
#######################################################################
#
#                 Cambridge Crystallographic Data Centre
#                                CCDC 
#
#######################################################################
#
# If this CIF has been generated from an entry in the Cambridge 
# Structural Database, then it will include bibliographic, chemical, 
# crystal, experimental, refinement or atomic coordinate data resulting 
# from the CCDC's data processing and validation procedures.
#
#######################################################################

data_JIPGAT
_chemical_compound_source        'Flueggea suffruticosa'
_chemical_name_common            'Secutisine D methanol solvate'
_chemical_formula_moiety         'C26 H28 N2 O4,C1 H4 O1'
_chemical_name_systematic        
'5-(2-oxo-2,6,9,10-tetrahydro-8H-6,11b-methanofuro[2,3-c]pyrido[1,2-a]azepin-11-yl)-5,6,9,10,11,11a-hexahydro-8H-6,11b-methanofuro[2,3-c]pyrido[1,2-a]azepin-2(4H)-one methanol solvate'
_symmetry_cell_setting           orthorhombic
_symmetry_space_group_name_H-M   'P 21 21 21'
_symmetry_Int_Tables_number      19
_space_group_name_Hall           'P 2ac 2ab'
loop_
_symmetry_equiv_pos_site_id
_symmetry_equiv_pos_as_xyz
1 x,y,z
2 1/2-x,-y,1/2+z
3 1/2+x,1/2-y,-z
4 -x,1/2+y,1/2-z
_cell_length_a                   9.9036(3)
_cell_length_b                   14.6612(4)
_cell_length_c                   15.9533(4)
_cell_angle_alpha                90
_cell_angle_beta                 90
_cell_angle_gamma                90
_cell_volume                     2316.4
_exptl_crystal_colour            orange
_exptl_crystal_description       block
_chemical_melting_point          '406.15-407.15 K'
_cell_formula_units_Z            4
loop_
_atom_site_label
_atom_site_type_symbol
_atom_site_fract_x
_atom_site_fract_y
_atom_site_fract_z
O1 O 0.04758(18) 0.01927(14) 0.75996(13)
O2 O 0.46577(18) 0.41773(13) 0.84682(11)
O3 O 0.0584(2) -0.12627(15) 0.80127(17)
O4 O 0.4533(2) 0.44716(16) 0.70911(13)
C1 C 0.1357(3) 0.09730(18) 0.76114(17)
N1 N 0.2295(2) 0.22082(15) 0.69474(14)
N2 N 0.3275(2) 0.35836(16) 1.04606(13)
C2 C 0.2601(2) 0.06533(18) 0.80525(16)
C3 C 0.1864(3) 0.4957(2) 1.0269(2)
H1 H 0.124627 0.514816 1.067090
C4 C 0.2444(3) -0.02214(17) 0.82524(18)
H2 H 0.307562 -0.058040 0.853042
C5 C 0.4311(3) 0.48395(19) 0.99023(18)
H3 H 0.520397 0.465163 1.008326
H4 H 0.431261 0.548546 0.977071
C6 C 0.3731(3) 0.13092(17) 0.81908(17)
H5 H 0.431093 0.130868 0.770098
H6 H 0.426433 0.110464 0.866474
C7 C 0.3383(2) 0.33601(17) 0.96050(15)
C8 C 0.2693(3) 0.48588(19) 0.80199(18)
H7 H 0.206223 0.512743 0.766558
C9 C 0.1952(3) 0.24738(18) 0.78185(16)
H8 H 0.165734 0.311096 0.785009
C10 C 0.3222(3) 0.45892(19) 1.05356(17)
H9 H 0.346118 0.479152 1.110194
C11 C 0.2541(3) 0.47314(17) 0.88426(17)
C12 C 0.4002(3) 0.45100(19) 0.77684(18)
C13 C 0.2401(3) 0.0845(2) 0.60869(18)
H10 H 0.194549 0.028002 0.594335
H11 H 0.328851 0.069858 0.630580
C14 C 0.1130(3) -0.0524(2) 0.79666(19)
C15 C 0.3238(3) 0.23042(18) 0.83596(16)
H12 H 0.394007 0.270999 0.813913
C16 C 0.3780(3) 0.42572(17) 0.91743(16)
C17 C 0.3081(3) 0.2407(2) 0.55346(18)
H13 H 0.402479 0.235093 0.568882
H14 H 0.302834 0.279761 0.504493
C18 C 0.3089(3) 0.25325(18) 0.92877(17)
C19 C 0.0819(3) 0.1822(2) 0.80564(18)
H15 H -0.004680 0.201501 0.783531
H16 H 0.075411 0.173576 0.865790
C20 C 0.2799(4) 0.2035(2) 1.08159(18)
H17 H 0.224529 0.163689 1.115853
H18 H 0.373528 0.194679 1.097579
C21 C 0.2313(3) 0.2852(2) 0.62531(17)
H19 H 0.275579 0.341293 0.642096
H20 H 0.139826 0.299484 0.608032
C22 C 0.1593(3) 0.13658(18) 0.67314(17)
H21 H 0.071612 0.152309 0.648675
C23 C 0.1546(3) 0.5008(2) 0.9451(2)
H22 H 0.070301 0.521656 0.928091
C24 C 0.2526(3) 0.1458(2) 0.53099(18)
H23 H 0.164517 0.152458 0.505072
H24 H 0.312202 0.117072 0.490632
C25 C 0.2398(4) 0.3020(2) 1.09645(18)
H25 H 0.146329 0.311492 1.080448
H26 H 0.249623 0.317350 1.155277
C26 C 0.2616(4) 0.1794(2) 0.98944(18)
H27 H 0.166722 0.167330 0.979210
H28 H 0.311017 0.123735 0.977767
O5 O 0.2017(2) 0.70949(17) 0.82455(18)
H29 H 0.160478 0.757973 0.823783
C27 C 0.3393(4) 0.7266(3) 0.8288(2)
H30 H 0.365667 0.764447 0.782543
H31 H 0.387860 0.669974 0.826459
H32 H 0.359702 0.757219 0.880515
loop_
_geom_bond_atom_site_label_1
_geom_bond_atom_site_label_2
_geom_bond_site_symmetry_1
_geom_bond_site_symmetry_2
O1 C1 1_555 1_555
O2 C12 1_555 1_555
O3 C14 1_555 1_555
O4 C12 1_555 1_555
C1 C2 1_555 1_555
N1 C9 1_555 1_555
N2 C7 1_555 1_555
C2 C4 1_555 1_555
C3 H1 1_555 1_555
C4 H2 1_555 1_555
C5 H3 1_555 1_555
H4 C5 1_555 1_555
C6 C2 1_555 1_555
H5 C6 1_555 1_555
H6 C6 1_555 1_555
C7 C16 1_555 1_555
C8 H7 1_555 1_555
C9 H8 1_555 1_555
C10 N2 1_555 1_555
H9 C10 1_555 1_555
C11 C8 1_555 1_555
C12 C8 1_555 1_555
C13 H10 1_555 1_555
H11 C13 1_555 1_555
C14 O1 1_555 1_555
C15 C6 1_555 1_555
H12 C15 1_555 1_555
C16 O2 1_555 1_555
C17 H13 1_555 1_555
H14 C17 1_555 1_555
C18 C7 1_555 1_555
C19 C1 1_555 1_555
H15 C19 1_555 1_555
H16 C19 1_555 1_555
C20 H17 1_555 1_555
H18 C20 1_555 1_555
C21 N1 1_555 1_555
H19 C21 1_555 1_555
H20 C21 1_555 1_555
C22 C1 1_555 1_555
H21 C22 1_555 1_555
C23 C3 1_555 1_555
H22 C23 1_555 1_555
C24 C13 1_555 1_555
H23 C24 1_555 1_555
H24 C24 1_555 1_555
C25 N2 1_555 1_555
H25 C25 1_555 1_555
H26 C25 1_555 1_555
C26 C18 1_555 1_555
H27 C26 1_555 1_555
H28 C26 1_555 1_555
O5 H29 1_555 1_555
C27 O5 1_555 1_555
H30 C27 1_555 1_555
H31 C27 1_555 1_555
H32 C27 1_555 1_555
N1 C22 1_555 1_555
C3 C10 1_555 1_555
C4 C14 1_555 1_555
C5 C10 1_555 1_555
C5 C16 1_555 1_555
C9 C15 1_555 1_555
C9 C19 1_555 1_555
C11 C16 1_555 1_555
C11 C23 1_555 1_555
C13 C22 1_555 1_555
C15 C18 1_555 1_555
C17 C21 1_555 1_555
C17 C24 1_555 1_555
C20 C25 1_555 1_555
C20 C26 1_555 1_555

#END
