
#######################################################################
#
#                 Cambridge Crystallographic Data Centre
#                                CCDC 
#
#######################################################################
#
# If this CIF has been generated from an entry in the Cambridge 
# Structural Database, then it will include bibliographic, chemical, 
# crystal, experimental, refinement or atomic coordinate data resulting 
# from the CCDC's data processing and validation procedures.
#
#######################################################################

data_JIPKOL
_chemical_formula_moiety         'C26 H27 N1 O4'
_chemical_name_systematic        
'2-{2-[(benzenecarbonyl)amino]-1-phenylethyl}phenyl t-butyl carbonate'
_symmetry_cell_setting           tetragonal
_symmetry_space_group_name_H-M   'P 41 21 2'
_symmetry_Int_Tables_number      92
_space_group_name_Hall           'P 4abw 2nw'
loop_
_symmetry_equiv_pos_site_id
_symmetry_equiv_pos_as_xyz
1 x,y,z
2 -x,-y,1/2+z
3 1/2-y,1/2+x,1/4+z
4 1/2+y,1/2-x,3/4+z
5 1/2-x,1/2+y,1/4-z
6 1/2+x,1/2-y,3/4-z
7 y,x,-z
8 -y,-x,1/2-z
_cell_length_a                   8.5863(3)
_cell_length_b                   8.5863(3)
_cell_length_c                   60.748(3)
_cell_angle_alpha                90
_cell_angle_beta                 90
_cell_angle_gamma                90
_cell_volume                     4478.62
_exptl_crystal_colour            colorless
_exptl_crystal_description       needle
_cell_formula_units_Z            8
_exptl_crystal_recrystallization_method dichloromethane
loop_
_atom_site_label
_atom_site_type_symbol
_atom_site_fract_x
_atom_site_fract_y
_atom_site_fract_z
O1 O 0.4911(3) 0.7567(3) 0.53329(4)
O2 O 0.8043(3) 1.1492(4) 0.60974(4)
O3 O 0.5043(4) 0.9272(4) 0.50783(4)
N1 N 0.7182(4) 1.0032(4) 0.58181(5)
H1 H 0.7341 0.9669 0.5688
O4 O 0.6972(4) 0.9182(4) 0.53275(5)
C1 C 0.8271(5) 1.0927(5) 0.59132(6)
C2 C 0.9743(5) 1.1252(5) 0.57908(6)
C3 C 0.5482(4) 0.7163(5) 0.57203(6)
C4 C 0.5787(6) 0.8742(5) 0.52525(6)
C5 C 0.6095(5) 0.6145(5) 0.58780(6)
H2 H 0.6043 0.6427 0.6026
C6 C 0.4673(5) 0.8655(4) 0.57907(6)
H3 H 0.4432 0.9247 0.5657
C7 C 0.3125(5) 0.8268(5) 0.59035(6)
C8 C 0.5603(5) 0.6686(5) 0.55051(6)
C9 C 0.5731(5) 0.9664(5) 0.59324(6)
H4 H 0.5196 1.0623 0.5970
H5 H 0.5966 0.9120 0.6068
C10 C 0.2619(5) 0.9002(5) 0.60923(7)
H6 H 0.3247 0.9743 0.6160
C11 C 1.0156(5) 1.0504(5) 0.55965(7)
H7 H 0.9494 0.9767 0.5535
C12 C 0.6273(5) 0.5300(5) 0.54450(7)
H8 H 0.6328 0.5016 0.5297
C13 C 0.5668(6) 1.0626(6) 0.49496(7)
C14 C 1.0733(6) 1.2354(6) 0.58757(7)
H9 H 1.0460 1.2874 0.6004
C15 C 0.6768(5) 0.4752(5) 0.58239(8)
H10 H 0.7156 0.4097 0.5933
C16 C 1.2532(6) 1.1963(6) 0.55840(8)
H11 H 1.3468 1.2202 0.5514
C17 C 1.1552(6) 1.0860(6) 0.54955(8)
H12 H 1.1833 1.0348 0.5367
C18 C 0.6862(6) 0.4334(6) 0.56052(8)
H13 H 0.7326 0.3396 0.5566
C19 C 0.2139(6) 0.7204(6) 0.58071(8)
H14 H 0.2449 0.6710 0.5678
C20 C 0.0225(6) 0.7570(6) 0.60837(9)
H15 H -0.0743 0.7332 0.6144
C21 C 1.2127(6) 1.2705(6) 0.57736(8)
H16 H 1.2789 1.3447 0.5834
C22 C 0.1164(6) 0.8636(7) 0.61823(8)
H17 H 0.0836 0.9126 0.6311
C23 C 0.0717(6) 0.6851(6) 0.58954(10)
H18 H 0.0082 0.6119 0.5827
C24 C 0.7198(8) 1.0225(8) 0.48545(9)
H19 H 0.8000 1.0422 0.4961
H20 H 0.7380 1.0849 0.4726
H21 H 0.7209 0.9143 0.4815
C25 C 0.4480(9) 1.0811(9) 0.47731(10)
H22 H 0.4728 1.1708 0.4686
H23 H 0.3471 1.0945 0.4838
H24 H 0.4475 0.9900 0.4681
C26 C 0.5764(10) 1.2011(7) 0.50926(9)
H25 H 0.6605 1.1885 0.5195
H26 H 0.4804 1.2131 0.5172
H27 H 0.5947 1.2919 0.5004
loop_
_geom_bond_atom_site_label_1
_geom_bond_atom_site_label_2
_geom_bond_site_symmetry_1
_geom_bond_site_symmetry_2
O1 C4 1_555 1_555
O2 C1 1_555 1_555
O3 C4 1_555 1_555
N1 H1 1_555 1_555
O4 C4 1_555 1_555
C1 N1 1_555 1_555
C2 C1 1_555 1_555
C3 C5 1_555 1_555
C5 H2 1_555 1_555
C6 C3 1_555 1_555
H3 C6 1_555 1_555
C7 C6 1_555 1_555
C8 O1 1_555 1_555
C9 N1 1_555 1_555
H4 C9 1_555 1_555
H5 C9 1_555 1_555
C10 C7 1_555 1_555
H6 C10 1_555 1_555
C11 C2 1_555 1_555
H7 C11 1_555 1_555
C12 C8 1_555 1_555
H8 C12 1_555 1_555
C13 O3 1_555 1_555
C14 C2 1_555 1_555
H9 C14 1_555 1_555
C15 C5 1_555 1_555
H10 C15 1_555 1_555
C16 H11 1_555 1_555
C17 C11 1_555 1_555
H12 C17 1_555 1_555
C18 C12 1_555 1_555
H13 C18 1_555 1_555
C19 C7 1_555 1_555
H14 C19 1_555 1_555
C20 H15 1_555 1_555
C21 C14 1_555 1_555
H16 C21 1_555 1_555
C22 C10 1_555 1_555
H17 C22 1_555 1_555
C23 C19 1_555 1_555
H18 C23 1_555 1_555
C24 C13 1_555 1_555
H19 C24 1_555 1_555
H20 C24 1_555 1_555
H21 C24 1_555 1_555
C25 C13 1_555 1_555
H22 C25 1_555 1_555
H23 C25 1_555 1_555
H24 C25 1_555 1_555
C26 C13 1_555 1_555
H25 C26 1_555 1_555
H26 C26 1_555 1_555
H27 C26 1_555 1_555
C3 C8 1_555 1_555
C6 C9 1_555 1_555
C15 C18 1_555 1_555
C16 C17 1_555 1_555
C16 C21 1_555 1_555
C20 C22 1_555 1_555
C20 C23 1_555 1_555

#END
