
#######################################################################
#
#                 Cambridge Crystallographic Data Centre
#                                CCDC 
#
#######################################################################
#
# If this CIF has been generated from an entry in the Cambridge 
# Structural Database, then it will include bibliographic, chemical, 
# crystal, experimental, refinement or atomic coordinate data resulting 
# from the CCDC's data processing and validation procedures.
#
#######################################################################

data_JIQHID
_chemical_formula_moiety         'C36 H31 Br1 N2 O4'
_chemical_name_systematic        
'methyl 5-(3-bromo-1-{1,2-diphenyl-2-[(pyridine-2-carbonyl)amino]ethyl}-2-oxo-1,2-dihydronaphthalen-1-yl)pent-2-enoate'
_symmetry_cell_setting           monoclinic
_symmetry_space_group_name_H-M   'C 2'
_symmetry_Int_Tables_number      5
_space_group_name_Hall           'C 2y'
loop_
_symmetry_equiv_pos_site_id
_symmetry_equiv_pos_as_xyz
1 x,y,z
2 -x,y,-z
3 1/2+x,1/2+y,z
4 1/2-x,1/2+y,-z
_cell_length_a                   15.0417(9)
_cell_length_b                   9.5685(7)
_cell_length_c                   21.9276(18)
_cell_angle_alpha                90
_cell_angle_beta                 102.883(7)
_cell_angle_gamma                90
_cell_volume                     3076.52
_exptl_crystal_colour            colorless
_exptl_crystal_description       block
_cell_formula_units_Z            4
loop_
_atom_site_label
_atom_site_type_symbol
_atom_site_fract_x
_atom_site_fract_y
_atom_site_fract_z
Br1 Br 0.12934(8) 0.29078(18) 0.48870(6)
O1 O 0.0512(5) 0.2653(10) 0.3498(4)
O2 O -0.3760(5) 0.5452(10) 0.1751(4)
O3 O -0.3150(5) 0.4674(10) 0.0978(4)
O4 O 0.0456(6) 0.6927(10) 0.1217(4)
N1 N 0.0752(5) 0.4799(9) 0.1654(4)
H1 H 0.0589 0.3935 0.1636
N2 N -0.0617(7) 0.3668(14) 0.0816(5)
C1 C 0.0663(6) 0.4966(11) 0.3099(5)
C2 C 0.0733(7) 0.3883(14) 0.3627(6)
C3 C 0.1111(6) 0.4332(14) 0.4267(5)
C4 C 0.1302(6) 0.5678(13) 0.4414(5)
H2 H 0.1547 0.5911 0.4829
C5 C 0.1141(7) 0.6772(12) 0.3953(5)
C6 C 0.1294(7) 0.8156(14) 0.4146(5)
H3 H 0.1526 0.8346 0.4568
C7 C 0.1112(8) 0.9234(15) 0.3735(7)
H4 H 0.1231 1.0148 0.3874
C8 C 0.0753(8) 0.8978(14) 0.3115(7)
H5 H 0.0615 0.9712 0.2832
C9 C 0.0599(7) 0.7600(12) 0.2916(5)
H6 H 0.0354 0.7432 0.2494
C10 C 0.0792(6) 0.6468(12) 0.3316(5)
C11 C -0.0296(6) 0.4759(12) 0.2663(5)
H7 H -0.0358 0.5389 0.2310
H8 H -0.0342 0.3811 0.2503
C12 C -0.1073(6) 0.5020(13) 0.2987(5)
H9 H -0.1061 0.4300 0.3300
H10 H -0.0972 0.5910 0.3203
C13 C -0.2000(6) 0.5038(12) 0.2561(6)
H11 H -0.2489 0.5227 0.2743
C14 C -0.2193(7) 0.4810(13) 0.1947(6)
H12 H -0.1731 0.4517 0.1757
C15 C -0.3116(7) 0.5009(13) 0.1562(5)
C16 C -0.4017(7) 0.4838(16) 0.0553(6)
H13 H -0.3942 0.4767 0.0131
H14 H -0.4265 0.5738 0.0615
H15 H -0.4425 0.4120 0.0629
C17 C 0.1457(5) 0.4501(11) 0.2768(4)
H16 H 0.1336 0.3513 0.2663
C18 C 0.2364(6) 0.4512(13) 0.3240(5)
C19 C 0.2727(7) 0.3287(16) 0.3543(5)
H17 H 0.2418 0.2443 0.3453
C20 C 0.3558(8) 0.3339(18) 0.3982(6)
H18 H 0.3803 0.2525 0.4184
C21 C 0.4012(9) 0.457(2) 0.4116(6)
H19 H 0.4559 0.4584 0.4415
C22 C 0.3681(7) 0.5794(17) 0.3818(6)
H20 H 0.4005 0.6626 0.3905
C23 C 0.2844(6) 0.5752(14) 0.3382(5)
H21 H 0.2605 0.6573 0.3184
C24 C 0.1512(6) 0.5201(13) 0.2153(4)
H22 H 0.1467 0.6211 0.2212
C25 C 0.2411(6) 0.4929(11) 0.1955(4)
C26 C 0.2642(6) 0.3567(11) 0.1838(5)
H23 H 0.2263 0.2831 0.1892
C27 C 0.3449(7) 0.3306(13) 0.1639(5)
H24 H 0.3596 0.2397 0.1548
C28 C 0.4012(8) 0.4361(16) 0.1578(6)
H25 H 0.4552 0.4170 0.1455
C29 C 0.3806(8) 0.5691(16) 0.1694(6)
H26 H 0.4200 0.6413 0.1647
C30 C 0.2985(7) 0.5989(12) 0.1888(5)
H27 H 0.2841 0.6905 0.1969
C31 C 0.0281(8) 0.5663(14) 0.1218(6)
C32 C -0.0482(7) 0.5025(17) 0.0745(5)
C33 C -0.0987(8) 0.5839(18) 0.0275(5)
H28 H -0.0878 0.6793 0.0253
C34 C -0.1657(10) 0.519(2) -0.0159(8)
H29 H -0.1998 0.5701 -0.0489
C35 C -0.1826(12) 0.383(3) -0.0113(8)
H30 H -0.2282 0.3394 -0.0407
C36 C -0.1299(8) 0.307(2) 0.0389(6)
H31 H -0.1424 0.2132 0.0428
loop_
_geom_bond_atom_site_label_1
_geom_bond_atom_site_label_2
_geom_bond_site_symmetry_1
_geom_bond_site_symmetry_2
Br1 C3 1_555 1_555
O1 C2 1_555 1_555
O2 C15 1_555 1_555
O3 C15 1_555 1_555
O4 C31 1_555 1_555
N1 H1 1_555 1_555
N2 C32 1_555 1_555
C1 C2 1_555 1_555
C2 C3 1_555 1_555
C3 C4 1_555 1_555
C4 H2 1_555 1_555
C5 C4 1_555 1_555
C6 C5 1_555 1_555
H3 C6 1_555 1_555
C7 C6 1_555 1_555
H4 C7 1_555 1_555
C8 C7 1_555 1_555
H5 C8 1_555 1_555
C9 C8 1_555 1_555
H6 C9 1_555 1_555
C10 C1 1_555 1_555
C11 C1 1_555 1_555
H7 C11 1_555 1_555
H8 C11 1_555 1_555
C12 C11 1_555 1_555
H9 C12 1_555 1_555
H10 C12 1_555 1_555
C13 C12 1_555 1_555
H11 C13 1_555 1_555
C14 C13 1_555 1_555
H12 C14 1_555 1_555
C15 C14 1_555 1_555
C16 O3 1_555 1_555
H13 C16 1_555 1_555
H14 C16 1_555 1_555
H15 C16 1_555 1_555
C17 C1 1_555 1_555
H16 C17 1_555 1_555
C18 C17 1_555 1_555
C19 C18 1_555 1_555
H17 C19 1_555 1_555
C20 C19 1_555 1_555
H18 C20 1_555 1_555
C21 C20 1_555 1_555
H19 C21 1_555 1_555
C22 C21 1_555 1_555
H20 C22 1_555 1_555
C23 C18 1_555 1_555
H21 C23 1_555 1_555
C24 N1 1_555 1_555
H22 C24 1_555 1_555
C25 C24 1_555 1_555
C26 C25 1_555 1_555
H23 C26 1_555 1_555
C27 C26 1_555 1_555
H24 C27 1_555 1_555
C28 C27 1_555 1_555
H25 C28 1_555 1_555
C29 C28 1_555 1_555
H26 C29 1_555 1_555
C30 C25 1_555 1_555
H27 C30 1_555 1_555
C31 N1 1_555 1_555
C32 C31 1_555 1_555
C33 C32 1_555 1_555
H28 C33 1_555 1_555
C34 C33 1_555 1_555
H29 C34 1_555 1_555
C35 C34 1_555 1_555
H30 C35 1_555 1_555
C36 N2 1_555 1_555
H31 C36 1_555 1_555
C5 C10 1_555 1_555
C9 C10 1_555 1_555
C17 C24 1_555 1_555
C22 C23 1_555 1_555
C29 C30 1_555 1_555
C35 C36 1_555 1_555

#END
