
#######################################################################
#
#                 Cambridge Crystallographic Data Centre
#                                CCDC 
#
#######################################################################
#
# If this CIF has been generated from an entry in the Cambridge 
# Structural Database, then it will include bibliographic, chemical, 
# crystal, experimental, refinement or atomic coordinate data resulting 
# from the CCDC's data processing and validation procedures.
#
#######################################################################

data_JIQSUX01
_chemical_formula_moiety         'C22 H29 N1 O8 P2 S1'
_chemical_name_systematic        
cis-2-((P,P-Diethoxy)phosphono(m-nitro)benzyloxy)-4-phenyl-5,5-dimethyl-1,3,2-dioxaphosphorinane-2-sulfide
_symmetry_cell_setting           monoclinic
_symmetry_space_group_name_H-M   'P 21/c'
_symmetry_Int_Tables_number      14
_space_group_name_Hall           '-P 2ybc'
loop_
_symmetry_equiv_pos_site_id
_symmetry_equiv_pos_as_xyz
1 x,y,z
2 -x,1/2+y,1/2-z
3 -x,-y,-z
4 x,1/2-y,1/2+z
_cell_length_a                   9.888(2)
_cell_length_b                   20.831(4)
_cell_length_c                   12.797(3)
_cell_angle_alpha                90
_cell_angle_beta                 94.42(3)
_cell_angle_gamma                90
_cell_volume                     2628.05
_exptl_crystal_colour            colorless
_chemical_melting_point          157-158deg.C
_cell_formula_units_Z            4
_exptl_crystal_recrystallization_method acetone
loop_
_atom_site_label
_atom_site_type_symbol
_atom_site_fract_x
_atom_site_fract_y
_atom_site_fract_z
P1 P 0.7534(2) 0.1469(1) 0.1797(1)
P2 P 1.1604(2) 0.1100(1) 0.2176(2)
S1 S 0.6783(2) 0.0813(1) 0.2617(2)
O1 O 1.2249(5) 0.1709(2) 0.1972(5)
O2 O 1.1246(5) 0.0639(3) 0.1222(4)
O3 O 1.2379(5) 0.0663(2) 0.2984(4)
O4 O 0.9124(4) 0.1531(2) 0.1909(3)
O5 O 0.7090(4) 0.2176(2) 0.2033(3)
O6 O 0.7288(4) 0.1417(2) 0.0584(3)
C1 C 1.2300(28) 0.0473(23) 0.0545(23)
C2 C 1.1616(32) 0.0331(19) -0.0445(19)
C5 C 1.3344(9) 0.0888(6) 0.3768(8)
C6 C 1.3473(13) 0.0477(7) 0.4659(9)
C7 C 0.9951(6) 0.1177(3) 0.2689(5)
C8 C 0.5917(7) 0.1603(3) 0.0169(6)
C9 C 0.5601(6) 0.2297(3) 0.0430(5)
C10 C 0.6538(7) 0.2747(4) -0.0123(6)
C11 C 0.4136(7) 0.2418(3) 0.0031(6)
C12 C 0.5735(6) 0.2376(3) 0.1622(5)
C13 C 0.5549(7) 0.3055(3) 0.2016(5)
C14 C 0.4265(7) 0.3269(4) 0.2211(5)
C15 C 0.4096(10) 0.3900(5) 0.2529(7)
C16 C 0.5155(14) 0.4295(4) 0.2657(7)
C17 C 0.6425(10) 0.4094(4) 0.2483(7)
C18 C 0.6629(7) 0.3470(3) 0.2169(6)
C19 C 1.0038(5) 0.1497(3) 0.3736(5)
C20 C 1.0210(6) 0.2160(3) 0.3830(6)
C21 C 1.0395(7) 0.2446(3) 0.4795(7)
C22 C 1.0420(6) 0.2090(4) 0.5685(6)
C23 C 1.0224(6) 0.1437(3) 0.5591(5)
C24 C 1.0028(6) 0.1140(3) 0.4638(5)
N1 N 1.0225(7) 0.1047(4) 0.6549(6)
O7 O 1.0347(7) 0.1311(3) 0.7392(5)
O8 O 1.0143(9) 0.0470(3) 0.6455(5)
H1 H 0.9568 0.0757 0.2756
H2 H 0.5079 0.2104 0.1915
C3? C 1.1780(43) 0.0702(14) 0.0126(31)
C4? C 1.2685(54) 0.0189(17) 0.0054(48)
loop_
_geom_bond_atom_site_label_1
_geom_bond_atom_site_label_2
_geom_bond_site_symmetry_1
_geom_bond_site_symmetry_2
P1 S1 1_555 1_555
P2 O1 1_555 1_555
O2 P2 1_555 1_555
O3 P2 1_555 1_555
O4 P1 1_555 1_555
O5 P1 1_555 1_555
O6 P1 1_555 1_555
C1 O2 1_555 1_555
C2 C1 1_555 1_555
C5 O3 1_555 1_555
C6 C5 1_555 1_555
C7 P2 1_555 1_555
C8 O6 1_555 1_555
C9 C8 1_555 1_555
C10 C9 1_555 1_555
C11 C9 1_555 1_555
C12 O5 1_555 1_555
C13 C12 1_555 1_555
C14 C13 1_555 1_555
C15 C14 1_555 1_555
C16 C15 1_555 1_555
C17 C16 1_555 1_555
C18 C13 1_555 1_555
C19 C7 1_555 1_555
C20 C19 1_555 1_555
C21 C20 1_555 1_555
C22 C21 1_555 1_555
C23 C22 1_555 1_555
C24 C19 1_555 1_555
N1 C23 1_555 1_555
O7 N1 1_555 1_555
O8 N1 1_555 1_555
H1 C7 1_555 1_555
H2 C12 1_555 1_555
O4 C7 1_555 1_555
C9 C12 1_555 1_555
C17 C18 1_555 1_555
C23 C24 1_555 1_555

#END
