
#######################################################################
#
#                 Cambridge Crystallographic Data Centre
#                                CCDC 
#
#######################################################################
#
# If this CIF has been generated from an entry in the Cambridge 
# Structural Database, then it will include bibliographic, chemical, 
# crystal, experimental, refinement or atomic coordinate data resulting 
# from the CCDC's data processing and validation procedures.
#
#######################################################################

data_JIQWIS
_chemical_formula_moiety         'C26 H22 O3'
_chemical_name_systematic        
"ethyl 4-(4'-oxo-4,5-dihydro-3H-spiro[acenaphthylene-1,1'-cyclohexa[2,5]dien]-2-yl)benzoate"
_symmetry_cell_setting           monoclinic
_symmetry_space_group_name_H-M   'P 21/c'
_symmetry_Int_Tables_number      14
_space_group_name_Hall           '-P 2ybc'
loop_
_symmetry_equiv_pos_site_id
_symmetry_equiv_pos_as_xyz
1 x,y,z
2 -x,1/2+y,1/2-z
3 -x,-y,-z
4 x,1/2-y,1/2+z
_cell_length_a                   11.072(2)
_cell_length_b                   11.050(2)
_cell_length_c                   16.736(3)
_cell_angle_alpha                90
_cell_angle_beta                 95.875(4)
_cell_angle_gamma                90
_cell_volume                     2036.82
_exptl_crystal_colour            colorless
_exptl_crystal_description       block
_cell_formula_units_Z            4
loop_
_atom_site_label
_atom_site_type_symbol
_atom_site_fract_x
_atom_site_fract_y
_atom_site_fract_z
C1 C -0.01484(17) 0.65705(17) 0.08365(11)
O1 O -0.37974(15) 0.86597(15) -0.05318(10)
C2 C -0.21575(19) 0.70057(19) 0.01924(13)
H1 H -0.2929 0.6734 0.0003
C3 C -0.18572(18) 0.82146(18) 0.01044(12)
C4 C 0.07633(17) 0.57308(17) 0.12189(11)
C5 C 0.25489(17) 0.48262(18) 0.17152(12)
C6 C 0.04226(16) 0.46884(16) 0.17782(11)
O2 O -0.24149(16) 1.01306(16) -0.04566(12)
C7 C -0.02838(18) 0.36824(17) 0.13484(12)
H2 H 0.0010 0.3348 0.0897
C8 C -0.0702(2) 0.85928(19) 0.04036(13)
H3 H -0.0495 0.9405 0.0364
C9 C 0.19855(17) 0.57739(17) 0.12072(12)
C10 C -0.13237(18) 0.62073(19) 0.05563(12)
H4 H -0.1548 0.5404 0.0618
C11 C -0.2694(2) 0.9111(2) -0.03140(14)
C12 C -0.01965(18) 0.51937(18) 0.24604(12)
H5 H 0.0173 0.5833 0.2752
C13 C 0.16730(17) 0.41848(17) 0.20794(12)
C14 C 0.01360(19) 0.77975(19) 0.07553(12)
H6 H 0.0906 0.8074 0.0943
C15 C -0.1239(2) 0.4779(2) 0.26696(13)
H7 H -0.1581 0.5146 0.3093
O3 O -0.28165(16) 0.3368(2) 0.24633(13)
C16 C 0.37743(18) 0.4561(2) 0.18457(14)
C17 C 0.2818(2) 0.6576(2) 0.07866(15)
H8 H 0.2432 0.6778 0.0257
H9 H 0.2955 0.7323 0.1087
C18 C 0.20079(19) 0.3254(2) 0.26023(14)
H10 H 0.1432 0.2820 0.2852
C19 C -0.13068(19) 0.3248(2) 0.15812(14)
H11 H -0.1679 0.2594 0.1306
C20 C -0.18670(19) 0.3763(3) 0.22545(15)
C21 C 0.4107(2) 0.3620(2) 0.23724(16)
H12 H 0.4921 0.3411 0.2479
C22 C 0.3231(2) 0.2987(2) 0.27423(16)
H13 H 0.3477 0.2364 0.3096
C23 C 0.4623(2) 0.5340(3) 0.14182(17)
H14 H 0.4996 0.5934 0.1792
H15 H 0.5264 0.4836 0.1245
C24 C -0.4635(2) 0.9435(3) -0.10182(16)
H16 H -0.4338 0.9582 -0.1535
H17 H -0.4712 1.0208 -0.0752
C25 C 0.4002(2) 0.5980(3) 0.0707(2)
H18 H 0.4555 0.6592 0.0544
H19 H 0.3880 0.5399 0.0272
C26 C -0.5826(3) 0.8819(3) -0.11291(19)
H20 H -0.5746 0.8069 -0.1408
H21 H -0.6402 0.9328 -0.1438
H22 H -0.6103 0.8662 -0.0614
loop_
_geom_bond_atom_site_label_1
_geom_bond_atom_site_label_2
_geom_bond_site_symmetry_1
_geom_bond_site_symmetry_2
C1 C4 1_555 1_555
O1 C11 1_555 1_555
C2 H1 1_555 1_555
C3 C2 1_555 1_555
C4 C6 1_555 1_555
C5 C9 1_555 1_555
C6 C7 1_555 1_555
O2 C11 1_555 1_555
C7 H2 1_555 1_555
C8 C3 1_555 1_555
H3 C8 1_555 1_555
C9 C4 1_555 1_555
C10 C1 1_555 1_555
H4 C10 1_555 1_555
C11 C3 1_555 1_555
C12 C6 1_555 1_555
H5 C12 1_555 1_555
C13 C5 1_555 1_555
C14 C1 1_555 1_555
H6 C14 1_555 1_555
C15 C12 1_555 1_555
H7 C15 1_555 1_555
O3 C20 1_555 1_555
C16 C5 1_555 1_555
C17 C9 1_555 1_555
H8 C17 1_555 1_555
H9 C17 1_555 1_555
C18 C13 1_555 1_555
H10 C18 1_555 1_555
C19 C7 1_555 1_555
H11 C19 1_555 1_555
C20 C15 1_555 1_555
C21 C16 1_555 1_555
H12 C21 1_555 1_555
C22 C18 1_555 1_555
H13 C22 1_555 1_555
C23 C16 1_555 1_555
H14 C23 1_555 1_555
H15 C23 1_555 1_555
C24 O1 1_555 1_555
H16 C24 1_555 1_555
H17 C24 1_555 1_555
C25 C17 1_555 1_555
H18 C25 1_555 1_555
H19 C25 1_555 1_555
C26 C24 1_555 1_555
H20 C26 1_555 1_555
H21 C26 1_555 1_555
H22 C26 1_555 1_555
C2 C10 1_555 1_555
C6 C13 1_555 1_555
C8 C14 1_555 1_555
C19 C20 1_555 1_555
C21 C22 1_555 1_555
C23 C25 1_555 1_555

#END
