
#######################################################################
#
#                 Cambridge Crystallographic Data Centre
#                                CCDC 
#
#######################################################################
#
# If this CIF has been generated from an entry in the Cambridge 
# Structural Database, then it will include bibliographic, chemical, 
# crystal, experimental, refinement or atomic coordinate data resulting 
# from the CCDC's data processing and validation procedures.
#
#######################################################################

data_JIQWUC
_chemical_formula_moiety         'C22 H18 N8'
_chemical_name_systematic        
2-Phenyl-4,6-bis(2-(pyridin-2-ylmethylidene)hydrazinyl)pyrimidine
_symmetry_cell_setting           monoclinic
_symmetry_space_group_name_H-M   'P 21/c'
_symmetry_Int_Tables_number      14
_space_group_name_Hall           '-P 2ybc'
loop_
_symmetry_equiv_pos_site_id
_symmetry_equiv_pos_as_xyz
1 x,y,z
2 -x,1/2+y,1/2-z
3 -x,-y,-z
4 x,1/2-y,1/2+z
_cell_length_a                   12.2189(6)
_cell_length_b                   20.8844(8)
_cell_length_c                   7.4592(3)
_cell_angle_alpha                90
_cell_angle_beta                 99.437(2)
_cell_angle_gamma                90
_cell_volume                     1877.71
_exptl_crystal_colour            colorless
_exptl_crystal_description       plate
_cell_formula_units_Z            4
_exptl_crystal_recrystallization_method acetonitrile/dimethylsulfoxide
loop_
_atom_site_label
_atom_site_type_symbol
_atom_site_fract_x
_atom_site_fract_y
_atom_site_fract_z
C1 C 0.54698(19) -0.17401(10) -0.1254(3)
H1 H 0.6214 -0.1775 -0.0646
C2 C 0.46728(19) -0.21698(10) -0.0870(3)
H2 H 0.4866 -0.2492 0.0023
C3 C 0.36038(19) -0.21279(10) -0.1785(3)
H3 H 0.3068 -0.2431 -0.1540
C4 C 0.32932(18) -0.16489(9) -0.3065(3)
C5 C 0.40973(18) -0.12122(10) -0.3407(3)
H4 H 0.3900 -0.0877 -0.4259
C6 C 0.51788(19) -0.12639(10) -0.2517(3)
H5 H 0.5724 -0.0969 -0.2778
C7 C 0.21507(18) -0.16199(10) -0.4116(3)
C8 C 0.05903(18) -0.21534(10) -0.5388(3)
C9 C 0.01404(18) -0.15986(9) -0.6217(3)
H6 H -0.0568 -0.1591 -0.6965
C10 C 0.07901(18) -0.10554(10) -0.5883(3)
C11 C -0.11585(18) -0.34146(10) -0.7115(3)
H7 H -0.0886 -0.3726 -0.6226
C12 C -0.19725(18) -0.35970(10) -0.8669(3)
C13 C -0.25867(19) -0.31486(11) -0.9812(4)
H8 H -0.2505 -0.2704 -0.9562
C14 C -0.3307(2) -0.33597(11) -1.1296(4)
H9 H -0.3733 -0.3062 -1.2086
C15 C -0.3409(2) -0.40038(11) -1.1630(4)
H10 H -0.3908 -0.4161 -1.2646
C16 C -0.27746(19) -0.44163(12) -1.0464(4)
H11 H -0.2846 -0.4862 -1.0712
C17 C -0.06866(18) 0.02133(10) -0.8214(3)
H12 H -0.0149 0.0526 -0.7749
C18 C -0.16684(18) 0.04254(10) -0.9447(3)
C19 C -0.2587(2) 0.00383(11) -1.0008(4)
H13 H -0.2585 -0.0399 -0.9656
C20 C -0.3502(2) 0.03030(11) -1.1089(4)
H14 H -0.4149 0.0053 -1.1458
C21 C -0.3466(2) 0.09264(11) -1.1621(4)
H15 H -0.4085 0.1117 -1.2369
C22 C -0.25144(19) 0.12738(11) -1.1052(3)
H16 H -0.2490 0.1705 -1.1452
N1 N 0.15875(14) -0.21710(8) -0.4298(3)
N2 N 0.18050(14) -0.10563(8) -0.4844(3)
N3 N 0.00721(16) -0.27386(9) -0.5572(3)
N4 N -0.07999(15) -0.28329(8) -0.6927(3)
N5 N -0.20618(15) -0.42322(8) -0.9000(3)
N6 N 0.04695(16) -0.04640(9) -0.6553(3)
N7 N -0.05045(15) -0.03725(8) -0.7718(3)
N8 N -0.16233(15) 0.10400(8) -0.9971(3)
H17 H 0.0939(19) -0.0131(10) -0.637(3)
H18 H 0.0450(18) -0.3090(10) -0.516(3)
loop_
_geom_bond_atom_site_label_1
_geom_bond_atom_site_label_2
_geom_bond_site_symmetry_1
_geom_bond_site_symmetry_2
C1 H1 1_555 1_555
C2 C1 1_555 1_555
H2 C2 1_555 1_555
C3 C2 1_555 1_555
H3 C3 1_555 1_555
C4 C3 1_555 1_555
C5 C4 1_555 1_555
H4 C5 1_555 1_555
C6 C1 1_555 1_555
H5 C6 1_555 1_555
C7 C4 1_555 1_555
C8 C9 1_555 1_555
C9 H6 1_555 1_555
C10 C9 1_555 1_555
C11 H7 1_555 1_555
C12 C11 1_555 1_555
C13 C12 1_555 1_555
H8 C13 1_555 1_555
C14 C13 1_555 1_555
H9 C14 1_555 1_555
C15 C14 1_555 1_555
H10 C15 1_555 1_555
C16 C15 1_555 1_555
H11 C16 1_555 1_555
C17 H12 1_555 1_555
C18 C17 1_555 1_555
C19 C18 1_555 1_555
H13 C19 1_555 1_555
C20 C19 1_555 1_555
H14 C20 1_555 1_555
C21 C20 1_555 1_555
H15 C21 1_555 1_555
C22 C21 1_555 1_555
H16 C22 1_555 1_555
N1 C7 1_555 1_555
N2 C7 1_555 1_555
N3 C8 1_555 1_555
N4 C11 1_555 1_555
N5 C12 1_555 1_555
N6 C10 1_555 1_555
N7 C17 1_555 1_555
N8 C18 1_555 1_555
H17 N6 1_555 1_555
H18 N3 1_555 1_555
C5 C6 1_555 1_555
C8 N1 1_555 1_555
C10 N2 1_555 1_555
C16 N5 1_555 1_555
C22 N8 1_555 1_555
N3 N4 1_555 1_555
N6 N7 1_555 1_555

#END
