
#######################################################################
#
#                 Cambridge Crystallographic Data Centre
#                                CCDC 
#
#######################################################################
#
# If this CIF has been generated from an entry in the Cambridge 
# Structural Database, then it will include bibliographic, chemical, 
# crystal, experimental, refinement or atomic coordinate data resulting 
# from the CCDC's data processing and validation procedures.
#
#######################################################################

data_JIRBAO
_chemical_formula_moiety         'C18 H28 O10'
_chemical_name_systematic        
3,6-Anhydro-1,2-O-isopropylidene-5-O-(1,2-O-isopropylidene-\a-D-allofuranos-6-yl)-\a-D-glucofuranose
_symmetry_cell_setting           monoclinic
_symmetry_space_group_name_H-M   'P 21'
_symmetry_Int_Tables_number      4
_space_group_name_Hall           'P 2yb'
loop_
_symmetry_equiv_pos_site_id
_symmetry_equiv_pos_as_xyz
1 x,y,z
2 -x,1/2+y,-z
_cell_length_a                   6.5545(6)
_cell_length_b                   28.872(3)
_cell_length_c                   10.1445(8)
_cell_angle_alpha                90
_cell_angle_beta                 90.330(7)
_cell_angle_gamma                90
_cell_volume                     1919.73
_exptl_crystal_colour            white
_exptl_crystal_description       needle
_chemical_melting_point          '124 deg.C'
_cell_formula_units_Z            4
loop_
_atom_site_label
_atom_site_type_symbol
_atom_site_fract_x
_atom_site_fract_y
_atom_site_fract_z
C1 C 0.4576(7) 0.50838(15) 0.7042(4)
H1 H 0.5515 0.5331 0.7312
C2 C 0.2743(6) 0.50465(16) 0.7975(4)
H2 H 0.2987 0.5210 0.8808
C3 C 0.3733(7) 0.42893(13) 0.7333(4)
H3 H 0.3069 0.4218 0.6501
H4 H 0.4140 0.4003 0.7758
C4 C 0.5578(6) 0.46076(13) 0.7125(4)
H5 H 0.6477 0.4594 0.7899
C5 C 0.8220(7) 0.41650(13) 0.6053(5)
H6 H 0.8763 0.4154 0.6944
H7 H 0.9337 0.4242 0.5469
C6 C 0.7416(6) 0.36853(15) 0.5687(4)
H8 H 0.6500 0.3577 0.6383
C7 C 0.9232(6) 0.33619(13) 0.5611(4)
H9 H 1.0093 0.3400 0.6396
C8 C 1.0546(6) 0.34136(15) 0.4358(4)
H10 H 0.9678 0.3484 0.3595
C9 C 1.1459(6) 0.29262(15) 0.4225(4)
H11 H 1.1851 0.2851 0.3319
C10 C 1.2765(7) 0.24662(17) 0.5912(5)
C11 C 0.9808(7) 0.26114(14) 0.4748(4)
H12 H 0.9046 0.2467 0.4022
C12 C 0.1616(7) 0.52018(14) 0.5753(4)
H13 H 0.0947 0.4931 0.5359
C13 C 0.0755(7) 0.59717(17) 0.6111(4)
C14 C 0.1026(7) 0.52652(15) 0.7186(4)
H14 H -0.0322 0.5139 0.7396
C28 C 1.2652(10) 0.2604(2) 0.7343(6)
H28 H 1.2446 0.2333 0.7875
H29 H 1.1535 0.2815 0.7466
H30 H 1.3903 0.2753 0.7601
C29 C 1.4451(8) 0.21184(16) 0.5632(6)
H31 H 1.4245 0.1846 0.6156
H32 H 1.5749 0.2253 0.5849
H33 H 1.4424 0.2037 0.4715
C30 C 0.2282(9) 0.6345(2) 0.5880(6)
H34 H 0.2010 0.6490 0.5046
H35 H 0.3628 0.6214 0.5875
H36 H 0.2191 0.6572 0.6570
C31 C -0.1434(8) 0.6149(2) 0.6048(6)
H37 H -0.1681 0.6290 0.5205
H38 H -0.1640 0.6375 0.6732
H39 H -0.2361 0.5896 0.6169
O1 O 0.2401(5) 0.45569(10) 0.8176(3)
O2 O 0.6721(4) 0.45252(10) 0.5978(3)
O3 O 1.3087(5) 0.28732(10) 0.5139(3)
O4 O 1.0857(5) 0.22775(10) 0.5485(3)
O5 O 0.8484(4) 0.28908(10) 0.5545(3)
O6 O 0.3788(5) 0.51582(12) 0.5748(3)
O7 O 0.1012(5) 0.56180(11) 0.5129(3)
O8 O 0.1158(5) 0.57563(11) 0.7354(3)
O19 O 0.6318(4) 0.37038(10) 0.4477(3)
H55 H 0.6877 0.3537 0.3933
O20 O 1.2085(4) 0.37602(10) 0.4510(3)
H56 H 1.3214 0.3638 0.4488
C15 C 1.2482(6) 0.44565(16) 0.1564(4)
H15 H 1.1560 0.4558 0.0857
C16 C 1.3298(7) 0.39705(16) 0.1231(5)
H16 H 1.3849 0.3975 0.0346
H17 H 1.4407 0.3897 0.1832
C17 C 0.9587(7) 0.30661(15) 0.0251(4)
H18 H 1.0491 0.2813 -0.0014
C18 C 1.0597(6) 0.35328(15) 0.0166(4)
H19 H 1.1454 0.3548 -0.0621
C19 C 0.8749(7) 0.38546(16) 0.0005(5)
H20 H 0.8154 0.3926 0.0855
H21 H 0.9137 0.4142 -0.0423
C20 C 0.7710(7) 0.31114(15) -0.0648(4)
H22 H 0.7947 0.2963 -0.1502
C21 C 0.6015(7) 0.28632(17) 0.0109(5)
H23 H 0.4706 0.3026 0.0060
C22 C 0.6836(7) 0.28198(18) 0.1532(5)
H24 H 0.5944 0.2978 0.2158
C23 C 1.4807(7) 0.55430(16) 0.2431(5)
H25 H 1.4066 0.5706 0.3128
C24 C 0.5957(8) 0.20955(18) 0.0718(5)
C25 C 1.7913(7) 0.57108(17) 0.1441(5)
C26 C 1.6467(6) 0.52339(16) 0.3021(4)
H26 H 1.6855 0.5318 0.3924
C27 C 1.5594(6) 0.47525(13) 0.2896(4)
H27 H 1.4728 0.4687 0.3658
C32 C 1.4263(6) 0.47907(14) 0.1653(4)
H40 H 1.5121 0.4757 0.0871
C33 C 0.3854(11) 0.1945(3) 0.1103(8)
H41 H 0.3942 0.1733 0.1828
H42 H 0.3201 0.1796 0.0367
H43 H 0.3071 0.2211 0.1360
C34 C 0.7304(14) 0.1689(3) 0.0343(9)
H44 H 0.7363 0.1473 0.1061
H45 H 0.8654 0.1799 0.0153
H46 H 0.6747 0.1539 -0.0423
C35 C 1.9272(8) 0.60760(16) 0.2063(6)
H47 H 1.9116 0.6363 0.1594
H48 H 2.0668 0.5977 0.2022
H49 H 1.8891 0.6119 0.2967
C36 C 1.8354(13) 0.5645(2) 0.0026(6)
H50 H 1.8255 0.5937 -0.0422
H51 H 1.7385 0.5432 -0.0347
H52 H 1.9707 0.5523 -0.0072
O9 O 1.1386(4) 0.44493(11) 0.2780(3)
H53 H 1.1421 0.4187 0.3092
O10 O 1.1794(4) 0.36120(10) 0.1308(3)
O11 O 0.8802(5) 0.30064(14) 0.1554(3)
O12 O 0.7338(5) 0.35971(12) -0.0803(3)
O13 O 0.5893(7) 0.23999(14) -0.0360(4)
O14 O 1.3468(4) 0.52512(11) 0.1701(3)
O15 O 0.6904(6) 0.23393(13) 0.1778(4)
O16 O 1.5837(5) 0.58587(12) 0.1624(4)
O17 O 1.8097(4) 0.52803(10) 0.2088(3)
O18 O 1.7147(4) 0.44103(9) 0.2807(3)
H54 H 1.7105 0.4289 0.2076
loop_
_geom_bond_atom_site_label_1
_geom_bond_atom_site_label_2
_geom_bond_site_symmetry_1
_geom_bond_site_symmetry_2
C1 H1 1_555 1_555
C2 C1 1_555 1_555
H2 C2 1_555 1_555
C3 H3 1_555 1_555
H4 C3 1_555 1_555
C4 C1 1_555 1_555
H5 C4 1_555 1_555
C5 H6 1_555 1_555
H7 C5 1_555 1_555
C6 C5 1_555 1_555
H8 C6 1_555 1_555
C7 C6 1_555 1_555
H9 C7 1_555 1_555
C8 C7 1_555 1_555
H10 C8 1_555 1_555
C9 C8 1_555 1_555
H11 C9 1_555 1_555
C10 C28 1_555 1_555
C11 C9 1_555 1_555
H12 C11 1_555 1_555
C12 H13 1_555 1_555
C13 C30 1_555 1_555
C14 C2 1_555 1_555
H14 C14 1_555 1_555
C15 H15 1_555 1_555
C16 C15 1_555 1_555
H16 C16 1_555 1_555
H17 C16 1_555 1_555
C17 H18 1_555 1_555
C18 C17 1_555 1_555
H19 C18 1_555 1_555
C19 C18 1_555 1_555
H20 C19 1_555 1_555
H21 C19 1_555 1_555
C20 C17 1_555 1_555
H22 C20 1_555 1_555
C21 C20 1_555 1_555
H23 C21 1_555 1_555
C22 C21 1_555 1_555
H24 C22 1_555 1_555
C23 H25 1_555 1_555
C24 C33 1_555 1_555
C25 C35 1_555 1_555
C26 C23 1_555 1_555
H26 C26 1_555 1_555
C27 C26 1_555 1_555
H27 C27 1_555 1_555
C28 H28 1_555 1_555
H29 C28 1_555 1_555
H30 C28 1_555 1_555
C29 C10 1_555 1_555
H31 C29 1_555 1_555
H32 C29 1_555 1_555
H33 C29 1_555 1_555
C30 H34 1_555 1_555
H35 C30 1_555 1_555
H36 C30 1_555 1_555
C31 C13 1_555 1_555
H37 C31 1_555 1_555
H38 C31 1_555 1_555
H39 C31 1_555 1_555
C32 C15 1_555 1_555
H40 C32 1_555 1_555
C33 H41 1_555 1_555
H42 C33 1_555 1_555
H43 C33 1_555 1_555
C34 C24 1_555 1_555
H44 C34 1_555 1_555
H45 C34 1_555 1_555
H46 C34 1_555 1_555
C35 H47 1_555 1_555
H48 C35 1_555 1_555
H49 C35 1_555 1_555
C36 C25 1_555 1_555
H50 C36 1_555 1_555
H51 C36 1_555 1_555
H52 C36 1_555 1_555
O1 C2 1_555 1_555
O2 C4 1_555 1_555
O3 C9 1_555 1_555
O4 C10 1_555 1_555
O5 C7 1_555 1_555
O6 C1 1_555 1_555
O7 C12 1_555 1_555
O8 C13 1_555 1_555
O9 C15 1_555 1_555
H53 O9 1_555 1_555
O10 C16 1_555 1_555
O11 C17 1_555 1_555
O12 C19 1_555 1_555
O13 C21 1_555 1_555
O14 C23 1_555 1_555
O15 C22 1_555 1_555
O16 C23 1_555 1_555
O17 C25 1_555 1_555
O18 C27 1_555 1_555
H54 O18 1_555 1_555
O19 C6 1_555 1_555
H55 O19 1_555 1_555
O20 C8 1_555 1_555
H56 O20 1_555 1_555
C3 C4 1_555 1_555
C3 O1 1_555 1_555
C5 O2 1_555 1_555
C10 O3 1_555 1_555
C11 O4 1_555 1_555
C11 O5 1_555 1_555
C12 C14 1_555 1_555
C12 O6 1_555 1_555
C13 O7 1_555 1_555
C14 O8 1_555 1_555
C18 O10 1_555 1_555
C20 O12 1_555 1_555
C22 O11 1_555 1_555
C24 O13 1_555 1_555
C24 O15 1_555 1_555
C25 O16 1_555 1_555
C26 O17 1_555 1_555
C27 C32 1_555 1_555
C32 O14 1_555 1_555

#END
