
#######################################################################
#
#                 Cambridge Crystallographic Data Centre
#                                CCDC 
#
#######################################################################
#
# If this CIF has been generated from an entry in the Cambridge 
# Structural Database, then it will include bibliographic, chemical, 
# crystal, experimental, refinement or atomic coordinate data resulting 
# from the CCDC's data processing and validation procedures.
#
#######################################################################

data_JIRMAB
_chemical_formula_moiety         'C19 H21 N1 O5 S1'
_chemical_name_systematic        
't-butyl (benzenecarbonyl)[(4-methylphenyl)sulfonyl]carbamate'
_symmetry_cell_setting           monoclinic
_symmetry_space_group_name_H-M   'C 2/c'
_symmetry_Int_Tables_number      15
_space_group_name_Hall           '-C 2yn'
loop_
_symmetry_equiv_pos_site_id
_symmetry_equiv_pos_as_xyz
1 x,y,z
2 -x,y,1/2-z
3 1/2+x,1/2+y,z
4 1/2-x,1/2+y,1/2-z
5 -x,-y,-z
6 x,-y,1/2+z
7 1/2-x,1/2-y,-z
8 1/2+x,1/2-y,1/2+z
_cell_length_a                   26.595(5)
_cell_length_b                   9.089(2)
_cell_length_c                   16.938(3)
_cell_angle_alpha                90
_cell_angle_beta                 119.43(3)
_cell_angle_gamma                90
_cell_volume                     3565.95
_exptl_crystal_colour            colorless
_exptl_crystal_description       block
_cell_formula_units_Z            8
loop_
_atom_site_label
_atom_site_type_symbol
_atom_site_fract_x
_atom_site_fract_y
_atom_site_fract_z
S1 S 0.65771(2) 0.17644(3) 0.52497(2)
O1 O 0.54682(4) 0.48264(10) 0.40261(6)
O2 O 0.53631(4) 0.23507(10) 0.41208(6)
O3 O 0.67160(4) 0.47687(11) 0.41542(6)
O4 O 0.71760(4) 0.21390(10) 0.56539(6)
O5 O 0.63434(4) 0.13066(10) 0.58097(6)
N1 N 0.62504(5) 0.33330(12) 0.47249(7)
C1 C 0.56532(5) 0.35985(14) 0.42592(8)
C2 C 0.66141(5) 0.45996(14) 0.47602(9)
C3 C 0.68110(5) 0.55821(14) 0.55574(9)
C4 C 0.70363(6) 0.69512(15) 0.55216(9)
H1 H 0.7058 0.7227 0.4998
C5 C 0.72291(6) 0.79105(16) 0.62501(10)
H2 H 0.7377 0.8848 0.6222
C6 C 0.72055(6) 0.74989(16) 0.70191(10)
H3 H 0.7340 0.8155 0.7519
C7 C 0.69862(6) 0.61303(16) 0.70638(9)
H4 H 0.6977 0.5847 0.7596
C8 C 0.67812(5) 0.51792(15) 0.63281(9)
H5 H 0.6621 0.4256 0.6350
C9 C 0.64039(5) 0.04454(14) 0.43984(9)
C10 C 0.59895(6) -0.06134(14) 0.42464(9)
H6 H 0.5794 -0.0610 0.4588
C11 C 0.58656(6) -0.16746(15) 0.35892(9)
H7 H 0.5582 -0.2402 0.3481
C12 C 0.61511(6) -0.16893(14) 0.30849(9)
C13 C 0.65713(6) -0.06208(15) 0.32609(9)
H8 H 0.6772 -0.0632 0.2926
C14 C 0.67021(6) 0.04548(15) 0.39140(9)
H9 H 0.6987 0.1179 0.4028
C15 C 0.60151(7) -0.28502(16) 0.23737(10)
H10 H 0.6059 -0.2434 0.1877
H11 H 0.5617 -0.3191 0.2139
H12 H 0.6281 -0.3681 0.2642
C16 C 0.47228(5) 0.23703(15) 0.37550(9)
C17 C 0.45829(6) 0.07505(17) 0.37305(10)
H13 H 0.4692 0.0233 0.3330
H14 H 0.4168 0.0630 0.3502
H15 H 0.4798 0.0340 0.4343
C18 C 0.45993(6) 0.32058(18) 0.44142(10)
H16 H 0.4864 0.2875 0.5033
H17 H 0.4200 0.3021 0.4272
H18 H 0.4653 0.4261 0.4364
C19 C 0.44193(6) 0.29991(16) 0.28022(9)
H19 H 0.4549 0.4012 0.2815
H20 H 0.4001 0.2991 0.2568
H21 H 0.4512 0.2400 0.2409
loop_
_geom_bond_atom_site_label_1
_geom_bond_atom_site_label_2
_geom_bond_site_symmetry_1
_geom_bond_site_symmetry_2
S1 O4 1_555 1_555
O1 C1 1_555 1_555
O2 C1 1_555 1_555
O3 C2 1_555 1_555
O5 S1 1_555 1_555
N1 S1 1_555 1_555
C1 N1 1_555 1_555
C2 N1 1_555 1_555
C3 C2 1_555 1_555
C4 C3 1_555 1_555
H1 C4 1_555 1_555
C5 C4 1_555 1_555
H2 C5 1_555 1_555
C6 C5 1_555 1_555
H3 C6 1_555 1_555
C7 C6 1_555 1_555
H4 C7 1_555 1_555
C8 C3 1_555 1_555
H5 C8 1_555 1_555
C9 S1 1_555 1_555
C10 C9 1_555 1_555
H6 C10 1_555 1_555
C11 C10 1_555 1_555
H7 C11 1_555 1_555
C12 C11 1_555 1_555
C13 C12 1_555 1_555
H8 C13 1_555 1_555
C14 C9 1_555 1_555
H9 C14 1_555 1_555
C15 C12 1_555 1_555
H10 C15 1_555 1_555
H11 C15 1_555 1_555
H12 C15 1_555 1_555
C16 O2 1_555 1_555
C17 C16 1_555 1_555
H13 C17 1_555 1_555
H14 C17 1_555 1_555
H15 C17 1_555 1_555
C18 C16 1_555 1_555
H16 C18 1_555 1_555
H17 C18 1_555 1_555
H18 C18 1_555 1_555
C19 C16 1_555 1_555
H19 C19 1_555 1_555
H20 C19 1_555 1_555
H21 C19 1_555 1_555
C7 C8 1_555 1_555
C13 C14 1_555 1_555

#END
