
#######################################################################
#
#                 Cambridge Crystallographic Data Centre
#                                CCDC 
#
#######################################################################
#
# If this CIF has been generated from an entry in the Cambridge 
# Structural Database, then it will include bibliographic, chemical, 
# crystal, experimental, refinement or atomic coordinate data resulting 
# from the CCDC's data processing and validation procedures.
#
#######################################################################

data_JISDIB
_chemical_formula_moiety         'C36 H26 F2 N2 S1'
_chemical_name_systematic        
4,7-bis(9,9-dimethyl-9H-fluoren-2-yl)-5,6-difluoro-2,1,3-benzothiadiazole
_symmetry_cell_setting           orthorhombic
_symmetry_space_group_name_H-M   'P c a 21'
_symmetry_Int_Tables_number      29
_space_group_name_Hall           'P 2c -2ac'
loop_
_symmetry_equiv_pos_site_id
_symmetry_equiv_pos_as_xyz
1 x,y,z
2 -x,-y,1/2+z
3 1/2+x,-y,z
4 1/2-x,y,1/2+z
_cell_length_a                   22.983(4)
_cell_length_b                   9.0590(16)
_cell_length_c                   26.726(5)
_cell_angle_alpha                90
_cell_angle_beta                 90
_cell_angle_gamma                90
_cell_volume                     5564.43
_exptl_crystal_colour            yellow
_exptl_crystal_description       needle
_cell_formula_units_Z            8
loop_
_atom_site_label
_atom_site_type_symbol
_atom_site_fract_x
_atom_site_fract_y
_atom_site_fract_z
S1 S 0.91181(6) 0.87493(16) 0.49765(5)
F1 F 0.66954(12) 0.8094(3) 0.41813(11)
F2 F 0.68402(13) 0.5697(3) 0.46787(12)
N1 N 0.86434(19) 0.9582(5) 0.46336(16)
N2 N 0.87677(18) 0.7267(5) 0.51233(17)
C1 C 0.7502(2) 1.4673(6) 0.34081(19)
C2 C 0.7106(3) 1.5821(6) 0.3353(2)
H1 H 0.6717 1.5703 0.3440
C3 C 0.7312(3) 1.7156(7) 0.3163(2)
H2 H 0.7057 1.7948 0.3131
C4 C 0.7883(3) 1.7329(7) 0.3022(2)
H3 H 0.8008 1.8228 0.2892
C5 C 0.8278(3) 1.6167(7) 0.3071(2)
H4 H 0.8665 1.6285 0.2975
C6 C 0.8085(2) 1.4827(6) 0.32661(19)
C7 C 0.8431(2) 1.3440(7) 0.3377(2)
C8 C 0.7965(2) 1.2462(6) 0.36120(19)
C9 C 0.8026(2) 1.1086(6) 0.38221(19)
H5 H 0.8379 1.0590 0.3798
C10 C 0.7556(2) 1.0430(6) 0.40733(18)
C11 C 0.7021(2) 1.1160(6) 0.4084(2)
H6 H 0.6706 1.0722 0.4244
C12 C 0.6951(2) 1.2532(6) 0.3857(2)
H7 H 0.6592 1.3003 0.3859
C13 C 0.7428(2) 1.3186(6) 0.36256(19)
C14 C 0.8687(3) 1.2778(8) 0.2897(3)
H8 H 0.8382 1.2640 0.2656
H9 H 0.8863 1.1844 0.2972
H10 H 0.8974 1.3436 0.2763
C15 C 0.8912(3) 1.3756(8) 0.3766(3)
H11 H 0.9182 1.4458 0.3630
H12 H 0.9112 1.2856 0.3844
H13 H 0.8739 1.4150 0.4064
C16 C 0.7639(2) 0.9022(5) 0.43487(18)
C17 C 0.7227(2) 0.7947(6) 0.43983(19)
C18 C 0.7304(2) 0.6627(6) 0.46702(19)
C19 C 0.7795(2) 0.6281(5) 0.49372(18)
C20 C 0.8243(2) 0.7360(6) 0.48992(18)
C21 C 0.8169(2) 0.8690(6) 0.46081(18)
C22 C 0.7860(2) 0.4932(5) 0.52435(19)
C23 C 0.7749(2) 0.3540(6) 0.5043(2)
H14 H 0.7631 0.3455 0.4711
C24 C 0.7812(2) 0.2281(6) 0.5332(2)
H15 H 0.7737 0.1356 0.5196
C25 C 0.7990(2) 0.2411(5) 0.5827(2)
C26 C 0.8081(2) 0.1289(6) 0.6218(2)
C27 C 0.8002(2) -0.0232(6) 0.6206(3)
H16 H 0.7895 -0.0707 0.5911
C28 C 0.8085(3) -0.1012(8) 0.6640(3)
H17 H 0.8039 -0.2032 0.6638
C29 C 0.8235(3) -0.0309(8) 0.7079(3)
H18 H 0.8281 -0.0862 0.7369
C30 C 0.8320(3) 0.1216(8) 0.7095(3)
H19 H 0.8427 0.1685 0.7391
C31 C 0.8239(2) 0.2013(6) 0.6656(2)
C32 C 0.8270(2) 0.3677(6) 0.6583(2)
C33 C 0.8103(2) 0.3798(6) 0.60296(18)
C34 C 0.8045(2) 0.5059(6) 0.57402(19)
H20 H 0.8128 0.5982 0.5875
C35 C 0.7829(3) 0.4484(7) 0.6921(2)
H21 H 0.7444 0.4137 0.6849
H22 H 0.7850 0.5527 0.6860
H23 H 0.7920 0.4291 0.7266
C36 C 0.8889(3) 0.4278(8) 0.6673(3)
H24 H 0.8999 0.4106 0.7014
H25 H 0.8896 0.5318 0.6605
H26 H 0.9157 0.3783 0.6454
S2 S 0.43629(6) 0.61535(16) 0.51370(6)
F3 F 0.66574(12) 0.9107(3) 0.54524(12)
F4 F 0.67895(12) 0.6703(3) 0.59327(11)
N3 N 0.47196(18) 0.7643(5) 0.50056(17)
N4 N 0.48391(19) 0.5273(5) 0.54731(17)
C37 C 0.5464(2) 1.3767(5) 0.39970(18)
C38 C 0.5581(2) 1.5282(5) 0.4033(2)
H27 H 0.5691 1.5703 0.4336
C39 C 0.5528(2) 1.6134(6) 0.3604(2)
H28 H 0.5608 1.7140 0.3619
C40 C 0.5357(3) 1.5508(6) 0.3155(2)
H29 H 0.5323 1.6098 0.2871
C41 C 0.5236(2) 1.4000(6) 0.3123(2)
H30 H 0.5124 1.3581 0.2820
C42 C 0.5284(2) 1.3136(5) 0.35493(18)
C43 C 0.5193(2) 1.1481(6) 0.36059(19)
C44 C 0.5372(2) 1.1253(5) 0.41488(18)
C45 C 0.5415(2) 0.9944(6) 0.44154(18)
H31 H 0.5302 0.9056 0.4271
C46 C 0.56320(19) 0.9979(5) 0.49079(18)
C47 C 0.5796(2) 1.1327(6) 0.51201(19)
H32 H 0.5945 1.1339 0.5444
C48 C 0.5743(2) 1.2646(6) 0.48609(19)
H33 H 0.5848 1.3538 0.5008
C49 C 0.5527(2) 1.2600(5) 0.43726(17)
C50 C 0.4552(3) 1.1065(7) 0.3517(2)
H34 H 0.4307 1.1664 0.3725
H35 H 0.4494 1.0043 0.3598
H36 H 0.4455 1.1229 0.3172
C51 C 0.5591(3) 1.0627(6) 0.3246(2)
H37 H 0.5480 1.0832 0.2907
H38 H 0.5556 0.9587 0.3309
H39 H 0.5987 1.0927 0.3298
C52 C 0.5697(2) 0.8594(5) 0.51989(18)
C53 C 0.6190(2) 0.8209(5) 0.54540(18)
C54 C 0.6260(2) 0.6864(5) 0.57169(18)
C55 C 0.5847(2) 0.5792(5) 0.57642(17)
C56 C 0.5312(2) 0.6158(5) 0.54986(18)
C57 C 0.5249(2) 0.7505(5) 0.52276(18)
C58 C 0.5929(2) 0.4369(5) 0.60337(18)
C59 C 0.6484(2) 0.3710(5) 0.60662(19)
H40 H 0.6805 0.4198 0.5934
C60 C 0.6557(2) 0.2340(6) 0.6294(2)
H41 H 0.6926 0.1928 0.6320
C61 C 0.6078(2) 0.1592(5) 0.64812(18)
C62 C 0.6015(2) 0.0101(6) 0.66840(18)
C63 C 0.6424(2) -0.0993(6) 0.67748(19)
H42 H 0.6819 -0.0801 0.6732
C64 C 0.6240(3) -0.2370(6) 0.6930(2)
H43 H 0.6511 -0.3107 0.6993
C65 C 0.5648(3) -0.2662(6) 0.6992(2)
H44 H 0.5529 -0.3600 0.7090
C66 C 0.5235(2) -0.1565(6) 0.69096(18)
H45 H 0.4841 -0.1758 0.6957
C67 C 0.5419(2) -0.0184(5) 0.67559(17)
C68 C 0.5053(2) 0.1178(5) 0.66330(18)
C69 C 0.5522(2) 0.2237(5) 0.64466(16)
C70 C 0.5448(2) 0.3623(5) 0.62364(17)
H46 H 0.5081 0.4057 0.6230
C71 C 0.4614(2) 0.0844(6) 0.6216(2)
H47 H 0.4815 0.0463 0.5929
H48 H 0.4413 0.1734 0.6126
H49 H 0.4338 0.0126 0.6332
C72 C 0.4748(2) 0.1779(6) 0.70977(19)
H50 H 0.4457 0.1090 0.7206
H51 H 0.4567 0.2706 0.7019
H52 H 0.5027 0.1921 0.7360
loop_
_geom_bond_atom_site_label_1
_geom_bond_atom_site_label_2
_geom_bond_site_symmetry_1
_geom_bond_site_symmetry_2
S1 N1 1_555 1_555
F1 C17 1_555 1_555
F2 C18 1_555 1_555
N1 C21 1_555 1_555
N2 S1 1_555 1_555
C1 C2 1_555 1_555
C2 H1 1_555 1_555
C3 C2 1_555 1_555
H2 C3 1_555 1_555
C4 C3 1_555 1_555
H3 C4 1_555 1_555
C5 C4 1_555 1_555
H4 C5 1_555 1_555
C6 C1 1_555 1_555
C7 C6 1_555 1_555
C8 C7 1_555 1_555
C9 C8 1_555 1_555
H5 C9 1_555 1_555
C10 C9 1_555 1_555
C11 C10 1_555 1_555
H6 C11 1_555 1_555
C12 C11 1_555 1_555
H7 C12 1_555 1_555
C13 C1 1_555 1_555
C14 C7 1_555 1_555
H8 C14 1_555 1_555
H9 C14 1_555 1_555
H10 C14 1_555 1_555
C15 C7 1_555 1_555
H11 C15 1_555 1_555
H12 C15 1_555 1_555
H13 C15 1_555 1_555
C16 C10 1_555 1_555
C17 C16 1_555 1_555
C18 C17 1_555 1_555
C19 C18 1_555 1_555
C20 N2 1_555 1_555
C21 C16 1_555 1_555
C22 C19 1_555 1_555
C23 C22 1_555 1_555
H14 C23 1_555 1_555
C24 C23 1_555 1_555
H15 C24 1_555 1_555
C25 C24 1_555 1_555
C26 C25 1_555 1_555
C27 C26 1_555 1_555
H16 C27 1_555 1_555
C28 C27 1_555 1_555
H17 C28 1_555 1_555
C29 C28 1_555 1_555
H18 C29 1_555 1_555
C30 C29 1_555 1_555
H19 C30 1_555 1_555
C31 C26 1_555 1_555
C32 C31 1_555 1_555
C33 C25 1_555 1_555
C34 C22 1_555 1_555
H20 C34 1_555 1_555
C35 C32 1_555 1_555
H21 C35 1_555 1_555
H22 C35 1_555 1_555
H23 C35 1_555 1_555
C36 C32 1_555 1_555
H24 C36 1_555 1_555
H25 C36 1_555 1_555
H26 C36 1_555 1_555
S2 N3 1_555 1_555
F3 C53 1_555 1_555
F4 C54 1_555 1_555
N3 C57 1_555 1_555
N4 S2 1_555 1_555
C37 C38 1_555 1_555
C38 H27 1_555 1_555
C39 C38 1_555 1_555
H28 C39 1_555 1_555
C40 C39 1_555 1_555
H29 C40 1_555 1_555
C41 C40 1_555 1_555
H30 C41 1_555 1_555
C42 C37 1_555 1_555
C43 C42 1_555 1_555
C44 C43 1_555 1_555
C45 C44 1_555 1_555
H31 C45 1_555 1_555
C46 C45 1_555 1_555
C47 C46 1_555 1_555
H32 C47 1_555 1_555
C48 C47 1_555 1_555
H33 C48 1_555 1_555
C49 C37 1_555 1_555
C50 C43 1_555 1_555
H34 C50 1_555 1_555
H35 C50 1_555 1_555
H36 C50 1_555 1_555
C51 C43 1_555 1_555
H37 C51 1_555 1_555
H38 C51 1_555 1_555
H39 C51 1_555 1_555
C52 C46 1_555 1_555
C53 C52 1_555 1_555
C54 C53 1_555 1_555
C55 C54 1_555 1_555
C56 N4 1_555 1_555
C57 C52 1_555 1_555
C58 C55 1_555 1_555
C59 C58 1_555 1_555
H40 C59 1_555 1_555
C60 C59 1_555 1_555
H41 C60 1_555 1_555
C61 C60 1_555 1_555
C62 C61 1_555 1_555
C63 C62 1_555 1_555
H42 C63 1_555 1_555
C64 C63 1_555 1_555
H43 C64 1_555 1_555
C65 C64 1_555 1_555
H44 C65 1_555 1_555
C66 C65 1_555 1_555
H45 C66 1_555 1_555
C67 C62 1_555 1_555
C68 C67 1_555 1_555
C69 C61 1_555 1_555
C70 C58 1_555 1_555
H46 C70 1_555 1_555
C71 C68 1_555 1_555
H47 C71 1_555 1_555
H48 C71 1_555 1_555
H49 C71 1_555 1_555
C72 C68 1_555 1_555
H50 C72 1_555 1_555
H51 C72 1_555 1_555
H52 C72 1_555 1_555
C5 C6 1_555 1_555
C8 C13 1_555 1_555
C12 C13 1_555 1_555
C19 C20 1_555 1_555
C20 C21 1_555 1_555
C30 C31 1_555 1_555
C32 C33 1_555 1_555
C33 C34 1_555 1_555
C41 C42 1_555 1_555
C44 C49 1_555 1_555
C48 C49 1_555 1_555
C55 C56 1_555 1_555
C56 C57 1_555 1_555
C66 C67 1_555 1_555
C68 C69 1_555 1_555
C69 C70 1_555 1_555

#END
