
#######################################################################
#
#                 Cambridge Crystallographic Data Centre
#                                CCDC 
#
#######################################################################
#
# If this CIF has been generated from an entry in the Cambridge 
# Structural Database, then it will include bibliographic, chemical, 
# crystal, experimental, refinement or atomic coordinate data resulting 
# from the CCDC's data processing and validation procedures.
#
#######################################################################

data_JISKEE
_chemical_formula_moiety         'C27 H37 N2 1+,I1 1-'
_chemical_name_systematic        
'1-dodecyl-4-[2-(1H-indol-3-yl)ethenyl]pyridin-1-ium iodide'
_symmetry_cell_setting           monoclinic
_symmetry_space_group_name_H-M   'P 21/n'
_symmetry_Int_Tables_number      14
_space_group_name_Hall           '-P 2yn'
loop_
_symmetry_equiv_pos_site_id
_symmetry_equiv_pos_as_xyz
1 x,y,z
2 1/2-x,1/2+y,1/2-z
3 -x,-y,-z
4 1/2+x,1/2-y,1/2+z
_cell_length_a                   10.5322(2)
_cell_length_b                   16.7869(4)
_cell_length_c                   43.8778(8)
_cell_angle_alpha                90
_cell_angle_beta                 90.202(2)
_cell_angle_gamma                90
_cell_volume                     7757.68
_exptl_crystal_colour            red
_exptl_crystal_description       block
_cell_formula_units_Z            12
loop_
_atom_site_label
_atom_site_type_symbol
_atom_site_fract_x
_atom_site_fract_y
_atom_site_fract_z
I1 I 1.34053(3) 0.82219(2) 0.17820(2)
I2 I 0.01665(3) 0.85933(2) 0.30062(2)
I3 I -0.65013(3) 0.59908(2) 0.55103(2)
N1 N 1.0201(4) 0.7805(3) 0.18174(11)
H1 H 1.0996 0.7804 0.1773
N2 N 0.4367(4) 0.8176(3) 0.32114(9)
C1 C -0.4863(8) 0.9339(5) 0.56056(17)
H2 H -0.5450 0.9535 0.5455
H3 H -0.4340 0.9769 0.5677
H4 H -0.5325 0.9117 0.5774
C2 C -0.4037(6) 0.8702(4) 0.54652(14)
H5 H -0.4569 0.8258 0.5405
H6 H -0.3445 0.8510 0.5618
C3 C -0.3289(5) 0.8986(3) 0.51888(13)
H7 H -0.3880 0.9178 0.5035
H8 H -0.2755 0.9430 0.5249
C4 C -0.2463(6) 0.8346(3) 0.50492(12)
H9 H -0.2996 0.7898 0.4993
H10 H -0.1864 0.8162 0.5202
C5 C -0.1728(5) 0.8614(3) 0.47693(12)
H11 H -0.2326 0.8793 0.4615
H12 H -0.1198 0.9064 0.4824
C6 C -0.0893(5) 0.7964(3) 0.46331(11)
H13 H -0.0312 0.7774 0.4789
H14 H -0.1427 0.7520 0.4573
C7 C -0.0126(5) 0.8238(3) 0.43581(11)
H15 H 0.0420 0.8675 0.4419
H16 H -0.0706 0.8437 0.4204
C8 C 0.0686(5) 0.7582(3) 0.42196(11)
H17 H 0.1292 0.7400 0.4371
H18 H 0.0144 0.7134 0.4168
C9 C 0.1405(5) 0.7840(3) 0.39363(11)
H19 H 0.1930 0.8297 0.3986
H20 H 0.0801 0.8003 0.3781
C10 C 0.2241(6) 0.7182(3) 0.38091(12)
H21 H 0.1739 0.6699 0.3792
H22 H 0.2922 0.7078 0.3953
C11 C 0.2829(6) 0.7362(3) 0.34964(11)
H23 H 0.3378 0.6924 0.3439
H24 H 0.2156 0.7398 0.3346
C12 C 0.3596(6) 0.8134(3) 0.34932(12)
H25 H 0.3026 0.8587 0.3502
H26 H 0.4150 0.8153 0.3670
C13 C 0.3819(5) 0.8350(3) 0.29421(12)
H27 H 0.2965 0.8490 0.2938
C14 C 0.4469(5) 0.8329(3) 0.26758(12)
H28 H 0.4054 0.8448 0.2494
C15 C 0.5767(5) 0.8128(3) 0.26727(12)
C16 C 0.6315(5) 0.7970(4) 0.29547(13)
H29 H 0.7175 0.7846 0.2966
C17 C 0.5610(5) 0.7993(4) 0.32182(13)
H30 H 0.5999 0.7880 0.3404
C18 C 0.6421(5) 0.8071(3) 0.23822(12)
H31 H 0.5940 0.8077 0.2204
C19 C 0.7682(5) 0.8010(3) 0.23605(12)
H32 H 0.8135 0.8037 0.2542
C20 C 0.9717(5) 0.7954(3) 0.20938(13)
H33 H 1.0200 0.8073 0.2266
C21 C 0.8414(5) 0.7908(3) 0.20901(12)
C22 C 0.8067(5) 0.7705(3) 0.17804(12)
C23 C 0.6933(5) 0.7541(3) 0.16293(12)
H34 H 0.6165 0.7562 0.1733
C24 C 0.6962(6) 0.7351(4) 0.13298(14)
H35 H 0.6202 0.7242 0.1230
C25 C 0.8084(8) 0.7313(4) 0.11666(13)
H36 H 0.8061 0.7189 0.0960
C26 C 0.9242(7) 0.7458(4) 0.13076(14)
H37 H 1.0002 0.7425 0.1201
C27 C 0.9221(5) 0.7653(3) 0.16143(12)
N3 N -0.3412(4) 0.6286(2) 0.52200(10)
H38 H -0.4214 0.6331 0.5253
N4 N 0.2972(3) 0.4967(2) 0.40485(9)
C28 C 0.7878(12) 0.4739(6) 0.1145(3)
H39 H 0.8321 0.4457 0.0987
H40 H 0.7507 0.5214 0.1061
H41 H 0.7221 0.4405 0.1226
C29 C 0.8796(11) 0.4958(5) 0.1395(2)
H42 H 0.9308 0.4496 0.1446
H43 H 0.9362 0.5372 0.1322
C30 C 0.8144(10) 0.5239(5) 0.1667(2)
H44 H 0.7588 0.4820 0.1741
H45 H 0.7619 0.5693 0.1614
C31 C 0.9149(11) 0.5508(6) 0.1953(2)
H46 H 0.9612 0.5039 0.2019
H47 H 0.9763 0.5882 0.1872
C32 C 0.8520(10) 0.5884(6) 0.22308(19)
H48 H 0.9163 0.6174 0.2344
H49 H 0.7900 0.6270 0.2160
C33 C 0.7914(8) 0.5363(5) 0.24302(17)
H50 H 0.8552 0.5030 0.2527
H51 H 0.7361 0.5017 0.2313
C34 C 0.7122(7) 0.5763(5) 0.26812(16)
H52 H 0.7680 0.6075 0.2811
H53 H 0.6517 0.6125 0.2588
C35 C 0.6422(7) 0.5177(4) 0.28722(14)
H54 H 0.7035 0.4826 0.2969
H55 H 0.5894 0.4853 0.2740
C36 C 0.5583(5) 0.5539(3) 0.31200(12)
H56 H 0.6085 0.5908 0.3240
H57 H 0.4902 0.5838 0.3024
C37 C 0.5013(5) 0.4916(3) 0.33295(11)
H58 H 0.5696 0.4612 0.3422
H59 H 0.4506 0.4551 0.3209
C38 C 0.4185(5) 0.5266(3) 0.35809(11)
H60 H 0.4642 0.5692 0.3683
H61 H 0.3420 0.5490 0.3492
C39 C 0.3830(5) 0.4636(3) 0.38102(11)
H62 H 0.3408 0.4199 0.3707
H63 H 0.4593 0.4430 0.3906
C40 C 0.1699(4) 0.4952(3) 0.40024(11)
H64 H 0.1378 0.4743 0.3822
C41 C 0.0889(5) 0.5236(3) 0.42145(11)
H65 H 0.0020 0.5225 0.4176
C42 C 0.1341(4) 0.5549(3) 0.44938(10)
C43 C 0.2668(5) 0.5565(3) 0.45285(11)
H66 H 0.3021 0.5780 0.4705
C44 C 0.3448(4) 0.5269(3) 0.43080(10)
H67 H 0.4322 0.5277 0.4338
C45 C 0.0539(5) 0.5822(3) 0.47387(10)
H68 H 0.0933 0.6054 0.4907
C46 C -0.0737(4) 0.5767(3) 0.47421(11)
H69 H -0.1122 0.5542 0.4572
C47 C -0.2873(5) 0.5986(3) 0.49626(11)
H70 H -0.3323 0.5786 0.4797
C48 C -0.1557(4) 0.6020(3) 0.49827(11)
C49 C -0.1279(5) 0.6353(3) 0.52797(11)
C50 C -0.2467(5) 0.6504(3) 0.54185(11)
C51 C -0.2558(6) 0.6823(3) 0.57122(12)
H71 H -0.3343 0.6931 0.5800
C52 C -0.1444(7) 0.6971(3) 0.58674(12)
H72 H -0.1477 0.7177 0.6064
C53 C -0.0275(6) 0.6818(3) 0.57363(13)
H73 H 0.0461 0.6925 0.5847
C54 C -0.0177(5) 0.6512(3) 0.54464(12)
H74 H 0.0616 0.6411 0.5362
N5 N -0.2082(4) 0.4885(3) 0.38234(10)
H75 H -0.2458 0.4549 0.3940
N6 N 0.3191(4) 0.5924(2) 0.23364(9)
C55 C 0.9334(7) 0.7177(6) -0.0428(2)
H76 H 0.9812 0.6979 -0.0598
H77 H 0.9906 0.7359 -0.0273
H78 H 0.8808 0.7612 -0.0494
C56 C 0.8507(6) 0.6517(4) -0.03024(15)
H79 H 0.9043 0.6071 -0.0246
H80 H 0.7933 0.6337 -0.0461
C57 C 0.7731(6) 0.6765(4) -0.00266(14)
H81 H 0.8304 0.6956 0.0131
H82 H 0.7180 0.7203 -0.0084
C58 C 0.6923(6) 0.6097(3) 0.01042(12)
H83 H 0.7472 0.5651 0.0154
H84 H 0.6331 0.5919 -0.0051
C59 C 0.6181(6) 0.6329(3) 0.03869(12)
H85 H 0.6774 0.6508 0.0542
H86 H 0.5632 0.6774 0.0337
C60 C 0.5380(6) 0.5668(3) 0.05180(11)
H87 H 0.4782 0.5492 0.0363
H88 H 0.5929 0.5220 0.0566
C61 C 0.4647(6) 0.5894(3) 0.08019(12)
H89 H 0.5246 0.6063 0.0957
H90 H 0.4108 0.6347 0.0754
C62 C 0.3832(6) 0.5238(3) 0.09305(12)
H91 H 0.4373 0.4786 0.0978
H92 H 0.3236 0.5069 0.0774
C63 C 0.3089(6) 0.5459(3) 0.12155(12)
H93 H 0.2568 0.5921 0.1171
H94 H 0.2525 0.5023 0.1266
C64 C 0.3920(6) 0.5642(3) 0.14902(11)
H95 H 0.4372 0.6137 0.1455
H96 H 0.4544 0.5222 0.1515
C65 C 0.3149(5) 0.5715(3) 0.17816(11)
H97 H 0.2692 0.5222 0.1816
H98 H 0.2529 0.6138 0.1758
C66 C 0.3984(5) 0.5893(3) 0.20561(10)
H99 H 0.4625 0.5482 0.2077
H100 H 0.4411 0.6399 0.2028
C67 C 0.2614(6) 0.6598(3) 0.24150(12)
H101 H 0.2783 0.7059 0.2305
C68 C 0.1785(6) 0.6634(3) 0.26518(11)
H102 H 0.1411 0.7118 0.2702
C69 C 0.1490(5) 0.5954(3) 0.28197(10)
C70 C 0.2129(5) 0.5252(3) 0.27369(11)
H103 H 0.1986 0.4785 0.2845
C71 C 0.2960(5) 0.5253(3) 0.24977(11)
H104 H 0.3373 0.4783 0.2445
C72 C 0.0560(5) 0.5997(3) 0.30623(11)
H105 H 0.0264 0.6499 0.3116
C73 C 0.0092(5) 0.5372(3) 0.32150(10)
H106 H 0.0398 0.4874 0.3159
C74 C -0.1254(5) 0.4695(3) 0.35979(11)
H107 H -0.1009 0.4181 0.3546
C75 C -0.0827(5) 0.5385(3) 0.34555(10)
C76 C -0.1448(4) 0.6041(3) 0.36078(10)
C77 C -0.2224(4) 0.5696(3) 0.38355(10)
C78 C -0.2951(5) 0.6161(4) 0.40348(12)
H108 H -0.3441 0.5927 0.4186
C79 C -0.2915(5) 0.6966(4) 0.40001(13)
H109 H -0.3393 0.7286 0.4129
C80 C -0.2173(5) 0.7321(4) 0.37737(13)
H110 H -0.2171 0.7873 0.3755
C81 C -0.1441(5) 0.6868(3) 0.35770(11)
H111 H -0.0954 0.7112 0.3427
loop_
_geom_bond_atom_site_label_1
_geom_bond_atom_site_label_2
_geom_bond_site_symmetry_1
_geom_bond_site_symmetry_2
N1 H1 1_555 1_555
N2 C12 1_555 1_555
C1 H2 1_555 1_555
H3 C1 1_555 1_555
H4 C1 1_555 1_555
C2 C1 1_555 1_555
H5 C2 1_555 1_555
H6 C2 1_555 1_555
C3 C2 1_555 1_555
H7 C3 1_555 1_555
H8 C3 1_555 1_555
C4 C3 1_555 1_555
H9 C4 1_555 1_555
H10 C4 1_555 1_555
C5 C4 1_555 1_555
H11 C5 1_555 1_555
H12 C5 1_555 1_555
C6 C5 1_555 1_555
H13 C6 1_555 1_555
H14 C6 1_555 1_555
C7 C6 1_555 1_555
H15 C7 1_555 1_555
H16 C7 1_555 1_555
C8 C7 1_555 1_555
H17 C8 1_555 1_555
H18 C8 1_555 1_555
C9 C8 1_555 1_555
H19 C9 1_555 1_555
H20 C9 1_555 1_555
C10 C9 1_555 1_555
H21 C10 1_555 1_555
H22 C10 1_555 1_555
C11 C10 1_555 1_555
H23 C11 1_555 1_555
H24 C11 1_555 1_555
C12 C11 1_555 1_555
H25 C12 1_555 1_555
H26 C12 1_555 1_555
C13 N2 1_555 1_555
H27 C13 1_555 1_555
C14 C13 1_555 1_555
H28 C14 1_555 1_555
C15 C14 1_555 1_555
C16 C15 1_555 1_555
H29 C16 1_555 1_555
C17 N2 1_555 1_555
H30 C17 1_555 1_555
C18 C15 1_555 1_555
H31 C18 1_555 1_555
C19 C18 1_555 1_555
H32 C19 1_555 1_555
C20 N1 1_555 1_555
H33 C20 1_555 1_555
C21 C19 1_555 1_555
C22 C21 1_555 1_555
C23 C22 1_555 1_555
H34 C23 1_555 1_555
C24 C23 1_555 1_555
H35 C24 1_555 1_555
C25 C24 1_555 1_555
H36 C25 1_555 1_555
C26 C25 1_555 1_555
H37 C26 1_555 1_555
C27 N1 1_555 1_555
N3 H38 1_555 1_555
N4 C39 1_555 1_555
C28 H39 1_555 1_555
H40 C28 1_555 1_555
H41 C28 1_555 1_555
C29 C28 1_555 1_555
H42 C29 1_555 1_555
H43 C29 1_555 1_555
C30 C29 1_555 1_555
H44 C30 1_555 1_555
H45 C30 1_555 1_555
C31 C30 1_555 1_555
H46 C31 1_555 1_555
H47 C31 1_555 1_555
C32 C31 1_555 1_555
H48 C32 1_555 1_555
H49 C32 1_555 1_555
C33 C32 1_555 1_555
H50 C33 1_555 1_555
H51 C33 1_555 1_555
C34 C33 1_555 1_555
H52 C34 1_555 1_555
H53 C34 1_555 1_555
C35 C34 1_555 1_555
H54 C35 1_555 1_555
H55 C35 1_555 1_555
C36 C35 1_555 1_555
H56 C36 1_555 1_555
H57 C36 1_555 1_555
C37 C36 1_555 1_555
H58 C37 1_555 1_555
H59 C37 1_555 1_555
C38 C37 1_555 1_555
H60 C38 1_555 1_555
H61 C38 1_555 1_555
C39 C38 1_555 1_555
H62 C39 1_555 1_555
H63 C39 1_555 1_555
C40 N4 1_555 1_555
H64 C40 1_555 1_555
C41 C40 1_555 1_555
H65 C41 1_555 1_555
C42 C41 1_555 1_555
C43 C42 1_555 1_555
H66 C43 1_555 1_555
C44 N4 1_555 1_555
H67 C44 1_555 1_555
C45 C42 1_555 1_555
H68 C45 1_555 1_555
C46 C45 1_555 1_555
H69 C46 1_555 1_555
C47 N3 1_555 1_555
H70 C47 1_555 1_555
C48 C46 1_555 1_555
C49 C48 1_555 1_555
C50 N3 1_555 1_555
C51 C50 1_555 1_555
H71 C51 1_555 1_555
C52 C51 1_555 1_555
H72 C52 1_555 1_555
C53 C52 1_555 1_555
H73 C53 1_555 1_555
C54 C49 1_555 1_555
H74 C54 1_555 1_555
N5 H75 1_555 1_555
N6 C66 1_555 1_555
C55 H76 1_555 1_555
H77 C55 1_555 1_555
H78 C55 1_555 1_555
C56 C55 1_555 1_555
H79 C56 1_555 1_555
H80 C56 1_555 1_555
C57 C56 1_555 1_555
H81 C57 1_555 1_555
H82 C57 1_555 1_555
C58 C57 1_555 1_555
H83 C58 1_555 1_555
H84 C58 1_555 1_555
C59 C58 1_555 1_555
H85 C59 1_555 1_555
H86 C59 1_555 1_555
C60 C59 1_555 1_555
H87 C60 1_555 1_555
H88 C60 1_555 1_555
C61 C60 1_555 1_555
H89 C61 1_555 1_555
H90 C61 1_555 1_555
C62 C61 1_555 1_555
H91 C62 1_555 1_555
H92 C62 1_555 1_555
C63 C62 1_555 1_555
H93 C63 1_555 1_555
H94 C63 1_555 1_555
C64 C63 1_555 1_555
H95 C64 1_555 1_555
H96 C64 1_555 1_555
C65 C64 1_555 1_555
H97 C65 1_555 1_555
H98 C65 1_555 1_555
C66 C65 1_555 1_555
H99 C66 1_555 1_555
H100 C66 1_555 1_555
C67 N6 1_555 1_555
H101 C67 1_555 1_555
C68 C67 1_555 1_555
H102 C68 1_555 1_555
C69 C68 1_555 1_555
C70 C69 1_555 1_555
H103 C70 1_555 1_555
C71 N6 1_555 1_555
H104 C71 1_555 1_555
C72 C69 1_555 1_555
H105 C72 1_555 1_555
C73 C72 1_555 1_555
H106 C73 1_555 1_555
C74 N5 1_555 1_555
H107 C74 1_555 1_555
C75 C73 1_555 1_555
C76 C75 1_555 1_555
C77 N5 1_555 1_555
C78 C77 1_555 1_555
H108 C78 1_555 1_555
C79 C78 1_555 1_555
H109 C79 1_555 1_555
C80 C79 1_555 1_555
H110 C80 1_555 1_555
C81 C76 1_555 1_555
H111 C81 1_555 1_555
C16 C17 1_555 1_555
C20 C21 1_555 1_555
C22 C27 1_555 1_555
C26 C27 1_555 1_555
C43 C44 1_555 1_555
C47 C48 1_555 1_555
C49 C50 1_555 1_555
C53 C54 1_555 1_555
C70 C71 1_555 1_555
C74 C75 1_555 1_555
C76 C77 1_555 1_555
C80 C81 1_555 1_555

#END
