
#######################################################################
#
#                 Cambridge Crystallographic Data Centre
#                                CCDC 
#
#######################################################################
#
# If this CIF has been generated from an entry in the Cambridge 
# Structural Database, then it will include bibliographic, chemical, 
# crystal, experimental, refinement or atomic coordinate data resulting 
# from the CCDC's data processing and validation procedures.
#
#######################################################################

data_JISLEF
_chemical_formula_moiety         'C36 H28 N2 S1'
_chemical_name_systematic        
5,6-bis(9,9-dimethyl-9H-fluoren-2-yl)-2,1,3-benzothiadiazole
_symmetry_cell_setting           orthorhombic
_symmetry_space_group_name_H-M   'A b a 2'
_symmetry_Int_Tables_number      41
_space_group_name_Hall           'A 2 -2ac'
loop_
_symmetry_equiv_pos_site_id
_symmetry_equiv_pos_as_xyz
1 x,y,z
2 -x,-y,z
3 1/2-x,y,1/2+z
4 1/2+x,-y,1/2+z
5 x,1/2+y,1/2+z
6 -x,1/2-y,1/2+z
7 1/2-x,1/2+y,z
8 1/2+x,1/2-y,z
_cell_length_a                   10.985(5)
_cell_length_b                   18.731(5)
_cell_length_c                   13.197(4)
_cell_angle_alpha                90
_cell_angle_beta                 90
_cell_angle_gamma                90
_cell_volume                     2715.42
_exptl_crystal_colour            colorless
_exptl_crystal_description       block
_cell_formula_units_Z            4
loop_
_atom_site_label
_atom_site_type_symbol
_atom_site_fract_x
_atom_site_fract_y
_atom_site_fract_z
S1 S 0.5000 0.0000 -0.57529(9)
N1 N 0.4606(2) 0.06272(17) -0.49738(19)
C1 C 0.4777(2) 0.03582(16) -0.4038(2)
C2 C 0.4569(2) 0.07190(15) -0.3107(2)
H1 H 0.4284 0.1187 -0.3102
C3 C 0.4794(2) 0.03693(13) -0.22221(18)
C4 C 0.4648(2) 0.07439(13) -0.12270(19)
C5 C 0.3526(2) 0.10203(13) -0.09207(19)
H2 H 0.2865 0.0998 -0.1360
C6 C 0.3380(2) 0.13301(12) 0.0036(2)
H3 H 0.2628 0.1508 0.0237
C7 C 0.4381(2) 0.13677(12) 0.06823(18)
C8 C 0.5515(2) 0.10993(12) 0.03715(19)
C9 C 0.5653(2) 0.07919(13) -0.05750(19)
H4 H 0.6408 0.0618 -0.0778
C10 C 0.6466(2) 0.11742(13) 0.12007(19)
C11 C 0.5734(2) 0.15503(12) 0.20200(18)
C12 C 0.6119(2) 0.17819(14) 0.2969(2)
H5 H 0.6921 0.1716 0.3172
C13 C 0.5283(3) 0.21149(14) 0.3611(2)
H6 H 0.5537 0.2281 0.4241
C14 C 0.4075(3) 0.22012(14) 0.3318(2)
H7 H 0.3526 0.2417 0.3758
C15 C 0.3680(2) 0.19670(13) 0.2372(2)
H8 H 0.2871 0.2021 0.2179
C16 C 0.4517(2) 0.16502(12) 0.17203(19)
C17 C 0.6884(3) 0.04315(13) 0.1569(2)
H9 H 0.7286 0.0186 0.1025
H10 H 0.6188 0.0161 0.1784
H11 H 0.7437 0.0486 0.2127
C18 C 0.7563(2) 0.16060(14) 0.0837(2)
H12 H 0.7298 0.2070 0.0621
H13 H 0.7944 0.1363 0.0281
H14 H 0.8136 0.1656 0.1382
N1A N 0.5394(2) -0.06272(17) -0.49738(19)
C1A C 0.5223(2) -0.03582(16) -0.4038(2)
C2A C 0.5431(2) -0.07190(15) -0.3107(2)
H1A H 0.5716 -0.1187 -0.3102
C3A C 0.5206(2) -0.03693(13) -0.22221(18)
C4A C 0.5352(2) -0.07439(13) -0.12270(19)
C5A C 0.6474(2) -0.10203(13) -0.09207(19)
H2A H 0.7135 -0.0998 -0.1360
C6A C 0.6620(2) -0.13301(12) 0.0036(2)
H3A H 0.7372 -0.1508 0.0237
C7A C 0.5619(2) -0.13677(12) 0.06823(18)
C8A C 0.4485(2) -0.10993(12) 0.03715(19)
C9A C 0.4347(2) -0.07919(13) -0.05750(19)
H4A H 0.3592 -0.0618 -0.0778
C10A C 0.3534(2) -0.11742(13) 0.12007(19)
C11A C 0.4266(2) -0.15503(12) 0.20200(18)
C12A C 0.3881(2) -0.17819(14) 0.2969(2)
H5A H 0.3079 -0.1716 0.3172
C13A C 0.4717(3) -0.21149(14) 0.3611(2)
H6A H 0.4463 -0.2281 0.4241
C14A C 0.5925(3) -0.22012(14) 0.3318(2)
H7A H 0.6474 -0.2417 0.3758
C15A C 0.6320(2) -0.19670(13) 0.2372(2)
H8A H 0.7129 -0.2021 0.2179
C16A C 0.5483(2) -0.16502(12) 0.17203(19)
C17A C 0.3116(3) -0.04315(13) 0.1569(2)
H9A H 0.2714 -0.0186 0.1025
H10A H 0.3812 -0.0161 0.1784
H11A H 0.2563 -0.0486 0.2127
C18A C 0.2437(2) -0.16060(14) 0.0837(2)
H12A H 0.2702 -0.2070 0.0621
H13A H 0.2056 -0.1363 0.0281
H14A H 0.1864 -0.1656 0.1382
loop_
_geom_bond_atom_site_label_1
_geom_bond_atom_site_label_2
_geom_bond_site_symmetry_1
_geom_bond_site_symmetry_2
S1 N1 1_555 1_555
N1 C1 1_555 1_555
C1 C2 1_555 1_555
C2 H1 1_555 1_555
C3 C2 1_555 1_555
C4 C3 1_555 1_555
C5 C4 1_555 1_555
H2 C5 1_555 1_555
C6 C5 1_555 1_555
H3 C6 1_555 1_555
C7 C6 1_555 1_555
C8 C7 1_555 1_555
C9 C4 1_555 1_555
H4 C9 1_555 1_555
C10 C8 1_555 1_555
C11 C10 1_555 1_555
C12 C11 1_555 1_555
H5 C12 1_555 1_555
C13 C12 1_555 1_555
H6 C13 1_555 1_555
C14 C13 1_555 1_555
H7 C14 1_555 1_555
C15 C14 1_555 1_555
H8 C15 1_555 1_555
C16 C7 1_555 1_555
C17 C10 1_555 1_555
H9 C17 1_555 1_555
H10 C17 1_555 1_555
H11 C17 1_555 1_555
C18 C10 1_555 1_555
H12 C18 1_555 1_555
H13 C18 1_555 1_555
H14 C18 1_555 1_555
N1A S1 1_555 1_555
C1A C1 1_555 1_555
C2A C1A 1_555 1_555
H1A C2A 1_555 1_555
C3A C3 1_555 1_555
C4A C3A 1_555 1_555
C5A C4A 1_555 1_555
H2A C5A 1_555 1_555
C6A C5A 1_555 1_555
H3A C6A 1_555 1_555
C7A C6A 1_555 1_555
C8A C7A 1_555 1_555
C9A C4A 1_555 1_555
H4A C9A 1_555 1_555
C10A C8A 1_555 1_555
C11A C10A 1_555 1_555
C12A C11A 1_555 1_555
H5A C12A 1_555 1_555
C13A C12A 1_555 1_555
H6A C13A 1_555 1_555
C14A C13A 1_555 1_555
H7A C14A 1_555 1_555
C15A C14A 1_555 1_555
H8A C15A 1_555 1_555
C16A C7A 1_555 1_555
C17A C10A 1_555 1_555
H9A C17A 1_555 1_555
H10A C17A 1_555 1_555
H11A C17A 1_555 1_555
C18A C10A 1_555 1_555
H12A C18A 1_555 1_555
H13A C18A 1_555 1_555
H14A C18A 1_555 1_555
C8 C9 1_555 1_555
C11 C16 1_555 1_555
C15 C16 1_555 1_555
N1A C1A 1_555 1_555
C2A C3A 1_555 1_555
C8A C9A 1_555 1_555
C11A C16A 1_555 1_555
C15A C16A 1_555 1_555

#END
