
#######################################################################
#
#                 Cambridge Crystallographic Data Centre
#                                CCDC 
#
#######################################################################
#
# If this CIF has been generated from an entry in the Cambridge 
# Structural Database, then it will include bibliographic, chemical, 
# crystal, experimental, refinement or atomic coordinate data resulting 
# from the CCDC's data processing and validation procedures.
#
#######################################################################

data_JISLAZ
_chemical_formula_moiety         'C70,Se8,C1 S2'
_chemical_name_systematic        
'C70Fullerene octaselenocane carbon disulfide solvate'
_symmetry_cell_setting           orthorhombic
_symmetry_space_group_name_H-M   'P c a 21'
_symmetry_Int_Tables_number      29
_space_group_name_Hall           'P 2c -2ac'
loop_
_symmetry_equiv_pos_site_id
_symmetry_equiv_pos_as_xyz
1 x,y,z
2 -x,-y,1/2+z
3 1/2-x,y,1/2+z
4 1/2+x,-y,z
_cell_length_a                   33.518(3)
_cell_length_b                   10.056(1)
_cell_length_c                   25.539(3)
_cell_angle_alpha                90
_cell_angle_beta                 90
_cell_angle_gamma                90
_cell_volume                     8608.1
_exptl_crystal_colour            'dark red'
_exptl_crystal_description       needle
_cell_formula_units_Z            8
loop_
_atom_site_label
_atom_site_type_symbol
_atom_site_fract_x
_atom_site_fract_y
_atom_site_fract_z
Se1 Se 0.3501(1) 0.0977(3) 0.4832
Se2 Se 0.3624(1) 0.1846(2) 0.5662(2)
Se3 Se 0.3787(1) 0.0007(3) 0.6167(2)
Se4 Se 0.4478(1) 0.0029(2) 0.6235(2)
Se5 Se 0.4706(1) -0.1481(3) 0.5617(2)
Se6 Se 0.4925(1) -0.0220(3) 0.4904(2)
Se7 Se 0.4435(1) -0.0347(3) 0.4256(2)
Se8 Se 0.4053(1) 0.1554(3) 0.4331(2)
Se9 Se 0.3980(1) 0.6008(3) 0.4912(2)
Se10 Se 0.3861(1) 0.6581(3) 0.4042(2)
Se11 Se 0.3674(1) 0.4641(3) 0.3644(2)
Se12 Se 0.2981(1) 0.4774(3) 0.3566(2)
Se13 Se 0.2722(1) 0.3497(2) 0.4265(2)
Se14 Se 0.2531(1) 0.5016(2) 0.4899(2)
Se15 Se 0.3034(1) 0.4971(3) 0.5527(2)
Se16 Se 0.3433(1) 0.6810(3) 0.5373(2)
S1 S 0.5291(2) -0.4666(7) 0.5873(3)
C1 C 0.4993(7) -0.567(2) 0.5707(9)
S2 S 0.4681(3) -0.6759(8) 0.5541(3)
S3 S 0.2819(2) 0.8183(8) 0.4183(3)
C2 C 0.2524(7) 0.929(2) 0.3992(9)
S4 S 0.2223(2) 1.0343(8) 0.3831(3)
C3 C 0.6983(4) 0.6076(13) 0.3243(5)
C4 C 0.6581(4) 0.6176(13) 0.4060(5)
C5 C 0.6635(4) 0.4738(13) 0.4125(5)
C6 C 0.6340(4) 0.4056(13) 0.4397(5)
C7 C 0.6850(3) 0.4062(13) 0.3743(5)
C8 C 0.5566(4) 0.6530(12) 0.4499(5)
C9 C 0.6908(4) 0.5804(13) 0.2295(5)
C10 C 0.7039(4) 0.4724(13) 0.3307(5)
C11 C 0.6917(4) 0.6629(13) 0.2737(5)
C12 C 0.5228(4) 0.5702(13) 0.4471(5)
C13 C 0.6018(4) 0.4655(13) 0.4636(5)
C14 C 0.6234(4) 0.6798(12) 0.4273(5)
C15 C 0.6740(4) 0.6806(13) 0.3609(5)
C16 C 0.5952(4) 0.6004(13) 0.4583(5)
C17 C 0.6348(4) 0.7878(12) 0.2409(5)
C18 C 0.5841(4) 0.8400(12) 0.3089(5)
C19 C 0.6145(4) 0.8187(12) 0.3494(5)
C20 C 0.6012(4) 0.7778(12) 0.3984(5)
C21 C 0.6524(4) 0.7808(12) 0.3334(5)
C22 C 0.4982(4) 0.6979(12) 0.3725(5)
C23 C 0.6610(4) 0.6005(13) 0.1899(5)
C24 C 0.6635(4) 0.7692(12) 0.2789(5)
C25 C 0.6332(4) 0.7037(13) 0.1960(5)
C26 C 0.4931(4) 0.5917(13) 0.4077(5)
C27 C 0.5615(4) 0.7647(12) 0.4119(5)
C28 C 0.5431(4) 0.8175(13) 0.3212(5)
C29 C 0.5943(4) 0.8182(13) 0.2557(5)
C30 C 0.5319(4) 0.7826(12) 0.3751(5)
C31 C 0.5797(4) 0.5585(13) 0.1661(5)
C32 C 0.5175(4) 0.5769(13) 0.2185(5)
C33 C 0.5308(4) 0.7075(13) 0.2372(5)
C34 C 0.5168(4) 0.7486(13) 0.2858(5)
C35 C 0.5676(4) 0.7536(13) 0.2204(5)
C36 C 0.4718(4) 0.4486(12) 0.3357(5)
C37 C 0.6480(4) 0.4724(13) 0.1719(5)
C38 C 0.5921(4) 0.6822(13) 0.1832(5)
C39 C 0.6076(4) 0.4524(13) 0.1603(5)
C40 C 0.4800(4) 0.4646(13) 0.3894(5)
C41 C 0.4896(4) 0.6787(13) 0.3156(5)
C42 C 0.4916(4) 0.4990(13) 0.2506(5)
C43 C 0.5430(4) 0.5023(13) 0.1853(5)
C44 C 0.4765(4) 0.5548(13) 0.2999(5)
C45 C 0.6093(4) 0.2366(13) 0.2034(5)
C46 C 0.5503(4) 0.1920(13) 0.2598(5)
C47 C 0.5281(4) 0.2940(13) 0.2310(5)
C48 C 0.4975(4) 0.3583(13) 0.2576(5)
C49 C 0.5478(4) 0.3622(13) 0.1915(5)
C50 C 0.5139(4) 0.2497(12) 0.3905(5)
C51 C 0.6699(4) 0.3730(13) 0.2003(5)
C52 C 0.5882(4) 0.3316(13) 0.1758(5)
C53 C 0.6503(4) 0.2563(13) 0.2159(5)
C54 C 0.5015(4) 0.3645(13) 0.4175(5)
C55 C 0.4854(4) 0.3263(13) 0.3077(5)
C56 C 0.5400(4) 0.1643(13) 0.3130(5)
C57 C 0.5910(4) 0.1695(13) 0.2471(5)
C58 C 0.5056(4) 0.2318(13) 0.3366(5)
C59 C 0.6826(4) 0.2669(12) 0.3012(5)
C60 C 0.6373(4) 0.2171(12) 0.3757(5)
C61 C 0.6101(4) 0.1496(12) 0.3393(5)
C62 C 0.5700(4) 0.1463(12) 0.3527(5)
C63 C 0.6203(4) 0.1475(12) 0.2866(5)
C64 C 0.5663(4) 0.3760(12) 0.4610(5)
C65 C 0.6963(4) 0.4397(13) 0.2359(5)
C66 C 0.6573(4) 0.2020(12) 0.2670(5)
C67 C 0.7023(4) 0.3864(13) 0.2860(5)
C68 C 0.5280(4) 0.4298(13) 0.4531(5)
C69 C 0.5547(4) 0.1946(12) 0.3992(5)
C70 C 0.6215(4) 0.2761(13) 0.4222(5)
C71 C 0.6720(4) 0.2797(13) 0.3556(5)
C72 C 0.5790(4) 0.2600(12) 0.4345(5)
C73 C 0.7064(5) 0.6903(13) 0.5996(6)
C74 C 0.6571(5) 0.6570(12) 0.6710(6)
C75 C 0.6258(5) 0.6823(13) 0.6346(6)
C76 C 0.5889(4) 0.7362(14) 0.6506(6)
C77 C 0.6362(4) 0.7168(14) 0.5814(6)
C78 C 0.6170(5) 0.8194(15) 0.7850(5)
C79 C 0.7481(5) 0.8621(14) 0.5591(6)
C80 C 0.6775(5) 0.7118(14) 0.5656(6)
C81 C 0.7431(4) 0.7649(14) 0.5969(6)
C82 C 0.5937(5) 0.9300(15) 0.7897(6)
C83 C 0.5822(4) 0.7542(14) 0.7046(6)
C84 C 0.6505(5) 0.6865(13) 0.7245(6)
C85 C 0.6983(5) 0.6669(13) 0.6540(6)
C86 C 0.6107(5) 0.7331(13) 0.7411(6)
C87 C 0.7715(4) 0.9071(15) 0.6654(6)
C88 C 0.7349(4) 0.9087(15) 0.7499(6)
C89 C 0.7172(4) 0.7846(15) 0.7362(6)
C90 C 0.6795(4) 0.7468(15) 0.7554(6)
C91 C 0.7262(4) 0.7277(15) 0.6857(6)
C92 C 0.6516(4) 1.0654(15) 0.8138(6)
C93 C 0.7663(4) 0.9848(15) 0.5746(6)
C94 C 0.7557(4) 0.7912(15) 0.6529(6)
C95 C 0.7777(4) 1.0078(14) 0.6260(6)
C96 C 0.6115(5) 1.0561(15) 0.8047(6)
C97 C 0.6607(4) 0.8298(15) 0.7924(6)
C98 C 0.7138(4) 0.9949(15) 0.7838(6)
C99 C 0.7611(4) 0.9747(15) 0.7129(6)
C100 C 0.6757(4) 0.9491(15) 0.8067(6)
C101 C 0.7496(4) 1.2329(14) 0.6250(6)
C102 C 0.7104(4) 1.2963(13) 0.7035(6)
C103 C 0.7301(4) 1.1945(14) 0.7323(6)
C104 C 0.7118(5) 1.1313(15) 0.7753(6)
C105 C 0.7583(4) 1.1103(14) 0.7054(6)
C106 C 0.6117(4) 1.2691(15) 0.7581(6)
C107 C 0.7468(4) 1.0906(14) 0.5471(6)
C108 C 0.7685(4) 1.1399(14) 0.6517(6)
C109 C 0.7385(4) 1.2109(14) 0.5711(6)
C110 C 0.5912(4) 1.1612(15) 0.7761(6)
C111 C 0.6745(5) 1.1789(15) 0.7923(6)
C112 C 0.6715(4) 1.3342(14) 0.7189(6)
C113 C 0.7188(4) 1.3123(14) 0.6481(6)
C114 C 0.6540(4) 1.2743(14) 0.7665(6)
C115 C 0.6710(5) 1.2175(14) 0.5342(6)
C116 C 0.6174(5) 1.2841(13) 0.5959(6)
C117 C 0.6467(5) 1.3455(14) 0.6283(6)
C118 C 0.6413(5) 1.3583(14) 0.6828(6)
C119 C 0.6881(4) 1.3358(14) 0.6133(6)
C120 C 0.5526(4) 1.1490(15) 0.6948(6)
C121 C 0.7166(4) 1.0332(14) 0.5145(6)
C122 C 0.6982(4) 1.2760(14) 0.5637(6)
C123 C 0.6798(4) 1.0936(14) 0.5081(6)
C124 C 0.5607(4) 1.1001(15) 0.7435(6)
C125 C 0.6045(5) 1.3190(15) 0.7044(6)
C126 C 0.5821(4) 1.2356(14) 0.6195(6)
C127 C 0.6299(5) 1.2133(14) 0.5491(6)
C128 C 0.5756(4) 1.2592(14) 0.6759(6)
C129 C 0.6443(4) 0.8821(16) 0.5186(6)
C130 C 0.5845(4) 0.8890(15) 0.5758(6)
C131 C 0.5822(4) 1.0290(15) 0.5679(6)
C132 C 0.5653(4) 1.1141(15) 0.6057(6)
C133 C 0.6126(4) 1.0926(15) 0.5367(6)
C134 C 0.5558(4) 0.8711(15) 0.7114(6)
C135 C 0.7173(4) 0.8920(15) 0.5219(6)
C136 C 0.6419(4) 1.0114(15) 0.5104(6)
C137 C 0.6826(4) 0.8180(14) 0.5241(6)
C138 C 0.5622(5) 0.9572(15) 0.7519(6)
C139 C 0.5474(4) 1.0566(15) 0.6502(6)
C140 C 0.5692(4) 0.8353(15) 0.6229(6)
C141 C 0.6172(4) 0.8144(15) 0.5527(6)
C142 C 0.5488(4) 0.9247(15) 0.6602(6)
P1? P 0.6729 0.4932 0.2058
loop_
_geom_bond_atom_site_label_1
_geom_bond_atom_site_label_2
_geom_bond_site_symmetry_1
_geom_bond_site_symmetry_2
Se1 Se2 1_555 1_555
Se2 Se3 1_555 1_555
Se3 Se4 1_555 1_555
Se4 Se5 1_555 1_555
Se5 Se6 1_555 1_555
Se6 Se7 1_555 1_555
Se7 Se8 1_555 1_555
Se8 Se1 1_555 1_555
Se9 Se10 1_555 1_555
Se10 Se11 1_555 1_555
Se11 Se12 1_555 1_555
Se12 Se13 1_555 1_555
Se13 Se14 1_555 1_555
Se14 Se15 1_555 1_555
Se15 Se16 1_555 1_555
Se16 Se9 1_555 1_555
S1 C1 1_555 1_555
C1 S2 1_555 1_555
S3 C2 1_555 1_555
C2 S4 1_555 1_555
C3 C10 1_555 1_555
C4 C5 1_555 1_555
C5 C6 1_555 1_555
C6 C13 1_555 1_555
C7 C5 1_555 1_555
C8 C12 1_555 1_555
C9 C11 1_555 1_555
C10 C7 1_555 1_555
C11 C3 1_555 1_555
C12 C26 1_555 1_555
C13 C16 1_555 1_555
C14 C4 1_555 1_555
C15 C3 1_555 1_555
C16 C8 1_555 1_555
C17 C24 1_555 1_555
C18 C19 1_555 1_555
C19 C20 1_555 1_555
C20 C14 1_555 1_555
C21 C15 1_555 1_555
C22 C26 1_555 1_555
C23 C9 1_555 1_555
C24 C11 1_555 1_555
C25 C17 1_555 1_555
C26 C40 1_555 1_555
C27 C8 1_555 1_555
C28 C18 1_555 1_555
C29 C17 1_555 1_555
C30 C22 1_555 1_555
C31 C38 1_555 1_555
C32 C33 1_555 1_555
C33 C34 1_555 1_555
C34 C28 1_555 1_555
C35 C29 1_555 1_555
C36 C40 1_555 1_555
C37 C23 1_555 1_555
C38 C25 1_555 1_555
C39 C31 1_555 1_555
C40 C54 1_555 1_555
C41 C22 1_555 1_555
C42 C32 1_555 1_555
C43 C31 1_555 1_555
C44 C36 1_555 1_555
C45 C52 1_555 1_555
C46 C47 1_555 1_555
C47 C48 1_555 1_555
C48 C42 1_555 1_555
C49 C43 1_555 1_555
C50 C54 1_555 1_555
C51 C37 1_555 1_555
C52 C39 1_555 1_555
C53 C45 1_555 1_555
C54 C68 1_555 1_555
C55 C36 1_555 1_555
C56 C46 1_555 1_555
C57 C45 1_555 1_555
C58 C50 1_555 1_555
C59 C66 1_555 1_555
C60 C61 1_555 1_555
C61 C62 1_555 1_555
C62 C56 1_555 1_555
C63 C57 1_555 1_555
C64 C13 1_555 1_555
C65 C9 1_555 1_555
C66 C53 1_555 1_555
C67 C10 1_555 1_555
C68 C12 1_555 1_555
C69 C50 1_555 1_555
C70 C6 1_555 1_555
C71 C7 1_555 1_555
C72 C64 1_555 1_555
C73 C80 1_555 1_555
C74 C75 1_555 1_555
C75 C76 1_555 1_555
C76 C83 1_555 1_555
C77 C75 1_555 1_555
C78 C82 1_555 1_555
C79 C81 1_555 1_555
C80 C77 1_555 1_555
C81 C73 1_555 1_555
C82 C96 1_555 1_555
C83 C86 1_555 1_555
C84 C74 1_555 1_555
C85 C73 1_555 1_555
C86 C78 1_555 1_555
C87 C94 1_555 1_555
C88 C89 1_555 1_555
C89 C90 1_555 1_555
C90 C84 1_555 1_555
C91 C85 1_555 1_555
C92 C96 1_555 1_555
C93 C79 1_555 1_555
C94 C81 1_555 1_555
C95 C87 1_555 1_555
C96 C110 1_555 1_555
C97 C78 1_555 1_555
C98 C88 1_555 1_555
C99 C87 1_555 1_555
C100 C92 1_555 1_555
C101 C108 1_555 1_555
C102 C103 1_555 1_555
C103 C104 1_555 1_555
C104 C98 1_555 1_555
C105 C99 1_555 1_555
C106 C110 1_555 1_555
C107 C93 1_555 1_555
C108 C95 1_555 1_555
C109 C101 1_555 1_555
C110 C124 1_555 1_555
C111 C92 1_555 1_555
C112 C102 1_555 1_555
C113 C101 1_555 1_555
C114 C106 1_555 1_555
C115 C122 1_555 1_555
C116 C117 1_555 1_555
C117 C118 1_555 1_555
C118 C112 1_555 1_555
C119 C113 1_555 1_555
C120 C124 1_555 1_555
C121 C107 1_555 1_555
C122 C109 1_555 1_555
C123 C115 1_555 1_555
C124 C138 1_555 1_555
C125 C106 1_555 1_555
C126 C116 1_555 1_555
C127 C115 1_555 1_555
C128 C120 1_555 1_555
C129 C136 1_555 1_555
C130 C131 1_555 1_555
C131 C132 1_555 1_555
C132 C126 1_555 1_555
C133 C127 1_555 1_555
C134 C83 1_555 1_555
C135 C79 1_555 1_555
C136 C123 1_555 1_555
C137 C80 1_555 1_555
C138 C82 1_555 1_555
C139 C120 1_555 1_555
C140 C76 1_555 1_555
C141 C77 1_555 1_555
C142 C134 1_555 1_555
C4 C15 1_555 1_555
C14 C16 1_555 1_555
C18 C29 1_555 1_555
C19 C21 1_555 1_555
C20 C27 1_555 1_555
C21 C24 1_555 1_555
C23 C25 1_555 1_555
C27 C30 1_555 1_555
C28 C30 1_555 1_555
C32 C43 1_555 1_555
C33 C35 1_555 1_555
C34 C41 1_555 1_555
C35 C38 1_555 1_555
C37 C39 1_555 1_555
C41 C44 1_555 1_555
C42 C44 1_555 1_555
C46 C57 1_555 1_555
C47 C49 1_555 1_555
C48 C55 1_555 1_555
C49 C52 1_555 1_555
C51 C53 1_555 1_555
C51 C65 1_555 1_555
C55 C58 1_555 1_555
C56 C58 1_555 1_555
C59 C67 1_555 1_555
C59 C71 1_555 1_555
C60 C70 1_555 1_555
C60 C71 1_555 1_555
C61 C63 1_555 1_555
C62 C69 1_555 1_555
C63 C66 1_555 1_555
C64 C68 1_555 1_555
C65 C67 1_555 1_555
C69 C72 1_555 1_555
C70 C72 1_555 1_555
C74 C85 1_555 1_555
C84 C86 1_555 1_555
C88 C99 1_555 1_555
C89 C91 1_555 1_555
C90 C97 1_555 1_555
C91 C94 1_555 1_555
C93 C95 1_555 1_555
C97 C100 1_555 1_555
C98 C100 1_555 1_555
C102 C113 1_555 1_555
C103 C105 1_555 1_555
C104 C111 1_555 1_555
C105 C108 1_555 1_555
C107 C109 1_555 1_555
C111 C114 1_555 1_555
C112 C114 1_555 1_555
C116 C127 1_555 1_555
C117 C119 1_555 1_555
C118 C125 1_555 1_555
C119 C122 1_555 1_555
C121 C123 1_555 1_555
C121 C135 1_555 1_555
C125 C128 1_555 1_555
C126 C128 1_555 1_555
C129 C137 1_555 1_555
C129 C141 1_555 1_555
C130 C140 1_555 1_555
C130 C141 1_555 1_555
C131 C133 1_555 1_555
C132 C139 1_555 1_555
C133 C136 1_555 1_555
C134 C138 1_555 1_555
C135 C137 1_555 1_555
C139 C142 1_555 1_555
C140 C142 1_555 1_555

#END
