
#######################################################################
#
#                 Cambridge Crystallographic Data Centre
#                                CCDC 
#
#######################################################################
#
# If this CIF has been generated from an entry in the Cambridge 
# Structural Database, then it will include bibliographic, chemical, 
# crystal, experimental, refinement or atomic coordinate data resulting 
# from the CCDC's data processing and validation procedures.
#
#######################################################################

data_JISPOT
_chemical_formula_moiety         'C20 H28 O9,2(H2 O1)'
_chemical_name_systematic        
'3,5a,6,7a,10b-pentahydroxy-6-(hydroxymethyl)-1,4,4,9-tetramethyl-3a,5a,6,7,7a,10a,10b,10c-octahydro-1H-5-oxabenzo[cd]cyclopenta[f]azulene-2,8(3H,4H)-dione dihydrate'
_symmetry_cell_setting           orthorhombic
_symmetry_space_group_name_H-M   'P 21 21 21'
_symmetry_Int_Tables_number      19
_space_group_name_Hall           'P 2ac 2ab'
loop_
_symmetry_equiv_pos_site_id
_symmetry_equiv_pos_as_xyz
1 x,y,z
2 1/2-x,-y,1/2+z
3 -x,1/2+y,1/2-z
4 1/2+x,1/2-y,-z
_cell_length_a                   6.9268(4)
_cell_length_b                   7.6212(4)
_cell_length_c                   39.643(3)
_cell_angle_alpha                90
_cell_angle_beta                 90
_cell_angle_gamma                90
_cell_volume                     2092.77
_cell_formula_units_Z            4
loop_
_atom_site_label
_atom_site_type_symbol
_atom_site_fract_x
_atom_site_fract_y
_atom_site_fract_z
O1 O 1.0874(5) 0.2568(5) 0.13396(9)
O2 O 1.1001(6) 0.4890(5) 0.09596(10)
H1 H 1.2102 0.4502 0.0945
O3 O 0.7638(6) 0.1159(5) 0.10037(10)
H2 H 0.8208 0.0258 0.1058
O4 O 0.4817(5) 0.3598(5) 0.09045(10)
H3 H 0.5311 0.2709 0.0983
O5 O 0.4252(7) 0.4089(6) 0.01666(12)
O6 O 0.8699(6) 0.7707(5) 0.12602(10)
H4 H 0.8259 0.8608 0.1177
O7 O 0.6402(7) 0.7947(6) 0.20001(11)
O8 O 0.8482(7) 0.5320(5) 0.22645(10)
H5 H 0.9402 0.5996 0.2260
O9 O 1.1468(8) 0.0044(7) 0.08722(13)
H6 H 1.1544 0.0437 0.1064
C1 C 1.0374(8) 0.2907(8) 0.16945(14)
C2 C 0.9249(9) 0.4664(7) 0.16716(14)
H7 H 1.0185 0.5627 0.1664
C3 C 0.8279(8) 0.4520(7) 0.13267(14)
H8 H 0.7215 0.3684 0.1354
C4 C 0.9783(8) 0.3610(7) 0.11091(14)
C5 C 0.8951(8) 0.2324(7) 0.08374(14)
C6 C 0.7770(8) 0.3243(8) 0.05620(15)
H9 H 0.8652 0.3911 0.0422
H10 H 0.7190 0.2349 0.0420
C7 C 0.6187(8) 0.4464(7) 0.06811(14)
C8 C 0.4865(8) 0.5042(8) 0.03830(15)
C9 C 0.4519(9) 0.6948(8) 0.04208(16)
C10 C 0.5620(8) 0.7548(8) 0.06670(15)
H11 H 0.5601 0.8714 0.0736
C11 C 0.6910(8) 0.6193(7) 0.08276(13)
H12 H 0.8167 0.6373 0.0719
C12 C 0.7351(8) 0.6274(7) 0.12080(14)
C13 C 0.5703(9) 0.6609(8) 0.14613(14)
H13 H 0.4861 0.5576 0.1456
C14 C 0.6593(9) 0.6701(7) 0.18178(16)
C15 C 0.7770(9) 0.5084(8) 0.19344(14)
H14 H 0.6874 0.4090 0.1942
C16 C 0.9164(10) 0.1388(8) 0.18192(16)
H15 H 0.7974 0.1347 0.1695
H16 H 0.8892 0.1542 0.2055
H17 H 0.9858 0.0310 0.1787
C17 C 1.2239(9) 0.3037(9) 0.18933(16)
H18 H 1.2984 0.1989 0.1861
H19 H 1.1949 0.3173 0.2129
H20 H 1.2966 0.4033 0.1816
C18 C 1.0551(9) 0.1283(8) 0.06620(15)
H21 H 1.0004 0.0676 0.0469
H22 H 1.1514 0.2098 0.0578
C19 C 0.3154(12) 0.7906(11) 0.01943(18)
H23 H 0.3419 0.9141 0.0204
H24 H 0.1852 0.7692 0.0266
H25 H 0.3315 0.7499 -0.0033
C20 C 0.4413(10) 0.8227(8) 0.14017(17)
H26 H 0.5195 0.9267 0.1402
H27 H 0.3468 0.8305 0.1578
H28 H 0.3771 0.8116 0.1188
O10 O 0.1508(7) 0.7551(6) 0.22503(11)
H29 H 0.2423 0.6920 0.2326
H30 H 0.1388 0.8436 0.2379
O11 O 0.4540(8) 0.5823(7) 0.25643(13)
H31 H 0.5658 0.5666 0.2481
H32 H 0.4280 0.4963 0.2693
loop_
_geom_bond_atom_site_label_1
_geom_bond_atom_site_label_2
_geom_bond_site_symmetry_1
_geom_bond_site_symmetry_2
O1 C1 1_555 1_555
O2 H1 1_555 1_555
O3 H2 1_555 1_555
O4 H3 1_555 1_555
O5 C8 1_555 1_555
O6 H4 1_555 1_555
O7 C14 1_555 1_555
O8 H5 1_555 1_555
O9 H6 1_555 1_555
C1 C2 1_555 1_555
C2 H7 1_555 1_555
C3 C2 1_555 1_555
H8 C3 1_555 1_555
C4 O1 1_555 1_555
C5 O3 1_555 1_555
C6 C5 1_555 1_555
H9 C6 1_555 1_555
H10 C6 1_555 1_555
C7 O4 1_555 1_555
C8 C7 1_555 1_555
C9 C8 1_555 1_555
C10 C9 1_555 1_555
H11 C10 1_555 1_555
C11 C7 1_555 1_555
H12 C11 1_555 1_555
C12 O6 1_555 1_555
C13 C12 1_555 1_555
H13 C13 1_555 1_555
C14 C13 1_555 1_555
C15 O8 1_555 1_555
H14 C15 1_555 1_555
C16 C1 1_555 1_555
H15 C16 1_555 1_555
H16 C16 1_555 1_555
H17 C16 1_555 1_555
C17 C1 1_555 1_555
H18 C17 1_555 1_555
H19 C17 1_555 1_555
H20 C17 1_555 1_555
C18 O9 1_555 1_555
H21 C18 1_555 1_555
H22 C18 1_555 1_555
C19 C9 1_555 1_555
H23 C19 1_555 1_555
H24 C19 1_555 1_555
H25 C19 1_555 1_555
C20 C13 1_555 1_555
H26 C20 1_555 1_555
H27 C20 1_555 1_555
H28 C20 1_555 1_555
O10 H29 1_555 1_555
H30 O10 1_555 1_555
O11 H31 1_555 1_555
H32 O11 1_555 1_555
O2 C4 1_555 1_555
C2 C15 1_555 1_555
C3 C4 1_555 1_555
C3 C12 1_555 1_555
C4 C5 1_555 1_555
C5 C18 1_555 1_555
C6 C7 1_555 1_555
C10 C11 1_555 1_555
C11 C12 1_555 1_555
C14 C15 1_555 1_555

#END
