
#######################################################################
#
#                 Cambridge Crystallographic Data Centre
#                                CCDC 
#
#######################################################################
#
# If this CIF has been generated from an entry in the Cambridge 
# Structural Database, then it will include bibliographic, chemical, 
# crystal, experimental, refinement or atomic coordinate data resulting 
# from the CCDC's data processing and validation procedures.
#
#######################################################################

data_JISWOA
_chemical_name_common            
'26,28-dihydroxy-25,27-diisopropoxypentacyclo[19.3.1.1$3,7!.1$9,13!.1$15,19!]octacosa-1(25),3(28),4,6,9(27),10,12,15(26),16,18,21,23-dodecaene-5,11,17-tricarboxylic acid methanol tetrahydrofuran solvate'
_chemical_formula_moiety         'C37 H36 O10,0.75(C4 H8 O1),2.25(C1 H4 O1)'
_chemical_name_systematic        
'5,11,17-tricarboxy-26,28-dihydroxy-25,27-diisopropoxycalix(4)arene methanol tetrahydrofuran solvate'
_symmetry_cell_setting           monoclinic
_symmetry_space_group_name_H-M   'P 21/n'
_symmetry_Int_Tables_number      14
_space_group_name_Hall           '-P 2yn'
loop_
_symmetry_equiv_pos_site_id
_symmetry_equiv_pos_as_xyz
1 x,y,z
2 1/2-x,1/2+y,1/2-z
3 -x,-y,-z
4 1/2+x,1/2-y,1/2+z
_cell_length_a                   10.6209(14)
_cell_length_b                   17.125(2)
_cell_length_c                   22.296(3)
_cell_angle_alpha                90
_cell_angle_beta                 95.218(2)
_cell_angle_gamma                90
_cell_volume                     4038.46
_cell_formula_units_Z            4
loop_
_atom_site_label
_atom_site_type_symbol
_atom_site_fract_x
_atom_site_fract_y
_atom_site_fract_z
C1 C 0.5802(3) 0.53128(19) 0.11975(15)
C2 C 0.6163(3) 0.4900(2) 0.06958(15)
C3 C 0.5696(3) 0.4145(2) 0.06058(15)
H1 H 0.5918 0.3861 0.0276
C4 C 0.4899(3) 0.3802(2) 0.09995(17)
C5 C 0.4633(3) 0.4217(2) 0.15088(16)
H2 H 0.4145 0.3980 0.1783
C6 C 0.5067(3) 0.4966(2) 0.16211(15)
C7 C 0.5671(3) 0.6694(2) 0.09386(16)
H3 H 0.5704 0.6549 0.0506
C8 C 0.6500(5) 0.7380(2) 0.1081(2)
H4 H 0.6509 0.7501 0.1502
H5 H 0.6183 0.7820 0.0847
H6 H 0.7343 0.7262 0.0986
C9 C 0.4303(4) 0.6830(3) 0.1058(2)
H7 H 0.3834 0.6353 0.0992
H8 H 0.3943 0.7227 0.0791
H9 H 0.4268 0.6995 0.1468
C10 C 0.4396(4) 0.3009(3) 0.0873(2)
C11 C 0.4812(3) 0.5381(2) 0.21943(16)
H10 H 0.3959 0.5262 0.2288
H11 H 0.4867 0.5940 0.2133
C12 C 0.5743(3) 0.5145(2) 0.27258(15)
C13 C 0.5394(3) 0.4603(2) 0.31406(15)
H12 H 0.4590 0.4383 0.3091
C14 C 0.6222(3) 0.4380(2) 0.36306(16)
C15 C 0.7429(3) 0.4708(2) 0.37055(15)
H13 H 0.7979 0.4561 0.4035
C16 C 0.7824(3) 0.5247(2) 0.32996(15)
C17 C 0.6968(3) 0.5466(2) 0.28071(15)
C18 C 0.5836(3) 0.3802(2) 0.40629(16)
C19 C 0.9146(3) 0.5595(2) 0.33732(15)
H14 H 0.9115 0.6127 0.3223
H15 H 0.9441 0.5611 0.3798
C20 C 1.0075(3) 0.5127(2) 0.30378(15)
C21 C 1.0537(3) 0.4419(2) 0.32758(17)
H16 H 1.0326 0.4265 0.3654
C22 C 1.1307(4) 0.3938(2) 0.29636(18)
H17 H 1.1635 0.3479 0.3138
C23 C 1.1578(3) 0.4151(2) 0.23888(17)
H18 H 1.2048 0.3815 0.2169
C24 C 1.1161(3) 0.4858(2) 0.21354(15)
C25 C 1.0454(3) 0.53548(19) 0.24756(15)
C26 C 1.0647(3) 0.6768(2) 0.24882(17)
H19 H 1.0777 0.6705 0.2935
C27 C 0.9695(4) 0.7410(2) 0.2340(2)
H20 H 0.9501 0.7438 0.1911
H21 H 1.0042 0.7900 0.2485
H22 H 0.8937 0.7301 0.2529
C28 C 1.1894(4) 0.6921(3) 0.2247(2)
H23 H 1.2444 0.6483 0.2333
H24 H 1.2269 0.7381 0.2433
H25 H 1.1768 0.6997 0.1819
C29 C 1.1416(3) 0.5064(2) 0.14943(15)
H26 H 1.2247 0.4873 0.1420
H27 H 1.1422 0.5628 0.1452
C30 C 1.0439(3) 0.47216(19) 0.10242(14)
C31 C 1.0688(3) 0.4036(2) 0.07333(14)
H28 H 1.1447 0.3776 0.0835
C32 C 0.9818(3) 0.3725(2) 0.02876(15)
C33 C 0.8685(3) 0.4115(2) 0.01386(14)
H29 H 0.8111 0.3913 -0.0161
C34 C 0.8394(3) 0.47987(19) 0.04274(14)
C35 C 0.9281(3) 0.51045(19) 0.08731(14)
C36 C 1.0098(3) 0.3007(2) -0.00293(16)
C37 C 0.7123(3) 0.5201(2) 0.02867(14)
H30 H 0.7225 0.5760 0.0341
H31 H 0.6818 0.5105 -0.0130
O1 O 0.3558(3) 0.27779(19) 0.12343(15)
H32 H 0.3242 0.2365 0.1111
O2 O 0.4733(3) 0.26098(18) 0.04579(16)
O3 O 0.7394(2) 0.60045(16) 0.24377(11)
H33 H 0.6836 0.6110 0.2171
O4 O 0.4722(3) 0.34963(18) 0.39481(13)
H34 H 0.4592 0.3182 0.4213
O5 O 0.6232(2) 0.60601(13) 0.13172(10)
O6 O 0.6563(3) 0.36064(16) 0.45120(12)
O7 O 1.0059 0.6061 0.2222
O8 O 0.8962 0.5790 0.1116
H35 H 0.9540 0.5938 0.1358
O9 O 0.9282(2) 0.27224(17) -0.04170(13)
O10 O 1.1186(3) 0.26895(17) 0.01065(13)
H36 H 1.1243 0.2291 -0.0093
C38 C 0.5404(9) 0.7457(5) 0.2959(5)
H37 H 0.4674 0.7773 0.2826
H38 H 0.5669 0.7157 0.2623
C39 C 0.5181(12) 0.6967(9) 0.3470(6)
H39 H 0.4420 0.7132 0.3644
H40 H 0.5079 0.6426 0.3344
C40 C 0.6262(10) 0.7046(8) 0.3904(6)
H41 H 0.6596 0.6528 0.3993
H42 H 0.5968 0.7249 0.4273
C41 C 0.7319(7) 0.7546(4) 0.3744(3)
H43 H 0.8003 0.7256 0.3588
H44 H 0.7639 0.7894 0.4065
O11 O 0.6470(11) 0.7937(7) 0.3267(5)
C42 C 0.8266(11) 0.9055(8) 0.8760(7)
H45 H 0.8217 0.9566 0.8934
H46 H 0.8248 0.9101 0.8330
H47 H 0.9039 0.8808 0.8914
O12 O 0.7232(7) 0.8652(4) 0.8932(3)
H48 H 0.7020 0.8783 0.9329
C43 C 0.6024(16) 0.9049(15) 0.9865(10)
H49 H 0.6039 0.9565 0.9698
H50 H 0.6107 0.8671 0.9553
H51 H 0.6711 0.8991 1.0172
O13 O 0.4859(12) 0.8912(6) 1.0132(4)
H52 H 0.4402 0.8515 0.9898
H53? H 0.6514 0.9152 0.2813
C44? C 0.628(2) 0.8013(11) 0.2755(12)
H54? H 0.6752 0.7567 0.2908
H55? H 0.6033 0.7940 0.2334
H56? H 0.5539 0.8072 0.2967
C45? C 0.710(2) 0.8207(12) 0.3379(8)
H57? H 0.7528 0.7727 0.3306
H58? H 0.6256 0.8096 0.3476
H59? H 0.7550 0.8477 0.3710
O14? O 0.7050(8) 0.8699(5) 0.2837(5)
O15? O 0.7050(8) 0.8699(5) 0.2837(5)
C46? C 0.723(3) 1.0800(14) 0.9832(15)
H60? H 0.6850 1.1166 1.0089
H61? H 0.7335 1.1043 0.9452
H62? H 0.8034 1.0639 1.0019
O16? O 0.6682(15) 1.0031(9) 0.9739(6)
H63? H 0.6696 0.9808 0.9345
loop_
_geom_bond_atom_site_label_1
_geom_bond_atom_site_label_2
_geom_bond_site_symmetry_1
_geom_bond_site_symmetry_2
C1 C2 1_555 1_555
C2 C3 1_555 1_555
C3 H1 1_555 1_555
C4 C3 1_555 1_555
C5 C4 1_555 1_555
H2 C5 1_555 1_555
C6 C1 1_555 1_555
C7 H3 1_555 1_555
C8 C7 1_555 1_555
H4 C8 1_555 1_555
H5 C8 1_555 1_555
H6 C8 1_555 1_555
C9 C7 1_555 1_555
H7 C9 1_555 1_555
H8 C9 1_555 1_555
H9 C9 1_555 1_555
C10 C4 1_555 1_555
C11 C6 1_555 1_555
H10 C11 1_555 1_555
H11 C11 1_555 1_555
C12 C11 1_555 1_555
C13 C12 1_555 1_555
H12 C13 1_555 1_555
C14 C13 1_555 1_555
C15 C14 1_555 1_555
H13 C15 1_555 1_555
C16 C15 1_555 1_555
C17 C12 1_555 1_555
C18 C14 1_555 1_555
C19 C16 1_555 1_555
H14 C19 1_555 1_555
H15 C19 1_555 1_555
C20 C19 1_555 1_555
C21 C20 1_555 1_555
H16 C21 1_555 1_555
C22 C21 1_555 1_555
H17 C22 1_555 1_555
C23 C22 1_555 1_555
H18 C23 1_555 1_555
C24 C23 1_555 1_555
C25 C20 1_555 1_555
C26 H19 1_555 1_555
C27 C26 1_555 1_555
H20 C27 1_555 1_555
H21 C27 1_555 1_555
H22 C27 1_555 1_555
C28 C26 1_555 1_555
H23 C28 1_555 1_555
H24 C28 1_555 1_555
H25 C28 1_555 1_555
C29 C24 1_555 1_555
H26 C29 1_555 1_555
H27 C29 1_555 1_555
C30 C29 1_555 1_555
C31 C30 1_555 1_555
H28 C31 1_555 1_555
C32 C31 1_555 1_555
C33 C32 1_555 1_555
H29 C33 1_555 1_555
C34 C33 1_555 1_555
C35 C30 1_555 1_555
C36 C32 1_555 1_555
C37 C2 1_555 1_555
H30 C37 1_555 1_555
H31 C37 1_555 1_555
O1 C10 1_555 1_555
H32 O1 1_555 1_555
O2 C10 1_555 1_555
O3 C17 1_555 1_555
H33 O3 1_555 1_555
O4 C18 1_555 1_555
H34 O4 1_555 1_555
O5 C1 1_555 1_555
O6 C18 1_555 1_555
O7 C25 1_555 1_555
O8 C35 1_555 1_555
H35 O8 1_555 1_555
O9 C36 1_555 1_555
O10 C36 1_555 1_555
H36 O10 1_555 1_555
C38 H37 1_555 1_555
H38 C38 1_555 1_555
C39 C38 1_555 1_555
H39 C39 1_555 1_555
H40 C39 1_555 1_555
C40 C39 1_555 1_555
H41 C40 1_555 1_555
H42 C40 1_555 1_555
C41 C40 1_555 1_555
H43 C41 1_555 1_555
H44 C41 1_555 1_555
O11 C38 1_555 1_555
C42 H45 1_555 1_555
H46 C42 1_555 1_555
H47 C42 1_555 1_555
O12 C42 1_555 1_555
H48 O12 1_555 1_555
C43 H49 1_555 1_555
H50 C43 1_555 1_555
H51 C43 1_555 1_555
O13 C43 1_555 1_555
H52 O13 1_555 1_555
C5 C6 1_555 1_555
C7 O5 1_555 1_555
C16 C17 1_555 1_555
C24 C25 1_555 1_555
C26 O7 1_555 1_555
C34 C35 1_555 1_555
C34 C37 1_555 1_555
C41 O11 1_555 1_555

#END
