
#######################################################################
#
#                 Cambridge Crystallographic Data Centre
#                                CCDC 
#
#######################################################################
#
# If this CIF has been generated from an entry in the Cambridge 
# Structural Database, then it will include bibliographic, chemical, 
# crystal, experimental, refinement or atomic coordinate data resulting 
# from the CCDC's data processing and validation procedures.
#
#######################################################################

data_JITFOK
_chemical_formula_moiety         
'C52 H40 N4 2+,C36 H32 N4 2+,4(F6 P1 1-),C6 H4 Cl2,4(C2 H3 N1)'
_chemical_name_systematic        
'5,25-diazonia-18,38-diazanonacyclo[36.2.2.2^2,5^.2^7,10^.2^13,16^.2^18,21^.2^22,25^.2^27,30^.2^33,36^]hexapentaconta-1,3,7,9,13,15,19,21,23,27,29,33,35,39,41,43,45,47,49,51,53,55-docosaene-11,31-diyne diradical 5,12,19,26-tetra-azaheptacyclo[24.2.2.2^2,5^.2^7,10^.2^12,15^.2^16,19^.2^21,24^]tetraconta-1(28),2,4,7,9,12,14,16,18,21,23,26,29,31,33,35,37,39-octadecaene-5,19-di-ium diradical tetrakis(hexafluorophosphate) acetonitrile 1,4-dichlorobenzene unknown solvate'
_symmetry_cell_setting           orthorhombic
_symmetry_space_group_name_H-M   'P c c n'
_symmetry_Int_Tables_number      56
_space_group_name_Hall           '-P 2ab 2ac'
loop_
_symmetry_equiv_pos_site_id
_symmetry_equiv_pos_as_xyz
1 x,y,z
2 1/2-x,1/2-y,z
3 -x,1/2+y,1/2-z
4 1/2+x,-y,1/2-z
5 -x,-y,-z
6 1/2+x,1/2+y,-z
7 x,1/2-y,1/2+z
8 1/2-x,y,1/2+z
_cell_length_a                   24.9565(7)
_cell_length_b                   27.8623(9)
_cell_length_c                   16.5996(4)
_cell_angle_alpha                90
_cell_angle_beta                 90
_cell_angle_gamma                90
_cell_volume                     11542.5
_exptl_crystal_colour            violet
_exptl_crystal_description       needle
_cell_formula_units_Z            4
loop_
_atom_site_label
_atom_site_type_symbol
_atom_site_fract_x
_atom_site_fract_y
_atom_site_fract_z
N1 N 0.37227(9) 0.54140(10) 0.09770(11)
N2 N 0.62493(9) 0.42790(11) 0.10721(12)
C1 C 0.32254(12) 0.60395(12) 0.61291(16)
C2 C 0.31531(10) 0.55997(12) 0.65021(15)
H1 H 0.3114 0.5318 0.6186
C3 C 0.31376(10) 0.55703(13) 0.73357(15)
H2 H 0.3086 0.5268 0.7587
C4 C 0.31973(11) 0.59807(13) 0.78083(16)
C5 C 0.32732(14) 0.64128(14) 0.74374(17)
H3 H 0.3317 0.6693 0.7756
C6 C 0.32881(15) 0.64497(14) 0.66038(18)
H4 H 0.3341 0.6754 0.6356
C7 C 0.32377(12) 0.60618(12) 0.52657(17)
C8 C 0.32371(12) 0.60472(12) 0.45455(16)
C9 C 0.32280(11) 0.59677(12) 0.36840(15)
C10 C 0.33124(12) 0.63382(12) 0.31364(16)
H5 H 0.3382 0.6654 0.3325
C11 C 0.32952(11) 0.62467(12) 0.23082(16)
H6 H 0.3354 0.6500 0.1935
C12 C 0.31922(10) 0.57879(12) 0.20333(14)
C13 C 0.31067(10) 0.54152(11) 0.25848(15)
H7 H 0.3035 0.5100 0.2397
C14 C 0.31263(10) 0.55067(12) 0.34032(15)
H8 H 0.3070 0.5253 0.3776
C15 C 0.32138(11) 0.56693(12) 0.11409(15)
H9 H 0.2906 0.5464 0.0991
H10 H 0.3196 0.5968 0.0819
C16 C 0.41865(11) 0.56803(12) 0.09323(14)
H11 H 0.4167 0.6020 0.0891
C17 C 0.46735(11) 0.54589(12) 0.09470(14)
H12 H 0.4988 0.5649 0.0900
C18 C 0.47272(10) 0.49569(12) 0.10288(14)
C19 C 0.42323(11) 0.46954(12) 0.10707(14)
H13 H 0.4238 0.4355 0.1111
C20 C 0.37538(11) 0.49312(12) 0.10531(14)
H14 H 0.3432 0.4751 0.1096
C21 C 0.52376(11) 0.47224(12) 0.10527(13)
C22 C 0.57245(11) 0.49917(13) 0.09867(15)
H15 H 0.5711 0.5331 0.0932
C23 C 0.62101(11) 0.47606(14) 0.10019(14)
H16 H 0.6529 0.4945 0.0962
C24 C 0.57918(11) 0.40129(13) 0.11383(15)
H17 H 0.5818 0.3675 0.1199
C25 C 0.53008(11) 0.42200(12) 0.11194(14)
H18 H 0.4991 0.4023 0.1152
C26 C 0.67713(12) 0.40627(14) 0.12831(16)
H19 H 0.7067 0.4267 0.1082
H20 H 0.6805 0.3742 0.1032
N1D N 0.62773(9) 0.45860(10) 0.90230(11)
N2D N 0.37507(9) 0.57210(11) 0.89279(12)
C1D C 0.67746(12) 0.39605(12) 0.38709(16)
C2D C 0.68469(10) 0.44003(12) 0.34979(15)
H1D H 0.6886 0.4682 0.3814
C3D C 0.68624(10) 0.44297(13) 0.26643(15)
H2D H 0.6914 0.4732 0.2413
C4D C 0.68027(11) 0.40193(13) 0.21917(16)
C5D C 0.67268(14) 0.35872(14) 0.25626(17)
H3D H 0.6683 0.3307 0.2244
C6D C 0.67119(15) 0.35503(14) 0.33962(18)
H4D H 0.6659 0.3246 0.3644
C7D C 0.67623(12) 0.39382(12) 0.47343(17)
C8D C 0.67629(12) 0.39528(12) 0.54545(16)
C9D C 0.67720(11) 0.40323(12) 0.63160(15)
C10D C 0.66876(12) 0.36618(12) 0.68636(16)
H5D H 0.6618 0.3346 0.6675
C11D C 0.67048(11) 0.37533(12) 0.76918(16)
H6D H 0.6646 0.3500 0.8065
C12D C 0.68078(10) 0.42121(12) 0.79667(14)
C13D C 0.68933(10) 0.45848(11) 0.74152(15)
H7D H 0.6965 0.4900 0.7603
C14D C 0.68737(10) 0.44933(12) 0.65968(15)
H8D H 0.6930 0.4747 0.6224
C15D C 0.67862(11) 0.43307(12) 0.88591(15)
H9D H 0.7094 0.4536 0.9009
H10D H 0.6804 0.4032 0.9181
C16D C 0.58135(11) 0.43197(12) 0.90677(14)
H11D H 0.5833 0.3980 0.9109
C17D C 0.53265(11) 0.45411(12) 0.90530(14)
H12D H 0.5012 0.4351 0.9100
C18D C 0.52728(10) 0.50431(12) 0.89712(14)
C19D C 0.57677(11) 0.53046(12) 0.89293(14)
H13D H 0.5762 0.5645 0.8889
C20D C 0.62462(11) 0.50688(12) 0.89469(14)
H14D H 0.6568 0.5249 0.8904
C21D C 0.47624(11) 0.52776(12) 0.89473(13)
C22D C 0.42755(11) 0.50083(13) 0.90133(15)
H15D H 0.4289 0.4669 0.9068
C23D C 0.37899(11) 0.52394(14) 0.89981(14)
H16D H 0.3471 0.5055 0.9038
C24D C 0.42082(11) 0.59871(13) 0.88617(15)
H17D H 0.4182 0.6325 0.8801
C25D C 0.46992(11) 0.57800(12) 0.88806(14)
H18D H 0.5009 0.5977 0.8848
C26D C 0.32287(12) 0.59373(14) 0.87169(16)
H19D H 0.2933 0.5733 0.8918
H20D H 0.3195 0.6258 0.8968
N3 N 0.55503(10) 0.60902(10) 0.28872(13)
N4 N 0.44410(10) 0.37813(10) 0.31535(13)
C27 C 0.58711(12) 0.56942(12) 0.28778(15)
H21 H 0.6249 0.5736 0.2896
C28 C 0.56706(11) 0.52486(12) 0.28438(14)
H22 H 0.5909 0.4983 0.2825
C29 C 0.51026(10) 0.51645(11) 0.28346(14)
C30 C 0.47837(11) 0.55897(12) 0.28041(14)
H23 H 0.4405 0.5562 0.2762
C31 C 0.50093(12) 0.60309(12) 0.28345(16)
H24 H 0.4785 0.6306 0.2819
C32 C 0.48827(10) 0.46976(11) 0.28945(13)
C33 C 0.52023(11) 0.42748(11) 0.29589(14)
H25 H 0.5580 0.4301 0.2910
C34 C 0.49825(12) 0.38400(12) 0.30871(15)
H26 H 0.5209 0.3568 0.3132
C35 C 0.41188(11) 0.41738(12) 0.30696(14)
H27 H 0.3741 0.4134 0.3103
C36 C 0.43198(11) 0.46149(12) 0.29412(14)
H28 H 0.4081 0.4878 0.2880
C37 C 0.42144(13) 0.33198(12) 0.34253(17)
H29 H 0.4438 0.3052 0.3223
H30 H 0.3848 0.3281 0.3206
C38 C 0.41955(13) 0.33052(12) 0.43377(17)
C39 C 0.46444(13) 0.31607(12) 0.47704(18)
H31 H 0.4952 0.3044 0.4495
C40 C 0.46421(14) 0.31870(12) 0.56120(18)
H32 H 0.4948 0.3085 0.5907
C41 C 0.41981(13) 0.33609(12) 0.60196(17)
C42 C 0.37466(13) 0.34925(13) 0.55882(18)
H33 H 0.3437 0.3603 0.5864
C43 C 0.37467(13) 0.34630(14) 0.47463(19)
H34 H 0.3435 0.3552 0.4453
C44 C 0.42168(14) 0.34335(13) 0.69234(17)
H35 H 0.3850 0.3412 0.7148
H36 H 0.4437 0.3178 0.7174
N3D N 0.44497(10) 0.39098(10) 0.71128(13)
N4D N 0.55590(10) 0.62187(10) 0.68465(13)
C27D C 0.41289(12) 0.43058(12) 0.71222(15)
H21D H 0.3751 0.4264 0.7104
C28D C 0.43294(11) 0.47514(12) 0.71562(14)
H22D H 0.4091 0.5017 0.7175
C29D C 0.48974(10) 0.48355(11) 0.71654(14)
C30D C 0.52163(11) 0.44103(12) 0.71959(14)
H23D H 0.5595 0.4438 0.7238
C31D C 0.49907(12) 0.39691(12) 0.71655(16)
H24D H 0.5215 0.3694 0.7181
C32D C 0.51173(10) 0.53024(11) 0.71055(13)
C33D C 0.47977(11) 0.57252(11) 0.70411(14)
H25D H 0.4420 0.5699 0.7090
C34D C 0.50175(12) 0.61600(12) 0.69129(15)
H26D H 0.4791 0.6432 0.6868
C35D C 0.58812(11) 0.58262(12) 0.69304(14)
H27D H 0.6259 0.5866 0.6897
C36D C 0.56802(11) 0.53851(12) 0.70588(14)
H28D H 0.5919 0.5122 0.7120
C37D C 0.57856(13) 0.66802(12) 0.65747(17)
H29D H 0.5562 0.6948 0.6777
H30D H 0.6152 0.6719 0.6794
C38D C 0.58045(13) 0.66948(12) 0.56623(17)
C39D C 0.53556(13) 0.68393(12) 0.52296(18)
H31D H 0.5048 0.6956 0.5505
C40D C 0.53579(14) 0.68130(12) 0.43880(18)
H32D H 0.5052 0.6915 0.4093
C41D C 0.58019(13) 0.66391(12) 0.39804(17)
C42D C 0.62534(13) 0.65075(13) 0.44118(18)
H33D H 0.6563 0.6397 0.4136
C43D C 0.62533(13) 0.65370(14) 0.52537(19)
H34D H 0.6565 0.6448 0.5547
C44D C 0.57832(14) 0.65665(13) 0.30766(17)
H35D H 0.6150 0.6588 0.2852
H36D H 0.5563 0.6822 0.2826
Cl1 Cl 0.37797(3) 0.47679(4) 0.50230(4)
C45 C 0.44616(14) 0.48937(14) 0.50111(16)
C46 C 0.46298(14) 0.53696(14) 0.49491(16)
H37 H 0.4375 0.5622 0.4915
C47 C 0.48299(14) 0.45301(14) 0.50629(16)
H38 H 0.4712 0.4207 0.5107
Cl1D Cl 0.62203(3) 0.52321(4) 0.49770(4)
C45D C 0.55384(14) 0.51063(14) 0.49889(16)
C46D C 0.53702(14) 0.46304(14) 0.50509(16)
H37D H 0.5625 0.4378 0.5085
C47D C 0.51701(14) 0.54699(14) 0.49371(16)
H38D H 0.5288 0.5793 0.4893
P1 P 0.25206(3) 0.39433(3) 0.24459(4)
F1 F 0.22123(9) 0.43262(9) 0.19085(13)
F2 F 0.28327(9) 0.35624(9) 0.29819(13)
F3 F 0.27135(11) 0.43415(9) 0.30587(12)
F4 F 0.19974(8) 0.38487(10) 0.29579(13)
F5 F 0.23443(11) 0.35354(9) 0.18340(14)
F6 F 0.30429(8) 0.40327(10) 0.19203(11)
P2 P 0.43630(4) 0.74424(4) 0.23536(6)
F7 F 0.43719(9) 0.77747(9) 0.15743(13)
F8 F 0.43600(9) 0.71046(8) 0.31300(13)
F9 F 0.43411(10) 0.79044(9) 0.29046(15)
F10 F 0.37263(8) 0.74291(8) 0.23210(14)
F11 F 0.43793(11) 0.69708(9) 0.18053(15)
F12 F 0.50001(10) 0.74541(9) 0.23820(17)
N5 N 0.23966(12) 0.48229(15) 0.49049(16)
C48 C 0.23318(14) 0.44168(18) 0.49075(17)
C49 C 0.2229(2) 0.39020(17) 0.4922(2)
H39 H 0.2336 0.3761 0.4406
H40 H 0.1846 0.3845 0.5012
H41 H 0.2436 0.3754 0.5358
N6 N 0.3568(2) 0.82530(17) 0.5171(2)
C50 C 0.3599(2) 0.78549(18) 0.5026(2)
C51 C 0.3668(3) 0.73628(19) 0.4822(3)
H42 H 0.3919 0.7336 0.4370
H43 H 0.3322 0.7224 0.4669
H44 H 0.3812 0.7189 0.5288
loop_
_geom_bond_atom_site_label_1
_geom_bond_atom_site_label_2
_geom_bond_site_symmetry_1
_geom_bond_site_symmetry_2
N1 C15 1_555 1_555
N2 C23 1_555 1_555
C1 C2 1_555 1_555
C2 H1 1_555 1_555
C3 C2 1_555 1_555
H2 C3 1_555 1_555
C4 C3 1_555 1_555
C5 C4 1_555 1_555
H3 C5 1_555 1_555
C6 C1 1_555 1_555
H4 C6 1_555 1_555
C7 C1 1_555 1_555
C8 C7 1_555 1_555
C9 C8 1_555 1_555
C10 C9 1_555 1_555
H5 C10 1_555 1_555
C11 C10 1_555 1_555
H6 C11 1_555 1_555
C12 C11 1_555 1_555
C13 C12 1_555 1_555
H7 C13 1_555 1_555
C14 C9 1_555 1_555
H8 C14 1_555 1_555
C15 C12 1_555 1_555
H9 C15 1_555 1_555
H10 C15 1_555 1_555
C16 N1 1_555 1_555
H11 C16 1_555 1_555
C17 C16 1_555 1_555
H12 C17 1_555 1_555
C18 C17 1_555 1_555
C19 C18 1_555 1_555
H13 C19 1_555 1_555
C20 N1 1_555 1_555
H14 C20 1_555 1_555
C21 C18 1_555 1_555
C22 C21 1_555 1_555
H15 C22 1_555 1_555
C23 C22 1_555 1_555
H16 C23 1_555 1_555
C24 N2 1_555 1_555
H17 C24 1_555 1_555
C25 C21 1_555 1_555
H18 C25 1_555 1_555
C26 N2 1_555 1_555
H19 C26 1_555 1_555
H20 C26 1_555 1_555
N3 C27 1_555 1_555
N4 C34 1_555 1_555
C27 H21 1_555 1_555
C28 C27 1_555 1_555
H22 C28 1_555 1_555
C29 C28 1_555 1_555
C30 C29 1_555 1_555
H23 C30 1_555 1_555
C31 N3 1_555 1_555
H24 C31 1_555 1_555
C32 C29 1_555 1_555
C33 C32 1_555 1_555
H25 C33 1_555 1_555
C34 C33 1_555 1_555
H26 C34 1_555 1_555
C35 N4 1_555 1_555
H27 C35 1_555 1_555
C36 C32 1_555 1_555
H28 C36 1_555 1_555
C37 N4 1_555 1_555
H29 C37 1_555 1_555
H30 C37 1_555 1_555
C38 C37 1_555 1_555
C39 C38 1_555 1_555
H31 C39 1_555 1_555
C40 C39 1_555 1_555
H32 C40 1_555 1_555
C41 C40 1_555 1_555
C42 C41 1_555 1_555
H33 C42 1_555 1_555
C43 C38 1_555 1_555
H34 C43 1_555 1_555
C44 C41 1_555 1_555
H35 C44 1_555 1_555
H36 C44 1_555 1_555
Cl1 C45 1_555 1_555
C45 C46 1_555 1_555
C46 H37 1_555 1_555
C47 C45 1_555 1_555
H38 C47 1_555 1_555
P1 F1 1_555 1_555
F2 P1 1_555 1_555
F3 P1 1_555 1_555
F4 P1 1_555 1_555
F5 P1 1_555 1_555
F6 P1 1_555 1_555
P2 F7 1_555 1_555
F8 P2 1_555 1_555
F9 P2 1_555 1_555
F10 P2 1_555 1_555
F11 P2 1_555 1_555
F12 P2 1_555 1_555
N5 C48 1_555 1_555
C48 C49 1_555 1_555
C49 H39 1_555 1_555
H40 C49 1_555 1_555
H41 C49 1_555 1_555
N6 C50 1_555 1_555
C50 C51 1_555 1_555
C51 H42 1_555 1_555
H43 C51 1_555 1_555
H44 C51 1_555 1_555
N1D C15D 1_555 1_555
N2D C23D 1_555 1_555
C1D C2D 1_555 1_555
C2D H1D 1_555 1_555
C3D C2D 1_555 1_555
H2D C3D 1_555 1_555
C4D C26 1_555 1_555
C5D C4D 1_555 1_555
H3D C5D 1_555 1_555
C6D C1D 1_555 1_555
H4D C6D 1_555 1_555
C7D C1D 1_555 1_555
C8D C7D 1_555 1_555
C9D C8D 1_555 1_555
C10D C9D 1_555 1_555
H5D C10D 1_555 1_555
C11D C10D 1_555 1_555
H6D C11D 1_555 1_555
C12D C11D 1_555 1_555
C13D C12D 1_555 1_555
H7D C13D 1_555 1_555
C14D C9D 1_555 1_555
H8D C14D 1_555 1_555
C15D C12D 1_555 1_555
H9D C15D 1_555 1_555
H10D C15D 1_555 1_555
C16D N1D 1_555 1_555
H11D C16D 1_555 1_555
C17D C16D 1_555 1_555
H12D C17D 1_555 1_555
C18D C17D 1_555 1_555
C19D C18D 1_555 1_555
H13D C19D 1_555 1_555
C20D N1D 1_555 1_555
H14D C20D 1_555 1_555
C21D C18D 1_555 1_555
C22D C21D 1_555 1_555
H15D C22D 1_555 1_555
C23D C22D 1_555 1_555
H16D C23D 1_555 1_555
C24D N2D 1_555 1_555
H17D C24D 1_555 1_555
C25D C21D 1_555 1_555
H18D C25D 1_555 1_555
C26D C4 1_555 1_555
H19D C26D 1_555 1_555
H20D C26D 1_555 1_555
N3D C44 1_555 1_555
N4D C34D 1_555 1_555
C27D N3D 1_555 1_555
H21D C27D 1_555 1_555
C28D C27D 1_555 1_555
H22D C28D 1_555 1_555
C29D C28D 1_555 1_555
C30D C29D 1_555 1_555
H23D C30D 1_555 1_555
C31D N3D 1_555 1_555
H24D C31D 1_555 1_555
C32D C29D 1_555 1_555
C33D C32D 1_555 1_555
H25D C33D 1_555 1_555
C34D C33D 1_555 1_555
H26D C34D 1_555 1_555
C35D N4D 1_555 1_555
H27D C35D 1_555 1_555
C36D C32D 1_555 1_555
H28D C36D 1_555 1_555
C37D N4D 1_555 1_555
H29D C37D 1_555 1_555
H30D C37D 1_555 1_555
C38D C37D 1_555 1_555
C39D C38D 1_555 1_555
H31D C39D 1_555 1_555
C40D C39D 1_555 1_555
H32D C40D 1_555 1_555
C41D C40D 1_555 1_555
C42D C41D 1_555 1_555
H33D C42D 1_555 1_555
C43D C38D 1_555 1_555
H34D C43D 1_555 1_555
C44D N3 1_555 1_555
H35D C44D 1_555 1_555
H36D C44D 1_555 1_555
Cl1D C45D 1_555 1_555
C45D C46D 1_555 1_555
C46D C47 1_555 1_555
H37D C46D 1_555 1_555
C47D C46 1_555 1_555
H38D C47D 1_555 1_555
C5 C6 1_555 1_555
C13 C14 1_555 1_555
C19 C20 1_555 1_555
C24 C25 1_555 1_555
C30 C31 1_555 1_555
C35 C36 1_555 1_555
C42 C43 1_555 1_555
N2D C26D 1_555 1_555
C3D C4D 1_555 1_555
C5D C6D 1_555 1_555
C13D C14D 1_555 1_555
C19D C20D 1_555 1_555
C24D C25D 1_555 1_555
C30D C31D 1_555 1_555
C35D C36D 1_555 1_555
C41D C44D 1_555 1_555
C42D C43D 1_555 1_555
C45D C47D 1_555 1_555

#END
