
#######################################################################
#
#                 Cambridge Crystallographic Data Centre
#                                CCDC 
#
#######################################################################
#
# If this CIF has been generated from an entry in the Cambridge 
# Structural Database, then it will include bibliographic, chemical, 
# crystal, experimental, refinement or atomic coordinate data resulting 
# from the CCDC's data processing and validation procedures.
#
#######################################################################

data_JITGEB
_chemical_formula_moiety         
'C52 H40 N4 2+,C36 H32 N4 2+,4(F6 P1 1-),C14 H10 O4,4(C2 H3 N1)'
_chemical_name_systematic        
'5,25-diazonia-18,38-diazanonacyclo[36.2.2.2^2,5^.2^7,10^.2^13,16^.2^18,21^.2^22,25^.2^27,30^.2^33,36^]hexapentaconta-1,3,7,9,13,15,19,21,23,27,29,33,35,39,41,43,45,47,49,51,53,55-docosaene-11,31-diyne diradical 5,12,19,26-tetra-azaheptacyclo[24.2.2.2^2,5^.2^7,10^.2^12,15^.2^16,19^.2^21,24^]tetraconta-1(28),2,4,7,9,12,14,16,18,21,23,26,29,31,33,35,37,39-octadecaene-5,19-di-ium diradical tetrakis(hexafluorophosphate) bis(prop-2-yn-1-yl) benzene-1,4-dicarboxylate acetonitrile solvate'
_symmetry_cell_setting           triclinic
_symmetry_space_group_name_H-M   'P -1'
_symmetry_Int_Tables_number      2
_space_group_name_Hall           '-P 1'
loop_
_symmetry_equiv_pos_site_id
_symmetry_equiv_pos_as_xyz
1 x,y,z
2 -x,-y,-z
_cell_length_a                   13.257(3)
_cell_length_b                   13.407(2)
_cell_length_c                   16.845(4)
_cell_angle_alpha                75.445(11)
_cell_angle_beta                 88.351(13)
_cell_angle_gamma                60.638(10)
_cell_volume                     2509.74
_exptl_crystal_colour            black
_exptl_crystal_description       block
_cell_formula_units_Z            1
loop_
_atom_site_label
_atom_site_type_symbol
_atom_site_fract_x
_atom_site_fract_y
_atom_site_fract_z
N1 N 0.81461(17) 0.10758(16) 0.91581(12)
N2 N 0.32154(17) 0.67217(16) 0.88776(12)
C1 C 0.9131(2) -0.0041(2) 0.90368(15)
H1 H 0.912641 -0.073623 0.941344
H2 H 0.987897 -0.008640 0.916624
C2 C 0.8268(2) 0.2045(2) 0.90980(14)
H3 H 0.902308 0.195857 0.908072
C3 C 0.7335(2) 0.3128(2) 0.90624(14)
H4 H 0.745556 0.377823 0.903444
C4 C 0.6178(2) 0.3318(2) 0.90659(14)
C5 C 0.6097(2) 0.2280(2) 0.91480(14)
H5 H 0.535714 0.233227 0.918101
C6 C 0.7060(2) 0.1210(2) 0.91805(14)
H6 H 0.697001 0.053925 0.922001
C7 C 0.51793(19) 0.44614(19) 0.90037(13)
C8 C 0.5271(2) 0.5485(2) 0.89666(14)
H7 H 0.602022 0.541175 0.898494
C9 C 0.4314(2) 0.6568(2) 0.89055(14)
H8 H 0.441198 0.723057 0.888174
C10 C 0.3083(2) 0.5770(2) 0.89032(14)
H9 H 0.232032 0.587763 0.887044
C11 C 0.4015(2) 0.4667(2) 0.89746(14)
H10 H 0.388870 0.402003 0.900571
C12 C 0.2202(2) 0.7945(2) 0.86433(15)
H11 H 0.233787 0.845463 0.891013
H12 H 0.149500 0.793287 0.883594
C13 C 0.20246(19) 0.84498(19) 0.77160(15)
C14 C 0.2351(2) 0.9282(2) 0.73394(15)
H13 H 0.264932 0.957828 0.766994
C15 C 0.2245(2) 0.9683(2) 0.64873(15)
H14 H 0.246235 1.025805 0.623826
C16 C 0.1820(2) 0.9246(2) 0.59916(15)
C17 C 0.1482(2) 0.8417(2) 0.63743(15)
H15 H 0.118435 0.811682 0.604620
C18 C 0.1578(2) 0.8031(2) 0.72238(15)
H16 H 0.133739 0.747577 0.747509
C19 C 0.1703(2) 0.9612(2) 0.51044(16)
C20 C 0.1575(2) 0.9808(2) 0.43679(16)
C21 C 0.13747(19) 0.9926(2) 0.35076(15)
C22 C 0.1532(2) 1.0722(2) 0.28807(16)
H17 H 0.177348 1.122463 0.301651
C23 C 0.1339(2) 1.0788(2) 0.20571(15)
H18 H 0.145104 1.133366 0.163458
C24 C 0.09855(19) 1.00606(19) 0.18500(15)
C25 C 0.07893(19) 0.92860(19) 0.24781(15)
H19 H 0.051824 0.880683 0.233984
C26 C 0.0986(2) 0.9213(2) 0.32948(15)
H20 H 0.085844 0.867830 0.371593
N1A N 0.18539(17) 0.89242(16) 0.08419(12)
N2A N 0.67846(17) 0.32783(16) 0.11224(12)
C1A C 0.0869(2) 1.0041(2) 0.09632(15)
H1A H 0.087359 1.073623 0.058656
H2A H 0.012103 1.008640 0.083376
C2A C 0.1732(2) 0.7955(2) 0.09020(14)
H3A H 0.097692 0.804143 0.091928
C3A C 0.2665(2) 0.6872(2) 0.09376(14)
H4A H 0.254444 0.622177 0.096556
C4A C 0.3822(2) 0.6682(2) 0.09341(14)
C5A C 0.3903(2) 0.7720(2) 0.08520(14)
H5A H 0.464286 0.766773 0.081899
C6A C 0.2940(2) 0.8790(2) 0.08195(14)
H6A H 0.302999 0.946075 0.077999
C7A C 0.48207(19) 0.55386(19) 0.09963(13)
C8A C 0.4729(2) 0.4515(2) 0.10334(14)
H7A H 0.397978 0.458825 0.101506
C9A C 0.5686(2) 0.3432(2) 0.10945(14)
H8A H 0.558802 0.276943 0.111826
C10A C 0.6917(2) 0.4230(2) 0.10968(14)
H9A H 0.767968 0.412237 0.112956
C11A C 0.5985(2) 0.5333(2) 0.10254(14)
H10A H 0.611130 0.597997 0.099429
C12A C 0.7798(2) 0.2055(2) 0.13567(15)
H11A H 0.766213 0.154537 0.108987
H12A H 0.850500 0.206713 0.116406
C13A C 0.79754(19) 0.15502(19) 0.22840(15)
C14A C 0.7649(2) 0.0718(2) 0.26606(15)
H13A H 0.735068 0.042172 0.233006
C15A C 0.7755(2) 0.0317(2) 0.35127(15)
H14A H 0.753765 -0.025805 0.376174
C16A C 0.8180(2) 0.0754(2) 0.40084(15)
C17A C 0.8518(2) 0.1583(2) 0.36257(15)
H15A H 0.881565 0.188318 0.395380
C18A C 0.8422(2) 0.1969(2) 0.27762(15)
H16A H 0.866261 0.252423 0.252491
C19A C 0.8297(2) 0.0388(2) 0.48956(16)
C20A C 0.8425(2) 0.0192(2) 0.56321(16)
C21A C 0.86253(19) 0.0074(2) 0.64924(15)
C22A C 0.8468(2) -0.0722(2) 0.71193(16)
H17A H 0.822652 -0.122463 0.698349
C23A C 0.8661(2) -0.0788(2) 0.79429(15)
H18A H 0.854896 -0.133366 0.836542
C24A C 0.90145(19) -0.00606(19) 0.81500(15)
C25A C 0.92107(19) 0.07140(19) 0.75219(15)
H19A H 0.948176 0.119317 0.766016
C26A C 0.9014(2) 0.0787(2) 0.67052(15)
H20A H 0.914156 0.132170 0.628407
N3 N 0.62869(18) 0.66445(18) 0.68595(13)
N4 N 0.45258(19) 0.24168(18) 0.71481(13)
C27 C 0.6564(3) 0.7603(2) 0.65146(16)
H21 H 0.738118 0.732917 0.670322
H22 H 0.604899 0.831009 0.670850
C28 C 0.5165(2) 0.6933(2) 0.69557(15)
H23 H 0.460301 0.773358 0.692796
C29 C 0.4826(2) 0.6107(2) 0.70901(14)
H24 H 0.403239 0.634374 0.715210
C30 C 0.5633(2) 0.4891(2) 0.71409(14)
C31 C 0.6815(2) 0.4621(2) 0.70951(15)
H25 H 0.741059 0.381713 0.717109
C32 C 0.7107(2) 0.5482(2) 0.69459(15)
H26 H 0.789792 0.527428 0.690050
C33 C 0.5269(2) 0.4045(2) 0.71875(14)
C34 C 0.4071(2) 0.4365(2) 0.71431(15)
H27 H 0.349595 0.515497 0.713309
C35 C 0.3735(2) 0.3572(2) 0.71151(15)
H28 H 0.292815 0.382270 0.707131
C36 C 0.5680(2) 0.2058(2) 0.72237(15)
H29 H 0.623386 0.124939 0.726737
C37 C 0.6063(2) 0.2826(2) 0.72384(15)
H30 H 0.687585 0.254488 0.728353
C38 C 0.4116(3) 0.1612(2) 0.70244(16)
H31 H 0.337245 0.181266 0.726438
H32 H 0.469531 0.078083 0.731556
C39 C 0.3941(2) 0.1718(2) 0.61207(16)
C40 C 0.2833(2) 0.2357(2) 0.57014(17)
H33 H 0.217748 0.268067 0.599529
C41 C 0.2666(2) 0.2533(2) 0.48570(17)
H34 H 0.189855 0.296941 0.457965
C42 C 0.3610(2) 0.2078(2) 0.44162(16)
C43 C 0.4726(2) 0.1398(2) 0.48428(17)
H35 H 0.537970 0.105597 0.455105
C44 C 0.4892(2) 0.1214(2) 0.56866(17)
H36 H 0.565639 0.074217 0.597004
N3A N 0.37131(18) 0.33555(18) 0.31405(13)
N4A N 0.54742(19) 0.75832(18) 0.28519(13)
C27A C 0.3436(3) 0.2397(2) 0.34854(16)
H21A H 0.261882 0.267083 0.329678
H22A H 0.395101 0.168991 0.329150
C28A C 0.4835(2) 0.3067(2) 0.30443(15)
H23A H 0.539699 0.226642 0.307204
C29A C 0.5174(2) 0.3893(2) 0.29099(14)
H24A H 0.596761 0.365626 0.284790
C30A C 0.4367(2) 0.5109(2) 0.28591(14)
C31A C 0.3185(2) 0.5379(2) 0.29049(15)
H25A H 0.258941 0.618287 0.282891
C32A C 0.2893(2) 0.4518(2) 0.30541(15)
H26A H 0.210208 0.472572 0.309950
C33A C 0.4731(2) 0.5955(2) 0.28125(14)
C34A C 0.5929(2) 0.5635(2) 0.28569(15)
H27A H 0.650405 0.484503 0.286691
C35A C 0.6265(2) 0.6428(2) 0.28849(15)
H28A H 0.707185 0.617730 0.292869
C36A C 0.4320(2) 0.7942(2) 0.27763(15)
H29A H 0.376614 0.875061 0.273263
C37A C 0.3937(2) 0.7174(2) 0.27616(15)
H30A H 0.312415 0.745512 0.271647
C38A C 0.5884(3) 0.8388(2) 0.29756(16)
H31A H 0.662755 0.818734 0.273562
H32A H 0.530469 0.921917 0.268444
C39A C 0.6059(2) 0.8282(2) 0.38793(16)
C40A C 0.7167(2) 0.7643(2) 0.42986(17)
H33A H 0.782252 0.731933 0.400471
C41A C 0.7334(2) 0.7467(2) 0.51430(17)
H34A H 0.810145 0.703059 0.542035
C42A C 0.6390(2) 0.7922(2) 0.55838(16)
C43A C 0.5274(2) 0.8602(2) 0.51572(17)
H35A H 0.462030 0.894403 0.544895
C44A C 0.5108(2) 0.8786(2) 0.43134(17)
H36A H 0.434361 0.925783 0.402996
O1 O 0.2204(2) 0.5152(3) 0.51063(16)
O2 O 0.1874(2) 0.6979(2) 0.49938(15)
C45 C 0.4255(3) 0.6186(3) 0.49864(18)
H37 H 0.374593 0.699391 0.497510
C46 C 0.3816(3) 0.5424(3) 0.50249(17)
C47 C 0.4559(3) 0.4239(3) 0.50355(18)
H38 H 0.425352 0.372362 0.505770
C48 C 0.2576(4) 0.5943(4) 0.5040(2)
C49 C 0.0919(4) 0.5769(4) 0.5057(3)
H39 H 0.065199 0.626971 0.544540
H40 H 0.066134 0.517333 0.521950
C50 C 0.0372(4) 0.6549(5) 0.4178(3)
C51 C 0.0004(3) 0.6966(3) 0.3487(3)
H41 H -0.030(4) 0.720(4) 0.291(3)
O1A O 0.7796(2) 0.4848(3) 0.48937(16)
O2A O 0.8126(2) 0.3021(2) 0.50062(15)
C45A C 0.5745(3) 0.3814(3) 0.50136(18)
H37A H 0.625407 0.300609 0.502490
C46A C 0.6184(3) 0.4576(3) 0.49751(17)
C47A C 0.5441(3) 0.5761(3) 0.49645(18)
H38A H 0.574648 0.627638 0.494230
C48A C 0.7424(4) 0.4057(4) 0.4960(2)
C49A C 0.9081(4) 0.4231(4) 0.4943(3)
H39A H 0.934801 0.373029 0.455460
H40A H 0.933866 0.482667 0.478050
C50A C 0.9628(4) 0.3451(5) 0.5822(3)
C51A C 0.9996(3) 0.3034(3) 0.6513(3)
H41A H 1.030(4) 0.280(4) 0.709(3)
P1 P 0.04249(6) 0.52874(6) 0.75534(5)
F1 F -0.05000(16) 0.5870(2) 0.67635(12)
F2 F 0.1379(2) 0.46764(17) 0.83326(13)
F3 F 0.11555(15) 0.58535(15) 0.70638(12)
F4 F -0.0285(2) 0.64115(17) 0.78875(15)
F5 F -0.02927(18) 0.46990(17) 0.80273(12)
F6 F 0.11555(15) 0.41283(16) 0.72342(13)
P2 P 0.59700(6) 0.85191(6) 0.87561(4)
F7 F 0.46341(14) 0.91023(14) 0.83976(11)
F8 F 0.72981(13) 0.79460(13) 0.91082(10)
F9 F 0.57073(16) 0.79964(16) 0.96387(11)
F10 F 0.56645(14) 0.97277(13) 0.89634(10)
F11 F 0.62535(14) 0.90217(14) 0.78600(10)
F12 F 0.62635(15) 0.73312(14) 0.85103(11)
N5 N 0.0258(2) 0.7024(2) -0.00873(16)
C53 C 0.0731(2) 0.6018(2) 0.00967(17)
C54 C 0.1377(3) 0.4719(2) 0.0326(2)
H44 H 0.138623 0.444142 -0.016051
H45 H 0.100041 0.441289 0.075017
H46 H 0.217772 0.443205 0.054403
N6 N 0.1242(2) 0.0904(3) 0.87871(19)
C55 C 0.1829(2) 0.1264(2) 0.89024(17)
C56 C 0.2587(3) 0.1700(3) 0.90631(19)
H47 H 0.241672 0.241479 0.862252
H48 H 0.340079 0.108581 0.908197
H49 H 0.245676 0.189410 0.959366
C52? C 0.0564(9) 0.7058(9) 0.4904(7)
H42? H 0.046709 0.660953 0.543627
H43? H -0.005520 0.789957 0.480327
loop_
_geom_bond_atom_site_label_1
_geom_bond_atom_site_label_2
_geom_bond_site_symmetry_1
_geom_bond_site_symmetry_2
N1 C1 1_555 1_555
N2 C9 1_555 1_555
C1 H1 1_555 1_555
H2 C1 1_555 1_555
C2 N1 1_555 1_555
H3 C2 1_555 1_555
C3 C2 1_555 1_555
H4 C3 1_555 1_555
C4 C3 1_555 1_555
C5 C4 1_555 1_555
H5 C5 1_555 1_555
C6 N1 1_555 1_555
H6 C6 1_555 1_555
C7 C4 1_555 1_555
C8 C7 1_555 1_555
H7 C8 1_555 1_555
C9 C8 1_555 1_555
H8 C9 1_555 1_555
C10 N2 1_555 1_555
H9 C10 1_555 1_555
C11 C7 1_555 1_555
H10 C11 1_555 1_555
C12 N2 1_555 1_555
H11 C12 1_555 1_555
H12 C12 1_555 1_555
C13 C12 1_555 1_555
C14 C13 1_555 1_555
H13 C14 1_555 1_555
C15 C14 1_555 1_555
H14 C15 1_555 1_555
C16 C15 1_555 1_555
C17 C16 1_555 1_555
H15 C17 1_555 1_555
C18 C13 1_555 1_555
H16 C18 1_555 1_555
C19 C16 1_555 1_555
C20 C19 1_555 1_555
C21 C20 1_555 1_555
C22 C21 1_555 1_555
H17 C22 1_555 1_555
C23 C22 1_555 1_555
H18 C23 1_555 1_555
C24 C23 1_555 1_555
C25 C24 1_555 1_555
H19 C25 1_555 1_555
C26 C21 1_555 1_555
H20 C26 1_555 1_555
N3 C27 1_555 1_555
N4 C35 1_555 1_555
C27 H21 1_555 1_555
H22 C27 1_555 1_555
C28 N3 1_555 1_555
H23 C28 1_555 1_555
C29 C28 1_555 1_555
H24 C29 1_555 1_555
C30 C29 1_555 1_555
C31 C30 1_555 1_555
H25 C31 1_555 1_555
C32 N3 1_555 1_555
H26 C32 1_555 1_555
C33 C30 1_555 1_555
C34 C33 1_555 1_555
H27 C34 1_555 1_555
C35 C34 1_555 1_555
H28 C35 1_555 1_555
C36 N4 1_555 1_555
H29 C36 1_555 1_555
C37 C33 1_555 1_555
H30 C37 1_555 1_555
C38 N4 1_555 1_555
H31 C38 1_555 1_555
H32 C38 1_555 1_555
C39 C38 1_555 1_555
C40 C39 1_555 1_555
H33 C40 1_555 1_555
C41 C40 1_555 1_555
H34 C41 1_555 1_555
C42 C41 1_555 1_555
C43 C42 1_555 1_555
H35 C43 1_555 1_555
C44 C39 1_555 1_555
H36 C44 1_555 1_555
O1 C48 1_555 1_555
O2 C48 1_555 1_555
C45 H37 1_555 1_555
C46 C45 1_555 1_555
C47 C46 1_555 1_555
H38 C47 1_555 1_555
C48 C46 1_555 1_555
C49 O1 1_555 1_555
H39 C49 1_555 1_555
H40 C49 1_555 1_555
C50 C49 1_555 1_555
C51 C50 1_555 1_555
H41 C51 1_555 1_555
P1 F1 1_555 1_555
F2 P1 1_555 1_555
F3 P1 1_555 1_555
F4 P1 1_555 1_555
F5 P1 1_555 1_555
F6 P1 1_555 1_555
P2 F7 1_555 1_555
F8 P2 1_555 1_555
F9 P2 1_555 1_555
F10 P2 1_555 1_555
F11 P2 1_555 1_555
F12 P2 1_555 1_555
N5 C53 1_555 1_555
C53 C54 1_555 1_555
C54 H44 1_555 1_555
H45 C54 1_555 1_555
H46 C54 1_555 1_555
N6 C55 1_555 1_555
C55 C56 1_555 1_555
C56 H47 1_555 1_555
H48 C56 1_555 1_555
H49 C56 1_555 1_555
N1A C1A 1_555 1_555
N2A C9A 1_555 1_555
C1A C24 1_555 1_555
H1A C1A 1_555 1_555
H2A C1A 1_555 1_555
C2A N1A 1_555 1_555
H3A C2A 1_555 1_555
C3A C2A 1_555 1_555
H4A C3A 1_555 1_555
C4A C3A 1_555 1_555
C5A C4A 1_555 1_555
H5A C5A 1_555 1_555
C6A N1A 1_555 1_555
H6A C6A 1_555 1_555
C7A C4A 1_555 1_555
C8A C7A 1_555 1_555
H7A C8A 1_555 1_555
C9A C8A 1_555 1_555
H8A C9A 1_555 1_555
C10A N2A 1_555 1_555
H9A C10A 1_555 1_555
C11A C7A 1_555 1_555
H10A C11A 1_555 1_555
C12A N2A 1_555 1_555
H11A C12A 1_555 1_555
H12A C12A 1_555 1_555
C13A C12A 1_555 1_555
C14A C13A 1_555 1_555
H13A C14A 1_555 1_555
C15A C14A 1_555 1_555
H14A C15A 1_555 1_555
C16A C15A 1_555 1_555
C17A C16A 1_555 1_555
H15A C17A 1_555 1_555
C18A C13A 1_555 1_555
H16A C18A 1_555 1_555
C19A C16A 1_555 1_555
C20A C19A 1_555 1_555
C21A C20A 1_555 1_555
C22A C21A 1_555 1_555
H17A C22A 1_555 1_555
C23A C22A 1_555 1_555
H18A C23A 1_555 1_555
C24A C1 1_555 1_555
C25A C24A 1_555 1_555
H19A C25A 1_555 1_555
C26A C21A 1_555 1_555
H20A C26A 1_555 1_555
N3A C27A 1_555 1_555
N4A C35A 1_555 1_555
C27A C42 1_555 1_555
H21A C27A 1_555 1_555
H22A C27A 1_555 1_555
C28A N3A 1_555 1_555
H23A C28A 1_555 1_555
C29A C28A 1_555 1_555
H24A C29A 1_555 1_555
C30A C29A 1_555 1_555
C31A C30A 1_555 1_555
H25A C31A 1_555 1_555
C32A N3A 1_555 1_555
H26A C32A 1_555 1_555
C33A C30A 1_555 1_555
C34A C33A 1_555 1_555
H27A C34A 1_555 1_555
C35A C34A 1_555 1_555
H28A C35A 1_555 1_555
C36A N4A 1_555 1_555
H29A C36A 1_555 1_555
C37A C33A 1_555 1_555
H30A C37A 1_555 1_555
C38A N4A 1_555 1_555
H31A C38A 1_555 1_555
H32A C38A 1_555 1_555
C39A C38A 1_555 1_555
C40A C39A 1_555 1_555
H33A C40A 1_555 1_555
C41A C40A 1_555 1_555
H34A C41A 1_555 1_555
C42A C27 1_555 1_555
C43A C42A 1_555 1_555
H35A C43A 1_555 1_555
C44A C39A 1_555 1_555
H36A C44A 1_555 1_555
O1A C48A 1_555 1_555
O2A C48A 1_555 1_555
C45A C47 1_555 1_555
H37A C45A 1_555 1_555
C46A C45A 1_555 1_555
C47A C45 1_555 1_555
H38A C47A 1_555 1_555
C48A C46A 1_555 1_555
C49A O1A 1_555 1_555
H39A C49A 1_555 1_555
H40A C49A 1_555 1_555
C50A C49A 1_555 1_555
C51A C50A 1_555 1_555
H41A C51A 1_555 1_555
C5 C6 1_555 1_555
C10 C11 1_555 1_555
C17 C18 1_555 1_555
C25 C26 1_555 1_555
C31 C32 1_555 1_555
C36 C37 1_555 1_555
C43 C44 1_555 1_555
C5A C6A 1_555 1_555
C10A C11A 1_555 1_555
C17A C18A 1_555 1_555
C23A C24A 1_555 1_555
C25A C26A 1_555 1_555
C31A C32A 1_555 1_555
C36A C37A 1_555 1_555
C41A C42A 1_555 1_555
C43A C44A 1_555 1_555
C46A C47A 1_555 1_555

#END
