
#######################################################################
#
#                 Cambridge Crystallographic Data Centre
#                                CCDC 
#
#######################################################################
#
# If this CIF has been generated from an entry in the Cambridge 
# Structural Database, then it will include bibliographic, chemical, 
# crystal, experimental, refinement or atomic coordinate data resulting 
# from the CCDC's data processing and validation procedures.
#
#######################################################################

data_JITJUS
_chemical_compound_source        'whole plant of Chloranthus spicatus'
_chemical_formula_moiety         'C39 H42 O14,C3 H7 N1 O1,0.5(H2 O1)'
_chemical_name_systematic        
'Chloramultilide B dimethylformamide solvate hemihydrate'
_chemical_properties_biological  'in vitro antifungal activity'
_symmetry_cell_setting           orthorhombic
_symmetry_space_group_name_H-M   'P 21 21 21'
_symmetry_Int_Tables_number      19
_space_group_name_Hall           'P 2ac 2ab'
loop_
_symmetry_equiv_pos_site_id
_symmetry_equiv_pos_as_xyz
1 x,y,z
2 1/2-x,-y,1/2+z
3 -x,1/2+y,1/2-z
4 1/2+x,1/2-y,-z
_cell_length_a                   9.4871(4)
_cell_length_b                   17.1663(8)
_cell_length_c                   23.9638(12)
_cell_angle_alpha                90
_cell_angle_beta                 90
_cell_angle_gamma                90
_cell_volume                     3902.71
_exptl_crystal_colour            colorless
_exptl_crystal_description       block
_cell_formula_units_Z            4
loop_
_atom_site_label
_atom_site_type_symbol
_atom_site_fract_x
_atom_site_fract_y
_atom_site_fract_z
O1 O 0.15424(18) -0.04309(10) -0.31107(7)
O2 O 0.3215(2) -0.00653(12) -0.37155(9)
O3 O -0.1776(2) -0.01290(11) -0.46472(8)
O4 O -0.1542(2) -0.13297(10) -0.42834(7)
O5 O -0.3129(2) -0.08489(10) -0.31884(8)
O6 O -0.43472(17) -0.19655(10) -0.30710(7)
O7 O 0.10462(19) -0.04083(11) -0.19442(8)
H1 H 0.0499 -0.0206 -0.2179
O8 O -0.37506(18) -0.37544(11) -0.22283(8)
O9 O -0.14011(16) -0.37211(10) -0.23390(7)
O10 O 0.13197(17) -0.47699(10) -0.23822(7)
H2 H 0.1877 -0.5069 -0.2214
O11 O 0.2692(2) -0.33847(10) -0.45306(8)
H3 H 0.2770 -0.2961 -0.4704
O12 O 0.11056(19) -0.19867(9) -0.39020(7)
H4 H 0.0451 -0.1693 -0.4009
O13 O 0.00463(19) -0.27897(10) -0.45483(7)
O14 O -0.2151(2) -0.30023(10) -0.48568(8)
C1 C 0.1989(3) -0.01616(15) -0.36097(12)
C2 C 0.2491(3) -0.20714(16) -0.15728(11)
H5 H 0.3190 -0.2502 -0.1525
C3 C 0.3391(3) -0.43506(15) -0.35304(11)
H6 H 0.4239 -0.4169 -0.3741
C4 C 0.0765(3) -0.00710(15) -0.39810(12)
H7 H -0.0135 0.0013 -0.3817
C5 C 0.2618(3) -0.13613(18) -0.12055(12)
H8 H 0.1736 -0.1107 -0.1080
H9 H 0.3397 -0.1349 -0.0931
C6 C 0.3433(3) -0.51334(16) -0.32594(11)
H10 H 0.4308 -0.5443 -0.3299
H11 H 0.2553 -0.5443 -0.3257
C7 C 0.0855(3) -0.01016(15) -0.45361(12)
C8 C 0.2995(3) -0.13010(16) -0.18106(11)
H12 H 0.4012 -0.1248 -0.1914
C9 C 0.3488(3) -0.44218(16) -0.28993(11)
H13 H 0.4392 -0.4283 -0.2709
C10 C 0.1888(3) -0.09899(15) -0.22120(11)
C11 C 0.2209(4) -0.01357(19) -0.48625(13)
H14 H 0.2944 0.0153 -0.4663
H15 H 0.2065 0.0098 -0.5231
H16 H 0.2501 -0.0680 -0.4906
C12 C 0.2101(3) -0.41563(14) -0.26437(11)
C13 C -0.0405(3) -0.01875(18) -0.49088(12)
H17 H -0.0346 0.0216 -0.5203
H18 H -0.0344 -0.0701 -0.5096
C14 C 0.1028(3) -0.17223(15) -0.23560(11)
H19 H 0.1587 -0.2004 -0.2647
C15 C 0.1272(2) -0.38580(13) -0.31337(10)
C16 C -0.2273(3) -0.07822(15) -0.44038(10)
C17 C -0.0446(2) -0.16301(14) -0.25994(11)
H20 H -0.0964 -0.1216 -0.2398
H21 H -0.0386 -0.1483 -0.2998
C18 C 0.0195(2) -0.33661(14) -0.30734(10)
C19 C -0.3835(3) -0.07383(15) -0.43145(12)
H22 H -0.4311 -0.0747 -0.4682
H23 H -0.4064 -0.0236 -0.4133
C20 C -0.1202(3) -0.23941(14) -0.25394(10)
C21 C -0.0371(3) -0.30855(13) -0.36122(10)
C22 C -0.4408(3) -0.13927(16) -0.39621(11)
H24 H -0.5450 -0.1366 -0.3960
H25 H -0.4131 -0.1897 -0.4130
C23 C -0.0348(2) -0.31407(14) -0.25022(11)
C24 C 0.0742(3) -0.27655(15) -0.40103(10)
C25 C -0.3880(3) -0.13585(15) -0.33740(11)
C26 C 0.0867(3) -0.31199(15) -0.20428(10)
H26 H 0.0533 -0.3438 -0.1719
C27 C 0.2125(3) -0.32435(14) -0.39945(11)
H27 H 0.2835 -0.2936 -0.3779
C28 C 0.1038(3) -0.22635(16) -0.18310(11)
C29 C 0.1941(3) -0.40328(14) -0.36982(10)
C30 C -0.2565(3) -0.25564(14) -0.24784(10)
C31 C -0.1578(3) -0.32086(13) -0.38824(10)
C32 C -0.2706(3) -0.33835(15) -0.23422(10)
C33 C -0.1323(3) -0.29843(14) -0.44730(11)
C34 C -0.3827(3) -0.20347(15) -0.24983(10)
H28 H -0.4579 -0.2250 -0.2257
H29 H -0.3571 -0.1513 -0.2355
C35 C -0.2910(3) -0.35933(15) -0.37097(11)
H30 H -0.2701 -0.4004 -0.3438
H31 H -0.3369 -0.3822 -0.4037
H32 H -0.3538 -0.3207 -0.3540
C36 C -0.0141(3) -0.20887(17) -0.14082(11)
H33 H 0.0063 -0.2355 -0.1056
H34 H -0.1043 -0.2274 -0.1556
H35 H -0.0193 -0.1526 -0.1343
C37 C 0.1114(3) -0.46126(14) -0.40584(11)
H36 H 0.0819 -0.5056 -0.3828
H37 H 0.1715 -0.4798 -0.4363
H38 H 0.0280 -0.4355 -0.4214
C38 C 0.2627(3) -0.06411(16) -0.27173(12)
H39 H 0.3175 -0.0175 -0.2607
H40 H 0.3278 -0.1026 -0.2885
C39 C 0.2271(3) -0.34767(15) -0.22391(11)
H41 H 0.2838 -0.3065 -0.2422
H42 H 0.2802 -0.3659 -0.1908
N1 N 0.7259(3) -0.2264(2) -0.04008(13)
O15 O 0.5999(3) -0.2094(2) -0.11835(12)
C40 C 0.6630(4) -0.1839(2) -0.07872(16)
H43 H 0.6679 -0.1289 -0.0750
C41 C 0.7359(8) -0.3077(3) -0.0393(3)
H44 H 0.6801 -0.3295 -0.0700
H45 H 0.6998 -0.3274 -0.0036
H46 H 0.8347 -0.3232 -0.0436
C42 C 0.8007(6) -0.1853(3) 0.00481(15)
H47 H 0.7624 -0.1325 0.0086
H48 H 0.9013 -0.1823 -0.0042
H49 H 0.7883 -0.2136 0.0400
O16 O 0.4775(5) -0.3776(3) -0.10990(15)
loop_
_geom_bond_atom_site_label_1
_geom_bond_atom_site_label_2
_geom_bond_site_symmetry_1
_geom_bond_site_symmetry_2
O1 C1 1_555 1_555
O2 C1 1_555 1_555
O3 C13 1_555 1_555
O4 C16 1_555 1_555
O5 C25 1_555 1_555
O6 C25 1_555 1_555
O7 H1 1_555 1_555
O8 C32 1_555 1_555
O9 C23 1_555 1_555
O10 H2 1_555 1_555
O11 H3 1_555 1_555
O12 H4 1_555 1_555
O13 C24 1_555 1_555
O14 C33 1_555 1_555
C1 C4 1_555 1_555
C2 H5 1_555 1_555
C3 H6 1_555 1_555
C4 H7 1_555 1_555
C5 C2 1_555 1_555
H8 C5 1_555 1_555
H9 C5 1_555 1_555
C6 C3 1_555 1_555
H10 C6 1_555 1_555
H11 C6 1_555 1_555
C7 C4 1_555 1_555
C8 C2 1_555 1_555
H12 C8 1_555 1_555
C9 C3 1_555 1_555
H13 C9 1_555 1_555
C10 O7 1_555 1_555
C11 C7 1_555 1_555
H14 C11 1_555 1_555
H15 C11 1_555 1_555
H16 C11 1_555 1_555
C12 O10 1_555 1_555
C13 C7 1_555 1_555
H17 C13 1_555 1_555
H18 C13 1_555 1_555
C14 C10 1_555 1_555
H19 C14 1_555 1_555
C15 C12 1_555 1_555
C16 O3 1_555 1_555
C17 C14 1_555 1_555
H20 C17 1_555 1_555
H21 C17 1_555 1_555
C18 C15 1_555 1_555
C19 C16 1_555 1_555
H22 C19 1_555 1_555
H23 C19 1_555 1_555
C20 C17 1_555 1_555
C21 C18 1_555 1_555
C22 C19 1_555 1_555
H24 C22 1_555 1_555
H25 C22 1_555 1_555
C23 C18 1_555 1_555
C24 O12 1_555 1_555
C25 C22 1_555 1_555
C26 C23 1_555 1_555
H26 C26 1_555 1_555
C27 O11 1_555 1_555
H27 C27 1_555 1_555
C28 C2 1_555 1_555
C29 C3 1_555 1_555
C30 C20 1_555 1_555
C31 C21 1_555 1_555
C32 O9 1_555 1_555
C33 O13 1_555 1_555
C34 O6 1_555 1_555
H28 C34 1_555 1_555
H29 C34 1_555 1_555
C35 C31 1_555 1_555
H30 C35 1_555 1_555
H31 C35 1_555 1_555
H32 C35 1_555 1_555
C36 C28 1_555 1_555
H33 C36 1_555 1_555
H34 C36 1_555 1_555
H35 C36 1_555 1_555
C37 C29 1_555 1_555
H36 C37 1_555 1_555
H37 C37 1_555 1_555
H38 C37 1_555 1_555
C38 O1 1_555 1_555
H39 C38 1_555 1_555
H40 C38 1_555 1_555
C39 C12 1_555 1_555
H41 C39 1_555 1_555
H42 C39 1_555 1_555
N1 C40 1_555 1_555
O15 C40 1_555 1_555
C40 H43 1_555 1_555
C41 N1 1_555 1_555
H44 C41 1_555 1_555
H45 C41 1_555 1_555
H46 C41 1_555 1_555
C42 N1 1_555 1_555
H47 C42 1_555 1_555
H48 C42 1_555 1_555
H49 C42 1_555 1_555
C5 C8 1_555 1_555
C6 C9 1_555 1_555
C8 C10 1_555 1_555
C9 C12 1_555 1_555
C10 C38 1_555 1_555
C14 C28 1_555 1_555
C15 C29 1_555 1_555
C20 C23 1_555 1_555
C21 C24 1_555 1_555
C24 C27 1_555 1_555
C26 C28 1_555 1_555
C26 C39 1_555 1_555
C27 C29 1_555 1_555
C30 C32 1_555 1_555
C30 C34 1_555 1_555
C31 C33 1_555 1_555

#END
