
#######################################################################
#
#                 Cambridge Crystallographic Data Centre
#                                CCDC 
#
#######################################################################
#
# If this CIF has been generated from an entry in the Cambridge 
# Structural Database, then it will include bibliographic, chemical, 
# crystal, experimental, refinement or atomic coordinate data resulting 
# from the CCDC's data processing and validation procedures.
#
#######################################################################

data_JIVDAU
_chemical_formula_moiety         'C76 H41 N1 O11,3(C2 H6 O1)'
_chemical_name_systematic        
'amino-epoxy-tetrakis(t-butylperoxy)-bis(hydroxy)-(closed-cage)-C60fullerene ethanol solvate'
_symmetry_cell_setting           monoclinic
_symmetry_space_group_name_H-M   'P 21/c'
_symmetry_Int_Tables_number      14
_space_group_name_Hall           '-P 2ybc'
loop_
_symmetry_equiv_pos_site_id
_symmetry_equiv_pos_as_xyz
1 x,y,z
2 -x,1/2+y,1/2-z
3 -x,-y,-z
4 x,1/2-y,1/2+z
_cell_length_a                   24.831(5)
_cell_length_b                   13.989(3)
_cell_length_c                   19.483(4)
_cell_angle_alpha                90
_cell_angle_beta                 111.70(3)
_cell_angle_gamma                90
_cell_volume                     6288.03
_exptl_crystal_colour            red
_exptl_crystal_description       block
_cell_formula_units_Z            4
_exptl_crystal_recrystallization_method 'carbon disulfide/toluene/ethanol'
loop_
_atom_site_label
_atom_site_type_symbol
_atom_site_fract_x
_atom_site_fract_y
_atom_site_fract_z
O1 O 0.24483(16) 0.9274(2) 0.01850(19)
O2 O 0.30484(18) 0.9478(3) -0.0421(2)
H1 H 0.3150 0.9295 -0.0845
O3 O 0.30571(16) 0.7830(3) 0.13834(19)
H2 H 0.3256 0.7235 0.1526
O4 O 0.35264(16) 0.6386(3) 0.0735(2)
O5 O 0.37717(19) 0.5436(3) 0.0826(2)
O6 O 0.13118(16) 0.9518(2) 0.05577(18)
O7 O 0.15100(17) 1.0390(3) 0.0298(2)
O8 O 0.19788(16) 1.0153(2) -0.1334(2)
O9 O 0.23448(17) 1.0303(3) -0.1787(2)
O10 O 0.33948(19) 0.7905(3) -0.1026(3)
O11 O 0.3569(3) 0.7585(6) -0.1520(4)
N1 N 0.23407(17) 0.9118(3) 0.1280(2)
H6 H 0.2182 0.9691 0.1212
H7 H 0.2730 0.9178 0.1480
C1 C 0.0115(2) 0.5198(4) -0.1701(3)
C2 C 0.0091(2) 0.5579(4) -0.1058(3)
C3 C 0.0496(2) 0.5243(4) -0.0356(3)
C4 C 0.0907(2) 0.4562(4) -0.0318(3)
C5 C 0.0921(3) 0.4159(4) -0.0996(3)
C6 C 0.0543(2) 0.4462(4) -0.1675(3)
C7 C 0.0737(3) 0.4629(4) -0.2282(3)
C8 C 0.0446(3) 0.5462(4) -0.2675(3)
C9 C 0.0060(3) 0.5815(4) -0.2333(3)
C10 C -0.0018(2) 0.6793(4) -0.2273(3)
C11 C -0.0037(2) 0.7194(4) -0.1594(3)
C12 C 0.0013(2) 0.6591(4) -0.1002(3)
C13 C 0.0361(2) 0.6901(4) -0.0267(3)
C14 C 0.0665(3) 0.6058(4) 0.0147(3)
C15 C 0.1239(2) 0.6168(4) 0.0629(3)
C16 C 0.1650(2) 0.5447(4) 0.0659(3)
C17 C 0.1496(3) 0.4635(4) 0.0195(3)
C18 C 0.1874(3) 0.4317(4) -0.0143(3)
C19 C 0.1531(3) 0.4003(4) -0.0883(3)
C20 C 0.1715(3) 0.4181(4) -0.1461(3)
C21 C 0.1315(3) 0.4476(4) -0.2177(3)
C22 C 0.1618(3) 0.5138(4) -0.2469(3)
C23 C 0.1331(3) 0.5935(4) -0.2850(3)
C24 C 0.0721(2) 0.6101(4) -0.2963(3)
C25 C 0.0647(2) 0.7119(4) -0.2913(3)
C26 C 0.0286(2) 0.7471(4) -0.2565(3)
C27 C 0.0473(2) 0.8261(4) -0.2067(3)
C28 C 0.0290(2) 0.8091(4) -0.1456(3)
C29 C 0.0639(2) 0.8352(4) -0.0757(3)
C30 C 0.0661(2) 0.7762(4) -0.0131(3)
C31 C 0.1229(2) 0.7863(4) 0.0412(3)
C32 C 0.1516(2) 0.7078(4) 0.0770(3)
C33 C 0.2172(2) 0.6947(4) 0.1041(3)
H8 H 0.2281 0.7051 0.1602
C34 C 0.2208(2) 0.5921(4) 0.0807(3)
C35 C 0.2565(2) 0.5599(4) 0.0478(3)
C36 C 0.2391(3) 0.4812(4) -0.0017(3)
C37 C 0.2592(2) 0.4965(4) -0.0617(3)
C38 C 0.2270(3) 0.4644(4) -0.1317(3)
C39 C 0.2211(3) 0.5250(4) -0.1949(3)
C40 C 0.2485(3) 0.6129(4) -0.1822(3)
C41 C 0.2180(2) 0.6959(4) -0.2246(3)
C42 C 0.1634(3) 0.6863(4) -0.2737(3)
C43 C 0.1204(2) 0.7585(4) -0.2774(3)
C44 C 0.1369(2) 0.8365(4) -0.2287(3)
C45 C 0.1007(2) 0.8681(3) -0.1905(3)
C46 C 0.1385(2) 0.8960(3) -0.1165(3)
C47 C 0.1193(2) 0.8795(3) -0.0597(3)
C48 C 0.1526(2) 0.8724(4) 0.0245(3)
C49 C 0.2200(3) 0.8664(4) 0.0602(3)
C50 C 0.2508(2) 0.7677(4) 0.0762(3)
C51 C 0.2695(2) 0.7307(4) 0.0142(3)
C52 C 0.2944(2) 0.6288(4) 0.0228(3)
C53 C 0.2875(2) 0.5877(4) -0.0502(3)
C54 C 0.2830(2) 0.6428(4) -0.1090(3)
C55 C 0.2854(2) 0.7509(4) -0.1046(3)
C56 C 0.2357(2) 0.7795(4) -0.1777(3)
C57 C 0.1970(2) 0.8491(3) -0.1802(3)
C58 C 0.1982(2) 0.9136(4) -0.1161(3)
C59 C 0.2538(2) 0.8905(4) -0.0452(3)
C60 C 0.2703(2) 0.7874(4) -0.0398(3)
C61 C 0.4138(3) 0.5322(6) 0.1588(4)
C62 C 0.3759(3) 0.5334(6) 0.2056(4)
H9 H 0.3580 0.5950 0.2019
H10 H 0.3995 0.5208 0.2563
H11 H 0.3464 0.4852 0.1880
C63 C 0.4607(3) 0.6085(8) 0.1799(5)
H12 H 0.4434 0.6702 0.1789
H13 H 0.4801 0.6075 0.1455
H14 H 0.4882 0.5960 0.2288
C64 C 0.4403(5) 0.4397(8) 0.1599(5)
H15 H 0.4636 0.4420 0.1300
H16 H 0.4106 0.3922 0.1406
H17 H 0.4643 0.4236 0.2098
C65 C 0.1059(3) 1.1116(4) 0.0186(3)
C66 C 0.1354(4) 1.1973(4) -0.0011(5)
H18 H 0.1407 1.1848 -0.0467
H19 H 0.1724 1.2079 0.0375
H20 H 0.1116 1.2530 -0.0066
C67 C 0.0968(3) 1.1289(4) 0.0898(3)
H21 H 0.1329 1.1478 0.1274
H22 H 0.0832 1.0713 0.1047
H23 H 0.0687 1.1788 0.0827
C68 C 0.0498(3) 1.0827(5) -0.0412(4)
H24 H 0.0561 1.0721 -0.0863
H25 H 0.0217 1.1326 -0.0485
H26 H 0.0358 1.0249 -0.0270
C69 C 0.2076(3) 1.1076(4) -0.2302(3)
C70 C 0.2496(3) 1.1132(4) -0.2716(3)
H27 H 0.2480 1.0546 -0.2979
H28 H 0.2883 1.1231 -0.2368
H29 H 0.2387 1.1655 -0.3060
C71 C 0.2098(3) 1.1972(4) -0.1862(4)
H30 H 0.2492 1.2104 -0.1549
H31 H 0.1869 1.1883 -0.1563
H32 H 0.1946 1.2499 -0.2193
C72 C 0.1481(3) 1.0790(5) -0.2811(3)
H33 H 0.1504 1.0212 -0.3063
H34 H 0.1318 1.1289 -0.3165
H35 H 0.1240 1.0687 -0.2529
C73 C 0.4213(4) 0.7258(10) -0.1046(9)
C74 C 0.4537(3) 0.8143(7) -0.0968(5)
H36 H 0.4576 0.8445 -0.0509
H37 H 0.4334 0.8563 -0.1370
H38 H 0.4914 0.8006 -0.0973
C75 C 0.4083(5) 0.6586(15) -0.1648(10)
H39 H 0.3886 0.6042 -0.1552
H40 H 0.4437 0.6383 -0.1695
H41 H 0.3839 0.6888 -0.2099
C76 C 0.4528(8) 0.6591(10) -0.0385(10)
H42 H 0.4643 0.6951 0.0066
H43 H 0.4864 0.6323 -0.0443
H44 H 0.4271 0.6086 -0.0370
O13 O 0.3778(2) 0.8940(4) 0.1016(3)
H3 H 0.3606 0.9196 0.0616
C77 C 0.4361(4) 0.8824(8) 0.1116(5)
H45 H 0.4389 0.8393 0.0740
H46 H 0.4564 0.8533 0.1594
C78 C 0.4649(5) 0.9748(9) 0.1074(6)
H47 H 0.5045 0.9629 0.1133
H48 H 0.4639 1.0167 0.1458
H49 H 0.4450 1.0041 0.0602
O14 O 0.3678(6) 0.3100(11) -0.0288(7)
H4 H 0.3363 0.3255 -0.0276
C79 C 0.3710(8) 0.2020(19) -0.0329(14)
H50 H 0.3321 0.1761 -0.0477
H51 H 0.3932 0.1775 0.0161
C80 C 0.3976(7) 0.167(2) -0.0849(11)
H52 H 0.3983 0.0988 -0.0847
H53 H 0.4365 0.1913 -0.0701
H54 H 0.3753 0.1897 -0.1338
O15 O 0.2654(6) 1.1254(9) 0.1495(9)
H5 H 0.2321 1.0997 0.1465
C81 C 0.3118(9) 1.1169(14) 0.2175(12)
H55 H 0.3203 1.0500 0.2300
H56 H 0.3022 1.1471 0.2563
C82 C 0.3637(10) 1.1657(19) 0.2097(12)
H57 H 0.3958 1.1639 0.2561
H58 H 0.3542 1.2310 0.1950
H59 H 0.3741 1.1332 0.1729
O12? O 0.3843(3) 0.7448(6) -0.0548(5)
loop_
_geom_bond_atom_site_label_1
_geom_bond_atom_site_label_2
_geom_bond_site_symmetry_1
_geom_bond_site_symmetry_2
O1 C49 1_555 1_555
O2 H1 1_555 1_555
O3 H2 1_555 1_555
O4 O5 1_555 1_555
O5 C61 1_555 1_555
O6 O7 1_555 1_555
O7 C65 1_555 1_555
O8 O9 1_555 1_555
O9 C69 1_555 1_555
O10 O11 1_555 1_555
O11 C73 1_555 1_555
O13 H3 1_555 1_555
O14 H4 1_555 1_555
O15 H5 1_555 1_555
N1 H6 1_555 1_555
H7 N1 1_555 1_555
C1 C2 1_555 1_555
C2 C3 1_555 1_555
C3 C4 1_555 1_555
C4 C5 1_555 1_555
C5 C6 1_555 1_555
C6 C1 1_555 1_555
C7 C6 1_555 1_555
C8 C7 1_555 1_555
C9 C1 1_555 1_555
C10 C9 1_555 1_555
C11 C10 1_555 1_555
C12 C2 1_555 1_555
C13 C12 1_555 1_555
C14 C3 1_555 1_555
C15 C14 1_555 1_555
C16 C15 1_555 1_555
C17 C4 1_555 1_555
C18 C17 1_555 1_555
C19 C5 1_555 1_555
C20 C19 1_555 1_555
C21 C7 1_555 1_555
C22 C21 1_555 1_555
C23 C22 1_555 1_555
C24 C8 1_555 1_555
C25 C24 1_555 1_555
C26 C10 1_555 1_555
C27 C26 1_555 1_555
C28 C11 1_555 1_555
C29 C28 1_555 1_555
C30 C13 1_555 1_555
C31 C30 1_555 1_555
C32 C15 1_555 1_555
C33 C32 1_555 1_555
H8 C33 1_555 1_555
C34 C16 1_555 1_555
C35 C34 1_555 1_555
C36 C18 1_555 1_555
C37 C36 1_555 1_555
C38 C20 1_555 1_555
C39 C22 1_555 1_555
C40 C39 1_555 1_555
C41 C40 1_555 1_555
C42 C23 1_555 1_555
C43 C25 1_555 1_555
C44 C43 1_555 1_555
C45 C27 1_555 1_555
C46 C45 1_555 1_555
C47 C29 1_555 1_555
C48 O6 1_555 1_555
C49 N1 1_555 1_555
C50 O3 1_555 1_555
C51 C50 1_555 1_555
C52 O4 1_555 1_555
C53 C37 1_555 1_555
C54 C40 1_555 1_555
C55 O10 1_555 1_555
C56 C41 1_555 1_555
C57 C44 1_555 1_555
C58 O8 1_555 1_555
C59 O1 1_555 1_555
C60 C51 1_555 1_555
C61 C62 1_555 1_555
C62 H9 1_555 1_555
H10 C62 1_555 1_555
H11 C62 1_555 1_555
C63 C61 1_555 1_555
H12 C63 1_555 1_555
H13 C63 1_555 1_555
H14 C63 1_555 1_555
C64 C61 1_555 1_555
H15 C64 1_555 1_555
H16 C64 1_555 1_555
H17 C64 1_555 1_555
C65 C66 1_555 1_555
C66 H18 1_555 1_555
H19 C66 1_555 1_555
H20 C66 1_555 1_555
C67 C65 1_555 1_555
H21 C67 1_555 1_555
H22 C67 1_555 1_555
H23 C67 1_555 1_555
C68 C65 1_555 1_555
H24 C68 1_555 1_555
H25 C68 1_555 1_555
H26 C68 1_555 1_555
C69 C70 1_555 1_555
C70 H27 1_555 1_555
H28 C70 1_555 1_555
H29 C70 1_555 1_555
C71 C69 1_555 1_555
H30 C71 1_555 1_555
H31 C71 1_555 1_555
H32 C71 1_555 1_555
C72 C69 1_555 1_555
H33 C72 1_555 1_555
H34 C72 1_555 1_555
H35 C72 1_555 1_555
C73 C74 1_555 1_555
C74 H36 1_555 1_555
H37 C74 1_555 1_555
H38 C74 1_555 1_555
C75 C73 1_555 1_555
H39 C75 1_555 1_555
H40 C75 1_555 1_555
H41 C75 1_555 1_555
C76 C73 1_555 1_555
H42 C76 1_555 1_555
H43 C76 1_555 1_555
H44 C76 1_555 1_555
C77 O13 1_555 1_555
H45 C77 1_555 1_555
H46 C77 1_555 1_555
C78 C77 1_555 1_555
H47 C78 1_555 1_555
H48 C78 1_555 1_555
H49 C78 1_555 1_555
C79 O14 1_555 1_555
H50 C79 1_555 1_555
H51 C79 1_555 1_555
C80 C79 1_555 1_555
H52 C80 1_555 1_555
H53 C80 1_555 1_555
H54 C80 1_555 1_555
C81 O15 1_555 1_555
H55 C81 1_555 1_555
H56 C81 1_555 1_555
C82 C81 1_555 1_555
H57 C82 1_555 1_555
H58 C82 1_555 1_555
H59 C82 1_555 1_555
O2 C59 1_555 1_555
C8 C9 1_555 1_555
C11 C12 1_555 1_555
C13 C14 1_555 1_555
C16 C17 1_555 1_555
C18 C19 1_555 1_555
C20 C21 1_555 1_555
C23 C24 1_555 1_555
C25 C26 1_555 1_555
C27 C28 1_555 1_555
C29 C30 1_555 1_555
C31 C32 1_555 1_555
C31 C48 1_555 1_555
C33 C34 1_555 1_555
C33 C50 1_555 1_555
C35 C36 1_555 1_555
C35 C52 1_555 1_555
C37 C38 1_555 1_555
C38 C39 1_555 1_555
C41 C42 1_555 1_555
C42 C43 1_555 1_555
C44 C45 1_555 1_555
C46 C47 1_555 1_555
C46 C58 1_555 1_555
C47 C48 1_555 1_555
C48 C49 1_555 1_555
C49 C50 1_555 1_555
C51 C52 1_555 1_555
C52 C53 1_555 1_555
C53 C54 1_555 1_555
C54 C55 1_555 1_555
C55 C56 1_555 1_555
C55 C60 1_555 1_555
C56 C57 1_555 1_555
C57 C58 1_555 1_555
C58 C59 1_555 1_555
C59 C60 1_555 1_555

#END
