
#######################################################################
#
#                 Cambridge Crystallographic Data Centre
#                                CCDC 
#
#######################################################################
#
# If this CIF has been generated from an entry in the Cambridge 
# Structural Database, then it will include bibliographic, chemical, 
# crystal, experimental, refinement or atomic coordinate data resulting 
# from the CCDC's data processing and validation procedures.
#
#######################################################################

data_JIVLIK
_chemical_formula_moiety         'C16 H26 N2 O2'
_chemical_name_systematic        
(1R,4R,5S)-3,6-Dicyclohexyl-4-hydroxy-3,6-diazabicyclo(3.1.0)hexan-2-one
_symmetry_cell_setting           orthorhombic
_symmetry_space_group_name_H-M   'P 21 21 21'
_symmetry_Int_Tables_number      19
_space_group_name_Hall           'P 2ac 2ab'
loop_
_symmetry_equiv_pos_site_id
_symmetry_equiv_pos_as_xyz
1 x,y,z
2 1/2-x,-y,1/2+z
3 -x,1/2+y,1/2-z
4 1/2+x,1/2-y,-z
_cell_length_a                   6.4246(6)
_cell_length_b                   13.5081(13)
_cell_length_c                   18.6399(18)
_cell_angle_alpha                90
_cell_angle_beta                 90
_cell_angle_gamma                90
_cell_volume                     1617.65
_exptl_crystal_colour            colorless
_exptl_crystal_description       block
_cell_formula_units_Z            4
_exptl_crystal_recrystallization_method ethanol
loop_
_atom_site_label
_atom_site_type_symbol
_atom_site_fract_x
_atom_site_fract_y
_atom_site_fract_z
O1 O -0.11355(14) 0.77399(7) 0.17183(6)
O2 O 0.52678(15) 0.84540(8) 0.22577(5)
H1 H 0.6324 0.8210 0.2085
N1 N 0.23410(16) 0.80253(8) 0.15392(6)
N2 N 0.11934(17) 0.99949(8) 0.14287(6)
C1 C 0.0413(2) 0.82816(9) 0.17501(7)
C2 C 0.0476(2) 0.93258(9) 0.20114(7)
H2 H -0.0433 0.9559 0.2398
C3 C 0.2678(2) 0.96354(10) 0.19595(7)
H3 H 0.3259 1.0093 0.2315
C4 C 0.3948(2) 0.87630(9) 0.17048(7)
H4 H 0.4747 0.8934 0.1274
C5 C 0.2750(2) 0.70680(9) 0.11882(7)
H5 H 0.1431 0.6845 0.0979
C6 C 0.3424(3) 0.62819(10) 0.17191(8)
H6 H 0.2397 0.6227 0.2098
H7 H 0.4739 0.6471 0.1935
C7 C 0.3662(3) 0.52847(11) 0.13443(9)
H8 H 0.4154 0.4796 0.1686
H9 H 0.2318 0.5069 0.1166
C8 C 0.5185(3) 0.53592(12) 0.07264(10)
H10 H 0.6561 0.5509 0.0911
H11 H 0.5255 0.4728 0.0479
C9 C 0.4532(3) 0.61565(12) 0.02036(8)
H12 H 0.3219 0.5973 -0.0016
H13 H 0.5566 0.6211 -0.0174
C10 C 0.4295(3) 0.71559(10) 0.05767(7)
H14 H 0.5633 0.7371 0.0761
H15 H 0.3811 0.7646 0.0235
C11 C 0.0619(2) 1.10483(9) 0.15158(7)
H16 H 0.0593 1.1213 0.2028
C12 C -0.1505(2) 1.12394(11) 0.11971(9)
H17 H -0.2544 1.0874 0.1466
H18 H -0.1532 1.1003 0.0706
C13 C -0.2045(2) 1.23391(12) 0.12096(11)
H19 H -0.3370 1.2442 0.0971
H20 H -0.2186 1.2558 0.1703
C14 C -0.0377(3) 1.29512(12) 0.08382(10)
H21 H -0.0355 1.2789 0.0331
H22 H -0.0712 1.3648 0.0884
C15 C 0.1744(3) 1.27607(11) 0.11566(10)
H23 H 0.1775 1.3001 0.1647
H24 H 0.2785 1.3121 0.0885
C16 C 0.2267(2) 1.16619(11) 0.11478(10)
H25 H 0.2409 1.1443 0.0655
H26 H 0.3592 1.1559 0.1386
loop_
_geom_bond_atom_site_label_1
_geom_bond_atom_site_label_2
_geom_bond_site_symmetry_1
_geom_bond_site_symmetry_2
O1 C1 1_555 1_555
O2 H1 1_555 1_555
N1 C1 1_555 1_555
N2 C2 1_555 1_555
C1 C2 1_555 1_555
C2 H2 1_555 1_555
C3 N2 1_555 1_555
H3 C3 1_555 1_555
C4 O2 1_555 1_555
H4 C4 1_555 1_555
C5 N1 1_555 1_555
H5 C5 1_555 1_555
C6 C5 1_555 1_555
H6 C6 1_555 1_555
H7 C6 1_555 1_555
C7 C6 1_555 1_555
H8 C7 1_555 1_555
H9 C7 1_555 1_555
C8 C7 1_555 1_555
H10 C8 1_555 1_555
H11 C8 1_555 1_555
C9 C8 1_555 1_555
H12 C9 1_555 1_555
H13 C9 1_555 1_555
C10 C5 1_555 1_555
H14 C10 1_555 1_555
H15 C10 1_555 1_555
C11 N2 1_555 1_555
H16 C11 1_555 1_555
C12 C11 1_555 1_555
H17 C12 1_555 1_555
H18 C12 1_555 1_555
C13 C12 1_555 1_555
H19 C13 1_555 1_555
H20 C13 1_555 1_555
C14 C13 1_555 1_555
H21 C14 1_555 1_555
H22 C14 1_555 1_555
C15 C14 1_555 1_555
H23 C15 1_555 1_555
H24 C15 1_555 1_555
C16 C11 1_555 1_555
H25 C16 1_555 1_555
H26 C16 1_555 1_555
N1 C4 1_555 1_555
C2 C3 1_555 1_555
C3 C4 1_555 1_555
C9 C10 1_555 1_555
C15 C16 1_555 1_555

#END
