
#######################################################################
#
#                 Cambridge Crystallographic Data Centre
#                                CCDC 
#
#######################################################################
#
# If this CIF has been generated from an entry in the Cambridge 
# Structural Database, then it will include bibliographic, chemical, 
# crystal, experimental, refinement or atomic coordinate data resulting 
# from the CCDC's data processing and validation procedures.
#
#######################################################################

data_JIVXEU
_chemical_formula_moiety         'C25 H24 Br1 N3 O1'
_chemical_name_systematic        
(2-benzyl-1,2,3,6,7,11b-hexahydro-4H-[1,2,4]triazino[6,1-a]isoquinolin-4-yl)(4-bromophenyl)methanone
_symmetry_cell_setting           monoclinic
_symmetry_space_group_name_H-M   'P 21/n'
_symmetry_Int_Tables_number      14
_space_group_name_Hall           '-P 2yn'
loop_
_symmetry_equiv_pos_site_id
_symmetry_equiv_pos_as_xyz
1 x,y,z
2 1/2-x,1/2+y,1/2-z
3 -x,-y,-z
4 1/2+x,1/2-y,1/2+z
_cell_length_a                   10.1801(4)
_cell_length_b                   10.2257(14)
_cell_length_c                   21.1176(12)
_cell_angle_alpha                90
_cell_angle_beta                 103.581(10)
_cell_angle_gamma                90
_cell_volume                     2136.85
_cell_formula_units_Z            4
loop_
_atom_site_label
_atom_site_type_symbol
_atom_site_fract_x
_atom_site_fract_y
_atom_site_fract_z
O1 O -0.1707(3) 0.2150(3) 0.7647(1)
Br1 Br -0.1143 -0.2101 0.5317
N1 N 0.0513(4) 0.2503(3) 0.7783(1)
N2 N 0.1751(3) 0.1853(3) 0.7806(1)
N3 N 0.0868(3) 0.2779(3) 0.8917(1)
C1 C 0.5674(5) 0.0430(5) 0.8197(2)
H1 H 0.6220 0.0621 0.7912
C2 C 0.6140(5) -0.0379(5) 0.8704(3)
H2 H 0.7013 -0.0710 0.8775
C3 C 0.5340(5) -0.0715(4) 0.9116(2)
H3 H 0.5649 -0.1299 0.9456
C4 C 0.4088(4) -0.0182(4) 0.9020(2)
H4 H 0.3550 -0.0389 0.9306
C5 C 0.3594(4) 0.0657(3) 0.8511(2)
C6 C 0.4390(4) 0.0984(4) 0.8091(2)
C7 C 0.3874(4) 0.1864(4) 0.7524(2)
H5 H 0.3548 0.1338 0.7136
H6 H 0.4609 0.2405 0.7452
C8 C 0.2756(4) 0.2722(4) 0.7631(2)
H7 H 0.3095 0.3341 0.7980
H8 H 0.2358 0.3207 0.7238
C9 C 0.2229(3) 0.1266(3) 0.8450(2)
H9 H 0.1605 0.0551 0.8479
C10 C 0.2190(4) 0.2191(4) 0.9000(2)
H10 H 0.2414 0.1719 0.9410
H11 H 0.2861 0.2872 0.9017
C11 C 0.0524(4) 0.3442(4) 0.8298(2)
H12 H 0.1180 0.4124 0.8286
H13 H -0.0359 0.3846 0.8238
C12 C -0.0654(4) 0.1860(4) 0.7514(2)
C13 C -0.0624(4) 0.0850(4) 0.7015(2)
C14 C 0.0064(4) 0.1017(4) 0.6531(2)
H14 H 0.0630 0.1735 0.6543
C15 C -0.0080(4) 0.0131(4) 0.6030(2)
H15 H 0.0378 0.0250 0.5701
C16 C -0.0903(4) -0.0923(4) 0.6020(2)
C17 C -0.1574(4) -0.1138(4) 0.6501(2)
H16 H -0.2111 -0.1876 0.6495
C18 C -0.1430(4) -0.0226(4) 0.6995(2)
H17 H -0.1893 -0.0346 0.7321
C19 C 0.0780(4) 0.3638(4) 0.9445(2)
H18 H 0.0024 0.4229 0.9299
H19 H 0.1596 0.4162 0.9558
C20 C 0.0605(4) 0.2942(4) 1.0038(2)
C21 C -0.0258(4) 0.1884(5) 0.9981(2)
H20 H -0.0687 0.1578 0.9570
C22 C -0.0487(5) 0.1291(5) 1.0514(2)
H21 H -0.1095 0.0598 1.0462
C23 C 0.0142(5) 0.1674(5) 1.1123(2)
H22 H -0.0011 0.1240 1.1486
C24 C 0.0998(5) 0.2703(5) 1.1191(2)
H23 H 0.1417 0.3001 1.1605
C25 C 0.1250(4) 0.3306(4) 1.0655(2)
H24 H 0.1877 0.3983 1.0712
loop_
_geom_bond_atom_site_label_1
_geom_bond_atom_site_label_2
_geom_bond_site_symmetry_1
_geom_bond_site_symmetry_2
O1 C12 1_555 1_555
Br1 C16 1_555 1_555
N1 N2 1_555 1_555
N2 C8 1_555 1_555
N3 C10 1_555 1_555
C1 H1 1_555 1_555
C2 C1 1_555 1_555
H2 C2 1_555 1_555
C3 C2 1_555 1_555
H3 C3 1_555 1_555
C4 C3 1_555 1_555
H4 C4 1_555 1_555
C5 C4 1_555 1_555
C6 C1 1_555 1_555
C7 C6 1_555 1_555
H5 C7 1_555 1_555
H6 C7 1_555 1_555
C8 C7 1_555 1_555
H7 C8 1_555 1_555
H8 C8 1_555 1_555
C9 N2 1_555 1_555
H9 C9 1_555 1_555
C10 C9 1_555 1_555
H10 C10 1_555 1_555
H11 C10 1_555 1_555
C11 N1 1_555 1_555
H12 C11 1_555 1_555
H13 C11 1_555 1_555
C12 N1 1_555 1_555
C13 C12 1_555 1_555
C14 C13 1_555 1_555
H14 C14 1_555 1_555
C15 C14 1_555 1_555
H15 C15 1_555 1_555
C16 C15 1_555 1_555
C17 C16 1_555 1_555
H16 C17 1_555 1_555
C18 C13 1_555 1_555
H17 C18 1_555 1_555
C19 N3 1_555 1_555
H18 C19 1_555 1_555
H19 C19 1_555 1_555
C20 C19 1_555 1_555
C21 C20 1_555 1_555
H20 C21 1_555 1_555
C22 C21 1_555 1_555
H21 C22 1_555 1_555
C23 C22 1_555 1_555
H22 C23 1_555 1_555
C24 C23 1_555 1_555
H23 C24 1_555 1_555
C25 C20 1_555 1_555
H24 C25 1_555 1_555
N3 C11 1_555 1_555
C5 C6 1_555 1_555
C5 C9 1_555 1_555
C17 C18 1_555 1_555
C24 C25 1_555 1_555

#END
