
#######################################################################
#
#                 Cambridge Crystallographic Data Centre
#                                CCDC 
#
#######################################################################
#
# If this CIF has been generated from an entry in the Cambridge 
# Structural Database, then it will include bibliographic, chemical, 
# crystal, experimental, refinement or atomic coordinate data resulting 
# from the CCDC's data processing and validation procedures.
#
#######################################################################

data_JIWKAE
_chemical_formula_moiety         'C24 H22 N2 O1 S1'
_chemical_name_systematic        
5-methyl-4-[(2-methylphenyl)methyl]-2-phenyl-4-(phenylsulfanyl)-2,4-dihydro-3H-pyrazol-3-one
_symmetry_cell_setting           monoclinic
_symmetry_space_group_name_H-M   'P 21'
_symmetry_Int_Tables_number      4
_space_group_name_Hall           'P 2yb'
loop_
_symmetry_equiv_pos_site_id
_symmetry_equiv_pos_as_xyz
1 x,y,z
2 -x,1/2+y,-z
_cell_length_a                   11.4030(5)
_cell_length_b                   7.0095(3)
_cell_length_c                   12.9123(6)
_cell_angle_alpha                90
_cell_angle_beta                 91.0273(13)
_cell_angle_gamma                90
_cell_volume                     1031.91
_exptl_crystal_colour            colorless
_exptl_crystal_description       prismatic
_cell_formula_units_Z            2
loop_
_atom_site_label
_atom_site_type_symbol
_atom_site_fract_x
_atom_site_fract_y
_atom_site_fract_z
S1 S 0.62280(5) 0.34529(10) 0.96863(4)
N1 N 0.77106(16) 0.1953(3) 0.74649(15)
N2 N 0.66728(16) 0.0857(3) 0.73788(15)
O1 O 0.82720(16) 0.4896(3) 0.81026(15)
C1 C 0.75469(19) 0.3654(4) 0.79472(17)
C2 C 0.62617(19) 0.3645(4) 0.82606(16)
C3 C 0.5843(2) 0.1813(4) 0.77914(18)
C4 C 0.4627(2) 0.1036(4) 0.7824(2)
H1 H 0.4132 0.1730 0.7347
H2 H 0.4332 0.1167 0.8511
H3 H 0.4635 -0.0288 0.7634
C5 C 0.5612(2) 0.5545(4) 0.8008(2)
H4 H 0.5137 0.5879 0.8597
H5 H 0.6195 0.6541 0.7932
C6 C 0.4825(2) 0.5542(4) 0.70431(19)
C7 C 0.3614(3) 0.5527(5) 0.7198(2)
H6 H 0.3331 0.5528 0.7869
C8 C 0.2828(3) 0.5509(6) 0.6365(3)
H7 H 0.2025 0.5502 0.6475
C9 C 0.3246(3) 0.5501(6) 0.5387(3)
H8 H 0.2726 0.5466 0.4825
C10 C 0.4418(3) 0.5543(6) 0.5225(2)
H9 H 0.4683 0.5553 0.4549
C11 C 0.5242(3) 0.5572(4) 0.6042(2)
C12 C 0.6524(3) 0.5641(7) 0.5817(3)
H10 H 0.6631 0.6070 0.5119
H11 H 0.6855 0.4390 0.5899
H12 H 0.6908 0.6506 0.6289
C13 C 0.8764(2) 0.1189(4) 0.7059(2)
C14 C 0.9513(3) 0.2342(5) 0.6524(3)
H13 H 0.9345 0.3629 0.6430
C15 C 1.0524(4) 0.1558(7) 0.6128(4)
H14 H 1.1038 0.2328 0.5765
C16 C 1.0776(4) -0.0329(7) 0.6263(4)
H15 H 1.1466 -0.0839 0.6007
C17 C 1.0003(3) -0.1465(7) 0.6777(4)
H16 H 1.0163 -0.2758 0.6856
C18 C 0.8998(3) -0.0723(5) 0.7177(3)
H17 H 0.8478 -0.1506 0.7525
C19 C 0.7286(2) 0.1679(4) 1.00039(18)
C20 C 0.7043(3) -0.0237(4) 0.9887(2)
H18 H 0.6334 -0.0619 0.9587
C21 C 0.7847(3) -0.1590(5) 1.0211(2)
H19 H 0.7685 -0.2881 1.0123
C22 C 0.8895(3) -0.1020(6) 1.0668(3)
H20 H 0.9436 -0.1929 1.0894
C23 C 0.9137(3) 0.0881(6) 1.0790(3)
H21 H 0.9839 0.1258 1.1105
C24 C 0.8348(3) 0.2235(5) 1.0448(2)
H22 H 0.8527 0.3524 1.0516
loop_
_geom_bond_atom_site_label_1
_geom_bond_atom_site_label_2
_geom_bond_site_symmetry_1
_geom_bond_site_symmetry_2
S1 C2 1_555 1_555
N1 N2 1_555 1_555
N2 C3 1_555 1_555
O1 C1 1_555 1_555
C1 N1 1_555 1_555
C2 C1 1_555 1_555
C3 C2 1_555 1_555
C4 C3 1_555 1_555
H1 C4 1_555 1_555
H2 C4 1_555 1_555
H3 C4 1_555 1_555
C5 C2 1_555 1_555
H4 C5 1_555 1_555
H5 C5 1_555 1_555
C6 C5 1_555 1_555
C7 C6 1_555 1_555
H6 C7 1_555 1_555
C8 C7 1_555 1_555
H7 C8 1_555 1_555
C9 C8 1_555 1_555
H8 C9 1_555 1_555
C10 C9 1_555 1_555
H9 C10 1_555 1_555
C11 C6 1_555 1_555
C12 C11 1_555 1_555
H10 C12 1_555 1_555
H11 C12 1_555 1_555
H12 C12 1_555 1_555
C13 N1 1_555 1_555
C14 C13 1_555 1_555
H13 C14 1_555 1_555
C15 C14 1_555 1_555
H14 C15 1_555 1_555
C16 C15 1_555 1_555
H15 C16 1_555 1_555
C17 C16 1_555 1_555
H16 C17 1_555 1_555
C18 C13 1_555 1_555
H17 C18 1_555 1_555
C19 S1 1_555 1_555
C20 C19 1_555 1_555
H18 C20 1_555 1_555
C21 C20 1_555 1_555
H19 C21 1_555 1_555
C22 C21 1_555 1_555
H20 C22 1_555 1_555
C23 C22 1_555 1_555
H21 C23 1_555 1_555
C24 C19 1_555 1_555
H22 C24 1_555 1_555
C10 C11 1_555 1_555
C17 C18 1_555 1_555
C23 C24 1_555 1_555

#END
