
#######################################################################
#
#                 Cambridge Crystallographic Data Centre
#                                CCDC 
#
#######################################################################
#
# If this CIF has been generated from an entry in the Cambridge 
# Structural Database, then it will include bibliographic, chemical, 
# crystal, experimental, refinement or atomic coordinate data resulting 
# from the CCDC's data processing and validation procedures.
#
#######################################################################

data_JIWQIQ01
_chemical_formula_moiety         'C8 H5 O4 1-,C3 H7 N6 1+,2(H2 O1)'
_chemical_name_systematic        'Melaminium hydrogen isophthalate dihydrate'
_symmetry_cell_setting           triclinic
_symmetry_space_group_name_H-M   'P -1'
_symmetry_Int_Tables_number      2
_space_group_name_Hall           '-P 1'
loop_
_symmetry_equiv_pos_site_id
_symmetry_equiv_pos_as_xyz
1 x,y,z
2 -x,-y,-z
_cell_length_a                   7.076(2)
_cell_length_b                   9.231(3)
_cell_length_c                   12.242(4)
_cell_angle_alpha                95.341(7)
_cell_angle_beta                 105.299(7)
_cell_angle_gamma                97.970(8)
_cell_volume                     756.772
_exptl_crystal_colour            colorless
_exptl_crystal_description       block
_cell_formula_units_Z            2
loop_
_atom_site_label
_atom_site_type_symbol
_atom_site_fract_x
_atom_site_fract_y
_atom_site_fract_z
O1 O 0.8477(3) 0.7384(2) -0.08234(14)
O2 O 0.7632(3) 0.52463(19) 0.38497(14)
H1 H 0.7520 0.4898 0.4426
O3 O 0.7437(3) 0.5253(2) -0.02769(14)
O4 O 0.8744(3) 0.7332(2) 0.50793(14)
C1 C 0.8445(3) 0.7418(3) 0.11155(18)
C2 C 0.8197(3) 0.6661(3) 0.20221(18)
H2 H 0.7767 0.5645 0.1894
C3 C 0.8085(3) 0.6616(3) -0.00716(19)
C4 C 0.8343(3) 0.6676(3) 0.41152(19)
C5 C 0.8595(3) 0.7431(2) 0.31179(18)
C6 C 0.9036(4) 0.8944(3) 0.1316(2)
H3 H 0.9178 0.9455 0.0715
C7 C 0.9197(4) 0.8960(3) 0.3307(2)
H4 H 0.9452 0.9474 0.4035
C8 C 0.9416(4) 0.9714(3) 0.2403(2)
H5 H 0.9816 1.0733 0.2527
O5 O 0.5081(3) 0.1604(2) 0.19597(16)
H6 H 0.3979 0.1862 0.1647
H7 H 0.5949 0.1939 0.1640
O6 O 0.7433(3) 0.2677(2) 0.06159(17)
H8 H 0.8602 0.2509 0.0665
H9 H 0.746(5) 0.358(2) 0.050(3)
N1 N 0.4167(3) 0.8437(2) 0.37465(15)
N2 N 0.3084(3) 0.6144(2) 0.43743(15)
N3 N 0.3138(3) 0.6232(2) 0.24597(15)
N4 N 0.4045(3) 0.8445(2) 0.18426(16)
H10 H 0.4464 0.9382 0.1966
H11 H 0.3794 0.7974 0.1167
N5 N 0.2103(3) 0.4035(2) 0.30556(17)
H12 H 0.1861 0.3527 0.3572
H13 H 0.1908 0.3610 0.2370
N6 N 0.4173(4) 0.8315(2) 0.56056(17)
H14 H 0.3964 0.7837 0.6144
H15 H 0.4626 0.9248 0.5748
C9 C 0.3797(3) 0.7615(3) 0.45540(19)
C10 C 0.3787(3) 0.7728(2) 0.26937(18)
C11 C 0.2774(3) 0.5468(3) 0.33142(18)
H16 H 0.289(4) 0.575(3) 0.171(2)
loop_
_geom_bond_atom_site_label_1
_geom_bond_atom_site_label_2
_geom_bond_site_symmetry_1
_geom_bond_site_symmetry_2
O1 C3 1_555 1_555
O2 H1 1_555 1_555
O3 C3 1_555 1_555
O4 C4 1_555 1_555
C1 C2 1_555 1_555
C2 H2 1_555 1_555
C3 C1 1_555 1_555
C4 O2 1_555 1_555
C5 C2 1_555 1_555
C6 C1 1_555 1_555
H3 C6 1_555 1_555
C7 C5 1_555 1_555
H4 C7 1_555 1_555
C8 C6 1_555 1_555
H5 C8 1_555 1_555
O5 H6 1_555 1_555
H7 O5 1_555 1_555
O6 H8 1_555 1_555
H9 O6 1_555 1_555
N1 C9 1_555 1_555
N2 C9 1_555 1_555
N3 C10 1_555 1_555
N4 H10 1_555 1_555
H11 N4 1_555 1_555
N5 H12 1_555 1_555
H13 N5 1_555 1_555
N6 H14 1_555 1_555
H15 N6 1_555 1_555
C9 N6 1_555 1_555
C10 N1 1_555 1_555
C11 N2 1_555 1_555
H16 N3 1_555 1_555
C4 C5 1_555 1_555
C7 C8 1_555 1_555
N3 C11 1_555 1_555
N4 C10 1_555 1_555
N5 C11 1_555 1_555

#END
