
#######################################################################
#
#                 Cambridge Crystallographic Data Centre
#                                CCDC 
#
#######################################################################
#
# If this CIF has been generated from an entry in the Cambridge 
# Structural Database, then it will include bibliographic, chemical, 
# crystal, experimental, refinement or atomic coordinate data resulting 
# from the CCDC's data processing and validation procedures.
#
#######################################################################

data_JIWSUE
_chemical_compound_source        
'leaves of Murraya omphalocarpa Hayata (Rutaceae)'
_chemical_name_common            
'(1S*)-1-(7-Methoxy-2-oxo-2H-chromen-8-yl)-3-methyl-2-oxobutyl 3-methylbut-2-enoate'
_chemical_formula_moiety         'C20 H22 O6'
_chemical_name_systematic        'Epimurpaniculol senecioate'
_chemical_properties_biological  
'Inhibits antiplatelet aggregation activity induced by arachidonic acid and collagen'
_symmetry_cell_setting           monoclinic
_symmetry_space_group_name_H-M   'P 21/n'
_symmetry_Int_Tables_number      14
_space_group_name_Hall           '-P 2yn'
loop_
_symmetry_equiv_pos_site_id
_symmetry_equiv_pos_as_xyz
1 x,y,z
2 1/2-x,1/2+y,1/2-z
3 -x,-y,-z
4 1/2+x,1/2-y,1/2+z
_cell_length_a                   9.457(3)
_cell_length_b                   18.600(6)
_cell_length_c                   11.231(3)
_cell_angle_alpha                90
_cell_angle_beta                 100.96(3)
_cell_angle_gamma                90
_cell_volume                     1939.5
_exptl_crystal_colour            colorless
_exptl_crystal_description       prism
_chemical_melting_point          '111-113 deg.C'
_cell_formula_units_Z            4
_exptl_crystal_recrystallization_method chloroform/methanol
loop_
_atom_site_label
_atom_site_type_symbol
_atom_site_fract_x
_atom_site_fract_y
_atom_site_fract_z
O1 O 0.2632(4) 0.1663(2) 0.2324(4)
O2 O 0.2479(6) 0.0740(3) 0.1083(5)
O3 O 0.2580(5) 0.3602(3) 0.4960(4)
O4 O -0.0852(5) 0.3203(3) 0.4045(5)
O5 O 0.0902(4) 0.2077(2) 0.4609(4)
O6 O -0.1028(5) 0.1531(3) 0.3523(5)
C1 C 0.3273(8) 0.1177(4) 0.1622(7)
C2 C 0.4758(8) 0.1281(5) 0.1669(6)
H1 H 0.5227 0.0974 0.1217
C3 C 0.5520(8) 0.1786(5) 0.2316(7)
H2 H 0.6497 0.1830 0.2305
C4 C 0.5565(7) 0.2828(4) 0.3788(7)
H3 H 0.6549 0.2892 0.3838
C5 C 0.4851(7) 0.3265(4) 0.4425(6)
H4 H 0.5347 0.3620 0.4917
C6 C 0.3382(6) 0.3187(4) 0.4348(6)
C7 C 0.2603(6) 0.2647(3) 0.3647(5)
C8 C 0.3397(6) 0.2206(4) 0.3015(6)
C9 C 0.4853(6) 0.2272(4) 0.3044(6)
C10 C 0.1049(6) 0.2506(3) 0.3575(6)
H5 H 0.0741 0.2202 0.2859
C11 C 0.0083(6) 0.3158(4) 0.3410(7)
C12 C 0.0201(7) 0.3681(4) 0.2470(7)
H6 H 0.1221 0.3720 0.2418
C13 C -0.0321(13) 0.4437(5) 0.2755(9)
H7 H -0.1326 0.4419 0.2790
H8 H -0.0175 0.4766 0.2130
H9 H 0.0216 0.4597 0.3522
C14 C -0.0623(12) 0.3439(5) 0.1225(8)
H10 H -0.0100 0.3060 0.0921
H11 H -0.0726 0.3837 0.0673
H12 H -0.1559 0.3267 0.1302
C15 C -0.0206(7) 0.1631(4) 0.4519(8)
C16 C -0.0194(7) 0.1228(4) 0.5627(6)
H13 H 0.0515 0.1347 0.6290
C17 C -0.1101(8) 0.0701(4) 0.5788(7)
C18 C -0.0848(10) 0.0317(5) 0.7002(7)
H14 H 0.0087 0.0441 0.7453
H15 H -0.0901 -0.0193 0.6871
H16 H -0.1571 0.0460 0.7449
C19 C -0.2274(9) 0.0430(5) 0.4892(8)
H17 H -0.2092 0.0528 0.4096
H18 H -0.3154 0.0660 0.4988
H19 H -0.2359 -0.0080 0.4994
C20 C 0.3271(8) 0.4195(4) 0.5642(6)
H20 H 0.3810 0.4025 0.6401
H21 H 0.2557 0.4533 0.5791
H22 H 0.3911 0.4426 0.5192
loop_
_geom_bond_atom_site_label_1
_geom_bond_atom_site_label_2
_geom_bond_site_symmetry_1
_geom_bond_site_symmetry_2
O1 C1 1_555 1_555
O2 C1 1_555 1_555
O3 C6 1_555 1_555
O4 C11 1_555 1_555
O5 C10 1_555 1_555
O6 C15 1_555 1_555
C1 C2 1_555 1_555
C2 H1 1_555 1_555
C3 C2 1_555 1_555
H2 C3 1_555 1_555
C4 H3 1_555 1_555
C5 C4 1_555 1_555
H4 C5 1_555 1_555
C6 C5 1_555 1_555
C7 C6 1_555 1_555
C8 O1 1_555 1_555
C9 C3 1_555 1_555
C10 C7 1_555 1_555
H5 C10 1_555 1_555
C11 C10 1_555 1_555
C12 C11 1_555 1_555
H6 C12 1_555 1_555
C13 C12 1_555 1_555
H7 C13 1_555 1_555
H8 C13 1_555 1_555
H9 C13 1_555 1_555
C14 C12 1_555 1_555
H10 C14 1_555 1_555
H11 C14 1_555 1_555
H12 C14 1_555 1_555
C15 O5 1_555 1_555
C16 C15 1_555 1_555
H13 C16 1_555 1_555
C17 C16 1_555 1_555
C18 C17 1_555 1_555
H14 C18 1_555 1_555
H15 C18 1_555 1_555
H16 C18 1_555 1_555
C19 C17 1_555 1_555
H17 C19 1_555 1_555
H18 C19 1_555 1_555
H19 C19 1_555 1_555
C20 O3 1_555 1_555
H20 C20 1_555 1_555
H21 C20 1_555 1_555
H22 C20 1_555 1_555
C4 C9 1_555 1_555
C7 C8 1_555 1_555
C8 C9 1_555 1_555

#END
