
#######################################################################
#
#                 Cambridge Crystallographic Data Centre
#                                CCDC 
#
#######################################################################
#
# If this CIF has been generated from an entry in the Cambridge 
# Structural Database, then it will include bibliographic, chemical, 
# crystal, experimental, refinement or atomic coordinate data resulting 
# from the CCDC's data processing and validation procedures.
#
#######################################################################

data_JIWTUH
_chemical_name_common            2,1,3-benzothiadiazole-4-carbaldehyde
_chemical_formula_moiety         'C7 H4 N2 O1 S1'
_chemical_name_systematic        Benzo[c][1,2,5]thiadiazole-4-carbaldehyde
_symmetry_cell_setting           monoclinic
_symmetry_space_group_name_H-M   'P 21'
_symmetry_Int_Tables_number      4
_space_group_name_Hall           'P 2yb'
loop_
_symmetry_equiv_pos_site_id
_symmetry_equiv_pos_as_xyz
1 x,y,z
2 -x,1/2+y,-z
_cell_length_a                   3.7633(3)
_cell_length_b                   7.5939(5)
_cell_length_c                   11.6826(8)
_cell_angle_alpha                90
_cell_angle_beta                 95.426(2)
_cell_angle_gamma                90
_cell_volume                     332.371
_exptl_crystal_colour            'brownish yellow'
_exptl_crystal_description       block
_chemical_melting_point          '370 K'
_cell_formula_units_Z            2
loop_
_atom_site_label
_atom_site_type_symbol
_atom_site_fract_x
_atom_site_fract_y
_atom_site_fract_z
S1 S 0.94077(10) 0.37732(7) 0.47420(3)
O1 O 0.0899(4) 0.8109(2) 0.14904(12)
N1 N 0.8921(4) 0.2170(2) 0.38309(13)
N2 N 0.7369(4) 0.5349(2) 0.40093(12)
C1 C 0.3109(4) 0.4551(3) 0.10908(15)
H1 H 0.1722 0.5103 0.0470
C2 C 0.6140(4) 0.4639(2) 0.29854(14)
C3 C 0.6060(5) 0.1885(2) 0.18478(15)
H2 H 0.6719 0.0688 0.1765
C4 C 0.4121(5) 0.2758(3) 0.09781(15)
H3 H 0.3431 0.2154 0.0280
C5 C 0.4074(4) 0.5509(2) 0.20682(13)
C6 C 0.2952(5) 0.7360(2) 0.21871(15)
H4 H 0.3895 0.7996 0.2847
C7 C 0.7059(4) 0.2821(2) 0.28787(15)
loop_
_geom_bond_atom_site_label_1
_geom_bond_atom_site_label_2
_geom_bond_site_symmetry_1
_geom_bond_site_symmetry_2
S1 N1 1_555 1_555
O1 C6 1_555 1_555
N1 C7 1_555 1_555
N2 S1 1_555 1_555
C1 H1 1_555 1_555
C2 N2 1_555 1_555
C3 H2 1_555 1_555
C4 C1 1_555 1_555
H3 C4 1_555 1_555
C5 C1 1_555 1_555
C6 C5 1_555 1_555
H4 C6 1_555 1_555
C7 C2 1_555 1_555
C2 C5 1_555 1_555
C3 C4 1_555 1_555
C3 C7 1_555 1_555

#END
