
#######################################################################
#
#                 Cambridge Crystallographic Data Centre
#                                CCDC 
#
#######################################################################
#
# If this CIF has been generated from an entry in the Cambridge 
# Structural Database, then it will include bibliographic, chemical, 
# crystal, experimental, refinement or atomic coordinate data resulting 
# from the CCDC's data processing and validation procedures.
#
#######################################################################

data_JIWVET
_chemical_name_common            5-bromo-6-fluoro-2,1,3-benzothiadiazole
_chemical_formula_moiety         'C6 H2 Br1 F1 N2 S1'
_chemical_name_systematic        5-Bromo-6-fluorobenzo[c][1,2,5]thiadiazole
_symmetry_cell_setting           triclinic
_symmetry_space_group_name_H-M   'P -1'
_symmetry_Int_Tables_number      2
_space_group_name_Hall           '-P 1'
loop_
_symmetry_equiv_pos_site_id
_symmetry_equiv_pos_as_xyz
1 x,y,z
2 -x,-y,-z
_cell_length_a                   7.2785(3)
_cell_length_b                   9.1476(5)
_cell_length_c                   11.1383(5)
_cell_angle_alpha                87.568(4)
_cell_angle_beta                 78.446(4)
_cell_angle_gamma                80.481(4)
_cell_volume                     716.532
_exptl_crystal_colour            'light brown'
_exptl_crystal_description       plate
_cell_formula_units_Z            4
loop_
_atom_site_label
_atom_site_type_symbol
_atom_site_fract_x
_atom_site_fract_y
_atom_site_fract_z
Br1 Br 0.18663(10) 0.55015(7) 0.57958(6)
S1 S 0.0821(2) 1.22568(17) 0.77191(14)
F1 F 0.2476(5) 0.5688(4) 0.8359(3)
N1 N 0.0662(7) 1.1268(6) 0.6587(4)
N2 N 0.1385(7) 1.0982(6) 0.8694(5)
C1 C 0.1633(8) 0.7227(6) 0.6721(5)
C2 C 0.1139(8) 0.8580(7) 0.6215(5)
H1 H 0.0856 0.8679 0.5435
C3 C 0.1080(8) 0.9826(6) 0.6940(5)
C4 C 0.1489(7) 0.9679(6) 0.8142(5)
C5 C 0.1952(8) 0.8240(6) 0.8656(5)
H2 H 0.2202 0.8112 0.9443
C6 C 0.2005(8) 0.7070(7) 0.7932(5)
Br2 Br 0.26673(9) 0.40771(7) 0.09090(6)
S2 S 0.4257(2) -0.28257(17) 0.26546(14)
F2 F 0.3505(5) 0.3688(4) 0.3427(3)
N3 N 0.3721(7) -0.1754(6) 0.1543(4)
N4 N 0.4388(7) -0.1622(6) 0.3649(5)
C7 C 0.3163(8) 0.2283(6) 0.1768(5)
C8 C 0.3194(8) 0.0962(7) 0.1228(5)
H3 H 0.2952 0.0925 0.0442
C9 C 0.3612(7) -0.0357(6) 0.1920(5)
C10 C 0.4009(7) -0.0290(7) 0.3132(5)
C11 C 0.3935(8) 0.1114(6) 0.3673(5)
H4 H 0.4146 0.1189 0.4463
C12 C 0.3539(8) 0.2331(7) 0.2975(5)
loop_
_geom_bond_atom_site_label_1
_geom_bond_atom_site_label_2
_geom_bond_site_symmetry_1
_geom_bond_site_symmetry_2
Br1 C1 1_555 1_555
S1 N1 1_555 1_555
F1 C6 1_555 1_555
N1 C3 1_555 1_555
N2 S1 1_555 1_555
C1 C2 1_555 1_555
C2 H1 1_555 1_555
C3 C2 1_555 1_555
C4 N2 1_555 1_555
C5 C4 1_555 1_555
H2 C5 1_555 1_555
C6 C1 1_555 1_555
Br2 C7 1_555 1_555
S2 N3 1_555 1_555
F2 C12 1_555 1_555
N3 C9 1_555 1_555
N4 S2 1_555 1_555
C7 C8 1_555 1_555
C8 H3 1_555 1_555
C9 C8 1_555 1_555
C10 N4 1_555 1_555
C11 C10 1_555 1_555
H4 C11 1_555 1_555
C12 C7 1_555 1_555
C3 C4 1_555 1_555
C5 C6 1_555 1_555
C9 C10 1_555 1_555
C11 C12 1_555 1_555

#END
