
#######################################################################
#
#                 Cambridge Crystallographic Data Centre
#                                CCDC 
#
#######################################################################
#
# If this CIF has been generated from an entry in the Cambridge 
# Structural Database, then it will include bibliographic, chemical, 
# crystal, experimental, refinement or atomic coordinate data resulting 
# from the CCDC's data processing and validation procedures.
#
#######################################################################

data_JIWVIX
_chemical_name_common            
4,7-dibromo-5,6-dimethyl-2,1,3-benzothiadiazole
_chemical_formula_moiety         'C8 H6 Br2 N2 S1'
_chemical_name_systematic        
4,7-Dibromo-5,7-dimethylbenzo[c][1,2,5]thiadiazole
_symmetry_cell_setting           triclinic
_symmetry_space_group_name_H-M   'P -1'
_symmetry_Int_Tables_number      2
_space_group_name_Hall           '-P 1'
loop_
_symmetry_equiv_pos_site_id
_symmetry_equiv_pos_as_xyz
1 x,y,z
2 -x,-y,-z
_cell_length_a                   3.9421(3)
_cell_length_b                   13.1956(10)
_cell_length_c                   18.4648(15)
_cell_angle_alpha                83.576(2)
_cell_angle_beta                 88.285(2)
_cell_angle_gamma                89.015(2)
_cell_volume                     953.958
_exptl_crystal_colour            colorless
_exptl_crystal_description       plate
_chemical_melting_point          '441-444 K'
_cell_formula_units_Z            4
loop_
_atom_site_label
_atom_site_type_symbol
_atom_site_fract_x
_atom_site_fract_y
_atom_site_fract_z
Br1 Br 0.28755(8) 0.27303(2) 0.53919(2)
Br2 Br 0.74343(9) 0.18620(3) 0.20364(2)
S1 S 0.1855(2) -0.00944(6) 0.40407(4)
N1 N 0.2019(7) 0.08031(19) 0.45730(14)
N2 N 0.3750(7) 0.0453(2) 0.33132(14)
C1 C 0.8754(9) 0.3914(2) 0.27431(17)
H1 H 0.7094 0.4451 0.2591
H2 H 0.9731 0.3635 0.2312
H3 H 1.0562 0.4199 0.3008
C2 C 0.7019(8) 0.3075(2) 0.32331(16)
C3 C 0.6030(8) 0.3274(2) 0.39725(16)
C4 C 0.6853(9) 0.4301(2) 0.42052(18)
H4 H 0.9312 0.4402 0.4165
H5 H 0.6077 0.4328 0.4712
H6 H 0.5705 0.4839 0.3890
C5 C 0.4351(8) 0.2536(2) 0.44297(15)
C6 C 0.3599(8) 0.1585(2) 0.41904(16)
C7 C 0.4601(8) 0.1388(2) 0.34633(16)
C8 C 0.6305(8) 0.2162(2) 0.29940(16)
Br3 Br 1.26107(8) 0.67308(2) 0.30096(2)
Br4 Br 0.72371(8) 0.79288(2) -0.03398(2)
S2 S 1.2510(2) 0.49935(6) 0.08902(4)
N3 N 1.2907(7) 0.5495(2) 0.16455(14)
N4 N 1.0643(7) 0.5919(2) 0.03970(14)
C9 C 0.6844(9) 0.9390(2) 0.09370(18)
H7 H 0.5042 0.9517 0.1295
H8 H 0.5889 0.9429 0.0451
H9 H 0.8605 0.9905 0.0939
C10 C 0.8377(8) 0.8341(2) 0.11335(16)
C11 C 0.9521(8) 0.8074(2) 0.18727(16)
C12 C 0.8950(9) 0.8840(3) 0.24170(18)
H10 H 1.0242 0.9457 0.2258
H11 H 0.9711 0.8545 0.2896
H12 H 0.6528 0.9015 0.2449
C13 C 1.1038(8) 0.7145(2) 0.20600(15)
C14 C 1.1480(8) 0.6430(2) 0.15395(16)
C15 C 1.0220(8) 0.6680(2) 0.08268(16)
C16 C 0.8730(8) 0.7655(2) 0.06305(16)
loop_
_geom_bond_atom_site_label_1
_geom_bond_atom_site_label_2
_geom_bond_site_symmetry_1
_geom_bond_site_symmetry_2
Br1 C5 1_555 1_555
Br2 C8 1_555 1_555
S1 N1 1_555 1_555
N1 C6 1_555 1_555
N2 S1 1_555 1_555
C1 H1 1_555 1_555
H2 C1 1_555 1_555
H3 C1 1_555 1_555
C2 C1 1_555 1_555
C3 C2 1_555 1_555
C4 C3 1_555 1_555
H4 C4 1_555 1_555
H5 C4 1_555 1_555
H6 C4 1_555 1_555
C5 C3 1_555 1_555
C6 C5 1_555 1_555
C7 N2 1_555 1_555
C8 C2 1_555 1_555
Br3 C13 1_555 1_555
Br4 C16 1_555 1_555
S2 N3 1_555 1_555
N3 C14 1_555 1_555
N4 S2 1_555 1_555
C9 H7 1_555 1_555
H8 C9 1_555 1_555
H9 C9 1_555 1_555
C10 C9 1_555 1_555
C11 C10 1_555 1_555
C12 C11 1_555 1_555
H10 C12 1_555 1_555
H11 C12 1_555 1_555
H12 C12 1_555 1_555
C13 C11 1_555 1_555
C14 C13 1_555 1_555
C15 N4 1_555 1_555
C16 C10 1_555 1_555
C6 C7 1_555 1_555
C7 C8 1_555 1_555
C14 C15 1_555 1_555
C15 C16 1_555 1_555

#END
