
#######################################################################
#
#                 Cambridge Crystallographic Data Centre
#                                CCDC 
#
#######################################################################
#
# If this CIF has been generated from an entry in the Cambridge 
# Structural Database, then it will include bibliographic, chemical, 
# crystal, experimental, refinement or atomic coordinate data resulting 
# from the CCDC's data processing and validation procedures.
#
#######################################################################

data_JIWWIY
_chemical_name_common            5,6-dibromo-2,1,3-benzothiadiazole
_chemical_formula_moiety         'C6 H2 Br2 N2 S1'
_chemical_name_systematic        5,6-Dibromobenzo[c][1,2,5]thiadiazole
_symmetry_cell_setting           triclinic
_symmetry_space_group_name_H-M   'P -1'
_symmetry_Int_Tables_number      2
_space_group_name_Hall           '-P 1'
loop_
_symmetry_equiv_pos_site_id
_symmetry_equiv_pos_as_xyz
1 x,y,z
2 -x,-y,-z
_cell_length_a                   6.2074(7)
_cell_length_b                   7.4432(8)
_cell_length_c                   8.9951(10)
_cell_angle_alpha                86.737(2)
_cell_angle_beta                 71.167(2)
_cell_angle_gamma                84.015(2)
_cell_volume                     391.087
_exptl_crystal_colour            colorless
_exptl_crystal_description       plate
_chemical_melting_point          '404 K'
_cell_formula_units_Z            2
loop_
_atom_site_label
_atom_site_type_symbol
_atom_site_fract_x
_atom_site_fract_y
_atom_site_fract_z
Br1 Br 0.55558(3) 0.74210(3) 0.08446(2)
Br2 Br 0.98509(3) 0.57477(3) 0.21324(2)
S1 S 0.18163(10) 0.86455(7) 0.83801(6)
N1 N 0.1194(3) 0.8997(2) 0.6774(2)
N2 N 0.4364(3) 0.7633(2) 0.7743(2)
C1 C 0.3040(4) 0.8287(3) 0.5617(2)
C2 C 0.4835(4) 0.7516(3) 0.6173(2)
C3 C 0.6911(4) 0.6738(3) 0.5118(2)
H1 H 0.8133 0.6240 0.5476
C4 C 0.7077(3) 0.6733(3) 0.3563(2)
C5 C 0.5257(4) 0.7493(3) 0.2999(2)
C6 C 0.3255(4) 0.8277(3) 0.4002(2)
H2 H 0.2058 0.8794 0.3626
loop_
_geom_bond_atom_site_label_1
_geom_bond_atom_site_label_2
_geom_bond_site_symmetry_1
_geom_bond_site_symmetry_2
Br1 C5 1_555 1_555
Br2 C4 1_555 1_555
S1 N1 1_555 1_555
N1 C1 1_555 1_555
N2 S1 1_555 1_555
C1 C2 1_555 1_555
C2 N2 1_555 1_555
C3 C2 1_555 1_555
H1 C3 1_555 1_555
C4 C3 1_555 1_555
C5 C4 1_555 1_555
C6 C1 1_555 1_555
H2 C6 1_555 1_555
C5 C6 1_555 1_555

#END
