
#######################################################################
#
#                 Cambridge Crystallographic Data Centre
#                                CCDC 
#
#######################################################################
#
# If this CIF has been generated from an entry in the Cambridge 
# Structural Database, then it will include bibliographic, chemical, 
# crystal, experimental, refinement or atomic coordinate data resulting 
# from the CCDC's data processing and validation procedures.
#
#######################################################################

data_JIWWAQ
_chemical_name_common            
4,7-diiodo-5,6-dimethyl-2,1,3-benzothiadiazole
_chemical_formula_moiety         'C8 H6 I2 N2 S1'
_chemical_name_systematic        
4,7,-Diiodo-5,7-dimethylbenzo[c][1,2,5]thiadiazole
_symmetry_cell_setting           triclinic
_symmetry_space_group_name_H-M   'P -1'
_symmetry_Int_Tables_number      2
_space_group_name_Hall           '-P 1'
loop_
_symmetry_equiv_pos_site_id
_symmetry_equiv_pos_as_xyz
1 x,y,z
2 -x,-y,-z
_cell_length_a                   8.6068(5)
_cell_length_b                   8.6204(5)
_cell_length_c                   14.4295(8)
_cell_angle_alpha                84.7320(10)
_cell_angle_beta                 84.8230(10)
_cell_angle_gamma                77.6460(10)
_cell_volume                     1038.63
_exptl_crystal_colour            'light yellow'
_exptl_crystal_description       block
_chemical_melting_point          '475-476 K'
_cell_formula_units_Z            4
loop_
_atom_site_label
_atom_site_type_symbol
_atom_site_fract_x
_atom_site_fract_y
_atom_site_fract_z
I1 I 0.40260(2) 0.38452(2) 0.65145(2)
I2 I 1.05932(2) 0.11232(2) 0.33825(2)
S1 S 0.96801(7) 0.38648(8) 0.62634(4)
N1 N 0.7781(2) 0.3918(2) 0.64180(13)
N2 N 1.0128(2) 0.2968(2) 0.53070(13)
C1 C 0.5889(3) 0.2979(3) 0.55268(16)
C2 C 0.7413(3) 0.3211(3) 0.56987(15)
C3 C 0.8759(3) 0.2668(3) 0.50590(15)
C4 C 0.8546(3) 0.1903(3) 0.42650(15)
C5 C 0.7060(3) 0.1701(3) 0.41005(15)
C6 C 0.5691(3) 0.2260(3) 0.47502(16)
C7 C 0.4091(3) 0.2059(3) 0.45059(17)
H1 H 0.3283 0.2431 0.5005
H2 H 0.4128 0.0931 0.4434
H3 H 0.3815 0.2683 0.3919
C8 C 0.6755(3) 0.0927(3) 0.32623(17)
H4 H 0.7736 0.0706 0.2853
H5 H 0.5917 0.1644 0.2922
H6 H 0.6414 -0.0072 0.3465
I3 I 0.88299(2) 0.43429(2) 0.15121(2)
I4 I 0.60599(2) 1.08088(2) -0.16744(2)
S2 S 0.61536(8) 0.51221(7) -0.14091(4)
N3 N 0.6994(2) 0.4714(2) -0.04314(14)
N4 N 0.6090(2) 0.7014(2) -0.15800(14)
C9 C 0.6952(3) 0.8959(3) -0.06854(16)
C10 C 0.6753(3) 0.7419(3) -0.08562(15)
C11 C 0.7279(3) 0.6095(3) -0.01958(16)
C12 C 0.8063(3) 0.6334(3) 0.05879(15)
C13 C 0.8299(3) 0.7820(3) 0.07220(15)
C14 C 0.7661(3) 0.9182(3) 0.00896(16)
C15 C 0.7764(3) 1.0811(3) 0.03459(17)
H7 H 0.8886 1.0896 0.0315
H8 H 0.7284 1.0973 0.0981
H9 H 0.7191 1.1624 -0.0092
C16 C 0.9185(3) 0.8081(3) 0.15216(17)
H10 H 0.9613 0.9049 0.1377
H11 H 1.0064 0.7167 0.1626
H12 H 0.8458 0.8200 0.2086
loop_
_geom_bond_atom_site_label_1
_geom_bond_atom_site_label_2
_geom_bond_site_symmetry_1
_geom_bond_site_symmetry_2
I1 C1 1_555 1_555
I2 C4 1_555 1_555
S1 N1 1_555 1_555
N1 C2 1_555 1_555
N2 S1 1_555 1_555
C1 C2 1_555 1_555
C2 C3 1_555 1_555
C3 N2 1_555 1_555
C4 C3 1_555 1_555
C5 C4 1_555 1_555
C6 C1 1_555 1_555
C7 C6 1_555 1_555
H1 C7 1_555 1_555
H2 C7 1_555 1_555
H3 C7 1_555 1_555
C8 C5 1_555 1_555
H4 C8 1_555 1_555
H5 C8 1_555 1_555
H6 C8 1_555 1_555
I3 C12 1_555 1_555
I4 C9 1_555 1_555
S2 N3 1_555 1_555
N3 C11 1_555 1_555
N4 S2 1_555 1_555
C9 C10 1_555 1_555
C10 N4 1_555 1_555
C11 C10 1_555 1_555
C12 C11 1_555 1_555
C13 C12 1_555 1_555
C14 C9 1_555 1_555
C15 C14 1_555 1_555
H7 C15 1_555 1_555
H8 C15 1_555 1_555
H9 C15 1_555 1_555
C16 C13 1_555 1_555
H10 C16 1_555 1_555
H11 C16 1_555 1_555
H12 C16 1_555 1_555
C5 C6 1_555 1_555
C13 C14 1_555 1_555

#END
