
#######################################################################
#
#                 Cambridge Crystallographic Data Centre
#                                CCDC 
#
#######################################################################
#
# If this CIF has been generated from an entry in the Cambridge 
# Structural Database, then it will include bibliographic, chemical, 
# crystal, experimental, refinement or atomic coordinate data resulting 
# from the CCDC's data processing and validation procedures.
#
#######################################################################

data_JIWYEW
_chemical_formula_moiety         'C42 H54 O6 S2 Se1'
_chemical_name_systematic        
2,3,5,6,8,9-hexabutoxyselenopheno[2',3',4',5':4,5]thieno[2',3',4',5':8,9]triphenyleno[1,12-bcd]thiophene
_symmetry_cell_setting           triclinic
_symmetry_space_group_name_H-M   'P -1'
_symmetry_Int_Tables_number      2
_space_group_name_Hall           '-P 1'
loop_
_symmetry_equiv_pos_site_id
_symmetry_equiv_pos_as_xyz
1 x,y,z
2 -x,-y,-z
_cell_length_a                   14.2625(6)
_cell_length_b                   18.0213(12)
_cell_length_c                   31.3062(19)
_cell_angle_alpha                86.466(5)
_cell_angle_beta                 83.674(5)
_cell_angle_gamma                83.298(5)
_cell_volume                     7933.24
_exptl_crystal_colour            'pale yellow'
_exptl_crystal_description       needle
_chemical_melting_point          '419 K'
_cell_formula_units_Z            8
loop_
_atom_site_label
_atom_site_type_symbol
_atom_site_fract_x
_atom_site_fract_y
_atom_site_fract_z
C1 C 1.2118(6) 0.6779(6) 0.2421(4)
C2 C 1.2128(6) 0.7330(6) 0.2090(4)
C3 C 1.1973(6) 0.8087(6) 0.2151(4)
C4 C 1.1868(6) 0.8316(6) 0.2584(3)
C5 C 1.1839(6) 0.7785(6) 0.2930(4)
C6 C 1.1971(6) 0.7024(5) 0.2852(4)
C7 C 1.2458(7) 0.7063(6) 0.1690(4)
C8 C 1.2613(6) 0.7609(6) 0.1342(4)
C9 C 1.2469(6) 0.8383(6) 0.1419(4)
C10 C 1.2184(6) 0.8641(6) 0.1842(4)
C11 C 1.1946(6) 0.9073(6) 0.2626(3)
C12 C 1.1948(6) 0.9275(6) 0.3049(4)
C13 C 1.1909(6) 0.8745(7) 0.3398(4)
C14 C 1.1906(6) 0.7989(6) 0.3343(3)
C15 C 1.2145(6) 0.6539(6) 0.3191(3)
C16 C 1.2431(6) 0.5786(6) 0.3110(4)
C17 C 1.2554(7) 0.5540(6) 0.2680(4)
C18 C 1.2442(6) 0.6055(5) 0.2317(3)
C19 C 1.2422(8) 0.7554(7) 0.0595(3)
H1 H 1.256099 0.802979 0.045554
H2 H 1.175277 0.759403 0.069983
C20 C 1.2653(15) 0.6931(12) 0.0272(6)
H3 H 1.233487 0.708004 0.001709
H4 H 1.333121 0.687256 0.018629
C21 C 1.2383(14) 0.6260(14) 0.0437(6)
H5 H 1.169858 0.631156 0.050230
H6 H 1.266217 0.613238 0.070395
C22 C 1.2676(10) 0.5616(9) 0.0130(5)
H7 H 1.235478 0.571502 -0.012463
H8 H 1.250708 0.515496 0.027149
H9 H 1.334997 0.557566 0.005234
C23 C 1.2382(7) 0.9617(6) 0.1066(4)
H10 H 1.279221 0.986831 0.122319
H11 H 1.174129 0.969498 0.120795
C24 C 1.2406(8) 0.9930(6) 0.0613(4)
H12 H 1.220851 1.046361 0.061767
H13 H 1.194551 0.970685 0.047070
C25 C 1.3366(8) 0.9810(8) 0.0346(4)
H14 H 1.331270 1.006084 0.006515
H15 H 1.351897 0.927930 0.030345
C26 C 1.4182(11) 1.0090(10) 0.0542(6)
H16 H 1.397325 1.056651 0.066133
H17 H 1.469995 1.014207 0.032243
H18 H 1.438790 0.973843 0.076442
C27 C 1.1168(8) 1.0440(8) 0.3303(5)
H19 H 1.072461 1.052157 0.308710
H20 H 1.088083 1.014909 0.354331
C28 C 1.1326(14) 1.1140(9) 0.3447(9)
H21 H 1.172125 1.104855 0.368200
H22 H 1.071988 1.138978 0.356246
C29 C 1.1764(13) 1.1643(9) 0.3131(9)
H23 H 1.131906 1.188723 0.294010
H24 H 1.231126 1.139458 0.296393
C30 C 1.2066(14) 1.2223(14) 0.3462(8)
H25 H 1.201626 1.200284 0.374934
H26 H 1.165097 1.268160 0.345101
H27 H 1.270877 1.232459 0.337850
C31 C 1.1708(8) 0.8632(7) 0.4171(4)
H28 H 1.221703 0.825334 0.423943
H29 H 1.115567 0.838509 0.413334
C32 C 1.1469(14) 0.9179(12) 0.4539(5)
H30 H 1.090615 0.950966 0.447992
H31 H 1.130854 0.889008 0.480352
C33 C 1.2179(14) 0.9623(13) 0.4611(5)
H32 H 1.196084 0.993729 0.485114
H33 H 1.232330 0.994427 0.435806
C34 C 1.3142(14) 0.9068(14) 0.4719(7)
H34 H 1.297578 0.870559 0.494420
H35 H 1.359802 0.936024 0.480963
H36 H 1.340979 0.881457 0.446524
C35 C 1.1885(9) 0.4799(8) 0.3567(5)
H37 H 1.160881 0.468588 0.331171
H38 H 1.138719 0.506927 0.375220
C36 C 1.2219(18) 0.4068(15) 0.3800(8)
H39 H 1.171426 0.374571 0.384863
H40 H 1.275955 0.380610 0.363530
C37 C 1.246(2) 0.4272(17) 0.4179(10)
H41 H 1.191837 0.449272 0.435873
H42 H 1.294359 0.461663 0.413513
C38 C 1.289(2) 0.3450(16) 0.4382(11)
H43 H 1.290174 0.307916 0.417352
H44 H 1.248939 0.331811 0.463599
H45 H 1.351980 0.347610 0.445441
C39 C 1.2839(7) 0.4462(6) 0.2252(4)
H46 H 1.337504 0.458283 0.205127
H47 H 1.225986 0.464704 0.212553
C40 C 1.2885(8) 0.3627(6) 0.2340(4)
H48 H 1.287271 0.338986 0.207071
H49 H 1.232644 0.351498 0.252739
C41 C 1.3779(9) 0.3291(7) 0.2550(4)
H50 H 1.382051 0.355149 0.280800
H51 H 1.372577 0.276872 0.263374
C42 C 1.4691(8) 0.3350(7) 0.2242(5)
H52 H 1.462040 0.314772 0.197189
H53 H 1.522028 0.307410 0.236597
H54 H 1.480097 0.386587 0.219491
O1 O 1.2986(4) 0.7375(4) 0.0948(2)
O2 O 1.2698(4) 0.8835(4) 0.1063(2)
O3 O 1.2032(4) 1.0017(4) 0.3123(2)
O4 O 1.1987(5) 0.9044(4) 0.3791(2)
O5 O 1.2616(5) 0.5282(4) 0.3439(2)
O6 O 1.2860(4) 0.4804(4) 0.2653(2)
S1 S 1.27116(11) 0.60330(10) 0.17231(6)
S2 S 1.21000(12) 0.95573(11) 0.20989(7)
S3 S 1.20667(12) 0.70898(11) 0.36823(6)
C43 C 0.9643(6) 0.7016(6) 0.2173(4)
C44 C 0.9561(6) 0.7768(6) 0.2026(4)
C45 C 0.9408(6) 0.8334(6) 0.2310(4)
C46 C 0.9319(6) 0.8154(6) 0.2761(3)
C47 C 0.9388(6) 0.7406(6) 0.2907(4)
C48 C 0.9543(6) 0.6846(6) 0.2612(4)
C49 C 0.9848(6) 0.7924(5) 0.1604(3)
C50 C 0.9923(6) 0.8682(6) 0.1455(4)
C51 C 0.9781(6) 0.9248(6) 0.1751(4)
C52 C 0.9514(6) 0.9075(5) 0.2201(3)
C53 C 0.9376(6) 0.8734(6) 0.3030(4)
C54 C 0.9435(6) 0.8533(6) 0.3459(4)
C55 C 0.9507(6) 0.7770(6) 0.3610(4)
C56 C 0.9511(6) 0.7194(6) 0.3335(3)
C57 C 0.9801(6) 0.6138(6) 0.2775(3)
C58 C 1.0128(6) 0.5576(6) 0.2474(4)
C59 C 1.0207(7) 0.5760(6) 0.2029(4)
C60 C 0.9986(6) 0.6503(6) 0.1859(3)
C61 C 0.9580(8) 0.9294(7) 0.0797(4)
H55 H 0.895313 0.931063 0.095413
H56 H 0.975746 0.980003 0.076678
C62 C 0.9551(14) 0.9024(12) 0.0381(5)
H57 H 0.893680 0.883402 0.040627
H58 H 0.947672 0.948059 0.020195
C63 C 1.0036(17) 0.8595(14) 0.0143(6)
H59 H 1.011136 0.813226 0.031724
H60 H 1.065265 0.878049 0.011239
C64 C 0.9944(11) 0.8351(10) -0.0283(5)
H61 H 0.962135 0.790909 -0.025666
H62 H 1.056324 0.824248 -0.043437
H63 H 0.958638 0.874020 -0.043981
C65 C 0.9490(7) 1.0583(6) 0.1807(4)
H64 H 0.975170 1.061106 0.207810
H65 H 0.881706 1.053800 0.186670
C66 C 0.9644(8) 1.1267(6) 0.1527(4)
H66 H 0.922375 1.168463 0.164400
H67 H 0.946989 1.119255 0.124325
C67 C 1.0661(10) 1.1470(8) 0.1482(5)
H68 H 1.109988 1.102147 0.143642
H69 H 1.075660 1.181177 0.123372
C68 C 1.0865(11) 1.1833(11) 0.1883(7)
H70 H 1.032802 1.217595 0.197956
H71 H 1.141316 1.209762 0.181743
H72 H 1.098211 1.145319 0.210596
C69 C 0.8746(8) 0.9209(6) 0.4073(4)
H73 H 0.890540 0.893323 0.433599
H74 H 0.818358 0.902798 0.398726
C70 C 0.8532(15) 1.0056(10) 0.4159(6)
H75 H 0.800227 1.011194 0.438119
H76 H 0.907756 1.020702 0.427587
C71 C 0.8320(17) 1.0556(10) 0.3820(7)
H77 H 0.774326 1.044727 0.371047
H78 H 0.883138 1.050799 0.358812
C72 C 0.8186(14) 1.1373(9) 0.3979(6)
H79 H 0.860603 1.140954 0.419409
H80 H 0.754158 1.149327 0.409872
H81 H 0.832954 1.171691 0.374013
C73 C 0.9479(7) 0.6942(7) 0.4262(4)
H82 H 1.001023 0.657088 0.418556
H83 H 0.890785 0.677356 0.417749
C74 C 0.9373(10) 0.7050(9) 0.4747(4)
H84 H 0.880892 0.739410 0.481674
H85 H 0.927110 0.657341 0.489573
C75 C 1.0153(15) 0.7325(12) 0.4907(6)
H86 H 1.029838 0.777774 0.474206
H87 H 1.070488 0.695695 0.486855
C76 C 0.9953(19) 0.7492(15) 0.5380(7)
H88 H 0.945083 0.789343 0.541539
H89 H 1.051547 0.763317 0.548060
H90 H 0.976704 0.705359 0.554214
C77 C 0.9988(8) 0.4251(6) 0.2502(4)
H91 H 1.033196 0.405508 0.224054
H92 H 0.934237 0.442091 0.244303
C78 C 0.9980(9) 0.3637(7) 0.2856(5)
H93 H 0.977212 0.319584 0.274888
H94 H 1.061871 0.350586 0.293492
C79 C 0.9329(10) 0.3877(8) 0.3248(5)
H95 H 0.956070 0.429470 0.336973
H96 H 0.869691 0.403855 0.316790
C80 C 0.9293(10) 0.3233(9) 0.3577(5)
H97 H 0.917226 0.279437 0.344146
H98 H 0.879414 0.335357 0.380171
H99 H 0.988893 0.313846 0.369683
C81 C 1.0456(7) 0.5265(6) 0.1323(3)
H100 H 1.083277 0.563832 0.117844
H101 H 0.979308 0.541788 0.128810
C82 C 1.0763(7) 0.4515(7) 0.1142(4)
H102 H 1.063213 0.454330 0.084323
H103 H 1.037754 0.415517 0.129495
C83 C 1.1814(9) 0.4219(8) 0.1162(4)
H104 H 1.220151 0.461061 0.105279
H105 H 1.192247 0.410175 0.145990
C84 C 1.2131(10) 0.3529(9) 0.0907(5)
H106 H 1.167246 0.317672 0.096844
H107 H 1.273543 0.330490 0.098673
H108 H 1.218646 0.366792 0.060523
O7 O 1.0243(4) 0.8831(4) 0.1036(2)
O8 O 0.9958(4) 0.9952(4) 0.1582(2)
O9 O 0.9519(4) 0.9080(4) 0.3741(2)
O10 O 0.9642(5) 0.7669(4) 0.4044(2)
O11 O 1.0432(4) 0.4873(4) 0.2626(2)
O12 O 1.0598(4) 0.5183(4) 0.1779(2)
S4 S 1.01702(11) 0.70259(10) 0.13262(6)
S5 S 0.94425(12) 0.96157(11) 0.27051(6)
S6 S 0.97800(12) 0.61331(11) 0.33688(6)
C85 C 0.7116(6) 0.7288(6) 0.2054(3)
C86 C 0.6986(6) 0.8060(6) 0.2124(3)
C87 C 0.6851(6) 0.8285(6) 0.2550(4)
C88 C 0.6846(6) 0.7751(6) 0.2898(4)
C89 C 0.6970(6) 0.6991(6) 0.2824(4)
C90 C 0.7124(6) 0.6760(6) 0.2393(4)
C91 C 0.7219(6) 0.8540(6) 0.1785(4)
C92 C 0.7213(7) 0.9291(6) 0.1890(4)
C93 C 0.7077(6) 0.9541(6) 0.2312(4)
C94 C 0.6910(6) 0.9023(5) 0.2661(3)
C95 C 0.6917(6) 0.8016(6) 0.3303(4)
C96 C 0.7085(6) 0.7465(6) 0.3634(4)
C97 C 0.7207(7) 0.6700(6) 0.3559(4)
C98 C 0.7170(6) 0.6450(6) 0.3141(3)
C99 C 0.7450(6) 0.6029(6) 0.2344(3)
C100 C 0.7742(6) 0.5813(6) 0.1919(4)
C101 C 0.7732(6) 0.6331(6) 0.1572(4)
C102 C 0.7452(6) 0.7116(6) 0.1641(3)
C103 C 0.6704(10) 1.0260(9) 0.1391(5)
H109 H 0.629057 1.048949 0.162530
H110 H 0.633696 0.995874 0.124112
C104 C 0.7097(13) 1.0858(13) 0.1085(8)
H111 H 0.760108 1.105814 0.121041
H112 H 0.736867 1.063534 0.081848
C105 C 0.6369(18) 1.1468(18) 0.0991(13)
H113 H 0.580864 1.128054 0.090751
H114 H 0.618865 1.177843 0.123541
C106 C 0.683(3) 1.186(3) 0.0650(14)
H115 H 0.684459 1.236424 0.072467
H116 H 0.649582 1.185349 0.040054
H117 H 0.746628 1.162314 0.059027
C107 C 0.6775(7) 1.0629(6) 0.2727(4)
H118 H 0.722714 1.052688 0.293868
H119 H 0.618903 1.043232 0.284139
C108 C 0.6595(8) 1.1460(6) 0.2628(4)
H120 H 0.609133 1.154861 0.244025
H121 H 0.636722 1.170024 0.289411
C109 C 0.7434(10) 1.1833(8) 0.2419(5)
H122 H 0.766257 1.159615 0.215121
H123 H 0.722206 1.235262 0.234771
C110 C 0.8197(11) 1.1805(10) 0.2674(6)
H124 H 0.795297 1.185896 0.296970
H125 H 0.857415 1.220437 0.258001
H126 H 0.858276 1.133409 0.264438
C111 C 0.6463(9) 0.7490(7) 0.4384(4)
H127 H 0.663011 0.697899 0.448801
H128 H 0.584060 0.752640 0.428108
C112 C 0.6461(11) 0.8040(10) 0.4748(5)
H129 H 0.709664 0.814606 0.478583
H130 H 0.615494 0.785493 0.501911
C113 C 0.5861(18) 0.8734(15) 0.4553(8)
H131 H 0.609140 0.885707 0.425647
H132 H 0.519151 0.867031 0.457280
C114 C 0.606(3) 0.9287(19) 0.4850(10)
H133 H 0.653403 0.906191 0.502907
H134 H 0.549092 0.944831 0.502760
H135 H 0.629259 0.970984 0.468769
C115 C 0.7310(7) 0.5469(6) 0.3892(4)
H136 H 0.782369 0.522934 0.370120
H137 H 0.671444 0.540751 0.378229
C116 C 0.7329(9) 0.5111(7) 0.4344(4)
H138 H 0.681224 0.535870 0.452939
H139 H 0.722047 0.459109 0.433718
C117 C 0.8250(17) 0.5148(12) 0.4537(7)
H140 H 0.850717 0.557193 0.437871
H141 H 0.803780 0.532002 0.482249
C118 C 0.887(2) 0.4771(18) 0.4587(16)
H142 H 0.903125 0.445963 0.434525
H143 H 0.875220 0.446270 0.484375
H144 H 0.939202 0.505178 0.461597
C119 C 0.7436(10) 0.4591(8) 0.1798(6)
H145 H 0.698937 0.482430 0.160458
H146 H 0.708511 0.450837 0.207752
C120 C 0.7851(13) 0.3878(9) 0.1638(6)
H147 H 0.739420 0.351574 0.169313
H148 H 0.840156 0.369621 0.178663
C121 C 0.8134(14) 0.3960(11) 0.1174(6)
H149 H 0.757284 0.408788 0.102435
H150 H 0.852961 0.436544 0.111778
C122 C 0.8649(13) 0.3281(9) 0.1013(7)
H151 H 0.926776 0.321207 0.111274
H152 H 0.871260 0.331393 0.070410
H153 H 0.831024 0.286352 0.111463
C123 C 0.7821(7) 0.6499(6) 0.0805(3)
H154 H 0.821129 0.690719 0.074545
H155 H 0.716165 0.670845 0.084619
C124 C 0.7975(7) 0.5981(6) 0.0431(3)
H156 H 0.760844 0.556214 0.050472
H157 H 0.773107 0.625056 0.018143
C125 C 0.9004(7) 0.5681(7) 0.0311(4)
H158 H 0.923460 0.539319 0.055831
H159 H 0.902623 0.533956 0.008192
C126 C 0.9665(8) 0.6248(8) 0.0171(4)
H160 H 0.946726 0.652047 -0.008304
H161 H 1.029517 0.600209 0.010886
H162 H 0.965881 0.658740 0.039590
O13 O 0.7477(5) 0.9804(4) 0.1555(3)
O14 O 0.7147(4) 1.0286(4) 0.2333(2)
O15 O 0.7173(4) 0.7710(4) 0.4036(2)
O16 O 0.7410(5) 0.6245(4) 0.3906(2)
O17 O 0.8115(4) 0.5078(4) 0.1838(2)
O18 O 0.8076(4) 0.6073(4) 0.1182(2)
S7 S 0.75333(11) 0.80197(10) 0.13003(6)
S8 S 0.68832(12) 0.90474(11) 0.32584(6)
S9 S 0.75238(12) 0.55294(11) 0.28770(6)
C127 C 0.4565(6) 0.7689(5) 0.2058(3)
C128 C 0.4403(6) 0.8258(6) 0.2346(4)
C129 C 0.4322(6) 0.8108(6) 0.2788(4)
C130 C 0.4381(6) 0.7347(6) 0.2950(4)
C131 C 0.4553(6) 0.6777(6) 0.2657(3)
C132 C 0.4625(6) 0.6947(6) 0.2204(3)
C133 C 0.4551(6) 0.8969(5) 0.2183(3)
C134 C 0.4556(6) 0.9540(6) 0.2482(4)
C135 C 0.4459(6) 0.9371(6) 0.2928(4)
C136 C 0.4368(6) 0.8607(6) 0.3094(3)
C137 C 0.4521(6) 0.7212(6) 0.3371(4)
C138 C 0.4741(6) 0.6464(6) 0.3522(4)
C139 C 0.4907(7) 0.5882(6) 0.3225(4)
C140 C 0.4814(6) 0.6032(6) 0.2786(4)
C141 C 0.4984(6) 0.6357(6) 0.1955(3)
C142 C 0.5210(7) 0.6559(6) 0.1508(4)
C143 C 0.5128(6) 0.7302(6) 0.1357(3)
C144 C 0.4811(6) 0.7916(5) 0.1628(3)
C145 C 0.3992(7) 1.0847(5) 0.2419(4)
H163 H 0.412942 1.108880 0.267005
H164 H 0.338226 1.065345 0.248369
C146 C 0.3970(9) 1.1402(6) 0.2032(4)
H165 H 0.354058 1.183842 0.211629
H166 H 0.459869 1.156233 0.196935
C147 C 0.3684(10) 1.1150(7) 0.1627(5)
H167 H 0.307326 1.095732 0.168578
H168 H 0.414472 1.074688 0.151977
C148 C 0.3619(10) 1.1790(8) 0.1284(5)
H169 H 0.313530 1.217597 0.138301
H170 H 0.346259 1.160666 0.102273
H171 H 0.421815 1.199108 0.123227
C149 C 0.4199(7) 0.9909(6) 0.3614(4)
H172 H 0.461360 0.954612 0.376694
H173 H 0.356717 0.974924 0.364902
C150 C 0.4174(9) 1.0660(7) 0.3790(4)
H174 H 0.385569 1.065051 0.407973
H175 H 0.380235 1.102257 0.361628
C151 C 0.5158(10) 1.0919(8) 0.3800(5)
H176 H 0.552111 1.056580 0.398185
H177 H 0.548579 1.090905 0.351135
C152 C 0.5139(14) 1.1667(12) 0.3957(7)
H178 H 0.474484 1.201673 0.379137
H179 H 0.577156 1.180955 0.392805
H180 H 0.488710 1.166780 0.425407
C153 C 0.4259(9) 0.5870(8) 0.4192(5)
H181 H 0.442799 0.534876 0.412850
H182 H 0.362001 0.601951 0.411580
C154 C 0.4291(12) 0.5963(12) 0.4650(6)
H183 H 0.390606 0.561114 0.481239
H184 H 0.493939 0.583336 0.471694
C155 C 0.399(4) 0.665(2) 0.4784(13)
H185 H 0.456748 0.688998 0.471940
H186 H 0.360440 0.684437 0.455548
C156 C 0.360(2) 0.7026(14) 0.5074(10)
H187 H 0.294418 0.694615 0.512183
H188 H 0.365397 0.754568 0.499956
H189 H 0.390120 0.688316 0.533124
C157 C 0.5020(8) 0.4553(7) 0.3208(4)
H190 H 0.543272 0.448384 0.294253
H191 H 0.436720 0.460689 0.314064
C158 C 0.5191(11) 0.3895(7) 0.3513(5)
H192 H 0.496119 0.346401 0.340462
H193 H 0.483600 0.399704 0.378943
C159 C 0.6231(19) 0.3715(9) 0.3572(8)
H194 H 0.649494 0.418952 0.355344
H195 H 0.626023 0.351717 0.386614
C160 C 0.6705(19) 0.3354(16) 0.3379(18)
H196 H 0.674439 0.355199 0.308611
H197 H 0.648148 0.286972 0.339292
H198 H 0.732128 0.330998 0.347954
C161 C 0.5027(8) 0.5872(7) 0.0901(4)
H199 H 0.518834 0.620006 0.065252
H200 H 0.435500 0.598110 0.099161
C162 C 0.5247(9) 0.5062(7) 0.0784(5)
H201 H 0.502403 0.501285 0.050602
H202 H 0.593072 0.493983 0.075123
C163 C 0.4842(13) 0.4524(9) 0.1085(6)
H203 H 0.415927 0.464965 0.112836
H204 H 0.509045 0.454501 0.135980
C164 C 0.5059(17) 0.3742(9) 0.0931(7)
H205 H 0.476377 0.370727 0.067318
H206 H 0.481923 0.339469 0.114933
H207 H 0.573373 0.362575 0.087279
C165 C 0.5185(7) 0.8104(6) 0.0705(4)
H208 H 0.563875 0.844690 0.074764
H209 H 0.456018 0.831856 0.082085
C166 C 0.5191(8) 0.7992(6) 0.0230(3)
H210 H 0.508189 0.847761 0.008137
H211 H 0.466618 0.771407 0.019000
C167 C 0.6114(8) 0.7575(7) 0.0017(4)
H212 H 0.622795 0.708633 0.016209
H213 H 0.604044 0.750051 -0.028101
C168 C 0.6974(8) 0.8007(7) 0.0036(4)
H214 H 0.686174 0.849224 -0.010493
H215 H 0.752943 0.773679 -0.010571
H216 H 0.706696 0.806119 0.033121
O19 O 0.4733(4) 1.0241(4) 0.2309(2)
O20 O 0.4542(4) 0.9956(4) 0.3167(2)
O21 O 0.4917(5) 0.6327(4) 0.3941(2)
O22 O 0.5207(5) 0.5202(4) 0.3403(2)
O23 O 0.5573(4) 0.5993(4) 0.1243(2)
O24 O 0.5426(4) 0.7406(4) 0.0922(2)
S10 S 0.48146(11) 0.89547(10) 0.15841(6)
S11 S 0.44416(12) 0.81218(11) 0.36329(6)
S12 S 0.51482(12) 0.54920(11) 0.22851(6)
Se1? Se 1.27116(11) 0.60330(10) 0.17231(6)
Se2? Se 1.21000(12) 0.95573(11) 0.20989(7)
Se3? Se 1.20667(12) 0.70898(11) 0.36823(6)
Se4? Se 1.01702(11) 0.70259(10) 0.13262(6)
Se5? Se 0.94425(12) 0.96157(11) 0.27051(6)
Se6? Se 0.97800(12) 0.61331(11) 0.33688(6)
Se7? Se 0.75333(11) 0.80197(10) 0.13003(6)
Se8? Se 0.68832(12) 0.90474(11) 0.32584(6)
Se9? Se 0.75238(12) 0.55294(11) 0.28770(6)
Se10? Se 0.48146(11) 0.89547(10) 0.15841(6)
Se11? Se 0.44416(12) 0.81218(11) 0.36329(6)
Se12? Se 0.51482(12) 0.54920(11) 0.22851(6)
loop_
_geom_bond_atom_site_label_1
_geom_bond_atom_site_label_2
_geom_bond_site_symmetry_1
_geom_bond_site_symmetry_2
C1 C2 1_555 1_555
C2 C3 1_555 1_555
C3 C4 1_555 1_555
C4 C5 1_555 1_555
C5 C6 1_555 1_555
C6 C1 1_555 1_555
C7 C2 1_555 1_555
C8 C7 1_555 1_555
C9 C8 1_555 1_555
C10 C3 1_555 1_555
C11 C4 1_555 1_555
C12 C11 1_555 1_555
C13 C12 1_555 1_555
C14 C5 1_555 1_555
C15 C6 1_555 1_555
C16 C15 1_555 1_555
C17 C16 1_555 1_555
C18 C1 1_555 1_555
C19 H1 1_555 1_555
H2 C19 1_555 1_555
C20 C19 1_555 1_555
H3 C20 1_555 1_555
H4 C20 1_555 1_555
C21 C20 1_555 1_555
H5 C21 1_555 1_555
H6 C21 1_555 1_555
C22 C21 1_555 1_555
H7 C22 1_555 1_555
H8 C22 1_555 1_555
H9 C22 1_555 1_555
C23 H10 1_555 1_555
H11 C23 1_555 1_555
C24 C23 1_555 1_555
H12 C24 1_555 1_555
H13 C24 1_555 1_555
C25 C24 1_555 1_555
H14 C25 1_555 1_555
H15 C25 1_555 1_555
C26 C25 1_555 1_555
H16 C26 1_555 1_555
H17 C26 1_555 1_555
H18 C26 1_555 1_555
C27 H19 1_555 1_555
H20 C27 1_555 1_555
C28 C27 1_555 1_555
H21 C28 1_555 1_555
H22 C28 1_555 1_555
C29 C28 1_555 1_555
H23 C29 1_555 1_555
H24 C29 1_555 1_555
C30 C29 1_555 1_555
H25 C30 1_555 1_555
H26 C30 1_555 1_555
H27 C30 1_555 1_555
C31 H28 1_555 1_555
H29 C31 1_555 1_555
C32 C31 1_555 1_555
H30 C32 1_555 1_555
H31 C32 1_555 1_555
C33 C32 1_555 1_555
H32 C33 1_555 1_555
H33 C33 1_555 1_555
C34 C33 1_555 1_555
H34 C34 1_555 1_555
H35 C34 1_555 1_555
H36 C34 1_555 1_555
C35 H37 1_555 1_555
H38 C35 1_555 1_555
C36 C35 1_555 1_555
H39 C36 1_555 1_555
H40 C36 1_555 1_555
C37 C36 1_555 1_555
H41 C37 1_555 1_555
H42 C37 1_555 1_555
C38 C37 1_555 1_555
H43 C38 1_555 1_555
H44 C38 1_555 1_555
H45 C38 1_555 1_555
C39 H46 1_555 1_555
H47 C39 1_555 1_555
C40 C39 1_555 1_555
H48 C40 1_555 1_555
H49 C40 1_555 1_555
C41 C40 1_555 1_555
H50 C41 1_555 1_555
H51 C41 1_555 1_555
C42 C41 1_555 1_555
H52 C42 1_555 1_555
H53 C42 1_555 1_555
H54 C42 1_555 1_555
O1 C8 1_555 1_555
O2 C9 1_555 1_555
O3 C12 1_555 1_555
O4 C13 1_555 1_555
O5 C16 1_555 1_555
O6 C17 1_555 1_555
S1 C7 1_555 1_555
S2 C10 1_555 1_555
S3 C14 1_555 1_555
C43 C44 1_555 1_555
C44 C45 1_555 1_555
C45 C46 1_555 1_555
C46 C47 1_555 1_555
C47 C48 1_555 1_555
C48 C43 1_555 1_555
C49 C44 1_555 1_555
C50 C49 1_555 1_555
C51 C50 1_555 1_555
C52 C45 1_555 1_555
C53 C46 1_555 1_555
C54 C53 1_555 1_555
C55 C54 1_555 1_555
C56 C47 1_555 1_555
C57 C48 1_555 1_555
C58 C57 1_555 1_555
C59 C58 1_555 1_555
C60 C43 1_555 1_555
C61 H55 1_555 1_555
H56 C61 1_555 1_555
C62 C61 1_555 1_555
H57 C62 1_555 1_555
H58 C62 1_555 1_555
C63 C62 1_555 1_555
H59 C63 1_555 1_555
H60 C63 1_555 1_555
C64 C63 1_555 1_555
H61 C64 1_555 1_555
H62 C64 1_555 1_555
H63 C64 1_555 1_555
C65 H64 1_555 1_555
H65 C65 1_555 1_555
C66 C65 1_555 1_555
H66 C66 1_555 1_555
H67 C66 1_555 1_555
C67 C66 1_555 1_555
H68 C67 1_555 1_555
H69 C67 1_555 1_555
C68 C67 1_555 1_555
H70 C68 1_555 1_555
H71 C68 1_555 1_555
H72 C68 1_555 1_555
C69 H73 1_555 1_555
H74 C69 1_555 1_555
C70 C69 1_555 1_555
H75 C70 1_555 1_555
H76 C70 1_555 1_555
C71 C70 1_555 1_555
H77 C71 1_555 1_555
H78 C71 1_555 1_555
C72 C71 1_555 1_555
H79 C72 1_555 1_555
H80 C72 1_555 1_555
H81 C72 1_555 1_555
C73 H82 1_555 1_555
H83 C73 1_555 1_555
C74 C73 1_555 1_555
H84 C74 1_555 1_555
H85 C74 1_555 1_555
C75 C74 1_555 1_555
H86 C75 1_555 1_555
H87 C75 1_555 1_555
C76 C75 1_555 1_555
H88 C76 1_555 1_555
H89 C76 1_555 1_555
H90 C76 1_555 1_555
C77 H91 1_555 1_555
H92 C77 1_555 1_555
C78 C77 1_555 1_555
H93 C78 1_555 1_555
H94 C78 1_555 1_555
C79 C78 1_555 1_555
H95 C79 1_555 1_555
H96 C79 1_555 1_555
C80 C79 1_555 1_555
H97 C80 1_555 1_555
H98 C80 1_555 1_555
H99 C80 1_555 1_555
C81 H100 1_555 1_555
H101 C81 1_555 1_555
C82 C81 1_555 1_555
H102 C82 1_555 1_555
H103 C82 1_555 1_555
C83 C82 1_555 1_555
H104 C83 1_555 1_555
H105 C83 1_555 1_555
C84 C83 1_555 1_555
H106 C84 1_555 1_555
H107 C84 1_555 1_555
H108 C84 1_555 1_555
O7 C50 1_555 1_555
O8 C51 1_555 1_555
O9 C54 1_555 1_555
O10 C55 1_555 1_555
O11 C58 1_555 1_555
O12 C59 1_555 1_555
S4 C49 1_555 1_555
S5 C52 1_555 1_555
S6 C56 1_555 1_555
C85 C86 1_555 1_555
C86 C87 1_555 1_555
C87 C88 1_555 1_555
C88 C89 1_555 1_555
C89 C90 1_555 1_555
C90 C85 1_555 1_555
C91 C86 1_555 1_555
C92 C91 1_555 1_555
C93 C92 1_555 1_555
C94 C87 1_555 1_555
C95 C88 1_555 1_555
C96 C95 1_555 1_555
C97 C96 1_555 1_555
C98 C89 1_555 1_555
C99 C90 1_555 1_555
C100 C99 1_555 1_555
C101 C100 1_555 1_555
C102 C85 1_555 1_555
C103 H109 1_555 1_555
H110 C103 1_555 1_555
C104 C103 1_555 1_555
H111 C104 1_555 1_555
H112 C104 1_555 1_555
C105 C104 1_555 1_555
H113 C105 1_555 1_555
H114 C105 1_555 1_555
C106 C105 1_555 1_555
H115 C106 1_555 1_555
H116 C106 1_555 1_555
H117 C106 1_555 1_555
C107 H118 1_555 1_555
H119 C107 1_555 1_555
C108 C107 1_555 1_555
H120 C108 1_555 1_555
H121 C108 1_555 1_555
C109 C108 1_555 1_555
H122 C109 1_555 1_555
H123 C109 1_555 1_555
C110 C109 1_555 1_555
H124 C110 1_555 1_555
H125 C110 1_555 1_555
H126 C110 1_555 1_555
C111 H127 1_555 1_555
H128 C111 1_555 1_555
C112 C111 1_555 1_555
H129 C112 1_555 1_555
H130 C112 1_555 1_555
C113 C112 1_555 1_555
H131 C113 1_555 1_555
H132 C113 1_555 1_555
C114 C113 1_555 1_555
H133 C114 1_555 1_555
H134 C114 1_555 1_555
H135 C114 1_555 1_555
C115 H136 1_555 1_555
H137 C115 1_555 1_555
C116 C115 1_555 1_555
H138 C116 1_555 1_555
H139 C116 1_555 1_555
C117 C116 1_555 1_555
H140 C117 1_555 1_555
H141 C117 1_555 1_555
C118 C117 1_555 1_555
H142 C118 1_555 1_555
H143 C118 1_555 1_555
H144 C118 1_555 1_555
C119 H145 1_555 1_555
H146 C119 1_555 1_555
C120 C119 1_555 1_555
H147 C120 1_555 1_555
H148 C120 1_555 1_555
C121 C120 1_555 1_555
H149 C121 1_555 1_555
H150 C121 1_555 1_555
C122 C121 1_555 1_555
H151 C122 1_555 1_555
H152 C122 1_555 1_555
H153 C122 1_555 1_555
C123 H154 1_555 1_555
H155 C123 1_555 1_555
C124 C123 1_555 1_555
H156 C124 1_555 1_555
H157 C124 1_555 1_555
C125 C124 1_555 1_555
H158 C125 1_555 1_555
H159 C125 1_555 1_555
C126 C125 1_555 1_555
H160 C126 1_555 1_555
H161 C126 1_555 1_555
H162 C126 1_555 1_555
O13 C92 1_555 1_555
O14 C93 1_555 1_555
O15 C96 1_555 1_555
O16 C97 1_555 1_555
O17 C100 1_555 1_555
O18 C101 1_555 1_555
S7 C91 1_555 1_555
S8 C94 1_555 1_555
S9 C98 1_555 1_555
C127 C128 1_555 1_555
C128 C129 1_555 1_555
C129 C130 1_555 1_555
C130 C131 1_555 1_555
C131 C132 1_555 1_555
C132 C127 1_555 1_555
C133 C128 1_555 1_555
C134 C133 1_555 1_555
C135 C134 1_555 1_555
C136 C129 1_555 1_555
C137 C130 1_555 1_555
C138 C137 1_555 1_555
C139 C138 1_555 1_555
C140 C131 1_555 1_555
C141 C132 1_555 1_555
C142 C141 1_555 1_555
C143 C142 1_555 1_555
C144 C127 1_555 1_555
C145 H163 1_555 1_555
H164 C145 1_555 1_555
C146 C145 1_555 1_555
H165 C146 1_555 1_555
H166 C146 1_555 1_555
C147 C146 1_555 1_555
H167 C147 1_555 1_555
H168 C147 1_555 1_555
C148 C147 1_555 1_555
H169 C148 1_555 1_555
H170 C148 1_555 1_555
H171 C148 1_555 1_555
C149 H172 1_555 1_555
H173 C149 1_555 1_555
C150 C149 1_555 1_555
H174 C150 1_555 1_555
H175 C150 1_555 1_555
C151 C150 1_555 1_555
H176 C151 1_555 1_555
H177 C151 1_555 1_555
C152 C151 1_555 1_555
H178 C152 1_555 1_555
H179 C152 1_555 1_555
H180 C152 1_555 1_555
C153 H181 1_555 1_555
H182 C153 1_555 1_555
C154 C153 1_555 1_555
H183 C154 1_555 1_555
H184 C154 1_555 1_555
C155 C154 1_555 1_555
H185 C155 1_555 1_555
H186 C155 1_555 1_555
C156 C155 1_555 1_555
H187 C156 1_555 1_555
H188 C156 1_555 1_555
H189 C156 1_555 1_555
C157 H190 1_555 1_555
H191 C157 1_555 1_555
C158 C157 1_555 1_555
H192 C158 1_555 1_555
H193 C158 1_555 1_555
C159 C158 1_555 1_555
H194 C159 1_555 1_555
H195 C159 1_555 1_555
C160 C159 1_555 1_555
H196 C160 1_555 1_555
H197 C160 1_555 1_555
H198 C160 1_555 1_555
C161 H199 1_555 1_555
H200 C161 1_555 1_555
C162 C161 1_555 1_555
H201 C162 1_555 1_555
H202 C162 1_555 1_555
C163 C162 1_555 1_555
H203 C163 1_555 1_555
H204 C163 1_555 1_555
C164 C163 1_555 1_555
H205 C164 1_555 1_555
H206 C164 1_555 1_555
H207 C164 1_555 1_555
C165 H208 1_555 1_555
H209 C165 1_555 1_555
C166 C165 1_555 1_555
H210 C166 1_555 1_555
H211 C166 1_555 1_555
C167 C166 1_555 1_555
H212 C167 1_555 1_555
H213 C167 1_555 1_555
C168 C167 1_555 1_555
H214 C168 1_555 1_555
H215 C168 1_555 1_555
H216 C168 1_555 1_555
O19 C134 1_555 1_555
O20 C135 1_555 1_555
O21 C138 1_555 1_555
O22 C139 1_555 1_555
O23 C142 1_555 1_555
O24 C143 1_555 1_555
S10 C133 1_555 1_555
S11 C136 1_555 1_555
S12 C140 1_555 1_555
C9 C10 1_555 1_555
C11 S2 1_555 1_555
C13 C14 1_555 1_555
C15 S3 1_555 1_555
C17 C18 1_555 1_555
C18 S1 1_555 1_555
C19 O1 1_555 1_555
C23 O2 1_555 1_555
C27 O3 1_555 1_555
C31 O4 1_555 1_555
C35 O5 1_555 1_555
C39 O6 1_555 1_555
C51 C52 1_555 1_555
C53 S5 1_555 1_555
C55 C56 1_555 1_555
C57 S6 1_555 1_555
C59 C60 1_555 1_555
C60 S4 1_555 1_555
C61 O7 1_555 1_555
C65 O8 1_555 1_555
C69 O9 1_555 1_555
C73 O10 1_555 1_555
C77 O11 1_555 1_555
C81 O12 1_555 1_555
C93 C94 1_555 1_555
C95 S8 1_555 1_555
C97 C98 1_555 1_555
C99 S9 1_555 1_555
C101 C102 1_555 1_555
C102 S7 1_555 1_555
C103 O13 1_555 1_555
C107 O14 1_555 1_555
C111 O15 1_555 1_555
C115 O16 1_555 1_555
C119 O17 1_555 1_555
C123 O18 1_555 1_555
C135 C136 1_555 1_555
C137 S11 1_555 1_555
C139 C140 1_555 1_555
C141 S12 1_555 1_555
C143 C144 1_555 1_555
C144 S10 1_555 1_555
C145 O19 1_555 1_555
C149 O20 1_555 1_555
C153 O21 1_555 1_555
C157 O22 1_555 1_555
C161 O23 1_555 1_555
C165 O24 1_555 1_555

#END
