
#######################################################################
#
#                 Cambridge Crystallographic Data Centre
#                                CCDC 
#
#######################################################################
#
# If this CIF has been generated from an entry in the Cambridge 
# Structural Database, then it will include bibliographic, chemical, 
# crystal, experimental, refinement or atomic coordinate data resulting 
# from the CCDC's data processing and validation procedures.
#
#######################################################################

data_JIWYIA
_chemical_formula_moiety         'C42 H54 O6 S1 Se2'
_chemical_name_systematic        
2,3,5,6,8,9-hexabutoxybisselenopheno[2',3',4',5':4,5;2'',3'',4'',5'':8,9]triphenyleno[1,12-bcd]thiophene
_symmetry_cell_setting           triclinic
_symmetry_space_group_name_H-M   'P -1'
_symmetry_Int_Tables_number      2
_space_group_name_Hall           '-P 1'
loop_
_symmetry_equiv_pos_site_id
_symmetry_equiv_pos_as_xyz
1 x,y,z
2 -x,-y,-z
_cell_length_a                   14.2879(4)
_cell_length_b                   18.0394(7)
_cell_length_c                   31.4094(8)
_cell_angle_alpha                86.414(2)
_cell_angle_beta                 83.365(2)
_cell_angle_gamma                83.373(2)
_cell_volume                     7977.73
_exptl_crystal_colour            'pale yellow'
_exptl_crystal_description       needle
_chemical_melting_point          '376 K'
_cell_formula_units_Z            8
loop_
_atom_site_label
_atom_site_type_symbol
_atom_site_fract_x
_atom_site_fract_y
_atom_site_fract_z
C1 C 0.0503(3) 0.6725(3) 0.26551(17)
C2 C 0.0350(3) 0.7302(3) 0.29507(17)
C3 C 0.0291(3) 0.8037(3) 0.27957(17)
C4 C 0.0375(3) 0.8224(3) 0.23527(17)
C5 C 0.0533(3) 0.7643(3) 0.20648(17)
C6 C 0.0595(3) 0.6898(3) 0.22180(17)
C7 C 0.0124(3) 0.7096(3) 0.33826(17)
C8 C -0.0178(3) 0.7684(3) 0.36534(17)
C9 C -0.0241(3) 0.8438(3) 0.34958(18)
C10 C -0.0028(3) 0.8626(3) 0.30570(17)
C11 C 0.0144(3) 0.8952(3) 0.22173(17)
C12 C 0.0069(4) 0.9120(4) 0.17796(19)
C13 C 0.0235(4) 0.8526(4) 0.14800(18)
C14 C 0.0442(3) 0.7791(3) 0.16304(17)
C15 C 0.0586(3) 0.6363(3) 0.19156(16)
C16 C 0.0509(3) 0.5623(3) 0.20852(18)
C17 C 0.0416(3) 0.5441(3) 0.25333(18)
C18 C 0.0393(3) 0.6010(3) 0.28255(17)
C19 C -0.0195(4) 0.6902(4) 0.43066(18)
H1 H 0.043114 0.669406 0.418962
H2 H -0.064160 0.655150 0.426831
C20 C -0.0201(4) 0.7023(4) 0.47746(19)
H3 H 0.031520 0.731150 0.480958
H4 H -0.007907 0.654139 0.492463
C21 C -0.1126(4) 0.7426(4) 0.4987(2)
H5 H -0.104471 0.750751 0.528259
H6 H -0.124244 0.791231 0.484124
C22 C -0.1975(5) 0.7016(4) 0.4983(2)
H7 H -0.211611 0.699459 0.469307
H8 H -0.250687 0.727147 0.514960
H9 H -0.184639 0.651750 0.510437
C23 C -0.0050(4) 0.9124(4) 0.4108(2)
H10 H 0.062006 0.900563 0.401662
H11 H -0.022051 0.880138 0.435685
C24 C -0.0248(6) 0.9923(5) 0.4219(3)
H12 H -0.092931 1.005233 0.425355
H13 H -0.002325 0.997100 0.449528
C25 C 0.0155(9) 1.0445(6) 0.3925(4)
H14 H -0.010576 1.043131 0.365395
H15 H 0.083286 1.030354 0.387467
C26 C -0.0023(11) 1.1252(7) 0.4078(5)
H16 H -0.068113 1.143162 0.407438
H17 H 0.035539 1.156840 0.389009
H18 H 0.014692 1.125686 0.436465
C27 C 0.0008(5) 1.0441(4) 0.1793(2)
H19 H 0.066197 1.037998 0.185709
H20 H -0.039920 1.050615 0.206066
C28 C -0.0157(6) 1.1104(4) 0.1497(3)
H21 H 0.023493 1.101852 0.122774
H22 H 0.004442 1.153242 0.161915
C29 C -0.1185(11) 1.1288(6) 0.1407(5)
H23 H -0.118804 1.154646 0.112663
H24 H -0.144969 1.082084 0.138904
C30 C -0.1670(11) 1.1636(11) 0.1643(13)
H25 H -0.170878 1.215064 0.154180
H26 H -0.142655 1.158356 0.191643
H27 H -0.229023 1.146998 0.167089
C31 C 0.0753(5) 0.9129(4) 0.0808(2)
H28 H 0.138610 0.900403 0.089263
H29 H 0.055859 0.965280 0.085651
C32 C 0.0749(8) 0.8990(8) 0.0354(3)
H30 H 0.010040 0.909817 0.028612
H31 H 0.111299 0.935180 0.018809
C33 C 0.1084(19) 0.8300(11) 0.0206(6)
H32 H 0.160173 0.814514 0.037769
H33 H 0.058516 0.799824 0.032112
C34 C 0.1375(16) 0.8013(11) -0.0142(6)
H34 H 0.090453 0.812626 -0.033793
H35 H 0.149537 0.748114 -0.009552
H36 H 0.195070 0.821056 -0.026052
C35 C 0.0809(4) 0.5073(4) 0.14008(18)
H37 H 0.143968 0.523288 0.137004
H38 H 0.040280 0.543367 0.124382
C36 C 0.0841(5) 0.4308(4) 0.1227(2)
H39 H 0.119550 0.394721 0.140594
H40 H 0.117746 0.431017 0.094020
C37 C -0.0139(6) 0.4058(5) 0.1208(3)
H41 H -0.048480 0.407628 0.149198
H42 H -0.048377 0.440846 0.101917
C38 C -0.0115(9) 0.3302(6) 0.1055(4)
H43 H 0.014909 0.329482 0.075951
H44 H -0.074673 0.315988 0.108061
H45 H 0.027017 0.295589 0.122433
C39 C 0.0999(4) 0.4157(3) 0.2592(2)
H46 H 0.160221 0.436118 0.253403
H47 H 0.088174 0.391940 0.233743
C40 C 0.1027(5) 0.3588(4) 0.2970(2)
H48 H 0.040853 0.340696 0.302774
H49 H 0.147980 0.316536 0.288565
C41 C 0.1279(6) 0.3857(5) 0.3373(3)
H50 H 0.079556 0.424580 0.347670
H51 H 0.187513 0.407177 0.331543
C42 C 0.1368(7) 0.3229(5) 0.3716(3)
H52 H 0.077540 0.302112 0.377714
H53 H 0.153283 0.342148 0.397230
H54 H 0.185373 0.284658 0.361564
O1 O -0.0453(2) 0.7599(2) 0.40870(12)
O2 O -0.0602(2) 0.9012(2) 0.37665(12)
O3 O -0.0193(3) 0.9797(2) 0.15936(13)
O4 O 0.0099(3) 0.8669(2) 0.10589(12)
O5 O 0.0447(2) 0.5027(2) 0.18416(12)
O6 O 0.0256(2) 0.4743(2) 0.26955(12)
Se1 Se 0.01434(5) 0.60287(4) 0.34317(2)
Se2 Se -0.01796(5) 0.95257(4) 0.27205(2)
Se3 Se 0.05440(5) 0.68657(4) 0.13641(2)
C43 C 0.2792(3) 0.7669(3) 0.29221(17)
C44 C 0.2806(3) 0.8211(3) 0.25767(17)
C45 C 0.2941(3) 0.7974(3) 0.21573(18)
C46 C 0.3077(3) 0.7208(3) 0.20804(18)
C47 C 0.3059(3) 0.6689(3) 0.24210(18)
C48 C 0.2924(3) 0.6914(3) 0.28512(17)
C49 C 0.2524(3) 0.8953(3) 0.26728(17)
C50 C 0.2408(3) 0.9464(3) 0.23197(18)
C51 C 0.2560(4) 0.9233(3) 0.18839(19)
C52 C 0.2802(3) 0.8469(3) 0.18082(17)
C53 C 0.3071(3) 0.7019(3) 0.16575(17)
C54 C 0.3063(4) 0.6247(4) 0.15966(19)
C55 C 0.3040(4) 0.5715(3) 0.1947(2)
C56 C 0.3020(3) 0.5931(3) 0.23688(18)
C57 C 0.2765(3) 0.6366(3) 0.31700(17)
C58 C 0.2484(3) 0.6622(3) 0.35850(18)
C59 C 0.2343(3) 0.7392(3) 0.36611(17)
C60 C 0.2482(3) 0.7930(3) 0.33250(18)
C61 C 0.2188(4) 1.0551(3) 0.2735(2)
H55 H 0.278464 1.037875 0.284689
H56 H 0.167465 1.042040 0.294636
C62 C 0.2110(5) 1.1383(4) 0.2643(2)
H57 H 0.265540 1.150086 0.244781
H58 H 0.213913 1.162207 0.290916
C63 C 0.1216(5) 1.1719(4) 0.2451(2)
H59 H 0.126956 1.224175 0.237082
H60 H 0.116615 1.146654 0.219243
C64 C 0.0322(6) 1.1658(5) 0.2756(3)
H61 H 0.021720 1.114239 0.280588
H62 H -0.020835 1.192816 0.263218
H63 H 0.039009 1.186612 0.302346
C65 C 0.3105(5) 1.0243(5) 0.1447(3)
H64 H 0.367047 0.997141 0.130728
H65 H 0.326874 1.042331 0.171079
C66 C 0.2813(11) 1.0874(9) 0.1172(4)
H66 H 0.230834 1.117828 0.133525
H67 H 0.334287 1.116939 0.111301
C67 C 0.2502(13) 1.0760(11) 0.0785(4)
H68 H 0.201162 1.042504 0.082379
H69 H 0.302112 1.054930 0.058712
C68 C 0.2092(12) 1.1571(10) 0.0612(6)
H70 H 0.144098 1.167491 0.072726
H71 H 0.213349 1.158592 0.030408
H72 H 0.245439 1.193974 0.069940
C69 C 0.3319(5) 0.6362(4) 0.08271(19)
H73 H 0.387476 0.660257 0.086471
H74 H 0.281770 0.674573 0.075782
C70 C 0.3547(6) 0.5822(5) 0.0468(2)
H75 H 0.370088 0.610862 0.020274
H76 H 0.411099 0.549465 0.052499
C71 C 0.2822(7) 0.5366(6) 0.0403(3)
H77 H 0.264793 0.507659 0.066479
H78 H 0.305345 0.502234 0.017906
C72 C 0.1896(9) 0.5912(9) 0.0263(4)
H79 H 0.169722 0.627300 0.047651
H80 H 0.138797 0.561735 0.023905
H81 H 0.205984 0.616636 -0.000852
C73 C 0.3827(4) 0.4566(4) 0.1681(2)
H82 H 0.406567 0.485210 0.142824
H83 H 0.430245 0.452174 0.188125
C74 C 0.3712(10) 0.3889(6) 0.1570(6)
H84 H 0.433941 0.364576 0.148074
H85 H 0.337900 0.395633 0.131532
C75 C 0.3224(7) 0.3345(5) 0.1863(4)
H86 H 0.265291 0.358344 0.201815
H87 H 0.363599 0.310123 0.206596
C76 C 0.2993(9) 0.2799(9) 0.1552(5)
H88 H 0.278245 0.306978 0.130119
H89 H 0.250012 0.251721 0.168759
H90 H 0.354881 0.246545 0.147073
C77 C 0.2620(4) 0.5400(3) 0.39415(19)
H91 H 0.326514 0.533856 0.380290
H92 H 0.223025 0.513783 0.378140
C78 C 0.2592(4) 0.5080(4) 0.4392(2)
H93 H 0.305693 0.529670 0.453387
H94 H 0.278120 0.454688 0.438512
C79 C 0.1636(5) 0.5206(5) 0.4659(2)
H95 H 0.168647 0.497035 0.494325
H96 H 0.147174 0.573799 0.469187
C80 C 0.0851(9) 0.4898(8) 0.4464(4)
H97 H 0.077829 0.514474 0.418765
H98 H 0.026803 0.498392 0.464781
H99 H 0.100753 0.437154 0.443134
C81 C 0.2564(5) 0.7445(4) 0.44058(19)
H100 H 0.322933 0.740050 0.429463
H101 H 0.242100 0.697238 0.454834
C82 C 0.2343(7) 0.8075(6) 0.4721(3)
H102 H 0.166604 0.813898 0.480808
H103 H 0.265908 0.793006 0.497526
C83 C 0.2629(7) 0.8766(6) 0.4547(3)
H104 H 0.233512 0.890482 0.428629
H105 H 0.331114 0.871269 0.447335
C84 C 0.2349(6) 0.9397(5) 0.4871(3)
H106 H 0.167074 0.949780 0.491499
H107 H 0.261680 0.984239 0.475837
H108 H 0.258569 0.923959 0.514007
O7 O 0.2137(3) 1.0214(2) 0.23416(13)
O8 O 0.2395(3) 0.9739(2) 0.15531(13)
O9 O 0.3023(3) 0.5949(2) 0.12096(12)
O10 O 0.2971(3) 0.4972(2) 0.18767(13)
O11 O 0.2275(2) 0.6176(2) 0.39449(12)
O12 O 0.1979(2) 0.7639(2) 0.40618(12)
Se4 Se 0.22477(5) 0.89864(4) 0.32844(2)
Se5 Se 0.29222(5) 0.79194(5) 0.13080(2)
Se6 Se 0.28671(5) 0.54265(4) 0.29082(2)
C85 C 0.5373(3) 0.8155(3) 0.23905(16)
C86 C 0.5535(3) 0.7587(3) 0.20915(16)
C87 C 0.5601(3) 0.6846(3) 0.22376(16)
C88 C 0.5514(3) 0.6645(3) 0.26813(17)
C89 C 0.5349(3) 0.7219(3) 0.29670(17)
C90 C 0.5294(3) 0.7963(3) 0.28290(17)
C91 C 0.5452(3) 0.7818(3) 0.16633(17)
C92 C 0.5481(3) 0.7230(3) 0.13840(17)
C93 C 0.5545(3) 0.6460(3) 0.15357(17)
C94 C 0.5586(3) 0.6272(3) 0.19690(17)
C95 C 0.5427(3) 0.5906(3) 0.28064(17)
C96 C 0.5188(3) 0.5743(3) 0.32438(18)
C97 C 0.5025(3) 0.6327(3) 0.35435(17)
C98 C 0.5085(3) 0.7063(3) 0.34030(16)
C99 C 0.4964(3) 0.8495(3) 0.31339(17)
C100 C 0.4748(4) 0.9236(3) 0.29751(18)
C101 C 0.4847(4) 0.9435(3) 0.25265(17)
C102 C 0.5143(3) 0.8879(3) 0.22287(16)
C103 C 0.5547(4) 0.8032(4) 0.07363(18)
H109 H 0.610509 0.820912 0.082707
H110 H 0.500798 0.839906 0.080556
C104 C 0.5688(6) 0.7925(5) 0.0263(2)
H111 H 0.582426 0.839510 0.011467
H112 H 0.623669 0.756392 0.020045
C105 C 0.4872(8) 0.7669(7) 0.0090(3)
H113 H 0.433263 0.804664 0.012893
H114 H 0.470441 0.721559 0.024816
C106 C 0.5088(12) 0.7520(9) -0.0381(3)
H115 H 0.512956 0.798432 -0.054430
H116 H 0.459195 0.726933 -0.047021
H117 H 0.568030 0.720975 -0.042639
C107 C 0.6267(5) 0.5799(4) 0.0920(2)
H118 H 0.679817 0.604656 0.098388
H119 H 0.607210 0.600905 0.064776
C108 C 0.6547(10) 0.5004(6) 0.0892(4)
H120 H 0.640371 0.493478 0.060328
H121 H 0.723144 0.499777 0.086315
C109 C 0.6476(14) 0.4442(8) 0.1036(7)
H122 H 0.579844 0.442815 0.104026
H123 H 0.656163 0.452057 0.133160
C110 C 0.6807(8) 0.3644(6) 0.1015(4)
H124 H 0.631396 0.338371 0.093102
H125 H 0.696941 0.344879 0.129121
H126 H 0.735565 0.357756 0.080760
C111 C 0.5500(4) 0.4413(3) 0.3203(2)
H127 H 0.617392 0.445647 0.314826
H128 H 0.525501 0.438395 0.292961
C112 C 0.5339(5) 0.3728(4) 0.3476(2)
H129 H 0.551994 0.379374 0.375812
H130 H 0.575561 0.331299 0.335428
C113 C 0.4336(6) 0.3520(5) 0.3528(3)
H131 H 0.425623 0.316865 0.377255
H132 H 0.389834 0.396428 0.358577
C114 C 0.4097(7) 0.3177(7) 0.3134(4)
H133 H 0.425767 0.349310 0.288472
H134 H 0.343139 0.312589 0.316103
H135 H 0.445124 0.269393 0.310415
C115 C 0.5409(5) 0.5686(4) 0.42013(19)
H136 H 0.602916 0.565279 0.403687
H137 H 0.521458 0.518605 0.424252
C116 C 0.5467(8) 0.5978(7) 0.4613(3)
H138 H 0.562182 0.553262 0.479130
H139 H 0.604473 0.622092 0.456585
C117 C 0.4945(10) 0.6389(9) 0.4864(4)
H140 H 0.435346 0.616538 0.490077
H141 H 0.481969 0.684901 0.469284
C118 C 0.5022(8) 0.6641(6) 0.5283(3)
H142 H 0.540301 0.626690 0.543762
H143 H 0.440194 0.672546 0.543681
H144 H 0.531382 0.709741 0.525421
C119 C 0.4528(4) 0.9752(4) 0.36683(19)
H145 H 0.518935 0.959885 0.370280
H146 H 0.415162 0.937659 0.381181
C120 C 0.4219(5) 1.0500(4) 0.3858(2)
H147 H 0.460373 1.086394 0.370654
H148 H 0.435122 1.046486 0.415465
C121 C 0.3190(5) 1.0790(5) 0.3843(2)
H149 H 0.307730 1.089839 0.354543
H150 H 0.280415 1.039988 0.395701
C122 C 0.2877(7) 1.1477(5) 0.4087(3)
H151 H 0.292182 1.136204 0.438737
H152 H 0.223201 1.165012 0.404460
H153 H 0.327572 1.185913 0.398704
C123 C 0.5038(5) 1.0739(4) 0.2510(2)
H154 H 0.568023 1.055404 0.256388
H155 H 0.470077 1.093453 0.277253
C124 C 0.5047(5) 1.1349(4) 0.2150(2)
H156 H 0.440557 1.147534 0.207537
H157 H 0.524806 1.179233 0.225547
C125 C 0.5674(6) 1.1136(5) 0.1759(3)
H158 H 0.545357 1.071042 0.164172
H159 H 0.631129 1.098659 0.183340
C126 C 0.5696(7) 1.1772(6) 0.1422(3)
H160 H 0.506579 1.192212 0.134856
H161 H 0.609737 1.161069 0.117085
H162 H 0.593883 1.218639 0.153299
O13 O 0.5386(3) 0.7328(2) 0.09508(12)
O14 O 0.5489(3) 0.5913(2) 0.12556(12)
O15 O 0.5030(2) 0.5050(2) 0.34177(12)
O16 O 0.4741(2) 0.6156(2) 0.39671(11)
O17 O 0.4395(2) 0.9832(2) 0.32226(12)
O18 O 0.4563(3) 1.0145(2) 0.23688(13)
Se7 Se 0.52041(5) 0.88801(4) 0.16227(2)
Se8 Se 0.55347(5) 0.53640(4) 0.22929(2)
Se9 Se 0.47899(5) 0.79777(4) 0.36817(2)
C127 C 0.8078(3) 0.7247(3) 0.21064(17)
C128 C 0.8076(3) 0.6706(3) 0.24476(17)
C129 C 0.7924(3) 0.6932(3) 0.28640(17)
C130 C 0.7797(3) 0.7700(3) 0.29440(17)
C131 C 0.7801(3) 0.8228(3) 0.26059(16)
C132 C 0.7949(3) 0.8005(3) 0.21783(17)
C133 C 0.8045(3) 0.5968(3) 0.23485(17)
C134 C 0.7891(3) 0.5452(3) 0.26947(19)
C135 C 0.7734(4) 0.5685(3) 0.31239(18)
C136 C 0.7735(3) 0.6437(3) 0.32072(17)
C137 C 0.7492(3) 0.7887(3) 0.33698(16)
C138 C 0.7218(3) 0.8655(3) 0.34361(18)
C139 C 0.7222(4) 0.9192(3) 0.30821(18)
C140 C 0.7495(3) 0.8971(3) 0.26674(17)
C141 C 0.7779(3) 0.8546(3) 0.18598(17)
C142 C 0.7772(4) 0.8307(3) 0.14456(18)
C143 C 0.7912(4) 0.7522(4) 0.13666(18)
C144 C 0.8040(3) 0.6989(3) 0.17019(17)
C145 C 0.8226(4) 0.4362(3) 0.22732(19)
H163 H 0.881319 0.456068 0.216157
H164 H 0.778201 0.446108 0.205968
C146 C 0.8403(5) 0.3531(4) 0.2379(2)
H165 H 0.865464 0.328653 0.211657
H166 H 0.888747 0.344800 0.257411
C147 C 0.7558(6) 0.3165(5) 0.2575(3)
H167 H 0.776588 0.264724 0.265089
H168 H 0.731306 0.340507 0.283868
C148 C 0.6813(7) 0.3178(7) 0.2320(4)
H169 H 0.659164 0.368709 0.224385
H170 H 0.630351 0.293952 0.247654
H171 H 0.703344 0.291814 0.206336
C149 C 0.8289(5) 0.4679(5) 0.3590(3)
H172 H 0.869603 0.495660 0.373159
H173 H 0.866190 0.445062 0.334459
C150 C 0.7901(9) 0.4093(10) 0.3892(6)
H174 H 0.745194 0.385238 0.375443
H175 H 0.756190 0.432831 0.414293
C151 C 0.8672(11) 0.3500(14) 0.4036(7)
H176 H 0.891847 0.315935 0.381242
H177 H 0.918845 0.371751 0.413887
C152 C 0.8132(17) 0.3180(17) 0.4351(8)
H178 H 0.770662 0.355762 0.449726
H179 H 0.852547 0.291249 0.455039
H180 H 0.777212 0.283935 0.423434
C153 C 0.7166(4) 0.8507(4) 0.42006(17)
H181 H 0.782737 0.830440 0.415832
H182 H 0.678255 0.809418 0.425897
C154 C 0.7001(4) 0.9020(4) 0.45715(19)
H183 H 0.723673 0.875064 0.482128
H184 H 0.737073 0.943824 0.449973
C155 C 0.5982(5) 0.9322(4) 0.4689(2)
H185 H 0.595682 0.967454 0.491187
H186 H 0.574681 0.959434 0.443972
C156 C 0.5337(5) 0.8740(5) 0.4842(3)
H187 H 0.535284 0.838892 0.462354
H188 H 0.470174 0.897512 0.490359
H189 H 0.554296 0.848391 0.509773
C157 C 0.7552(6) 1.0379(5) 0.3237(4)
H190 H 0.798268 1.042019 0.297603
H191 H 0.791699 1.014912 0.346135
C158 C 0.7153(10) 1.1113(7) 0.3355(4)
H192 H 0.661321 1.128119 0.319910
H193 H 0.762070 1.146519 0.329125
C159 C 0.6853(9) 1.1052(8) 0.3827(4)
H194 H 0.645863 1.064581 0.388544
H195 H 0.741203 1.092373 0.397547
C160 C 0.6320(9) 1.1744(7) 0.4004(4)
H196 H 0.673500 1.212856 0.398895
H197 H 0.607906 1.164282 0.429726
H198 H 0.580103 1.190543 0.383898
C161 C 0.7718(4) 0.9528(4) 0.11009(19)
H199 H 0.831475 0.958130 0.120839
H200 H 0.720931 0.977623 0.129060
C162 C 0.7708(6) 0.9874(5) 0.0659(2)
H201 H 0.820087 0.960533 0.047030
H202 H 0.785372 1.038565 0.065953
C163 C 0.6755(12) 0.9870(8) 0.0480(4)
H203 H 0.692445 0.961685 0.021400
H204 H 0.643318 0.951693 0.067417
C164 C 0.6191(14) 1.0289(12) 0.0405(12)
H205 H 0.560036 1.015401 0.054909
H206 H 0.615986 1.032502 0.010101
H207 H 0.631097 1.076212 0.049920
C165 C 0.8551(5) 0.7485(4) 0.0625(2)
H208 H 0.916798 0.740822 0.073107
H209 H 0.843086 0.800673 0.053131
C166 C 0.8538(7) 0.7006(8) 0.0263(3)
H210 H 0.887929 0.719892 0.000185
H211 H 0.789701 0.694313 0.021061
C167 C 0.9080(10) 0.6247(10) 0.0448(4)
H212 H 0.974044 0.629674 0.047026
H213 H 0.877707 0.608693 0.072528
C168 C 0.8981(15) 0.5756(12) 0.0129(5)
H214 H 0.867020 0.602758 -0.009705
H215 H 0.860938 0.536963 0.025205
H216 H 0.959597 0.553667 0.001558
O19 O 0.7839(3) 0.4701(2) 0.26672(12)
O20 O 0.7501(3) 0.5177(2) 0.34501(13)
O21 O 0.6908(2) 0.8937(2) 0.38272(12)
O22 O 0.6864(3) 0.9913(2) 0.31691(13)
O23 O 0.7597(3) 0.8760(2) 0.10897(12)
O24 O 0.7826(3) 0.7295(2) 0.09615(12)
Se10 Se 0.80964(5) 0.59390(4) 0.17353(2)
Se11 Se 0.74231(5) 0.69671(4) 0.37142(2)
Se12 Se 0.74514(5) 0.94857(4) 0.21254(2)
S1? S 0.01434(5) 0.60287(4) 0.34317(2)
S2? S -0.01796(5) 0.95257(4) 0.27205(2)
S3? S 0.05440(5) 0.68657(4) 0.13641(2)
S4? S 0.22477(5) 0.89864(4) 0.32844(2)
S5? S 0.29222(5) 0.79194(5) 0.13080(2)
S6? S 0.28671(5) 0.54265(4) 0.29082(2)
S7? S 0.52041(5) 0.88801(4) 0.16227(2)
S8? S 0.55347(5) 0.53640(4) 0.22929(2)
S9? S 0.47899(5) 0.79777(4) 0.36817(2)
S10? S 0.80964(5) 0.59390(4) 0.17353(2)
S11? S 0.74231(5) 0.69671(4) 0.37142(2)
S12? S 0.74514(5) 0.94857(4) 0.21254(2)
loop_
_geom_bond_atom_site_label_1
_geom_bond_atom_site_label_2
_geom_bond_site_symmetry_1
_geom_bond_site_symmetry_2
C1 C2 1_555 1_555
C2 C3 1_555 1_555
C3 C4 1_555 1_555
C4 C5 1_555 1_555
C5 C6 1_555 1_555
C6 C1 1_555 1_555
C7 C2 1_555 1_555
C8 C7 1_555 1_555
C9 C8 1_555 1_555
C10 C3 1_555 1_555
C11 C4 1_555 1_555
C12 C11 1_555 1_555
C13 C12 1_555 1_555
C14 C5 1_555 1_555
C15 C6 1_555 1_555
C16 C15 1_555 1_555
C17 C16 1_555 1_555
C18 C1 1_555 1_555
C19 H1 1_555 1_555
H2 C19 1_555 1_555
C20 C19 1_555 1_555
H3 C20 1_555 1_555
H4 C20 1_555 1_555
C21 C20 1_555 1_555
H5 C21 1_555 1_555
H6 C21 1_555 1_555
C22 C21 1_555 1_555
H7 C22 1_555 1_555
H8 C22 1_555 1_555
H9 C22 1_555 1_555
C23 H10 1_555 1_555
H11 C23 1_555 1_555
C24 C23 1_555 1_555
H12 C24 1_555 1_555
H13 C24 1_555 1_555
C25 C24 1_555 1_555
H14 C25 1_555 1_555
H15 C25 1_555 1_555
C26 C25 1_555 1_555
H16 C26 1_555 1_555
H17 C26 1_555 1_555
H18 C26 1_555 1_555
C27 H19 1_555 1_555
H20 C27 1_555 1_555
C28 C27 1_555 1_555
H21 C28 1_555 1_555
H22 C28 1_555 1_555
C29 C28 1_555 1_555
H23 C29 1_555 1_555
H24 C29 1_555 1_555
C30 C29 1_555 1_555
H25 C30 1_555 1_555
H26 C30 1_555 1_555
H27 C30 1_555 1_555
C31 H28 1_555 1_555
H29 C31 1_555 1_555
C32 C31 1_555 1_555
H30 C32 1_555 1_555
H31 C32 1_555 1_555
C33 C32 1_555 1_555
H32 C33 1_555 1_555
H33 C33 1_555 1_555
C34 C33 1_555 1_555
H34 C34 1_555 1_555
H35 C34 1_555 1_555
H36 C34 1_555 1_555
C35 H37 1_555 1_555
H38 C35 1_555 1_555
C36 C35 1_555 1_555
H39 C36 1_555 1_555
H40 C36 1_555 1_555
C37 C36 1_555 1_555
H41 C37 1_555 1_555
H42 C37 1_555 1_555
C38 C37 1_555 1_555
H43 C38 1_555 1_555
H44 C38 1_555 1_555
H45 C38 1_555 1_555
C39 H46 1_555 1_555
H47 C39 1_555 1_555
C40 C39 1_555 1_555
H48 C40 1_555 1_555
H49 C40 1_555 1_555
C41 C40 1_555 1_555
H50 C41 1_555 1_555
H51 C41 1_555 1_555
C42 C41 1_555 1_555
H52 C42 1_555 1_555
H53 C42 1_555 1_555
H54 C42 1_555 1_555
O1 C8 1_555 1_555
O2 C9 1_555 1_555
O3 C12 1_555 1_555
O4 C13 1_555 1_555
O5 C16 1_555 1_555
O6 C17 1_555 1_555
Se1 C7 1_555 1_555
Se2 C10 1_555 1_555
Se3 C14 1_555 1_555
C43 C44 1_555 1_555
C44 C45 1_555 1_555
C45 C46 1_555 1_555
C46 C47 1_555 1_555
C47 C48 1_555 1_555
C48 C43 1_555 1_555
C49 C44 1_555 1_555
C50 C49 1_555 1_555
C51 C50 1_555 1_555
C52 C45 1_555 1_555
C53 C46 1_555 1_555
C54 C53 1_555 1_555
C55 C54 1_555 1_555
C56 C47 1_555 1_555
C57 C48 1_555 1_555
C58 C57 1_555 1_555
C59 C58 1_555 1_555
C60 C43 1_555 1_555
C61 H55 1_555 1_555
H56 C61 1_555 1_555
C62 C61 1_555 1_555
H57 C62 1_555 1_555
H58 C62 1_555 1_555
C63 C62 1_555 1_555
H59 C63 1_555 1_555
H60 C63 1_555 1_555
C64 C63 1_555 1_555
H61 C64 1_555 1_555
H62 C64 1_555 1_555
H63 C64 1_555 1_555
C65 H64 1_555 1_555
H65 C65 1_555 1_555
C66 C65 1_555 1_555
H66 C66 1_555 1_555
H67 C66 1_555 1_555
C67 C66 1_555 1_555
H68 C67 1_555 1_555
H69 C67 1_555 1_555
C68 C67 1_555 1_555
H70 C68 1_555 1_555
H71 C68 1_555 1_555
H72 C68 1_555 1_555
C69 H73 1_555 1_555
H74 C69 1_555 1_555
C70 C69 1_555 1_555
H75 C70 1_555 1_555
H76 C70 1_555 1_555
C71 C70 1_555 1_555
H77 C71 1_555 1_555
H78 C71 1_555 1_555
C72 C71 1_555 1_555
H79 C72 1_555 1_555
H80 C72 1_555 1_555
H81 C72 1_555 1_555
C73 H82 1_555 1_555
H83 C73 1_555 1_555
C74 C73 1_555 1_555
H84 C74 1_555 1_555
H85 C74 1_555 1_555
C75 C74 1_555 1_555
H86 C75 1_555 1_555
H87 C75 1_555 1_555
C76 C75 1_555 1_555
H88 C76 1_555 1_555
H89 C76 1_555 1_555
H90 C76 1_555 1_555
C77 H91 1_555 1_555
H92 C77 1_555 1_555
C78 C77 1_555 1_555
H93 C78 1_555 1_555
H94 C78 1_555 1_555
C79 C78 1_555 1_555
H95 C79 1_555 1_555
H96 C79 1_555 1_555
C80 C79 1_555 1_555
H97 C80 1_555 1_555
H98 C80 1_555 1_555
H99 C80 1_555 1_555
C81 H100 1_555 1_555
H101 C81 1_555 1_555
C82 C81 1_555 1_555
H102 C82 1_555 1_555
H103 C82 1_555 1_555
C83 C82 1_555 1_555
H104 C83 1_555 1_555
H105 C83 1_555 1_555
C84 C83 1_555 1_555
H106 C84 1_555 1_555
H107 C84 1_555 1_555
H108 C84 1_555 1_555
O7 C50 1_555 1_555
O8 C51 1_555 1_555
O9 C54 1_555 1_555
O10 C55 1_555 1_555
O11 C58 1_555 1_555
O12 C59 1_555 1_555
Se4 C49 1_555 1_555
Se5 C52 1_555 1_555
Se6 C56 1_555 1_555
C85 C86 1_555 1_555
C86 C87 1_555 1_555
C87 C88 1_555 1_555
C88 C89 1_555 1_555
C89 C90 1_555 1_555
C90 C85 1_555 1_555
C91 C86 1_555 1_555
C92 C91 1_555 1_555
C93 C92 1_555 1_555
C94 C87 1_555 1_555
C95 C88 1_555 1_555
C96 C95 1_555 1_555
C97 C96 1_555 1_555
C98 C89 1_555 1_555
C99 C90 1_555 1_555
C100 C99 1_555 1_555
C101 C100 1_555 1_555
C102 C85 1_555 1_555
C103 H109 1_555 1_555
H110 C103 1_555 1_555
C104 C103 1_555 1_555
H111 C104 1_555 1_555
H112 C104 1_555 1_555
C105 C104 1_555 1_555
H113 C105 1_555 1_555
H114 C105 1_555 1_555
C106 C105 1_555 1_555
H115 C106 1_555 1_555
H116 C106 1_555 1_555
H117 C106 1_555 1_555
C107 H118 1_555 1_555
H119 C107 1_555 1_555
C108 C107 1_555 1_555
H120 C108 1_555 1_555
H121 C108 1_555 1_555
C109 C108 1_555 1_555
H122 C109 1_555 1_555
H123 C109 1_555 1_555
C110 C109 1_555 1_555
H124 C110 1_555 1_555
H125 C110 1_555 1_555
H126 C110 1_555 1_555
C111 H127 1_555 1_555
H128 C111 1_555 1_555
C112 C111 1_555 1_555
H129 C112 1_555 1_555
H130 C112 1_555 1_555
C113 C112 1_555 1_555
H131 C113 1_555 1_555
H132 C113 1_555 1_555
C114 C113 1_555 1_555
H133 C114 1_555 1_555
H134 C114 1_555 1_555
H135 C114 1_555 1_555
C115 H136 1_555 1_555
H137 C115 1_555 1_555
C116 C115 1_555 1_555
H138 C116 1_555 1_555
H139 C116 1_555 1_555
C117 C116 1_555 1_555
H140 C117 1_555 1_555
H141 C117 1_555 1_555
C118 C117 1_555 1_555
H142 C118 1_555 1_555
H143 C118 1_555 1_555
H144 C118 1_555 1_555
C119 H145 1_555 1_555
H146 C119 1_555 1_555
C120 C119 1_555 1_555
H147 C120 1_555 1_555
H148 C120 1_555 1_555
C121 C120 1_555 1_555
H149 C121 1_555 1_555
H150 C121 1_555 1_555
C122 C121 1_555 1_555
H151 C122 1_555 1_555
H152 C122 1_555 1_555
H153 C122 1_555 1_555
C123 H154 1_555 1_555
H155 C123 1_555 1_555
C124 C123 1_555 1_555
H156 C124 1_555 1_555
H157 C124 1_555 1_555
C125 C124 1_555 1_555
H158 C125 1_555 1_555
H159 C125 1_555 1_555
C126 C125 1_555 1_555
H160 C126 1_555 1_555
H161 C126 1_555 1_555
H162 C126 1_555 1_555
O13 C92 1_555 1_555
O14 C93 1_555 1_555
O15 C96 1_555 1_555
O16 C97 1_555 1_555
O17 C100 1_555 1_555
O18 C101 1_555 1_555
Se7 C91 1_555 1_555
Se8 C94 1_555 1_555
Se9 C98 1_555 1_555
C127 C128 1_555 1_555
C128 C129 1_555 1_555
C129 C130 1_555 1_555
C130 C131 1_555 1_555
C131 C132 1_555 1_555
C132 C127 1_555 1_555
C133 C128 1_555 1_555
C134 C133 1_555 1_555
C135 C134 1_555 1_555
C136 C129 1_555 1_555
C137 C130 1_555 1_555
C138 C137 1_555 1_555
C139 C138 1_555 1_555
C140 C131 1_555 1_555
C141 C132 1_555 1_555
C142 C141 1_555 1_555
C143 C142 1_555 1_555
C144 C127 1_555 1_555
C145 H163 1_555 1_555
H164 C145 1_555 1_555
C146 C145 1_555 1_555
H165 C146 1_555 1_555
H166 C146 1_555 1_555
C147 C146 1_555 1_555
H167 C147 1_555 1_555
H168 C147 1_555 1_555
C148 C147 1_555 1_555
H169 C148 1_555 1_555
H170 C148 1_555 1_555
H171 C148 1_555 1_555
C149 H172 1_555 1_555
H173 C149 1_555 1_555
C150 C149 1_555 1_555
H174 C150 1_555 1_555
H175 C150 1_555 1_555
C151 C150 1_555 1_555
H176 C151 1_555 1_555
H177 C151 1_555 1_555
C152 C151 1_555 1_555
H178 C152 1_555 1_555
H179 C152 1_555 1_555
H180 C152 1_555 1_555
C153 H181 1_555 1_555
H182 C153 1_555 1_555
C154 C153 1_555 1_555
H183 C154 1_555 1_555
H184 C154 1_555 1_555
C155 C154 1_555 1_555
H185 C155 1_555 1_555
H186 C155 1_555 1_555
C156 C155 1_555 1_555
H187 C156 1_555 1_555
H188 C156 1_555 1_555
H189 C156 1_555 1_555
C157 H190 1_555 1_555
H191 C157 1_555 1_555
C158 C157 1_555 1_555
H192 C158 1_555 1_555
H193 C158 1_555 1_555
C159 C158 1_555 1_555
H194 C159 1_555 1_555
H195 C159 1_555 1_555
C160 C159 1_555 1_555
H196 C160 1_555 1_555
H197 C160 1_555 1_555
H198 C160 1_555 1_555
C161 H199 1_555 1_555
H200 C161 1_555 1_555
C162 C161 1_555 1_555
H201 C162 1_555 1_555
H202 C162 1_555 1_555
C163 C162 1_555 1_555
H203 C163 1_555 1_555
H204 C163 1_555 1_555
C164 C163 1_555 1_555
H205 C164 1_555 1_555
H206 C164 1_555 1_555
H207 C164 1_555 1_555
C165 H208 1_555 1_555
H209 C165 1_555 1_555
C166 C165 1_555 1_555
H210 C166 1_555 1_555
H211 C166 1_555 1_555
C167 C166 1_555 1_555
H212 C167 1_555 1_555
H213 C167 1_555 1_555
C168 C167 1_555 1_555
H214 C168 1_555 1_555
H215 C168 1_555 1_555
H216 C168 1_555 1_555
O19 C134 1_555 1_555
O20 C135 1_555 1_555
O21 C138 1_555 1_555
O22 C139 1_555 1_555
O23 C142 1_555 1_555
O24 C143 1_555 1_555
Se10 C133 1_555 1_555
Se11 C136 1_555 1_555
Se12 C140 1_555 1_555
C9 C10 1_555 1_555
C11 Se2 1_555 1_555
C13 C14 1_555 1_555
C15 Se3 1_555 1_555
C17 C18 1_555 1_555
C18 Se1 1_555 1_555
C19 O1 1_555 1_555
C23 O2 1_555 1_555
C27 O3 1_555 1_555
C31 O4 1_555 1_555
C35 O5 1_555 1_555
C39 O6 1_555 1_555
C51 C52 1_555 1_555
C53 Se5 1_555 1_555
C55 C56 1_555 1_555
C57 Se6 1_555 1_555
C59 C60 1_555 1_555
C60 Se4 1_555 1_555
C61 O7 1_555 1_555
C65 O8 1_555 1_555
C69 O9 1_555 1_555
C73 O10 1_555 1_555
C77 O11 1_555 1_555
C81 O12 1_555 1_555
C93 C94 1_555 1_555
C95 Se8 1_555 1_555
C97 C98 1_555 1_555
C99 Se9 1_555 1_555
C101 C102 1_555 1_555
C102 Se7 1_555 1_555
C103 O13 1_555 1_555
C107 O14 1_555 1_555
C111 O15 1_555 1_555
C115 O16 1_555 1_555
C119 O17 1_555 1_555
C123 O18 1_555 1_555
C135 C136 1_555 1_555
C137 Se11 1_555 1_555
C139 C140 1_555 1_555
C141 Se12 1_555 1_555
C143 C144 1_555 1_555
C144 Se10 1_555 1_555
C145 O19 1_555 1_555
C149 O20 1_555 1_555
C153 O21 1_555 1_555
C157 O22 1_555 1_555
C161 O23 1_555 1_555
C165 O24 1_555 1_555

#END
