
#######################################################################
#
#                 Cambridge Crystallographic Data Centre
#                                CCDC 
#
#######################################################################
#
# If this CIF has been generated from an entry in the Cambridge 
# Structural Database, then it will include bibliographic, chemical, 
# crystal, experimental, refinement or atomic coordinate data resulting 
# from the CCDC's data processing and validation procedures.
#
#######################################################################

data_JIWYUM
_chemical_formula_moiety         'C42 H54 O8 S2 Se1'
_chemical_name_systematic        
"dibutyl 2,3,8,9-tetrabutoxyselenopheno[2',3',4':1,10]thieno[2',3',4':8,9]phenanthro[4,5-bcd]thiophene-5,6-dicarboxylate"
_symmetry_cell_setting           monoclinic
_symmetry_space_group_name_H-M   'P 21/n'
_symmetry_Int_Tables_number      14
_space_group_name_Hall           '-P 2yn'
loop_
_symmetry_equiv_pos_site_id
_symmetry_equiv_pos_as_xyz
1 x,y,z
2 1/2-x,1/2+y,1/2-z
3 -x,-y,-z
4 1/2+x,1/2-y,1/2+z
_cell_length_a                   17.4194(2)
_cell_length_b                   8.20520(10)
_cell_length_c                   28.3968(4)
_cell_angle_alpha                90
_cell_angle_beta                 90.1660(10)
_cell_angle_gamma                90
_cell_volume                     4058.73
_exptl_crystal_colour            red
_exptl_crystal_description       needle
_chemical_melting_point          '340 K'
_cell_formula_units_Z            4
loop_
_atom_site_label
_atom_site_type_symbol
_atom_site_fract_x
_atom_site_fract_y
_atom_site_fract_z
S1 S 0.09875(7) 0.69423(17) 0.02259(5)
S2 S -0.20956(8) 1.02226(17) 0.09848(5)
Se1 Se -0.17392(6) 0.74494(15) -0.12819(4)
O1 O -0.0169(3) 0.5598(7) -0.15078(19)
O2 O 0.1019(3) 0.5238(7) -0.0906(2)
O3 O 0.0733(4) 0.8593(7) 0.1367(2)
O4 O -0.0601(4) 0.9812(7) 0.16315(19)
O5 O -0.3503(3) 0.8758(8) -0.0009(2)
O6 O -0.3313(3) 0.9052(9) -0.1167(2)
O7 O -0.3582(3) 1.0593(8) 0.0581(2)
O8 O -0.2848(3) 1.0899(7) -0.06492(19)
C1 C -0.1677(4) 0.8503(9) -0.0369(2)
C2 C -0.0965(4) 0.7687(9) -0.0486(3)
C3 C -0.0343(4) 0.7565(8) -0.0181(3)
C4 C -0.0403(4) 0.8262(9) 0.0269(3)
C5 C -0.1075(4) 0.8974(9) 0.0404(3)
C6 C -0.1763(4) 0.9088(9) 0.0115(3)
C7 C -0.0874(4) 0.7059(9) -0.0934(3)
C8 C -0.0204(4) 0.6280(9) -0.1069(3)
C9 C 0.0417(4) 0.6100(9) -0.0736(3)
C10 C 0.0340(4) 0.6823(9) -0.0290(3)
C11 C 0.0232(4) 0.8018(9) 0.0559(3)
C12 C 0.0164(4) 0.8607(9) 0.1038(3)
C13 C -0.0516(5) 0.9294(9) 0.1183(3)
C14 C -0.1153(4) 0.9505(8) 0.0866(3)
C15 C -0.2359(4) 0.9656(8) 0.0382(2)
C16 C -0.2138(4) 0.8534(10) -0.0767(2)
C17 C -0.3183(4) 0.9611(10) 0.0279(3)
C18 C -0.2840(4) 0.9476(10) -0.0878(3)
C19 C 0.0459(5) 0.6180(11) -0.1812(3)
H1 H 0.089373 0.544523 -0.179320
H2 H 0.062426 0.725667 -0.171370
C20 C 0.0147(5) 0.6234(12) -0.2310(3)
H3 H 0.056472 0.649391 -0.252201
H4 H -0.003968 0.515705 -0.239264
C21 C -0.0488(6) 0.7436(15) -0.2388(4)
H5 H -0.032182 0.849816 -0.227754
H6 H -0.092882 0.711320 -0.220271
C22 C -0.0735(9) 0.758(2) -0.2917(5)
H7 H -0.041324 0.835787 -0.307292
H8 H -0.126012 0.792873 -0.293473
H9 H -0.068360 0.653569 -0.306667
C23 C 0.1738(4) 0.5261(10) -0.0653(3)
H10 H 0.170581 0.458921 -0.037249
H11 H 0.186770 0.636418 -0.055938
C24 C 0.2333(5) 0.4597(11) -0.0984(4)
H12 H 0.218914 0.349581 -0.107103
H13 H 0.233137 0.525154 -0.126801
C25 C 0.3127(5) 0.4568(13) -0.0788(4)
H14 H 0.313224 0.394389 -0.049806
H15 H 0.328704 0.567202 -0.071472
C26 C 0.3703(6) 0.3800(16) -0.1143(5)
H16 H 0.357830 0.267218 -0.119020
H17 H 0.421548 0.388789 -0.101995
H18 H 0.367159 0.436694 -0.143841
C27 C 0.1376(5) 0.7560(12) 0.1305(3)
H19 H 0.164295 0.784025 0.101684
H20 H 0.121090 0.643338 0.128381
C28 C 0.1911(6) 0.7787(15) 0.1731(3)
H21 H 0.237289 0.714860 0.168255
H22 H 0.206085 0.892418 0.175055
C29 C 0.1555(6) 0.7296(17) 0.2182(4)
H23 H 0.139937 0.616277 0.216311
H24 H 0.109880 0.794830 0.223545
C30 C 0.2108(8) 0.7516(19) 0.2591(4)
H25 H 0.262573 0.749759 0.247618
H26 H 0.203745 0.664869 0.281333
H27 H 0.201037 0.854233 0.274183
C31 C -0.0588(8) 0.8511(13) 0.1979(3)
H28 H -0.034254 0.755123 0.184942
H29 H -0.030125 0.885360 0.225539
C32 C -0.1374(8) 0.8138(16) 0.2108(5)
H30 H -0.136912 0.724048 0.233014
H31 H -0.164544 0.777366 0.182850
C33 C -0.1843(9) 0.963(2) 0.2337(5)
H32 H -0.156073 1.005385 0.260464
H33 H -0.189612 1.049548 0.210702
C34 C -0.2657(11) 0.906(3) 0.2500(9)
H34 H -0.300293 0.907438 0.223631
H35 H -0.284282 0.979003 0.273895
H36 H -0.262529 0.797855 0.262537
C35 C -0.4403(5) 1.0542(12) 0.0542(3)
H37 H -0.458610 0.944314 0.059808
H38 H -0.456065 1.086654 0.022736
C36 C -0.4740(5) 1.1696(12) 0.0902(3)
H39 H -0.452981 1.277560 0.085063
H40 H -0.529064 1.175828 0.085365
C37 C -0.4586(7) 1.1201(18) 0.1403(4)
H41 H -0.403565 1.119524 0.145730
H42 H -0.477358 1.010123 0.145137
C38 C -0.4963(7) 1.2330(18) 0.1755(4)
H43 H -0.490838 1.343805 0.165147
H44 H -0.472138 1.220257 0.205698
H45 H -0.549818 1.206599 0.177965
C39 C -0.3565(8) 1.1883(16) -0.0710(4)
H46 H -0.396776 1.153460 -0.049819
H47 H -0.375191 1.185295 -0.103239
C40 C -0.355(2) 1.329(3) -0.0430(9)
H48 H -0.407784 1.367365 -0.039109
H49 H -0.335975 1.300702 -0.012013
C41 C -0.3123(17) 1.454(4) -0.0605(11)
H50 H -0.262051 1.414217 -0.069798
H51 H -0.305638 1.538228 -0.036995
C42 C -0.3584(16) 1.523(3) -0.1056(9)
H52 H -0.378033 1.434165 -0.123884
H53 H -0.324382 1.587534 -0.124612
H54 H -0.400311 1.590146 -0.095120
C43? C -0.3218(12) 1.373(4) -0.0566(9)
C44? C -0.3900(11) 1.491(2) -0.0587(8)
H55? H -0.370856 1.599970 -0.052149
H56? H -0.409573 1.491678 -0.090706
C45? C -0.4561(12) 1.459(3) -0.0263(8)
H57? H -0.476022 1.352119 -0.032119
H58? H -0.495603 1.538596 -0.031803
H59? H -0.438848 1.466733 0.005775
loop_
_geom_bond_atom_site_label_1
_geom_bond_atom_site_label_2
_geom_bond_site_symmetry_1
_geom_bond_site_symmetry_2
S1 C10 1_555 1_555
S2 C14 1_555 1_555
Se1 C7 1_555 1_555
O1 C8 1_555 1_555
O2 C9 1_555 1_555
O3 C12 1_555 1_555
O4 C13 1_555 1_555
O5 C17 1_555 1_555
O6 C18 1_555 1_555
O7 C17 1_555 1_555
O8 C18 1_555 1_555
C1 C2 1_555 1_555
C2 C3 1_555 1_555
C3 C4 1_555 1_555
C4 C5 1_555 1_555
C5 C6 1_555 1_555
C6 C1 1_555 1_555
C7 C2 1_555 1_555
C8 C7 1_555 1_555
C9 C8 1_555 1_555
C10 C3 1_555 1_555
C11 S1 1_555 1_555
C12 C11 1_555 1_555
C13 C12 1_555 1_555
C14 C5 1_555 1_555
C15 S2 1_555 1_555
C16 Se1 1_555 1_555
C17 C15 1_555 1_555
C18 C16 1_555 1_555
C19 O1 1_555 1_555
H1 C19 1_555 1_555
H2 C19 1_555 1_555
C20 C19 1_555 1_555
H3 C20 1_555 1_555
H4 C20 1_555 1_555
C21 C20 1_555 1_555
H5 C21 1_555 1_555
H6 C21 1_555 1_555
C22 C21 1_555 1_555
H7 C22 1_555 1_555
H8 C22 1_555 1_555
H9 C22 1_555 1_555
C23 O2 1_555 1_555
H10 C23 1_555 1_555
H11 C23 1_555 1_555
C24 C23 1_555 1_555
H12 C24 1_555 1_555
H13 C24 1_555 1_555
C25 C24 1_555 1_555
H14 C25 1_555 1_555
H15 C25 1_555 1_555
C26 C25 1_555 1_555
H16 C26 1_555 1_555
H17 C26 1_555 1_555
H18 C26 1_555 1_555
C27 O3 1_555 1_555
H19 C27 1_555 1_555
H20 C27 1_555 1_555
C28 C27 1_555 1_555
H21 C28 1_555 1_555
H22 C28 1_555 1_555
C29 C28 1_555 1_555
H23 C29 1_555 1_555
H24 C29 1_555 1_555
C30 C29 1_555 1_555
H25 C30 1_555 1_555
H26 C30 1_555 1_555
H27 C30 1_555 1_555
C31 O4 1_555 1_555
H28 C31 1_555 1_555
H29 C31 1_555 1_555
C32 C31 1_555 1_555
H30 C32 1_555 1_555
H31 C32 1_555 1_555
C33 C32 1_555 1_555
H32 C33 1_555 1_555
H33 C33 1_555 1_555
C34 C33 1_555 1_555
H34 C34 1_555 1_555
H35 C34 1_555 1_555
H36 C34 1_555 1_555
C35 O7 1_555 1_555
H37 C35 1_555 1_555
H38 C35 1_555 1_555
C36 C35 1_555 1_555
H39 C36 1_555 1_555
H40 C36 1_555 1_555
C37 C36 1_555 1_555
H41 C37 1_555 1_555
H42 C37 1_555 1_555
C38 C37 1_555 1_555
H43 C38 1_555 1_555
H44 C38 1_555 1_555
H45 C38 1_555 1_555
C39 O8 1_555 1_555
H46 C39 1_555 1_555
H47 C39 1_555 1_555
C40 C39 1_555 1_555
H48 C40 1_555 1_555
H49 C40 1_555 1_555
C41 C40 1_555 1_555
H50 C41 1_555 1_555
H51 C41 1_555 1_555
C42 C41 1_555 1_555
H52 C42 1_555 1_555
H53 C42 1_555 1_555
H54 C42 1_555 1_555
C1 C16 1_555 1_555
C4 C11 1_555 1_555
C6 C15 1_555 1_555
C9 C10 1_555 1_555
C13 C14 1_555 1_555

#END
