
#######################################################################
#
#                 Cambridge Crystallographic Data Centre
#                                CCDC 
#
#######################################################################
#
# If this CIF has been generated from an entry in the Cambridge 
# Structural Database, then it will include bibliographic, chemical, 
# crystal, experimental, refinement or atomic coordinate data resulting 
# from the CCDC's data processing and validation procedures.
#
#######################################################################

data_JIWZUK
_chemical_formula_moiety         'C20 H14 N6,2(C3 H6 O1)'
_chemical_name_systematic        
'trans-2,2,5,5-Tetracyano-3,6-diphenylpiperazine acetone solvate'
_symmetry_cell_setting           monoclinic
_symmetry_space_group_name_H-M   'P 21/n'
_symmetry_Int_Tables_number      14
_space_group_name_Hall           '-P 2yn'
loop_
_symmetry_equiv_pos_site_id
_symmetry_equiv_pos_as_xyz
1 x,y,z
2 1/2-x,1/2+y,1/2-z
3 -x,-y,-z
4 1/2+x,1/2-y,1/2+z
_cell_length_a                   9.183(2)
_cell_length_b                   7.3448(13)
_cell_length_c                   18.272(3)
_cell_angle_alpha                90
_cell_angle_beta                 91.640(15)
_cell_angle_gamma                90
_cell_volume                     1231.89
_exptl_crystal_colour            colorless
_cell_formula_units_Z            2
loop_
_atom_site_label
_atom_site_type_symbol
_atom_site_fract_x
_atom_site_fract_y
_atom_site_fract_z
C1 C 0.4142(3) 0.0811(4) 0.4397(1)
C2 C 0.5267(3) -0.0770(4) 0.4294(1)
C3 C 0.5973(3) -0.0569(4) 0.3580(2)
C4 C 0.4515(3) -0.2581(4) 0.4296(2)
C5 C 0.2903(3) 0.0778(3) 0.3836(1)
C6 C 0.3068(3) 0.1695(4) 0.3182(2)
C7 C 0.1974(3) 0.1675(4) 0.2647(2)
C8 C 0.0685(3) 0.0771(4) 0.2763(2)
C9 C 0.0491(3) -0.0138(4) 0.3417(2)
C10 C 0.1601(3) -0.0139(4) 0.3951(2)
N1 N 0.3603(2) 0.0632(3) 0.5134(1)
N2 N 0.6510(3) -0.0385(4) 0.3032(2)
N3 N 0.4001(3) -0.3995(4) 0.4311(1)
N1B N 0.6397(2) -0.0632(3) 0.4866(1)
C2B C 0.4733(3) 0.0770(4) 0.5706(1)
C1B C 0.5858(3) -0.0811(4) 0.5603(1)
C3B C 0.4027(3) 0.0569(4) 0.6420(2)
C4B C 0.5485(3) 0.2581(4) 0.5704(2)
C5B C 0.7097(3) -0.0778(3) 0.6164(1)
N2B N 0.3490(3) 0.0385(4) 0.6968(2)
N3B N 0.5999(3) 0.3995(4) 0.5689(1)
C6B C 0.6932(3) -0.1695(4) 0.6818(2)
C10B C 0.8399(3) 0.0139(4) 0.6049(2)
C7B C 0.8026(3) -0.1675(4) 0.7353(2)
C9B C 0.9509(3) 0.0138(4) 0.6583(2)
C8B C 0.9315(3) -0.0771(4) 0.7237(2)
O1 O 0.1500(3) 0.3222(3) 0.5640(2)
C11 C -0.0312(3) 0.5078(5) 0.6121(2)
C12 C 0.1206(4) 0.4655(4) 0.5923(2)
C13 C 0.2330(4) 0.6066(6) 0.6111(2)
loop_
_geom_bond_atom_site_label_1
_geom_bond_atom_site_label_2
_geom_bond_site_symmetry_1
_geom_bond_site_symmetry_2
C1 C2 1_555 1_555
C2 C3 1_555 1_555
C3 N2 1_555 1_555
C4 C2 1_555 1_555
C5 C1 1_555 1_555
C6 C5 1_555 1_555
C7 C6 1_555 1_555
C8 C7 1_555 1_555
C9 C8 1_555 1_555
C10 C5 1_555 1_555
N1 C1 1_555 1_555
N3 C4 1_555 1_555
O1 C12 1_555 1_555
C11 C12 1_555 1_555
C12 C13 1_555 1_555
N1B C2 1_555 1_555
C2B N1 1_555 1_555
C1B N1B 1_555 1_555
C3B C2B 1_555 1_555
C4B C2B 1_555 1_555
C5B C1B 1_555 1_555
N2B C3B 1_555 1_555
N3B C4B 1_555 1_555
C6B C5B 1_555 1_555
C10B C5B 1_555 1_555
C7B C6B 1_555 1_555
C9B C10B 1_555 1_555
C8B C7B 1_555 1_555
C9 C10 1_555 1_555
C2B C1B 1_555 1_555
C9B C8B 1_555 1_555

#END
