
#######################################################################
#
#                 Cambridge Crystallographic Data Centre
#                                CCDC 
#
#######################################################################
#
# If this CIF has been generated from an entry in the Cambridge 
# Structural Database, then it will include bibliographic, chemical, 
# crystal, experimental, refinement or atomic coordinate data resulting 
# from the CCDC's data processing and validation procedures.
#
#######################################################################

data_JIXBAT
_chemical_formula_moiety         'C11 H11 N3 O2'
_chemical_name_systematic        
(E,E)-4-Amino-3-cyano-1-(4-hydroxyphenyl)-4-methoxy-2-aza-1,3-butadiene
_symmetry_cell_setting           monoclinic
_symmetry_space_group_name_H-M   'P 21/n'
_symmetry_Int_Tables_number      14
_space_group_name_Hall           '-P 2yn'
loop_
_symmetry_equiv_pos_site_id
_symmetry_equiv_pos_as_xyz
1 x,y,z
2 1/2-x,1/2+y,1/2-z
3 -x,-y,-z
4 1/2+x,1/2-y,1/2+z
_cell_length_a                   8.6958(11)
_cell_length_b                   10.4009(12)
_cell_length_c                   12.297(3)
_cell_angle_alpha                90
_cell_angle_beta                 107.174(15)
_cell_angle_gamma                90
_cell_volume                     1062.6
_exptl_crystal_colour            'dark orange'
_cell_formula_units_Z            4
loop_
_atom_site_label
_atom_site_type_symbol
_atom_site_fract_x
_atom_site_fract_y
_atom_site_fract_z
C1 C 0.15725(15) 0.12330(12) 0.11651(10)
C2 C 0.30452(15) -0.04396(12) 0.07030(10)
C3 C 0.36004(15) -0.12189(12) -0.00948(10)
C4 C 0.30284(17) -0.10311(12) -0.12744(11)
C5 C 0.35678(17) -0.17929(13) -0.20066(11)
C6 C 0.46969(16) -0.27497(12) -0.15788(11)
C7 C 0.52869(16) -0.29529(13) -0.04106(11)
C8 C 0.47295(16) -0.21905(13) 0.03201(11)
C9 C 0.05501(15) 0.22634(12) 0.07701(10)
C10 C 0.20441(15) 0.09474(12) 0.23387(10)
C11 C -0.10183(17) 0.39839(13) 0.11761(12)
N1 N 0.20758(13) 0.05059(10) 0.03776(8)
N2 N 0.00540(15) 0.25821(12) -0.03272(9)
N3 N 0.24420(14) 0.06217(11) 0.32759(9)
O1 O 0.01122(12) 0.29459(9) 0.15446(7)
O2 O 0.51691(14) -0.34770(10) -0.23508(8)
H1 H 0.3493(18) -0.0681(14) 0.1521(12)
H2 H 0.2236(20) -0.0391(17) -0.1545(13)
H3 H 0.3187(19) -0.1654(15) -0.2837(14)
H4 H 0.6048(18) -0.3628(15) -0.0125(12)
H5 H 0.5150(19) -0.2310(15) 0.1138(14)
H6 H -0.2027(19) 0.3675(15) 0.0658(12)
H7 H -0.0548(23) 0.4658(18) 0.0820(15)
H8 H -0.1184(19) 0.4314(15) 0.1879(13)
H9 H 0.5857(27) -0.4069(21) -0.2077(18)
H10 H -0.0730(23) 0.3138(18) -0.0615(15)
H11 H 0.0310(22) 0.2027(18) -0.0783(15)
loop_
_geom_bond_atom_site_label_1
_geom_bond_atom_site_label_2
_geom_bond_site_symmetry_1
_geom_bond_site_symmetry_2
C1 C9 1_555 1_555
C2 C3 1_555 1_555
C3 C4 1_555 1_555
C4 C5 1_555 1_555
C5 C6 1_555 1_555
C6 C7 1_555 1_555
C7 C8 1_555 1_555
C8 C3 1_555 1_555
C9 N2 1_555 1_555
C10 C1 1_555 1_555
C11 O1 1_555 1_555
N1 C1 1_555 1_555
N2 H10 1_555 1_555
N3 C10 1_555 1_555
O1 C9 1_555 1_555
O2 C6 1_555 1_555
H1 C2 1_555 1_555
H2 C4 1_555 1_555
H3 C5 1_555 1_555
H4 C7 1_555 1_555
H5 C8 1_555 1_555
H6 C11 1_555 1_555
H7 C11 1_555 1_555
H8 C11 1_555 1_555
H9 O2 1_555 1_555
H11 N2 1_555 1_555
C2 N1 1_555 1_555

#END
