
#######################################################################
#
#                 Cambridge Crystallographic Data Centre
#                                CCDC 
#
#######################################################################
#
# If this CIF has been generated from an entry in the Cambridge 
# Structural Database, then it will include bibliographic, chemical, 
# crystal, experimental, refinement or atomic coordinate data resulting 
# from the CCDC's data processing and validation procedures.
#
#######################################################################

data_JIXFII
_chemical_formula_moiety         'C7 H3 F3 N2 S1'
_chemical_name_systematic        5-(trifluoromethyl)-2,1,3-benzothiadiazole
_symmetry_cell_setting           triclinic
_symmetry_space_group_name_H-M   'P -1'
_symmetry_Int_Tables_number      2
_space_group_name_Hall           '-P 1'
loop_
_symmetry_equiv_pos_site_id
_symmetry_equiv_pos_as_xyz
1 x,y,z
2 -x,-y,-z
_cell_length_a                   8.4896(5)
_cell_length_b                   9.8602(6)
_cell_length_c                   10.0057(6)
_cell_angle_alpha                70.833(2)
_cell_angle_beta                 83.675(2)
_cell_angle_gamma                84.293(2)
_cell_volume                     784.535
_exptl_crystal_colour            colorless
_exptl_crystal_description       block
_chemical_melting_point          '309 K'
_cell_formula_units_Z            4
loop_
_atom_site_label
_atom_site_type_symbol
_atom_site_fract_x
_atom_site_fract_y
_atom_site_fract_z
S1 S 0.69661(4) 0.01477(3) 1.25536(3)
F1 F 0.89313(14) -0.05449(11) 0.63745(10)
F2 F 0.84494(14) 0.17158(11) 0.53631(10)
F3 F 0.66293(13) 0.02794(14) 0.56751(10)
N1 N 0.79862(13) -0.05506(11) 1.14582(11)
N2 N 0.58288(13) 0.13501(11) 1.15118(11)
C1 C 0.73100(15) 0.07335(13) 0.76931(13)
C2 C 0.74519(14) 0.01553(13) 1.01726(13)
C3 C 0.62083(14) 0.12480(12) 1.02006(13)
C4 C 0.60737(15) 0.18303(13) 0.77070(13)
H1 H 0.5637 0.2386 0.6844
C5 C 0.80034(14) -0.01064(13) 0.88811(13)
H2 H 0.8817 -0.0832 0.8847
C6 C 0.55127(15) 0.20904(13) 0.89381(13)
H3 H 0.4685 0.2811 0.8949
C7 C 0.78413(18) 0.05335(15) 0.62885(14)
S2 S 0.18596(4) 0.61833(4) -0.19465(4)
F4 F 0.18248(12) 0.28679(10) 0.52107(10)
F5 F 0.42308(12) 0.27961(11) 0.43064(10)
F6 F 0.33198(15) 0.45325(12) 0.50888(11)
N3 N 0.28932(14) 0.49507(12) -0.08322(13)
N4 N 0.07843(14) 0.69266(12) -0.09130(13)
C8 C 0.24236(15) 0.50765(13) 0.04587(14)
C9 C 0.11899(16) 0.56694(14) 0.29134(15)
H4 H 0.0798 0.5844 0.3773
C10 C 0.12090(15) 0.62136(13) 0.04137(14)
C11 C 0.30164(15) 0.42190(14) 0.17671(15)
H5 H 0.3810 0.3458 0.1814
C12 C 0.05921(15) 0.65013(14) 0.16764(15)
H6 H -0.0211 0.7249 0.1659
C13 C 0.23964(15) 0.45359(14) 0.29510(14)
C14 C 0.29541(18) 0.36825(16) 0.43759(16)
loop_
_geom_bond_atom_site_label_1
_geom_bond_atom_site_label_2
_geom_bond_site_symmetry_1
_geom_bond_site_symmetry_2
S1 N1 1_555 1_555
F1 C7 1_555 1_555
F2 C7 1_555 1_555
F3 C7 1_555 1_555
N1 C2 1_555 1_555
N2 S1 1_555 1_555
C1 C4 1_555 1_555
C2 C3 1_555 1_555
C3 N2 1_555 1_555
C4 H1 1_555 1_555
C5 C1 1_555 1_555
H2 C5 1_555 1_555
C6 C3 1_555 1_555
H3 C6 1_555 1_555
C7 C1 1_555 1_555
S2 N3 1_555 1_555
F4 C14 1_555 1_555
F5 C14 1_555 1_555
F6 C14 1_555 1_555
N3 C8 1_555 1_555
N4 S2 1_555 1_555
C8 C10 1_555 1_555
C9 H4 1_555 1_555
C10 N4 1_555 1_555
C11 C8 1_555 1_555
H5 C11 1_555 1_555
C12 C9 1_555 1_555
H6 C12 1_555 1_555
C13 C9 1_555 1_555
C14 C13 1_555 1_555
C2 C5 1_555 1_555
C4 C6 1_555 1_555
C10 C12 1_555 1_555
C11 C13 1_555 1_555

#END
