
#######################################################################
#
#                 Cambridge Crystallographic Data Centre
#                                CCDC 
#
#######################################################################
#
# If this CIF has been generated from an entry in the Cambridge 
# Structural Database, then it will include bibliographic, chemical, 
# crystal, experimental, refinement or atomic coordinate data resulting 
# from the CCDC's data processing and validation procedures.
#
#######################################################################

data_JIXFOO
_chemical_formula_moiety         'C6 H2 F2 N2 S1'
_chemical_name_systematic        4,6-difluoro-2,1,3-benzothiadiazole
_symmetry_cell_setting           monoclinic
_symmetry_space_group_name_H-M   'P 21/c'
_symmetry_Int_Tables_number      14
_space_group_name_Hall           '-P 2ybc'
loop_
_symmetry_equiv_pos_site_id
_symmetry_equiv_pos_as_xyz
1 x,y,z
2 -x,1/2+y,1/2-z
3 -x,-y,-z
4 x,1/2-y,1/2+z
_cell_length_a                   3.6939(4)
_cell_length_b                   18.802(2)
_cell_length_c                   9.3712(12)
_cell_angle_alpha                90
_cell_angle_beta                 99.007(4)
_cell_angle_gamma                90
_cell_volume                     642.83
_exptl_crystal_colour            colorless
_exptl_crystal_description       plate
_cell_formula_units_Z            4
loop_
_atom_site_label
_atom_site_type_symbol
_atom_site_fract_x
_atom_site_fract_y
_atom_site_fract_z
S1 S 0.12775(10) 0.59888(2) -0.03202(4)
F1 F 0.9258(3) 0.58985(5) 0.57422(10)
F2 F 0.6725(3) 0.77507(5) 0.23679(11)
N1 N 0.2491(3) 0.54559(7) 0.10314(14)
N2 N 0.2966(3) 0.67342(7) 0.03532(14)
C1 C 0.7666(4) 0.60979(8) 0.44010(16)
C2 C 0.6481(4) 0.70622(8) 0.27420(16)
C3 C 0.5934(4) 0.56014(8) 0.34868(17)
H1 H 0.5793 0.5117 0.3759
C4 C 0.4346(4) 0.58511(7) 0.21006(16)
C5 C 0.4603(4) 0.65855(7) 0.17027(16)
C6 C 0.8002(4) 0.68306(8) 0.40701(16)
H2 H 0.9260 0.7150 0.4763
loop_
_geom_bond_atom_site_label_1
_geom_bond_atom_site_label_2
_geom_bond_site_symmetry_1
_geom_bond_site_symmetry_2
S1 N1 1_555 1_555
F1 C1 1_555 1_555
F2 C2 1_555 1_555
N1 C4 1_555 1_555
N2 S1 1_555 1_555
C1 C3 1_555 1_555
C2 C5 1_555 1_555
C3 H1 1_555 1_555
C4 C3 1_555 1_555
C5 N2 1_555 1_555
C6 C1 1_555 1_555
H2 C6 1_555 1_555
C2 C6 1_555 1_555
C4 C5 1_555 1_555

#END
