
#######################################################################
#
#                 Cambridge Crystallographic Data Centre
#                                CCDC 
#
#######################################################################
#
# If this CIF has been generated from an entry in the Cambridge 
# Structural Database, then it will include bibliographic, chemical, 
# crystal, experimental, refinement or atomic coordinate data resulting 
# from the CCDC's data processing and validation procedures.
#
#######################################################################

data_JIXFUU
_chemical_formula_moiety         'C8 H8 N2 S1'
_chemical_name_systematic        5,6-dimethyl-2,1,3-benzothiadiazole
_symmetry_cell_setting           monoclinic
_symmetry_space_group_name_H-M   'C 2/c'
_symmetry_Int_Tables_number      15
_space_group_name_Hall           '-C 2yn'
loop_
_symmetry_equiv_pos_site_id
_symmetry_equiv_pos_as_xyz
1 x,y,z
2 -x,y,1/2-z
3 1/2+x,1/2+y,z
4 1/2-x,1/2+y,1/2-z
5 -x,-y,-z
6 x,-y,1/2+z
7 1/2-x,1/2-y,-z
8 1/2+x,1/2-y,1/2+z
_cell_length_a                   17.4313(2)
_cell_length_b                   7.21180(10)
_cell_length_c                   12.3550(2)
_cell_angle_alpha                90
_cell_angle_beta                 97.8490(10)
_cell_angle_gamma                90
_cell_volume                     1538.61
_exptl_crystal_colour            'light brown'
_exptl_crystal_description       plate
_chemical_melting_point          '356 K'
_cell_formula_units_Z            8
loop_
_atom_site_label
_atom_site_type_symbol
_atom_site_fract_x
_atom_site_fract_y
_atom_site_fract_z
S1 S 0.54031(2) 0.63170(5) 0.62859(3)
N1 N 0.58628(7) 0.53403(18) 0.53799(10)
N2 N 0.61209(7) 0.71096(18) 0.71321(10)
C1 C 0.66222(8) 0.5615(2) 0.57211(12)
C2 C 0.72504(8) 0.4984(2) 0.51947(12)
H1 H 0.7158 0.4321 0.4544
C3 C 0.79919(8) 0.5363(2) 0.56553(12)
C4 C 0.81418(9) 0.6427(2) 0.66586(13)
C5 C 0.75448(9) 0.7039(2) 0.71757(12)
H2 H 0.7645 0.7719 0.7819
C6 C 0.67716(9) 0.6630(2) 0.67229(12)
C7 C 0.86657(9) 0.4648(2) 0.51314(13)
H3 H 0.8933 0.3710 0.5588
H4 H 0.9014 0.5651 0.5043
H5 H 0.8479 0.4128 0.4430
C8 C 0.89668(9) 0.6871(2) 0.71232(13)
H6 H 0.9257 0.5741 0.7244
H7 H 0.8973 0.7518 0.7804
H8 H 0.9195 0.7638 0.6618
loop_
_geom_bond_atom_site_label_1
_geom_bond_atom_site_label_2
_geom_bond_site_symmetry_1
_geom_bond_site_symmetry_2
S1 N1 1_555 1_555
N1 C1 1_555 1_555
N2 S1 1_555 1_555
C1 C2 1_555 1_555
C2 H1 1_555 1_555
C3 C2 1_555 1_555
C4 C3 1_555 1_555
C5 C4 1_555 1_555
H2 C5 1_555 1_555
C6 N2 1_555 1_555
C7 C3 1_555 1_555
H3 C7 1_555 1_555
H4 C7 1_555 1_555
H5 C7 1_555 1_555
C8 C4 1_555 1_555
H6 C8 1_555 1_555
H7 C8 1_555 1_555
H8 C8 1_555 1_555
C1 C6 1_555 1_555
C5 C6 1_555 1_555

#END
