
#######################################################################
#
#                 Cambridge Crystallographic Data Centre
#                                CCDC 
#
#######################################################################
#
# If this CIF has been generated from an entry in the Cambridge 
# Structural Database, then it will include bibliographic, chemical, 
# crystal, experimental, refinement or atomic coordinate data resulting 
# from the CCDC's data processing and validation procedures.
#
#######################################################################

data_JIXGAB
_chemical_formula_moiety         'C7 H7 N3 S1'
_chemical_name_systematic        5-methyl-2,1,3-benzothiadiazol-4-amine
_symmetry_cell_setting           monoclinic
_symmetry_space_group_name_H-M   'P 21'
_symmetry_Int_Tables_number      4
_space_group_name_Hall           'P 2yb'
loop_
_symmetry_equiv_pos_site_id
_symmetry_equiv_pos_as_xyz
1 x,y,z
2 -x,1/2+y,-z
_cell_length_a                   7.7536(3)
_cell_length_b                   4.9279(2)
_cell_length_c                   19.5028(8)
_cell_angle_alpha                90
_cell_angle_beta                 90.937(2)
_cell_angle_gamma                90
_cell_volume                     745.082
_exptl_crystal_colour            'light brown'
_exptl_crystal_description       plate
_cell_formula_units_Z            4
loop_
_atom_site_label
_atom_site_type_symbol
_atom_site_fract_x
_atom_site_fract_y
_atom_site_fract_z
S1 S 0.51545(10) -0.01802(15) 0.32647(4)
N1 N 0.4944(3) 0.1864(6) 0.39037(14)
N2 N 0.7082(3) 0.0528(5) 0.30280(12)
N3 N 1.0385(3) 0.3017(5) 0.28974(14)
C1 C 1.1437(4) 0.7014(7) 0.39107(18)
H1 H 1.1466 0.8450 0.4258
H2 H 1.1626 0.7809 0.3457
H3 H 1.2346 0.5685 0.4013
C2 C 0.9712(4) 0.5633(5) 0.39157(15)
C3 C 0.9323(3) 0.3704(5) 0.34272(14)
C4 C 0.7661(3) 0.2455(5) 0.34539(13)
H4 H 1.155(3) 0.352(5) 0.2861(12)
H5 H 1.020(3) 0.159(5) 0.2650(14)
C5 C 0.6445(4) 0.3240(5) 0.39655(14)
C6 C 0.6880(4) 0.5259(7) 0.44523(14)
H6 H 0.6086 0.5824 0.4790
C7 C 0.8473(4) 0.6351(6) 0.44169(15)
H7 H 0.8789 0.7685 0.4747
H8 H 0.981(4) 0.147(5) 0.7887(14)
H9 H 1.094(3) 0.327(6) 0.8247(14)
S2 S 0.44743(9) 0.00350(15) 0.80957(4)
N4 N 0.4023(3) 0.2144(5) 0.86965(13)
N5 N 0.6495(3) 0.0657(4) 0.79882(12)
N6 N 0.9890(3) 0.3008(5) 0.80944(14)
C8 C 1.0532(4) 0.7004(7) 0.91636(18)
H10 H 1.0475 0.8191 0.9566
H11 H 1.0842 0.8080 0.8761
H12 H 1.1406 0.5598 0.9245
C9 C 0.8806(3) 0.5692(5) 0.90396(14)
C10 C 0.8599(3) 0.3767(5) 0.85358(14)
C11 C 0.6920(3) 0.2595(5) 0.84454(13)
C12 C 0.5505(3) 0.3454(5) 0.88570(14)
C13 C 0.5755(4) 0.5462(6) 0.93633(14)
H13 H 0.4832 0.6078 0.9637
C14 C 0.7378(4) 0.6482(6) 0.94428(15)
H14 H 0.7569 0.7807 0.9790
loop_
_geom_bond_atom_site_label_1
_geom_bond_atom_site_label_2
_geom_bond_site_symmetry_1
_geom_bond_site_symmetry_2
S1 N1 1_555 1_555
N1 C5 1_555 1_555
N2 S1 1_555 1_555
N3 C3 1_555 1_555
C1 H1 1_555 1_555
H2 C1 1_555 1_555
H3 C1 1_555 1_555
C2 C1 1_555 1_555
C3 C2 1_555 1_555
C4 N2 1_555 1_555
H4 N3 1_555 1_555
H5 N3 1_555 1_555
C5 C4 1_555 1_555
C6 C5 1_555 1_555
H6 C6 1_555 1_555
C7 C2 1_555 1_555
H7 C7 1_555 1_555
H8 N6 1_555 1_555
H9 N6 1_555 1_555
S2 N4 1_555 1_555
N4 C12 1_555 1_555
N5 S2 1_555 1_555
N6 C10 1_555 1_555
C8 H10 1_555 1_555
H11 C8 1_555 1_555
H12 C8 1_555 1_555
C9 C8 1_555 1_555
C10 C9 1_555 1_555
C11 N5 1_555 1_555
C12 C11 1_555 1_555
C13 C12 1_555 1_555
H13 C13 1_555 1_555
C14 C9 1_555 1_555
H14 C14 1_555 1_555
C3 C4 1_555 1_555
C6 C7 1_555 1_555
C10 C11 1_555 1_555
C13 C14 1_555 1_555

#END
