
#######################################################################
#
#                 Cambridge Crystallographic Data Centre
#                                CCDC 
#
#######################################################################
#
# If this CIF has been generated from an entry in the Cambridge 
# Structural Database, then it will include bibliographic, chemical, 
# crystal, experimental, refinement or atomic coordinate data resulting 
# from the CCDC's data processing and validation procedures.
#
#######################################################################

data_JIXGOP
_chemical_compound_source        
'potato endophytic fungus Trichothecium crotocinigenum'
_chemical_name_common            'trichothecrotocin B'
_chemical_formula_moiety         'C19 H25 Cl1 O5'
_chemical_name_systematic        
'8-chloro-13-hydroxy-7,12-epoxytrichothec-9-en-4-yl but-2-enoate'
_chemical_properties_biological  
'tested for activity against phytopathogens P.infestans, A.solani, R.solani and F.oxysporum'
_symmetry_cell_setting           monoclinic
_symmetry_space_group_name_H-M   'P 21'
_symmetry_Int_Tables_number      4
_space_group_name_Hall           'P 2yb'
loop_
_symmetry_equiv_pos_site_id
_symmetry_equiv_pos_as_xyz
1 x,y,z
2 -x,1/2+y,-z
_cell_length_a                   6.8310(3)
_cell_length_b                   12.5774(6)
_cell_length_c                   21.8633(11)
_cell_angle_alpha                90
_cell_angle_beta                 94.076(2)
_cell_angle_gamma                90
_cell_volume                     1873.66
_cell_formula_units_Z            4
loop_
_atom_site_label
_atom_site_type_symbol
_atom_site_fract_x
_atom_site_fract_y
_atom_site_fract_z
Cl1 Cl 0.55472(11) 0.15960(8) 0.84528(5)
O1 O -0.0155(3) 0.40597(17) 0.77471(10)
C1 C -0.3037(4) 0.1499(3) 0.59242(14)
C2 C -0.0149(4) 0.4315(2) 0.71129(14)
H1 H -0.001578 0.509944 0.705537
O2 O 0.3272(3) 0.36818(19) 0.72753(9)
C3 C -0.3409(5) 0.1274(3) 0.52642(15)
H2 H -0.284617 0.174122 0.49839
C4 C -0.1945(4) 0.3897(3) 0.67392(15)
H3 H -0.212781 0.427171 0.634102
H4 H -0.314049 0.398988 0.696417
O3 O 0.2697(4) 0.5318(2) 0.63471(12)
H5 H 0.348(9) 0.5360(5) 0.656(3)
C5 C -0.4478(5) 0.0464(3) 0.50319(16)
H6 H -0.45483 0.039507 0.45982
C6 C -0.1516(4) 0.2719(3) 0.66440(14)
H7 H -0.225875 0.227892 0.692967
O4 O -0.2099(3) 0.2438(2) 0.60130(10)
C7 C -0.5575(10) -0.0345(4) 0.5366(2)
H8 H -0.690579 -0.04158 0.517206
H9 H -0.564398 -0.012172 0.579382
H10 H -0.489723 -0.103056 0.535404
C8 C 0.0730(4) 0.2582(2) 0.67961(14)
O5 O -0.3481(5) 0.0949(2) 0.63381(11)
C9 C 0.1184(4) 0.2270(2) 0.74847(14)
C10 C 0.3302(4) 0.2664(3) 0.75800(15)
H11 H 0.417547 0.217038 0.736643
C11 C 0.4095(4) 0.2785(3) 0.82485(17)
H12 H 0.49948 0.341287 0.827597
C12 C 0.2621(5) 0.2917(3) 0.87212(16)
C13 C 0.0711(4) 0.2925(3) 0.85554(15)
H13 H -0.01914 0.292337 0.886654
C14 C -0.0078(4) 0.2938(2) 0.78983(14)
H14 H -0.144342 0.264674 0.787107
C15 C 0.2197(5) 0.4231(3) 0.62618(15)
H15 H 0.334335 0.384294 0.612132
H16 H 0.111587 0.417178 0.593718
C16 C 0.1570(4) 0.3719(3) 0.68416(13)
C17 C 0.1672(5) 0.1835(3) 0.63499(17)
H17 H 0.151265 0.213156 0.593478
H18 H 0.103428 0.113764 0.635616
H19 H 0.307246 0.175769 0.647263
C18 C 0.3402(7) 0.3057(4) 0.9375(2)
H20 H 0.413857 0.24202 0.951114
H21 H 0.230643 0.316315 0.963502
H22 H 0.427106 0.367698 0.94075
C19 C 0.0897(5) 0.1087(3) 0.76161(17)
H23 H -0.042266 0.086933 0.745994
H24 H 0.105359 0.09636 0.805945
H25 H 0.187593 0.067095 0.741306
Cl2 Cl 1.07339(10) 0.87408(6) 0.65901(3)
C20 C 0.5870(4) 0.9073(2) 0.72847(14)
H26 H 0.599847 0.91878 0.684599
H27 H 0.672909 0.956937 0.752234
H28 H 0.450516 0.91951 0.737778
C21 C 0.6916(4) 0.8490(2) 0.85850(14)
H29 H 0.826467 0.867788 0.850281
H30 H 0.689327 0.821958 0.90049
H31 H 0.607943 0.912148 0.853709
C22 C 0.8099(5) 0.6202(3) 0.87781(14)
H32 H 0.921989 0.665579 0.892561
H33 H 0.705679 0.628819 0.906642
C23 C 0.7325(4) 0.6586(2) 0.81471(12)
C24 C 0.5335(4) 0.7150(2) 0.70131(13)
H34 H 0.389672 0.730392 0.700304
C25 C 0.5998(4) 0.7210(2) 0.63755(13)
H35 H 0.504604 0.715447 0.603849
C26 C 0.7870(4) 0.7337(3) 0.62645(14)
C27 C 0.9378(4) 0.7544(2) 0.67834(13)
H36 H 1.031973 0.693414 0.680467
C28 C 0.8650(3) 0.7706(2) 0.74289(13)
H37 H 0.941354 0.829711 0.763779
C29 C 0.6453(3) 0.7937(2) 0.74524(12)
C30 C 0.8609(6) 0.7239(4) 0.56313(16)
H38 H 0.750412 0.708601 0.533348
H39 H 0.956763 0.665974 0.562847
H40 H 0.923266 0.79072 0.552159
C31 C 0.2435(4) 0.8416(2) 0.89218(13)
O6 O 0.5677(3) 0.60447(16) 0.71816(9)
C32 C 0.1974(4) 0.8504(3) 0.95681(14)
H41 H 0.228407 0.791254 0.982765
C33 C 0.1155(5) 0.9347(3) 0.98173(16)
H42 H 0.095954 0.929618 1.024218
O7 O 0.8977(3) 0.67457(17) 0.77800(9)
C34 C 0.0516(8) 1.0351(4) 0.9515(2)
H43 H 0.134547 1.050108 0.917782
H44 H 0.063087 1.093257 0.981354
H45 H -0.085401 1.028419 0.935335
O8 O 0.8716(5) 0.5130(2) 0.87864(12)
H46 H 0.929(10) 0.5001(18) 0.847(3)
O9 O 0.3450(3) 0.75112(18) 0.88365(9)
O10 O 0.1978(3) 0.90381(19) 0.85177(10)
C35 C 0.3897(4) 0.6104(3) 0.81155(15)
H47 H 0.381371 0.572173 0.850867
H48 H 0.274433 0.591303 0.783713
C36 C 0.6156(3) 0.7636(2) 0.81349(12)
C37 C 0.3997(4) 0.7307(2) 0.82194(13)
H49 H 0.308209 0.768263 0.791388
C38 C 0.5802(4) 0.5833(2) 0.78258(14)
H50 H 0.617302 0.507406 0.790787
loop_
_geom_bond_atom_site_label_1
_geom_bond_atom_site_label_2
_geom_bond_site_symmetry_1
_geom_bond_site_symmetry_2
Cl1 C11 1_555 1_555
O1 C2 1_555 1_555
C1 C3 1_555 1_555
C2 H1 1_555 1_555
O2 C10 1_555 1_555
C3 H2 1_555 1_555
C4 C2 1_555 1_555
H3 C4 1_555 1_555
H4 C4 1_555 1_555
O3 H5 1_555 1_555
C5 C3 1_555 1_555
H6 C5 1_555 1_555
C6 C4 1_555 1_555
H7 C6 1_555 1_555
O4 C1 1_555 1_555
C7 C5 1_555 1_555
H8 C7 1_555 1_555
H9 C7 1_555 1_555
H10 C7 1_555 1_555
C8 C6 1_555 1_555
O5 C1 1_555 1_555
C9 C8 1_555 1_555
C10 C9 1_555 1_555
H11 C10 1_555 1_555
C11 C10 1_555 1_555
H12 C11 1_555 1_555
C12 C11 1_555 1_555
C13 C12 1_555 1_555
H13 C13 1_555 1_555
C14 O1 1_555 1_555
H14 C14 1_555 1_555
C15 O3 1_555 1_555
H15 C15 1_555 1_555
H16 C15 1_555 1_555
C16 C2 1_555 1_555
C17 C8 1_555 1_555
H17 C17 1_555 1_555
H18 C17 1_555 1_555
H19 C17 1_555 1_555
C18 C12 1_555 1_555
H20 C18 1_555 1_555
H21 C18 1_555 1_555
H22 C18 1_555 1_555
C19 C9 1_555 1_555
H23 C19 1_555 1_555
H24 C19 1_555 1_555
H25 C19 1_555 1_555
Cl2 C27 1_555 1_555
C20 H26 1_555 1_555
H27 C20 1_555 1_555
H28 C20 1_555 1_555
C21 H29 1_555 1_555
H30 C21 1_555 1_555
H31 C21 1_555 1_555
C22 H32 1_555 1_555
H33 C22 1_555 1_555
C23 C22 1_555 1_555
C24 H34 1_555 1_555
C25 C24 1_555 1_555
H35 C25 1_555 1_555
C26 C25 1_555 1_555
C27 C26 1_555 1_555
H36 C27 1_555 1_555
C28 C27 1_555 1_555
H37 C28 1_555 1_555
C29 C20 1_555 1_555
C30 C26 1_555 1_555
H38 C30 1_555 1_555
H39 C30 1_555 1_555
H40 C30 1_555 1_555
C31 C32 1_555 1_555
O6 C24 1_555 1_555
C32 H41 1_555 1_555
C33 C32 1_555 1_555
H42 C33 1_555 1_555
O7 C23 1_555 1_555
C34 C33 1_555 1_555
H43 C34 1_555 1_555
H44 C34 1_555 1_555
H45 C34 1_555 1_555
O8 C22 1_555 1_555
H46 O8 1_555 1_555
O9 C31 1_555 1_555
O10 C31 1_555 1_555
C35 H47 1_555 1_555
H48 C35 1_555 1_555
C36 C21 1_555 1_555
C37 O9 1_555 1_555
H49 C37 1_555 1_555
C38 C23 1_555 1_555
H50 C38 1_555 1_555
O2 C16 1_555 1_555
C6 O4 1_555 1_555
C8 C16 1_555 1_555
C9 C14 1_555 1_555
C13 C14 1_555 1_555
C15 C16 1_555 1_555
C23 C36 1_555 1_555
C24 C29 1_555 1_555
C28 C29 1_555 1_555
C28 O7 1_555 1_555
C29 C36 1_555 1_555
O6 C38 1_555 1_555
C35 C37 1_555 1_555
C35 C38 1_555 1_555
C36 C37 1_555 1_555

#END
