
#######################################################################
#
#                 Cambridge Crystallographic Data Centre
#                                CCDC 
#
#######################################################################
#
# If this CIF has been generated from an entry in the Cambridge 
# Structural Database, then it will include bibliographic, chemical, 
# crystal, experimental, refinement or atomic coordinate data resulting 
# from the CCDC's data processing and validation procedures.
#
#######################################################################

data_JIXJUY
_chemical_formula_moiety         'C22 H28 O5'
_chemical_name_systematic        
7-methoxy-2-methyl-2-(4,4,6a-trimethyloctahydro-1,3-dioxacyclopenta[cd]pentalen-2-yl)-2H-1-benzopyran-6-ol
_symmetry_cell_setting           orthorhombic
_symmetry_space_group_name_H-M   'P 21 21 21'
_symmetry_Int_Tables_number      19
_space_group_name_Hall           'P 2ac 2ab'
loop_
_symmetry_equiv_pos_site_id
_symmetry_equiv_pos_as_xyz
1 x,y,z
2 1/2+x,1/2-y,-z
3 -x,1/2+y,1/2-z
4 1/2-x,-y,1/2+z
_cell_length_a                   7.4024(2)
_cell_length_b                   15.9251(5)
_cell_length_c                   15.9350(5)
_cell_angle_alpha                90
_cell_angle_beta                 90
_cell_angle_gamma                90
_cell_volume                     1878.48
_exptl_crystal_colour            colorless
_exptl_crystal_description       needle
_cell_formula_units_Z            4
loop_
_atom_site_label
_atom_site_type_symbol
_atom_site_fract_x
_atom_site_fract_y
_atom_site_fract_z
O1 O 0.55929(16) 0.55627(7) 0.46395(7)
C1 C 0.8452(2) 0.62642(9) 0.44201(9)
C2 C 0.9358(2) 0.55475(10) 0.48023(10)
H1 H 1.058882 0.558711 0.496564
C3 C 0.6572(2) 0.62353(9) 0.43434(9)
O2 O 0.61016(17) 0.34079(7) 0.52722(7)
C4 C 0.8443(2) 0.48347(10) 0.49209(9)
H2 H 0.902011 0.437255 0.518588
O3 O 0.36195(16) 0.49185(6) 0.63668(7)
C5 C 0.5599(2) 0.69084(9) 0.40211(10)
H3 H 0.432016 0.687845 0.397964
C6 C 0.6500(2) 0.47537(9) 0.46390(9)
C7 C 0.6512(2) 0.76285(9) 0.37590(9)
O4 O 0.56860(16) 0.83211(7) 0.34257(8)
C8 C 0.5365(2) 0.42365(9) 0.52563(10)
H4 H 0.409298 0.420935 0.504733
O5 O 0.93704(18) 0.83522(8) 0.35498(9)
H5 H 0.875(3) 0.8787(16) 0.3602(16)
C9 C 0.8405(2) 0.76729(10) 0.38273(10)
C10 C 0.5360(2) 0.45654(9) 0.61627(10)
H6 H 0.634988 0.498299 0.625434
C11 C 0.4464(2) 0.24437(10) 0.61938(11)
H7 H 0.422914 0.214886 0.56578
H8 H 0.469169 0.202186 0.663764
C12 C 0.6068(2) 0.30472(9) 0.61085(10)
C13 C 0.3759(2) 0.82978(10) 0.33698(10)
H9 H 0.332059 0.882183 0.311972
H10 H 0.324421 0.823303 0.393278
H11 H 0.33901 0.782255 0.301861
C14 C 0.5631(2) 0.37797(9) 0.67121(10)
H12 H 0.656219 0.385805 0.715973
C15 C 0.9338(2) 0.69988(10) 0.41592(10)
H13 H 1.061414 0.703314 0.421243
C16 C 0.2877(2) 0.30103(10) 0.64287(10)
H14 H 0.188533 0.268301 0.668685
H15 H 0.240696 0.331222 0.593153
C17 C 0.3719(2) 0.36230(9) 0.70639(9)
H16 H 0.378158 0.336332 0.763454
C18 C 0.2890(2) 0.45032(10) 0.71083(10)
C19 C 0.0848(2) 0.45248(10) 0.70320(11)
H17 H 0.043273 0.51092 0.703617
H18 H 0.030808 0.42227 0.750556
H19 H 0.048283 0.425659 0.650513
C20 C 0.7870(2) 0.26132(11) 0.62405(12)
H20 H 0.801093 0.216352 0.582582
H21 H 0.791255 0.2374 0.680677
H22 H 0.884931 0.302171 0.617414
C21 C 0.3498(2) 0.49739(11) 0.78924(11)
H23 H 0.481907 0.495952 0.793013
H24 H 0.297629 0.470636 0.839033
H25 H 0.308952 0.555841 0.786049
C22 C 0.6394(2) 0.43785(10) 0.37598(9)
H26 H 0.702348 0.474676 0.336324
H27 H 0.512523 0.432424 0.359284
H28 H 0.696518 0.382329 0.375836
loop_
_geom_bond_atom_site_label_1
_geom_bond_atom_site_label_2
_geom_bond_site_symmetry_1
_geom_bond_site_symmetry_2
O1 C3 1_555 1_555
C1 C2 1_555 1_555
C2 H1 1_555 1_555
C3 C1 1_555 1_555
O2 C8 1_555 1_555
C4 C2 1_555 1_555
H2 C4 1_555 1_555
O3 C10 1_555 1_555
C5 C3 1_555 1_555
H3 C5 1_555 1_555
C6 O1 1_555 1_555
C7 C5 1_555 1_555
O4 C7 1_555 1_555
C8 C6 1_555 1_555
H4 C8 1_555 1_555
O5 H5 1_555 1_555
C9 C7 1_555 1_555
C10 C8 1_555 1_555
H6 C10 1_555 1_555
C11 H7 1_555 1_555
H8 C11 1_555 1_555
C12 O2 1_555 1_555
C13 O4 1_555 1_555
H9 C13 1_555 1_555
H10 C13 1_555 1_555
H11 C13 1_555 1_555
C14 C10 1_555 1_555
H12 C14 1_555 1_555
C15 C1 1_555 1_555
H13 C15 1_555 1_555
C16 C11 1_555 1_555
H14 C16 1_555 1_555
H15 C16 1_555 1_555
C17 C14 1_555 1_555
H16 C17 1_555 1_555
C18 O3 1_555 1_555
C19 C18 1_555 1_555
H17 C19 1_555 1_555
H18 C19 1_555 1_555
H19 C19 1_555 1_555
C20 C12 1_555 1_555
H20 C20 1_555 1_555
H21 C20 1_555 1_555
H22 C20 1_555 1_555
C21 C18 1_555 1_555
H23 C21 1_555 1_555
H24 C21 1_555 1_555
H25 C21 1_555 1_555
C22 C6 1_555 1_555
H26 C22 1_555 1_555
H27 C22 1_555 1_555
H28 C22 1_555 1_555
C4 C6 1_555 1_555
O5 C9 1_555 1_555
C9 C15 1_555 1_555
C11 C12 1_555 1_555
C12 C14 1_555 1_555
C16 C17 1_555 1_555
C17 C18 1_555 1_555

#END
