
#######################################################################
#
#                 Cambridge Crystallographic Data Centre
#                                CCDC 
#
#######################################################################
#
# If this CIF has been generated from an entry in the Cambridge 
# Structural Database, then it will include bibliographic, chemical, 
# crystal, experimental, refinement or atomic coordinate data resulting 
# from the CCDC's data processing and validation procedures.
#
#######################################################################

data_JIXQIT
_chemical_formula_moiety         'C14 H14 O1'
_chemical_name_systematic        
2-[(4-methylphenyl)methylidene]cyclohex-3-en-1-one
_symmetry_cell_setting           monoclinic
_symmetry_space_group_name_H-M   'P 21/c'
_symmetry_Int_Tables_number      14
_space_group_name_Hall           '-P 2ybc'
loop_
_symmetry_equiv_pos_site_id
_symmetry_equiv_pos_as_xyz
1 x,y,z
2 -x,1/2+y,1/2-z
3 -x,-y,-z
4 x,1/2-y,1/2+z
_cell_length_a                   15.8503(10)
_cell_length_b                   13.0192(7)
_cell_length_c                   11.4062(8)
_cell_angle_alpha                90
_cell_angle_beta                 110.553(7)
_cell_angle_gamma                90
_cell_volume                     2203.94
_exptl_crystal_colour            yellow
_exptl_crystal_description       prism
_cell_formula_units_Z            8
loop_
_atom_site_label
_atom_site_type_symbol
_atom_site_fract_x
_atom_site_fract_y
_atom_site_fract_z
C1 C 0.85675(11) -0.10533(13) 0.64144(16)
C2 C 0.84791(16) -0.20072(15) 0.7101(2)
H1 H 0.8674 -0.2592 0.6734
H2 H 0.7849 -0.2109 0.6986
C3 C 0.90200(15) -0.19782(16) 0.8492(2)
H3 H 0.8837 -0.2541 0.8906
H4 H 0.9655 -0.2062 0.8624
C4 C 0.88792(15) -0.09889(16) 0.90442(19)
H5 H 0.8906 -0.0981 0.9872
C5 C 0.87167(13) -0.01173(15) 0.84039(16)
H6 H 0.8641 0.0480 0.8803
C6 C 0.86519(10) -0.00566(13) 0.70999(15)
C7 C 0.86294(11) 0.08080(13) 0.64365(14)
H7 H 0.8542 0.0700 0.5596
C8 C 0.87196(10) 0.18841(12) 0.68201(14)
C9 C 0.83297(11) 0.26320(13) 0.59129(14)
H8 H 0.8035 0.2432 0.5087
C10 C 0.83717(12) 0.36587(13) 0.62151(16)
H9 H 0.8089 0.4135 0.5593
C11 C 0.88256(12) 0.39994(14) 0.74264(17)
C12 C 0.92356(13) 0.32612(14) 0.83209(16)
H10 H 0.9552 0.3468 0.9138
C13 C 0.91873(12) 0.22329(14) 0.80354(15)
H11 H 0.9471 0.1760 0.8661
C14 C 0.88851(16) 0.51228(15) 0.7752(2)
H12 H 0.9010 0.5200 0.8634
H13 H 0.8324 0.5451 0.7294
H14 H 0.9360 0.5434 0.7536
O1 O 0.85521(10) -0.10985(10) 0.53485(12)
C15 C 0.34905(12) 0.39003(14) 0.21429(16)
C16 C 0.34846(14) 0.29367(14) 0.14211(19)
H15 H 0.2868 0.2782 0.0902
H16 H 0.3702 0.2375 0.2008
C17 C 0.40532(15) 0.29903(16) 0.05914(19)
H17 H 0.4686 0.2933 0.1105
H18 H 0.3901 0.2419 0.0008
C18 C 0.38978(14) 0.39735(16) -0.01168(18)
H19 H 0.3950 0.3982 -0.0904
C19 C 0.36882(12) 0.48375(14) 0.03318(16)
H20 H 0.3598 0.5429 -0.0154
C20 C 0.35937(11) 0.48984(13) 0.15557(15)
C21 C 0.35684(11) 0.57659(13) 0.21833(15)
H21 H 0.3452 0.5666 0.2920
C22 C 0.36923(10) 0.68367(13) 0.19045(14)
C23 C 0.33214(11) 0.75994(14) 0.24355(15)
H22 H 0.3015 0.7410 0.2963
C24 C 0.33983(12) 0.86229(14) 0.21987(16)
H23 H 0.3132 0.9109 0.2555
C25 C 0.38651(13) 0.89474(14) 0.14390(16)
C26 C 0.42570(13) 0.81971(15) 0.09389(17)
H24 H 0.4583 0.8394 0.0438
C27 C 0.41789(12) 0.71673(14) 0.11606(16)
H25 H 0.4453 0.6685 0.0811
C28 C 0.39440(17) 1.00688(16) 0.1176(2)
H26 H 0.4265 1.0419 0.1945
H27 H 0.3353 1.0360 0.0811
H28 H 0.4264 1.0143 0.0606
O2 O 0.33948(12) 0.38613(11) 0.31509(14)
loop_
_geom_bond_atom_site_label_1
_geom_bond_atom_site_label_2
_geom_bond_site_symmetry_1
_geom_bond_site_symmetry_2
C1 C2 1_555 1_555
C2 H1 1_555 1_555
H2 C2 1_555 1_555
C3 C2 1_555 1_555
H3 C3 1_555 1_555
H4 C3 1_555 1_555
C4 C3 1_555 1_555
H5 C4 1_555 1_555
C5 C4 1_555 1_555
H6 C5 1_555 1_555
C6 C1 1_555 1_555
C7 C6 1_555 1_555
H7 C7 1_555 1_555
C8 C7 1_555 1_555
C9 C8 1_555 1_555
H8 C9 1_555 1_555
C10 C9 1_555 1_555
H9 C10 1_555 1_555
C11 C10 1_555 1_555
C12 C11 1_555 1_555
H10 C12 1_555 1_555
C13 C8 1_555 1_555
H11 C13 1_555 1_555
C14 C11 1_555 1_555
H12 C14 1_555 1_555
H13 C14 1_555 1_555
H14 C14 1_555 1_555
O1 C1 1_555 1_555
C15 C16 1_555 1_555
C16 H15 1_555 1_555
H16 C16 1_555 1_555
C17 C16 1_555 1_555
H17 C17 1_555 1_555
H18 C17 1_555 1_555
C18 C17 1_555 1_555
H19 C18 1_555 1_555
C19 C18 1_555 1_555
H20 C19 1_555 1_555
C20 C15 1_555 1_555
C21 C20 1_555 1_555
H21 C21 1_555 1_555
C22 C21 1_555 1_555
C23 C22 1_555 1_555
H22 C23 1_555 1_555
C24 C23 1_555 1_555
H23 C24 1_555 1_555
C25 C24 1_555 1_555
C26 C25 1_555 1_555
H24 C26 1_555 1_555
C27 C22 1_555 1_555
H25 C27 1_555 1_555
C28 C25 1_555 1_555
H26 C28 1_555 1_555
H27 C28 1_555 1_555
H28 C28 1_555 1_555
O2 C15 1_555 1_555
C5 C6 1_555 1_555
C12 C13 1_555 1_555
C19 C20 1_555 1_555
C26 C27 1_555 1_555

#END
