
#######################################################################
#
#                 Cambridge Crystallographic Data Centre
#                                CCDC 
#
#######################################################################
#
# If this CIF has been generated from an entry in the Cambridge 
# Structural Database, then it will include bibliographic, chemical, 
# crystal, experimental, refinement or atomic coordinate data resulting 
# from the CCDC's data processing and validation procedures.
#
#######################################################################

data_JIXREO
_chemical_name_common            N,N'-bis(paeonol)-1,2-ethylenediamine
_chemical_formula_moiety         'C20 H24 N2 O4'
_chemical_name_systematic        
N,N'-bis(1-(2-Hydroxy-4-methyoxyphenyl)ethylidene)-1,2-ethylenediamine
_symmetry_cell_setting           monoclinic
_symmetry_space_group_name_H-M   'P 21/c'
_symmetry_Int_Tables_number      14
_space_group_name_Hall           '-P 2ybc'
loop_
_symmetry_equiv_pos_site_id
_symmetry_equiv_pos_as_xyz
1 x,y,z
2 -x,1/2+y,1/2-z
3 -x,-y,-z
4 x,1/2-y,1/2+z
_cell_length_a                   10.956(15)
_cell_length_b                   6.767(10)
_cell_length_c                   12.494(18)
_cell_angle_alpha                90
_cell_angle_beta                 104.66(2)
_cell_angle_gamma                90
_cell_volume                     896.14
_exptl_crystal_colour            yellow
_chemical_melting_point          '247 deg.C (dec.)'
_cell_formula_units_Z            2
_exptl_crystal_recrystallization_method methanol
loop_
_atom_site_label
_atom_site_type_symbol
_atom_site_fract_x
_atom_site_fract_y
_atom_site_fract_z
N1 N 0.4084(3) 0.5839(4) 0.8621(2)
O1 O 0.3042(2) 0.3516(4) 0.7111(2)
H1 H 0.3443 0.3875 0.7726
O2 O 0.0808(2) 0.6200(4) 0.36536(19)
C1 C 0.4038(3) 0.9428(5) 0.8428(3)
H2 H 0.4557 0.9368 0.9172
H3 H 0.3286 1.0166 0.8416
H4 H 0.4495 1.0066 0.7963
C2 C 0.3689(3) 0.7385(5) 0.8014(3)
C3 C 0.2903(3) 0.7045(5) 0.6897(3)
C4 C 0.2631(3) 0.5081(5) 0.6493(3)
C5 C 0.1924(3) 0.4775(5) 0.5401(3)
H5 H 0.1759 0.3494 0.5134
C6 C 0.1475(3) 0.6344(5) 0.4725(3)
C7 C 0.1701(3) 0.8279(6) 0.5128(3)
H6 H 0.1376 0.9346 0.4676
C8 C 0.2398(3) 0.8592(5) 0.6182(3)
H7 H 0.2543 0.9885 0.6435
C9 C 0.0523(4) 0.4274(6) 0.3178(3)
H8 H 0.0049 0.4401 0.2421
H9 H 0.0034 0.3554 0.3586
H10 H 0.1294 0.3577 0.3208
C10 C 0.4903(3) 0.6016(5) 0.9741(3)
H11 H 0.4518 0.6883 1.0180
H12 H 0.5709 0.6577 0.9713
N1B N 0.5916(3) 0.4161(4) 1.1379(2)
O1B O 0.6958(2) 0.6484(4) 1.2889(2)
H1B H 0.6557 0.6125 1.2274
O2B O 0.9192(2) 0.3800(4) 1.63464(19)
C1B C 0.5962(3) 0.0572(5) 1.1572(3)
H2B H 0.5443 0.0632 1.0828
H3B H 0.6714 -0.0166 1.1584
H4B H 0.5505 -0.0066 1.2037
C2B C 0.6311(3) 0.2615(5) 1.1986(3)
C3B C 0.7097(3) 0.2955(5) 1.3103(3)
C4B C 0.7369(3) 0.4919(5) 1.3507(3)
C5B C 0.8076(3) 0.5225(5) 1.4599(3)
H5B H 0.8241 0.6506 1.4866
C6B C 0.8525(3) 0.3656(5) 1.5275(3)
C7B C 0.8299(3) 0.1721(6) 1.4872(3)
H6B H 0.8624 0.0654 1.5324
C8B C 0.7602(3) 0.1408(5) 1.3818(3)
H7B H 0.7457 0.0115 1.3565
C9B C 0.9477(4) 0.5726(6) 1.6822(3)
H8B H 0.9951 0.5599 1.7579
H9B H 0.9966 0.6446 1.6414
H10B H 0.8706 0.6423 1.6792
C10B C 0.5097(3) 0.3984(5) 1.0259(3)
H11B H 0.5482 0.3117 0.9820
H12B H 0.4291 0.3423 1.0287
loop_
_geom_bond_atom_site_label_1
_geom_bond_atom_site_label_2
_geom_bond_site_symmetry_1
_geom_bond_site_symmetry_2
N1 C2 1_555 1_555
O1 H1 1_555 1_555
O2 C6 1_555 1_555
C1 H2 1_555 1_555
H3 C1 1_555 1_555
H4 C1 1_555 1_555
C2 C1 1_555 1_555
C3 C2 1_555 1_555
C4 O1 1_555 1_555
C5 C4 1_555 1_555
H5 C5 1_555 1_555
C6 C5 1_555 1_555
C7 C6 1_555 1_555
H6 C7 1_555 1_555
C8 C3 1_555 1_555
H7 C8 1_555 1_555
C9 O2 1_555 1_555
H8 C9 1_555 1_555
H9 C9 1_555 1_555
H10 C9 1_555 1_555
C10 N1 1_555 1_555
H11 C10 1_555 1_555
H12 C10 1_555 1_555
N1B C2B 1_555 1_555
O1B H1B 1_555 1_555
O2B C6B 1_555 1_555
C1B H2B 1_555 1_555
H3B C1B 1_555 1_555
H4B C1B 1_555 1_555
C2B C1B 1_555 1_555
C3B C2B 1_555 1_555
C4B O1B 1_555 1_555
C5B C4B 1_555 1_555
H5B C5B 1_555 1_555
C6B C5B 1_555 1_555
C7B C6B 1_555 1_555
H6B C7B 1_555 1_555
C8B C3B 1_555 1_555
H7B C8B 1_555 1_555
C9B O2B 1_555 1_555
H8B C9B 1_555 1_555
H9B C9B 1_555 1_555
H10B C9B 1_555 1_555
C10B C10 1_555 1_555
H11B C10B 1_555 1_555
H12B C10B 1_555 1_555
C3 C4 1_555 1_555
C7 C8 1_555 1_555
N1B C10B 1_555 1_555
C3B C4B 1_555 1_555
C7B C8B 1_555 1_555

#END
