
#######################################################################
#
#                 Cambridge Crystallographic Data Centre
#                                CCDC 
#
#######################################################################
#
# If this CIF has been generated from an entry in the Cambridge 
# Structural Database, then it will include bibliographic, chemical, 
# crystal, experimental, refinement or atomic coordinate data resulting 
# from the CCDC's data processing and validation procedures.
#
#######################################################################

data_JIYBOL
_chemical_formula_moiety         'C23 H21 N3 O2'
_chemical_name_systematic        
7-hydroxy-6,7b,12-trimethyl-6,7,7b,12,12a,13-hexahydro-5H-indolo[2,3-a]pyrrolo[3,4-c]carbazol-5-one
_symmetry_cell_setting           monoclinic
_symmetry_space_group_name_H-M   'P 21'
_symmetry_Int_Tables_number      4
_space_group_name_Hall           'P 2yb'
loop_
_symmetry_equiv_pos_site_id
_symmetry_equiv_pos_as_xyz
1 x,y,z
2 -x,1/2+y,-z
_cell_length_a                   10.59660(10)
_cell_length_b                   7.86090(10)
_cell_length_c                   11.87830(10)
_cell_angle_alpha                90
_cell_angle_beta                 114.1430(10)
_cell_angle_gamma                90
_cell_volume                     902.899
_exptl_crystal_colour            orangish
_exptl_crystal_description       block
_cell_formula_units_Z            2
loop_
_atom_site_label
_atom_site_type_symbol
_atom_site_fract_x
_atom_site_fract_y
_atom_site_fract_z
O1 O 0.86429(14) 0.45745(18) 0.24154(12)
H1 H 0.9219 0.4104 0.3025
O2 O 0.93566(15) 0.80749(19) 0.55625(13)
N1 N 0.41745(16) 0.4952(2) 0.32643(14)
N2 N 0.87650(17) 0.7068(2) 0.35978(15)
N3 N 0.57918(17) 0.3796(2) 0.62452(14)
H2 H 0.5111 0.3179 0.6222
C1 C 0.77009(19) 0.5493(2) 0.69380(17)
C2 C 0.39084(19) 0.4724(2) 0.20085(17)
C3 C 0.72066(19) 0.5278(2) 0.56183(16)
C4 C 0.60788(19) 0.4225(2) 0.52508(17)
C5 C 0.61461(18) 0.3592(2) 0.31709(16)
C6 C 0.86992(19) 0.7106(2) 0.47089(17)
C7 C 0.52565(19) 0.3680(2) 0.39469(17)
H3 H 0.4827 0.2572 0.3935
C8 C 0.71946(18) 0.5020(2) 0.35643(16)
C9 C 0.5036(2) 0.3695(3) 0.07390(17)
H4 H 0.5787 0.3186 0.0659
C10 C 0.76727(18) 0.5784(2) 0.46739(16)
C11 C 0.50352(19) 0.3953(2) 0.18877(17)
C12 C 0.6790(2) 0.4533(2) 0.72909(17)
C13 C 0.78907(19) 0.5752(2) 0.27864(16)
H5 H 0.7190 0.6291 0.2053
C14 C 0.6867(2) 0.1866(2) 0.32868(17)
H6 H 0.7547 0.1722 0.4116
H7 H 0.7309 0.1825 0.2725
H8 H 0.6194 0.0971 0.3092
C15 C 0.8807(2) 0.6349(3) 0.78532(17)
H9 H 0.9430 0.6972 0.7650
C16 C 0.2742(2) 0.5209(3) 0.09789(19)
H10 H 0.1979 0.5687 0.1058
C17 C 0.2759(2) 0.4952(3) -0.01765(18)
H11 H 0.1997 0.5283 -0.0879
C18 C 0.3878(2) 0.4217(3) -0.03040(18)
H12 H 0.3863 0.4068 -0.1086
C19 C 0.8956(2) 0.6251(3) 0.90678(18)
H13 H 0.9681 0.6827 0.9678
C20 C 0.9689(2) 0.8120(3) 0.32701(19)
H14 H 0.9520 0.9297 0.3375
H15 H 0.9527 0.7916 0.2425
H16 H 1.0630 0.7843 0.3794
C21 C 0.2999(2) 0.5052(3) 0.36074(19)
H17 H 0.2419 0.5990 0.3186
H18 H 0.3330 0.5216 0.4482
H19 H 0.2477 0.4014 0.3379
C22 C 0.8034(2) 0.5301(3) 0.93934(18)
H20 H 0.8163 0.5254 1.0216
C23 C 0.6941(2) 0.4436(3) 0.85191(19)
H21 H 0.6327 0.3812 0.8735
loop_
_geom_bond_atom_site_label_1
_geom_bond_atom_site_label_2
_geom_bond_site_symmetry_1
_geom_bond_site_symmetry_2
O1 H1 1_555 1_555
O2 C6 1_555 1_555
N1 C2 1_555 1_555
N2 C6 1_555 1_555
N3 H2 1_555 1_555
C1 C3 1_555 1_555
C2 C11 1_555 1_555
C3 C4 1_555 1_555
C4 N3 1_555 1_555
C5 C7 1_555 1_555
C6 C10 1_555 1_555
C7 N1 1_555 1_555
H3 C7 1_555 1_555
C8 C5 1_555 1_555
C9 H4 1_555 1_555
C10 C3 1_555 1_555
C11 C5 1_555 1_555
C12 N3 1_555 1_555
C13 O1 1_555 1_555
H5 C13 1_555 1_555
C14 C5 1_555 1_555
H6 C14 1_555 1_555
H7 C14 1_555 1_555
H8 C14 1_555 1_555
C15 C1 1_555 1_555
H9 C15 1_555 1_555
C16 C2 1_555 1_555
H10 C16 1_555 1_555
C17 C16 1_555 1_555
H11 C17 1_555 1_555
C18 C9 1_555 1_555
H12 C18 1_555 1_555
C19 C15 1_555 1_555
H13 C19 1_555 1_555
C20 N2 1_555 1_555
H14 C20 1_555 1_555
H15 C20 1_555 1_555
H16 C20 1_555 1_555
C21 N1 1_555 1_555
H17 C21 1_555 1_555
H18 C21 1_555 1_555
H19 C21 1_555 1_555
C22 C19 1_555 1_555
H20 C22 1_555 1_555
C23 C12 1_555 1_555
H21 C23 1_555 1_555
N2 C13 1_555 1_555
C1 C12 1_555 1_555
C4 C7 1_555 1_555
C8 C10 1_555 1_555
C8 C13 1_555 1_555
C9 C11 1_555 1_555
C17 C18 1_555 1_555
C22 C23 1_555 1_555

#END
