
#######################################################################
#
#                 Cambridge Crystallographic Data Centre
#                                CCDC 
#
#######################################################################
#
# If this CIF has been generated from an entry in the Cambridge 
# Structural Database, then it will include bibliographic, chemical, 
# crystal, experimental, refinement or atomic coordinate data resulting 
# from the CCDC's data processing and validation procedures.
#
#######################################################################

data_JIYDED
_chemical_formula_moiety         'C32 H23 N1 Si1'
_chemical_name_systematic        
9-{4-[(diphenylsilyl)ethynyl]phenyl}-9H-carbazole
_symmetry_cell_setting           orthorhombic
_symmetry_space_group_name_H-M   'P 21 21 21'
_symmetry_Int_Tables_number      19
_space_group_name_Hall           'P 2ac 2ab'
loop_
_symmetry_equiv_pos_site_id
_symmetry_equiv_pos_as_xyz
1 x,y,z
2 1/2-x,-y,1/2+z
3 -x,1/2+y,1/2-z
4 1/2+x,1/2-y,-z
_cell_length_a                   5.6846(3)
_cell_length_b                   8.4872(4)
_cell_length_c                   50.361(3)
_cell_angle_alpha                90
_cell_angle_beta                 90
_cell_angle_gamma                90
_cell_volume                     2429.73
_exptl_crystal_colour            colorless
_exptl_crystal_description       plate
_cell_formula_units_Z            4
_exptl_crystal_recrystallization_method 
'Re-crystallisation from solvent: hexane'
loop_
_atom_site_label
_atom_site_type_symbol
_atom_site_fract_x
_atom_site_fract_y
_atom_site_fract_z
Si1 Si 0.03635(13) 0.72222(8) 0.31670(2)
N1 N 0.9865(4) 1.1303(3) 0.43225(4)
C1 C 0.2419(5) 0.8017(3) 0.34113(5)
C2 C 0.3679(5) 0.8500(3) 0.35848(5)
C3 C 0.5197(5) 0.9141(3) 0.37866(5)
C4 C 0.7221(5) 0.8361(3) 0.38686(5)
H1 H 0.756410 0.734333 0.380051
C5 C 0.8747(5) 0.9059(3) 0.40495(5)
H2 H 1.012591 0.851858 0.410499
C6 C 0.8249(5) 1.0549(3) 0.41487(5)
C7 C 0.6202(5) 1.1310(3) 0.40753(5)
H3 H 0.583678 1.231070 0.414906
C8 C 0.4682(5) 1.0622(3) 0.38947(5)
H4 H 0.328365 1.115616 0.384380
C9 C 1.0948(5) 1.0634(3) 0.45452(5)
C10 C 1.2548(5) 1.1732(3) 0.46500(5)
C11 C 1.2452(5) 1.3119(3) 0.44851(5)
C12 C 1.0806(5) 1.2809(3) 0.42825(5)
C13 C 1.3684(6) 1.4541(4) 0.44840(6)
H5 H 1.475095 1.478511 0.462326
C14 C 1.3336(6) 1.5588(4) 0.42783(7)
H6 H 1.416977 1.655811 0.427595
C15 C 1.1769(6) 1.5235(4) 0.40739(7)
H7 H 1.158861 1.595988 0.393155
C16 C 1.0467(6) 1.3852(3) 0.40729(6)
H8 H 0.938528 1.362660 0.393423
C17 C 1.0591(6) 0.9186(4) 0.46633(6)
H9 H 0.947599 0.845972 0.459413
C18 C 1.1916(6) 0.8828(4) 0.48862(6)
H10 H 1.171069 0.783565 0.497020
C19 C 1.3541(6) 0.9889(4) 0.49901(6)
H11 H 1.443426 0.960555 0.514217
C20 C 1.3870(5) 1.1346(4) 0.48748(6)
H12 H 1.497173 1.207167 0.494668
C21 C 0.1623(5) 0.7340(3) 0.28264(5)
C22 C 0.3603(6) 0.8227(4) 0.27625(6)
H13 H 0.440227 0.879478 0.289778
C23 C 0.4420(6) 0.8290(4) 0.25034(7)
H14 H 0.577087 0.890141 0.246207
C24 C 0.3278(7) 0.7469(4) 0.23055(6)
H15 H 0.384055 0.752021 0.212810
C25 C 0.1339(7) 0.6580(4) 0.23638(6)
H16 H 0.056301 0.600849 0.222729
C26 C 0.0503(6) 0.6514(4) 0.26229(6)
H17 H -0.084835 0.589744 0.266206
C27 C -0.0322(5) 0.5137(3) 0.32546(5)
C28 C -0.2447(5) 0.4724(3) 0.33706(5)
H18 H -0.360754 0.551102 0.339954
C29 C -0.2909(6) 0.3177(4) 0.34455(6)
H19 H -0.436852 0.291645 0.352620
C30 C -0.1245(6) 0.2023(3) 0.34023(6)
H20 H -0.155599 0.096632 0.345381
C31 C 0.0872(5) 0.2403(3) 0.32841(6)
H21 H 0.202099 0.160905 0.325464
C32 C 0.1318(5) 0.3943(3) 0.32087(6)
H22 H 0.276508 0.419232 0.312417
H23 H -0.171(5) 0.812(3) 0.3199(5)
loop_
_geom_bond_atom_site_label_1
_geom_bond_atom_site_label_2
_geom_bond_site_symmetry_1
_geom_bond_site_symmetry_2
Si1 C1 1_555 1_555
N1 C6 1_555 1_555
C1 C2 1_555 1_555
C2 C3 1_555 1_555
C3 C4 1_555 1_555
C4 H1 1_555 1_555
C5 C4 1_555 1_555
H2 C5 1_555 1_555
C6 C5 1_555 1_555
C7 C6 1_555 1_555
H3 C7 1_555 1_555
C8 C3 1_555 1_555
H4 C8 1_555 1_555
C9 N1 1_555 1_555
C10 C9 1_555 1_555
C11 C10 1_555 1_555
C12 N1 1_555 1_555
C13 C11 1_555 1_555
H5 C13 1_555 1_555
C14 C13 1_555 1_555
H6 C14 1_555 1_555
C15 C14 1_555 1_555
H7 C15 1_555 1_555
C16 C12 1_555 1_555
H8 C16 1_555 1_555
C17 C9 1_555 1_555
H9 C17 1_555 1_555
C18 C17 1_555 1_555
H10 C18 1_555 1_555
C19 C18 1_555 1_555
H11 C19 1_555 1_555
C20 C10 1_555 1_555
H12 C20 1_555 1_555
C21 Si1 1_555 1_555
C22 C21 1_555 1_555
H13 C22 1_555 1_555
C23 C22 1_555 1_555
H14 C23 1_555 1_555
C24 C23 1_555 1_555
H15 C24 1_555 1_555
C25 C24 1_555 1_555
H16 C25 1_555 1_555
C26 C21 1_555 1_555
H17 C26 1_555 1_555
C27 Si1 1_555 1_555
C28 C27 1_555 1_555
H18 C28 1_555 1_555
C29 C28 1_555 1_555
H19 C29 1_555 1_555
C30 C29 1_555 1_555
H20 C30 1_555 1_555
C31 C30 1_555 1_555
H21 C31 1_555 1_555
C32 C27 1_555 1_555
H22 C32 1_555 1_555
H23 Si1 1_555 1_555
C7 C8 1_555 1_555
C11 C12 1_555 1_555
C15 C16 1_555 1_555
C19 C20 1_555 1_555
C25 C26 1_555 1_555
C31 C32 1_555 1_555

#END
