
#######################################################################
#
#                 Cambridge Crystallographic Data Centre
#                                CCDC 
#
#######################################################################
#
# If this CIF has been generated from an entry in the Cambridge 
# Structural Database, then it will include bibliographic, chemical, 
# crystal, experimental, refinement or atomic coordinate data resulting 
# from the CCDC's data processing and validation procedures.
#
#######################################################################

data_JIYMEM
_chemical_formula_moiety         'C28 H23 F3 N1 O2 P1'
_chemical_name_systematic        
N-{2'-[bis(4-methylphenyl)phosphoryl][1,1'-biphenyl]-2-yl}-2,2,2-trifluoroacetamide
_symmetry_cell_setting           monoclinic
_symmetry_space_group_name_H-M   'P 21/c'
_symmetry_Int_Tables_number      14
_space_group_name_Hall           '-P 2ybc'
loop_
_symmetry_equiv_pos_site_id
_symmetry_equiv_pos_as_xyz
1 x,y,z
2 -x,1/2+y,1/2-z
3 -x,-y,-z
4 x,1/2-y,1/2+z
_cell_length_a                   9.4724(4)
_cell_length_b                   16.2034(9)
_cell_length_c                   16.2956(9)
_cell_angle_alpha                90
_cell_angle_beta                 106.2281(17)
_cell_angle_gamma                90
_cell_volume                     2401.48
_exptl_crystal_colour            brown
_exptl_crystal_description       parallelepiped
_cell_formula_units_Z            4
loop_
_atom_site_label
_atom_site_type_symbol
_atom_site_fract_x
_atom_site_fract_y
_atom_site_fract_z
P1 P 0.54459(4) 0.22151(2) 0.23280(2)
F1 F 0.88375(12) 0.32393(8) 0.45188(7)
F2 F 1.0454(2) 0.41865(10) 0.48555(9)
F3 F 1.10594(14) 0.29753(11) 0.45578(9)
O1 O 0.68443(12) 0.21613(7) 0.30429(7)
O2 O 1.06082(15) 0.42852(9) 0.32280(9)
N1 N 0.86354(14) 0.33987(9) 0.28666(9)
H1 H 0.813(3) 0.3036(15) 0.3064(15)
C1 C 0.56205(16) 0.17216(9) 0.13740(10)
C2 C 0.45697(17) 0.18060(10) 0.05812(10)
H2 H 0.3732 0.2146 0.0529
C3 C 0.47514(18) 0.13925(10) -0.01294(10)
H3 H 0.4023 0.1445 -0.0662
C4 C 0.59849(18) 0.09021(10) -0.00735(10)
C5 C 0.70252(18) 0.08264(10) 0.07194(11)
H4 H 0.7871 0.0494 0.0770
C6 C 0.68473(17) 0.12282(10) 0.14362(10)
H5 H 0.7566 0.1166 0.1971
C7 C 0.6183(2) 0.04632(12) -0.08505(11)
H6 H 0.7105 0.0150 -0.0692
H7 H 0.5358 0.0085 -0.1074
H8 H 0.6215 0.0870 -0.1290
C8 C 0.39580(16) 0.17443(9) 0.26508(10)
C9 C 0.40161(17) 0.18166(10) 0.35134(10)
H9 H 0.4834 0.2080 0.3897
C10 C 0.28879(19) 0.15066(11) 0.38140(11)
H10 H 0.2942 0.1562 0.4402
C11 C 0.16788(19) 0.11151(11) 0.32668(12)
C12 C 0.16299(19) 0.10401(12) 0.24071(12)
H11 H 0.0815 0.0772 0.2025
C13 C 0.27538(18) 0.13508(11) 0.20976(11)
H12 H 0.2700 0.1295 0.1509
C14 C 0.0460(2) 0.07727(15) 0.35960(16)
H13 H -0.0292 0.0521 0.3123
H14 H 0.0861 0.0354 0.4033
H15 H 0.0019 0.1220 0.3846
C15 C 0.48711(16) 0.32729(9) 0.20611(10)
C16 C 0.36048(17) 0.35607(10) 0.22572(11)
H16 H 0.3065 0.3193 0.2509
C17 C 0.31240(18) 0.43672(11) 0.20922(12)
H17 H 0.2262 0.4548 0.2227
C18 C 0.39057(19) 0.49050(11) 0.17303(12)
H18 H 0.3583 0.5459 0.1615
C19 C 0.51680(18) 0.46357(10) 0.15347(12)
H19 H 0.5695 0.5011 0.1282
C20 C 0.56804(16) 0.38258(10) 0.17007(10)
C21 C 0.70003(17) 0.35995(10) 0.14138(10)
C22 C 0.6853(2) 0.36221(12) 0.05357(11)
H20 H 0.5921 0.3751 0.0154
C23 C 0.8022(2) 0.34629(14) 0.02044(12)
H21 H 0.7890 0.3476 -0.0395
C24 C 0.9392(2) 0.32837(14) 0.07619(13)
H22 H 1.0206 0.3178 0.0544
C25 C 0.95684(19) 0.32590(12) 0.16304(12)
H23 H 1.0503 0.3127 0.2007
C26 C 0.83917(17) 0.34259(10) 0.19621(10)
C27 C 0.97617(17) 0.37936(11) 0.34016(11)
C28 C 1.00113(18) 0.35521(12) 0.43428(11)
loop_
_geom_bond_atom_site_label_1
_geom_bond_atom_site_label_2
_geom_bond_site_symmetry_1
_geom_bond_site_symmetry_2
P1 O1 1_555 1_555
F1 C28 1_555 1_555
F2 C28 1_555 1_555
F3 C28 1_555 1_555
O2 C27 1_555 1_555
N1 H1 1_555 1_555
C1 P1 1_555 1_555
C2 C1 1_555 1_555
H2 C2 1_555 1_555
C3 C2 1_555 1_555
H3 C3 1_555 1_555
C4 C3 1_555 1_555
C5 C4 1_555 1_555
H4 C5 1_555 1_555
C6 C1 1_555 1_555
H5 C6 1_555 1_555
C7 C4 1_555 1_555
H6 C7 1_555 1_555
H7 C7 1_555 1_555
H8 C7 1_555 1_555
C8 P1 1_555 1_555
C9 C8 1_555 1_555
H9 C9 1_555 1_555
C10 C9 1_555 1_555
H10 C10 1_555 1_555
C11 C10 1_555 1_555
C12 C11 1_555 1_555
H11 C12 1_555 1_555
C13 C8 1_555 1_555
H12 C13 1_555 1_555
C14 C11 1_555 1_555
H13 C14 1_555 1_555
H14 C14 1_555 1_555
H15 C14 1_555 1_555
C15 P1 1_555 1_555
C16 C15 1_555 1_555
H16 C16 1_555 1_555
C17 C16 1_555 1_555
H17 C17 1_555 1_555
C18 C17 1_555 1_555
H18 C18 1_555 1_555
C19 C18 1_555 1_555
H19 C19 1_555 1_555
C20 C15 1_555 1_555
C21 C20 1_555 1_555
C22 C21 1_555 1_555
H20 C22 1_555 1_555
C23 C22 1_555 1_555
H21 C23 1_555 1_555
C24 C23 1_555 1_555
H22 C24 1_555 1_555
C25 C24 1_555 1_555
H23 C25 1_555 1_555
C26 N1 1_555 1_555
C27 N1 1_555 1_555
C28 C27 1_555 1_555
C5 C6 1_555 1_555
C12 C13 1_555 1_555
C19 C20 1_555 1_555
C21 C26 1_555 1_555
C25 C26 1_555 1_555

#END
