
#######################################################################
#
#                 Cambridge Crystallographic Data Centre
#                                CCDC 
#
#######################################################################
#
# If this CIF has been generated from an entry in the Cambridge 
# Structural Database, then it will include bibliographic, chemical, 
# crystal, experimental, refinement or atomic coordinate data resulting 
# from the CCDC's data processing and validation procedures.
#
#######################################################################

data_JIYMOW
_chemical_formula_moiety         'C31 H19 F5 N1 O2 P1'
_chemical_name_systematic        
N-[2'-(diphenylphosphoryl)[1,1'-biphenyl]-2-yl]-2,3,4,5,6-pentafluorobenzamide
_symmetry_cell_setting           triclinic
_symmetry_space_group_name_H-M   'P -1'
_symmetry_Int_Tables_number      2
_space_group_name_Hall           '-P 1'
loop_
_symmetry_equiv_pos_site_id
_symmetry_equiv_pos_as_xyz
1 x,y,z
2 -x,-y,-z
_cell_length_a                   8.9199(4)
_cell_length_b                   11.7275(6)
_cell_length_c                   13.1014(7)
_cell_angle_alpha                89.0678(18)
_cell_angle_beta                 81.1021(17)
_cell_angle_gamma                70.6043(16)
_cell_volume                     1276.27
_exptl_crystal_colour            yellow
_exptl_crystal_description       parallelepiped
_cell_formula_units_Z            2
loop_
_atom_site_label
_atom_site_type_symbol
_atom_site_fract_x
_atom_site_fract_y
_atom_site_fract_z
P1 P 0.25253(5) 0.33734(3) 0.18800(3)
F1 F -0.12748(13) 0.87317(11) 0.38397(9)
F2 F -0.20840(14) 1.05352(11) 0.25259(10)
F3 F 0.00624(16) 1.06753(10) 0.08655(9)
F4 F 0.30206(17) 0.89551(12) 0.05037(10)
F5 F 0.38652(15) 0.71634(11) 0.18340(10)
O1 O 0.11004(13) 0.44772(10) 0.22144(9)
O2 O 0.21057(16) 0.73947(11) 0.45180(10)
N1 N 0.20518(18) 0.58635(12) 0.34974(11)
H1 H 0.176(2) 0.5672(19) 0.2942(16)
C1 C 0.25787(19) 0.21043(14) 0.26777(11)
C2 C 0.1149(2) 0.20366(16) 0.32367(12)
H2 H 0.0160 0.2667 0.3208
C3 C 0.1176(2) 0.10437(18) 0.38354(14)
H3 H 0.0203 0.0996 0.4216
C4 C 0.2608(3) 0.01267(17) 0.38800(14)
H4 H 0.2618 -0.0553 0.4287
C5 C 0.4029(2) 0.01942(16) 0.33336(15)
H5 H 0.5016 -0.0436 0.3370
C6 C 0.4018(2) 0.11761(15) 0.27343(13)
H6 H 0.4998 0.1218 0.2359
C7 C 0.25103(18) 0.28783(14) 0.05860(12)
C8 C 0.3151(2) 0.16866(16) 0.02265(14)
H7 H 0.3629 0.1074 0.0674
C9 C 0.3103(3) 0.13773(18) -0.07836(15)
H8 H 0.3547 0.0555 -0.1022
C10 C 0.2418(2) 0.22527(18) -0.14376(14)
H9 H 0.2409 0.2039 -0.2132
C11 C 0.1744(3) 0.34399(18) -0.10872(15)
H10 H 0.1243 0.4045 -0.1534
C12 C 0.1799(3) 0.37521(17) -0.00800(14)
H11 H 0.1343 0.4575 0.0157
C13 C 0.44393(19) 0.35988(14) 0.18667(12)
C14 C 0.5461(2) 0.35165(17) 0.09283(14)
H12 H 0.5114 0.3394 0.0302
C15 C 0.6974(2) 0.3611(2) 0.08991(16)
H13 H 0.7655 0.3559 0.0255
C16 C 0.7489(2) 0.37803(19) 0.18032(17)
H14 H 0.8535 0.3829 0.1785
C17 C 0.6483(2) 0.38807(17) 0.27430(15)
H15 H 0.6851 0.4004 0.3362
C18 C 0.49457(19) 0.38049(14) 0.27994(13)
C19 C 0.39602(19) 0.39096(14) 0.38466(12)
C20 C 0.4487(2) 0.30204(16) 0.45573(14)
H16 H 0.5430 0.2344 0.4352
C21 C 0.3665(3) 0.31046(18) 0.55523(15)
H17 H 0.4041 0.2489 0.6023
C22 C 0.2294(2) 0.40846(18) 0.58627(14)
H18 H 0.1715 0.4136 0.6543
C23 C 0.1767(2) 0.49885(16) 0.51843(13)
H19 H 0.0833 0.5668 0.5401
C24 C 0.2596(2) 0.49080(15) 0.41853(13)
C25 C 0.18639(19) 0.70155(15) 0.37227(13)
C26 C 0.1322(2) 0.78961(14) 0.28817(13)
C27 C -0.0180(2) 0.87708(16) 0.30260(13)
C28 C -0.0615(2) 0.96938(16) 0.23536(14)
C29 C 0.0465(2) 0.97630(16) 0.15079(14)
C30 C 0.1963(2) 0.88926(17) 0.13272(15)
C31 C 0.2376(2) 0.79758(16) 0.20133(15)
loop_
_geom_bond_atom_site_label_1
_geom_bond_atom_site_label_2
_geom_bond_site_symmetry_1
_geom_bond_site_symmetry_2
P1 O1 1_555 1_555
F1 C27 1_555 1_555
F2 C28 1_555 1_555
F3 C29 1_555 1_555
F4 C30 1_555 1_555
F5 C31 1_555 1_555
O2 C25 1_555 1_555
N1 H1 1_555 1_555
C1 P1 1_555 1_555
C2 C1 1_555 1_555
H2 C2 1_555 1_555
C3 C2 1_555 1_555
H3 C3 1_555 1_555
C4 C3 1_555 1_555
H4 C4 1_555 1_555
C5 C4 1_555 1_555
H5 C5 1_555 1_555
C6 C1 1_555 1_555
H6 C6 1_555 1_555
C7 P1 1_555 1_555
C8 C7 1_555 1_555
H7 C8 1_555 1_555
C9 C8 1_555 1_555
H8 C9 1_555 1_555
C10 C9 1_555 1_555
H9 C10 1_555 1_555
C11 C10 1_555 1_555
H10 C11 1_555 1_555
C12 C7 1_555 1_555
H11 C12 1_555 1_555
C13 P1 1_555 1_555
C14 C13 1_555 1_555
H12 C14 1_555 1_555
C15 C14 1_555 1_555
H13 C15 1_555 1_555
C16 C15 1_555 1_555
H14 C16 1_555 1_555
C17 C16 1_555 1_555
H15 C17 1_555 1_555
C18 C13 1_555 1_555
C19 C18 1_555 1_555
C20 C19 1_555 1_555
H16 C20 1_555 1_555
C21 C20 1_555 1_555
H17 C21 1_555 1_555
C22 C21 1_555 1_555
H18 C22 1_555 1_555
C23 C22 1_555 1_555
H19 C23 1_555 1_555
C24 N1 1_555 1_555
C25 N1 1_555 1_555
C26 C25 1_555 1_555
C27 C26 1_555 1_555
C28 C27 1_555 1_555
C29 C28 1_555 1_555
C30 C29 1_555 1_555
C31 C26 1_555 1_555
C5 C6 1_555 1_555
C11 C12 1_555 1_555
C17 C18 1_555 1_555
C19 C24 1_555 1_555
C23 C24 1_555 1_555
C30 C31 1_555 1_555

#END
