
#######################################################################
#
#                 Cambridge Crystallographic Data Centre
#                                CCDC 
#
#######################################################################
#
# If this CIF has been generated from an entry in the Cambridge 
# Structural Database, then it will include bibliographic, chemical, 
# crystal, experimental, refinement or atomic coordinate data resulting 
# from the CCDC's data processing and validation procedures.
#
#######################################################################

data_JIYNIR
_chemical_formula_moiety         'C19 H8 F5 N1 O1'
_chemical_name_systematic        
(9H-carbazol-9-yl)(pentafluorophenyl)methanone
_symmetry_cell_setting           monoclinic
_symmetry_space_group_name_H-M   'P 21/c'
_symmetry_Int_Tables_number      14
_space_group_name_Hall           '-P 2ybc'
loop_
_symmetry_equiv_pos_site_id
_symmetry_equiv_pos_as_xyz
1 x,y,z
2 -x,1/2+y,1/2-z
3 -x,-y,-z
4 x,1/2-y,1/2+z
_cell_length_a                   9.2787(5)
_cell_length_b                   7.3134(4)
_cell_length_c                   21.4190(12)
_cell_angle_alpha                90
_cell_angle_beta                 100.6570(17)
_cell_angle_gamma                90
_cell_volume                     1428.4
_exptl_crystal_colour            yellow
_exptl_crystal_description       parallelepiped
_cell_formula_units_Z            4
loop_
_atom_site_label
_atom_site_type_symbol
_atom_site_fract_x
_atom_site_fract_y
_atom_site_fract_z
F1 F 0.04147(10) 0.08513(12) 0.17273(4)
F2 F 0.28621(10) -0.01110(13) 0.13078(4)
F3 F 0.49655(10) -0.21285(14) 0.20625(5)
F4 F 0.45878(10) -0.31757(13) 0.32306(4)
F5 F 0.22023(9) -0.21236(12) 0.36785(4)
O1 O -0.13266(11) -0.06317(16) 0.26132(5)
N1 N -0.01083(12) 0.07287(16) 0.35134(5)
C1 C 0.10645(14) 0.17732(18) 0.38732(6)
C2 C 0.23949(15) 0.23332(19) 0.37272(7)
H1 H 0.2664 0.2016 0.3334
C3 C 0.33162(16) 0.3373(2) 0.41757(7)
H2 H 0.4240 0.3750 0.4090
C4 C 0.29183(16) 0.3880(2) 0.47490(7)
H3 H 0.3578 0.4575 0.5050
C5 C 0.15682(16) 0.3375(2) 0.48814(7)
H4 H 0.1284 0.3741 0.5267
C6 C 0.06369(15) 0.23223(19) 0.44407(6)
C7 C -0.08293(15) 0.16315(18) 0.44338(7)
C8 C -0.17600(16) 0.1766(2) 0.48730(7)
H5 H -0.1457 0.2390 0.5264
C9 C -0.31327(16) 0.0973(2) 0.47273(7)
H6 H -0.3789 0.1074 0.5018
C10 C -0.35641(16) 0.0027(2) 0.41591(8)
H7 H -0.4510 -0.0516 0.4072
C11 C -0.26480(16) -0.0145(2) 0.37159(7)
H8 H -0.2946 -0.0801 0.3331
C12 C -0.12809(15) 0.06837(19) 0.38610(6)
C13 C -0.01763(15) -0.01370(19) 0.29365(7)
C14 C 0.12425(15) -0.05659(19) 0.27232(6)
C15 C 0.14390(15) -0.01037(19) 0.21142(6)
C16 C 0.26894(16) -0.0597(2) 0.18908(6)
C17 C 0.37577(15) -0.1618(2) 0.22729(7)
C18 C 0.35724(15) -0.21407(19) 0.28717(7)
C19 C 0.23320(15) -0.16030(19) 0.30916(6)
loop_
_geom_bond_atom_site_label_1
_geom_bond_atom_site_label_2
_geom_bond_site_symmetry_1
_geom_bond_site_symmetry_2
F1 C15 1_555 1_555
F2 C16 1_555 1_555
F3 C17 1_555 1_555
F4 C18 1_555 1_555
F5 C19 1_555 1_555
O1 C13 1_555 1_555
N1 C1 1_555 1_555
C1 C2 1_555 1_555
C2 H1 1_555 1_555
C3 C2 1_555 1_555
H2 C3 1_555 1_555
C4 C3 1_555 1_555
H3 C4 1_555 1_555
C5 C4 1_555 1_555
H4 C5 1_555 1_555
C6 C1 1_555 1_555
C7 C6 1_555 1_555
C8 C7 1_555 1_555
H5 C8 1_555 1_555
C9 C8 1_555 1_555
H6 C9 1_555 1_555
C10 C9 1_555 1_555
H7 C10 1_555 1_555
C11 C10 1_555 1_555
H8 C11 1_555 1_555
C12 N1 1_555 1_555
C13 N1 1_555 1_555
C14 C13 1_555 1_555
C15 C14 1_555 1_555
C16 C15 1_555 1_555
C17 C16 1_555 1_555
C18 C17 1_555 1_555
C19 C14 1_555 1_555
C5 C6 1_555 1_555
C7 C12 1_555 1_555
C11 C12 1_555 1_555
C18 C19 1_555 1_555

#END
