
#######################################################################
#
#                 Cambridge Crystallographic Data Centre
#                                CCDC 
#
#######################################################################
#
# If this CIF has been generated from an entry in the Cambridge 
# Structural Database, then it will include bibliographic, chemical, 
# crystal, experimental, refinement or atomic coordinate data resulting 
# from the CCDC's data processing and validation procedures.
#
#######################################################################

data_JIYSOC
_chemical_formula_moiety         'C43 H36 N4'
_chemical_name_systematic        
"10-[4-(4,6-diphenyl-1,3,5-triazin-2-yl)phenyl]-10H-spiro[acridine-9,2'-tricyclo[3.3.1.1^3,7^]decane] unknown solvate"
_symmetry_cell_setting           monoclinic
_symmetry_space_group_name_H-M   'P 21/c'
_symmetry_Int_Tables_number      14
_space_group_name_Hall           '-P 2ybc'
loop_
_symmetry_equiv_pos_site_id
_symmetry_equiv_pos_as_xyz
1 x,y,z
2 -x,1/2+y,1/2-z
3 -x,-y,-z
4 x,1/2-y,1/2+z
_cell_length_a                   21.1598(4)
_cell_length_b                   8.2287(2)
_cell_length_c                   21.1527(6)
_cell_angle_alpha                90
_cell_angle_beta                 102.215(2)
_cell_angle_gamma                90
_cell_volume                     3599.68
_cell_formula_units_Z            4
loop_
_atom_site_label
_atom_site_type_symbol
_atom_site_fract_x
_atom_site_fract_y
_atom_site_fract_z
N1 N 0.25551(13) -0.0975(3) 0.46747(16)
N2 N 0.50728(13) 0.2966(4) 0.43137(16)
N3 N 0.52760(13) 0.2724(4) 0.54582(16)
N4 N 0.59704(14) 0.4319(4) 0.49706(18)
C1 C 0.31651(14) -0.0272(4) 0.47217(18)
C2 C 0.20924(15) -0.1157(4) 0.40878(18)
C3 C 0.14695(15) -0.0509(4) 0.40675(17)
C4 C 0.14006(14) 0.0566(4) 0.46395(17)
C5 C 0.22740(16) -0.1246(4) 0.52307(18)
C6 C 0.16600(16) -0.0576(4) 0.52133(17)
C7 C 0.43497(15) 0.1395(4) 0.48153(18)
C8 C 0.55962(16) 0.3936(4) 0.4403(2)
C9 C 0.33824(17) 0.0188(4) 0.41652(19)
H1 H 0.313442 -0.006033 0.375883
C10 C 0.49329(15) 0.2396(4) 0.48657(18)
C11 C 0.57871(15) 0.3686(4) 0.5490(2)
C12 C 0.39626(17) 0.1007(4) 0.4215(2)
H2 H 0.409687 0.130487 0.384028
C13 C 0.18441(15) 0.2116(4) 0.46821(17)
H3 H 0.229187 0.176896 0.470785
C14 C 0.09768(16) -0.1038(4) 0.3573(2)
H4 H 0.055472 -0.071520 0.356904
C15 C 0.57588(18) 0.4682(5) 0.3818(2)
C16 C 0.35608(17) 0.0098(5) 0.53247(19)
H5 H 0.343183 -0.020450 0.570181
C17 C 0.61681(17) 0.4097(4) 0.6139(2)
C18 C 0.07014(16) 0.1223(4) 0.46000(19)
H6 H 0.039929 0.031030 0.457214
C19 C 0.22147(17) -0.2131(5) 0.3592(2)
H7 H 0.263134 -0.250552 0.360179
C20 C 0.16292(16) 0.3182(4) 0.40783(18)
H8 H 0.192125 0.409706 0.409604
H9 H 0.164438 0.255402 0.369356
C21 C 0.41383(17) 0.0905(5) 0.5364(2)
H10 H 0.439365 0.112871 0.576974
C22 C 0.04911(16) 0.2343(5) 0.4007(2)
H11 H 0.049404 0.173417 0.361475
H12 H 0.005344 0.272202 0.398803
C23 C 0.13237(18) -0.1130(4) 0.5668(2)
H13 H 0.090082 -0.078613 0.564501
C24 C 0.10961(19) -0.2046(4) 0.3079(2)
H14 H 0.075700 -0.237842 0.274914
C25 C 0.18106(18) 0.3121(5) 0.5285(2)
H15 H 0.193567 0.245185 0.566890
H16 H 0.210918 0.402766 0.532185
C26 C 0.09425(19) 0.3796(5) 0.4044(2)
H17 H 0.080816 0.446502 0.365592
C27 C 0.66383(18) 0.5328(5) 0.6211(2)
H18 H 0.671143 0.588188 0.585039
C28 C 0.25576(19) -0.2313(5) 0.5709(2)
H19 H 0.296731 -0.273152 0.571539
C29 C 0.1122(2) 0.3757(5) 0.5237(2)
H20 H 0.110470 0.439588 0.562410
C30 C 0.17168(19) -0.2541(5) 0.3083(2)
H21 H 0.180166 -0.315552 0.274188
C31 C 0.1608(2) -0.2184(5) 0.6154(2)
H22 H 0.138144 -0.250861 0.646397
C32 C 0.0668(2) 0.2281(5) 0.5202(2)
H23 H 0.022832 0.265146 0.517445
H24 H 0.079455 0.163345 0.559126
C33 C 0.6073(2) 0.3275(6) 0.6679(2)
H25 H 0.576536 0.245414 0.663705
C34 C 0.6297(2) 0.5680(6) 0.3869(3)
H26 H 0.656857 0.584679 0.427088
C35 C 0.2222(2) -0.2756(5) 0.6181(2)
H27 H 0.241455 -0.344124 0.651638
C36 C 0.6992(2) 0.5715(5) 0.6820(3)
H28 H 0.729766 0.654251 0.686707
C37 C 0.0925(2) 0.4822(5) 0.4642(2)
H29 H 0.122072 0.573215 0.466635
H30 H 0.049303 0.524588 0.461793
C38 C 0.5364(2) 0.4445(6) 0.3211(3)
H31 H 0.500391 0.377647 0.317124
C39 C 0.6895(2) 0.4888(7) 0.7356(3)
H32 H 0.713776 0.514603 0.776404
C40 C 0.6437(2) 0.3671(7) 0.7286(3)
H33 H 0.637026 0.311153 0.764874
C41 C 0.6434(3) 0.6432(7) 0.3325(3)
C42 C 0.5495(3) 0.5184(8) 0.2658(3)
C43 C 0.6045(3) 0.6182(7) 0.2734(3)
H34 H 0.614422 0.668144 0.237235
H35? H 0.517215 0.233513 0.579962
loop_
_geom_bond_atom_site_label_1
_geom_bond_atom_site_label_2
_geom_bond_site_symmetry_1
_geom_bond_site_symmetry_2
N1 C1 1_555 1_555
N2 C8 1_555 1_555
N3 C10 1_555 1_555
N4 C8 1_555 1_555
C1 C9 1_555 1_555
C2 N1 1_555 1_555
C3 C2 1_555 1_555
C4 C3 1_555 1_555
C5 N1 1_555 1_555
C6 C4 1_555 1_555
C7 C10 1_555 1_555
C8 C15 1_555 1_555
C9 H1 1_555 1_555
C10 N2 1_555 1_555
C11 N3 1_555 1_555
C12 C7 1_555 1_555
H2 C12 1_555 1_555
C13 C4 1_555 1_555
H3 C13 1_555 1_555
C14 C3 1_555 1_555
H4 C14 1_555 1_555
C15 C34 1_555 1_555
C16 C1 1_555 1_555
H5 C16 1_555 1_555
C17 C11 1_555 1_555
C18 C4 1_555 1_555
H6 C18 1_555 1_555
C19 C2 1_555 1_555
H7 C19 1_555 1_555
C20 C13 1_555 1_555
H8 C20 1_555 1_555
H9 C20 1_555 1_555
C21 C7 1_555 1_555
H10 C21 1_555 1_555
C22 C18 1_555 1_555
H11 C22 1_555 1_555
H12 C22 1_555 1_555
C23 C6 1_555 1_555
H13 C23 1_555 1_555
C24 C14 1_555 1_555
H14 C24 1_555 1_555
C25 C13 1_555 1_555
H15 C25 1_555 1_555
H16 C25 1_555 1_555
C26 C20 1_555 1_555
H17 C26 1_555 1_555
C27 C17 1_555 1_555
H18 C27 1_555 1_555
C28 C5 1_555 1_555
H19 C28 1_555 1_555
C29 C25 1_555 1_555
H20 C29 1_555 1_555
C30 C19 1_555 1_555
H21 C30 1_555 1_555
C31 C23 1_555 1_555
H22 C31 1_555 1_555
C32 C18 1_555 1_555
H23 C32 1_555 1_555
H24 C32 1_555 1_555
C33 C17 1_555 1_555
H25 C33 1_555 1_555
C34 H26 1_555 1_555
C35 C28 1_555 1_555
H27 C35 1_555 1_555
C36 C27 1_555 1_555
H28 C36 1_555 1_555
C37 C26 1_555 1_555
H29 C37 1_555 1_555
H30 C37 1_555 1_555
C38 C15 1_555 1_555
H31 C38 1_555 1_555
C39 C36 1_555 1_555
H32 C39 1_555 1_555
C40 C33 1_555 1_555
H33 C40 1_555 1_555
C41 C34 1_555 1_555
C42 C38 1_555 1_555
C43 C41 1_555 1_555
H34 C43 1_555 1_555
N4 C11 1_555 1_555
C5 C6 1_555 1_555
C9 C12 1_555 1_555
C16 C21 1_555 1_555
C22 C26 1_555 1_555
C24 C30 1_555 1_555
C29 C32 1_555 1_555
C29 C37 1_555 1_555
C31 C35 1_555 1_555
C39 C40 1_555 1_555
C42 C43 1_555 1_555

#END
