
#######################################################################
#
#                 Cambridge Crystallographic Data Centre
#                                CCDC 
#
#######################################################################
#
# If this CIF has been generated from an entry in the Cambridge 
# Structural Database, then it will include bibliographic, chemical, 
# crystal, experimental, refinement or atomic coordinate data resulting 
# from the CCDC's data processing and validation procedures.
#
#######################################################################

data_JIYVAO
_chemical_formula_moiety         'C29 H24 N2 O2 S1'
_chemical_name_systematic        
10-Benzyl-2-((3,4-dimethoxyphenyl)methyl)phenothiazine-1-carbonitrile
_symmetry_cell_setting           triclinic
_symmetry_space_group_name_H-M   'P -1'
_symmetry_Int_Tables_number      2
_space_group_name_Hall           '-P 1'
loop_
_symmetry_equiv_pos_site_id
_symmetry_equiv_pos_as_xyz
1 x,y,z
2 -x,-y,-z
_cell_length_a                   9.967(3)
_cell_length_b                   10.912(3)
_cell_length_c                   12.258(3)
_cell_angle_alpha                71.07(2)
_cell_angle_beta                 67.26(2)
_cell_angle_gamma                75.61(2)
_cell_volume                     1151.41
_exptl_crystal_colour            colorless
_cell_formula_units_Z            2
loop_
_atom_site_label
_atom_site_type_symbol
_atom_site_fract_x
_atom_site_fract_y
_atom_site_fract_z
C1 C 0.31442(17) 0.46502(15) 0.13095(14)
C2 C 0.41408(18) 0.37307(16) 0.18307(15)
C3 C 0.49654(20) 0.41643(18) 0.22763(17)
C4 C 0.47905(20) 0.54667(19) 0.22462(17)
S1 S 0.33564(6) 0.79582(5) 0.20020(5)
C5 C 0.31710(20) 1.00880(17) 0.00834(19)
C6 C 0.27322(20) 1.07633(18) -0.09131(19)
C7 C 0.20461(21) 1.01665(18) -0.13392(19)
C8 C 0.17722(20) 0.88864(17) -0.07627(18)
N1 N 0.18295(15) 0.69160(13) 0.09060(13)
C9 C 0.37226(18) 0.63594(16) 0.18219(15)
C10 C 0.28861(17) 0.88059(16) 0.06802(16)
C11 C 0.21598(17) 0.82032(15) 0.02708(15)
C12 C 0.28797(17) 0.59783(15) 0.13366(14)
C13 C 0.24863(19) 0.41734(16) 0.06970(16)
N2 N 0.20493(20) 0.37160(17) 0.02026(17)
C14 C 0.42991(24) 0.22906(18) 0.19316(17)
C15 C 0.34270(18) 0.15233(15) 0.31798(15)
C16 C 0.40622(19) 0.02743(16) 0.36627(16)
C17 C 0.33179(18) -0.04933(15) 0.47737(15)
C18 C 0.18903(18) -0.00140(16) 0.54419(15)
C19 C 0.12659(20) 0.12251(17) 0.49734(17)
C20 C 0.20273(20) 0.19904(17) 0.38466(17)
C21 C 0.04633(19) 0.65744(17) 0.09559(17)
C22 C -0.03599(17) 0.58081(15) 0.22127(15)
C23 C -0.09900(21) 0.47467(18) 0.23432(18)
C24 C -0.17972(23) 0.40668(21) 0.34841(21)
C25 C -0.19913(24) 0.44451(24) 0.45048(21)
C26 C -0.13902(25) 0.55052(25) 0.43892(21)
C27 C -0.05734(22) 0.61789(20) 0.32504(19)
O1 O 0.38702(13) -0.17279(11) 0.52954(12)
C28 C 0.52738(23) -0.22652(20) 0.46040(21)
O2 O 0.12345(13) -0.08521(12) 0.65274(11)
C29 C -0.02416(23) -0.04327(26) 0.72000(21)
H1 H 0.5689(21) 0.3522(19) 0.2587(17)
H2 H 0.5378(21) 0.5764(18) 0.2534(17)
H3 H 0.3668(21) 1.0472(19) 0.0364(17)
H4 H 0.2938(20) 1.1627(19) -0.1315(17)
H5 H 0.1728(23) 1.0613(20) -0.2047(20)
H6 H 0.1322(22) 0.8460(19) -0.1096(18)
H7 H 0.5345(24) 0.1912(19) 0.1773(18)
H8 H 0.4048(24) 0.2182(21) 0.1276(22)
H9 H 0.5027(20) -0.0039(16) 0.3206(15)
H10 H 0.0273(21) 0.1567(18) 0.5423(17)
H11 H 0.1560(19) 0.2842(18) 0.3531(16)
H12 H 0.0596(20) 0.6110(18) 0.0325(17)
H13 H -0.0169(22) 0.7425(20) 0.0753(18)
H14 H -0.0820(21) 0.4487(19) 0.1601(18)
H15 H -0.2201(25) 0.3322(23) 0.3566(20)
H16 H -0.2482(28) 0.3974(24) 0.5261(24)
H17 H -0.1520(27) 0.5772(24) 0.5086(24)
H18 H -0.0130(23) 0.6944(21) 0.3160(19)
H19 H 0.5417(23) -0.3161(22) 0.5074(20)
H20 H 0.6035(23) -0.1765(20) 0.4475(18)
H21 H -0.0525(22) -0.1202(21) 0.7891(20)
H22 H -0.0264(25) 0.0319(23) 0.7508(21)
H23 H -0.0862(24) -0.0206(21) 0.6723(20)
loop_
_geom_bond_atom_site_label_1
_geom_bond_atom_site_label_2
_geom_bond_site_symmetry_1
_geom_bond_site_symmetry_2
C1 C2 1_555 1_555
C2 C3 1_555 1_555
C3 C4 1_555 1_555
C4 C9 1_555 1_555
S1 C9 1_555 1_555
C5 C6 1_555 1_555
C6 C7 1_555 1_555
C7 C8 1_555 1_555
C8 C11 1_555 1_555
N1 C11 1_555 1_555
C9 C12 1_555 1_555
C10 S1 1_555 1_555
C11 C10 1_555 1_555
C12 C1 1_555 1_555
C13 C1 1_555 1_555
N2 C13 1_555 1_555
C14 C2 1_555 1_555
C15 C14 1_555 1_555
C16 C15 1_555 1_555
C17 C16 1_555 1_555
C18 C17 1_555 1_555
C19 C18 1_555 1_555
C20 C15 1_555 1_555
C21 N1 1_555 1_555
C22 C21 1_555 1_555
C23 C22 1_555 1_555
C24 C23 1_555 1_555
C25 C24 1_555 1_555
C26 C25 1_555 1_555
C27 C22 1_555 1_555
O1 C17 1_555 1_555
C28 O1 1_555 1_555
O2 C18 1_555 1_555
C29 O2 1_555 1_555
H1 C3 1_555 1_555
H2 C4 1_555 1_555
H3 C5 1_555 1_555
H4 C6 1_555 1_555
H5 C7 1_555 1_555
H6 C8 1_555 1_555
H7 C14 1_555 1_555
H8 C14 1_555 1_555
H9 C16 1_555 1_555
H10 C19 1_555 1_555
H11 C20 1_555 1_555
H12 C21 1_555 1_555
H13 C21 1_555 1_555
H14 C23 1_555 1_555
H15 C24 1_555 1_555
H16 C25 1_555 1_555
H17 C26 1_555 1_555
H18 C27 1_555 1_555
H19 C28 1_555 1_555
H20 C28 1_555 1_555
H21 C29 1_555 1_555
H22 C29 1_555 1_555
H23 C29 1_555 1_555
C5 C10 1_555 1_555
N1 C12 1_555 1_555
C19 C20 1_555 1_555
C26 C27 1_555 1_555

#END
