
#######################################################################
#
#                 Cambridge Crystallographic Data Centre
#                                CCDC 
#
#######################################################################
#
# If this CIF has been generated from an entry in the Cambridge 
# Structural Database, then it will include bibliographic, chemical, 
# crystal, experimental, refinement or atomic coordinate data resulting 
# from the CCDC's data processing and validation procedures.
#
#######################################################################

data_JIYZAU
_chemical_formula_moiety         'C18 H14 F3 N1 O4 S1'
_chemical_name_systematic        
'methyl (1,1-dioxido-2-(2,4,5-trifluorobenzyl)-2H-1,2-benzothiazin-4-yl)acetate'
_symmetry_cell_setting           monoclinic
_symmetry_space_group_name_H-M   'C 2/c'
_symmetry_Int_Tables_number      15
_space_group_name_Hall           '-C 2yn'
loop_
_symmetry_equiv_pos_site_id
_symmetry_equiv_pos_as_xyz
1 x,y,z
2 -x,y,1/2-z
3 1/2+x,1/2+y,z
4 1/2-x,1/2+y,1/2-z
5 -x,-y,-z
6 x,-y,1/2+z
7 1/2-x,1/2-y,-z
8 1/2+x,1/2-y,1/2+z
_cell_length_a                   18.947(5)
_cell_length_b                   8.529(2)
_cell_length_c                   22.067(6)
_cell_angle_alpha                90
_cell_angle_beta                 110.800(3)
_cell_angle_gamma                90
_cell_volume                     3333.59
_exptl_crystal_colour            colorless
_exptl_crystal_description       Prism
_cell_formula_units_Z            8
_exptl_crystal_recrystallization_method Ethanol
loop_
_atom_site_label
_atom_site_type_symbol
_atom_site_fract_x
_atom_site_fract_y
_atom_site_fract_z
S1 S 0.433426(19) 0.45134(4) 0.588127(17)
F1 F 0.52472(7) 0.98739(13) 0.57148(5)
F2 F 0.59846(7) 1.12414(16) 0.79182(7)
F3 F 0.61385(6) 0.81867(17) 0.82452(5)
O1 O 0.45696(6) 0.32852(13) 0.55483(6)
O2 O 0.46244(7) 0.44377(14) 0.65745(5)
O3 O 0.27522(7) 0.71296(13) 0.29579(5)
O4 O 0.29496(7) 0.48468(13) 0.34970(5)
N1 N 0.45661(6) 0.62343(14) 0.56659(6)
C1 C 0.33518(8) 0.46315(16) 0.55668(6)
C2 C 0.29617(8) 0.36961(17) 0.58590(7)
H1 H 0.3225 0.3151 0.6250
C3 C 0.21831(9) 0.35690(18) 0.55733(7)
H2 H 0.1908 0.2935 0.5766
C4 C 0.18091(8) 0.43812(17) 0.50013(8)
H3 H 0.1276 0.4291 0.4804
C5 C 0.21993(8) 0.53165(17) 0.47154(7)
H4 H 0.1929 0.5860 0.4326
C6 C 0.29897(8) 0.54782(15) 0.49904(6)
C7 C 0.34199(8) 0.64970(16) 0.47185(6)
C8 C 0.41467(8) 0.68378(16) 0.50540(6)
H5 H 0.4394 0.7541 0.4861
C9 C 0.53798(8) 0.66477(18) 0.59684(7)
H6 H 0.5562 0.7045 0.5628
H7 H 0.5670 0.5688 0.6154
C10 C 0.55319(7) 0.78635(18) 0.64936(7)
C11 C 0.54641(9) 0.94470(19) 0.63472(8)
C12 C 0.56031(10) 1.0614(2) 0.68058(10)
H8 H 0.5540 1.1689 0.6686
C13 C 0.58370(10) 1.0158(2) 0.74448(9)
C14 C 0.59138(9) 0.8594(2) 0.76121(8)
C15 C 0.57594(8) 0.7441(2) 0.71467(7)
H9 H 0.5807 0.6367 0.7269
C16 C 0.30488(8) 0.73047(17) 0.40765(6)
H10 H 0.3370 0.8196 0.4047
H11 H 0.2558 0.7737 0.4062
C17 C 0.29146(7) 0.62547(17) 0.34934(6)
C18 C 0.26519(10) 0.6300(2) 0.23606(7)
H12 H 0.3140 0.5891 0.2372
H13 H 0.2449 0.7019 0.1993
H14 H 0.2299 0.5428 0.2313
loop_
_geom_bond_atom_site_label_1
_geom_bond_atom_site_label_2
_geom_bond_site_symmetry_1
_geom_bond_site_symmetry_2
S1 O1 1_555 1_555
F1 C11 1_555 1_555
F2 C13 1_555 1_555
F3 C14 1_555 1_555
O2 S1 1_555 1_555
O3 C17 1_555 1_555
O4 C17 1_555 1_555
N1 S1 1_555 1_555
C1 S1 1_555 1_555
C2 C1 1_555 1_555
H1 C2 1_555 1_555
C3 C2 1_555 1_555
H2 C3 1_555 1_555
C4 C3 1_555 1_555
H3 C4 1_555 1_555
C5 C4 1_555 1_555
H4 C5 1_555 1_555
C6 C1 1_555 1_555
C7 C6 1_555 1_555
C8 N1 1_555 1_555
H5 C8 1_555 1_555
C9 N1 1_555 1_555
H6 C9 1_555 1_555
H7 C9 1_555 1_555
C10 C9 1_555 1_555
C11 C10 1_555 1_555
C12 C11 1_555 1_555
H8 C12 1_555 1_555
C13 C12 1_555 1_555
C14 C13 1_555 1_555
C15 C10 1_555 1_555
H9 C15 1_555 1_555
C16 C7 1_555 1_555
H10 C16 1_555 1_555
H11 C16 1_555 1_555
C17 C16 1_555 1_555
C18 O3 1_555 1_555
H12 C18 1_555 1_555
H13 C18 1_555 1_555
H14 C18 1_555 1_555
C5 C6 1_555 1_555
C7 C8 1_555 1_555
C14 C15 1_555 1_555

#END
