
#######################################################################
#
#                 Cambridge Crystallographic Data Centre
#                                CCDC 
#
#######################################################################
#
# If this CIF has been generated from an entry in the Cambridge 
# Structural Database, then it will include bibliographic, chemical, 
# crystal, experimental, refinement or atomic coordinate data resulting 
# from the CCDC's data processing and validation procedures.
#
#######################################################################

data_JIZCOM
_chemical_formula_moiety         'C21 H23 Br1 F1 N4 O7 P1'
_chemical_name_systematic        
'diethyl (3-(4-bromophenyl)-1-((2,4-dinitrophenyl)hydrazono)-2-fluoropent-4-en-2-yl)phosphonate'
_symmetry_cell_setting           monoclinic
_symmetry_space_group_name_H-M   'C 2'
_symmetry_Int_Tables_number      5
_space_group_name_Hall           'C 2y'
loop_
_symmetry_equiv_pos_site_id
_symmetry_equiv_pos_as_xyz
1 x,y,z
2 -x,y,-z
3 1/2+x,1/2+y,z
4 1/2-x,1/2+y,-z
_cell_length_a                   21.4800(19)
_cell_length_b                   15.0402(13)
_cell_length_c                   15.6870(14)
_cell_angle_alpha                90
_cell_angle_beta                 95.205(2)
_cell_angle_gamma                90
_cell_volume                     5047
_exptl_crystal_colour            colorless
_exptl_crystal_description       prismatic
_cell_formula_units_Z            8
_exptl_crystal_recrystallization_method 'hexane/ethyl acetate'
loop_
_atom_site_label
_atom_site_type_symbol
_atom_site_fract_x
_atom_site_fract_y
_atom_site_fract_z
Br1 Br 0.14995(5) 1.00707(6) 0.74858(6)
P1 P 0.42112(8) 0.74985(13) 0.86422(12)
F1 F 0.32798(16) 0.6480(2) 0.8924(2)
N1 N 0.4022(3) 0.5699(5) 1.0022(4)
N2 N 0.4389(3) 0.5188(4) 1.0594(4)
N3 N 0.4079(4) 0.1514(5) 1.0309(5)
N4 N 0.5200(3) 0.4007(6) 1.1670(4)
O1 O 0.4771(2) 0.6958(4) 0.8610(3)
O2 O 0.3821(2) 0.7613(4) 0.7771(3)
O3 O 0.4313(3) 0.8448(4) 0.8986(4)
O4 O 0.3638(4) 0.1240(4) 0.9848(5)
O5 O 0.4444(4) 0.1037(5) 1.0730(6)
O6 O 0.5550(3) 0.3446(5) 1.2021(4)
O7 O 0.5255(3) 0.4789(5) 1.1826(4)
C1 C 0.3674(3) 0.7064(5) 0.9400(4)
C2 C 0.4065(3) 0.6517(6) 1.0052(4)
H1 H 0.4335 0.6792 1.0469
C3 C 0.3280(3) 0.7739(4) 0.9845(4)
H2 H 0.3574 0.8148 1.0158
C4 C 0.2923(3) 0.7285(5) 1.0500(5)
H3 H 0.2648 0.6835 1.0311
C5 C 0.2969(5) 0.7469(8) 1.1298(6)
H4 H 0.3240 0.7915 1.1512
H5 H 0.2732 0.7158 1.1666
C6 C 0.2855(3) 0.8303(5) 0.9238(4)
C7 C 0.2908(3) 0.9215(5) 0.9251(5)
H6 H 0.3221 0.9480 0.9615
C8 C 0.2508(4) 0.9741(5) 0.8737(5)
H7 H 0.2551 1.0357 0.8744
C9 C 0.2046(4) 0.9346(6) 0.8216(5)
C10 C 0.1979(3) 0.8450(6) 0.8177(5)
H8 H 0.1672 0.8191 0.7801
C11 C 0.2372(3) 0.7937(5) 0.8699(5)
H9 H 0.2316 0.7324 0.8695
C12 C 0.4331(3) 0.4306(5) 1.0550(4)
C13 C 0.3872(3) 0.3923(5) 0.9957(5)
H10 H 0.3615 0.4296 0.9608
C14 C 0.3794(3) 0.3031(5) 0.9881(5)
H11 H 0.3486 0.2800 0.9487
C15 C 0.4175(3) 0.2467(5) 1.0392(5)
C16 C 0.4625(3) 0.2795(5) 1.0984(4)
H12 H 0.4874 0.2411 1.1333
C17 C 0.4705(3) 0.3719(5) 1.1056(4)
C18 C 0.3857(5) 0.6965(9) 0.7087(6)
H13 H 0.4135 0.6484 0.7281
H14 H 0.4021 0.7245 0.6597
C19 C 0.3219(7) 0.6608(10) 0.6838(8)
H15 H 0.3085 0.6255 0.7298
H16 H 0.3228 0.6247 0.6335
H17 H 0.2933 0.7093 0.6722
C20 C 0.474(2) 0.9007(17) 0.854(2)
H18 H 0.5128 0.9090 0.8906
H19 H 0.4840 0.8716 0.8021
C21 C 0.4452(12) 0.9872(12) 0.8340(14)
H20 H 0.4052 0.9785 0.8028
H21 H 0.4716 1.0210 0.7998
H22 H 0.4401 1.0187 0.8861
H23 H 0.466(2) 0.547(3) 1.087(3)
Br2 Br 0.15318(4) 0.65569(6) 0.25446(6)
P2 P 0.40428(8) 0.92780(16) 0.35599(11)
F2 F 0.4094(2) 0.8405(3) 0.4975(3)
N5 N 0.4047(3) 1.0740(6) 0.5089(4)
N6 N 0.4411(3) 1.1302(5) 0.5618(4)
N7 N 0.4031(5) 1.4969(7) 0.5291(6)
N8 N 0.5207(3) 1.2537(7) 0.6660(4)
O8 O 0.4679(3) 0.9593(5) 0.3511(3)
O9 O 0.3512(2) 0.9868(4) 0.3142(3)
O10 O 0.3903(3) 0.8341(4) 0.3164(3)
O11 O 0.3568(5) 1.5195(6) 0.4855(5)
O12 O 0.4386(4) 1.5464(6) 0.5705(6)
O13 O 0.5559(3) 1.3096(5) 0.6983(4)
O14 O 0.5272(3) 1.1752(6) 0.6818(5)
C24 C 0.3825(3) 0.9219(5) 0.4680(4)
C25 C 0.4173(3) 0.9934(7) 0.5190(4)
H29 H 0.4495 0.9771 0.5597
C26 C 0.3133(3) 0.9203(7) 0.4803(5)
C27 C 0.3115(7) 0.8921(12) 0.5771(10)
H30 H 0.3311 0.8395 0.5955
C28 C 0.2847(8) 0.9377(13) 0.6310(11)
H31 H 0.2647 0.9906 0.6142
H32 H 0.2849 0.9183 0.6873
C29 C 0.2744(3) 0.8544(5) 0.4256(4)
C30 C 0.2821(4) 0.7635(6) 0.4357(5)
H33 H 0.3122 0.7418 0.4768
C31 C 0.2464(4) 0.7061(6) 0.3867(5)
H34 H 0.2511 0.6452 0.3955
C32 C 0.2033(3) 0.7368(6) 0.3242(5)
C33 C 0.1940(3) 0.8257(5) 0.3132(4)
H35 H 0.1634 0.8465 0.2723
C34 C 0.2303(3) 0.8845(6) 0.3636(5)
H36 H 0.2248 0.9453 0.3554
C35 C 0.4327(3) 1.2189(6) 0.5541(4)
C36 C 0.3863(3) 1.2555(7) 0.4950(5)
H37 H 0.3612 1.2170 0.4605
C37 C 0.3766(4) 1.3436(7) 0.4863(5)
H38 H 0.3453 1.3654 0.4470
C38 C 0.4144(4) 1.4016(6) 0.5373(5)
C39 C 0.4607(4) 1.3702(7) 0.5933(5)
H39 H 0.4862 1.4102 0.6254
C40 C 0.4709(3) 1.2818(7) 0.6041(4)
C41 C 0.3557(11) 1.0411(15) 0.2382(13)
H40 H 0.3956 1.0317 0.2154
H41 H 0.3519 1.1036 0.2520
C42 C 0.3012(9) 1.0120(14) 0.1716(10)
H42 H 0.3070 0.9511 0.1558
H43 H 0.3009 1.0490 0.1217
H44 H 0.2621 1.0180 0.1963
C43 C 0.4358(11) 0.7637(15) 0.2981(12)
H45 H 0.4771 0.7895 0.2969
H46 H 0.4238 0.7377 0.2424
C44 C 0.4373(10) 0.6919(12) 0.3667(10)
H47 H 0.4561 0.7153 0.4198
H48 H 0.4614 0.6422 0.3497
H49 H 0.3955 0.6728 0.3738
H50 H 0.465(2) 1.109(3) 0.603(3)
H51 H 0.299(3) 0.980(5) 0.466(4)
C22? C 0.475(2) 0.926(2) 0.879(3)
H24? H 0.4782 0.9697 0.9240
H25? H 0.5161 0.9068 0.8656
C23? C 0.4352(19) 0.955(5) 0.802(2)
H26? H 0.3930 0.9628 0.8165
H27? H 0.4361 0.9116 0.7578
H28? H 0.4506 1.0109 0.7826
C45? C 0.2924(12) 0.9341(18) 0.5663(14)
H52? H 0.2524 0.9570 0.5683
C46? C 0.3231(12) 0.9182(17) 0.6381(13)
H53? H 0.3634 0.8953 0.6399
H54? H 0.3051 0.9296 0.6888
C47? C 0.3592(18) 1.000(2) 0.216(2)
H55? H 0.4005 1.0216 0.2068
H56? H 0.3513 0.9447 0.1843
C48? C 0.3170(17) 1.058(2) 0.1959(19)
H57? H 0.2774 1.0364 0.2116
H58? H 0.3143 1.0680 0.1353
H59? H 0.3275 1.1121 0.2257
C49? C 0.4521(18) 0.775(2) 0.331(2)
H60? H 0.4814 0.7899 0.2894
H61? H 0.4724 0.7832 0.3880
C50? C 0.4297(16) 0.690(2) 0.3190(19)
H62? H 0.4023 0.6758 0.3622
H63? H 0.4642 0.6486 0.3231
H64? H 0.4072 0.6846 0.2634
loop_
_geom_bond_atom_site_label_1
_geom_bond_atom_site_label_2
_geom_bond_site_symmetry_1
_geom_bond_site_symmetry_2
Br1 C9 1_555 1_555
P1 O1 1_555 1_555
F1 C1 1_555 1_555
N1 N2 1_555 1_555
N2 C12 1_555 1_555
N3 O4 1_555 1_555
N4 O6 1_555 1_555
O2 P1 1_555 1_555
O3 P1 1_555 1_555
O5 N3 1_555 1_555
O7 N4 1_555 1_555
C1 P1 1_555 1_555
C2 N1 1_555 1_555
H1 C2 1_555 1_555
C3 C1 1_555 1_555
H2 C3 1_555 1_555
C4 C3 1_555 1_555
H3 C4 1_555 1_555
C5 C4 1_555 1_555
H4 C5 1_555 1_555
H5 C5 1_555 1_555
C6 C3 1_555 1_555
C7 C6 1_555 1_555
H6 C7 1_555 1_555
C8 C7 1_555 1_555
H7 C8 1_555 1_555
C9 C8 1_555 1_555
C10 C9 1_555 1_555
H8 C10 1_555 1_555
C11 C6 1_555 1_555
H9 C11 1_555 1_555
C12 C13 1_555 1_555
C13 H10 1_555 1_555
C14 C13 1_555 1_555
H11 C14 1_555 1_555
C15 N3 1_555 1_555
C16 C15 1_555 1_555
H12 C16 1_555 1_555
C17 N4 1_555 1_555
C18 O2 1_555 1_555
H13 C18 1_555 1_555
H14 C18 1_555 1_555
C19 C18 1_555 1_555
H15 C19 1_555 1_555
H16 C19 1_555 1_555
H17 C19 1_555 1_555
C20 O3 1_555 1_555
H18 C20 1_555 1_555
H19 C20 1_555 1_555
C21 C20 1_555 1_555
H20 C21 1_555 1_555
H21 C21 1_555 1_555
H22 C21 1_555 1_555
H23 N2 1_555 1_555
Br2 C32 1_555 1_555
P2 O8 1_555 1_555
F2 C24 1_555 1_555
N5 N6 1_555 1_555
N6 C35 1_555 1_555
N7 O11 1_555 1_555
N8 O13 1_555 1_555
O9 P2 1_555 1_555
O10 P2 1_555 1_555
O12 N7 1_555 1_555
O14 N8 1_555 1_555
C24 P2 1_555 1_555
C25 N5 1_555 1_555
H29 C25 1_555 1_555
C26 C24 1_555 1_555
C27 C26 1_555 1_555
H30 C27 1_555 1_555
C28 C27 1_555 1_555
H31 C28 1_555 1_555
H32 C28 1_555 1_555
C29 C26 1_555 1_555
C30 C29 1_555 1_555
H33 C30 1_555 1_555
C31 C30 1_555 1_555
H34 C31 1_555 1_555
C32 C31 1_555 1_555
C33 C32 1_555 1_555
H35 C33 1_555 1_555
C34 C29 1_555 1_555
H36 C34 1_555 1_555
C35 C36 1_555 1_555
C36 H37 1_555 1_555
C37 C36 1_555 1_555
H38 C37 1_555 1_555
C38 N7 1_555 1_555
C39 C38 1_555 1_555
H39 C39 1_555 1_555
C40 N8 1_555 1_555
C41 O9 1_555 1_555
H40 C41 1_555 1_555
H41 C41 1_555 1_555
C42 C41 1_555 1_555
H42 C42 1_555 1_555
H43 C42 1_555 1_555
H44 C42 1_555 1_555
C43 O10 1_555 1_555
H45 C43 1_555 1_555
H46 C43 1_555 1_555
C44 C43 1_555 1_555
H47 C44 1_555 1_555
H48 C44 1_555 1_555
H49 C44 1_555 1_555
H50 N6 1_555 1_555
H51 C26 1_555 1_555
C1 C2 1_555 1_555
C10 C11 1_555 1_555
C12 C17 1_555 1_555
C14 C15 1_555 1_555
C16 C17 1_555 1_555
C24 C25 1_555 1_555
C33 C34 1_555 1_555
C35 C40 1_555 1_555
C37 C38 1_555 1_555
C39 C40 1_555 1_555

#END
