
#######################################################################
#
#                 Cambridge Crystallographic Data Centre
#                                CCDC 
#
#######################################################################
#
# If this CIF has been generated from an entry in the Cambridge 
# Structural Database, then it will include bibliographic, chemical, 
# crystal, experimental, refinement or atomic coordinate data resulting 
# from the CCDC's data processing and validation procedures.
#
#######################################################################

data_JIZQIT
_chemical_formula_moiety         'C13 H18 B1 N1 Si1'
_chemical_name_systematic        
1,2-Dihydro-2-phenyl-1-(trimethylsilyl)-1,2-azaborine
_symmetry_cell_setting           monoclinic
_symmetry_space_group_name_H-M   'P 21/c'
_symmetry_Int_Tables_number      14
_space_group_name_Hall           '-P 2ybc'
loop_
_symmetry_equiv_pos_site_id
_symmetry_equiv_pos_as_xyz
1 x,y,z
2 -x,1/2+y,1/2-z
3 -x,-y,-z
4 x,1/2-y,1/2+z
_cell_length_a                   10.0235(12)
_cell_length_b                   15.6305(19)
_cell_length_c                   8.5246(11)
_cell_angle_alpha                90
_cell_angle_beta                 96.184(2)
_cell_angle_gamma                90
_cell_volume                     1327.8
_exptl_crystal_colour            colorless
_exptl_crystal_description       prism
_cell_formula_units_Z            4
loop_
_atom_site_label
_atom_site_type_symbol
_atom_site_fract_x
_atom_site_fract_y
_atom_site_fract_z
B1 B 0.88078(13) 0.06885(8) 0.27841(15)
N1 N 0.84589(9) 0.13525(6) 0.38522(11)
Si1 Si 0.70136(3) 0.13443(2) 0.49370(4)
C1 C 0.92463(12) 0.20858(8) 0.39999(14)
H1 H 0.9027 0.2514 0.4721
C2 C 1.03089(12) 0.22259(8) 0.31759(15)
H2 H 1.0806 0.2742 0.3332
C3 C 1.06859(13) 0.16132(9) 0.20881(15)
H3 H 1.1430 0.1722 0.1515
C4 C 0.99872(12) 0.08668(8) 0.18558(14)
H4 H 1.0238 0.0460 0.1114
C5 C 0.79919(11) -0.01762(7) 0.25844(13)
C6 C 0.72504(13) -0.03727(9) 0.11397(15)
H5 H 0.7263 0.0013 0.0279
C7 C 0.64989(14) -0.11170(10) 0.09393(16)
H6 H 0.5994 -0.1232 -0.0046
C8 C 0.64814(13) -0.16932(9) 0.21696(16)
H7 H 0.5954 -0.2198 0.2037
C9 C 0.72355(12) -0.15294(8) 0.35931(15)
H8 H 0.7241 -0.1928 0.4435
C10 C 0.79857(12) -0.07820(7) 0.37921(14)
H9 H 0.8507 -0.0680 0.4772
C11 C 0.66009(13) 0.24748(8) 0.53886(15)
H10 H 0.7310 0.2712 0.6145
H11 H 0.5744 0.2494 0.5843
H12 H 0.6531 0.2813 0.4415
C12 C 0.73913(14) 0.07665(9) 0.68347(14)
H13 H 0.7539 0.0159 0.6625
H14 H 0.6634 0.0826 0.7464
H15 H 0.8200 0.1009 0.7417
C13 C 0.55398(12) 0.08924(8) 0.37005(15)
H16 H 0.5477 0.1148 0.2646
H17 H 0.4721 0.1019 0.4189
H18 H 0.5645 0.0271 0.3615
loop_
_geom_bond_atom_site_label_1
_geom_bond_atom_site_label_2
_geom_bond_site_symmetry_1
_geom_bond_site_symmetry_2
B1 N1 1_555 1_555
N1 Si1 1_555 1_555
Si1 C11 1_555 1_555
C1 N1 1_555 1_555
H1 C1 1_555 1_555
C2 C1 1_555 1_555
H2 C2 1_555 1_555
C3 C2 1_555 1_555
H3 C3 1_555 1_555
C4 B1 1_555 1_555
H4 C4 1_555 1_555
C5 B1 1_555 1_555
C6 C5 1_555 1_555
H5 C6 1_555 1_555
C7 C6 1_555 1_555
H6 C7 1_555 1_555
C8 C7 1_555 1_555
H7 C8 1_555 1_555
C9 C8 1_555 1_555
H8 C9 1_555 1_555
C10 C5 1_555 1_555
H9 C10 1_555 1_555
C11 H10 1_555 1_555
H11 C11 1_555 1_555
H12 C11 1_555 1_555
C12 Si1 1_555 1_555
H13 C12 1_555 1_555
H14 C12 1_555 1_555
H15 C12 1_555 1_555
C13 Si1 1_555 1_555
H16 C13 1_555 1_555
H17 C13 1_555 1_555
H18 C13 1_555 1_555
C3 C4 1_555 1_555
C9 C10 1_555 1_555

#END
