
#######################################################################
#
#                 Cambridge Crystallographic Data Centre
#                                CCDC 
#
#######################################################################
#
# If this CIF has been generated from an entry in the Cambridge 
# Structural Database, then it will include bibliographic, chemical, 
# crystal, experimental, refinement or atomic coordinate data resulting 
# from the CCDC's data processing and validation procedures.
#
#######################################################################

data_JIZQAM
_chemical_formula_moiety         'C54 H36 O8,6(C3 H7 N1 O1)'
_chemical_name_systematic        
"4',4'',4''',4''''-ethene-1,1,2,2-tetrayltetrabiphenyl-4-carboxylic acid N,N-dimethylformamide solvate"
_symmetry_cell_setting           orthorhombic
_symmetry_space_group_name_H-M   'F d d 2'
_symmetry_Int_Tables_number      43
_space_group_name_Hall           'F 2 -2d'
loop_
_symmetry_equiv_pos_site_id
_symmetry_equiv_pos_as_xyz
1 x,y,z
2 -x,-y,z
3 1/4-x,1/4+y,1/4+z
4 1/4+x,1/4-y,1/4+z
5 x,1/2+y,1/2+z
6 -x,1/2-y,1/2+z
7 1/4-x,3/4+y,3/4+z
8 1/4+x,3/4-y,3/4+z
9 1/2+x,y,1/2+z
10 1/2-x,-y,1/2+z
11 3/4-x,1/4+y,3/4+z
12 3/4+x,1/4-y,3/4+z
13 1/2+x,1/2+y,z
14 1/2-x,1/2-y,z
15 3/4-x,3/4+y,1/4+z
16 3/4+x,3/4-y,1/4+z
_cell_length_a                   20.588(6)
_cell_length_b                   78.02(2)
_cell_length_c                   8.621(2)
_cell_angle_alpha                90
_cell_angle_beta                 90
_cell_angle_gamma                90
_cell_volume                     13847.7
_exptl_crystal_colour            colorless
_exptl_crystal_description       Block
_cell_formula_units_Z            8
_chemical_properties_physical    Moisture-sensitive
_exptl_crystal_preparation       Luminescent
loop_
_atom_site_label
_atom_site_type_symbol
_atom_site_fract_x
_atom_site_fract_y
_atom_site_fract_z
O1 O 0.5324(2) -0.02776(8) 0.6729(6)
H1 H 0.5642 -0.0332 0.6371
O2 O 0.4945(2) -0.05411(8) 0.6985(7)
C1 C 0.4880(4) -0.03752(14) 0.6972(9)
C2 C 0.42004(12) -0.03052(4) 0.7165(4)
C3 C 0.40740(14) -0.01324(4) 0.6914(4)
H2 H 0.4421 -0.0056 0.6691
C4 C 0.34403(16) -0.00715(4) 0.6990(5)
H3 H 0.3354 0.0047 0.6819
C5 C 0.29330(13) -0.01834(5) 0.7317(5)
C6 C 0.30595(13) -0.03562(5) 0.7568(5)
H4 H 0.2713 -0.0433 0.7792
C7 C 0.36932(14) -0.04171(4) 0.7492(5)
H5 H 0.3780 -0.0535 0.7664
C8 C 0.22351(10) -0.01218(3) 0.7273(3)
C9 C 0.20506(12) 0.00014(3) 0.6195(3)
H6 H 0.2363 0.0048 0.5503
C10 C 0.14087(13) 0.00562(4) 0.6128(4)
H7 H 0.1283 0.0140 0.5391
C11 C 0.09514(10) -0.00122(4) 0.7140(4)
C12 C 0.11358(11) -0.01354(4) 0.8218(4)
H8 H 0.0823 -0.0182 0.8910
C13 C 0.17777(11) -0.01901(3) 0.8285(3)
H9 H 0.1904 -0.0274 0.9022
C14 C 0.0258(2) 0.00524(5) 0.7056(5)
C15 C 0.02151(10) 0.02462(2) 0.6984(3)
C16 C 0.05256(13) 0.03427(3) 0.8119(4)
H10 H 0.0758 0.0287 0.8927
C17 C 0.04962(16) 0.05206(3) 0.8071(4)
H11 H 0.0708 0.0587 0.8846
C18 C 0.01563(16) 0.06020(2) 0.6889(5)
C19 C -0.01542(16) 0.05055(3) 0.5754(4)
H12 H -0.0387 0.0561 0.4946
C20 C -0.01248(13) 0.03276(3) 0.5802(3)
H13 H -0.0337 0.0262 0.5027
O3 O 0.0616(2) 0.14215(5) 0.7176(11)
O4 O -0.0319(2) 0.14184(6) 0.5966(11)
H14 H -0.0341 0.1520 0.6295
C21 C 0.01586(13) 0.07951(3) 0.6788(5)
C22 C 0.06691(16) 0.08874(4) 0.7433(7)
H15 H 0.1024 0.0829 0.7895
C23 C 0.0660(2) 0.10655(4) 0.7403(8)
H16 H 0.1009 0.1129 0.7844
C24 C 0.0140(2) 0.11514(3) 0.6727(9)
C25 C -0.0370(2) 0.10591(4) 0.6082(9)
H17 H -0.0725 0.1118 0.5620
C26 C -0.03610(17) 0.08810(4) 0.6113(7)
H18 H -0.0710 0.0818 0.5672
C27 C 0.0153(4) 0.13420(8) 0.6619(17)
O1A O -0.5324(2) 0.02776(8) 0.6729(6)
H1A H -0.5642 0.0332 0.6371
O2A O -0.4945(2) 0.05411(8) 0.6985(7)
C1A C -0.4880(4) 0.03752(14) 0.6972(9)
C2A C -0.42004(12) 0.03052(4) 0.7165(4)
C3A C -0.40740(14) 0.01324(4) 0.6914(4)
H2A H -0.4421 0.0056 0.6691
C4A C -0.34403(16) 0.00715(4) 0.6990(5)
H3A H -0.3354 -0.0047 0.6819
C5A C -0.29330(13) 0.01834(5) 0.7317(5)
C6A C -0.30595(13) 0.03562(5) 0.7568(5)
H4A H -0.2713 0.0433 0.7792
C7A C -0.36932(14) 0.04171(4) 0.7492(5)
H5A H -0.3780 0.0535 0.7664
C8A C -0.22351(10) 0.01218(3) 0.7273(3)
C9A C -0.20506(12) -0.00014(3) 0.6195(3)
H6A H -0.2363 -0.0048 0.5503
C10A C -0.14087(13) -0.00562(4) 0.6128(4)
H7A H -0.1283 -0.0140 0.5391
C11A C -0.09514(10) 0.00122(4) 0.7140(4)
C12A C -0.11358(11) 0.01354(4) 0.8218(4)
H8A H -0.0823 0.0182 0.8910
C13A C -0.17777(11) 0.01901(3) 0.8285(3)
H9A H -0.1904 0.0274 0.9022
C14A C -0.0258(2) -0.00524(5) 0.7056(5)
C15A C -0.02151(10) -0.02462(2) 0.6984(3)
C16A C -0.05256(13) -0.03427(3) 0.8119(4)
H10A H -0.0758 -0.0287 0.8927
C17A C -0.04962(16) -0.05206(3) 0.8071(4)
H11A H -0.0708 -0.0587 0.8846
C18A C -0.01563(16) -0.06020(2) 0.6889(5)
C19A C 0.01542(16) -0.05055(3) 0.5754(4)
H12A H 0.0387 -0.0561 0.4946
C20A C 0.01248(13) -0.03276(3) 0.5802(3)
H13A H 0.0337 -0.0262 0.5027
O3A O -0.0616(2) -0.14215(5) 0.7176(11)
O4A O 0.0319(2) -0.14184(6) 0.5966(11)
H14A H 0.0341 -0.1520 0.6295
C21A C -0.01586(13) -0.07951(3) 0.6788(5)
C22A C -0.06691(16) -0.08874(4) 0.7433(7)
H15A H -0.1024 -0.0829 0.7895
C23A C -0.0660(2) -0.10655(4) 0.7403(8)
H16A H -0.1009 -0.1129 0.7844
C24A C -0.0140(2) -0.11514(3) 0.6727(9)
C25A C 0.0370(2) -0.10591(4) 0.6082(9)
H17A H 0.0725 -0.1118 0.5620
C26A C 0.03610(17) -0.08810(4) 0.6113(7)
H18A H 0.0710 -0.0818 0.5672
C27A C -0.0153(4) -0.13420(8) 0.6619(17)
O5 O 0.3240(3) -0.08173(12) 0.9091(3)
C28 C 0.34641(11) -0.085315(18) 0.7742(3)
H19 H 0.3454 -0.0780 0.6858
N1 N 0.37183(10) -0.10136(2) 0.7803(3)
C29 C 0.42943(8) -0.10621(4) 0.6925(3)
H20 H 0.4473 -0.0961 0.6405
H21 H 0.4177 -0.1148 0.6148
H22 H 0.4620 -0.1110 0.7632
C30 C 0.34152(14) -0.11505(2) 0.8699(4)
H23 H 0.3017 -0.1107 0.9186
H24 H 0.3716 -0.1190 0.9504
H25 H 0.3308 -0.1246 0.8009
O6 O 0.6271(3) -0.04841(3) 0.5613(8)
C31 C 0.61662(13) -0.063915(19) 0.6002(2)
H26 H 0.5967 -0.0676 0.6940
N2 N 0.63836(13) -0.07434(2) 0.4866(2)
C32 C 0.68635(13) -0.06950(7) 0.3722(3)
H27 H 0.6879 -0.0570 0.3637
H28 H 0.6746 -0.0744 0.2715
H29 H 0.7291 -0.0738 0.4039
C33 C 0.6378(4) -0.09290(2) 0.4975(7)
H30 H 0.6051 -0.0965 0.5736
H31 H 0.6807 -0.0970 0.5303
H32 H 0.6272 -0.0978 0.3959
O7 O 0.18506(13) -0.07632(6) 0.4283(4)
C34 C 0.22736(13) -0.070023(15) 0.3361(4)
H33 H 0.2540 -0.0774 0.2760
N3 N 0.23433(10) -0.052860(19) 0.3239(3)
C35 C 0.27996(15) -0.04478(3) 0.2183(4)
H34 H 0.3103 -0.0534 0.1785
H35 H 0.3042 -0.0359 0.2736
H36 H 0.2562 -0.0396 0.1316
C36 C 0.18883(15) -0.04061(3) 0.3888(7)
H37 H 0.1587 -0.0466 0.4583
H38 H 0.1644 -0.0351 0.3047
H39 H 0.2127 -0.0319 0.4471
O8? O 0.2990(4) -0.07408(10) 0.4323(15)
N4? N 0.2258(5) -0.05114(12) 0.4035(19)
C37? C 0.24185(14) -0.06743(2) 0.4600(7)
H40? H 0.2110 -0.0737 0.5190
C38? C 0.2729(4) -0.03943(4) 0.3485(9)
H41? H 0.3134 -0.0456 0.3263
H42? H 0.2809 -0.0307 0.4276
H43? H 0.2570 -0.0340 0.2535
C39? C 0.16468(17) -0.04322(4) 0.449(2)
H44? H 0.1351 -0.0520 0.4881
H45? H 0.1451 -0.0376 0.3583
H46? H 0.1727 -0.0347 0.5298
loop_
_geom_bond_atom_site_label_1
_geom_bond_atom_site_label_2
_geom_bond_site_symmetry_1
_geom_bond_site_symmetry_2
O1 H1 1_555 1_555
O2 C1 1_555 1_555
C1 O1 1_555 1_555
C2 C1 1_555 1_555
C3 C2 1_555 1_555
H2 C3 1_555 1_555
C4 C3 1_555 1_555
H3 C4 1_555 1_555
C5 C4 1_555 1_555
C6 C5 1_555 1_555
H4 C6 1_555 1_555
C7 C2 1_555 1_555
H5 C7 1_555 1_555
C8 C5 1_555 1_555
C9 C8 1_555 1_555
H6 C9 1_555 1_555
C10 C9 1_555 1_555
H7 C10 1_555 1_555
C11 C10 1_555 1_555
C12 C11 1_555 1_555
H8 C12 1_555 1_555
C13 C8 1_555 1_555
H9 C13 1_555 1_555
C14 C11 1_555 1_555
C15 C14 1_555 1_555
C16 C15 1_555 1_555
H10 C16 1_555 1_555
C17 C16 1_555 1_555
H11 C17 1_555 1_555
C18 C17 1_555 1_555
C19 C18 1_555 1_555
H12 C19 1_555 1_555
C20 C15 1_555 1_555
H13 C20 1_555 1_555
O3 C27 1_555 1_555
O4 H14 1_555 1_555
C21 C18 1_555 1_555
C22 C21 1_555 1_555
H15 C22 1_555 1_555
C23 C22 1_555 1_555
H16 C23 1_555 1_555
C24 C23 1_555 1_555
C25 C24 1_555 1_555
H17 C25 1_555 1_555
C26 C21 1_555 1_555
H18 C26 1_555 1_555
C27 O4 1_555 1_555
O5 C28 1_555 1_555
C28 H19 1_555 1_555
N1 C28 1_555 1_555
C29 N1 1_555 1_555
H20 C29 1_555 1_555
H21 C29 1_555 1_555
H22 C29 1_555 1_555
C30 N1 1_555 1_555
H23 C30 1_555 1_555
H24 C30 1_555 1_555
H25 C30 1_555 1_555
O6 C31 1_555 1_555
C31 H26 1_555 1_555
N2 C31 1_555 1_555
C32 N2 1_555 1_555
H27 C32 1_555 1_555
H28 C32 1_555 1_555
H29 C32 1_555 1_555
C33 N2 1_555 1_555
H30 C33 1_555 1_555
H31 C33 1_555 1_555
H32 C33 1_555 1_555
O7 C34 1_555 1_555
C34 H33 1_555 1_555
N3 C34 1_555 1_555
C35 N3 1_555 1_555
H34 C35 1_555 1_555
H35 C35 1_555 1_555
H36 C35 1_555 1_555
C36 N3 1_555 1_555
H37 C36 1_555 1_555
H38 C36 1_555 1_555
H39 C36 1_555 1_555
O1A H1A 1_555 1_555
O2A C1A 1_555 1_555
C1A O1A 1_555 1_555
C2A C1A 1_555 1_555
C3A C2A 1_555 1_555
H2A C3A 1_555 1_555
C4A C3A 1_555 1_555
H3A C4A 1_555 1_555
C5A C4A 1_555 1_555
C6A C5A 1_555 1_555
H4A C6A 1_555 1_555
C7A C2A 1_555 1_555
H5A C7A 1_555 1_555
C8A C5A 1_555 1_555
C9A C8A 1_555 1_555
H6A C9A 1_555 1_555
C10A C9A 1_555 1_555
H7A C10A 1_555 1_555
C11A C10A 1_555 1_555
C12A C11A 1_555 1_555
H8A C12A 1_555 1_555
C13A C8A 1_555 1_555
H9A C13A 1_555 1_555
C14A C14 1_555 1_555
C15A C14A 1_555 1_555
C16A C15A 1_555 1_555
H10A C16A 1_555 1_555
C17A C16A 1_555 1_555
H11A C17A 1_555 1_555
C18A C17A 1_555 1_555
C19A C18A 1_555 1_555
H12A C19A 1_555 1_555
C20A C15A 1_555 1_555
H13A C20A 1_555 1_555
O3A C27A 1_555 1_555
O4A H14A 1_555 1_555
C21A C18A 1_555 1_555
C22A C21A 1_555 1_555
H15A C22A 1_555 1_555
C23A C22A 1_555 1_555
H16A C23A 1_555 1_555
C24A C23A 1_555 1_555
C25A C24A 1_555 1_555
H17A C25A 1_555 1_555
C26A C21A 1_555 1_555
H18A C26A 1_555 1_555
C27A O4A 1_555 1_555
C6 C7 1_555 1_555
C12 C13 1_555 1_555
C19 C20 1_555 1_555
C24 C27 1_555 1_555
C25 C26 1_555 1_555
C6A C7A 1_555 1_555
C11A C14A 1_555 1_555
C12A C13A 1_555 1_555
C19A C20A 1_555 1_555
C24A C27A 1_555 1_555
C25A C26A 1_555 1_555

#END
