
#######################################################################
#
#                 Cambridge Crystallographic Data Centre
#                                CCDC 
#
#######################################################################
#
# If this CIF has been generated from an entry in the Cambridge 
# Structural Database, then it will include bibliographic, chemical, 
# crystal, experimental, refinement or atomic coordinate data resulting 
# from the CCDC's data processing and validation procedures.
#
#######################################################################

data_JIZXEW
_chemical_formula_moiety         'C16 H14 Cl2 N4 O4 S1,0.5(H2 O1)'
_chemical_name_systematic        
'N-(5,7-Dimethoxy-2H-(1,2,4)thiadiazolo(2,3-a)pyrimidin-2-ylidene)-2-(2,4-dichlorophenoxy)propanamide hemihydrate'
_chemical_properties_biological  'herbicidal activity'
_symmetry_cell_setting           monoclinic
_symmetry_space_group_name_H-M   'P 21/c'
_symmetry_Int_Tables_number      14
_space_group_name_Hall           '-P 2ybc'
loop_
_symmetry_equiv_pos_site_id
_symmetry_equiv_pos_as_xyz
1 x,y,z
2 -x,1/2+y,1/2-z
3 -x,-y,-z
4 x,1/2-y,1/2+z
_cell_length_a                   18.612(8)
_cell_length_b                   14.084(6)
_cell_length_c                   14.757(6)
_cell_angle_alpha                90
_cell_angle_beta                 95.505(7)
_cell_angle_gamma                90
_cell_volume                     3850.43
_exptl_crystal_colour            white
_exptl_crystal_description       block
_cell_formula_units_Z            8
loop_
_atom_site_label
_atom_site_type_symbol
_atom_site_fract_x
_atom_site_fract_y
_atom_site_fract_z
S1 S 0.13286(7) 0.65577(10) 0.39966(9)
Cl1 Cl 0.46910(9) 0.72601(12) 0.36150(13)
Cl2 Cl 0.47932(10) 0.35055(14) 0.30417(12)
N1 N 0.2016(2) 0.6398(3) 0.5688(3)
N2 N 0.0383(2) 0.6436(3) 0.4032(3)
N3 N 0.0759(2) 0.6248(3) 0.5544(3)
N4 N -0.0491(2) 0.6217(3) 0.5091(3)
O1 O 0.38345(18) 0.6782(2) 0.5062(2)
O2 O 0.24772(18) 0.6662(2) 0.4328(2)
O3 O 0.01421(19) 0.6666(3) 0.2543(2)
O4 O -0.16757(19) 0.6236(3) 0.4531(3)
C1 C 0.4442(3) 0.6128(4) 0.3907(4)
C2 C 0.4689(3) 0.5358(5) 0.3428(4)
H1 H 0.4986 0.5454 0.2965
C3 C 0.4485(3) 0.4456(5) 0.3652(4)
C4 C 0.4083(3) 0.4318(4) 0.4348(4)
H2 H 0.3963 0.3703 0.4507
C5 C 0.3843(3) 0.5077(4) 0.4835(4)
H3 H 0.3555 0.4971 0.5305
C6 C 0.4035(3) 0.5997(4) 0.4619(4)
C7 C 0.3305(3) 0.6725(4) 0.5680(3)
H4 H 0.3415 0.6196 0.6102
C8 C 0.3313(3) 0.7645(4) 0.6202(4)
H5 H 0.3779 0.7734 0.6529
H6 H 0.2952 0.7625 0.6624
H7 H 0.3213 0.8162 0.5785
C9 C 0.2547(3) 0.6585(3) 0.5169(4)
C10 C 0.1371(3) 0.6377(3) 0.5187(3)
C11 C 0.0191(3) 0.6289(4) 0.4898(4)
C12 C -0.0142(3) 0.6518(3) 0.3315(4)
C13 C -0.0362(3) 0.6802(5) 0.1728(4)
H8 H -0.0096 0.6904 0.1211
H9 H -0.0662 0.7344 0.1811
H10 H -0.0659 0.6248 0.1629
C14 C -0.0834(3) 0.6435(4) 0.3494(4)
H11 H -0.1206 0.6467 0.3026
C15 C -0.0984(3) 0.6300(4) 0.4390(4)
C16 C -0.1870(3) 0.6158(4) 0.5448(4)
H12 H -0.2386 0.6125 0.5440
H13 H -0.1696 0.6704 0.5792
H14 H -0.1659 0.5594 0.5725
S2 S 0.27071(8) 0.27933(10) 0.75597(10)
Cl3 Cl -0.11059(8) 0.59797(12) 0.80051(11)
Cl4 Cl 0.12611(9) 0.60566(12) 1.04108(10)
N5 N 0.2970(2) 0.4631(3) 0.7115(3)
N6 N 0.3371(2) 0.3441(3) 0.6203(3)
N7 N 0.3075(2) 0.2030(3) 0.6782(3)
N8 N 0.3713(2) 0.2056(4) 0.5458(3)
O5 O 0.20422(19) 0.5826(2) 0.8844(2)
O6 O 0.2358(2) 0.4058(3) 0.8273(3)
O7 O 0.4061(3) 0.0626(3) 0.4907(3)
O8 O 0.2738(2) 0.0716(3) 0.7488(3)
C17 C 0.0131(3) 0.5987(4) 0.9125(4)
H15 H -0.0159 0.6067 0.9599
C18 C -0.0170(3) 0.5911(4) 0.8247(4)
C19 C 0.0247(3) 0.5814(4) 0.7536(4)
H16 H 0.0033 0.5773 0.6941
C20 C 0.0993(3) 0.5778(4) 0.7717(4)
H17 H 0.1279 0.5715 0.7237
C21 C 0.1315(3) 0.5834(3) 0.8594(4)
C22 C 0.0869(3) 0.5943(4) 0.9298(3)
C23 C 0.2517(3) 0.5766(4) 0.8142(4)
H18 H 0.2329 0.6153 0.7621
C24 C 0.3238(3) 0.6157(4) 0.8535(4)
H19 H 0.3179 0.6802 0.8724
H20 H 0.3574 0.6136 0.8081
H21 H 0.3419 0.5781 0.9050
C25 C 0.2614(3) 0.4740(4) 0.7834(4)
C26 C 0.3058(3) 0.3695(4) 0.6887(4)
C27 C 0.3388(3) 0.2496(5) 0.6116(4)
C28 C 0.3714(3) 0.1114(5) 0.5516(4)
C29 C 0.4409(4) 0.1146(5) 0.4239(5)
H22 H 0.4630 0.0710 0.3850
H23 H 0.4772 0.1552 0.4538
H24 H 0.4058 0.1524 0.3881
C30 C 0.3398(3) 0.0587(4) 0.6154(4)
H25 H 0.3408 -0.0073 0.6136
C31 C 0.3072(3) 0.1039(4) 0.6805(4)
C32 C 0.2693(3) -0.0323(4) 0.7577(4)
H26 H 0.2439 -0.0478 0.8093
H27 H 0.3171 -0.0584 0.7659
H28 H 0.2440 -0.0583 0.7036
O9 O 0.1697(4) 0.3578(4) 0.9892(4)
loop_
_geom_bond_atom_site_label_1
_geom_bond_atom_site_label_2
_geom_bond_site_symmetry_1
_geom_bond_site_symmetry_2
S1 N2 1_555 1_555
Cl1 C1 1_555 1_555
Cl2 C3 1_555 1_555
N1 C9 1_555 1_555
N2 C11 1_555 1_555
N3 C10 1_555 1_555
N4 C11 1_555 1_555
O1 C6 1_555 1_555
O2 C9 1_555 1_555
O3 C12 1_555 1_555
O4 C15 1_555 1_555
C1 C2 1_555 1_555
C2 H1 1_555 1_555
C3 C2 1_555 1_555
C4 C3 1_555 1_555
H2 C4 1_555 1_555
C5 C4 1_555 1_555
H3 C5 1_555 1_555
C6 C1 1_555 1_555
C7 O1 1_555 1_555
H4 C7 1_555 1_555
C8 C7 1_555 1_555
H5 C8 1_555 1_555
H6 C8 1_555 1_555
H7 C8 1_555 1_555
C9 C7 1_555 1_555
C10 S1 1_555 1_555
C11 N3 1_555 1_555
C12 N2 1_555 1_555
C13 O3 1_555 1_555
H8 C13 1_555 1_555
H9 C13 1_555 1_555
H10 C13 1_555 1_555
C14 C12 1_555 1_555
H11 C14 1_555 1_555
C15 N4 1_555 1_555
C16 O4 1_555 1_555
H12 C16 1_555 1_555
H13 C16 1_555 1_555
H14 C16 1_555 1_555
S2 N7 1_555 1_555
Cl3 C18 1_555 1_555
Cl4 C22 1_555 1_555
N5 C25 1_555 1_555
N6 C26 1_555 1_555
N7 C27 1_555 1_555
N8 C27 1_555 1_555
O5 C21 1_555 1_555
O6 C25 1_555 1_555
O7 C28 1_555 1_555
O8 C31 1_555 1_555
C17 H15 1_555 1_555
C18 C17 1_555 1_555
C19 C18 1_555 1_555
H16 C19 1_555 1_555
C20 C19 1_555 1_555
H17 C20 1_555 1_555
C21 C20 1_555 1_555
C22 C17 1_555 1_555
C23 O5 1_555 1_555
H18 C23 1_555 1_555
C24 C23 1_555 1_555
H19 C24 1_555 1_555
H20 C24 1_555 1_555
H21 C24 1_555 1_555
C25 C23 1_555 1_555
C26 S2 1_555 1_555
C27 N6 1_555 1_555
C28 N8 1_555 1_555
C29 O7 1_555 1_555
H22 C29 1_555 1_555
H23 C29 1_555 1_555
H24 C29 1_555 1_555
C30 C28 1_555 1_555
H25 C30 1_555 1_555
C31 N7 1_555 1_555
C32 O8 1_555 1_555
H26 C32 1_555 1_555
H27 C32 1_555 1_555
H28 C32 1_555 1_555
N1 C10 1_555 1_555
C5 C6 1_555 1_555
C14 C15 1_555 1_555
N5 C26 1_555 1_555
C21 C22 1_555 1_555
C30 C31 1_555 1_555

#END
