
#######################################################################
#
#                 Cambridge Crystallographic Data Centre
#                                CCDC 
#
#######################################################################
#
# If this CIF has been generated from an entry in the Cambridge 
# Structural Database, then it will include bibliographic, chemical, 
# crystal, experimental, refinement or atomic coordinate data resulting 
# from the CCDC's data processing and validation procedures.
#
#######################################################################

data_JOBHOY
_chemical_formula_moiety         'C16 H16 O3 S2'
_chemical_name_systematic        
2-(2-Methyl-4-phenoxybenzenesulfonylmethyl)thiirane
_symmetry_cell_setting           triclinic
_symmetry_space_group_name_H-M   'P -1'
_symmetry_Int_Tables_number      2
_space_group_name_Hall           '-P 1'
loop_
_symmetry_equiv_pos_site_id
_symmetry_equiv_pos_as_xyz
1 x,y,z
2 -x,-y,-z
_cell_length_a                   5.7744(2)
_cell_length_b                   11.2258(4)
_cell_length_c                   12.0078(4)
_cell_angle_alpha                85.695(2)
_cell_angle_beta                 78.737(2)
_cell_angle_gamma                85.483(2)
_cell_volume                     759.592
_exptl_crystal_description       plate
_cell_formula_units_Z            2
_exptl_crystal_recrystallization_method methanol
loop_
_atom_site_label
_atom_site_type_symbol
_atom_site_fract_x
_atom_site_fract_y
_atom_site_fract_z
S1 S 0.35231(11) 0.36437(5) 0.63090(5)
O1 O 0.1959(3) -0.10901(17) 0.86923(19)
C1 C 0.3796(4) -0.1950(2) 0.8808(2)
S2 S 0.11507(18) 0.13363(10) 0.48214(10)
C2 C 0.2520(14) 0.2765(5) 0.4400(6)
H1 H 0.4203 0.2716 0.3988
C3 C 0.0707(9) 0.2530(6) 0.3738(4)
H2 H 0.1273 0.2348 0.2933
H3 H -0.0802 0.3029 0.3878
O2 O 0.5987(3) 0.36156(17) 0.57707(18)
C6 C 0.5608(5) -0.1718(2) 0.9354(2)
H7 H 0.5707 -0.0939 0.9595
O3 O 0.2599(4) 0.46099(17) 0.7019(2)
C7 C 0.7254(5) -0.2623(2) 0.9541(2)
H8 H 0.8496 -0.2472 0.9916
C8 C 0.7109(5) -0.3755(2) 0.9187(3)
H9 H 0.8256 -0.4378 0.9315
C9 C 0.5305(5) -0.3979(2) 0.8649(3)
H10 H 0.5203 -0.4760 0.8416
C10 C 0.3636(5) -0.3076(2) 0.8443(2)
H11 H 0.2407 -0.3226 0.8060
C11 C 0.2461(5) 0.0006(2) 0.8150(2)
C12 C 0.0649(4) 0.0900(2) 0.8355(2)
H12 H -0.0783 0.0723 0.8859
C13 C 0.0881(4) 0.2047(2) 0.78407(19)
C14 C 0.3026(4) 0.2255(2) 0.7085(2)
C15 C 0.4827(4) 0.1359(2) 0.6874(2)
H13 H 0.6253 0.1526 0.6360
C16 C 0.4568(5) 0.0223(2) 0.7406(2)
H14 H 0.5801 -0.0390 0.7265
C17 C 0.1855(5) 0.3692(2) 0.5211(2)
H15 H 0.0167 0.3633 0.5567
H16 H 0.2004 0.4482 0.4787
C18 C -0.1125(5) 0.2985(2) 0.8124(2)
H17 H -0.2461 0.2621 0.8630
H18 H -0.1621 0.3315 0.7422
H19 H -0.0597 0.3628 0.8504
S3? S 0.0546(7) 0.1897(5) 0.3693(3)
C4? C 0.249(5) 0.2474(19) 0.452(2)
H4? H 0.4144 0.2463 0.4073
C5? C 0.182(4) 0.1248(16) 0.4874(13)
H5? H 0.0728 0.1131 0.5614
H6? H 0.3071 0.0596 0.4713
loop_
_geom_bond_atom_site_label_1
_geom_bond_atom_site_label_2
_geom_bond_site_symmetry_1
_geom_bond_site_symmetry_2
S1 O2 1_555 1_555
O1 C1 1_555 1_555
C1 C6 1_555 1_555
S2 C2 1_555 1_555
C2 H1 1_555 1_555
C3 S2 1_555 1_555
H2 C3 1_555 1_555
H3 C3 1_555 1_555
C6 H7 1_555 1_555
O3 S1 1_555 1_555
C7 C6 1_555 1_555
H8 C7 1_555 1_555
C8 C7 1_555 1_555
H9 C8 1_555 1_555
C9 C8 1_555 1_555
H10 C9 1_555 1_555
C10 C1 1_555 1_555
H11 C10 1_555 1_555
C11 O1 1_555 1_555
C12 C11 1_555 1_555
H12 C12 1_555 1_555
C13 C12 1_555 1_555
C14 S1 1_555 1_555
C15 C14 1_555 1_555
H13 C15 1_555 1_555
C16 C11 1_555 1_555
H14 C16 1_555 1_555
C17 S1 1_555 1_555
H15 C17 1_555 1_555
H16 C17 1_555 1_555
C18 C13 1_555 1_555
H17 C18 1_555 1_555
H18 C18 1_555 1_555
H19 C18 1_555 1_555
C2 C3 1_555 1_555
C2 C17 1_555 1_555
C9 C10 1_555 1_555
C13 C14 1_555 1_555
C15 C16 1_555 1_555

#END
