
#######################################################################
#
#                 Cambridge Crystallographic Data Centre
#                                CCDC 
#
#######################################################################
#
# If this CIF has been generated from an entry in the Cambridge 
# Structural Database, then it will include bibliographic, chemical, 
# crystal, experimental, refinement or atomic coordinate data resulting 
# from the CCDC's data processing and validation procedures.
#
#######################################################################

data_JOBHUE
_chemical_formula_moiety         'C17 H18 O3 S2'
_chemical_name_systematic        
2-(2,6-Dimethyl-4-phenoxybenzenesulfonylmethyl)thiirane
_symmetry_cell_setting           triclinic
_symmetry_space_group_name_H-M   'P -1'
_symmetry_Int_Tables_number      2
_space_group_name_Hall           '-P 1'
loop_
_symmetry_equiv_pos_site_id
_symmetry_equiv_pos_as_xyz
1 x,y,z
2 -x,-y,-z
_cell_length_a                   5.4528(3)
_cell_length_b                   11.4721(5)
_cell_length_c                   13.0581(6)
_cell_angle_alpha                88.396(2)
_cell_angle_beta                 81.581(2)
_cell_angle_gamma                79.755(2)
_cell_volume                     795.163
_exptl_crystal_description       needle
_cell_formula_units_Z            2
_exptl_crystal_recrystallization_method methanol
loop_
_atom_site_label
_atom_site_type_symbol
_atom_site_fract_x
_atom_site_fract_y
_atom_site_fract_z
S1 S 0.16676(14) 0.35453(6) 0.86467(7)
S2 S 0.50512(18) 0.29353(8) 1.15166(7)
O2 O 0.8346(13) 0.0069(3) 0.5916(4)
O3 O 0.1232(5) 0.4626(2) 0.8073(3)
O4 O -0.0536(4) 0.3107(2) 0.9141(2)
C1 C 0.8492(10) -0.1133(2) 0.5964(4)
C2 C 0.6807(7) -0.1701(5) 0.5554(4)
H1 H 0.5413 -0.1248 0.5281
C3 C 0.7163(8) -0.2931(5) 0.5542(4)
H2 H 0.6012 -0.3319 0.5262
C4 C 0.9203(12) -0.3593(2) 0.5941(5)
H3 H 0.9446 -0.4433 0.5933
C5 C 1.0887(9) -0.3025(5) 0.6351(4)
H4 H 1.2282 -0.3477 0.6624
C6 C 1.0532(8) -0.1795(6) 0.6363(4)
H5 H 1.1683 -0.1406 0.6643
C13 C 0.6724(10) 0.0795(3) 0.6606(3)
C14 C 0.6956(9) 0.1981(3) 0.6506(3)
H11 H 0.8212 0.2216 0.5999
C15 C 0.5350(9) 0.2824(3) 0.7147(3)
C16 C 0.3512(9) 0.2480(4) 0.7888(4)
C17 C 0.3280(10) 0.1294(4) 0.7988(5)
C18 C 0.4886(10) 0.0451(3) 0.7347(5)
H12 H 0.4728 -0.0360 0.7415
C25 C 0.6055(11) 0.4031(4) 0.6961(3)
H15 H 0.607(9) 0.447(4) 0.757(4)
H16 H 0.768(10) 0.389(4) 0.660(4)
H17 H 0.529(10) 0.436(4) 0.648(4)
C26 C 0.1369(7) 0.0751(3) 0.8696(4)
H18 H 0.130(8) 0.095(4) 0.940(4)
H19 H 0.166(8) -0.005(4) 0.868(3)
H20 H -0.013(9) 0.096(4) 0.853(3)
C27 C 0.3474(6) 0.3795(3) 0.9622(2)
H21 H 0.5025 0.4067 0.9289
H22 H 0.2493 0.4437 1.0082
C28 C 0.4211(11) 0.2703(5) 1.0279(6)
H23 H 0.5183 0.1986 0.9894
C30 C 0.2267(9) 0.2477(4) 1.1174(4)
H25 H 0.2072 0.1644 1.1318
H26 H 0.0672 0.3055 1.1286
O1? O 0.9599(14) -0.0332(9) 0.6460(8)
C7? C 0.9103(18) -0.1361(7) 0.6123(6)
C8? C 0.7442(15) -0.1319(6) 0.5405(6)
H6? H 0.6633 -0.0576 0.5174
C9? C 0.6965(12) -0.2363(10) 0.5025(7)
H7? H 0.5830 -0.2335 0.4535
C10? C 0.8149(19) -0.3450(6) 0.5363(9)
H8? H 0.7823 -0.4164 0.5104
C11? C 0.981(2) -0.3492(6) 0.6081(9)
H9? H 1.0619 -0.4235 0.6312
C12? C 1.0287(17) -0.2447(10) 0.6461(6)
H10? H 1.1422 -0.2476 0.6952
C19? C 0.7652(16) 0.0499(7) 0.6873(7)
C20? C 0.7996(15) 0.1670(7) 0.6765(6)
H13? H 0.9476 0.1856 0.6364
C21? C 0.6174(16) 0.2569(6) 0.7244(6)
C22? C 0.4008(15) 0.2297(8) 0.7831(7)
C23? C 0.3664(15) 0.1126(9) 0.7939(9)
C24? C 0.5486(17) 0.0227(7) 0.7460(9)
H14? H 0.5251 -0.0574 0.7534
C29? C 0.313(4) 0.286(2) 1.0475(16)
H24? H 0.1319 0.2878 1.0755
C31? C 0.4543(15) 0.1711(6) 1.0510(5)
H27? H 0.5917 0.1467 0.9932
H28? H 0.3640 0.1071 1.0795
loop_
_geom_bond_atom_site_label_1
_geom_bond_atom_site_label_2
_geom_bond_site_symmetry_1
_geom_bond_site_symmetry_2
S1 O3 1_555 1_555
S2 C28 1_555 1_555
O2 C1 1_555 1_555
O4 S1 1_555 1_555
C1 C2 1_555 1_555
C2 H1 1_555 1_555
C3 C2 1_555 1_555
H2 C3 1_555 1_555
C4 C3 1_555 1_555
H3 C4 1_555 1_555
C5 C4 1_555 1_555
H4 C5 1_555 1_555
C6 C1 1_555 1_555
H5 C6 1_555 1_555
C13 O2 1_555 1_555
C14 C13 1_555 1_555
H11 C14 1_555 1_555
C15 C14 1_555 1_555
C16 S1 1_555 1_555
C17 C16 1_555 1_555
C18 C13 1_555 1_555
H12 C18 1_555 1_555
C25 C15 1_555 1_555
H15 C25 1_555 1_555
H16 C25 1_555 1_555
H17 C25 1_555 1_555
C26 C17 1_555 1_555
H18 C26 1_555 1_555
H19 C26 1_555 1_555
H20 C26 1_555 1_555
C27 S1 1_555 1_555
H21 C27 1_555 1_555
H22 C27 1_555 1_555
C28 C27 1_555 1_555
H23 C28 1_555 1_555
C30 S2 1_555 1_555
H25 C30 1_555 1_555
H26 C30 1_555 1_555
C5 C6 1_555 1_555
C15 C16 1_555 1_555
C17 C18 1_555 1_555
C28 C30 1_555 1_555

#END
