
#######################################################################
#
#                 Cambridge Crystallographic Data Centre
#                                CCDC 
#
#######################################################################
#
# If this CIF has been generated from an entry in the Cambridge 
# Structural Database, then it will include bibliographic, chemical, 
# crystal, experimental, refinement or atomic coordinate data resulting 
# from the CCDC's data processing and validation procedures.
#
#######################################################################

data_JOBNET
_chemical_formula_moiety         'C18 H14 Se4 1+,C18 H14 Se4,C14 H8 N4 1-'
_chemical_name_systematic        
"bis(3,4,8,9-Tetramethylanthra(1,9-c,d:4,10-c',d')disilenole) 2,5-dimethyltetracyanoquinodimethane"
_symmetry_cell_setting           monoclinic
_symmetry_space_group_name_H-M   'P 21/n'
_symmetry_Int_Tables_number      14
_space_group_name_Hall           '-P 2yn'
loop_
_symmetry_equiv_pos_site_id
_symmetry_equiv_pos_as_xyz
1 x,y,z
2 1/2-x,1/2+y,1/2-z
3 -x,-y,-z
4 1/2+x,1/2-y,1/2+z
_cell_length_a                   10.027(1)
_cell_length_b                   20.852(2)
_cell_length_c                   10.613(1)
_cell_angle_alpha                90
_cell_angle_beta                 99.06(1)
_cell_angle_gamma                90
_cell_volume                     2191.31
_exptl_crystal_colour            black
_chemical_melting_point          'above 300deg.C'
_cell_formula_units_Z            2
loop_
_atom_site_label
_atom_site_type_symbol
_atom_site_fract_x
_atom_site_fract_y
_atom_site_fract_z
Se1 Se 0.7754(1) 0.43396(6) 0.2216(2)
Se2 Se 0.9163(1) 0.51894(7) 0.2979(2)
C8 C 0.7736(12) 0.58152(50) 0.2623(11)
C9 C 0.7950(12) 0.64406(58) 0.2827(11)
C10 C 0.6851(13) 0.68849(57) 0.2615(12)
C11 C 0.5589(13) 0.66245(51) 0.2163(11)
Se3 Se 0.4061(2) 0.71878(6) 0.1745(2)
Se4 Se 0.2591(1) 0.63307(7) 0.1176(2)
C12 C 0.4030(12) 0.57139(53) 0.1509(11)
C13 C 0.3773(11) 0.50646(52) 0.1347(10)
C14 C 0.2465(11) 0.48077(56) 0.0993(11)
C15 C 0.2250(12) 0.41741(57) 0.0817(11)
C16 C 0.3356(12) 0.37288(54) 0.0985(10)
C17 C 0.4650(12) 0.39574(53) 0.1360(11)
C18 C 0.4903(11) 0.46252(54) 0.1547(11)
C19 C 0.6213(11) 0.48850(53) 0.1945(11)
C20 C 0.6417(11) 0.55296(51) 0.2165(10)
C21 C 0.5338(11) 0.59758(51) 0.1955(10)
C22 C 0.9389(13) 0.66666(69) 0.3296(15)
C23 C 0.7035(15) 0.75989(58) 0.2765(14)
C24 C 0.0815(11) 0.39030(59) 0.0422(13)
C25 C 0.3143(12) 0.30202(54) 0.0799(12)
C1 C 0.4272(13) 0.44178(56) 0.4673(10)
C2 C 0.5763(13) 0.44154(56) 0.5086(11)
C3 C 0.3602(12) 0.50245(58) 0.4639(11)
C4 C 0.3522(13) 0.38648(60) 0.4364(11)
C5 C 0.4014(14) 0.32293(60) 0.4324(13)
N1 N 0.4267(12) 0.27059(56) 0.4254(12)
C6 C 0.2104(16) 0.39081(60) 0.3998(14)
N2 N 0.0976(13) 0.38965(56) 0.3693(12)
C7 C 0.6608(15) 0.38017(65) 0.5173(15)
C3B C 0.6398(12) 0.49755(58) 0.5361(11)
C2B C 0.4237(13) 0.55846(56) 0.4914(11)
C1B C 0.5728(13) 0.55822(56) 0.5327(10)
C7B C 0.3392(15) 0.61983(65) 0.4827(15)
C4B C 0.6478(13) 0.61352(60) 0.5636(11)
C5B C 0.5986(14) 0.67707(60) 0.5676(13)
C6B C 0.7896(16) 0.60919(60) 0.6002(14)
N1B N 0.5733(12) 0.72941(56) 0.5746(12)
N2B N 0.9024(13) 0.61035(56) 0.6307(12)
loop_
_geom_bond_atom_site_label_1
_geom_bond_atom_site_label_2
_geom_bond_site_symmetry_1
_geom_bond_site_symmetry_2
C1 C2 1_555 1_555
C2 C7 1_555 1_555
C3 C1 1_555 1_555
C4 C1 1_555 1_555
C5 C4 1_555 1_555
N1 C5 1_555 1_555
C6 C4 1_555 1_555
N2 C6 1_555 1_555
Se1 Se2 1_555 1_555
Se2 C8 1_555 1_555
C8 C9 1_555 1_555
C9 C10 1_555 1_555
C10 C11 1_555 1_555
C11 Se3 1_555 1_555
Se3 Se4 1_555 1_555
Se4 C12 1_555 1_555
C12 C13 1_555 1_555
C13 C14 1_555 1_555
C14 C15 1_555 1_555
C15 C16 1_555 1_555
C16 C17 1_555 1_555
C17 C18 1_555 1_555
C18 C13 1_555 1_555
C19 Se1 1_555 1_555
C20 C8 1_555 1_555
C21 C11 1_555 1_555
C22 C9 1_555 1_555
C23 C10 1_555 1_555
C24 C15 1_555 1_555
C25 C16 1_555 1_555
C3B C2 1_555 1_555
C2B C3 1_555 1_555
C1B C3B 1_555 1_555
C7B C2B 1_555 1_555
C4B C1B 1_555 1_555
C5B C4B 1_555 1_555
C6B C4B 1_555 1_555
N1B C5B 1_555 1_555
N2B C6B 1_555 1_555
C12 C21 1_555 1_555
C18 C19 1_555 1_555
C19 C20 1_555 1_555
C20 C21 1_555 1_555
C2B C1B 1_555 1_555

#END
