
#######################################################################
#
#                 Cambridge Crystallographic Data Centre
#                                CCDC 
#
#######################################################################
#
# If this CIF has been generated from an entry in the Cambridge 
# Structural Database, then it will include bibliographic, chemical, 
# crystal, experimental, refinement or atomic coordinate data resulting 
# from the CCDC's data processing and validation procedures.
#
#######################################################################

data_JOBPAS
_chemical_formula_moiety         'C17 H41 N4 P2 1+,I1 1-'
_chemical_name_systematic        
'cis-1,3-Di-t-butyl-2,4-bis(t-butylamino)-2-methyl-cyclodiphosphazan-2-ium iodide'
_symmetry_cell_setting           orthorhombic
_symmetry_space_group_name_H-M   'P b c a'
_symmetry_Int_Tables_number      61
_space_group_name_Hall           '-P 2ac 2ab'
loop_
_symmetry_equiv_pos_site_id
_symmetry_equiv_pos_as_xyz
1 x,y,z
2 1/2-x,-y,1/2+z
3 1/2+x,1/2-y,-z
4 -x,1/2+y,1/2-z
5 -x,-y,-z
6 1/2+x,y,1/2-z
7 1/2-x,1/2+y,z
8 x,1/2-y,1/2+z
_cell_length_a                   14.090(3)
_cell_length_b                   25.9449(18)
_cell_length_c                   27.452(3)
_cell_angle_alpha                90
_cell_angle_beta                 90
_cell_angle_gamma                90
_cell_volume                     10035.5
_exptl_crystal_colour            colorless
_exptl_crystal_description       block
_cell_formula_units_Z            16
loop_
_atom_site_label
_atom_site_type_symbol
_atom_site_fract_x
_atom_site_fract_y
_atom_site_fract_z
I1 I 0.166125(15) 0.002970(10) 0.358271(8)
I2 I 0.278375(14) -0.176094(9) 0.151982(8)
P1 P 0.27882(6) -0.18387(3) 0.32237(3)
P2 P 0.28032(6) -0.18709(3) 0.41517(3)
N1 N 0.20027(16) -0.19128(10) 0.36589(9)
N2 N 0.35962(15) -0.18926(10) 0.36552(9)
N3 N 0.28075(18) -0.22345(11) 0.27737(10)
N4 N 0.2841(2) -0.24485(12) 0.43961(11)
C1 C 0.0942(2) -0.18740(13) 0.36707(12)
C2 C 0.0533(2) -0.24066(13) 0.37423(13)
H1 H 0.0722 -0.2624 0.3476
H2 H -0.0147 -0.2386 0.3754
H3 H 0.0765 -0.2549 0.4043
C3 C 0.0659(2) -0.15258(13) 0.40909(13)
H4 H 0.0867 -0.1676 0.4392
H5 H -0.0018 -0.1487 0.4096
H6 H 0.0951 -0.1194 0.4050
C4 C 0.0597(2) -0.16462(15) 0.31913(13)
H7 H 0.0830 -0.1300 0.3159
H8 H -0.0085 -0.1643 0.3187
H9 H 0.0827 -0.1852 0.2926
C5 C 0.4624(2) -0.17545(13) 0.36593(11)
C6 C 0.4735(3) -0.11845(17) 0.3770(2)
H10 H 0.4393 -0.0986 0.3533
H11 H 0.5396 -0.1093 0.3759
H12 H 0.4489 -0.1113 0.4089
C7 C 0.5109(3) -0.2064(2) 0.40396(18)
H13 H 0.4826 -0.1994 0.4351
H14 H 0.5770 -0.1973 0.4049
H15 H 0.5046 -0.2424 0.3965
C8 C 0.5038(2) -0.1861(2) 0.31631(14)
H16 H 0.5001 -0.2224 0.3096
H17 H 0.5689 -0.1753 0.3157
H18 H 0.4686 -0.1675 0.2921
C9 C 0.2778(2) -0.12297(12) 0.29285(11)
H19 H 0.3379 -0.1173 0.2773
H20 H 0.2668 -0.0963 0.3165
H21 H 0.2283 -0.1224 0.2689
C10 C 0.2803(2) -0.28061(12) 0.27290(11)
C11 C 0.2875(2) -0.30605(12) 0.32215(11)
H22 H 0.3452 -0.2955 0.3378
H23 H 0.2877 -0.3428 0.3182
H24 H 0.2342 -0.2961 0.3418
C12 C 0.3643(2) -0.29560(13) 0.24106(13)
H25 H 0.3585 -0.2792 0.2099
H26 H 0.3651 -0.3323 0.2368
H27 H 0.4221 -0.2848 0.2564
C13 C 0.1875(2) -0.29584(13) 0.24797(13)
H28 H 0.1349 -0.2862 0.2682
H29 H 0.1866 -0.3324 0.2428
H30 H 0.1828 -0.2785 0.2172
C14 C 0.2811(2) -0.25967(13) 0.49143(12)
C15 C 0.2204(11) -0.3070(5) 0.4967(4)
H31 H 0.2575 -0.3371 0.4894
H32 H 0.1677 -0.3050 0.4746
H33 H 0.1972 -0.3092 0.5296
C16 C 0.3812(6) -0.2743(6) 0.5077(3)
H34 H 0.3793 -0.2869 0.5406
H35 H 0.4216 -0.2446 0.5062
H36 H 0.4057 -0.3007 0.4867
C17 C 0.2454(11) -0.2179(4) 0.5218(3)
H37 H 0.1849 -0.2067 0.5098
H38 H 0.2893 -0.1896 0.5210
H39 H 0.2386 -0.2298 0.5548
H88 H 0.287(2) -0.2656(11) 0.4237(10)
H89 H 0.277(2) -0.2094(12) 0.2492(12)
P3 P -0.15468(6) 0.01379(3) 0.38724(3)
P4 P -0.33404(6) 0.01287(3) 0.39705(3)
N5 N -0.23065(17) 0.02382(10) 0.43179(9)
N6 N -0.24780(16) 0.01466(9) 0.35136(9)
N7 N -0.06924(19) 0.05379(11) 0.37973(10)
N8 N -0.3880(2) 0.06895(12) 0.39350(12)
C21 C -0.2214(2) 0.01533(13) 0.48508(11)
C22 C -0.2292(3) -0.04126(14) 0.49794(13)
H49 H -0.2887 -0.0545 0.4864
H50 H -0.2258 -0.0453 0.5327
H51 H -0.1780 -0.0599 0.4830
C23 C -0.2997(2) 0.04557(15) 0.51051(12)
H52 H -0.2952 0.0813 0.5016
H53 H -0.2928 0.0422 0.5452
H54 H -0.3604 0.0323 0.5008
C24 C -0.1261(2) 0.03711(16) 0.50158(12)
H55 H -0.0758 0.0205 0.4839
H56 H -0.1180 0.0310 0.5358
H57 H -0.1244 0.0735 0.4954
C25 C -0.2608(2) 0.00758(12) 0.29784(11)
C26 C -0.1703(2) -0.01344(14) 0.27522(12)
H58 H -0.1188 0.0098 0.2817
H59 H -0.1787 -0.0168 0.2407
H60 H -0.1563 -0.0466 0.2890
C27 C -0.2861(3) 0.05973(13) 0.27547(12)
H61 H -0.3421 0.0730 0.2909
H62 H -0.2976 0.0556 0.2412
H63 H -0.2345 0.0833 0.2802
C28 C -0.3423(2) -0.03042(13) 0.28991(12)
H64 H -0.3271 -0.0627 0.3051
H65 H -0.3517 -0.0356 0.2556
H66 H -0.3993 -0.0168 0.3041
C29 C -0.0953(2) -0.04657(12) 0.39000(12)
H67 H -0.0557 -0.0505 0.3618
H68 H -0.1413 -0.0739 0.3908
H69 H -0.0569 -0.0479 0.4189
C30 C -0.0619(2) 0.11071(12) 0.37439(12)
C31 C 0.0097(2) 0.12916(14) 0.41229(13)
H70 H -0.0152 0.1233 0.4444
H71 H 0.0213 0.1653 0.4079
H72 H 0.0680 0.1105 0.4085
C32 C -0.0248(2) 0.12215(13) 0.32338(12)
H73 H 0.0360 0.1061 0.3191
H74 H -0.0187 0.1587 0.3192
H75 H -0.0684 0.1088 0.2997
C33 C -0.1582(2) 0.13578(12) 0.38246(12)
H76 H -0.2031 0.1220 0.3596
H77 H -0.1529 0.1724 0.3779
H78 H -0.1795 0.1288 0.4150
C34 C -0.4923(2) 0.07966(15) 0.39571(16)
C35 C -0.5221(3) 0.1039(2) 0.3481(2)
H79 H -0.5887 0.1116 0.3491
H80 H -0.5098 0.0803 0.3219
H81 H -0.4869 0.1351 0.3430
C36 C -0.5453(3) 0.03042(18) 0.4017(2)
H82 H -0.5301 0.0155 0.4327
H83 H -0.5277 0.0070 0.3762
H84 H -0.6122 0.0371 0.4001
C37 C -0.5122(3) 0.1142(2) 0.4370(2)
H85 H -0.5778 0.1242 0.4364
H86 H -0.4731 0.1444 0.4346
H87 H -0.4987 0.0967 0.4670
H90 H -0.0186(18) 0.0397(11) 0.3745(9)
H91 H -0.360(2) 0.0963(13) 0.3920(12)
C18? C 0.1823(11) -0.2456(10) 0.5105(6)
H40? H 0.1354 -0.2661 0.4941
H41? H 0.1702 -0.2098 0.5045
H42? H 0.1794 -0.2522 0.5449
C19? C 0.3529(16) -0.2274(10) 0.5185(5)
H43? H 0.3566 -0.2388 0.5517
H44? H 0.3338 -0.1919 0.5176
H45? H 0.4139 -0.2310 0.5033
C20? C 0.299(2) -0.3129(6) 0.4956(7)
H46? H 0.2858 -0.3239 0.5283
H47? H 0.3641 -0.3198 0.4879
H48? H 0.2586 -0.3314 0.4734
loop_
_geom_bond_atom_site_label_1
_geom_bond_atom_site_label_2
_geom_bond_site_symmetry_1
_geom_bond_site_symmetry_2
P1 N1 1_555 1_555
P2 N1 1_555 1_555
P3 N5 1_555 1_555
P4 N5 1_555 1_555
N1 C1 1_555 1_555
N2 P1 1_555 1_555
N3 P1 1_555 1_555
N4 P2 1_555 1_555
N5 C21 1_555 1_555
N6 P3 1_555 1_555
N7 P3 1_555 1_555
N8 P4 1_555 1_555
C1 C2 1_555 1_555
C2 H1 1_555 1_555
H2 C2 1_555 1_555
H3 C2 1_555 1_555
C3 C1 1_555 1_555
H4 C3 1_555 1_555
H5 C3 1_555 1_555
H6 C3 1_555 1_555
C4 C1 1_555 1_555
H7 C4 1_555 1_555
H8 C4 1_555 1_555
H9 C4 1_555 1_555
C5 N2 1_555 1_555
C6 C5 1_555 1_555
H10 C6 1_555 1_555
H11 C6 1_555 1_555
H12 C6 1_555 1_555
C7 C5 1_555 1_555
H13 C7 1_555 1_555
H14 C7 1_555 1_555
H15 C7 1_555 1_555
C8 C5 1_555 1_555
H16 C8 1_555 1_555
H17 C8 1_555 1_555
H18 C8 1_555 1_555
C9 P1 1_555 1_555
H19 C9 1_555 1_555
H20 C9 1_555 1_555
H21 C9 1_555 1_555
C10 N3 1_555 1_555
C11 C10 1_555 1_555
H22 C11 1_555 1_555
H23 C11 1_555 1_555
H24 C11 1_555 1_555
C12 C10 1_555 1_555
H25 C12 1_555 1_555
H26 C12 1_555 1_555
H27 C12 1_555 1_555
C13 C10 1_555 1_555
H28 C13 1_555 1_555
H29 C13 1_555 1_555
H30 C13 1_555 1_555
C14 N4 1_555 1_555
C15 C14 1_555 1_555
H31 C15 1_555 1_555
H32 C15 1_555 1_555
H33 C15 1_555 1_555
C16 C14 1_555 1_555
H34 C16 1_555 1_555
H35 C16 1_555 1_555
H36 C16 1_555 1_555
C17 C14 1_555 1_555
H37 C17 1_555 1_555
H38 C17 1_555 1_555
H39 C17 1_555 1_555
C21 C22 1_555 1_555
C22 H49 1_555 1_555
H50 C22 1_555 1_555
H51 C22 1_555 1_555
C23 C21 1_555 1_555
H52 C23 1_555 1_555
H53 C23 1_555 1_555
H54 C23 1_555 1_555
C24 C21 1_555 1_555
H55 C24 1_555 1_555
H56 C24 1_555 1_555
H57 C24 1_555 1_555
C25 N6 1_555 1_555
C26 C25 1_555 1_555
H58 C26 1_555 1_555
H59 C26 1_555 1_555
H60 C26 1_555 1_555
C27 C25 1_555 1_555
H61 C27 1_555 1_555
H62 C27 1_555 1_555
H63 C27 1_555 1_555
C28 C25 1_555 1_555
H64 C28 1_555 1_555
H65 C28 1_555 1_555
H66 C28 1_555 1_555
C29 P3 1_555 1_555
H67 C29 1_555 1_555
H68 C29 1_555 1_555
H69 C29 1_555 1_555
C30 N7 1_555 1_555
C31 C30 1_555 1_555
H70 C31 1_555 1_555
H71 C31 1_555 1_555
H72 C31 1_555 1_555
C32 C30 1_555 1_555
H73 C32 1_555 1_555
H74 C32 1_555 1_555
H75 C32 1_555 1_555
C33 C30 1_555 1_555
H76 C33 1_555 1_555
H77 C33 1_555 1_555
H78 C33 1_555 1_555
C34 N8 1_555 1_555
C35 C34 1_555 1_555
H79 C35 1_555 1_555
H80 C35 1_555 1_555
H81 C35 1_555 1_555
C36 C34 1_555 1_555
H82 C36 1_555 1_555
H83 C36 1_555 1_555
H84 C36 1_555 1_555
C37 C34 1_555 1_555
H85 C37 1_555 1_555
H86 C37 1_555 1_555
H87 C37 1_555 1_555
H88 N4 1_555 1_555
H89 N3 1_555 1_555
H90 N7 1_555 1_555
H91 N8 1_555 1_555
P2 N2 1_555 1_555
P4 N6 1_555 1_555

#END
