
#######################################################################
#
#                 Cambridge Crystallographic Data Centre
#                                CCDC 
#
#######################################################################
#
# If this CIF has been generated from an entry in the Cambridge 
# Structural Database, then it will include bibliographic, chemical, 
# crystal, experimental, refinement or atomic coordinate data resulting 
# from the CCDC's data processing and validation procedures.
#
#######################################################################

data_JOBPAR
_chemical_formula_moiety         'C16 H10 S4'
_chemical_name_systematic        
3,4-Dimethylanthra(1,9-c,d:4,10-c',d')dithiole
_symmetry_cell_setting           triclinic
_symmetry_space_group_name_H-M   'P -1'
_symmetry_Int_Tables_number      2
_space_group_name_Hall           '-P 1'
loop_
_symmetry_equiv_pos_site_id
_symmetry_equiv_pos_as_xyz
1 x,y,z
2 -x,-y,-z
_cell_length_a                   10.343(2)
_cell_length_b                   12.496(2)
_cell_length_c                   7.456(2)
_cell_angle_alpha                90.15(2)
_cell_angle_beta                 108.14(2)
_cell_angle_gamma                129.37(1)
_cell_volume                     681.176
_exptl_crystal_colour            'black purple'
_chemical_melting_point          271deg.C
_cell_formula_units_Z            2
loop_
_atom_site_label
_atom_site_type_symbol
_atom_site_fract_x
_atom_site_fract_y
_atom_site_fract_z
S1 S 0.5891(2) 0.8969(1) 0.2071(2)
S2 S 0.6033(2) 0.7365(1) 0.2013(2)
C1 C 0.8315(5) 0.8519(4) 0.2278(6)
C2 C 0.9275(6) 0.8086(4) 0.2357(6)
C3 C 1.1155(6) 0.9141(5) 0.2600(6)
C4 C 1.1934(5) 1.0547(4) 0.2726(6)
S3 S 1.4210(1) 1.1958(1) 0.3023(2)
S4 S 1.4045(2) 1.3541(1) 0.2981(2)
C5 C 1.1781(5) 1.2416(4) 0.2743(6)
C6 C 1.0795(6) 1.2859(4) 0.2652(6)
C7 C 1.1603(7) 1.4306(5) 0.2760(7)
C8 C 1.0582(8) 1.4686(6) 0.2645(8)
C9 C 0.8770(8) 1.3663(6) 0.2459(9)
C10 C 0.7952(7) 1.2250(5) 0.2351(7)
C11 C 0.8940(6) 1.1810(5) 0.2450(6)
C12 C 0.8154(6) 1.0380(5) 0.2339(6)
C13 C 0.9121(6) 0.9950(4) 0.2407(6)
C14 C 1.0965(5) 1.0994(4) 0.2628(6)
C15 C 0.8359(7) 0.6521(5) 0.2192(8)
C16 C 1.2268(7) 0.8718(6) 0.2751(8)
loop_
_geom_bond_atom_site_label_1
_geom_bond_atom_site_label_2
_geom_bond_site_symmetry_1
_geom_bond_site_symmetry_2
S1 S2 1_555 1_555
S2 C1 1_555 1_555
C1 C2 1_555 1_555
C2 C3 1_555 1_555
C3 C4 1_555 1_555
C4 S3 1_555 1_555
S3 S4 1_555 1_555
S4 C5 1_555 1_555
C5 C6 1_555 1_555
C6 C7 1_555 1_555
C7 C8 1_555 1_555
C8 C9 1_555 1_555
C9 C10 1_555 1_555
C10 C11 1_555 1_555
C11 C6 1_555 1_555
C12 S1 1_555 1_555
C13 C1 1_555 1_555
C14 C4 1_555 1_555
C15 C2 1_555 1_555
C16 C3 1_555 1_555
C5 C14 1_555 1_555
C11 C12 1_555 1_555
C12 C13 1_555 1_555
C13 C14 1_555 1_555

#END
