
#######################################################################
#
#                 Cambridge Crystallographic Data Centre
#                                CCDC 
#
#######################################################################
#
# If this CIF has been generated from an entry in the Cambridge 
# Structural Database, then it will include bibliographic, chemical, 
# crystal, experimental, refinement or atomic coordinate data resulting 
# from the CCDC's data processing and validation procedures.
#
#######################################################################

data_JOBTIF
_chemical_formula_moiety         'C21 H19 N1 O5 S2'
_chemical_name_systematic        
N-(2-formylphenyl)-4-methyl-N-((4-methylphenyl)sulfonyl)benzenesulfonamide
_symmetry_cell_setting           monoclinic
_symmetry_space_group_name_H-M   'P 21/n'
_symmetry_Int_Tables_number      14
_space_group_name_Hall           '-P 2yn'
loop_
_symmetry_equiv_pos_site_id
_symmetry_equiv_pos_as_xyz
1 x,y,z
2 1/2-x,1/2+y,1/2-z
3 -x,-y,-z
4 1/2+x,1/2-y,1/2+z
_cell_length_a                   15.5505(6)
_cell_length_b                   7.8816(3)
_cell_length_c                   16.6876(7)
_cell_angle_alpha                90
_cell_angle_beta                 103.9420(10)
_cell_angle_gamma                90
_cell_volume                     1985.03
_exptl_crystal_colour            colorless
_exptl_crystal_description       block
_cell_formula_units_Z            4
loop_
_atom_site_label
_atom_site_type_symbol
_atom_site_fract_x
_atom_site_fract_y
_atom_site_fract_z
N1 N 0.04365(17) 0.3510(3) 0.23535(16)
S1 S -0.02134(5) 0.27690(10) 0.14551(5)
O1 O -0.07076(14) 0.1425(3) 0.16970(14)
O2 O -0.06558(15) 0.4204(3) 0.10297(14)
S2 S 0.07742(5) 0.55504(11) 0.25037(5)
O3 O 0.15148(15) 0.5490(3) 0.31970(15)
O4 O 0.08692(16) 0.6204(3) 0.17395(15)
C1 C 0.05293(19) 0.1916(4) 0.09291(18)
C2 C 0.0772(2) 0.0219(4) 0.1048(2)
H1 H 0.0502 -0.0489 0.1378
C3 C 0.1409(2) -0.0426(5) 0.0681(2)
H2 H 0.1583 -0.1580 0.0767
C4 C 0.1797(2) 0.0591(5) 0.0188(2)
C5 C 0.1524(2) 0.2261(5) 0.00523(19)
H3 H 0.1773 0.2952 -0.0300
C6 C 0.0891(2) 0.2942(4) 0.04216(18)
H4 H 0.0710 0.4091 0.0328
C7 C 0.2519(2) -0.0112(6) -0.0184(2)
H5 H 0.2885 -0.0908 0.0205
H6 H 0.2889 0.0820 -0.0297
H7 H 0.2250 -0.0705 -0.0700
C8 C -0.0103(2) 0.6568(4) 0.27908(19)
C9 C -0.0739(2) 0.7409(4) 0.2199(2)
H8 H -0.0693 0.7457 0.1642
C10 C -0.1442(2) 0.8180(5) 0.2433(2)
H9 H -0.1882 0.8749 0.2028
C11 C -0.1520(2) 0.8138(4) 0.3245(2)
C12 C -0.0872(2) 0.7298(5) 0.3823(2)
H10 H -0.0918 0.7247 0.4380
C13 C -0.0163(2) 0.6537(5) 0.3610(2)
H11 H 0.0283 0.5994 0.4019
C14 C -0.2289(3) 0.8997(6) 0.3480(3)
H12 H -0.2802 0.8236 0.3364
H13 H -0.2438 1.0043 0.3158
H14 H -0.2128 0.9273 0.4070
C15 C 0.0831(2) 0.2258(4) 0.29713(19)
C16 C 0.0375(2) 0.1710(4) 0.35489(19)
C17 C 0.0761(2) 0.0474(5) 0.4111(2)
H15 H 0.0463 0.0097 0.4513
C18 C 0.1572(2) -0.0216(5) 0.4098(2)
H16 H 0.1821 -0.1084 0.4478
C19 C 0.2022(2) 0.0359(5) 0.3529(2)
H17 H 0.2586 -0.0100 0.3526
C20 C 0.1653(2) 0.1601(5) 0.2965(2)
H18 H 0.1962 0.1999 0.2576
C21 C -0.0503(2) 0.2395(4) 0.3584(2)
H19 H -0.0813 0.3076 0.3138
O5 O -0.08438(19) 0.2136(4) 0.41477(18)
loop_
_geom_bond_atom_site_label_1
_geom_bond_atom_site_label_2
_geom_bond_site_symmetry_1
_geom_bond_site_symmetry_2
N1 S1 1_555 1_555
S1 O1 1_555 1_555
O2 S1 1_555 1_555
S2 N1 1_555 1_555
O3 S2 1_555 1_555
O4 S2 1_555 1_555
C1 S1 1_555 1_555
C2 C1 1_555 1_555
H1 C2 1_555 1_555
C3 C2 1_555 1_555
H2 C3 1_555 1_555
C4 C3 1_555 1_555
C5 C4 1_555 1_555
H3 C5 1_555 1_555
C6 C1 1_555 1_555
H4 C6 1_555 1_555
C7 C4 1_555 1_555
H5 C7 1_555 1_555
H6 C7 1_555 1_555
H7 C7 1_555 1_555
C8 S2 1_555 1_555
C9 C8 1_555 1_555
H8 C9 1_555 1_555
C10 C9 1_555 1_555
H9 C10 1_555 1_555
C11 C10 1_555 1_555
C12 C11 1_555 1_555
H10 C12 1_555 1_555
C13 C8 1_555 1_555
H11 C13 1_555 1_555
C14 C11 1_555 1_555
H12 C14 1_555 1_555
H13 C14 1_555 1_555
H14 C14 1_555 1_555
C15 N1 1_555 1_555
C16 C15 1_555 1_555
C17 C16 1_555 1_555
H15 C17 1_555 1_555
C18 C17 1_555 1_555
H16 C18 1_555 1_555
C19 C18 1_555 1_555
H17 C19 1_555 1_555
C20 C15 1_555 1_555
H18 C20 1_555 1_555
C21 C16 1_555 1_555
H19 C21 1_555 1_555
O5 C21 1_555 1_555
C5 C6 1_555 1_555
C12 C13 1_555 1_555
C19 C20 1_555 1_555

#END
