
#######################################################################
#
#                 Cambridge Crystallographic Data Centre
#                                CCDC 
#
#######################################################################
#
# If this CIF has been generated from an entry in the Cambridge 
# Structural Database, then it will include bibliographic, chemical, 
# crystal, experimental, refinement or atomic coordinate data resulting 
# from the CCDC's data processing and validation procedures.
#
#######################################################################

data_JOCKUI
_chemical_formula_moiety         'C16 H19 N2 1+,I1 1-'
_chemical_name_systematic        
'2-(2-(4-(Dimethylamino)phenyl)ethenyl)-1-methylpyridinium iodide'
_symmetry_cell_setting           monoclinic
_symmetry_space_group_name_H-M   'P 21/c'
_symmetry_Int_Tables_number      14
_space_group_name_Hall           '-P 2ybc'
loop_
_symmetry_equiv_pos_site_id
_symmetry_equiv_pos_as_xyz
1 x,y,z
2 -x,1/2+y,1/2-z
3 -x,-y,-z
4 x,1/2-y,1/2+z
_cell_length_a                   7.1231(8)
_cell_length_b                   20.672(2)
_cell_length_c                   10.9643(12)
_cell_angle_alpha                90
_cell_angle_beta                 95.990(2)
_cell_angle_gamma                90
_cell_volume                     1605.66
_exptl_crystal_colour            red
_exptl_crystal_description       block
_chemical_melting_point          '273-274 deg.C'
_cell_formula_units_Z            4
_exptl_crystal_recrystallization_method methanol/water
_exptl_crystal_preparation       dye
loop_
_atom_site_label
_atom_site_type_symbol
_atom_site_fract_x
_atom_site_fract_y
_atom_site_fract_z
I1 I 0.06217(7) 0.34520(2) 0.75466(3)
N1 N 0.6646(7) 0.3515(2) 0.0633(4)
N2 N 0.7690(7) 0.6347(2) 0.6767(4)
C1 C 0.6933(11) 0.2827(3) 0.0546(6)
H1 H 0.8180 0.2719 0.0906
H2 H 0.6790 0.2699 -0.0300
H3 H 0.6019 0.2604 0.0976
C2 C 0.6090(10) 0.3855(3) -0.0481(6)
H4 H 0.4956 0.4094 -0.0397
H5 H 0.5864 0.3551 -0.1142
H6 H 0.7076 0.4147 -0.0652
C3 C 0.6865(7) 0.3815(3) 0.1754(5)
C4 C 0.7372(8) 0.3487(3) 0.2843(5)
H7 H 0.7561 0.3042 0.2824
C5 C 0.7600(8) 0.3804(3) 0.3947(5)
H8 H 0.7921 0.3564 0.4655
C6 C 0.7373(8) 0.4464(3) 0.4055(5)
C7 C 0.6854(8) 0.4798(3) 0.2957(5)
H9 H 0.6677 0.5244 0.2983
C8 C 0.6601(8) 0.4487(3) 0.1849(5)
H10 H 0.6247 0.4726 0.1143
C9 C 0.7666(7) 0.4771(3) 0.5236(5)
H11 H 0.7943 0.4502 0.5910
C10 C 0.7580(8) 0.5403(3) 0.5460(5)
H12 H 0.7302 0.5674 0.4789
C11 C 0.7881(8) 0.5704(3) 0.6654(5)
C12 C 0.8334(8) 0.5349(3) 0.7743(5)
H13 H 0.8486 0.4903 0.7707
C13 C 0.8550(9) 0.5656(4) 0.8843(6)
H14 H 0.8858 0.5416 0.9554
C14 C 0.8325(9) 0.6308(3) 0.8926(6)
H15 H 0.8457 0.6514 0.9684
C15 C 0.7909(8) 0.6647(3) 0.7892(6)
H16 H 0.7767 0.7094 0.7936
C16 C 0.7270(10) 0.6765(3) 0.5691(5)
H17 H 0.8250 0.6721 0.5159
H18 H 0.7200 0.7207 0.5952
H19 H 0.6083 0.6640 0.5259
loop_
_geom_bond_atom_site_label_1
_geom_bond_atom_site_label_2
_geom_bond_site_symmetry_1
_geom_bond_site_symmetry_2
N1 C1 1_555 1_555
N2 C11 1_555 1_555
C1 H1 1_555 1_555
H2 C1 1_555 1_555
H3 C1 1_555 1_555
C2 N1 1_555 1_555
H4 C2 1_555 1_555
H5 C2 1_555 1_555
H6 C2 1_555 1_555
C3 N1 1_555 1_555
C4 C3 1_555 1_555
H7 C4 1_555 1_555
C5 C4 1_555 1_555
H8 C5 1_555 1_555
C6 C5 1_555 1_555
C7 C6 1_555 1_555
H9 C7 1_555 1_555
C8 C3 1_555 1_555
H10 C8 1_555 1_555
C9 C6 1_555 1_555
H11 C9 1_555 1_555
C10 C9 1_555 1_555
H12 C10 1_555 1_555
C11 C10 1_555 1_555
C12 C11 1_555 1_555
H13 C12 1_555 1_555
C13 C12 1_555 1_555
H14 C13 1_555 1_555
C14 C13 1_555 1_555
H15 C14 1_555 1_555
C15 N2 1_555 1_555
H16 C15 1_555 1_555
C16 N2 1_555 1_555
H17 C16 1_555 1_555
H18 C16 1_555 1_555
H19 C16 1_555 1_555
C7 C8 1_555 1_555
C14 C15 1_555 1_555

#END
