
#######################################################################
#
#                 Cambridge Crystallographic Data Centre
#                                CCDC 
#
#######################################################################
#
# If this CIF has been generated from an entry in the Cambridge 
# Structural Database, then it will include bibliographic, chemical, 
# crystal, experimental, refinement or atomic coordinate data resulting 
# from the CCDC's data processing and validation procedures.
#
#######################################################################

data_JOCLIY
_chemical_name_common            
4,5-dihydroxy-3,4,5,6-tetrahydro-1'H-spiro[pyran-2,3'-pyrrolo[2,1-c][1,4]oxazine]-6'-carbaldehyde
_chemical_formula_moiety         'C12 H15 N1 O5'
_chemical_name_systematic        
(2S,5S)-4-hydroxy-5-(hydroxymethyl)-10,4,40,5-tet-rahydro-3H-spiro[furan-2,30-pyrrolo[2,1-c][1,4]oxazi-ne]-60-carb-aldehyde
_symmetry_cell_setting           orthorhombic
_symmetry_space_group_name_H-M   'P 21 21 21'
_symmetry_Int_Tables_number      19
_space_group_name_Hall           'P 2ac 2ab'
loop_
_symmetry_equiv_pos_site_id
_symmetry_equiv_pos_as_xyz
1 x,y,z
2 1/2-x,-y,1/2+z
3 -x,1/2+y,1/2-z
4 1/2+x,1/2-y,-z
_cell_length_a                   5.1260(9)
_cell_length_b                   13.433(2)
_cell_length_c                   17.174(3)
_cell_angle_alpha                90
_cell_angle_beta                 90
_cell_angle_gamma                90
_cell_volume                     1182.56
_exptl_crystal_colour            yellow
_exptl_crystal_description       prismatic
_chemical_melting_point          '440.3-442.2 K'
_cell_formula_units_Z            4
_chemical_properties_physical    unknown
_exptl_crystal_recrystallization_method methanol
loop_
_atom_site_label
_atom_site_type_symbol
_atom_site_fract_x
_atom_site_fract_y
_atom_site_fract_z
N1 N 0.0364(5) 0.35804(17) 0.32273(12)
O1 O 0.0997(4) 0.45020(13) 0.48090(10)
O2 O 0.4683(4) 0.39614(14) 0.41253(12)
O3 O 0.1603(5) 0.63709(17) 0.56676(12)
O4 O 0.6658(5) 0.67238(17) 0.50186(15)
O5 O -0.3572(5) 0.47393(18) 0.23275(12)
C1 C 0.3969(6) 0.56793(19) 0.42105(15)
H1 H 0.5180 0.5756 0.3781
H2 H 0.2674 0.6204 0.4174
C2 C 0.5428(6) 0.5768(2) 0.49763(16)
H3 H 0.6773 0.5251 0.4998
C3 C 0.3555(6) 0.5614(2) 0.56368(16)
H4 H 0.4532 0.5620 0.6127
C4 C 0.2221(7) 0.4620(2) 0.55513(15)
H5 H 0.3497 0.4095 0.5622
H6 H 0.0916 0.4552 0.5957
C5 C 0.2633(6) 0.4669(2) 0.41564(16)
C6 C 0.0892(6) 0.46132(19) 0.34419(15)
H7 H -0.0741 0.4952 0.3548
H8 H 0.1735 0.4950 0.3010
C7 C 0.1808(7) 0.2803(2) 0.34869(16)
C8 C 0.3817(7) 0.2956(2) 0.40963(18)
H9 H 0.3101 0.2771 0.4599
H10 H 0.5295 0.2525 0.3992
C9 C 0.0982(8) 0.1954(2) 0.31048(19)
H11 H 0.1648 0.1315 0.3165
C10 C -0.1033(9) 0.2240(2) 0.26133(19)
H12 H -0.1981 0.1818 0.2290
C11 C -0.1394(7) 0.3245(2) 0.26831(15)
C12 C -0.3295(8) 0.3840(3) 0.22895(16)
H13 H -0.4452 0.3501 0.1967
H14 H 0.819(6) 0.670(3) 0.521(2)
H15 H 0.250(8) 0.685(2) 0.5609(18)
loop_
_geom_bond_atom_site_label_1
_geom_bond_atom_site_label_2
_geom_bond_site_symmetry_1
_geom_bond_site_symmetry_2
N1 C6 1_555 1_555
O1 C4 1_555 1_555
O2 C5 1_555 1_555
O3 C3 1_555 1_555
O4 C2 1_555 1_555
O5 C12 1_555 1_555
C1 H1 1_555 1_555
H2 C1 1_555 1_555
C2 C1 1_555 1_555
H3 C2 1_555 1_555
C3 C2 1_555 1_555
H4 C3 1_555 1_555
C4 C3 1_555 1_555
H5 C4 1_555 1_555
H6 C4 1_555 1_555
C5 O1 1_555 1_555
C6 C5 1_555 1_555
H7 C6 1_555 1_555
H8 C6 1_555 1_555
C7 N1 1_555 1_555
C8 O2 1_555 1_555
H9 C8 1_555 1_555
H10 C8 1_555 1_555
C9 C7 1_555 1_555
H11 C9 1_555 1_555
C10 C9 1_555 1_555
H12 C10 1_555 1_555
C11 N1 1_555 1_555
C12 C11 1_555 1_555
H13 C12 1_555 1_555
H14 O4 1_555 1_555
H15 O3 1_555 1_555
C1 C5 1_555 1_555
C7 C8 1_555 1_555
C10 C11 1_555 1_555

#END
