
#######################################################################
#
#                 Cambridge Crystallographic Data Centre
#                                CCDC 
#
#######################################################################
#
# If this CIF has been generated from an entry in the Cambridge 
# Structural Database, then it will include bibliographic, chemical, 
# crystal, experimental, refinement or atomic coordinate data resulting 
# from the CCDC's data processing and validation procedures.
#
#######################################################################

data_JOCXIK
_chemical_formula_moiety         'C15 H20 N2 O8'
_chemical_name_systematic        
'2-(Acetoxymethyl)-6-cyanopiperidine-3,4,5-triyl triacetate'
_symmetry_cell_setting           orthorhombic
_symmetry_space_group_name_H-M   'P 21 21 21'
_symmetry_Int_Tables_number      19
_space_group_name_Hall           'P 2ac 2ab'
loop_
_symmetry_equiv_pos_site_id
_symmetry_equiv_pos_as_xyz
1 x,y,z
2 1/2+x,1/2-y,-z
3 -x,1/2+y,1/2-z
4 1/2-x,-y,1/2+z
_cell_length_a                   5.4783(2)
_cell_length_b                   14.0229(5)
_cell_length_c                   23.3578(8)
_cell_angle_alpha                90
_cell_angle_beta                 90
_cell_angle_gamma                90
_cell_volume                     1794.38
_exptl_crystal_colour            colorless
_exptl_crystal_description       block
_cell_formula_units_Z            4
loop_
_atom_site_label
_atom_site_type_symbol
_atom_site_fract_x
_atom_site_fract_y
_atom_site_fract_z
N1 N 0.7807(3) 0.41815(12) 0.07879(7)
N2 N 0.2558(4) 0.34793(14) 0.00926(8)
O1 O 0.3654(3) 0.24441(9) 0.14551(6)
O2 O 0.6655(3) 0.13986(11) 0.16370(9)
O3 O 0.3917(2) 0.40184(9) 0.22509(5)
O4 O -0.0187(2) 0.40792(12) 0.22326(6)
O5 O 0.3801(2) 0.57674(9) 0.16146(6)
O6 O 0.6572(3) 0.66149(11) 0.21128(7)
O7 O 0.9103(3) 0.58649(10) 0.02599(6)
O8 O 1.1749(3) 0.70375(11) 0.04707(7)
C1 C 0.6293(4) 0.33351(14) 0.08055(8)
H1 H 0.7318 0.2772 0.0699
C2 C 0.5415(4) 0.32085(13) 0.14225(9)
H2 H 0.6836 0.3064 0.1677
C3 C 0.4105(3) 0.40920(13) 0.16365(8)
H3 H 0.2440 0.4132 0.1462
C4 C 0.5523(3) 0.50045(13) 0.15164(8)
H4 H 0.6919 0.5061 0.1790
C5 C 0.6462(4) 0.50646(13) 0.09015(8)
H5 H 0.5066 0.5130 0.0628
C6 C 0.8193(4) 0.59010(14) 0.08404(8)
H6 H 0.7324 0.6509 0.0910
H7 H 0.9554 0.5847 0.1117
C7 C 1.0934(4) 0.64701(15) 0.01349(9)
C8 C 1.1758(5) 0.63317(18) -0.04695(10)
H8 H 1.0558 0.6613 -0.0731
H9 H 1.1915 0.5648 -0.0549
H10 H 1.3343 0.6643 -0.0524
C9 C 0.4166(4) 0.33855(14) 0.04030(9)
C10 C 0.4538(4) 0.15586(15) 0.15664(10)
C11 C 0.2527(4) 0.08372(16) 0.15772(12)
H11 H 0.2359 0.0549 0.1197
H12 H 0.0993 0.1150 0.1684
H13 H 0.2913 0.0340 0.1858
C12 C 0.1679(4) 0.40388(13) 0.24958(8)
C13 C 0.1917(4) 0.40126(14) 0.31323(8)
H14 H 0.2687 0.4603 0.3266
H15 H 0.2926 0.3466 0.3244
H16 H 0.0295 0.3951 0.3305
C14 C 0.4535(4) 0.65284(14) 0.19276(9)
C15 C 0.2496(4) 0.72245(15) 0.19856(10)
H17 H 0.3063 0.7784 0.2199
H18 H 0.1139 0.6926 0.2192
H19 H 0.1945 0.7422 0.1604
H20 H 0.859(4) 0.4215(16) 0.0471(10)
loop_
_geom_bond_atom_site_label_1
_geom_bond_atom_site_label_2
_geom_bond_site_symmetry_1
_geom_bond_site_symmetry_2
N1 C1 1_555 1_555
N2 C9 1_555 1_555
O1 C2 1_555 1_555
O2 C10 1_555 1_555
O3 C3 1_555 1_555
O4 C12 1_555 1_555
O5 C4 1_555 1_555
O6 C14 1_555 1_555
O7 C6 1_555 1_555
O8 C7 1_555 1_555
C1 H1 1_555 1_555
C2 C1 1_555 1_555
H2 C2 1_555 1_555
C3 C2 1_555 1_555
H3 C3 1_555 1_555
C4 C3 1_555 1_555
H4 C4 1_555 1_555
C5 N1 1_555 1_555
H5 C5 1_555 1_555
C6 C5 1_555 1_555
H6 C6 1_555 1_555
H7 C6 1_555 1_555
C7 O7 1_555 1_555
C8 C7 1_555 1_555
H8 C8 1_555 1_555
H9 C8 1_555 1_555
H10 C8 1_555 1_555
C9 C1 1_555 1_555
C10 O1 1_555 1_555
C11 C10 1_555 1_555
H11 C11 1_555 1_555
H12 C11 1_555 1_555
H13 C11 1_555 1_555
C12 O3 1_555 1_555
C13 C12 1_555 1_555
H14 C13 1_555 1_555
H15 C13 1_555 1_555
H16 C13 1_555 1_555
C14 O5 1_555 1_555
C15 C14 1_555 1_555
H17 C15 1_555 1_555
H18 C15 1_555 1_555
H19 C15 1_555 1_555
H20 N1 1_555 1_555
C4 C5 1_555 1_555

#END
