
#######################################################################
#
#                 Cambridge Crystallographic Data Centre
#                                CCDC 
#
#######################################################################
#
# If this CIF has been generated from an entry in the Cambridge 
# Structural Database, then it will include bibliographic, chemical, 
# crystal, experimental, refinement or atomic coordinate data resulting 
# from the CCDC's data processing and validation procedures.
#
#######################################################################

data_JODBAF
_chemical_formula_moiety         'C8 H22 B4 Si2 2-,2(Na1 1+),4(C4 H8 O1)'
_chemical_name_systematic        
'Di-sodium 2,4-bis(trimethylsilyl)-2,4-dicarba-nido-hexaborate(2-) tetrahydrofuran solvate'
_symmetry_cell_setting           orthorhombic
_symmetry_space_group_name_H-M   'P b c a'
_symmetry_Int_Tables_number      61
_space_group_name_Hall           '-P 2ac 2ab'
loop_
_symmetry_equiv_pos_site_id
_symmetry_equiv_pos_as_xyz
1 x,y,z
2 1/2-x,1/2+y,z
3 x,1/2-y,1/2+z
4 1/2-x,-y,1/2+z
5 -x,-y,-z
6 1/2+x,1/2-y,-z
7 -x,1/2+y,1/2-z
8 1/2+x,y,1/2-z
_cell_length_a                   20.241(9)
_cell_length_b                   16.505(7)
_cell_length_c                   42.649(16)
_cell_angle_alpha                90
_cell_angle_beta                 90
_cell_angle_gamma                90
_cell_volume                     14248.1
_cell_formula_units_Z            16
loop_
_atom_site_label
_atom_site_type_symbol
_atom_site_fract_x
_atom_site_fract_y
_atom_site_fract_z
C1 C -0.06921(67) 0.3290(10) 0.57351(32)
B1 B -0.07714(85) 0.4019(12) 0.59434(51)
C2 C -0.05798(67) 0.36656(89) 0.62835(36)
B2 B -0.03432(80) 0.27565(93) 0.62764(47)
B3 B -0.04056(72) 0.2472(11) 0.58966(38)
B4 B -0.1101(10) 0.3004(12) 0.60725(44)
Si1 Si -0.10411(29) 0.33064(35) 0.53374(12)
Si2 Si -0.08254(26) 0.41983(32) 0.66421(12)
C3 C -0.0777(18) 0.4237(16) 0.51375(54)
C4 C -0.0712(14) 0.2469(18) 0.50665(51)
C5 C -0.1956(11) 0.3177(18) 0.53584(59)
C6 C -0.0812(18) 0.5313(15) 0.65858(69)
C7 C -0.1727(10) 0.4088(16) 0.67461(54)
C8 C -0.0336(13) 0.3957(21) 0.69703(48)
C9 C 0.10754(69) 0.05949(82) 0.66020(31)
B5 B 0.14542(91) 0.0465(11) 0.62977(38)
C10 C 0.08987(79) 0.01838(80) 0.60620(32)
B6 B 0.01627(89) 0.0170(10) 0.62214(45)
B7 B 0.02984(79) 0.04546(94) 0.65899(43)
B8 B 0.08733(84) -0.0307(12) 0.64263(37)
Si3 Si 0.14945(24) 0.06353(31) 0.69924(10)
Si4 Si 0.10606(30) -0.03239(34) 0.56928(11)
C11 C 0.13902(92) -0.0376(12) 0.72200(38)
C12 C 0.1184(11) 0.1533(14) 0.72178(41)
C13 C 0.23857(80) 0.0775(11) 0.69716(35)
C14 C 0.04896(91) 0.0017(13) 0.53850(39)
C15 C 0.1935(11) -0.0158(20) 0.55515(45)
C16 C 0.1146(17) -0.1457(13) 0.57375(47)
Na1 Na 0.05466(26) 0.36242(33) 0.59043(13)
Na2 Na 0.06534(24) 0.17335(31) 0.62081(12)
Na3 Na -0.08930(25) 0.12015(34) 0.62539(13)
Na4 Na -0.02257(28) -0.10676(36) 0.66586(14)
O1 O 0.09603(78) 0.49201(70) 0.59260(35)
C17 C 0.0546(12) 0.5649(22) 0.58187(74)
C18 C 0.1077(61) 0.6266(24) 0.57990(87)
C19 C 0.1460(21) 0.6158(27) 0.6029(13)
C20 C 0.1482(15) 0.5283(17) 0.6030(13)
O2 O 0.11727(60) 0.3192(11) 0.54702(29)
C21 C 0.1460(24) 0.3162(22) 0.49490(76)
C22 C 0.1290(15) 0.2301(22) 0.50264(71)
C23 C 0.1503(17) 0.3633(22) 0.52432(75)
C24 C 0.1120(13) 0.2287(14) 0.54032(55)
O3 O 0.14069(52) 0.29211(65) 0.62378(29)
C25 C 0.1399(11) 0.3237(13) 0.65508(44)
C26 C 0.2146(15) 0.3353(16) 0.66291(59)
C27 C 0.2525(11) 0.3021(18) 0.63751(53)
C28 C 0.20825(93) 0.2783(13) 0.61222(47)
O4 O -0.16525(64) 0.05587(84) 0.59171(29)
C29 C -0.23376(75) 0.0357(19) 0.59007(66)
C30 C -0.2432(16) 0.0707(20) 0.55997(72)
C31 C -0.1940(15) 0.0365(17) 0.54016(58)
C32 C -0.1433(11) 0.0224(16) 0.56255(50)
O5 O -0.16344(74) 0.11793(79) 0.66800(36)
C33 C -0.23038(86) 0.1451(21) 0.66763(46)
C34 C -0.2499(11) 0.1318(26) 0.69927(62)
C35 C -0.1982(16) 0.1705(19) 0.71602(42)
C36 C -0.14234(93) 0.1523(21) 0.69709(54)
O6 O -0.08745(82) -0.1913(11) 0.63498(33)
C37 C -0.0965(23) -0.2741(14) 0.62620(87)
C38 C -0.1066(16) -0.2813(18) 0.59329(80)
C39 C -0.1527(15) -0.2165(19) 0.59205(72)
C40 C -0.1477(12) -0.1689(19) 0.61980(76)
O7 O -0.09600(67) -0.09549(75) 0.70755(32)
C41 C -0.1604(14) -0.1264(14) 0.70951(60)
C42 C -0.1845(13) -0.1164(17) 0.74315(68)
C43 C -0.1307(14) -0.0794(20) 0.76108(56)
C44 C -0.0780(11) -0.0594(14) 0.73751(63)
O8 O 0.02305(74) -0.21927(77) 0.69004(30)
C45 C 0.0893(22) -0.2441(19) 0.6821(11)
C46 C 0.0976(21) -0.3028(36) 0.7001(16)
C47 C 0.0507(25) -0.3236(23) 0.72389(68)
C48 C -0.0061(13) -0.2710(17) 0.71333(60)
loop_
_geom_bond_atom_site_label_1
_geom_bond_atom_site_label_2
_geom_bond_site_symmetry_1
_geom_bond_site_symmetry_2
C1 B1 1_555 1_555
B1 C2 1_555 1_555
C2 B2 1_555 1_555
B2 B3 1_555 1_555
B3 C1 1_555 1_555
B4 C1 1_555 1_555
Si1 C1 1_555 1_555
Si2 C2 1_555 1_555
C3 Si1 1_555 1_555
C4 Si1 1_555 1_555
C5 Si1 1_555 1_555
C6 Si2 1_555 1_555
C7 Si2 1_555 1_555
C8 Si2 1_555 1_555
C9 B5 1_555 1_555
B5 C10 1_555 1_555
C10 B6 1_555 1_555
B6 B7 1_555 1_555
B7 C9 1_555 1_555
B8 C9 1_555 1_555
Si3 C9 1_555 1_555
Si4 C10 1_555 1_555
C11 Si3 1_555 1_555
C12 Si3 1_555 1_555
C13 Si3 1_555 1_555
C14 Si4 1_555 1_555
C15 Si4 1_555 1_555
C16 Si4 1_555 1_555
O1 C17 1_555 1_555
C17 C18 1_555 1_555
C18 C19 1_555 1_555
C19 C20 1_555 1_555
C20 O1 1_555 1_555
O2 C23 1_555 1_555
C21 C22 1_555 1_555
C22 C24 1_555 1_555
C23 C21 1_555 1_555
C24 O2 1_555 1_555
O3 C25 1_555 1_555
C25 C26 1_555 1_555
C26 C27 1_555 1_555
C27 C28 1_555 1_555
C28 O3 1_555 1_555
O4 C29 1_555 1_555
C29 C30 1_555 1_555
C30 C31 1_555 1_555
C31 C32 1_555 1_555
C32 O4 1_555 1_555
O5 C33 1_555 1_555
C33 C34 1_555 1_555
C34 C35 1_555 1_555
C35 C36 1_555 1_555
C36 O5 1_555 1_555
O6 C37 1_555 1_555
C37 C38 1_555 1_555
C38 C39 1_555 1_555
C39 C40 1_555 1_555
C40 O6 1_555 1_555
O7 C41 1_555 1_555
C41 C42 1_555 1_555
C42 C43 1_555 1_555
C43 C44 1_555 1_555
C44 O7 1_555 1_555
O8 C45 1_555 1_555
C45 C46 1_555 1_555
C46 C47 1_555 1_555
C47 C48 1_555 1_555
C48 O8 1_555 1_555
B1 B4 1_555 1_555
C2 B4 1_555 1_555
B2 B4 1_555 1_555
B3 B4 1_555 1_555
B5 B8 1_555 1_555
C10 B8 1_555 1_555
B6 B8 1_555 1_555
B7 B8 1_555 1_555

#END
