
#######################################################################
#
#                 Cambridge Crystallographic Data Centre
#                                CCDC 
#
#######################################################################
#
# If this CIF has been generated from an entry in the Cambridge 
# Structural Database, then it will include bibliographic, chemical, 
# crystal, experimental, refinement or atomic coordinate data resulting 
# from the CCDC's data processing and validation procedures.
#
#######################################################################

data_JODGUG
_chemical_name_common            CBMG
_chemical_formula_moiety         'C5 H8 Cl1 N3 O4'
_chemical_name_systematic        'dimethyl (chlorocarbonimidoyl)biscarbamate'
_symmetry_cell_setting           triclinic
_symmetry_space_group_name_H-M   'P -1'
_symmetry_Int_Tables_number      2
_space_group_name_Hall           '-P 1'
loop_
_symmetry_equiv_pos_site_id
_symmetry_equiv_pos_as_xyz
1 x,y,z
2 -x,-y,-z
_cell_length_a                   8.8504(11)
_cell_length_b                   10.2991(11)
_cell_length_c                   10.5406(13)
_cell_angle_alpha                76.153(5)
_cell_angle_beta                 72.220(5)
_cell_angle_gamma                88.192(5)
_cell_volume                     887.412
_exptl_crystal_colour            colorless
_exptl_crystal_description       plate
_cell_formula_units_Z            4
loop_
_atom_site_label
_atom_site_type_symbol
_atom_site_fract_x
_atom_site_fract_y
_atom_site_fract_z
Cl1 Cl 0.10664(5) 1.09904(4) 0.52766(4)
O1 O 0.53140(13) 1.11830(11) 0.87045(11)
O2 O 0.61916(13) 1.05760(11) 0.66872(11)
O3 O 0.40822(13) 0.80681(11) 0.80190(11)
O4 O 0.46704(13) 0.76367(10) 0.59190(11)
N1 N 0.35406(15) 1.08614(12) 0.77081(13)
H1 H 0.2878 1.1050 0.8421
N2 N 0.34556(15) 0.94923(12) 0.61976(13)
H2 H 0.3373 0.9504 0.5403
N3 N 0.19656(15) 1.14347(13) 0.63589(13)
C1 C 0.69277(19) 1.11470(16) 0.87781(17)
H3 H 0.6941 1.1370 0.9609
H4 H 0.7598 1.1782 0.8002
H5 H 0.7311 1.0265 0.8773
C2 C 0.51312(18) 1.08426(14) 0.76108(15)
C3 C 0.29579(17) 1.05914(15) 0.67148(15)
C4 C 0.40823(17) 0.83606(15) 0.68455(15)
C5 C 0.5324(2) 0.63870(16) 0.64351(18)
H6 H 0.5649 0.5903 0.5730
H7 H 0.4531 0.5860 0.7216
H8 H 0.6225 0.6569 0.6702
Cl2 Cl 0.99656(5) 0.86238(4) 0.87287(4)
O5 O 0.84170(13) 0.50217(11) 1.43921(10)
O6 O 0.89946(13) 0.41439(10) 1.25347(11)
O7 O 1.22808(13) 0.53549(11) 1.17577(12)
O8 O 1.25958(13) 0.45782(11) 0.98678(11)
N4 N 0.92054(15) 0.64172(13) 1.23599(13)
H9 H 0.9041 0.7002 1.2844
N5 N 0.91093(15) 0.79457(12) 1.04647(13)
N6 N 1.09200(15) 0.61941(12) 1.02020(13)
H10 H 1.1001 0.6287 0.9351
C6 C 0.8071(2) 0.36815(16) 1.52828(16)
H11 H 0.7774 0.3734 1.6224
H12 H 0.8998 0.3163 1.5088
H13 H 0.7214 0.3262 1.5125
C7 C 0.88906(18) 0.50909(15) 1.30458(15)
C8 C 0.97674(17) 0.68773(14) 1.09457(15)
C9 C 1.19686(18) 0.53610(15) 1.07256(15)
C10 C 1.3616(2) 0.35672(17) 1.03405(19)
H14 H 1.4104 0.3114 0.9630
H15 H 1.2993 0.2932 1.1144
H16 H 1.4425 0.3988 1.0560
loop_
_geom_bond_atom_site_label_1
_geom_bond_atom_site_label_2
_geom_bond_site_symmetry_1
_geom_bond_site_symmetry_2
Cl1 N3 1_555 1_555
O1 C1 1_555 1_555
O2 C2 1_555 1_555
O3 C4 1_555 1_555
O4 C4 1_555 1_555
N1 H1 1_555 1_555
N2 H2 1_555 1_555
N3 C3 1_555 1_555
C1 H3 1_555 1_555
H4 C1 1_555 1_555
H5 C1 1_555 1_555
C2 O1 1_555 1_555
C3 N1 1_555 1_555
C4 N2 1_555 1_555
C5 O4 1_555 1_555
H6 C5 1_555 1_555
H7 C5 1_555 1_555
H8 C5 1_555 1_555
Cl2 N5 1_555 1_555
O5 C6 1_555 1_555
O6 C7 1_555 1_555
O7 C9 1_555 1_555
O8 C9 1_555 1_555
N4 H9 1_555 1_555
N5 C8 1_555 1_555
N6 H10 1_555 1_555
C6 H11 1_555 1_555
H12 C6 1_555 1_555
H13 C6 1_555 1_555
C7 O5 1_555 1_555
C8 N4 1_555 1_555
C9 N6 1_555 1_555
C10 O8 1_555 1_555
H14 C10 1_555 1_555
H15 C10 1_555 1_555
H16 C10 1_555 1_555
N1 C2 1_555 1_555
N2 C3 1_555 1_555
N4 C7 1_555 1_555
N6 C8 1_555 1_555

#END
