
#######################################################################
#
#                 Cambridge Crystallographic Data Centre
#                                CCDC 
#
#######################################################################
#
# If this CIF has been generated from an entry in the Cambridge 
# Structural Database, then it will include bibliographic, chemical, 
# crystal, experimental, refinement or atomic coordinate data resulting 
# from the CCDC's data processing and validation procedures.
#
#######################################################################

data_JODHAN
_chemical_formula_moiety         'C6 H4 Cl1 N3'
_chemical_name_systematic        3-chloroimidazo[1,2-a]pyrazine
_symmetry_cell_setting           triclinic
_symmetry_space_group_name_H-M   'P -1'
_symmetry_Int_Tables_number      2
_space_group_name_Hall           '-P 1'
loop_
_symmetry_equiv_pos_site_id
_symmetry_equiv_pos_as_xyz
1 x,y,z
2 -x,-y,-z
_cell_length_a                   6.3756(13)
_cell_length_b                   7.0803(16)
_cell_length_c                   7.9919(18)
_cell_angle_alpha                63.815(6)
_cell_angle_beta                 70.832(6)
_cell_angle_gamma                70.159(6)
_cell_volume                     297.63
_exptl_crystal_colour            colorless
_exptl_crystal_description       plate
_cell_formula_units_Z            2
loop_
_atom_site_label
_atom_site_type_symbol
_atom_site_fract_x
_atom_site_fract_y
_atom_site_fract_z
Cl1 Cl 0.11853(6) 0.76474(6) 0.85809(5)
N1 N 0.4360(2) 0.7527(2) 0.54329(19)
N2 N 0.7702(2) 0.7004(2) 0.6139(2)
N3 N 0.6387(2) 0.7621(2) 0.1769(2)
C1 C 0.3900(3) 0.7409(3) 0.7270(2)
C2 C 0.5951(3) 0.7098(3) 0.7675(2)
H1 H 0.6134 0.6966 0.8858
C3 C 0.6709(3) 0.7259(3) 0.4801(2)
C4 C 0.7642(3) 0.7289(3) 0.2932(2)
H2 H 0.9251 0.7059 0.2493
C5 C 0.4075(3) 0.7912(2) 0.2428(2)
H3 H 0.3160 0.8177 0.1584
C6 C 0.3002(3) 0.7842(3) 0.4253(2)
H4 H 0.1397 0.8003 0.4681
loop_
_geom_bond_atom_site_label_1
_geom_bond_atom_site_label_2
_geom_bond_site_symmetry_1
_geom_bond_site_symmetry_2
Cl1 C1 1_555 1_555
N1 C1 1_555 1_555
N2 C2 1_555 1_555
N3 C4 1_555 1_555
C1 C2 1_555 1_555
C2 H1 1_555 1_555
C3 N1 1_555 1_555
C4 C3 1_555 1_555
H2 C4 1_555 1_555
C5 N3 1_555 1_555
H3 C5 1_555 1_555
C6 N1 1_555 1_555
H4 C6 1_555 1_555
N2 C3 1_555 1_555
C5 C6 1_555 1_555

#END
