
#######################################################################
#
#                 Cambridge Crystallographic Data Centre
#                                CCDC 
#
#######################################################################
#
# If this CIF has been generated from an entry in the Cambridge 
# Structural Database, then it will include bibliographic, chemical, 
# crystal, experimental, refinement or atomic coordinate data resulting 
# from the CCDC's data processing and validation procedures.
#
#######################################################################

data_JODJAN01
_chemical_formula_moiety         'C13 H17 N1 O2 S1'
_chemical_name_systematic        
N-(cyclohex-2-en-1-yl)-4-methylbenzenesulfonamide
_symmetry_cell_setting           monoclinic
_symmetry_space_group_name_H-M   'C 2/c'
_symmetry_Int_Tables_number      15
_space_group_name_Hall           '-C 2yn'
loop_
_symmetry_equiv_pos_site_id
_symmetry_equiv_pos_as_xyz
1 x,y,z
2 -x,y,1/2-z
3 1/2+x,1/2+y,z
4 1/2-x,1/2+y,1/2-z
5 -x,-y,-z
6 x,-y,1/2+z
7 1/2-x,1/2-y,-z
8 1/2+x,1/2-y,1/2+z
_cell_length_a                   17.221(5)
_cell_length_b                   8.952(3)
_cell_length_c                   17.795(5)
_cell_angle_alpha                90
_cell_angle_beta                 108.727(4)
_cell_angle_gamma                90
_cell_volume                     2598.09
_exptl_crystal_colour            colorless
_exptl_crystal_description       plate
_cell_formula_units_Z            8
loop_
_atom_site_label
_atom_site_type_symbol
_atom_site_fract_x
_atom_site_fract_y
_atom_site_fract_z
N1 N 0.19329(12) 0.3005(2) 0.37361(12)
H1 H 0.2397 0.3360 0.4024
C1 C 0.13874(14) 0.3910(3) 0.30865(14)
H2 H 0.0883 0.3342 0.2842
C2 C 0.1165(2) 0.5342(3) 0.34098(18)
H3 H 0.1073 0.5326 0.3897
C3 C 0.1096(3) 0.6613(4) 0.3027(2)
H4 H 0.0952 0.7448 0.3263
C4 C 0.1226(2) 0.6828(4) 0.2268(3)
H5 H 0.1730 0.7385 0.2349
H6 H 0.0778 0.7413 0.1925
C5 C 0.1281(2) 0.5347(4) 0.1864(2)
H7 H 0.0733 0.4954 0.1613
H8 H 0.1531 0.5509 0.1454
C6 C 0.17784(18) 0.4238(4) 0.24550(17)
H9 H 0.2326 0.4631 0.2703
H10 H 0.1825 0.3320 0.2184
S1 S 0.16600(4) 0.13498(6) 0.39079(3)
O1 O 0.14748(11) 0.04953(19) 0.32000(10)
O2 O 0.22940(11) 0.0839(2) 0.46016(10)
C7 C 0.07416(15) 0.1543(2) 0.41425(14)
C8 C 0.07218(17) 0.2408(3) 0.47818(16)
H11 H 0.1199 0.2859 0.5105
C9 C -0.0002(2) 0.2598(4) 0.49369(17)
H12 H -0.0007 0.3184 0.5367
C10 C -0.07283(16) 0.1941(3) 0.44692(16)
C11 C -0.06880(17) 0.1068(4) 0.38512(17)
H13 H -0.1162 0.0589 0.3541
C12 C 0.00259(16) 0.0870(3) 0.36704(15)
H14 H 0.0028 0.0291 0.3237
C13 C -0.15256(19) 0.2210(4) 0.4628(2)
H15 H -0.1956 0.1662 0.4250
H16 H -0.1652 0.3257 0.4579
H17 H -0.1476 0.1881 0.5154
loop_
_geom_bond_atom_site_label_1
_geom_bond_atom_site_label_2
_geom_bond_site_symmetry_1
_geom_bond_site_symmetry_2
N1 H1 1_555 1_555
C1 N1 1_555 1_555
H2 C1 1_555 1_555
C2 C1 1_555 1_555
H3 C2 1_555 1_555
C3 C2 1_555 1_555
H4 C3 1_555 1_555
C4 C3 1_555 1_555
H5 C4 1_555 1_555
H6 C4 1_555 1_555
C5 C4 1_555 1_555
H7 C5 1_555 1_555
H8 C5 1_555 1_555
C6 C1 1_555 1_555
H9 C6 1_555 1_555
H10 C6 1_555 1_555
S1 N1 1_555 1_555
O1 S1 1_555 1_555
O2 S1 1_555 1_555
C7 S1 1_555 1_555
C8 C7 1_555 1_555
H11 C8 1_555 1_555
C9 C8 1_555 1_555
H12 C9 1_555 1_555
C10 C9 1_555 1_555
C11 C10 1_555 1_555
H13 C11 1_555 1_555
C12 C7 1_555 1_555
H14 C12 1_555 1_555
C13 C10 1_555 1_555
H15 C13 1_555 1_555
H16 C13 1_555 1_555
H17 C13 1_555 1_555
C5 C6 1_555 1_555
C11 C12 1_555 1_555

#END
