
#######################################################################
#
#                 Cambridge Crystallographic Data Centre
#                                CCDC 
#
#######################################################################
#
# If this CIF has been generated from an entry in the Cambridge 
# Structural Database, then it will include bibliographic, chemical, 
# crystal, experimental, refinement or atomic coordinate data resulting 
# from the CCDC's data processing and validation procedures.
#
#######################################################################

data_JODJAP
_chemical_formula_moiety         'C20 H20 Cl1 N1 O4'
_chemical_name_systematic        
1-(2-chloro-4,5-dimethoxybenzyl)-6,7-dimethoxyisoquinoline
_symmetry_cell_setting           monoclinic
_symmetry_space_group_name_H-M   'C 2/c'
_symmetry_Int_Tables_number      15
_space_group_name_Hall           '-C 2yn'
loop_
_symmetry_equiv_pos_site_id
_symmetry_equiv_pos_as_xyz
1 x,y,z
2 -x,y,1/2-z
3 1/2+x,1/2+y,z
4 1/2-x,1/2+y,1/2-z
5 -x,-y,-z
6 x,-y,1/2+z
7 1/2-x,1/2-y,-z
8 1/2+x,1/2-y,1/2+z
_cell_length_a                   27.1830(15)
_cell_length_b                   4.7408(3)
_cell_length_c                   30.1227(17)
_cell_angle_alpha                90
_cell_angle_beta                 104.310(4)
_cell_angle_gamma                90
_cell_volume                     3761.44
_exptl_crystal_colour            colorless
_exptl_crystal_description       block
_cell_formula_units_Z            8
loop_
_atom_site_label
_atom_site_type_symbol
_atom_site_fract_x
_atom_site_fract_y
_atom_site_fract_z
Cl1 Cl 0.32325(2) 1.24838(12) 0.56665(2)
O1 O 0.46134(6) 0.6630(4) 0.52180(6)
O2 O 0.49000(6) 0.4266(3) 0.60127(5)
O3 O 0.17810(6) 0.7363(4) 0.56950(6)
O4 O 0.14029(6) 0.3831(4) 0.61457(6)
N1 N 0.37090(7) 0.6104(4) 0.72230(7)
C1 C 0.37168(8) 0.9950(5) 0.57968(8)
C2 C 0.39527(9) 0.9315(5) 0.54449(8)
H1 H 0.3843 1.0194 0.5154
C3 C 0.43471(9) 0.7389(5) 0.55275(8)
C4 C 0.45012(9) 0.6093(5) 0.59636(8)
C5 C 0.42556(8) 0.6741(5) 0.62987(8)
H2 H 0.4358 0.5833 0.6588
C6 C 0.38547(8) 0.8725(5) 0.62234(8)
C7 C 0.36397(9) 0.9579(5) 0.66227(8)
H3 H 0.3913 1.0484 0.6858
H4 H 0.3372 1.1013 0.6514
C8 C 0.34170(9) 0.7208(5) 0.68456(8)
C9 C 0.29053(9) 0.6296(5) 0.66634(8)
C10 C 0.25966(8) 0.7367(5) 0.62471(8)
H5 H 0.2733 0.8715 0.6077
C11 C 0.21091(9) 0.6492(5) 0.60884(8)
C12 C 0.18958(9) 0.4475(5) 0.63422(8)
C13 C 0.21887(9) 0.3365(5) 0.67428(8)
H6 H 0.2048 0.2012 0.6909
C14 C 0.26995(9) 0.4238(5) 0.69075(8)
C15 C 0.30241(9) 0.3123(5) 0.73102(8)
H7 H 0.2902 0.1744 0.7485
C16 C 0.35126(9) 0.4041(5) 0.74450(8)
H8 H 0.3729 0.3201 0.7708
C17 C 0.44774(10) 0.8014(6) 0.47786(8)
H9 H 0.4706 0.7391 0.4592
H10 H 0.4507 1.0061 0.4822
H11 H 0.4127 0.7532 0.4622
C18 C 0.50738(9) 0.2954(5) 0.64480(8)
H12 H 0.5356 0.1684 0.6441
H13 H 0.4796 0.1871 0.6520
H14 H 0.5189 0.4402 0.6683
C19 C 0.19677(10) 0.9354(6) 0.54203(9)
H15 H 0.1696 0.9842 0.5151
H16 H 0.2253 0.8527 0.5321
H17 H 0.2081 1.1060 0.5600
C20 C 0.11597(10) 0.1805(5) 0.63751(9)
H18 H 0.0813 0.1464 0.6193
H19 H 0.1149 0.2534 0.6677
H20 H 0.1351 0.0033 0.6412
loop_
_geom_bond_atom_site_label_1
_geom_bond_atom_site_label_2
_geom_bond_site_symmetry_1
_geom_bond_site_symmetry_2
Cl1 C1 1_555 1_555
O1 C3 1_555 1_555
O2 C4 1_555 1_555
O3 C11 1_555 1_555
O4 C12 1_555 1_555
N1 C8 1_555 1_555
C1 C2 1_555 1_555
C2 H1 1_555 1_555
C3 C2 1_555 1_555
C4 C3 1_555 1_555
C5 C4 1_555 1_555
H2 C5 1_555 1_555
C6 C1 1_555 1_555
C7 C6 1_555 1_555
H3 C7 1_555 1_555
H4 C7 1_555 1_555
C8 C7 1_555 1_555
C9 C8 1_555 1_555
C10 C9 1_555 1_555
H5 C10 1_555 1_555
C11 C10 1_555 1_555
C12 C11 1_555 1_555
C13 C12 1_555 1_555
H6 C13 1_555 1_555
C14 C9 1_555 1_555
C15 C14 1_555 1_555
H7 C15 1_555 1_555
C16 N1 1_555 1_555
H8 C16 1_555 1_555
C17 O1 1_555 1_555
H9 C17 1_555 1_555
H10 C17 1_555 1_555
H11 C17 1_555 1_555
C18 O2 1_555 1_555
H12 C18 1_555 1_555
H13 C18 1_555 1_555
H14 C18 1_555 1_555
C19 O3 1_555 1_555
H15 C19 1_555 1_555
H16 C19 1_555 1_555
H17 C19 1_555 1_555
C20 O4 1_555 1_555
H18 C20 1_555 1_555
H19 C20 1_555 1_555
H20 C20 1_555 1_555
C5 C6 1_555 1_555
C13 C14 1_555 1_555
C15 C16 1_555 1_555

#END
