
#######################################################################
#
#                 Cambridge Crystallographic Data Centre
#                                CCDC 
#
#######################################################################
#
# If this CIF has been generated from an entry in the Cambridge 
# Structural Database, then it will include bibliographic, chemical, 
# crystal, experimental, refinement or atomic coordinate data resulting 
# from the CCDC's data processing and validation procedures.
#
#######################################################################

data_JODJET
_chemical_formula_moiety         'C10 H16 B1 Cl1 N2 O2'
_chemical_name_systematic        
4-chloro-1-methyl-5-(4,4,5,5-tetramethyl-1,3,2-dioxaborolan-2-yl)-1H-pyrazole
_symmetry_cell_setting           triclinic
_symmetry_space_group_name_H-M   'P -1'
_symmetry_Int_Tables_number      2
_space_group_name_Hall           '-P 1'
loop_
_symmetry_equiv_pos_site_id
_symmetry_equiv_pos_as_xyz
1 x,y,z
2 -x,-y,-z
_cell_length_a                   7.6158(3)
_cell_length_b                   8.4994(3)
_cell_length_c                   10.1588(4)
_cell_angle_alpha                75.010(2)
_cell_angle_beta                 78.014(2)
_cell_angle_gamma                73.334(2)
_cell_volume                     602.152
_exptl_crystal_colour            colorless
_exptl_crystal_description       plate
_cell_formula_units_Z            2
loop_
_atom_site_label
_atom_site_type_symbol
_atom_site_fract_x
_atom_site_fract_y
_atom_site_fract_z
Cl1 Cl 0.98888(4) 0.19183(3) 0.35748(2)
O1 O 0.61847(11) 0.71670(9) 0.14286(7)
O2 O 0.73468(10) 0.56242(9) 0.34149(7)
N1 N 0.80876(12) 0.40319(11) 0.00988(9)
N2 N 0.90306(13) 0.25304(12) -0.01974(9)
C1 C 0.51039(17) 0.99845(13) 0.18789(11)
H1 H 0.6329 1.0152 0.1440
H2 H 0.4623 1.0629 0.2605
H3 H 0.4259 1.0369 0.1189
C2 C 0.52589(15) 0.81285(13) 0.25034(10)
C3 C 0.81671(14) 0.41438(13) 0.14072(10)
C4 C 0.92456(14) 0.25749(13) 0.19585(10)
C5 C 0.97452(15) 0.16316(13) 0.09417(11)
H4 H 1.0487 0.0510 0.1044
C6 C 0.33461(15) 0.77778(14) 0.29635(12)
H5 H 0.2714 0.8027 0.2159
H6 H 0.2619 0.8488 0.3607
H7 H 0.3475 0.6593 0.3421
C7 C 0.65613(14) 0.73464(13) 0.36311(10)
C8 C 0.81957(16) 0.81274(15) 0.34015(11)
H8 H 0.9088 0.7431 0.4019
H9 H 0.7756 0.9259 0.3594
H10 H 0.8795 0.8196 0.2444
C9 C 0.55730(16) 0.72639(14) 0.51037(11)
H11 H 0.4697 0.6557 0.5290
H12 H 0.4900 0.8399 0.5225
H13 H 0.6485 0.6783 0.5744
C10 C 0.71651(15) 0.53102(14) -0.09787(11)
H14 H 0.8058 0.5464 -0.1819
H15 H 0.6671 0.6375 -0.0671
H16 H 0.6148 0.4948 -0.1168
B1 B 0.72260(15) 0.56839(14) 0.20790(12)
loop_
_geom_bond_atom_site_label_1
_geom_bond_atom_site_label_2
_geom_bond_site_symmetry_1
_geom_bond_site_symmetry_2
Cl1 C4 1_555 1_555
O1 C2 1_555 1_555
O2 C7 1_555 1_555
N1 N2 1_555 1_555
N2 C5 1_555 1_555
C1 H1 1_555 1_555
H2 C1 1_555 1_555
H3 C1 1_555 1_555
C2 C1 1_555 1_555
C3 N1 1_555 1_555
C4 C3 1_555 1_555
C5 C4 1_555 1_555
H4 C5 1_555 1_555
C6 C2 1_555 1_555
H5 C6 1_555 1_555
H6 C6 1_555 1_555
H7 C6 1_555 1_555
C7 C2 1_555 1_555
C8 C7 1_555 1_555
H8 C8 1_555 1_555
H9 C8 1_555 1_555
H10 C8 1_555 1_555
C9 C7 1_555 1_555
H11 C9 1_555 1_555
H12 C9 1_555 1_555
H13 C9 1_555 1_555
C10 N1 1_555 1_555
H14 C10 1_555 1_555
H15 C10 1_555 1_555
H16 C10 1_555 1_555
B1 O1 1_555 1_555
O2 B1 1_555 1_555
C3 B1 1_555 1_555

#END
