
#######################################################################
#
#                 Cambridge Crystallographic Data Centre
#                                CCDC 
#
#######################################################################
#
# If this CIF has been generated from an entry in the Cambridge 
# Structural Database, then it will include bibliographic, chemical, 
# crystal, experimental, refinement or atomic coordinate data resulting 
# from the CCDC's data processing and validation procedures.
#
#######################################################################

data_JODJOC
_chemical_formula_moiety         'C33 H33 N13'
_chemical_name_systematic        
N-((2-Phenyl-2H-1,2,3-triazol-4-yl)methylene)-2-(2-(2-phenyl-2H-1,2,3-triazol-4-yl)-3-(2-((2-phenyl-2H-1,2,3-triazol-4-yl)methyleneamino)ethyl)imidazolidin-1-yl)ethanamine
_symmetry_cell_setting           triclinic
_symmetry_space_group_name_H-M   'P -1'
_symmetry_Int_Tables_number      2
_space_group_name_Hall           '-P 1'
loop_
_symmetry_equiv_pos_site_id
_symmetry_equiv_pos_as_xyz
1 x,y,z
2 -x,-y,-z
_cell_length_a                   7.7473(16)
_cell_length_b                   12.350(3)
_cell_length_c                   17.211(4)
_cell_angle_alpha                87.487(5)
_cell_angle_beta                 82.227(5)
_cell_angle_gamma                80.247(5)
_cell_volume                     1607.65
_exptl_crystal_colour            colorless
_exptl_crystal_description       needle
_chemical_melting_point          '381.0-381.4 K'
_cell_formula_units_Z            2
loop_
_atom_site_label
_atom_site_type_symbol
_atom_site_fract_x
_atom_site_fract_y
_atom_site_fract_z
N1 N 0.2570(2) 0.64280(15) 0.29745(11)
N2 N 0.4313(2) 0.64132(14) 0.28887(11)
N3 N 0.5224(3) 0.55686(16) 0.32562(13)
N4 N 0.0459(2) 0.44129(16) 0.40981(11)
N5 N -0.0578(2) 0.27374(13) 0.32005(9)
N6 N 0.00592(19) 0.16426(12) 0.21458(9)
N7 N 0.2345(2) 0.09230(15) 0.06853(11)
N8 N 0.6916(3) 0.23691(17) -0.00767(13)
N9 N 0.5886(2) 0.32226(14) -0.03821(11)
N10 N 0.4169(2) 0.31615(14) -0.02812(10)
N11 N 0.4736(3) 0.11312(17) 0.33388(14)
N12 N 0.4070(2) 0.02547(14) 0.36276(10)
N13 N 0.2371(2) 0.02825(13) 0.35609(10)
C1 C 0.6973(3) 0.7100(2) 0.23488(17)
H1 H 0.7641 0.6488 0.2560
C2 C 0.7791(4) 0.7890(3) 0.19350(19)
H2 H 0.9016 0.7818 0.1872
C3 C 0.6811(4) 0.8782(2) 0.16151(16)
H3 H 0.7366 0.9314 0.1332
C4 C 0.5012(4) 0.8888(2) 0.17128(16)
H4 H 0.4349 0.9494 0.1493
C5 C 0.4167(3) 0.8113(2) 0.21294(15)
H5 H 0.2941 0.8192 0.2195
C6 C 0.5163(3) 0.72206(18) 0.24479(13)
C7 C 0.2338(3) 0.55468(18) 0.34225(13)
C8 C 0.3976(3) 0.5025(2) 0.35915(15)
H6 H 0.4172 0.4386 0.3896
C9 C 0.0635(3) 0.5213(2) 0.36404(14)
H7 H -0.0348 0.5600 0.3437
C10 C -0.1256(3) 0.4072(2) 0.42568(14)
H8 H -0.2083 0.4529 0.3955
H9 H -0.1702 0.4156 0.4809
C11 C -0.1082(3) 0.2889(2) 0.40376(13)
H10 H -0.0201 0.2445 0.4319
H11 H -0.2200 0.2637 0.4195
C12 C -0.2001(3) 0.30932(19) 0.27247(13)
H12 H -0.2037 0.3859 0.2564
H13 H -0.3133 0.3007 0.3017
C13 C -0.1592(3) 0.23736(19) 0.20275(14)
H14 H -0.2533 0.1954 0.2001
H15 H -0.1440 0.2808 0.1547
C14 C 0.0257(3) 0.05643(17) 0.18121(13)
H16 H -0.0818 0.0261 0.1966
H17 H 0.1215 0.0081 0.2022
C15 C 0.0636(3) 0.06014(19) 0.09281(13)
H18 H 0.0622 -0.0117 0.0725
H19 H -0.0274 0.1123 0.0716
C16 C 0.2415(3) 0.18389(18) 0.03470(13)
H20 H 0.1373 0.2283 0.0244
C17 C 0.4072(3) 0.22177(18) 0.01149(12)
C18 C 0.5768(3) 0.1737(2) 0.02308(16)
H21 H 0.6059 0.1066 0.0488
C19 C 0.6585(3) 0.41100(17) -0.07889(13)
C20 C 0.5479(3) 0.49047(18) -0.11569(13)
H22 H 0.4286 0.4865 -0.1136
C21 C 0.6171(3) 0.5752(2) -0.15532(15)
H23 H 0.5432 0.6290 -0.1802
C22 C 0.7922(4) 0.5826(2) -0.15909(16)
H24 H 0.8373 0.6406 -0.1862
C23 C 0.8995(4) 0.5032(2) -0.12239(18)
H25 H 1.0189 0.5072 -0.1248
C24 C 0.8336(3) 0.4169(2) -0.08165(17)
H26 H 0.9076 0.3636 -0.0564
C25 C 0.0096(2) 0.16039(16) 0.29910(12)
H27 H -0.0704 0.1121 0.3246
C26 C 0.1910(2) 0.12383(17) 0.31993(12)
C27 C 0.3358(3) 0.1752(2) 0.30729(18)
H28 H 0.3375 0.2441 0.2834
C28 C 0.5110(3) -0.06550(17) 0.39783(12)
C29 C 0.4362(3) -0.15426(19) 0.42628(14)
H29 H 0.3175 -0.1556 0.4236
C30 C 0.5398(4) -0.2420(2) 0.45909(16)
H30 H 0.4902 -0.3029 0.4782
C31 C 0.7130(4) -0.2404(2) 0.46378(16)
H31 H 0.7813 -0.2994 0.4865
C32 C 0.7847(4) -0.1527(3) 0.4352(2)
H32 H 0.9036 -0.1519 0.4376
C33 C 0.6840(3) -0.0631(2) 0.40207(19)
H33 H 0.7344 -0.0024 0.3831
loop_
_geom_bond_atom_site_label_1
_geom_bond_atom_site_label_2
_geom_bond_site_symmetry_1
_geom_bond_site_symmetry_2
N1 N2 1_555 1_555
N2 N3 1_555 1_555
N3 C8 1_555 1_555
N4 C9 1_555 1_555
N5 C11 1_555 1_555
N6 C13 1_555 1_555
N7 C15 1_555 1_555
N8 N9 1_555 1_555
N9 N10 1_555 1_555
N10 C17 1_555 1_555
N11 N12 1_555 1_555
N12 N13 1_555 1_555
N13 C26 1_555 1_555
C1 H1 1_555 1_555
C2 C1 1_555 1_555
H2 C2 1_555 1_555
C3 C2 1_555 1_555
H3 C3 1_555 1_555
C4 C3 1_555 1_555
H4 C4 1_555 1_555
C5 C4 1_555 1_555
H5 C5 1_555 1_555
C6 N2 1_555 1_555
C7 N1 1_555 1_555
C8 C7 1_555 1_555
H6 C8 1_555 1_555
C9 C7 1_555 1_555
H7 C9 1_555 1_555
C10 N4 1_555 1_555
H8 C10 1_555 1_555
H9 C10 1_555 1_555
C11 C10 1_555 1_555
H10 C11 1_555 1_555
H11 C11 1_555 1_555
C12 N5 1_555 1_555
H12 C12 1_555 1_555
H13 C12 1_555 1_555
C13 C12 1_555 1_555
H14 C13 1_555 1_555
H15 C13 1_555 1_555
C14 N6 1_555 1_555
H16 C14 1_555 1_555
H17 C14 1_555 1_555
C15 C14 1_555 1_555
H18 C15 1_555 1_555
H19 C15 1_555 1_555
C16 N7 1_555 1_555
H20 C16 1_555 1_555
C17 C16 1_555 1_555
C18 N8 1_555 1_555
H21 C18 1_555 1_555
C19 N9 1_555 1_555
C20 C19 1_555 1_555
H22 C20 1_555 1_555
C21 C20 1_555 1_555
H23 C21 1_555 1_555
C22 C21 1_555 1_555
H24 C22 1_555 1_555
C23 C22 1_555 1_555
H25 C23 1_555 1_555
C24 C19 1_555 1_555
H26 C24 1_555 1_555
C25 N5 1_555 1_555
H27 C25 1_555 1_555
C26 C25 1_555 1_555
C27 N11 1_555 1_555
H28 C27 1_555 1_555
C28 N12 1_555 1_555
C29 C28 1_555 1_555
H29 C29 1_555 1_555
C30 C29 1_555 1_555
H30 C30 1_555 1_555
C31 C30 1_555 1_555
H31 C31 1_555 1_555
C32 C31 1_555 1_555
H32 C32 1_555 1_555
C33 C28 1_555 1_555
H33 C33 1_555 1_555
N6 C25 1_555 1_555
C1 C6 1_555 1_555
C5 C6 1_555 1_555
C17 C18 1_555 1_555
C23 C24 1_555 1_555
C26 C27 1_555 1_555
C32 C33 1_555 1_555

#END
