
#######################################################################
#
#                 Cambridge Crystallographic Data Centre
#                                CCDC 
#
#######################################################################
#
# If this CIF has been generated from an entry in the Cambridge 
# Structural Database, then it will include bibliographic, chemical, 
# crystal, experimental, refinement or atomic coordinate data resulting 
# from the CCDC's data processing and validation procedures.
#
#######################################################################

data_JODKEU
_chemical_formula_moiety         'C7 H8 Cl1 N1 O1'
_chemical_name_systematic        1-(5-chloro-1-methyl-1H-pyrrol-3-yl)ethanone
_symmetry_cell_setting           orthorhombic
_symmetry_space_group_name_H-M   'P b c a'
_symmetry_Int_Tables_number      61
_space_group_name_Hall           '-P 2ac 2ab'
loop_
_symmetry_equiv_pos_site_id
_symmetry_equiv_pos_as_xyz
1 x,y,z
2 1/2+x,1/2-y,-z
3 -x,1/2+y,1/2-z
4 1/2-x,-y,1/2+z
5 -x,-y,-z
6 1/2-x,1/2+y,z
7 x,1/2-y,1/2+z
8 1/2+x,y,1/2-z
_cell_length_a                   10.1031(7)
_cell_length_b                   7.7315(5)
_cell_length_c                   18.6457(12)
_cell_angle_alpha                90
_cell_angle_beta                 90
_cell_angle_gamma                90
_cell_volume                     1456.46
_exptl_crystal_colour            colorless
_exptl_crystal_description       block
_cell_formula_units_Z            8
loop_
_atom_site_label
_atom_site_type_symbol
_atom_site_fract_x
_atom_site_fract_y
_atom_site_fract_z
Cl1 Cl 0.27431(3) 0.06196(5) 0.54442(2)
O1 O 0.27518(10) 0.07783(14) 0.85007(7)
N1 N 0.44747(11) 0.21933(15) 0.63212(6)
C1 C 0.45396(15) 0.2755(2) 0.86453(8)
H1 H 0.4413 0.3977 0.8523
H2 H 0.5454 0.2418 0.8539
H3 H 0.4361 0.2583 0.9157
C2 C 0.36054(14) 0.16643(18) 0.82101(8)
C3 C 0.37362(13) 0.16901(17) 0.74276(8)
C4 C 0.47259(14) 0.24678(17) 0.70281(7)
H4 H 0.5458 0.3090 0.7217
C5 C 0.52998(14) 0.2753(2) 0.57212(8)
H5 H 0.6058 0.3410 0.5904
H6 H 0.4778 0.3486 0.5399
H7 H 0.5618 0.1737 0.5458
C6 C 0.28432(14) 0.08905(19) 0.69345(8)
H8 H 0.2070 0.0247 0.7048
C7 C 0.33254(14) 0.12381(18) 0.62703(7)
loop_
_geom_bond_atom_site_label_1
_geom_bond_atom_site_label_2
_geom_bond_site_symmetry_1
_geom_bond_site_symmetry_2
Cl1 C7 1_555 1_555
O1 C2 1_555 1_555
N1 C4 1_555 1_555
C1 H1 1_555 1_555
H2 C1 1_555 1_555
H3 C1 1_555 1_555
C2 C1 1_555 1_555
C3 C2 1_555 1_555
C4 C3 1_555 1_555
H4 C4 1_555 1_555
C5 N1 1_555 1_555
H5 C5 1_555 1_555
H6 C5 1_555 1_555
H7 C5 1_555 1_555
C6 C3 1_555 1_555
H8 C6 1_555 1_555
C7 N1 1_555 1_555
C6 C7 1_555 1_555

#END
