
#######################################################################
#
#                 Cambridge Crystallographic Data Centre
#                                CCDC 
#
#######################################################################
#
# If this CIF has been generated from an entry in the Cambridge 
# Structural Database, then it will include bibliographic, chemical, 
# crystal, experimental, refinement or atomic coordinate data resulting 
# from the CCDC's data processing and validation procedures.
#
#######################################################################

data_JODKOE
_chemical_formula_moiety         'C8 H6 Cl2 N2'
_chemical_name_systematic        3,5-dichloro-1-methyl-1H-indazole
_symmetry_cell_setting           orthorhombic
_symmetry_space_group_name_H-M   'F d d 2'
_symmetry_Int_Tables_number      43
_space_group_name_Hall           'F 2 -2d'
loop_
_symmetry_equiv_pos_site_id
_symmetry_equiv_pos_as_xyz
1 x,y,z
2 -x,-y,z
3 1/4+x,1/4-y,1/4+z
4 1/4-x,1/4+y,1/4+z
5 x,1/2+y,1/2+z
6 -x,1/2-y,1/2+z
7 1/4+x,3/4-y,3/4+z
8 1/4-x,3/4+y,3/4+z
9 1/2+x,y,1/2+z
10 1/2-x,-y,1/2+z
11 3/4+x,1/4-y,3/4+z
12 3/4-x,1/4+y,3/4+z
13 1/2+x,1/2+y,z
14 1/2-x,1/2-y,z
15 3/4+x,3/4-y,1/4+z
16 3/4-x,3/4+y,1/4+z
_cell_length_a                   21.149(4)
_cell_length_b                   40.631(8)
_cell_length_c                   3.8885(7)
_cell_angle_alpha                90
_cell_angle_beta                 90
_cell_angle_gamma                90
_cell_volume                     3341.41
_exptl_crystal_colour            colorless
_exptl_crystal_description       rod
_cell_formula_units_Z            16
loop_
_atom_site_label
_atom_site_type_symbol
_atom_site_fract_x
_atom_site_fract_y
_atom_site_fract_z
Cl1 Cl 0.04087(4) 0.05038(2) 0.4642(2)
Cl2 Cl -0.17834(4) -0.01413(2) 1.1934(3)
N1 N -0.08097(15) 0.11272(7) 0.7440(10)
N2 N -0.02532(15) 0.10430(7) 0.5957(9)
C1 C -0.02224(17) 0.07193(8) 0.6258(10)
C2 C -0.07542(17) 0.05825(9) 0.7956(10)
C3 C -0.09493(17) 0.02664(9) 0.8909(10)
H1 H -0.0701 0.0077 0.8429
C4 C -0.15192(17) 0.02451(8) 1.0576(10)
C5 C -0.19036(18) 0.05209(9) 1.1341(11)
H2 H -0.2295 0.0491 1.2500
C6 C -0.17106(17) 0.08328(9) 1.0406(11)
H3 H -0.1962 0.1021 1.0895
C7 C -0.11279(17) 0.08603(9) 0.8704(10)
C8 C -0.0982(2) 0.14715(9) 0.7793(11)
H4 H -0.0842 0.1593 0.5755
H5 H -0.0778 0.1563 0.9844
H6 H -0.1442 0.1490 0.8019
loop_
_geom_bond_atom_site_label_1
_geom_bond_atom_site_label_2
_geom_bond_site_symmetry_1
_geom_bond_site_symmetry_2
Cl1 C1 1_555 1_555
Cl2 C4 1_555 1_555
N1 N2 1_555 1_555
N2 C1 1_555 1_555
C1 C2 1_555 1_555
C2 C3 1_555 1_555
C3 H1 1_555 1_555
C4 C3 1_555 1_555
C5 C4 1_555 1_555
H2 C5 1_555 1_555
C6 C5 1_555 1_555
H3 C6 1_555 1_555
C7 N1 1_555 1_555
C8 N1 1_555 1_555
H4 C8 1_555 1_555
H5 C8 1_555 1_555
H6 C8 1_555 1_555
C2 C7 1_555 1_555
C6 C7 1_555 1_555

#END
