
#######################################################################
#
#                 Cambridge Crystallographic Data Centre
#                                CCDC 
#
#######################################################################
#
# If this CIF has been generated from an entry in the Cambridge 
# Structural Database, then it will include bibliographic, chemical, 
# crystal, experimental, refinement or atomic coordinate data resulting 
# from the CCDC's data processing and validation procedures.
#
#######################################################################

data_JODKIY
_chemical_formula_moiety         'C23 H21 Cl1 O6'
_chemical_name_systematic        
7-chloro-8,9-dimethoxy-2-(prop-1-en-2-yl)-1,2,12,12a-tetrahydrochromeno[3,4-b]furo[2,3-h]chromen-6(6aH)-one
_symmetry_cell_setting           orthorhombic
_symmetry_space_group_name_H-M   'P 21 21 21'
_symmetry_Int_Tables_number      19
_space_group_name_Hall           'P 2ac 2ab'
loop_
_symmetry_equiv_pos_site_id
_symmetry_equiv_pos_as_xyz
1 x,y,z
2 1/2-x,-y,1/2+z
3 -x,1/2+y,1/2-z
4 1/2+x,1/2-y,-z
_cell_length_a                   4.8259(5)
_cell_length_b                   9.2547(11)
_cell_length_c                   44.131(5)
_cell_angle_alpha                90
_cell_angle_beta                 90
_cell_angle_gamma                90
_cell_volume                     1970.99
_exptl_crystal_colour            colorless
_exptl_crystal_description       blade
_cell_formula_units_Z            4
loop_
_atom_site_label
_atom_site_type_symbol
_atom_site_fract_x
_atom_site_fract_y
_atom_site_fract_z
Cl1 Cl 0.17813(17) -0.30457(8) 0.64023(2)
O1 O 0.4466(5) -0.4051(2) 0.69621(4)
O2 O 0.7097(5) -0.2389(2) 0.73693(4)
O3 O 0.5185(5) -0.0265(2) 0.60695(4)
O4 O -0.1050(4) 0.2584(2) 0.62704(4)
O5 O -0.1470(5) 0.4348(2) 0.52893(4)
O6 O 0.3942(4) 0.1902(2) 0.68831(4)
C1 C -0.5903(7) 0.7517(3) 0.55306(7)
H1 H -0.7358 0.8030 0.5419
H2 H -0.4332 0.8167 0.5565
H3 H -0.6633 0.7189 0.5726
C2 C -0.6078(7) 0.5865(3) 0.50850(6)
H4 H -0.5359 0.5063 0.4976
H5 H -0.7592 0.6399 0.5005
C3 C -0.4965(7) 0.6238(3) 0.53498(6)
C4 C -0.2588(7) 0.5456(3) 0.54907(6)
H6 H -0.1086 0.6178 0.5529
C5 C -0.3174(7) 0.4659(3) 0.57940(6)
H7 H -0.2804 0.5285 0.5971
H8 H -0.5100 0.4294 0.5804
C6 C -0.1109(6) 0.3446(3) 0.57710(6)
C7 C -0.0219(7) 0.3352(3) 0.54703(6)
C8 C 0.1733(7) 0.2366(3) 0.53702(6)
H9 H 0.2287 0.2323 0.5164
C9 C 0.2832(7) 0.1448(3) 0.55854(6)
H10 H 0.4225 0.0779 0.5526
C10 C 0.1955(7) 0.1472(3) 0.58894(6)
C11 C 0.3076(7) 0.0430(3) 0.61094(6)
C12 C 0.1307(6) 0.0268(3) 0.63956(6)
H11 H -0.0351 -0.0337 0.6346
C13 C 0.2855(7) -0.0432(3) 0.66530(6)
C14 C 0.3138(7) -0.1931(3) 0.66836(6)
C15 C 0.4480(7) -0.2573(3) 0.69247(6)
C16 C 0.5748(7) -0.1678(3) 0.71432(6)
C17 C 0.5553(7) -0.0193(3) 0.71186(6)
H12 H 0.6410 0.0412 0.7265
C18 C 0.4089(7) 0.0411(3) 0.68773(6)
C19 C 0.2745(6) 0.2609(3) 0.66236(6)
H13 H 0.4166 0.2711 0.6463
H14 H 0.2115 0.3588 0.6682
C20 C 0.0321(7) 0.1754(3) 0.65023(6)
H15 H -0.1022 0.1605 0.6672
C21 C -0.0048(7) 0.2476(3) 0.59798(6)
C22 C 0.8908(7) -0.1544(3) 0.75559(6)
H16 H 0.9959 -0.2185 0.7690
H17 H 0.7811 -0.0869 0.7678
H18 H 1.0195 -0.1001 0.7427
C23 C 0.7032(8) -0.4748(3) 0.68878(7)
H19 H 0.7001 -0.5745 0.6962
H20 H 0.8569 -0.4225 0.6983
H21 H 0.7281 -0.4750 0.6667
loop_
_geom_bond_atom_site_label_1
_geom_bond_atom_site_label_2
_geom_bond_site_symmetry_1
_geom_bond_site_symmetry_2
Cl1 C14 1_555 1_555
O1 C15 1_555 1_555
O2 C16 1_555 1_555
O3 C11 1_555 1_555
O4 C20 1_555 1_555
O5 C4 1_555 1_555
O6 C18 1_555 1_555
C1 H1 1_555 1_555
H2 C1 1_555 1_555
H3 C1 1_555 1_555
C2 H4 1_555 1_555
H5 C2 1_555 1_555
C3 C1 1_555 1_555
C4 C3 1_555 1_555
H6 C4 1_555 1_555
C5 C4 1_555 1_555
H7 C5 1_555 1_555
H8 C5 1_555 1_555
C6 C5 1_555 1_555
C7 O5 1_555 1_555
C8 C7 1_555 1_555
H9 C8 1_555 1_555
C9 C8 1_555 1_555
H10 C9 1_555 1_555
C10 C9 1_555 1_555
C11 C10 1_555 1_555
C12 C11 1_555 1_555
H11 C12 1_555 1_555
C13 C12 1_555 1_555
C14 C13 1_555 1_555
C15 C14 1_555 1_555
C16 C15 1_555 1_555
C17 C16 1_555 1_555
H12 C17 1_555 1_555
C18 C13 1_555 1_555
C19 O6 1_555 1_555
H13 C19 1_555 1_555
H14 C19 1_555 1_555
C20 C12 1_555 1_555
H15 C20 1_555 1_555
C21 O4 1_555 1_555
C22 O2 1_555 1_555
H16 C22 1_555 1_555
H17 C22 1_555 1_555
H18 C22 1_555 1_555
C23 O1 1_555 1_555
H19 C23 1_555 1_555
H20 C23 1_555 1_555
H21 C23 1_555 1_555
C2 C3 1_555 1_555
C6 C7 1_555 1_555
C6 C21 1_555 1_555
C10 C21 1_555 1_555
C17 C18 1_555 1_555
C19 C20 1_555 1_555

#END
