
#######################################################################
#
#                 Cambridge Crystallographic Data Centre
#                                CCDC 
#
#######################################################################
#
# If this CIF has been generated from an entry in the Cambridge 
# Structural Database, then it will include bibliographic, chemical, 
# crystal, experimental, refinement or atomic coordinate data resulting 
# from the CCDC's data processing and validation procedures.
#
#######################################################################

data_JODMOE
_chemical_formula_moiety         'C30 H18 O6,C2 H3 N1'
_chemical_name_systematic        
'4,11,17,24,27,34-Hexaoxapentacyclo(12.12.8.1^3,25^.1^12,16^)hexatriaconta-1,3(35),12,14,16(36),25-hexaene-6,8,19,21,29,31-hexayne acetonitrile clathrate'
_symmetry_cell_setting           monoclinic
_symmetry_space_group_name_H-M   'P 21/c'
_symmetry_Int_Tables_number      14
_space_group_name_Hall           '-P 2ybc'
loop_
_symmetry_equiv_pos_site_id
_symmetry_equiv_pos_as_xyz
1 x,y,z
2 -x,1/2+y,1/2-z
3 -x,-y,-z
4 x,1/2-y,1/2+z
_cell_length_a                   10.553(2)
_cell_length_b                   17.548(1)
_cell_length_c                   14.680(1)
_cell_angle_alpha                90
_cell_angle_beta                 107.12(2)
_cell_angle_gamma                90
_cell_volume                     2598.05
_exptl_crystal_colour            colorless
_chemical_melting_point          'above 250deg.C'
_cell_formula_units_Z            4
loop_
_atom_site_label
_atom_site_type_symbol
_atom_site_fract_x
_atom_site_fract_y
_atom_site_fract_z
C1 C 1.0534(2) 0.2085(2) 0.2556(2)
C2 C 1.0182(3) 0.2144(2) 0.1579(2)
C3 C 1.0078(3) 0.2856(2) 0.1178(2)
C4 C 1.0305(3) 0.3509(2) 0.1727(2)
C5 C 1.0643(2) 0.3436(1) 0.2722(2)
C6 C 1.0748(2) 0.2728(1) 0.3142(2)
C7 C 0.3417(2) 0.2303(1) 0.1634(2)
C8 C 0.3282(2) 0.2916(1) 0.1016(2)
C9 C 0.3465(2) 0.3638(1) 0.1397(2)
C10 C 0.3822(2) 0.3755(2) 0.2383(2)
C11 C 0.3956(2) 0.3136(2) 0.2966(2)
C12 C 0.3769(2) 0.2400(2) 0.2607(2)
O1 O 1.0757(2) 0.1400(1) 0.3030(1)
C13 C 1.0144(3) 0.0733(2) 0.2535(3)
C14 C 0.8701(3) 0.0766(2) 0.2338(2)
C15 C 0.7542(3) 0.0803(2) 0.2228(2)
C16 C 0.6193(3) 0.0844(2) 0.2089(2)
C17 C 0.5027(3) 0.0869(2) 0.1970(2)
C18 C 0.3592(3) 0.0939(2) 0.1756(2)
O2 O 0.3135(2) 0.1602(1) 0.1189(1)
O3 O 0.9816(3) 0.2846(2) 0.0209(2)
C19 C 0.9226(4) 0.3413(3) -0.0328(3)
C20 C 0.7875(4) 0.3581(2) -0.0341(2)
C21 C 0.6756(4) 0.3698(2) -0.0364(2)
C22 C 0.5490(3) 0.3869(2) -0.0335(2)
C23 C 0.4432(3) 0.4029(2) -0.0269(2)
C24 C 0.3186(3) 0.4246(2) -0.0117(2)
O4 O 0.3289(2) 0.4299(1) 0.0873(1)
O5 O 1.0894(2) 0.4106(1) 0.3207(1)
C25 C 1.0967(3) 0.4115(2) 0.4196(2)
C26 C 0.9671(3) 0.4076(2) 0.4336(2)
C27 C 0.8563(3) 0.4053(2) 0.4396(2)
C28 C 0.7280(3) 0.4002(2) 0.4432(2)
C29 C 0.6143(3) 0.3956(2) 0.4423(2)
C30 C 0.4767(3) 0.3857(2) 0.4414(2)
O6 O 0.4221(2) 0.3171(1) 0.3941(1)
H1 H 0.9998 0.1697 0.1184
H2 H 1.0227 0.4002 0.1434
H3 H 1.0965 0.2677 0.3822
H4 H 0.3078 0.2839 0.0340
H5 H 0.3968 0.4260 0.2643
H6 H 0.3896 0.1969 0.3027
H7 H 1.0488 0.0288 0.2905
H8 H 1.0349 0.0697 0.1941
H9 H 0.3361 0.0979 0.2340
H10 H 0.3166 0.0495 0.1421
H11 H 0.9271 0.3344 -0.0967
H12 H 0.9728 0.3861 -0.0071
H13 H 0.2522 0.3876 -0.0412
H14 H 0.2911 0.4729 -0.0416
H15 H 1.1413 0.4570 0.4486
H16 H 1.1480 0.3685 0.4503
H17 H 0.4258 0.4281 0.4085
H18 H 0.4714 0.3855 0.5056
N1 N 0.7237(3) 0.4504(2) 0.2014(2)
C31 C 0.7120(3) 0.3867(2) 0.2036(2)
C32 C 0.6995(3) 0.3053(2) 0.2071(2)
H19 H 0.6104 0.2925 0.2035
H20 H 0.7578 0.2861 0.2656
H21 H 0.7215 0.2829 0.1542
loop_
_geom_bond_atom_site_label_1
_geom_bond_atom_site_label_2
_geom_bond_site_symmetry_1
_geom_bond_site_symmetry_2
C1 C2 1_555 1_555
C2 C3 1_555 1_555
C3 C4 1_555 1_555
C4 C5 1_555 1_555
C5 C6 1_555 1_555
C6 C1 1_555 1_555
C7 C8 1_555 1_555
C8 C9 1_555 1_555
C9 C10 1_555 1_555
C10 C11 1_555 1_555
C11 C12 1_555 1_555
C12 C7 1_555 1_555
O1 C1 1_555 1_555
C13 O1 1_555 1_555
C14 C13 1_555 1_555
C15 C14 1_555 1_555
C16 C15 1_555 1_555
C17 C16 1_555 1_555
C18 C17 1_555 1_555
O2 C7 1_555 1_555
O3 C3 1_555 1_555
C19 O3 1_555 1_555
C20 C19 1_555 1_555
C21 C20 1_555 1_555
C22 C21 1_555 1_555
C23 C22 1_555 1_555
C24 C23 1_555 1_555
O4 C9 1_555 1_555
O5 C5 1_555 1_555
C25 O5 1_555 1_555
C26 C25 1_555 1_555
C27 C26 1_555 1_555
C28 C27 1_555 1_555
C29 C28 1_555 1_555
C30 C29 1_555 1_555
O6 C11 1_555 1_555
H1 C2 1_555 1_555
H2 C4 1_555 1_555
H3 C6 1_555 1_555
H4 C8 1_555 1_555
H5 C10 1_555 1_555
H6 C12 1_555 1_555
H7 C13 1_555 1_555
H8 C13 1_555 1_555
H9 C18 1_555 1_555
H10 C18 1_555 1_555
H11 C19 1_555 1_555
H12 C19 1_555 1_555
H13 C24 1_555 1_555
H14 C24 1_555 1_555
H15 C25 1_555 1_555
H16 C25 1_555 1_555
H17 C30 1_555 1_555
H18 C30 1_555 1_555
N1 C31 1_555 1_555
C31 C32 1_555 1_555
C32 H19 1_555 1_555
H20 C32 1_555 1_555
H21 C32 1_555 1_555
C18 O2 1_555 1_555
C24 O4 1_555 1_555
C30 O6 1_555 1_555

#END
