
#######################################################################
#
#                 Cambridge Crystallographic Data Centre
#                                CCDC 
#
#######################################################################
#
# If this CIF has been generated from an entry in the Cambridge 
# Structural Database, then it will include bibliographic, chemical, 
# crystal, experimental, refinement or atomic coordinate data resulting 
# from the CCDC's data processing and validation procedures.
#
#######################################################################

data_JODNOG
_chemical_formula_moiety         'C15 H15 N3 O1'
_chemical_name_systematic        
(E)-N'-(1-(4-Aminophenyl)ethylidene)benzohydrazide
_symmetry_cell_setting           monoclinic
_symmetry_space_group_name_H-M   'P 21/n'
_symmetry_Int_Tables_number      14
_space_group_name_Hall           '-P 2yn'
loop_
_symmetry_equiv_pos_site_id
_symmetry_equiv_pos_as_xyz
1 x,y,z
2 1/2-x,1/2+y,1/2-z
3 -x,-y,-z
4 1/2+x,1/2-y,1/2+z
_cell_length_a                   12.261(9)
_cell_length_b                   5.324(4)
_cell_length_c                   19.882(15)
_cell_angle_alpha                90
_cell_angle_beta                 94.57(2)
_cell_angle_gamma                90
_cell_volume                     1293.72
_exptl_crystal_colour            yellow
_exptl_crystal_description       prism
_cell_formula_units_Z            4
_exptl_crystal_recrystallization_method 'absolute ethanol'
loop_
_atom_site_label
_atom_site_type_symbol
_atom_site_fract_x
_atom_site_fract_y
_atom_site_fract_z
N1 N 0.31065(12) 0.5389(3) 0.53755(7)
H1 H 0.3349 0.3881 0.5344
N2 N 0.21647(12) 0.6131(3) 0.49876(7)
N3 N -0.22800(14) 0.7277(3) 0.31088(8)
H2 H -0.2549 0.6375 0.2777
H3 H -0.2616 0.8609 0.3223
O1 O 0.33735(12) 0.9288(3) 0.58300(7)
C1 C 0.45840(15) 0.6003(3) 0.62353(9)
C2 C 0.51973(16) 0.3936(4) 0.60532(10)
H4 H 0.5019 0.3119 0.5646
C3 C 0.60765(18) 0.3099(4) 0.64827(12)
H5 H 0.6489 0.1736 0.6357
C4 C 0.63412(18) 0.4268(4) 0.70911(11)
H6 H 0.6927 0.3692 0.7375
C5 C 0.57340(18) 0.6300(4) 0.72783(10)
H7 H 0.5904 0.7084 0.7691
C6 C 0.48743(16) 0.7162(4) 0.68502(9)
H8 H 0.4479 0.8553 0.6976
C7 C 0.36407(15) 0.7045(4) 0.58023(8)
C8 C 0.17939(15) 0.4585(3) 0.45231(8)
C9 C 0.07430(14) 0.5262(3) 0.41483(8)
C10 C 0.01535(15) 0.7400(3) 0.43293(8)
H9 H 0.0437 0.8397 0.4685
C11 C -0.08369(16) 0.8054(4) 0.39912(9)
H10 H -0.1199 0.9492 0.4118
C12 C -0.12988(15) 0.6578(4) 0.34612(9)
C13 C -0.07350(17) 0.4434(4) 0.32890(9)
H11 H -0.1032 0.3403 0.2944
C14 C 0.02614(16) 0.3814(3) 0.36233(9)
H12 H 0.0622 0.2378 0.3492
C15 C 0.23698(17) 0.2176(3) 0.43604(10)
H13 H 0.3141 0.2481 0.4361
H14 H 0.2093 0.1587 0.3923
H15 H 0.2241 0.0929 0.4694
loop_
_geom_bond_atom_site_label_1
_geom_bond_atom_site_label_2
_geom_bond_site_symmetry_1
_geom_bond_site_symmetry_2
N1 H1 1_555 1_555
N2 N1 1_555 1_555
N3 H2 1_555 1_555
H3 N3 1_555 1_555
O1 C7 1_555 1_555
C1 C2 1_555 1_555
C2 H4 1_555 1_555
C3 C2 1_555 1_555
H5 C3 1_555 1_555
C4 C3 1_555 1_555
H6 C4 1_555 1_555
C5 C4 1_555 1_555
H7 C5 1_555 1_555
C6 C1 1_555 1_555
H8 C6 1_555 1_555
C7 N1 1_555 1_555
C8 N2 1_555 1_555
C9 C8 1_555 1_555
C10 C9 1_555 1_555
H9 C10 1_555 1_555
C11 C10 1_555 1_555
H10 C11 1_555 1_555
C12 N3 1_555 1_555
C13 C12 1_555 1_555
H11 C13 1_555 1_555
C14 C9 1_555 1_555
H12 C14 1_555 1_555
C15 C8 1_555 1_555
H13 C15 1_555 1_555
H14 C15 1_555 1_555
H15 C15 1_555 1_555
C1 C7 1_555 1_555
C5 C6 1_555 1_555
C11 C12 1_555 1_555
C13 C14 1_555 1_555

#END
