
#######################################################################
#
#                 Cambridge Crystallographic Data Centre
#                                CCDC 
#
#######################################################################
#
# If this CIF has been generated from an entry in the Cambridge 
# Structural Database, then it will include bibliographic, chemical, 
# crystal, experimental, refinement or atomic coordinate data resulting 
# from the CCDC's data processing and validation procedures.
#
#######################################################################

data_JODPEY
_chemical_formula_moiety         'C19 H28 O7 S1'
_chemical_name_systematic        
3,4-O-(2,3-Dimethoxybutane-2,3-diyl)-S-(p-tolyl)-1-thia-\a-D-mannopyranoside
_symmetry_cell_setting           monoclinic
_symmetry_space_group_name_H-M   'P 21'
_symmetry_Int_Tables_number      4
_space_group_name_Hall           'P 2yb'
loop_
_symmetry_equiv_pos_site_id
_symmetry_equiv_pos_as_xyz
1 x,y,z
2 -x,1/2+y,-z
_cell_length_a                   9.8272(6)
_cell_length_b                   10.3152(6)
_cell_length_c                   10.2585(6)
_cell_angle_alpha                90
_cell_angle_beta                 100.452(3)
_cell_angle_gamma                90
_cell_volume                     1022.64
_exptl_crystal_colour            colorless
_exptl_crystal_description       block
_cell_formula_units_Z            2
_exptl_crystal_recrystallization_method 'hexane/ethyl acetate'
loop_
_atom_site_label
_atom_site_type_symbol
_atom_site_fract_x
_atom_site_fract_y
_atom_site_fract_z
S1 S 0.08382(5) 0.30225(6) 0.13524(5)
O1 O 0.27226(13) 0.29547(15) 0.36556(13)
O2 O 0.23894(16) 0.57684(16) 0.39230(16)
H1 H 0.307(3) 0.630(3) 0.399(2)
O3 O 0.40302(14) 0.62650(13) 0.19735(14)
O4 O 0.57553(14) 0.40759(13) 0.24002(13)
O5 O 0.53143(15) 0.23535(16) 0.52689(15)
H2 H 0.469(3) 0.217(3) 0.564(3)
O6 O 0.49654(18) 0.56405(14) 0.01322(15)
O7 O 0.67376(13) 0.59510(13) 0.34562(13)
C1 C 0.1677(2) 0.3749(2) 0.2940(2)
H3 H 0.0945 0.3842 0.3495
C2 C 0.2176(2) 0.5111(2) 0.2695(2)
H4 H 0.1446 0.5571 0.2054
C3 C 0.3473(2) 0.5000(2) 0.2110(2)
H5 H 0.3236 0.4589 0.1214
C4 C 0.4535(2) 0.4171(2) 0.2984(2)
H6 H 0.4773 0.4565 0.3888
C5 C 0.39550(19) 0.2825(2) 0.3079(2)
H7 H 0.3697 0.2451 0.2169
C6 C 0.4911(2) 0.1905(2) 0.3936(2)
H8 H 0.4447 0.1055 0.3946
H9 H 0.5751 0.1777 0.3544
C7 C 0.5249(2) 0.6230(2) 0.1397(2)
C8 C 0.6343(2) 0.5312(2) 0.2214(2)
C9 C 0.5733(2) 0.7621(2) 0.1354(2)
H10 H 0.6553 0.7655 0.0936
H11 H 0.5966 0.7962 0.2259
H12 H 0.4994 0.8147 0.0841
C10 C 0.7551(2) 0.5036(2) 0.1524(2)
H13 H 0.8003 0.5852 0.1366
H14 H 0.7214 0.4604 0.0676
H15 H 0.8216 0.4471 0.2085
C11 C 0.3820(2) 0.6183(2) -0.0772(2)
H16 H 0.3006 0.6218 -0.0345
H17 H 0.3616 0.5640 -0.1567
H18 H 0.4056 0.7060 -0.1021
C12 C 0.7672(2) 0.5241(2) 0.4431(2)
H19 H 0.7261 0.4401 0.4583
H20 H 0.7849 0.5734 0.5262
H21 H 0.8544 0.5103 0.4117
C13 C 0.0406(2) 0.1504(2) 0.1985(2)
C14 C 0.1138(3) 0.0401(2) 0.1754(2)
H22 H 0.1843 0.0459 0.1233
C15 C 0.0847(2) -0.0786(2) 0.2279(2)
H23 H 0.1343 -0.1537 0.2100
C16 C -0.0166(2) -0.0890(2) 0.3067(2)
C17 C -0.0895(2) 0.0221(2) 0.3287(2)
H24 H -0.1595 0.0165 0.3813
C18 C -0.0619(2) 0.1405(2) 0.2757(2)
H25 H -0.1129 0.2152 0.2920
C19 C -0.0438(2) -0.2154(3) 0.3688(2)
H26 H 0.0348 -0.2372 0.4387
H27 H -0.0562 -0.2837 0.3012
H28 H -0.1279 -0.2082 0.4072
loop_
_geom_bond_atom_site_label_1
_geom_bond_atom_site_label_2
_geom_bond_site_symmetry_1
_geom_bond_site_symmetry_2
S1 C1 1_555 1_555
O1 C1 1_555 1_555
O2 H1 1_555 1_555
O3 C3 1_555 1_555
O4 C4 1_555 1_555
O5 H2 1_555 1_555
O6 C7 1_555 1_555
O7 C8 1_555 1_555
C1 H3 1_555 1_555
C2 O2 1_555 1_555
H4 C2 1_555 1_555
C3 C2 1_555 1_555
H5 C3 1_555 1_555
C4 C3 1_555 1_555
H6 C4 1_555 1_555
C5 O1 1_555 1_555
H7 C5 1_555 1_555
C6 O5 1_555 1_555
H8 C6 1_555 1_555
H9 C6 1_555 1_555
C7 O3 1_555 1_555
C8 O4 1_555 1_555
C9 C7 1_555 1_555
H10 C9 1_555 1_555
H11 C9 1_555 1_555
H12 C9 1_555 1_555
C10 C8 1_555 1_555
H13 C10 1_555 1_555
H14 C10 1_555 1_555
H15 C10 1_555 1_555
C11 O6 1_555 1_555
H16 C11 1_555 1_555
H17 C11 1_555 1_555
H18 C11 1_555 1_555
C12 O7 1_555 1_555
H19 C12 1_555 1_555
H20 C12 1_555 1_555
H21 C12 1_555 1_555
C13 S1 1_555 1_555
C14 C13 1_555 1_555
H22 C14 1_555 1_555
C15 C14 1_555 1_555
H23 C15 1_555 1_555
C16 C15 1_555 1_555
C17 C16 1_555 1_555
H24 C17 1_555 1_555
C18 C13 1_555 1_555
H25 C18 1_555 1_555
C19 C16 1_555 1_555
H26 C19 1_555 1_555
H27 C19 1_555 1_555
H28 C19 1_555 1_555
C1 C2 1_555 1_555
C4 C5 1_555 1_555
C5 C6 1_555 1_555
C7 C8 1_555 1_555
C17 C18 1_555 1_555

#END
