
#######################################################################
#
#                 Cambridge Crystallographic Data Centre
#                                CCDC 
#
#######################################################################
#
# If this CIF has been generated from an entry in the Cambridge 
# Structural Database, then it will include bibliographic, chemical, 
# crystal, experimental, refinement or atomic coordinate data resulting 
# from the CCDC's data processing and validation procedures.
#
#######################################################################

data_JODQEZ
_chemical_formula_moiety         'C8 H7 Cl1 F1 N1 O1'
_chemical_name_systematic        2-Chloro-N-(4-fluorophenyl)acetamide
_symmetry_cell_setting           monoclinic
_symmetry_space_group_name_H-M   'C c'
_symmetry_Int_Tables_number      9
_space_group_name_Hall           'C -2yc'
loop_
_symmetry_equiv_pos_site_id
_symmetry_equiv_pos_as_xyz
1 x,y,z
2 x,-y,1/2+z
3 1/2+x,1/2+y,z
4 1/2+x,1/2-y,1/2+z
_cell_length_a                   4.7410(9)
_cell_length_b                   20.062(4)
_cell_length_c                   8.9860(18)
_cell_angle_alpha                90
_cell_angle_beta                 99.60(3)
_cell_angle_gamma                90
_cell_volume                     842.725
_exptl_crystal_colour            pink
_exptl_crystal_description       block
_cell_formula_units_Z            4
_exptl_crystal_recrystallization_method chloroform
loop_
_atom_site_label
_atom_site_type_symbol
_atom_site_fract_x
_atom_site_fract_y
_atom_site_fract_z
Cl1 Cl -0.4033(4) 0.15199(10) 0.5685(2)
N1 N 0.1497(11) 0.2970(2) 0.6731(5)
H1 H 0.2033 0.2848 0.7653
O1 O -0.1268(10) 0.2652(2) 0.4535(5)
F1 F 0.6949(14) 0.5279(2) 0.5602(6)
C1 C 0.5590(19) 0.4687(3) 0.5826(8)
C2 C 0.3302(19) 0.4493(4) 0.4775(8)
H2 H 0.2684 0.4749 0.3920
C3 C 0.1935(15) 0.3901(3) 0.5030(6)
H3 H 0.0450 0.3743 0.4308
C4 C 0.2759(13) 0.3546(3) 0.6344(6)
C5 C 0.5091(15) 0.3787(3) 0.7356(7)
H4 H 0.5715 0.3539 0.8224
C6 C 0.6503(19) 0.4357(4) 0.7157(8)
H5 H 0.7995 0.4516 0.7874
C7 C -0.0366(13) 0.2576(3) 0.5950(5)
C8 C -0.1284(15) 0.1998(3) 0.6748(6)
H6 H -0.1937 0.2153 0.7654
H7 H 0.0358 0.1712 0.7058
loop_
_geom_bond_atom_site_label_1
_geom_bond_atom_site_label_2
_geom_bond_site_symmetry_1
_geom_bond_site_symmetry_2
Cl1 C8 1_555 1_555
N1 H1 1_555 1_555
O1 C7 1_555 1_555
F1 C1 1_555 1_555
C1 C2 1_555 1_555
C2 H2 1_555 1_555
C3 C2 1_555 1_555
H3 C3 1_555 1_555
C4 N1 1_555 1_555
C5 C4 1_555 1_555
H4 C5 1_555 1_555
C6 C1 1_555 1_555
H5 C6 1_555 1_555
C7 N1 1_555 1_555
C8 C7 1_555 1_555
H6 C8 1_555 1_555
H7 C8 1_555 1_555
C3 C4 1_555 1_555
C5 C6 1_555 1_555

#END
