
#######################################################################
#
#                 Cambridge Crystallographic Data Centre
#                                CCDC 
#
#######################################################################
#
# If this CIF has been generated from an entry in the Cambridge 
# Structural Database, then it will include bibliographic, chemical, 
# crystal, experimental, refinement or atomic coordinate data resulting 
# from the CCDC's data processing and validation procedures.
#
#######################################################################

data_JODRAW
_chemical_formula_moiety         'C10 H11 N4 1+,Cl1 1-'
_chemical_name_systematic        '1-(8-Quinolyl)guanidinium chloride'
_symmetry_cell_setting           orthorhombic
_symmetry_space_group_name_H-M   'P 21 21 21'
_symmetry_Int_Tables_number      19
_space_group_name_Hall           'P 2ac 2ab'
loop_
_symmetry_equiv_pos_site_id
_symmetry_equiv_pos_as_xyz
1 x,y,z
2 1/2-x,-y,1/2+z
3 -x,1/2+y,1/2-z
4 1/2+x,1/2-y,-z
_cell_length_a                   8.741(5)
_cell_length_b                   9.023(4)
_cell_length_c                   13.942(3)
_cell_angle_alpha                90
_cell_angle_beta                 90
_cell_angle_gamma                90
_cell_volume                     1099.61
_exptl_crystal_colour            yellow
_exptl_crystal_description       block
_cell_formula_units_Z            4
_exptl_crystal_recrystallization_method water
loop_
_atom_site_label
_atom_site_type_symbol
_atom_site_fract_x
_atom_site_fract_y
_atom_site_fract_z
Cl1 Cl 0.87039(13) 0.86779(11) 0.66736(7)
N1 N 0.7592(4) 0.9934(4) 0.9747(3)
H1 H 0.7203 1.0095 1.0304
N2 N 0.8959(5) 1.1996(4) 0.9949(3)
H2 H 0.8571 1.2079 1.0513
H3 H 0.9602 1.2646 0.9746
N3 N 0.9244(4) 1.0767(4) 0.8560(2)
H4 H 0.9919 1.1398 0.8372
H5 H 0.8995 1.0037 0.8195
N4 N 0.4631(4) 0.9656(4) 0.9075(3)
C1 C 0.7555(6) 0.6150(5) 0.8683(3)
H6 H 0.8233 0.5370 0.8587
C2 C 0.6087(5) 0.6031(5) 0.8408(3)
H7 H 0.5741 0.5145 0.8146
C3 C 0.5063(6) 0.7229(5) 0.8510(3)
C4 C 0.3507(5) 0.7160(5) 0.8217(3)
H8 H 0.3118 0.6310 0.7928
C5 C 0.2599(6) 0.8362(5) 0.8366(3)
H9 H 0.1582 0.8350 0.8169
C6 C 0.3209(6) 0.9621(6) 0.8819(3)
H10 H 0.2586 1.0437 0.8935
C7 C 0.5562(5) 0.8546(6) 0.8953(3)
C8 C 0.7120(5) 0.8643(5) 0.9261(3)
C9 C 0.8061(6) 0.7494(5) 0.9127(3)
H11 H 0.9073 0.7570 0.9328
C10 C 0.8584(5) 1.0921(5) 0.9419(3)
loop_
_geom_bond_atom_site_label_1
_geom_bond_atom_site_label_2
_geom_bond_site_symmetry_1
_geom_bond_site_symmetry_2
N1 H1 1_555 1_555
N2 H2 1_555 1_555
H3 N2 1_555 1_555
N3 H4 1_555 1_555
H5 N3 1_555 1_555
N4 C6 1_555 1_555
C1 H6 1_555 1_555
C2 C1 1_555 1_555
H7 C2 1_555 1_555
C3 C2 1_555 1_555
C4 C3 1_555 1_555
H8 C4 1_555 1_555
C5 C4 1_555 1_555
H9 C5 1_555 1_555
C6 C5 1_555 1_555
H10 C6 1_555 1_555
C7 N4 1_555 1_555
C8 N1 1_555 1_555
C9 C1 1_555 1_555
H11 C9 1_555 1_555
C10 N1 1_555 1_555
N2 C10 1_555 1_555
N3 C10 1_555 1_555
C3 C7 1_555 1_555
C7 C8 1_555 1_555
C8 C9 1_555 1_555

#END
