
#######################################################################
#
#                 Cambridge Crystallographic Data Centre
#                                CCDC 
#
#######################################################################
#
# If this CIF has been generated from an entry in the Cambridge 
# Structural Database, then it will include bibliographic, chemical, 
# crystal, experimental, refinement or atomic coordinate data resulting 
# from the CCDC's data processing and validation procedures.
#
#######################################################################

data_JODTOL01
_chemical_formula_moiety         'C9 H12 N2 O1'
_chemical_name_systematic        N,N-Dimethyl-N'-phenylurea
_symmetry_cell_setting           orthorhombic
_symmetry_space_group_name_H-M   'P b c a'
_symmetry_Int_Tables_number      61
_space_group_name_Hall           '-P 2ac 2ab'
loop_
_symmetry_equiv_pos_site_id
_symmetry_equiv_pos_as_xyz
1 x,y,z
2 1/2-x,-y,1/2+z
3 -x,1/2+y,1/2-z
4 1/2+x,1/2-y,-z
5 -x,-y,-z
6 1/2+x,y,1/2-z
7 x,1/2-y,1/2+z
8 1/2-x,1/2+y,z
_cell_length_a                   10.5134(19)
_cell_length_b                   10.870(2)
_cell_length_c                   15.348(3)
_cell_angle_alpha                90
_cell_angle_beta                 90
_cell_angle_gamma                90
_cell_volume                     1753.98
_exptl_crystal_colour            colorless
_exptl_crystal_description       block
_cell_formula_units_Z            8
loop_
_atom_site_label
_atom_site_type_symbol
_atom_site_fract_x
_atom_site_fract_y
_atom_site_fract_z
C1 C 0.2662(2) 0.8104(3) 0.35912(18)
C2 C 0.3738(3) 0.7367(3) 0.3711(2)
H1 H 0.4444 0.7479 0.3354
C3 C 0.3764(3) 0.6481(3) 0.4349(2)
H2 H 0.4487 0.5997 0.4419
C4 C 0.2733(3) 0.6301(4) 0.4887(2)
H3 H 0.2750 0.5700 0.5318
C5 C 0.1674(3) 0.7031(3) 0.4771(2)
H4 H 0.0971 0.6916 0.5130
C6 C 0.1631(3) 0.7926(3) 0.4139(2)
H5 H 0.0908 0.8412 0.4079
C7 C 0.1674(2) 0.9457(3) 0.24846(19)
C8 C 0.3152(3) 1.0986(3) 0.1851(2)
H6 H 0.3320 1.1381 0.2398
H7 H 0.3126 1.1593 0.1396
H8 H 0.3813 1.0402 0.1728
C9 C 0.0895(3) 1.0885(4) 0.1389(2)
H9 H 0.0188 1.0325 0.1386
H10 H 0.1173 1.1027 0.0802
H11 H 0.0638 1.1649 0.1647
N1 N 0.2708(2) 0.8992(2) 0.29279(18)
H12 H 0.3445 0.9270 0.2786
N2 N 0.1937(2) 1.0355(3) 0.18944(18)
O1 O 0.05795(17) 0.9066(2) 0.25989(15)
loop_
_geom_bond_atom_site_label_1
_geom_bond_atom_site_label_2
_geom_bond_site_symmetry_1
_geom_bond_site_symmetry_2
C1 C2 1_555 1_555
C2 H1 1_555 1_555
C3 C2 1_555 1_555
H2 C3 1_555 1_555
C4 C3 1_555 1_555
H3 C4 1_555 1_555
C5 C4 1_555 1_555
H4 C5 1_555 1_555
C6 C1 1_555 1_555
H5 C6 1_555 1_555
C7 N1 1_555 1_555
C8 H6 1_555 1_555
H7 C8 1_555 1_555
H8 C8 1_555 1_555
C9 H9 1_555 1_555
H10 C9 1_555 1_555
H11 C9 1_555 1_555
N1 C1 1_555 1_555
H12 N1 1_555 1_555
N2 C7 1_555 1_555
O1 C7 1_555 1_555
C5 C6 1_555 1_555
C8 N2 1_555 1_555
C9 N2 1_555 1_555

#END
