
#######################################################################
#
#                 Cambridge Crystallographic Data Centre
#                                CCDC 
#
#######################################################################
#
# If this CIF has been generated from an entry in the Cambridge 
# Structural Database, then it will include bibliographic, chemical, 
# crystal, experimental, refinement or atomic coordinate data resulting 
# from the CCDC's data processing and validation procedures.
#
#######################################################################

data_JODTED
_chemical_formula_moiety         'C20 H24 O2'
_chemical_name_systematic        
3,3'-dimethyl-8'-methylene-5'-(prop-1-en-2-yl)-4a',5',6',7',8',8a'-hexahydro-2H,2'H-spiro[cyclopent-3-ene-1,1'-naphthalene]-2,2'-dione
_symmetry_cell_setting           orthorhombic
_symmetry_space_group_name_H-M   'P 21 21 21'
_symmetry_Int_Tables_number      19
_space_group_name_Hall           'P 2ac 2ab'
loop_
_symmetry_equiv_pos_site_id
_symmetry_equiv_pos_as_xyz
1 x,y,z
2 1/2+x,1/2-y,-z
3 -x,1/2+y,1/2-z
4 1/2-x,-y,1/2+z
_cell_length_a                   10.0670(2)
_cell_length_b                   10.4909(3)
_cell_length_c                   15.8591(4)
_cell_angle_alpha                90
_cell_angle_beta                 90
_cell_angle_gamma                90
_cell_volume                     1674.91
_exptl_crystal_colour            colorless
_exptl_crystal_description       block
_cell_formula_units_Z            4
loop_
_atom_site_label
_atom_site_type_symbol
_atom_site_fract_x
_atom_site_fract_y
_atom_site_fract_z
O1 O 0.07111(10) 0.17341(10) 0.65915(6)
O2 O 0.21111(11) 0.37436(11) 0.53949(6)
C1 C -0.19437(15) 0.29597(18) 0.62830(12)
H1 H -0.2182 0.2332 0.6715
H2 H -0.1827 0.2528 0.5740
H3 H -0.2652 0.3596 0.6235
C2 C -0.06747(15) 0.36051(14) 0.65260(9)
C3 C 0.05666(14) 0.28799(13) 0.66520(8)
C4 C 0.16838(13) 0.38214(13) 0.68746(8)
C5 C 0.25239(13) 0.33624(13) 0.76250(8)
H4 H 0.2936 0.2540 0.7443
C6 C 0.36927(13) 0.42866(13) 0.77901(9)
H5 H 0.3319 0.5104 0.8011
C7 C 0.46427(14) 0.37375(14) 0.84641(9)
H6 H 0.4995 0.2911 0.8243
C8 C 0.58254(15) 0.45899(15) 0.86479(9)
C9 C 0.70541(17) 0.41599(18) 0.85660(12)
H7 H 0.7785 0.4698 0.8695
H8 H 0.7206 0.3313 0.8378
C10 C 0.09470(14) 0.51142(14) 0.69767(10)
H9 H 0.0967 0.5406 0.7570
H10 H 0.1349 0.5779 0.6615
C11 C -0.04444(15) 0.48194(15) 0.67018(10)
H11 H -0.1111 0.5456 0.6657
C12 C 0.44209(15) 0.45721(14) 0.69874(9)
H12 H 0.5287 0.4924 0.7036
C13 C 0.39548(15) 0.43731(14) 0.62111(9)
C14 C 0.25634(15) 0.39359(13) 0.60936(9)
C15 C 0.47484(17) 0.45637(19) 0.54164(10)
H13 H 0.4922 0.3735 0.5153
H14 H 0.5593 0.4978 0.5554
H15 H 0.4246 0.5102 0.5025
C16 C 0.55522(17) 0.59222(16) 0.89433(11)
H16 H 0.5081 0.6392 0.8501
H17 H 0.6394 0.6351 0.9069
H18 H 0.5003 0.5894 0.9453
C17 C 0.38665(15) 0.34435(16) 0.92735(9)
H19 H 0.4471 0.3051 0.9692
H20 H 0.3524 0.4248 0.9516
C18 C 0.27029(15) 0.25380(15) 0.91027(9)
H21 H 0.3049 0.1702 0.8914
H22 H 0.2197 0.2402 0.9630
C19 C 0.17956(14) 0.30744(14) 0.84386(8)
C20 C 0.05179(16) 0.32608(15) 0.85826(9)
H23 H 0.0150 0.3054 0.9117
H24 H -0.0033 0.3601 0.8152
loop_
_geom_bond_atom_site_label_1
_geom_bond_atom_site_label_2
_geom_bond_site_symmetry_1
_geom_bond_site_symmetry_2
O1 C3 1_555 1_555
O2 C14 1_555 1_555
C1 H1 1_555 1_555
H2 C1 1_555 1_555
H3 C1 1_555 1_555
C2 C1 1_555 1_555
C3 C2 1_555 1_555
C4 C3 1_555 1_555
C5 C4 1_555 1_555
H4 C5 1_555 1_555
C6 C5 1_555 1_555
H5 C6 1_555 1_555
C7 C6 1_555 1_555
H6 C7 1_555 1_555
C8 C7 1_555 1_555
C9 C8 1_555 1_555
H7 C9 1_555 1_555
H8 C9 1_555 1_555
C10 C4 1_555 1_555
H9 C10 1_555 1_555
H10 C10 1_555 1_555
C11 C2 1_555 1_555
H11 C11 1_555 1_555
C12 C6 1_555 1_555
H12 C12 1_555 1_555
C13 C12 1_555 1_555
C14 C4 1_555 1_555
C15 C13 1_555 1_555
H13 C15 1_555 1_555
H14 C15 1_555 1_555
H15 C15 1_555 1_555
C16 C8 1_555 1_555
H16 C16 1_555 1_555
H17 C16 1_555 1_555
H18 C16 1_555 1_555
C17 C7 1_555 1_555
H19 C17 1_555 1_555
H20 C17 1_555 1_555
C18 C17 1_555 1_555
H21 C18 1_555 1_555
H22 C18 1_555 1_555
C19 C5 1_555 1_555
C20 C19 1_555 1_555
H23 C20 1_555 1_555
H24 C20 1_555 1_555
C10 C11 1_555 1_555
C13 C14 1_555 1_555
C18 C19 1_555 1_555

#END
