
#######################################################################
#
#                 Cambridge Crystallographic Data Centre
#                                CCDC 
#
#######################################################################
#
# If this CIF has been generated from an entry in the Cambridge 
# Structural Database, then it will include bibliographic, chemical, 
# crystal, experimental, refinement or atomic coordinate data resulting 
# from the CCDC's data processing and validation procedures.
#
#######################################################################

data_JOFDOY
_chemical_formula_moiety         'C13 H15 N1 O3'
_chemical_name_systematic        
(Z)-3-(1-(4-Methoxyanilino)ethylidene)-4,5-dihydrofuran-2(3H)-one
_symmetry_cell_setting           orthorhombic
_symmetry_space_group_name_H-M   'P b c a'
_symmetry_Int_Tables_number      61
_space_group_name_Hall           '-P 2ac 2ab'
loop_
_symmetry_equiv_pos_site_id
_symmetry_equiv_pos_as_xyz
1 x,y,z
2 1/2-x,-y,1/2+z
3 1/2+x,1/2-y,-z
4 -x,1/2+y,1/2-z
5 -x,-y,-z
6 1/2+x,y,1/2-z
7 1/2-x,1/2+y,z
8 x,1/2-y,1/2+z
_cell_length_a                   12.562(9)
_cell_length_b                   7.568(5)
_cell_length_c                   24.531(18)
_cell_angle_alpha                90
_cell_angle_beta                 90
_cell_angle_gamma                90
_cell_volume                     2332.14
_exptl_crystal_colour            yellow
_exptl_crystal_description       Block
_chemical_melting_point          '339-341 K'
_cell_formula_units_Z            8
_exptl_crystal_recrystallization_method 'ethyl acetate/cyclohexane'
loop_
_atom_site_label
_atom_site_type_symbol
_atom_site_fract_x
_atom_site_fract_y
_atom_site_fract_z
O1 O 0.60436(17) 0.4248(3) 0.28822(9)
O2 O 0.56144(16) 0.3225(3) -0.03039(9)
O3 O 0.67421(17) 0.2671(3) -0.09776(9)
N1 N 0.66238(18) 0.4237(3) 0.06464(10)
H1 H 0.6053 0.4365 0.0457
C1 C 0.6483(2) 0.4258(4) 0.12125(12)
C2 C 0.7161(2) 0.3370(4) 0.15658(12)
H2 H 0.7736 0.2740 0.1427
C3 C 0.6988(2) 0.3416(4) 0.21161(12)
H3 H 0.7454 0.2832 0.2349
C4 C 0.6133(2) 0.4313(4) 0.23285(12)
C5 C 0.5438(2) 0.5155(4) 0.19836(12)
H4 H 0.4845 0.5739 0.2122
C6 C 0.5626(2) 0.5127(4) 0.14287(12)
H5 H 0.5159 0.5712 0.1196
C7 C 0.5122(3) 0.4963(5) 0.31207(14)
H6 H 0.5103 0.6214 0.3058
H7 H 0.5129 0.4738 0.3506
H8 H 0.4504 0.4424 0.2961
C8 C 0.7527(2) 0.4043(4) 0.03547(11)
C9 C 0.8577(2) 0.4487(4) 0.06065(13)
H9 H 0.8960 0.3417 0.0683
H10 H 0.8464 0.5128 0.0939
H11 H 0.8983 0.5201 0.0358
C10 C 0.7493(2) 0.3554(4) -0.01772(11)
C11 C 0.8409(2) 0.3275(5) -0.05534(12)
H12 H 0.8877 0.2350 -0.0421
H13 H 0.8816 0.4353 -0.0601
C12 C 0.7864(3) 0.2733(5) -0.10790(14)
H14 H 0.8019 0.3582 -0.1365
H15 H 0.8118 0.1582 -0.1195
C13 C 0.6529(3) 0.3163(4) -0.04569(12)
loop_
_geom_bond_atom_site_label_1
_geom_bond_atom_site_label_2
_geom_bond_site_symmetry_1
_geom_bond_site_symmetry_2
O1 C4 1_555 1_555
O2 C13 1_555 1_555
O3 C12 1_555 1_555
N1 H1 1_555 1_555
C1 N1 1_555 1_555
C2 C1 1_555 1_555
H2 C2 1_555 1_555
C3 C2 1_555 1_555
H3 C3 1_555 1_555
C4 C3 1_555 1_555
C5 C4 1_555 1_555
H4 C5 1_555 1_555
C6 C1 1_555 1_555
H5 C6 1_555 1_555
C7 O1 1_555 1_555
H6 C7 1_555 1_555
H7 C7 1_555 1_555
H8 C7 1_555 1_555
C8 N1 1_555 1_555
C9 C8 1_555 1_555
H9 C9 1_555 1_555
H10 C9 1_555 1_555
H11 C9 1_555 1_555
C10 C8 1_555 1_555
C11 C10 1_555 1_555
H12 C11 1_555 1_555
H13 C11 1_555 1_555
C12 C11 1_555 1_555
H14 C12 1_555 1_555
H15 C12 1_555 1_555
C13 O3 1_555 1_555
C5 C6 1_555 1_555
C10 C13 1_555 1_555

#END
