
#######################################################################
#
#                 Cambridge Crystallographic Data Centre
#                                CCDC 
#
#######################################################################
#
# If this CIF has been generated from an entry in the Cambridge 
# Structural Database, then it will include bibliographic, chemical, 
# crystal, experimental, refinement or atomic coordinate data resulting 
# from the CCDC's data processing and validation procedures.
#
#######################################################################

data_JOFFIU
_chemical_formula_moiety         'C30 H34 O5'
_chemical_name_systematic        
6-((E)-3,7-Dimethylocta-2,6-dienyl)-5,7-dihydroxy-8-(2-methylbutanoyl)-4-phenyl-2H-chromen-2-one
_symmetry_cell_setting           triclinic
_symmetry_space_group_name_H-M   'P 1'
_symmetry_Int_Tables_number      1
_space_group_name_Hall           'P 1'
loop_
_symmetry_equiv_pos_site_id
_symmetry_equiv_pos_as_xyz
1 x,y,z
_cell_length_a                   5.67290(10)
_cell_length_b                   13.4350(3)
_cell_length_c                   16.8404(3)
_cell_angle_alpha                87.5500(10)
_cell_angle_beta                 82.2430(10)
_cell_angle_gamma                85.3320(10)
_cell_volume                     1266.88
_exptl_crystal_colour            colorless
_exptl_crystal_description       Prism
_cell_formula_units_Z            2
loop_
_atom_site_label
_atom_site_type_symbol
_atom_site_fract_x
_atom_site_fract_y
_atom_site_fract_z
O1 O 0.5000(7) 0.5000(3) 0.5000(2)
O2 O 0.8130(8) 0.4223(3) 0.5477(3)
O3 O 0.2134(7) 0.8422(3) 0.5466(3)
H1 H 0.3356 0.8419 0.5698
O4 O -0.1436(8) 0.6584(4) 0.3762(3)
H2 H -0.1506 0.5999 0.3614
O5 O 0.0088(10) 0.4887(4) 0.3416(4)
C1 C 0.6762(10) 0.4958(5) 0.5509(3)
C2 C 0.6655(10) 0.5786(5) 0.6033(4)
H5 H 0.7705 0.5766 0.6429
C3 C 0.5081(10) 0.6595(5) 0.5972(4)
C4 C 0.4912(10) 0.7375(5) 0.6583(4)
C5 C 0.6800(10) 0.7969(5) 0.6608(4)
H6 H 0.8215 0.7867 0.6240
C6 C 0.6627(11) 0.8711(5) 0.7168(4)
H7 H 0.7924 0.9111 0.7185
C7 C 0.4530(11) 0.8868(5) 0.7710(4)
H8 H 0.4386 0.9390 0.8081
C8 C 0.2727(12) 0.8279(7) 0.7702(5)
H9 H 0.1341 0.8366 0.8085
C9 C 0.2875(12) 0.7538(7) 0.7133(5)
H10 H 0.1566 0.7142 0.7123
C10 C 0.3524(10) 0.6652(4) 0.5356(4)
C11 C 0.3452(10) 0.5805(4) 0.4900(3)
C12 C 0.2028(10) 0.7510(5) 0.5160(4)
C13 C 0.0372(10) 0.7467(5) 0.4626(4)
C14 C -0.1347(10) 0.8390(5) 0.4488(4)
H11 H -0.2871 0.8165 0.4363
H12 H -0.1691 0.8769 0.4987
C15 C -0.0330(10) 0.9071(5) 0.3812(4)
H13 H 0.1083 0.9370 0.3886
C16 C -0.1191(11) 0.9300(5) 0.3123(4)
C17 C -0.3265(12) 0.8834(5) 0.2859(5)
H14 H -0.3609 0.8235 0.3194
H15 H -0.2869 0.8650 0.2297
H16 H -0.4669 0.9314 0.2914
C18 C -0.0055(11) 1.0067(5) 0.2547(4)
H17 H 0.0526 0.9750 0.2030
H18 H 0.1343 1.0293 0.2763
C19 C -0.1767(12) 1.0977(6) 0.2398(4)
H19 H -0.2999 1.0775 0.2087
H20 H -0.2584 1.1218 0.2920
C20 C -0.0517(12) 1.1810(5) 0.1955(4)
H21 H 0.0787 1.2020 0.2188
C21 C -0.0959(11) 1.2300(5) 0.1281(4)
C22 C 0.0533(13) 1.3134(5) 0.0928(4)
H22 H 0.1836 1.3193 0.1246
H23 H -0.0468 1.3764 0.0934
H24 H 0.1197 1.2985 0.0374
C23 C -0.2890(12) 1.2083(6) 0.0812(4)
H25 H -0.3867 1.1584 0.1107
H26 H -0.2182 1.1824 0.0291
H27 H -0.3892 1.2698 0.0730
C24 C 0.0277(10) 0.6593(5) 0.4246(3)
C25 C 0.1865(11) 0.5725(5) 0.4348(4)
C26 C 0.1610(13) 0.4843(5) 0.3891(5)
C27 C 0.3025(12) 0.3828(5) 0.3980(5)
H28 H 0.3397 0.3771 0.4545
C28 C 0.148(2) 0.2962(6) 0.3877(7)
H29 H 0.2373 0.2324 0.3982
H30 H 0.1085 0.2984 0.3328
H31 H 0.0013 0.3027 0.4256
C29 C 0.5363(14) 0.3846(7) 0.3452(5)
H32 H 0.6287 0.3194 0.3500
H33 H 0.6294 0.4368 0.3629
C30 C 0.4987(19) 0.4062(8) 0.2566(5)
H34 H 0.6532 0.4003 0.2225
H35 H 0.4240 0.4741 0.2507
H36 H 0.3950 0.3580 0.2404
O6 O -0.5997(7) 1.4425(3) 0.7678(3)
O7 O -0.9094(8) 1.5196(4) 0.7193(3)
O8 O -0.2864(8) 1.1053(3) 0.7113(3)
H3 H -0.3574 1.1133 0.6705
O9 O 0.0561(8) 1.2875(4) 0.8869(3)
H4 H 0.0288 1.3378 0.9156
O10 O -0.1233(12) 1.4518(5) 0.9302(4)
C31 C -0.7703(10) 1.4460(5) 0.7166(4)
C32 C -0.7549(10) 1.3652(5) 0.6628(4)
H37 H -0.8627 1.3670 0.6241
C33 C -0.5920(10) 1.2867(5) 0.6654(4)
C34 C -0.5701(10) 1.2096(5) 0.6026(4)
C35 C -0.3631(11) 1.1987(6) 0.5479(5)
H38 H -0.2382 1.2413 0.5494
C36 C -0.3404(11) 1.1258(6) 0.4915(5)
H39 H -0.1975 1.1169 0.4551
C37 C -0.5277(11) 1.0645(5) 0.4875(4)
H40 H -0.5129 1.0150 0.4481
C38 C -0.7304(11) 1.0768(5) 0.5406(4)
H41 H -0.8567 1.0350 0.5387
C39 C -0.4357(10) 1.2785(5) 0.7283(3)
C40 C -0.4404(10) 1.3618(5) 0.7759(4)
C41 C -0.2805(10) 1.1951(4) 0.7452(4)
C42 C -0.7539(10) 1.1500(5) 0.5975(4)
H42 H -0.8979 1.1592 0.6333
C43 C -0.1161(11) 1.1979(5) 0.7973(4)
C44 C 0.0599(11) 1.1120(5) 0.8118(4)
H43 H 0.2083 1.1388 0.8237
H44 H 0.0998 1.0743 0.7619
C45 C -0.0254(10) 1.0410(4) 0.8791(4)
H45 H -0.1601 1.0062 0.8721
C46 C 0.0662(11) 1.0211(5) 0.9474(4)
C47 C 0.2795(12) 1.0687(6) 0.9704(5)
H46 H 0.3247 1.1221 0.9311
H47 H 0.4137 1.0180 0.9712
H48 H 0.2382 1.0968 1.0237
C48 C -0.0360(11) 0.9436(5) 1.0062(4)
H49 H -0.1772 0.9195 0.9865
H50 H -0.0910 0.9755 1.0581
C49 C 0.1398(12) 0.8531(5) 1.0205(4)
H51 H 0.2225 0.8299 0.9682
H52 H 0.2617 0.8739 1.0520
C50 C 0.0163(14) 0.7689(5) 1.0643(4)
H53 H -0.1133 0.7469 1.0411
C51 C 0.0647(12) 0.7206(5) 1.1317(4)
C52 C -0.0778(16) 0.6359(7) 1.1650(5)
H54 H -0.1755 0.6169 1.1252
H55 H -0.1817 0.6566 1.2137
H56 H 0.0304 0.5786 1.1779
C53 C 0.2580(14) 0.7435(6) 1.1803(5)
H57 H 0.3348 0.8027 1.1570
H58 H 0.3771 0.6864 1.1798
H59 H 0.1874 0.7562 1.2357
C54 C -0.1128(12) 1.2858(5) 0.8400(4)
C55 C -0.2840(12) 1.3680(5) 0.8344(4)
C56 C -0.2909(14) 1.4498(5) 0.8911(4)
C57 C -0.5006(13) 1.5287(5) 0.9073(4)
H60 H -0.6360 1.5003 0.8858
C58 C -0.583(2) 1.5373(11) 0.9978(5)
H61 H -0.7324 1.5796 1.0062
H62 H -0.4602 1.5670 1.0229
H63 H -0.6078 1.4706 1.0218
C59 C -0.4514(18) 1.6215(6) 0.8552(6)
H64 H -0.5943 1.6694 0.8609
H65 H -0.4160 1.6033 0.7983
C60 C -0.2386(17) 1.6704(7) 0.8803(6)
H66 H -0.2379 1.7394 0.8589
H67 H -0.0899 1.6327 0.8590
H68 H -0.2522 1.6702 0.9389
loop_
_geom_bond_atom_site_label_1
_geom_bond_atom_site_label_2
_geom_bond_site_symmetry_1
_geom_bond_site_symmetry_2
O1 C1 1_555 1_555
O2 C1 1_555 1_555
O3 H1 1_555 1_555
O4 H2 1_555 1_555
O5 C26 1_555 1_555
O6 C31 1_555 1_555
O7 C31 1_555 1_555
O8 H3 1_555 1_555
O9 H4 1_555 1_555
O10 C56 1_555 1_555
C1 C2 1_555 1_555
C2 H5 1_555 1_555
C3 C2 1_555 1_555
C4 C3 1_555 1_555
C5 C4 1_555 1_555
H6 C5 1_555 1_555
C6 C5 1_555 1_555
H7 C6 1_555 1_555
C7 C6 1_555 1_555
H8 C7 1_555 1_555
C8 C7 1_555 1_555
H9 C8 1_555 1_555
C9 C4 1_555 1_555
H10 C9 1_555 1_555
C10 C3 1_555 1_555
C11 O1 1_555 1_555
C12 O3 1_555 1_555
C13 C12 1_555 1_555
C14 C13 1_555 1_555
H11 C14 1_555 1_555
H12 C14 1_555 1_555
C15 C14 1_555 1_555
H13 C15 1_555 1_555
C16 C15 1_555 1_555
C17 C16 1_555 1_555
H14 C17 1_555 1_555
H15 C17 1_555 1_555
H16 C17 1_555 1_555
C18 C16 1_555 1_555
H17 C18 1_555 1_555
H18 C18 1_555 1_555
C19 C18 1_555 1_555
H19 C19 1_555 1_555
H20 C19 1_555 1_555
C20 C19 1_555 1_555
H21 C20 1_555 1_555
C21 C20 1_555 1_555
C22 C21 1_555 1_555
H22 C22 1_555 1_555
H23 C22 1_555 1_555
H24 C22 1_555 1_555
C23 C21 1_555 1_555
H25 C23 1_555 1_555
H26 C23 1_555 1_555
H27 C23 1_555 1_555
C24 O4 1_555 1_555
C25 C11 1_555 1_555
C26 C25 1_555 1_555
C27 C26 1_555 1_555
H28 C27 1_555 1_555
C28 C27 1_555 1_555
H29 C28 1_555 1_555
H30 C28 1_555 1_555
H31 C28 1_555 1_555
C29 C27 1_555 1_555
H32 C29 1_555 1_555
H33 C29 1_555 1_555
C30 C29 1_555 1_555
H34 C30 1_555 1_555
H35 C30 1_555 1_555
H36 C30 1_555 1_555
C31 C32 1_555 1_555
C32 H37 1_555 1_555
C33 C32 1_555 1_555
C34 C33 1_555 1_555
C35 C34 1_555 1_555
H38 C35 1_555 1_555
C36 C35 1_555 1_555
H39 C36 1_555 1_555
C37 C36 1_555 1_555
H40 C37 1_555 1_555
C38 C37 1_555 1_555
H41 C38 1_555 1_555
C39 C33 1_555 1_555
C40 O6 1_555 1_555
C41 O8 1_555 1_555
C42 C34 1_555 1_555
H42 C42 1_555 1_555
C43 C41 1_555 1_555
C44 C43 1_555 1_555
H43 C44 1_555 1_555
H44 C44 1_555 1_555
C45 C44 1_555 1_555
H45 C45 1_555 1_555
C46 C45 1_555 1_555
C47 C46 1_555 1_555
H46 C47 1_555 1_555
H47 C47 1_555 1_555
H48 C47 1_555 1_555
C48 C46 1_555 1_555
H49 C48 1_555 1_555
H50 C48 1_555 1_555
C49 C48 1_555 1_555
H51 C49 1_555 1_555
H52 C49 1_555 1_555
C50 C49 1_555 1_555
H53 C50 1_555 1_555
C51 C50 1_555 1_555
C52 C51 1_555 1_555
H54 C52 1_555 1_555
H55 C52 1_555 1_555
H56 C52 1_555 1_555
C53 C51 1_555 1_555
H57 C53 1_555 1_555
H58 C53 1_555 1_555
H59 C53 1_555 1_555
C54 O9 1_555 1_555
C55 C40 1_555 1_555
C56 C55 1_555 1_555
C57 C56 1_555 1_555
H60 C57 1_555 1_555
C58 C57 1_555 1_555
H61 C58 1_555 1_555
H62 C58 1_555 1_555
H63 C58 1_555 1_555
C59 C57 1_555 1_555
H64 C59 1_555 1_555
H65 C59 1_555 1_555
C60 C59 1_555 1_555
H66 C60 1_555 1_555
H67 C60 1_555 1_555
H68 C60 1_555 1_555
C8 C9 1_555 1_555
C10 C11 1_555 1_555
C10 C12 1_555 1_555
C13 C24 1_555 1_555
C24 C25 1_555 1_555
C38 C42 1_555 1_555
C39 C40 1_555 1_555
C39 C41 1_555 1_555
C43 C54 1_555 1_555
C54 C55 1_555 1_555

#END
