
#######################################################################
#
#                 Cambridge Crystallographic Data Centre
#                                CCDC 
#
#######################################################################
#
# If this CIF has been generated from an entry in the Cambridge 
# Structural Database, then it will include bibliographic, chemical, 
# crystal, experimental, refinement or atomic coordinate data resulting 
# from the CCDC's data processing and validation procedures.
#
#######################################################################

data_JOFHOD
_chemical_formula_moiety         'C20 H16 N2 O2'
_chemical_name_systematic        
N,N'-1,4-Phenylenebis(3-(2-furyl)prop-2-en-1-imine)
_symmetry_cell_setting           orthorhombic
_symmetry_space_group_name_H-M   'F d d 2'
_symmetry_Int_Tables_number      43
_space_group_name_Hall           'F 2 -2d'
loop_
_symmetry_equiv_pos_site_id
_symmetry_equiv_pos_as_xyz
1 x,y,z
2 -x,-y,z
3 1/4+x,1/4-y,1/4+z
4 1/4-x,1/4+y,1/4+z
5 x,1/2+y,1/2+z
6 -x,1/2-y,1/2+z
7 1/4+x,3/4-y,3/4+z
8 1/4-x,3/4+y,3/4+z
9 1/2+x,y,1/2+z
10 1/2-x,-y,1/2+z
11 3/4+x,1/4-y,3/4+z
12 3/4-x,1/4+y,3/4+z
13 1/2+x,1/2+y,z
14 1/2-x,1/2-y,z
15 3/4+x,3/4-y,1/4+z
16 3/4-x,3/4+y,1/4+z
_cell_length_a                   26.344(15)
_cell_length_b                   48.50(3)
_cell_length_c                   5.293(3)
_cell_angle_alpha                90
_cell_angle_beta                 90
_cell_angle_gamma                90
_cell_volume                     6762.78
_exptl_crystal_colour            yellow
_exptl_crystal_description       block
_cell_formula_units_Z            16
loop_
_atom_site_label
_atom_site_type_symbol
_atom_site_fract_x
_atom_site_fract_y
_atom_site_fract_z
C1 C 0.03410(14) 0.12896(9) 0.3307(12)
H1 H 0.0156 0.1415 0.4267
C2 C 0.02282(15) 0.12177(10) 0.0949(12)
H2 H -0.0042 0.1281 -0.0019
C3 C 0.06024(13) 0.10248(8) 0.0208(9)
H3 H 0.0625 0.0938 -0.1355
C4 C 0.09205(11) 0.09898(7) 0.2178(8)
C5 C 0.13591(12) 0.08206(7) 0.2556(8)
H4 H 0.1466 0.0716 0.1185
C6 C 0.16285(11) 0.07982(7) 0.4657(8)
H5 H 0.1535 0.0903 0.6052
C7 C 0.20594(11) 0.06185(6) 0.4867(8)
H6 H 0.2161 0.0519 0.3452
C8 C 0.27289(10) 0.04090(6) 0.7022(7)
C9 C 0.30774(11) 0.04482(7) 0.8965(7)
H7 H 0.3028 0.0591 1.0115
C10 C 0.34984(11) 0.02778(7) 0.9210(8)
H8 H 0.3731 0.0310 1.0499
C11 C 0.35754(10) 0.00599(6) 0.7549(7)
C12 C 0.32282(11) 0.00203(7) 0.5622(7)
H9 H 0.3276 -0.0123 0.4479
C13 C 0.28105(11) 0.01910(7) 0.5373(7)
H10 H 0.2580 0.0159 0.4075
C14 C 0.42171(11) -0.01675(7) 0.9779(8)
H11 H 0.4107 -0.0075 1.1217
C15 C 0.46378(12) -0.03559(7) 0.9955(8)
H12 H 0.4733 -0.0456 0.8536
C16 C 0.48962(12) -0.03896(7) 1.2122(7)
H13 H 0.4790 -0.0286 1.3503
C17 C 0.53205(14) -0.05708(8) 1.2507(8)
C18 C 0.56410(13) -0.05975(8) 1.4452(10)
H14 H 0.5641 -0.0497 1.5949
C19 C 0.59824(16) -0.08115(9) 1.3747(10)
H15 H 0.6249 -0.0878 1.4725
C20 C 0.58628(15) -0.08963(9) 1.1569(10)
H16 H 0.6030 -0.1036 1.0699
N1 N 0.23090(9) 0.05899(5) 0.6926(6)
N2 N 0.39933(10) -0.01258(6) 0.7668(7)
O1 O 0.07666(9) 0.11550(5) 0.4133(6)
O2 O 0.54470(10) -0.07516(5) 1.0658(6)
loop_
_geom_bond_atom_site_label_1
_geom_bond_atom_site_label_2
_geom_bond_site_symmetry_1
_geom_bond_site_symmetry_2
C1 H1 1_555 1_555
C2 C1 1_555 1_555
H2 C2 1_555 1_555
C3 C2 1_555 1_555
H3 C3 1_555 1_555
C4 C3 1_555 1_555
C5 C4 1_555 1_555
H4 C5 1_555 1_555
C6 C5 1_555 1_555
H5 C6 1_555 1_555
C7 C6 1_555 1_555
H6 C7 1_555 1_555
C8 C9 1_555 1_555
C9 H7 1_555 1_555
C10 C9 1_555 1_555
H8 C10 1_555 1_555
C11 C10 1_555 1_555
C12 C11 1_555 1_555
H9 C12 1_555 1_555
C13 C8 1_555 1_555
H10 C13 1_555 1_555
C14 H11 1_555 1_555
C15 C14 1_555 1_555
H12 C15 1_555 1_555
C16 C15 1_555 1_555
H13 C16 1_555 1_555
C17 C16 1_555 1_555
C18 C17 1_555 1_555
H14 C18 1_555 1_555
C19 C18 1_555 1_555
H15 C19 1_555 1_555
C20 C19 1_555 1_555
H16 C20 1_555 1_555
N1 C7 1_555 1_555
N2 C11 1_555 1_555
O1 C1 1_555 1_555
O2 C17 1_555 1_555
C4 O1 1_555 1_555
C8 N1 1_555 1_555
C12 C13 1_555 1_555
C14 N2 1_555 1_555
C20 O2 1_555 1_555

#END
