
#######################################################################
#
#                 Cambridge Crystallographic Data Centre
#                                CCDC 
#
#######################################################################
#
# If this CIF has been generated from an entry in the Cambridge 
# Structural Database, then it will include bibliographic, chemical, 
# crystal, experimental, refinement or atomic coordinate data resulting 
# from the CCDC's data processing and validation procedures.
#
#######################################################################

data_JOFHES
_chemical_name_common            12-Nitromethyl-14-deoxyandrographolide
_chemical_formula_moiety         'C21 H31 N1 O6'
_chemical_name_systematic        
3-(2-(6-hydroxy-5-hydroxymethyl-5,8a-dimethyl-2-methyleneperhydro-1-napthyl)-1-(nitromethyl)ethyl)-2(4H)-furanone
_symmetry_cell_setting           orthorhombic
_symmetry_space_group_name_H-M   'P 21 21 21'
_symmetry_Int_Tables_number      19
_space_group_name_Hall           'P 2ac 2ab'
loop_
_symmetry_equiv_pos_site_id
_symmetry_equiv_pos_as_xyz
1 x,y,z
2 1/2-x,-y,1/2+z
3 -x,1/2+y,1/2-z
4 1/2+x,1/2-y,-z
_cell_length_a                   11.503(2)
_cell_length_b                   13.151(3)
_cell_length_c                   13.434(3)
_cell_angle_alpha                90
_cell_angle_beta                 90
_cell_angle_gamma                90
_cell_volume                     2032.24
_exptl_crystal_colour            colorless
_exptl_crystal_description       block
_cell_formula_units_Z            4
_exptl_crystal_recrystallization_method 'ethyl acetate'
loop_
_atom_site_label
_atom_site_type_symbol
_atom_site_fract_x
_atom_site_fract_y
_atom_site_fract_z
O1 O 0.3022(3) 0.2945(3) 0.3635(3)
H1 H 0.3210 0.2868 0.4219
O2 O 0.4711(3) 0.2805(3) 0.5078(2)
H2 H 0.477(5) 0.325(3) 0.553(3)
O3 O 0.9911(4) 0.6195(2) 0.1980(3)
O4 O 1.0518(4) 0.5831(2) 0.3513(2)
O5 O 1.2868(3) 0.3264(4) 0.0613(3)
O6 O 1.2176(3) 0.4675(3) 0.1109(3)
N1 N 1.2092(3) 0.3771(4) 0.0954(3)
C1 C 0.7547(4) 0.4347(4) 0.0088(3)
H3 H 0.7162 0.4713 -0.0404
H4 H 0.8097 0.3861 -0.0088
C2 C 0.7313(4) 0.4515(3) 0.1031(3)
C3 C 0.6437(4) 0.5286(3) 0.1353(4)
H5 H 0.6129 0.5636 0.0775
H6 H 0.6806 0.5786 0.1780
C4 C 0.5440(4) 0.4763(3) 0.1922(3)
H7 H 0.4909 0.5274 0.2175
H8 H 0.5011 0.4326 0.1470
C5 C 0.5913(3) 0.4130(3) 0.2788(3)
H9 H 0.6378 0.4615 0.3172
C6 C 0.6812(3) 0.3322(3) 0.2437(3)
C7 C 0.7821(3) 0.3923(3) 0.1901(3)
H10 H 0.8088 0.4433 0.2380
C8 C 0.4951(3) 0.3781(3) 0.3532(3)
C9 C 0.5559(4) 0.3237(4) 0.4396(3)
H11 H 0.6021 0.3740 0.4761
C10 C 0.6359(4) 0.2395(3) 0.4063(3)
H12 H 0.5908 0.1876 0.3725
H13 H 0.6717 0.2085 0.4642
C11 C 0.7308(3) 0.2784(3) 0.3364(3)
H14 H 0.7786 0.2216 0.3153
H15 H 0.7802 0.3255 0.3724
C12 C 0.4332(5) 0.4722(4) 0.3948(4)
H16 H 0.3736 0.4513 0.4405
H17 H 0.3988 0.5098 0.3411
H18 H 0.4884 0.5144 0.4289
C13 C 0.4032(3) 0.3085(4) 0.3047(4)
H19 H 0.3806 0.3375 0.2412
H20 H 0.4380 0.2427 0.2917
C14 C 0.6321(4) 0.2524(3) 0.1714(3)
H21 H 0.5702 0.2157 0.2032
H22 H 0.6925 0.2058 0.1527
H23 H 0.6027 0.2857 0.1130
C15 C 0.8890(3) 0.3280(3) 0.1645(3)
H24 H 0.8742 0.2914 0.1031
H25 H 0.9011 0.2783 0.2167
C16 C 1.0006(3) 0.3920(3) 0.1522(3)
H26 H 0.9876 0.4425 0.0998
C17 C 1.0987(4) 0.3222(4) 0.1201(4)
H27 H 1.1141 0.2739 0.1731
H28 H 1.0738 0.2839 0.0621
C18 C 1.0289(3) 0.4467(3) 0.2473(3)
C19 C 1.0200(4) 0.5570(4) 0.2574(3)
C20 C 1.0817(5) 0.4937(4) 0.4047(4)
H29 H 1.0320 0.4855 0.4625
H30 H 1.1620 0.4965 0.4268
C21 C 1.0646(4) 0.4099(4) 0.3342(3)
H31 H 1.0769 0.3415 0.3481
loop_
_geom_bond_atom_site_label_1
_geom_bond_atom_site_label_2
_geom_bond_site_symmetry_1
_geom_bond_site_symmetry_2
O1 H1 1_555 1_555
O2 H2 1_555 1_555
O3 C19 1_555 1_555
O4 C19 1_555 1_555
O5 N1 1_555 1_555
O6 N1 1_555 1_555
N1 C17 1_555 1_555
C1 H3 1_555 1_555
H4 C1 1_555 1_555
C2 C1 1_555 1_555
C3 C2 1_555 1_555
H5 C3 1_555 1_555
H6 C3 1_555 1_555
C4 C3 1_555 1_555
H7 C4 1_555 1_555
H8 C4 1_555 1_555
C5 C4 1_555 1_555
H9 C5 1_555 1_555
C6 C5 1_555 1_555
C7 C2 1_555 1_555
H10 C7 1_555 1_555
C8 C5 1_555 1_555
C9 O2 1_555 1_555
H11 C9 1_555 1_555
C10 C9 1_555 1_555
H12 C10 1_555 1_555
H13 C10 1_555 1_555
C11 C6 1_555 1_555
H14 C11 1_555 1_555
H15 C11 1_555 1_555
C12 C8 1_555 1_555
H16 C12 1_555 1_555
H17 C12 1_555 1_555
H18 C12 1_555 1_555
C13 O1 1_555 1_555
H19 C13 1_555 1_555
H20 C13 1_555 1_555
C14 C6 1_555 1_555
H21 C14 1_555 1_555
H22 C14 1_555 1_555
H23 C14 1_555 1_555
C15 C7 1_555 1_555
H24 C15 1_555 1_555
H25 C15 1_555 1_555
C16 C15 1_555 1_555
H26 C16 1_555 1_555
C17 C16 1_555 1_555
H27 C17 1_555 1_555
H28 C17 1_555 1_555
C18 C16 1_555 1_555
C19 C18 1_555 1_555
C20 O4 1_555 1_555
H29 C20 1_555 1_555
H30 C20 1_555 1_555
C21 C18 1_555 1_555
H31 C21 1_555 1_555
C6 C7 1_555 1_555
C8 C9 1_555 1_555
C8 C13 1_555 1_555
C10 C11 1_555 1_555
C20 C21 1_555 1_555

#END
