
#######################################################################
#
#                 Cambridge Crystallographic Data Centre
#                                CCDC 
#
#######################################################################
#
# If this CIF has been generated from an entry in the Cambridge 
# Structural Database, then it will include bibliographic, chemical, 
# crystal, experimental, refinement or atomic coordinate data resulting 
# from the CCDC's data processing and validation procedures.
#
#######################################################################

data_JOFJOE
_chemical_name_common            'Methyl eucomate'
_chemical_formula_moiety         'C12 H14 O6'
_chemical_name_systematic        
'Methyl 3-carboxy-3-hydroxy-3-(4-hydroxybenzyl)propanoate'
_symmetry_cell_setting           orthorhombic
_symmetry_space_group_name_H-M   'P 21 21 21'
_symmetry_Int_Tables_number      19
_space_group_name_Hall           'P 2ac 2ab'
loop_
_symmetry_equiv_pos_site_id
_symmetry_equiv_pos_as_xyz
1 x,y,z
2 1/2-x,-y,1/2+z
3 -x,1/2+y,1/2-z
4 1/2+x,1/2-y,-z
_cell_length_a                   5.9109(6)
_cell_length_b                   7.0348(7)
_cell_length_c                   29.109(3)
_cell_angle_alpha                90
_cell_angle_beta                 90
_cell_angle_gamma                90
_cell_volume                     1210.41
_exptl_crystal_colour            colorless
_exptl_crystal_description       rectangular
_cell_formula_units_Z            4
_exptl_crystal_recrystallization_method methanol
loop_
_atom_site_label
_atom_site_type_symbol
_atom_site_fract_x
_atom_site_fract_y
_atom_site_fract_z
O1 O 0.2505(3) 0.2830(2) 0.32392(5)
H1 H 0.1313 0.2346 0.3323
O2 O 0.5510(2) 0.5081(2) 0.11441(5)
H2 H 0.5099 0.5865 0.1335
O3 O 0.1405(3) 0.6278(2) 0.13901(5)
O4 O -0.0301(3) 0.3948(3) 0.09911(6)
H3 H -0.1460 0.4500 0.1070
O5 O 0.2745(4) 0.6569(3) 0.03265(6)
O6 O 0.3709(3) 0.4543(2) -0.02286(5)
C1 C 0.2722(4) 0.2631(3) 0.27718(8)
C2 C 0.4773(4) 0.3133(3) 0.25799(8)
H4 H 0.5932 0.3598 0.2764
C3 C 0.5089(4) 0.2940(3) 0.21133(8)
H5 H 0.6475 0.3286 0.1987
C4 C 0.3420(4) 0.2253(3) 0.18265(8)
C5 C 0.1367(4) 0.1752(3) 0.20275(8)
H6 H 0.0209 0.1285 0.1843
C6 C 0.1010(4) 0.1933(3) 0.24947(9)
H7 H -0.0373 0.1588 0.2622
C7 C 0.3804(4) 0.2011(3) 0.13179(8)
H8 H 0.2693 0.1119 0.1201
H9 H 0.5286 0.1451 0.1272
C8 C 0.3660(4) 0.3855(3) 0.10324(7)
C9 C 0.3831(4) 0.3384(3) 0.05217(8)
H10 H 0.5339 0.2904 0.0459
H11 H 0.2767 0.2375 0.0452
C10 C 0.3374(4) 0.5023(4) 0.02090(8)
C11 C 0.1476(4) 0.4865(4) 0.11534(7)
C12 C 0.3196(5) 0.5985(4) -0.05667(9)
H12 H 0.3552 0.5515 -0.0868
H13 H 0.4079 0.7102 -0.0505
H14 H 0.1617 0.6297 -0.0552
loop_
_geom_bond_atom_site_label_1
_geom_bond_atom_site_label_2
_geom_bond_site_symmetry_1
_geom_bond_site_symmetry_2
O1 H1 1_555 1_555
O2 H2 1_555 1_555
O3 C11 1_555 1_555
O4 H3 1_555 1_555
O5 C10 1_555 1_555
O6 C10 1_555 1_555
C1 O1 1_555 1_555
C2 C1 1_555 1_555
H4 C2 1_555 1_555
C3 C2 1_555 1_555
H5 C3 1_555 1_555
C4 C3 1_555 1_555
C5 C4 1_555 1_555
H6 C5 1_555 1_555
C6 C1 1_555 1_555
H7 C6 1_555 1_555
C7 C4 1_555 1_555
H8 C7 1_555 1_555
H9 C7 1_555 1_555
C8 O2 1_555 1_555
C9 C8 1_555 1_555
H10 C9 1_555 1_555
H11 C9 1_555 1_555
C10 C9 1_555 1_555
C11 O4 1_555 1_555
C12 O6 1_555 1_555
H12 C12 1_555 1_555
H13 C12 1_555 1_555
H14 C12 1_555 1_555
C5 C6 1_555 1_555
C7 C8 1_555 1_555
C8 C11 1_555 1_555

#END
