
#######################################################################
#
#                 Cambridge Crystallographic Data Centre
#                                CCDC 
#
#######################################################################
#
# If this CIF has been generated from an entry in the Cambridge 
# Structural Database, then it will include bibliographic, chemical, 
# crystal, experimental, refinement or atomic coordinate data resulting 
# from the CCDC's data processing and validation procedures.
#
#######################################################################

data_JOFJIY
_chemical_name_common            
N,N'-bis(5-methylsalicylidene)-1,5-diamino-3-azapentane
_chemical_formula_moiety         'C20 H25 N3 O2'
_chemical_name_systematic        
4,4'-Dimethyl-2,2'-((3-azapentane-1,5-diyl)bis(nitrilomethylidyne))diphenol
_symmetry_cell_setting           orthorhombic
_symmetry_space_group_name_H-M   'P c a 21'
_symmetry_Int_Tables_number      29
_space_group_name_Hall           'P 2c -2ac'
loop_
_symmetry_equiv_pos_site_id
_symmetry_equiv_pos_as_xyz
1 x,y,z
2 -x,-y,1/2+z
3 1/2+x,-y,z
4 1/2-x,y,1/2+z
_cell_length_a                   9.132(4)
_cell_length_b                   5.834(3)
_cell_length_c                   34.365(16)
_cell_angle_alpha                90
_cell_angle_beta                 90
_cell_angle_gamma                90
_cell_volume                     1830.83
_exptl_crystal_colour            yellow
_exptl_crystal_description       block
_cell_formula_units_Z            4
_exptl_crystal_recrystallization_method ethanol
loop_
_atom_site_label
_atom_site_type_symbol
_atom_site_fract_x
_atom_site_fract_y
_atom_site_fract_z
O1 O 0.8321(3) 1.4932(4) 0.36346(6)
H1 H 0.8862 1.4181 0.3493
O2 O 0.7661(2) 0.0213(3) 0.18913(5)
H2 H 0.8305 0.0960 0.1999
N1 N 1.0105(2) 1.1600(4) 0.34511(6)
N2 N 0.9202(2) 0.3855(3) 0.20445(5)
N3 N 1.0062(2) 0.7202(3) 0.29474(6)
H3 H 1.0210 0.6583 0.3171
C1 C 0.8251(3) 1.0370(4) 0.43648(7)
H4 H 0.8686 0.8960 0.4416
C2 C 0.6782(4) 0.9888(6) 0.49830(9)
H5 H 0.7544 0.8830 0.5051
H6 H 0.5895 0.9059 0.4931
H7 H 0.6622 1.0933 0.5195
C3 C 0.7226(3) 1.1209(4) 0.46259(7)
C4 C 0.6605(3) 1.3338(5) 0.45429(7)
H8 H 0.5923 1.3947 0.4715
C5 C 0.6967(3) 1.4566(4) 0.42153(8)
H9 H 0.6526 1.5977 0.4170
C6 C 0.7992(3) 1.3710(4) 0.39506(7)
C7 C 0.8657(2) 1.1551(4) 0.40291(6)
C8 C 0.9752(2) 1.0605(4) 0.37676(7)
H10 H 1.0208 0.9233 0.3833
C9 C 1.1263(3) 1.0645(5) 0.32037(7)
H11 H 1.1836 0.9560 0.3354
H12 H 1.1911 1.1871 0.3122
C10 C 1.0648(3) 0.9444(4) 0.28455(7)
H13 H 0.9879 1.0376 0.2732
H14 H 1.1416 0.9266 0.2653
C11 C 0.9210(3) 0.6085(4) 0.26450(6)
H15 H 0.8477 0.7152 0.2550
H16 H 0.8698 0.4788 0.2758
C12 C 1.0123(3) 0.5243(5) 0.23003(7)
H17 H 1.0510 0.6543 0.2158
H18 H 1.0940 0.4335 0.2394
C13 C 0.8784(3) 0.4705(4) 0.17204(7)
H19 H 0.9125 0.6143 0.1647
C14 C 0.7784(2) 0.3473(3) 0.14626(6)
C15 C 0.7306(3) 0.4500(4) 0.11167(7)
H20 H 0.7683 0.5925 0.1048
C16 C 0.5766(4) 0.4651(6) 0.05050(9)
H21 H 0.4734 0.4399 0.0474
H22 H 0.6279 0.4036 0.0285
H23 H 0.5955 0.6266 0.0524
C17 C 0.6291(3) 0.3464(4) 0.08737(7)
C18 C 0.5756(3) 0.1310(4) 0.09836(8)
H24 H 0.5074 0.0582 0.0825
C19 C 0.6215(3) 0.0237(4) 0.13212(8)
H25 H 0.5838 -0.1193 0.1387
C20 C 0.7242(3) 0.1288(4) 0.15635(7)
loop_
_geom_bond_atom_site_label_1
_geom_bond_atom_site_label_2
_geom_bond_site_symmetry_1
_geom_bond_site_symmetry_2
O1 H1 1_555 1_555
O2 H2 1_555 1_555
N1 C8 1_555 1_555
N2 C12 1_555 1_555
N3 H3 1_555 1_555
C1 H4 1_555 1_555
C2 H5 1_555 1_555
H6 C2 1_555 1_555
H7 C2 1_555 1_555
C3 C1 1_555 1_555
C4 C3 1_555 1_555
H8 C4 1_555 1_555
C5 C4 1_555 1_555
H9 C5 1_555 1_555
C6 O1 1_555 1_555
C7 C1 1_555 1_555
C8 C7 1_555 1_555
H10 C8 1_555 1_555
C9 N1 1_555 1_555
H11 C9 1_555 1_555
H12 C9 1_555 1_555
C10 N3 1_555 1_555
H13 C10 1_555 1_555
H14 C10 1_555 1_555
C11 N3 1_555 1_555
H15 C11 1_555 1_555
H16 C11 1_555 1_555
C12 C11 1_555 1_555
H17 C12 1_555 1_555
H18 C12 1_555 1_555
C13 N2 1_555 1_555
H19 C13 1_555 1_555
C14 C13 1_555 1_555
C15 C14 1_555 1_555
H20 C15 1_555 1_555
C16 H21 1_555 1_555
H22 C16 1_555 1_555
H23 C16 1_555 1_555
C17 C15 1_555 1_555
C18 C17 1_555 1_555
H24 C18 1_555 1_555
C19 C18 1_555 1_555
H25 C19 1_555 1_555
C20 O2 1_555 1_555
C2 C3 1_555 1_555
C5 C6 1_555 1_555
C6 C7 1_555 1_555
C9 C10 1_555 1_555
C14 C20 1_555 1_555
C16 C17 1_555 1_555
C19 C20 1_555 1_555

#END
