
#######################################################################
#
#                 Cambridge Crystallographic Data Centre
#                                CCDC 
#
#######################################################################
#
# If this CIF has been generated from an entry in the Cambridge 
# Structural Database, then it will include bibliographic, chemical, 
# crystal, experimental, refinement or atomic coordinate data resulting 
# from the CCDC's data processing and validation procedures.
#
#######################################################################

data_JOFJOE01
_chemical_name_common            '4-methyl eucomate'
_chemical_formula_moiety         'C12 H14 O6'
_chemical_name_systematic        
'2-hydroxy-2-(4-hydroxybenzyl)-4-methoxy-4-oxobutanoic acid'
_symmetry_cell_setting           orthorhombic
_symmetry_space_group_name_H-M   'P 21 21 21'
_symmetry_Int_Tables_number      19
_space_group_name_Hall           'P 2ac 2ab'
loop_
_symmetry_equiv_pos_site_id
_symmetry_equiv_pos_as_xyz
1 x,y,z
2 1/2-x,-y,1/2+z
3 1/2+x,1/2-y,-z
4 -x,1/2+y,1/2-z
_cell_length_a                   5.930(3)
_cell_length_b                   6.793(2)
_cell_length_c                   29.104(5)
_cell_angle_alpha                90
_cell_angle_beta                 90
_cell_angle_gamma                90
_cell_volume                     1172.38
_exptl_crystal_colour            colorless
_cell_formula_units_Z            4
_chemical_properties_physical    Heat-sensitive
_exptl_crystal_recrystallization_method MeOH
loop_
_atom_site_label
_atom_site_type_symbol
_atom_site_fract_x
_atom_site_fract_y
_atom_site_fract_z
O1 O 0.0341(3) -0.6077(3) -0.09824(7)
H1 H 0.1524 -0.5500 -0.1066
O2 O -0.2570(3) -0.7225(3) -0.32298(6)
H2 H -0.1317 -0.7669 -0.3316
C1 C -0.1432(4) -0.5140(4) -0.11484(8)
C2 C -0.3637(4) -0.6173(4) -0.10236(9)
C3 C -0.3297(4) -0.4937(4) -0.02017(9)
O3 O -0.3625(3) -0.5432(3) 0.02370(6)
O4 O -0.2632(3) -0.3352(3) -0.03274(6)
C4 C -0.1004(4) -0.8136(4) -0.24876(9)
H3 H 0.0401 -0.8491 -0.2621
C5 C -0.3801(5) -0.6651(4) -0.05133(9)
H4 H -0.5342 -0.7133 -0.0447
H5 H -0.2736 -0.7732 -0.0442
O5 O -0.1371(3) -0.3691(3) -0.13936(6)
C6 C -0.3775(4) -0.8095(4) -0.13074(9)
H6 H -0.2634 -0.9029 -0.1189
H7 H -0.5278 -0.8694 -0.1259
C7 C -0.4829(4) -0.6943(4) -0.25662(9)
H8 H -0.6027 -0.6478 -0.2754
O6 O -0.5484(3) -0.4892(3) -0.11341(6)
H9 H -0.5122 -0.4165 -0.1356
C8 C -0.5133(4) -0.7146(4) -0.20983(9)
H10 H -0.6546 -0.6807 -0.1966
C9 C -0.1346(4) -0.8314(4) -0.20185(9)
H11 H -0.0147 -0.8772 -0.1830
C10 C -0.3408(4) -0.7839(4) -0.18153(9)
C11 C -0.2758(4) -0.7424(4) -0.27620(9)
C12 C -0.3026(5) -0.3931(4) 0.05704(9)
H12 H -0.3421 -0.4387 0.0880
H13 H -0.3851 -0.2716 0.0502
H14 H -0.1401 -0.3677 0.0555
loop_
_geom_bond_atom_site_label_1
_geom_bond_atom_site_label_2
_geom_bond_site_symmetry_1
_geom_bond_site_symmetry_2
O1 H1 1_555 1_555
O2 H2 1_555 1_555
C1 O1 1_555 1_555
C2 C1 1_555 1_555
C3 O3 1_555 1_555
O3 C12 1_555 1_555
O4 C3 1_555 1_555
C4 H3 1_555 1_555
C5 C2 1_555 1_555
H4 C5 1_555 1_555
H5 C5 1_555 1_555
O5 C1 1_555 1_555
C6 C2 1_555 1_555
H6 C6 1_555 1_555
H7 C6 1_555 1_555
C7 H8 1_555 1_555
O6 C2 1_555 1_555
H9 O6 1_555 1_555
C8 C7 1_555 1_555
H10 C8 1_555 1_555
C9 C4 1_555 1_555
H11 C9 1_555 1_555
C10 C6 1_555 1_555
C11 O2 1_555 1_555
C12 H12 1_555 1_555
H13 C12 1_555 1_555
H14 C12 1_555 1_555
C3 C5 1_555 1_555
C4 C11 1_555 1_555
C7 C11 1_555 1_555
C8 C10 1_555 1_555
C9 C10 1_555 1_555

#END
