
#######################################################################
#
#                 Cambridge Crystallographic Data Centre
#                                CCDC 
#
#######################################################################
#
# If this CIF has been generated from an entry in the Cambridge 
# Structural Database, then it will include bibliographic, chemical, 
# crystal, experimental, refinement or atomic coordinate data resulting 
# from the CCDC's data processing and validation procedures.
#
#######################################################################

data_JOFKIZ
_chemical_formula_moiety         'C18 H14 F1 N3 O2 S2'
_chemical_name_systematic        
3-(5-(4-Fluorophenyl)-1,3,4-thiadiazol-2-yl)-2-(4-methoxyphenyl)-1,3-thiazolidin-4-one
_symmetry_cell_setting           triclinic
_symmetry_space_group_name_H-M   'P -1'
_symmetry_Int_Tables_number      2
_space_group_name_Hall           '-P 1'
loop_
_symmetry_equiv_pos_site_id
_symmetry_equiv_pos_as_xyz
1 x,y,z
2 -x,-y,-z
_cell_length_a                   6.4550(13)
_cell_length_b                   8.9200(18)
_cell_length_c                   16.483(3)
_cell_angle_alpha                75.78(3)
_cell_angle_beta                 82.44(3)
_cell_angle_gamma                71.11(3)
_cell_volume                     869.037
_exptl_crystal_colour            colorless
_exptl_crystal_description       block
_chemical_melting_point          '341-345 K'
_cell_formula_units_Z            2
_exptl_crystal_recrystallization_method acetone
loop_
_atom_site_label
_atom_site_type_symbol
_atom_site_fract_x
_atom_site_fract_y
_atom_site_fract_z
S1 S 0.1232(3) 1.32787(19) 0.18123(10)
S2 S 0.7085(2) 0.94841(16) 0.40097(8)
F1 F 1.1681(6) 0.3585(4) 0.7202(2)
O1 O 0.3391(7) 0.6926(6) 0.0237(3)
O2 O 0.6785(6) 1.2181(5) 0.2766(2)
N1 N 0.4009(7) 1.1081(5) 0.2832(3)
N2 N 0.3572(7) 0.8821(6) 0.3839(3)
N3 N 0.4550(7) 0.7685(6) 0.4514(3)
C1 C 0.1565(11) 0.6619(9) -0.0019(4)
H1 H 0.2071 0.5921 -0.0410
H2 H 0.0557 0.7626 -0.0281
H3 H 0.0839 0.6105 0.0462
C2 C 0.2971(9) 0.7920(7) 0.0792(4)
C3 C 0.0998(10) 0.8504(8) 0.1184(4)
H4 H -0.0205 0.8231 0.1084
C4 C 0.0759(9) 0.9502(8) 0.1733(4)
H5 H -0.0604 0.9869 0.2006
C5 C 0.2469(8) 0.9971(7) 0.1889(3)
C6 C 0.4424(11) 0.9355(10) 0.1499(5)
H6 H 0.5630 0.9621 0.1602
C7 C 0.4704(12) 0.8350(10) 0.0956(5)
H7 H 0.6079 0.7959 0.0697
C8 C 0.2051(8) 1.1190(6) 0.2422(3)
H8 H 0.0890 1.1042 0.2852
C9 C 0.3907(10) 1.3489(8) 0.1783(4)
H9 H 0.4707 1.3304 0.1258
H10 H 0.3797 1.4573 0.1835
C10 C 0.5063(9) 1.2245(7) 0.2508(3)
C11 C 0.4717(8) 0.9827(6) 0.3532(3)
C12 C 0.6418(8) 0.7842(6) 0.4677(3)
C13 C 0.7762(8) 0.6774(6) 0.5357(3)
C14 C 0.9628(9) 0.7058(7) 0.5547(3)
H11 H 1.0009 0.7966 0.5243
C15 C 1.0908(10) 0.6009(7) 0.6181(4)
H12 H 1.2114 0.6223 0.6324
C16 C 1.0368(9) 0.4640(7) 0.6596(3)
C17 C 0.8542(10) 0.4310(7) 0.6425(3)
H13 H 0.8189 0.3390 0.6728
C18 C 0.7262(9) 0.5372(6) 0.5799(3)
H14 H 0.6044 0.5156 0.5668
loop_
_geom_bond_atom_site_label_1
_geom_bond_atom_site_label_2
_geom_bond_site_symmetry_1
_geom_bond_site_symmetry_2
S1 C8 1_555 1_555
S2 C11 1_555 1_555
F1 C16 1_555 1_555
O1 C1 1_555 1_555
O2 C10 1_555 1_555
N1 C8 1_555 1_555
N2 N3 1_555 1_555
N3 C12 1_555 1_555
C1 H1 1_555 1_555
H2 C1 1_555 1_555
H3 C1 1_555 1_555
C2 O1 1_555 1_555
C3 C2 1_555 1_555
H4 C3 1_555 1_555
C4 C3 1_555 1_555
H5 C4 1_555 1_555
C5 C4 1_555 1_555
C6 C5 1_555 1_555
H6 C6 1_555 1_555
C7 C2 1_555 1_555
H7 C7 1_555 1_555
C8 C5 1_555 1_555
H8 C8 1_555 1_555
C9 S1 1_555 1_555
H9 C9 1_555 1_555
H10 C9 1_555 1_555
C10 N1 1_555 1_555
C11 N1 1_555 1_555
C12 S2 1_555 1_555
C13 C12 1_555 1_555
C14 C13 1_555 1_555
H11 C14 1_555 1_555
C15 C14 1_555 1_555
H12 C15 1_555 1_555
C16 C15 1_555 1_555
C17 C16 1_555 1_555
H13 C17 1_555 1_555
C18 C13 1_555 1_555
H14 C18 1_555 1_555
N2 C11 1_555 1_555
C6 C7 1_555 1_555
C9 C10 1_555 1_555
C17 C18 1_555 1_555

#END
