
#######################################################################
#
#                 Cambridge Crystallographic Data Centre
#                                CCDC 
#
#######################################################################
#
# If this CIF has been generated from an entry in the Cambridge 
# Structural Database, then it will include bibliographic, chemical, 
# crystal, experimental, refinement or atomic coordinate data resulting 
# from the CCDC's data processing and validation procedures.
#
#######################################################################

data_JOFYOU
_chemical_name_common            1,4-bis(4-(methylthio)phenyl)buta-1,3-diyne
_chemical_formula_moiety         'C18 H14 S2'
_chemical_name_systematic        
1,1'-buta-1,3-diyne-1,4-diylbis(4-(methylsulfanyl)benzene)
_symmetry_cell_setting           triclinic
_symmetry_space_group_name_H-M   'P -1'
_symmetry_Int_Tables_number      2
_space_group_name_Hall           '-P 1'
loop_
_symmetry_equiv_pos_site_id
_symmetry_equiv_pos_as_xyz
1 x,y,z
2 -x,-y,-z
_cell_length_a                   9.107(1)
_cell_length_b                   9.163(1)
_cell_length_c                   9.767(1)
_cell_angle_alpha                76.13(1)
_cell_angle_beta                 69.18(1)
_cell_angle_gamma                78.80(1)
_cell_volume                     734.24
_exptl_crystal_colour            colorless
_exptl_crystal_description       plate
_cell_formula_units_Z            2
loop_
_atom_site_label
_atom_site_type_symbol
_atom_site_fract_x
_atom_site_fract_y
_atom_site_fract_z
S1 S 0.28519(4) 0.43067(4) 0.18860(4)
S2 S 0.25638(4) -0.37291(4) 1.81008(4)
C1 C 0.26996(15) 0.32212(15) 0.36648(15)
C2 C 0.32748(16) 0.16857(15) 0.39300(16)
H1 H 0.3776(19) 0.1125(18) 0.3144(18)
C3 C 0.31229(16) 0.09265(15) 0.53764(16)
H2 H 0.353(2) -0.010(2) 0.5535(18)
C4 C 0.24195(15) 0.16766(15) 0.65859(15)
C5 C 0.18238(16) 0.32150(16) 0.63130(16)
H3 H 0.1334(19) 0.3741(18) 0.7115(18)
C6 C 0.19586(16) 0.39698(15) 0.48752(16)
H4 H 0.1565(19) 0.4979(19) 0.4724(18)
C7 C 0.23600(17) 0.08907(16) 0.80569(16)
C8 C 0.23736(17) 0.02169(16) 0.92770(16)
C9 C 0.23813(17) -0.05231(16) 1.06744(16)
C10 C 0.24099(17) -0.11501(15) 1.19003(16)
C11 C 0.24216(16) -0.18275(15) 1.33798(15)
C12 C 0.38171(16) -0.25589(16) 1.36579(16)
H5 H 0.476(2) -0.2658(18) 1.2863(18)
C13 C 0.38134(16) -0.31327(15) 1.51051(16)
H6 H 0.476(2) -0.3598(18) 1.5272(18)
C14 C 0.24272(16) -0.29930(15) 1.63101(15)
C15 C 0.10228(16) -0.22875(15) 1.60395(15)
H7 H 0.0059(18) -0.2168(17) 1.6798(17)
C16 C 0.10298(16) -0.17151(15) 1.45884(16)
H8 H 0.009(2) -0.1227(18) 1.4440(18)
C17 C 0.4040(2) 0.30303(19) 0.06570(18)
H9 H 0.505(2) 0.268(2) 0.083(2)
H10 H 0.350(2) 0.219(2) 0.079(2)
H11 H 0.421(3) 0.359(2) -0.029(3)
C18 C 0.06766(19) -0.3039(2) 1.93131(18)
H12 H -0.018(2) -0.353(2) 1.928(2)
H13 H 0.049(2) -0.193(2) 1.904(2)
H14 H 0.075(3) -0.332(2) 2.027(3)
loop_
_geom_bond_atom_site_label_1
_geom_bond_atom_site_label_2
_geom_bond_site_symmetry_1
_geom_bond_site_symmetry_2
S1 C1 1_555 1_555
S2 C14 1_555 1_555
C1 C2 1_555 1_555
C2 H1 1_555 1_555
C3 C2 1_555 1_555
H2 C3 1_555 1_555
C4 C3 1_555 1_555
C5 C4 1_555 1_555
H3 C5 1_555 1_555
C6 C1 1_555 1_555
H4 C6 1_555 1_555
C7 C4 1_555 1_555
C8 C7 1_555 1_555
C9 C8 1_555 1_555
C10 C9 1_555 1_555
C11 C10 1_555 1_555
C12 C11 1_555 1_555
H5 C12 1_555 1_555
C13 C12 1_555 1_555
H6 C13 1_555 1_555
C14 C13 1_555 1_555
C15 C14 1_555 1_555
H7 C15 1_555 1_555
C16 C11 1_555 1_555
H8 C16 1_555 1_555
C17 S1 1_555 1_555
H9 C17 1_555 1_555
H10 C17 1_555 1_555
H11 C17 1_555 1_555
C18 S2 1_555 1_555
H12 C18 1_555 1_555
H13 C18 1_555 1_555
H14 C18 1_555 1_555
C5 C6 1_555 1_555
C15 C16 1_555 1_555

#END
