
#######################################################################
#
#                 Cambridge Crystallographic Data Centre
#                                CCDC 
#
#######################################################################
#
# If this CIF has been generated from an entry in the Cambridge 
# Structural Database, then it will include bibliographic, chemical, 
# crystal, experimental, refinement or atomic coordinate data resulting 
# from the CCDC's data processing and validation procedures.
#
#######################################################################

data_JOFZAH
_chemical_name_common            
'1,4-bis(4-(N,N-dimethylamino)phenyl)buta-1,3-diyne tetrahydrofuran solvate'
_chemical_formula_moiety         'C20 H20 N2,C4 H8 O1'
_chemical_name_systematic        
"4,4'-buta-1,3-diyne-1,4-diylbis(N,N-dimethylaniline) tetrahydrofuran solvate"
_symmetry_cell_setting           monoclinic
_symmetry_space_group_name_H-M   'C 2/c'
_symmetry_Int_Tables_number      15
_space_group_name_Hall           '-C 2yn'
loop_
_symmetry_equiv_pos_site_id
_symmetry_equiv_pos_as_xyz
1 x,y,z
2 -x,y,1/2-z
3 1/2+x,1/2+y,z
4 1/2-x,1/2+y,1/2-z
5 -x,-y,-z
6 x,-y,1/2+z
7 1/2-x,1/2-y,-z
8 1/2+x,1/2-y,1/2+z
_cell_length_a                   9.1979(8)
_cell_length_b                   25.859(3)
_cell_length_c                   9.2909(9)
_cell_angle_alpha                90
_cell_angle_beta                 115.69(1)
_cell_angle_gamma                90
_cell_volume                     1991.39
_exptl_crystal_description       block
_cell_formula_units_Z            4
loop_
_atom_site_label
_atom_site_type_symbol
_atom_site_fract_x
_atom_site_fract_y
_atom_site_fract_z
N1 N 0.5000 0.32021(5) 0.2500
N2 N 0.5000 0.90260(5) 0.2500
C1 C 0.5000 0.37311(6) 0.2500
C2 C 0.42623(13) 0.40152(4) 0.10593(13)
H1 H 0.3775(17) 0.3843(5) 0.0057(17)
C3 C 0.42711(13) 0.45477(4) 0.10704(13)
H2 H 0.3803(17) 0.4733(5) 0.0049(17)
C4 C 0.5000 0.48296(6) 0.2500
C5 C 0.5000 0.53819(6) 0.2500
C6 C 0.5000 0.58489(6) 0.2500
C7 C 0.5000 0.63795(6) 0.2500
C8 C 0.5000 0.68471(6) 0.2500
C9 C 0.5000 0.73997(6) 0.2500
C10 C 0.64436(14) 0.76791(4) 0.30178(14)
H3 H 0.7455(17) 0.7490(6) 0.3362(18)
C11 C 0.64524(13) 0.82129(4) 0.30294(14)
H4 H 0.7465(17) 0.8390(5) 0.3376(17)
C12 C 0.5000 0.84960(6) 0.2500
C13 C 0.41754(15) 0.29178(5) 0.10229(14)
H5 H 0.3036(19) 0.3014(6) 0.0485(19)
H6 H 0.4674(19) 0.2985(6) 0.029(2)
H7 H 0.4264(17) 0.2556(6) 0.1239(18)
C14 C 0.64964(15) 0.93123(5) 0.31863(18)
H8 H 0.713(2) 0.9268(8) 0.257(2)
H9 H 0.721(2) 0.9195(7) 0.428(2)
H10 H 0.629(2) 0.9670(8) 0.325(2)
C2A C 0.57377(13) 0.40152(4) 0.39407(13)
H1A H 0.6225(17) 0.3843(5) 0.4943(17)
C3A C 0.57289(13) 0.45477(4) 0.39296(13)
H2A H 0.6197(17) 0.4733(5) 0.4951(17)
C10A C 0.35564(14) 0.76791(4) 0.19822(14)
H3A H 0.2545(17) 0.7490(6) 0.1638(18)
C11A C 0.35476(13) 0.82129(4) 0.19706(14)
H4A H 0.2535(17) 0.8390(5) 0.1624(17)
C13A C 0.58246(15) 0.29178(5) 0.39771(14)
H5A H 0.6964(19) 0.3014(6) 0.4515(19)
H6A H 0.5326(19) 0.2985(6) 0.471(2)
H7A H 0.5736(17) 0.2556(6) 0.3761(18)
C14A C 0.35036(15) 0.93123(5) 0.18137(18)
H8A H 0.287(2) 0.9268(8) 0.243(2)
H9A H 0.279(2) 0.9195(7) 0.072(2)
H10A H 0.371(2) 0.9670(8) 0.175(2)
O1? O 0.4367(2) 1.16342(7) 0.2241(2)
C15? C 0.4582(2) 1.13614(6) 0.3490(2)
H11? H 0.3706 1.1418 0.3772
H12? H 0.5566 1.1463 0.4377
H13? H 0.5019 1.1418 0.4621
H14? H 0.3490 1.1485 0.2998
C16? C 0.46609(18) 1.07967(6) 0.31184(18)
H15? H 0.358(2) 1.0638(7) 0.269(2)
H16? H 0.534(3) 1.0611(8) 0.410(3)
loop_
_geom_bond_atom_site_label_1
_geom_bond_atom_site_label_2
_geom_bond_site_symmetry_1
_geom_bond_site_symmetry_2
N1 C1 1_555 1_555
N2 C12 1_555 1_555
C1 C2 1_555 1_555
C2 H1 1_555 1_555
C3 C2 1_555 1_555
H2 C3 1_555 1_555
C4 C3 1_555 1_555
C5 C4 1_555 1_555
C6 C5 1_555 1_555
C7 C6 1_555 1_555
C8 C7 1_555 1_555
C9 C8 1_555 1_555
C10 C9 1_555 1_555
H3 C10 1_555 1_555
C11 C10 1_555 1_555
H4 C11 1_555 1_555
C12 C11 1_555 1_555
C13 N1 1_555 1_555
H5 C13 1_555 1_555
H6 C13 1_555 1_555
H7 C13 1_555 1_555
C14 N2 1_555 1_555
H8 C14 1_555 1_555
H9 C14 1_555 1_555
H10 C14 1_555 1_555
C2A C1 1_555 1_555
H1A C2A 1_555 1_555
C3A C4 1_555 1_555
H2A C3A 1_555 1_555
C10A C9 1_555 1_555
H3A C10A 1_555 1_555
C11A C12 1_555 1_555
H4A C11A 1_555 1_555
C13A N1 1_555 1_555
H5A C13A 1_555 1_555
H6A C13A 1_555 1_555
H7A C13A 1_555 1_555
C14A N2 1_555 1_555
H8A C14A 1_555 1_555
H9A C14A 1_555 1_555
H10A C14A 1_555 1_555
C2A C3A 1_555 1_555
C10A C11A 1_555 1_555

#END
