
#######################################################################
#
#                 Cambridge Crystallographic Data Centre
#                                CCDC 
#
#######################################################################
#
# If this CIF has been generated from an entry in the Cambridge 
# Structural Database, then it will include bibliographic, chemical, 
# crystal, experimental, refinement or atomic coordinate data resulting 
# from the CCDC's data processing and validation procedures.
#
#######################################################################

data_JOFZIP
_chemical_formula_moiety         'C12 H10 N2 O1'
_chemical_name_systematic        2-((pyridin-4-ylmethylene)amino)phenol
_symmetry_cell_setting           monoclinic
_symmetry_space_group_name_H-M   'P 21/c'
_symmetry_Int_Tables_number      14
_space_group_name_Hall           '-P 2ybc'
loop_
_symmetry_equiv_pos_site_id
_symmetry_equiv_pos_as_xyz
1 x,y,z
2 -x,1/2+y,1/2-z
3 -x,-y,-z
4 x,1/2-y,1/2+z
_cell_length_a                   7.0771(7)
_cell_length_b                   7.2820(7)
_cell_length_c                   19.849(2)
_cell_angle_alpha                90
_cell_angle_beta                 96.3390(10)
_cell_angle_gamma                90
_cell_volume                     1016.67
_exptl_crystal_colour            yellow
_exptl_crystal_description       block
_cell_formula_units_Z            4
loop_
_atom_site_label
_atom_site_type_symbol
_atom_site_fract_x
_atom_site_fract_y
_atom_site_fract_z
C1 C 0.0514(2) 1.05929(18) 0.33897(7)
C2 C 0.0651(2) 1.1945(2) 0.29079(7)
H1 H -0.0408 1.2655 0.2761
C3 C 0.2344(3) 1.2247(2) 0.26444(8)
H2 H 0.2425 1.3165 0.2323
C4 C 0.3917(3) 1.1199(2) 0.28538(8)
H3 H 0.5060 1.1415 0.2677
C5 C 0.3798(2) 0.9831(2) 0.33251(8)
H4 H 0.4859 0.9114 0.3462
C6 C 0.2103(2) 0.95100(18) 0.35988(7)
C7 C 0.2685(2) 0.66700(19) 0.41107(7)
H5 H 0.3281 0.6335 0.3734
C8 C 0.26192(18) 0.53548(18) 0.46677(7)
C9 C 0.2939(2) 0.35109(18) 0.45581(7)
H6 H 0.3279 0.3109 0.4143
C10 C 0.2745(2) 0.2278(2) 0.50719(8)
H7 H 0.2932 0.1038 0.4988
C11 C 0.2196(2) 0.5880(2) 0.53059(7)
H8 H 0.2000 0.7110 0.5405
C12 C 0.2072(2) 0.4549(2) 0.57888(7)
H9 H 0.1808 0.4918 0.6217
N1 N 0.19494(16) 0.82466(15) 0.41306(6)
N2 N 0.23075(18) 0.27608(17) 0.56818(6)
O1 O -0.11721(14) 1.03781(14) 0.36457(5)
H10 H -0.1167 0.9405 0.3854
loop_
_geom_bond_atom_site_label_1
_geom_bond_atom_site_label_2
_geom_bond_site_symmetry_1
_geom_bond_site_symmetry_2
C1 C2 1_555 1_555
C2 H1 1_555 1_555
C3 C2 1_555 1_555
H2 C3 1_555 1_555
C4 C3 1_555 1_555
H3 C4 1_555 1_555
C5 C4 1_555 1_555
H4 C5 1_555 1_555
C6 C1 1_555 1_555
C7 H5 1_555 1_555
C8 C7 1_555 1_555
C9 C8 1_555 1_555
H6 C9 1_555 1_555
C10 C9 1_555 1_555
H7 C10 1_555 1_555
C11 C8 1_555 1_555
H8 C11 1_555 1_555
C12 C11 1_555 1_555
H9 C12 1_555 1_555
N1 C6 1_555 1_555
N2 C10 1_555 1_555
O1 C1 1_555 1_555
H10 O1 1_555 1_555
C5 C6 1_555 1_555
C7 N1 1_555 1_555
C12 N2 1_555 1_555

#END
