
#######################################################################
#
#                 Cambridge Crystallographic Data Centre
#                                CCDC 
#
#######################################################################
#
# If this CIF has been generated from an entry in the Cambridge 
# Structural Database, then it will include bibliographic, chemical, 
# crystal, experimental, refinement or atomic coordinate data resulting 
# from the CCDC's data processing and validation procedures.
#
#######################################################################

data_JOGQUT
_chemical_formula_moiety         'C23 H18 N2 O2'
_chemical_name_systematic        
1-benzyl-1'-methyl-3,3'-spirobi[indole]-2,2'(1H,1'H)-dione
_symmetry_cell_setting           orthorhombic
_symmetry_space_group_name_H-M   'P 21 21 21'
_symmetry_Int_Tables_number      19
_space_group_name_Hall           'P 2ac 2ab'
loop_
_symmetry_equiv_pos_site_id
_symmetry_equiv_pos_as_xyz
1 x,y,z
2 1/2+x,1/2-y,-z
3 -x,1/2+y,1/2-z
4 1/2-x,-y,1/2+z
_cell_length_a                   10.7742(2)
_cell_length_b                   12.5224(2)
_cell_length_c                   13.7399(2)
_cell_angle_alpha                90
_cell_angle_beta                 90
_cell_angle_gamma                90
_cell_volume                     1853.77
_exptl_crystal_colour            colorless
_exptl_crystal_description       block
_cell_formula_units_Z            4
loop_
_atom_site_label
_atom_site_type_symbol
_atom_site_fract_x
_atom_site_fract_y
_atom_site_fract_z
N1 N 0.78334(15) 0.75350(13) 0.34683(13)
N2 N 1.15790(16) 0.69700(14) 0.21912(13)
O1 O 0.81887(15) 0.64619(13) 0.21461(14)
O2 O 1.08593(16) 0.65537(14) 0.37139(12)
C1 C 0.84970(18) 0.71701(15) 0.26965(15)
C2 C 0.97275(17) 0.78094(15) 0.26601(14)
C3 C 0.95082(17) 0.86484(15) 0.34267(13)
C4 C 1.0214(2) 0.95153(17) 0.36969(16)
H1 H 1.0950 0.9673 0.3375
C5 C 0.9804(2) 1.01498(19) 0.44600(17)
H2 H 1.0267 1.0740 0.4652
C6 C 0.8706(2) 0.9907(2) 0.49361(16)
H3 H 0.8452 1.0333 0.5453
C7 C 0.7976(2) 0.90448(19) 0.46625(15)
H4 H 0.7236 0.8888 0.4981
C8 C 0.83967(18) 0.84322(15) 0.38963(14)
C9 C 1.07793(18) 0.70271(16) 0.29487(14)
C10 C 1.1218(2) 0.76391(18) 0.14235(15)
C11 C 1.1815(3) 0.7816(2) 0.05466(18)
H5 H 1.2551 0.7469 0.0390
C12 C 1.1262(3) 0.8538(3) -0.00907(19)
H6 H 1.1634 0.8669 -0.0690
C13 C 1.0187(3) 0.9059(2) 0.01404(19)
H7 H 0.9844 0.9540 -0.0300
C14 C 0.9603(3) 0.8880(2) 0.10240(17)
H8 H 0.8876 0.9241 0.1184
C15 C 1.01197(19) 0.81589(16) 0.16588(14)
C16 C 1.2681(2) 0.6299(2) 0.2208(2)
H9 H 1.2832 0.6061 0.2862
H10 H 1.3382 0.6702 0.1982
H11 H 1.2557 0.5693 0.1793
C17 C 0.66028(19) 0.71416(18) 0.37264(19)
H12 H 0.6549 0.7075 0.4428
H13 H 0.6491 0.6436 0.3449
C18 C 0.55720(17) 0.78600(16) 0.33747(15)
C19 C 0.4596(2) 0.8103(2) 0.39799(17)
H14 H 0.4588 0.7834 0.4611
C20 C 0.3632(2) 0.8736(2) 0.3669(2)
H15 H 0.2972 0.8877 0.4086
C21 C 0.3636(2) 0.9155(2) 0.2763(2)
H16 H 0.2989 0.9592 0.2558
C22 C 0.4598(3) 0.8931(4) 0.2153(2)
H17 H 0.4607 0.9218 0.1529
C23 C 0.5559(2) 0.8280(3) 0.2454(2)
H18 H 0.6204 0.8124 0.2027
loop_
_geom_bond_atom_site_label_1
_geom_bond_atom_site_label_2
_geom_bond_site_symmetry_1
_geom_bond_site_symmetry_2
N1 C1 1_555 1_555
N2 C9 1_555 1_555
O1 C1 1_555 1_555
O2 C9 1_555 1_555
C1 C2 1_555 1_555
C2 C3 1_555 1_555
C3 C4 1_555 1_555
C4 H1 1_555 1_555
C5 C4 1_555 1_555
H2 C5 1_555 1_555
C6 C5 1_555 1_555
H3 C6 1_555 1_555
C7 C6 1_555 1_555
H4 C7 1_555 1_555
C8 N1 1_555 1_555
C9 C2 1_555 1_555
C10 N2 1_555 1_555
C11 C10 1_555 1_555
H5 C11 1_555 1_555
C12 C11 1_555 1_555
H6 C12 1_555 1_555
C13 C12 1_555 1_555
H7 C13 1_555 1_555
C14 C13 1_555 1_555
H8 C14 1_555 1_555
C15 C2 1_555 1_555
C16 N2 1_555 1_555
H9 C16 1_555 1_555
H10 C16 1_555 1_555
H11 C16 1_555 1_555
C17 N1 1_555 1_555
H12 C17 1_555 1_555
H13 C17 1_555 1_555
C18 C17 1_555 1_555
C19 C18 1_555 1_555
H14 C19 1_555 1_555
C20 C19 1_555 1_555
H15 C20 1_555 1_555
C21 C20 1_555 1_555
H16 C21 1_555 1_555
C22 C21 1_555 1_555
H17 C22 1_555 1_555
C23 C18 1_555 1_555
H18 C23 1_555 1_555
C3 C8 1_555 1_555
C7 C8 1_555 1_555
C10 C15 1_555 1_555
C14 C15 1_555 1_555
C22 C23 1_555 1_555

#END
