
#######################################################################
#
#                 Cambridge Crystallographic Data Centre
#                                CCDC 
#
#######################################################################
#
# If this CIF has been generated from an entry in the Cambridge 
# Structural Database, then it will include bibliographic, chemical, 
# crystal, experimental, refinement or atomic coordinate data resulting 
# from the CCDC's data processing and validation procedures.
#
#######################################################################

data_JOGSOP
_chemical_formula_moiety         'C21 H25 N1 O3'
_chemical_name_systematic        
N-t-butyl-4-(4-methoxyphenyl)-2-oxo-4-phenylbutanamide
_symmetry_cell_setting           monoclinic
_symmetry_space_group_name_H-M   'P 21'
_symmetry_Int_Tables_number      4
_space_group_name_Hall           'P 2yb'
loop_
_symmetry_equiv_pos_site_id
_symmetry_equiv_pos_as_xyz
1 x,y,z
2 -x,1/2+y,-z
_cell_length_a                   11.73648(12)
_cell_length_b                   9.05671(10)
_cell_length_c                   18.21350(18)
_cell_angle_alpha                90
_cell_angle_beta                 103.6462(10)
_cell_angle_gamma                90
_cell_volume                     1881.33
_exptl_crystal_colour            colorless
_exptl_crystal_description       block
_cell_formula_units_Z            4
loop_
_atom_site_label
_atom_site_type_symbol
_atom_site_fract_x
_atom_site_fract_y
_atom_site_fract_z
O1 O 0.44100(8) 0.49642(13) 0.49943(5)
O2 O 0.01982(9) 0.58526(12) 0.20501(5)
O3 O 0.18594(11) 0.65840(13) 0.07590(6)
N1 N 0.12670(10) 0.43567(14) 0.11338(6)
H1 H 0.0892 0.3972 0.1439
C1 C 0.31527(11) 0.69614(15) 0.32202(7)
H2 H 0.3323 0.7180 0.2759
C2 C 0.39489(11) 0.61172(16) 0.37459(7)
H3 H 0.4640 0.5787 0.3635
C3 C 0.37018(11) 0.57739(16) 0.44358(7)
C4 C 0.26608(11) 0.62756(16) 0.45895(7)
H4 H 0.2487 0.6044 0.5048
C5 C 0.18860(10) 0.71144(16) 0.40661(7)
H5 H 0.1196 0.7443 0.4179
C6 C 0.21186(11) 0.74825(14) 0.33654(7)
C7 C 0.54733(12) 0.44148(19) 0.48588(8)
H6 H 0.5303 0.3769 0.4429
H7 H 0.5892 0.3879 0.5294
H8 H 0.5945 0.5224 0.4762
C8 C 0.12350(10) 0.84298(14) 0.28151(7)
H9 H 0.0456 0.8167 0.2883
C9 C 0.13865(11) 1.00795(15) 0.29622(6)
C10 C 0.04215(11) 1.10073(17) 0.27187(7)
H10 H -0.0297 1.0606 0.2474
C11 C 0.05186(13) 1.25205(17) 0.28373(8)
H11 H -0.0133 1.3122 0.2670
C12 C 0.15834(14) 1.31448(17) 0.32046(8)
H12 H 0.1650 1.4158 0.3286
C13 C 0.25432(13) 1.22277(18) 0.34463(8)
H13 H 0.3260 1.2631 0.3694
C14 C 0.24504(11) 1.07170(16) 0.33247(7)
H14 H 0.3107 1.0122 0.3487
C15 C 0.12310(11) 0.81047(15) 0.19843(7)
H15 H 0.0693 0.8774 0.1659
H16 H 0.2009 0.8278 0.1905
C16 C 0.08721(11) 0.65364(15) 0.17713(7)
C17 C 0.13949(11) 0.58116(16) 0.11577(7)
C18 C 0.17077(11) 0.33311(17) 0.06321(8)
C19 C 0.13979(19) 0.1784(2) 0.08465(12)
H17 H 0.1763 0.1603 0.1368
H18 H 0.1673 0.1073 0.0537
H19 H 0.0563 0.1699 0.0769
C20 C 0.30392(12) 0.3491(2) 0.07691(9)
H20 H 0.3230 0.4491 0.0669
H21 H 0.3325 0.2835 0.0439
H22 H 0.3398 0.3248 0.1285
C21 C 0.11159(14) 0.3662(2) -0.01875(8)
H23 H 0.0282 0.3570 -0.0260
H24 H 0.1386 0.2974 -0.0510
H25 H 0.1306 0.4648 -0.0310
O4 O 0.02855(8) 0.02879(13) 0.53970(5)
O5 O 0.50858(8) 0.11081(12) 0.79684(5)
O6 O 0.32392(10) 0.17676(13) 0.91637(6)
N2 N 0.38799(9) -0.04406(14) 0.88074(6)
H26 H 0.4289 -0.0822 0.8521
C22 C 0.28597(11) 0.27215(15) 0.59707(7)
H27 H 0.3415 0.3203 0.5768
C23 C 0.19859(11) 0.19046(17) 0.54975(7)
H28 H 0.1952 0.1851 0.4983
C24 C 0.11610(10) 0.11666(15) 0.57974(7)
C25 C 0.12054(10) 0.12850(16) 0.65688(7)
H29 H 0.0652 0.0801 0.6772
C26 C 0.20755(11) 0.21239(16) 0.70306(7)
H30 H 0.2090 0.2211 0.7542
C27 C 0.29273(11) 0.28387(14) 0.67437(7)
C28 C 0.39216(11) 0.37426(15) 0.72266(7)
H31 H 0.4640 0.3461 0.7076
C29 C 0.37701(11) 0.54011(15) 0.70995(6)
C30 C 0.26747(11) 0.60533(16) 0.68509(7)
H32 H 0.2007 0.5465 0.6754
C31 C 0.25619(13) 0.75683(17) 0.67453(8)
H33 H 0.1822 0.7983 0.6572
C32 C 0.35450(13) 0.84673(17) 0.68965(8)
H34 H 0.3471 0.9483 0.6828
C33 C 0.46435(12) 0.78292(16) 0.71525(8)
H35 H 0.5309 0.8422 0.7259
C34 C 0.47537(11) 0.63127(16) 0.72505(7)
H36 H 0.5495 0.5899 0.7419
C35 C 0.41215(12) 0.34012(15) 0.80779(7)
H37 H 0.4763 0.4001 0.8358
H38 H 0.3423 0.3659 0.8247
C36 C 0.44026(10) 0.17883(16) 0.82431(7)
C37 C 0.37736(11) 0.10166(16) 0.87951(7)
C38 C 0.33592(11) -0.14752(16) 0.92684(7)
C39 C 0.20260(12) -0.1292(2) 0.90765(9)
H39 H 0.1833 -0.0298 0.9185
H40 H 0.1692 -0.1967 0.9374
H41 H 0.1716 -0.1495 0.8550
C40 C 0.36749(15) -0.30224(18) 0.90657(9)
H42 H 0.3361 -0.3191 0.8536
H43 H 0.3351 -0.3730 0.9352
H44 H 0.4512 -0.3126 0.9180
C41 C 0.38751(13) -0.11798(19) 1.01051(8)
H45 H 0.4710 -0.1313 1.0216
H46 H 0.3541 -0.1856 1.0402
H47 H 0.3699 -0.0185 1.0224
C42 C 0.01009(14) 0.0320(2) 0.45972(8)
H48 H -0.0542 -0.0316 0.4375
H49 H 0.0797 -0.0012 0.4457
H50 H -0.0076 0.1311 0.4419
loop_
_geom_bond_atom_site_label_1
_geom_bond_atom_site_label_2
_geom_bond_site_symmetry_1
_geom_bond_site_symmetry_2
O1 C3 1_555 1_555
O2 C16 1_555 1_555
O3 C17 1_555 1_555
N1 H1 1_555 1_555
C1 H2 1_555 1_555
C2 C1 1_555 1_555
H3 C2 1_555 1_555
C3 C2 1_555 1_555
C4 C3 1_555 1_555
H4 C4 1_555 1_555
C5 C4 1_555 1_555
H5 C5 1_555 1_555
C6 C1 1_555 1_555
C7 O1 1_555 1_555
H6 C7 1_555 1_555
H7 C7 1_555 1_555
H8 C7 1_555 1_555
C8 C6 1_555 1_555
H9 C8 1_555 1_555
C9 C8 1_555 1_555
C10 C9 1_555 1_555
H10 C10 1_555 1_555
C11 C10 1_555 1_555
H11 C11 1_555 1_555
C12 C11 1_555 1_555
H12 C12 1_555 1_555
C13 C12 1_555 1_555
H13 C13 1_555 1_555
C14 C9 1_555 1_555
H14 C14 1_555 1_555
C15 C8 1_555 1_555
H15 C15 1_555 1_555
H16 C15 1_555 1_555
C16 C15 1_555 1_555
C17 N1 1_555 1_555
C18 N1 1_555 1_555
C19 C18 1_555 1_555
H17 C19 1_555 1_555
H18 C19 1_555 1_555
H19 C19 1_555 1_555
C20 C18 1_555 1_555
H20 C20 1_555 1_555
H21 C20 1_555 1_555
H22 C20 1_555 1_555
C21 C18 1_555 1_555
H23 C21 1_555 1_555
H24 C21 1_555 1_555
H25 C21 1_555 1_555
O4 C24 1_555 1_555
O5 C36 1_555 1_555
O6 C37 1_555 1_555
N2 H26 1_555 1_555
C22 H27 1_555 1_555
C23 C22 1_555 1_555
H28 C23 1_555 1_555
C24 C23 1_555 1_555
C25 C24 1_555 1_555
H29 C25 1_555 1_555
C26 C25 1_555 1_555
H30 C26 1_555 1_555
C27 C22 1_555 1_555
C28 C27 1_555 1_555
H31 C28 1_555 1_555
C29 C28 1_555 1_555
C30 C29 1_555 1_555
H32 C30 1_555 1_555
C31 C30 1_555 1_555
H33 C31 1_555 1_555
C32 C31 1_555 1_555
H34 C32 1_555 1_555
C33 C32 1_555 1_555
H35 C33 1_555 1_555
C34 C29 1_555 1_555
H36 C34 1_555 1_555
C35 C28 1_555 1_555
H37 C35 1_555 1_555
H38 C35 1_555 1_555
C36 C35 1_555 1_555
C37 N2 1_555 1_555
C38 N2 1_555 1_555
C39 C38 1_555 1_555
H39 C39 1_555 1_555
H40 C39 1_555 1_555
H41 C39 1_555 1_555
C40 C38 1_555 1_555
H42 C40 1_555 1_555
H43 C40 1_555 1_555
H44 C40 1_555 1_555
C41 C38 1_555 1_555
H45 C41 1_555 1_555
H46 C41 1_555 1_555
H47 C41 1_555 1_555
C42 O4 1_555 1_555
H48 C42 1_555 1_555
H49 C42 1_555 1_555
H50 C42 1_555 1_555
C5 C6 1_555 1_555
C13 C14 1_555 1_555
C16 C17 1_555 1_555
C26 C27 1_555 1_555
C33 C34 1_555 1_555
C36 C37 1_555 1_555

#END
