
#######################################################################
#
#                 Cambridge Crystallographic Data Centre
#                                CCDC 
#
#######################################################################
#
# If this CIF has been generated from an entry in the Cambridge 
# Structural Database, then it will include bibliographic, chemical, 
# crystal, experimental, refinement or atomic coordinate data resulting 
# from the CCDC's data processing and validation procedures.
#
#######################################################################

data_JOGSIJ
_chemical_name_common            
'3-Hydroxy-5,10,15,20,25,30-hexakis(pentafluorophenyl)-[28]hexaphyrin(1.1.1.1.1.1) acetonitrile solvate dihydrate'
_chemical_formula_moiety         'C66 H16 F30 N6 O1,3(C2 H3 N1),2(H2 O1)'
_chemical_name_systematic        
'2,7,12,17,22,27-hexakis(pentafluorophenyl)-31,32,33,34,35,36-hexaazaheptacyclo[26.2.1.1^3,6^.1^8,11^.1^13,16^.1^18,21^.1^23,26^]hexatriaconta-1,3,5,7,9,11,13(34),14,16,18,20,22,24,26,28(31),29-hexadecaen-4-ol acetonitrile solvate dihydrate'
_symmetry_cell_setting           orthorhombic
_symmetry_space_group_name_H-M   'P c n n'
_symmetry_Int_Tables_number      52
_space_group_name_Hall           '-P 2ab 2c'
loop_
_symmetry_equiv_pos_site_id
_symmetry_equiv_pos_as_xyz
1 x,y,z
2 1/2-x,1/2-y,z
3 x,-y,1/2-z
4 1/2-x,1/2+y,1/2-z
5 -x,-y,-z
6 1/2+x,1/2+y,-z
7 -x,y,1/2+z
8 1/2+x,1/2-y,1/2+z
_cell_length_a                   11.672(3)
_cell_length_b                   18.463(4)
_cell_length_c                   30.200(8)
_cell_angle_alpha                90
_cell_angle_beta                 90
_cell_angle_gamma                90
_cell_volume                     6508.1
_exptl_crystal_colour            violet
_exptl_crystal_description       Prism
_cell_formula_units_Z            4
loop_
_atom_site_label
_atom_site_type_symbol
_atom_site_fract_x
_atom_site_fract_y
_atom_site_fract_z
N4 N 0.2500 0.2500 0.54344(18)
C34 C 0.2500 0.2500 0.50603(19)
C35 C 0.2500 0.2500 0.4581(2)
O2 O 0.6965(3) 0.14837(16) 0.11800(10)
F1 F 0.56452(19) 0.30738(10) 0.14010(7)
F2 F 0.4049(2) 0.57150(10) 0.38583(8)
F3 F 0.29503(18) 0.13046(10) 0.09602(6)
F4 F 0.6064(2) -0.09272(11) 0.50889(6)
F5 F 0.2441(2) 0.47075(11) 0.40656(7)
F6 F 0.26113(19) 0.33573(10) 0.37388(7)
F7 F 0.5669(2) 0.35886(10) 0.05749(7)
F8 F 0.46651(19) -0.03705(10) 0.44776(6)
F9 F 0.78113(19) 0.08388(12) 0.38235(7)
F10 F 0.59452(19) 0.40334(10) 0.29573(7)
F11 F 0.3123(2) 0.17611(12) 0.01225(6)
F12 F 0.5785(2) 0.53739(11) 0.32947(9)
F13 F 0.4472(3) 0.29237(12) -0.00756(7)
F14 F 0.8323(2) -0.05725(14) 0.50956(7)
N1 N 0.4809(3) 0.16356(14) 0.33655(10)
F15 F 0.9176(2) 0.03216(15) 0.44623(8)
N2 N 0.4255(3) 0.21852(14) 0.24716(9)
H1 H 0.4422 0.1754 0.2578
N3 N 0.5045(3) -0.07154(13) 0.35524(9)
H2 H 0.5515 -0.0909 0.3747
C1 C 0.4290(3) 0.36539(16) 0.33421(10)
C2 C 0.3761(3) -0.06165(16) 0.30086(10)
H3 H 0.3240 -0.0742 0.2780
C3 C 0.4083(3) 0.23390(16) 0.20259(11)
C4 C 0.3414(3) 0.38459(17) 0.36244(11)
C5 C 0.6187(3) 0.02601(16) 0.41251(11)
C6 C 0.3736(3) 0.30952(16) 0.20058(11)
H4 H 0.3534 0.3354 0.1745
C7 C 0.4893(3) 0.00242(16) 0.34873(10)
C8 C 0.4124(3) 0.50456(17) 0.36864(11)
C9 C 0.4967(3) 0.27521(17) 0.11008(11)
C10 C 0.4127(3) 0.28095(16) 0.27245(11)
C11 C 0.5687(3) 0.18198(16) 0.40349(11)
H5 H 0.6080 0.1733 0.4305
C12 C 0.4810(3) 0.23552(16) 0.34567(10)
C13 C 0.4242(3) 0.18761(17) 0.16755(11)
C14 C 0.4056(3) 0.00905(17) 0.31387(10)
C15 C 0.4998(3) 0.48764(17) 0.34017(12)
C16 C 0.5346(3) 0.24780(17) 0.38717(11)
H6 H 0.5449 0.2934 0.4011
C17 C 0.4283(3) 0.21700(17) 0.12202(11)
C18 C 0.4379(3) 0.28976(16) 0.31619(11)
C19 C 0.5336(3) 0.12926(16) 0.37186(11)
C20 C 0.5777(3) -0.01951(17) 0.44609(11)
C21 C 0.7342(3) 0.04178(18) 0.41374(11)
C22 C 0.3750(3) 0.33641(17) 0.24177(11)
H7 H 0.3545 0.3845 0.2497
C23 C 0.6488(4) -0.04756(18) 0.47789(11)
C24 C 0.3732(4) 0.20863(18) 0.04397(11)
C25 C 0.5433(3) 0.05341(17) 0.37595(10)
C26 C 0.4362(3) -0.10963(16) 0.32723(10)
C27 C 0.3313(3) 0.45390(17) 0.37994(11)
C28 C 0.5066(3) 0.41828(17) 0.32322(11)
C29 C 0.8064(3) 0.0156(2) 0.44637(12)
C30 C 0.7624(4) -0.0303(2) 0.47863(11)
C31 C 0.3661(3) 0.18500(17) 0.08748(11)
C32 C 0.5013(4) 0.30151(17) 0.06674(12)
C33 C 0.4401(4) 0.26786(19) 0.03420(11)
O1 O 0.3528(4) 0.0659(2) 0.30077(15)
H8 H 0.3856 0.1029 0.3109
F1B F 0.56452(19) -0.30738(10) 0.35990(7)
F2B F 0.4049(2) -0.57150(10) 0.11417(8)
F3B F 0.29503(18) -0.13046(10) 0.40398(6)
F4B F 0.6064(2) 0.09272(11) -0.00889(6)
F5B F 0.2441(2) -0.47075(11) 0.09344(7)
F6B F 0.26113(19) -0.33573(10) 0.12612(7)
F7B F 0.5669(2) -0.35886(10) 0.44251(7)
F8B F 0.46651(19) 0.03705(10) 0.05224(6)
F9B F 0.78113(19) -0.08388(12) 0.11765(7)
F10B F 0.59452(19) -0.40334(10) 0.20427(7)
F11B F 0.3123(2) -0.17611(12) 0.48775(6)
F12B F 0.5785(2) -0.53739(11) 0.17053(9)
F13B F 0.4472(3) -0.29237(12) 0.50756(7)
F14B F 0.8323(2) 0.05725(14) -0.00956(7)
N1B N 0.4809(3) -0.16356(14) 0.16345(10)
F15B F 0.9176(2) -0.03216(15) 0.05377(8)
N2B N 0.4255(3) -0.21852(14) 0.25284(9)
H1B H 0.4422 -0.1754 0.2422
N3B N 0.5045(3) 0.07154(13) 0.14476(9)
H2B H 0.5515 0.0909 0.1253
C1B C 0.4290(3) -0.36539(16) 0.16579(10)
C2B C 0.3761(3) 0.06165(16) 0.19914(10)
H3B H 0.3240 0.0742 0.2220
C3B C 0.4083(3) -0.23390(16) 0.29741(11)
C4B C 0.3414(3) -0.38459(17) 0.13756(11)
C5B C 0.6187(3) -0.02601(16) 0.08749(11)
C6B C 0.3736(3) -0.30952(16) 0.29942(11)
H4B H 0.3534 -0.3354 0.3255
C7B C 0.4893(3) -0.00242(16) 0.15127(10)
C8B C 0.4124(3) -0.50456(17) 0.13136(11)
C9B C 0.4967(3) -0.27521(17) 0.38992(11)
C10B C 0.4127(3) -0.28095(16) 0.22755(11)
C11B C 0.5687(3) -0.18198(16) 0.09651(11)
H5B H 0.6080 -0.1733 0.0695
C12B C 0.4810(3) -0.23552(16) 0.15433(10)
C13B C 0.4242(3) -0.18761(17) 0.33245(11)
C14B C 0.4056(3) -0.00905(17) 0.18613(10)
C15B C 0.4998(3) -0.48764(17) 0.15983(12)
C16B C 0.5346(3) -0.24780(17) 0.11283(11)
H6B H 0.5449 -0.2934 0.0989
C17B C 0.4283(3) -0.21700(17) 0.37798(11)
C18B C 0.4379(3) -0.28976(16) 0.18381(11)
C19B C 0.5336(3) -0.12926(16) 0.12814(11)
C20B C 0.5777(3) 0.01951(17) 0.05391(11)
C21B C 0.7342(3) -0.04178(18) 0.08626(11)
C22B C 0.3750(3) -0.33641(17) 0.25823(11)
H7B H 0.3545 -0.3845 0.2503
C23B C 0.6488(4) 0.04756(18) 0.02211(11)
C24B C 0.3732(4) -0.20863(18) 0.45603(11)
C25B C 0.5433(3) -0.05341(17) 0.12405(10)
C26B C 0.4362(3) 0.10963(16) 0.17277(10)
C27B C 0.3313(3) -0.45390(17) 0.12006(11)
C28B C 0.5066(3) -0.41828(17) 0.17678(11)
C29B C 0.8064(3) -0.0156(2) 0.05363(12)
C30B C 0.7624(4) 0.0303(2) 0.02137(11)
C31B C 0.3661(3) -0.18500(17) 0.41252(11)
C32B C 0.5013(4) -0.30151(17) 0.43326(12)
C33B C 0.4401(4) -0.26786(19) 0.46580(11)
O1B O 0.3528(4) -0.0659(2) 0.19923(15)
H8B H 0.3856 -0.1029 0.1891
C36? C 0.6579(19) 0.0426(11) 0.2546(6)
C37? C 0.6217(9) 0.1056(5) 0.2547(3)
N5? N 0.684(2) -0.0347(15) 0.2600(8)
C38? C 0.7500 0.2500 0.2885(2)
C39? C 0.7397(9) 0.2212(5) 0.2433(3)
N6? N 0.7311(9) 0.1995(8) 0.2078(3)
loop_
_geom_bond_atom_site_label_1
_geom_bond_atom_site_label_2
_geom_bond_site_symmetry_1
_geom_bond_site_symmetry_2
F1 C9 1_555 1_555
F2 C8 1_555 1_555
F3 C31 1_555 1_555
F4 C23 1_555 1_555
F5 C27 1_555 1_555
F6 C4 1_555 1_555
F7 C32 1_555 1_555
F8 C20 1_555 1_555
F9 C21 1_555 1_555
F10 C28 1_555 1_555
F11 C24 1_555 1_555
F12 C15 1_555 1_555
F13 C33 1_555 1_555
F14 C30 1_555 1_555
N1 C12 1_555 1_555
F15 C29 1_555 1_555
N2 H1 1_555 1_555
N3 H2 1_555 1_555
C1 C4 1_555 1_555
C2 H3 1_555 1_555
C3 N2 1_555 1_555
C4 C27 1_555 1_555
C5 C20 1_555 1_555
C6 C3 1_555 1_555
H4 C6 1_555 1_555
C7 N3 1_555 1_555
C8 C15 1_555 1_555
C9 C17 1_555 1_555
C10 N2 1_555 1_555
C11 H5 1_555 1_555
C12 C16 1_555 1_555
C13 C3 1_555 1_555
C14 C2 1_555 1_555
C15 C28 1_555 1_555
C16 C11 1_555 1_555
H6 C16 1_555 1_555
C17 C13 1_555 1_555
C18 C1 1_555 1_555
C19 N1 1_555 1_555
C20 C23 1_555 1_555
C21 C5 1_555 1_555
C22 C6 1_555 1_555
H7 C22 1_555 1_555
C23 C30 1_555 1_555
C24 C31 1_555 1_555
C25 C5 1_555 1_555
C26 N3 1_555 1_555
C27 C8 1_555 1_555
C28 C1 1_555 1_555
C29 C21 1_555 1_555
C30 C29 1_555 1_555
C31 C17 1_555 1_555
C32 C9 1_555 1_555
C33 C24 1_555 1_555
O1 C14 1_555 1_555
H8 O1 1_555 1_555
N4 C34 1_555 1_555
C34 C35 1_555 1_555
F1B C9B 1_555 1_555
F2B C8B 1_555 1_555
F3B C31B 1_555 1_555
F4B C23B 1_555 1_555
F5B C27B 1_555 1_555
F6B C4B 1_555 1_555
F7B C32B 1_555 1_555
F8B C20B 1_555 1_555
F9B C21B 1_555 1_555
F10B C28B 1_555 1_555
F11B C24B 1_555 1_555
F12B C15B 1_555 1_555
F13B C33B 1_555 1_555
F14B C30B 1_555 1_555
N1B C12B 1_555 1_555
F15B C29B 1_555 1_555
N2B H1B 1_555 1_555
N3B H2B 1_555 1_555
C1B C4B 1_555 1_555
C2B H3B 1_555 1_555
C3B N2B 1_555 1_555
C4B C27B 1_555 1_555
C5B C20B 1_555 1_555
C6B C3B 1_555 1_555
H4B C6B 1_555 1_555
C7B N3B 1_555 1_555
C8B C15B 1_555 1_555
C9B C17B 1_555 1_555
C10B N2B 1_555 1_555
C11B H5B 1_555 1_555
C12B C16B 1_555 1_555
C13B C26 1_555 1_555
C14B C2B 1_555 1_555
C15B C28B 1_555 1_555
C16B C11B 1_555 1_555
H6B C16B 1_555 1_555
C17B C13B 1_555 1_555
C18B C1B 1_555 1_555
C19B N1B 1_555 1_555
C20B C23B 1_555 1_555
C21B C5B 1_555 1_555
C22B C6B 1_555 1_555
H7B C22B 1_555 1_555
C23B C30B 1_555 1_555
C24B C31B 1_555 1_555
C25B C5B 1_555 1_555
C26B C13 1_555 1_555
C27B C8B 1_555 1_555
C28B C1B 1_555 1_555
C29B C21B 1_555 1_555
C30B C29B 1_555 1_555
C31B C17B 1_555 1_555
C32B C9B 1_555 1_555
C33B C24B 1_555 1_555
O1B C14B 1_555 1_555
H8B O1B 1_555 1_555
C2 C26 1_555 1_555
C7 C14 1_555 1_555
C7 C25 1_555 1_555
C10 C18 1_555 1_555
C10 C22 1_555 1_555
C11 C19 1_555 1_555
C12 C18 1_555 1_555
C19 C25 1_555 1_555
C32 C33 1_555 1_555
N3B C26B 1_555 1_555
C2B C26B 1_555 1_555
C3B C13B 1_555 1_555
C7B C14B 1_555 1_555
C7B C25B 1_555 1_555
C10B C18B 1_555 1_555
C10B C22B 1_555 1_555
C11B C19B 1_555 1_555
C12B C18B 1_555 1_555
C19B C25B 1_555 1_555
C32B C33B 1_555 1_555

#END
