
#######################################################################
#
#                 Cambridge Crystallographic Data Centre
#                                CCDC 
#
#######################################################################
#
# If this CIF has been generated from an entry in the Cambridge 
# Structural Database, then it will include bibliographic, chemical, 
# crystal, experimental, refinement or atomic coordinate data resulting 
# from the CCDC's data processing and validation procedures.
#
#######################################################################

data_JOGTUW
_chemical_formula_moiety         'C15 H17 N1 O3 S1'
_chemical_name_systematic        
3-((4-methylphenyl)sulfonyl)-3-azaspiro[bicyclo[3.1.0]hexane-6,1'-cyclopropane]-1-carbaldehyde
_symmetry_cell_setting           triclinic
_symmetry_space_group_name_H-M   'P -1'
_symmetry_Int_Tables_number      2
_space_group_name_Hall           '-P 1'
loop_
_symmetry_equiv_pos_site_id
_symmetry_equiv_pos_as_xyz
1 x,y,z
2 -x,-y,-z
_cell_length_a                   5.490(2)
_cell_length_b                   7.770(4)
_cell_length_c                   17.606(7)
_cell_angle_alpha                81.735(12)
_cell_angle_beta                 83.230(8)
_cell_angle_gamma                72.781(7)
_cell_volume                     707.655
_exptl_crystal_colour            colorless
_exptl_crystal_description       prismatic
_cell_formula_units_Z            2
loop_
_atom_site_label
_atom_site_type_symbol
_atom_site_fract_x
_atom_site_fract_y
_atom_site_fract_z
S1 S 0.76721(16) 0.49091(13) 0.78868(6)
N1 N 0.6680(5) 0.3877(4) 0.72971(17)
O1 O 0.9017(5) 0.6040(4) 0.74242(18)
O2 O 0.8925(5) 0.3543(4) 0.84566(16)
C1 C 0.5042(7) 0.2701(5) 0.7620(2)
H1 H 0.3611 0.3339 0.7948
H2 H 0.6011 0.1615 0.7917
C2 C 0.5745(7) 0.4894(5) 0.6564(2)
H3 H 0.7136 0.5153 0.6218
H4 H 0.4457 0.6025 0.6650
C3 C 0.4622(7) 0.3625(5) 0.6247(2)
C4 C 0.4133(7) 0.2238(5) 0.6924(2)
H5 H 0.2539 0.1893 0.6974
C5 C 0.6046(8) 0.1662(6) 0.6296(2)
C6 C 0.6713(10) 0.0242(7) 0.5776(3)
H6 H 0.6767 0.0619 0.5226
H7 H 0.6136 -0.0829 0.5937
C7 C 0.8717(9) 0.0535(7) 0.6222(3)
H8 H 0.9343 -0.0360 0.6650
H9 H 0.9974 0.1088 0.5939
C8 C 0.4944(7) 0.6272(5) 0.8361(2)
C9 C 0.3917(8) 0.5584(5) 0.9046(2)
H10 H 0.4722 0.4424 0.9269
C10 C 0.1715(8) 0.6599(6) 0.9401(2)
H11 H 0.1056 0.6130 0.9870
C11 C 0.0460(7) 0.8307(6) 0.9074(2)
C12 C 0.1544(8) 0.8998(5) 0.8390(2)
H12 H 0.0751 1.0163 0.8170
C13 C 0.3763(8) 0.7996(5) 0.8031(2)
H13 H 0.4462 0.8475 0.7572
C14 C -0.2033(9) 0.9373(7) 0.9449(3)
H14 H -0.2227 1.0647 0.9318
H15 H -0.2037 0.9083 0.9998
H16 H -0.3423 0.9070 0.9270
O3 O 0.2066(7) 0.5978(5) 0.5429(2)
C15 C 0.270(4) 0.4453(16) 0.5675(13)
H17 H 0.1936 0.3684 0.5496
O4? O 0.1794(18) 0.3134(13) 0.5429(5)
C16? C 0.271(11) 0.418(4) 0.567(3)
H18? H 0.2173 0.5396 0.5478
loop_
_geom_bond_atom_site_label_1
_geom_bond_atom_site_label_2
_geom_bond_site_symmetry_1
_geom_bond_site_symmetry_2
S1 N1 1_555 1_555
N1 C1 1_555 1_555
O1 S1 1_555 1_555
O2 S1 1_555 1_555
C1 H1 1_555 1_555
H2 C1 1_555 1_555
C2 N1 1_555 1_555
H3 C2 1_555 1_555
H4 C2 1_555 1_555
C3 C2 1_555 1_555
C4 C1 1_555 1_555
H5 C4 1_555 1_555
C5 C3 1_555 1_555
C6 C5 1_555 1_555
H6 C6 1_555 1_555
H7 C6 1_555 1_555
C7 C5 1_555 1_555
H8 C7 1_555 1_555
H9 C7 1_555 1_555
C8 S1 1_555 1_555
C9 C8 1_555 1_555
H10 C9 1_555 1_555
C10 C9 1_555 1_555
H11 C10 1_555 1_555
C11 C10 1_555 1_555
C12 C11 1_555 1_555
H12 C12 1_555 1_555
C13 C8 1_555 1_555
H13 C13 1_555 1_555
C14 C11 1_555 1_555
H14 C14 1_555 1_555
H15 C14 1_555 1_555
H16 C14 1_555 1_555
O3 C15 1_555 1_555
C15 C3 1_555 1_555
H17 C15 1_555 1_555
C3 C4 1_555 1_555
C4 C5 1_555 1_555
C6 C7 1_555 1_555
C12 C13 1_555 1_555

#END
