
#######################################################################
#
#                 Cambridge Crystallographic Data Centre
#                                CCDC 
#
#######################################################################
#
# If this CIF has been generated from an entry in the Cambridge 
# Structural Database, then it will include bibliographic, chemical, 
# crystal, experimental, refinement or atomic coordinate data resulting 
# from the CCDC's data processing and validation procedures.
#
#######################################################################

data_JOGYOV
_chemical_formula_moiety         'C26 H18 O5'
_chemical_name_systematic        
2,4-bis(4-Methoxyphenyl)naphtho[2,3-b]furan-5,8-dione
_symmetry_cell_setting           triclinic
_symmetry_space_group_name_H-M   'P -1'
_symmetry_Int_Tables_number      2
_space_group_name_Hall           '-P 1'
loop_
_symmetry_equiv_pos_site_id
_symmetry_equiv_pos_as_xyz
1 x,y,z
2 -x,-y,-z
_cell_length_a                   7.7218(6)
_cell_length_b                   9.6185(8)
_cell_length_c                   27.586(2)
_cell_angle_alpha                89.013(3)
_cell_angle_beta                 84.859(3)
_cell_angle_gamma                79.567(3)
_cell_volume                     2006.89
_exptl_crystal_colour            orange
_exptl_crystal_description       block
_cell_formula_units_Z            4
loop_
_atom_site_label
_atom_site_type_symbol
_atom_site_fract_x
_atom_site_fract_y
_atom_site_fract_z
O1 O 0.8075(4) 0.4689(2) -0.01121(9)
O2 O 0.9588(3) 0.1203(2) -0.16041(8)
O3 O 0.9804(3) -0.4189(2) -0.21658(7)
O4 O 0.6640(2) 0.00357(19) 0.05596(6)
O5 O 0.4224(3) -0.4744(3) 0.19513(8)
C1 C 0.8792(3) 0.1336(3) -0.07465(9)
C2 C 0.9450(4) 0.1867(3) -0.12269(11)
C3 C 0.9881(4) 0.3291(3) -0.12478(12)
H1 H 1.0436 0.3579 -0.1536
C4 C 0.9522(4) 0.4187(3) -0.08788(12)
H2 H 0.9858 0.5068 -0.0909
C5 C 0.8608(4) 0.3804(3) -0.04262(12)
C6 C 0.8332(4) 0.2322(3) -0.03624(10)
C7 C 0.7584(4) 0.1963(3) 0.00882(10)
H3 H 0.7270 0.2617 0.0339
C8 C 0.7337(4) 0.0605(3) 0.01429(9)
C9 C 0.7783(3) -0.0419(3) -0.02201(10)
C10 C 0.8513(3) -0.0068(3) -0.06793(9)
C11 C 0.7322(3) -0.1688(3) -0.00039(10)
H4 H 0.7466 -0.2564 -0.0155
C12 C 0.6643(4) -0.1376(3) 0.04574(10)
C13 C 0.8945(4) -0.1190(3) -0.10604(9)
C14 C 0.7600(4) -0.1785(3) -0.12239(10)
H5 H 0.6450 -0.1502 -0.1085
C15 C 0.7930(4) -0.2788(3) -0.15884(10)
H6 H 0.7004 -0.3165 -0.1695
C16 C 0.9633(4) -0.3231(3) -0.17940(10)
C17 C 1.1008(4) -0.2698(3) -0.16259(10)
H7 H 1.2164 -0.3023 -0.1754
C18 C 1.0659(4) -0.1678(3) -0.12657(10)
H8 H 1.1589 -0.1308 -0.1158
C19 C 0.5978(4) -0.2195(3) 0.08553(10)
C20 C 0.5583(4) -0.1674(3) 0.13221(10)
H9 H 0.5718 -0.0755 0.1385
C21 C 0.4992(4) -0.2481(3) 0.16987(11)
H10 H 0.4734 -0.2107 0.2011
C22 C 0.4786(4) -0.3837(3) 0.16103(11)
C23 C 0.5179(4) -0.4386(3) 0.11443(11)
H11 H 0.5049 -0.5308 0.1084
C24 C 0.5758(4) -0.3578(3) 0.07726(11)
H12 H 0.6008 -0.3955 0.0461
C25 C 1.1512(5) -0.4614(4) -0.24134(13)
H13 H 1.1451 -0.5283 -0.2663
H14 H 1.2321 -0.5043 -0.2186
H15 H 1.1915 -0.3802 -0.2558
C26 C 0.3582(6) -0.4192(5) 0.24236(12)
H16 H 0.3235 -0.4931 0.2627
H17 H 0.2581 -0.3449 0.2397
H18 H 0.4498 -0.3823 0.2564
O6 O 0.2990(4) 0.9686(2) 0.51329(10)
O7 O 0.3725(4) 0.6185(2) 0.66203(8)
O8 O 0.4163(3) 0.0790(2) 0.71820(7)
O9 O 0.1959(2) 0.50336(19) 0.44752(7)
O10 O 0.1097(3) 0.0063(2) 0.30634(7)
C27 C 0.3311(4) 0.6342(3) 0.57716(10)
C28 C 0.3725(4) 0.6873(3) 0.62446(11)
C29 C 0.4132(4) 0.8304(3) 0.62656(12)
H19 H 0.4530 0.8592 0.6549
C30 C 0.3954(4) 0.9196(3) 0.58976(12)
H20 H 0.4233 1.0090 0.5927
C31 C 0.3328(4) 0.8805(3) 0.54463(12)
C32 C 0.3093(4) 0.7334(3) 0.53872(10)
C33 C 0.2611(4) 0.6965(3) 0.49419(10)
H21 H 0.2445 0.7617 0.4690
C34 C 0.2389(3) 0.5603(3) 0.48897(10)
C35 C 0.2596(3) 0.4586(3) 0.52560(9)
C36 C 0.3069(4) 0.4945(3) 0.57111(10)
C37 C 0.2293(4) 0.3308(3) 0.50430(10)
H22 H 0.2347 0.2433 0.5195
C38 C 0.1916(3) 0.3620(3) 0.45809(10)
C39 C 0.3321(4) 0.3826(3) 0.60928(9)
C40 C 0.1922(4) 0.3237(3) 0.62970(10)
H23 H 0.0811 0.3524 0.6186
C41 C 0.2125(4) 0.2232(3) 0.66630(10)
H24 H 0.1156 0.1871 0.6801
C42 C 0.3776(4) 0.1773(3) 0.68202(10)
C43 C 0.5209(4) 0.2302(3) 0.66077(10)
H25 H 0.6331 0.1971 0.6706
C44 C 0.4980(4) 0.3319(3) 0.62506(10)
H26 H 0.5954 0.3675 0.6112
C45 C 0.1563(3) 0.2776(3) 0.41809(10)
C46 C 0.1644(4) 0.3255(3) 0.37026(11)
H27 H 0.1813 0.4176 0.3639
C47 C 0.1478(4) 0.2398(3) 0.33206(11)
H28 H 0.1537 0.2737 0.3003
C48 C 0.1224(4) 0.1028(3) 0.34137(11)
C49 C 0.1055(4) 0.0557(3) 0.38895(11)
H29 H 0.0818 -0.0345 0.3955
C50 C 0.1237(4) 0.1418(3) 0.42643(11)
H30 H 0.1140 0.1085 0.4582
C51 C 0.2724(5) 0.0312(4) 0.74503(13)
H31 H 0.3166 -0.0364 0.7690
H32 H 0.2079 -0.0124 0.7233
H33 H 0.1955 0.1101 0.7609
C52 C 0.1542(5) 0.0424(4) 0.25669(11)
H34 H 0.1399 -0.0327 0.2358
H35 H 0.2748 0.0561 0.2528
H36 H 0.0778 0.1280 0.2483
loop_
_geom_bond_atom_site_label_1
_geom_bond_atom_site_label_2
_geom_bond_site_symmetry_1
_geom_bond_site_symmetry_2
O1 C5 1_555 1_555
O2 C2 1_555 1_555
O3 C16 1_555 1_555
O4 C8 1_555 1_555
O5 C22 1_555 1_555
C1 C2 1_555 1_555
C2 C3 1_555 1_555
C3 H1 1_555 1_555
C4 C3 1_555 1_555
H2 C4 1_555 1_555
C5 C4 1_555 1_555
C6 C1 1_555 1_555
C7 C6 1_555 1_555
H3 C7 1_555 1_555
C8 C7 1_555 1_555
C9 C8 1_555 1_555
C10 C1 1_555 1_555
C11 C9 1_555 1_555
H4 C11 1_555 1_555
C12 O4 1_555 1_555
C13 C10 1_555 1_555
C14 C13 1_555 1_555
H5 C14 1_555 1_555
C15 C14 1_555 1_555
H6 C15 1_555 1_555
C16 C15 1_555 1_555
C17 C16 1_555 1_555
H7 C17 1_555 1_555
C18 C13 1_555 1_555
H8 C18 1_555 1_555
C19 C12 1_555 1_555
C20 C19 1_555 1_555
H9 C20 1_555 1_555
C21 C20 1_555 1_555
H10 C21 1_555 1_555
C22 C21 1_555 1_555
C23 C22 1_555 1_555
H11 C23 1_555 1_555
C24 C19 1_555 1_555
H12 C24 1_555 1_555
C25 O3 1_555 1_555
H13 C25 1_555 1_555
H14 C25 1_555 1_555
H15 C25 1_555 1_555
C26 O5 1_555 1_555
H16 C26 1_555 1_555
H17 C26 1_555 1_555
H18 C26 1_555 1_555
O6 C31 1_555 1_555
O7 C28 1_555 1_555
O8 C42 1_555 1_555
O9 C34 1_555 1_555
O10 C48 1_555 1_555
C27 C28 1_555 1_555
C28 C29 1_555 1_555
C29 H19 1_555 1_555
C30 C29 1_555 1_555
H20 C30 1_555 1_555
C31 C30 1_555 1_555
C32 C27 1_555 1_555
C33 C32 1_555 1_555
H21 C33 1_555 1_555
C34 C33 1_555 1_555
C35 C34 1_555 1_555
C36 C27 1_555 1_555
C37 C35 1_555 1_555
H22 C37 1_555 1_555
C38 O9 1_555 1_555
C39 C36 1_555 1_555
C40 C39 1_555 1_555
H23 C40 1_555 1_555
C41 C40 1_555 1_555
H24 C41 1_555 1_555
C42 C41 1_555 1_555
C43 C42 1_555 1_555
H25 C43 1_555 1_555
C44 C39 1_555 1_555
H26 C44 1_555 1_555
C45 C38 1_555 1_555
C46 C45 1_555 1_555
H27 C46 1_555 1_555
C47 C46 1_555 1_555
H28 C47 1_555 1_555
C48 C47 1_555 1_555
C49 C48 1_555 1_555
H29 C49 1_555 1_555
C50 C45 1_555 1_555
H30 C50 1_555 1_555
C51 O8 1_555 1_555
H31 C51 1_555 1_555
H32 C51 1_555 1_555
H33 C51 1_555 1_555
C52 O10 1_555 1_555
H34 C52 1_555 1_555
H35 C52 1_555 1_555
H36 C52 1_555 1_555
C5 C6 1_555 1_555
C9 C10 1_555 1_555
C11 C12 1_555 1_555
C17 C18 1_555 1_555
C23 C24 1_555 1_555
C31 C32 1_555 1_555
C35 C36 1_555 1_555
C37 C38 1_555 1_555
C43 C44 1_555 1_555
C49 C50 1_555 1_555

#END
