
#######################################################################
#
#                 Cambridge Crystallographic Data Centre
#                                CCDC 
#
#######################################################################
#
# If this CIF has been generated from an entry in the Cambridge 
# Structural Database, then it will include bibliographic, chemical, 
# crystal, experimental, refinement or atomic coordinate data resulting 
# from the CCDC's data processing and validation procedures.
#
#######################################################################

data_JOGYEL
_chemical_formula_moiety         'C37 H27 N3 O3'
_chemical_name_systematic        
1'-(4-Methoxybenzyl)-2'-oxo-2,4-diphenyl-1',2',4,7-tetrahydro-5H-spiro[1-benzofuran-6,3'-indole]-5,5-dicarbonitrile
_symmetry_cell_setting           monoclinic
_symmetry_space_group_name_H-M   'P 21'
_symmetry_Int_Tables_number      4
_space_group_name_Hall           'P 2yb'
loop_
_symmetry_equiv_pos_site_id
_symmetry_equiv_pos_as_xyz
1 x,y,z
2 -x,1/2+y,-z
_cell_length_a                   11.0843(9)
_cell_length_b                   9.0833(7)
_cell_length_c                   14.4027(11)
_cell_angle_alpha                90
_cell_angle_beta                 95.981(3)
_cell_angle_gamma                90
_cell_volume                     1442.2
_exptl_crystal_colour            colorless
_exptl_crystal_description       block
_chemical_melting_point          '168-171 deg.C'
_cell_formula_units_Z            2
loop_
_atom_site_label
_atom_site_type_symbol
_atom_site_fract_x
_atom_site_fract_y
_atom_site_fract_z
O1 O 0.52282(16) 0.0938(2) 0.80127(13)
O2 O 0.42692(18) 0.2626(2) 0.52293(14)
O3 O 0.1234(2) 0.3360(3) 0.05835(14)
N1 N 0.1008(3) -0.0643(4) 0.7072(2)
N2 N 0.0762(3) 0.2232(4) 0.4684(2)
N3 N 0.3983(2) 0.0617(3) 0.42689(16)
C1 C 0.5910(2) 0.2185(4) 0.9457(2)
C2 C 0.5855(3) 0.3371(4) 1.0054(2)
H1 H 0.5307 0.4129 0.9899
C3 C 0.6614(3) 0.3433(5) 1.0883(2)
H2 H 0.6577 0.4238 1.1279
C4 C 0.7416(3) 0.2318(5) 1.1121(2)
H3 H 0.7917 0.2358 1.1680
C5 C 0.7477(3) 0.1156(5) 1.0540(3)
H4 H 0.8029 0.0405 1.0701
C6 C 0.6728(3) 0.1067(4) 0.9707(2)
H5 H 0.6775 0.0257 0.9318
C7 C 0.1488(2) 0.3273(3) 0.7177(2)
C8 C 0.0867(3) 0.4458(4) 0.6774(2)
H6 H 0.1109 0.4870 0.6232
C9 C -0.0111(4) 0.5043(5) 0.7165(3)
H7 H -0.0517 0.5854 0.6889
C10 C -0.0483(3) 0.4445(5) 0.7949(3)
H8 H -0.1151 0.4834 0.8205
C11 C 0.0128(3) 0.3264(4) 0.8363(2)
H9 H -0.0127 0.2853 0.8901
C12 C 0.1115(3) 0.2683(4) 0.7987(2)
H10 H 0.1533 0.1892 0.8277
C13 C 0.2890(2) -0.0930(3) 0.51146(19)
C14 C 0.2289(3) -0.2219(4) 0.5261(2)
H11 H 0.1982 -0.2388 0.5828
C15 C 0.2144(3) -0.3262(4) 0.4558(2)
H12 H 0.1740 -0.4137 0.4656
C16 C 0.2592(3) -0.3019(4) 0.3715(2)
H13 H 0.2474 -0.3727 0.3247
C17 C 0.3211(3) -0.1747(4) 0.3550(2)
H14 H 0.3520 -0.1582 0.2983
C18 C 0.3354(2) -0.0725(3) 0.4265(2)
C19 C 0.3906(2) 0.1380(4) 0.5071(2)
C20 C 0.3272(2) 0.0377(3) 0.5738(2)
C21 C 0.2169(2) 0.1238(3) 0.61067(19)
C22 C 0.2556(2) 0.2631(3) 0.67320(19)
H15 H 0.2839 0.3387 0.6320
C23 C 0.3612(2) 0.2203(3) 0.74129(19)
C24 C 0.4102(2) 0.2898(3) 0.82613(19)
H16 H 0.3805 0.3740 0.8525
C25 C 0.5071(3) 0.2110(3) 0.8606(2)
C26 C 0.4320(2) 0.1033(3) 0.72979(19)
C27 C 0.4190(3) -0.0106(3) 0.6561(2)
H17 H 0.3918 -0.1019 0.6821
H18 H 0.4972 -0.0285 0.6337
C28 C 0.4581(3) 0.1176(4) 0.3490(2)
H19 H 0.5039 0.0385 0.3241
H20 H 0.5151 0.1939 0.3715
C29 C 0.3707(3) 0.1797(3) 0.2720(2)
C30 C 0.3791(3) 0.1465(4) 0.1793(3)
H21 H 0.4417 0.0863 0.1636
C31 C 0.2960(3) 0.2012(4) 0.1096(3)
H22 H 0.3035 0.1784 0.0475
C32 C 0.2024(3) 0.2893(4) 0.1318(2)
C33 C 0.1930(3) 0.3250(4) 0.2236(2)
H23 H 0.1305 0.3854 0.2393
C34 C 0.2773(3) 0.2701(4) 0.2920(2)
H24 H 0.2708 0.2952 0.3538
C35 C 0.0299(4) 0.4341(6) 0.0788(3)
H25 H -0.0198 0.4582 0.0222
H26 H 0.0653 0.5224 0.1062
H27 H -0.0191 0.3880 0.1217
C36 C 0.1502(3) 0.0184(4) 0.6652(2)
C37 C 0.1351(3) 0.1752(4) 0.5298(2)
loop_
_geom_bond_atom_site_label_1
_geom_bond_atom_site_label_2
_geom_bond_site_symmetry_1
_geom_bond_site_symmetry_2
O1 C25 1_555 1_555
O2 C19 1_555 1_555
O3 C32 1_555 1_555
N1 C36 1_555 1_555
N2 C37 1_555 1_555
N3 C18 1_555 1_555
C1 C2 1_555 1_555
C2 H1 1_555 1_555
C3 C2 1_555 1_555
H2 C3 1_555 1_555
C4 C3 1_555 1_555
H3 C4 1_555 1_555
C5 C4 1_555 1_555
H4 C5 1_555 1_555
C6 C1 1_555 1_555
H5 C6 1_555 1_555
C7 C8 1_555 1_555
C8 H6 1_555 1_555
C9 C8 1_555 1_555
H7 C9 1_555 1_555
C10 C9 1_555 1_555
H8 C10 1_555 1_555
C11 C10 1_555 1_555
H9 C11 1_555 1_555
C12 C7 1_555 1_555
H10 C12 1_555 1_555
C13 C14 1_555 1_555
C14 H11 1_555 1_555
C15 C14 1_555 1_555
H12 C15 1_555 1_555
C16 C15 1_555 1_555
H13 C16 1_555 1_555
C17 C16 1_555 1_555
H14 C17 1_555 1_555
C18 C13 1_555 1_555
C19 N3 1_555 1_555
C20 C13 1_555 1_555
C21 C20 1_555 1_555
C22 C7 1_555 1_555
H15 C22 1_555 1_555
C23 C22 1_555 1_555
C24 C23 1_555 1_555
H16 C24 1_555 1_555
C25 C1 1_555 1_555
C26 O1 1_555 1_555
C27 C20 1_555 1_555
H17 C27 1_555 1_555
H18 C27 1_555 1_555
C28 N3 1_555 1_555
H19 C28 1_555 1_555
H20 C28 1_555 1_555
C29 C28 1_555 1_555
C30 C29 1_555 1_555
H21 C30 1_555 1_555
C31 C30 1_555 1_555
H22 C31 1_555 1_555
C32 C31 1_555 1_555
C33 C32 1_555 1_555
H23 C33 1_555 1_555
C34 C29 1_555 1_555
H24 C34 1_555 1_555
C35 O3 1_555 1_555
H25 C35 1_555 1_555
H26 C35 1_555 1_555
H27 C35 1_555 1_555
C36 C21 1_555 1_555
C37 C21 1_555 1_555
C5 C6 1_555 1_555
C11 C12 1_555 1_555
C17 C18 1_555 1_555
C19 C20 1_555 1_555
C21 C22 1_555 1_555
C23 C26 1_555 1_555
C24 C25 1_555 1_555
C26 C27 1_555 1_555
C33 C34 1_555 1_555

#END
