
#######################################################################
#
#                 Cambridge Crystallographic Data Centre
#                                CCDC 
#
#######################################################################
#
# If this CIF has been generated from an entry in the Cambridge 
# Structural Database, then it will include bibliographic, chemical, 
# crystal, experimental, refinement or atomic coordinate data resulting 
# from the CCDC's data processing and validation procedures.
#
#######################################################################

data_JOGZOW
_chemical_formula_moiety         
'2(C86 H76 N16 O8),8(C12 H24 O6),4(C1 O3 2-),8(K1 1+),2(C2 H3 N1),2(H2 O1)'
_chemical_name_systematic        
"Octa-potassium tetracarbonate bis(1,1',1'',1'''-(ethene-1,1,2,2-tetrayltetrakis(4,1-phenylenecarbamoylimino-2,1-phenylene))tetrakis(3-(4-methylphenyl)urea)) octakis(18-crown-6) acetonitrile solvate dihydrate"
_symmetry_cell_setting           monoclinic
_symmetry_space_group_name_H-M   'C 2/c'
_symmetry_Int_Tables_number      15
_space_group_name_Hall           '-C 2yn'
loop_
_symmetry_equiv_pos_site_id
_symmetry_equiv_pos_as_xyz
1 x,y,z
2 -x,y,1/2-z
3 1/2+x,1/2+y,z
4 1/2-x,1/2+y,1/2-z
5 -x,-y,-z
6 x,-y,1/2+z
7 1/2-x,1/2-y,-z
8 1/2+x,1/2-y,1/2+z
_cell_length_a                   44.964(12)
_cell_length_b                   27.634(7)
_cell_length_c                   27.188(7)
_cell_angle_alpha                90
_cell_angle_beta                 91.159(8)
_cell_angle_gamma                90
_cell_volume                     33775.1
_exptl_crystal_colour            yellow
_exptl_crystal_description       block
_cell_formula_units_Z            4
_chemical_properties_physical    Deliquescent
_exptl_crystal_recrystallization_method 'acetone, water, ether'
_exptl_crystal_preparation       Luminescent
loop_
_atom_site_label
_atom_site_type_symbol
_atom_site_fract_x
_atom_site_fract_y
_atom_site_fract_z
K1 K 0.15090(3) 0.79423(6) 0.07868(5)
O1 O 0.19212(16) 0.7301(3) 0.0459(3)
O2 O 0.16987(14) 0.7163(3) 0.1410(3)
O3 O 0.11731(13) 0.7626(2) 0.15312(19)
O4 O 0.12528(12) 0.8618(2) 0.14031(18)
O5 O 0.18194(13) 0.8825(2) 0.09793(18)
O6 O 0.19307(13) 0.8297(3) 0.0129(2)
C1 C 0.1494(2) 0.7017(4) 0.1802(4)
C2 C 0.13289(19) 0.7471(4) 0.1937(3)
C3 C 0.09481(16) 0.8003(3) 0.1632(3)
C4 C 0.10800(17) 0.8466(3) 0.1804(3)
C5 C 0.1453(2) 0.9034(3) 0.1558(3)
C6 C 0.1625(2) 0.9190(4) 0.1144(3)
C7 C 0.20228(18) 0.8976(4) 0.0625(3)
C8 C 0.2179(2) 0.8538(5) 0.0390(4)
C9 C 0.2150(3) 0.7461(6) 0.0149(5)
C10 C 0.2024(3) 0.7881(5) -0.0179(4)
C11 C 0.2054(2) 0.6916(4) 0.0822(4)
C12 C 0.1810(3) 0.6776(5) 0.1150(4)
O7 O 0.08436(9) 0.84236(15) -0.02485(18)
O8 O 0.06404(11) 0.77347(16) -0.00540(16)
O9 O 0.11353(9) 0.78329(14) 0.00209(14)
C13 C 0.08723(13) 0.7998(2) -0.00968(17)
K2 K 0.11821(3) 0.76750(5) 0.46118(4)
K3 K -0.12355(5) 0.67647(12) 0.72953(5)
N1 N -0.12610(13) 0.7809(2) 0.61291(17)
H1 H -0.1237 0.7968 0.5861
N2 N -0.14115(14) 0.7198(2) 0.56107(18)
H2 H -0.1376 0.7410 0.5387
N3 N -0.11519(14) 0.6807(2) 0.48029(19)
H3 H -0.1112 0.7083 0.4933
N4 N -0.07704(11) 0.70244(17) 0.43152(17)
H4 H -0.0747 0.7240 0.4541
N5 N 0.12648(9) 0.75639(16) 0.33132(14)
H5 H 0.1340 0.7824 0.3195
N6 N 0.17506(9) 0.73466(17) 0.34557(14)
H6 H 0.1783 0.7554 0.3227
N7 N 0.22971(10) 0.7848(2) 0.35637(17)
H7 H 0.2188 0.7926 0.3312
N8 N 0.24406(10) 0.8647(2) 0.35334(16)
H8 H 0.2295 0.8668 0.3324
O10 O -0.14399(12) 0.70972(17) 0.64511(15)
O11 O -0.10274(13) 0.63207(17) 0.41456(17)
O12 O 0.13722(8) 0.69710(15) 0.38768(13)
O13 O 0.26546(10) 0.81371(16) 0.40973(15)
C14 C -0.09673(15) 0.8833(2) 0.7904(2)
H9 H -0.1112 0.9084 0.7944
H10 H -0.0773 0.8974 0.7881
H11 H -0.0971 0.8619 0.8183
C15 C -0.10384(13) 0.8553(2) 0.74441(19)
C16 C -0.08444(12) 0.8522(2) 0.7053(2)
H12 H -0.0661 0.8676 0.7079
C17 C -0.09150(13) 0.8273(2) 0.6632(2)
H13 H -0.0779 0.8260 0.6379
C18 C -0.11837(14) 0.8042(2) 0.65800(19)
C19 C -0.13849(14) 0.8058(3) 0.6966(2)
H14 H -0.1567 0.7899 0.6942
C20 C -0.13070(13) 0.8314(2) 0.7383(2)
H15 H -0.1442 0.8327 0.7638
C21 C -0.13738(17) 0.7340(3) 0.6095(2)
C22 C -0.15049(19) 0.6724(3) 0.5448(2)
C23 C -0.1731(2) 0.6475(3) 0.5679(3)
H16 H -0.1822 0.6615 0.5948
C24 C -0.1821(2) 0.6029(4) 0.5522(3)
H17 H -0.1968 0.5864 0.5689
C25 C -0.1695(2) 0.5824(3) 0.5117(3)
H18 H -0.1758 0.5522 0.5007
C26 C -0.1469(2) 0.6074(3) 0.4866(3)
H19 H -0.1381 0.5934 0.4594
C27 C -0.13774(18) 0.6535(3) 0.5032(2)
C28 C -0.09884(18) 0.6684(2) 0.4396(2)
C29 C -0.05816(13) 0.7067(2) 0.39135(19)
C30 C -0.06059(13) 0.6791(2) 0.34868(19)
H20 H -0.0754 0.6557 0.3454
C31 C -0.04076(13) 0.6867(2) 0.31120(19)
H21 H -0.0425 0.6678 0.2830
C32 C -0.01820(11) 0.72170(19) 0.31399(18)
C33 C -0.01635(11) 0.74837(18) 0.35763(18)
H22 H -0.0016 0.7717 0.3611
C34 C -0.03570(12) 0.74120(19) 0.39568(18)
H23 H -0.0338 0.7595 0.4243
C35 C 0.00389(11) 0.72799(17) 0.27462(17)
C36 C 0.03544(11) 0.7348(2) 0.29150(17)
C37 C 0.05021(13) 0.7031(2) 0.32306(19)
H24 H 0.0399 0.6764 0.3347
C38 C 0.07969(13) 0.7091(2) 0.3383(2)
H25 H 0.0887 0.6866 0.3592
C39 C 0.09583(11) 0.7491(2) 0.32212(16)
C40 C 0.08093(11) 0.78246(19) 0.29389(17)
H26 H 0.0908 0.8104 0.2844
C41 C 0.05158(12) 0.7758(2) 0.27904(18)
H27 H 0.0423 0.7997 0.2601
C42 C 0.14599(12) 0.7265(2) 0.35723(18)
C43 C 0.20032(13) 0.7119(2) 0.36793(19)
C44 C 0.19802(15) 0.6641(3) 0.3835(2)
H28 H 0.1802 0.6474 0.3789
C45 C 0.22258(19) 0.6411(3) 0.4062(3)
H29 H 0.2211 0.6093 0.4171
C46 C 0.2485(2) 0.6661(3) 0.4120(3)
H30 H 0.2647 0.6510 0.4271
C47 C 0.25150(15) 0.7134(3) 0.3960(3)
H31 H 0.2695 0.7297 0.4000
C48 C 0.22688(13) 0.7362(3) 0.3738(2)
C49 C 0.24791(13) 0.8203(3) 0.3755(2)
C50 C 0.26096(12) 0.9076(3) 0.3607(2)
C51 C 0.28000(16) 0.9149(3) 0.4003(3)
H32 H 0.2823 0.8917 0.4249
C52 C 0.29575(19) 0.9583(4) 0.4022(3)
H33 H 0.3091 0.9629 0.4283
C53 C 0.29282(18) 0.9954(3) 0.3676(3)
C54 C 0.27294(15) 0.9867(3) 0.3307(2)
H34 H 0.2697 1.0105 0.3071
C55 C 0.25751(13) 0.9447(3) 0.3267(2)
H35 H 0.2442 0.9406 0.3003
C56 C 0.3098(2) 1.0429(4) 0.3734(4)
H36 H 0.3083 1.0543 0.4066
H37 H 0.3015 1.0666 0.3512
H38 H 0.3304 1.0378 0.3660
N1A N 0.12610(13) 0.7809(2) -0.11291(17)
H1A H 0.1237 0.7968 -0.0861
N2A N 0.14115(14) 0.7198(2) -0.06107(18)
H2A H 0.1376 0.7410 -0.0387
N3A N 0.11519(14) 0.6807(2) 0.01971(19)
H3A H 0.1112 0.7083 0.0067
N4A N 0.07704(11) 0.70244(17) 0.06848(17)
H4A H 0.0747 0.7240 0.0459
N5A N -0.12648(9) 0.75639(16) 0.16868(14)
H5A H -0.1340 0.7824 0.1805
N6A N -0.17506(9) 0.73466(17) 0.15443(14)
H6A H -0.1783 0.7554 0.1773
N7A N -0.22971(10) 0.7848(2) 0.14363(17)
H7A H -0.2188 0.7926 0.1688
N8A N -0.24406(10) 0.8647(2) 0.14666(16)
H8A H -0.2295 0.8668 0.1676
O10A O 0.14399(12) 0.70972(17) -0.14511(15)
O11A O 0.10274(13) 0.63207(17) 0.08544(17)
O12A O -0.13722(8) 0.69710(15) 0.11232(13)
O13A O -0.26546(10) 0.81371(16) 0.09027(15)
C14A C 0.09673(15) 0.8833(2) -0.2904(2)
H9A H 0.1112 0.9084 -0.2944
H10A H 0.0773 0.8974 -0.2881
H11A H 0.0971 0.8619 -0.3183
C15A C 0.10384(13) 0.8553(2) -0.24441(19)
C16A C 0.08444(12) 0.8522(2) -0.2053(2)
H12A H 0.0661 0.8676 -0.2079
C17A C 0.09150(13) 0.8273(2) -0.1632(2)
H13A H 0.0779 0.8260 -0.1379
C18A C 0.11837(14) 0.8042(2) -0.15800(19)
C19A C 0.13849(14) 0.8058(3) -0.1966(2)
H14A H 0.1567 0.7899 -0.1942
C20A C 0.13070(13) 0.8314(2) -0.2383(2)
H15A H 0.1442 0.8327 -0.2638
C21A C 0.13738(17) 0.7340(3) -0.1095(2)
C22A C 0.15049(19) 0.6724(3) -0.0448(2)
C23A C 0.1731(2) 0.6475(3) -0.0679(3)
H16A H 0.1822 0.6615 -0.0948
C24A C 0.1821(2) 0.6029(4) -0.0522(3)
H17A H 0.1968 0.5864 -0.0689
C25A C 0.1695(2) 0.5824(3) -0.0117(3)
H18A H 0.1758 0.5522 -0.0007
C26A C 0.1469(2) 0.6074(3) 0.0134(3)
H19A H 0.1381 0.5934 0.0406
C27A C 0.13774(18) 0.6535(3) -0.0032(2)
C28A C 0.09884(18) 0.6684(2) 0.0604(2)
C29A C 0.05816(13) 0.7067(2) 0.10865(19)
C30A C 0.06059(13) 0.6791(2) 0.15132(19)
H20A H 0.0754 0.6557 0.1546
C31A C 0.04076(13) 0.6867(2) 0.18880(19)
H21A H 0.0425 0.6678 0.2170
C32A C 0.01820(11) 0.72170(19) 0.18601(18)
C33A C 0.01635(11) 0.74837(18) 0.14237(18)
H22A H 0.0016 0.7717 0.1389
C34A C 0.03570(12) 0.74120(19) 0.10432(18)
H23A H 0.0338 0.7595 0.0757
C35A C -0.00389(11) 0.72799(17) 0.22538(17)
C36A C -0.03544(11) 0.7348(2) 0.20850(17)
C37A C -0.05021(13) 0.7031(2) 0.17694(19)
H24A H -0.0399 0.6764 0.1653
C38A C -0.07969(13) 0.7091(2) 0.1617(2)
H25A H -0.0887 0.6866 0.1408
C39A C -0.09583(11) 0.7491(2) 0.17788(16)
C40A C -0.08093(11) 0.78246(19) 0.20611(17)
H26A H -0.0908 0.8104 0.2156
C41A C -0.05158(12) 0.7758(2) 0.22096(18)
H27A H -0.0423 0.7997 0.2399
C42A C -0.14599(12) 0.7265(2) 0.14277(18)
C43A C -0.20032(13) 0.7119(2) 0.13207(19)
C44A C -0.19802(15) 0.6641(3) 0.1165(2)
H28A H -0.1802 0.6474 0.1211
C45A C -0.22258(19) 0.6411(3) 0.0938(3)
H29A H -0.2211 0.6093 0.0829
C46A C -0.2485(2) 0.6661(3) 0.0880(3)
H30A H -0.2647 0.6510 0.0729
C47A C -0.25150(15) 0.7134(3) 0.1040(3)
H31A H -0.2695 0.7297 0.1000
C48A C -0.22688(13) 0.7362(3) 0.1262(2)
C49A C -0.24791(13) 0.8203(3) 0.1245(2)
C50A C -0.26096(12) 0.9076(3) 0.1393(2)
C51A C -0.28000(16) 0.9149(3) 0.0997(3)
H32A H -0.2823 0.8917 0.0751
C52A C -0.29575(19) 0.9583(4) 0.0978(3)
H33A H -0.3091 0.9629 0.0717
C53A C -0.29282(18) 0.9954(3) 0.1324(3)
C54A C -0.27294(15) 0.9867(3) 0.1693(2)
H34A H -0.2697 1.0105 0.1929
C55A C -0.25751(13) 0.9447(3) 0.1733(2)
H35A H -0.2442 0.9406 0.1997
C56A C -0.3098(2) 1.0429(4) 0.1266(4)
H36A H -0.3083 1.0543 0.0934
H37A H -0.3015 1.0666 0.1488
H38A H -0.3304 1.0378 0.1340
N9 N 0.11165(13) 0.8175(2) 0.55440(19)
C57 C 0.08918(14) 0.8324(2) 0.56373(18)
C58 C 0.06083(13) 0.8522(3) 0.5752(2)
H39 H 0.0616 0.8658 0.6076
H40 H 0.0461 0.8271 0.5738
H41 H 0.0557 0.8770 0.5518
O14 O 0.13868(15) 0.6903(2) 0.52095(16)
O15 O 0.07713(13) 0.69942(17) 0.49500(17)
O16 O 0.05597(8) 0.79006(14) 0.46443(12)
O17 O 0.09601(7) 0.85624(13) 0.42165(11)
O18 O 0.15635(8) 0.85044(15) 0.45316(12)
O19 O 0.17853(11) 0.7590(2) 0.47815(14)
C59 C 0.14613(13) 0.8863(2) 0.41742(19)
C60 C 0.11419(11) 0.8989(2) 0.4301(2)
C61 C 0.06535(11) 0.8676(2) 0.43060(18)
C62 C 0.04717(12) 0.8223(2) 0.42533(17)
C63 C 0.03621(16) 0.7486(3) 0.4664(2)
C64 C 0.04756(18) 0.7163(3) 0.5087(3)
C65 C 0.0877(2) 0.6633(3) 0.5302(4)
C66 C 0.1187(3) 0.6498(3) 0.5137(4)
C67 C 0.1684(2) 0.6779(4) 0.5067(3)
C68 C 0.1879(2) 0.7222(4) 0.5121(3)
C69 C 0.19653(17) 0.8024(3) 0.4826(3)
C70 C 0.18666(13) 0.8387(3) 0.4433(2)
O20 O -0.0788(3) 0.6249(8) 0.6805(4)
O21 O -0.06685(19) 0.7119(5) 0.7475(5)
O22 O -0.1053(3) 0.7195(4) 0.8200(3)
O23 O -0.1658(3) 0.7267(6) 0.8015(4)
O24 O -0.1854(2) 0.6455(7) 0.7493(4)
O25 O -0.1404(6) 0.5899(4) 0.6946(9)
C71 C -0.0568(4) 0.7113(7) 0.7874(7)
C72 C -0.0743(4) 0.7428(5) 0.8156(9)
C73 C -0.1226(5) 0.7426(7) 0.8484(6)
C74 C -0.1527(5) 0.7211(7) 0.8496(4)
C75 C -0.2012(2) 0.7025(17) 0.7830(5)
C76 C -0.1760(9) 0.6642(16) 0.7962(16)
C77 C -0.1857(4) 0.5966(8) 0.7391(8)
C78 C -0.1683(4) 0.5725(8) 0.6986(6)
C79 C -0.1223(7) 0.5547(12) 0.6617(10)
C80 C -0.0918(8) 0.5780(10) 0.6650(15)
C81 C -0.0476(5) 0.6497(7) 0.7013(6)
C82 C -0.0474(3) 0.7015(8) 0.7157(6)
K4 K 0.14148(2) 0.01207(5) 0.48368(4)
O26 O 0.08086(8) 0.01863(13) 0.46830(14)
O27 O 0.11829(12) 0.02538(16) 0.38747(14)
O28 O 0.18107(12) 0.02502(19) 0.40549(18)
O29 O 0.19958(9) -0.02967(19) 0.4906(2)
O30 O 0.16201(9) -0.03839(16) 0.56939(14)
O31 O 0.10023(8) -0.02935(13) 0.55300(13)
C83 C 0.21022(18) -0.0406(4) 0.5401(4)
C84 C 0.18663(18) -0.0699(3) 0.5640(3)
C85 C 0.14030(17) -0.0627(3) 0.6003(2)
C86 C 0.11350(16) -0.0306(3) 0.60193(19)
C87 C 0.07313(13) -0.0020(2) 0.5522(2)
C88 C 0.06055(12) -0.0048(2) 0.5019(3)
C89 C 0.06960(14) 0.0193(2) 0.4194(2)
C90 C 0.0893(2) 0.0483(3) 0.3886(3)
C91 C 0.1383(2) 0.0517(3) 0.3583(3)
C92 C 0.1672(3) 0.0265(3) 0.3579(2)
C93 C 0.2101(2) -0.0007(3) 0.4102(4)
C94 C 0.2207(2) -0.0031(3) 0.4611(4)
O32 O 0.13676(10) 0.10787(17) 0.48814(18)
N10 N -0.0297(2) 0.7074(2) 0.5632(3)
H42 H -0.0413 0.7211 0.5418
N11 N -0.02286(10) 0.78476(18) 0.59007(17)
H43 H -0.0362 0.7906 0.5678
N12 N -0.02774(8) 0.87483(14) 0.54701(12)
H44 H -0.0456 0.8641 0.5432
N13 N -0.03114(8) 0.89191(14) 0.46506(12)
H45 H -0.0489 0.8807 0.4676
N14 N 0.13564(8) 0.94969(16) 0.26680(13)
H46 H 0.1445 0.9283 0.2849
N15 N 0.18291(8) 0.96524(17) 0.24323(14)
H47 H 0.1873 0.9420 0.2631
N16 N 0.22544(9) 0.9037(2) 0.20410(16)
H48 H 0.2139 0.8950 0.2274
N17 N 0.23323(11) 0.8220(2) 0.19940(17)
H49 H 0.2200 0.8212 0.2217
O33 O 0.00422(14) 0.7249(2) 0.62493(19)
O34 O 0.01066(7) 0.91387(12) 0.50946(10)
O35 O 0.14483(7) 1.01520(14) 0.21776(13)
O36 O 0.25598(9) 0.8725(2) 0.14500(15)
C95 C -0.031(4) 0.497(7) 0.549(6)
H50 H -0.0510 0.4891 0.5559
H51 H -0.0180 0.4817 0.5735
H52 H -0.0257 0.4861 0.5172
C96 C -0.0262(4) 0.5570(2) 0.5528(6)
C97 C -0.0508(4) 0.5827(4) 0.5355(6)
H53 H -0.0668 0.5664 0.5209
C98 C -0.0516(3) 0.6328(4) 0.5399(4)
H54 H -0.0681 0.6500 0.5284
C99 C -0.0277(3) 0.6572(2) 0.5617(4)
C100 C -0.0031(2) 0.6315(3) 0.5790(3)
H55 H 0.0129 0.6479 0.5936
C101 C -0.0023(3) 0.5814(3) 0.5746(4)
H56 H 0.0142 0.5642 0.5862
C102 C -0.01477(18) 0.7368(3) 0.5958(3)
C103 C -0.01202(10) 0.8247(2) 0.61596(17)
C104 C 0.00017(12) 0.8208(3) 0.6641(2)
H57 H 0.0002 0.7911 0.6801
C105 C 0.01193(13) 0.8606(4) 0.6873(2)
H58 H 0.0206 0.8572 0.7184
C106 C 0.01109(12) 0.9058(3) 0.6653(2)
H59 H 0.0190 0.9326 0.6815
C107 C -0.00181(10) 0.9105(2) 0.61825(17)
H60 H -0.0023 0.9407 0.6030
C108 C -0.01377(10) 0.87072(19) 0.59428(15)
C109 C -0.01421(10) 0.89494(16) 0.50751(15)
C110 C -0.02198(9) 0.90563(16) 0.41745(14)
C111 C -0.03253(11) 0.87884(18) 0.37732(15)
H61 H -0.0458 0.8535 0.3822
C112 C -0.02342(11) 0.88973(18) 0.33019(16)
H62 H -0.0307 0.8714 0.3039
C113 C -0.00380(9) 0.92712(15) 0.32098(13)
C114 C 0.00619(9) 0.95369(16) 0.36122(15)
H63 H 0.0194 0.9790 0.3563
C115 C -0.00290(9) 0.94374(16) 0.40884(14)
H64 H 0.0039 0.9628 0.4349
C116 C 0.00868(9) 0.93500(16) 0.27107(14)
C117 C 0.04182(9) 0.94001(17) 0.27010(14)
C118 C 0.05543(10) 0.97650(18) 0.24279(16)
H65 H 0.0435 0.9984 0.2254
C119 C 0.08607(10) 0.98095(19) 0.24082(16)
H66 H 0.0945 1.0050 0.2216
C120 C 0.10417(9) 0.94954(18) 0.26755(15)
C121 C 0.09053(10) 0.91377(19) 0.29637(15)
H67 H 0.1023 0.8928 0.3150
C122 C 0.06023(9) 0.90941(18) 0.29737(14)
H68 H 0.0518 0.8855 0.3167
C123 C 0.15385(10) 0.9801(2) 0.24046(17)
C124 C 0.20636(11) 0.9854(3) 0.21559(19)
C125 C 0.20868(13) 1.0346(3) 0.2089(2)
H69 H 0.1948 1.0551 0.2230
C126 C 0.23191(16) 1.0543(3) 0.1811(3)
H70 H 0.2334 1.0875 0.1760
C127 C 0.25252(16) 1.0226(4) 0.1615(3)
H71 H 0.2681 1.0351 0.1434
C128 C 0.25073(13) 0.9733(3) 0.1680(2)
H72 H 0.2648 0.9529 0.1544
C129 C 0.22748(12) 0.9541(3) 0.1952(2)
C130 C 0.23957(13) 0.8676(3) 0.1801(2)
C131 C 0.24579(14) 0.7774(3) 0.1869(2)
C132 C 0.27011(15) 0.7709(3) 0.1569(2)
H73 H 0.2789 0.7978 0.1425
C133 C 0.28155(17) 0.7250(4) 0.1478(3)
H74 H 0.2972 0.7218 0.1262
C134 C 0.2707(2) 0.6848(4) 0.1695(4)
C135 C 0.2459(2) 0.6902(4) 0.2015(4)
H75 H 0.2376 0.6633 0.2165
C136 C 0.23424(19) 0.7364(4) 0.2097(3)
H76 H 0.2184 0.7399 0.2309
C137 C 0.2840(3) 0.6347(4) 0.1619(5)
H77 H 0.2770 0.6219 0.1310
H78 H 0.2780 0.6137 0.1880
H79 H 0.3053 0.6371 0.1621
N10A N 0.0297(2) 0.7074(2) -0.0632(3)
H42A H 0.0413 0.7211 -0.0418
N11A N 0.02286(10) 0.78476(18) -0.09007(17)
H43A H 0.0362 0.7906 -0.0678
N12A N 0.02774(8) 0.87483(14) -0.04701(12)
H44A H 0.0456 0.8641 -0.0432
N13A N 0.03114(8) 0.89191(14) 0.03494(12)
H45A H 0.0489 0.8807 0.0324
N14A N -0.13564(8) 0.94969(16) 0.23320(13)
H46A H -0.1445 0.9283 0.2151
N15A N -0.18291(8) 0.96524(17) 0.25677(14)
H47A H -0.1873 0.9420 0.2369
N16A N -0.22544(9) 0.9037(2) 0.29590(16)
H48A H -0.2139 0.8950 0.2726
N17A N -0.23323(11) 0.8220(2) 0.30060(17)
H49A H -0.2200 0.8212 0.2783
O33A O -0.00422(14) 0.7249(2) -0.12493(19)
O34A O -0.01066(7) 0.91387(12) -0.00946(10)
O35A O -0.14483(7) 1.01520(14) 0.28224(13)
O36A O -0.25598(9) 0.8725(2) 0.35500(15)
C95A C 0.031(4) 0.497(7) -0.049(6)
H50A H 0.0510 0.4891 -0.0559
H51A H 0.0180 0.4817 -0.0735
H52A H 0.0257 0.4861 -0.0172
C96A C 0.0262(4) 0.5570(2) -0.0528(6)
C97A C 0.0508(4) 0.5827(4) -0.0355(6)
H53A H 0.0668 0.5664 -0.0209
C98A C 0.0516(3) 0.6328(4) -0.0399(4)
H54A H 0.0681 0.6500 -0.0284
C99A C 0.0277(3) 0.6572(2) -0.0617(4)
C100A C 0.0031(2) 0.6315(3) -0.0790(3)
H55A H -0.0129 0.6479 -0.0936
C101A C 0.0023(3) 0.5814(3) -0.0746(4)
H56A H -0.0142 0.5642 -0.0862
C102A C 0.01477(18) 0.7368(3) -0.0958(3)
C103A C 0.01202(10) 0.8247(2) -0.11596(17)
C104A C -0.00017(12) 0.8208(3) -0.1641(2)
H57A H -0.0002 0.7911 -0.1801
C105A C -0.01193(13) 0.8606(4) -0.1873(2)
H58A H -0.0206 0.8572 -0.2184
C106A C -0.01109(12) 0.9058(3) -0.1653(2)
H59A H -0.0190 0.9326 -0.1815
C107A C 0.00181(10) 0.9105(2) -0.11825(17)
H60A H 0.0023 0.9407 -0.1030
C108A C 0.01377(10) 0.87072(19) -0.09428(15)
C109A C 0.01421(10) 0.89494(16) -0.00751(15)
C110A C 0.02198(9) 0.90563(16) 0.08255(14)
C111A C 0.03253(11) 0.87884(18) 0.12268(15)
H61A H 0.0458 0.8535 0.1178
C112A C 0.02342(11) 0.88973(18) 0.16981(16)
H62A H 0.0307 0.8714 0.1961
C113A C 0.00380(9) 0.92712(15) 0.17902(13)
C114A C -0.00619(9) 0.95369(16) 0.13878(15)
H63A H -0.0194 0.9790 0.1437
C115A C 0.00290(9) 0.94374(16) 0.09116(14)
H64A H -0.0039 0.9628 0.0651
C116A C -0.00868(9) 0.93500(16) 0.22893(14)
C117A C -0.04182(9) 0.94001(17) 0.22990(14)
C118A C -0.05543(10) 0.97650(18) 0.25721(16)
H65A H -0.0435 0.9984 0.2746
C119A C -0.08607(10) 0.98095(19) 0.25918(16)
H66A H -0.0945 1.0050 0.2784
C120A C -0.10417(9) 0.94954(18) 0.23245(15)
C121A C -0.09053(10) 0.91377(19) 0.20363(15)
H67A H -0.1023 0.8928 0.1850
C122A C -0.06023(9) 0.90941(18) 0.20263(14)
H68A H -0.0518 0.8855 0.1833
C123A C -0.15385(10) 0.9801(2) 0.25954(17)
C124A C -0.20636(11) 0.9854(3) 0.28441(19)
C125A C -0.20868(13) 1.0346(3) 0.2911(2)
H69A H -0.1948 1.0551 0.2770
C126A C -0.23191(16) 1.0543(3) 0.3189(3)
H70A H -0.2334 1.0875 0.3240
C127A C -0.25252(16) 1.0226(4) 0.3385(3)
H71A H -0.2681 1.0351 0.3566
C128A C -0.25073(13) 0.9733(3) 0.3320(2)
H72A H -0.2648 0.9529 0.3456
C129A C -0.22748(12) 0.9541(3) 0.3048(2)
C130A C -0.23957(13) 0.8676(3) 0.3199(2)
C131A C -0.24579(14) 0.7774(3) 0.3131(2)
C132A C -0.27011(15) 0.7709(3) 0.3431(2)
H73A H -0.2789 0.7978 0.3575
C133A C -0.28155(17) 0.7250(4) 0.3522(3)
H74A H -0.2972 0.7218 0.3738
C134A C -0.2707(2) 0.6848(4) 0.3305(4)
C135A C -0.2459(2) 0.6902(4) 0.2985(4)
H75A H -0.2376 0.6633 0.2835
C136A C -0.23424(19) 0.7364(4) 0.2903(3)
H76A H -0.2184 0.7399 0.2691
C137A C -0.2840(3) 0.6347(4) 0.3381(5)
H77A H -0.2770 0.6219 0.3690
H78A H -0.2780 0.6137 0.3120
H79A H -0.3053 0.6371 0.3379
O37 O 0.19400(8) 0.88113(17) 0.29008(12)
O38 O 0.14918(7) 0.84583(14) 0.29226(12)
O39 O 0.18954(8) 0.80180(17) 0.27554(12)
C138 C 0.17703(13) 0.8431(3) 0.28589(17)
loop_
_geom_bond_atom_site_label_1
_geom_bond_atom_site_label_2
_geom_bond_site_symmetry_1
_geom_bond_site_symmetry_2
O1 C9 1_555 1_555
O2 C1 1_555 1_555
O3 C2 1_555 1_555
O4 C4 1_555 1_555
O5 C6 1_555 1_555
O6 C8 1_555 1_555
C1 C2 1_555 1_555
C3 O3 1_555 1_555
C4 C3 1_555 1_555
C5 O4 1_555 1_555
C6 C5 1_555 1_555
C7 O5 1_555 1_555
C8 C7 1_555 1_555
C9 C10 1_555 1_555
C10 O6 1_555 1_555
C11 O1 1_555 1_555
C12 O2 1_555 1_555
O7 C13 1_555 1_555
O8 C13 1_555 1_555
O9 C13 1_555 1_555
N1 H1 1_555 1_555
N2 H2 1_555 1_555
N3 H3 1_555 1_555
N4 H4 1_555 1_555
N5 H5 1_555 1_555
N6 H6 1_555 1_555
N7 H7 1_555 1_555
N8 H8 1_555 1_555
O10 C21 1_555 1_555
O11 C28 1_555 1_555
O12 C42 1_555 1_555
O13 C49 1_555 1_555
C14 H9 1_555 1_555
H10 C14 1_555 1_555
H11 C14 1_555 1_555
C15 C14 1_555 1_555
C16 C15 1_555 1_555
H12 C16 1_555 1_555
C17 C16 1_555 1_555
H13 C17 1_555 1_555
C18 N1 1_555 1_555
C19 C18 1_555 1_555
H14 C19 1_555 1_555
C20 C15 1_555 1_555
H15 C20 1_555 1_555
C21 N1 1_555 1_555
C22 N2 1_555 1_555
C23 C22 1_555 1_555
H16 C23 1_555 1_555
C24 C23 1_555 1_555
H17 C24 1_555 1_555
C25 C24 1_555 1_555
H18 C25 1_555 1_555
C26 C25 1_555 1_555
H19 C26 1_555 1_555
C27 N3 1_555 1_555
C28 N3 1_555 1_555
C29 N4 1_555 1_555
C30 C29 1_555 1_555
H20 C30 1_555 1_555
C31 C30 1_555 1_555
H21 C31 1_555 1_555
C32 C31 1_555 1_555
C33 C32 1_555 1_555
H22 C33 1_555 1_555
C34 C29 1_555 1_555
H23 C34 1_555 1_555
C35 C32 1_555 1_555
C36 C35 1_555 1_555
C37 C36 1_555 1_555
H24 C37 1_555 1_555
C38 C37 1_555 1_555
H25 C38 1_555 1_555
C39 N5 1_555 1_555
C40 C39 1_555 1_555
H26 C40 1_555 1_555
C41 C36 1_555 1_555
H27 C41 1_555 1_555
C42 N5 1_555 1_555
C43 N6 1_555 1_555
C44 C43 1_555 1_555
H28 C44 1_555 1_555
C45 C44 1_555 1_555
H29 C45 1_555 1_555
C46 C45 1_555 1_555
H30 C46 1_555 1_555
C47 C46 1_555 1_555
H31 C47 1_555 1_555
C48 N7 1_555 1_555
C49 N7 1_555 1_555
C50 N8 1_555 1_555
C51 C50 1_555 1_555
H32 C51 1_555 1_555
C52 C51 1_555 1_555
H33 C52 1_555 1_555
C53 C52 1_555 1_555
C54 C53 1_555 1_555
H34 C54 1_555 1_555
C55 C50 1_555 1_555
H35 C55 1_555 1_555
C56 C53 1_555 1_555
H36 C56 1_555 1_555
H37 C56 1_555 1_555
H38 C56 1_555 1_555
N9 C57 1_555 1_555
C57 C58 1_555 1_555
C58 H39 1_555 1_555
H40 C58 1_555 1_555
H41 C58 1_555 1_555
O14 C66 1_555 1_555
O15 C64 1_555 1_555
O16 C62 1_555 1_555
O17 C60 1_555 1_555
O18 C59 1_555 1_555
O19 C68 1_555 1_555
C59 C60 1_555 1_555
C61 O17 1_555 1_555
C62 C61 1_555 1_555
C63 O16 1_555 1_555
C64 C63 1_555 1_555
C65 O15 1_555 1_555
C66 C65 1_555 1_555
C67 O14 1_555 1_555
C68 C67 1_555 1_555
C69 O19 1_555 1_555
C70 O18 1_555 1_555
O20 C80 1_555 1_555
O21 C71 1_555 1_555
O22 C72 1_555 1_555
O23 C74 1_555 1_555
O24 C76 1_555 1_555
O25 C78 1_555 1_555
C71 C72 1_555 1_555
C73 O22 1_555 1_555
C74 C73 1_555 1_555
C75 O23 1_555 1_555
C76 C75 1_555 1_555
C77 O24 1_555 1_555
C78 C77 1_555 1_555
C79 O25 1_555 1_555
C80 C79 1_555 1_555
C81 O20 1_555 1_555
C82 O21 1_555 1_555
O26 C88 1_555 1_555
O27 C90 1_555 1_555
O28 C92 1_555 1_555
O29 C83 1_555 1_555
O30 C84 1_555 1_555
O31 C86 1_555 1_555
C83 C84 1_555 1_555
C85 O30 1_555 1_555
C86 C85 1_555 1_555
C87 O31 1_555 1_555
C88 C87 1_555 1_555
C89 O26 1_555 1_555
C90 C89 1_555 1_555
C91 O27 1_555 1_555
C92 C91 1_555 1_555
C93 O28 1_555 1_555
C94 O29 1_555 1_555
N10 H42 1_555 1_555
N11 H43 1_555 1_555
N12 H44 1_555 1_555
N13 H45 1_555 1_555
N14 H46 1_555 1_555
N15 H47 1_555 1_555
N16 H48 1_555 1_555
N17 H49 1_555 1_555
O33 C102 1_555 1_555
O34 C109 1_555 1_555
O35 C123 1_555 1_555
O36 C130 1_555 1_555
C95 H50 1_555 1_555
H51 C95 1_555 1_555
H52 C95 1_555 1_555
C96 C95 1_555 1_555
C97 C96 1_555 1_555
H53 C97 1_555 1_555
C98 C97 1_555 1_555
H54 C98 1_555 1_555
C99 N10 1_555 1_555
C100 C99 1_555 1_555
H55 C100 1_555 1_555
C101 C96 1_555 1_555
H56 C101 1_555 1_555
C102 N10 1_555 1_555
C103 N11 1_555 1_555
C104 C103 1_555 1_555
H57 C104 1_555 1_555
C105 C104 1_555 1_555
H58 C105 1_555 1_555
C106 C105 1_555 1_555
H59 C106 1_555 1_555
C107 C106 1_555 1_555
H60 C107 1_555 1_555
C108 N12 1_555 1_555
C109 N12 1_555 1_555
C110 N13 1_555 1_555
C111 C110 1_555 1_555
H61 C111 1_555 1_555
C112 C111 1_555 1_555
H62 C112 1_555 1_555
C113 C112 1_555 1_555
C114 C113 1_555 1_555
H63 C114 1_555 1_555
C115 C110 1_555 1_555
H64 C115 1_555 1_555
C116 C113 1_555 1_555
C117 C116 1_555 1_555
C118 C117 1_555 1_555
H65 C118 1_555 1_555
C119 C118 1_555 1_555
H66 C119 1_555 1_555
C120 N14 1_555 1_555
C121 C120 1_555 1_555
H67 C121 1_555 1_555
C122 C117 1_555 1_555
H68 C122 1_555 1_555
C123 N14 1_555 1_555
C124 N15 1_555 1_555
C125 C124 1_555 1_555
H69 C125 1_555 1_555
C126 C125 1_555 1_555
H70 C126 1_555 1_555
C127 C126 1_555 1_555
H71 C127 1_555 1_555
C128 C127 1_555 1_555
H72 C128 1_555 1_555
C129 N16 1_555 1_555
C130 N16 1_555 1_555
C131 N17 1_555 1_555
C132 C131 1_555 1_555
H73 C132 1_555 1_555
C133 C132 1_555 1_555
H74 C133 1_555 1_555
C134 C133 1_555 1_555
C135 C134 1_555 1_555
H75 C135 1_555 1_555
C136 C131 1_555 1_555
H76 C136 1_555 1_555
C137 C134 1_555 1_555
H77 C137 1_555 1_555
H78 C137 1_555 1_555
H79 C137 1_555 1_555
O37 C138 1_555 1_555
O38 C138 1_555 1_555
O39 C138 1_555 1_555
N1A H1A 1_555 1_555
N2A H2A 1_555 1_555
N3A H3A 1_555 1_555
N4A H4A 1_555 1_555
N5A H5A 1_555 1_555
N6A H6A 1_555 1_555
N7A H7A 1_555 1_555
N8A H8A 1_555 1_555
O10A C21A 1_555 1_555
O11A C28A 1_555 1_555
O12A C42A 1_555 1_555
O13A C49A 1_555 1_555
C14A H9A 1_555 1_555
H10A C14A 1_555 1_555
H11A C14A 1_555 1_555
C15A C14A 1_555 1_555
C16A C15A 1_555 1_555
H12A C16A 1_555 1_555
C17A C16A 1_555 1_555
H13A C17A 1_555 1_555
C18A N1A 1_555 1_555
C19A C18A 1_555 1_555
H14A C19A 1_555 1_555
C20A C15A 1_555 1_555
H15A C20A 1_555 1_555
C21A N1A 1_555 1_555
C22A N2A 1_555 1_555
C23A C22A 1_555 1_555
H16A C23A 1_555 1_555
C24A C23A 1_555 1_555
H17A C24A 1_555 1_555
C25A C24A 1_555 1_555
H18A C25A 1_555 1_555
C26A C25A 1_555 1_555
H19A C26A 1_555 1_555
C27A N3A 1_555 1_555
C28A N3A 1_555 1_555
C29A N4A 1_555 1_555
C30A C29A 1_555 1_555
H20A C30A 1_555 1_555
C31A C30A 1_555 1_555
H21A C31A 1_555 1_555
C32A C31A 1_555 1_555
C33A C32A 1_555 1_555
H22A C33A 1_555 1_555
C34A C29A 1_555 1_555
H23A C34A 1_555 1_555
C35A C35 1_555 1_555
C36A C35A 1_555 1_555
C37A C36A 1_555 1_555
H24A C37A 1_555 1_555
C38A C37A 1_555 1_555
H25A C38A 1_555 1_555
C39A N5A 1_555 1_555
C40A C39A 1_555 1_555
H26A C40A 1_555 1_555
C41A C36A 1_555 1_555
H27A C41A 1_555 1_555
C42A N5A 1_555 1_555
C43A N6A 1_555 1_555
C44A C43A 1_555 1_555
H28A C44A 1_555 1_555
C45A C44A 1_555 1_555
H29A C45A 1_555 1_555
C46A C45A 1_555 1_555
H30A C46A 1_555 1_555
C47A C46A 1_555 1_555
H31A C47A 1_555 1_555
C48A N7A 1_555 1_555
C49A N7A 1_555 1_555
C50A N8A 1_555 1_555
C51A C50A 1_555 1_555
H32A C51A 1_555 1_555
C52A C51A 1_555 1_555
H33A C52A 1_555 1_555
C53A C52A 1_555 1_555
C54A C53A 1_555 1_555
H34A C54A 1_555 1_555
C55A C50A 1_555 1_555
H35A C55A 1_555 1_555
C56A C53A 1_555 1_555
H36A C56A 1_555 1_555
H37A C56A 1_555 1_555
H38A C56A 1_555 1_555
N10A H42A 1_555 1_555
N11A H43A 1_555 1_555
N12A H44A 1_555 1_555
N13A H45A 1_555 1_555
N14A H46A 1_555 1_555
N15A H47A 1_555 1_555
N16A H48A 1_555 1_555
N17A H49A 1_555 1_555
O33A C102A 1_555 1_555
O34A C109A 1_555 1_555
O35A C123A 1_555 1_555
O36A C130A 1_555 1_555
C95A H50A 1_555 1_555
H51A C95A 1_555 1_555
H52A C95A 1_555 1_555
C96A C95A 1_555 1_555
C97A C96A 1_555 1_555
H53A C97A 1_555 1_555
C98A C97A 1_555 1_555
H54A C98A 1_555 1_555
C99A N10A 1_555 1_555
C100A C99A 1_555 1_555
H55A C100A 1_555 1_555
C101A C96A 1_555 1_555
H56A C101A 1_555 1_555
C102A N10A 1_555 1_555
C103A N11A 1_555 1_555
C104A C103A 1_555 1_555
H57A C104A 1_555 1_555
C105A C104A 1_555 1_555
H58A C105A 1_555 1_555
C106A C105A 1_555 1_555
H59A C106A 1_555 1_555
C107A C106A 1_555 1_555
H60A C107A 1_555 1_555
C108A N12A 1_555 1_555
C109A N12A 1_555 1_555
C110A N13A 1_555 1_555
C111A C110A 1_555 1_555
H61A C111A 1_555 1_555
C112A C111A 1_555 1_555
H62A C112A 1_555 1_555
C113A C112A 1_555 1_555
C114A C113A 1_555 1_555
H63A C114A 1_555 1_555
C115A C110A 1_555 1_555
H64A C115A 1_555 1_555
C116A C116 1_555 1_555
C117A C116A 1_555 1_555
C118A C117A 1_555 1_555
H65A C118A 1_555 1_555
C119A C118A 1_555 1_555
H66A C119A 1_555 1_555
C120A N14A 1_555 1_555
C121A C120A 1_555 1_555
H67A C121A 1_555 1_555
C122A C117A 1_555 1_555
H68A C122A 1_555 1_555
C123A N14A 1_555 1_555
C124A N15A 1_555 1_555
C125A C124A 1_555 1_555
H69A C125A 1_555 1_555
C126A C125A 1_555 1_555
H70A C126A 1_555 1_555
C127A C126A 1_555 1_555
H71A C127A 1_555 1_555
C128A C127A 1_555 1_555
H72A C128A 1_555 1_555
C129A N16A 1_555 1_555
C130A N16A 1_555 1_555
C131A N17A 1_555 1_555
C132A C131A 1_555 1_555
H73A C132A 1_555 1_555
C133A C132A 1_555 1_555
H74A C133A 1_555 1_555
C134A C133A 1_555 1_555
C135A C134A 1_555 1_555
H75A C135A 1_555 1_555
C136A C131A 1_555 1_555
H76A C136A 1_555 1_555
C137A C134A 1_555 1_555
H77A C137A 1_555 1_555
H78A C137A 1_555 1_555
H79A C137A 1_555 1_555
C11 C12 1_555 1_555
N2 C21 1_555 1_555
N4 C28 1_555 1_555
N6 C42 1_555 1_555
N8 C49 1_555 1_555
C17 C18 1_555 1_555
C19 C20 1_555 1_555
C22 C27 1_555 1_555
C26 C27 1_555 1_555
C33 C34 1_555 1_555
C38 C39 1_555 1_555
C40 C41 1_555 1_555
C43 C48 1_555 1_555
C47 C48 1_555 1_555
C54 C55 1_555 1_555
C69 C70 1_555 1_555
C81 C82 1_555 1_555
C93 C94 1_555 1_555
N11 C102 1_555 1_555
N13 C109 1_555 1_555
N15 C123 1_555 1_555
N17 C130 1_555 1_555
C98 C99 1_555 1_555
C100 C101 1_555 1_555
C103 C108 1_555 1_555
C107 C108 1_555 1_555
C114 C115 1_555 1_555
C119 C120 1_555 1_555
C121 C122 1_555 1_555
C124 C129 1_555 1_555
C128 C129 1_555 1_555
C135 C136 1_555 1_555
N2A C21A 1_555 1_555
N4A C28A 1_555 1_555
N6A C42A 1_555 1_555
N8A C49A 1_555 1_555
C17A C18A 1_555 1_555
C19A C20A 1_555 1_555
C22A C27A 1_555 1_555
C26A C27A 1_555 1_555
C32A C35A 1_555 1_555
C33A C34A 1_555 1_555
C38A C39A 1_555 1_555
C40A C41A 1_555 1_555
C43A C48A 1_555 1_555
C47A C48A 1_555 1_555
C54A C55A 1_555 1_555
N11A C102A 1_555 1_555
N13A C109A 1_555 1_555
N15A C123A 1_555 1_555
N17A C130A 1_555 1_555
C98A C99A 1_555 1_555
C100A C101A 1_555 1_555
C103A C108A 1_555 1_555
C107A C108A 1_555 1_555
C113A C116A 1_555 1_555
C114A C115A 1_555 1_555
C119A C120A 1_555 1_555
C121A C122A 1_555 1_555
C124A C129A 1_555 1_555
C128A C129A 1_555 1_555
C135A C136A 1_555 1_555

#END
