
#######################################################################
#
#                 Cambridge Crystallographic Data Centre
#                                CCDC 
#
#######################################################################
#
# If this CIF has been generated from an entry in the Cambridge 
# Structural Database, then it will include bibliographic, chemical, 
# crystal, experimental, refinement or atomic coordinate data resulting 
# from the CCDC's data processing and validation procedures.
#
#######################################################################

data_JOHBEP
_chemical_formula_moiety         'C38 H34 B2 N4'
_chemical_name_systematic        
4',5,5'',10'-Tetramethyl-5,5'',10,12''-tetrahydrodispiro[dibenzo[b,e][1,4]azaborinine-10,6'-dipyrido[2,1-c:2',1'-f][1,4,2,5]diazadiborinine-12',10''-dibenzo[b,e][1,4]azaborinine]
_symmetry_cell_setting           triclinic
_symmetry_space_group_name_H-M   'P -1'
_symmetry_Int_Tables_number      2
_space_group_name_Hall           '-P 1'
loop_
_symmetry_equiv_pos_site_id
_symmetry_equiv_pos_as_xyz
1 x,y,z
2 -x,-y,-z
_cell_length_a                   10.6597(11)
_cell_length_b                   10.9797(11)
_cell_length_c                   15.0329(15)
_cell_angle_alpha                88.025(2)
_cell_angle_beta                 69.489(2)
_cell_angle_gamma                62.808(2)
_cell_volume                     1449.02
_exptl_crystal_colour            colorless
_exptl_crystal_description       block
_cell_formula_units_Z            2
_chemical_properties_physical    'air- and moisture-sensitive'
loop_
_atom_site_label
_atom_site_type_symbol
_atom_site_fract_x
_atom_site_fract_y
_atom_site_fract_z
N1 N 0.01520(19) 1.09944(17) 0.56137(12)
N2 N 0.2915(2) 0.73021(19) 0.65198(14)
B1 B 0.0951(3) 0.9368(2) 0.56464(17)
C1 C -0.0640(2) 1.1504(2) 0.50278(14)
C2 C -0.1301(2) 1.2933(2) 0.49917(15)
H1 H -0.1873 1.3300 0.4595
C3 C -0.1140(2) 1.3804(2) 0.55110(15)
H2 H -0.1580 1.4768 0.5476
C4 C -0.0315(2) 1.3245(2) 0.60925(15)
H3 H -0.0176 1.3836 0.6452
C5 C 0.0299(2) 1.1869(2) 0.61610(15)
C6 C 0.1111(3) 1.1341(2) 0.68399(17)
H4 H 0.1098 1.2111 0.7161
H5 H 0.2167 1.0642 0.6481
H6 H 0.0598 1.0924 0.7322
C7 C 0.2774(2) 0.8769(2) 0.52567(15)
C8 C 0.3566(2) 0.9198(2) 0.44564(15)
H7 H 0.2999 0.9888 0.4150
C9 C 0.5118(3) 0.8660(2) 0.41021(17)
H8 H 0.5618 0.8958 0.3554
C10 C 0.5953(3) 0.7663(3) 0.45624(18)
H9 H 0.7030 0.7272 0.4323
C11 C 0.5218(3) 0.7247(2) 0.53603(18)
H10 H 0.5795 0.6591 0.5678
C12 C 0.3632(2) 0.7773(2) 0.57155(16)
C13 C 0.1362(2) 0.8093(2) 0.71071(15)
C14 C 0.0820(3) 0.7902(2) 0.80679(16)
H11 H 0.1511 0.7257 0.8327
C15 C -0.0700(3) 0.8639(2) 0.86381(16)
H12 H -0.1045 0.8493 0.9286
C16 C -0.1728(3) 0.9582(2) 0.82849(16)
H13 H -0.2780 1.0076 0.8677
C17 C -0.1186(2) 0.9797(2) 0.73348(15)
H14 H -0.1890 1.0459 0.7091
C18 C 0.0347(2) 0.9080(2) 0.67291(15)
C19 C 0.3857(3) 0.6116(3) 0.68640(19)
H15 H 0.4901 0.5667 0.6386
H16 H 0.3455 0.5458 0.6968
H17 H 0.3853 0.6422 0.7470
N1A N -0.01520(19) 0.90056(17) 0.43863(12)
N2A N -0.2915(2) 1.26979(19) 0.34802(14)
B1A B -0.0951(3) 1.0632(2) 0.43536(17)
C1A C 0.0640(2) 0.8496(2) 0.49722(14)
C2A C 0.1301(2) 0.7067(2) 0.50083(15)
H1A H 0.1873 0.6700 0.5405
C3A C 0.1140(2) 0.6196(2) 0.44890(15)
H2A H 0.1580 0.5232 0.4524
C4A C 0.0315(2) 0.6755(2) 0.39075(15)
H3A H 0.0176 0.6164 0.3548
C5A C -0.0299(2) 0.8131(2) 0.38390(15)
C6A C -0.1111(3) 0.8659(2) 0.31601(17)
H4A H -0.1098 0.7889 0.2839
H5A H -0.2167 0.9358 0.3519
H6A H -0.0598 0.9076 0.2678
C7A C -0.2774(2) 1.1231(2) 0.47433(15)
C8A C -0.3566(2) 1.0802(2) 0.55436(15)
H7A H -0.2999 1.0112 0.5850
C9A C -0.5118(3) 1.1340(2) 0.58979(17)
H8A H -0.5618 1.1042 0.6446
C10A C -0.5953(3) 1.2337(3) 0.54376(18)
H9A H -0.7030 1.2728 0.5677
C11A C -0.5218(3) 1.2753(2) 0.46397(18)
H10A H -0.5795 1.3409 0.4322
C12A C -0.3632(2) 1.2227(2) 0.42845(16)
C13A C -0.1362(2) 1.1907(2) 0.28929(15)
C14A C -0.0820(3) 1.2098(2) 0.19321(16)
H11A H -0.1511 1.2743 0.1673
C15A C 0.0700(3) 1.1361(2) 0.13619(16)
H12A H 0.1045 1.1507 0.0714
C16A C 0.1728(3) 1.0418(2) 0.17151(16)
H13A H 0.2780 0.9924 0.1323
C17A C 0.1186(2) 1.0203(2) 0.26652(15)
H14A H 0.1890 0.9541 0.2909
C18A C -0.0347(2) 1.0920(2) 0.32709(15)
C19A C -0.3857(3) 1.3884(3) 0.31360(19)
H15A H -0.4901 1.4333 0.3614
H16A H -0.3455 1.4542 0.3032
H17A H -0.3853 1.3578 0.2530
N3 N 0.47895(18) 0.39128(17) -0.04826(12)
N4 N 0.2553(2) 0.33545(18) 0.23589(12)
B2 B 0.4142(3) 0.4267(2) 0.06593(16)
C20 C 0.5561(2) 0.4546(2) -0.10320(14)
C21 C 0.6156(2) 0.4198(2) -0.20342(15)
H18 H 0.6721 0.4617 -0.2421
C22 C 0.5946(2) 0.3270(2) -0.24700(15)
H19 H 0.6341 0.3056 -0.3150
C23 C 0.5140(2) 0.2652(2) -0.18904(15)
H20 H 0.4968 0.2015 -0.2177
C24 C 0.4588(2) 0.2951(2) -0.09066(15)
C25 C 0.3790(3) 0.2197(2) -0.03140(15)
H21 H 0.3760 0.1564 -0.0741
H22 H 0.2749 0.2868 0.0097
H23 H 0.4342 0.1667 0.0087
C26 C 0.2333(2) 0.4800(2) 0.10850(15)
C27 C 0.1385(2) 0.5744(2) 0.06656(16)
H24 H 0.1818 0.6111 0.0135
C28 C -0.0168(3) 0.6174(2) 0.09872(18)
H25 H -0.0785 0.6836 0.0692
C29 C -0.0790(3) 0.5616(3) 0.17457(18)
H26 H -0.1844 0.5883 0.1968
C30 C 0.0107(3) 0.4671(2) 0.21858(17)
H27 H -0.0335 0.4287 0.2701
C31 C 0.1666(2) 0.4274(2) 0.18777(15)
C32 C 0.4142(2) 0.2514(2) 0.18991(15)
C33 C 0.4897(3) 0.1300(2) 0.22472(16)
H28 H 0.4332 0.1036 0.2785
C34 C 0.6457(3) 0.0483(2) 0.18133(16)
H29 H 0.6956 -0.0328 0.2064
C35 C 0.7302(3) 0.0833(2) 0.10194(16)
H30 H 0.8374 0.0273 0.0724
C36 C 0.6544(2) 0.2020(2) 0.06655(15)
H31 H 0.7118 0.2253 0.0113
C37 C 0.4980(2) 0.2885(2) 0.10844(14)
C38 C 0.1781(3) 0.3034(2) 0.32727(16)
H32 H 0.2538 0.2388 0.3520
H33 H 0.1195 0.2611 0.3177
H34 H 0.1092 0.3889 0.3735
N3A N 0.52105(18) 0.60872(17) 0.04826(12)
N4A N 0.7447(2) 0.66455(18) -0.23589(12)
B2A B 0.5858(3) 0.5733(2) -0.06593(16)
C20A C 0.4439(2) 0.5454(2) 0.10320(14)
C21A C 0.3844(2) 0.5802(2) 0.20342(15)
H18A H 0.3279 0.5383 0.2421
C22A C 0.4054(2) 0.6730(2) 0.24700(15)
H19A H 0.3659 0.6944 0.3150
C23A C 0.4860(2) 0.7348(2) 0.18904(15)
H20A H 0.5032 0.7985 0.2177
C24A C 0.5412(2) 0.7049(2) 0.09066(15)
C25A C 0.6210(3) 0.7803(2) 0.03140(15)
H21A H 0.6240 0.8436 0.0741
H22A H 0.7251 0.7132 -0.0097
H23A H 0.5658 0.8333 -0.0087
C26A C 0.7667(2) 0.5200(2) -0.10850(15)
C27A C 0.8615(2) 0.4256(2) -0.06656(16)
H24A H 0.8182 0.3889 -0.0135
C28A C 1.0168(3) 0.3826(2) -0.09872(18)
H25A H 1.0785 0.3164 -0.0692
C29A C 1.0790(3) 0.4384(3) -0.17457(18)
H26A H 1.1844 0.4117 -0.1968
C30A C 0.9893(3) 0.5329(2) -0.21858(17)
H27A H 1.0335 0.5713 -0.2701
C31A C 0.8334(2) 0.5726(2) -0.18777(15)
C32A C 0.5858(2) 0.7486(2) -0.18991(15)
C33A C 0.5103(3) 0.8700(2) -0.22472(16)
H28A H 0.5668 0.8964 -0.2785
C34A C 0.3543(3) 0.9517(2) -0.18133(16)
H29A H 0.3044 1.0328 -0.2064
C35A C 0.2698(3) 0.9167(2) -0.10194(16)
H30A H 0.1626 0.9727 -0.0724
C36A C 0.3456(2) 0.7980(2) -0.06655(15)
H31A H 0.2882 0.7747 -0.0113
C37A C 0.5020(2) 0.7115(2) -0.10844(14)
C38A C 0.8219(3) 0.6966(2) -0.32727(16)
H32A H 0.7462 0.7612 -0.3520
H33A H 0.8805 0.7389 -0.3177
H34A H 0.8908 0.6111 -0.3735
loop_
_geom_bond_atom_site_label_1
_geom_bond_atom_site_label_2
_geom_bond_site_symmetry_1
_geom_bond_site_symmetry_2
N1 B1 1_555 1_555
N2 C12 1_555 1_555
B1 C7 1_555 1_555
C1 N1 1_555 1_555
C2 C1 1_555 1_555
H1 C2 1_555 1_555
C3 C2 1_555 1_555
H2 C3 1_555 1_555
C4 C3 1_555 1_555
H3 C4 1_555 1_555
C5 N1 1_555 1_555
C6 C5 1_555 1_555
H4 C6 1_555 1_555
H5 C6 1_555 1_555
H6 C6 1_555 1_555
C7 C8 1_555 1_555
C8 H7 1_555 1_555
C9 C8 1_555 1_555
H8 C9 1_555 1_555
C10 C9 1_555 1_555
H9 C10 1_555 1_555
C11 C10 1_555 1_555
H10 C11 1_555 1_555
C12 C7 1_555 1_555
C13 N2 1_555 1_555
C14 C13 1_555 1_555
H11 C14 1_555 1_555
C15 C14 1_555 1_555
H12 C15 1_555 1_555
C16 C15 1_555 1_555
H13 C16 1_555 1_555
C17 C16 1_555 1_555
H14 C17 1_555 1_555
C18 B1 1_555 1_555
C19 N2 1_555 1_555
H15 C19 1_555 1_555
H16 C19 1_555 1_555
H17 C19 1_555 1_555
N3 B2 1_555 1_555
N4 C31 1_555 1_555
B2 C26 1_555 1_555
C20 N3 1_555 1_555
C21 C20 1_555 1_555
H18 C21 1_555 1_555
C22 C21 1_555 1_555
H19 C22 1_555 1_555
C23 C22 1_555 1_555
H20 C23 1_555 1_555
C24 N3 1_555 1_555
C25 C24 1_555 1_555
H21 C25 1_555 1_555
H22 C25 1_555 1_555
H23 C25 1_555 1_555
C26 C27 1_555 1_555
C27 H24 1_555 1_555
C28 C27 1_555 1_555
H25 C28 1_555 1_555
C29 C28 1_555 1_555
H26 C29 1_555 1_555
C30 C29 1_555 1_555
H27 C30 1_555 1_555
C31 C26 1_555 1_555
C32 N4 1_555 1_555
C33 C32 1_555 1_555
H28 C33 1_555 1_555
C34 C33 1_555 1_555
H29 C34 1_555 1_555
C35 C34 1_555 1_555
H30 C35 1_555 1_555
C36 C35 1_555 1_555
H31 C36 1_555 1_555
C37 B2 1_555 1_555
C38 N4 1_555 1_555
H32 C38 1_555 1_555
H33 C38 1_555 1_555
H34 C38 1_555 1_555
N1A B1A 1_555 1_555
N2A C12A 1_555 1_555
B1A C1 1_555 1_555
C1A B1 1_555 1_555
C2A C1A 1_555 1_555
H1A C2A 1_555 1_555
C3A C2A 1_555 1_555
H2A C3A 1_555 1_555
C4A C3A 1_555 1_555
H3A C4A 1_555 1_555
C5A N1A 1_555 1_555
C6A C5A 1_555 1_555
H4A C6A 1_555 1_555
H5A C6A 1_555 1_555
H6A C6A 1_555 1_555
C7A B1A 1_555 1_555
C8A C7A 1_555 1_555
H7A C8A 1_555 1_555
C9A C8A 1_555 1_555
H8A C9A 1_555 1_555
C10A C9A 1_555 1_555
H9A C10A 1_555 1_555
C11A C10A 1_555 1_555
H10A C11A 1_555 1_555
C12A C7A 1_555 1_555
C13A N2A 1_555 1_555
C14A C13A 1_555 1_555
H11A C14A 1_555 1_555
C15A C14A 1_555 1_555
H12A C15A 1_555 1_555
C16A C15A 1_555 1_555
H13A C16A 1_555 1_555
C17A C16A 1_555 1_555
H14A C17A 1_555 1_555
C18A B1A 1_555 1_555
C19A N2A 1_555 1_555
H15A C19A 1_555 1_555
H16A C19A 1_555 1_555
H17A C19A 1_555 1_555
N3A B2A 1_555 1_555
N4A C31A 1_555 1_555
B2A C20 1_555 1_555
C20A B2 1_555 1_555
C21A C20A 1_555 1_555
H18A C21A 1_555 1_555
C22A C21A 1_555 1_555
H19A C22A 1_555 1_555
C23A C22A 1_555 1_555
H20A C23A 1_555 1_555
C24A N3A 1_555 1_555
C25A C24A 1_555 1_555
H21A C25A 1_555 1_555
H22A C25A 1_555 1_555
H23A C25A 1_555 1_555
C26A B2A 1_555 1_555
C27A C26A 1_555 1_555
H24A C27A 1_555 1_555
C28A C27A 1_555 1_555
H25A C28A 1_555 1_555
C29A C28A 1_555 1_555
H26A C29A 1_555 1_555
C30A C29A 1_555 1_555
H27A C30A 1_555 1_555
C31A C26A 1_555 1_555
C32A N4A 1_555 1_555
C33A C32A 1_555 1_555
H28A C33A 1_555 1_555
C34A C33A 1_555 1_555
H29A C34A 1_555 1_555
C35A C34A 1_555 1_555
H30A C35A 1_555 1_555
C36A C35A 1_555 1_555
H31A C36A 1_555 1_555
C37A B2A 1_555 1_555
C38A N4A 1_555 1_555
H32A C38A 1_555 1_555
H33A C38A 1_555 1_555
H34A C38A 1_555 1_555
C4 C5 1_555 1_555
C11 C12 1_555 1_555
C13 C18 1_555 1_555
C17 C18 1_555 1_555
C23 C24 1_555 1_555
C30 C31 1_555 1_555
C32 C37 1_555 1_555
C36 C37 1_555 1_555
N1A C1A 1_555 1_555
C4A C5A 1_555 1_555
C11A C12A 1_555 1_555
C13A C18A 1_555 1_555
C17A C18A 1_555 1_555
N3A C20A 1_555 1_555
C23A C24A 1_555 1_555
C30A C31A 1_555 1_555
C32A C37A 1_555 1_555
C36A C37A 1_555 1_555

#END
