
#######################################################################
#
#                 Cambridge Crystallographic Data Centre
#                                CCDC 
#
#######################################################################
#
# If this CIF has been generated from an entry in the Cambridge 
# Structural Database, then it will include bibliographic, chemical, 
# crystal, experimental, refinement or atomic coordinate data resulting 
# from the CCDC's data processing and validation procedures.
#
#######################################################################

data_JOHDAL
_chemical_formula_moiety         'C16 H28 N2 O4'
_chemical_name_systematic        
meso-Bi(5,5-dimethyl-4-ethyl-2-oxomorpholin-3-yl)
_symmetry_cell_setting           orthorhombic
_symmetry_space_group_name_H-M   'P b c a'
_symmetry_Int_Tables_number      61
_space_group_name_Hall           '-P 2ac 2ab'
loop_
_symmetry_equiv_pos_site_id
_symmetry_equiv_pos_as_xyz
1 x,y,z
2 1/2-x,1/2+y,z
3 x,1/2-y,1/2+z
4 1/2-x,-y,1/2+z
5 -x,-y,-z
6 1/2+x,1/2-y,-z
7 -x,1/2+y,1/2-z
8 1/2+x,y,1/2-z
_cell_length_a                   12.115(4)
_cell_length_b                   19.037(4)
_cell_length_c                   15.074(4)
_cell_angle_alpha                90
_cell_angle_beta                 90
_cell_angle_gamma                90
_cell_volume                     3476.57
_exptl_crystal_colour            colorless
_chemical_melting_point          83-84deg.C
_cell_formula_units_Z            8
loop_
_atom_site_label
_atom_site_type_symbol
_atom_site_fract_x
_atom_site_fract_y
_atom_site_fract_z
O1 O -0.2120(4) 0.7643(2) 0.5671(3)
C1 C -0.1307(5) 0.7191(3) 0.5709(5)
O2 O -0.0769(4) 0.7142(2) 0.6372(3)
C2 C -0.1046(5) 0.6730(3) 0.4920(3)
N1 N -0.1553(4) 0.6923(2) 0.4083(3)
C3 C -0.2068(4) 0.7607(3) 0.4048(3)
C4 C -0.2754(5) 0.7664(4) 0.4867(5)
C5 C -0.0631(11) 0.6935(6) 0.3362(7)
C7 C -0.2877(5) 0.7650(4) 0.3261(5)
C8 C -0.1279(6) 0.8231(3) 0.4007(6)
C9 C -0.0331(31) 0.6264(13) 0.2955(24)
O3 O -0.0657(4) 0.5524(2) 0.6638(3)
C11 C -0.0385(5) 0.5715(3) 0.5817(4)
O4 O 0.0567(3) 0.5687(2) 0.5592(3)
C12 C -0.1287(4) 0.5951(3) 0.5198(3)
N2 N -0.2417(4) 0.5852(3) 0.5464(3)
C13 C -0.2599(4) 0.5423(3) 0.6258(4)
C14 C -0.1770(6) 0.5658(3) 0.6922(4)
C15 C -0.2951(12) 0.5554(11) 0.4606(9)
C17 C -0.2515(6) 0.4627(3) 0.6118(5)
C18 C -0.3729(6) 0.5613(4) 0.6682(6)
C19 C -0.4121(14) 0.5630(16) 0.4379(18)
H1 H -0.0266(33) 0.6754(17) 0.4848(24)
H2 H -0.3166 0.8094 0.4853
H3 H -0.3273 0.7283 0.4882
H4 H -0.3375 0.7258 0.3287
H5 H -0.3292 0.8080 0.3283
H6 H -0.2465 0.7632 0.2717
H7 H -0.0789 0.8201 0.4507
H8 H -0.0857 0.8215 0.3468
H9 H -0.1684 0.8664 0.4034
H10 H -0.1112(29) 0.5680(19) 0.4717(27)
H11 H -0.1861 0.6152 0.7024
H12 H -0.1893 0.5417 0.7473
H13 H -0.1816 0.4532 0.5843
H14 H -0.2549 0.4393 0.6682
H15 H -0.3099 0.4458 0.5744
H16 H -0.3774 0.6113 0.6755
H17 H -0.4326 0.5455 0.6314
H18 H -0.3777 0.5390 0.7252
C6? C -0.1224(14) 0.6472(10) 0.3263(10)
C10? C -0.0051(17) 0.6635(22) 0.3147(22)
C16? C -0.3430(15) 0.5865(10) 0.4834(15)
C20? C -0.3206(17) 0.5250(11) 0.4282(14)
loop_
_geom_bond_atom_site_label_1
_geom_bond_atom_site_label_2
_geom_bond_site_symmetry_1
_geom_bond_site_symmetry_2
O1 C1 1_555 1_555
C1 O2 1_555 1_555
C2 C1 1_555 1_555
N1 C2 1_555 1_555
C3 N1 1_555 1_555
C4 O1 1_555 1_555
C5 N1 1_555 1_555
C7 C3 1_555 1_555
C8 C3 1_555 1_555
C9 C5 1_555 1_555
O3 C11 1_555 1_555
C11 O4 1_555 1_555
C12 C2 1_555 1_555
N2 C12 1_555 1_555
C13 N2 1_555 1_555
C14 O3 1_555 1_555
C15 N2 1_555 1_555
C17 C13 1_555 1_555
C18 C13 1_555 1_555
C19 C15 1_555 1_555
H1 C2 1_555 1_555
H2 C4 1_555 1_555
H3 C4 1_555 1_555
H4 C7 1_555 1_555
H5 C7 1_555 1_555
H6 C7 1_555 1_555
H7 C8 1_555 1_555
H8 C8 1_555 1_555
H9 C8 1_555 1_555
H10 C12 1_555 1_555
H11 C14 1_555 1_555
H12 C14 1_555 1_555
H13 C17 1_555 1_555
H14 C17 1_555 1_555
H15 C17 1_555 1_555
H16 C18 1_555 1_555
H17 C18 1_555 1_555
H18 C18 1_555 1_555
C3 C4 1_555 1_555
C11 C12 1_555 1_555
C13 C14 1_555 1_555

#END
