
#######################################################################
#
#                 Cambridge Crystallographic Data Centre
#                                CCDC 
#
#######################################################################
#
# If this CIF has been generated from an entry in the Cambridge 
# Structural Database, then it will include bibliographic, chemical, 
# crystal, experimental, refinement or atomic coordinate data resulting 
# from the CCDC's data processing and validation procedures.
#
#######################################################################

data_JOHHOF
_chemical_formula_moiety         'C38 H36 N2 O5 S2'
_chemical_name_systematic        
24,26-bis((4-methylphenyl)sulfonyl)-24,26-diazaoctacyclo[20.3.1.0^1,11^.0^2,7^.0^8,11^.0^12,15^.0^12,22^.0^16,21^]hexacosa-2,4,6,16,18,20-hexaen-23-ol
_symmetry_cell_setting           triclinic
_symmetry_space_group_name_H-M   'P -1'
_symmetry_Int_Tables_number      2
_space_group_name_Hall           '-P 1'
loop_
_symmetry_equiv_pos_site_id
_symmetry_equiv_pos_as_xyz
1 x,y,z
2 -x,-y,-z
_cell_length_a                   10.699(3)
_cell_length_b                   10.891(3)
_cell_length_c                   13.963(4)
_cell_angle_alpha                88.188(5)
_cell_angle_beta                 72.295(4)
_cell_angle_gamma                89.802(6)
_cell_volume                     1549.14
_exptl_crystal_colour            colorless
_exptl_crystal_description       block
_cell_formula_units_Z            2
loop_
_atom_site_label
_atom_site_type_symbol
_atom_site_fract_x
_atom_site_fract_y
_atom_site_fract_z
S1 S 1.03631(7) 0.63986(7) 0.76436(5)
S2 S 0.87364(7) 1.12155(6) 0.62542(5)
N1 N 0.9837(2) 0.7739(2) 0.73684(16)
N2 N 0.8848(2) 0.9954(2) 0.68891(15)
O1 O 1.15206(18) 0.92508(19) 0.66712(14)
H1 H 1.1270 0.9331 0.6158
O2 O 1.1127(2) 0.66333(19) 0.82993(14)
O3 O 0.9250(2) 0.55984(18) 0.79640(15)
O4 O 0.99142(18) 1.19033(18) 0.61138(14)
O5 O 0.83994(19) 1.08456(18) 0.53886(13)
C1 C 1.0456(3) 0.8888(2) 0.74997(19)
H2 H 1.0793 0.8764 0.8090
C2 C 0.9356(3) 0.9859(2) 0.77816(19)
C3 C 0.9749(3) 1.1035(3) 0.8165(2)
C4 C 1.0892(3) 1.1737(3) 0.7800(2)
H3 H 1.1580 1.1488 0.7232
C5 C 1.1005(3) 1.2800(3) 0.8280(2)
H4 H 1.1765 1.3301 0.8021
C6 C 1.0033(4) 1.3149(3) 0.9127(2)
H5 H 1.0134 1.3882 0.9448
C7 C 0.8913(3) 1.2437(3) 0.9513(2)
H6 H 0.8253 1.2670 1.0104
C8 C 0.8764(3) 1.1377(3) 0.9027(2)
C9 C 0.7623(3) 1.0517(3) 0.9311(2)
H7 H 0.6779 1.0867 0.9260
C10 C 0.7515(3) 0.9693(3) 1.0254(2)
H8 H 0.7872 1.0075 1.0751
H9 H 0.6624 0.9354 1.0582
C11 C 0.8451(3) 0.8792(3) 0.95779(19)
H10 H 0.8164 0.7923 0.9713
H11 H 0.9376 0.8889 0.9566
C12 C 0.8153(3) 0.9390(3) 0.86477(19)
C13 C 0.7285(3) 0.8716(3) 0.81343(19)
C14 C 0.6709(3) 0.7421(3) 0.8552(2)
H12 H 0.6760 0.6824 0.8022
H13 H 0.7066 0.7068 0.9076
C15 C 0.5334(3) 0.8003(3) 0.8979(2)
H14 H 0.5104 0.8196 0.9700
H15 H 0.4619 0.7538 0.8838
C16 C 0.5842(3) 0.9127(3) 0.8251(2)
H16 H 0.5591 0.9952 0.8542
C17 C 0.5736(3) 0.8969(3) 0.7214(2)
C18 C 0.4609(3) 0.8976(3) 0.6918(2)
H17 H 0.3774 0.9093 0.7396
C19 C 0.4717(3) 0.8808(3) 0.5915(2)
H18 H 0.3952 0.8828 0.5704
C20 C 0.5938(3) 0.8612(3) 0.5218(2)
H19 H 0.5997 0.8480 0.4536
C21 C 0.7064(3) 0.8607(2) 0.5507(2)
H20 H 0.7896 0.8476 0.5029
C22 C 0.6963(3) 0.8797(2) 0.6506(2)
C23 C 0.8037(3) 0.8807(2) 0.69968(19)
C24 C 0.9031(3) 0.7770(2) 0.66842(19)
H21 H 0.8569 0.6975 0.6725
H22 H 0.9593 0.7918 0.5982
C25 C 1.1396(3) 0.5839(2) 0.6509(2)
C26 C 1.0957(3) 0.4920(3) 0.6027(2)
H23 H 1.0100 0.4583 0.6305
C27 C 1.1785(3) 0.4502(3) 0.5134(2)
H24 H 1.1487 0.3873 0.4798
C28 C 1.3038(3) 0.4976(3) 0.4716(2)
C29 C 1.3452(3) 0.5895(3) 0.5218(2)
H25 H 1.4306 0.6238 0.4939
C30 C 1.2640(3) 0.6321(3) 0.6118(2)
H26 H 1.2940 0.6939 0.6462
C31 C 1.3919(3) 0.4511(3) 0.3744(2)
H27 H 1.4111 0.3642 0.3834
H28 H 1.4740 0.4985 0.3541
H29 H 1.3483 0.4602 0.3223
C32 C 0.7429(3) 1.2099(2) 0.6976(2)
C33 C 0.7669(3) 1.2987(3) 0.7595(2)
H30 H 0.8540 1.3149 0.7597
C34 C 0.6623(3) 1.3638(3) 0.8214(2)
H31 H 0.6783 1.4238 0.8642
C35 C 0.5349(3) 1.3415(3) 0.8207(2)
C36 C 0.5135(3) 1.2547(3) 0.7567(2)
H32 H 0.4266 1.2396 0.7556
C37 C 0.6161(3) 1.1895(3) 0.6942(2)
H33 H 0.6000 1.1317 0.6498
C38 C 0.4234(3) 1.4157(3) 0.8846(2)
H34 H 0.4113 1.4895 0.8465
H35 H 0.4435 1.4397 0.9454
H36 H 0.3428 1.3661 0.9036
loop_
_geom_bond_atom_site_label_1
_geom_bond_atom_site_label_2
_geom_bond_site_symmetry_1
_geom_bond_site_symmetry_2
S1 N1 1_555 1_555
S2 N2 1_555 1_555
N1 C1 1_555 1_555
N2 C2 1_555 1_555
O1 H1 1_555 1_555
O2 S1 1_555 1_555
O3 S1 1_555 1_555
O4 S2 1_555 1_555
O5 S2 1_555 1_555
C1 O1 1_555 1_555
H2 C1 1_555 1_555
C2 C1 1_555 1_555
C3 C2 1_555 1_555
C4 C3 1_555 1_555
H3 C4 1_555 1_555
C5 C4 1_555 1_555
H4 C5 1_555 1_555
C6 C5 1_555 1_555
H5 C6 1_555 1_555
C7 C6 1_555 1_555
H6 C7 1_555 1_555
C8 C3 1_555 1_555
C9 C8 1_555 1_555
H7 C9 1_555 1_555
C10 C9 1_555 1_555
H8 C10 1_555 1_555
H9 C10 1_555 1_555
C11 C10 1_555 1_555
H10 C11 1_555 1_555
H11 C11 1_555 1_555
C12 C2 1_555 1_555
C13 C12 1_555 1_555
C14 C13 1_555 1_555
H12 C14 1_555 1_555
H13 C14 1_555 1_555
C15 C14 1_555 1_555
H14 C15 1_555 1_555
H15 C15 1_555 1_555
C16 C13 1_555 1_555
H16 C16 1_555 1_555
C17 C16 1_555 1_555
C18 C17 1_555 1_555
H17 C18 1_555 1_555
C19 C18 1_555 1_555
H18 C19 1_555 1_555
C20 C19 1_555 1_555
H19 C20 1_555 1_555
C21 C20 1_555 1_555
H20 C21 1_555 1_555
C22 C17 1_555 1_555
C23 N2 1_555 1_555
C24 N1 1_555 1_555
H21 C24 1_555 1_555
H22 C24 1_555 1_555
C25 S1 1_555 1_555
C26 C25 1_555 1_555
H23 C26 1_555 1_555
C27 C26 1_555 1_555
H24 C27 1_555 1_555
C28 C27 1_555 1_555
C29 C28 1_555 1_555
H25 C29 1_555 1_555
C30 C25 1_555 1_555
H26 C30 1_555 1_555
C31 C28 1_555 1_555
H27 C31 1_555 1_555
H28 C31 1_555 1_555
H29 C31 1_555 1_555
C32 S2 1_555 1_555
C33 C32 1_555 1_555
H30 C33 1_555 1_555
C34 C33 1_555 1_555
H31 C34 1_555 1_555
C35 C34 1_555 1_555
C36 C35 1_555 1_555
H32 C36 1_555 1_555
C37 C32 1_555 1_555
H33 C37 1_555 1_555
C38 C35 1_555 1_555
H34 C38 1_555 1_555
H35 C38 1_555 1_555
H36 C38 1_555 1_555
C7 C8 1_555 1_555
C9 C12 1_555 1_555
C11 C12 1_555 1_555
C13 C23 1_555 1_555
C15 C16 1_555 1_555
C21 C22 1_555 1_555
C22 C23 1_555 1_555
C23 C24 1_555 1_555
C29 C30 1_555 1_555
C36 C37 1_555 1_555

#END
