
#######################################################################
#
#                 Cambridge Crystallographic Data Centre
#                                CCDC 
#
#######################################################################
#
# If this CIF has been generated from an entry in the Cambridge 
# Structural Database, then it will include bibliographic, chemical, 
# crystal, experimental, refinement or atomic coordinate data resulting 
# from the CCDC's data processing and validation procedures.
#
#######################################################################

data_JOHHUL
_chemical_formula_moiety         'C27 H23 B1 N1 P1'
_chemical_name_systematic        
4-(2-(diphenylphosphino)phenyl)-1-methyl-1,4-dihydro-1,4-benzazaborinine
_symmetry_cell_setting           monoclinic
_symmetry_space_group_name_H-M   'P 21/c'
_symmetry_Int_Tables_number      14
_space_group_name_Hall           '-P 2ybc'
loop_
_symmetry_equiv_pos_site_id
_symmetry_equiv_pos_as_xyz
1 x,y,z
2 -x,1/2+y,1/2-z
3 -x,-y,-z
4 x,1/2-y,1/2+z
_cell_length_a                   8.3947(6)
_cell_length_b                   21.3142(16)
_cell_length_c                   11.9780(9)
_cell_angle_alpha                90
_cell_angle_beta                 100.195(4)
_cell_angle_gamma                90
_cell_volume                     2109.34
_exptl_crystal_colour            colorless
_exptl_crystal_description       block
_cell_formula_units_Z            4
_chemical_properties_physical    Air-sensitive
loop_
_atom_site_label
_atom_site_type_symbol
_atom_site_fract_x
_atom_site_fract_y
_atom_site_fract_z
P1 P 0.31246(3) 0.35243(2) 0.73216(2)
N1 N -0.04396(11) 0.56258(4) 0.64007(8)
B1 B 0.25081(14) 0.49897(5) 0.73863(10)
C1 C 0.20537(13) 0.32900(5) 0.84655(9)
C2 C 0.06414(14) 0.29350(6) 0.81688(11)
H1 H 0.0280 0.2824 0.7397
C3 C -0.02413(15) 0.27424(6) 0.89847(13)
H2 H -0.1186 0.2494 0.8773
C4 C 0.02589(15) 0.29130(6) 1.01099(12)
H3 H -0.0348 0.2785 1.0669
C5 C 0.16461(15) 0.32703(6) 1.04168(11)
H4 H 0.1986 0.3389 1.1187
C6 C 0.25442(14) 0.34562(5) 0.96012(10)
H5 H 0.3499 0.3698 0.9820
C7 C 0.43773(13) 0.28321(5) 0.71951(9)
C8 C 0.50944(14) 0.27936(5) 0.62304(10)
H6 H 0.4872 0.3109 0.5663
C9 C 0.61292(14) 0.23021(6) 0.60855(11)
H7 H 0.6621 0.2287 0.5430
C10 C 0.64411(14) 0.18337(5) 0.69029(11)
H8 H 0.7150 0.1498 0.6810
C11 C 0.57124(15) 0.18593(5) 0.78550(11)
H9 H 0.5917 0.1537 0.8410
C12 C 0.46840(14) 0.23530(5) 0.80036(10)
H10 H 0.4188 0.2365 0.8657
C13 C 0.46339(12) 0.40798(5) 0.80411(9)
C14 C 0.61581(13) 0.38886(5) 0.86155(9)
H11 H 0.6443 0.3457 0.8625
C15 C 0.72550(13) 0.43206(5) 0.91698(10)
H12 H 0.8280 0.4186 0.9564
C16 C 0.68444(13) 0.49518(5) 0.91445(9)
H13 H 0.7583 0.5250 0.9531
C17 C 0.53506(13) 0.51466(5) 0.85525(9)
H14 H 0.5097 0.5581 0.8526
C18 C 0.42048(12) 0.47206(5) 0.79918(9)
C19 C 0.23365(12) 0.53660(5) 0.62750(9)
C20 C 0.35994(13) 0.54187(5) 0.56382(9)
H15 H 0.4609 0.5225 0.5920
C21 C 0.34207(14) 0.57407(5) 0.46253(10)
H16 H 0.4288 0.5761 0.4214
C22 C 0.19461(14) 0.60374(5) 0.42101(10)
H17 H 0.1817 0.6261 0.3514
C23 C 0.06810(13) 0.60082(5) 0.47997(10)
H18 H -0.0308 0.6217 0.4516
C24 C 0.08565(12) 0.56675(5) 0.58274(9)
C25 C -0.03603(13) 0.52724(5) 0.73538(10)
H19 H -0.1307 0.5246 0.7684
C26 C 0.09763(13) 0.49526(5) 0.78717(10)
H20 H 0.0940 0.4709 0.8531
C27 C -0.19407(13) 0.59676(6) 0.59751(11)
H21 H -0.2723 0.5893 0.6478
H22 H -0.2393 0.5821 0.5209
H23 H -0.1709 0.6418 0.5953
loop_
_geom_bond_atom_site_label_1
_geom_bond_atom_site_label_2
_geom_bond_site_symmetry_1
_geom_bond_site_symmetry_2
P1 C1 1_555 1_555
N1 C24 1_555 1_555
B1 C18 1_555 1_555
C1 C2 1_555 1_555
C2 H1 1_555 1_555
C3 C2 1_555 1_555
H2 C3 1_555 1_555
C4 C3 1_555 1_555
H3 C4 1_555 1_555
C5 C4 1_555 1_555
H4 C5 1_555 1_555
C6 C1 1_555 1_555
H5 C6 1_555 1_555
C7 P1 1_555 1_555
C8 C7 1_555 1_555
H6 C8 1_555 1_555
C9 C8 1_555 1_555
H7 C9 1_555 1_555
C10 C9 1_555 1_555
H8 C10 1_555 1_555
C11 C10 1_555 1_555
H9 C11 1_555 1_555
C12 C7 1_555 1_555
H10 C12 1_555 1_555
C13 P1 1_555 1_555
C14 C13 1_555 1_555
H11 C14 1_555 1_555
C15 C14 1_555 1_555
H12 C15 1_555 1_555
C16 C15 1_555 1_555
H13 C16 1_555 1_555
C17 C16 1_555 1_555
H14 C17 1_555 1_555
C18 C13 1_555 1_555
C19 B1 1_555 1_555
C20 C19 1_555 1_555
H15 C20 1_555 1_555
C21 C20 1_555 1_555
H16 C21 1_555 1_555
C22 C21 1_555 1_555
H17 C22 1_555 1_555
C23 C22 1_555 1_555
H18 C23 1_555 1_555
C24 C19 1_555 1_555
C25 N1 1_555 1_555
H19 C25 1_555 1_555
C26 B1 1_555 1_555
H20 C26 1_555 1_555
C27 N1 1_555 1_555
H21 C27 1_555 1_555
H22 C27 1_555 1_555
H23 C27 1_555 1_555
C5 C6 1_555 1_555
C11 C12 1_555 1_555
C17 C18 1_555 1_555
C23 C24 1_555 1_555
C25 C26 1_555 1_555

#END
