
#######################################################################
#
#                 Cambridge Crystallographic Data Centre
#                                CCDC 
#
#######################################################################
#
# If this CIF has been generated from an entry in the Cambridge 
# Structural Database, then it will include bibliographic, chemical, 
# crystal, experimental, refinement or atomic coordinate data resulting 
# from the CCDC's data processing and validation procedures.
#
#######################################################################

data_JOHRII
_chemical_formula_moiety         'C52 H64 N4 O4 S8,0.25(C4 H10 O1)'
_chemical_name_systematic        
'5,11,17,23-Tetra-t-butyl-25,27-bis(2-(5-methyl-1,3,4-thiadiazol-2-ylthio)ethoxy)-26,28-dimethoxy-2,8,14,20-tetrathiacalix[4]arene diethyl ether solvate'
_symmetry_cell_setting           triclinic
_symmetry_space_group_name_H-M   'P -1'
_symmetry_Int_Tables_number      2
_space_group_name_Hall           '-P 1'
loop_
_symmetry_equiv_pos_site_id
_symmetry_equiv_pos_as_xyz
1 x,y,z
2 -x,-y,-z
_cell_length_a                   13.7112(6)
_cell_length_b                   15.3001(7)
_cell_length_c                   28.1893(12)
_cell_angle_alpha                95.0550(10)
_cell_angle_beta                 99.1880(10)
_cell_angle_gamma                93.1770(10)
_cell_volume                     5800.51
_chemical_melting_point          219deg.C
_cell_formula_units_Z            4
loop_
_atom_site_label
_atom_site_type_symbol
_atom_site_fract_x
_atom_site_fract_y
_atom_site_fract_z
S1 S 0.94492(5) 0.34327(4) 0.14886(2)
S2 S 1.00099(5) 0.70612(4) 0.15076(2)
S3 S 0.59341(5) 0.73524(4) 0.12275(3)
S4 S 0.53819(5) 0.36830(5) 0.09776(3)
S5 S 0.73206(8) 0.40630(6) 0.29685(3)
S6 S 0.75707(8) 0.50619(7) 0.39528(3)
S7 S 0.79767(8) 0.82397(6) 0.30893(3)
S8 S 0.75968(7) 0.98236(7) 0.25300(4)
O1 O 0.74284(14) 0.42009(12) 0.16044(6)
O2 O 0.78968(14) 0.69109(11) 0.17883(6)
O3 O 0.93190(15) 0.51986(11) 0.10491(6)
O4 O 0.62810(18) 0.54859(16) 0.07946(9)
N1 N 0.7127(3) 0.5774(2) 0.31820(10)
N2 N 0.7180(3) 0.6446(2) 0.35616(11)
N3 N 0.8852(3) 0.9860(2) 0.32631(11)
N4 N 0.8851(3) 1.0617(2) 0.31460(12)
C1 C 0.74378(19) 0.36898(15) 0.11835(9)
C2 C 0.65899(17) 0.35256(15) 0.08489(9)
C3 C 0.66176(18) 0.31225(17) 0.03966(9)
H1 H 0.6033 0.3023 0.0175
C4 C 0.74958(18) 0.28600(18) 0.02609(9)
C5 C 0.83460(18) 0.29979(16) 0.06065(9)
H2 H 0.8940 0.2810 0.0529
C6 C 0.83357(18) 0.34087(14) 0.10656(8)
C7 C 0.96525(17) 0.52645(14) 0.15343(8)
C8 C 0.96810(18) 0.45174(14) 0.17877(8)
C9 C 0.99949(18) 0.45967(15) 0.22806(8)
H3 H 0.9999 0.4093 0.2443
C10 C 1.03032(17) 0.53994(14) 0.25417(8)
C11 C 1.02485(17) 0.61399(14) 0.22893(8)
H4 H 1.0435 0.6691 0.2456
C12 C 0.99243(17) 0.60798(14) 0.17973(8)
C13 C 0.79503(18) 0.71244(14) 0.13314(8)
C14 C 0.88388(17) 0.71325(14) 0.11452(8)
C15 C 0.88497(17) 0.72987(15) 0.06732(8)
H5 H 0.9448 0.7294 0.0557
C16 C 0.80046(18) 0.74726(17) 0.03645(9)
C17 C 0.71281(18) 0.74702(17) 0.05536(10)
H6 H 0.6548 0.7596 0.0360
C18 C 0.70967(17) 0.72841(15) 0.10242(9)
C19 C 0.57509(19) 0.55097(17) 0.11511(10)
C20 C 0.56075(18) 0.63053(16) 0.14010(9)
C21 C 0.50545(19) 0.63151(16) 0.17699(10)
H7 H 0.4962 0.6852 0.1933
C22 C 0.4630(2) 0.55468(16) 0.19060(10)
C23 C 0.4813(2) 0.47627(17) 0.16645(10)
H8 H 0.4558 0.4238 0.1755
C24 C 0.53660(18) 0.47309(17) 0.12915(10)
C25 C 0.7524(2) 0.2456(3) -0.02553(10)
C26 C 0.6585(4) 0.2263(5) -0.05384(16)
H9 H 0.6332 0.2795 -0.0649
H10 H 0.6143 0.2007 -0.0348
H11 H 0.6637 0.1856 -0.0811
C27 C 0.8017(5) 0.1573(4) -0.02115(19)
H12 H 0.7578 0.1155 -0.0101
H13 H 0.8624 0.1666 0.0015
H14 H 0.8156 0.1352 -0.0521
C28 C 0.8308(4) 0.2889(5) -0.04505(17)
H15 H 0.8559 0.2477 -0.0670
H16 H 0.8832 0.3109 -0.0192
H17 H 0.8057 0.3369 -0.0619
C29 C 1.0625(2) 0.54989(16) 0.30915(8)
C30 C 1.1511(4) 0.6092(4) 0.32427(14)
H18 H 1.1424 0.6483 0.3516
H19 H 1.1621 0.6429 0.2982
H20 H 1.2072 0.5756 0.3330
C31 C 0.9865(4) 0.6001(5) 0.33128(15)
H21 H 1.0172 0.6308 0.3616
H22 H 0.9339 0.5598 0.3364
H23 H 0.9602 0.6417 0.3099
C32 C 1.0681(6) 0.4657(3) 0.32981(14)
H24 H 1.1325 0.4446 0.3290
H25 H 1.0186 0.4239 0.3114
H26 H 1.0569 0.4734 0.3626
C33 C 0.8012(2) 0.7650(2) -0.01611(10)
C34 C 0.8960(3) 0.7493(4) -0.03215(14)
H27 H 0.9087 0.6884 -0.0309
H28 H 0.9483 0.7851 -0.0114
H29 H 0.8932 0.7642 -0.0647
C35 C 0.7161(4) 0.7255(5) -0.04785(15)
H30 H 0.7144 0.7461 -0.0791
H31 H 0.6576 0.7409 -0.0353
H32 H 0.7188 0.6627 -0.0505
C36 C 0.7913(5) 0.8648(3) -0.01963(17)
H33 H 0.7763 0.8756 -0.0530
H34 H 0.8525 0.8968 -0.0050
H35 H 0.7390 0.8838 -0.0031
C37 C 0.3966(2) 0.55588(19) 0.22925(12)
C38 C 0.2903(3) 0.5372(5) 0.20274(19)
H36 H 0.2490 0.5172 0.2247
H37 H 0.2887 0.4926 0.1764
H38 H 0.2664 0.5900 0.1905
C39 C 0.4069(4) 0.6408(3) 0.26045(15)
H39 H 0.4757 0.6564 0.2726
H40 H 0.3719 0.6347 0.2870
H41 H 0.3797 0.6860 0.2419
C40 C 0.4178(4) 0.4842(3) 0.26166(15)
H42 H 0.4873 0.4873 0.2742
H43 H 0.3983 0.4281 0.2436
H44 H 0.3812 0.4914 0.2879
C41 C 1.0070(3) 0.5081(3) 0.07552(12)
H45 H 1.0599 0.5528 0.0857
H46 H 0.9794 0.5123 0.0424
H47 H 1.0322 0.4512 0.0788
C42 C 0.6069(7) 0.5423(4) 0.04013(19)
H48 H 0.5403 0.5373 0.0263
H49 H 0.6555 0.5419 0.0206
C43 C 0.7309(3) 0.3758(2) 0.20141(11)
H50 H 0.7868 0.3413 0.2108
H51 H 0.6706 0.3375 0.1953
C44 C 0.7254(3) 0.4531(3) 0.24087(11)
H52 H 0.6637 0.4812 0.2336
H53 H 0.7800 0.4968 0.2423
C45 C 0.7309(2) 0.50311(19) 0.33577(12)
C46 C 0.7399(3) 0.6151(2) 0.39694(12)
C47 C 0.7500(4) 0.6740(3) 0.44355(15)
H54 H 0.7327 0.7321 0.4366
H55 H 0.8172 0.6767 0.4600
H56 H 0.7065 0.6508 0.4636
C48 C 0.8271(2) 0.7568(2) 0.21895(11)
H57 H 0.8395 0.8132 0.2070
H58 H 0.8889 0.7399 0.2364
C49 C 0.7524(3) 0.7638(2) 0.25152(11)
H59 H 0.7290 0.7050 0.2567
H60 H 0.6964 0.7922 0.2357
C50 C 0.8211(2) 0.9314(2) 0.29603(12)
C51 C 0.8262(2) 1.0787(2) 0.27617(13)
C52 C 0.8167(3) 1.1667(3) 0.25884(17)
H61 H 0.8600 1.1745 0.2357
H62 H 0.8345 1.2110 0.2856
H63 H 0.7495 1.1719 0.2440
S9 S 0.11965(5) -0.12727(4) 0.28875(2)
S10 S 0.50314(5) -0.12170(4) 0.24836(2)
S11 S 0.51525(6) 0.24374(4) 0.25445(3)
S12 S 0.12441(5) 0.23478(4) 0.28617(3)
S13 S 0.22612(10) 0.02784(8) 0.46365(3)
S14 S 0.11970(11) 0.06888(7) 0.54676(4)
S15 S 0.62995(8) 0.08389(6) 0.42736(3)
S16 S 0.83880(9) 0.15290(6) 0.42660(5)
O5 O 0.18994(12) 0.06634(11) 0.32623(6)
O6 O 0.47341(12) 0.06593(11) 0.29402(5)
O7 O 0.28370(12) -0.08499(11) 0.22899(5)
O8 O 0.29260(14) 0.18580(11) 0.23022(6)
N5 N 0.0999(2) 0.15371(18) 0.47410(9)
N6 N 0.0414(3) 0.1908(2) 0.50491(11)
N7 N 0.6935(2) 0.23633(19) 0.39571(12)
N8 N 0.7761(2) 0.28537(18) 0.38963(12)
C53 C 0.12837(17) 0.05357(15) 0.28244(8)
C54 C 0.10291(17) 0.12588(15) 0.25796(9)
C55 C 0.04922(18) 0.11457(15) 0.21106(9)
H64 H 0.0328 0.1639 0.1952
C56 C 0.01973(17) 0.03107(15) 0.18748(8)
C57 C 0.04447(17) -0.04049(15) 0.21313(8)
H65 H 0.0241 -0.0970 0.1987
C58 C 0.09859(17) -0.03030(14) 0.25961(8)
C59 C 0.31580(17) -0.11342(13) 0.27335(8)
C60 C 0.24981(17) -0.12764(13) 0.30492(8)
C61 C 0.28479(19) -0.15495(15) 0.35041(8)
H66 H 0.2400 -0.1646 0.3713
C62 C 0.3840(2) -0.16811(15) 0.36537(8)
C63 C 0.44805(19) -0.15139(15) 0.33332(8)
H67 H 0.5152 -0.1583 0.3426
C64 C 0.41620(18) -0.12491(14) 0.28822(8)
C65 C 0.49134(17) 0.06048(15) 0.24722(8)
C66 C 0.50234(18) 0.13647(15) 0.22442(9)
C67 C 0.52067(18) 0.13094(16) 0.17706(9)
H68 H 0.5263 0.1822 0.1620
C68 C 0.53070(18) 0.05049(16) 0.15186(8)
C69 C 0.51769(17) -0.02490(15) 0.17467(8)
H69 H 0.5224 -0.0795 0.1582
C70 C 0.49769(17) -0.02100(15) 0.22198(8)
C71 C 0.32247(19) 0.23219(14) 0.27453(8)
C72 C 0.42248(19) 0.25561(14) 0.29102(8)
C73 C 0.45291(19) 0.30231(15) 0.33628(9)
H70 H 0.5199 0.3181 0.3467
C74 C 0.38540(19) 0.32553(15) 0.36578(8)
C75 C 0.28723(19) 0.29949(15) 0.34940(8)
H71 H 0.2410 0.3136 0.3692
C76 C 0.25433(19) 0.25304(14) 0.30458(8)
C77 C -0.0327(2) 0.01678(16) 0.13475(9)
C78 C -0.0581(3) 0.1024(2) 0.11418(12)
H72 H -0.1027 0.1313 0.1323
H73 H -0.0891 0.0904 0.0810
H74 H 0.0013 0.1397 0.1161
C79 C 0.0375(3) -0.0303(3) 0.10470(12)
H75 H 0.1000 0.0036 0.1092
H76 H 0.0086 -0.0359 0.0712
H77 H 0.0477 -0.0876 0.1151
C80 C -0.1244(2) -0.0439(2) 0.13055(11)
H78 H -0.1062 -0.1003 0.1399
H79 H -0.1581 -0.0503 0.0977
H80 H -0.1673 -0.0197 0.1513
C81 C 0.4211(2) -0.20217(18) 0.41429(9)
C82 C 0.3362(3) -0.2172(3) 0.44331(11)
H81 H 0.3601 -0.2462 0.4713
H82 H 0.2829 -0.2531 0.4234
H83 H 0.3130 -0.1615 0.4532
C83 C 0.4956(4) -0.1363(3) 0.44355(13)
H84 H 0.5076 -0.1506 0.4764
H85 H 0.4711 -0.0788 0.4426
H86 H 0.5563 -0.1371 0.4306
C84 C 0.4585(4) -0.2911(2) 0.40491(13)
H87 H 0.5034 -0.2885 0.3821
H88 H 0.4038 -0.3328 0.3920
H89 H 0.4924 -0.3091 0.4346
C85 C 0.5565(2) 0.04850(19) 0.10109(9)
C86 C 0.5882(2) -0.0395(2) 0.08309(10)
H90 H 0.5323 -0.0820 0.0776
H91 H 0.6391 -0.0581 0.1068
H92 H 0.6132 -0.0345 0.0535
C87 C 0.4827(4) 0.0855(4) 0.06859(14)
H93 H 0.4253 0.0450 0.0603
H94 H 0.5085 0.0969 0.0398
H95 H 0.4648 0.1396 0.0838
C88 C 0.6548(3) 0.1139(2) 0.10422(14)
H96 H 0.6758 0.1113 0.0733
H97 H 0.7067 0.0963 0.1278
H98 H 0.6401 0.1730 0.1135
C89 C 0.4191(2) 0.37736(19) 0.41537(9)
C90 C 0.3403(4) 0.4305(4) 0.43017(16)
H99 H 0.2989 0.3956 0.4468
H100 H 0.3011 0.4494 0.4021
H101 H 0.3698 0.4810 0.4513
C91 C 0.4980(5) 0.4460(4) 0.41290(18)
H102 H 0.5514 0.4195 0.4002
H103 H 0.5220 0.4744 0.4447
H104 H 0.4717 0.4887 0.3922
C92 C 0.4556(6) 0.3205(4) 0.45045(15)
H105 H 0.4700 0.3531 0.4817
H106 H 0.5150 0.2967 0.4425
H107 H 0.4066 0.2734 0.4508
C93 C 0.2572(3) -0.1529(2) 0.19135(10)
H108 H 0.3144 -0.1840 0.1868
H109 H 0.2318 -0.1282 0.1621
H110 H 0.2072 -0.1928 0.1995
C94 C 0.2677(3) 0.2384(3) 0.19127(11)
H111 H 0.2235 0.2813 0.2000
H112 H 0.2360 0.2015 0.1631
H113 H 0.3269 0.2678 0.1845
C95 C 0.1477(2) 0.0568(2) 0.36883(10)
H114 H 0.1200 -0.0029 0.3689
H115 H 0.0961 0.0969 0.3712
C96 C 0.2331(3) 0.0785(3) 0.40978(11)
H116 H 0.2392 0.1418 0.4178
H117 H 0.2933 0.0623 0.3983
C97 C 0.1443(3) 0.0908(2) 0.49066(11)
C98 C 0.0422(3) 0.1515(2) 0.54348(12)
C99 C -0.0152(4) 0.1811(4) 0.58298(16)
H118 H 0.0161 0.2349 0.6002
H119 H -0.0162 0.1366 0.6049
H120 H -0.0818 0.1904 0.5689
C100 C 0.5611(2) 0.0672(2) 0.32966(9)
H121 H 0.6106 0.1111 0.3240
H122 H 0.5888 0.0102 0.3284
C101 C 0.5304(2) 0.0891(2) 0.37773(9)
H123 H 0.4757 0.0484 0.3811
H124 H 0.5071 0.1479 0.3790
C102 C 0.7156(3) 0.1649(2) 0.41482(11)
C103 C 0.8568(3) 0.2497(2) 0.40273(13)
C104 C 0.9566(3) 0.2878(3) 0.39766(18)
H125 H 0.9828 0.2515 0.3738
H126 H 1.0001 0.2904 0.4281
H127 H 0.9511 0.3460 0.3878
O9 O 0.0000 0.5000 0.5000
C105 C 0.1267(7) 0.5914(3) 0.4798(3)
H128 H 0.1224 0.6007 0.4463
H129 H 0.1935 0.6057 0.4961
H130 H 0.0829 0.6284 0.4943
C106 C 0.0977(5) 0.4977(4) 0.4841(3)
H131 H 0.0927 0.4627 0.4533
H132 H 0.1454 0.4734 0.5077
C105A C -0.1267(7) 0.4086(3) 0.5202(3)
H128A H -0.1224 0.3993 0.5537
H129A H -0.1935 0.3943 0.5039
H130A H -0.0829 0.3716 0.5057
C106A C -0.0977(5) 0.5023(4) 0.5159(3)
H131A H -0.0927 0.5373 0.5467
H132A H -0.1454 0.5266 0.4923
loop_
_geom_bond_atom_site_label_1
_geom_bond_atom_site_label_2
_geom_bond_site_symmetry_1
_geom_bond_site_symmetry_2
S1 C6 1_555 1_555
S2 C12 1_555 1_555
S3 C18 1_555 1_555
S4 C2 1_555 1_555
S5 C44 1_555 1_555
S6 C45 1_555 1_555
S7 C49 1_555 1_555
S8 C50 1_555 1_555
O1 C1 1_555 1_555
O2 C13 1_555 1_555
O3 C7 1_555 1_555
O4 C19 1_555 1_555
N1 N2 1_555 1_555
N2 C46 1_555 1_555
N3 N4 1_555 1_555
N4 C51 1_555 1_555
C1 C2 1_555 1_555
C2 C3 1_555 1_555
C3 H1 1_555 1_555
C4 C3 1_555 1_555
C5 C4 1_555 1_555
H2 C5 1_555 1_555
C6 C1 1_555 1_555
C7 C8 1_555 1_555
C8 S1 1_555 1_555
C9 C8 1_555 1_555
H3 C9 1_555 1_555
C10 C9 1_555 1_555
C11 C10 1_555 1_555
H4 C11 1_555 1_555
C12 C7 1_555 1_555
C13 C14 1_555 1_555
C14 S2 1_555 1_555
C15 C14 1_555 1_555
H5 C15 1_555 1_555
C16 C15 1_555 1_555
C17 C16 1_555 1_555
H6 C17 1_555 1_555
C18 C13 1_555 1_555
C19 C20 1_555 1_555
C20 S3 1_555 1_555
C21 C20 1_555 1_555
H7 C21 1_555 1_555
C22 C21 1_555 1_555
C23 C22 1_555 1_555
H8 C23 1_555 1_555
C24 S4 1_555 1_555
C25 C4 1_555 1_555
C26 C25 1_555 1_555
H9 C26 1_555 1_555
H10 C26 1_555 1_555
H11 C26 1_555 1_555
C27 C25 1_555 1_555
H12 C27 1_555 1_555
H13 C27 1_555 1_555
H14 C27 1_555 1_555
C28 C25 1_555 1_555
H15 C28 1_555 1_555
H16 C28 1_555 1_555
H17 C28 1_555 1_555
C29 C10 1_555 1_555
C30 C29 1_555 1_555
H18 C30 1_555 1_555
H19 C30 1_555 1_555
H20 C30 1_555 1_555
C31 C29 1_555 1_555
H21 C31 1_555 1_555
H22 C31 1_555 1_555
H23 C31 1_555 1_555
C32 C29 1_555 1_555
H24 C32 1_555 1_555
H25 C32 1_555 1_555
H26 C32 1_555 1_555
C33 C16 1_555 1_555
C34 C33 1_555 1_555
H27 C34 1_555 1_555
H28 C34 1_555 1_555
H29 C34 1_555 1_555
C35 C33 1_555 1_555
H30 C35 1_555 1_555
H31 C35 1_555 1_555
H32 C35 1_555 1_555
C36 C33 1_555 1_555
H33 C36 1_555 1_555
H34 C36 1_555 1_555
H35 C36 1_555 1_555
C37 C22 1_555 1_555
C38 C37 1_555 1_555
H36 C38 1_555 1_555
H37 C38 1_555 1_555
H38 C38 1_555 1_555
C39 C37 1_555 1_555
H39 C39 1_555 1_555
H40 C39 1_555 1_555
H41 C39 1_555 1_555
C40 C37 1_555 1_555
H42 C40 1_555 1_555
H43 C40 1_555 1_555
H44 C40 1_555 1_555
C41 O3 1_555 1_555
H45 C41 1_555 1_555
H46 C41 1_555 1_555
H47 C41 1_555 1_555
C42 O4 1_555 1_555
H48 C42 1_555 1_555
H49 C42 1_555 1_555
C43 O1 1_555 1_555
H50 C43 1_555 1_555
H51 C43 1_555 1_555
C44 C43 1_555 1_555
H52 C44 1_555 1_555
H53 C44 1_555 1_555
C45 S5 1_555 1_555
C46 S6 1_555 1_555
C47 C46 1_555 1_555
H54 C47 1_555 1_555
H55 C47 1_555 1_555
H56 C47 1_555 1_555
C48 O2 1_555 1_555
H57 C48 1_555 1_555
H58 C48 1_555 1_555
C49 C48 1_555 1_555
H59 C49 1_555 1_555
H60 C49 1_555 1_555
C50 S7 1_555 1_555
C51 S8 1_555 1_555
C52 C51 1_555 1_555
H61 C52 1_555 1_555
H62 C52 1_555 1_555
H63 C52 1_555 1_555
S9 C58 1_555 1_555
S10 C64 1_555 1_555
S11 C66 1_555 1_555
S12 C54 1_555 1_555
S13 C96 1_555 1_555
S14 C97 1_555 1_555
S15 C101 1_555 1_555
S16 C102 1_555 1_555
O5 C53 1_555 1_555
O6 C65 1_555 1_555
O7 C59 1_555 1_555
O8 C71 1_555 1_555
N5 N6 1_555 1_555
N6 C98 1_555 1_555
N7 N8 1_555 1_555
N8 C103 1_555 1_555
C53 C54 1_555 1_555
C54 C55 1_555 1_555
C55 H64 1_555 1_555
C56 C55 1_555 1_555
C57 C56 1_555 1_555
H65 C57 1_555 1_555
C58 C53 1_555 1_555
C59 C60 1_555 1_555
C60 S9 1_555 1_555
C61 C60 1_555 1_555
H66 C61 1_555 1_555
C62 C61 1_555 1_555
C63 C62 1_555 1_555
H67 C63 1_555 1_555
C64 C59 1_555 1_555
C65 C66 1_555 1_555
C66 C67 1_555 1_555
C67 H68 1_555 1_555
C68 C67 1_555 1_555
C69 C68 1_555 1_555
H69 C69 1_555 1_555
C70 S10 1_555 1_555
C71 C72 1_555 1_555
C72 S11 1_555 1_555
C73 C72 1_555 1_555
H70 C73 1_555 1_555
C74 C73 1_555 1_555
C75 C74 1_555 1_555
H71 C75 1_555 1_555
C76 S12 1_555 1_555
C77 C56 1_555 1_555
C78 C77 1_555 1_555
H72 C78 1_555 1_555
H73 C78 1_555 1_555
H74 C78 1_555 1_555
C79 C77 1_555 1_555
H75 C79 1_555 1_555
H76 C79 1_555 1_555
H77 C79 1_555 1_555
C80 C77 1_555 1_555
H78 C80 1_555 1_555
H79 C80 1_555 1_555
H80 C80 1_555 1_555
C81 C62 1_555 1_555
C82 C81 1_555 1_555
H81 C82 1_555 1_555
H82 C82 1_555 1_555
H83 C82 1_555 1_555
C83 C81 1_555 1_555
H84 C83 1_555 1_555
H85 C83 1_555 1_555
H86 C83 1_555 1_555
C84 C81 1_555 1_555
H87 C84 1_555 1_555
H88 C84 1_555 1_555
H89 C84 1_555 1_555
C85 C68 1_555 1_555
C86 C85 1_555 1_555
H90 C86 1_555 1_555
H91 C86 1_555 1_555
H92 C86 1_555 1_555
C87 C85 1_555 1_555
H93 C87 1_555 1_555
H94 C87 1_555 1_555
H95 C87 1_555 1_555
C88 C85 1_555 1_555
H96 C88 1_555 1_555
H97 C88 1_555 1_555
H98 C88 1_555 1_555
C89 C74 1_555 1_555
C90 C89 1_555 1_555
H99 C90 1_555 1_555
H100 C90 1_555 1_555
H101 C90 1_555 1_555
C91 C89 1_555 1_555
H102 C91 1_555 1_555
H103 C91 1_555 1_555
H104 C91 1_555 1_555
C92 C89 1_555 1_555
H105 C92 1_555 1_555
H106 C92 1_555 1_555
H107 C92 1_555 1_555
C93 O7 1_555 1_555
H108 C93 1_555 1_555
H109 C93 1_555 1_555
H110 C93 1_555 1_555
C94 O8 1_555 1_555
H111 C94 1_555 1_555
H112 C94 1_555 1_555
H113 C94 1_555 1_555
C95 O5 1_555 1_555
H114 C95 1_555 1_555
H115 C95 1_555 1_555
C96 C95 1_555 1_555
H116 C96 1_555 1_555
H117 C96 1_555 1_555
C97 S13 1_555 1_555
C98 S14 1_555 1_555
C99 C98 1_555 1_555
H118 C99 1_555 1_555
H119 C99 1_555 1_555
H120 C99 1_555 1_555
C100 O6 1_555 1_555
H121 C100 1_555 1_555
H122 C100 1_555 1_555
C101 C100 1_555 1_555
H123 C101 1_555 1_555
H124 C101 1_555 1_555
C102 S15 1_555 1_555
C103 S16 1_555 1_555
C104 C103 1_555 1_555
H125 C104 1_555 1_555
H126 C104 1_555 1_555
H127 C104 1_555 1_555
O9 C106 1_555 1_555
C105 H128 1_555 1_555
H129 C105 1_555 1_555
H130 C105 1_555 1_555
C106 C105 1_555 1_555
H131 C106 1_555 1_555
H132 C106 1_555 1_555
C105A H128A 1_555 1_555
H129A C105A 1_555 1_555
H130A C105A 1_555 1_555
C106A O9 1_555 1_555
H131A C106A 1_555 1_555
H132A C106A 1_555 1_555
N1 C45 1_555 1_555
N3 C50 1_555 1_555
C5 C6 1_555 1_555
C11 C12 1_555 1_555
C17 C18 1_555 1_555
C19 C24 1_555 1_555
C23 C24 1_555 1_555
N5 C97 1_555 1_555
N7 C102 1_555 1_555
C57 C58 1_555 1_555
C63 C64 1_555 1_555
C65 C70 1_555 1_555
C69 C70 1_555 1_555
C71 C76 1_555 1_555
C75 C76 1_555 1_555
C105A C106A 1_555 1_555

#END
