
#######################################################################
#
#                 Cambridge Crystallographic Data Centre
#                                CCDC 
#
#######################################################################
#
# If this CIF has been generated from an entry in the Cambridge 
# Structural Database, then it will include bibliographic, chemical, 
# crystal, experimental, refinement or atomic coordinate data resulting 
# from the CCDC's data processing and validation procedures.
#
#######################################################################

data_JOHROO
_chemical_formula_moiety         'C19 H29 N1 O1'
_chemical_name_systematic        '2-Benzylcyclododecanone oxime'
_symmetry_cell_setting           monoclinic
_symmetry_space_group_name_H-M   'P 21/c'
_symmetry_Int_Tables_number      14
_space_group_name_Hall           '-P 2ybc'
loop_
_symmetry_equiv_pos_site_id
_symmetry_equiv_pos_as_xyz
1 x,y,z
2 -x,1/2+y,1/2-z
3 -x,-y,-z
4 x,1/2-y,1/2+z
_cell_length_a                   6.193(3)
_cell_length_b                   24.528(11)
_cell_length_c                   11.811(5)
_cell_angle_alpha                90
_cell_angle_beta                 103.447(8)
_cell_angle_gamma                90
_cell_volume                     1744.93
_exptl_crystal_colour            colorless
_exptl_crystal_description       block
_cell_formula_units_Z            4
loop_
_atom_site_label
_atom_site_type_symbol
_atom_site_fract_x
_atom_site_fract_y
_atom_site_fract_z
C1 C 0.5808(3) 0.55076(8) 0.70218(15)
H1 H 0.4435 0.5294 0.6873
C2 C 0.6879(3) 0.54725(7) 0.83123(15)
C3 C 0.9149(3) 0.57157(8) 0.87468(17)
H2 H 0.9243 0.6042 0.8298
H3 H 1.0233 0.5459 0.8587
C4 C 0.9810(4) 0.58639(10) 1.00277(19)
H4 H 0.9629 0.5546 1.0486
H5 H 1.1369 0.5963 1.0226
C5 C 0.8464(4) 0.63302(10) 1.0352(2)
H6 H 0.6908 0.6271 0.9989
H7 H 0.8622 0.6329 1.1188
C6 C 0.9142(5) 0.68826(11) 0.9990(3)
H8 H 0.9371 0.6855 0.9207
H9 H 1.0550 0.6982 1.0502
C7 C 0.7484(7) 0.73358(13) 1.0013(4)
H10 H 0.8106 0.7677 0.9819
H11 H 0.7278 0.7369 1.0800
C8 C 0.5212(7) 0.72527(13) 0.9182(3)
H12 H 0.4605 0.6908 0.9364
H13 H 0.4222 0.7539 0.9318
C9 C 0.5250(7) 0.72544(11) 0.7901(3)
H14 H 0.5272 0.7630 0.7644
H15 H 0.6616 0.7083 0.7815
C10 C 0.3312(6) 0.69650(13) 0.7114(3)
H16 H 0.3246 0.7069 0.6314
H17 H 0.1948 0.7086 0.7305
C11 C 0.3448(4) 0.63442(10) 0.7209(2)
H18 H 0.3770 0.6243 0.8025
H19 H 0.2013 0.6191 0.6838
C12 C 0.5197(4) 0.60977(8) 0.66565(17)
H20 H 0.6527 0.6320 0.6860
H21 H 0.4664 0.6110 0.5817
C13 C 0.7314(4) 0.52649(8) 0.62889(17)
H22 H 0.6616 0.5327 0.5475
H23 H 0.8700 0.5466 0.6461
C14 C 0.7857(3) 0.46644(8) 0.64453(16)
C15 C 0.6504(4) 0.42954(9) 0.68335(19)
H24 H 0.5261 0.4419 0.7073
C16 C 0.6984(5) 0.37458(10) 0.6869(2)
H25 H 0.6055 0.3503 0.7131
C17 C 0.8798(5) 0.35524(10) 0.6526(2)
H26 H 0.9095 0.3180 0.6542
C18 C 1.0168(4) 0.39125(11) 0.6161(2)
H27 H 1.1414 0.3786 0.5929
C19 C 0.9721(4) 0.44619(10) 0.6135(2)
H28 H 1.0694 0.4703 0.5903
N1 N 0.6016(2) 0.52486(6) 0.90724(13)
O1 O 0.3916(2) 0.50087(6) 0.86088(13)
H29 H 0.361(4) 0.4895(10) 0.923(2)
loop_
_geom_bond_atom_site_label_1
_geom_bond_atom_site_label_2
_geom_bond_site_symmetry_1
_geom_bond_site_symmetry_2
C1 H1 1_555 1_555
C2 C1 1_555 1_555
C3 C2 1_555 1_555
H2 C3 1_555 1_555
H3 C3 1_555 1_555
C4 C3 1_555 1_555
H4 C4 1_555 1_555
H5 C4 1_555 1_555
C5 C4 1_555 1_555
H6 C5 1_555 1_555
H7 C5 1_555 1_555
C6 C5 1_555 1_555
H8 C6 1_555 1_555
H9 C6 1_555 1_555
C7 C6 1_555 1_555
H10 C7 1_555 1_555
H11 C7 1_555 1_555
C8 C7 1_555 1_555
H12 C8 1_555 1_555
H13 C8 1_555 1_555
C9 C8 1_555 1_555
H14 C9 1_555 1_555
H15 C9 1_555 1_555
C10 C9 1_555 1_555
H16 C10 1_555 1_555
H17 C10 1_555 1_555
C11 C10 1_555 1_555
H18 C11 1_555 1_555
H19 C11 1_555 1_555
C12 C1 1_555 1_555
H20 C12 1_555 1_555
H21 C12 1_555 1_555
C13 C1 1_555 1_555
H22 C13 1_555 1_555
H23 C13 1_555 1_555
C14 C13 1_555 1_555
C15 C14 1_555 1_555
H24 C15 1_555 1_555
C16 C15 1_555 1_555
H25 C16 1_555 1_555
C17 C16 1_555 1_555
H26 C17 1_555 1_555
C18 C17 1_555 1_555
H27 C18 1_555 1_555
C19 C14 1_555 1_555
H28 C19 1_555 1_555
N1 C2 1_555 1_555
O1 N1 1_555 1_555
H29 O1 1_555 1_555
C11 C12 1_555 1_555
C18 C19 1_555 1_555

#END
