
#######################################################################
#
#                 Cambridge Crystallographic Data Centre
#                                CCDC 
#
#######################################################################
#
# If this CIF has been generated from an entry in the Cambridge 
# Structural Database, then it will include bibliographic, chemical, 
# crystal, experimental, refinement or atomic coordinate data resulting 
# from the CCDC's data processing and validation procedures.
#
#######################################################################

data_JOHWUZ
_chemical_name_common            
'N-Methyl-(4-(2-methylphenoxy)-3,4-dihydro-2H-chromen-3-yl)methanaminium camphor-10-sulfonate'
_chemical_formula_moiety         'C18 H22 N1 O2 1+,C10 H15 O4 S1 1-'
_chemical_name_systematic        
'N-Methyl-(4-(2-methylphenoxy)-3,4-dihydro-2H-chromen-3-yl)methanaminium (7,7-dimethyl-2-oxobicyclo[2.2.1]hept-1-yl)methanesulfonate'
_chemical_properties_biological  'Norepinephrine reuptake inhibitor'
_symmetry_cell_setting           orthorhombic
_symmetry_space_group_name_H-M   'P 21 21 21'
_symmetry_Int_Tables_number      19
_space_group_name_Hall           'P 2ac 2ab'
loop_
_symmetry_equiv_pos_site_id
_symmetry_equiv_pos_as_xyz
1 x,y,z
2 1/2-x,-y,1/2+z
3 -x,1/2+y,1/2-z
4 1/2+x,1/2-y,-z
_cell_length_a                   6.746(2)
_cell_length_b                   11.055(4)
_cell_length_c                   34.923(11)
_cell_angle_alpha                90
_cell_angle_beta                 90
_cell_angle_gamma                90
_cell_volume                     2604.45
_exptl_crystal_colour            colorless
_exptl_crystal_description       needles
_cell_formula_units_Z            4
loop_
_atom_site_label
_atom_site_type_symbol
_atom_site_fract_x
_atom_site_fract_y
_atom_site_fract_z
S1 S 0.18089(14) 0.77160(9) 0.16095(2)
O3 O 0.5977(4) 0.5771(3) 0.18174(8)
O4 O 0.2684(4) 0.8900(2) 0.16113(8)
O5 O -0.0331(4) 0.7738(3) 0.16060(8)
O6 O 0.2606(4) 0.6943(2) 0.13054(7)
C19 C 0.4652(6) 0.5215(4) 0.19763(10)
C20 C 0.4783(7) 0.3945(4) 0.21303(12)
H23 H 0.5908 0.3853 0.2305
H24 H 0.4901 0.3352 0.1923
C21 C 0.2812(7) 0.3813(4) 0.23411(11)
H25 H 0.2807 0.3181 0.2542
C22 C 0.1200(7) 0.3659(4) 0.20362(11)
H26 H -0.0082 0.3459 0.2152
H27 H 0.1555 0.3029 0.1851
C23 C 0.1156(6) 0.4921(4) 0.18467(10)
H28 H -0.0180 0.5268 0.1857
H29 H 0.1575 0.4872 0.1578
C24 C 0.2630(5) 0.5696(3) 0.20828(9)
C25 C 0.2477(6) 0.7052(4) 0.20608(9)
H30 H 0.2724 0.7537 0.2277
C26 C 0.2427(6) 0.5108(4) 0.24911(9)
C27 C 0.4004(8) 0.5557(4) 0.27768(11)
H31 H 0.3958 0.5065 0.3007
H32 H 0.3740 0.6394 0.2842
H33 H 0.5308 0.5494 0.2661
C28 C 0.0392(8) 0.5281(4) 0.26701(12)
H34 H 0.0246 0.4738 0.2886
H35 H -0.0624 0.5107 0.2481
H36 H 0.0255 0.6111 0.2757
O1 O -0.3744(4) 0.3562(3) 0.11296(8)
O2 O -0.0502(4) 0.4942(3) 0.04059(6)
N1 N -0.3485(5) 0.7503(3) 0.11306(8)
H1 H -0.4687 0.7155 0.1173
H2 H -0.2822 0.7524 0.1357
C1 C -0.3790(7) 0.8754(4) 0.09938(13)
H3 H -0.4649 0.9182 0.1171
H4 H -0.4398 0.8737 0.0742
H5 H -0.2522 0.9165 0.0979
C2 C -0.2360(6) 0.6751(4) 0.08564(10)
H6 H -0.1057 0.7118 0.0813
H7 H -0.3065 0.6733 0.0611
C3 C -0.2086(5) 0.5471(3) 0.09994(10)
H8 H -0.1854 0.5512 0.1279
C4 C -0.3909(6) 0.4690(4) 0.09339(11)
H9 H -0.5088 0.5120 0.1025
H10 H -0.4071 0.4542 0.0659
C5 C -0.1935(6) 0.3006(3) 0.11065(9)
C6 C -0.1832(7) 0.1858(4) 0.12627(10)
H11 H -0.2968 0.1506 0.1372
C7 C -0.0061(7) 0.1224(4) 0.12594(11)
H12 H 0.0011 0.0449 0.1369
C8 C 0.1597(7) 0.1739(4) 0.10943(11)
H13 H 0.2796 0.1307 0.1086
C9 C 0.1491(6) 0.2880(4) 0.09434(10)
H14 H 0.2632 0.3224 0.0834
C10 C -0.0271(6) 0.3549(4) 0.09481(9)
C11 C -0.0316(6) 0.4846(4) 0.08208(9)
H15 H 0.0915 0.5255 0.0904
C12 C 0.1235(6) 0.5144(4) 0.02075(9)
C13 C 0.2359(6) 0.6164(4) 0.02708(10)
H16 H 0.1980 0.6723 0.0460
C14 C 0.4047(6) 0.6367(5) 0.00553(11)
H17 H 0.4798 0.7071 0.0095
C15 C 0.4628(7) 0.5548(5) -0.02156(12)
H18 H 0.5792 0.5680 -0.0358
C16 C 0.3506(7) 0.4536(5) -0.02787(12)
H19 H 0.3922 0.3974 -0.0464
C17 C 0.1758(7) 0.4315(4) -0.00749(10)
C18 C 0.0504(8) 0.3234(4) -0.01566(12)
H20 H -0.0814 0.3495 -0.0231
H21 H 0.0418 0.2734 0.0071
H22 H 0.1093 0.2771 -0.0363
loop_
_geom_bond_atom_site_label_1
_geom_bond_atom_site_label_2
_geom_bond_site_symmetry_1
_geom_bond_site_symmetry_2
S1 O4 1_555 1_555
O1 C4 1_555 1_555
O2 C11 1_555 1_555
O3 C19 1_555 1_555
O5 S1 1_555 1_555
O6 S1 1_555 1_555
N1 H1 1_555 1_555
H2 N1 1_555 1_555
C1 N1 1_555 1_555
H3 C1 1_555 1_555
H4 C1 1_555 1_555
H5 C1 1_555 1_555
C2 N1 1_555 1_555
H6 C2 1_555 1_555
H7 C2 1_555 1_555
C3 C2 1_555 1_555
H8 C3 1_555 1_555
C4 C3 1_555 1_555
H9 C4 1_555 1_555
H10 C4 1_555 1_555
C5 O1 1_555 1_555
C6 C5 1_555 1_555
H11 C6 1_555 1_555
C7 C6 1_555 1_555
H12 C7 1_555 1_555
C8 C7 1_555 1_555
H13 C8 1_555 1_555
C9 C8 1_555 1_555
H14 C9 1_555 1_555
C10 C5 1_555 1_555
C11 C3 1_555 1_555
H15 C11 1_555 1_555
C12 O2 1_555 1_555
C13 C12 1_555 1_555
H16 C13 1_555 1_555
C14 C13 1_555 1_555
H17 C14 1_555 1_555
C15 C14 1_555 1_555
H18 C15 1_555 1_555
C16 C15 1_555 1_555
H19 C16 1_555 1_555
C17 C12 1_555 1_555
C18 C17 1_555 1_555
H20 C18 1_555 1_555
H21 C18 1_555 1_555
H22 C18 1_555 1_555
C19 C20 1_555 1_555
C20 H23 1_555 1_555
H24 C20 1_555 1_555
C21 C20 1_555 1_555
H25 C21 1_555 1_555
C22 C21 1_555 1_555
H26 C22 1_555 1_555
H27 C22 1_555 1_555
C23 C22 1_555 1_555
H28 C23 1_555 1_555
H29 C23 1_555 1_555
C24 C19 1_555 1_555
C25 S1 1_555 1_555
H30 C25 1_555 1_555
C26 C21 1_555 1_555
C27 C26 1_555 1_555
H31 C27 1_555 1_555
H32 C27 1_555 1_555
H33 C27 1_555 1_555
C28 C26 1_555 1_555
H34 C28 1_555 1_555
H35 C28 1_555 1_555
H36 C28 1_555 1_555
C9 C10 1_555 1_555
C10 C11 1_555 1_555
C16 C17 1_555 1_555
C23 C24 1_555 1_555
C24 C25 1_555 1_555
C24 C26 1_555 1_555

#END
