
#######################################################################
#
#                 Cambridge Crystallographic Data Centre
#                                CCDC 
#
#######################################################################
#
# If this CIF has been generated from an entry in the Cambridge 
# Structural Database, then it will include bibliographic, chemical, 
# crystal, experimental, refinement or atomic coordinate data resulting 
# from the CCDC's data processing and validation procedures.
#
#######################################################################

data_JOHWOT
_chemical_formula_moiety         'C18 H22 N1 O2 1+,Cl1 1-'
_chemical_name_systematic        
'(R,R)-N-Methyl-(4-(2-methylphenoxy)-3,4-dihydro-2H-chromen-3-yl)methanaminium chloride'
_chemical_properties_biological  'Norepinephrine reuptake inhibitor'
_symmetry_cell_setting           monoclinic
_symmetry_space_group_name_H-M   'P 21'
_symmetry_Int_Tables_number      4
_space_group_name_Hall           'P 2yb'
loop_
_symmetry_equiv_pos_site_id
_symmetry_equiv_pos_as_xyz
1 x,y,z
2 -x,1/2+y,-z
_cell_length_a                   8.092(2)
_cell_length_b                   7.2049(18)
_cell_length_c                   15.128(4)
_cell_angle_alpha                90
_cell_angle_beta                 94.027(4)
_cell_angle_gamma                90
_cell_volume                     879.816
_exptl_crystal_colour            colorless
_exptl_crystal_description       blade
_cell_formula_units_Z            2
loop_
_atom_site_label
_atom_site_type_symbol
_atom_site_fract_x
_atom_site_fract_y
_atom_site_fract_z
Cl1 Cl 0.70526(6) 0.94430(7) 0.47813(4)
O1 O 1.07054(19) 0.6389(2) 0.31054(10)
O2 O 0.76525(16) 0.3096(2) 0.23161(8)
N1 N 0.6608(2) 0.5182(2) 0.48210(10)
H1 H 0.6828 0.6408 0.4744
H2 H 0.5517 0.5079 0.4923
C1 C 0.7612(3) 0.4513(4) 0.56155(13)
H3 H 0.7238 0.5112 0.6140
H4 H 0.8769 0.4809 0.5558
H5 H 0.7486 0.3179 0.5668
C2 C 0.6902(2) 0.4177(3) 0.39844(12)
H6 H 0.6145 0.4669 0.3507
H7 H 0.6632 0.2863 0.4060
C3 C 0.8666(2) 0.4322(3) 0.37045(11)
H8 H 0.9442 0.4102 0.4230
C4 C 0.9023(2) 0.6217(3) 0.33267(14)
H9 H 0.8286 0.6427 0.2794
H10 H 0.8788 0.7172 0.3761
C5 C 1.1366(3) 0.4895(3) 0.27064(14)
C6 C 1.2897(3) 0.5199(4) 0.23540(15)
H11 H 1.3403 0.6373 0.2398
C7 C 1.3649(3) 0.3764(5) 0.19448(15)
H12 H 1.4676 0.3965 0.1707
C8 C 1.2931(3) 0.2031(5) 0.18743(15)
H13 H 1.3459 0.1064 0.1587
C9 C 1.1421(3) 0.1728(4) 0.22319(14)
H14 H 1.0934 0.0543 0.2195
C10 C 1.0625(2) 0.3162(3) 0.26443(12)
C11 C 0.8966(2) 0.2864(3) 0.30118(12)
H15 H 0.8912 0.1608 0.3273
C12 C 0.7418(2) 0.1640(3) 0.17234(13)
C13 C 0.6846(3) -0.0051(3) 0.20018(15)
H16 H 0.6697 -0.0249 0.2605
C14 C 0.6493(3) -0.1448(4) 0.13980(18)
H17 H 0.6117 -0.2606 0.1588
C15 C 0.6692(4) -0.1142(4) 0.05132(17)
H18 H 0.6432 -0.2080 0.0094
C16 C 0.7271(4) 0.0538(4) 0.02486(17)
H19 H 0.7414 0.0726 -0.0356
C17 C 0.7656(3) 0.1974(3) 0.08379(14)
C18 C 0.8293(4) 0.3817(4) 0.05374(17)
H20 H 0.9256 0.4175 0.0917
H21 H 0.7435 0.4749 0.0571
H22 H 0.8598 0.3714 -0.0069
loop_
_geom_bond_atom_site_label_1
_geom_bond_atom_site_label_2
_geom_bond_site_symmetry_1
_geom_bond_site_symmetry_2
O1 C4 1_555 1_555
O2 C11 1_555 1_555
N1 H1 1_555 1_555
H2 N1 1_555 1_555
C1 N1 1_555 1_555
H3 C1 1_555 1_555
H4 C1 1_555 1_555
H5 C1 1_555 1_555
C2 N1 1_555 1_555
H6 C2 1_555 1_555
H7 C2 1_555 1_555
C3 C2 1_555 1_555
H8 C3 1_555 1_555
C4 C3 1_555 1_555
H9 C4 1_555 1_555
H10 C4 1_555 1_555
C5 O1 1_555 1_555
C6 C5 1_555 1_555
H11 C6 1_555 1_555
C7 C6 1_555 1_555
H12 C7 1_555 1_555
C8 C7 1_555 1_555
H13 C8 1_555 1_555
C9 C8 1_555 1_555
H14 C9 1_555 1_555
C10 C5 1_555 1_555
C11 C3 1_555 1_555
H15 C11 1_555 1_555
C12 O2 1_555 1_555
C13 C12 1_555 1_555
H16 C13 1_555 1_555
C14 C13 1_555 1_555
H17 C14 1_555 1_555
C15 C14 1_555 1_555
H18 C15 1_555 1_555
C16 C15 1_555 1_555
H19 C16 1_555 1_555
C17 C12 1_555 1_555
C18 C17 1_555 1_555
H20 C18 1_555 1_555
H21 C18 1_555 1_555
H22 C18 1_555 1_555
C9 C10 1_555 1_555
C10 C11 1_555 1_555
C16 C17 1_555 1_555

#END
