
#######################################################################
#
#                 Cambridge Crystallographic Data Centre
#                                CCDC 
#
#######################################################################
#
# If this CIF has been generated from an entry in the Cambridge 
# Structural Database, then it will include bibliographic, chemical, 
# crystal, experimental, refinement or atomic coordinate data resulting 
# from the CCDC's data processing and validation procedures.
#
#######################################################################

data_JOJLUR
_chemical_formula_moiety         'C38 H22 S4'
_chemical_name_systematic        
7,16-diphenyl[1,4]benzodithiino[2',3':6,7]naphtho[2,3-b]thianthrene
_symmetry_cell_setting           triclinic
_symmetry_space_group_name_H-M   'P -1'
_symmetry_Int_Tables_number      2
_space_group_name_Hall           '-P 1'
loop_
_symmetry_equiv_pos_site_id
_symmetry_equiv_pos_as_xyz
1 x,y,z
2 -x,-y,-z
_cell_length_a                   10.518(3)
_cell_length_b                   11.339(3)
_cell_length_c                   13.665(3)
_cell_angle_alpha                79.850(4)
_cell_angle_beta                 68.853(4)
_cell_angle_gamma                78.721(4)
_cell_volume                     1480.65
_exptl_crystal_colour            yellow
_exptl_crystal_description       Plate
_cell_formula_units_Z            2
loop_
_atom_site_label
_atom_site_type_symbol
_atom_site_fract_x
_atom_site_fract_y
_atom_site_fract_z
S1 S 0.00369(7) 0.57165(7) 0.30568(6)
S2 S -0.02700(7) 0.41288(8) 0.14379(6)
C1 C -0.0777(2) 0.4415(2) 0.3518(2)
C2 C -0.1335(3) 0.4094(3) 0.4594(2)
H1 H -0.1227 0.4540 0.5061
C3 C -0.2047(3) 0.3124(4) 0.4978(3)
H2 H -0.2442 0.2927 0.5703
C4 C -0.2175(3) 0.2449(3) 0.4294(3)
H3 H -0.2666 0.1797 0.4558
C5 C -0.1582(3) 0.2722(3) 0.3211(3)
H4 H -0.1641 0.2233 0.2754
C6 C -0.0901(2) 0.3724(2) 0.2813(2)
C7 C 0.1340(3) 0.4522(2) 0.12671(19)
C8 C 0.2438(2) 0.4225(2) 0.03990(19)
H5 H 0.2337 0.3760 -0.0058
C9 C 0.3735(2) 0.4608(2) 0.01723(17)
C10 C 0.3890(2) 0.5274(2) 0.09233(18)
C11 C 0.2714(2) 0.5531(2) 0.18361(18)
H6 H 0.2803 0.5937 0.2338
C12 C 0.1481(3) 0.5206(2) 0.19954(19)
C13 C 0.4848(2) 0.4352(2) -0.07507(17)
C14 C 0.4672(2) 0.3709(2) -0.15515(18)
C15 C 0.4131(4) 0.4325(3) -0.2294(3)
H7 H 0.3872 0.5158 -0.2303
C16 C 0.3954(4) 0.3739(5) -0.3041(3)
H8 H 0.3558 0.4178 -0.3527
C17 C 0.4352(4) 0.2547(4) -0.3059(3)
H9 H 0.4219 0.2149 -0.3546
C18 C 0.4948(6) 0.1931(3) -0.2365(3)
H10 H 0.5258 0.1107 -0.2394
C19 C 0.5112(5) 0.2500(3) -0.1605(3)
H11 H 0.5523 0.2054 -0.1131
S1A S 0.99631(7) 0.42835(7) -0.30568(6)
S2A S 1.02700(7) 0.58712(8) -0.14379(6)
C1A C 1.0777(2) 0.5585(2) -0.3518(2)
C2A C 1.1335(3) 0.5906(3) -0.4594(2)
H1A H 1.1227 0.5460 -0.5061
C3A C 1.2047(3) 0.6876(4) -0.4978(3)
H2A H 1.2442 0.7073 -0.5703
C4A C 1.2175(3) 0.7551(3) -0.4294(3)
H3A H 1.2666 0.8203 -0.4558
C5A C 1.1582(3) 0.7278(3) -0.3211(3)
H4A H 1.1641 0.7767 -0.2754
C6A C 1.0901(2) 0.6276(2) -0.2813(2)
C7A C 0.8660(3) 0.5478(2) -0.12671(19)
C8A C 0.7562(2) 0.5775(2) -0.03990(19)
H5A H 0.7663 0.6240 0.0058
C9A C 0.6265(2) 0.5392(2) -0.01723(17)
C10A C 0.6110(2) 0.4726(2) -0.09233(18)
C11A C 0.7286(2) 0.4469(2) -0.18361(18)
H6A H 0.7197 0.4063 -0.2338
C12A C 0.8519(3) 0.4794(2) -0.19954(19)
C13A C 0.5152(2) 0.5648(2) 0.07507(17)
C14A C 0.5328(2) 0.6291(2) 0.15515(18)
C15A C 0.5869(4) 0.5675(3) 0.2294(3)
H7A H 0.6128 0.4842 0.2303
C16A C 0.6046(4) 0.6261(5) 0.3041(3)
H8A H 0.6442 0.5822 0.3527
C17A C 0.5648(4) 0.7453(4) 0.3059(3)
H9A H 0.5781 0.7851 0.3546
C18A C 0.5052(6) 0.8069(3) 0.2365(3)
H10A H 0.4742 0.8893 0.2394
C19A C 0.4888(5) 0.7500(3) 0.1605(3)
H11A H 0.4477 0.7946 0.1131
S3 S 1.21833(9) 1.07560(7) 0.07476(5)
S4 S 0.98309(9) 0.90553(8) 0.13080(6)
C20 C 1.2500(3) 0.9439(3) 0.0143(2)
C21 C 1.3772(4) 0.9146(3) -0.0612(2)
H12 H 1.4468 0.9612 -0.0755
C22 C 1.4006(5) 0.8167(4) -0.1151(3)
H13 H 1.4858 0.7977 -0.1664
C23 C 1.2992(6) 0.7471(4) -0.0937(3)
H14 H 1.3149 0.6822 -0.1318
C24 C 1.1746(5) 0.7722(3) -0.0163(3)
H15 H 1.1075 0.7224 -0.0003
C25 C 1.1480(3) 0.8710(3) 0.0379(2)
C26 C 1.0242(3) 0.9500(2) 0.23152(19)
C27 C 0.9487(3) 0.9197(2) 0.33410(19)
H16 H 0.8801 0.8718 0.3493
C28 C 0.9716(2) 0.9590(2) 0.41908(18)
C29 C 1.0816(2) 1.0288(2) 0.39452(19)
C30 C 1.1584(3) 1.0582(2) 0.28570(19)
H17 H 1.2303 1.1031 0.2682
C31 C 1.1298(3) 1.0228(2) 0.20704(19)
C32 C 0.8897(2) 0.9321(2) 0.52482(18)
C33 C 0.7699(2) 0.8657(2) 0.55200(18)
C34 C 0.7846(3) 0.7421(3) 0.5572(3)
H18 H 0.8721 0.6973 0.5423
C35 C 0.6712(3) 0.6831(3) 0.5844(3)
H19 H 0.6839 0.5992 0.5876
C36 C 0.5429(3) 0.7448(3) 0.6061(2)
H20 H 0.4675 0.7044 0.6234
C37 C 0.5256(3) 0.8679(3) 0.6022(3)
H21 H 0.4376 0.9118 0.6176
C38 C 0.6382(3) 0.9275(3) 0.5756(2)
H22 H 0.6246 1.0113 0.5736
S3A S 0.78167(9) 0.92440(7) 0.92524(5)
S4A S 1.01691(9) 1.09447(8) 0.86920(6)
C20A C 0.7500(3) 1.0561(3) 0.9857(2)
C21A C 0.6228(4) 1.0854(3) 1.0612(2)
H12A H 0.5532 1.0388 1.0755
C22A C 0.5994(5) 1.1833(4) 1.1151(3)
H13A H 0.5142 1.2023 1.1664
C23A C 0.7008(6) 1.2529(4) 1.0937(3)
H14A H 0.6851 1.3178 1.1318
C24A C 0.8254(5) 1.2278(3) 1.0163(3)
H15A H 0.8925 1.2776 1.0003
C25A C 0.8520(3) 1.1290(3) 0.9621(2)
C26A C 0.9758(3) 1.0500(2) 0.76848(19)
C27A C 1.0513(3) 1.0803(2) 0.66590(19)
H16A H 1.1199 1.1282 0.6507
C28A C 1.0284(2) 1.0410(2) 0.58092(18)
C29A C 0.9184(2) 0.9712(2) 0.60548(19)
C30A C 0.8416(3) 0.9418(2) 0.71430(19)
H17A H 0.7697 0.8969 0.7318
C31A C 0.8702(3) 0.9772(2) 0.79296(19)
C32A C 1.1103(2) 1.0679(2) 0.47518(18)
C33A C 1.2301(2) 1.1343(2) 0.44800(18)
C34A C 1.2154(3) 1.2579(3) 0.4428(3)
H18A H 1.1279 1.3027 0.4577
C35A C 1.3288(3) 1.3169(3) 0.4156(3)
H19A H 1.3161 1.4008 0.4124
C36A C 1.4571(3) 1.2552(3) 0.3939(2)
H20A H 1.5325 1.2956 0.3766
C37A C 1.4744(3) 1.1321(3) 0.3978(3)
H21A H 1.5624 1.0882 0.3824
C38A C 1.3618(3) 1.0725(3) 0.4244(2)
H22A H 1.3754 0.9887 0.4264
loop_
_geom_bond_atom_site_label_1
_geom_bond_atom_site_label_2
_geom_bond_site_symmetry_1
_geom_bond_site_symmetry_2
S1 C1 1_555 1_555
S2 C6 1_555 1_555
C1 C2 1_555 1_555
C2 H1 1_555 1_555
C3 C2 1_555 1_555
H2 C3 1_555 1_555
C4 C3 1_555 1_555
H3 C4 1_555 1_555
C5 C4 1_555 1_555
H4 C5 1_555 1_555
C6 C1 1_555 1_555
C7 S2 1_555 1_555
C8 C7 1_555 1_555
H5 C8 1_555 1_555
C9 C8 1_555 1_555
C10 C9 1_555 1_555
C11 C10 1_555 1_555
H6 C11 1_555 1_555
C12 S1 1_555 1_555
C13 C9 1_555 1_555
C14 C13 1_555 1_555
C15 C14 1_555 1_555
H7 C15 1_555 1_555
C16 C15 1_555 1_555
H8 C16 1_555 1_555
C17 C16 1_555 1_555
H9 C17 1_555 1_555
C18 C17 1_555 1_555
H10 C18 1_555 1_555
C19 C14 1_555 1_555
H11 C19 1_555 1_555
S3 C20 1_555 1_555
S4 C25 1_555 1_555
C20 C21 1_555 1_555
C21 H12 1_555 1_555
C22 C21 1_555 1_555
H13 C22 1_555 1_555
C23 C22 1_555 1_555
H14 C23 1_555 1_555
C24 C23 1_555 1_555
H15 C24 1_555 1_555
C25 C20 1_555 1_555
C26 S4 1_555 1_555
C27 C26 1_555 1_555
H16 C27 1_555 1_555
C28 C27 1_555 1_555
C29 C28 1_555 1_555
C30 C29 1_555 1_555
H17 C30 1_555 1_555
C31 S3 1_555 1_555
C32 C28 1_555 1_555
C33 C32 1_555 1_555
C34 C33 1_555 1_555
H18 C34 1_555 1_555
C35 C34 1_555 1_555
H19 C35 1_555 1_555
C36 C35 1_555 1_555
H20 C36 1_555 1_555
C37 C36 1_555 1_555
H21 C37 1_555 1_555
C38 C33 1_555 1_555
H22 C38 1_555 1_555
S1A C1A 1_555 1_555
S2A C6A 1_555 1_555
C1A C2A 1_555 1_555
C2A H1A 1_555 1_555
C3A C2A 1_555 1_555
H2A C3A 1_555 1_555
C4A C3A 1_555 1_555
H3A C4A 1_555 1_555
C5A C4A 1_555 1_555
H4A C5A 1_555 1_555
C6A C1A 1_555 1_555
C7A S2A 1_555 1_555
C8A C7A 1_555 1_555
H5A C8A 1_555 1_555
C9A C8A 1_555 1_555
C10A C13 1_555 1_555
C11A C10A 1_555 1_555
H6A C11A 1_555 1_555
C12A S1A 1_555 1_555
C13A C10 1_555 1_555
C14A C13A 1_555 1_555
C15A C14A 1_555 1_555
H7A C15A 1_555 1_555
C16A C15A 1_555 1_555
H8A C16A 1_555 1_555
C17A C16A 1_555 1_555
H9A C17A 1_555 1_555
C18A C17A 1_555 1_555
H10A C18A 1_555 1_555
C19A C14A 1_555 1_555
H11A C19A 1_555 1_555
S3A C20A 1_555 1_555
S4A C25A 1_555 1_555
C20A C21A 1_555 1_555
C21A H12A 1_555 1_555
C22A C21A 1_555 1_555
H13A C22A 1_555 1_555
C23A C22A 1_555 1_555
H14A C23A 1_555 1_555
C24A C23A 1_555 1_555
H15A C24A 1_555 1_555
C25A C20A 1_555 1_555
C26A S4A 1_555 1_555
C27A C26A 1_555 1_555
H16A C27A 1_555 1_555
C28A C27A 1_555 1_555
C29A C32 1_555 1_555
C30A C29A 1_555 1_555
H17A C30A 1_555 1_555
C31A S3A 1_555 1_555
C32A C29 1_555 1_555
C33A C32A 1_555 1_555
C34A C33A 1_555 1_555
H18A C34A 1_555 1_555
C35A C34A 1_555 1_555
H19A C35A 1_555 1_555
C36A C35A 1_555 1_555
H20A C36A 1_555 1_555
C37A C36A 1_555 1_555
H21A C37A 1_555 1_555
C38A C33A 1_555 1_555
H22A C38A 1_555 1_555
C5 C6 1_555 1_555
C7 C12 1_555 1_555
C11 C12 1_555 1_555
C18 C19 1_555 1_555
C24 C25 1_555 1_555
C26 C31 1_555 1_555
C30 C31 1_555 1_555
C37 C38 1_555 1_555
C5A C6A 1_555 1_555
C7A C12A 1_555 1_555
C9A C10A 1_555 1_555
C9A C13A 1_555 1_555
C11A C12A 1_555 1_555
C18A C19A 1_555 1_555
C24A C25A 1_555 1_555
C26A C31A 1_555 1_555
C28A C29A 1_555 1_555
C28A C32A 1_555 1_555
C30A C31A 1_555 1_555
C37A C38A 1_555 1_555

#END
