
#######################################################################
#
#                 Cambridge Crystallographic Data Centre
#                                CCDC 
#
#######################################################################
#
# If this CIF has been generated from an entry in the Cambridge 
# Structural Database, then it will include bibliographic, chemical, 
# crystal, experimental, refinement or atomic coordinate data resulting 
# from the CCDC's data processing and validation procedures.
#
#######################################################################

data_JOJWEL
_chemical_formula_moiety         'C12 H17 N4 O1 1+,Cl1 1-,H2 O1'
_chemical_name_systematic        
'1-(6-Methoxy-3-pyridazinyl)-3-n-butylimidazolium chloride monohydrate'
_symmetry_cell_setting           monoclinic
_symmetry_space_group_name_H-M   'P 21/c'
_symmetry_Int_Tables_number      14
_space_group_name_Hall           '-P 2ybc'
loop_
_symmetry_equiv_pos_site_id
_symmetry_equiv_pos_as_xyz
1 x,y,z
2 -x,1/2+y,1/2-z
3 -x,-y,-z
4 x,1/2-y,1/2+z
_cell_length_a                   5.0761(8)
_cell_length_b                   14.6843(16)
_cell_length_c                   21.131(2)
_cell_angle_alpha                90
_cell_angle_beta                 98.605(3)
_cell_angle_gamma                90
_cell_volume                     1557.35
_exptl_crystal_colour            colorless
_exptl_crystal_description       prism
_cell_formula_units_Z            4
loop_
_atom_site_label
_atom_site_type_symbol
_atom_site_fract_x
_atom_site_fract_y
_atom_site_fract_z
O1 O 0.5857(15) 0.8096(4) 1.0639(3)
N1 N 0.5206(12) 0.5228(4) 0.9009(3)
N2 N 0.4067(14) 0.4349(4) 0.8185(3)
N3 N 0.7276(14) 0.6017(4) 0.9895(3)
N4 N 0.7513(14) 0.6739(5) 1.0320(3)
C1 C 0.3382(16) 0.5106(5) 0.8466(4)
H1 H 0.1940 0.5481 0.8322
C2 C 0.6361(18) 0.3992(5) 0.8519(4)
H2 H 0.7240 0.3472 0.8411
C3 C 0.7125(16) 0.4539(5) 0.9040(4)
H3 H 0.8613 0.4467 0.9351
C4 C 0.5244(17) 0.6004(5) 0.9424(4)
C5 C 0.3238(17) 0.6673(6) 0.9322(4)
H4 H 0.1816 0.6634 0.8990
C6 C 0.352(2) 0.7378(6) 0.9740(4)
H5 H 0.2280 0.7850 0.9699
C7 C 0.566(2) 0.7386(6) 1.0226(4)
C8 C 0.801(3) 0.8115(7) 1.1161(5)
H6 H 0.7913 0.7587 1.1425
H7 H 0.7875 0.8654 1.1411
H8 H 0.9672 0.8117 1.0998
C9 C 0.2643(18) 0.3999(6) 0.7568(4)
H9 H 0.0748 0.4106 0.7551
H10 H 0.2917 0.3346 0.7548
C10 C 0.359(3) 0.4449(7) 0.6990(4)
H11 H 0.5472 0.4328 0.7000
H12 H 0.3357 0.5103 0.7016
C11 C 0.205(3) 0.4102(7) 0.6352(4)
H13 H 0.2329 0.3451 0.6323
H14 H 0.0163 0.4204 0.6351
C12 C 0.286(3) 0.4546(10) 0.5784(5)
H15 H 0.2334 0.5174 0.5774
H16 H 0.2004 0.4246 0.5404
H17 H 0.4755 0.4505 0.5805
O2 O 0.2554(15) 0.7329(7) 0.7353(4)
H18 H 0.4014 0.7079 0.7512
H19 H 0.1298 0.7077 0.7513
Cl1 Cl 0.7941(5) 0.64010(17) 0.79459(10)
loop_
_geom_bond_atom_site_label_1
_geom_bond_atom_site_label_2
_geom_bond_site_symmetry_1
_geom_bond_site_symmetry_2
O1 C7 1_555 1_555
N1 C1 1_555 1_555
N2 C1 1_555 1_555
N3 N4 1_555 1_555
N4 C7 1_555 1_555
C1 H1 1_555 1_555
C2 N2 1_555 1_555
H2 C2 1_555 1_555
C3 N1 1_555 1_555
H3 C3 1_555 1_555
C4 N1 1_555 1_555
C5 C4 1_555 1_555
H4 C5 1_555 1_555
C6 C5 1_555 1_555
H5 C6 1_555 1_555
C7 C6 1_555 1_555
C8 O1 1_555 1_555
H6 C8 1_555 1_555
H7 C8 1_555 1_555
H8 C8 1_555 1_555
C9 N2 1_555 1_555
H9 C9 1_555 1_555
H10 C9 1_555 1_555
C10 C9 1_555 1_555
H11 C10 1_555 1_555
H12 C10 1_555 1_555
C11 C10 1_555 1_555
H13 C11 1_555 1_555
H14 C11 1_555 1_555
C12 C11 1_555 1_555
H15 C12 1_555 1_555
H16 C12 1_555 1_555
H17 C12 1_555 1_555
O2 H18 1_555 1_555
H19 O2 1_555 1_555
N3 C4 1_555 1_555
C2 C3 1_555 1_555

#END
