
#######################################################################
#
#                 Cambridge Crystallographic Data Centre
#                                CCDC 
#
#######################################################################
#
# If this CIF has been generated from an entry in the Cambridge 
# Structural Database, then it will include bibliographic, chemical, 
# crystal, experimental, refinement or atomic coordinate data resulting 
# from the CCDC's data processing and validation procedures.
#
#######################################################################

data_JOJXIQ
_chemical_formula_moiety         'C22 H16 O2'
_chemical_name_systematic        
2-(9H-Fluoren-9-ylidene)-1-(4-methoxyphenyl)ethanone
_symmetry_cell_setting           monoclinic
_symmetry_space_group_name_H-M   'P 21/c'
_symmetry_Int_Tables_number      14
_space_group_name_Hall           '-P 2ybc'
loop_
_symmetry_equiv_pos_site_id
_symmetry_equiv_pos_as_xyz
1 x,y,z
2 -x,1/2+y,1/2-z
3 -x,-y,-z
4 x,1/2-y,1/2+z
_cell_length_a                   22.353(3)
_cell_length_b                   4.2632(6)
_cell_length_c                   16.519(2)
_cell_angle_alpha                90
_cell_angle_beta                 94.393(2)
_cell_angle_gamma                90
_cell_volume                     1569.56
_exptl_crystal_colour            yellow
_exptl_crystal_description       lath
_cell_formula_units_Z            4
_exptl_crystal_recrystallization_method 'diethyl ether/pentane'
loop_
_atom_site_label
_atom_site_type_symbol
_atom_site_fract_x
_atom_site_fract_y
_atom_site_fract_z
C1 C 0.36575(8) 0.1535(4) 0.28239(10)
H1 H 0.3388 0.1259 0.2372
C2 C 0.42218(8) 0.0184(4) 0.28527(11)
H2 H 0.4334 -0.0976 0.2412
C3 C 0.46198(8) 0.0538(4) 0.35265(11)
H3 H 0.4998 -0.0381 0.3536
C4 C 0.44618(8) 0.2245(4) 0.41877(10)
H4 H 0.4728 0.2453 0.4646
C5 C 0.39058(7) 0.3634(4) 0.41590(9)
C6 C 0.36260(7) 0.5619(4) 0.47482(9)
C7 C 0.38479(8) 0.6641(4) 0.55049(10)
H5 H 0.4223 0.5979 0.5723
C8 C 0.35070(9) 0.8659(4) 0.59332(11)
H6 H 0.3652 0.9363 0.6444
C9 C 0.29542(8) 0.9630(4) 0.56061(10)
H7 H 0.2734 1.1040 0.5894
C10 C 0.27181(8) 0.8560(4) 0.48600(10)
H8 H 0.2340 0.9206 0.4652
C11 C 0.30543(7) 0.6500(4) 0.44235(9)
C12 C 0.29407(7) 0.5015(4) 0.36150(9)
C13 C 0.35011(7) 0.3299(4) 0.34762(9)
C14 C 0.24621(7) 0.5115(4) 0.30746(10)
H9 H 0.2508 0.4182 0.2574
C15 C 0.18696(8) 0.6532(5) 0.31790(11)
O1 O 0.16518(6) 0.6368(4) 0.38379(8)
C16 C 0.15389(7) 0.8078(4) 0.24841(10)
C17 C 0.17714(7) 0.8528(4) 0.17431(10)
H10 H 0.2158 0.7831 0.1674
C18 C 0.14514(7) 0.9971(4) 0.11012(11)
H11 H 0.1620 1.0235 0.0608
C19 C 0.08792(8) 1.1017(4) 0.11977(11)
O2 O 0.05158(6) 1.2444(4) 0.06172(8)
C20 C 0.07290(10) 1.2897(6) -0.01628(12)
H12 H 0.1080 1.4200 -0.0115
H13 H 0.0423 1.3895 -0.0513
H14 H 0.0828 1.0904 -0.0388
C21 C 0.06381(8) 1.0618(5) 0.19414(12)
H15 H 0.0252 1.1331 0.2011
C22 C 0.09622(8) 0.9192(5) 0.25681(12)
H16 H 0.0795 0.8957 0.3063
loop_
_geom_bond_atom_site_label_1
_geom_bond_atom_site_label_2
_geom_bond_site_symmetry_1
_geom_bond_site_symmetry_2
C1 H1 1_555 1_555
C2 C1 1_555 1_555
H2 C2 1_555 1_555
C3 C2 1_555 1_555
H3 C3 1_555 1_555
C4 C3 1_555 1_555
H4 C4 1_555 1_555
C5 C4 1_555 1_555
C6 C5 1_555 1_555
C7 C6 1_555 1_555
H5 C7 1_555 1_555
C8 C7 1_555 1_555
H6 C8 1_555 1_555
C9 C8 1_555 1_555
H7 C9 1_555 1_555
C10 C9 1_555 1_555
H8 C10 1_555 1_555
C11 C6 1_555 1_555
C12 C11 1_555 1_555
C13 C1 1_555 1_555
C14 C12 1_555 1_555
H9 C14 1_555 1_555
C15 C14 1_555 1_555
O1 C15 1_555 1_555
C16 C15 1_555 1_555
C17 C16 1_555 1_555
H10 C17 1_555 1_555
C18 C17 1_555 1_555
H11 C18 1_555 1_555
C19 C18 1_555 1_555
O2 C19 1_555 1_555
C20 O2 1_555 1_555
H12 C20 1_555 1_555
H13 C20 1_555 1_555
H14 C20 1_555 1_555
C21 C19 1_555 1_555
H15 C21 1_555 1_555
C22 C16 1_555 1_555
H16 C22 1_555 1_555
C5 C13 1_555 1_555
C10 C11 1_555 1_555
C12 C13 1_555 1_555
C21 C22 1_555 1_555

#END
