
#######################################################################
#
#                 Cambridge Crystallographic Data Centre
#                                CCDC 
#
#######################################################################
#
# If this CIF has been generated from an entry in the Cambridge 
# Structural Database, then it will include bibliographic, chemical, 
# crystal, experimental, refinement or atomic coordinate data resulting 
# from the CCDC's data processing and validation procedures.
#
#######################################################################

data_JOJXEN
_chemical_compound_source        'aerial parts of Hypericum henryi'
_chemical_formula_moiety         'C34 H54 O4'
_chemical_name_systematic        
2-Hydroxy-4-isobutyryl-5-methyl-2,6,8-tris(3-methylbut-2-en-1-yl)-5-(4-methylpent-3-en-1-yl)cyclooctane-1,3-dione
_symmetry_cell_setting           orthorhombic
_symmetry_space_group_name_H-M   'P 21 21 21'
_symmetry_Int_Tables_number      19
_space_group_name_Hall           'P 2ac 2ab'
loop_
_symmetry_equiv_pos_site_id
_symmetry_equiv_pos_as_xyz
1 x,y,z
2 1/2+x,1/2-y,-z
3 -x,1/2+y,1/2-z
4 1/2-x,-y,1/2+z
_cell_length_a                   9.3781(2)
_cell_length_b                   12.6568(3)
_cell_length_c                   27.0482(6)
_cell_angle_alpha                90
_cell_angle_beta                 90
_cell_angle_gamma                90
_cell_volume                     3210.53
_exptl_crystal_colour            colorless
_exptl_crystal_description       block
_cell_formula_units_Z            4
loop_
_atom_site_label
_atom_site_type_symbol
_atom_site_fract_x
_atom_site_fract_y
_atom_site_fract_z
O1 O 0.4077(2) 0.45542(15) 0.79580(7)
H1 H 0.3809 0.5162 0.8041
O2 O 0.1746(2) 0.53315(15) 0.83505(7)
O3 O -0.0311(2) 0.29865(16) 0.91004(8)
O4 O 0.2611(2) 0.21577(15) 0.76894(7)
C1 C -0.3074(5) 0.1023(4) 0.89809(15)
H2 H -0.2186 0.1425 0.8949
H3 H -0.2855 0.0299 0.9086
H4 H -0.3689 0.1360 0.9228
C2 C -0.3816(3) 0.0998(2) 0.84981(12)
C3 C -0.3329(3) 0.1455(2) 0.80885(11)
H5 H -0.3911 0.1395 0.7803
C4 C -0.1963(3) 0.2054(2) 0.80294(11)
H6 H -0.1545 0.1887 0.7702
H7 H -0.1280 0.1819 0.8286
C5 C -0.2168(3) 0.3258(2) 0.80715(10)
H8 H -0.2443 0.3420 0.8417
H9 H -0.2981 0.3459 0.7858
C6 C -0.0887(3) 0.3968(2) 0.79341(9)
C7 C 0.0330(3) 0.37374(19) 0.83311(9)
H10 H 0.0622 0.2986 0.8277
C8 C 0.1670(3) 0.4388(2) 0.82633(9)
C9 C 0.3024(3) 0.3803(2) 0.80989(10)
C10 C 0.3577(3) 0.3112(2) 0.85273(10)
H11 H 0.2818 0.2609 0.8624
H12 H 0.4401 0.2695 0.8409
C11 C 0.4023(3) 0.3729(2) 0.89764(10)
H13 H 0.4503 0.4377 0.8917
C12 C 0.3822(3) 0.3468(2) 0.94441(11)
C13 C 0.3016(5) 0.2502(3) 0.96197(12)
H14 H 0.2580 0.2146 0.9336
H15 H 0.2270 0.2717 0.9852
H16 H 0.3677 0.2017 0.9785
C14 C -0.5200(4) 0.0411(2) 0.84977(14)
H17 H -0.5638 0.0460 0.8170
H18 H -0.5841 0.0722 0.8744
H19 H -0.5028 -0.0332 0.8579
C15 C -0.1385(3) 0.5128(2) 0.79511(10)
H20 H -0.2063 0.5257 0.7682
H21 H -0.0559 0.5596 0.7913
H22 H -0.1848 0.5269 0.8269
C16 C -0.0328(3) 0.3678(2) 0.74022(10)
H23 H -0.0042 0.2917 0.7410
C17 C 0.0985(3) 0.4314(2) 0.72221(10)
H24 H 0.1163 0.4895 0.7459
H25 H 0.0749 0.4640 0.6899
C18 C 0.2384(3) 0.3669(2) 0.71622(10)
H26 H 0.3180 0.4179 0.7103
C19 C 0.2329(3) 0.2906(2) 0.67236(10)
H27 H 0.1655 0.2329 0.6803
H28 H 0.1949 0.3289 0.6433
C20 C 0.3735(4) 0.2431(2) 0.65883(11)
H29 H 0.4248 0.2088 0.6845
C21 C 0.4337(4) 0.2442(2) 0.61442(12)
C22 C 0.3729(5) 0.2944(3) 0.56892(12)
H30 H 0.2797 0.3253 0.5767
H31 H 0.3618 0.2408 0.5431
H32 H 0.4375 0.3500 0.5573
C23 C 0.5767(4) 0.1935(3) 0.60652(14)
H33 H 0.6166 0.1723 0.6385
H34 H 0.6410 0.2441 0.5905
H35 H 0.5657 0.1311 0.5854
C24 C 0.2686(3) 0.3095(2) 0.76465(10)
C25 C -0.0184(3) 0.3799(2) 0.88694(10)
C26 C -0.0479(3) 0.4858(2) 0.91249(10)
H36 H -0.0358 0.5445 0.8881
C27 C -0.2022(4) 0.4868(3) 0.93255(13)
H37 H -0.2160 0.4267 0.9548
H38 H -0.2693 0.4818 0.9049
H39 H -0.2190 0.5528 0.9506
C28 C 0.0588(4) 0.4998(3) 0.95464(12)
H40 H 0.0549 0.4380 0.9765
H41 H 0.0349 0.5634 0.9735
H42 H 0.1552 0.5067 0.9410
C29 C 0.4391(4) 0.4142(3) 0.98609(12)
H43 H 0.4914 0.4744 0.9724
H44 H 0.5032 0.3719 1.0067
H45 H 0.3594 0.4399 1.0062
C30 C -0.1546(3) 0.3784(3) 0.70137(10)
H46 H -0.2402 0.3412 0.7138
H47 H -0.1793 0.4540 0.6976
C31 C -0.1158(3) 0.3344(3) 0.65183(11)
H48 H -0.1028 0.2601 0.6502
C32 C -0.0973(4) 0.3872(3) 0.60962(11)
C33 C -0.1110(4) 0.5037(3) 0.60402(13)
H49 H -0.1411 0.5347 0.6355
H50 H -0.1822 0.5195 0.5786
H51 H -0.0188 0.5335 0.5943
C34 C -0.0610(5) 0.3319(4) 0.56209(14)
H52 H -0.0537 0.2557 0.5680
H53 H 0.0303 0.3584 0.5496
H54 H -0.1359 0.3454 0.5376
loop_
_geom_bond_atom_site_label_1
_geom_bond_atom_site_label_2
_geom_bond_site_symmetry_1
_geom_bond_site_symmetry_2
O1 H1 1_555 1_555
O2 C8 1_555 1_555
O3 C25 1_555 1_555
O4 C24 1_555 1_555
C1 H2 1_555 1_555
H3 C1 1_555 1_555
H4 C1 1_555 1_555
C2 C1 1_555 1_555
C3 C2 1_555 1_555
H5 C3 1_555 1_555
C4 C3 1_555 1_555
H6 C4 1_555 1_555
H7 C4 1_555 1_555
C5 C4 1_555 1_555
H8 C5 1_555 1_555
H9 C5 1_555 1_555
C6 C5 1_555 1_555
C7 C6 1_555 1_555
H10 C7 1_555 1_555
C8 C7 1_555 1_555
C9 O1 1_555 1_555
C10 C9 1_555 1_555
H11 C10 1_555 1_555
H12 C10 1_555 1_555
C11 C10 1_555 1_555
H13 C11 1_555 1_555
C12 C11 1_555 1_555
C13 C12 1_555 1_555
H14 C13 1_555 1_555
H15 C13 1_555 1_555
H16 C13 1_555 1_555
C14 C2 1_555 1_555
H17 C14 1_555 1_555
H18 C14 1_555 1_555
H19 C14 1_555 1_555
C15 C6 1_555 1_555
H20 C15 1_555 1_555
H21 C15 1_555 1_555
H22 C15 1_555 1_555
C16 C6 1_555 1_555
H23 C16 1_555 1_555
C17 C16 1_555 1_555
H24 C17 1_555 1_555
H25 C17 1_555 1_555
C18 C17 1_555 1_555
H26 C18 1_555 1_555
C19 C18 1_555 1_555
H27 C19 1_555 1_555
H28 C19 1_555 1_555
C20 C19 1_555 1_555
H29 C20 1_555 1_555
C21 C20 1_555 1_555
C22 C21 1_555 1_555
H30 C22 1_555 1_555
H31 C22 1_555 1_555
H32 C22 1_555 1_555
C23 C21 1_555 1_555
H33 C23 1_555 1_555
H34 C23 1_555 1_555
H35 C23 1_555 1_555
C24 C9 1_555 1_555
C25 C7 1_555 1_555
C26 C25 1_555 1_555
H36 C26 1_555 1_555
C27 C26 1_555 1_555
H37 C27 1_555 1_555
H38 C27 1_555 1_555
H39 C27 1_555 1_555
C28 C26 1_555 1_555
H40 C28 1_555 1_555
H41 C28 1_555 1_555
H42 C28 1_555 1_555
C29 C12 1_555 1_555
H43 C29 1_555 1_555
H44 C29 1_555 1_555
H45 C29 1_555 1_555
C30 C16 1_555 1_555
H46 C30 1_555 1_555
H47 C30 1_555 1_555
C31 C30 1_555 1_555
H48 C31 1_555 1_555
C32 C31 1_555 1_555
C33 C32 1_555 1_555
H49 C33 1_555 1_555
H50 C33 1_555 1_555
H51 C33 1_555 1_555
C34 C32 1_555 1_555
H52 C34 1_555 1_555
H53 C34 1_555 1_555
H54 C34 1_555 1_555
C8 C9 1_555 1_555
C18 C24 1_555 1_555

#END
