
#######################################################################
#
#                 Cambridge Crystallographic Data Centre
#                                CCDC 
#
#######################################################################
#
# If this CIF has been generated from an entry in the Cambridge 
# Structural Database, then it will include bibliographic, chemical, 
# crystal, experimental, refinement or atomic coordinate data resulting 
# from the CCDC's data processing and validation procedures.
#
#######################################################################

data_JOJYIS
_chemical_formula_moiety         'C24 H23 Br1 N2 O7'
_chemical_name_systematic        
'Methyl 2-bromo-7-(2-ethoxy-2-oxoethyl)-8-nitro-10-oxo-9-phenyl-6,7,8,9-tetrahydropyrido[1,2-a]indole-9a(10H)-carboxylate'
_symmetry_cell_setting           orthorhombic
_symmetry_space_group_name_H-M   'P 21 21 21'
_symmetry_Int_Tables_number      19
_space_group_name_Hall           'P 2ac 2ab'
loop_
_symmetry_equiv_pos_site_id
_symmetry_equiv_pos_as_xyz
1 x,y,z
2 1/2-x,-y,1/2+z
3 1/2+x,1/2-y,-z
4 -x,1/2+y,1/2-z
_cell_length_a                   9.6196(5)
_cell_length_b                   14.4057(12)
_cell_length_c                   17.108(9)
_cell_angle_alpha                90
_cell_angle_beta                 90
_cell_angle_gamma                90
_cell_volume                     2370.78
_exptl_crystal_colour            'light yellow'
_exptl_crystal_description       block
_cell_formula_units_Z            4
loop_
_atom_site_label
_atom_site_type_symbol
_atom_site_fract_x
_atom_site_fract_y
_atom_site_fract_z
Br1 Br -1.37636(9) -0.38125(6) 0.01272(4)
O1 O -1.0252(5) -0.1277(3) -0.1718(2)
O2 O -0.7306(5) -0.1726(3) -0.2637(3)
O3 O -0.7595(5) -0.3013(3) -0.1912(3)
O4 O -0.8920(7) -0.1371(4) -0.4942(3)
O5 O -0.7149(6) -0.2126(4) -0.4531(3)
O6 O -0.7529(6) -0.5653(3) -0.4854(3)
O7 O -0.6477(6) -0.4745(3) -0.3969(3)
N1 N -0.9971(5) -0.3451(3) -0.2649(3)
N2 N -0.8395(7) -0.1994(4) -0.4571(3)
C1 C -0.9540(7) -0.2482(4) -0.2632(3)
C2 C -1.0346(7) -0.2083(5) -0.1919(3)
C3 C -1.1107(7) -0.2845(4) -0.1595(3)
C4 C -1.1990(7) -0.2890(5) -0.0939(4)
H1 H -1.2149 -0.2370 -0.0630
C5 C -1.2606(6) -0.3721(5) -0.0770(4)
C6 C -1.2421(7) -0.4496(5) -0.1243(4)
H2 H -1.2879 -0.5045 -0.1119
C7 C -1.1569(6) -0.4466(4) -0.1895(4)
H3 H -1.1453 -0.4984 -0.2213
C8 C -1.0892(6) -0.3633(4) -0.2059(3)
C9 C -0.9636(7) -0.4044(4) -0.3307(3)
H4 H -1.0486 -0.4238 -0.3565
H5 H -0.9159 -0.4595 -0.3122
C10 C -0.8710(7) -0.3527(4) -0.3887(3)
H6 H -0.7818 -0.3395 -0.3634
C11 C -0.9394(7) -0.2605(4) -0.4106(3)
H7 H -1.0198 -0.2741 -0.4439
C12 C -0.9902(6) -0.1993(4) -0.3407(3)
H8 H -0.9384 -0.1408 -0.3424
C13 C -1.1449(7) -0.1759(4) -0.3446(3)
C14 C -1.1843(7) -0.0832(5) -0.3366(4)
H9 H -1.1168 -0.0371 -0.3335
C15 C -1.3236(8) -0.0597(5) -0.3332(4)
H10 H -1.3493 0.0022 -0.3277
C16 C -1.4230(7) -0.1263(6) -0.3379(4)
H11 H -1.5162 -0.1098 -0.3339
C17 C -1.3878(8) -0.2183(6) -0.3485(4)
H12 H -1.4560 -0.2636 -0.3537
C18 C -1.2477(7) -0.2413(5) -0.3511(4)
H13 H -1.2228 -0.3032 -0.3575
C19 C -0.8439(7) -0.4134(4) -0.4611(3)
H14 H -0.9322 -0.4374 -0.4795
H15 H -0.8063 -0.3742 -0.5021
C20 C -0.7467(8) -0.4938(5) -0.4492(4)
C21 C -0.5405(9) -0.5445(6) -0.3867(5)
H16 H -0.5070 -0.5656 -0.4372
H17 H -0.5773 -0.5975 -0.3585
C22 C -0.4252(8) -0.5006(6) -0.3416(5)
H18 H -0.3873 -0.4498 -0.3711
H19 H -0.3538 -0.5457 -0.3320
H20 H -0.4604 -0.4780 -0.2927
C23 C -0.8005(7) -0.2368(4) -0.2418(4)
C24 C -0.6226(8) -0.2882(6) -0.1567(5)
H21 H -0.5530 -0.2928 -0.1967
H22 H -0.6067 -0.3352 -0.1179
H23 H -0.6179 -0.2281 -0.1327
loop_
_geom_bond_atom_site_label_1
_geom_bond_atom_site_label_2
_geom_bond_site_symmetry_1
_geom_bond_site_symmetry_2
Br1 C5 1_555 1_555
O1 C2 1_555 1_555
O2 C23 1_555 1_555
O3 C23 1_555 1_555
O4 N2 1_555 1_555
O5 N2 1_555 1_555
O6 C20 1_555 1_555
O7 C20 1_555 1_555
N1 C1 1_555 1_555
N2 C11 1_555 1_555
C1 C2 1_555 1_555
C2 C3 1_555 1_555
C3 C4 1_555 1_555
C4 H1 1_555 1_555
C5 C4 1_555 1_555
C6 C5 1_555 1_555
H2 C6 1_555 1_555
C7 C6 1_555 1_555
H3 C7 1_555 1_555
C8 N1 1_555 1_555
C9 N1 1_555 1_555
H4 C9 1_555 1_555
H5 C9 1_555 1_555
C10 C9 1_555 1_555
H6 C10 1_555 1_555
C11 C10 1_555 1_555
H7 C11 1_555 1_555
C12 C1 1_555 1_555
H8 C12 1_555 1_555
C13 C12 1_555 1_555
C14 C13 1_555 1_555
H9 C14 1_555 1_555
C15 C14 1_555 1_555
H10 C15 1_555 1_555
C16 C15 1_555 1_555
H11 C16 1_555 1_555
C17 C16 1_555 1_555
H12 C17 1_555 1_555
C18 C13 1_555 1_555
H13 C18 1_555 1_555
C19 C10 1_555 1_555
H14 C19 1_555 1_555
H15 C19 1_555 1_555
C20 C19 1_555 1_555
C21 O7 1_555 1_555
H16 C21 1_555 1_555
H17 C21 1_555 1_555
C22 C21 1_555 1_555
H18 C22 1_555 1_555
H19 C22 1_555 1_555
H20 C22 1_555 1_555
C23 C1 1_555 1_555
C24 O3 1_555 1_555
H21 C24 1_555 1_555
H22 C24 1_555 1_555
H23 C24 1_555 1_555
C3 C8 1_555 1_555
C7 C8 1_555 1_555
C11 C12 1_555 1_555
C17 C18 1_555 1_555

#END
