
#######################################################################
#
#                 Cambridge Crystallographic Data Centre
#                                CCDC 
#
#######################################################################
#
# If this CIF has been generated from an entry in the Cambridge 
# Structural Database, then it will include bibliographic, chemical, 
# crystal, experimental, refinement or atomic coordinate data resulting 
# from the CCDC's data processing and validation procedures.
#
#######################################################################

data_JOJYOY01
_chemical_formula_moiety         'I1 O4 1-,C3 D5 N2 1+'
_chemical_name_systematic        'perdeuteroimidazol-3-ium periodate'
_symmetry_cell_setting           monoclinic
_symmetry_space_group_name_H-M   'P 21/m'
_symmetry_Int_Tables_number      11
_space_group_name_Hall           '-P 2yb'
loop_
_symmetry_equiv_pos_site_id
_symmetry_equiv_pos_as_xyz
1 x,y,z
2 -x,1/2+y,-z
3 -x,-y,-z
4 x,1/2-y,z
_cell_length_a                   5.3495(17)
_cell_length_b                   12.418(4)
_cell_length_c                   5.3700(18)
_cell_angle_alpha                90
_cell_angle_beta                 94.625(5)
_cell_angle_gamma                90
_cell_volume                     355.568
_exptl_crystal_colour            colorless
_exptl_crystal_description       block
_cell_formula_units_Z            2
loop_
_atom_site_label
_atom_site_type_symbol
_atom_site_fract_x
_atom_site_fract_y
_atom_site_fract_z
C1 C 0.6413(16) 0.5000(9) 0.3588(16)
D1 D 0.7555 0.5013 0.2319
C2 C 0.665(2) 0.5609(9) 0.522(2)
D2 D 0.8098 0.6082 0.5348
C3 C 0.526(2) 0.5614(9) 0.660(2)
D3 D 0.5380 0.6133 0.7902
N1 N 0.6413(16) 0.5000(9) 0.3588(16)
N2 N 0.665(2) 0.5609(9) 0.522(2)
N3 N 0.526(2) 0.5614(9) 0.660(2)
C1B C 0.3587(16) 0.5000(9) 0.6412(16)
D1B D 0.2445 0.4987 0.7681
C2B C 0.335(2) 0.4391(9) 0.478(2)
D2B D 0.1902 0.3918 0.4652
C3B C 0.474(2) 0.4386(9) 0.340(2)
D3B D 0.4620 0.3867 0.2098
N1B N 0.3587(16) 0.5000(9) 0.6412(16)
N2B N 0.335(2) 0.4391(9) 0.478(2)
N3B N 0.474(2) 0.4386(9) 0.340(2)
I1 I 0.13603(9) 0.7500 1.13608(9)
O1 O 0.0018(12) 0.6319(4) 1.0005(12)
O2 O 0.4552(14) 0.7500 1.088(2)
O3 O 0.085(2) 0.7500 1.4542(15)
O1C O 0.0018(12) 0.8681(4) 1.0005(12)
loop_
_geom_bond_atom_site_label_1
_geom_bond_atom_site_label_2
_geom_bond_site_symmetry_1
_geom_bond_site_symmetry_2
I1 O1 1_555 1_555
O2 I1 1_555 1_555
O3 I1 1_555 1_555
C1 D1 1_555 1_555
D1 N1 1_555 1_555
C2 C1 1_555 1_555
D2 C2 1_555 1_555
C3 C2 1_555 1_555
D3 C3 1_555 1_555
N1 C2 1_555 1_555
N2 C1 1_555 1_555
N3 C2 1_555 1_555
O1C I1 1_555 1_555
C1B C3 1_555 1_555
D1B C1B 1_555 1_555
C2B C1B 1_555 1_555
D2B C2B 1_555 1_555
C3B C1 1_555 1_555
D3B C3B 1_555 1_555
N1B C3 1_555 1_555
N2B C1B 1_555 1_555
N3B C1 1_555 1_555
D2 N2 1_555 1_555
C3 N2 1_555 1_555
D3 N3 1_555 1_555
N1 N2 1_555 1_555
N1 C3B 1_555 1_555
N1 N3B 1_555 1_555
N2 N3 1_555 1_555
N3 C1B 1_555 1_555
N3 N1B 1_555 1_555
D1B N1B 1_555 1_555
C2B C3B 1_555 1_555
C2B N1B 1_555 1_555
C2B N3B 1_555 1_555
D2B N2B 1_555 1_555
C3B N2B 1_555 1_555
D3B N3B 1_555 1_555
N1B N2B 1_555 1_555
N2B N3B 1_555 1_555

#END
