
#######################################################################
#
#                 Cambridge Crystallographic Data Centre
#                                CCDC 
#
#######################################################################
#
# If this CIF has been generated from an entry in the Cambridge 
# Structural Database, then it will include bibliographic, chemical, 
# crystal, experimental, refinement or atomic coordinate data resulting 
# from the CCDC's data processing and validation procedures.
#
#######################################################################

data_JOJYOY02
_chemical_formula_moiety         'I1 O4 1-,C3 H5 N2 1+'
_chemical_name_systematic        '1H-imidazol-3-ium periodate'
_symmetry_cell_setting           monoclinic
_symmetry_space_group_name_H-M   'P 21/m'
_symmetry_Int_Tables_number      11
_space_group_name_Hall           '-P 2yb'
loop_
_symmetry_equiv_pos_site_id
_symmetry_equiv_pos_as_xyz
1 x,y,z
2 -x,1/2+y,-z
3 -x,-y,-z
4 x,1/2-y,z
_cell_length_a                   5.3330(5)
_cell_length_b                   12.3218(7)
_cell_length_c                   5.3383(5)
_cell_angle_alpha                90
_cell_angle_beta                 94.64
_cell_angle_gamma                90
_cell_volume                     349.642
_exptl_crystal_colour            colorless
_exptl_crystal_description       block
_cell_formula_units_Z            2
loop_
_atom_site_label
_atom_site_type_symbol
_atom_site_fract_x
_atom_site_fract_y
_atom_site_fract_z
N1 N 1.3586(12) 0.0012(7) 0.6408(11)
N2 N 1.3361(16) 0.0618(6) 0.4767(15)
N3 N 1.4751(16) 0.0612(6) 0.3399(17)
C1 C 1.3586(12) 0.0012(7) 0.6408(11)
H1 H 1.2466 0.0008 0.7610
C2 C 1.3361(16) 0.0618(6) 0.4767(15)
H2 H 1.2040 0.1080 0.4639
C3 C 1.4751(16) 0.0612(6) 0.3399(17)
H3 H 1.4629 0.1089 0.2117
N1B N 1.6414(12) -0.0012(7) 0.3592(11)
N2B N 1.6639(16) -0.0618(6) 0.5233(15)
N3B N 1.5249(16) -0.0612(6) 0.6601(17)
C1B C 1.6414(12) -0.0012(7) 0.3592(11)
H1B H 1.7534 -0.0008 0.2390
C2B C 1.6639(16) -0.0618(6) 0.5233(15)
H2B H 1.7960 -0.1080 0.5361
C3B C 1.5249(16) -0.0612(6) 0.6601(17)
H3B H 1.5371 -0.1089 0.7883
I1 I 1.86288(7) 0.2500 -0.13711(6)
O1 O 1.9976(8) 0.3681(3) -0.0008(8)
O2 O 1.5426(10) 0.2500 -0.0871(14)
O3 O 1.9152(15) 0.2500 -0.4591(10)
O1C O 1.9976(8) 0.1319(3) -0.0008(8)
loop_
_geom_bond_atom_site_label_1
_geom_bond_atom_site_label_2
_geom_bond_site_symmetry_1
_geom_bond_site_symmetry_2
I1 O1 1_555 1_555
O2 I1 1_555 1_555
O3 I1 1_555 1_555
N1 N2 1_555 1_555
N2 N3 1_555 1_555
N3 C2 1_555 1_555
C1 N2 1_555 1_555
H1 N1 1_555 1_555
C2 N1 1_555 1_555
H2 N2 1_555 1_555
C3 N2 1_555 1_555
H3 N3 1_555 1_555
O1C I1 1_555 1_555
N1B N3 1_555 1_555
N2B N1B 1_555 1_555
N3B N1 1_555 1_555
C1B N3 1_555 1_555
H1B N1B 1_555 1_555
C2B N1B 1_555 1_555
H2B N2B 1_555 1_555
C3B N1 1_555 1_555
H3B N3B 1_555 1_555
C1 H1 1_555 1_555
C1 C2 1_555 1_555
C1 N3B 1_555 1_555
C1 C3B 1_555 1_555
C2 H2 1_555 1_555
C2 C3 1_555 1_555
C3 H3 1_555 1_555
C3 N1B 1_555 1_555
C3 C1B 1_555 1_555
N2B N3B 1_555 1_555
N2B C1B 1_555 1_555
N2B C3B 1_555 1_555
N3B C2B 1_555 1_555
C1B H1B 1_555 1_555
C1B C2B 1_555 1_555
C2B H2B 1_555 1_555
C2B C3B 1_555 1_555
C3B H3B 1_555 1_555

#END
