
#######################################################################
#
#                 Cambridge Crystallographic Data Centre
#                                CCDC 
#
#######################################################################
#
# If this CIF has been generated from an entry in the Cambridge 
# Structural Database, then it will include bibliographic, chemical, 
# crystal, experimental, refinement or atomic coordinate data resulting 
# from the CCDC's data processing and validation procedures.
#
#######################################################################

data_JOJZOZ
_chemical_formula_moiety         'C15 H14 N4 O1'
_chemical_name_systematic        N'',N'''-Dibenzylidenecarbonohydrazide
_symmetry_cell_setting           monoclinic
_symmetry_space_group_name_H-M   'P 2/c'
_symmetry_Int_Tables_number      13
_space_group_name_Hall           '-P 2yc'
loop_
_symmetry_equiv_pos_site_id
_symmetry_equiv_pos_as_xyz
1 x,y,z
2 -x,y,1/2-z
3 -x,-y,-z
4 x,-y,1/2+z
_cell_length_a                   14.3095(6)
_cell_length_b                   8.5597(4)
_cell_length_c                   17.1468(8)
_cell_angle_alpha                90
_cell_angle_beta                 97.135(3)
_cell_angle_gamma                90
_cell_volume                     2083.96
_exptl_crystal_colour            colorless
_cell_formula_units_Z            6
loop_
_atom_site_label
_atom_site_type_symbol
_atom_site_fract_x
_atom_site_fract_y
_atom_site_fract_z
N1 N 0.44092(14) 0.3345(2) 0.42938(12)
N2 N 0.46892(15) 0.1820(2) 0.44166(13)
H1 H 0.4473 0.1283 0.4778
N3 N 0.56020(14) 0.2055(2) 0.34036(11)
H2 H 0.5342 0.2939 0.3276
N4 N 0.63354(14) 0.1503(2) 0.30373(11)
O1 O 0.55607(13) -0.02156(19) 0.40993(11)
C1 C 0.3712(2) 0.6477(3) 0.41107(17)
H3 H 0.4112 0.6146 0.3756
C2 C 0.3320(2) 0.7947(3) 0.4039(2)
H4 H 0.3451 0.8601 0.3633
C3 C 0.2733(2) 0.8452(4) 0.45670(19)
H5 H 0.2475 0.9450 0.4521
C4 C 0.2532(2) 0.7489(4) 0.51569(18)
H6 H 0.2128 0.7824 0.5508
C5 C 0.2926(2) 0.6016(3) 0.52329(17)
H7 H 0.2794 0.5370 0.5642
C6 C 0.35150(16) 0.5490(3) 0.47066(14)
C7 C 0.38993(18) 0.3910(3) 0.47840(15)
H8 H 0.3768 0.3296 0.5204
C8 C 0.53035(17) 0.1152(3) 0.39737(14)
C9 C 0.67076(17) 0.2475(3) 0.26003(14)
H9 H 0.6454 0.3472 0.2528
C10 C 0.75247(17) 0.2044(3) 0.22133(14)
C11 C 0.8009(2) 0.0657(3) 0.23793(19)
H10 H 0.7809 -0.0034 0.2743
C12 C 0.8780(2) 0.0295(4) 0.2012(2)
H11 H 0.9096 -0.0642 0.2127
C13 C 0.9089(2) 0.1308(4) 0.1475(2)
H12 H 0.9616 0.1062 0.1232
C14 C 0.8619(2) 0.2672(4) 0.13037(19)
H13 H 0.8817 0.3350 0.0934
C15 C 0.78489(19) 0.3051(3) 0.16761(16)
H14 H 0.7543 0.3998 0.1564
N5 N 0.33971(13) 0.6777(2) 0.19646(12)
N6 N 0.42746(13) 0.7444(2) 0.21597(13)
H15 H 0.4363 0.8417 0.2069
O2 O 0.5000 0.5113(3) 0.2500
C16 C 0.1232(2) 0.8063(3) 0.08222(18)
H16 H 0.1471 0.8934 0.0590
C17 C 0.0296(2) 0.7691(4) 0.0642(2)
H17 H -0.0089 0.8297 0.0284
C18 C -0.0064(2) 0.6443(5) 0.0985(3)
H18 H -0.0702 0.6208 0.0875
C19 C 0.0511(2) 0.5519(5) 0.1496(3)
H19 H 0.0267 0.4645 0.1721
C20 C 0.1453(2) 0.5892(4) 0.1675(2)
H20 H 0.1838 0.5270 0.2025
C21 C 0.18254(17) 0.7168(3) 0.13420(15)
C22 C 0.28090(16) 0.7634(3) 0.15357(14)
H21 H 0.3011 0.8574 0.1343
C23 C 0.5000 0.6536(4) 0.2500
N5A N 0.66029(13) 0.6777(2) 0.30354(12)
N6A N 0.57254(13) 0.7444(2) 0.28403(13)
H15A H 0.5637 0.8417 0.2931
C16A C 0.8768(2) 0.8063(3) 0.41778(18)
H16A H 0.8529 0.8934 0.4410
C17A C 0.9704(2) 0.7691(4) 0.4358(2)
H17A H 1.0089 0.8297 0.4716
C18A C 1.0064(2) 0.6443(5) 0.4015(3)
H18A H 1.0702 0.6208 0.4125
C19A C 0.9489(2) 0.5519(5) 0.3504(3)
H19A H 0.9733 0.4645 0.3279
C20A C 0.8547(2) 0.5892(4) 0.3325(2)
H20A H 0.8162 0.5270 0.2975
C21A C 0.81746(17) 0.7168(3) 0.36580(15)
C22A C 0.71910(16) 0.7634(3) 0.34643(14)
H21A H 0.6989 0.8574 0.3657
loop_
_geom_bond_atom_site_label_1
_geom_bond_atom_site_label_2
_geom_bond_site_symmetry_1
_geom_bond_site_symmetry_2
N1 N2 1_555 1_555
N2 H1 1_555 1_555
N3 H2 1_555 1_555
N4 N3 1_555 1_555
O1 C8 1_555 1_555
C1 H3 1_555 1_555
C2 C1 1_555 1_555
H4 C2 1_555 1_555
C3 C2 1_555 1_555
H5 C3 1_555 1_555
C4 C3 1_555 1_555
H6 C4 1_555 1_555
C5 C4 1_555 1_555
H7 C5 1_555 1_555
C6 C1 1_555 1_555
C7 N1 1_555 1_555
H8 C7 1_555 1_555
C8 N2 1_555 1_555
C9 N4 1_555 1_555
H9 C9 1_555 1_555
C10 C9 1_555 1_555
C11 C10 1_555 1_555
H10 C11 1_555 1_555
C12 C11 1_555 1_555
H11 C12 1_555 1_555
C13 C12 1_555 1_555
H12 C13 1_555 1_555
C14 C13 1_555 1_555
H13 C14 1_555 1_555
C15 C10 1_555 1_555
H14 C15 1_555 1_555
N5 N6 1_555 1_555
N6 H15 1_555 1_555
O2 C23 1_555 1_555
C16 H16 1_555 1_555
C17 C16 1_555 1_555
H17 C17 1_555 1_555
C18 C17 1_555 1_555
H18 C18 1_555 1_555
C19 C18 1_555 1_555
H19 C19 1_555 1_555
C20 C19 1_555 1_555
H20 C20 1_555 1_555
C21 C16 1_555 1_555
C22 N5 1_555 1_555
H21 C22 1_555 1_555
C23 N6 1_555 1_555
N5A N6A 1_555 1_555
N6A C23 1_555 1_555
H15A N6A 1_555 1_555
C16A H16A 1_555 1_555
C17A C16A 1_555 1_555
H17A C17A 1_555 1_555
C18A C17A 1_555 1_555
H18A C18A 1_555 1_555
C19A C18A 1_555 1_555
H19A C19A 1_555 1_555
C20A C19A 1_555 1_555
H20A C20A 1_555 1_555
C21A C16A 1_555 1_555
C22A N5A 1_555 1_555
H21A C22A 1_555 1_555
N3 C8 1_555 1_555
C5 C6 1_555 1_555
C6 C7 1_555 1_555
C14 C15 1_555 1_555
C20 C21 1_555 1_555
C21 C22 1_555 1_555
C20A C21A 1_555 1_555
C21A C22A 1_555 1_555

#END
