
#######################################################################
#
#                 Cambridge Crystallographic Data Centre
#                                CCDC 
#
#######################################################################
#
# If this CIF has been generated from an entry in the Cambridge 
# Structural Database, then it will include bibliographic, chemical, 
# crystal, experimental, refinement or atomic coordinate data resulting 
# from the CCDC's data processing and validation procedures.
#
#######################################################################

data_JOKBAO
_chemical_name_common            
'(2Z,3Z)-2-(4-methylbenzylidene)-1-phenyl-3-(phenyl(pivaloyloxy)methylene)-4-(p-tolyl)cyclobutyl pivalate'
_chemical_formula_moiety         'C42 H44 O4'
_chemical_name_systematic        
'(2Z,3Z)-(3-((2,2-dimethylpropanoyl)oxy)-2-(4-methylbenzylidene)-4-(4-methylphenyl)-3-phenylcyclobutylidene)(phenyl)methyl pivalate'
_symmetry_cell_setting           triclinic
_symmetry_space_group_name_H-M   'P -1'
_symmetry_Int_Tables_number      2
_space_group_name_Hall           '-P 1'
loop_
_symmetry_equiv_pos_site_id
_symmetry_equiv_pos_as_xyz
1 x,y,z
2 -x,-y,-z
_cell_length_a                   10.9837(5)
_cell_length_b                   18.0724(7)
_cell_length_c                   19.9386(8)
_cell_angle_alpha                68.9726(12)
_cell_angle_beta                 81.9783(13)
_cell_angle_gamma                89.7507(13)
_cell_volume                     3653.67
_exptl_crystal_colour            colorless
_exptl_crystal_description       irregular
_cell_formula_units_Z            4
_exptl_crystal_recrystallization_method 'ethyl acetate/hexane'
loop_
_atom_site_label
_atom_site_type_symbol
_atom_site_fract_x
_atom_site_fract_y
_atom_site_fract_z
O1 O 0.58837(10) 0.84920(7) 0.25035(7)
O2 O 0.43583(16) 0.75636(10) 0.29396(12)
O3 O 0.25692(10) 1.08128(7) 0.17981(6)
O4 O 0.45734(12) 1.12143(8) 0.15110(8)
C1 C 0.43963(15) 0.94174(10) 0.25961(9)
C2 C 0.35371(15) 0.99297(10) 0.28917(9)
H1 H 0.3956 1.0440 0.2808
C3 C 0.27863(15) 1.00049(10) 0.22477(9)
C4 C 0.37960(15) 0.95720(9) 0.19527(9)
C5 C 0.52805(15) 0.89505(10) 0.28833(10)
C6 C 0.53408(19) 0.77852(12) 0.25874(12)
C7 C 0.6150(2) 0.73369(13) 0.22021(12)
C8 C 0.7344(4) 0.7179(3) 0.2509(3)
H2 H 0.7817 0.6841 0.2306
H3 H 0.7174 0.6923 0.3027
H4 H 0.7802 0.7672 0.2389
C9 C 0.6359(7) 0.7762(3) 0.1414(2)
H5 H 0.6833 0.8248 0.1303
H6 H 0.5581 0.7881 0.1241
H7 H 0.6798 0.7438 0.1183
C10 C 0.5527(5) 0.6504(3) 0.2403(4)
H8 H 0.4722 0.6558 0.2260
H9 H 0.5456 0.6226 0.2918
H10 H 0.6016 0.6212 0.2156
C11 C 0.57383(15) 0.88587(12) 0.35646(10)
C12 C 0.61356(18) 0.81393(13) 0.39974(11)
H11 H 0.6133 0.7707 0.3848
C13 C 0.6536(2) 0.80533(17) 0.46469(13)
H12 H 0.6791 0.7565 0.4934
C14 C 0.6555(3) 0.8685(2) 0.48668(15)
H13 H 0.6820 0.8627 0.5305
C15 C 0.6185(3) 0.9406(2) 0.44436(17)
H14 H 0.6205 0.9836 0.4595
C16 C 0.5785(2) 0.94979(15) 0.37938(14)
H15 H 0.5544 0.9991 0.3507
C17 C 0.28501(16) 0.95934(11) 0.36526(10)
C18 C 0.25474(19) 0.87887(12) 0.40013(11)
H16 H 0.2843 0.8436 0.3781
C19 C 0.1816(2) 0.85048(15) 0.46691(13)
H17 H 0.1619 0.7963 0.4887
C20 C 0.1370(2) 0.89971(19) 0.50226(12)
C21 C 0.1692(2) 0.97928(18) 0.46897(13)
H18 H 0.1422 1.0139 0.4923
C22 C 0.2418(2) 1.00911(14) 0.40085(12)
H19 H 0.2613 1.0633 0.3792
C23 C 0.0556(4) 0.8684(2) 0.57555(15)
H20 H -0.0237 0.8515 0.5697
H21 H 0.0462 0.9096 0.5954
H22 H 0.0928 0.8242 0.6079
C24 C 0.35150(18) 1.13507(10) 0.14551(10)
C25 C 0.3049(2) 1.21451(11) 0.10183(11)
C26 C 0.2550(6) 1.2521(2) 0.1543(2)
H23 H 0.1849 1.2208 0.1858
H24 H 0.2307 1.3045 0.1283
H25 H 0.3172 1.2553 0.1827
C27 C 0.4131(4) 1.2645(2) 0.0468(3)
H26 H 0.3852 1.3151 0.0187
H27 H 0.4448 1.2374 0.0151
H28 H 0.4770 1.2723 0.0723
C28 C 0.2067(4) 1.20478(19) 0.0583(2)
H29 H 0.1356 1.1761 0.0910
H30 H 0.2386 1.1760 0.0280
H31 H 0.1839 1.2561 0.0284
C29 C 0.15226(16) 0.95881(11) 0.24962(9)
C30 C 0.1346(2) 0.88154(13) 0.25578(12)
H32 H 0.1998 0.8553 0.2409
C31 C 0.0206(2) 0.84223(17) 0.28399(15)
H33 H 0.0095 0.7898 0.2879
C32 C -0.0754(2) 0.8800(2) 0.30606(15)
H34 H -0.1518 0.8533 0.3252
C33 C -0.0595(2) 0.95669(19) 0.30010(14)
H35 H -0.1254 0.9824 0.3150
C34 C 0.05381(18) 0.99674(14) 0.27201(12)
H36 H 0.0640 1.0493 0.2681
C35 C 0.40450(15) 0.93919(10) 0.13543(9)
H37 H 0.4752 0.9111 0.1332
C36 C 0.33909(16) 0.95635(10) 0.07322(9)
C37 C 0.23111(17) 0.99723(11) 0.06461(10)
H38 H 0.1953 1.0149 0.1009
C38 C 0.1764(2) 1.01197(12) 0.00322(11)
H39 H 0.1049 1.0400 -0.0011
C39 C 0.2243(2) 0.98649(13) -0.05214(11)
C40 C 0.3306(2) 0.94541(13) -0.04384(11)
H40 H 0.3651 0.9272 -0.0800
C41 C 0.38685(18) 0.93075(11) 0.01692(10)
H41 H 0.4587 0.9030 0.0206
C42 C 0.1628(3) 1.00297(18) -0.11895(13)
H42 H 0.1151 0.9566 -0.1144
H43 H 0.2245 1.0164 -0.1612
H44 H 0.1098 1.0464 -0.1237
O5 O 1.22435(11) 0.64757(7) 0.75490(7)
O6 O 1.07486(15) 0.73366(9) 0.73132(9)
O7 O 0.84465(11) 0.42354(7) 0.82192(6)
O8 O 1.02909(13) 0.37959(8) 0.85063(8)
C49 C 1.07253(15) 0.55901(10) 0.74580(9)
C50 C 0.99961(15) 0.51037(10) 0.71452(9)
H63 H 1.0352 0.4586 0.7229
C51 C 0.89179(15) 0.50396(10) 0.77854(9)
C52 C 0.97911(15) 0.54412(10) 0.80959(9)
C53 C 1.17758(16) 0.60267(10) 0.71832(10)
C54 C 1.16827(19) 0.71472(11) 0.75528(11)
C55 C 1.2403(2) 0.76082(13) 0.78819(13)
C56 C 1.3618(5) 0.7907(4) 0.7390(3)
H64 H 1.4124 0.7467 0.7413
H65 H 1.4031 0.8271 0.7546
H66 H 1.3469 0.8173 0.6899
C57 C 1.2654(8) 0.7089(3) 0.8618(3)
H67 H 1.1889 0.6906 0.8936
H68 H 1.3140 0.7385 0.8808
H69 H 1.3094 0.6641 0.8581
C58 C 1.1744(6) 0.8336(4) 0.7869(5)
H70 H 1.1503 0.8595 0.7398
H71 H 1.2279 0.8690 0.7968
H72 H 1.1025 0.8191 0.8231
C59 C 1.25643(16) 0.60918(12) 0.65040(11)
C60 C 1.30484(19) 0.68222(14) 0.60146(13)
H73 H 1.2913 0.7273 0.6131
C61 C 1.3726(2) 0.6891(2) 0.53602(16)
H74 H 1.4025 0.7389 0.5031
C62 C 1.3960(3) 0.6233(3) 0.51923(17)
H75 H 1.4424 0.6281 0.4750
C63 C 1.3514(2) 0.5503(2) 0.56729(17)
H76 H 1.3684 0.5053 0.5560
C64 C 1.28165(19) 0.54318(15) 0.63226(13)
H77 H 1.2510 0.4933 0.6644
C65 C 0.96832(15) 0.54400(11) 0.63888(9)
C66 C 0.97868(18) 0.62373(12) 0.59713(11)
H78 H 1.0133 0.6591 0.6142
C67 C 0.9384(2) 0.65187(13) 0.53029(12)
H79 H 0.9475 0.7059 0.5030
C68 C 0.8855(2) 0.60232(14) 0.50312(11)
C69 C 0.8757(2) 0.52273(15) 0.54443(12)
H80 H 0.8407 0.4876 0.5272
C70 C 0.9168(2) 0.49379(12) 0.61096(11)
H81 H 0.9097 0.4395 0.6375
C71 C 0.8403(3) 0.63397(18) 0.43017(14)
H82 H 0.7519 0.6321 0.4374
H83 H 0.8691 0.6020 0.4023
H84 H 0.8712 0.6878 0.4045
C72 C 0.92083(19) 0.36759(11) 0.85482(10)
C73 C 0.8516(2) 0.28789(12) 0.89536(12)
C74 C 0.8250(6) 0.2567(3) 0.8378(2)
H85 H 0.7757 0.2931 0.8060
H86 H 0.7814 0.2059 0.8605
H87 H 0.9011 0.2511 0.8102
C75 C 0.7302(3) 0.29699(19) 0.9384(2)
H88 H 0.7458 0.3224 0.9714
H89 H 0.6906 0.2456 0.9653
H90 H 0.6778 0.3287 0.9056
C76 C 0.9325(4) 0.2340(2) 0.9464(3)
H91 H 1.0091 0.2289 0.9190
H92 H 0.8914 0.1826 0.9709
H93 H 0.9481 0.2564 0.9816
C77 C 0.78172(16) 0.55016(12) 0.75205(10)
C78 C 0.7817(2) 0.63054(14) 0.73703(13)
H94 H 0.8448 0.6554 0.7490
C79 C 0.6887(3) 0.67485(18) 0.70430(15)
H95 H 0.6897 0.7293 0.6940
C80 C 0.5953(3) 0.6384(2) 0.68716(16)
H96 H 0.5329 0.6681 0.6649
C81 C 0.5934(2) 0.5587(2) 0.70265(16)
H97 H 0.5293 0.5340 0.6913
C82 C 0.68598(19) 0.51437(16) 0.73500(12)
H98 H 0.6839 0.4599 0.7454
C83 C 0.97317(16) 0.56128(10) 0.87015(9)
H99 H 1.0430 0.5880 0.8734
C84 C 0.87501(17) 0.54477(10) 0.93146(9)
C85 C 0.76303(18) 0.50509(11) 0.93858(10)
H100 H 0.7471 0.4876 0.9020
C86 C 0.6751(2) 0.49119(13) 0.99888(11)
H101 H 0.6017 0.4637 1.0022
C87 C 0.6925(2) 0.51684(13) 1.05439(11)
C88 C 0.8026(2) 0.55660(13) 1.04757(11)
H102 H 0.8171 0.5748 1.0840
C89 C 0.8923(2) 0.57021(11) 0.98802(11)
H103 H 0.9659 0.5970 0.9855
C90 C 0.5957(3) 0.50227(18) 1.11962(13)
H104 H 0.6345 0.4900 1.1624
H105 H 0.5412 0.4586 1.1248
H106 H 0.5496 0.5490 1.1133
C43? C 0.5282(10) 0.7084(8) 0.1772(7)
H45? H 0.5730 0.6803 0.1499
H46? H 0.4956 0.7547 0.1446
H47? H 0.4618 0.6746 0.2103
C44? C 0.7188(10) 0.7916(6) 0.1633(6)
H48? H 0.7776 0.8061 0.1884
H49? H 0.6827 0.8385 0.1340
H50? H 0.7595 0.7655 0.1327
C45? C 0.657(2) 0.6613(9) 0.2747(9)
H51? H 0.7343 0.6732 0.2863
H52? H 0.6653 0.6199 0.2550
H53? H 0.5968 0.6441 0.3179
C46? C 0.3166(18) 1.2159(10) 0.0251(6)
H54? H 0.4002 1.2072 0.0091
H55? H 0.2940 1.2666 -0.0063
H56? H 0.2631 1.1749 0.0236
C47? C 0.1736(11) 1.2263(11) 0.1343(10)
H57? H 0.1459 1.2761 0.1044
H58? H 0.1740 1.2261 0.1825
H59? H 0.1191 1.1839 0.1362
C48? C 0.3901(11) 1.2814(6) 0.1033(7)
H60? H 0.4715 1.2779 0.0802
H61? H 0.3927 1.2761 0.1527
H62? H 0.3590 1.3320 0.0778
C91? C 1.1390(14) 0.7864(11) 0.8362(9)
H107? H 1.1753 0.8197 0.8570
H108? H 1.0992 0.7402 0.8743
H109? H 1.0795 0.8152 0.8071
C92? C 1.298(2) 0.8359(10) 0.7307(11)
H110? H 1.3727 0.8242 0.7056
H111? H 1.3175 0.8727 0.7529
H112? H 1.2423 0.8588 0.6968
C93? C 1.3338(13) 0.7118(10) 0.8312(9)
H113? H 1.3959 0.6984 0.7991
H114? H 1.2938 0.6640 0.8670
H115? H 1.3713 0.7417 0.8548
C94? C 0.824(2) 0.2848(12) 0.9738(6)
H116? H 0.7800 0.3305 0.9749
H117? H 0.8998 0.2845 0.9927
H118? H 0.7747 0.2375 1.0031
C95? C 0.7474(17) 0.2748(14) 0.8567(12)
H119? H 0.6869 0.3135 0.8557
H120? H 0.7099 0.2225 0.8822
H121? H 0.7801 0.2802 0.8078
C96? C 0.9416(14) 0.2224(8) 0.8949(10)
H122? H 0.9010 0.1713 0.9219
H123? H 1.0116 0.2286 0.9167
H124? H 0.9685 0.2265 0.8457
loop_
_geom_bond_atom_site_label_1
_geom_bond_atom_site_label_2
_geom_bond_site_symmetry_1
_geom_bond_site_symmetry_2
O1 C5 1_555 1_555
O2 C6 1_555 1_555
O3 C3 1_555 1_555
O4 C24 1_555 1_555
C1 C2 1_555 1_555
C2 H1 1_555 1_555
C3 C2 1_555 1_555
C4 C1 1_555 1_555
C5 C1 1_555 1_555
C6 O1 1_555 1_555
C7 C6 1_555 1_555
C8 C7 1_555 1_555
H2 C8 1_555 1_555
H3 C8 1_555 1_555
H4 C8 1_555 1_555
C9 C7 1_555 1_555
H5 C9 1_555 1_555
H6 C9 1_555 1_555
H7 C9 1_555 1_555
C10 C7 1_555 1_555
H8 C10 1_555 1_555
H9 C10 1_555 1_555
H10 C10 1_555 1_555
C11 C5 1_555 1_555
C12 C11 1_555 1_555
H11 C12 1_555 1_555
C13 C12 1_555 1_555
H12 C13 1_555 1_555
C14 C13 1_555 1_555
H13 C14 1_555 1_555
C15 C14 1_555 1_555
H14 C15 1_555 1_555
C16 C11 1_555 1_555
H15 C16 1_555 1_555
C17 C2 1_555 1_555
C18 C17 1_555 1_555
H16 C18 1_555 1_555
C19 C18 1_555 1_555
H17 C19 1_555 1_555
C20 C19 1_555 1_555
C21 C20 1_555 1_555
H18 C21 1_555 1_555
C22 C17 1_555 1_555
H19 C22 1_555 1_555
C23 C20 1_555 1_555
H20 C23 1_555 1_555
H21 C23 1_555 1_555
H22 C23 1_555 1_555
C24 O3 1_555 1_555
C25 C24 1_555 1_555
C26 C25 1_555 1_555
H23 C26 1_555 1_555
H24 C26 1_555 1_555
H25 C26 1_555 1_555
C27 C25 1_555 1_555
H26 C27 1_555 1_555
H27 C27 1_555 1_555
H28 C27 1_555 1_555
C28 C25 1_555 1_555
H29 C28 1_555 1_555
H30 C28 1_555 1_555
H31 C28 1_555 1_555
C29 C3 1_555 1_555
C30 C29 1_555 1_555
H32 C30 1_555 1_555
C31 C30 1_555 1_555
H33 C31 1_555 1_555
C32 C31 1_555 1_555
H34 C32 1_555 1_555
C33 C32 1_555 1_555
H35 C33 1_555 1_555
C34 C29 1_555 1_555
H36 C34 1_555 1_555
C35 C4 1_555 1_555
H37 C35 1_555 1_555
C36 C35 1_555 1_555
C37 C36 1_555 1_555
H38 C37 1_555 1_555
C38 C37 1_555 1_555
H39 C38 1_555 1_555
C39 C38 1_555 1_555
C40 C39 1_555 1_555
H40 C40 1_555 1_555
C41 C36 1_555 1_555
H41 C41 1_555 1_555
C42 C39 1_555 1_555
H42 C42 1_555 1_555
H43 C42 1_555 1_555
H44 C42 1_555 1_555
O5 C53 1_555 1_555
O6 C54 1_555 1_555
O7 C51 1_555 1_555
O8 C72 1_555 1_555
C49 C50 1_555 1_555
C50 H63 1_555 1_555
C51 C50 1_555 1_555
C52 C49 1_555 1_555
C53 C49 1_555 1_555
C54 O5 1_555 1_555
C55 C54 1_555 1_555
C56 C55 1_555 1_555
H64 C56 1_555 1_555
H65 C56 1_555 1_555
H66 C56 1_555 1_555
C57 C55 1_555 1_555
H67 C57 1_555 1_555
H68 C57 1_555 1_555
H69 C57 1_555 1_555
C58 C55 1_555 1_555
H70 C58 1_555 1_555
H71 C58 1_555 1_555
H72 C58 1_555 1_555
C59 C53 1_555 1_555
C60 C59 1_555 1_555
H73 C60 1_555 1_555
C61 C60 1_555 1_555
H74 C61 1_555 1_555
C62 C61 1_555 1_555
H75 C62 1_555 1_555
C63 C62 1_555 1_555
H76 C63 1_555 1_555
C64 C59 1_555 1_555
H77 C64 1_555 1_555
C65 C50 1_555 1_555
C66 C65 1_555 1_555
H78 C66 1_555 1_555
C67 C66 1_555 1_555
H79 C67 1_555 1_555
C68 C67 1_555 1_555
C69 C68 1_555 1_555
H80 C69 1_555 1_555
C70 C65 1_555 1_555
H81 C70 1_555 1_555
C71 C68 1_555 1_555
H82 C71 1_555 1_555
H83 C71 1_555 1_555
H84 C71 1_555 1_555
C72 O7 1_555 1_555
C73 C72 1_555 1_555
C74 C73 1_555 1_555
H85 C74 1_555 1_555
H86 C74 1_555 1_555
H87 C74 1_555 1_555
C75 C73 1_555 1_555
H88 C75 1_555 1_555
H89 C75 1_555 1_555
H90 C75 1_555 1_555
C76 C73 1_555 1_555
H91 C76 1_555 1_555
H92 C76 1_555 1_555
H93 C76 1_555 1_555
C77 C51 1_555 1_555
C78 C77 1_555 1_555
H94 C78 1_555 1_555
C79 C78 1_555 1_555
H95 C79 1_555 1_555
C80 C79 1_555 1_555
H96 C80 1_555 1_555
C81 C80 1_555 1_555
H97 C81 1_555 1_555
C82 C77 1_555 1_555
H98 C82 1_555 1_555
C83 C52 1_555 1_555
H99 C83 1_555 1_555
C84 C83 1_555 1_555
C85 C84 1_555 1_555
H100 C85 1_555 1_555
C86 C85 1_555 1_555
H101 C86 1_555 1_555
C87 C86 1_555 1_555
C88 C87 1_555 1_555
H102 C88 1_555 1_555
C89 C84 1_555 1_555
H103 C89 1_555 1_555
C90 C87 1_555 1_555
H104 C90 1_555 1_555
H105 C90 1_555 1_555
H106 C90 1_555 1_555
C3 C4 1_555 1_555
C15 C16 1_555 1_555
C21 C22 1_555 1_555
C33 C34 1_555 1_555
C40 C41 1_555 1_555
C51 C52 1_555 1_555
C63 C64 1_555 1_555
C69 C70 1_555 1_555
C81 C82 1_555 1_555
C88 C89 1_555 1_555

#END
