
#######################################################################
#
#                 Cambridge Crystallographic Data Centre
#                                CCDC 
#
#######################################################################
#
# If this CIF has been generated from an entry in the Cambridge 
# Structural Database, then it will include bibliographic, chemical, 
# crystal, experimental, refinement or atomic coordinate data resulting 
# from the CCDC's data processing and validation procedures.
#
#######################################################################

data_JOKDAQ
_chemical_formula_moiety         'C21 H16 O1'
_chemical_name_systematic        (E)-1,2,3-triphenylprop-2-en-1-one
_symmetry_cell_setting           monoclinic
_symmetry_space_group_name_H-M   'P 21/n'
_symmetry_Int_Tables_number      14
_space_group_name_Hall           '-P 2yn'
loop_
_symmetry_equiv_pos_site_id
_symmetry_equiv_pos_as_xyz
1 x,y,z
2 1/2-x,1/2+y,1/2-z
3 -x,-y,-z
4 1/2+x,1/2-y,1/2+z
_cell_length_a                   13.5721(3)
_cell_length_b                   5.72937(10)
_cell_length_c                   18.9083(4)
_cell_angle_alpha                90
_cell_angle_beta                 93.4163(7)
_cell_angle_gamma                90
_cell_volume                     1467.69
_exptl_crystal_colour            colorless
_exptl_crystal_description       block
_cell_formula_units_Z            4
loop_
_atom_site_label
_atom_site_type_symbol
_atom_site_fract_x
_atom_site_fract_y
_atom_site_fract_z
O1 O 0.77332(6) 0.17773(13) 0.55288(4)
C1 C 0.73782(7) 0.37345(18) 0.55554(5)
C2 C 0.74542(7) 0.54225(17) 0.49573(5)
C3 C 0.67171(8) 0.69601(17) 0.48216(5)
C4 C 0.68565(7) 0.44382(17) 0.62012(5)
C5 C 0.62450(8) 0.28126(18) 0.65066(5)
C6 C 0.58271(8) 0.33173(19) 0.71418(6)
C7 C 0.60500(8) 0.54142(19) 0.74871(6)
C8 C 0.66598(8) 0.70396(19) 0.71852(6)
C9 C 0.70489(8) 0.65810(18) 0.65346(5)
C10 C 0.83462(7) 0.52253(18) 0.45366(5)
C11 C 0.85379(8) 0.32422(18) 0.41389(5)
C12 C 0.93897(8) 0.31373(19) 0.37625(6)
C13 C 1.00561(8) 0.4978(2) 0.37906(5)
C14 C 0.98726(8) 0.69472(19) 0.41923(6)
C15 C 0.90167(8) 0.70761(18) 0.45610(5)
C16 C 0.65530(7) 0.85158(18) 0.42061(5)
C17 C 0.69091(8) 0.80339(19) 0.35400(6)
C18 C 0.67160(8) 0.9549(2) 0.29747(6)
C19 C 0.61696(9) 1.1569(2) 0.30612(6)
C20 C 0.57995(8) 1.20612(19) 0.37157(6)
C21 C 0.59880(8) 1.05374(18) 0.42809(6)
H1 H 0.6240 0.7054 0.5168
H2 H 0.6114 0.1357 0.6280
H3 H 0.5391 0.2235 0.7340
H4 H 0.5785 0.5736 0.7930
H5 H 0.6811 0.8466 0.7424
H6 H 0.7443 0.7718 0.6319
H7 H 0.8089 0.1968 0.4125
H8 H 0.9515 0.1799 0.3485
H9 H 1.0637 0.4893 0.3536
H10 H 1.0331 0.8203 0.4215
H11 H 0.8888 0.8430 0.4830
H12 H 0.7285 0.6661 0.3475
H13 H 0.6959 0.9201 0.2526
H14 H 0.6049 1.2612 0.2675
H15 H 0.5420 1.3432 0.3776
H16 H 0.5729 1.0874 0.4725
loop_
_geom_bond_atom_site_label_1
_geom_bond_atom_site_label_2
_geom_bond_site_symmetry_1
_geom_bond_site_symmetry_2
O1 C1 1_555 1_555
C1 C2 1_555 1_555
C2 C3 1_555 1_555
C3 C16 1_555 1_555
C4 C1 1_555 1_555
C5 C4 1_555 1_555
C6 C5 1_555 1_555
C7 C6 1_555 1_555
C8 C7 1_555 1_555
C9 C4 1_555 1_555
C10 C2 1_555 1_555
C11 C10 1_555 1_555
C12 C11 1_555 1_555
C13 C12 1_555 1_555
C14 C13 1_555 1_555
C15 C10 1_555 1_555
C16 C17 1_555 1_555
C17 C18 1_555 1_555
C18 C19 1_555 1_555
C19 C20 1_555 1_555
C20 C21 1_555 1_555
C21 C16 1_555 1_555
H1 C3 1_555 1_555
H2 C5 1_555 1_555
H3 C6 1_555 1_555
H4 C7 1_555 1_555
H5 C8 1_555 1_555
H6 C9 1_555 1_555
H7 C11 1_555 1_555
H8 C12 1_555 1_555
H9 C13 1_555 1_555
H10 C14 1_555 1_555
H11 C15 1_555 1_555
H12 C17 1_555 1_555
H13 C18 1_555 1_555
H14 C19 1_555 1_555
H15 C20 1_555 1_555
H16 C21 1_555 1_555
C8 C9 1_555 1_555
C14 C15 1_555 1_555

#END
