
#######################################################################
#
#                 Cambridge Crystallographic Data Centre
#                                CCDC 
#
#######################################################################
#
# If this CIF has been generated from an entry in the Cambridge 
# Structural Database, then it will include bibliographic, chemical, 
# crystal, experimental, refinement or atomic coordinate data resulting 
# from the CCDC's data processing and validation procedures.
#
#######################################################################

data_JOKDOE
_chemical_formula_moiety         'C22 H19 N3 O2'
_chemical_name_systematic        
8-(methoxymethoxy)-2-methyl-5,7-bis(pyridin-4-yl)quinoline
_symmetry_cell_setting           monoclinic
_symmetry_space_group_name_H-M   'P 21/n'
_symmetry_Int_Tables_number      14
_space_group_name_Hall           '-P 2yn'
loop_
_symmetry_equiv_pos_site_id
_symmetry_equiv_pos_as_xyz
1 x,y,z
2 1/2-x,1/2+y,1/2-z
3 -x,-y,-z
4 1/2+x,1/2-y,1/2+z
_cell_length_a                   12.619(3)
_cell_length_b                   21.772(7)
_cell_length_c                   14.394(4)
_cell_angle_alpha                90
_cell_angle_beta                 110.464(5)
_cell_angle_gamma                90
_cell_volume                     3705.05
_exptl_crystal_colour            colorless
_exptl_crystal_description       block
_cell_formula_units_Z            8
loop_
_atom_site_label
_atom_site_type_symbol
_atom_site_fract_x
_atom_site_fract_y
_atom_site_fract_z
O1 O 0.3187(3) 0.07035(18) 0.7965(3)
N1 N 0.3623(3) 0.08693(13) 1.0821(2)
C1 C 0.3752(5) 0.0611(4) 0.7285(4)
H1 H 0.3326 0.0810 0.6654
H2 H 0.3812 0.0170 0.7178
H3 H 0.4512 0.0790 0.7552
O2 O 0.4706(2) 0.08001(11) 0.94579(19)
N2 N 0.6756(2) 0.19043(16) 0.7452(2)
C2 C 0.3723(4) 0.0455(2) 0.8893(4)
H4 H 0.3948 0.0027 0.8820
H5 H 0.3187 0.0443 0.9257
N3 N 0.4205(3) 0.43881(15) 1.1602(3)
C3 C 0.4562(3) 0.13627(15) 0.9820(2)
C4 C 0.5030(2) 0.18757(15) 0.9568(2)
C5 C 0.4921(3) 0.24496(15) 1.0003(2)
H6 H 0.5256 0.2802 0.9832
C6 C 0.4359(3) 0.25177(15) 1.0651(2)
C7 C 0.3873(3) 0.19902(16) 1.0929(2)
C8 C 0.3988(3) 0.14024(15) 1.0531(3)
C9 C 0.3325(3) 0.19970(17) 1.1630(3)
H7 H 0.3206 0.2375 1.1909
C10 C 0.2968(3) 0.14623(18) 1.1907(3)
H8 H 0.2609 0.1466 1.2388
C11 C 0.3127(3) 0.09002(18) 1.1483(3)
C12 C 0.2747(4) 0.0296(2) 1.1793(4)
H9 H 0.2917 -0.0041 1.1416
H10 H 0.1931 0.0310 1.1660
H11 H 0.3149 0.0229 1.2503
C13 C 0.5629(2) 0.18692(15) 0.8835(2)
C14 C 0.6371(3) 0.14032(16) 0.8786(3)
H12 H 0.6508 0.1062 0.9223
C15 C 0.6899(3) 0.14435(19) 0.8100(3)
H13 H 0.7401 0.1122 0.8084
C16 C 0.6063(3) 0.23488(19) 0.7517(3)
H14 H 0.5948 0.2687 0.7075
C17 C 0.5495(3) 0.23532(16) 0.8186(2)
H15 H 0.5016 0.2688 0.8197
C18 C 0.4288(3) 0.31521(15) 1.1026(2)
C19 C 0.5259(3) 0.35021(16) 1.1424(3)
H16 H 0.5979 0.3331 1.1509
C20 C 0.5166(3) 0.41022(18) 1.1695(3)
H17 H 0.5846 0.4330 1.1972
C21 C 0.3270(3) 0.40419(18) 1.1235(3)
H18 H 0.2565 0.4228 1.1163
C22 C 0.3261(3) 0.34325(16) 1.0953(3)
H19 H 0.2572 0.3209 1.0715
O3 O 0.9755(2) 0.10870(13) 0.3260(2)
O4 O 0.8561(2) 0.09357(11) 0.16251(18)
N4 N 0.9561(2) 0.10885(12) 0.0238(2)
N5 N 0.6257(3) 0.1821(2) 0.3559(3)
N6 N 0.8575(3) 0.45642(15) -0.0558(3)
C23 C 0.9183(4) 0.0778(2) 0.3824(3)
H20 H 0.9296 0.1004 0.4440
H21 H 0.9488 0.0361 0.3983
H22 H 0.8373 0.0755 0.3436
C24 C 0.9626(3) 0.08025(19) 0.2361(3)
H23 H 0.9701 0.0353 0.2463
H24 H 1.0236 0.0941 0.2127
C25 C 0.8507(3) 0.15112(15) 0.1199(2)
C26 C 0.9057(3) 0.15868(15) 0.0480(2)
C27 C 0.9021(3) 0.21775(15) 0.0041(2)
C28 C 0.8473(3) 0.26815(15) 0.0327(2)
C29 C 0.7942(3) 0.25659(15) 0.0994(2)
H25 H 0.7557 0.2895 0.1172
C30 C 0.7935(2) 0.19836(15) 0.1431(2)
C31 C 0.9513(3) 0.22219(17) -0.0702(3)
H26 H 0.9520 0.2604 -0.1018
C32 C 0.9979(3) 0.17132(17) -0.0965(3)
H27 H 1.0278 0.1737 -0.1485
C33 C 1.0015(3) 0.11511(17) -0.0462(3)
C34 C 1.0547(4) 0.0596(2) -0.0727(3)
H28 H 1.0502 0.0251 -0.0307
H29 H 1.1342 0.0683 -0.0625
H30 H 1.0147 0.0491 -0.1425
C35 C 0.7349(3) 0.19152(17) 0.2166(3)
C36 C 0.6655(3) 0.14075(18) 0.2176(3)
H31 H 0.6550 0.1082 0.1713
C37 C 0.6135(3) 0.1395(2) 0.2872(3)
H32 H 0.5654 0.1057 0.2858
C38 C 0.6911(3) 0.2298(2) 0.3551(3)
H33 H 0.7007 0.2608 0.4038
C39 C 0.7462(3) 0.23708(19) 0.2877(3)
H34 H 0.7910 0.2725 0.2899
C40 C 0.8508(3) 0.33208(15) -0.0023(3)
C41 C 0.9526(3) 0.36151(17) 0.0068(3)
H35 H 1.0221 0.3398 0.0314
C42 C 0.9508(3) 0.42210(18) -0.0201(4)
H36 H 1.0211 0.4410 -0.0129
C43 C 0.7606(3) 0.42751(17) -0.0669(3)
H37 H 0.6920 0.4499 -0.0943
C44 C 0.7544(3) 0.36676(16) -0.0409(3)
H38 H 0.6828 0.3489 -0.0499
loop_
_geom_bond_atom_site_label_1
_geom_bond_atom_site_label_2
_geom_bond_site_symmetry_1
_geom_bond_site_symmetry_2
O1 C1 1_555 1_555
N1 C8 1_555 1_555
C1 H1 1_555 1_555
H2 C1 1_555 1_555
H3 C1 1_555 1_555
O2 C2 1_555 1_555
N2 C15 1_555 1_555
C2 O1 1_555 1_555
H4 C2 1_555 1_555
H5 C2 1_555 1_555
N3 C20 1_555 1_555
C3 O2 1_555 1_555
C4 C3 1_555 1_555
C5 C4 1_555 1_555
H6 C5 1_555 1_555
C6 C5 1_555 1_555
C7 C6 1_555 1_555
C8 C3 1_555 1_555
C9 C7 1_555 1_555
H7 C9 1_555 1_555
C10 C9 1_555 1_555
H8 C10 1_555 1_555
C11 N1 1_555 1_555
C12 C11 1_555 1_555
H9 C12 1_555 1_555
H10 C12 1_555 1_555
H11 C12 1_555 1_555
C13 C4 1_555 1_555
C14 C13 1_555 1_555
H12 C14 1_555 1_555
C15 C14 1_555 1_555
H13 C15 1_555 1_555
C16 N2 1_555 1_555
H14 C16 1_555 1_555
C17 C13 1_555 1_555
H15 C17 1_555 1_555
C18 C6 1_555 1_555
C19 C18 1_555 1_555
H16 C19 1_555 1_555
C20 C19 1_555 1_555
H17 C20 1_555 1_555
C21 N3 1_555 1_555
H18 C21 1_555 1_555
C22 C18 1_555 1_555
H19 C22 1_555 1_555
O3 C23 1_555 1_555
O4 C24 1_555 1_555
N4 C26 1_555 1_555
N5 C37 1_555 1_555
N6 C42 1_555 1_555
C23 H20 1_555 1_555
H21 C23 1_555 1_555
H22 C23 1_555 1_555
C24 O3 1_555 1_555
H23 C24 1_555 1_555
H24 C24 1_555 1_555
C25 O4 1_555 1_555
C26 C25 1_555 1_555
C27 C26 1_555 1_555
C28 C27 1_555 1_555
C29 C28 1_555 1_555
H25 C29 1_555 1_555
C30 C25 1_555 1_555
C31 C27 1_555 1_555
H26 C31 1_555 1_555
C32 C31 1_555 1_555
H27 C32 1_555 1_555
C33 N4 1_555 1_555
C34 C33 1_555 1_555
H28 C34 1_555 1_555
H29 C34 1_555 1_555
H30 C34 1_555 1_555
C35 C30 1_555 1_555
C36 C35 1_555 1_555
H31 C36 1_555 1_555
C37 C36 1_555 1_555
H32 C37 1_555 1_555
C38 N5 1_555 1_555
H33 C38 1_555 1_555
C39 C35 1_555 1_555
H34 C39 1_555 1_555
C40 C28 1_555 1_555
C41 C40 1_555 1_555
H35 C41 1_555 1_555
C42 C41 1_555 1_555
H36 C42 1_555 1_555
C43 N6 1_555 1_555
H37 C43 1_555 1_555
C44 C40 1_555 1_555
H38 C44 1_555 1_555
C7 C8 1_555 1_555
C10 C11 1_555 1_555
C16 C17 1_555 1_555
C21 C22 1_555 1_555
C29 C30 1_555 1_555
C32 C33 1_555 1_555
C38 C39 1_555 1_555
C43 C44 1_555 1_555

#END
