
#######################################################################
#
#                 Cambridge Crystallographic Data Centre
#                                CCDC 
#
#######################################################################
#
# If this CIF has been generated from an entry in the Cambridge 
# Structural Database, then it will include bibliographic, chemical, 
# crystal, experimental, refinement or atomic coordinate data resulting 
# from the CCDC's data processing and validation procedures.
#
#######################################################################

data_JOKFUM
_chemical_formula_moiety         'C31 H38 B1 O3 P1'
_chemical_name_systematic        
(cyclooctane-1,5-diyl)(formato)((tris(4-methylphenyl)phosphonio)methoxy)borate
_symmetry_cell_setting           triclinic
_symmetry_space_group_name_H-M   'P -1'
_symmetry_Int_Tables_number      2
_space_group_name_Hall           '-P 1'
loop_
_symmetry_equiv_pos_site_id
_symmetry_equiv_pos_as_xyz
1 x,y,z
2 -x,-y,-z
_cell_length_a                   11.0787(7)
_cell_length_b                   11.8207(9)
_cell_length_c                   12.1674(8)
_cell_angle_alpha                69.226(4)
_cell_angle_beta                 68.012(4)
_cell_angle_gamma                80.563(4)
_cell_volume                     1380.57
_exptl_crystal_colour            colorless
_cell_formula_units_Z            2
loop_
_atom_site_label
_atom_site_type_symbol
_atom_site_fract_x
_atom_site_fract_y
_atom_site_fract_z
P1 P 0.77431(3) 0.59522(3) 0.68717(3)
O1 O 0.56007(9) 0.71779(9) 0.76490(9)
O2 O 0.36660(9) 0.62969(9) 0.94106(9)
O3 O 0.28111(11) 0.47664(11) 0.93268(11)
C1 C 1.16563(18) 0.24355(17) 0.89465(19)
H1 H 1.1180 0.1817 0.9716
H2 H 1.2194 0.2874 0.9133
H3 H 1.2216 0.2047 0.8330
C2 C 1.06968(14) 0.33148(14) 0.84219(14)
C3 C 1.03942(15) 0.44410(15) 0.86072(15)
H4 H 1.0802 0.4661 0.9060
C4 C 0.95054(14) 0.52451(14) 0.81390(14)
H5 H 0.9307 0.6009 0.8273
C5 C 0.89031(13) 0.49284(13) 0.74708(13)
C6 C 0.65065(13) 0.63952(14) 0.81377(13)
H6 H 0.6070 0.5672 0.8814
H7 H 0.6906 0.6811 0.8488
C7 C 0.35850(14) 0.85792(13) 0.79240(13)
H8 H 0.3368 0.8308 0.7331
C8 C 0.44418(15) 0.96939(14) 0.71627(14)
H9 H 0.3901 1.0381 0.6819
H10 H 0.5143 0.9514 0.6446
C9 C 0.50735(16) 1.00953(14) 0.78973(15)
H11 H 0.5794 1.0634 0.7290
H12 H 0.4417 1.0575 0.8382
C10 C 1.04470(19) 1.05096(17) 0.28673(16)
H13 H 1.0877 1.0871 0.3230
H14 H 0.9799 1.1091 0.2586
H15 H 1.1098 1.0301 0.2153
C11 C 0.97831(16) 0.93825(15) 0.38401(14)
C12 C 1.05034(15) 0.83854(16) 0.43349(15)
H16 H 1.1425 0.8419 0.4048
C13 C 0.99059(14) 0.73446(15) 0.52364(14)
H17 H 1.0418 0.6679 0.5566
C14 C 0.85497(14) 0.72716(13) 0.56628(13)
C15 C 0.32328(15) 0.57828(15) 0.88783(15)
H18 H 0.3239 0.6233 0.8056
C16 C 0.47299(13) 0.79597(13) 0.95716(13)
H19 H 0.5226 0.7296 1.0024
C17 C 0.56131(15) 0.90545(14) 0.88026(14)
H20 H 0.5761 0.9376 0.9389
H21 H 0.6468 0.8771 0.8313
C18 C 0.23043(14) 0.88302(14) 0.89044(14)
H22 H 0.1752 0.8120 0.9258
H23 H 0.1835 0.9530 0.8479
C19 C 0.24746(15) 0.90960(15) 0.99886(14)
H24 H 0.2782 0.9929 0.9682
H25 H 0.1616 0.9061 1.0659
C20 C 0.34368(14) 0.82134(14) 1.05459(13)
H26 H 0.3007 0.7436 1.1074
H27 H 0.3638 0.8545 1.1097
C21 C 1.00886(14) 0.30065(14) 0.77605(14)
H28 H 1.0286 0.2241 0.7631
C22 C 0.91990(13) 0.37988(14) 0.72873(13)
H29 H 0.8790 0.3574 0.6838
C23 C 0.70022(13) 0.51719(13) 0.62813(13)
C24 C 0.60092(14) 0.43776(14) 0.71178(13)
H30 H 0.5667 0.4325 0.7976
C25 C 0.55257(15) 0.36694(14) 0.66988(14)
H31 H 0.4855 0.3128 0.7279
C26 C 0.59965(15) 0.37277(14) 0.54457(14)
C27 C 0.69696(14) 0.45436(15) 0.46092(14)
H32 H 0.7295 0.4610 0.3748
C28 C 0.74681(14) 0.52591(14) 0.50183(13)
H33 H 0.8129 0.5810 0.4437
C29 C 0.54908(18) 0.29249(16) 0.50036(16)
H34 H 0.6136 0.2272 0.4854
H35 H 0.5332 0.3403 0.4225
H36 H 0.4675 0.2577 0.5644
C30 C 0.78163(15) 0.82628(15) 0.51645(14)
H37 H 0.6896 0.8228 0.5441
C31 C 0.84329(16) 0.92983(15) 0.42661(14)
H38 H 0.7924 0.9966 0.3933
B1 B 0.44172(15) 0.74982(15) 0.86176(15)
loop_
_geom_bond_atom_site_label_1
_geom_bond_atom_site_label_2
_geom_bond_site_symmetry_1
_geom_bond_site_symmetry_2
P1 C5 1_555 1_555
O1 C6 1_555 1_555
O2 C15 1_555 1_555
O3 C15 1_555 1_555
C1 H1 1_555 1_555
H2 C1 1_555 1_555
H3 C1 1_555 1_555
C2 C1 1_555 1_555
C3 C2 1_555 1_555
H4 C3 1_555 1_555
C4 C3 1_555 1_555
H5 C4 1_555 1_555
C5 C4 1_555 1_555
C6 P1 1_555 1_555
H6 C6 1_555 1_555
H7 C6 1_555 1_555
C7 H8 1_555 1_555
C8 C7 1_555 1_555
H9 C8 1_555 1_555
H10 C8 1_555 1_555
C9 C8 1_555 1_555
H11 C9 1_555 1_555
H12 C9 1_555 1_555
C10 H13 1_555 1_555
H14 C10 1_555 1_555
H15 C10 1_555 1_555
C11 C10 1_555 1_555
C12 C11 1_555 1_555
H16 C12 1_555 1_555
C13 C12 1_555 1_555
H17 C13 1_555 1_555
C14 P1 1_555 1_555
C15 H18 1_555 1_555
C16 H19 1_555 1_555
C17 C9 1_555 1_555
H20 C17 1_555 1_555
H21 C17 1_555 1_555
C18 C7 1_555 1_555
H22 C18 1_555 1_555
H23 C18 1_555 1_555
C19 C18 1_555 1_555
H24 C19 1_555 1_555
H25 C19 1_555 1_555
C20 C16 1_555 1_555
H26 C20 1_555 1_555
H27 C20 1_555 1_555
C21 C2 1_555 1_555
H28 C21 1_555 1_555
C22 C5 1_555 1_555
H29 C22 1_555 1_555
C23 P1 1_555 1_555
C24 C23 1_555 1_555
H30 C24 1_555 1_555
C25 C24 1_555 1_555
H31 C25 1_555 1_555
C26 C25 1_555 1_555
C27 C26 1_555 1_555
H32 C27 1_555 1_555
C28 C23 1_555 1_555
H33 C28 1_555 1_555
C29 C26 1_555 1_555
H34 C29 1_555 1_555
H35 C29 1_555 1_555
H36 C29 1_555 1_555
C30 C14 1_555 1_555
H37 C30 1_555 1_555
C31 C11 1_555 1_555
H38 C31 1_555 1_555
B1 O1 1_555 1_555
O2 B1 1_555 1_555
C7 B1 1_555 1_555
C13 C14 1_555 1_555
C16 C17 1_555 1_555
C16 B1 1_555 1_555
C19 C20 1_555 1_555
C21 C22 1_555 1_555
C27 C28 1_555 1_555
C30 C31 1_555 1_555

#END
