
#######################################################################
#
#                 Cambridge Crystallographic Data Centre
#                                CCDC 
#
#######################################################################
#
# If this CIF has been generated from an entry in the Cambridge 
# Structural Database, then it will include bibliographic, chemical, 
# crystal, experimental, refinement or atomic coordinate data resulting 
# from the CCDC's data processing and validation procedures.
#
#######################################################################

data_JOKFOG
_chemical_formula_moiety         'C22 H44 B1 O3 P1'
_chemical_name_systematic        
(cyclooctane-1,5-diyl)(formato)((tri-t-butylphosphonio)methoxy)borate
_symmetry_cell_setting           monoclinic
_symmetry_space_group_name_H-M   'P 21/c'
_symmetry_Int_Tables_number      14
_space_group_name_Hall           '-P 2ybc'
loop_
_symmetry_equiv_pos_site_id
_symmetry_equiv_pos_as_xyz
1 x,y,z
2 -x,1/2+y,1/2-z
3 -x,-y,-z
4 x,1/2-y,1/2+z
_cell_length_a                   14.6340(13)
_cell_length_b                   11.9762(11)
_cell_length_c                   13.9876(11)
_cell_angle_alpha                90
_cell_angle_beta                 109.376(4)
_cell_angle_gamma                90
_cell_volume                     2312.62
_exptl_crystal_colour            colorless
_cell_formula_units_Z            4
loop_
_atom_site_label
_atom_site_type_symbol
_atom_site_fract_x
_atom_site_fract_y
_atom_site_fract_z
P1 P 0.33025(4) 1.03695(4) 0.20229(3)
O1 O 0.22640(10) 0.86075(11) 0.22467(10)
O2 O 0.29396(10) 0.70227(12) 0.33644(11)
C1 C 0.23457(17) 1.21870(17) 0.07747(16)
H1 H 0.1944 1.2431 0.0097
H2 H 0.2988 1.2530 0.0948
H3 H 0.2041 1.2415 0.1270
C2 C 0.24470(15) 1.09082(16) 0.07886(14)
C3 C 0.31163(14) 0.88546(16) 0.20480(14)
H4 H 0.3083 0.8530 0.1386
H5 H 0.3674 0.8513 0.2577
C4 C 0.10249(15) 0.73067(19) 0.25411(15)
H6 H 0.1008 0.7818 0.3100
C5 C 0.02611(15) 0.77068(19) 0.15470(15)
H7 H 0.0362 0.8514 0.1464
H8 H -0.0389 0.7618 0.1610
C6 C 0.02735(16) 0.7097(2) 0.05879(16)
H9 H -0.0044 0.6362 0.0557
H10 H -0.0114 0.7532 -0.0011
C7 C 0.28087(17) 1.05512(18) -0.00829(15)
H11 H 0.2324 1.0753 -0.0733
H12 H 0.2911 0.9742 -0.0057
H13 H 0.3420 1.0932 -0.0013
C8 C 0.30528(16) 0.74437(19) 0.42470(15)
H14 H 0.2548 0.7898 0.4319
O3 O 0.37645(13) 0.72964(15) 0.49920(12)
C9 C 0.20788(15) 0.65543(17) 0.15151(16)
H15 H 0.2724 0.6602 0.1417
C10 C 0.12955(16) 0.69130(19) 0.05250(16)
H16 H 0.1252 0.6336 0.0005
H17 H 0.1508 0.7616 0.0290
C11 C 0.08647(17) 0.6101(2) 0.28405(18)
H18 H 0.1304 0.5964 0.3540
H19 H 0.0192 0.6037 0.2847
C12 C 0.10304(18) 0.5185(2) 0.2152(2)
H20 H 0.0456 0.5147 0.1530
H21 H 0.1085 0.4458 0.2504
C13 C 0.19408(17) 0.53546(18) 0.18448(19)
H22 H 0.1906 0.4840 0.1280
H23 H 0.2518 0.5146 0.2425
C14 C 0.46100(15) 1.05361(17) 0.21180(15)
C15 C 0.52895(16) 1.0312(2) 0.32099(16)
H24 H 0.5961 1.0277 0.3218
H25 H 0.5114 0.9601 0.3450
H26 H 0.5224 1.0917 0.3655
C16 C 0.48866(16) 0.96639(18) 0.14477(16)
H27 H 0.4471 0.9759 0.0741
H28 H 0.4799 0.8911 0.1678
H29 H 0.5565 0.9768 0.1499
C17 C 0.30539(16) 1.09990(18) 0.31446(15)
C18 C 0.34902(18) 1.0254(2) 0.40820(15)
H30 H 0.4197 1.0239 0.4262
H31 H 0.3235 0.9494 0.3930
H32 H 0.3317 1.0553 0.4651
C19 C 0.19489(16) 1.1053(2) 0.29450(17)
H33 H 0.1830 1.1289 0.3564
H34 H 0.1664 1.0314 0.2742
H35 H 0.1653 1.1591 0.2402
C20 C 0.34795(19) 1.2184(2) 0.33834(18)
H36 H 0.3305 1.2499 0.3946
H37 H 0.3218 1.2659 0.2784
H38 H 0.4186 1.2149 0.3572
C21 C 0.14384(15) 1.03713(18) 0.05620(16)
H39 H 0.1152 1.0621 0.1067
H40 H 0.1503 0.9556 0.0591
H41 H 0.1019 1.0596 -0.0115
B1 B 0.20757(17) 0.7401(2) 0.24127(17)
C22 C 0.48331(17) 1.17124(18) 0.18060(18)
H42 H 0.4661 1.2272 0.2228
H43 H 0.4455 1.1843 0.1092
H44 H 0.5525 1.1770 0.1899
loop_
_geom_bond_atom_site_label_1
_geom_bond_atom_site_label_2
_geom_bond_site_symmetry_1
_geom_bond_site_symmetry_2
P1 C2 1_555 1_555
O1 C3 1_555 1_555
O2 C8 1_555 1_555
C1 H1 1_555 1_555
H2 C1 1_555 1_555
H3 C1 1_555 1_555
C2 C1 1_555 1_555
C3 P1 1_555 1_555
H4 C3 1_555 1_555
H5 C3 1_555 1_555
C4 H6 1_555 1_555
C5 C4 1_555 1_555
H7 C5 1_555 1_555
H8 C5 1_555 1_555
C6 C5 1_555 1_555
H9 C6 1_555 1_555
H10 C6 1_555 1_555
C7 C2 1_555 1_555
H11 C7 1_555 1_555
H12 C7 1_555 1_555
H13 C7 1_555 1_555
C8 H14 1_555 1_555
O3 C8 1_555 1_555
C9 H15 1_555 1_555
C10 C6 1_555 1_555
H16 C10 1_555 1_555
H17 C10 1_555 1_555
C11 C4 1_555 1_555
H18 C11 1_555 1_555
H19 C11 1_555 1_555
C12 C11 1_555 1_555
H20 C12 1_555 1_555
H21 C12 1_555 1_555
C13 C9 1_555 1_555
H22 C13 1_555 1_555
H23 C13 1_555 1_555
C14 P1 1_555 1_555
C15 C14 1_555 1_555
H24 C15 1_555 1_555
H25 C15 1_555 1_555
H26 C15 1_555 1_555
C16 C14 1_555 1_555
H27 C16 1_555 1_555
H28 C16 1_555 1_555
H29 C16 1_555 1_555
C17 P1 1_555 1_555
C18 C17 1_555 1_555
H30 C18 1_555 1_555
H31 C18 1_555 1_555
H32 C18 1_555 1_555
C19 C17 1_555 1_555
H33 C19 1_555 1_555
H34 C19 1_555 1_555
H35 C19 1_555 1_555
C20 C17 1_555 1_555
H36 C20 1_555 1_555
H37 C20 1_555 1_555
H38 C20 1_555 1_555
C21 C2 1_555 1_555
H39 C21 1_555 1_555
H40 C21 1_555 1_555
H41 C21 1_555 1_555
B1 O1 1_555 1_555
C22 C14 1_555 1_555
H42 C22 1_555 1_555
H43 C22 1_555 1_555
H44 C22 1_555 1_555
O2 B1 1_555 1_555
C4 B1 1_555 1_555
C9 C10 1_555 1_555
C9 B1 1_555 1_555
C12 C13 1_555 1_555

#END
