
#######################################################################
#
#                 Cambridge Crystallographic Data Centre
#                                CCDC 
#
#######################################################################
#
# If this CIF has been generated from an entry in the Cambridge 
# Structural Database, then it will include bibliographic, chemical, 
# crystal, experimental, refinement or atomic coordinate data resulting 
# from the CCDC's data processing and validation procedures.
#
#######################################################################

data_JOKLOK
_chemical_formula_moiety         'C9 H11 N1 O2'
_chemical_name_systematic        
7-Methyl-2-methylene-7,8-oxazabicyclo(4.3.0)nona-1(6)-en-9-one
_symmetry_cell_setting           monoclinic
_symmetry_space_group_name_H-M   'P 21'
_symmetry_Int_Tables_number      4
_space_group_name_Hall           'P 2yb'
loop_
_symmetry_equiv_pos_site_id
_symmetry_equiv_pos_as_xyz
1 x,y,z
2 -x,1/2+y,-z
_cell_length_a                   7.544(1)
_cell_length_b                   6.9280(8)
_cell_length_c                   8.3073(9)
_cell_angle_alpha                90
_cell_angle_beta                 99.38(1)
_cell_angle_gamma                90
_cell_volume                     428.374
_chemical_melting_point          79-81deg.C
_cell_formula_units_Z            2
loop_
_atom_site_label
_atom_site_type_symbol
_atom_site_fract_x
_atom_site_fract_y
_atom_site_fract_z
O1 O 0.0298(7) 0.2500(1) 0.6725(6)
C1 C -0.1042(11) 0.2338(29) 0.5304(10)
O2 O -0.2587(7) 0.2435(32) 0.5512(8)
C2 C -0.0133(10) 0.2463(32) 0.3962(9)
N1 N 0.1956(8) 0.2390(40) 0.6192(7)
C3 C -0.0804(10) 0.2453(28) 0.2223(8)
C4 C 0.0648(12) 0.2380(35) 0.1207(10)
C5 C 0.2362(12) 0.3310(31) 0.1891(9)
C6 C 0.3143(11) 0.2506(38) 0.3556(8)
C7 C 0.1676(9) 0.2459(31) 0.4549(9)
C8 C 0.3479(11) 0.2547(40) 0.7397(10)
C9 C -0.2539(12) 0.2487(40) 0.1575(11)
H1 H 0.0209(12) 0.2990(35) 0.0196(10)
H2 H 0.0889(12) 0.1060(35) 0.1021(10)
H3 H 0.3198(12) 0.3104(31) 0.1167(9)
H4 H 0.2166(12) 0.4656(31) 0.1993(9)
H5 H 0.4094(11) 0.3308(38) 0.4064(8)
H6 H 0.3584(11) 0.1237(38) 0.3444(8)
H7 H 0.4529(11) 0.2449(40) 0.6908(10)
H8 H 0.3476(11) 0.1542(40) 0.8175(10)
H9 H 0.3466(11) 0.3761(40) 0.7926(10)
H10 H -0.3439(6) 0.1761(29) 0.2085(30)
H11 H -0.2999(92) 0.2974(51) 0.0510(39)
loop_
_geom_bond_atom_site_label_1
_geom_bond_atom_site_label_2
_geom_bond_site_symmetry_1
_geom_bond_site_symmetry_2
O1 C1 1_555 1_555
C1 O2 1_555 1_555
C2 C1 1_555 1_555
N1 O1 1_555 1_555
C3 C2 1_555 1_555
C4 C3 1_555 1_555
C5 C4 1_555 1_555
C6 C5 1_555 1_555
C7 C2 1_555 1_555
C8 N1 1_555 1_555
C9 C3 1_555 1_555
H1 C4 1_555 1_555
H2 C4 1_555 1_555
H3 C5 1_555 1_555
H4 C5 1_555 1_555
H5 C6 1_555 1_555
H6 C6 1_555 1_555
H7 C8 1_555 1_555
H8 C8 1_555 1_555
H9 C8 1_555 1_555
H10 C9 1_555 1_555
H11 C9 1_555 1_555
N1 C7 1_555 1_555
C6 C7 1_555 1_555

#END
