
#######################################################################
#
#                 Cambridge Crystallographic Data Centre
#                                CCDC 
#
#######################################################################
#
# If this CIF has been generated from an entry in the Cambridge 
# Structural Database, then it will include bibliographic, chemical, 
# crystal, experimental, refinement or atomic coordinate data resulting 
# from the CCDC's data processing and validation procedures.
#
#######################################################################

data_JOKMON
_chemical_formula_moiety         'C10 H14 O4'
_chemical_name_systematic        
7,10,13-trioxatricyclo[6.4.1.0^1,6^]tridecan-4-one
_symmetry_cell_setting           monoclinic
_symmetry_space_group_name_H-M   'P 21/n'
_symmetry_Int_Tables_number      14
_space_group_name_Hall           '-P 2yn'
loop_
_symmetry_equiv_pos_site_id
_symmetry_equiv_pos_as_xyz
1 x,y,z
2 1/2-x,1/2+y,1/2-z
3 -x,-y,-z
4 1/2+x,1/2-y,1/2+z
_cell_length_a                   5.5004(2)
_cell_length_b                   15.6964(6)
_cell_length_c                   10.8884(4)
_cell_angle_alpha                90
_cell_angle_beta                 104.5090(10)
_cell_angle_gamma                90
_cell_volume                     910.086
_exptl_crystal_colour            colorless
_exptl_crystal_description       prism
_cell_formula_units_Z            4
loop_
_atom_site_label
_atom_site_type_symbol
_atom_site_fract_x
_atom_site_fract_y
_atom_site_fract_z
O1 O -0.0186(3) 0.74860(10) 0.47885(15)
O2 O 0.3648(2) 0.41361(8) 0.26395(13)
C1 C 0.3323(4) 0.44879(12) 0.13958(17)
H1 H 0.1722 0.4277 0.0846
H2 H 0.4701 0.4284 0.1035
C2 C 0.1340(4) 0.39871(11) 0.29721(18)
H3 H 0.1668 0.3628 0.3744
H4 H 0.0198 0.3667 0.2278
O3 O -0.0504(2) 0.53406(8) 0.21289(11)
O4 O 0.1563(2) 0.52939(8) 0.41980(12)
C3 C 0.0794(3) 0.67476(11) 0.17493(16)
H5 H 0.2263 0.7109 0.1739
H6 H -0.0275 0.6715 0.0872
C4 C 0.3196(3) 0.67032(12) 0.43150(16)
H7 H 0.3741 0.6614 0.5244
H8 H 0.4457 0.7070 0.4066
C5 C -0.0686(4) 0.71541(10) 0.25973(18)
H9 H -0.1078 0.7751 0.2322
H10 H -0.2298 0.6847 0.2488
C6 C 0.3299(3) 0.54690(12) 0.13803(16)
H11 H 0.5043 0.5679 0.1686
H12 H 0.2653 0.5667 0.0495
C7 C 0.3080(3) 0.58430(11) 0.36422(17)
H13 H 0.4806 0.5600 0.3766
C8 C 0.0046(3) 0.48012(12) 0.32147(16)
H14 H -0.1553 0.4653 0.3444
C9 C 0.0684(4) 0.71493(10) 0.39911(18)
C10 C 0.1694(3) 0.58570(11) 0.21980(15)
loop_
_geom_bond_atom_site_label_1
_geom_bond_atom_site_label_2
_geom_bond_site_symmetry_1
_geom_bond_site_symmetry_2
O1 C9 1_555 1_555
O2 C1 1_555 1_555
C1 H1 1_555 1_555
H2 C1 1_555 1_555
C2 O2 1_555 1_555
H3 C2 1_555 1_555
H4 C2 1_555 1_555
O3 C8 1_555 1_555
O4 C7 1_555 1_555
C3 H5 1_555 1_555
H6 C3 1_555 1_555
C4 H7 1_555 1_555
H8 C4 1_555 1_555
C5 C3 1_555 1_555
H9 C5 1_555 1_555
H10 C5 1_555 1_555
C6 C1 1_555 1_555
H11 C6 1_555 1_555
H12 C6 1_555 1_555
C7 C4 1_555 1_555
H13 C7 1_555 1_555
C8 C2 1_555 1_555
H14 C8 1_555 1_555
C9 C4 1_555 1_555
C10 O3 1_555 1_555
O4 C8 1_555 1_555
C3 C10 1_555 1_555
C5 C9 1_555 1_555
C6 C10 1_555 1_555
C7 C10 1_555 1_555

#END
