
#######################################################################
#
#                 Cambridge Crystallographic Data Centre
#                                CCDC 
#
#######################################################################
#
# If this CIF has been generated from an entry in the Cambridge 
# Structural Database, then it will include bibliographic, chemical, 
# crystal, experimental, refinement or atomic coordinate data resulting 
# from the CCDC's data processing and validation procedures.
#
#######################################################################

data_JOKTEK01
_chemical_formula_moiety         'C17 H11 N1 O1 S1'
_chemical_name_systematic        1-(1,3-benzothiazol-2-yl)naphthalen-2-ol
_symmetry_cell_setting           monoclinic
_symmetry_space_group_name_H-M   'P 21/c'
_symmetry_Int_Tables_number      14
_space_group_name_Hall           '-P 2ybc'
loop_
_symmetry_equiv_pos_site_id
_symmetry_equiv_pos_as_xyz
1 x,y,z
2 -x,1/2+y,1/2-z
3 -x,-y,-z
4 x,1/2-y,1/2+z
_cell_length_a                   4.7876(9)
_cell_length_b                   15.409(3)
_cell_length_c                   17.756(3)
_cell_angle_alpha                90
_cell_angle_beta                 97.355(2)
_cell_angle_gamma                90
_cell_volume                     1299.12
_exptl_crystal_colour            yellow
_exptl_crystal_description       Block
_cell_formula_units_Z            4
loop_
_atom_site_label
_atom_site_type_symbol
_atom_site_fract_x
_atom_site_fract_y
_atom_site_fract_z
C1 C 1.3579(4) 0.05727(12) 0.10816(11)
C2 C 1.4959(5) -0.02149(13) 0.10016(12)
H1 H 1.4456 -0.0569 0.0582
C3 C 1.7076(5) -0.04505(14) 0.15583(12)
H2 H 1.8016 -0.0973 0.1516
C4 C 1.7843(4) 0.00788(14) 0.21859(13)
H3 H 1.9296 -0.0093 0.2554
C5 C 1.6481(5) 0.08509(14) 0.22682(12)
H4 H 1.7007 0.1203 0.2688
C6 C 1.4306(4) 0.10977(12) 0.17153(11)
C7 C 1.0868(4) 0.19241(11) 0.11134(12)
C8 C 0.8825(4) 0.26401(12) 0.10348(11)
C9 C 0.8440(4) 0.30983(13) 0.16898(13)
C10 C 0.6375(5) 0.37522(13) 0.16843(15)
H5 H 0.6128 0.4041 0.2131
C11 C 0.4757(5) 0.39589(14) 0.10283(16)
H6 H 0.3395 0.4388 0.1034
C12 C 0.5064(4) 0.35464(13) 0.03389(14)
C13 C 0.7125(4) 0.28779(12) 0.03362(12)
C14 C 0.7387(5) 0.25089(14) -0.03847(13)
H7 H 0.8761 0.2089 -0.0419
C15 C 0.5690(5) 0.27484(15) -0.10291(14)
H8 H 0.5903 0.2480 -0.1487
C16 C 0.3646(6) 0.33883(18) -0.10104(16)
H9 H 0.2483 0.3545 -0.1449
C17 C 0.3391(5) 0.37779(16) -0.03374(16)
H10 H 0.2057 0.4214 -0.0324
N1 N 1.2712(3) 0.18534(10) 0.17205(9)
O1 O 0.9923(3) 0.29525(9) 0.23729(9)
H11 H 1.1124 0.2582 0.2333
S1 S 1.09293(12) 0.10572(3) 0.04801(3)
loop_
_geom_bond_atom_site_label_1
_geom_bond_atom_site_label_2
_geom_bond_site_symmetry_1
_geom_bond_site_symmetry_2
C1 C2 1_555 1_555
C2 H1 1_555 1_555
C3 C2 1_555 1_555
H2 C3 1_555 1_555
C4 C3 1_555 1_555
H3 C4 1_555 1_555
C5 C4 1_555 1_555
H4 C5 1_555 1_555
C6 C1 1_555 1_555
C7 C8 1_555 1_555
C8 C9 1_555 1_555
C9 C10 1_555 1_555
C10 H5 1_555 1_555
C11 C10 1_555 1_555
H6 C11 1_555 1_555
C12 C11 1_555 1_555
C13 C8 1_555 1_555
C14 C13 1_555 1_555
H7 C14 1_555 1_555
C15 C14 1_555 1_555
H8 C15 1_555 1_555
C16 C15 1_555 1_555
H9 C16 1_555 1_555
C17 C12 1_555 1_555
H10 C17 1_555 1_555
N1 C6 1_555 1_555
O1 C9 1_555 1_555
H11 O1 1_555 1_555
S1 C1 1_555 1_555
C5 C6 1_555 1_555
C7 N1 1_555 1_555
C7 S1 1_555 1_555
C12 C13 1_555 1_555
C16 C17 1_555 1_555

#END
