
#######################################################################
#
#                 Cambridge Crystallographic Data Centre
#                                CCDC 
#
#######################################################################
#
# If this CIF has been generated from an entry in the Cambridge 
# Structural Database, then it will include bibliographic, chemical, 
# crystal, experimental, refinement or atomic coordinate data resulting 
# from the CCDC's data processing and validation procedures.
#
#######################################################################

data_JOKWOX
_chemical_formula_moiety         'C26 H17 F6 N3 S1'
_chemical_name_systematic        
4-(4-(2-(1,2-dimethyl-1H-pyrrolo[2,3-b]pyridin-3-yl)-3,3,4,4,5,5-hexafluorocyclopent-1-en-1-yl)-5-methyl-2-thienyl)benzonitrile
_symmetry_cell_setting           triclinic
_symmetry_space_group_name_H-M   'P -1'
_symmetry_Int_Tables_number      2
_space_group_name_Hall           '-P 1'
loop_
_symmetry_equiv_pos_site_id
_symmetry_equiv_pos_as_xyz
1 x,y,z
2 -x,-y,-z
_cell_length_a                   9.110(2)
_cell_length_b                   11.354(3)
_cell_length_c                   11.856(3)
_cell_angle_alpha                80.130(5)
_cell_angle_beta                 79.898(5)
_cell_angle_gamma                79.075(5)
_cell_volume                     1173.26
_cell_formula_units_Z            2
loop_
_atom_site_label
_atom_site_type_symbol
_atom_site_fract_x
_atom_site_fract_y
_atom_site_fract_z
S1 S 0.37226(6) 0.49752(4) 0.85160(4)
N1 N 0.41761(17) 0.15459(13) 0.53814(13)
C1 C 0.60862(17) 0.15552(14) 0.63414(13)
C2 C 0.45810(18) 0.14523(14) 0.64538(14)
C3 C 0.65537(17) 0.18821(14) 0.82976(13)
C4 C 0.53934(18) 0.29093(15) 0.85898(13)
N2 N 0.5394(2) 0.18522(15) 0.34309(14)
C5 C 0.69188(17) 0.13852(15) 0.73132(13)
C6 C 0.23981(19) 0.43538(15) 1.07724(14)
C7 C 0.66404(19) 0.17352(14) 0.51293(13)
C8 C 0.5401(2) 0.17254(14) 0.45652(14)
C9 C 0.35169(19) 0.39957(15) 0.97914(14)
C10 C 0.7530(2) 0.12137(18) 0.91766(14)
C11 C 0.44895(19) 0.29425(15) 0.96968(13)
H1 H 0.4560 0.2301 1.0299
C12 C 0.5100(2) 0.39707(15) 0.78514(14)
C13 C 0.0220(2) 0.50190(18) 1.26142(17)
C14 C 0.7984(2) 0.19379(18) 0.44276(16)
H2 H 0.8836 0.1982 0.4740
C15 C 0.5807(3) 0.43425(18) 0.66386(17)
H3 H 0.6851 0.3973 0.6535
H4 H 0.5734 0.5208 0.6493
H5 H 0.5290 0.4085 0.6108
C16 C 0.2371(3) 0.3676(2) 1.18561(17)
H6 H 0.3090 0.2984 1.1975
C17 C 0.8306(2) 0.0432(2) 0.73650(16)
C18 C 0.6710(3) 0.20195(19) 0.28014(16)
H7 H 0.6771 0.2109 0.2001
C19 C 0.3486(2) 0.1221(2) 0.75097(18)
H8 H 0.2797 0.1955 0.7632
H9 H 0.4017 0.0947 0.8163
H10 H 0.2933 0.0610 0.7421
C20 C -0.0926(3) 0.5361(2) 1.3558(2)
C21 C 0.2702(2) 0.1432(2) 0.5134(2)
H11 H 0.2758 0.1418 0.4320
H12 H 0.1970 0.2109 0.5359
H13 H 0.2408 0.0694 0.5560
N3 N -0.1833(3) 0.5642(2) 1.4290(2)
F1 F 0.6664(15) 0.0446(11) 0.9930(10)
F2 F 0.7911(8) 0.1893(8) 0.9816(5)
F3 F 0.9390(5) -0.0525(4) 0.9035(3)
F4 F 0.9931(4) 0.1179(4) 0.8189(4)
F5 F 0.7768(6) -0.0702(3) 0.7529(3)
F6 F 0.9258(5) 0.0415(5) 0.6467(4)
C22 C 0.1295(3) 0.4008(2) 1.27631(19)
H14 H 0.1298 0.3539 1.3488
C23 C 0.1314(3) 0.53929(19) 1.06381(18)
H15 H 0.1318 0.5875 0.9920
C24 C 0.8000(3) 0.2071(2) 0.32441(17)
H16 H 0.8882 0.2196 0.2744
C25 C 0.8763(2) 0.0377(2) 0.85343(19)
C26 C 0.0240(3) 0.5718(2) 1.1548(2)
H17 H -0.0476 0.6414 1.1442
F7? F 0.8427(10) -0.0842(4) 0.9059(5)
F8? F 0.8375(7) -0.0531(6) 0.6944(6)
F9? F 0.9574(5) 0.0968(7) 0.6670(4)
F10? F 1.0106(5) 0.0273(10) 0.8660(5)
F11? F 0.6864(15) 0.0667(12) 1.0129(11)
F12? F 0.8311(10) 0.1956(8) 0.9548(7)
loop_
_geom_bond_atom_site_label_1
_geom_bond_atom_site_label_2
_geom_bond_site_symmetry_1
_geom_bond_site_symmetry_2
S1 C9 1_555 1_555
N1 C2 1_555 1_555
C1 C2 1_555 1_555
C2 C19 1_555 1_555
C3 C4 1_555 1_555
C4 C11 1_555 1_555
N2 C8 1_555 1_555
C5 C1 1_555 1_555
C6 C9 1_555 1_555
C7 C1 1_555 1_555
C8 N1 1_555 1_555
C9 C11 1_555 1_555
C10 C3 1_555 1_555
C11 H1 1_555 1_555
C12 S1 1_555 1_555
C13 C20 1_555 1_555
C14 C7 1_555 1_555
H2 C14 1_555 1_555
C15 C12 1_555 1_555
H3 C15 1_555 1_555
H4 C15 1_555 1_555
H5 C15 1_555 1_555
C16 C6 1_555 1_555
H6 C16 1_555 1_555
C17 C5 1_555 1_555
C18 N2 1_555 1_555
H7 C18 1_555 1_555
C19 H8 1_555 1_555
H9 C19 1_555 1_555
H10 C19 1_555 1_555
C20 N3 1_555 1_555
C21 N1 1_555 1_555
H11 C21 1_555 1_555
H12 C21 1_555 1_555
H13 C21 1_555 1_555
F1 C10 1_555 1_555
F2 C10 1_555 1_555
F3 C25 1_555 1_555
F4 C25 1_555 1_555
F5 C17 1_555 1_555
F6 C17 1_555 1_555
C22 C13 1_555 1_555
H14 C22 1_555 1_555
C23 C6 1_555 1_555
H15 C23 1_555 1_555
C24 C14 1_555 1_555
H16 C24 1_555 1_555
C25 C10 1_555 1_555
C26 C13 1_555 1_555
H17 C26 1_555 1_555
C3 C5 1_555 1_555
C4 C12 1_555 1_555
C7 C8 1_555 1_555
C16 C22 1_555 1_555
C17 C25 1_555 1_555
C18 C24 1_555 1_555
C23 C26 1_555 1_555

#END
