
#######################################################################
#
#                 Cambridge Crystallographic Data Centre
#                                CCDC 
#
#######################################################################
#
# If this CIF has been generated from an entry in the Cambridge 
# Structural Database, then it will include bibliographic, chemical, 
# crystal, experimental, refinement or atomic coordinate data resulting 
# from the CCDC's data processing and validation procedures.
#
#######################################################################

data_JOKYEP
_chemical_name_common            
"(2)-(1,1'-dimethyl-4,4'-bipyridinium)-(1,5-dinaphtho-50-crown-14)-pseudorotaxane bis(hexafluorophosphate)"
_chemical_formula_moiety         'C44 H60 O14,C12 H14 N2 2+,2(F6 P1 1-)'
_chemical_name_systematic        
"(2)-(1,1'-dimethyl-4,4'-bipyridinium)-(6,9,12,15,18,21,24,35,38,41,44,47,50,53-tetradecaoxapentacyclo[52.4.0.0^5,58^.0^25,30^.0^29,34^]octapentaconta-1(58),2,4,25,27,29,31,33,54,56-decaene)-pseudorotaxane bis(hexafluorophosphate)"
_symmetry_cell_setting           monoclinic
_symmetry_space_group_name_H-M   'P 2/c'
_symmetry_Int_Tables_number      13
_space_group_name_Hall           '-P 2yc'
loop_
_symmetry_equiv_pos_site_id
_symmetry_equiv_pos_as_xyz
1 x,y,z
2 -x,y,1/2-z
3 -x,-y,-z
4 x,-y,1/2+z
_cell_length_a                   14.222(3)
_cell_length_b                   10.689(2)
_cell_length_c                   22.363(8)
_cell_angle_alpha                90
_cell_angle_beta                 115.27(2)
_cell_angle_gamma                90
_cell_volume                     3074.28
_cell_formula_units_Z            2
loop_
_atom_site_label
_atom_site_type_symbol
_atom_site_fract_x
_atom_site_fract_y
_atom_site_fract_z
C1 C 0.0343(4) 0.5930(4) 0.2840(2)
O1 O 0.2044(3) 0.5942(4) 0.36858(19)
C2 C 0.1443(4) 0.5939(5) 0.3022(3)
C3 C -0.1106(5) 0.5926(6) 0.3121(3)
H1 H -0.1368 0.5926 0.3438
C4 C -0.0051(5) 0.5913(5) 0.3325(3)
H2 H 0.0398 0.5894 0.3773
C5 C 0.1804(4) 0.5939(5) 0.2551(3)
H3 H 0.2516 0.5948 0.2674
C6 C 0.3610(5) 0.5879(7) 0.4639(3)
H4 H 0.4335 0.6128 0.4834
H5 H 0.3244 0.6387 0.4831
C7 C 0.3150(4) 0.6055(6) 0.3913(3)
H6 H 0.3327 0.6874 0.3805
H7 H 0.3406 0.5423 0.3709
O2 O 0.3523(3) 0.4613(5) 0.4763(2)
O3 O -0.1945(3) -0.0667(4) 0.2701(2)
C8 C -0.0300(4) -0.0686(5) 0.2679(3)
C9 C -0.1424(4) -0.0688(5) 0.2314(3)
C10 C 0.0189(5) -0.0683(5) 0.3384(3)
H8 H -0.0210 -0.0674 0.3623
C11 C -0.1869(5) -0.0695(5) 0.1641(3)
H9 H -0.2589 -0.0701 0.1410
C12 C -0.3060(5) -0.0846(6) 0.2388(4)
H10 H -0.3226 -0.1679 0.2200
H11 H -0.3381 -0.0241 0.2035
C13 C 0.1256(5) -0.0694(6) 0.3706(3)
H12 H 0.1576 -0.0700 0.4166
C14 C -0.3447(6) -0.0678(8) 0.2894(5)
H13 H -0.4153 -0.0990 0.2734
H14 H -0.3014 -0.1134 0.3292
O4 O -0.3419(4) 0.0593(6) 0.3028(3)
C15 C 0.3620(7) 0.4391(11) 0.5403(4)
H15 H 0.3256 0.5042 0.5522
H16 H 0.4349 0.4432 0.5711
O5 O 0.0056(5) 0.2518(8) 0.4485(3)
O6 O -0.2066(7) 0.2194(11) 0.4106(4)
C16 C 0.3207(14) 0.3185(15) 0.5462(5)
H17 H 0.3602 0.2534 0.5370
H18 H 0.3294 0.3076 0.5913
C17 C -0.3579(8) 0.0938(15) 0.3598(6)
H19 H -0.4288 0.1241 0.3438
H20 H -0.3540 0.0176 0.3843
C18 C -0.2932(18) 0.1833(15) 0.4058(10)
H21 H -0.3351 0.2581 0.3988
H22 H -0.2812 0.1519 0.4492
O7 O 0.2152(7) 0.3047(11) 0.5032(4)
C19 C 0.1712(19) 0.229(3) 0.5271(9)
H23 H 0.2189 0.1597 0.5457
H24 H 0.1662 0.2715 0.5639
C20 C 0.086(2) 0.183(2) 0.4940(11)
H25 H 0.0609 0.1490 0.5249
H26 H 0.0968 0.1126 0.4705
C21 C -0.131(2) 0.305(2) 0.4578(11)
H27 H -0.1274 0.3788 0.4341
H28 H -0.1580 0.3302 0.4893
C22 C -0.047(3) 0.267(3) 0.4877(11)
H29 H -0.0498 0.1866 0.5073
H30 H -0.0083 0.3242 0.5233
C1A C -0.0343(4) 0.5930(4) 0.2160(2)
O1A O -0.2044(3) 0.5942(4) 0.13142(19)
C2A C -0.1443(4) 0.5939(5) 0.1978(3)
C3A C 0.1106(5) 0.5926(6) 0.1879(3)
H1A H 0.1368 0.5926 0.1562
C4A C 0.0051(5) 0.5913(5) 0.1675(3)
H2A H -0.0398 0.5894 0.1227
C5A C -0.1804(4) 0.5939(5) 0.2449(3)
H3A H -0.2516 0.5948 0.2326
C6A C -0.3610(5) 0.5879(7) 0.0361(3)
H4A H -0.4335 0.6128 0.0166
H5A H -0.3244 0.6387 0.0169
C7A C -0.3150(4) 0.6055(6) 0.1087(3)
H6A H -0.3327 0.6874 0.1195
H7A H -0.3406 0.5423 0.1291
O2A O -0.3523(3) 0.4613(5) 0.0237(2)
O3A O 0.1945(3) -0.0667(4) 0.2299(2)
C8A C 0.0300(4) -0.0686(5) 0.2321(3)
C9A C 0.1424(4) -0.0688(5) 0.2686(3)
C10A C -0.0189(5) -0.0683(5) 0.1616(3)
H8A H 0.0210 -0.0674 0.1377
C11A C 0.1869(5) -0.0695(5) 0.3359(3)
H9A H 0.2589 -0.0701 0.3590
C12A C 0.3060(5) -0.0846(6) 0.2612(4)
H10A H 0.3226 -0.1679 0.2800
H11A H 0.3381 -0.0241 0.2965
C13A C -0.1256(5) -0.0694(6) 0.1294(3)
H12A H -0.1576 -0.0700 0.0834
C14A C 0.3447(6) -0.0678(8) 0.2106(5)
H13A H 0.4153 -0.0990 0.2266
H14A H 0.3014 -0.1134 0.1708
O4A O 0.3419(4) 0.0593(6) 0.1972(3)
C15A C -0.3620(7) 0.4391(11) -0.0403(4)
H15A H -0.3256 0.5042 -0.0522
H16A H -0.4349 0.4432 -0.0711
O5A O -0.0056(5) 0.2518(8) 0.0515(3)
O6A O 0.2066(7) 0.2194(11) 0.0894(4)
C16A C -0.3207(14) 0.3185(15) -0.0462(5)
H17A H -0.3602 0.2534 -0.0370
H18A H -0.3294 0.3076 -0.0913
C17A C 0.3579(8) 0.0938(15) 0.1402(6)
H19A H 0.4288 0.1241 0.1562
H20A H 0.3540 0.0176 0.1157
C18A C 0.2932(18) 0.1833(15) 0.0942(10)
H21A H 0.3351 0.2581 0.1012
H22A H 0.2812 0.1519 0.0508
O7A O -0.2152(7) 0.3047(11) -0.0032(4)
C19A C -0.1712(19) 0.229(3) -0.0271(9)
H23A H -0.2189 0.1597 -0.0457
H24A H -0.1662 0.2715 -0.0639
C20A C -0.086(2) 0.183(2) 0.0060(11)
H25A H -0.0609 0.1490 -0.0249
H26A H -0.0968 0.1126 0.0295
C21A C 0.131(2) 0.305(2) 0.0422(11)
H27A H 0.1274 0.3788 0.0659
H28A H 0.1580 0.3302 0.0107
C22A C 0.047(3) 0.267(3) 0.0123(11)
H29A H 0.0498 0.1866 -0.0073
H30A H 0.0083 0.3242 -0.0233
C23 C 0.0575(4) 0.2640(4) 0.2638(2)
N1 N 0.2710(4) 0.2627(4) 0.3147(3)
C24 C 0.1191(4) 0.2846(5) 0.3302(2)
H31 H 0.0881 0.2996 0.3587
C25 C 0.2243(5) 0.2832(5) 0.3542(3)
H32 H 0.2644 0.2969 0.3990
C26 C 0.1079(5) 0.2434(5) 0.2242(3)
H33 H 0.0698 0.2299 0.1791
C27 C 0.2148(5) 0.2427(5) 0.2514(3)
H34 H 0.2481 0.2277 0.2242
C28 C 0.3851(4) 0.2623(6) 0.3412(3)
H35 H 0.4052 0.2465 0.3060
H36 H 0.4129 0.1980 0.3741
H37 H 0.4118 0.3421 0.3608
C23A C -0.0575(4) 0.2640(4) 0.2362(2)
N1A N -0.2710(4) 0.2627(4) 0.1853(3)
C24A C -0.1191(4) 0.2846(5) 0.1698(2)
H31A H -0.0881 0.2996 0.1413
C25A C -0.2243(5) 0.2832(5) 0.1458(3)
H32A H -0.2644 0.2969 0.1010
C26A C -0.1079(5) 0.2434(5) 0.2758(3)
H33A H -0.0698 0.2299 0.3209
C27A C -0.2148(5) 0.2427(5) 0.2486(3)
H34A H -0.2481 0.2277 0.2758
C28A C -0.3851(4) 0.2623(6) 0.1588(3)
H35A H -0.4052 0.2465 0.1940
H36A H -0.4129 0.1980 0.1259
H37A H -0.4118 0.3421 0.1392
P1 P 0.5000 0.4493(3) 0.7500
F1 F 0.5371(10) 0.4879(10) 0.6963(4)
F2 F 0.6074(7) 0.3804(10) 0.7894(5)
F3 F 0.5471(7) 0.5696(8) 0.7881(5)
F1A F 0.4629(10) 0.4879(10) 0.8037(4)
F2A F 0.3926(7) 0.3804(10) 0.7106(5)
F3A F 0.4529(7) 0.5696(8) 0.7119(5)
P2 P 0.5000 0.0000 0.5000
F7 F 0.4823(4) -0.0372(5) 0.42884(19)
F8 F 0.3944(4) 0.0678(7) 0.4692(3)
F9 F 0.4458(6) -0.1191(6) 0.5038(3)
F7B F 0.5177(4) 0.0372(5) 0.57116(19)
F8B F 0.6056(4) -0.0678(7) 0.5308(3)
F9B F 0.5542(6) 0.1191(6) 0.4962(3)
F4? F 0.5345(10) 0.4003(10) 0.6976(5)
F5? F 0.5220(10) 0.3214(7) 0.7854(4)
F6? F 0.6106(6) 0.4951(11) 0.7928(5)
loop_
_geom_bond_atom_site_label_1
_geom_bond_atom_site_label_2
_geom_bond_site_symmetry_1
_geom_bond_site_symmetry_2
C1 C2 1_555 1_555
O1 C2 1_555 1_555
C2 C5 1_555 1_555
C3 H1 1_555 1_555
C4 C1 1_555 1_555
H2 C4 1_555 1_555
C5 H3 1_555 1_555
C6 H4 1_555 1_555
H5 C6 1_555 1_555
C7 O1 1_555 1_555
H6 C7 1_555 1_555
H7 C7 1_555 1_555
O2 C6 1_555 1_555
O3 C9 1_555 1_555
C8 C9 1_555 1_555
C9 C11 1_555 1_555
C10 C8 1_555 1_555
H8 C10 1_555 1_555
C11 H9 1_555 1_555
C12 O3 1_555 1_555
H10 C12 1_555 1_555
H11 C12 1_555 1_555
C13 C10 1_555 1_555
H12 C13 1_555 1_555
C14 C12 1_555 1_555
H13 C14 1_555 1_555
H14 C14 1_555 1_555
O4 C14 1_555 1_555
C15 O2 1_555 1_555
H15 C15 1_555 1_555
H16 C15 1_555 1_555
O5 C20 1_555 1_555
O6 C18 1_555 1_555
C16 C15 1_555 1_555
H17 C16 1_555 1_555
H18 C16 1_555 1_555
C17 O4 1_555 1_555
H19 C17 1_555 1_555
H20 C17 1_555 1_555
C18 C17 1_555 1_555
H21 C18 1_555 1_555
H22 C18 1_555 1_555
O7 C16 1_555 1_555
C19 O7 1_555 1_555
H23 C19 1_555 1_555
H24 C19 1_555 1_555
C20 C19 1_555 1_555
H25 C20 1_555 1_555
H26 C20 1_555 1_555
C21 O6 1_555 1_555
H27 C21 1_555 1_555
H28 C21 1_555 1_555
C22 O5 1_555 1_555
H29 C22 1_555 1_555
H30 C22 1_555 1_555
C23 C24 1_555 1_555
N1 C25 1_555 1_555
C24 H31 1_555 1_555
C25 C24 1_555 1_555
H32 C25 1_555 1_555
C26 C23 1_555 1_555
H33 C26 1_555 1_555
C27 N1 1_555 1_555
H34 C27 1_555 1_555
C28 N1 1_555 1_555
H35 C28 1_555 1_555
H36 C28 1_555 1_555
H37 C28 1_555 1_555
P1 F1 1_555 1_555
F2 P1 1_555 1_555
F3 P1 1_555 1_555
P2 F7 1_555 1_555
F8 P2 1_555 1_555
F9 P2 1_555 1_555
C1A C1 1_555 1_555
O1A C2A 1_555 1_555
C2A C1A 1_555 1_555
C3A C5 1_555 1_555
H1A C3A 1_555 1_555
C4A C1A 1_555 1_555
H2A C4A 1_555 1_555
C5A C3 1_555 1_555
H3A C5A 1_555 1_555
C6A H4A 1_555 1_555
H5A C6A 1_555 1_555
C7A O1A 1_555 1_555
H6A C7A 1_555 1_555
H7A C7A 1_555 1_555
O2A C6A 1_555 1_555
O3A C9A 1_555 1_555
C8A C8 1_555 1_555
C9A C8A 1_555 1_555
C10A C8A 1_555 1_555
H8A C10A 1_555 1_555
C11A C13 1_555 1_555
H9A C11A 1_555 1_555
C12A O3A 1_555 1_555
H10A C12A 1_555 1_555
H11A C12A 1_555 1_555
C13A C11 1_555 1_555
H12A C13A 1_555 1_555
C14A C12A 1_555 1_555
H13A C14A 1_555 1_555
H14A C14A 1_555 1_555
O4A C14A 1_555 1_555
C15A O2A 1_555 1_555
H15A C15A 1_555 1_555
H16A C15A 1_555 1_555
O5A C20A 1_555 1_555
O6A C18A 1_555 1_555
C16A C15A 1_555 1_555
H17A C16A 1_555 1_555
H18A C16A 1_555 1_555
C17A O4A 1_555 1_555
H19A C17A 1_555 1_555
H20A C17A 1_555 1_555
C18A C17A 1_555 1_555
H21A C18A 1_555 1_555
H22A C18A 1_555 1_555
O7A C16A 1_555 1_555
C19A O7A 1_555 1_555
H23A C19A 1_555 1_555
H24A C19A 1_555 1_555
C20A C19A 1_555 1_555
H25A C20A 1_555 1_555
H26A C20A 1_555 1_555
C21A O6A 1_555 1_555
H27A C21A 1_555 1_555
H28A C21A 1_555 1_555
C22A O5A 1_555 1_555
H29A C22A 1_555 1_555
H30A C22A 1_555 1_555
C23A C23 1_555 1_555
N1A C25A 1_555 1_555
C24A C23A 1_555 1_555
H31A C24A 1_555 1_555
C25A C24A 1_555 1_555
H32A C25A 1_555 1_555
C26A C23A 1_555 1_555
H33A C26A 1_555 1_555
C27A N1A 1_555 1_555
H34A C27A 1_555 1_555
C28A N1A 1_555 1_555
H35A C28A 1_555 1_555
H36A C28A 1_555 1_555
H37A C28A 1_555 1_555
F1A P1 1_555 1_555
F2A P1 1_555 1_555
F3A P1 1_555 1_555
F7B P2 1_555 1_555
F8B P2 1_555 1_555
F9B P2 1_555 1_555
C3 C4 1_555 1_555
C6 C7 1_555 1_555
C21 C22 1_555 1_555
C26 C27 1_555 1_555
C2A C5A 1_555 1_555
C3A C4A 1_555 1_555
C6A C7A 1_555 1_555
C9A C11A 1_555 1_555
C10A C13A 1_555 1_555
C21A C22A 1_555 1_555
C26A C27A 1_555 1_555

#END
