
#######################################################################
#
#                 Cambridge Crystallographic Data Centre
#                                CCDC 
#
#######################################################################
#
# If this CIF has been generated from an entry in the Cambridge 
# Structural Database, then it will include bibliographic, chemical, 
# crystal, experimental, refinement or atomic coordinate data resulting 
# from the CCDC's data processing and validation procedures.
#
#######################################################################

data_JOLKAW
_chemical_formula_moiety         'C13 H25 N2 1+,C7 H6 N1 O2 1-,C6 H6'
_chemical_name_systematic        'Amidinium phenyl-nitronate benzene solvate'
_symmetry_cell_setting           monoclinic
_symmetry_space_group_name_H-M   'P n'
_symmetry_Int_Tables_number      7
_space_group_name_Hall           'P -2yac'
loop_
_symmetry_equiv_pos_site_id
_symmetry_equiv_pos_as_xyz
1 x,y,z
2 1/2+x,-y,1/2+z
_cell_length_a                   10.382(2)
_cell_length_b                   5.993(1)
_cell_length_c                   20.392(4)
_cell_angle_alpha                90
_cell_angle_beta                 104.37(2)
_cell_angle_gamma                90
_cell_volume                     1229.08
_exptl_crystal_colour            colorless
_cell_formula_units_Z            2
_chemical_properties_physical    Air-sensitive
loop_
_atom_site_label
_atom_site_type_symbol
_atom_site_fract_x
_atom_site_fract_y
_atom_site_fract_z
O1 O 0.1946 0.2141(9) 0.0873
O2 O 0.0797(8) 0.3746(8) 0.1515(3)
N1 N 0.1442(8) 0.2035(10) 0.1402(3)
C1 C 0.1136(8) -0.0063(10) 0.2387(4)
C2 C 0.1369(8) -0.2134(12) 0.2698(4)
C3 C 0.0912(9) -0.2668(12) 0.3261(4)
C4 C 0.0188(9) -0.1125(12) 0.3531(4)
C5 C -0.0057(9) 0.0923(13) 0.3223(4)
C6 C 0.0418(9) 0.1500(11) 0.2662(4)
C7 C 0.1639(9) 0.0312(11) 0.1799(4)
H1 H 0.192 -0.337 0.250
H2 H 0.112 -0.429 0.349
H3 H -0.017 -0.152 0.397
H4 H -0.064 0.213 0.342
H5 H 0.023 0.314 0.244
H6 H 0.225 -0.100 0.167
N2 N 0.4582(7) 0.3863(9) 0.5374(3)
N3 N 0.6518(8) 0.4096(10) 0.5055(3)
C8 C 0.5312(9) 0.3237(9) 0.4962(3)
C9 C 0.3243(9) 0.3068(12) 0.5398(4)
C10 C 0.2670(9) 0.1557(14) 0.4804(5)
C11 C 0.3722(9) 0.0179(12) 0.4585(5)
C12 C 0.4762(9) 0.1682(11) 0.4385(4)
C13 C 0.5904(9) 0.0280(11) 0.4264(4)
C14 C 0.7024(9) 0.1739(12) 0.4153(4)
C15 C 0.7601(9) 0.3251(11) 0.4754(4)
C16 C 0.3412(9) 0.1810(13) 0.6066(4)
C17 C 0.2375(9) 0.5095(14) 0.5395(5)
C18 C 0.4116(10) 0.3117(15) 0.3760(4)
C19 C 0.8252(10) 0.5289(12) 0.4533(5)
C20 C 0.8587(9) 0.2041(13) 0.5307(5)
H7 H 0.666 0.553 0.544
H8 H 0.505 0.474 0.578
H9 H 0.197 0.043 0.494
H10 H 0.216 0.257 0.438
H11 H 0.421 -0.089 0.500
H12 H 0.325 -0.084 0.416
H13 H 0.554 -0.075 0.382
H14 H 0.628 -0.077 0.470
H15 H 0.781 0.068 0.407
H16 H 0.665 0.277 0.371
H17 H 0.246 0.119 0.611
H18 H 0.382 0.292 0.648
H19 H 0.408 0.042 0.608
H20 H 0.139 0.457 0.541
H21 H 0.232 0.605 0.494
H22 H 0.280 0.612 0.583
H23 H 0.371 0.204 0.333
H24 H 0.486 0.420 0.364
H25 H 0.333 0.412 0.387
H26 H 0.905 0.477 0.431
H27 H 0.865 0.634 0.497
H28 H 0.752 0.622 0.416
H29 H 0.939 0.140 0.511
H30 H 0.810 0.067 0.549
H31 H 0.898 0.318 0.572
C21 C 0.0238(9) 0.6757(9) 0.6918(4)
C22 C 0.1623(9) 0.6623(9) 0.7112(4)
C23 C 0.2238(9) 0.4726(9) 0.7446(4)
C24 C 0.1468(9) 0.2964(9) 0.7584(4)
C25 C 0.0084(9) 0.3098(9) 0.7390(4)
C26 C -0.0531(9) 0.4994(9) 0.7056(4)
H32 H -0.024 0.823 0.666
H33 H 0.222 0.799 0.701
H34 H 0.331 0.462 0.760
H35 H 0.194 0.150 0.784
H36 H -0.051 0.173 0.750
H37 H -0.160 0.510 0.691
loop_
_geom_bond_atom_site_label_1
_geom_bond_atom_site_label_2
_geom_bond_site_symmetry_1
_geom_bond_site_symmetry_2
O1 N1 1_555 1_555
O2 N1 1_555 1_555
N1 C7 1_555 1_555
C1 C2 1_555 1_555
C2 C3 1_555 1_555
C3 C4 1_555 1_555
C4 C5 1_555 1_555
C5 C6 1_555 1_555
C6 C1 1_555 1_555
C7 C1 1_555 1_555
H1 C2 1_555 1_555
H2 C3 1_555 1_555
H3 C4 1_555 1_555
H4 C5 1_555 1_555
H5 C6 1_555 1_555
H6 C7 1_555 1_555
N2 C8 1_555 1_555
N3 C8 1_555 1_555
C8 C12 1_555 1_555
C9 N2 1_555 1_555
C10 C9 1_555 1_555
C11 C10 1_555 1_555
C12 C11 1_555 1_555
C13 C12 1_555 1_555
C14 C13 1_555 1_555
C15 N3 1_555 1_555
C16 C9 1_555 1_555
C17 C9 1_555 1_555
C18 C12 1_555 1_555
C19 C15 1_555 1_555
C20 C15 1_555 1_555
H7 N3 1_555 1_555
H8 N2 1_555 1_555
H9 C10 1_555 1_555
H10 C10 1_555 1_555
H11 C11 1_555 1_555
H12 C11 1_555 1_555
H13 C13 1_555 1_555
H14 C13 1_555 1_555
H15 C14 1_555 1_555
H16 C14 1_555 1_555
H17 C16 1_555 1_555
H18 C16 1_555 1_555
H19 C16 1_555 1_555
H20 C17 1_555 1_555
H21 C17 1_555 1_555
H22 C17 1_555 1_555
H23 C18 1_555 1_555
H24 C18 1_555 1_555
H25 C18 1_555 1_555
H26 C19 1_555 1_555
H27 C19 1_555 1_555
H28 C19 1_555 1_555
H29 C20 1_555 1_555
H30 C20 1_555 1_555
H31 C20 1_555 1_555
C21 C22 1_555 1_555
C22 C23 1_555 1_555
C23 C24 1_555 1_555
C24 C25 1_555 1_555
C25 C26 1_555 1_555
C26 C21 1_555 1_555
H32 C21 1_555 1_555
H33 C22 1_555 1_555
H34 C23 1_555 1_555
H35 C24 1_555 1_555
H36 C25 1_555 1_555
H37 C26 1_555 1_555
C14 C15 1_555 1_555

#END
