
#######################################################################
#
#                 Cambridge Crystallographic Data Centre
#                                CCDC 
#
#######################################################################
#
# If this CIF has been generated from an entry in the Cambridge 
# Structural Database, then it will include bibliographic, chemical, 
# crystal, experimental, refinement or atomic coordinate data resulting 
# from the CCDC's data processing and validation procedures.
#
#######################################################################

data_JOLYIU
_chemical_formula_moiety         'C59 H17 F25 N6,C8 H18'
_chemical_name_systematic        
'7,12,17,22,27-pentakis(Pentafluorophenyl)-1,3,32,33,34,35-hexa-azaheptacyclo[26.2.1.1^8,11^.1^13,16^.1^18,21^.1^23,26^.0^2,6^]pentatriaconta-2(6),4,7,9,11,13,15,17,19,21(33),22,24,26,28(31),29-pentadecaene n-octane solvate'
_symmetry_cell_setting           orthorhombic
_symmetry_space_group_name_H-M   'P 21 21 21'
_symmetry_Int_Tables_number      19
_space_group_name_Hall           'P 2ac 2ab'
loop_
_symmetry_equiv_pos_site_id
_symmetry_equiv_pos_as_xyz
1 x,y,z
2 1/2-x,-y,1/2+z
3 1/2+x,1/2-y,-z
4 -x,1/2+y,1/2-z
_cell_length_a                   13.9153(1)
_cell_length_b                   15.6914(2)
_cell_length_c                   26.9566(3)
_cell_angle_alpha                90
_cell_angle_beta                 90
_cell_angle_gamma                90
_cell_volume                     5885.99
_exptl_crystal_colour            brown
_exptl_crystal_description       prism
_cell_formula_units_Z            4
loop_
_atom_site_label
_atom_site_type_symbol
_atom_site_fract_x
_atom_site_fract_y
_atom_site_fract_z
F1 F 0.15088(12) 0.46151(12) 0.19203(7)
F2 F 0.17873(14) 0.58738(13) 0.25839(8)
F3 F 0.35769(16) 0.65137(14) 0.27357(8)
F4 F 0.50790(15) 0.59008(19) 0.22068(10)
F5 F 0.48070(12) 0.46848(15) 0.15235(8)
F6 F 0.58316(15) 0.09569(15) 0.10625(9)
F7 F 0.70128(16) -0.01936(17) 0.14752(10)
F8 F 0.62851(19) -0.14615(18) 0.20429(9)
F9 F 0.4357(2) -0.16005(18) 0.21749(10)
F10 F 0.31558(16) -0.04628(16) 0.17431(8)
F11 F 0.14796(14) -0.05302(13) -0.06419(8)
F12 F 0.17476(19) -0.10385(19) -0.15732(10)
F13 F 0.2179(2) 0.0115(3) -0.22871(9)
F14 F 0.2410(2) 0.1792(2) -0.20386(9)
F15 F 0.22509(15) 0.23037(16) -0.10863(9)
F16 F -0.11764(14) 0.13154(12) 0.09013(8)
F17 F -0.10055(18) 0.00034(13) 0.15345(9)
F18 F 0.0297(2) 0.00597(15) 0.22802(9)
F19 F 0.14100(18) 0.14667(15) 0.24048(8)
F20 F 0.12613(13) 0.27852(12) 0.17751(7)
F21 F 0.10298(16) 0.65328(13) 0.16031(8)
F22 F 0.0401(2) 0.77809(14) 0.22094(9)
F23 F -0.1355(2) 0.85054(12) 0.20581(8)
F24 F -0.24381(16) 0.80097(14) 0.12665(9)
F25 F -0.18281(13) 0.67567(12) 0.06752(8)
N1 N 0.17682(16) 0.49893(15) 0.03056(9)
N2 N 0.32463(18) 0.23998(16) 0.11486(9)
H1 H 0.291(2) 0.234(2) 0.0874(8)
N3 N 0.26642(17) 0.11854(15) 0.04906(9)
N4 N 0.09665(16) 0.19206(14) 0.03558(9)
H2 H 0.131(3) 0.176(3) 0.0610(11)
N5 N -0.00336(17) 0.42985(15) 0.07462(9)
H3 H 0.025(2) 0.426(2) 0.0459(7)
N6 N 0.1384(2) 0.60155(17) -0.03254(10)
H4 H 0.1909(14) 0.591(2) -0.0491(10)
C1 C 0.2074(2) 0.49403(18) 0.07867(11)
H5 H 0.1975 0.5362 0.1034
C2 C 0.2042(2) 0.42502(19) 0.00584(11)
H6 H 0.1911 0.4119 -0.0279
C3 C 0.2528(2) 0.37497(19) 0.03824(11)
H7 H 0.2806 0.3211 0.0311
C4 C 0.25487(19) 0.41784(18) 0.08540(10)
C5 C 0.30131(19) 0.39273(19) 0.13166(11)
C6 C 0.3359(2) 0.3140(2) 0.14263(11)
C7 C 0.3936(2) 0.2887(2) 0.18516(12)
H8 H 0.4124 0.3250 0.2117
C8 C 0.4159(3) 0.2060(2) 0.18085(12)
H9 H 0.4538 0.1742 0.2036
C9 C 0.3729(2) 0.1730(2) 0.13603(11)
C10 C 0.3805(2) 0.09293(19) 0.11547(11)
C11 C 0.3370(2) 0.07101(18) 0.06939(11)
C12 C 0.3664(2) 0.00383(18) 0.03618(11)
H10 H 0.4122 -0.0395 0.0429
C13 C 0.3163(2) 0.01420(18) -0.00625(11)
H11 H 0.3222 -0.0187 -0.0357
C14 C 0.25157(19) 0.08545(17) 0.00192(10)
C15 C 0.18256(19) 0.11823(19) -0.02982(11)
C16 C 0.10990(19) 0.17656(18) -0.01398(11)
C17 C 0.0428(2) 0.22737(19) -0.03913(12)
H12 H 0.0334 0.2290 -0.0740
C18 C -0.0075(2) 0.27485(18) -0.00422(12)
H13 H -0.0566 0.3153 -0.0111
C19 C 0.0268(2) 0.25248(16) 0.04277(12)
C20 C 0.00086(19) 0.27756(17) 0.09289(11)
C21 C -0.01639(18) 0.36119(17) 0.10551(11)
C22 C -0.0488(2) 0.39530(19) 0.15267(11)
H14 H -0.0646 0.3629 0.1813
C23 C -0.0528(2) 0.48168(18) 0.14872(12)
H15 H -0.0729 0.5199 0.1740
C24 C -0.02108(19) 0.50563(17) 0.09919(11)
C25 C -0.0064(2) 0.58653(17) 0.08077(11)
C26 C 0.0396(2) 0.60448(18) 0.03302(11)
C27 C 0.0145(2) 0.67096(19) -0.00136(12)
H16 H -0.0366 0.7105 0.0027
C28 C 0.0757(2) 0.6678(2) -0.04046(13)
H17 H 0.0753 0.7049 -0.0683
C29 C 0.1180(2) 0.56477(18) 0.01172(11)
C30 C 0.3152(2) 0.46050(19) 0.16963(11)
C31 C 0.2392(2) 0.49270(19) 0.19816(11)
C32 C 0.2530(2) 0.5572(2) 0.23219(11)
C33 C 0.3430(2) 0.5899(2) 0.24014(12)
C34 C 0.4196(2) 0.5590(3) 0.21308(13)
C35 C 0.4048(2) 0.4956(2) 0.17824(12)
C36 C 0.4455(2) 0.0299(2) 0.13941(11)
C37 C 0.5448(2) 0.0338(2) 0.13328(12)
C38 C 0.6068(2) -0.0249(2) 0.15474(13)
C39 C 0.5706(3) -0.0886(3) 0.18295(13)
C40 C 0.4719(3) -0.0971(3) 0.18988(13)
C41 C 0.4109(3) -0.0371(2) 0.16760(13)
C42 C 0.1858(2) 0.0919(2) -0.08307(12)
C43 C 0.1719(2) 0.0045(2) -0.09687(12)
C44 C 0.1848(3) -0.0204(3) -0.14558(15)
C45 C 0.2065(3) 0.0374(3) -0.18143(14)
C46 C 0.2181(3) 0.1223(3) -0.16975(14)
C47 C 0.2081(2) 0.1477(3) -0.12001(13)
C48 C 0.0036(2) 0.20949(18) 0.13114(11)
C49 C -0.0530(2) 0.13696(19) 0.12644(12)
C50 C -0.0439(3) 0.0686(2) 0.15893(14)
C51 C 0.0212(3) 0.0715(2) 0.19668(13)
C52 C 0.0780(3) 0.1434(2) 0.20337(12)
C53 C 0.0678(2) 0.21101(19) 0.17071(12)
C54 C -0.0377(2) 0.65978(18) 0.11214(11)
C55 C 0.0170(2) 0.6889(2) 0.15119(13)
C56 C -0.0141(3) 0.7534(2) 0.18277(13)
C57 C -0.1032(3) 0.79060(19) 0.17518(13)
C58 C -0.1587(2) 0.7646(2) 0.13559(13)
C59 C -0.1261(2) 0.69932(18) 0.10530(12)
C60 C -0.1024(3) -0.0826(3) 0.0360(2)
H18 H -0.1478 -0.0619 0.0110
H19 H -0.1291 -0.0731 0.0692
H20 H -0.0911 -0.1437 0.0311
C61 C -0.0080(3) -0.0348(3) 0.0311(2)
H21 H -0.0216 0.0268 0.0346
H22 H 0.0165 -0.0439 -0.0030
C62 C 0.0719(3) -0.0576(3) 0.0672(2)
H23 H 0.0443 -0.0612 0.1010
H24 H 0.1198 -0.0109 0.0672
C63 C 0.1239(4) -0.1415(3) 0.05580(17)
H25 H 0.0761 -0.1882 0.0563
H26 H 0.1502 -0.1382 0.0217
C64 C 0.2030(3) -0.1641(3) 0.08989(17)
H27 H 0.1751 -0.1760 0.1230
H28 H 0.2455 -0.1139 0.0934
C65 C 0.2648(4) -0.2405(3) 0.07465(17)
H29 H 0.2230 -0.2913 0.0720
H30 H 0.2921 -0.2294 0.0414
C66 C 0.3449(3) -0.2600(4) 0.10933(18)
H31 H 0.3171 -0.2736 0.1422
H32 H 0.3845 -0.2081 0.1132
C67 C 0.4102(4) -0.3327(3) 0.0942(2)
H33 H 0.4608 -0.3400 0.1191
H34 H 0.4394 -0.3199 0.0619
H35 H 0.3726 -0.3854 0.0917
loop_
_geom_bond_atom_site_label_1
_geom_bond_atom_site_label_2
_geom_bond_site_symmetry_1
_geom_bond_site_symmetry_2
F1 C31 1_555 1_555
F2 C32 1_555 1_555
F3 C33 1_555 1_555
F4 C34 1_555 1_555
F5 C35 1_555 1_555
F6 C37 1_555 1_555
F7 C38 1_555 1_555
F8 C39 1_555 1_555
F9 C40 1_555 1_555
F10 C41 1_555 1_555
F11 C43 1_555 1_555
F12 C44 1_555 1_555
F13 C45 1_555 1_555
F14 C46 1_555 1_555
F15 C47 1_555 1_555
F16 C49 1_555 1_555
F17 C50 1_555 1_555
F18 C51 1_555 1_555
F19 C52 1_555 1_555
F20 C53 1_555 1_555
F21 C55 1_555 1_555
F22 C56 1_555 1_555
F23 C57 1_555 1_555
F24 C58 1_555 1_555
F25 C59 1_555 1_555
N1 C1 1_555 1_555
N2 H1 1_555 1_555
N3 C11 1_555 1_555
N4 H2 1_555 1_555
N5 H3 1_555 1_555
N6 H4 1_555 1_555
C1 H5 1_555 1_555
C2 N1 1_555 1_555
H6 C2 1_555 1_555
C3 C2 1_555 1_555
H7 C3 1_555 1_555
C4 C1 1_555 1_555
C5 C4 1_555 1_555
C6 N2 1_555 1_555
C7 C6 1_555 1_555
H8 C7 1_555 1_555
C8 C7 1_555 1_555
H9 C8 1_555 1_555
C9 N2 1_555 1_555
C10 C9 1_555 1_555
C11 C10 1_555 1_555
C12 C11 1_555 1_555
H10 C12 1_555 1_555
C13 C12 1_555 1_555
H11 C13 1_555 1_555
C14 N3 1_555 1_555
C15 C14 1_555 1_555
C16 N4 1_555 1_555
C17 C16 1_555 1_555
H12 C17 1_555 1_555
C18 C17 1_555 1_555
H13 C18 1_555 1_555
C19 N4 1_555 1_555
C20 C19 1_555 1_555
C21 N5 1_555 1_555
C22 C21 1_555 1_555
H14 C22 1_555 1_555
C23 C22 1_555 1_555
H15 C23 1_555 1_555
C24 N5 1_555 1_555
C25 C24 1_555 1_555
C26 C25 1_555 1_555
C27 C26 1_555 1_555
H16 C27 1_555 1_555
C28 N6 1_555 1_555
H17 C28 1_555 1_555
C29 N1 1_555 1_555
C30 C5 1_555 1_555
C31 C30 1_555 1_555
C32 C31 1_555 1_555
C33 C32 1_555 1_555
C34 C33 1_555 1_555
C35 C30 1_555 1_555
C36 C10 1_555 1_555
C37 C36 1_555 1_555
C38 C37 1_555 1_555
C39 C38 1_555 1_555
C40 C39 1_555 1_555
C41 C36 1_555 1_555
C42 C15 1_555 1_555
C43 C42 1_555 1_555
C44 C43 1_555 1_555
C45 C44 1_555 1_555
C46 C45 1_555 1_555
C47 C42 1_555 1_555
C48 C20 1_555 1_555
C49 C48 1_555 1_555
C50 C49 1_555 1_555
C51 C50 1_555 1_555
C52 C51 1_555 1_555
C53 C48 1_555 1_555
C54 C25 1_555 1_555
C55 C54 1_555 1_555
C56 C55 1_555 1_555
C57 C56 1_555 1_555
C58 C57 1_555 1_555
C59 C54 1_555 1_555
C60 H18 1_555 1_555
H19 C60 1_555 1_555
H20 C60 1_555 1_555
C61 C60 1_555 1_555
H21 C61 1_555 1_555
H22 C61 1_555 1_555
C62 C61 1_555 1_555
H23 C62 1_555 1_555
H24 C62 1_555 1_555
C63 C62 1_555 1_555
H25 C63 1_555 1_555
H26 C63 1_555 1_555
C64 C63 1_555 1_555
H27 C64 1_555 1_555
H28 C64 1_555 1_555
C65 C64 1_555 1_555
H29 C65 1_555 1_555
H30 C65 1_555 1_555
C66 C65 1_555 1_555
H31 C66 1_555 1_555
H32 C66 1_555 1_555
C67 C66 1_555 1_555
H33 C67 1_555 1_555
H34 C67 1_555 1_555
H35 C67 1_555 1_555
N6 C29 1_555 1_555
C3 C4 1_555 1_555
C5 C6 1_555 1_555
C8 C9 1_555 1_555
C13 C14 1_555 1_555
C15 C16 1_555 1_555
C18 C19 1_555 1_555
C20 C21 1_555 1_555
C23 C24 1_555 1_555
C26 C29 1_555 1_555
C27 C28 1_555 1_555
C34 C35 1_555 1_555
C40 C41 1_555 1_555
C46 C47 1_555 1_555
C52 C53 1_555 1_555
C58 C59 1_555 1_555

#END
