
#######################################################################
#
#                 Cambridge Crystallographic Data Centre
#                                CCDC 
#
#######################################################################
#
# If this CIF has been generated from an entry in the Cambridge 
# Structural Database, then it will include bibliographic, chemical, 
# crystal, experimental, refinement or atomic coordinate data resulting 
# from the CCDC's data processing and validation procedures.
#
#######################################################################

data_JOMBAQ
_chemical_formula_moiety         'C20 H20 N4 O5 S1'
_chemical_name_systematic        
2-(3-Ethyl-2-((4-methoxyphenyl)imino)-4-oxo-1,3-thiazolidin-5-yl)-N-(4-nitrophenyl)acetamide
_symmetry_cell_setting           monoclinic
_symmetry_space_group_name_H-M   'P 21/c'
_symmetry_Int_Tables_number      14
_space_group_name_Hall           '-P 2ybc'
loop_
_symmetry_equiv_pos_site_id
_symmetry_equiv_pos_as_xyz
1 x,y,z
2 -x,1/2+y,1/2-z
3 -x,-y,-z
4 x,1/2-y,1/2+z
_cell_length_a                   10.7923(2)
_cell_length_b                   7.50518(16)
_cell_length_c                   24.2322(4)
_cell_angle_alpha                90
_cell_angle_beta                 92.1594(19)
_cell_angle_gamma                90
_cell_volume                     1961.37
_cell_formula_units_Z            4
loop_
_atom_site_label
_atom_site_type_symbol
_atom_site_fract_x
_atom_site_fract_y
_atom_site_fract_z
S1 S 0.38795(4) 0.46007(5) 0.658404(15)
O1 O 0.67445(10) 0.45482(15) 0.56675(4)
O2 O 0.25744(10) 0.17089(16) 0.59262(4)
O3 O 0.05035(11) 0.81886(17) 0.82235(5)
O4 O -0.35535(10) 0.05186(15) 0.51823(5)
O5 O -0.36602(11) 0.21359(16) 0.44410(5)
N1 N 0.19816(12) 0.31807(17) 0.51320(5)
H1 H 0.2265 0.3880 0.4874
N2 N -0.30785(12) 0.14839(17) 0.48382(5)
N3 N 0.58244(12) 0.63830(17) 0.62815(5)
N4 N 0.46203(13) 0.79531(18) 0.68928(5)
C1 C 0.48039(14) 0.6550(2) 0.66183(6)
C2 C 0.28138(14) 0.2698(2) 0.55445(6)
C3 C -0.17571(14) 0.1891(2) 0.49077(6)
C4 C 0.07264(14) 0.2692(2) 0.50713(6)
C5 C 0.14701(16) 0.9088(2) 0.73664(6)
H2 H 0.0766 0.9757 0.7242
C6 C 0.48012(14) 0.3627(2) 0.60449(6)
H3 H 0.5097 0.2416 0.6161
C7 C 0.14658(15) 0.8186(2) 0.78672(6)
C8 C 0.67284(14) 0.7837(2) 0.62434(6)
H4 H 0.6316 0.8987 0.6315
H5 H 0.7043 0.7876 0.5865
C9 C 0.00873(14) 0.1851(2) 0.54897(6)
H6 H 0.0505 0.1556 0.5830
C10 C 0.59071(14) 0.4864(2) 0.59803(6)
C11 C 0.35429(15) 0.7997(2) 0.72183(6)
C12 C -0.11471(15) 0.2738(2) 0.44882(6)
H7 H -0.1573 0.3037 0.4151
C13 C -0.11539(15) 0.1453(2) 0.54056(6)
H8 H -0.1595 0.0880 0.5688
C14 C 0.40885(14) 0.3507(2) 0.54855(6)
H9 H 0.4001 0.4714 0.5325
H10 H 0.4566 0.2770 0.5230
C15 C 0.35325(15) 0.7096(2) 0.77229(6)
H11 H 0.4229 0.6407 0.7844
C16 C 0.00981(15) 0.3137(2) 0.45728(6)
H12 H 0.0532 0.3718 0.4290
C17 C 0.25057(16) 0.7211(2) 0.80456(6)
H13 H 0.2509 0.6621 0.8392
C18 C 0.25199(16) 0.9000(2) 0.70473(6)
H14 H 0.2533 0.9637 0.6709
C19 C -0.05809(16) 0.9181(3) 0.80702(7)
H15 H -0.0936 0.8723 0.7720
H16 H -0.0363 1.0439 0.8027
H17 H -0.1190 0.9063 0.8358
C20 C 0.78050(17) 0.7584(2) 0.66554(7)
H18 H 0.8198 0.6429 0.6592
H19 H 0.7501 0.7622 0.7031
H20 H 0.8412 0.8538 0.6609
loop_
_geom_bond_atom_site_label_1
_geom_bond_atom_site_label_2
_geom_bond_site_symmetry_1
_geom_bond_site_symmetry_2
S1 C1 1_555 1_555
O1 C10 1_555 1_555
O2 C2 1_555 1_555
O3 C7 1_555 1_555
O4 N2 1_555 1_555
O5 N2 1_555 1_555
N1 H1 1_555 1_555
N2 C3 1_555 1_555
N3 C1 1_555 1_555
N4 C1 1_555 1_555
C2 N1 1_555 1_555
C3 C12 1_555 1_555
C4 N1 1_555 1_555
C5 H2 1_555 1_555
C6 S1 1_555 1_555
H3 C6 1_555 1_555
C7 C5 1_555 1_555
C8 N3 1_555 1_555
H4 C8 1_555 1_555
H5 C8 1_555 1_555
C9 C4 1_555 1_555
H6 C9 1_555 1_555
C10 N3 1_555 1_555
C11 N4 1_555 1_555
C12 H7 1_555 1_555
C13 C3 1_555 1_555
H8 C13 1_555 1_555
C14 C2 1_555 1_555
H9 C14 1_555 1_555
H10 C14 1_555 1_555
C15 C11 1_555 1_555
H11 C15 1_555 1_555
C16 C4 1_555 1_555
H12 C16 1_555 1_555
C17 C7 1_555 1_555
H13 C17 1_555 1_555
C18 C5 1_555 1_555
H14 C18 1_555 1_555
C19 O3 1_555 1_555
H15 C19 1_555 1_555
H16 C19 1_555 1_555
H17 C19 1_555 1_555
C20 C8 1_555 1_555
H18 C20 1_555 1_555
H19 C20 1_555 1_555
H20 C20 1_555 1_555
C6 C10 1_555 1_555
C6 C14 1_555 1_555
C9 C13 1_555 1_555
C11 C18 1_555 1_555
C12 C16 1_555 1_555
C15 C17 1_555 1_555

#END
