
#######################################################################
#
#                 Cambridge Crystallographic Data Centre
#                                CCDC 
#
#######################################################################
#
# If this CIF has been generated from an entry in the Cambridge 
# Structural Database, then it will include bibliographic, chemical, 
# crystal, experimental, refinement or atomic coordinate data resulting 
# from the CCDC's data processing and validation procedures.
#
#######################################################################

data_JOMJOM
_chemical_formula_moiety         'C20 H21 N3 O2 S1'
_chemical_name_systematic        
2-(2-(Isopropylimino)-4-oxo-3-phenyl-1,3-thiazolidin-5-yl)-N-phenylacetamide
_symmetry_cell_setting           triclinic
_symmetry_space_group_name_H-M   'P -1'
_symmetry_Int_Tables_number      2
_space_group_name_Hall           '-P 1'
loop_
_symmetry_equiv_pos_site_id
_symmetry_equiv_pos_as_xyz
1 x,y,z
2 -x,-y,-z
_cell_length_a                   5.30469(13)
_cell_length_b                   12.5053(3)
_cell_length_c                   14.6627(3)
_cell_angle_alpha                71.1056(19)
_cell_angle_beta                 83.1820(19)
_cell_angle_gamma                86.6139(18)
_cell_volume                     913.537
_exptl_crystal_colour            colorless
_exptl_crystal_description       prism
_cell_formula_units_Z            2
loop_
_atom_site_label
_atom_site_type_symbol
_atom_site_fract_x
_atom_site_fract_y
_atom_site_fract_z
S1 S 0.60081(8) 0.24573(3) 0.29891(3)
O1 O 0.4524(2) 0.28293(10) 0.49184(9)
O2 O 0.2824(2) -0.04557(10) 0.39489(9)
N1 N 0.5216(3) 0.06112(11) 0.25943(10)
N2 N 0.0294(3) 0.27330(12) 0.54651(10)
H1 H -0.1069 0.2396 0.5459
N3 N 0.7429(3) 0.19673(12) 0.13054(10)
C1 C 0.4415(3) 0.13105(14) 0.39479(12)
H2 H 0.5555 0.1008 0.4456
C2 C 0.6372(3) 0.16726(13) 0.21596(12)
C3 C 0.1868(3) 0.43041(14) 0.58968(12)
H3 H 0.3328 0.4349 0.5468
C4 C 0.8560(3) 0.30962(14) 0.09174(12)
H4 H 0.7622 0.3605 0.1230
C5 C 0.1927(3) 0.16716(15) 0.44074(12)
H5 H 0.1068 0.1009 0.4849
H6 H 0.0834 0.2044 0.3906
C6 C 0.5319(3) -0.02097(13) 0.20869(12)
C7 C 0.3694(4) -0.09543(15) 0.09711(13)
H7 H 0.2515 -0.0932 0.0543
C8 C 0.4029(3) 0.03900(14) 0.35114(12)
C9 C 0.3529(3) -0.01652(14) 0.14626(12)
H8 H 0.2236 0.0383 0.1372
C10 C 0.0065(3) 0.34961(14) 0.60070(12)
C11 C 0.7231(3) -0.10324(15) 0.22501(12)
H9 H 0.8406 -0.1056 0.2679
C12 C 0.1466(3) 0.50437(14) 0.64341(13)
H10 H 0.2669 0.5585 0.6363
C13 C -0.2490(3) 0.41810(15) 0.71793(13)
H11 H -0.3952 0.4141 0.7607
C14 C 0.8365(4) 0.35492(16) -0.01668(13)
H12 H 0.9093 0.3005 -0.0463
H13 H 0.9267 0.4243 -0.0441
H14 H 0.6612 0.3685 -0.0281
C15 C -0.2115(3) 0.34327(15) 0.66500(12)
H15 H -0.3318 0.2891 0.6725
C16 C 0.2400(3) 0.24729(13) 0.49574(12)
C17 C 0.7365(3) -0.18233(15) 0.17615(13)
H16 H 0.8628 -0.2385 0.1866
C18 C -0.0700(4) 0.49868(15) 0.70742(13)
H17 H -0.0952 0.5486 0.7431
C19 C 0.5613(4) -0.17716(15) 0.11194(13)
H18 H 0.5727 -0.2292 0.0784
C20 C 1.1313(3) 0.29932(15) 0.11387(14)
H19 H 1.1374 0.2712 0.1828
H20 H 1.2074 0.3722 0.0881
H21 H 1.2226 0.2480 0.0847
loop_
_geom_bond_atom_site_label_1
_geom_bond_atom_site_label_2
_geom_bond_site_symmetry_1
_geom_bond_site_symmetry_2
S1 C1 1_555 1_555
O1 C16 1_555 1_555
O2 C8 1_555 1_555
N1 C2 1_555 1_555
N2 H1 1_555 1_555
N3 C2 1_555 1_555
C1 H2 1_555 1_555
C2 S1 1_555 1_555
C3 H3 1_555 1_555
C4 N3 1_555 1_555
H4 C4 1_555 1_555
C5 C1 1_555 1_555
H5 C5 1_555 1_555
H6 C5 1_555 1_555
C6 N1 1_555 1_555
C7 H7 1_555 1_555
C8 N1 1_555 1_555
C9 C6 1_555 1_555
H8 C9 1_555 1_555
C10 N2 1_555 1_555
C11 C6 1_555 1_555
H9 C11 1_555 1_555
C12 C3 1_555 1_555
H10 C12 1_555 1_555
C13 H11 1_555 1_555
C14 C4 1_555 1_555
H12 C14 1_555 1_555
H13 C14 1_555 1_555
H14 C14 1_555 1_555
C15 C10 1_555 1_555
H15 C15 1_555 1_555
C16 N2 1_555 1_555
C17 C11 1_555 1_555
H16 C17 1_555 1_555
C18 C12 1_555 1_555
H17 C18 1_555 1_555
C19 C7 1_555 1_555
H18 C19 1_555 1_555
C20 C4 1_555 1_555
H19 C20 1_555 1_555
H20 C20 1_555 1_555
H21 C20 1_555 1_555
C1 C8 1_555 1_555
C3 C10 1_555 1_555
C5 C16 1_555 1_555
C7 C9 1_555 1_555
C13 C15 1_555 1_555
C13 C18 1_555 1_555
C17 C19 1_555 1_555

#END
