
#######################################################################
#
#                 Cambridge Crystallographic Data Centre
#                                CCDC 
#
#######################################################################
#
# If this CIF has been generated from an entry in the Cambridge 
# Structural Database, then it will include bibliographic, chemical, 
# crystal, experimental, refinement or atomic coordinate data resulting 
# from the CCDC's data processing and validation procedures.
#
#######################################################################

data_JOMQUX
_chemical_formula_moiety         'C16 H21 O1 S1 1+,B1 F4 1-'
_chemical_name_systematic        
'(1S)-10,10-Dimethyl-5-phenyl-5\l^4^-thionia-4-oxatricyclo(5.2.1.0^3,7^)decane tetrafluoroborate'
_symmetry_cell_setting           orthorhombic
_symmetry_space_group_name_H-M   'P 21 21 21'
_symmetry_Int_Tables_number      19
_space_group_name_Hall           'P 2ac 2ab'
loop_
_symmetry_equiv_pos_site_id
_symmetry_equiv_pos_as_xyz
1 x,y,z
2 1/2-x,-y,1/2+z
3 1/2+x,1/2-y,-z
4 -x,1/2+y,1/2-z
_cell_length_a                   13.653(3)
_cell_length_b                   15.915(4)
_cell_length_c                   7.544(2)
_cell_angle_alpha                90
_cell_angle_beta                 90
_cell_angle_gamma                90
_cell_volume                     1639.22
_exptl_crystal_colour            colorless
_exptl_crystal_description       prismatic
_chemical_melting_point          423-424K
_cell_formula_units_Z            4
_exptl_crystal_recrystallization_method dichloromethane/hexane
loop_
_atom_site_label
_atom_site_type_symbol
_atom_site_fract_x
_atom_site_fract_y
_atom_site_fract_z
S1 S -0.2781(2) -0.1639(2) -0.4145(5)
O1 O -0.2756(6) -0.2074(5) -0.606(1)
C1 C -0.1918(8) -0.2306(7) -0.304(2)
C2 C -0.1515(8) -0.2899(7) -0.450(2)
C3 C -0.1792(9) -0.2503(8) -0.629(2)
C4 C -0.183(1) -0.325(1) -0.757(2)
C5 C -0.1465(9) -0.3980(7) -0.638(2)
C6 C -0.0380(10) -0.3808(9) -0.599(2)
C7 C -0.0412(9) -0.3050(8) -0.465(2)
C8 C -0.3108(9) -0.3823(9) -0.475(2)
C9 C -0.1971(7) -0.3790(7) -0.461(2)
C10 C -0.167(1) -0.4335(8) -0.311(2)
C11 C -0.2187(9) -0.0660(6) -0.435(2)
C12 C -0.1197(9) -0.0560(7) -0.457(2)
C13 C -0.081(1) 0.028(1) -0.471(2)
C14 C -0.142(1) 0.0926(8) -0.469(2)
C15 C -0.242(1) 0.0830(7) -0.452(2)
C16 C -0.2806(9) 0.0037(7) -0.435(2)
H1 H -0.1402 -0.1983 -0.2538
H2 H -0.2230 -0.2621 -0.2130
H3 H -0.1307 -0.2113 -0.6655
H4 H -0.2473 -0.3353 -0.7989
H5 H -0.1402 -0.3171 -0.8555
H6 H -0.1598 -0.4525 -0.6831
H7 H -0.0077 -0.4289 -0.5478
H8 H -0.0042 -0.3663 -0.7051
H9 H -0.0135 -0.3197 -0.3535
H10 H -0.0082 -0.2571 -0.5107
H11 H -0.3387 -0.3618 -0.3669
H12 H -0.3322 -0.3481 -0.5701
H13 H -0.3315 -0.4385 -0.4933
H14 H -0.1958 -0.4134 -0.2041
H15 H -0.0977 -0.4328 -0.2997
H16 H -0.1884 -0.4896 -0.3318
H17 H -0.0780 -0.1031 -0.4639
H18 H -0.0124 0.0349 -0.4785
H19 H -0.1156 0.1471 -0.4808
H20 H -0.2830 0.1308 -0.4516
H21 H -0.3518 -0.0043 -0.4241
F1 F -0.0052(10) -0.1167(8) -0.846(2)
F2 F -0.019(1) -0.2297(9) -1.009(3)
F3 F 0.023(1) -0.129(1) -1.131(2)
F4 F 0.1200(8) -0.177(1) -0.954(2)
B1 B 0.034(1) -0.160(1) -0.976(2)
loop_
_geom_bond_atom_site_label_1
_geom_bond_atom_site_label_2
_geom_bond_site_symmetry_1
_geom_bond_site_symmetry_2
S1 O1 1_555 1_555
F1 B1 1_555 1_555
F2 B1 1_555 1_555
F3 B1 1_555 1_555
F4 B1 1_555 1_555
O1 C3 1_555 1_555
C1 S1 1_555 1_555
C2 C1 1_555 1_555
C3 C2 1_555 1_555
C4 C3 1_555 1_555
C5 C4 1_555 1_555
C6 C5 1_555 1_555
C7 C2 1_555 1_555
C8 C9 1_555 1_555
C9 C2 1_555 1_555
C10 C9 1_555 1_555
C11 S1 1_555 1_555
C12 C11 1_555 1_555
C13 C12 1_555 1_555
C14 C13 1_555 1_555
C15 C14 1_555 1_555
C16 C11 1_555 1_555
H1 C1 1_555 1_555
H2 C1 1_555 1_555
H3 C3 1_555 1_555
H4 C4 1_555 1_555
H5 C4 1_555 1_555
H6 C5 1_555 1_555
H7 C6 1_555 1_555
H8 C6 1_555 1_555
H9 C7 1_555 1_555
H10 C7 1_555 1_555
H11 C8 1_555 1_555
H12 C8 1_555 1_555
H13 C8 1_555 1_555
H14 C10 1_555 1_555
H15 C10 1_555 1_555
H16 C10 1_555 1_555
H17 C12 1_555 1_555
H18 C13 1_555 1_555
H19 C14 1_555 1_555
H20 C15 1_555 1_555
H21 C16 1_555 1_555
C5 C9 1_555 1_555
C6 C7 1_555 1_555
C15 C16 1_555 1_555

#END
