
#######################################################################
#
#                 Cambridge Crystallographic Data Centre
#                                CCDC 
#
#######################################################################
#
# If this CIF has been generated from an entry in the Cambridge 
# Structural Database, then it will include bibliographic, chemical, 
# crystal, experimental, refinement or atomic coordinate data resulting 
# from the CCDC's data processing and validation procedures.
#
#######################################################################

data_JOMTUA
_chemical_formula_moiety         'C16 H22 O2 S1'
_chemical_name_systematic        (1S,R~S~)-10-(Phenylsulfinyl)-2-exo-borneol
_symmetry_cell_setting           orthorhombic
_symmetry_space_group_name_H-M   'P 21 21 21'
_symmetry_Int_Tables_number      19
_space_group_name_Hall           'P 2ac 2ab'
loop_
_symmetry_equiv_pos_site_id
_symmetry_equiv_pos_as_xyz
1 x,y,z
2 1/2-x,-y,1/2+z
3 1/2+x,1/2-y,-z
4 -x,1/2+y,1/2-z
_cell_length_a                   11.508(3)
_cell_length_b                   13.437(3)
_cell_length_c                   9.798(3)
_cell_angle_alpha                90
_cell_angle_beta                 90
_cell_angle_gamma                90
_cell_volume                     1515.09
_exptl_crystal_colour            colorless
_exptl_crystal_description       prismatic
_chemical_melting_point          397-398K
_cell_formula_units_Z            4
_exptl_crystal_recrystallization_method hexane/dichloromethane
loop_
_atom_site_label
_atom_site_type_symbol
_atom_site_fract_x
_atom_site_fract_y
_atom_site_fract_z
S1 S -0.2025(1) -0.2490(1) -0.4796(1)
O1 O -0.3065(3) -0.2094(3) -0.8016(4)
O2 O -0.3234(3) -0.2655(3) -0.5335(4)
C1 C -0.1071(4) -0.2562(4) -0.6271(4)
C2 C -0.1094(4) -0.1633(3) -0.7129(5)
C3 C -0.2317(4) -0.1300(4) -0.7640(6)
C4 C -0.2031(5) -0.0629(4) -0.8869(6)
C5 C -0.0684(5) -0.0598(4) -0.8886(6)
C6 C -0.0291(6) 0.0002(4) -0.7645(8)
C7 C -0.0571(5) -0.0706(4) -0.6422(6)
C8 C -0.0371(4) -0.1678(4) -0.8487(5)
C9 C -0.0765(5) -0.2463(5) -0.9511(5)
C10 C 0.0933(5) -0.1845(4) -0.8249(6)
C11 C -0.1596(4) -0.3631(4) -0.3992(5)
C12 C -0.0742(5) -0.3589(4) -0.3008(6)
C13 C -0.0430(5) -0.4444(5) -0.2322(6)
C14 C -0.0974(6) -0.5324(4) -0.2602(6)
C15 C -0.1834(5) -0.5364(4) -0.3583(6)
C16 C -0.2147(5) -0.4515(4) -0.4298(5)
H1 H -0.1306 -0.3108 -0.6821
H2 H -0.0298 -0.2668 -0.5961
H3 H -0.2682 -0.0912 -0.6952
H4 H -0.2325 -0.0907 -0.9690
H5 H -0.2345 0.0019 -0.8745
H6 H -0.0358 -0.0383 -0.9727
H7 H -0.0714 0.0607 -0.7573
H8 H 0.0517 0.0144 -0.7689
H9 H -0.1117 -0.0410 -0.5818
H10 H 0.0115 -0.0873 -0.5933
H11 H -0.0342 -0.2387 -1.0337
H12 H -0.1572 -0.2384 -0.9688
H13 H -0.0627 -0.3108 -0.9147
H14 H 0.1337 -0.1780 -0.9090
H15 H 0.1215 -0.1365 -0.7619
H16 H 0.1054 -0.2494 -0.7891
H17 H -0.0372 -0.2975 -0.2803
H18 H 0.0167 -0.4421 -0.1652
H19 H -0.0761 -0.5910 -0.2121
H20 H -0.2213 -0.5978 -0.3770
H21 H -0.2729 -0.4541 -0.4985
loop_
_geom_bond_atom_site_label_1
_geom_bond_atom_site_label_2
_geom_bond_site_symmetry_1
_geom_bond_site_symmetry_2
S1 O2 1_555 1_555
O1 C3 1_555 1_555
C1 S1 1_555 1_555
C2 C1 1_555 1_555
C3 C2 1_555 1_555
C4 C3 1_555 1_555
C5 C4 1_555 1_555
C6 C5 1_555 1_555
C7 C2 1_555 1_555
C8 C2 1_555 1_555
C9 C8 1_555 1_555
C10 C8 1_555 1_555
C11 S1 1_555 1_555
C12 C11 1_555 1_555
C13 C12 1_555 1_555
C14 C13 1_555 1_555
C15 C14 1_555 1_555
C16 C11 1_555 1_555
H1 C1 1_555 1_555
H2 C1 1_555 1_555
H3 C3 1_555 1_555
H4 C4 1_555 1_555
H5 C4 1_555 1_555
H6 C5 1_555 1_555
H7 C6 1_555 1_555
H8 C6 1_555 1_555
H9 C7 1_555 1_555
H10 C7 1_555 1_555
H11 C9 1_555 1_555
H12 C9 1_555 1_555
H13 C9 1_555 1_555
H14 C10 1_555 1_555
H15 C10 1_555 1_555
H16 C10 1_555 1_555
H17 C12 1_555 1_555
H18 C13 1_555 1_555
H19 C14 1_555 1_555
H20 C15 1_555 1_555
H21 C16 1_555 1_555
C5 C8 1_555 1_555
C6 C7 1_555 1_555
C15 C16 1_555 1_555

#END
