
#######################################################################
#
#                 Cambridge Crystallographic Data Centre
#                                CCDC 
#
#######################################################################
#
# If this CIF has been generated from an entry in the Cambridge 
# Structural Database, then it will include bibliographic, chemical, 
# crystal, experimental, refinement or atomic coordinate data resulting 
# from the CCDC's data processing and validation procedures.
#
#######################################################################

data_JONQEK
_chemical_formula_moiety         'C9 H5 Cl3 N2 O4'
_chemical_name_systematic        
2,2,2-trichloro-N-(2-formyl-4-nitrophenyl)acetamide
_symmetry_cell_setting           triclinic
_symmetry_space_group_name_H-M   'P -1'
_symmetry_Int_Tables_number      2
_space_group_name_Hall           '-P 1'
loop_
_symmetry_equiv_pos_site_id
_symmetry_equiv_pos_as_xyz
1 x,y,z
2 -x,-y,-z
_cell_length_a                   5.8528(2)
_cell_length_b                   15.7769(7)
_cell_length_c                   12.3805(5)
_cell_angle_alpha                90.570(2)
_cell_angle_beta                 93.086(2)
_cell_angle_gamma                89.733(2)
_cell_volume                     1141.48
_exptl_crystal_colour            yellow
_exptl_crystal_description       plate
_chemical_melting_point          '283-286 K'
_cell_formula_units_Z            4
_exptl_crystal_recrystallization_method ethanol
loop_
_atom_site_label
_atom_site_type_symbol
_atom_site_fract_x
_atom_site_fract_y
_atom_site_fract_z
Cl1 Cl -0.53351(7) 0.55300(3) 0.21126(3)
Cl2 Cl -0.36524(8) 0.41600(2) 0.08041(3)
Cl3 Cl -0.11565(8) 0.57340(2) 0.10101(3)
O1 O -0.1582(2) 0.50628(8) 0.35609(10)
O2 O 0.8929(2) 0.23793(8) 0.46739(11)
N1 N 0.7816(3) 0.29833(9) 0.50086(12)
O3 O 0.1206(2) 0.28673(8) 0.10920(10)
O4 O 0.8340(2) 0.33797(8) 0.58415(11)
C1 C 0.5233(3) 0.28616(10) 0.33831(14)
C2 C 0.1927(3) 0.37906(10) 0.31635(13)
C3 C 0.2495(3) 0.41557(10) 0.41768(13)
C4 C 0.3295(3) 0.31265(10) 0.27735(13)
C5 C 0.4405(3) 0.38838(10) 0.47772(13)
H1 H 0.4782 0.4128 0.5468
C6 C 0.5776(3) 0.32490(10) 0.43660(13)
C7 C -0.2872(3) 0.50083(10) 0.16922(13)
N2 N 0.0092(2) 0.40734(9) 0.24887(11)
C8 C -0.1386(3) 0.47078(10) 0.27066(13)
C9 C 0.2780(3) 0.26856(11) 0.17299(14)
H2 H 0.155(3) 0.4611(13) 0.4463(16)
H3 H 0.383(3) 0.2241(12) 0.1642(15)
H4 H -0.005(4) 0.3821(13) 0.1806(14)
H5 H 0.619(3) 0.2409(13) 0.3100(15)
Cl4 Cl -0.03098(8) 1.07904(3) 0.27296(4)
Cl5 Cl 0.10959(8) 0.93373(3) 0.40042(3)
Cl6 Cl 0.37299(8) 1.08801(3) 0.41702(3)
O5 O 0.5358(2) 0.78949(8) 0.37926(10)
O6 O 1.2889(2) 0.82956(9) -0.04378(11)
O7 O 0.3801(3) 1.04378(9) 0.16011(11)
C10 C 0.9536(3) 0.78346(10) 0.17852(14)
O8 O 1.3245(2) 0.72923(8) 0.07443(11)
C11 C 0.7649(3) 0.81496(10) 0.22964(13)
N3 N 1.2274(3) 0.79166(9) 0.03555(12)
N4 N 0.4773(3) 0.92218(9) 0.25081(11)
C12 C 0.2056(3) 1.02153(11) 0.32797(13)
C13 C 0.7275(3) 0.92767(11) 0.09757(14)
C14 C 0.6925(3) 0.76808(11) 0.32385(14)
C15 C 0.6548(3) 0.88957(10) 0.19085(13)
C16 C 0.3628(3) 0.99615(11) 0.23459(14)
C17 C 1.0261(3) 0.82406(10) 0.08835(13)
C18 C 0.9119(3) 0.89419(11) 0.04587(14)
H6 H 0.653(4) 0.9752(14) 0.0703(17)
H7 H 0.780(3) 0.7182(13) 0.3416(16)
H8 H 0.449(3) 0.8908(12) 0.3115(14)
H9 H 1.034(3) 0.7322(13) 0.2046(16)
H10 H 0.965(4) 0.9184(13) -0.0112(18)
loop_
_geom_bond_atom_site_label_1
_geom_bond_atom_site_label_2
_geom_bond_site_symmetry_1
_geom_bond_site_symmetry_2
Cl1 C7 1_555 1_555
Cl2 C7 1_555 1_555
Cl3 C7 1_555 1_555
O1 C8 1_555 1_555
O2 N1 1_555 1_555
N1 O4 1_555 1_555
O3 C9 1_555 1_555
C1 C4 1_555 1_555
C2 C3 1_555 1_555
C3 C5 1_555 1_555
C4 C2 1_555 1_555
C5 H1 1_555 1_555
C6 N1 1_555 1_555
C7 C8 1_555 1_555
N2 C2 1_555 1_555
C8 N2 1_555 1_555
C9 C4 1_555 1_555
H2 C3 1_555 1_555
H3 C9 1_555 1_555
H4 N2 1_555 1_555
H5 C1 1_555 1_555
Cl4 C12 1_555 1_555
Cl5 C12 1_555 1_555
Cl6 C12 1_555 1_555
O5 C14 1_555 1_555
O6 N3 1_555 1_555
O7 C16 1_555 1_555
C10 C11 1_555 1_555
O8 N3 1_555 1_555
C11 C14 1_555 1_555
N3 C17 1_555 1_555
N4 C15 1_555 1_555
C12 C16 1_555 1_555
C13 C15 1_555 1_555
C14 H7 1_555 1_555
C15 C11 1_555 1_555
C16 N4 1_555 1_555
C17 C10 1_555 1_555
C18 C13 1_555 1_555
H6 C13 1_555 1_555
H8 N4 1_555 1_555
H9 C10 1_555 1_555
H10 C18 1_555 1_555
C1 C6 1_555 1_555
C5 C6 1_555 1_555
C17 C18 1_555 1_555

#END
