
#######################################################################
#
#                 Cambridge Crystallographic Data Centre
#                                CCDC 
#
#######################################################################
#
# If this CIF has been generated from an entry in the Cambridge 
# Structural Database, then it will include bibliographic, chemical, 
# crystal, experimental, refinement or atomic coordinate data resulting 
# from the CCDC's data processing and validation procedures.
#
#######################################################################

data_JONWUG
_chemical_formula_moiety         'C15 H8 Br2 N2 O2'
_chemical_name_systematic        
2,8-Dibromo-5,11-methanodibenzo[b,f][1,5]diazocine-6,12-dione
_symmetry_cell_setting           monoclinic
_symmetry_space_group_name_H-M   'P 21/n'
_symmetry_Int_Tables_number      14
_space_group_name_Hall           '-P 2yn'
loop_
_symmetry_equiv_pos_site_id
_symmetry_equiv_pos_as_xyz
1 x,y,z
2 1/2-x,1/2+y,1/2-z
3 -x,-y,-z
4 1/2+x,1/2-y,1/2+z
_cell_length_a                   6.8538(3)
_cell_length_b                   17.5526(7)
_cell_length_c                   11.3956(4)
_cell_angle_alpha                90
_cell_angle_beta                 102.5230(10)
_cell_angle_gamma                90
_cell_volume                     1338.3
_exptl_crystal_colour            yellow
_exptl_crystal_description       prism
_chemical_melting_point          '488-491 K'
_cell_formula_units_Z            4
_exptl_crystal_recrystallization_method dichloromethane/n-pentane
loop_
_atom_site_label
_atom_site_type_symbol
_atom_site_fract_x
_atom_site_fract_y
_atom_site_fract_z
Br1 Br 0.22658(3) 1.144972(11) 0.496483(17)
Br2 Br -0.27467(3) 0.543659(13) 0.62937(2)
O1 O 0.2333(2) 0.83355(8) 0.42294(11)
O2 O -0.0283(2) 0.82764(8) 0.81035(12)
N1 N 0.3638(2) 0.78046(9) 0.60818(14)
N2 N 0.2845(2) 0.84731(9) 0.77348(14)
C1 C 0.2737(3) 0.98495(12) 0.52587(17)
H1 H 0.296(3) 0.9831(12) 0.4466(19)
C2 C 0.2274(3) 1.05110(11) 0.57944(17)
C3 C 0.1800(3) 1.05099(12) 0.69144(18)
H2 H 0.144(3) 1.0965(13) 0.7251(18)
C4 C 0.1951(3) 0.98362(12) 0.75670(18)
H3 H 0.176(3) 0.9819(13) 0.837(2)
C5 C 0.2543(3) 0.91781(11) 0.70796(17)
C6 C 0.2873(3) 0.91716(11) 0.59078(17)
C7 C -0.0554(3) 0.67944(12) 0.69956(17)
H4 H -0.131(3) 0.6844(12) 0.7588(18)
C8 C -0.0817(3) 0.61955(12) 0.61890(17)
C9 C 0.0311(3) 0.61192(12) 0.53288(17)
H5 H 0.014(3) 0.5726(12) 0.4785(17)
C10 C 0.1796(3) 0.66470(12) 0.52724(17)
H6 H 0.258(3) 0.6586(11) 0.4734(18)
C11 C 0.2104(3) 0.72434(11) 0.60838(17)
C12 C 0.0925(3) 0.73260(11) 0.69434(16)
C13 C 0.2971(3) 0.84256(11) 0.53004(17)
C14 C 0.4406(3) 0.80479(12) 0.73215(17)
H7 H 0.481(3) 0.7605(11) 0.7821(16)
H8 H 0.561(3) 0.8352(11) 0.7372(16)
C15 C 0.1062(3) 0.80412(11) 0.76755(16)
loop_
_geom_bond_atom_site_label_1
_geom_bond_atom_site_label_2
_geom_bond_site_symmetry_1
_geom_bond_site_symmetry_2
Br1 C2 1_555 1_555
Br2 C8 1_555 1_555
O1 C13 1_555 1_555
O2 C15 1_555 1_555
N1 C11 1_555 1_555
N2 C5 1_555 1_555
C1 H1 1_555 1_555
C2 C1 1_555 1_555
C3 C2 1_555 1_555
H2 C3 1_555 1_555
C4 C3 1_555 1_555
H3 C4 1_555 1_555
C5 C4 1_555 1_555
C6 C1 1_555 1_555
C7 H4 1_555 1_555
C8 C7 1_555 1_555
C9 C8 1_555 1_555
H5 C9 1_555 1_555
C10 C9 1_555 1_555
H6 C10 1_555 1_555
C11 C10 1_555 1_555
C12 C7 1_555 1_555
C13 N1 1_555 1_555
C14 N1 1_555 1_555
H7 C14 1_555 1_555
H8 C14 1_555 1_555
C15 N2 1_555 1_555
N2 C14 1_555 1_555
C5 C6 1_555 1_555
C6 C13 1_555 1_555
C11 C12 1_555 1_555
C12 C15 1_555 1_555

#END
