
#######################################################################
#
#                 Cambridge Crystallographic Data Centre
#                                CCDC 
#
#######################################################################
#
# If this CIF has been generated from an entry in the Cambridge 
# Structural Database, then it will include bibliographic, chemical, 
# crystal, experimental, refinement or atomic coordinate data resulting 
# from the CCDC's data processing and validation procedures.
#
#######################################################################

data_JONWIU
_chemical_formula_moiety         'C8 H8 N2 O4'
_chemical_name_systematic        1,4-Dimethyl-2,5-dinitrobenzene
_symmetry_cell_setting           monoclinic
_symmetry_space_group_name_H-M   'P 21/n'
_symmetry_Int_Tables_number      14
_space_group_name_Hall           '-P 2yn'
loop_
_symmetry_equiv_pos_site_id
_symmetry_equiv_pos_as_xyz
1 x,y,z
2 1/2-x,1/2+y,1/2-z
3 -x,-y,-z
4 1/2+x,1/2-y,1/2+z
_cell_length_a                   7.9157(7)
_cell_length_b                   12.2309(13)
_cell_length_c                   8.9639(9)
_cell_angle_alpha                90
_cell_angle_beta                 101.026(3)
_cell_angle_gamma                90
_cell_volume                     851.83
_exptl_crystal_colour            yellow
_exptl_crystal_description       rod
_cell_formula_units_Z            4
_exptl_crystal_recrystallization_method dichloromethane/n-pentane
loop_
_atom_site_label
_atom_site_type_symbol
_atom_site_fract_x
_atom_site_fract_y
_atom_site_fract_z
O1 O 0.15837(11) 0.23452(7) 0.58510(11)
O2 O 0.43362(10) 0.25751(7) 0.65200(11)
O3 O 0.23622(11) 0.79779(7) 0.48494(11)
O4 O 0.16954(11) 0.74298(7) 0.25184(10)
N1 N 0.20812(11) 0.72546(8) 0.38898(12)
N2 N 0.28819(12) 0.29119(9) 0.60012(12)
C1 C 0.32739(13) 0.59296(10) 0.58189(14)
C2 C 0.15970(13) 0.42373(10) 0.41301(13)
C3 C 0.22332(13) 0.61109(9) 0.44093(13)
C4 C 0.13575(13) 0.52794(10) 0.35075(13)
C5 C 0.35624(13) 0.48855(10) 0.64140(13)
C6 C 0.46710(15) 0.47126(12) 0.79556(14)
C7 C 0.02165(16) 0.54139(12) 0.19734(14)
C8 C 0.26846(13) 0.40592(9) 0.55092(13)
H1 H 0.1062(15) 0.3653(11) 0.3552(14)
H2 H 0.3804(15) 0.6517(11) 0.6389(14)
H3 H -0.0562(17) 0.6023(12) 0.1921(16)
H4 H -0.0435(17) 0.4745(13) 0.1702(15)
H5 H 0.0918(15) 0.5590(11) 0.1200(15)
H6 H 0.4081(16) 0.4286(12) 0.8577(16)
H7 H 0.5041(19) 0.5393(15) 0.8399(18)
H8 H 0.5729(18) 0.4288(13) 0.7864(17)
loop_
_geom_bond_atom_site_label_1
_geom_bond_atom_site_label_2
_geom_bond_site_symmetry_1
_geom_bond_site_symmetry_2
O1 N2 1_555 1_555
O2 N2 1_555 1_555
O3 N1 1_555 1_555
O4 N1 1_555 1_555
N1 C3 1_555 1_555
N2 C8 1_555 1_555
C1 C3 1_555 1_555
C2 C4 1_555 1_555
C3 C4 1_555 1_555
C4 C7 1_555 1_555
C5 C1 1_555 1_555
C6 C5 1_555 1_555
C7 H3 1_555 1_555
C8 C2 1_555 1_555
H1 C2 1_555 1_555
H2 C1 1_555 1_555
H4 C7 1_555 1_555
H5 C7 1_555 1_555
H6 C6 1_555 1_555
H7 C6 1_555 1_555
H8 C6 1_555 1_555
C5 C8 1_555 1_555

#END
