
#######################################################################
#
#                 Cambridge Crystallographic Data Centre
#                                CCDC 
#
#######################################################################
#
# If this CIF has been generated from an entry in the Cambridge 
# Structural Database, then it will include bibliographic, chemical, 
# crystal, experimental, refinement or atomic coordinate data resulting 
# from the CCDC's data processing and validation procedures.
#
#######################################################################

data_JOPKII
_chemical_formula_moiety         'C22 H24 O2'
_chemical_name_systematic        
5,11-trans-Diethyl-5,6,11,12-tetrahydrochrysene-2,8-diol
_symmetry_cell_setting           monoclinic
_symmetry_space_group_name_H-M   'C 2/c'
_symmetry_Int_Tables_number      15
_space_group_name_Hall           '-C 2yn'
loop_
_symmetry_equiv_pos_site_id
_symmetry_equiv_pos_as_xyz
1 x,y,z
2 1/2+x,1/2+y,z
3 -x,y,1/2-z
4 1/2-x,1/2+y,1/2-z
5 -x,-y,-z
6 1/2-x,1/2-y,-z
7 x,-y,1/2+z
8 1/2+x,1/2-y,1/2+z
_cell_length_a                   24.584(9)
_cell_length_b                   9.443(3)
_cell_length_c                   9.352(3)
_cell_angle_alpha                90
_cell_angle_beta                 94.61
_cell_angle_gamma                90
_cell_volume                     2164.01
_exptl_crystal_colour            orange
_chemical_melting_point          243deg.C(dec.)
_cell_formula_units_Z            4
loop_
_atom_site_label
_atom_site_type_symbol
_atom_site_fract_x
_atom_site_fract_y
_atom_site_fract_z
O1 O 0.02083(8) 0.9150(3) 0.1143(3)
C1 C 0.0737(1) 0.8686(3) 0.1049(3)
C2 C 0.0992(1) 0.7829(3) 0.2078(3)
C3 C 0.1531(1) 0.7399(3) 0.1951(3)
C4 C 0.1816(1) 0.7828(3) 0.0798(3)
C5 C 0.1540(1) 0.8676(3) -0.0267(3)
C6 C 0.1006(1) 0.9090(3) -0.0134(3)
C7 C 0.1842(1) 0.9143(3) -0.1527(3)
C8 C 0.2238(1) 0.7983(3) -0.1957(3)
C9 C 0.1948(1) 0.6688(4) -0.2624(3)
C10 C 0.1668(3) 0.6918(8) -0.4105(6)
C11 C 0.23946(9) 0.7450(3) 0.0648(3)
H1 H 0.010(2) 0.918(4) 0.186(4)
H2 H 0.079(1) 0.751(4) 0.301(4)
H3 H 0.173(1) 0.669(4) 0.270(4)
H4 H 0.083(1) 0.965(4) -0.085(4)
H5 H 0.159(2) 0.947(4) -0.252(4)
H6 H 0.205(1) 1.009(4) -0.130(4)
H7 H 0.249(1) 0.833(4) -0.275(4)
H8 H 0.165(2) 0.628(4) -0.197(4)
H9 H 0.226(2) 0.583(4) -0.270(4)
H10 H 0.140(2) 0.750(5) -0.420(5)
H11 H 0.179(2) 0.783(4) -0.462(4)
H12 H 0.145(1) 0.586(4) -0.449(4)
C11E C 0.26054(9) 0.7550(3) -0.0648(3)
C8E C 0.2762(1) 0.7017(3) 0.1957(3)
C4E C 0.3184(1) 0.7172(3) -0.0798(3)
C7E C 0.3158(1) 0.5857(3) 0.1527(3)
C9E C 0.3052(1) 0.8312(4) 0.2624(3)
H7E H 0.251(1) 0.667(4) 0.275(4)
C3E C 0.3469(1) 0.7601(3) -0.1951(3)
C5E C 0.3460(1) 0.6324(3) 0.0267(3)
H5E H 0.341(2) 0.553(4) 0.252(4)
H6E H 0.295(1) 0.491(4) 0.130(4)
C10E C 0.3332(3) 0.8082(8) 0.4105(6)
H8E H 0.335(2) 0.872(4) 0.197(4)
H9E H 0.274(2) 0.917(4) 0.270(4)
C2E C 0.4008(1) 0.7171(3) -0.2078(3)
H3E H 0.327(1) 0.831(4) -0.270(4)
C6E C 0.3994(1) 0.5910(3) 0.0134(3)
H10E H 0.360(2) 0.750(5) 0.420(5)
H11E H 0.321(2) 0.717(4) 0.462(4)
H12E H 0.355(1) 0.914(4) 0.449(4)
C1E C 0.4263(1) 0.6314(3) -0.1049(3)
H2E H 0.421(1) 0.749(4) -0.301(4)
H4E H 0.417(1) 0.535(4) 0.085(4)
O1E O 0.47917(8) 0.5850(3) -0.1143(3)
H1E H 0.490(2) 0.582(4) -0.186(4)
C12? C 0.011(2) 0.480(4) 0.404(4)
C13? C 0.013 0.400 0.162
C14? C -0.001 0.361 0.305
C15? C -0.009(2) 0.302(3) 0.247(4)
C16? C -0.001 0.465 0.443
C17? C 0.014 0.438 0.297
loop_
_geom_bond_atom_site_label_1
_geom_bond_atom_site_label_2
_geom_bond_site_symmetry_1
_geom_bond_site_symmetry_2
O1 C1 1_555 1_555
C1 C2 1_555 1_555
C2 C3 1_555 1_555
C3 C4 1_555 1_555
C4 C5 1_555 1_555
C5 C6 1_555 1_555
C6 C1 1_555 1_555
C7 C5 1_555 1_555
C8 C7 1_555 1_555
C9 C8 1_555 1_555
C10 C9 1_555 1_555
C11 C4 1_555 1_555
H1 O1 1_555 1_555
H2 C2 1_555 1_555
H3 C3 1_555 1_555
H4 C6 1_555 1_555
H5 C7 1_555 1_555
H6 C7 1_555 1_555
H7 C8 1_555 1_555
H8 C9 1_555 1_555
H9 C9 1_555 1_555
H10 C10 1_555 1_555
H11 C10 1_555 1_555
H12 C10 1_555 1_555
C11E C8 1_555 1_555
C8E C11 1_555 1_555
C4E C11E 1_555 1_555
C7E C8E 1_555 1_555
C9E C8E 1_555 1_555
H7E C8E 1_555 1_555
C3E C4E 1_555 1_555
C5E C4E 1_555 1_555
H5E C7E 1_555 1_555
H6E C7E 1_555 1_555
C10E C9E 1_555 1_555
H8E C9E 1_555 1_555
H9E C9E 1_555 1_555
C2E C3E 1_555 1_555
H3E C3E 1_555 1_555
C6E C5E 1_555 1_555
H10E C10E 1_555 1_555
H11E C10E 1_555 1_555
H12E C10E 1_555 1_555
C1E C2E 1_555 1_555
H2E C2E 1_555 1_555
H4E C6E 1_555 1_555
O1E C1E 1_555 1_555
H1E O1E 1_555 1_555
C11 C11E 1_555 1_555
C7E C5E 1_555 1_555
C6E C1E 1_555 1_555

#END
