
#######################################################################
#
#                 Cambridge Crystallographic Data Centre
#                                CCDC 
#
#######################################################################
#
# If this CIF has been generated from an entry in the Cambridge 
# Structural Database, then it will include bibliographic, chemical, 
# crystal, experimental, refinement or atomic coordinate data resulting 
# from the CCDC's data processing and validation procedures.
#
#######################################################################

data_JOPSAK
_chemical_formula_moiety         'C20 H16 N2 O2 S1'
_chemical_name_systematic        
N-(benzo[h]quinolin-10-yl)-4-methylbenzenesulfonamide
_symmetry_cell_setting           monoclinic
_symmetry_space_group_name_H-M   'P 21/n'
_symmetry_Int_Tables_number      14
_space_group_name_Hall           '-P 2yn'
loop_
_symmetry_equiv_pos_site_id
_symmetry_equiv_pos_as_xyz
1 x,y,z
2 1/2-x,1/2+y,1/2-z
3 -x,-y,-z
4 1/2+x,1/2-y,1/2+z
_cell_length_a                   7.2225(5)
_cell_length_b                   8.1395(6)
_cell_length_c                   27.359(2)
_cell_angle_alpha                90
_cell_angle_beta                 91.373(2)
_cell_angle_gamma                90
_cell_volume                     1607.91
_exptl_crystal_colour            'light yellow'
_exptl_crystal_description       rod
_cell_formula_units_Z            4
loop_
_atom_site_label
_atom_site_type_symbol
_atom_site_fract_x
_atom_site_fract_y
_atom_site_fract_z
S1 S 0.61213(6) 0.73928(5) 0.152402(15)
O1 O 0.54585(18) 0.90133(15) 0.14072(5)
O2 O 0.49033(18) 0.62686(16) 0.17569(5)
N1 N 0.6754(2) 0.72527(17) 0.00765(5)
N2 N 0.6826(2) 0.66790(18) 0.10095(5)
H1 H 0.663(3) 0.728(3) 0.0756(9)
C1 C 0.6407(2) 0.8212(2) -0.03094(7)
H2 H 0.6061 0.9320 -0.0252
C2 C 0.6521(3) 0.7693(2) -0.07893(7)
H3 H 0.6248 0.8420 -0.1053
C3 C 0.7039(3) 0.6101(3) -0.08728(7)
H4 H 0.7136 0.5712 -0.1199
C4 C 0.7423(2) 0.5051(2) -0.04811(6)
C5 C 0.7982(3) 0.3385(2) -0.05551(7)
H5 H 0.8093 0.2971 -0.0878
C6 C 0.8349(3) 0.2404(2) -0.01706(7)
H6 H 0.8743 0.1309 -0.0228
C7 C 0.8168(2) 0.2948(2) 0.03225(7)
C8 C 0.8491(3) 0.1858(2) 0.07118(7)
H7 H 0.8841 0.0756 0.0646
C9 C 0.8308(3) 0.2365(2) 0.11855(7)
H8 H 0.8542 0.1616 0.1446
C10 C 0.7782(3) 0.3966(2) 0.12876(7)
H9 H 0.7673 0.4308 0.1618
C11 C 0.7414(2) 0.5067(2) 0.09134(6)
C12 C 0.7611(2) 0.4595(2) 0.04155(6)
C13 C 0.7258(2) 0.5662(2) 0.00013(6)
C14 C 0.8126(2) 0.7572(2) 0.18995(6)
C15 C 0.8164(3) 0.6936(2) 0.23681(6)
H10 H 0.7123 0.6364 0.2488
C16 C 0.9750(3) 0.7146(3) 0.26616(7)
H11 H 0.9781 0.6720 0.2985
C17 C 1.1281(3) 0.7967(2) 0.24891(7)
C18 C 1.1216(3) 0.8572(2) 0.20148(7)
H12 H 1.2263 0.9127 0.1892
C19 C 0.9657(3) 0.8381(2) 0.17192(6)
H13 H 0.9631 0.8800 0.1395
C20 C 1.2999(3) 0.8191(3) 0.28053(8)
H14 H 1.3105 0.9344 0.2905
H15 H 1.4090 0.7879 0.2620
H16 H 1.2920 0.7495 0.3096
loop_
_geom_bond_atom_site_label_1
_geom_bond_atom_site_label_2
_geom_bond_site_symmetry_1
_geom_bond_site_symmetry_2
S1 O1 1_555 1_555
O2 S1 1_555 1_555
N1 C1 1_555 1_555
N2 S1 1_555 1_555
H1 N2 1_555 1_555
C1 H2 1_555 1_555
C2 C1 1_555 1_555
H3 C2 1_555 1_555
C3 C2 1_555 1_555
H4 C3 1_555 1_555
C4 C3 1_555 1_555
C5 C4 1_555 1_555
H5 C5 1_555 1_555
C6 C5 1_555 1_555
H6 C6 1_555 1_555
C7 C6 1_555 1_555
C8 C7 1_555 1_555
H7 C8 1_555 1_555
C9 C8 1_555 1_555
H8 C9 1_555 1_555
C10 C9 1_555 1_555
H9 C10 1_555 1_555
C11 N2 1_555 1_555
C12 C7 1_555 1_555
C13 N1 1_555 1_555
C14 S1 1_555 1_555
C15 C14 1_555 1_555
H10 C15 1_555 1_555
C16 C15 1_555 1_555
H11 C16 1_555 1_555
C17 C16 1_555 1_555
C18 C17 1_555 1_555
H12 C18 1_555 1_555
C19 C14 1_555 1_555
H13 C19 1_555 1_555
C20 C17 1_555 1_555
H14 C20 1_555 1_555
H15 C20 1_555 1_555
H16 C20 1_555 1_555
C4 C13 1_555 1_555
C10 C11 1_555 1_555
C11 C12 1_555 1_555
C12 C13 1_555 1_555
C18 C19 1_555 1_555

#END
