
#######################################################################
#
#                 Cambridge Crystallographic Data Centre
#                                CCDC 
#
#######################################################################
#
# If this CIF has been generated from an entry in the Cambridge 
# Structural Database, then it will include bibliographic, chemical, 
# crystal, experimental, refinement or atomic coordinate data resulting 
# from the CCDC's data processing and validation procedures.
#
#######################################################################

data_JOPTOZ
_chemical_formula_moiety         'C36 H39 N2 1+,I3 1-'
_chemical_name_systematic        
'2-(2,6-diisopropylphenyl)-1,6,6-triphenyl-5,6,7,7a-tetrahydro-1H-pyrrolo[1,2-c]imidazol-2-ium triodide'
_symmetry_cell_setting           monoclinic
_symmetry_space_group_name_H-M   'P 21'
_symmetry_Int_Tables_number      4
_space_group_name_Hall           'P 2yb'
loop_
_symmetry_equiv_pos_site_id
_symmetry_equiv_pos_as_xyz
1 x,y,z
2 -x,1/2+y,-z
_cell_length_a                   9.621(2)
_cell_length_b                   14.084(4)
_cell_length_c                   12.671(3)
_cell_angle_alpha                90
_cell_angle_beta                 91.151(5)
_cell_angle_gamma                90
_cell_volume                     1716.6
_exptl_crystal_colour            red
_exptl_crystal_description       rod
_cell_formula_units_Z            2
loop_
_atom_site_label
_atom_site_type_symbol
_atom_site_fract_x
_atom_site_fract_y
_atom_site_fract_z
I1 I 0.74131(13) 0.26499(10) 0.68158(15)
I2 I 0.75836(17) 0.19616(11) 0.46213(15)
I3 I 0.7172(3) 0.33102(13) 0.89582(16)
N1 N 0.3103(13) 0.3000(11) 0.4191(12)
N2 N 0.3347(12) 0.3988(10) 0.5548(11)
C1 C 0.3961(16) 0.3364(12) 0.4946(13)
H1 H 0.4909 0.3186 0.5032
C2 C 0.1615(16) 0.3356(13) 0.4330(11)
H2 H 0.0989 0.2808 0.4482
C3 C 0.1816(15) 0.3976(14) 0.5349(13)
H3 H 0.1443 0.4632 0.5240
C4 C 0.1280(17) 0.3541(13) 0.6353(14)
H4 H 0.1244 0.2841 0.6292
H5 H 0.0335 0.3779 0.6498
C5 C 0.2340(18) 0.3849(14) 0.7267(13)
C6 C 0.3640(19) 0.4247(15) 0.6645(13)
H6 H 0.3719 0.4944 0.6724
H7 H 0.4515 0.3948 0.6904
C7 C 0.3447(18) 0.2306(13) 0.3436(14)
C8 C 0.3972(18) 0.2527(13) 0.2500(14)
C9 C 0.420(3) 0.1788(14) 0.1759(15)
H8 H 0.4614 0.1926 0.1100
C10 C 0.383(3) 0.0875(18) 0.2003(18)
H9 H 0.3940 0.0391 0.1490
C11 C 0.3317(19) 0.0646(14) 0.2945(18)
H10 H 0.3089 0.0004 0.3098
C12 C 0.3114(17) 0.1361(13) 0.3711(14)
C13 C 0.447(2) 0.3526(16) 0.2245(15)
H11 H 0.4153 0.3954 0.2820
C14 C 0.598(2) 0.3596(17) 0.2220(18)
H12 H 0.6373 0.3430 0.2914
H13 H 0.6242 0.4248 0.2041
H14 H 0.6331 0.3159 0.1687
C15 C 0.384(2) 0.3899(15) 0.1194(17)
H15 H 0.3735 0.4591 0.1232
H16 H 0.2923 0.3608 0.1071
H17 H 0.4450 0.3736 0.0612
C16 C 0.2671(18) 0.1060(14) 0.4803(16)
H18 H 0.2516 0.1649 0.5226
C17 C 0.377(2) 0.048(2) 0.536(2)
H19 H 0.3855 -0.0135 0.5016
H20 H 0.3507 0.0388 0.6100
H21 H 0.4659 0.0819 0.5343
C18 C 0.130(2) 0.046(2) 0.481(2)
H22 H 0.1455 -0.0156 0.4485
H23 H 0.0562 0.0802 0.4421
H24 H 0.1011 0.0370 0.5546
C19 C 0.1083(15) 0.3880(12) 0.3343(13)
C20 C 0.143(2) 0.4825(15) 0.3089(16)
H25 H 0.2012 0.5181 0.3556
C21 C 0.095(3) 0.5221(18) 0.2205(19)
H26 H 0.1205 0.5855 0.2042
C22 C 0.006(3) 0.471(2) 0.1499(18)
H27 H -0.0285 0.5002 0.0870
C23 C -0.030(2) 0.3780(18) 0.1735(16)
H28 H -0.0929 0.3437 0.1289
C24 C 0.028(2) 0.3357(16) 0.2654(16)
H29 H 0.0109 0.2705 0.2795
C25 C 0.2623(17) 0.2970(13) 0.7930(14)
C26 C 0.191(3) 0.2775(15) 0.8822(18)
H30 H 0.1259 0.3224 0.9073
C27 C 0.212(3) 0.190(2) 0.939(2)
H31 H 0.1583 0.1771 0.9991
C28 C 0.313(4) 0.124(2) 0.906(2)
H32 H 0.3304 0.0664 0.9434
C29 C 0.383(2) 0.1482(18) 0.8190(19)
H33 H 0.4539 0.1061 0.7967
C30 C 0.361(2) 0.2263(16) 0.7615(19)
H34 H 0.4119 0.2354 0.6987
C31 C 0.182(2) 0.4689(14) 0.7951(14)
C32 C 0.055(2) 0.5102(17) 0.7839(17)
H35 H -0.0094 0.4865 0.7328
C33 C 0.019(3) 0.589(2) 0.848(2)
H36 H -0.0693 0.6184 0.8390
C34 C 0.112(2) 0.621(2) 0.9222(18)
H37 H 0.0873 0.6713 0.9679
C35 C 0.242(3) 0.5809(18) 0.9311(18)
H38 H 0.3071 0.6074 0.9802
C36 C 0.281(2) 0.5043(16) 0.8720(15)
H39 H 0.3702 0.4758 0.8812
loop_
_geom_bond_atom_site_label_1
_geom_bond_atom_site_label_2
_geom_bond_site_symmetry_1
_geom_bond_site_symmetry_2
I1 I2 1_555 1_555
I3 I1 1_555 1_555
N1 C1 1_555 1_555
N2 C1 1_555 1_555
C1 H1 1_555 1_555
C2 N1 1_555 1_555
H2 C2 1_555 1_555
C3 N2 1_555 1_555
H3 C3 1_555 1_555
C4 C3 1_555 1_555
H4 C4 1_555 1_555
H5 C4 1_555 1_555
C5 C4 1_555 1_555
C6 N2 1_555 1_555
H6 C6 1_555 1_555
H7 C6 1_555 1_555
C7 N1 1_555 1_555
C8 C7 1_555 1_555
C9 C8 1_555 1_555
H8 C9 1_555 1_555
C10 C9 1_555 1_555
H9 C10 1_555 1_555
C11 C10 1_555 1_555
H10 C11 1_555 1_555
C12 C7 1_555 1_555
C13 C8 1_555 1_555
H11 C13 1_555 1_555
C14 C13 1_555 1_555
H12 C14 1_555 1_555
H13 C14 1_555 1_555
H14 C14 1_555 1_555
C15 C13 1_555 1_555
H15 C15 1_555 1_555
H16 C15 1_555 1_555
H17 C15 1_555 1_555
C16 C12 1_555 1_555
H18 C16 1_555 1_555
C17 C16 1_555 1_555
H19 C17 1_555 1_555
H20 C17 1_555 1_555
H21 C17 1_555 1_555
C18 C16 1_555 1_555
H22 C18 1_555 1_555
H23 C18 1_555 1_555
H24 C18 1_555 1_555
C19 C2 1_555 1_555
C20 C19 1_555 1_555
H25 C20 1_555 1_555
C21 C20 1_555 1_555
H26 C21 1_555 1_555
C22 C21 1_555 1_555
H27 C22 1_555 1_555
C23 C22 1_555 1_555
H28 C23 1_555 1_555
C24 C19 1_555 1_555
H29 C24 1_555 1_555
C25 C5 1_555 1_555
C26 C25 1_555 1_555
H30 C26 1_555 1_555
C27 C26 1_555 1_555
H31 C27 1_555 1_555
C28 C27 1_555 1_555
H32 C28 1_555 1_555
C29 C28 1_555 1_555
H33 C29 1_555 1_555
C30 C25 1_555 1_555
H34 C30 1_555 1_555
C31 C5 1_555 1_555
C32 C31 1_555 1_555
H35 C32 1_555 1_555
C33 C32 1_555 1_555
H36 C33 1_555 1_555
C34 C33 1_555 1_555
H37 C34 1_555 1_555
C35 C34 1_555 1_555
H38 C35 1_555 1_555
C36 C31 1_555 1_555
H39 C36 1_555 1_555
C2 C3 1_555 1_555
C5 C6 1_555 1_555
C11 C12 1_555 1_555
C23 C24 1_555 1_555
C29 C30 1_555 1_555
C35 C36 1_555 1_555

#END
