
#######################################################################
#
#                 Cambridge Crystallographic Data Centre
#                                CCDC 
#
#######################################################################
#
# If this CIF has been generated from an entry in the Cambridge 
# Structural Database, then it will include bibliographic, chemical, 
# crystal, experimental, refinement or atomic coordinate data resulting 
# from the CCDC's data processing and validation procedures.
#
#######################################################################

data_JOPVUH
_chemical_formula_moiety         'C5 H9 N6 O2 1+,Cl1 1-'
_chemical_name_systematic        
'amino(2-((4-methyl-5-oxido-1,2,5-oxadiazol-3-yl)methylene)hydrazino)methaniminium chloride'
_symmetry_cell_setting           monoclinic
_symmetry_space_group_name_H-M   'P 21'
_symmetry_Int_Tables_number      4
_space_group_name_Hall           'P 2yb'
loop_
_symmetry_equiv_pos_site_id
_symmetry_equiv_pos_as_xyz
1 x,y,z
2 -x,1/2+y,-z
_cell_length_a                   5.8923(5)
_cell_length_b                   11.4413(9)
_cell_length_c                   7.6951(7)
_cell_angle_alpha                90
_cell_angle_beta                 112.239(3)
_cell_angle_gamma                90
_cell_volume                     480.18
_exptl_crystal_colour            colorless
_exptl_crystal_description       block
_cell_formula_units_Z            2
loop_
_atom_site_label
_atom_site_type_symbol
_atom_site_fract_x
_atom_site_fract_y
_atom_site_fract_z
C1 C -0.1909(8) 0.3967(4) 0.4897(6)
C2 C -0.2043(9) 0.4756(4) 0.3449(6)
C3 C -0.0511(10) 0.2880(4) 0.5612(7)
H1 H -0.0872 0.2587 0.6677
H2 H 0.1248 0.3042 0.6022
H3 H -0.0983 0.2291 0.4613
C4 C -0.0793(8) 0.4712(4) 0.2156(6)
H4 H -0.0986 0.5329 0.1284
C5 C 0.3210(8) 0.2993(4) 0.0931(6)
N1 N -0.3382(8) 0.4378(4) 0.5671(6)
N2 N -0.3539(7) 0.5633(4) 0.3337(6)
N3 N 0.0573(7) 0.3838(3) 0.2195(5)
N4 N 0.1693(7) 0.3863(3) 0.0931(5)
H5 H 0.1420 0.4443 0.0128
N5 N 0.3416(7) 0.2061(3) 0.1995(6)
H6 H 0.4435 0.1496 0.2005
H7 H 0.2535 0.2005 0.2695
N6 N 0.4507(7) 0.3099(3) -0.0128(6)
H8 H 0.5535 0.2542 -0.0136
H9 H 0.4347 0.3725 -0.0827
O1 O -0.4477(6) 0.5458(3) 0.4693(5)
O2 O -0.3952(8) 0.4101(4) 0.7006(6)
Cl1 Cl 0.8115(2) 0.08361(8) 0.16710(17)
loop_
_geom_bond_atom_site_label_1
_geom_bond_atom_site_label_2
_geom_bond_site_symmetry_1
_geom_bond_site_symmetry_2
C1 C2 1_555 1_555
C2 C4 1_555 1_555
C3 C1 1_555 1_555
H1 C3 1_555 1_555
H2 C3 1_555 1_555
H3 C3 1_555 1_555
C4 H4 1_555 1_555
C5 N4 1_555 1_555
N1 C1 1_555 1_555
N2 C2 1_555 1_555
N3 C4 1_555 1_555
N4 N3 1_555 1_555
H5 N4 1_555 1_555
N5 C5 1_555 1_555
H6 N5 1_555 1_555
H7 N5 1_555 1_555
N6 C5 1_555 1_555
H8 N6 1_555 1_555
H9 N6 1_555 1_555
O1 N1 1_555 1_555
O2 N1 1_555 1_555
N2 O1 1_555 1_555

#END
