
#######################################################################
#
#                 Cambridge Crystallographic Data Centre
#                                CCDC 
#
#######################################################################
#
# If this CIF has been generated from an entry in the Cambridge 
# Structural Database, then it will include bibliographic, chemical, 
# crystal, experimental, refinement or atomic coordinate data resulting 
# from the CCDC's data processing and validation procedures.
#
#######################################################################

data_JOPVOB
_chemical_formula_moiety         'C13 H14 N12 O6,C3 H7 N1 O1'
_chemical_name_systematic        
"N',N'',2-tris((4-methyl-5-oxido-1,2,5-oxadiazol-3-yl)methylene)hydrazinecarbohydrazonohydrazide N,N-dimethylformamide solvate"
_symmetry_cell_setting           triclinic
_symmetry_space_group_name_H-M   'P -1'
_symmetry_Int_Tables_number      2
_space_group_name_Hall           '-P 1'
loop_
_symmetry_equiv_pos_site_id
_symmetry_equiv_pos_as_xyz
1 x,y,z
2 -x,-y,-z
_cell_length_a                   8.8526(11)
_cell_length_b                   11.6239(14)
_cell_length_c                   12.4741(15)
_cell_angle_alpha                109.894(4)
_cell_angle_beta                 101.069(4)
_cell_angle_gamma                100.231(4)
_cell_volume                     1142.76
_exptl_crystal_colour            colorless
_exptl_crystal_description       needle
_cell_formula_units_Z            2
loop_
_atom_site_label
_atom_site_type_symbol
_atom_site_fract_x
_atom_site_fract_y
_atom_site_fract_z
C1 C 0.8007(4) 0.5300(3) 0.9987(3)
C2 C 1.1182(4) 0.7692(3) 1.2146(3)
H1 H 1.0985 0.7561 1.2823
C3 C 1.3027(4) 0.9026(3) 1.1387(3)
C4 C 1.2542(4) 0.8673(3) 1.2272(3)
C5 C 1.2378(4) 0.8567(3) 1.0096(2)
H2 H 1.1514 0.8952 0.9915
H3 H 1.1962 0.7642 0.9766
H4 H 1.3225 0.8800 0.9746
C6 C 0.5345(4) 0.3635(3) 1.1053(2)
H5 H 0.5256 0.3677 1.1812
C7 C 0.2719(4) 0.1898(3) 1.0105(2)
C8 C 0.4095(4) 0.2670(3) 1.0043(3)
C9 C 0.2108(4) 0.1851(3) 1.1126(2)
H6 H 0.1509 0.2489 1.1336
H7 H 0.3007 0.2026 1.1806
H8 H 0.1405 0.1007 1.0907
C10 C 0.7364(4) 0.4672(3) 0.7085(3)
H9 H 0.8351 0.5200 0.7140
C11 C 0.4720(4) 0.3113(3) 0.5625(3)
C12 C 0.6223(4) 0.3982(3) 0.5941(3)
C13 C 0.3833(4) 0.2536(3) 0.6286(3)
H10 H 0.3048 0.1748 0.5731
H11 H 0.3283 0.3127 0.6712
H12 H 0.4580 0.2352 0.6855
N1 N 0.8987(3) 0.6089(2) 1.1075(2)
H13 H 0.8821 0.6017 1.1725
N2 N 1.0248(3) 0.7004(2) 1.1119(2)
N3 N 1.4337(4) 0.9956(3) 1.1944(3)
N4 N 1.3522(4) 0.9347(3) 1.3335(2)
N5 N 0.6747(3) 0.4425(2) 0.9996(2)
H14 H 0.6077 0.3866 0.9327
N6 N 0.6550(3) 0.4436(2) 1.1050(2)
N7 N 0.1887(3) 0.1161(2) 0.9006(2)
N8 N 0.4121(3) 0.2434(2) 0.8937(2)
N9 N 0.8285(3) 0.5409(2) 0.9035(2)
N10 N 0.7079(3) 0.4589(2) 0.8031(2)
N11 N 0.4092(4) 0.2820(3) 0.4485(3)
N12 N 0.6552(4) 0.4212(3) 0.5030(3)
O1 O 1.4705(3) 1.0189(2) 1.3199(2)
O2 O 1.5287(3) 1.0634(2) 1.1645(2)
O3 O 0.2768(3) 0.14839(19) 0.82193(15)
O4 O 0.0623(3) 0.0319(2) 0.85272(17)
O5 O 0.5240(3) 0.3497(2) 0.40681(19)
O6 O 0.2805(3) 0.2143(3) 0.3751(2)
C14 C 1.0287(4) 0.3541(3) 0.5413(3)
H15 H 1.0730 0.4303 0.5331
C15 C 0.9178(4) 0.2642(3) 0.3270(2)
H16 H 0.9616 0.3517 0.3363
H17 H 0.8026 0.2384 0.2899
H18 H 0.9691 0.2080 0.2768
C16 C 0.8865(6) 0.1345(4) 0.4466(3)
H19 H 0.9450 0.1317 0.5204
H20 H 0.8999 0.0672 0.3789
H21 H 0.7730 0.1218 0.4431
N13 N 0.9479(3) 0.2561(3) 0.4427(2)
O7 O 1.0524(3) 0.3571(2) 0.64247(17)
loop_
_geom_bond_atom_site_label_1
_geom_bond_atom_site_label_2
_geom_bond_site_symmetry_1
_geom_bond_site_symmetry_2
C1 N1 1_555 1_555
C2 H1 1_555 1_555
C3 C4 1_555 1_555
C4 C2 1_555 1_555
C5 C3 1_555 1_555
H2 C5 1_555 1_555
H3 C5 1_555 1_555
H4 C5 1_555 1_555
C6 H5 1_555 1_555
C7 C8 1_555 1_555
C8 C6 1_555 1_555
C9 C7 1_555 1_555
H6 C9 1_555 1_555
H7 C9 1_555 1_555
H8 C9 1_555 1_555
C10 H9 1_555 1_555
C11 C12 1_555 1_555
C12 C10 1_555 1_555
C13 C11 1_555 1_555
H10 C13 1_555 1_555
H11 C13 1_555 1_555
H12 C13 1_555 1_555
N1 H13 1_555 1_555
N2 C2 1_555 1_555
N3 C3 1_555 1_555
N4 C4 1_555 1_555
N5 C1 1_555 1_555
H14 N5 1_555 1_555
N6 C6 1_555 1_555
N7 C7 1_555 1_555
N8 C8 1_555 1_555
N9 C1 1_555 1_555
N10 C10 1_555 1_555
N11 C11 1_555 1_555
N12 C12 1_555 1_555
O1 N3 1_555 1_555
O2 N3 1_555 1_555
O3 N7 1_555 1_555
O4 N7 1_555 1_555
O5 N11 1_555 1_555
O6 N11 1_555 1_555
C14 H15 1_555 1_555
C15 H16 1_555 1_555
H17 C15 1_555 1_555
H18 C15 1_555 1_555
C16 H19 1_555 1_555
H20 C16 1_555 1_555
H21 C16 1_555 1_555
N13 C14 1_555 1_555
O7 C14 1_555 1_555
N1 N2 1_555 1_555
N4 O1 1_555 1_555
N5 N6 1_555 1_555
N8 O3 1_555 1_555
N9 N10 1_555 1_555
N12 O5 1_555 1_555
C15 N13 1_555 1_555
C16 N13 1_555 1_555

#END
