
#######################################################################
#
#                 Cambridge Crystallographic Data Centre
#                                CCDC 
#
#######################################################################
#
# If this CIF has been generated from an entry in the Cambridge 
# Structural Database, then it will include bibliographic, chemical, 
# crystal, experimental, refinement or atomic coordinate data resulting 
# from the CCDC's data processing and validation procedures.
#
#######################################################################

data_JOQDOK
_chemical_formula_moiety         'C18 H22 Br1 O3 P1'
_chemical_name_systematic        
't-butyl (1-(4-bromophenyl)-1-hydroxyethyl)phenylphosphinate'
_symmetry_cell_setting           monoclinic
_symmetry_space_group_name_H-M   'P 21/c'
_symmetry_Int_Tables_number      14
_space_group_name_Hall           '-P 2ybc'
loop_
_symmetry_equiv_pos_site_id
_symmetry_equiv_pos_as_xyz
1 x,y,z
2 -x,1/2+y,1/2-z
3 -x,-y,-z
4 x,1/2-y,1/2+z
_cell_length_a                   15.6312(13)
_cell_length_b                   5.9562(4)
_cell_length_c                   19.6323(17)
_cell_angle_alpha                90
_cell_angle_beta                 92.0060(10)
_cell_angle_gamma                90
_cell_volume                     1826.7
_cell_formula_units_Z            4
loop_
_atom_site_label
_atom_site_type_symbol
_atom_site_fract_x
_atom_site_fract_y
_atom_site_fract_z
Br1 Br 0.88659(19) 0.2379(5) 0.51219(14)
P1 P 0.7049(3) 0.6038(10) 0.2006(3)
O1 O 0.6662(10) 0.372(3) 0.2017(7)
O2 O 0.6623(9) 0.789(2) 0.1522(8)
O3 O 0.7314(11) 0.976(3) 0.2730(9)
H1 H 0.7824 0.9693 0.2841
C1 C 0.6208(14) 0.756(4) 0.0839(10)
C2 C 0.8272(15) 0.403(4) 0.4407(11)
C3 C 0.7410(14) 0.639(4) 0.3364(10)
C4 C 0.8147(16) 0.721(4) 0.3666(16)
H2 H 0.8377 0.8546 0.3507
C5 C 0.5990(15) 0.784(5) 0.2956(16)
H3 H 0.5925 0.8689 0.3366
H4 H 0.5738 0.6382 0.3007
H5 H 0.5710 0.8608 0.2581
C6 C 0.8118(14) 0.600(3) 0.1842(11)
C7 C 0.8528(14) 0.782(4) 0.1503(11)
H6 H 0.8204 0.9039 0.1352
C8 C 0.9557(18) 0.418(5) 0.1944(16)
H7 H 0.9907 0.3030 0.2115
C9 C 0.7133(14) 0.430(4) 0.3604(11)
H8 H 0.6641 0.3669 0.3406
C10 C 0.9382(15) 0.778(4) 0.1398(13)
H9 H 0.9632 0.9025 0.1199
C11 C 0.8685(15) 0.418(4) 0.2042(10)
H10 H 0.8448 0.2926 0.2248
C12 C 0.6929(14) 0.759(4) 0.2820(13)
C13 C 0.8570(14) 0.607(5) 0.4224(12)
H11 H 0.9039 0.6710 0.4455
C14 C 0.7550(15) 0.317(4) 0.4112(11)
H12 H 0.7340 0.1800 0.4259
C15 C 0.5358(14) 0.659(5) 0.0910(13)
H13 H 0.5014 0.7591 0.1170
H14 H 0.5408 0.5173 0.1140
H15 H 0.5092 0.6376 0.0467
C16 C 0.6750(19) 0.614(5) 0.0393(17)
H16 H 0.6629 0.4583 0.0471
H17 H 0.7344 0.6429 0.0499
H18 H 0.6624 0.6499 -0.0077
C17 C 0.9893(16) 0.596(5) 0.1577(14)
H19 H 1.0462 0.5933 0.1453
C18 C 0.6166(18) 1.000(5) 0.0572(15)
H20 H 0.6736 1.0545 0.0512
H21 H 0.5885 1.0927 0.0895
H22 H 0.5851 1.0033 0.0144
loop_
_geom_bond_atom_site_label_1
_geom_bond_atom_site_label_2
_geom_bond_site_symmetry_1
_geom_bond_site_symmetry_2
Br1 C2 1_555 1_555
P1 O1 1_555 1_555
O2 P1 1_555 1_555
O3 H1 1_555 1_555
C1 O2 1_555 1_555
C2 C13 1_555 1_555
C3 C4 1_555 1_555
C4 H2 1_555 1_555
C5 H3 1_555 1_555
H4 C5 1_555 1_555
H5 C5 1_555 1_555
C6 P1 1_555 1_555
C7 C6 1_555 1_555
H6 C7 1_555 1_555
C8 H7 1_555 1_555
C9 C3 1_555 1_555
H8 C9 1_555 1_555
C10 C7 1_555 1_555
H9 C10 1_555 1_555
C11 C6 1_555 1_555
H10 C11 1_555 1_555
C12 P1 1_555 1_555
C13 C4 1_555 1_555
H11 C13 1_555 1_555
C14 C2 1_555 1_555
H12 C14 1_555 1_555
C15 C1 1_555 1_555
H13 C15 1_555 1_555
H14 C15 1_555 1_555
H15 C15 1_555 1_555
C16 C1 1_555 1_555
H16 C16 1_555 1_555
H17 C16 1_555 1_555
H18 C16 1_555 1_555
C17 C8 1_555 1_555
H19 C17 1_555 1_555
C18 C1 1_555 1_555
H20 C18 1_555 1_555
H21 C18 1_555 1_555
H22 C18 1_555 1_555
O3 C12 1_555 1_555
C3 C12 1_555 1_555
C5 C12 1_555 1_555
C8 C11 1_555 1_555
C9 C14 1_555 1_555
C10 C17 1_555 1_555

#END
