
#######################################################################
#
#                 Cambridge Crystallographic Data Centre
#                                CCDC 
#
#######################################################################
#
# If this CIF has been generated from an entry in the Cambridge 
# Structural Database, then it will include bibliographic, chemical, 
# crystal, experimental, refinement or atomic coordinate data resulting 
# from the CCDC's data processing and validation procedures.
#
#######################################################################

data_JOQMOT
_chemical_formula_moiety         'C24 H32 Br1 O3 P1'
_chemical_name_systematic        
'2-isopropyl-5-methylcyclohexyl (1-(4-bromophenyl)-1-hydroxyethyl)phenylphosphinate'
_symmetry_cell_setting           monoclinic
_symmetry_space_group_name_H-M   'P 21'
_symmetry_Int_Tables_number      4
_space_group_name_Hall           'P 2yb'
loop_
_symmetry_equiv_pos_site_id
_symmetry_equiv_pos_as_xyz
1 x,y,z
2 -x,1/2+y,-z
_cell_length_a                   19.80(2)
_cell_length_b                   5.863(6)
_cell_length_c                   20.83(2)
_cell_angle_alpha                90
_cell_angle_beta                 101.188(12)
_cell_angle_gamma                90
_cell_volume                     2372.15
_exptl_crystal_colour            colorless
_exptl_crystal_description       block
_cell_formula_units_Z            4
loop_
_atom_site_label
_atom_site_type_symbol
_atom_site_fract_x
_atom_site_fract_y
_atom_site_fract_z
P1 P 0.00233(19) 0.7849(6) 0.69807(15)
O1 O -0.0700(6) 0.407(2) 0.6563(6)
H1 H -0.1060 0.3563 0.6351
O2 O -0.0053(5) 1.026(2) 0.7147(5)
C1 C 0.0403(14) 1.077(5) 0.8852(14)
H2 H 0.0696 1.1200 0.9257
H3 H -0.0043 1.1450 0.8828
H4 H 0.0599 1.1305 0.8493
O3 O 0.0442(4) 0.6297(17) 0.7554(4)
C2 C -0.1691(8) 0.653(3) 0.8526(7)
C3 C -0.1344(9) 0.469(3) 0.8379(8)
H5 H -0.1302 0.3441 0.8660
C4 C -0.1053(8) 0.456(3) 0.7836(8)
H6 H -0.0791 0.3290 0.7773
C5 C -0.1145(7) 0.632(3) 0.7374(6)
C6 C -0.1498(7) 0.833(3) 0.7526(7)
H7 H -0.1548 0.9572 0.7242
C7 C -0.1784(9) 0.843(3) 0.8133(8)
H8 H -0.2014 0.9718 0.8242
C8 C -0.0804(6) 0.632(3) 0.6751(6)
C9 C -0.1278(8) 0.750(3) 0.6191(8)
H9 H -0.1099 0.7326 0.5797
H10 H -0.1306 0.9096 0.6289
H11 H -0.1728 0.6835 0.6131
C10 C 0.0447(6) 0.757(2) 0.6240(5)
C11 C 0.0811(7) 0.553(3) 0.6161(7)
H12 H 0.0847 0.4303 0.6449
C12 C 0.1113(9) 0.555(3) 0.5597(8)
H13 H 0.1384 0.4326 0.5520
C13 C 0.1022(8) 0.730(3) 0.5170(8)
H14 H 0.1207 0.7182 0.4794
C14 C 0.0667(8) 0.925(3) 0.5266(8)
H15 H 0.0630 1.0463 0.4974
C15 C 0.0358(7) 0.935(3) 0.5826(7)
H16 H 0.0102 1.0619 0.5904
C16 C 0.0330(9) 0.811(3) 0.8817(9)
H17 H -0.006(8) 0.77(3) 0.847(8)
C17 C 0.0183(12) 0.736(5) 0.9484(10)
H18 H -0.0026 0.5876 0.9443
H19 H -0.0124 0.8432 0.9626
H20 H 0.0607 0.7300 0.9799
C18 C 0.0954(8) 0.688(4) 0.8691(7)
H21 H 0.086(8) 0.53(3) 0.875(8)
C19 C 0.1638(8) 0.740(3) 0.9155(8)
H22 H 0.1747 0.8997 0.9117
H23 H 0.1582 0.7126 0.9601
C20 C 0.2237(10) 0.597(4) 0.9021(9)
H24 H 0.2141 0.4359 0.9066
H25 H 0.2653 0.6346 0.9333
C21 C 0.2337(10) 0.648(4) 0.8309(9)
H26 H 0.243(10) 0.81(4) 0.827(9)
C22 C 0.1655(7) 0.586(3) 0.7811(7)
H27 H 0.1703 0.6250 0.7370
H28 H 0.1571 0.4228 0.7826
C23 C 0.1066(7) 0.713(3) 0.7986(6)
H29 H 0.112(7) 0.87(3) 0.790(7)
C24 C 0.2941(11) 0.506(4) 0.8130(11)
H30 H 0.2846 0.3467 0.8164
H31 H 0.3361 0.5436 0.8426
H32 H 0.2987 0.5413 0.7691
Br1 Br -0.20366(11) 0.6827(5) 0.93076(9)
P2 P 0.5186(2) 0.2893(9) 0.8054(3)
C25 C 0.4859(19) 0.616(8) 0.6218(18)
H33 H 0.5272 0.6980 0.6397
H34 H 0.4517 0.6450 0.6479
H35 H 0.4689 0.6659 0.5778
O4 O 0.5263(6) 0.530(2) 0.7919(6)
O5 O 0.4802(6) 0.139(2) 0.7465(5)
C26 C 0.2318(12) -0.009(5) 0.6631(12)
H36 H 0.2462 -0.1653 0.6673
H37 H 0.1962 0.0083 0.6249
H38 H 0.2144 0.0360 0.7011
C27 C 0.2909(12) 0.136(5) 0.6568(11)
H39 H 0.279(11) 0.29(4) 0.666(11)
C28 C 0.3081(13) 0.127(5) 0.5868(12)
H40 H 0.3178 -0.0298 0.5766
H41 H 0.2682 0.1765 0.5552
C29 C 0.3690(11) 0.274(4) 0.5804(11)
H42 H 0.3581 0.4326 0.5873
H43 H 0.3780 0.2603 0.5364
C30 C 0.4336(11) 0.206(5) 0.6299(10)
H44 H 0.443(10) 0.05(4) 0.622(10)
C31 C 0.4199(9) 0.224(4) 0.6971(8)
H45 H 0.411(9) 0.38(4) 0.707(9)
C32 C 0.3547(8) 0.074(3) 0.7020(8)
H46 H 0.3652 -0.0837 0.6943
H47 H 0.3465 0.0846 0.7464
C33 C 0.5274(12) 0.274(5) 0.5613(11)
H48 H 0.4906 0.2846 0.5238
H49 H 0.5426 0.1184 0.5670
H50 H 0.5650 0.3685 0.5547
C34 C 0.5018(10) 0.353(3) 0.6221(10)
H51 H 0.538(9) 0.32(3) 0.660(9)
C35 C 0.4740(11) 0.436(4) 0.9126(10)
H52 H 0.4987 0.5691 0.9093
C36 C 0.4727(7) 0.260(2) 0.8647(6)
C37 C 0.4346(9) 0.068(3) 0.8734(8)
H53 H 0.4332 -0.0522 0.8439
C38 C 0.3982(10) 0.046(4) 0.9242(9)
H54 H 0.3737 -0.0871 0.9285
C39 C 0.3988(9) 0.236(4) 0.9712(9)
H55 H 0.3728 0.2337 1.0039
C40 C 0.4393(10) 0.411(4) 0.9633(10)
H56 H 0.4446 0.5253 0.9948
C41 C 0.6410(10) 0.257(4) 0.8937(9)
H57 H 0.6824 0.1744 0.9110
H58 H 0.6108 0.2533 0.9246
H59 H 0.6523 0.4127 0.8858
C42 C 0.6025(11) 0.140(5) 0.8247(10)
C43 C 0.6754(12) 0.322(5) 0.7639(12)
H60 H 0.6827 0.4363 0.7954
C44 C 0.6384(10) 0.137(4) 0.7718(9)
C45 C 0.6343(10) -0.042(4) 0.7278(10)
H61 H 0.6120 -0.1747 0.7366
C46 C 0.6619(11) -0.034(4) 0.6707(11)
H62 H 0.6597 -0.1569 0.6421
C47 C 0.6921(12) 0.167(6) 0.6605(11)
C48 C 0.7019(11) 0.339(4) 0.7087(10)
H63 H 0.7272 0.4680 0.7025
Br2 Br 0.72982(13) 0.1872(7) 0.58178(18)
O6 O 0.5877(6) -0.091(2) 0.8536(6)
H64 H 0.5593 -0.0740 0.8771
loop_
_geom_bond_atom_site_label_1
_geom_bond_atom_site_label_2
_geom_bond_site_symmetry_1
_geom_bond_site_symmetry_2
P1 O2 1_555 1_555
O1 H1 1_555 1_555
C1 H2 1_555 1_555
H3 C1 1_555 1_555
H4 C1 1_555 1_555
O3 P1 1_555 1_555
C2 C3 1_555 1_555
C3 H5 1_555 1_555
C4 C3 1_555 1_555
H6 C4 1_555 1_555
C5 C4 1_555 1_555
C6 C5 1_555 1_555
H7 C6 1_555 1_555
C7 C2 1_555 1_555
H8 C7 1_555 1_555
C8 P1 1_555 1_555
C9 C8 1_555 1_555
H9 C9 1_555 1_555
H10 C9 1_555 1_555
H11 C9 1_555 1_555
C10 P1 1_555 1_555
C11 C10 1_555 1_555
H12 C11 1_555 1_555
C12 C11 1_555 1_555
H13 C12 1_555 1_555
C13 C12 1_555 1_555
H14 C13 1_555 1_555
C14 C13 1_555 1_555
H15 C14 1_555 1_555
C15 C10 1_555 1_555
H16 C15 1_555 1_555
C16 C1 1_555 1_555
H17 C16 1_555 1_555
C17 C16 1_555 1_555
H18 C17 1_555 1_555
H19 C17 1_555 1_555
H20 C17 1_555 1_555
C18 C16 1_555 1_555
H21 C18 1_555 1_555
C19 C18 1_555 1_555
H22 C19 1_555 1_555
H23 C19 1_555 1_555
C20 C19 1_555 1_555
H24 C20 1_555 1_555
H25 C20 1_555 1_555
C21 C20 1_555 1_555
H26 C21 1_555 1_555
C22 C21 1_555 1_555
H27 C22 1_555 1_555
H28 C22 1_555 1_555
C23 O3 1_555 1_555
H29 C23 1_555 1_555
C24 C21 1_555 1_555
H30 C24 1_555 1_555
H31 C24 1_555 1_555
H32 C24 1_555 1_555
Br1 C2 1_555 1_555
P2 O4 1_555 1_555
C25 H33 1_555 1_555
H34 C25 1_555 1_555
H35 C25 1_555 1_555
O5 P2 1_555 1_555
C26 H36 1_555 1_555
H37 C26 1_555 1_555
H38 C26 1_555 1_555
C27 C26 1_555 1_555
H39 C27 1_555 1_555
C28 C27 1_555 1_555
H40 C28 1_555 1_555
H41 C28 1_555 1_555
C29 C28 1_555 1_555
H42 C29 1_555 1_555
H43 C29 1_555 1_555
C30 C29 1_555 1_555
H44 C30 1_555 1_555
C31 O5 1_555 1_555
H45 C31 1_555 1_555
C32 C27 1_555 1_555
H46 C32 1_555 1_555
H47 C32 1_555 1_555
C33 H48 1_555 1_555
H49 C33 1_555 1_555
H50 C33 1_555 1_555
C34 C25 1_555 1_555
H51 C34 1_555 1_555
C35 H52 1_555 1_555
C36 P2 1_555 1_555
C37 C36 1_555 1_555
H53 C37 1_555 1_555
C38 C37 1_555 1_555
H54 C38 1_555 1_555
C39 C38 1_555 1_555
H55 C39 1_555 1_555
C40 C35 1_555 1_555
H56 C40 1_555 1_555
C41 H57 1_555 1_555
H58 C41 1_555 1_555
H59 C41 1_555 1_555
C42 P2 1_555 1_555
C43 H60 1_555 1_555
C44 C42 1_555 1_555
C45 C44 1_555 1_555
H61 C45 1_555 1_555
C46 C45 1_555 1_555
H62 C46 1_555 1_555
C47 C46 1_555 1_555
C48 C43 1_555 1_555
H63 C48 1_555 1_555
Br2 C47 1_555 1_555
O6 C42 1_555 1_555
H64 O6 1_555 1_555
O1 C8 1_555 1_555
C5 C8 1_555 1_555
C6 C7 1_555 1_555
C14 C15 1_555 1_555
C18 C23 1_555 1_555
C22 C23 1_555 1_555
C30 C31 1_555 1_555
C30 C34 1_555 1_555
C31 C32 1_555 1_555
C33 C34 1_555 1_555
C35 C36 1_555 1_555
C39 C40 1_555 1_555
C41 C42 1_555 1_555
C43 C44 1_555 1_555
C47 C48 1_555 1_555

#END
