
#######################################################################
#
#                 Cambridge Crystallographic Data Centre
#                                CCDC 
#
#######################################################################
#
# If this CIF has been generated from an entry in the Cambridge 
# Structural Database, then it will include bibliographic, chemical, 
# crystal, experimental, refinement or atomic coordinate data resulting 
# from the CCDC's data processing and validation procedures.
#
#######################################################################

data_JOQNIO
_chemical_formula_moiety         'C20 H24 Br1 O3 P1'
_chemical_name_systematic        
'Cyclohexyl (1-(4-bromophenyl)-1-hydroxyethyl)phenylphosphinate'
_symmetry_cell_setting           monoclinic
_symmetry_space_group_name_H-M   'P 21/n'
_symmetry_Int_Tables_number      14
_space_group_name_Hall           '-P 2yn'
loop_
_symmetry_equiv_pos_site_id
_symmetry_equiv_pos_as_xyz
1 x,y,z
2 1/2-x,1/2+y,1/2-z
3 -x,-y,-z
4 1/2+x,1/2-y,1/2+z
_cell_length_a                   10.4511(12)
_cell_length_b                   19.5742(6)
_cell_length_c                   11.0005(11)
_cell_angle_alpha                90
_cell_angle_beta                 117.362(2)
_cell_angle_gamma                90
_cell_volume                     1998.62
_cell_formula_units_Z            4
loop_
_atom_site_label
_atom_site_type_symbol
_atom_site_fract_x
_atom_site_fract_y
_atom_site_fract_z
Br1 Br 0.10301(18) 1.13010(6) 0.32801(14)
P1 P 0.0192(3) 0.77182(10) 0.2492(2)
O1 O -0.0634(7) 0.7056(3) 0.1700(5)
O2 O -0.1973(7) 0.8284(3) 0.0319(5)
H1 H -0.2579 0.7980 0.0087
C1 C -0.0661(10) 0.9072(4) 0.2141(8)
C2 C -0.1279(9) 0.8346(4) 0.1772(8)
C3 C 0.1474(10) 0.7900(4) 0.1895(9)
C4 C -0.0218(14) 0.6383(5) 0.2297(12)
H2 H 0.0678 0.6419 0.3156
C5 C 0.2865(10) 0.8069(5) 0.2815(10)
H3 H 0.3109 0.8105 0.3739
C6 C 0.0123(11) 0.9264(4) 0.3487(9)
H4 H 0.0310 0.8950 0.4183
C7 C -0.0605(18) 0.4937(7) 0.2353(17)
H5 H -0.0249 0.4509 0.2835
H6 H -0.1475 0.4839 0.1516
C8 C -0.2359(10) 0.8206(5) 0.2335(10)
H7 H -0.3133 0.8530 0.1954
H8 H -0.1878 0.8249 0.3314
H9 H -0.2737 0.7752 0.2088
C9 C 0.0371(12) 1.0388(4) 0.2803(10)
C10 C 0.3913(12) 0.8188(5) 0.2397(11)
H10 H 0.4852 0.8295 0.3033
C11 C -0.0897(11) 0.9542(4) 0.1146(9)
H11 H -0.1405 0.9412 0.0233
C12 C 0.1111(11) 0.7872(5) 0.0499(10)
H12 H 0.0174 0.7772 -0.0152
C13 C 0.0631(12) 0.9924(5) 0.3802(10)
H13 H 0.1160 1.0052 0.4714
C14 C -0.0408(11) 1.0199(4) 0.1451(10)
H14 H -0.0598 1.0514 0.0755
C15 C 0.2184(12) 0.7997(5) 0.0111(11)
H15 H 0.1952 0.7977 -0.0812
C16 C 0.3541(12) 0.8146(5) 0.1028(11)
H16 H 0.4235 0.8220 0.0735
C17 C -0.1338(17) 0.6121(6) 0.2585(15)
H17 H -0.2245 0.6114 0.1751
H18 H -0.1448 0.6415 0.3240
C18 C 0.0011(16) 0.5933(6) 0.1380(14)
H19 H 0.0781 0.6110 0.1210
H20 H -0.0857 0.5909 0.0513
C19 C 0.0415(18) 0.5206(6) 0.2020(16)
H21 H 0.0526 0.4903 0.1376
H22 H 0.1334 0.5228 0.2839
C20 C -0.0950(18) 0.5381(7) 0.3180(16)
H23 H -0.0135 0.5403 0.4086
H24 H -0.1759 0.5193 0.3272
O3 O 0.0876(7) 0.7664(3) 0.3992(5)
loop_
_geom_bond_atom_site_label_1
_geom_bond_atom_site_label_2
_geom_bond_site_symmetry_1
_geom_bond_site_symmetry_2
Br1 C9 1_555 1_555
P1 O1 1_555 1_555
O1 C4 1_555 1_555
O2 H1 1_555 1_555
C1 C2 1_555 1_555
C2 P1 1_555 1_555
C3 P1 1_555 1_555
C4 H2 1_555 1_555
C5 C3 1_555 1_555
H3 C5 1_555 1_555
C6 C1 1_555 1_555
H4 C6 1_555 1_555
C7 H5 1_555 1_555
H6 C7 1_555 1_555
C8 C2 1_555 1_555
H7 C8 1_555 1_555
H8 C8 1_555 1_555
H9 C8 1_555 1_555
C9 C13 1_555 1_555
C10 C5 1_555 1_555
H10 C10 1_555 1_555
C11 C1 1_555 1_555
H11 C11 1_555 1_555
C12 C3 1_555 1_555
H12 C12 1_555 1_555
C13 C6 1_555 1_555
H13 C13 1_555 1_555
C14 C9 1_555 1_555
H14 C14 1_555 1_555
C15 C12 1_555 1_555
H15 C15 1_555 1_555
C16 C10 1_555 1_555
H16 C16 1_555 1_555
C17 C4 1_555 1_555
H17 C17 1_555 1_555
H18 C17 1_555 1_555
C18 C4 1_555 1_555
H19 C18 1_555 1_555
H20 C18 1_555 1_555
C19 C7 1_555 1_555
H21 C19 1_555 1_555
H22 C19 1_555 1_555
C20 C7 1_555 1_555
H23 C20 1_555 1_555
H24 C20 1_555 1_555
O3 P1 1_555 1_555
O2 C2 1_555 1_555
C11 C14 1_555 1_555
C15 C16 1_555 1_555
C17 C20 1_555 1_555
C18 C19 1_555 1_555

#END
