
#######################################################################
#
#                 Cambridge Crystallographic Data Centre
#                                CCDC 
#
#######################################################################
#
# If this CIF has been generated from an entry in the Cambridge 
# Structural Database, then it will include bibliographic, chemical, 
# crystal, experimental, refinement or atomic coordinate data resulting 
# from the CCDC's data processing and validation procedures.
#
#######################################################################

data_JOQNOU
_chemical_formula_moiety         'C30 H37 O3 P1'
_chemical_name_systematic        
'2-Isopropyl-5-methylcyclohexyl (1-(biphenyl-4-yl)-1-hydroxyethyl)phenylphosphinate'
_symmetry_cell_setting           monoclinic
_symmetry_space_group_name_H-M   'C 2'
_symmetry_Int_Tables_number      5
_space_group_name_Hall           'C 2y'
loop_
_symmetry_equiv_pos_site_id
_symmetry_equiv_pos_as_xyz
1 x,y,z
2 -x,y,-z
3 1/2+x,1/2+y,z
4 1/2-x,1/2+y,-z
_cell_length_a                   24.450(4)
_cell_length_b                   5.8577(7)
_cell_length_c                   20.328(3)
_cell_angle_alpha                90
_cell_angle_beta                 114.063(17)
_cell_angle_gamma                90
_cell_volume                     2658.39
_cell_formula_units_Z            4
loop_
_atom_site_label
_atom_site_type_symbol
_atom_site_fract_x
_atom_site_fract_y
_atom_site_fract_z
P1 P 0.61315(7) 0.2107(3) 0.73801(8)
O1 O 0.59543(19) -0.1678(7) 0.6562(2)
H1 H 0.5897 -0.2396 0.6874
O2 O 0.59650(17) 0.4548(7) 0.7370(2)
O3 O 0.59782(15) 0.0578(6) 0.79243(19)
C1 C 0.6916(2) 0.1785(11) 0.7604(3)
C2 C 0.5724(2) 0.0593(10) 0.6521(3)
C3 C 0.3205(2) 0.1113(10) 0.6036(3)
C4 C 0.3839(2) 0.0959(11) 0.6146(3)
C5 C 0.5058(2) 0.0654(10) 0.6358(3)
C6 C 0.2208(3) -0.0474(11) 0.5629(3)
H2 H 0.1945 -0.1668 0.5413
C7 C 0.7230(2) -0.0195(10) 0.7923(3)
H3 H 0.7030 -0.1394 0.8029
C8 C 0.4763(3) -0.1167(10) 0.6507(3)
H4 H 0.4972 -0.2513 0.6689
C9 C 0.7821(3) 0.3336(13) 0.7593(3)
H5 H 0.8018 0.4524 0.7475
C10 C 0.7217(2) 0.3538(11) 0.7442(3)
H6 H 0.7013 0.4867 0.7231
C11 C 0.4128(2) 0.2779(9) 0.5991(3)
H7 H 0.3917 0.4121 0.5809
C12 C 0.4728(2) 0.2646(9) 0.6101(3)
H8 H 0.4911 0.3909 0.6000
C13 C 0.5863(2) 0.1744(11) 0.5929(3)
H9 H 0.5623 0.1063 0.5472
H10 H 0.6280 0.1544 0.6030
H11 H 0.5774 0.3344 0.5914
C14 C 0.4168(3) -0.1025(10) 0.6392(3)
H12 H 0.3982 -0.2298 0.6482
C15 C 0.4932(2) 0.2293(11) 0.8151(3)
H13 H 0.4926 0.1874 0.7682
C16 C 0.2004(3) 0.1454(12) 0.5848(3)
H14 H 0.1604 0.1571 0.5778
C17 C 0.5467(2) 0.1107(10) 0.8713(3)
H15 H 0.5372 -0.0526 0.8659
C18 C 0.2799(2) -0.0643(10) 0.5728(3)
H16 H 0.2930 -0.1968 0.5585
C19 C 0.7841(3) -0.0396(12) 0.8087(3)
H17 H 0.8051 -0.1705 0.8308
C20 C 0.2400(3) 0.3206(12) 0.6173(3)
H18 H 0.2270 0.4495 0.6334
C21 C 0.2993(3) 0.3057(11) 0.6260(3)
H19 H 0.3254 0.4263 0.6471
C22 C 0.6056(2) 0.1356(10) 0.8634(3)
H20 H 0.6166 0.2976 0.8680
C23 C 0.8131(3) 0.1420(13) 0.7911(4)
H21 H 0.8537 0.1313 0.8012
C24 C 0.6559(3) 0.0040(11) 0.9188(3)
H22 H 0.6925 0.0333 0.9123
H23 H 0.6473 -0.1579 0.9113
C25 C 0.6086(3) 0.0359(14) 1.0047(3)
H24 H 0.6143 0.0848 1.0527
H25 H 0.5981 -0.1248 1.0001
C26 C 0.5573(3) 0.1710(14) 0.9493(3)
H26 H 0.5660 0.3328 0.9571
H27 H 0.5209 0.1410 0.9561
C27 C 0.6659(3) 0.0662(14) 0.9959(3)
H28 H 0.6772 0.2276 1.0037
C28 C 0.4337(3) 0.1485(12) 0.8152(4)
H29 H 0.4306 0.2002 0.8584
H30 H 0.4321 -0.0152 0.8134
H31 H 0.4012 0.2099 0.7740
C29 C 0.4964(3) 0.4911(11) 0.8195(4)
H32 H 0.5343 0.5414 0.8210
H33 H 0.4922 0.5408 0.8622
H34 H 0.4646 0.5547 0.7779
C30 C 0.7177(3) -0.0768(15) 1.0505(3)
H35 H 0.7083 -0.2362 1.0422
H36 H 0.7229 -0.0379 1.0986
H37 H 0.7539 -0.0450 1.0446
loop_
_geom_bond_atom_site_label_1
_geom_bond_atom_site_label_2
_geom_bond_site_symmetry_1
_geom_bond_site_symmetry_2
P1 O2 1_555 1_555
O1 H1 1_555 1_555
O3 P1 1_555 1_555
C1 P1 1_555 1_555
C2 P1 1_555 1_555
C3 C4 1_555 1_555
C4 C11 1_555 1_555
C5 C2 1_555 1_555
C6 H2 1_555 1_555
C7 C1 1_555 1_555
H3 C7 1_555 1_555
C8 C5 1_555 1_555
H4 C8 1_555 1_555
C9 H5 1_555 1_555
C10 C1 1_555 1_555
H6 C10 1_555 1_555
C11 H7 1_555 1_555
C12 C5 1_555 1_555
H8 C12 1_555 1_555
C13 C2 1_555 1_555
H9 C13 1_555 1_555
H10 C13 1_555 1_555
H11 C13 1_555 1_555
C14 C4 1_555 1_555
H12 C14 1_555 1_555
C15 H13 1_555 1_555
C16 C6 1_555 1_555
H14 C16 1_555 1_555
C17 C15 1_555 1_555
H15 C17 1_555 1_555
C18 C3 1_555 1_555
H16 C18 1_555 1_555
C19 C7 1_555 1_555
H17 C19 1_555 1_555
C20 C16 1_555 1_555
H18 C20 1_555 1_555
C21 C3 1_555 1_555
H19 C21 1_555 1_555
C22 O3 1_555 1_555
H20 C22 1_555 1_555
C23 C9 1_555 1_555
H21 C23 1_555 1_555
C24 C22 1_555 1_555
H22 C24 1_555 1_555
H23 C24 1_555 1_555
C25 H24 1_555 1_555
H25 C25 1_555 1_555
C26 C17 1_555 1_555
H26 C26 1_555 1_555
H27 C26 1_555 1_555
C27 C24 1_555 1_555
H28 C27 1_555 1_555
C28 C15 1_555 1_555
H29 C28 1_555 1_555
H30 C28 1_555 1_555
H31 C28 1_555 1_555
C29 C15 1_555 1_555
H32 C29 1_555 1_555
H33 C29 1_555 1_555
H34 C29 1_555 1_555
C30 C27 1_555 1_555
H35 C30 1_555 1_555
H36 C30 1_555 1_555
H37 C30 1_555 1_555
O1 C2 1_555 1_555
C6 C18 1_555 1_555
C8 C14 1_555 1_555
C9 C10 1_555 1_555
C11 C12 1_555 1_555
C17 C22 1_555 1_555
C19 C23 1_555 1_555
C20 C21 1_555 1_555
C25 C26 1_555 1_555
C25 C27 1_555 1_555

#END
