
#######################################################################
#
#                 Cambridge Crystallographic Data Centre
#                                CCDC 
#
#######################################################################
#
# If this CIF has been generated from an entry in the Cambridge 
# Structural Database, then it will include bibliographic, chemical, 
# crystal, experimental, refinement or atomic coordinate data resulting 
# from the CCDC's data processing and validation procedures.
#
#######################################################################

data_JOQQOX
_chemical_formula_moiety         'C25 H23 N1 O6'
_chemical_name_systematic        
"Benzyl ethyl 2,2'-(3-(2-oxo-2,3-dihydro-1H-indol-3-yl)dihydrofuran-2,5-diylidene)diacetate"
_symmetry_cell_setting           triclinic
_symmetry_space_group_name_H-M   'P -1'
_symmetry_Int_Tables_number      2
_space_group_name_Hall           '-P 1'
loop_
_symmetry_equiv_pos_site_id
_symmetry_equiv_pos_as_xyz
1 x,y,z
2 -x,-y,-z
_cell_length_a                   9.5427(19)
_cell_length_b                   9.677(2)
_cell_length_c                   11.933(2)
_cell_angle_alpha                93.455(4)
_cell_angle_beta                 99.378(4)
_cell_angle_gamma                97.885(4)
_cell_volume                     1073.09
_exptl_crystal_colour            colorless
_exptl_crystal_description       block
_cell_formula_units_Z            2
loop_
_atom_site_label
_atom_site_type_symbol
_atom_site_fract_x
_atom_site_fract_y
_atom_site_fract_z
O1 O 0.2645(2) -0.08721(18) 0.86411(15)
O2 O 0.3585(2) -0.13161(19) 0.70704(16)
O3 O -0.09844(19) 0.33569(19) 0.51180(15)
O4 O -0.11876(18) 0.40918(18) 0.33491(14)
O5 O 0.45125(19) 0.31767(18) 0.53035(14)
O6 O 0.10302(18) 0.15134(18) 0.55293(14)
N1 N 0.4085(2) 0.4073(2) 0.35571(17)
H1 H 0.4413 0.4959 0.3777
C1 C 0.3036(3) -0.2116(3) 1.0314(2)
C2 C 0.4062(3) -0.1795(3) 1.1297(2)
H2 H 0.5021 -0.1426 1.1242
C3 C 0.3698(4) -0.2008(3) 1.2358(2)
H3 H 0.4407 -0.1791 1.3026
C4 C 0.2313(4) -0.2533(3) 1.2441(3)
H4 H 0.2060 -0.2674 1.3167
C5 C 0.1274(4) -0.2860(4) 1.1458(3)
H5 H 0.0315 -0.3224 1.1516
C6 C 0.1641(3) -0.2653(3) 1.0401(2)
H6 H 0.0934 -0.2880 0.9732
C7 C 0.3455(3) -0.1909(3) 0.9169(2)
H7 H 0.4499 -0.1577 0.9258
H8 H 0.3233 -0.2805 0.8684
C8 C 0.2814(3) -0.0686(3) 0.7557(2)
C9 C 0.1946(3) 0.0326(3) 0.7068(2)
H9 H 0.1388 0.0785 0.7521
C10 C 0.1930(3) 0.0613(2) 0.5987(2)
C11 C 0.1169(3) 0.1710(2) 0.4414(2)
C12 C 0.2214(3) 0.0813(2) 0.4042(2)
H10 H 0.1676 0.0080 0.3441
C13 C 0.2731(3) 0.0096(3) 0.5114(2)
H11 H 0.2506 -0.0935 0.4968
H12 H 0.3780 0.0359 0.5366
C14 C 0.0435(3) 0.2564(3) 0.3802(2)
H13 H 0.0614 0.2669 0.3049
C15 C -0.0625(3) 0.3355(3) 0.4191(2)
C16 C -0.2293(3) 0.4878(3) 0.3635(2)
H14 H -0.1920 0.5508 0.4336
H15 H -0.3137 0.4232 0.3766
C17 C -0.2705(3) 0.5716(3) 0.2647(2)
H16 H -0.1847 0.6301 0.2491
H17 H -0.3399 0.6313 0.2834
H18 H -0.3138 0.5079 0.1973
C18 C 0.3437(3) 0.1652(2) 0.3558(2)
H19 H 0.4219 0.1063 0.3547
C19 C 0.3056(3) 0.2121(2) 0.2385(2)
C20 C 0.2419(3) 0.1372(3) 0.1361(2)
H20 H 0.2108 0.0393 0.1328
C21 C 0.2246(3) 0.2086(3) 0.0383(2)
H21 H 0.1813 0.1590 -0.0328
C22 C 0.2702(3) 0.3517(3) 0.0438(2)
H22 H 0.2571 0.3986 -0.0240
C23 C 0.3347(3) 0.4286(3) 0.1462(2)
H23 H 0.3667 0.5264 0.1495
C24 C 0.3501(3) 0.3562(3) 0.2425(2)
C25 C 0.4080(3) 0.3030(2) 0.4268(2)
loop_
_geom_bond_atom_site_label_1
_geom_bond_atom_site_label_2
_geom_bond_site_symmetry_1
_geom_bond_site_symmetry_2
O1 C7 1_555 1_555
O2 C8 1_555 1_555
O3 C15 1_555 1_555
O4 C15 1_555 1_555
O5 C25 1_555 1_555
O6 C10 1_555 1_555
N1 H1 1_555 1_555
C1 C2 1_555 1_555
C2 H2 1_555 1_555
C3 C2 1_555 1_555
H3 C3 1_555 1_555
C4 C3 1_555 1_555
H4 C4 1_555 1_555
C5 C4 1_555 1_555
H5 C5 1_555 1_555
C6 C1 1_555 1_555
H6 C6 1_555 1_555
C7 C1 1_555 1_555
H7 C7 1_555 1_555
H8 C7 1_555 1_555
C8 O1 1_555 1_555
C9 C8 1_555 1_555
H9 C9 1_555 1_555
C10 C9 1_555 1_555
C11 O6 1_555 1_555
C12 C11 1_555 1_555
H10 C12 1_555 1_555
C13 C10 1_555 1_555
H11 C13 1_555 1_555
H12 C13 1_555 1_555
C14 C11 1_555 1_555
H13 C14 1_555 1_555
C15 C14 1_555 1_555
C16 O4 1_555 1_555
H14 C16 1_555 1_555
H15 C16 1_555 1_555
C17 C16 1_555 1_555
H16 C17 1_555 1_555
H17 C17 1_555 1_555
H18 C17 1_555 1_555
C18 C12 1_555 1_555
H19 C18 1_555 1_555
C19 C18 1_555 1_555
C20 C19 1_555 1_555
H20 C20 1_555 1_555
C21 C20 1_555 1_555
H21 C21 1_555 1_555
C22 C21 1_555 1_555
H22 C22 1_555 1_555
C23 C22 1_555 1_555
H23 C23 1_555 1_555
C24 N1 1_555 1_555
C25 N1 1_555 1_555
C5 C6 1_555 1_555
C12 C13 1_555 1_555
C18 C25 1_555 1_555
C19 C24 1_555 1_555
C23 C24 1_555 1_555

#END
