
#######################################################################
#
#                 Cambridge Crystallographic Data Centre
#                                CCDC 
#
#######################################################################
#
# If this CIF has been generated from an entry in the Cambridge 
# Structural Database, then it will include bibliographic, chemical, 
# crystal, experimental, refinement or atomic coordinate data resulting 
# from the CCDC's data processing and validation procedures.
#
#######################################################################

data_JORZIB
_chemical_formula_moiety         'C25 H29 N1 O7'
_chemical_name_systematic        
'Ethyl (2-(((t-butoxycarbonyl)amino)(4-methoxyphenyl)methyl)-3-oxo-2,3-dihydro-1-benzofuran-2-yl)acetate'
_symmetry_cell_setting           monoclinic
_symmetry_space_group_name_H-M   'P 21/c'
_symmetry_Int_Tables_number      14
_space_group_name_Hall           '-P 2ybc'
loop_
_symmetry_equiv_pos_site_id
_symmetry_equiv_pos_as_xyz
1 x,y,z
2 -x,1/2+y,1/2-z
3 -x,-y,-z
4 x,1/2-y,1/2+z
_cell_length_a                   11.204(2)
_cell_length_b                   21.285(4)
_cell_length_c                   10.440(2)
_cell_angle_alpha                90
_cell_angle_beta                 110.968(3)
_cell_angle_gamma                90
_cell_volume                     2324.83
_exptl_crystal_colour            colorless
_exptl_crystal_description       block
_cell_formula_units_Z            4
loop_
_atom_site_label
_atom_site_type_symbol
_atom_site_fract_x
_atom_site_fract_y
_atom_site_fract_z
C1 C 0.49938(15) 0.95818(7) 0.33590(15)
H1 H 0.5435 0.9653 0.2713
H2 H 0.4618 0.9977 0.3515
H3 H 0.4316 0.9270 0.2977
C2 C 0.65596(13) 0.88248(6) 0.45917(14)
C3 C 0.74989(13) 0.86515(7) 0.58291(14)
H4 H 0.7627 0.8896 0.6629
C4 C 0.82452(13) 0.81263(6) 0.59018(14)
H5 H 0.8883 0.8013 0.6752
C5 C 0.80728(13) 0.77603(6) 0.47388(13)
C6 C 0.71370(13) 0.79416(6) 0.35163(14)
H6 H 0.7009 0.7699 0.2715
C7 C 0.63794(13) 0.84693(6) 0.34285(14)
H7 H 0.5744 0.8584 0.2578
C8 C 0.89448(12) 0.72127(6) 0.47647(13)
H8 H 0.8867 0.7140 0.3792
C9 C 1.10895(12) 0.74716(6) 0.48353(13)
C10 C 1.33272(13) 0.77389(7) 0.52997(14)
C11 C 1.31088(14) 0.81647(7) 0.40709(16)
H9 H 1.2487 0.7970 0.3253
H10 H 1.3918 0.8228 0.3928
H11 H 1.2780 0.8571 0.4238
C12 C 1.43236(14) 0.80222(8) 0.65658(16)
H12 H 1.4031 0.8435 0.6749
H13 H 1.5132 0.8069 0.6412
H14 H 1.4451 0.7745 0.7354
C13 C 1.36897(15) 0.70765(7) 0.50475(17)
H15 H 1.3716 0.6807 0.5818
H16 H 1.4533 0.7081 0.4962
H17 H 1.3054 0.6913 0.4199
C14 C 0.85894(13) 0.65879(6) 0.52783(13)
C15 C 0.95682(13) 0.60849(6) 0.52413(14)
C16 C 1.01584(13) 0.58671(6) 0.66523(14)
C17 C 1.10631(13) 0.54009(6) 0.72506(15)
H18 H 1.1450 0.5171 0.6722
C18 C 1.13772(14) 0.52844(7) 0.86306(16)
H19 H 1.2003 0.4976 0.9069
C19 C 1.07817(14) 0.56168(7) 0.93886(15)
H20 H 1.1000 0.5521 1.0334
C20 C 0.98842(13) 0.60802(7) 0.88102(14)
H21 H 0.9485 0.6305 0.9333
C21 C 0.96001(12) 0.61980(6) 0.74332(14)
C22 C 0.72072(13) 0.64047(7) 0.44587(14)
H22 H 0.6642 0.6757 0.4492
H23 H 0.7115 0.6343 0.3488
C23 C 0.67625(13) 0.58172(7) 0.49616(14)
C24 C 0.71125(15) 0.47128(7) 0.53119(15)
H24 H 0.7364 0.4364 0.4833
H25 H 0.6179 0.4686 0.5096
C25 C 0.77959(15) 0.46453(8) 0.68337(16)
H26 H 0.8721 0.4672 0.7049
H27 H 0.7587 0.4237 0.7134
H28 H 0.7526 0.4982 0.7310
N1 N 1.02843(10) 0.73600(5) 0.55183(11)
H29 H 1.0572 0.7376 0.6420
O1 O 0.58863(10) 0.93569(5) 0.46293(10)
O2 O 1.08375(9) 0.73672(5) 0.36203(9)
O3 O 1.21924(9) 0.77097(5) 0.57016(10)
O4 O 0.97561(9) 0.59357(5) 0.42088(10)
O5 O 0.87235(9) 0.66402(4) 0.67083(9)
O6 O 0.74185(9) 0.53129(4) 0.48213(10)
O7 O 0.59167(10) 0.58024(5) 0.54149(11)
loop_
_geom_bond_atom_site_label_1
_geom_bond_atom_site_label_2
_geom_bond_site_symmetry_1
_geom_bond_site_symmetry_2
C1 H1 1_555 1_555
H2 C1 1_555 1_555
H3 C1 1_555 1_555
C2 C3 1_555 1_555
C3 H4 1_555 1_555
C4 C3 1_555 1_555
H5 C4 1_555 1_555
C5 C4 1_555 1_555
C6 C5 1_555 1_555
H6 C6 1_555 1_555
C7 C2 1_555 1_555
H7 C7 1_555 1_555
C8 C5 1_555 1_555
H8 C8 1_555 1_555
C9 N1 1_555 1_555
C10 C11 1_555 1_555
C11 H9 1_555 1_555
H10 C11 1_555 1_555
H11 C11 1_555 1_555
C12 C10 1_555 1_555
H12 C12 1_555 1_555
H13 C12 1_555 1_555
H14 C12 1_555 1_555
C13 C10 1_555 1_555
H15 C13 1_555 1_555
H16 C13 1_555 1_555
H17 C13 1_555 1_555
C14 C8 1_555 1_555
C15 C14 1_555 1_555
C16 C15 1_555 1_555
C17 C16 1_555 1_555
H18 C17 1_555 1_555
C18 C17 1_555 1_555
H19 C18 1_555 1_555
C19 C18 1_555 1_555
H20 C19 1_555 1_555
C20 C19 1_555 1_555
H21 C20 1_555 1_555
C21 C16 1_555 1_555
C22 C14 1_555 1_555
H22 C22 1_555 1_555
H23 C22 1_555 1_555
C23 C22 1_555 1_555
C24 H24 1_555 1_555
H25 C24 1_555 1_555
C25 C24 1_555 1_555
H26 C25 1_555 1_555
H27 C25 1_555 1_555
H28 C25 1_555 1_555
N1 C8 1_555 1_555
H29 N1 1_555 1_555
O1 C1 1_555 1_555
O2 C9 1_555 1_555
O3 C9 1_555 1_555
O4 C15 1_555 1_555
O5 C14 1_555 1_555
O6 C23 1_555 1_555
O7 C23 1_555 1_555
C2 O1 1_555 1_555
C6 C7 1_555 1_555
C10 O3 1_555 1_555
C20 C21 1_555 1_555
C21 O5 1_555 1_555
C24 O6 1_555 1_555

#END
