
#######################################################################
#
#                 Cambridge Crystallographic Data Centre
#                                CCDC 
#
#######################################################################
#
# If this CIF has been generated from an entry in the Cambridge 
# Structural Database, then it will include bibliographic, chemical, 
# crystal, experimental, refinement or atomic coordinate data resulting 
# from the CCDC's data processing and validation procedures.
#
#######################################################################

data_JOSHOQ
_chemical_formula_moiety         'C17 H12 N2 O2'
_chemical_name_systematic        
10-phenylimidazo[1,2-b]isoquinoline-2,5(1H,3H)-dione
_symmetry_cell_setting           triclinic
_symmetry_space_group_name_H-M   'P -1'
_symmetry_Int_Tables_number      2
_space_group_name_Hall           '-P 1'
loop_
_symmetry_equiv_pos_site_id
_symmetry_equiv_pos_as_xyz
1 x,y,z
2 -x,-y,-z
_cell_length_a                   7.1356(11)
_cell_length_b                   8.3675(13)
_cell_length_c                   10.9809(16)
_cell_angle_alpha                83.493(4)
_cell_angle_beta                 88.238(5)
_cell_angle_gamma                86.567(4)
_cell_volume                     650.056
_exptl_crystal_colour            colorless
_exptl_crystal_description       prism
_cell_formula_units_Z            2
loop_
_atom_site_label
_atom_site_type_symbol
_atom_site_fract_x
_atom_site_fract_y
_atom_site_fract_z
C1 C 0.1985(2) 0.5900(2) 0.54541(18)
C2 C 0.1825(2) 0.6849(2) 0.42549(17)
C3 C 0.1253(3) 0.8478(2) 0.42162(19)
H1 H 0.0986 0.8934 0.4961
C4 C 0.1069(3) 0.9434(2) 0.31188(19)
H2 H 0.0664 1.0538 0.3098
C5 C 0.1489(3) 0.8750(2) 0.20379(19)
H3 H 0.1378 0.9404 0.1275
C6 C 0.2060(3) 0.7149(2) 0.20488(17)
H4 H 0.2336 0.6717 0.1295
C7 C 0.2242(2) 0.6138(2) 0.31639(16)
C8 C 0.2886(2) 0.4453(2) 0.32025(17)
C9 C 0.3207(3) 0.3638(2) 0.20710(17)
C10 C 0.1739(3) 0.3575(2) 0.12737(18)
H5 H 0.0530 0.4039 0.1459
C11 C 0.2038(3) 0.2838(3) 0.02103(19)
H6 H 0.1040 0.2826 -0.0341
C12 C 0.3772(3) 0.2120(2) -0.00536(19)
H7 H 0.3968 0.1611 -0.0781
C13 C 0.5213(3) 0.2146(2) 0.07454(19)
H8 H 0.6400 0.1633 0.0576
C14 C 0.4949(3) 0.2915(2) 0.17955(18)
H9 H 0.5965 0.2949 0.2330
C15 C 0.3134(2) 0.3653(2) 0.43338(17)
C16 C 0.3719(3) 0.1695(2) 0.59338(18)
C17 C 0.2980(3) 0.3182(2) 0.64827(16)
H10 H 0.1781 0.2998 0.6940
H11 H 0.3900 0.3538 0.7038
N1 N 0.2709(2) 0.43465(18) 0.54051(13)
N2 N 0.3747(2) 0.20626(18) 0.46893(14)
H12 H 0.4245 0.1274 0.4169
O1 O 0.15601(18) 0.63845(16) 0.64484(12)
O2 O 0.42148(19) 0.04048(16) 0.64937(12)
loop_
_geom_bond_atom_site_label_1
_geom_bond_atom_site_label_2
_geom_bond_site_symmetry_1
_geom_bond_site_symmetry_2
C1 C2 1_555 1_555
C2 C3 1_555 1_555
C3 H1 1_555 1_555
C4 C3 1_555 1_555
H2 C4 1_555 1_555
C5 C4 1_555 1_555
H3 C5 1_555 1_555
C6 C5 1_555 1_555
H4 C6 1_555 1_555
C7 C2 1_555 1_555
C8 C7 1_555 1_555
C9 C8 1_555 1_555
C10 C9 1_555 1_555
H5 C10 1_555 1_555
C11 C10 1_555 1_555
H6 C11 1_555 1_555
C12 C11 1_555 1_555
H7 C12 1_555 1_555
C13 C12 1_555 1_555
H8 C13 1_555 1_555
C14 C9 1_555 1_555
H9 C14 1_555 1_555
C15 C8 1_555 1_555
C16 C17 1_555 1_555
C17 H10 1_555 1_555
H11 C17 1_555 1_555
N1 C1 1_555 1_555
N2 C15 1_555 1_555
H12 N2 1_555 1_555
O1 C1 1_555 1_555
O2 C16 1_555 1_555
C6 C7 1_555 1_555
C13 C14 1_555 1_555
C15 N1 1_555 1_555
C16 N2 1_555 1_555
C17 N1 1_555 1_555

#END
