
#######################################################################
#
#                 Cambridge Crystallographic Data Centre
#                                CCDC 
#
#######################################################################
#
# If this CIF has been generated from an entry in the Cambridge 
# Structural Database, then it will include bibliographic, chemical, 
# crystal, experimental, refinement or atomic coordinate data resulting 
# from the CCDC's data processing and validation procedures.
#
#######################################################################

data_JOSHAC
_chemical_formula_moiety         'C19 H12 Cl1 N3'
_chemical_name_systematic        
7-chloro-10H-dibenzo[2,3:5,6][1,4]diazepino[1,7-a]benzimidazole
_symmetry_cell_setting           monoclinic
_symmetry_space_group_name_H-M   'C 2/c'
_symmetry_Int_Tables_number      15
_space_group_name_Hall           '-C 2yn'
loop_
_symmetry_equiv_pos_site_id
_symmetry_equiv_pos_as_xyz
1 x,y,z
2 -x,y,1/2-z
3 1/2+x,1/2+y,z
4 1/2-x,1/2+y,1/2-z
5 -x,-y,-z
6 x,-y,1/2+z
7 1/2-x,1/2-y,-z
8 1/2+x,1/2-y,1/2+z
_cell_length_a                   16.3952(7)
_cell_length_b                   9.7990(4)
_cell_length_c                   19.2289(8)
_cell_angle_alpha                90
_cell_angle_beta                 106.491(2)
_cell_angle_gamma                90
_cell_volume                     2962.17
_exptl_crystal_colour            colorless
_exptl_crystal_description       prism
_cell_formula_units_Z            8
loop_
_atom_site_label
_atom_site_type_symbol
_atom_site_fract_x
_atom_site_fract_y
_atom_site_fract_z
C1 C 0.94072(12) 1.1826(2) 0.15296(10)
C2 C 0.89367(13) 1.2497(2) 0.19163(10)
H1 H 0.8962 1.3463 0.1964
C3 C 0.84298(12) 1.17376(19) 0.22325(9)
H2 H 0.8119 1.2186 0.2514
C4 C 0.83638(11) 1.03271(18) 0.21481(9)
C5 C 0.88217(11) 0.96852(18) 0.17297(9)
C6 C 0.93621(11) 1.0426(2) 0.14334(9)
H3 H 0.9695 0.9981 0.1170
C7 C 0.83441(11) 0.86632(18) 0.30459(9)
C8 C 0.83834(13) 0.8868(2) 0.37685(10)
H4 H 0.8090 0.9615 0.3902
C9 C 0.88498(14) 0.7986(2) 0.42970(11)
H5 H 0.8871 0.8128 0.4791
C10 C 0.92844(13) 0.6903(2) 0.41101(11)
H6 H 0.9616 0.6318 0.4476
C11 C 0.92375(12) 0.6671(2) 0.33913(10)
H7 H 0.9526 0.5914 0.3263
C12 C 0.87662(11) 0.75498(18) 0.28526(9)
C13 C 0.86801(11) 0.72516(18) 0.20874(9)
C14 C 0.86229(11) 0.75980(19) 0.09312(10)
C15 C 0.85755(12) 0.8081(2) 0.02409(10)
H8 H 0.8646 0.9021 0.0152
C16 C 0.84203(13) 0.7127(2) -0.03068(11)
H9 H 0.8375 0.7418 -0.0788
C17 C 0.83281(13) 0.5740(2) -0.01746(11)
H10 H 0.8225 0.5113 -0.0567
C18 C 0.83830(13) 0.5263(2) 0.05105(11)
H11 H 0.8325 0.4318 0.0597
C19 C 0.85272(12) 0.62148(19) 0.10746(10)
N1 N 0.78602(10) 0.95426(15) 0.24915(8)
H12 H 0.7497 1.0088 0.2677
N2 N 0.87198(9) 0.82528(15) 0.15936(8)
N3 N 0.85656(10) 0.60235(16) 0.17993(8)
Cl1 Cl 1.00847(3) 1.27582(6) 0.11581(3)
loop_
_geom_bond_atom_site_label_1
_geom_bond_atom_site_label_2
_geom_bond_site_symmetry_1
_geom_bond_site_symmetry_2
C1 C2 1_555 1_555
C2 H1 1_555 1_555
C3 C2 1_555 1_555
H2 C3 1_555 1_555
C4 C3 1_555 1_555
C5 C4 1_555 1_555
C6 C1 1_555 1_555
H3 C6 1_555 1_555
C7 C8 1_555 1_555
C8 H4 1_555 1_555
C9 C8 1_555 1_555
H5 C9 1_555 1_555
C10 C9 1_555 1_555
H6 C10 1_555 1_555
C11 C10 1_555 1_555
H7 C11 1_555 1_555
C12 C7 1_555 1_555
C13 C12 1_555 1_555
C14 C15 1_555 1_555
C15 H8 1_555 1_555
C16 C15 1_555 1_555
H9 C16 1_555 1_555
C17 C16 1_555 1_555
H10 C17 1_555 1_555
C18 C17 1_555 1_555
H11 C18 1_555 1_555
C19 C14 1_555 1_555
N1 C4 1_555 1_555
H12 N1 1_555 1_555
N2 C5 1_555 1_555
N3 C13 1_555 1_555
Cl1 C1 1_555 1_555
C5 C6 1_555 1_555
C7 N1 1_555 1_555
C11 C12 1_555 1_555
C13 N2 1_555 1_555
C14 N2 1_555 1_555
C18 C19 1_555 1_555
C19 N3 1_555 1_555

#END
