
#######################################################################
#
#                 Cambridge Crystallographic Data Centre
#                                CCDC 
#
#######################################################################
#
# If this CIF has been generated from an entry in the Cambridge 
# Structural Database, then it will include bibliographic, chemical, 
# crystal, experimental, refinement or atomic coordinate data resulting 
# from the CCDC's data processing and validation procedures.
#
#######################################################################

data_JOSKAD
_chemical_formula_moiety         'C22 H20 S8'
_chemical_name_systematic        
trans-tetrakis(3-Methylthiolato-2-thienyl)ethylene
_symmetry_cell_setting           triclinic
_symmetry_space_group_name_H-M   'P -1'
_symmetry_Int_Tables_number      2
_space_group_name_Hall           '-P 1'
loop_
_symmetry_equiv_pos_site_id
_symmetry_equiv_pos_as_xyz
1 x,y,z
2 -x,-y,-z
_cell_length_a                   9.581(2)
_cell_length_b                   10.887(1)
_cell_length_c                   6.031(1)
_cell_angle_alpha                93.39(1)
_cell_angle_beta                 93.78(2)
_cell_angle_gamma                81.14(1)
_cell_volume                     619.459
_exptl_crystal_colour            yellow
_chemical_melting_point          98.5-99.5deg.C
_cell_formula_units_Z            1
loop_
_atom_site_label
_atom_site_type_symbol
_atom_site_fract_x
_atom_site_fract_y
_atom_site_fract_z
S1 S 0.6938(1) 0.7109(1) 0.6112(2)
S2 S 0.2574(1) 0.5437(1) 0.8118(2)
S3 S 0.8433(2) 0.9168(1) 0.4632(2)
S4 S 0.0017(1) 0.6895(1) 1.0371(2)
C1 C 0.5628(4) 0.6545(3) 0.4421(6)
C2 C 0.5393(5) 0.7153(4) 0.2508(6)
C3 C 0.6250(5) 0.8095(4) 0.2376(7)
C4 C 0.7136(5) 0.8192(3) 0.4215(7)
C5 C 0.3661(4) 0.6194(3) 0.6637(6)
C6 C 0.3226(5) 0.7464(4) 0.6851(7)
C7 C 0.2046(5) 0.7817(4) 0.8133(7)
C8 C 0.1564(4) 0.6833(4) 0.8938(6)
C9 C 0.4827(4) 0.5617(3) 0.5275(6)
C10 C 0.7991(7) 0.9974(5) 0.7220(9)
C11 C 0.0655(5) 0.6153(5) 1.2883(7)
H1 H 0.473(5) 0.703(4) 0.149(7)
H2 H 0.621(5) 0.868(4) 0.111(7)
H3 H 0.366(5) 0.818(4) 0.620(7)
H4 H 0.158(5) 0.872(4) 0.833(7)
H5 H 0.819(5) 0.946(4) 0.843(8)
H6 H 0.706(5) 1.040(4) 0.726(8)
H7 H 0.862(6) 1.055(5) 0.755(9)
H8 H 0.125(6) 0.672(5) 1.361(8)
H9 H -0.015(6) 0.617(5) 1.377(8)
H10 H 0.109(6) 0.538(5) 1.268(9)
C9A C 0.5173(4) 0.4383(3) 0.4725(6)
C1A C 0.4372(4) 0.3455(3) 0.5579(6)
C5A C 0.6339(4) 0.3806(3) 0.3363(6)
S1A S 0.3062(1) 0.2891(1) 0.3888(2)
C2A C 0.4607(5) 0.2847(4) 0.7492(6)
S2A S 0.7426(1) 0.4563(1) 0.1882(2)
C6A C 0.6774(5) 0.2536(4) 0.3149(7)
C4A C 0.2864(5) 0.1808(3) 0.5785(7)
C3A C 0.3750(5) 0.1905(4) 0.7624(7)
H1A H 0.527(5) 0.297(4) 0.851(7)
C8A C 0.8436(4) 0.3167(4) 0.1062(6)
C7A C 0.7954(5) 0.2183(4) 0.1867(7)
H3A H 0.634(5) 0.182(4) 0.380(7)
S3A S 0.1567(2) 0.0832(1) 0.5368(2)
H2A H 0.379(5) 0.132(4) 0.889(7)
S4A S 0.9983(1) 0.3105(1) -0.0371(2)
H4A H 0.842(5) 0.128(4) 0.167(7)
C10A C 0.2009(7) 0.0026(5) 0.2780(9)
C11A C 0.9345(5) 0.3847(5) -0.2883(7)
H5A H 0.181(5) 0.054(4) 0.157(8)
H6A H 0.294(5) -0.040(4) 0.274(8)
H7A H 0.138(6) -0.055(5) 0.245(9)
H8A H 0.875(6) 0.328(5) -0.361(8)
H9A H 1.015(6) 0.383(5) -0.377(8)
H10A H 0.891(6) 0.462(5) -0.268(9)
loop_
_geom_bond_atom_site_label_1
_geom_bond_atom_site_label_2
_geom_bond_site_symmetry_1
_geom_bond_site_symmetry_2
S1 C1 1_555 1_555
S2 C5 1_555 1_555
S3 C4 1_555 1_555
S4 C8 1_555 1_555
C1 C2 1_555 1_555
C2 C3 1_555 1_555
C3 C4 1_555 1_555
C4 S1 1_555 1_555
C5 C6 1_555 1_555
C6 C7 1_555 1_555
C7 C8 1_555 1_555
C8 S2 1_555 1_555
C9 C1 1_555 1_555
C10 S3 1_555 1_555
C11 S4 1_555 1_555
H1 C2 1_555 1_555
H2 C3 1_555 1_555
H3 C6 1_555 1_555
H4 C7 1_555 1_555
H5 C10 1_555 1_555
H6 C10 1_555 1_555
H7 C10 1_555 1_555
H8 C11 1_555 1_555
H9 C11 1_555 1_555
H10 C11 1_555 1_555
C9A C9 1_555 1_555
C1A C9A 1_555 1_555
C5A C9A 1_555 1_555
S1A C1A 1_555 1_555
C2A C1A 1_555 1_555
S2A C5A 1_555 1_555
C6A C5A 1_555 1_555
C4A S1A 1_555 1_555
C3A C2A 1_555 1_555
H1A C2A 1_555 1_555
C8A S2A 1_555 1_555
C7A C6A 1_555 1_555
H3A C6A 1_555 1_555
S3A C4A 1_555 1_555
H2A C3A 1_555 1_555
S4A C8A 1_555 1_555
H4A C7A 1_555 1_555
C10A S3A 1_555 1_555
C11A S4A 1_555 1_555
H5A C10A 1_555 1_555
H6A C10A 1_555 1_555
H7A C10A 1_555 1_555
H8A C11A 1_555 1_555
H9A C11A 1_555 1_555
H10A C11A 1_555 1_555
C5 C9 1_555 1_555
C4A C3A 1_555 1_555
C8A C7A 1_555 1_555

#END
