
#######################################################################
#
#                 Cambridge Crystallographic Data Centre
#                                CCDC 
#
#######################################################################
#
# If this CIF has been generated from an entry in the Cambridge 
# Structural Database, then it will include bibliographic, chemical, 
# crystal, experimental, refinement or atomic coordinate data resulting 
# from the CCDC's data processing and validation procedures.
#
#######################################################################

data_JOSTUI
_chemical_formula_moiety         'C18 H22 Br1 N1 O3'
_chemical_name_systematic        
'2-bromobenzyl 2-allyl-3-carbamoyl-2-methylcyclopentanecarboxylate'
_symmetry_cell_setting           orthorhombic
_symmetry_space_group_name_H-M   'P 21 21 21'
_symmetry_Int_Tables_number      19
_space_group_name_Hall           'P 2ac 2ab'
loop_
_symmetry_equiv_pos_site_id
_symmetry_equiv_pos_as_xyz
1 x,y,z
2 1/2-x,-y,1/2+z
3 -x,1/2+y,1/2-z
4 1/2+x,1/2-y,-z
_cell_length_a                   7.7276(15)
_cell_length_b                   11.584(2)
_cell_length_c                   18.968(4)
_cell_angle_alpha                90
_cell_angle_beta                 90
_cell_angle_gamma                90
_cell_volume                     1697.95
_exptl_crystal_colour            colorless
_exptl_crystal_description       block
_cell_formula_units_Z            4
loop_
_atom_site_label
_atom_site_type_symbol
_atom_site_fract_x
_atom_site_fract_y
_atom_site_fract_z
Br1 Br 1.00328(4) 0.93169(3) 0.906356(14)
O1 O 1.1712(2) 1.03887(16) 0.75941(9)
O2 O 1.3800(2) 0.99907(17) 0.67997(10)
O3 O 0.7938(2) 0.7725(2) 0.50296(12)
N1 N 0.5763(3) 0.8477(2) 0.56556(13)
H1 H 0.5038 0.7943 0.5507
H2 H 0.5406 0.9016 0.5948
C1 C 1.2297(3) 0.8729(2) 0.88941(13)
C2 C 1.2752(4) 0.7695(3) 0.92040(14)
H3 H 1.1940 0.7284 0.9484
C3 C 1.4408(4) 0.7264(3) 0.91022(16)
H4 H 1.4735 0.6552 0.9312
C4 C 1.5578(4) 0.7869(3) 0.86974(15)
H5 H 1.6714 0.7576 0.8631
C5 C 1.5103(4) 0.8894(2) 0.83898(12)
H6 H 1.5923 0.9301 0.8111
C6 C 1.3449(3) 0.9353(2) 0.84757(12)
C7 C 1.3001(3) 1.0492(2) 0.81482(13)
H7 H 1.2557 1.1017 0.8518
H8 H 1.4063 1.0842 0.7949
C8 C 1.2295(3) 1.0148(2) 0.69384(13)
C9 C 1.0813(3) 1.0181(2) 0.64178(13)
H9 H 1.0119 1.0887 0.6528
C10 C 1.1423(4) 1.0300(3) 0.56543(14)
H10 H 1.2513 0.9867 0.5580
H11 H 1.1625 1.1121 0.5535
C11 C 0.9966(4) 0.9797(2) 0.51977(12)
H12 H 0.9518 1.0386 0.4867
H13 H 1.0389 0.9128 0.4923
C12 C 0.8553(3) 0.9423(2) 0.57166(13)
H14 H 0.7801 1.0110 0.5807
C13 C 0.9530(3) 0.9141(2) 0.64202(12)
C14 C 0.8281(3) 0.9170(3) 0.70420(13)
H15 H 0.7601 0.9883 0.7026
H16 H 0.8936 0.9140 0.7484
H17 H 0.7501 0.8504 0.7016
C15 C 1.0452(3) 0.7969(2) 0.63652(14)
H18 H 0.9597 0.7386 0.6210
H19 H 1.1348 0.8025 0.5994
C16 C 1.1294(4) 0.7541(2) 0.70272(15)
H20 H 1.0592 0.7510 0.7438
C17 C 1.2881(4) 0.7211(3) 0.70944(18)
H21 H 1.3636 0.7225 0.6699
H22 H 1.3294 0.6953 0.7539
C18 C 0.7402(3) 0.8467(3) 0.54375(14)
loop_
_geom_bond_atom_site_label_1
_geom_bond_atom_site_label_2
_geom_bond_site_symmetry_1
_geom_bond_site_symmetry_2
Br1 C1 1_555 1_555
O1 C7 1_555 1_555
O2 C8 1_555 1_555
O3 C18 1_555 1_555
N1 H1 1_555 1_555
H2 N1 1_555 1_555
C1 C2 1_555 1_555
C2 H3 1_555 1_555
C3 C2 1_555 1_555
H4 C3 1_555 1_555
C4 C3 1_555 1_555
H5 C4 1_555 1_555
C5 C4 1_555 1_555
H6 C5 1_555 1_555
C6 C1 1_555 1_555
C7 C6 1_555 1_555
H7 C7 1_555 1_555
H8 C7 1_555 1_555
C8 O1 1_555 1_555
C9 C8 1_555 1_555
H9 C9 1_555 1_555
C10 C9 1_555 1_555
H10 C10 1_555 1_555
H11 C10 1_555 1_555
C11 C10 1_555 1_555
H12 C11 1_555 1_555
H13 C11 1_555 1_555
C12 C11 1_555 1_555
H14 C12 1_555 1_555
C13 C9 1_555 1_555
C14 C13 1_555 1_555
H15 C14 1_555 1_555
H16 C14 1_555 1_555
H17 C14 1_555 1_555
C15 C13 1_555 1_555
H18 C15 1_555 1_555
H19 C15 1_555 1_555
C16 C15 1_555 1_555
H20 C16 1_555 1_555
C17 C16 1_555 1_555
H21 C17 1_555 1_555
H22 C17 1_555 1_555
C18 N1 1_555 1_555
C5 C6 1_555 1_555
C12 C13 1_555 1_555
C12 C18 1_555 1_555

#END
