
#######################################################################
#
#                 Cambridge Crystallographic Data Centre
#                                CCDC 
#
#######################################################################
#
# If this CIF has been generated from an entry in the Cambridge 
# Structural Database, then it will include bibliographic, chemical, 
# crystal, experimental, refinement or atomic coordinate data resulting 
# from the CCDC's data processing and validation procedures.
#
#######################################################################

data_JOSVUI
_chemical_name_common            
'Diphenylmethyl 7beta-amino-7alpha-methoxy-3-((1-methyl-1H-tetrazol-5-ylthio)methyl)-8-oxo-5-thia-1-azabicyclo(4.2.0)oct-2-ene-2-carboxylate'
_chemical_formula_moiety         'C24 H24 N6 O4 S2'
_chemical_name_systematic        
'Diphenylmethyl 7\b-amino-7\a-methoxy-3-((1-methyl-1H-tetrazol-5-ylthio)methyl)-3-cephem-4-carboxylate'
_symmetry_cell_setting           orthorhombic
_symmetry_space_group_name_H-M   'P 21 21 21'
_symmetry_Int_Tables_number      19
_space_group_name_Hall           'P 2ac 2ab'
loop_
_symmetry_equiv_pos_site_id
_symmetry_equiv_pos_as_xyz
1 x,y,z
2 1/2+x,1/2-y,-z
3 -x,1/2+y,1/2-z
4 1/2-x,-y,1/2+z
_cell_length_a                   9.829(1)
_cell_length_b                   13.290(2)
_cell_length_c                   18.864(3)
_cell_angle_alpha                90
_cell_angle_beta                 90
_cell_angle_gamma                90
_cell_volume                     2464.16
_exptl_crystal_colour            'pale yellow'
_cell_formula_units_Z            4
loop_
_atom_site_label
_atom_site_type_symbol
_atom_site_fract_x
_atom_site_fract_y
_atom_site_fract_z
S1 S 0.2349(2) 0.4373(1) 0.1543(1)
C1 C 0.2043(7) 0.3067(5) 0.1375(3)
C2 C 0.1441(6) 0.2846(5) 0.0656(3)
C3 C 0.1723(6) 0.3391(4) 0.0081(3)
N1 N 0.2610(5) 0.4224(3) 0.0114(2)
C4 C 0.3356(7) 0.4538(5) 0.0756(3)
C5 C 0.3415(7) 0.5613(5) 0.0432(3)
C6 C 0.2569(7) 0.5156(5) -0.0181(3)
O1 O 0.2062(6) 0.5452(4) -0.0730(3)
C7 C 0.1171(6) 0.3105(5) -0.0638(3)
O2 O 0.0037(4) 0.2812(4) -0.0747(2)
O3 O 0.2130(4) 0.3172(3) -0.1142(2)
C8 C 0.0536(8) 0.1940(6) 0.0647(4)
S2 S 0.1354(2) 0.0815(1) 0.0984(1)
C9 C 0.2378(8) 0.0528(5) 0.0260(3)
N2 N 0.2354(7) 0.0932(4) -0.0384(3)
N3 N 0.3327(8) 0.0429(5) -0.0744(3)
N4 N 0.3917(8) -0.0248(5) -0.0351(3)
N5 N 0.3324(7) -0.0186(5) 0.0288(3)
C10 C 0.3735(11) -0.0831(7) 0.0873(5)
N6 N 0.2713(8) 0.6420(4) 0.0778(4)
O4 O 0.4786(5) 0.5849(3) 0.0302(2)
C11 C 0.4996(11) 0.6680(6) -0.0120(5)
C12 C 0.1834(5) 0.2586(4) -0.1791(2)
C13 C 0.3146(6) 0.2580(4) -0.2209(2)
C14 C 0.3792(6) 0.3457(5) -0.2410(3)
C15 C 0.4893(8) 0.3446(7) -0.2852(4)
C16 C 0.5357(7) 0.2539(8) -0.3101(4)
C17 C 0.4771(8) 0.1650(7) -0.2912(4)
C18 C 0.3640(7) 0.1652(5) -0.2450(3)
C19 C 0.0696(6) 0.3014(4) -0.2229(3)
C20 C 0.0417(8) 0.4022(5) -0.2280(4)
C21 C -0.0575(8) 0.4360(5) -0.2742(5)
C22 C -0.1269(8) 0.3690(7) -0.3153(4)
C23 C -0.1004(7) 0.2682(6) -0.3118(3)
C24 C -0.0037(7) 0.2351(5) -0.2645(3)
loop_
_geom_bond_atom_site_label_1
_geom_bond_atom_site_label_2
_geom_bond_site_symmetry_1
_geom_bond_site_symmetry_2
S1 C1 1_555 1_555
C1 C2 1_555 1_555
C2 C3 1_555 1_555
C3 N1 1_555 1_555
N1 C4 1_555 1_555
C4 S1 1_555 1_555
C5 C4 1_555 1_555
C6 N1 1_555 1_555
O1 C6 1_555 1_555
C7 C3 1_555 1_555
O2 C7 1_555 1_555
O3 C7 1_555 1_555
C8 C2 1_555 1_555
S2 C8 1_555 1_555
C9 S2 1_555 1_555
N2 C9 1_555 1_555
N3 N2 1_555 1_555
N4 N3 1_555 1_555
N5 C9 1_555 1_555
C10 N5 1_555 1_555
N6 C5 1_555 1_555
O4 C5 1_555 1_555
C11 O4 1_555 1_555
C12 O3 1_555 1_555
C13 C12 1_555 1_555
C14 C13 1_555 1_555
C15 C14 1_555 1_555
C16 C15 1_555 1_555
C17 C16 1_555 1_555
C18 C13 1_555 1_555
C19 C12 1_555 1_555
C20 C19 1_555 1_555
C21 C20 1_555 1_555
C22 C21 1_555 1_555
C23 C22 1_555 1_555
C24 C19 1_555 1_555
C5 C6 1_555 1_555
N4 N5 1_555 1_555
C17 C18 1_555 1_555
C23 C24 1_555 1_555

#END
