
#######################################################################
#
#                 Cambridge Crystallographic Data Centre
#                                CCDC 
#
#######################################################################
#
# If this CIF has been generated from an entry in the Cambridge 
# Structural Database, then it will include bibliographic, chemical, 
# crystal, experimental, refinement or atomic coordinate data resulting 
# from the CCDC's data processing and validation procedures.
#
#######################################################################

data_JOTFOP
_chemical_formula_moiety         'C19 H16 Cl1 N1 O4'
_chemical_name_systematic        
'5-chloro-3-(2-(methyl(phenyl)amino)-2-oxoethylidene)-1,3-dihydro-2-benzofuran-1-yl acetate'
_symmetry_cell_setting           monoclinic
_symmetry_space_group_name_H-M   'C 2/c'
_symmetry_Int_Tables_number      15
_space_group_name_Hall           '-C 2yn'
loop_
_symmetry_equiv_pos_site_id
_symmetry_equiv_pos_as_xyz
1 x,y,z
2 -x,y,1/2-z
3 1/2+x,1/2+y,z
4 1/2-x,1/2+y,1/2-z
5 -x,-y,-z
6 x,-y,1/2+z
7 1/2-x,1/2-y,-z
8 1/2+x,1/2-y,1/2+z
_cell_length_a                   20.538(6)
_cell_length_b                   9.423(3)
_cell_length_c                   17.955(6)
_cell_angle_alpha                90
_cell_angle_beta                 104.242(6)
_cell_angle_gamma                90
_cell_volume                     3368.03
_exptl_crystal_colour            colorless
_exptl_crystal_description       prismatic
_cell_formula_units_Z            8
loop_
_atom_site_label
_atom_site_type_symbol
_atom_site_fract_x
_atom_site_fract_y
_atom_site_fract_z
Cl1 Cl 0.45068(4) -0.07821(11) 0.10476(6)
N1 N 0.71667(11) 0.4671(3) 0.03022(14)
O1 O 0.75171(9) 0.0976(2) 0.17276(12)
O2 O 0.79377(10) 0.3313(2) 0.10699(12)
O3 O 0.78301(9) -0.1372(2) 0.19494(12)
O4 O 0.87579(12) -0.0458(3) 0.27199(16)
C1 C 0.74487(14) -0.0266(3) 0.21563(17)
H1 H 0.7591 -0.0079 0.2709
C2 C 0.67193(14) -0.0608(3) 0.19224(16)
C3 C 0.63746(15) -0.1672(3) 0.21685(18)
H2 H 0.6596 -0.2353 0.2514
C4 C 0.56860(15) -0.1708(4) 0.18894(19)
H3 H 0.5436 -0.2415 0.2050
C5 C 0.53706(14) -0.0698(4) 0.13739(18)
C6 C 0.57127(14) 0.0369(3) 0.11095(17)
H4 H 0.5493 0.1039 0.0755
C7 C 0.64031(13) 0.0389(3) 0.14007(16)
C8 C 0.69024(13) 0.1393(3) 0.12731(16)
C9 C 0.68194(14) 0.2538(3) 0.08337(17)
H5 H 0.6385 0.2741 0.0554
C10 C 0.73461(14) 0.3504(3) 0.07487(16)
C11 C 0.64879(14) 0.5056(3) -0.00658(18)
C12 C 0.61653(16) 0.4458(3) -0.07454(19)
H6 H 0.6376 0.3762 -0.0970
C13 C 0.55187(16) 0.4896(4) -0.1101(2)
H7 H 0.5289 0.4472 -0.1558
C14 C 0.52205(17) 0.5937(4) -0.0786(2)
H8 H 0.4789 0.6233 -0.1029
C15 C 0.55494(19) 0.6549(4) -0.0117(2)
H9 H 0.5341 0.7267 0.0095
C16 C 0.61854(18) 0.6124(4) 0.0253(2)
H10 H 0.6409 0.6549 0.0712
C17 C 0.76903(17) 0.5643(4) 0.0210(2)
H11 H 0.7731 0.6401 0.0576
H12 H 0.7576 0.6028 -0.0301
H13 H 0.8109 0.5144 0.0294
C18 C 0.84921(16) -0.1368(4) 0.2284(2)
C19 C 0.88293(17) -0.2586(4) 0.2022(2)
H14 H 0.8851 -0.2433 0.1501
H15 H 0.8580 -0.3437 0.2052
H16 H 0.9276 -0.2679 0.2344
loop_
_geom_bond_atom_site_label_1
_geom_bond_atom_site_label_2
_geom_bond_site_symmetry_1
_geom_bond_site_symmetry_2
Cl1 C5 1_555 1_555
N1 C10 1_555 1_555
O1 C1 1_555 1_555
O2 C10 1_555 1_555
O3 C1 1_555 1_555
O4 C18 1_555 1_555
C1 H1 1_555 1_555
C2 C1 1_555 1_555
C3 C2 1_555 1_555
H2 C3 1_555 1_555
C4 C3 1_555 1_555
H3 C4 1_555 1_555
C5 C4 1_555 1_555
C6 C5 1_555 1_555
H4 C6 1_555 1_555
C7 C2 1_555 1_555
C8 O1 1_555 1_555
C9 C8 1_555 1_555
H5 C9 1_555 1_555
C10 C9 1_555 1_555
C11 N1 1_555 1_555
C12 C11 1_555 1_555
H6 C12 1_555 1_555
C13 C12 1_555 1_555
H7 C13 1_555 1_555
C14 C13 1_555 1_555
H8 C14 1_555 1_555
C15 C14 1_555 1_555
H9 C15 1_555 1_555
C16 C11 1_555 1_555
H10 C16 1_555 1_555
C17 N1 1_555 1_555
H11 C17 1_555 1_555
H12 C17 1_555 1_555
H13 C17 1_555 1_555
C18 O3 1_555 1_555
C19 C18 1_555 1_555
H14 C19 1_555 1_555
H15 C19 1_555 1_555
H16 C19 1_555 1_555
C6 C7 1_555 1_555
C7 C8 1_555 1_555
C15 C16 1_555 1_555

#END
