
#######################################################################
#
#                 Cambridge Crystallographic Data Centre
#                                CCDC 
#
#######################################################################
#
# If this CIF has been generated from an entry in the Cambridge 
# Structural Database, then it will include bibliographic, chemical, 
# crystal, experimental, refinement or atomic coordinate data resulting 
# from the CCDC's data processing and validation procedures.
#
#######################################################################

data_JOTFIJ01
_chemical_name_common            4-cyano-alpha-ketoamide
_chemical_formula_moiety         'C15 H10 N2 O2'
_chemical_name_systematic        N-(4-cyanophenyl)-2-oxo-2-phenylacetamide
_symmetry_cell_setting           triclinic
_symmetry_space_group_name_H-M   'P -1'
_symmetry_Int_Tables_number      2
_space_group_name_Hall           '-P 1'
loop_
_symmetry_equiv_pos_site_id
_symmetry_equiv_pos_as_xyz
1 x,y,z
2 -x,-y,-z
_cell_length_a                   6.3094(4)
_cell_length_b                   7.4430(5)
_cell_length_c                   13.8773(8)
_cell_angle_alpha                80.486(3)
_cell_angle_beta                 79.734(3)
_cell_angle_gamma                72.162(2)
_cell_volume                     606.152
_exptl_crystal_colour            'pale orange'
_exptl_crystal_description       Lamellar
_cell_formula_units_Z            2
_chemical_properties_physical    Heat-sensitive
loop_
_atom_site_label
_atom_site_type_symbol
_atom_site_fract_x
_atom_site_fract_y
_atom_site_fract_z
C1 C 0.1240(6) 0.2910(5) 0.1739(2)
C2 C 0.2477(5) 0.2738(4) 0.2538(2)
C3 C 0.1360(5) 0.3322(4) 0.3432(2)
H1 H -0.0190 0.3862 0.3508
C4 C 0.2529(5) 0.3110(4) 0.4216(2)
H2 H 0.1768 0.3508 0.4817
C5 C 0.4820(5) 0.2311(4) 0.41065(19)
C6 C 0.5946(5) 0.1756(4) 0.3201(2)
H3 H 0.7499 0.1237 0.3121
C7 C 0.4787(5) 0.1966(4) 0.2429(2)
H4 H 0.5554 0.1589 0.1825
C8 C 0.5512(5) 0.2639(4) 0.5767(2)
C9 C 0.7478(5) 0.1962(4) 0.6389(2)
C10 C 0.7149(5) 0.2325(4) 0.7426(2)
C11 C 0.5071(5) 0.2850(5) 0.7994(2)
H5 H 0.3765 0.3063 0.7718
C12 C 0.4948(6) 0.3059(6) 0.8985(2)
H6 H 0.3553 0.3399 0.9370
C13 C 0.6857(7) 0.2769(5) 0.9393(2)
H7 H 0.6755 0.2917 1.0053
C14 C 0.8922(6) 0.2260(5) 0.8835(2)
H8 H 1.0222 0.2058 0.9115
C15 C 0.9056(5) 0.2050(4) 0.7860(2)
H9 H 1.0460 0.1715 0.7482
N1 N 0.0236(5) 0.2999(5) 0.1113(2)
N2 N 0.6122(4) 0.1981(3) 0.48780(16)
H10 H 0.7480 0.1268 0.4769
O1 O 0.3682(4) 0.3654(3) 0.60474(16)
O2 O 0.9311(3) 0.1134(3) 0.59808(15)
loop_
_geom_bond_atom_site_label_1
_geom_bond_atom_site_label_2
_geom_bond_site_symmetry_1
_geom_bond_site_symmetry_2
C1 C2 1_555 1_555
C2 C3 1_555 1_555
C3 H1 1_555 1_555
C4 C3 1_555 1_555
H2 C4 1_555 1_555
C5 C4 1_555 1_555
C6 C5 1_555 1_555
H3 C6 1_555 1_555
C7 C2 1_555 1_555
H4 C7 1_555 1_555
C8 C9 1_555 1_555
C9 C10 1_555 1_555
C10 C11 1_555 1_555
C11 H5 1_555 1_555
C12 C11 1_555 1_555
H6 C12 1_555 1_555
C13 C12 1_555 1_555
H7 C13 1_555 1_555
C14 C13 1_555 1_555
H8 C14 1_555 1_555
C15 C10 1_555 1_555
H9 C15 1_555 1_555
N1 C1 1_555 1_555
N2 C5 1_555 1_555
H10 N2 1_555 1_555
O1 C8 1_555 1_555
O2 C9 1_555 1_555
C6 C7 1_555 1_555
C8 N2 1_555 1_555
C14 C15 1_555 1_555

#END
