
#######################################################################
#
#                 Cambridge Crystallographic Data Centre
#                                CCDC 
#
#######################################################################
#
# If this CIF has been generated from an entry in the Cambridge 
# Structural Database, then it will include bibliographic, chemical, 
# crystal, experimental, refinement or atomic coordinate data resulting 
# from the CCDC's data processing and validation procedures.
#
#######################################################################

data_JOTGAA
_chemical_compound_source        'Ferula oopoda, Umbelliferae'
_chemical_name_common            Badkhysinin
_chemical_formula_moiety         'C20 H24 O5'
_chemical_name_systematic        
1\b-Angeloyloxy-2\b,3\b-epoxy-5\bH,7\aH-10\a-methyleudesma-4(15),11(13)-dien-6,12-olide
_symmetry_cell_setting           monoclinic
_symmetry_space_group_name_H-M   'P 21'
_symmetry_Int_Tables_number      4
_space_group_name_Hall           'P 2yb'
loop_
_symmetry_equiv_pos_site_id
_symmetry_equiv_pos_as_xyz
1 x,y,z
2 -x,1/2+y,-z
_cell_length_a                   7.842(1)
_cell_length_b                   13.840(2)
_cell_length_c                   8.536(1)
_cell_angle_alpha                90
_cell_angle_beta                 100.04(1)
_cell_angle_gamma                90
_cell_volume                     912.253
_exptl_crystal_colour            Colorless
_cell_formula_units_Z            2
loop_
_atom_site_label
_atom_site_type_symbol
_atom_site_fract_x
_atom_site_fract_y
_atom_site_fract_z
C1 C 0.1368(3) -0.1900(2) -0.2617(3)
C2 C 0.0741(4) -0.1203(3) -0.3947(3)
C3 C 0.0925(4) -0.0152(2) -0.3710(3)
C4 C 0.1691(4) 0.0234(2) -0.2136(3)
C5 C 0.2644(3) -0.0489(2) -0.0966(3)
C6 C 0.3161(4) -0.0055(2) 0.0708(3)
C7 C 0.3787(4) -0.0767(3) 0.2059(3)
C8 C 0.2817(5) -0.1727(3) 0.1960(3)
C9 C 0.2553(4) -0.2144(2) 0.0270(3)
C10 C 0.1589(4) -0.1435(2) -0.0971(3)
C11 C 0.5709(4) -0.0785(3) 0.2065(3)
C12 C 0.6133(5) 0.0143(3) 0.1357(3)
C13 C 0.6873(5) -0.1461(3) 0.2510(4)
C14 C -0.0253(4) -0.1218(3) -0.0652(4)
C15 C 0.1446(5) 0.1156(3) -0.1853(4)
C16 C 0.3017(4) -0.2890(2) -0.4058(3)
C17 C 0.4807(3) -0.3172(2) -0.4232(3)
C18 C 0.5110(4) -0.3844(2) -0.5264(3)
C19 C 0.3859(5) -0.4440(3) -0.6374(5)
C20 C 0.6274(4) -0.2643(3) -0.3202(4)
O1 O 0.3037(2) -0.2281(2) -0.2843(2)
O2 O 0.2086(2) -0.0680(2) -0.4560(2)
O3 O 0.4651(3) 0.0584 0.0688(2)
O4 O 0.7539(3) 0.0497(2) 0.1322(3)
O5 O 0.1679(3) -0.3155(2) -0.4882(2)
loop_
_geom_bond_atom_site_label_1
_geom_bond_atom_site_label_2
_geom_bond_site_symmetry_1
_geom_bond_site_symmetry_2
C1 C2 1_555 1_555
C2 C3 1_555 1_555
C3 C4 1_555 1_555
C4 C5 1_555 1_555
C5 C6 1_555 1_555
C6 C7 1_555 1_555
C7 C8 1_555 1_555
C8 C9 1_555 1_555
C9 C10 1_555 1_555
C10 C1 1_555 1_555
C11 C7 1_555 1_555
C12 C11 1_555 1_555
C13 C11 1_555 1_555
C14 C10 1_555 1_555
C15 C4 1_555 1_555
C16 C17 1_555 1_555
C17 C18 1_555 1_555
C18 C19 1_555 1_555
C20 C17 1_555 1_555
O1 C1 1_555 1_555
O2 C2 1_555 1_555
O3 C6 1_555 1_555
O4 C12 1_555 1_555
O5 C16 1_555 1_555
C3 O2 1_555 1_555
C5 C10 1_555 1_555
C12 O3 1_555 1_555
C16 O1 1_555 1_555

#END
