
#######################################################################
#
#                 Cambridge Crystallographic Data Centre
#                                CCDC 
#
#######################################################################
#
# If this CIF has been generated from an entry in the Cambridge 
# Structural Database, then it will include bibliographic, chemical, 
# crystal, experimental, refinement or atomic coordinate data resulting 
# from the CCDC's data processing and validation procedures.
#
#######################################################################

data_JOTGEE
_chemical_compound_source        'Ferula oopoda, Umbelliferae'
_chemical_formula_moiety         'C20 H26 O4'
_chemical_name_systematic        
1\b-Angeloyloxy-5\bH,6\aH,7\aH,11\aH-10\a-methyl-eudesma-2,4(15)-dien-6,12-olide
_symmetry_cell_setting           monoclinic
_symmetry_space_group_name_H-M   'P 21'
_symmetry_Int_Tables_number      4
_space_group_name_Hall           'P 2yb'
loop_
_symmetry_equiv_pos_site_id
_symmetry_equiv_pos_as_xyz
1 x,y,z
2 -x,1/2+y,-z
_cell_length_a                   8.035(1)
_cell_length_b                   7.208(1)
_cell_length_c                   15.887(3)
_cell_angle_alpha                90
_cell_angle_beta                 90.92(1)
_cell_angle_gamma                90
_cell_volume                     919.997
_exptl_crystal_colour            Colorless
_cell_formula_units_Z            2
loop_
_atom_site_label
_atom_site_type_symbol
_atom_site_fract_x
_atom_site_fract_y
_atom_site_fract_z
C1 C 0.5282(4) 0.2000(5) 0.7872(2)
C2 C 0.3880(4) 0.2514(5) 0.7281(2)
C3 C 0.3890(4) 0.2110(5) 0.6471(2)
C4 C 0.5252(4) 0.1129(5) 0.6072(2)
C5 C 0.6642(3) 0.0430(5) 0.6657(2)
C6 C 0.8261(3) 0.0040(5) 0.6199(2)
C7 C 0.9794(3) -0.0159(5) 0.6765(2)
C8 C 0.9282(4) -0.0694(5) 0.7651(2)
C9 C 0.8271(4) 0.0913(6) 0.8026(2)
C10 C 0.6938(4) 0.1730(5) 0.7413(2)
C11 C 1.0820(3) -0.1632(5) 0.6291(2)
C12 C 0.9532(4) -0.2713(6) 0.5833(2)
C13 C 1.2053(5) -0.2797(6) 0.6801(2)
C14 C 0.7477(4) 0.3679(5) 0.7113(2)
C15 C 0.5209(5) 0.0840(6) 0.5240(2)
C16 C 0.3746(4) 0.0227(5) 0.8879(2)
C17 C 0.3482(4) -0.1675(6) 0.9223(2)
C18 C 0.2258(5) -0.2019(7) 0.9738(2)
C19 C 0.0980(5) -0.0765(7) 1.0060(3)
C20 C 0.4706(6) -0.3180(6) 0.8952(3)
O1 O 0.4882(2) 0.0197(4) 0.8265(1)
O2 O 0.8087(2) -0.1771 0.5779(1)
O3 O 0.9650(3) -0.4243(4) 0.5522(1)
O4 O 0.3075(3) 0.1629(5) 0.9100(2)
loop_
_geom_bond_atom_site_label_1
_geom_bond_atom_site_label_2
_geom_bond_site_symmetry_1
_geom_bond_site_symmetry_2
C1 C2 1_555 1_555
C2 C3 1_555 1_555
C3 C4 1_555 1_555
C4 C5 1_555 1_555
C5 C6 1_555 1_555
C6 C7 1_555 1_555
C7 C8 1_555 1_555
C8 C9 1_555 1_555
C9 C10 1_555 1_555
C10 C1 1_555 1_555
C11 C7 1_555 1_555
C12 C11 1_555 1_555
C13 C11 1_555 1_555
C14 C10 1_555 1_555
C15 C4 1_555 1_555
C16 C17 1_555 1_555
C17 C18 1_555 1_555
C18 C19 1_555 1_555
C20 C17 1_555 1_555
O1 C1 1_555 1_555
O2 C6 1_555 1_555
O3 C12 1_555 1_555
O4 C16 1_555 1_555
C5 C10 1_555 1_555
C12 O2 1_555 1_555
C16 O1 1_555 1_555

#END
