
#######################################################################
#
#                 Cambridge Crystallographic Data Centre
#                                CCDC 
#
#######################################################################
#
# If this CIF has been generated from an entry in the Cambridge 
# Structural Database, then it will include bibliographic, chemical, 
# crystal, experimental, refinement or atomic coordinate data resulting 
# from the CCDC's data processing and validation procedures.
#
#######################################################################

data_JOTGEG
_chemical_formula_moiety         'C40 H27 B1 N4 O1,C1 H4 O1'
_chemical_name_systematic        
'(7-(9H-carbazol-9-yl)-2,12-diphenyl-16,17,18-triazatetracyclo[11.2.1.1^3,6^.1^8,11^]octadeca-1(16),2,4,6,8,10,12,14-octaenato)(methanolato)boron methanol solvate'
_symmetry_cell_setting           orthorhombic
_symmetry_space_group_name_H-M   'P 21 21 21'
_symmetry_Int_Tables_number      19
_space_group_name_Hall           'P 2ac 2ab'
loop_
_symmetry_equiv_pos_site_id
_symmetry_equiv_pos_as_xyz
1 x,y,z
2 1/2-x,-y,1/2+z
3 1/2+x,1/2-y,-z
4 -x,1/2+y,1/2-z
_cell_length_a                   7.535(5)
_cell_length_b                   19.253(11)
_cell_length_c                   21.152(13)
_cell_angle_alpha                90
_cell_angle_beta                 90
_cell_angle_gamma                90
_cell_volume                     3068.55
_exptl_crystal_colour            orange
_exptl_crystal_description       prism
_cell_formula_units_Z            4
loop_
_atom_site_label
_atom_site_type_symbol
_atom_site_fract_x
_atom_site_fract_y
_atom_site_fract_z
C1 C 0.5758(8) 0.3412(3) 0.1030(3)
N1 N 0.4942(7) 0.2872(3) 0.1348(2)
O1 O -0.0104(6) 0.3946(2) 0.2512(2)
C2 C 0.5474(9) 0.3847(3) 0.3231(3)
H1 H 0.6338 0.4044 0.3504
C3 C 0.6834(9) 0.2383(4) 0.0623(3)
N2 N 0.0252(7) 0.3116(3) 0.3363(2)
C4 C 0.7307(9) 0.1152(3) 0.0492(3)
H2 H 0.7864 0.0774 0.0281
N3 N 0.0880(7) 0.2729(3) 0.2317(2)
C5 C 0.5511(10) 0.4132(4) 0.1065(3)
H3 H 0.4664 0.4324 0.1348
C6 C 0.5612(8) 0.2243(3) 0.1115(3)
C7 C 0.5776(9) 0.3630(3) 0.2619(3)
H4 H 0.6877 0.3644 0.2400
C8 C 0.4708(11) 0.4237(4) 0.5779(3)
H5 H 0.5150 0.4357 0.6186
C9 C 0.6975(8) 0.3126(4) 0.0571(3)
C10 C 0.4101(8) 0.3377(3) 0.2370(3)
C11 C -0.1030(9) 0.2612(3) 0.3425(3)
C12 C -0.0080(9) 0.2955(3) 0.4413(3)
H6 H 0.0038 0.3007 0.4857
C13 C -0.0472(9) 0.2240(3) 0.2340(3)
C14 C -0.1278(9) 0.2530(4) 0.4108(3)
H7 H -0.2120 0.2234 0.4307
C15 C 0.2307(10) 0.4223(3) 0.5021(3)
H8 H 0.1120 0.4342 0.4917
C16 C 0.0160(11) 0.4172(4) 0.1870(3)
H9 H 0.1317 0.4401 0.1833
H10 H -0.0780 0.4499 0.1752
H11 H 0.0122 0.3769 0.1587
C17 C -0.1501(9) 0.2204(3) 0.2897(3)
C18 C 0.2011(9) 0.2616(3) 0.1820(3)
C19 C -0.2815(10) 0.1006(3) 0.2724(3)
H12 H -0.1694 0.0849 0.2576
N4 N 0.2883(7) 0.3485(3) 0.2828(3)
C20 C 0.3633(8) 0.3726(3) 0.3390(3)
C21 C -0.4678(9) 0.1896(4) 0.3192(3)
H13 H -0.4827 0.2352 0.3354
C22 C 0.7761(11) 0.4288(3) 0.0254(3)
H14 H 0.8450 0.4597 0.0004
C23 C -0.0240(8) 0.1820(4) 0.1778(3)
H15 H -0.0975 0.1444 0.1653
C24 C 0.3000(11) 0.4389(4) 0.5615(3)
H16 H 0.2257 0.4615 0.5914
C25 C -0.3026(9) 0.1684(4) 0.2949(3)
C26 C 0.3651(9) 0.2971(3) 0.1831(3)
C27 C 0.5273(9) 0.1550(3) 0.1326(3)
H17 H 0.4510 0.1456 0.1673
C28 C 0.1226(9) 0.2058(3) 0.1456(3)
H18 H 0.1649 0.1887 0.1062
C29 C 0.2623(9) 0.3657(3) 0.3954(3)
C30 C 0.6120(10) 0.1021(4) 0.0996(3)
H19 H 0.5893 0.0553 0.1113
C31 C 0.6492(10) 0.4547(4) 0.0693(3)
H20 H 0.6332 0.5036 0.0725
C32 C 0.3391(9) 0.3874(4) 0.4576(3)
C33 C -0.4287(11) 0.0560(3) 0.2720(3)
H21 H -0.4168 0.0102 0.2560
C34 C 0.5802(11) 0.3899(4) 0.5336(3)
H22 H 0.7000 0.3798 0.5442
C35 C 0.7664(9) 0.1834(4) 0.0302(3)
H23 H 0.8455 0.1924 -0.0038
C36 C 0.0971(9) 0.3311(3) 0.3936(3)
C37 C 0.7974(9) 0.3560(4) 0.0196(3)
H24 H 0.8799 0.3374 -0.0098
B1 B 0.0909(10) 0.3350(4) 0.2733(4)
C38 C -0.5919(11) 0.0783(4) 0.2949(4)
H25 H -0.6919 0.0483 0.2936
C39 C -0.6074(11) 0.1436(5) 0.3192(4)
H26 H -0.7179 0.1578 0.3366
C40 C 0.5143(10) 0.3708(3) 0.4738(3)
H27 H 0.5880 0.3468 0.4447
O2 O 0.9805(10) 0.0111(3) 0.1730(4)
H28 H 0.9928 -0.0264 0.1928
C41 C 1.1080(12) 0.0150(4) 0.1243(4)
H29 H 1.0829 0.0553 0.0974
H30 H 1.1030 -0.0274 0.0987
H31 H 1.2266 0.0197 0.1428
loop_
_geom_bond_atom_site_label_1
_geom_bond_atom_site_label_2
_geom_bond_site_symmetry_1
_geom_bond_site_symmetry_2
C1 N1 1_555 1_555
N1 C6 1_555 1_555
O1 C16 1_555 1_555
C2 H1 1_555 1_555
C3 C6 1_555 1_555
N2 C11 1_555 1_555
C4 H2 1_555 1_555
N3 C13 1_555 1_555
C5 C1 1_555 1_555
H3 C5 1_555 1_555
C6 C27 1_555 1_555
C7 C2 1_555 1_555
H4 C7 1_555 1_555
C8 H5 1_555 1_555
C9 C1 1_555 1_555
C10 C7 1_555 1_555
C11 C14 1_555 1_555
C12 H6 1_555 1_555
C13 C17 1_555 1_555
C14 C12 1_555 1_555
H7 C14 1_555 1_555
C15 H8 1_555 1_555
C16 H9 1_555 1_555
H10 C16 1_555 1_555
H11 C16 1_555 1_555
C17 C11 1_555 1_555
C18 N3 1_555 1_555
C19 H12 1_555 1_555
N4 C10 1_555 1_555
C20 C2 1_555 1_555
C21 H13 1_555 1_555
C22 H14 1_555 1_555
C23 C13 1_555 1_555
H15 C23 1_555 1_555
C24 C8 1_555 1_555
H16 C24 1_555 1_555
C25 C17 1_555 1_555
C26 N1 1_555 1_555
C27 H17 1_555 1_555
C28 C18 1_555 1_555
H18 C28 1_555 1_555
C29 C20 1_555 1_555
C30 C4 1_555 1_555
H19 C30 1_555 1_555
C31 C5 1_555 1_555
H20 C31 1_555 1_555
C32 C15 1_555 1_555
C33 C19 1_555 1_555
H21 C33 1_555 1_555
C34 C8 1_555 1_555
H22 C34 1_555 1_555
C35 C3 1_555 1_555
H23 C35 1_555 1_555
C36 N2 1_555 1_555
C37 C9 1_555 1_555
H24 C37 1_555 1_555
B1 O1 1_555 1_555
C38 C33 1_555 1_555
H25 C38 1_555 1_555
C39 C21 1_555 1_555
H26 C39 1_555 1_555
C40 C32 1_555 1_555
H27 C40 1_555 1_555
O2 H28 1_555 1_555
C41 O2 1_555 1_555
H29 C41 1_555 1_555
H30 C41 1_555 1_555
H31 C41 1_555 1_555
C3 C9 1_555 1_555
N2 B1 1_555 1_555
C4 C35 1_555 1_555
N3 B1 1_555 1_555
C10 C26 1_555 1_555
C12 C36 1_555 1_555
C15 C24 1_555 1_555
C18 C26 1_555 1_555
C19 C25 1_555 1_555
N4 C20 1_555 1_555
N4 B1 1_555 1_555
C21 C25 1_555 1_555
C22 C31 1_555 1_555
C22 C37 1_555 1_555
C23 C28 1_555 1_555
C27 C30 1_555 1_555
C29 C32 1_555 1_555
C29 C36 1_555 1_555
C34 C40 1_555 1_555
C38 C39 1_555 1_555

#END
