
#######################################################################
#
#                 Cambridge Crystallographic Data Centre
#                                CCDC 
#
#######################################################################
#
# If this CIF has been generated from an entry in the Cambridge 
# Structural Database, then it will include bibliographic, chemical, 
# crystal, experimental, refinement or atomic coordinate data resulting 
# from the CCDC's data processing and validation procedures.
#
#######################################################################

data_JOTHOR
_chemical_formula_moiety         'C38 H44 O6'
_chemical_name_systematic        
'pentacyclo[6.6.6.0^2,7^.0^9,14^.0^15,20^]icosa-2,4,6,9,11,13,15,17,19-nonaene-3,13,16-triyl trihexanoate'
_symmetry_cell_setting           triclinic
_symmetry_space_group_name_H-M   'P -1'
_symmetry_Int_Tables_number      2
_space_group_name_Hall           '-P 1'
loop_
_symmetry_equiv_pos_site_id
_symmetry_equiv_pos_as_xyz
1 x,y,z
2 -x,-y,-z
_cell_length_a                   7.9943(6)
_cell_length_b                   14.8471(9)
_cell_length_c                   15.2633(10)
_cell_angle_alpha                69.714(6)
_cell_angle_beta                 77.981(6)
_cell_angle_gamma                81.851(6)
_cell_volume                     1657.23
_exptl_crystal_colour            colorless
_exptl_crystal_description       irregular
_cell_formula_units_Z            2
loop_
_atom_site_label
_atom_site_type_symbol
_atom_site_fract_x
_atom_site_fract_y
_atom_site_fract_z
C1 C 0.18706(15) 0.07288(8) 1.12358(9)
C2 C 0.25201(17) 0.01504(9) 1.20426(10)
H1 H 0.3062 -0.0454 1.2070
C3 C 0.23589(18) 0.04749(9) 1.28034(10)
H2 H 0.2805 0.0091 1.3341
C4 C 0.15313(16) 0.13753(9) 1.27714(9)
H3 H 0.1396 0.1587 1.3290
C5 C -0.33787(15) 0.29855(8) 1.20193(8)
H4 H -0.3533 0.3167 1.2558
C6 C -0.47896(15) 0.28592(9) 1.16829(9)
H5 H -0.5890 0.2952 1.2003
C7 C -0.45754(15) 0.25973(9) 1.08775(9)
H6 H -0.5522 0.2516 1.0654
C8 C -0.29260(15) 0.24581(8) 1.04084(8)
C9 C -0.15089(14) 0.25545(8) 1.07427(8)
C10 C -0.17466(14) 0.28384(8) 1.15440(8)
C11 C 0.11091(14) 0.16363(8) 1.11726(8)
C12 C 0.09160(14) 0.19483(8) 1.19591(8)
C13 C 0.22067(15) 0.38065(8) 0.93054(8)
C14 C 0.30052(15) 0.46016(9) 0.92478(9)
H7 H 0.3715 0.4923 0.8692
C15 C 0.27338(15) 0.49107(8) 1.00272(9)
H8 H 0.3248 0.5450 0.9989
C16 C 0.17004(15) 0.44240(8) 1.08678(9)
H9 H 0.1499 0.4643 1.1385
C17 C 0.12163(14) 0.32945(8) 1.01402(8)
C18 C 0.09769(14) 0.36089(8) 1.09236(8)
C19 C 0.03643(14) 0.23701(8) 1.03392(8)
H10 H 0.0522 0.2157 0.9785
C20 C -0.00555(14) 0.29366(8) 1.18062(8)
H11 H -0.0217 0.3151 1.2359
C21 C 0.29460(15) 0.05921(9) 0.97028(9)
C22 C 0.27285(17) 0.00442(9) 0.90799(9)
H12 H 0.1641 -0.0247 0.9318
H13 H 0.3630 -0.0473 0.9120
C23 C 0.27767(18) 0.06550(10) 0.80459(10)
H14 H 0.1822 0.1142 0.7996
H15 H 0.3829 0.0982 0.7815
C24 C 0.26796(19) 0.00591(11) 0.74301(10)
H16 H 0.3605 -0.0446 0.7507
H17 H 0.1607 -0.0248 0.7651
C25 C 0.2794(3) 0.06335(16) 0.63859(12)
H18 H 0.1880 0.1145 0.6309
H19 H 0.3877 0.0931 0.6160
C26 C 0.2664(4) 0.0033(2) 0.57818(15)
H20 H 0.2798 0.0430 0.5127
H21 H 0.1562 -0.0227 0.5971
H22 H 0.3549 -0.0484 0.5864
C27 C -0.26655(17) 0.28268(9) 0.87525(9)
C28 C -0.26632(17) 0.23528(9) 0.80330(9)
H23 H -0.3691 0.2009 0.8207
H24 H -0.1685 0.1882 0.8051
C29 C -0.25890(17) 0.30429(9) 0.70264(9)
H25 H -0.1571 0.3396 0.6849
H26 H -0.3581 0.3505 0.6998
C30 C -0.25536(18) 0.25205(10) 0.63234(9)
H27 H -0.3569 0.2165 0.6507
H28 H -0.1561 0.2058 0.6355
C31 C -0.2484(2) 0.31908(12) 0.53060(10)
H29 H -0.3495 0.3640 0.5270
H30 H -0.1487 0.3561 0.5128
C32 C -0.2394(3) 0.26640(18) 0.46034(13)
H31 H -0.2336 0.3121 0.3975
H32 H -0.3398 0.2315 0.4760
H33 H -0.1390 0.2222 0.4630
C33 C 0.21524(17) 0.40450(9) 0.76848(9)
C34 C 0.23586(17) 0.34795(9) 0.70174(9)
H34 H 0.1402 0.3080 0.7196
H35 H 0.3401 0.3056 0.7080
C35 C 0.2442(2) 0.41133(10) 0.59910(9)
H36 H 0.1446 0.4573 0.5939
H37 H 0.3453 0.4474 0.5798
C36 C 0.25033(19) 0.35537(11) 0.53226(10)
H38 H 0.1468 0.3216 0.5497
H39 H 0.3472 0.3075 0.5393
C37 C 0.2663(3) 0.41914(14) 0.42909(11)
H40 H 0.1752 0.4704 0.4233
H41 H 0.3747 0.4486 0.4104
C38 C 0.2576(3) 0.36667(19) 0.36182(14)
H42 H 0.2739 0.4105 0.2980
H43 H 0.1474 0.3412 0.3767
H44 H 0.3457 0.3149 0.3679
O1 O 0.18349(11) 0.03162(6) 1.05415(6)
O2 O -0.27121(11) 0.21478(6) 0.96202(6)
O3 O 0.24596(11) 0.34444(6) 0.85468(6)
O4 O 0.39462(13) 0.11867(8) 0.95257(7)
O5 O -0.2639(2) 0.36629(8) 0.86177(8)
O6 O 0.17563(17) 0.48878(7) 0.75028(7)
loop_
_geom_bond_atom_site_label_1
_geom_bond_atom_site_label_2
_geom_bond_site_symmetry_1
_geom_bond_site_symmetry_2
C1 C2 1_555 1_555
C2 H1 1_555 1_555
C3 C2 1_555 1_555
H2 C3 1_555 1_555
C4 C3 1_555 1_555
H3 C4 1_555 1_555
C5 H4 1_555 1_555
C6 C5 1_555 1_555
H5 C6 1_555 1_555
C7 C6 1_555 1_555
H6 C7 1_555 1_555
C8 C7 1_555 1_555
C9 C8 1_555 1_555
C10 C5 1_555 1_555
C11 C1 1_555 1_555
C12 C4 1_555 1_555
C13 C14 1_555 1_555
C14 H7 1_555 1_555
C15 C14 1_555 1_555
H8 C15 1_555 1_555
C16 C15 1_555 1_555
H9 C16 1_555 1_555
C17 C13 1_555 1_555
C18 C16 1_555 1_555
C19 C9 1_555 1_555
H10 C19 1_555 1_555
C20 C10 1_555 1_555
H11 C20 1_555 1_555
C21 C22 1_555 1_555
C22 H12 1_555 1_555
H13 C22 1_555 1_555
C23 C22 1_555 1_555
H14 C23 1_555 1_555
H15 C23 1_555 1_555
C24 C23 1_555 1_555
H16 C24 1_555 1_555
H17 C24 1_555 1_555
C25 C24 1_555 1_555
H18 C25 1_555 1_555
H19 C25 1_555 1_555
C26 C25 1_555 1_555
H20 C26 1_555 1_555
H21 C26 1_555 1_555
H22 C26 1_555 1_555
C27 C28 1_555 1_555
C28 H23 1_555 1_555
H24 C28 1_555 1_555
C29 C28 1_555 1_555
H25 C29 1_555 1_555
H26 C29 1_555 1_555
C30 C29 1_555 1_555
H27 C30 1_555 1_555
H28 C30 1_555 1_555
C31 C30 1_555 1_555
H29 C31 1_555 1_555
H30 C31 1_555 1_555
C32 C31 1_555 1_555
H31 C32 1_555 1_555
H32 C32 1_555 1_555
H33 C32 1_555 1_555
C33 C34 1_555 1_555
C34 H34 1_555 1_555
H35 C34 1_555 1_555
C35 C34 1_555 1_555
H36 C35 1_555 1_555
H37 C35 1_555 1_555
C36 C35 1_555 1_555
H38 C36 1_555 1_555
H39 C36 1_555 1_555
C37 C36 1_555 1_555
H40 C37 1_555 1_555
H41 C37 1_555 1_555
C38 C37 1_555 1_555
H42 C38 1_555 1_555
H43 C38 1_555 1_555
H44 C38 1_555 1_555
O1 C1 1_555 1_555
O2 C8 1_555 1_555
O3 C13 1_555 1_555
O4 C21 1_555 1_555
O5 C27 1_555 1_555
O6 C33 1_555 1_555
C9 C10 1_555 1_555
C11 C12 1_555 1_555
C11 C19 1_555 1_555
C12 C20 1_555 1_555
C17 C18 1_555 1_555
C17 C19 1_555 1_555
C18 C20 1_555 1_555
C21 O1 1_555 1_555
C27 O2 1_555 1_555
C33 O3 1_555 1_555

#END
