
#######################################################################
#
#                 Cambridge Crystallographic Data Centre
#                                CCDC 
#
#######################################################################
#
# If this CIF has been generated from an entry in the Cambridge 
# Structural Database, then it will include bibliographic, chemical, 
# crystal, experimental, refinement or atomic coordinate data resulting 
# from the CCDC's data processing and validation procedures.
#
#######################################################################

data_JOTHIL
_chemical_formula_moiety         'C30 H26 O4'
_chemical_name_systematic        
rac-1,5,7,21-tetramethoxyheptacyclo[14.6.2.2^5,12^.0^2,15^.0^4,13^.0^6,11^.0^17,22^]hexacosa-2(15),3,6,8,10,13,17,19,21,23,25-undecaene
_symmetry_cell_setting           monoclinic
_symmetry_space_group_name_H-M   'P 21/c'
_symmetry_Int_Tables_number      14
_space_group_name_Hall           '-P 2ybc'
loop_
_symmetry_equiv_pos_site_id
_symmetry_equiv_pos_as_xyz
1 x,y,z
2 -x,1/2+y,1/2-z
3 -x,-y,-z
4 x,1/2-y,1/2+z
_cell_length_a                   9.49752(13)
_cell_length_b                   8.25205(12)
_cell_length_c                   27.9675(4)
_cell_angle_alpha                90
_cell_angle_beta                 96.1218(14)
_cell_angle_gamma                90
_cell_volume                     2179.43
_exptl_crystal_colour            colorless
_exptl_crystal_description       polyhedron
_cell_formula_units_Z            4
loop_
_atom_site_label
_atom_site_type_symbol
_atom_site_fract_x
_atom_site_fract_y
_atom_site_fract_z
C1 C 0.17928(13) -0.08568(15) 0.51264(4)
H1 H 0.1051 -0.0800 0.4881
C2 C 0.21953(14) -0.23259(16) 0.53387(5)
H2 H 0.1721 -0.3266 0.5233
C3 C 0.32893(14) -0.24185(15) 0.57053(5)
H3 H 0.3528 -0.3413 0.5848
C4 C 0.40398(13) -0.10266(15) 0.58638(4)
C5 C 0.42721(12) 0.21814(14) 0.57697(4)
C6 C 0.29459(12) 0.37772(13) 0.63837(4)
H4 H 0.3719 0.3736 0.6617
C7 C 0.14289(12) 0.53870(14) 0.69404(4)
C8 C 0.18078(13) 0.85881(15) 0.68968(4)
C9 C 0.13320(14) 1.00344(16) 0.66777(5)
H5 H 0.1807 1.0996 0.6761
C10 C 0.01630(15) 1.00564(16) 0.63376(5)
H6 H -0.0139 1.1032 0.6195
C11 C -0.05656(14) 0.86382(16) 0.62065(5)
H7 H -0.1351 0.8651 0.5977
C12 C -0.07070(12) 0.55407(15) 0.62890(4)
H8 H -0.1526 0.5590 0.6045
C13 C 0.05994(12) 0.39007(14) 0.56741(4)
H9 H -0.0173 0.3945 0.5440
C14 C 0.21151(13) 0.22439(15) 0.51221(4)
H10 H 0.1305 0.2277 0.4874
C15 C 0.36710(12) 0.04615(14) 0.56461(4)
C16 C 0.25212(12) 0.05242(14) 0.52877(4)
C17 C 0.45534(13) 0.29546(15) 0.52906(4)
H11 H 0.5434 0.3367 0.5237
C18 C 0.34487(13) 0.29911(15) 0.49597(4)
H12 H 0.3484 0.3433 0.4655
C19 C 0.30050(12) 0.30877(14) 0.59333(4)
C20 C 0.18447(12) 0.31329(14) 0.55826(4)
C21 C 0.16939(12) 0.45294(14) 0.64727(4)
C22 C 0.05347(12) 0.46008(14) 0.61227(4)
C23 C 0.00523(13) 0.46652(15) 0.70876(4)
H13 H -0.0008 0.4205 0.7388
C24 C -0.10429(13) 0.47464(15) 0.67542(5)
H14 H -0.1936 0.4354 0.6800
C25 C 0.10779(12) 0.71532(14) 0.67761(4)
C26 C -0.00936(12) 0.72061(15) 0.64256(4)
C27 C 0.54351(16) -0.25671(17) 0.64643(5)
H15 H 0.5679 -0.3357 0.6235
H16 H 0.4619 -0.2930 0.6609
H17 H 0.6216 -0.2429 0.6709
C28 C 0.67382(13) 0.17563(17) 0.59885(5)
H18 H 0.6581 0.0861 0.5770
H19 H 0.7348 0.1421 0.6267
H20 H 0.7175 0.2630 0.5832
C29 C 0.24057(15) 0.56200(19) 0.77598(4)
H21 H 0.1769 0.6526 0.7753
H22 H 0.3297 0.5914 0.7933
H23 H 0.2008 0.4721 0.7917
C30 C 0.37643(17) 0.9973(2) 0.73256(6)
H24 H 0.4063 1.0383 0.7031
H25 H 0.4581 0.9751 0.7549
H26 H 0.3181 1.0766 0.7461
O1 O 0.51253(10) -0.10592(11) 0.62269(3)
O2 O 0.54171(8) 0.22868(10) 0.61320(3)
O3 O 0.26185(9) 0.51723(11) 0.72789(3)
O4 O 0.29727(10) 0.85149(12) 0.72299(3)
loop_
_geom_bond_atom_site_label_1
_geom_bond_atom_site_label_2
_geom_bond_site_symmetry_1
_geom_bond_site_symmetry_2
C1 H1 1_555 1_555
C2 C1 1_555 1_555
H2 C2 1_555 1_555
C3 C2 1_555 1_555
H3 C3 1_555 1_555
C4 C3 1_555 1_555
C5 C15 1_555 1_555
C6 H4 1_555 1_555
C7 C21 1_555 1_555
C8 C9 1_555 1_555
C9 H5 1_555 1_555
C10 C9 1_555 1_555
H6 C10 1_555 1_555
C11 C10 1_555 1_555
H7 C11 1_555 1_555
C12 H8 1_555 1_555
C13 H9 1_555 1_555
C14 H10 1_555 1_555
C15 C4 1_555 1_555
C16 C1 1_555 1_555
C17 C5 1_555 1_555
H11 C17 1_555 1_555
C18 C14 1_555 1_555
H12 C18 1_555 1_555
C19 C5 1_555 1_555
C20 C13 1_555 1_555
C21 C6 1_555 1_555
C22 C12 1_555 1_555
C23 C7 1_555 1_555
H13 C23 1_555 1_555
C24 C12 1_555 1_555
H14 C24 1_555 1_555
C25 C7 1_555 1_555
C26 C11 1_555 1_555
C27 H15 1_555 1_555
H16 C27 1_555 1_555
H17 C27 1_555 1_555
C28 H18 1_555 1_555
H19 C28 1_555 1_555
H20 C28 1_555 1_555
C29 H21 1_555 1_555
H22 C29 1_555 1_555
H23 C29 1_555 1_555
C30 H24 1_555 1_555
H25 C30 1_555 1_555
H26 C30 1_555 1_555
O1 C4 1_555 1_555
O2 C5 1_555 1_555
O3 C7 1_555 1_555
O4 C8 1_555 1_555
C6 C19 1_555 1_555
C8 C25 1_555 1_555
C12 C26 1_555 1_555
C13 C22 1_555 1_555
C14 C16 1_555 1_555
C14 C20 1_555 1_555
C15 C16 1_555 1_555
C17 C18 1_555 1_555
C19 C20 1_555 1_555
C21 C22 1_555 1_555
C23 C24 1_555 1_555
C25 C26 1_555 1_555
C27 O1 1_555 1_555
C28 O2 1_555 1_555
C29 O3 1_555 1_555
C30 O4 1_555 1_555

#END
