
#######################################################################
#
#                 Cambridge Crystallographic Data Centre
#                                CCDC 
#
#######################################################################
#
# If this CIF has been generated from an entry in the Cambridge 
# Structural Database, then it will include bibliographic, chemical, 
# crystal, experimental, refinement or atomic coordinate data resulting 
# from the CCDC's data processing and validation procedures.
#
#######################################################################

data_JOTJEJ
_chemical_formula_moiety         'C41 H26 O6,C1 H2 Cl2'
_chemical_name_systematic        
'pentacyclo[6.6.6.0^2,7^.0^9,14^.0^15,20^]icosa-2,4,6,9,11,13,15,17,19-nonaene-3,13,16-triyl tribenzoate dichloromethane solvate'
_symmetry_cell_setting           orthorhombic
_symmetry_space_group_name_H-M   'P n n a'
_symmetry_Int_Tables_number      52
_space_group_name_Hall           '-P 2a 2bc'
loop_
_symmetry_equiv_pos_site_id
_symmetry_equiv_pos_as_xyz
1 x,y,z
2 1/2-x,-y,z
3 x,1/2-y,1/2-z
4 1/2-x,1/2+y,1/2-z
5 -x,-y,-z
6 1/2+x,y,-z
7 -x,1/2+y,1/2+z
8 1/2+x,1/2-y,1/2+z
_cell_length_a                   23.8696(2)
_cell_length_b                   22.0064(2)
_cell_length_c                   12.54393(12)
_cell_angle_alpha                90
_cell_angle_beta                 90
_cell_angle_gamma                90
_cell_volume                     6589.13
_exptl_crystal_colour            colorless
_exptl_crystal_description       polyhedron
_cell_formula_units_Z            8
loop_
_atom_site_label
_atom_site_type_symbol
_atom_site_fract_x
_atom_site_fract_y
_atom_site_fract_z
C1 C 0.43585(6) 0.22985(7) 1.10094(12)
C2 C 0.46432(7) 0.18187(7) 1.14879(13)
H1 H 0.4447 0.1500 1.1799
C3 C 0.52211(7) 0.18223(7) 1.14944(13)
H2 H 0.5414 0.1501 1.1807
C4 C 0.55209(6) 0.23010(7) 1.10384(12)
H3 H 0.5910 0.2302 1.1054
C5 C 0.55062(6) 0.43544(7) 1.10925(12)
H4 H 0.5896 0.4367 1.1085
C6 C 0.52012(7) 0.48121(7) 1.15991(14)
H5 H 0.5389 0.5128 1.1936
C7 C 0.46204(7) 0.47999(7) 1.16042(14)
H6 H 0.4418 0.5103 1.1950
C8 C 0.43438(6) 0.43277(7) 1.10851(12)
C9 C 0.46372(6) 0.38697(6) 1.05896(11)
C10 C 0.52245(6) 0.38806(7) 1.06005(11)
C11 C 0.46446(6) 0.27720(6) 1.05452(11)
C12 C 0.52313(6) 0.27734(7) 1.05629(11)
C13 C 0.43747(6) 0.33435(6) 0.79329(12)
C14 C 0.46637(7) 0.33420(7) 0.69724(13)
H7 H 0.4471 0.3344 0.6328
C15 C 0.52418(7) 0.33379(8) 0.69888(13)
H8 H 0.5439 0.3335 0.6349
C16 C 0.55345(6) 0.33379(7) 0.79511(12)
H9 H 0.5924 0.3335 0.7955
C17 C 0.52389(6) 0.33426(6) 0.88996(12)
C18 C 0.46523(6) 0.33429(6) 0.88937(12)
C19 C 0.54805(6) 0.33352(6) 1.00268(11)
H10 H 0.5891 0.3338 1.0037
C20 C 0.43927(6) 0.33271(6) 1.00026(11)
H11 H 0.3982 0.3324 0.9993
C21 C 0.34654(6) 0.19551(7) 1.04372(12)
C22 C 0.28570(6) 0.20607(7) 1.05710(12)
C23 C 0.24860(7) 0.16479(7) 1.01167(13)
H12 H 0.2623 0.1319 0.9730
C24 C 0.19132(7) 0.17242(8) 1.02375(15)
H13 H 0.1666 0.1444 0.9941
C25 C 0.17095(7) 0.22172(8) 1.07989(14)
H14 H 0.1325 0.2267 1.0885
C26 C 0.20751(7) 0.26353(8) 1.12311(15)
H15 H 0.1936 0.2972 1.1593
C27 C 0.26484(7) 0.25568(7) 1.11289(13)
H16 H 0.2893 0.2836 1.1433
C28 C 0.34383(7) 0.42137(7) 1.18508(12)
C29 C 0.28323(6) 0.42219(7) 1.15928(13)
C30 C 0.24525(7) 0.42109(7) 1.24345(13)
H17 H 0.2581 0.4189 1.3133
C31 C 0.18797(7) 0.42327(8) 1.22265(14)
H18 H 0.1625 0.4228 1.2787
C32 C 0.16914(7) 0.42609(7) 1.11884(15)
H19 H 0.1309 0.4276 1.1051
C33 C 0.20674(7) 0.42665(9) 1.03528(15)
H20 H 0.1937 0.4283 0.9654
C34 C 0.26362(7) 0.42479(8) 1.05512(13)
H21 H 0.2888 0.4253 0.9986
C35 C 0.34893(6) 0.38111(7) 0.77122(12)
C36 C 0.28773(6) 0.36970(7) 0.77776(11)
C37 C 0.25155(7) 0.41394(8) 0.73810(13)
H22 H 0.2659 0.4497 0.7095
C38 C 0.19409(7) 0.40468(9) 0.74133(14)
H23 H 0.1699 0.4339 0.7138
C39 C 0.17280(7) 0.35209(9) 0.78544(14)
H24 H 0.1343 0.3457 0.7869
C40 C 0.20856(7) 0.30885(8) 0.82740(15)
H25 H 0.1940 0.2740 0.8588
C41 C 0.26595(7) 0.31713(8) 0.82291(14)
H26 H 0.2899 0.2876 0.8500
O1 O 0.37710(4) 0.23345(5) 1.10647(9)
O2 O 0.37559(4) 0.43299(5) 1.09755(9)
O3 O 0.37853(4) 0.33005(5) 0.79449(9)
O4 O 0.36725(5) 0.15904(6) 0.98460(10)
O5 O 0.36327(5) 0.41204(7) 1.27133(10)
O6 O 0.37027(5) 0.42887(5) 0.74931(12)
C42 C 0.39316(9) 0.48072(9) 0.50082(17)
H27 H 0.4048 0.4624 0.4341
H28 H 0.4002 0.4518 0.5576
Cl1 Cl 0.32105(2) 0.49745(2) 0.49544(4)
Cl2 Cl 0.43243(7) 0.54768(8) 0.5237(7)
H29? H 0.4034 0.4695 0.5730
H30? H 0.4013 0.4465 0.4545
Cl3? Cl 0.43254(8) 0.54389(15) 0.4606(7)
loop_
_geom_bond_atom_site_label_1
_geom_bond_atom_site_label_2
_geom_bond_site_symmetry_1
_geom_bond_site_symmetry_2
C1 C2 1_555 1_555
C2 H1 1_555 1_555
C3 C2 1_555 1_555
H2 C3 1_555 1_555
C4 C3 1_555 1_555
H3 C4 1_555 1_555
C5 H4 1_555 1_555
C6 C5 1_555 1_555
H5 C6 1_555 1_555
C7 C6 1_555 1_555
H6 C7 1_555 1_555
C8 C7 1_555 1_555
C9 C8 1_555 1_555
C10 C5 1_555 1_555
C11 C1 1_555 1_555
C12 C4 1_555 1_555
C13 C14 1_555 1_555
C14 H7 1_555 1_555
C15 C14 1_555 1_555
H8 C15 1_555 1_555
C16 C15 1_555 1_555
H9 C16 1_555 1_555
C17 C16 1_555 1_555
C18 C13 1_555 1_555
C19 C10 1_555 1_555
H10 C19 1_555 1_555
C20 C9 1_555 1_555
H11 C20 1_555 1_555
C21 C22 1_555 1_555
C22 C23 1_555 1_555
C23 H12 1_555 1_555
C24 C23 1_555 1_555
H13 C24 1_555 1_555
C25 C24 1_555 1_555
H14 C25 1_555 1_555
C26 C25 1_555 1_555
H15 C26 1_555 1_555
C27 C22 1_555 1_555
H16 C27 1_555 1_555
C28 C29 1_555 1_555
C29 C30 1_555 1_555
C30 H17 1_555 1_555
C31 C30 1_555 1_555
H18 C31 1_555 1_555
C32 C31 1_555 1_555
H19 C32 1_555 1_555
C33 C32 1_555 1_555
H20 C33 1_555 1_555
C34 C29 1_555 1_555
H21 C34 1_555 1_555
C35 C36 1_555 1_555
C36 C37 1_555 1_555
C37 H22 1_555 1_555
C38 C37 1_555 1_555
H23 C38 1_555 1_555
C39 C38 1_555 1_555
H24 C39 1_555 1_555
C40 C39 1_555 1_555
H25 C40 1_555 1_555
C41 C36 1_555 1_555
H26 C41 1_555 1_555
O1 C1 1_555 1_555
O2 C8 1_555 1_555
O3 C13 1_555 1_555
O4 C21 1_555 1_555
O5 C28 1_555 1_555
O6 C35 1_555 1_555
C42 H27 1_555 1_555
H28 C42 1_555 1_555
Cl1 C42 1_555 1_555
Cl2 C42 1_555 1_555
C9 C10 1_555 1_555
C11 C12 1_555 1_555
C11 C20 1_555 1_555
C12 C19 1_555 1_555
C17 C18 1_555 1_555
C17 C19 1_555 1_555
C18 C20 1_555 1_555
C21 O1 1_555 1_555
C26 C27 1_555 1_555
C28 O2 1_555 1_555
C33 C34 1_555 1_555
C35 O3 1_555 1_555
C40 C41 1_555 1_555

#END
