
#######################################################################
#
#                 Cambridge Crystallographic Data Centre
#                                CCDC 
#
#######################################################################
#
# If this CIF has been generated from an entry in the Cambridge 
# Structural Database, then it will include bibliographic, chemical, 
# crystal, experimental, refinement or atomic coordinate data resulting 
# from the CCDC's data processing and validation procedures.
#
#######################################################################

data_JOTJIN
_chemical_formula_moiety         'C23 H14 O6,C2 H6 O1 S1'
_chemical_name_systematic        
'3,13,16-trihydroxypentacyclo[6.6.6.0^2,7^.0^9,14^.0^15,20^]icosa-2,4,6,9,11,13,15,17,19-nonaene-4,12,17-tricarbaldehyde dimethyl sulfoxide solvate'
_symmetry_cell_setting           monoclinic
_symmetry_space_group_name_H-M   'C c'
_symmetry_Int_Tables_number      9
_space_group_name_Hall           'C -2yc'
loop_
_symmetry_equiv_pos_site_id
_symmetry_equiv_pos_as_xyz
1 x,y,z
2 x,-y,1/2+z
3 1/2+x,1/2+y,z
4 1/2+x,1/2-y,1/2+z
_cell_length_a                   10.1578(15)
_cell_length_b                   20.741(3)
_cell_length_c                   10.1984(15)
_cell_angle_alpha                90
_cell_angle_beta                 97.677(3)
_cell_angle_gamma                90
_cell_volume                     2129.37
_exptl_crystal_colour            colorless
_exptl_crystal_description       plate
_cell_formula_units_Z            4
loop_
_atom_site_label
_atom_site_type_symbol
_atom_site_fract_x
_atom_site_fract_y
_atom_site_fract_z
C1 C 0.4818(6) 0.7450(3) 0.4961(6)
H1 H 0.5564 0.7488 0.5703
C2 C 0.2876(6) 0.7353(2) 0.3050(6)
H2 H 0.2126 0.7315 0.2312
C3 C 0.4462(6) 0.6762(2) 0.4598(6)
C4 C 0.5035(7) 0.6208(2) 0.5192(6)
C5 C 0.4575(7) 0.5603(3) 0.4728(8)
C6 C 0.3539(7) 0.5556(3) 0.3682(7)
H3 H 0.3236 0.5144 0.3369
C7 C 0.2950(7) 0.6107(3) 0.3095(7)
H4 H 0.2248 0.6076 0.2383
C8 C 0.3404(6) 0.6698(2) 0.3565(6)
O1 O 0.6032(5) 0.62828(18) 0.6210(4)
H5 H 0.6304 0.5919 0.6487
C9 C 0.5141(9) 0.5026(3) 0.5338(9)
H6 H 0.4776 0.4629 0.4999
O2 O 0.6049(6) 0.4997(2) 0.6254(6)
C10 C 0.5120(6) 0.7771(3) 0.3677(6)
C11 C 0.6250(6) 0.8102(3) 0.3490(6)
C12 C 0.6321(7) 0.8397(3) 0.2254(6)
C13 C 0.5240(7) 0.8349(3) 0.1240(7)
H7 H 0.5290 0.8551 0.0413
C14 C 0.4097(7) 0.8009(3) 0.1429(6)
H8 H 0.3374 0.7974 0.0738
C15 C 0.4039(6) 0.7721(3) 0.2655(6)
O3 O 0.7272(4) 0.8138(2) 0.4489(4)
H9 H 0.7882 0.8364 0.4251
C16 C 0.7474(8) 0.8777(3) 0.2055(8)
H10 H 0.7468 0.8980 0.1219
O4 O 0.8455(6) 0.8860(2) 0.2874(6)
C17 C 0.3530(6) 0.7760(3) 0.5269(6)
C18 C 0.3360(7) 0.8083(3) 0.6412(6)
C19 C 0.2085(7) 0.8347(3) 0.6545(6)
C20 C 0.1054(7) 0.8289(3) 0.5502(6)
H11 H 0.0215 0.8475 0.5584
C21 C 0.1224(7) 0.7967(3) 0.4353(7)
H12 H 0.0513 0.7925 0.3652
C22 C 0.2475(6) 0.7705(3) 0.4250(6)
O5 O 0.4397(5) 0.8134(2) 0.7394(4)
H13 H 0.4142 0.8313 0.8054
C23 C 0.1872(8) 0.8710(3) 0.7700(7)
H14 H 0.1013 0.8883 0.7740
O6 O 0.2747(6) 0.8809(3) 0.8647(5)
S1 S 0.0040(2) 0.43785(10) 0.4973(2)
O7 O 0.1026(9) 0.4775(6) 0.4290(10)
C24 C -0.0448(13) 0.4871(7) 0.6206(11)
H15 H 0.0295 0.4923 0.6917
H16 H -0.1202 0.4674 0.6561
H17 H -0.0710 0.5295 0.5831
C25 C -0.1490(10) 0.4376(5) 0.3890(10)
H18 H -0.1390 0.4121 0.3101
H19 H -0.1733 0.4819 0.3629
H20 H -0.2187 0.4186 0.4346
S2? S -0.048(5) 0.505(2) 0.493(4)
O8? O 0.084(5) 0.473(4) 0.471(6)
C26? C -0.081(6) 0.477(3) 0.649(4)
H21? H -0.0148 0.4955 0.7183
H22? H -0.0750 0.4300 0.6523
H23? H -0.1698 0.4908 0.6641
C27? C -0.174(5) 0.462(3) 0.392(6)
H24? H -0.1701 0.4728 0.2990
H25? H -0.2610 0.4743 0.4156
H26? H -0.1605 0.4157 0.4054
loop_
_geom_bond_atom_site_label_1
_geom_bond_atom_site_label_2
_geom_bond_site_symmetry_1
_geom_bond_site_symmetry_2
C1 H1 1_555 1_555
C2 H2 1_555 1_555
C3 C1 1_555 1_555
C4 C3 1_555 1_555
C5 C4 1_555 1_555
C6 C5 1_555 1_555
H3 C6 1_555 1_555
C7 C6 1_555 1_555
H4 C7 1_555 1_555
C8 C2 1_555 1_555
O1 C4 1_555 1_555
H5 O1 1_555 1_555
C9 C5 1_555 1_555
H6 C9 1_555 1_555
O2 C9 1_555 1_555
C10 C1 1_555 1_555
C11 C10 1_555 1_555
C12 C11 1_555 1_555
C13 C12 1_555 1_555
H7 C13 1_555 1_555
C14 C13 1_555 1_555
H8 C14 1_555 1_555
C15 C2 1_555 1_555
O3 C11 1_555 1_555
H9 O3 1_555 1_555
C16 C12 1_555 1_555
H10 C16 1_555 1_555
O4 C16 1_555 1_555
C17 C1 1_555 1_555
C18 C17 1_555 1_555
C19 C18 1_555 1_555
C20 C19 1_555 1_555
H11 C20 1_555 1_555
C21 C20 1_555 1_555
H12 C21 1_555 1_555
C22 C2 1_555 1_555
O5 C18 1_555 1_555
H13 O5 1_555 1_555
C23 C19 1_555 1_555
H14 C23 1_555 1_555
O6 C23 1_555 1_555
S1 O7 1_555 1_555
C24 S1 1_555 1_555
H15 C24 1_555 1_555
H16 C24 1_555 1_555
H17 C24 1_555 1_555
C25 S1 1_555 1_555
H18 C25 1_555 1_555
H19 C25 1_555 1_555
H20 C25 1_555 1_555
C3 C8 1_555 1_555
C7 C8 1_555 1_555
C10 C15 1_555 1_555
C14 C15 1_555 1_555
C17 C22 1_555 1_555
C21 C22 1_555 1_555

#END
