
#######################################################################
#
#                 Cambridge Crystallographic Data Centre
#                                CCDC 
#
#######################################################################
#
# If this CIF has been generated from an entry in the Cambridge 
# Structural Database, then it will include bibliographic, chemical, 
# crystal, experimental, refinement or atomic coordinate data resulting 
# from the CCDC's data processing and validation procedures.
#
#######################################################################

data_JOTLEJ
_chemical_name_common            'Penicillin V benzyl ester sulfoxide'
_chemical_formula_moiety         'C23 H24 N2 O6 S1'
_chemical_name_systematic        
'Benzyl 3,3-dimethyl-7-oxo-6-phenoxyacetamido-4-thia-1-azabicyclo(3.2.0)heptane-2-carboxylate 4-oxide'
_symmetry_cell_setting           monoclinic
_symmetry_space_group_name_H-M   'P 21'
_symmetry_Int_Tables_number      4
_space_group_name_Hall           'P 2yb'
loop_
_symmetry_equiv_pos_site_id
_symmetry_equiv_pos_as_xyz
1 x,y,z
2 -x,1/2+y,-z
_cell_length_a                   14.467(5)
_cell_length_b                   8.212(1)
_cell_length_c                   9.608(2)
_cell_angle_alpha                90
_cell_angle_beta                 102.96(3)
_cell_angle_gamma                90
_cell_volume                     1112.38
_exptl_crystal_colour            colorless
_cell_formula_units_Z            2
loop_
_atom_site_label
_atom_site_type_symbol
_atom_site_fract_x
_atom_site_fract_y
_atom_site_fract_z
S1 S 0.2534(1) 0.4115 0.9304(1)
O1 O 0.2945(3) 0.3190(5) 0.8246(4)
C1 C 0.1409(3) 0.5051(6) 0.8285(6)
C2 C 0.0772(3) 0.3567(6) 0.7727(5)
N1 N 0.1037(3) 0.2277(5) 0.8795(4)
C3 C 0.1815(3) 0.2608(7) 1.0006(5)
C4 C 0.2137(3) 0.0811(7) 0.9977(5)
C5 C 0.1416(3) 0.0777(7) 0.8522(6)
O2 O 0.1222(3) -0.0088(5) 0.7502(5)
N2 N 0.3099(3) 0.0410(6) 0.9994(5)
C6 C 0.3591(3) -0.0734(6) 1.0810(4)
O3 O 0.3285(3) -0.1526(6) 1.1671(4)
C7 C 0.4594(3) -0.0994(8) 1.0649(5)
O4 O 0.4819(2) -0.0164(5) 0.9459(4)
C8 C 0.4557(3) -0.0874(7) 0.8126(5)
C9 C 0.4754(4) 0.0024(8) 0.7020(6)
C10 C 0.4523(4) -0.0541(10) 0.5646(6)
C11 C 0.4093(4) -0.2080(9) 0.5351(6)
C12 C 0.3907(4) -0.2988(9) 0.6484(6)
C13 C 0.4137(4) -0.2391(8) 0.7852(6)
C14 C 0.1655(4) 0.6001(8) 0.7049(6)
C15 C 0.1036(4) 0.6109(7) 0.9350(7)
C16 C -0.0275(3) 0.4005(7) 0.7474(5)
O5 O -0.0747(3) 0.3834(6) 0.8328(4)
O6 O -0.0579(3) 0.4626(6) 0.6173(4)
C17 C -0.1574(4) 0.5087(10) 0.5766(7)
C18 C -0.1723(4) 0.6858(8) 0.6143(5)
C19 C -0.2611(4) 0.7291(10) 0.6247(7)
C20 C -0.2805(4) 0.8940(12) 0.6558(7)
C21 C -0.2083(5) 1.0061(9) 0.6748(7)
C22 C -0.1212(4) 0.9606(9) 0.6666(7)
C23 C -0.1027(4) 0.8015(9) 0.6327(6)
H1 H 0.093(4) 0.328(9) 0.682(5)
H2 H 0.164(4) 0.323(10) 1.068(6)
H3 H 0.197(4) 0.001(9) 1.064(6)
H4 H 0.324(4) 0.097(10) 0.941(6)
H5 H 0.507(4) -0.075(10) 1.154(6)
H6 H 0.464(4) -0.217(10) 1.046(6)
H7 H 0.510 0.119 0.724
H8 H 0.467 0.019 0.479
H9 H 0.391 -0.255 0.427
H10 H 0.358 -0.417 0.628
H11 H 0.399 -0.311 0.872
H12 H 0.196 0.716 0.743
H13 H 0.102 0.620 0.623
H14 H 0.216 0.531 0.661
H15 H 0.088 0.535 1.019
H16 H 0.040 0.673 0.880
H17 H 0.157 0.700 0.981
H18 H -0.174(5) 0.498(12) 0.467(8)
H19 H -0.183(5) 0.417(12) 0.626(8)
H20 H -0.317 0.639 0.609
H21 H -0.351 0.930 0.664
H22 H -0.222 1.132 0.697
H23 H -0.064 1.049 0.687
H24 H -0.033 0.769 0.621
loop_
_geom_bond_atom_site_label_1
_geom_bond_atom_site_label_2
_geom_bond_site_symmetry_1
_geom_bond_site_symmetry_2
S1 O1 1_555 1_555
C1 S1 1_555 1_555
C2 C1 1_555 1_555
N1 C2 1_555 1_555
C3 S1 1_555 1_555
C4 C3 1_555 1_555
C5 N1 1_555 1_555
O2 C5 1_555 1_555
N2 C4 1_555 1_555
C6 N2 1_555 1_555
O3 C6 1_555 1_555
C7 C6 1_555 1_555
O4 C7 1_555 1_555
C8 O4 1_555 1_555
C9 C8 1_555 1_555
C10 C9 1_555 1_555
C11 C10 1_555 1_555
C12 C11 1_555 1_555
C13 C8 1_555 1_555
C14 C1 1_555 1_555
C15 C1 1_555 1_555
C16 C2 1_555 1_555
O5 C16 1_555 1_555
O6 C16 1_555 1_555
C17 O6 1_555 1_555
C18 C17 1_555 1_555
C19 C18 1_555 1_555
C20 C19 1_555 1_555
C21 C20 1_555 1_555
C22 C21 1_555 1_555
C23 C18 1_555 1_555
H1 C2 1_555 1_555
H2 C3 1_555 1_555
H3 C4 1_555 1_555
H4 N2 1_555 1_555
H5 C7 1_555 1_555
H6 C7 1_555 1_555
H7 C9 1_555 1_555
H8 C10 1_555 1_555
H9 C11 1_555 1_555
H10 C12 1_555 1_555
H11 C13 1_555 1_555
H12 C14 1_555 1_555
H13 C14 1_555 1_555
H14 C14 1_555 1_555
H15 C15 1_555 1_555
H16 C15 1_555 1_555
H17 C15 1_555 1_555
H18 C17 1_555 1_555
H19 C17 1_555 1_555
H20 C19 1_555 1_555
H21 C20 1_555 1_555
H22 C21 1_555 1_555
H23 C22 1_555 1_555
H24 C23 1_555 1_555
N1 C3 1_555 1_555
C4 C5 1_555 1_555
C12 C13 1_555 1_555
C22 C23 1_555 1_555

#END
