
#######################################################################
#
#                 Cambridge Crystallographic Data Centre
#                                CCDC 
#
#######################################################################
#
# If this CIF has been generated from an entry in the Cambridge 
# Structural Database, then it will include bibliographic, chemical, 
# crystal, experimental, refinement or atomic coordinate data resulting 
# from the CCDC's data processing and validation procedures.
#
#######################################################################

data_JOTRAN
_chemical_formula_moiety         'C32 H35 B1 I1 N1'
_chemical_name_systematic        
2'-(dimesitylboryl)-5-iodo-N,N-dimethylbiphenyl-2-amine
_symmetry_cell_setting           triclinic
_symmetry_space_group_name_H-M   'P -1'
_symmetry_Int_Tables_number      2
_space_group_name_Hall           '-P 1'
loop_
_symmetry_equiv_pos_site_id
_symmetry_equiv_pos_as_xyz
1 x,y,z
2 -x,-y,-z
_cell_length_a                   10.0819(8)
_cell_length_b                   10.4849(8)
_cell_length_c                   13.9627(11)
_cell_angle_alpha                93.6346(12)
_cell_angle_beta                 91.6965(13)
_cell_angle_gamma                106.6464(11)
_cell_volume                     1409.5
_exptl_crystal_colour            'pale yellow'
_chemical_melting_point          '218-219 deg.C'
_cell_formula_units_Z            2
_exptl_crystal_recrystallization_method Dichloromethane/Methanol
loop_
_atom_site_label
_atom_site_type_symbol
_atom_site_fract_x
_atom_site_fract_y
_atom_site_fract_z
B1 B 0.7384(3) 0.7315(3) 0.76016(19)
C1 C 0.7601(3) 0.8556(2) 0.69629(17)
C2 C 0.8937(3) 0.9320(2) 0.67482(18)
C3 C 0.9102(3) 1.0372(3) 0.61553(19)
H1 H 0.9989 1.0837 0.5994
C4 C 0.7986(3) 1.0739(3) 0.58023(19)
C5 C 0.6681(3) 1.0018(3) 0.6034(2)
H2 H 0.5921 1.0267 0.5809
C6 C 0.6459(3) 0.8932(3) 0.65917(19)
C7 C 0.4981(3) 0.8214(3) 0.6813(3)
H3 H 0.4734 0.7315 0.6527
H4 H 0.4367 0.8673 0.6555
H5 H 0.4905 0.8201 0.7496
C8 C 1.0233(3) 0.9040(3) 0.7134(2)
H6 H 1.0424 0.9390 0.7792
H7 H 1.0999 0.9459 0.6759
H8 H 1.0099 0.8094 0.7095
C9 C 0.8204(5) 1.1935(4) 0.5199(3)
H9 H 0.7986 1.2650 0.5563
H10 H 0.7611 1.1687 0.4626
H11 H 0.9154 1.2222 0.5028
C10 C 0.6357(2) 0.5908(2) 0.72540(17)
C11 C 0.5245(3) 0.5278(3) 0.78246(19)
C12 C 0.4346(3) 0.4044(3) 0.7503(2)
H12 H 0.3620 0.3648 0.7882
C13 C 0.4487(3) 0.3378(3) 0.6639(2)
C14 C 0.5550(3) 0.4002(3) 0.6084(2)
H13 H 0.5657 0.3578 0.5498
C15 C 0.6473(3) 0.5244(3) 0.63682(18)
C16 C 0.7620(3) 0.5825(3) 0.5710(2)
H14 H 0.7425 0.6548 0.5401
H15 H 0.7678 0.5146 0.5231
H16 H 0.8485 0.6148 0.6078
C17 C 0.4956(3) 0.5914(3) 0.8765(2)
H17 H 0.5638 0.5880 0.9249
H18 H 0.4050 0.5439 0.8954
H19 H 0.4995 0.6827 0.8689
C18 C 0.3504(5) 0.2009(4) 0.6340(4)
H20 H 0.3644 0.1378 0.6773
H21 H 0.3682 0.1736 0.5699
H22 H 0.2565 0.2045 0.6360
C19 C 0.8088(2) 0.7544(2) 0.86444(17)
C20 C 0.8095(3) 0.8740(3) 0.91547(19)
H23 H 0.7873 0.9399 0.8824
C21 C 0.8420(3) 0.8977(3) 1.0132(2)
H24 H 0.8375 0.9767 1.0453
C22 C 0.8810(3) 0.8041(3) 1.0623(2)
H25 H 0.9039 0.8195 1.1279
C23 C 0.8862(3) 0.6868(3) 1.01364(19)
H26 H 0.9148 0.6247 1.0471
C24 C 0.8499(2) 0.6591(2) 0.91636(17)
C25 C 0.8478(2) 0.5239(2) 0.87283(16)
C26 C 0.7463(3) 0.4165(2) 0.90332(17)
H27 H 0.6886 0.4319 0.9507
C27 C 0.7282(3) 0.2874(2) 0.86551(19)
C28 C 0.8147(3) 0.2614(3) 0.79763(19)
H28 H 0.8029 0.1748 0.7715
C29 C 0.9199(3) 0.3666(3) 0.76892(19)
H29 H 0.9795 0.3487 0.7238
C30 C 0.9404(2) 0.4984(3) 0.80464(17)
C31 C 1.1463(3) 0.6854(4) 0.8504(3)
H30 H 1.0955 0.7156 0.8996
H31 H 1.2077 0.7611 0.8237
H32 H 1.1993 0.6325 0.8776
C32 C 1.1212(4) 0.5727(4) 0.6911(3)
H33 H 1.1774 0.5172 0.7091
H34 H 1.1792 0.6539 0.6689
H35 H 1.0548 0.5264 0.6408
I1 I 0.56501(2) 0.133042(19) 0.910931(18)
N1 N 1.0488(2) 0.6041(2) 0.77416(17)
loop_
_geom_bond_atom_site_label_1
_geom_bond_atom_site_label_2
_geom_bond_site_symmetry_1
_geom_bond_site_symmetry_2
B1 C1 1_555 1_555
C1 C2 1_555 1_555
C2 C3 1_555 1_555
C3 H1 1_555 1_555
C4 C3 1_555 1_555
C5 C4 1_555 1_555
H2 C5 1_555 1_555
C6 C1 1_555 1_555
C7 C6 1_555 1_555
H3 C7 1_555 1_555
H4 C7 1_555 1_555
H5 C7 1_555 1_555
C8 C2 1_555 1_555
H6 C8 1_555 1_555
H7 C8 1_555 1_555
H8 C8 1_555 1_555
C9 C4 1_555 1_555
H9 C9 1_555 1_555
H10 C9 1_555 1_555
H11 C9 1_555 1_555
C10 B1 1_555 1_555
C11 C10 1_555 1_555
C12 C11 1_555 1_555
H12 C12 1_555 1_555
C13 C12 1_555 1_555
C14 C13 1_555 1_555
H13 C14 1_555 1_555
C15 C10 1_555 1_555
C16 C15 1_555 1_555
H14 C16 1_555 1_555
H15 C16 1_555 1_555
H16 C16 1_555 1_555
C17 C11 1_555 1_555
H17 C17 1_555 1_555
H18 C17 1_555 1_555
H19 C17 1_555 1_555
C18 C13 1_555 1_555
H20 C18 1_555 1_555
H21 C18 1_555 1_555
H22 C18 1_555 1_555
C19 B1 1_555 1_555
C20 C19 1_555 1_555
H23 C20 1_555 1_555
C21 C20 1_555 1_555
H24 C21 1_555 1_555
C22 C21 1_555 1_555
H25 C22 1_555 1_555
C23 C22 1_555 1_555
H26 C23 1_555 1_555
C24 C19 1_555 1_555
C25 C24 1_555 1_555
C26 C25 1_555 1_555
H27 C26 1_555 1_555
C27 C26 1_555 1_555
C28 C27 1_555 1_555
H28 C28 1_555 1_555
C29 C28 1_555 1_555
H29 C29 1_555 1_555
C30 C25 1_555 1_555
C31 H30 1_555 1_555
H31 C31 1_555 1_555
H32 C31 1_555 1_555
C32 H33 1_555 1_555
H34 C32 1_555 1_555
H35 C32 1_555 1_555
I1 C27 1_555 1_555
N1 C30 1_555 1_555
C5 C6 1_555 1_555
C14 C15 1_555 1_555
C23 C24 1_555 1_555
C29 C30 1_555 1_555
C31 N1 1_555 1_555
C32 N1 1_555 1_555

#END
