
#######################################################################
#
#                 Cambridge Crystallographic Data Centre
#                                CCDC 
#
#######################################################################
#
# If this CIF has been generated from an entry in the Cambridge 
# Structural Database, then it will include bibliographic, chemical, 
# crystal, experimental, refinement or atomic coordinate data resulting 
# from the CCDC's data processing and validation procedures.
#
#######################################################################

data_JOTRUH
_chemical_formula_moiety         'C8 H4 N14 O8'
_chemical_name_systematic        
1,1'-ethane-1,2-diylbis(5-azido-3,4-dinitro-1H-pyrazole)
_symmetry_cell_setting           monoclinic
_symmetry_space_group_name_H-M   'P 21/c'
_symmetry_Int_Tables_number      14
_space_group_name_Hall           '-P 2ybc'
loop_
_symmetry_equiv_pos_site_id
_symmetry_equiv_pos_as_xyz
1 x,y,z
2 -x,1/2+y,1/2-z
3 -x,-y,-z
4 x,1/2-y,1/2+z
_cell_length_a                   6.0091(9)
_cell_length_b                   9.2420(13)
_cell_length_c                   13.985(2)
_cell_angle_alpha                90
_cell_angle_beta                 94.255(2)
_cell_angle_gamma                90
_cell_volume                     774.532
_exptl_crystal_colour            yellow
_exptl_crystal_description       plate
_cell_formula_units_Z            2
loop_
_atom_site_label
_atom_site_type_symbol
_atom_site_fract_x
_atom_site_fract_y
_atom_site_fract_z
N1 N 0.12832(18) 0.01008(11) 0.12523(7)
N2 N -0.00603(18) -0.03466(11) 0.19353(7)
C1 C 0.0617(2) 0.04121(13) 0.26945(8)
C2 C 0.2373(2) 0.13521(13) 0.25295(8)
C3 C 0.2783(2) 0.11029(12) 0.15747(8)
C4 C 0.0906(2) -0.04479(13) 0.02716(8)
H1 H 0.0442 -0.1475 0.0285
H2 H 0.2306 -0.0388 -0.0057
N3 N -0.05620(18) 0.01883(12) 0.35587(7)
O1 O -0.06556(18) -0.10558(11) 0.38550(7)
O2 O -0.1403(2) 0.12356(12) 0.39135(8)
N4 N 0.36006(18) 0.22721(11) 0.31909(7)
O3 O 0.32092(18) 0.22006(10) 0.40349(6)
O4 O 0.49849(18) 0.30834(11) 0.28677(7)
N5 N 0.43801(19) 0.15087(12) 0.09635(8)
N6 N 0.50052(18) 0.28051(12) 0.09759(8)
N7 N 0.5727(2) 0.39018(14) 0.08707(9)
N1B N -0.12832(18) -0.01008(11) -0.12523(7)
N2B N 0.00603(18) 0.03466(11) -0.19353(7)
C1B C -0.0617(2) -0.04121(13) -0.26945(8)
C2B C -0.2373(2) -0.13521(13) -0.25295(8)
C3B C -0.2783(2) -0.11029(12) -0.15747(8)
C4B C -0.0906(2) 0.04479(13) -0.02716(8)
H1B H -0.0442 0.1475 -0.0285
H2B H -0.2306 0.0388 0.0057
N3B N 0.05620(18) -0.01883(12) -0.35587(7)
O1B O 0.06556(18) 0.10558(11) -0.38550(7)
O2B O 0.1403(2) -0.12356(12) -0.39135(8)
N4B N -0.36006(18) -0.22721(11) -0.31909(7)
O3B O -0.32092(18) -0.22006(10) -0.40349(6)
O4B O -0.49849(18) -0.30834(11) -0.28677(7)
N5B N -0.43801(19) -0.15087(12) -0.09635(8)
N6B N -0.50052(18) -0.28051(12) -0.09759(8)
N7B N -0.5727(2) -0.39018(14) -0.08707(9)
loop_
_geom_bond_atom_site_label_1
_geom_bond_atom_site_label_2
_geom_bond_site_symmetry_1
_geom_bond_site_symmetry_2
N1 N2 1_555 1_555
N2 C1 1_555 1_555
C1 C2 1_555 1_555
C2 C3 1_555 1_555
C3 N1 1_555 1_555
C4 N1 1_555 1_555
H1 C4 1_555 1_555
H2 C4 1_555 1_555
N3 C1 1_555 1_555
O1 N3 1_555 1_555
O2 N3 1_555 1_555
N4 C2 1_555 1_555
O3 N4 1_555 1_555
O4 N4 1_555 1_555
N5 C3 1_555 1_555
N6 N5 1_555 1_555
N7 N6 1_555 1_555
N1B N2B 1_555 1_555
N2B C1B 1_555 1_555
C1B C2B 1_555 1_555
C2B C3B 1_555 1_555
C3B N1B 1_555 1_555
C4B C4 1_555 1_555
H1B C4B 1_555 1_555
H2B C4B 1_555 1_555
N3B C1B 1_555 1_555
O1B N3B 1_555 1_555
O2B N3B 1_555 1_555
N4B C2B 1_555 1_555
O3B N4B 1_555 1_555
O4B N4B 1_555 1_555
N5B C3B 1_555 1_555
N6B N5B 1_555 1_555
N7B N6B 1_555 1_555
N1B C4B 1_555 1_555

#END
