
#######################################################################
#
#                 Cambridge Crystallographic Data Centre
#                                CCDC 
#
#######################################################################
#
# If this CIF has been generated from an entry in the Cambridge 
# Structural Database, then it will include bibliographic, chemical, 
# crystal, experimental, refinement or atomic coordinate data resulting 
# from the CCDC's data processing and validation procedures.
#
#######################################################################

data_JOTRER
_chemical_formula_moiety         'C39 H40 B1 N1 O1'
_chemical_name_systematic        
2''-(dimesitylboryl)-4'-(dimethylamino)-1,1':3',1''-terphenyl-4-carbaldehyde
_symmetry_cell_setting           triclinic
_symmetry_space_group_name_H-M   'P -1'
_symmetry_Int_Tables_number      2
_space_group_name_Hall           '-P 1'
loop_
_symmetry_equiv_pos_site_id
_symmetry_equiv_pos_as_xyz
1 x,y,z
2 -x,-y,-z
_cell_length_a                   8.439(2)
_cell_length_b                   13.732(3)
_cell_length_c                   14.565(4)
_cell_angle_alpha                71.371(4)
_cell_angle_beta                 81.273(5)
_cell_angle_gamma                79.950(5)
_cell_volume                     1566.53
_exptl_crystal_colour            yellow
_chemical_melting_point          '444-445 K'
_cell_formula_units_Z            2
_exptl_crystal_recrystallization_method Dichloromethane/Hexane
loop_
_atom_site_label
_atom_site_type_symbol
_atom_site_fract_x
_atom_site_fract_y
_atom_site_fract_z
B1 B 0.2990(5) 0.7453(3) 0.2055(3)
C1 C 0.2279(4) 0.8627(3) 0.1665(3)
C2 C 0.0602(5) 0.8916(3) 0.1527(3)
C3 C -0.0057(5) 0.9952(4) 0.1320(3)
H1 H -0.1156 1.0126 0.1248
C4 C 0.0832(6) 1.0730(3) 0.1218(3)
C5 C 0.2476(5) 1.0464(3) 0.1270(3)
H2 H 0.3114 1.0986 0.1160
C6 C 0.3209(4) 0.9443(3) 0.1479(3)
C7 C 0.5037(4) 0.9248(3) 0.1457(3)
H3 H 0.5512 0.9315 0.0802
H4 H 0.5360 0.8560 0.1867
H5 H 0.5396 0.9744 0.1690
C8 C -0.0499(5) 0.8137(3) 0.1600(3)
H6 H -0.0142 0.7810 0.1099
H7 H -0.1584 0.8482 0.1523
H8 H -0.0472 0.7621 0.2226
C9 C 0.0060(6) 1.1844(3) 0.1065(4)
H9 H 0.0116 1.2042 0.1634
H10 H -0.1051 1.1909 0.0954
H11 H 0.0626 1.2288 0.0511
C10 C 0.2749(4) 0.6652(3) 0.1530(3)
C11 C 0.3353(5) 0.6800(3) 0.0541(3)
C12 C 0.3195(5) 0.6073(3) 0.0094(3)
H12 H 0.3661 0.6159 -0.0543
C13 C 0.2381(5) 0.5230(3) 0.0548(4)
C14 C 0.1767(5) 0.5100(3) 0.1504(4)
H13 H 0.1209 0.4538 0.1829
C15 C 0.1951(5) 0.5780(3) 0.2004(3)
C16 C 0.1257(6) 0.5553(3) 0.3059(3)
H14 H 0.0172 0.5396 0.3124
H15 H 0.1245 0.6148 0.3272
H16 H 0.1911 0.4970 0.3451
C17 C 0.2203(6) 0.4474(3) 0.0020(4)
H17 H 0.1902 0.3844 0.0486
H18 H 0.3212 0.4324 -0.0344
H19 H 0.1380 0.4774 -0.0416
C18 C 0.4244(5) 0.7705(3) -0.0028(3)
H20 H 0.5214 0.7657 0.0263
H21 H 0.3566 0.8341 -0.0020
H22 H 0.4520 0.7692 -0.0688
C19 C 0.4064(4) 0.7012(3) 0.2937(3)
C20 C 0.5185(5) 0.6129(3) 0.2932(3)
H23 H 0.5226 0.5845 0.2427
C21 C 0.6231(5) 0.5660(3) 0.3641(4)
H24 H 0.6978 0.5089 0.3595
C22 C 0.6161(5) 0.6038(3) 0.4405(4)
H25 H 0.6828 0.5711 0.4899
C23 C 0.5092(5) 0.6910(3) 0.4440(3)
H26 H 0.5060 0.7172 0.4959
C24 C 0.4057(4) 0.7411(3) 0.3719(3)
C25 C 0.3082(4) 0.8411(3) 0.3809(3)
C26 C 0.1380(5) 0.8601(3) 0.3941(3)
C27 C 0.0681(5) 0.9598(3) 0.3913(3)
H27 H -0.0441 0.9739 0.3996
C28 C 0.1586(5) 1.0394(3) 0.3766(3)
H28 H 0.1059 1.1056 0.3737
C29 C 0.3262(5) 1.0225(3) 0.3662(3)
C30 C 0.3955(4) 0.9214(3) 0.3710(3)
H29 H 0.5077 0.9067 0.3672
C31 C 0.4252(5) 1.1065(3) 0.3463(3)
C32 C 0.5807(5) 1.0871(3) 0.3737(3)
H30 H 0.6197 1.0203 0.4098
C33 C 0.6788(5) 1.1631(3) 0.3491(3)
H31 H 0.7829 1.1470 0.3681
C34 C 0.6243(6) 1.2635(3) 0.2964(3)
C35 C 0.4677(6) 1.2855(3) 0.2714(3)
H32 H 0.4275 1.3530 0.2378
C36 C 0.3706(5) 1.2080(3) 0.2960(3)
H33 H 0.2656 1.2244 0.2783
C37 C -0.1288(5) 0.8122(3) 0.4004(4)
H34 H -0.1769 0.8350 0.4554
H35 H -0.1784 0.7547 0.3996
H36 H -0.1449 0.8681 0.3415
C38 C 0.0727(5) 0.6895(3) 0.4922(3)
H37 H 0.1867 0.6661 0.4928
H38 H 0.0182 0.6351 0.4889
H39 H 0.0316 0.7077 0.5505
C39 C 0.7288(7) 1.3445(4) 0.2650(4)
H40 H 0.6832 1.4108 0.2316
N1 N 0.0447(4) 0.7799(3) 0.4076(3)
O1 O 0.8700(5) 1.3333(3) 0.2786(3)
loop_
_geom_bond_atom_site_label_1
_geom_bond_atom_site_label_2
_geom_bond_site_symmetry_1
_geom_bond_site_symmetry_2
B1 C1 1_555 1_555
C1 C2 1_555 1_555
C2 C3 1_555 1_555
C3 H1 1_555 1_555
C4 C3 1_555 1_555
C5 C4 1_555 1_555
H2 C5 1_555 1_555
C6 C1 1_555 1_555
C7 C6 1_555 1_555
H3 C7 1_555 1_555
H4 C7 1_555 1_555
H5 C7 1_555 1_555
C8 C2 1_555 1_555
H6 C8 1_555 1_555
H7 C8 1_555 1_555
H8 C8 1_555 1_555
C9 C4 1_555 1_555
H9 C9 1_555 1_555
H10 C9 1_555 1_555
H11 C9 1_555 1_555
C10 B1 1_555 1_555
C11 C10 1_555 1_555
C12 C11 1_555 1_555
H12 C12 1_555 1_555
C13 C12 1_555 1_555
C14 C13 1_555 1_555
H13 C14 1_555 1_555
C15 C10 1_555 1_555
C16 C15 1_555 1_555
H14 C16 1_555 1_555
H15 C16 1_555 1_555
H16 C16 1_555 1_555
C17 C13 1_555 1_555
H17 C17 1_555 1_555
H18 C17 1_555 1_555
H19 C17 1_555 1_555
C18 C11 1_555 1_555
H20 C18 1_555 1_555
H21 C18 1_555 1_555
H22 C18 1_555 1_555
C19 B1 1_555 1_555
C20 C19 1_555 1_555
H23 C20 1_555 1_555
C21 C20 1_555 1_555
H24 C21 1_555 1_555
C22 C21 1_555 1_555
H25 C22 1_555 1_555
C23 C22 1_555 1_555
H26 C23 1_555 1_555
C24 C19 1_555 1_555
C25 C24 1_555 1_555
C26 C25 1_555 1_555
C27 C26 1_555 1_555
H27 C27 1_555 1_555
C28 C27 1_555 1_555
H28 C28 1_555 1_555
C29 C28 1_555 1_555
C30 C25 1_555 1_555
H29 C30 1_555 1_555
C31 C29 1_555 1_555
C32 C31 1_555 1_555
H30 C32 1_555 1_555
C33 C32 1_555 1_555
H31 C33 1_555 1_555
C34 C33 1_555 1_555
C35 C34 1_555 1_555
H32 C35 1_555 1_555
C36 C31 1_555 1_555
H33 C36 1_555 1_555
C37 H34 1_555 1_555
H35 C37 1_555 1_555
H36 C37 1_555 1_555
C38 H37 1_555 1_555
H38 C38 1_555 1_555
H39 C38 1_555 1_555
C39 C34 1_555 1_555
H40 C39 1_555 1_555
N1 C26 1_555 1_555
O1 C39 1_555 1_555
C5 C6 1_555 1_555
C14 C15 1_555 1_555
C23 C24 1_555 1_555
C29 C30 1_555 1_555
C35 C36 1_555 1_555
C37 N1 1_555 1_555
C38 N1 1_555 1_555

#END
