
#######################################################################
#
#                 Cambridge Crystallographic Data Centre
#                                CCDC 
#
#######################################################################
#
# If this CIF has been generated from an entry in the Cambridge 
# Structural Database, then it will include bibliographic, chemical, 
# crystal, experimental, refinement or atomic coordinate data resulting 
# from the CCDC's data processing and validation procedures.
#
#######################################################################

data_JOTTOD
_chemical_formula_moiety         'C44 H39 B1 N6 O1,0.5(C1 H2 Cl2)'
_chemical_name_systematic        
"(N-(4-(dimethylamino)phenyl)-N-(7,12-diphenyl-16,17,18-triazatetracyclo[11.2.1.1^3,6^.1^8,11^]octadeca-1,3,5,7,9,11,13(16),14-octaen-2-yl)-N',N'-dimethylbenzene-1,4-diaminato)(methanolato)boron dichloromethane solvate"
_symmetry_cell_setting           triclinic
_symmetry_space_group_name_H-M   'P -1'
_symmetry_Int_Tables_number      2
_space_group_name_Hall           '-P 1'
loop_
_symmetry_equiv_pos_site_id
_symmetry_equiv_pos_as_xyz
1 x,y,z
2 -x,-y,-z
_cell_length_a                   10.178(3)
_cell_length_b                   13.9828(17)
_cell_length_c                   14.678(2)
_cell_angle_alpha                104.65(3)
_cell_angle_beta                 107.933(12)
_cell_angle_gamma                102.89(4)
_cell_volume                     1817.15
_cell_formula_units_Z            2
loop_
_atom_site_label
_atom_site_type_symbol
_atom_site_fract_x
_atom_site_fract_y
_atom_site_fract_z
O1 O 0.02214(18) 0.27372(13) 0.84087(14)
N1 N 0.0165(2) 0.09093(16) 0.76308(16)
N2 N 0.1032(2) 0.21851(15) 0.69697(16)
N3 N 0.2424(2) 0.22919(15) 0.86560(15)
N4 N 0.2125(2) 0.02994(16) 0.98731(16)
N5 N 0.1371(3) -0.4016(2) 0.8648(3)
N6 N 0.5793(6) 0.2868(3) 1.3934(3)
C1 C 0.4873(3) 0.28877(19) 0.93955(18)
H1 H 0.5866 0.3286 0.9592
C2 C 0.5358(3) 0.3900(2) 0.7087(2)
H2 H 0.4810 0.3310 0.6480
C3 C 0.1772(3) 0.07944(19) 0.91600(19)
C4 C 0.3509(3) 0.33461(18) 0.78291(19)
C5 C 0.3001(3) 0.09075(19) 1.09172(19)
C6 C 0.0469(3) 0.03350(18) 0.82545(19)
C7 C -0.3657(3) -0.04797(19) 0.4835(2)
H3 H -0.3791 -0.0424 0.5457
C8 C 0.2813(3) 0.17299(18) 0.92743(18)
C9 C -0.0014(3) 0.16209(19) 0.60089(19)
C10 C 0.4848(3) 0.40807(18) 0.78747(19)
C11 C 0.7473(3) 0.5444(2) 0.8066(2)
H4 H 0.8363 0.5905 0.8127
C12 C 0.6982(3) 0.5633(2) 0.8852(2)
H5 H 0.7537 0.6223 0.9458
C13 C 0.3635(3) 0.29559(18) 0.86492(18)
C14 C 0.2357(3) -0.1247(2) 0.8785(2)
H6 H 0.2802 -0.0822 0.8478
C15 C 0.2174(3) -0.2307(2) 0.8479(2)
H7 H 0.2473 -0.2603 0.7951
C16 C 0.4371(3) 0.21422(18) 0.97793(18)
H8 H 0.4955 0.1939 1.0288
C17 C -0.0882(3) 0.03021(19) 0.66896(19)
C18 C 0.2195(3) 0.28973(19) 0.69602(19)
C19 C 0.3741(3) 0.2489(2) 1.2356(2)
H9 H 0.3620 0.3138 1.2640
C20 C 0.1896(3) -0.08026(19) 0.9535(2)
C21 C 0.0440(3) 0.2103(2) 0.5345(2)
H10 H -0.0092 0.1925 0.4635
C22 C 0.5681(3) 0.49618(19) 0.8756(2)
H11 H 0.5347 0.5101 0.9298
C23 C -0.4813(3) -0.1077(2) 0.3917(2)
H12 H -0.5728 -0.1425 0.3917
C24 C 0.4950(4) 0.1227(2) 1.2505(2)
H13 H 0.5654 0.0993 1.2901
C25 C 0.1098(3) -0.2485(2) 0.9698(3)
H14 H 0.0669 -0.2900 1.0020
C26 C 0.1265(3) -0.1437(2) 0.9986(2)
H15 H 0.0944 -0.1139 1.0500
C27 C -0.3300(3) -0.06657(19) 0.3012(2)
H16 H -0.3174 -0.0727 0.2387
C28 C -0.1084(3) 0.06846(19) 0.58561(19)
C29 C -0.4654(3) -0.11733(19) 0.2995(2)
H17 H -0.5453 -0.1577 0.2365
C30 C 0.4831(4) 0.2201(2) 1.2944(2)
C31 C 0.2829(3) 0.18530(19) 1.1367(2)
H18 H 0.2074 0.2062 1.0989
C32 C -0.2135(3) -0.00740(19) 0.3926(2)
H19 H -0.1216 0.0257 0.3920
C33 C 0.6658(3) 0.4578(2) 0.7186(2)
H20 H 0.6995 0.4447 0.6646
C34 C 0.1045(4) -0.4592(3) 0.9284(4)
H21 H 0.1744 -0.4221 0.9991
H22 H 0.1117 -0.5291 0.9042
H23 H 0.0052 -0.4654 0.9253
C35 C -0.1235(3) 0.2627(2) 0.7825(2)
H24 H -0.1279 0.2764 0.7195
H25 H -0.1565 0.3127 0.8221
H26 H -0.1869 0.1914 0.7654
C36 C -0.2289(3) 0.00450(19) 0.4863(2)
C37 C 0.4065(3) 0.0600(2) 1.1509(2)
H27 H 0.4184 -0.0050 1.1225
C38 C 0.1782(3) 0.2868(2) 0.5923(2)
H28 H 0.2338 0.3302 0.5676
C39 C 0.6638(4) 0.2502(3) 1.4594(3)
H29 H 0.6011 0.2018 1.4786
H30 H 0.7333 0.3091 1.5207
H31 H 0.7174 0.2136 1.4262
C40 C 0.1552(3) -0.2952(2) 0.8937(3)
B1 B 0.0899(3) 0.2067(2) 0.7934(2)
C41 C 0.5807(6) 0.3917(3) 1.4258(3)
H32 H 0.4922 0.3933 1.4388
H33 H 0.5839 0.4214 1.3725
H34 H 0.6670 0.4329 1.4887
C42 C 0.2044(6) -0.4430(3) 0.7977(4)
H35 H 0.1695 -0.4277 0.7346
H36 H 0.1788 -0.5188 0.7815
H37 H 0.3108 -0.4105 0.8315
C43 C -0.1373(3) -0.07254(19) 0.6742(2)
H38 H -0.2133 -0.1315 0.6214
C44 C -0.0550(3) -0.07019(19) 0.7687(2)
H39 H -0.0639 -0.1275 0.7926
Cl1? Cl 1.0059(3) 0.5399(2) 0.4714(3)
Cl2? Cl 0.8974(2) 0.62885(17) 0.62225(15)
C45? C 1.0081(12) 0.5931(7) 0.5577(7)
loop_
_geom_bond_atom_site_label_1
_geom_bond_atom_site_label_2
_geom_bond_site_symmetry_1
_geom_bond_site_symmetry_2
O1 C35 1_555 1_555
N1 C6 1_555 1_555
N2 C9 1_555 1_555
N3 C8 1_555 1_555
N4 C3 1_555 1_555
N5 C34 1_555 1_555
N6 C30 1_555 1_555
C1 H1 1_555 1_555
C2 H2 1_555 1_555
C3 C6 1_555 1_555
C4 C10 1_555 1_555
C5 N4 1_555 1_555
C6 C44 1_555 1_555
C7 H3 1_555 1_555
C8 C3 1_555 1_555
C9 C21 1_555 1_555
C10 C2 1_555 1_555
C11 H4 1_555 1_555
C12 C11 1_555 1_555
H5 C12 1_555 1_555
C13 N3 1_555 1_555
C14 H6 1_555 1_555
C15 C14 1_555 1_555
H7 C15 1_555 1_555
C16 C1 1_555 1_555
H8 C16 1_555 1_555
C17 N1 1_555 1_555
C18 N2 1_555 1_555
C19 H9 1_555 1_555
C20 N4 1_555 1_555
C21 H10 1_555 1_555
C22 C10 1_555 1_555
H11 C22 1_555 1_555
C23 C7 1_555 1_555
H12 C23 1_555 1_555
C24 H13 1_555 1_555
C25 H14 1_555 1_555
C26 C20 1_555 1_555
H15 C26 1_555 1_555
C27 H16 1_555 1_555
C28 C9 1_555 1_555
C29 C23 1_555 1_555
H17 C29 1_555 1_555
C30 C19 1_555 1_555
C31 C5 1_555 1_555
H18 C31 1_555 1_555
C32 C27 1_555 1_555
H19 C32 1_555 1_555
C33 C2 1_555 1_555
H20 C33 1_555 1_555
C34 H21 1_555 1_555
H22 C34 1_555 1_555
H23 C34 1_555 1_555
C35 H24 1_555 1_555
H25 C35 1_555 1_555
H26 C35 1_555 1_555
C36 C7 1_555 1_555
C37 C5 1_555 1_555
H27 C37 1_555 1_555
C38 C18 1_555 1_555
H28 C38 1_555 1_555
C39 N6 1_555 1_555
H29 C39 1_555 1_555
H30 C39 1_555 1_555
H31 C39 1_555 1_555
C40 N5 1_555 1_555
B1 O1 1_555 1_555
C41 N6 1_555 1_555
H32 C41 1_555 1_555
H33 C41 1_555 1_555
H34 C41 1_555 1_555
C42 N5 1_555 1_555
H35 C42 1_555 1_555
H36 C42 1_555 1_555
H37 C42 1_555 1_555
C43 C17 1_555 1_555
H38 C43 1_555 1_555
C44 C43 1_555 1_555
H39 C44 1_555 1_555
N1 B1 1_555 1_555
N2 B1 1_555 1_555
N3 B1 1_555 1_555
C1 C13 1_555 1_555
C4 C13 1_555 1_555
C4 C18 1_555 1_555
C8 C16 1_555 1_555
C11 C33 1_555 1_555
C12 C22 1_555 1_555
C14 C20 1_555 1_555
C15 C40 1_555 1_555
C17 C28 1_555 1_555
C19 C31 1_555 1_555
C21 C38 1_555 1_555
C24 C30 1_555 1_555
C24 C37 1_555 1_555
C25 C26 1_555 1_555
C25 C40 1_555 1_555
C27 C29 1_555 1_555
C28 C36 1_555 1_555
C32 C36 1_555 1_555

#END
