
#######################################################################
#
#                 Cambridge Crystallographic Data Centre
#                                CCDC 
#
#######################################################################
#
# If this CIF has been generated from an entry in the Cambridge 
# Structural Database, then it will include bibliographic, chemical, 
# crystal, experimental, refinement or atomic coordinate data resulting 
# from the CCDC's data processing and validation procedures.
#
#######################################################################

data_JOTTIX
_chemical_formula_moiety         'C42 H33 B1 N4 O3'
_chemical_name_systematic        
(N,N-bis(4-methoxyphenyl)-7,12-diphenyl-16,17,18-triazatetracyclo[11.2.1.1^3,6^.1^8,11^]octadeca-1,3,5,7,9,11,13(16),14-octaen-2-aminato)(methanolato)boron
_symmetry_cell_setting           monoclinic
_symmetry_space_group_name_H-M   'P 21/c'
_symmetry_Int_Tables_number      14
_space_group_name_Hall           '-P 2ybc'
loop_
_symmetry_equiv_pos_site_id
_symmetry_equiv_pos_as_xyz
1 x,y,z
2 -x,1/2+y,1/2-z
3 -x,-y,-z
4 x,1/2-y,1/2+z
_cell_length_a                   12.817(7)
_cell_length_b                   13.064(8)
_cell_length_c                   19.961(11)
_cell_angle_alpha                90
_cell_angle_beta                 105.214(11)
_cell_angle_gamma                90
_cell_volume                     3225.16
_cell_formula_units_Z            4
loop_
_atom_site_label
_atom_site_type_symbol
_atom_site_fract_x
_atom_site_fract_y
_atom_site_fract_z
O1 O 1.31521(10) 0.11037(11) 0.23272(7)
O2 O 1.36561(12) 0.75471(12) 0.29194(8)
N1 N 1.28375(12) 0.24192(12) 0.13979(8)
N2 N 1.09378(12) 0.42995(13) 0.17940(8)
N3 N 1.25209(12) 0.06742(12) 0.10646(8)
N4 N 1.13476(13) 0.15185(12) 0.16310(8)
C1 C 0.97940(16) -0.14599(15) 0.03238(10)
H1 H 1.0081 -0.1199 -0.0035
C2 C 0.94005(15) 0.42032(15) 0.07540(10)
H2 H 0.9854 0.3910 0.0498
C3 C 0.76476(15) 0.47989(15) 0.08098(10)
C4 C 1.08535(15) 0.24192(15) 0.17347(9)
C5 C 1.20835(16) 0.69323(16) 0.20410(11)
H3 H 1.1948 0.7588 0.1830
C6 C 1.18329(16) -0.01462(14) 0.09035(10)
C7 C 1.24514(15) 0.50275(16) 0.26739(10)
H4 H 1.2569 0.4380 0.2898
C8 C 0.96645(16) -0.14257(15) 0.14988(10)
H5 H 0.9870 -0.1144 0.1953
C9 C 1.08963(15) -0.01721(14) 0.11461(10)
C10 C 1.06216(15) 0.07342(14) 0.14657(9)
C11 C 0.96108(15) 0.11299(15) 0.15308(10)
H6 H 0.8958 0.0754 0.1472
C12 C 1.37443(15) 0.16602(15) 0.05996(10)
C13 C 1.23876(15) 0.33416(15) 0.14956(10)
C14 C 1.31907(15) 0.07396(15) 0.06326(10)
C15 C 0.97537(15) 0.21515(15) 0.16940(10)
H7 H 0.9214 0.2604 0.1768
C16 C 1.29428(16) 0.67944(16) 0.26191(11)
C17 C 0.91618(16) 0.49468(15) 0.18010(10)
H8 H 0.9459 0.5160 0.2267
C18 C 1.01145(15) -0.10310(15) 0.09901(9)
C19 C 1.53888(16) 0.23369(16) 0.03108(11)
H9 H 1.5666 0.2525 0.0784
C20 C 1.16018(15) 0.51515(15) 0.20777(10)
C21 C 0.80751(16) 0.51093(15) 0.14930(10)
H10 H 0.7629 0.5428 0.1744
C22 C 0.83134(16) 0.43576(15) 0.04410(10)
H11 H 0.8020 0.4161 -0.0029
C23 C 1.59679(17) 0.25717(16) -0.01672(12)
H12 H 1.6639 0.2921 -0.0017
C24 C 1.46126(18) 0.17812(17) -0.10738(12)
H13 H 1.4351 0.1582 -0.1546
C25 C 0.86265(16) -0.26406(16) 0.06947(11)
H14 H 0.8123 -0.3189 0.0593
C26 C 0.98273(15) 0.44802(15) 0.14460(10)
C27 C 1.40184(17) 0.15445(16) -0.06002(11)
H15 H 1.3350 0.1191 -0.0753
C28 C 1.14165(15) 0.61089(15) 0.17690(10)
H16 H 1.0830 0.6204 0.1369
C29 C 1.30115(17) -0.01858(16) 0.02277(11)
H17 H 1.3394 -0.0389 -0.0099
C30 C 1.43998(16) 0.18241(14) 0.00979(10)
C31 C 0.89215(16) -0.22222(15) 0.13568(11)
H18 H 0.8618 -0.2478 0.1709
C32 C 1.35718(16) 0.35983(15) 0.08478(10)
H19 H 1.4011 0.3913 0.0590
C33 C 1.29004(15) 0.40946(15) 0.11732(10)
H20 H 1.2795 0.4814 0.1183
C34 C 1.31186(16) 0.58369(16) 0.29382(11)
H21 H 1.3702 0.5744 0.3340
C35 C 1.34952(15) 0.25247(15) 0.09639(10)
C36 C 1.14120(15) 0.33528(15) 0.17097(9)
C37 C 1.42853(16) 0.10630(19) 0.24073(12)
H22 H 1.4444 0.0553 0.2088
H23 H 1.4651 0.0872 0.2886
H24 H 1.4542 0.1736 0.2304
C38 C 1.22023(16) -0.07201(15) 0.03913(11)
H25 H 1.1926 -0.1362 0.0201
C39 C 1.55816(18) 0.23051(17) -0.08575(12)
H26 H 1.5978 0.2480 -0.1182
C40 C 0.90642(16) -0.22590(16) 0.01854(10)
H27 H 0.8862 -0.2549 -0.0267
B1 B 1.25154(17) 0.14153(17) 0.16483(12)
C41 C 1.3549(2) 0.85155(18) 0.25820(13)
H28 H 1.3582 0.8425 0.2101
H29 H 1.4138 0.8966 0.2826
H30 H 1.2854 0.8822 0.2587
O3 O 0.65833(11) 0.49170(11) 0.04580(7)
C42 C 0.59172(17) 0.54396(18) 0.08157(12)
H31 H 0.5856 0.5030 0.1215
H32 H 0.5197 0.5543 0.0501
H33 H 0.6240 0.6105 0.0977
loop_
_geom_bond_atom_site_label_1
_geom_bond_atom_site_label_2
_geom_bond_site_symmetry_1
_geom_bond_site_symmetry_2
O1 C37 1_555 1_555
O2 C16 1_555 1_555
N1 C13 1_555 1_555
N2 C20 1_555 1_555
N3 C6 1_555 1_555
N4 C4 1_555 1_555
C1 H1 1_555 1_555
C2 H2 1_555 1_555
C3 C21 1_555 1_555
C4 C15 1_555 1_555
C5 H3 1_555 1_555
C6 C9 1_555 1_555
C7 H4 1_555 1_555
C8 H5 1_555 1_555
C9 C10 1_555 1_555
C10 N4 1_555 1_555
C11 C10 1_555 1_555
H6 C11 1_555 1_555
C12 C14 1_555 1_555
C13 C33 1_555 1_555
C14 N3 1_555 1_555
C15 C11 1_555 1_555
H7 C15 1_555 1_555
C16 C5 1_555 1_555
C17 H8 1_555 1_555
C18 C1 1_555 1_555
C19 H9 1_555 1_555
C20 C7 1_555 1_555
C21 C17 1_555 1_555
H10 C21 1_555 1_555
C22 C2 1_555 1_555
H11 C22 1_555 1_555
C23 C19 1_555 1_555
H12 C23 1_555 1_555
C24 H13 1_555 1_555
C25 H14 1_555 1_555
C26 N2 1_555 1_555
C27 C24 1_555 1_555
H15 C27 1_555 1_555
C28 C5 1_555 1_555
H16 C28 1_555 1_555
C29 C14 1_555 1_555
H17 C29 1_555 1_555
C30 C12 1_555 1_555
C31 C8 1_555 1_555
H18 C31 1_555 1_555
C32 H19 1_555 1_555
C33 C32 1_555 1_555
H20 C33 1_555 1_555
C34 C7 1_555 1_555
H21 C34 1_555 1_555
C35 N1 1_555 1_555
C36 N2 1_555 1_555
C37 H22 1_555 1_555
H23 C37 1_555 1_555
H24 C37 1_555 1_555
C38 C6 1_555 1_555
H25 C38 1_555 1_555
C39 C23 1_555 1_555
H26 C39 1_555 1_555
C40 C1 1_555 1_555
H27 C40 1_555 1_555
B1 O1 1_555 1_555
C41 O2 1_555 1_555
H28 C41 1_555 1_555
H29 C41 1_555 1_555
H30 C41 1_555 1_555
O3 C3 1_555 1_555
C42 O3 1_555 1_555
H31 C42 1_555 1_555
H32 C42 1_555 1_555
H33 C42 1_555 1_555
N1 B1 1_555 1_555
N3 B1 1_555 1_555
N4 B1 1_555 1_555
C2 C26 1_555 1_555
C3 C22 1_555 1_555
C4 C36 1_555 1_555
C8 C18 1_555 1_555
C9 C18 1_555 1_555
C12 C35 1_555 1_555
C13 C36 1_555 1_555
C16 C34 1_555 1_555
C17 C26 1_555 1_555
C19 C30 1_555 1_555
C20 C28 1_555 1_555
C24 C39 1_555 1_555
C25 C31 1_555 1_555
C25 C40 1_555 1_555
C27 C30 1_555 1_555
C29 C38 1_555 1_555
C32 C35 1_555 1_555

#END
