
#######################################################################
#
#                 Cambridge Crystallographic Data Centre
#                                CCDC 
#
#######################################################################
#
# If this CIF has been generated from an entry in the Cambridge 
# Structural Database, then it will include bibliographic, chemical, 
# crystal, experimental, refinement or atomic coordinate data resulting 
# from the CCDC's data processing and validation procedures.
#
#######################################################################

data_JOTVAR
_chemical_formula_moiety         
'C36 H25 B1 N4 O1,1.31(C1 H4 O1),0.22(C1 H2 Cl2)'
_chemical_name_systematic        
'(12-(1H-indol-1-yl)-2,7-diphenyl-16,17,18-triazatetracyclo[11.2.1.1^3,6^.1^8,11^]octadeca-1(16),2,4,6,8,10,12,14-octaenato)(methanolato)boron methanol dichloromethane solvate'
_symmetry_cell_setting           monoclinic
_symmetry_space_group_name_H-M   'P 21/c'
_symmetry_Int_Tables_number      14
_space_group_name_Hall           '-P 2ybc'
loop_
_symmetry_equiv_pos_site_id
_symmetry_equiv_pos_as_xyz
1 x,y,z
2 -x,1/2+y,1/2-z
3 -x,-y,-z
4 x,1/2-y,1/2+z
_cell_length_a                   15.197(4)
_cell_length_b                   14.058(3)
_cell_length_c                   15.292(4)
_cell_angle_alpha                90
_cell_angle_beta                 116.050(4)
_cell_angle_gamma                90
_cell_volume                     2935.09
_cell_formula_units_Z            4
loop_
_atom_site_label
_atom_site_type_symbol
_atom_site_fract_x
_atom_site_fract_y
_atom_site_fract_z
O2 O 0.5325(3) 0.5253(3) 0.4613(3)
C39 C 0.4928(18) 0.509(4) 0.3502(15)
C40 C 0.3724(2) 0.4336(3) 0.3062(2)
O3 O 0.4258(8) 0.4119(8) 0.3949(14)
N1 N 0.20486(16) 0.81160(17) 0.13000(14)
N2 N 0.24326(17) 0.64767(17) 0.12160(15)
N3 N 0.04836(17) 0.66393(17) 0.20371(15)
N4 N 0.29537(17) 0.76543(17) 0.04301(15)
O1 O 0.37280(15) 0.75804(19) 0.22413(14)
C1 C 0.2820(2) 0.8529(2) 0.00025(18)
C2 C -0.0204(2) 0.5920(2) 0.1616(2)
H1 H -0.0254 0.5537 0.1084
C3 C 0.1043(2) 0.9370(2) 0.09663(18)
H2 H 0.0774 0.9987 0.0774
C4 C 0.32280(19) 0.6984(2) -0.00486(18)
C5 C 0.0318(2) 0.7049(2) 0.27853(18)
C6 C 0.1329(2) 0.7866(2) 0.15663(17)
C7 C 0.2661(2) 0.5773(2) 0.07327(18)
C8 C 0.1744(2) 0.6183(2) 0.15087(18)
C9 C 0.0711(2) 0.8685(2) 0.13876(18)
H3 H 0.0168 0.8743 0.1535
C10 C 0.0427(2) 0.8063(2) 0.4065(2)
H4 H 0.0734 0.8572 0.4502
C11 C 0.2325(2) 0.9245(2) 0.02625(18)
C12 C 0.0781(2) 0.7793(2) 0.34096(18)
H5 H 0.1325 0.8109 0.3389
C13 C 0.3383(2) 0.7505(2) -0.07833(19)
H6 H 0.3616 0.7246 -0.1216
C14 C 0.1770(2) 1.0373(2) -0.1159(2)
H7 H 0.1515 0.9852 -0.1594
C15 C 0.1871(2) 0.8988(2) 0.08668(18)
C16 C 0.2199(2) 1.0215(2) -0.01584(19)
C17 C -0.0378(2) 0.7598(2) 0.4099(2)
H8 H -0.0609 0.7800 0.4554
C18 C -0.0792(2) 0.5843(2) 0.2071(2)
H9 H -0.1308 0.5398 0.1924
C19 C 0.2153(2) 0.4942(2) 0.08058(19)
H10 H 0.2190 0.4328 0.0563
C20 C 0.1225(2) 0.6898(2) 0.17530(17)
C21 C -0.0832(2) 0.6855(2) 0.3481(2)
H11 H -0.1376 0.6545 0.3505
C22 C -0.0488(2) 0.6559(2) 0.2817(2)
C23 C 0.3137(2) 0.8431(2) -0.07504(19)
H12 H 0.3170 0.8928 -0.1156
C24 C 0.2073(2) 1.2054(2) -0.0908(2)
H13 H 0.2041 1.2674 -0.1167
C25 C 0.3438(2) 0.5234(2) -0.0326(2)
C26 C 0.3141(2) 0.6009(2) 0.01415(18)
C27 C 0.3247(2) 0.5269(3) -0.1306(2)
H14 H 0.2914 0.5802 -0.1691
C28 C 0.1712(2) 1.1281(2) -0.1523(2)
H15 H 0.1419 1.1377 -0.2207
C29 C 0.1603(2) 0.5182(2) 0.12873(19)
H16 H 0.1203 0.4763 0.1445
C30 C 0.2531(3) 1.1008(2) 0.0450(2)
H17 H 0.2799 1.0920 0.1134
C31 C 0.3919(2) 0.4435(3) 0.0218(2)
H18 H 0.4055 0.4397 0.0885
B1 B 0.2846(2) 0.7459(2) 0.1352(2)
C32 C 0.2480(3) 1.1915(3) 0.0084(2)
H19 H 0.2725 1.2440 0.0514
C33 C 0.4202(3) 0.3696(3) -0.0207(3)
H20 H 0.4530 0.3158 0.0172
C34 C 0.3539(3) 0.4534(3) -0.1718(3)
H21 H 0.3417 0.4574 -0.2382
C35 C 0.4007(3) 0.3739(3) -0.1178(3)
H22 H 0.4191 0.3230 -0.1472
C36 C 0.4516(5) 0.7039(7) 0.2524(5)
H23 H 0.4669 0.6930 0.1973
H24 H 0.4393 0.6429 0.2759
H25 H 0.5069 0.7359 0.3049
C37? C 0.4401(6) 0.8190(6) 0.2332(5)
H26? H 0.4559 0.8131 0.1778
H27? H 0.4989 0.8066 0.2938
H28? H 0.4164 0.8835 0.2349
Cl1? Cl 0.4681(3) 0.5569(3) 0.2995(2)
Cl2? Cl 0.3746(6) 0.3590(7) 0.2688(7)
C38? C 0.4880(13) 0.4271(11) 0.317(2)
H29? H 0.5288 0.4057 0.2854
H30? H 0.5247 0.4138 0.3879
loop_
_geom_bond_atom_site_label_1
_geom_bond_atom_site_label_2
_geom_bond_site_symmetry_1
_geom_bond_site_symmetry_2
N1 C6 1_555 1_555
N2 C7 1_555 1_555
N3 C2 1_555 1_555
N4 C1 1_555 1_555
O1 B1 1_555 1_555
C1 C11 1_555 1_555
C2 H1 1_555 1_555
C3 H2 1_555 1_555
C4 N4 1_555 1_555
C5 N3 1_555 1_555
C6 C9 1_555 1_555
C7 C19 1_555 1_555
C8 N2 1_555 1_555
C9 C3 1_555 1_555
H3 C9 1_555 1_555
C10 H4 1_555 1_555
C11 C15 1_555 1_555
C12 C5 1_555 1_555
H5 C12 1_555 1_555
C13 C4 1_555 1_555
H6 C13 1_555 1_555
C14 H7 1_555 1_555
C15 N1 1_555 1_555
C16 C11 1_555 1_555
C17 C10 1_555 1_555
H8 C17 1_555 1_555
C18 C2 1_555 1_555
H9 C18 1_555 1_555
C19 H10 1_555 1_555
C20 N3 1_555 1_555
C21 C17 1_555 1_555
H11 C21 1_555 1_555
C22 C5 1_555 1_555
C23 C1 1_555 1_555
H12 C23 1_555 1_555
C24 H13 1_555 1_555
C25 C26 1_555 1_555
C26 C4 1_555 1_555
C27 C25 1_555 1_555
H14 C27 1_555 1_555
C28 C14 1_555 1_555
H15 C28 1_555 1_555
C29 C8 1_555 1_555
H16 C29 1_555 1_555
C30 C16 1_555 1_555
H17 C30 1_555 1_555
C31 C25 1_555 1_555
H18 C31 1_555 1_555
B1 N1 1_555 1_555
C32 C24 1_555 1_555
H19 C32 1_555 1_555
C33 C31 1_555 1_555
H20 C33 1_555 1_555
C34 C27 1_555 1_555
H21 C34 1_555 1_555
C35 C33 1_555 1_555
H22 C35 1_555 1_555
C36 O1 1_555 1_555
H23 C36 1_555 1_555
H24 C36 1_555 1_555
H25 C36 1_555 1_555
O2 C39 1_555 1_555
C40 O3 1_555 1_555
N2 B1 1_555 1_555
N4 B1 1_555 1_555
C3 C15 1_555 1_555
C6 C20 1_555 1_555
C7 C26 1_555 1_555
C8 C20 1_555 1_555
C10 C12 1_555 1_555
C13 C23 1_555 1_555
C14 C16 1_555 1_555
C18 C22 1_555 1_555
C19 C29 1_555 1_555
C21 C22 1_555 1_555
C24 C28 1_555 1_555
C30 C32 1_555 1_555
C34 C35 1_555 1_555

#END
