
#######################################################################
#
#                 Cambridge Crystallographic Data Centre
#                                CCDC 
#
#######################################################################
#
# If this CIF has been generated from an entry in the Cambridge 
# Structural Database, then it will include bibliographic, chemical, 
# crystal, experimental, refinement or atomic coordinate data resulting 
# from the CCDC's data processing and validation procedures.
#
#######################################################################

data_JOVHAF
_chemical_formula_moiety         'C32 H28 N3 O4 S1 1+,Br1 1-'
_chemical_name_systematic        
'1-(2-(4-Methoxyphenyl)-2-oxoethyl)-3-((1-((4-methylphenyl)sulfonyl)-1H-indol-3-yl)methyl)-1H-3,1-benzimidazol-3-ium bromide'
_symmetry_cell_setting           monoclinic
_symmetry_space_group_name_H-M   'P 21/c'
_symmetry_Int_Tables_number      14
_space_group_name_Hall           '-P 2ybc'
loop_
_symmetry_equiv_pos_site_id
_symmetry_equiv_pos_as_xyz
1 x,y,z
2 -x,1/2+y,1/2-z
3 -x,-y,-z
4 x,1/2-y,1/2+z
_cell_length_a                   17.001(2)
_cell_length_b                   8.5972(12)
_cell_length_c                   21.547(2)
_cell_angle_alpha                90
_cell_angle_beta                 113.506(8)
_cell_angle_gamma                90
_cell_volume                     2887.99
_exptl_crystal_colour            colorless
_exptl_crystal_description       block
_cell_formula_units_Z            4
loop_
_atom_site_label
_atom_site_type_symbol
_atom_site_fract_x
_atom_site_fract_y
_atom_site_fract_z
Br1 Br 0.07312(3) 0.29080(5) 0.46300(2)
N1 N 0.33871(18) -0.1264(3) 0.30298(14)
N2 N 0.07476(17) 0.0952(3) 0.17649(15)
N3 N 0.00396(17) 0.2853(4) 0.11119(14)
O1 O 0.38142(17) -0.2719(3) 0.41014(13)
O2 O 0.49298(15) -0.1389(3) 0.38235(12)
O3 O -0.16821(16) 0.2597(3) 0.06961(14)
O4 O -0.37724(16) 0.4445(3) -0.23751(13)
S1 S 0.41000(6) -0.14148(13) 0.38379(5)
C1 C 0.3324(3) 0.4550(6) 0.4944(2)
H1 H 0.3780 0.4817 0.5368
H2 H 0.2801 0.4424 0.5008
H3 H 0.3255 0.5364 0.4621
C2 C 0.3539(3) 0.3052(5) 0.46856(18)
C3 C 0.4229(3) 0.2957(5) 0.44987(19)
H4 H 0.4567 0.3832 0.4538
C4 C 0.4426(3) 0.1595(5) 0.42553(19)
H5 H 0.4886 0.1553 0.4126
C5 C 0.3929(2) 0.0293(4) 0.42065(17)
C6 C 0.3245(2) 0.0361(5) 0.44009(18)
H6 H 0.2915 -0.0521 0.4371
C7 C 0.3055(3) 0.1727(5) 0.46374(19)
H7 H 0.2595 0.1765 0.4767
C8 C 0.2508(2) -0.1428(4) 0.28750(18)
H8 H 0.2278 -0.1990 0.3131
C9 C 0.2047(2) -0.0654(4) 0.23029(18)
C10 C 0.2645(2) 0.0105(4) 0.20760(17)
C11 C 0.3474(2) -0.0269(4) 0.25450(17)
C12 C 0.4204(3) 0.0282(5) 0.24832(19)
H9 H 0.4748 0.0013 0.2794
C13 C 0.4092(3) 0.1239(5) 0.1946(2)
H10 H 0.4573 0.1631 0.1895
C14 C 0.3282(3) 0.1642(5) 0.1475(2)
H11 H 0.3230 0.2316 0.1123
C15 C 0.2555(3) 0.1051(5) 0.15243(19)
H12 H 0.2014 0.1278 0.1196
C16 C 0.1086(2) -0.0628(4) 0.1967(2)
H13 H 0.0898 -0.1291 0.1570
H14 H 0.0853 -0.1048 0.2276
C17 C 0.0249(2) 0.1362(5) 0.11400(19)
H15 H 0.0069 0.0694 0.0770
C18 C 0.0419(2) 0.3473(4) 0.17609(18)
C19 C 0.0877(2) 0.2261(4) 0.21798(17)
C20 C 0.1332(2) 0.2483(4) 0.28685(19)
H16 H 0.1637 0.1680 0.3151
C21 C 0.1310(2) 0.3956(5) 0.3113(2)
H17 H 0.1606 0.4147 0.3573
C22 C 0.0860(2) 0.5169(5) 0.2693(2)
H18 H 0.0869 0.6147 0.2879
C23 C 0.0400(2) 0.4962(4) 0.20076(19)
H19 H 0.0096 0.5769 0.1727
C24 C -0.0512(2) 0.3626(4) 0.04927(17)
H20 H -0.0334 0.3341 0.0132
H21 H -0.0445 0.4743 0.0556
C25 C -0.1449(2) 0.3205(4) 0.02839(19)
C26 C -0.2032(2) 0.3545(4) -0.04231(18)
C27 C -0.1772(2) 0.4352(5) -0.0862(2)
H22 H -0.1207 0.4691 -0.0711
C28 C -0.2329(2) 0.4669(5) -0.15211(19)
H23 H -0.2138 0.5211 -0.1808
C29 C -0.3165(2) 0.4178(4) -0.17474(19)
C30 C -0.3432(2) 0.3335(5) -0.1318(2)
H24 H -0.3993 0.2968 -0.1474
C31 C -0.2881(2) 0.3042(5) -0.0669(2)
H25 H -0.3075 0.2496 -0.0385
C32 C -0.3560(3) 0.5385(5) -0.2827(2)
H26 H -0.3400 0.6405 -0.2637
H27 H -0.4048 0.5462 -0.3251
H28 H -0.3090 0.4924 -0.2900
loop_
_geom_bond_atom_site_label_1
_geom_bond_atom_site_label_2
_geom_bond_site_symmetry_1
_geom_bond_site_symmetry_2
N1 S1 1_555 1_555
N2 C16 1_555 1_555
N3 C17 1_555 1_555
O1 S1 1_555 1_555
O2 S1 1_555 1_555
O3 C25 1_555 1_555
O4 C29 1_555 1_555
S1 C5 1_555 1_555
C1 H1 1_555 1_555
H2 C1 1_555 1_555
H3 C1 1_555 1_555
C2 C1 1_555 1_555
C3 C2 1_555 1_555
H4 C3 1_555 1_555
C4 C3 1_555 1_555
H5 C4 1_555 1_555
C5 C4 1_555 1_555
C6 C5 1_555 1_555
H6 C6 1_555 1_555
C7 C2 1_555 1_555
H7 C7 1_555 1_555
C8 N1 1_555 1_555
H8 C8 1_555 1_555
C9 C8 1_555 1_555
C10 C9 1_555 1_555
C11 N1 1_555 1_555
C12 C11 1_555 1_555
H9 C12 1_555 1_555
C13 C12 1_555 1_555
H10 C13 1_555 1_555
C14 C13 1_555 1_555
H11 C14 1_555 1_555
C15 C10 1_555 1_555
H12 C15 1_555 1_555
C16 C9 1_555 1_555
H13 C16 1_555 1_555
H14 C16 1_555 1_555
C17 N2 1_555 1_555
H15 C17 1_555 1_555
C18 N3 1_555 1_555
C19 N2 1_555 1_555
C20 C19 1_555 1_555
H16 C20 1_555 1_555
C21 C20 1_555 1_555
H17 C21 1_555 1_555
C22 C21 1_555 1_555
H18 C22 1_555 1_555
C23 C18 1_555 1_555
H19 C23 1_555 1_555
C24 N3 1_555 1_555
H20 C24 1_555 1_555
H21 C24 1_555 1_555
C25 C24 1_555 1_555
C26 C25 1_555 1_555
C27 C26 1_555 1_555
H22 C27 1_555 1_555
C28 C27 1_555 1_555
H23 C28 1_555 1_555
C29 C28 1_555 1_555
C30 C29 1_555 1_555
H24 C30 1_555 1_555
C31 C26 1_555 1_555
H25 C31 1_555 1_555
C32 O4 1_555 1_555
H26 C32 1_555 1_555
H27 C32 1_555 1_555
H28 C32 1_555 1_555
C6 C7 1_555 1_555
C10 C11 1_555 1_555
C14 C15 1_555 1_555
C18 C19 1_555 1_555
C22 C23 1_555 1_555
C30 C31 1_555 1_555

#END
