
#######################################################################
#
#                 Cambridge Crystallographic Data Centre
#                                CCDC 
#
#######################################################################
#
# If this CIF has been generated from an entry in the Cambridge 
# Structural Database, then it will include bibliographic, chemical, 
# crystal, experimental, refinement or atomic coordinate data resulting 
# from the CCDC's data processing and validation procedures.
#
#######################################################################

data_JOWBOO
_chemical_formula_moiety         'C26 H31 Br1 N2 O3'
_chemical_name_systematic        
3-(4-bromophenyl)-N-t-butyl-3-hydroxy-5-methyl-6-oxo-4-phenyl-1-propyl-1,2,3,6-tetrahydropyridine-2-carboxamide
_symmetry_cell_setting           triclinic
_symmetry_space_group_name_H-M   'P -1'
_symmetry_Int_Tables_number      2
_space_group_name_Hall           '-P 1'
loop_
_symmetry_equiv_pos_site_id
_symmetry_equiv_pos_as_xyz
1 x,y,z
2 -x,-y,-z
_cell_length_a                   9.6121(18)
_cell_length_b                   11.761(2)
_cell_length_c                   13.648(3)
_cell_angle_alpha                98.331(3)
_cell_angle_beta                 109.571(3)
_cell_angle_gamma                113.637(3)
_cell_volume                     1260.19
_exptl_crystal_colour            colorless
_exptl_crystal_description       block
_cell_formula_units_Z            2
loop_
_atom_site_label
_atom_site_type_symbol
_atom_site_fract_x
_atom_site_fract_y
_atom_site_fract_z
Br1 Br 0.03084(5) 0.15685(3) 0.30652(3)
C1 C 0.1210(4) 0.3152(2) 0.2752(2)
C2 C 0.0309(3) 0.3260(3) 0.1789(2)
H1 H -0.0754 0.2574 0.1302
C3 C 0.0997(3) 0.4405(2) 0.1545(2)
H2 H 0.0387 0.4484 0.0892
C4 C 0.2586(3) 0.5436(2) 0.22647(17)
C5 C 0.3453(3) 0.5287(2) 0.32352(19)
H3 H 0.4517 0.5965 0.3729
C6 C 0.2769(3) 0.4153(3) 0.3482(2)
H4 H 0.3362 0.4069 0.4138
C7 C 0.3288(3) 0.6669(2) 0.19466(16)
C8 C 0.5210(3) 0.7451(2) 0.25468(17)
C9 C 0.6165(3) 0.7144(2) 0.19858(19)
C10 C 0.7246(4) 0.8080(3) 0.1717(2)
H5 H 0.7397 0.8928 0.1890
C11 C 0.8121(4) 0.7766(4) 0.1185(3)
H6 H 0.8857 0.8408 0.1010
C12 C 0.7903(4) 0.6521(4) 0.0921(3)
H7 H 0.8495 0.6316 0.0573
C13 C 0.6827(5) 0.5597(4) 0.1169(3)
H8 H 0.6667 0.4747 0.0978
C14 C 0.5958(4) 0.5880(3) 0.1698(3)
H9 H 0.5227 0.5225 0.1865
C15 C 0.5949(3) 0.8349(2) 0.35457(17)
C16 C 0.4887(3) 0.8459(2) 0.41133(17)
C17 C 0.2629(3) 0.7601(2) 0.22695(17)
H10 H 0.1398 0.7085 0.1955
C18 C 0.7820(3) 0.9165(3) 0.4241(2)
H11 H 0.8393 0.8789 0.3970
H12 H 0.8073 0.9185 0.4988
H13 H 0.8186 1.0042 0.4210
C19 C 0.4273(4) 1.1108(3) 0.2030(2)
C20 C 0.5118(7) 1.2311(3) 0.3041(3)
H14 H 0.4350 1.2249 0.3360
H15 H 0.5426 1.3087 0.2829
H16 H 0.6110 1.2354 0.3569
C21 C 0.2706(6) 1.1048(4) 0.1210(4)
H17 H 0.2253 1.0368 0.0532
H18 H 0.2989 1.1875 0.1081
H19 H 0.1882 1.0862 0.1497
C22 C 0.5467(7) 1.1150(5) 0.1537(5)
H20 H 0.6443 1.1181 0.2072
H21 H 0.5803 1.1917 0.1314
H22 H 0.4917 1.0380 0.0909
C23 C 0.2045(3) 0.7969(3) 0.3923(2)
H23 H 0.1304 0.8272 0.3513
H24 H 0.2659 0.8547 0.4678
C24 C 0.0992(4) 0.6595(3) 0.3892(3)
H25 H 0.1727 0.6285 0.4295
H26 H 0.0359 0.6017 0.3136
C25 C -0.0224(5) 0.6542(4) 0.4388(4)
H27 H 0.0400 0.7106 0.5139
H28 H -0.0867 0.5658 0.4361
H29 H -0.0972 0.6828 0.3979
C26 C 0.3046(3) 0.8724(3) 0.17700(19)
N1 N 0.3251(2) 0.80568(18) 0.34615(14)
O1 O 0.2715(2) 0.62403(16) 0.07946(12)
H30 H 0.2685 0.6834 0.0555
O2 O 0.5492(2) 0.88734(18) 0.51186(13)
O3 O 0.2649(4) 0.8416(2) 0.07768(15)
N2 N 0.3786(3) 0.9952(2) 0.24148(17)
H31 H 0.3998 1.0088 0.3098
loop_
_geom_bond_atom_site_label_1
_geom_bond_atom_site_label_2
_geom_bond_site_symmetry_1
_geom_bond_site_symmetry_2
Br1 C1 1_555 1_555
C1 C2 1_555 1_555
C2 H1 1_555 1_555
C3 C2 1_555 1_555
H2 C3 1_555 1_555
C4 C3 1_555 1_555
C5 C4 1_555 1_555
H3 C5 1_555 1_555
C6 C1 1_555 1_555
H4 C6 1_555 1_555
C7 C4 1_555 1_555
C8 C7 1_555 1_555
C9 C8 1_555 1_555
C10 C9 1_555 1_555
H5 C10 1_555 1_555
C11 C10 1_555 1_555
H6 C11 1_555 1_555
C12 C11 1_555 1_555
H7 C12 1_555 1_555
C13 C12 1_555 1_555
H8 C13 1_555 1_555
C14 C9 1_555 1_555
H9 C14 1_555 1_555
C15 C8 1_555 1_555
C16 C15 1_555 1_555
C17 C7 1_555 1_555
H10 C17 1_555 1_555
C18 C15 1_555 1_555
H11 C18 1_555 1_555
H12 C18 1_555 1_555
H13 C18 1_555 1_555
C19 C20 1_555 1_555
C20 H14 1_555 1_555
H15 C20 1_555 1_555
H16 C20 1_555 1_555
C21 C19 1_555 1_555
H17 C21 1_555 1_555
H18 C21 1_555 1_555
H19 C21 1_555 1_555
C22 C19 1_555 1_555
H20 C22 1_555 1_555
H21 C22 1_555 1_555
H22 C22 1_555 1_555
C23 H23 1_555 1_555
H24 C23 1_555 1_555
C24 C23 1_555 1_555
H25 C24 1_555 1_555
H26 C24 1_555 1_555
C25 C24 1_555 1_555
H27 C25 1_555 1_555
H28 C25 1_555 1_555
H29 C25 1_555 1_555
C26 C17 1_555 1_555
N1 C16 1_555 1_555
O1 C7 1_555 1_555
H30 O1 1_555 1_555
O2 C16 1_555 1_555
O3 C26 1_555 1_555
N2 C19 1_555 1_555
H31 N2 1_555 1_555
C5 C6 1_555 1_555
C13 C14 1_555 1_555
C17 N1 1_555 1_555
C23 N1 1_555 1_555
C26 N2 1_555 1_555

#END
