
#######################################################################
#
#                 Cambridge Crystallographic Data Centre
#                                CCDC 
#
#######################################################################
#
# If this CIF has been generated from an entry in the Cambridge 
# Structural Database, then it will include bibliographic, chemical, 
# crystal, experimental, refinement or atomic coordinate data resulting 
# from the CCDC's data processing and validation procedures.
#
#######################################################################

data_JOWGAF01
_chemical_name_common            'dipropylammonium picrate'
_chemical_formula_moiety         'C6 H16 N1 1+,C6 H2 N3 O7 1-'
_chemical_name_systematic        
'N-propylpropan-1-aminium 2,4,6-trinitrophenolate'
_symmetry_cell_setting           monoclinic
_symmetry_space_group_name_H-M   'P 21/c'
_symmetry_Int_Tables_number      14
_space_group_name_Hall           '-P 2ybc'
loop_
_symmetry_equiv_pos_site_id
_symmetry_equiv_pos_as_xyz
1 x,y,z
2 -x,1/2+y,1/2-z
3 -x,-y,-z
4 x,1/2-y,1/2+z
_cell_length_a                   8.1591(2)
_cell_length_b                   20.4008(3)
_cell_length_c                   9.8195(2)
_cell_angle_alpha                90
_cell_angle_beta                 98.376(2)
_cell_angle_gamma                90
_cell_volume                     1617.04
_exptl_crystal_colour            yellow
_exptl_crystal_description       block
_cell_formula_units_Z            4
loop_
_atom_site_label
_atom_site_type_symbol
_atom_site_fract_x
_atom_site_fract_y
_atom_site_fract_z
C1 C 0.2101(3) 0.52216(10) 0.5455(2)
O1 O 0.1223(3) 0.62203(9) 0.6139(3)
O2 O 0.0912(3) 0.53864(13) 0.7397(2)
C2 C 0.2789(3) 0.41597(9) 0.4725(2)
C3 C 0.3436(2) 0.51160(10) 0.34794(19)
N1 N 0.1376(3) 0.56360(11) 0.6396(2)
O3 O 0.4445(2) 0.40729(9) 0.29203(19)
C4 C 0.2115(3) 0.45477(11) 0.5633(2)
H1 H 0.1665 0.4359 0.6370
C5 C 0.2741(2) 0.55061(10) 0.4367(2)
H2 H 0.2697 0.5963 0.4240
C6 C 0.3604(2) 0.44088(10) 0.3618(2)
O4 O 0.2417(3) 0.32427(9) 0.6016(2)
N2 N 0.4070(2) 0.54485(10) 0.23574(19)
N3 N 0.2704(3) 0.34554(10) 0.4915(2)
O5 O 0.4378(3) 0.60284(9) 0.2457(2)
O6 O 0.2860(5) 0.30923(10) 0.3933(3)
O7 O 0.4227(5) 0.51522(12) 0.1336(3)
N4 N 0.3928(4) 0.31743(14) 0.0882(3)
H3 H 0.3940 0.3375 0.1711
H4 H 0.3458 0.2772 0.0940
C7 C 0.2860(5) 0.35602(14) -0.0167(3)
C8 C 0.5627(6) 0.30818(17) 0.0648(4)
C9 C 0.8168(7) 0.2486(2) 0.1575(6)
C10 C 0.6525(6) 0.2653(2) 0.1737(5)
H5 H 0.6550 0.2874 0.2627
H6 H 0.5891 0.2247 0.1772
C11 C 0.1176(6) 0.3641(3) 0.0152(5)
H7 H 0.1244 0.3852 0.1055
H8 H 0.0696 0.3205 0.0230
C12 C -0.0002(6) 0.4037(3) -0.0871(5)
H9 H 0.0012 0.4513 -0.0979
H10 H -0.1337 0.4031 -0.0537
H11 H -0.0344 0.3834 -0.1747
H12 H 0.5701 0.2897 -0.0165
H13 H 0.6105 0.3442 0.0572
H14 H 0.8256 0.2322 0.0637
H15 H 0.9202 0.2778 0.1604
H16 H 0.8398 0.2171 0.2321
H17 H 0.3144 0.3396 -0.1218
H18 H 0.3258 0.4029 -0.0546
O8? O 0.415(3) 0.3176(11) 0.473(3)
N5? N 0.4456(9) 0.3693(3) 0.0411(6)
H19? H 0.4433 0.3893 0.1236
H20? H 0.4898 0.3982 -0.0141
C13? C 0.1648(15) 0.4105(5) -0.0218(10)
H21? H 0.1597 0.4234 0.0736
H22? H 0.2124 0.4477 -0.0657
H23? H -0.0318 0.3738 -0.1578
H24? H -0.0646 0.4464 -0.1307
H25? H -0.1107 0.3962 -0.0272
C14? C 0.7381(5) 0.30943(12) 0.1123(3)
H26? H 0.7934 0.3267 0.0376
H27? H 0.7583 0.3407 0.1887
H28? H 0.5162 0.2786 0.1213
H29? H 0.2366 0.3319 0.0232
loop_
_geom_bond_atom_site_label_1
_geom_bond_atom_site_label_2
_geom_bond_site_symmetry_1
_geom_bond_site_symmetry_2
C1 N1 1_555 1_555
O1 N1 1_555 1_555
O2 N1 1_555 1_555
C2 C4 1_555 1_555
C3 C5 1_555 1_555
O3 C6 1_555 1_555
C4 C1 1_555 1_555
H1 C4 1_555 1_555
C5 C1 1_555 1_555
H2 C5 1_555 1_555
C6 C2 1_555 1_555
O4 N3 1_555 1_555
N2 C3 1_555 1_555
N3 C2 1_555 1_555
O5 N2 1_555 1_555
O6 N3 1_555 1_555
O7 N2 1_555 1_555
N4 H3 1_555 1_555
H4 N4 1_555 1_555
C7 N4 1_555 1_555
C8 N4 1_555 1_555
C9 C10 1_555 1_555
C10 C8 1_555 1_555
H5 C10 1_555 1_555
H6 C10 1_555 1_555
C11 C7 1_555 1_555
H7 C11 1_555 1_555
H8 C11 1_555 1_555
C12 C11 1_555 1_555
H9 C12 1_555 1_555
H10 C12 1_555 1_555
H11 C12 1_555 1_555
H12 C8 1_555 1_555
H13 C8 1_555 1_555
H14 C9 1_555 1_555
H15 C9 1_555 1_555
H16 C9 1_555 1_555
H17 C7 1_555 1_555
H18 C7 1_555 1_555
C3 C6 1_555 1_555

#END
