
#######################################################################
#
#                 Cambridge Crystallographic Data Centre
#                                CCDC 
#
#######################################################################
#
# If this CIF has been generated from an entry in the Cambridge 
# Structural Database, then it will include bibliographic, chemical, 
# crystal, experimental, refinement or atomic coordinate data resulting 
# from the CCDC's data processing and validation procedures.
#
#######################################################################

data_JOWGIN
_chemical_formula_moiety         'C30 H21 N3 O1,C18 H23 N3 O5'
_chemical_name_systematic        
'diethyl 2,6-diamino-4-(4-methoxyphenyl)-1,4-dihydropyridine-3,5-dicarboxylate 5-(4-methoxyphenyl)-2,8-diphenylpyrido[2,3-b][1,8]naphthyridine'
_symmetry_cell_setting           monoclinic
_symmetry_space_group_name_H-M   'P 21/n'
_symmetry_Int_Tables_number      14
_space_group_name_Hall           '-P 2yn'
loop_
_symmetry_equiv_pos_site_id
_symmetry_equiv_pos_as_xyz
1 x,y,z
2 1/2-x,1/2+y,1/2-z
3 -x,-y,-z
4 1/2+x,1/2-y,1/2+z
_cell_length_a                   19.5756(3)
_cell_length_b                   10.5562(2)
_cell_length_c                   21.6028(4)
_cell_angle_alpha                90
_cell_angle_beta                 111.9630(10)
_cell_angle_gamma                90
_cell_volume                     4140.11
_cell_formula_units_Z            4
loop_
_atom_site_label
_atom_site_type_symbol
_atom_site_fract_x
_atom_site_fract_y
_atom_site_fract_z
C1 C 0.7392(2) 0.3126(4) 0.8977(2)
H1 H 0.7504 0.3803 0.9274
C2 C 0.6821(3) 0.2318(5) 0.8937(3)
H2 H 0.6553 0.2459 0.9206
C3 C 0.6648(3) 0.1315(5) 0.8506(3)
H3 H 0.6261 0.0778 0.8478
C4 C 0.7049(3) 0.1113(4) 0.8120(3)
H4 H 0.6939 0.0421 0.7832
C5 C 0.7617(2) 0.1919(4) 0.8146(2)
H5 H 0.7879 0.1775 0.7872
C6 C 0.7797(2) 0.2941(3) 0.85811(18)
C7 C 0.84262(19) 0.3786(3) 0.86352(18)
C8 C 0.8840(2) 0.3608(4) 0.82279(19)
H6 H 0.8704 0.2980 0.7902
C9 C 0.9427(2) 0.4335(4) 0.83076(19)
H7 H 0.9699 0.4207 0.8040
C10 C 0.96370(19) 0.5306(3) 0.88013(17)
C11 C 1.02393(19) 0.6111(3) 0.89149(17)
C12 C 1.03677(18) 0.7044(3) 0.94090(17)
C13 C 1.0950(2) 0.7928(4) 0.95739(19)
H8 H 1.1261 0.7935 0.9337
C14 C 1.1056(2) 0.8759(4) 1.00727(19)
H9 H 1.1437 0.9345 1.0179
C15 C 1.05837(18) 0.8741(3) 1.04385(17)
C16 C 1.07265(18) 0.9592(3) 1.10174(17)
C17 C 1.1186(2) 1.0641(4) 1.1120(2)
H10 H 1.1395 1.0836 1.0810
C18 C 1.1334(2) 1.1398(4) 1.1678(2)
H11 H 1.1637 1.2102 1.1737
C19 C 1.1037(2) 1.1119(4) 1.2145(2)
H12 H 1.1142 1.1623 1.2522
C20 C 1.0580(2) 1.0082(4) 1.2048(2)
H13 H 1.0374 0.9890 1.2361
C21 C 1.04282(19) 0.9326(4) 1.14924(18)
H14 H 1.0121 0.8628 1.1435
C22 C 0.99024(18) 0.7103(3) 0.97795(16)
C23 C 0.91891(18) 0.5461(3) 0.91828(17)
C24 C 1.0739(2) 0.5981(4) 0.85411(19)
C25 C 1.0720(2) 0.6797(4) 0.8041(2)
H15 H 1.0373 0.7444 0.7919
C26 C 1.1206(2) 0.6682(5) 0.7712(2)
H16 H 1.1178 0.7242 0.7371
C27 C 1.1721(2) 0.5753(5) 0.7890(2)
C28 C 1.1745(2) 0.4920(5) 0.8387(2)
H17 H 1.2095 0.4276 0.8508
C29 C 1.1257(2) 0.5028(4) 0.8709(2)
H18 H 1.1279 0.4453 0.9041
C30 C 1.2253(3) 0.6419(7) 0.7111(3)
H19 H 1.2640 0.6181 0.6962
H20 H 1.2341 0.7263 0.7289
H21 H 1.1789 0.6392 0.6741
N1 N 1.00211(15) 0.7949(3) 1.02907(14)
N2 N 0.93146(15) 0.6342(3) 0.96632(14)
N3 N 0.85873(15) 0.4702(3) 0.90900(14)
O1 O 1.22387(17) 0.5563(4) 0.76145(18)
C31 C 0.0361(3) 0.7989(5) 0.5796(3)
C32 C 0.0291(2) 0.6750(5) 0.5640(2)
H22 H -0.0038 0.6253 0.5753
C33 C 0.0704(2) 0.6213(4) 0.5312(2)
H23 H 0.0642 0.5357 0.5202
C34 C 0.12035(18) 0.6900(4) 0.51431(18)
C35 C 0.1276(3) 0.8149(4) 0.5320(2)
H24 H 0.1613 0.8645 0.5220
C36 C 0.0857(3) 0.8699(5) 0.5648(3)
H25 H 0.0918 0.9552 0.5765
C37 C 0.16550(19) 0.6283(3) 0.47795(17)
H26 H 0.1431 0.5458 0.4616
C38 C 0.24398(19) 0.6040(4) 0.52529(18)
C39 C 0.29945(19) 0.6817(4) 0.52487(19)
C40 C 0.2226(2) 0.7757(3) 0.42049(19)
C41 C 0.16349(19) 0.7041(3) 0.41795(18)
C42 C 0.0980(2) 0.7052(4) 0.3587(2)
C43 C 0.2613(2) 0.5001(4) 0.5709(2)
C44 C 0.2168(3) 0.3107(5) 0.6022(3)
H27 H 0.2670 0.2815 0.6139
H28 H 0.2101 0.3341 0.6430
C45 C 0.1664(4) 0.2108(6) 0.5692(3)
H29 H 0.1756 0.1386 0.5982
H30 H 0.1733 0.1877 0.5289
H31 H 0.1168 0.2395 0.5585
C46 C -0.0078(5) 0.9705(7) 0.6251(4)
H32 H -0.0427 0.9882 0.6454
H33 H -0.0205 1.0180 0.5844
H34 H 0.0407 0.9943 0.6550
N4 N 0.2257(2) 0.8507(4) 0.37081(19)
N5 N 0.37019(18) 0.6780(4) 0.56923(18)
N6 N 0.28668(17) 0.7743(3) 0.47661(17)
O2 O -0.0089(2) 0.8438(4) 0.6112(2)
O3 O 0.32025(15) 0.4791(3) 0.61689(15)
O4 O 0.20394(16) 0.4196(3) 0.55885(15)
O5 O 0.08806(15) 0.7640(3) 0.30711(14)
O6 O 0.04438(14) 0.6323(3) 0.36501(13)
C47 C -0.0256(2) 0.6266(5) 0.3101(2)
H35 H -0.0206 0.6606 0.2703
H36 H -0.0413 0.5391 0.3015
C48 C -0.0777(5) 0.695(2) 0.3243(11)
H37 H -0.0905 0.6506 0.3573
H38 H -0.1208 0.7045 0.2844
H39 H -0.0583 0.7767 0.3411
H40 H 0.2599(17) 0.907(3) 0.379(2)
H41 H 0.1849(13) 0.860(4) 0.3371(14)
H42 H 0.4036(17) 0.705(4) 0.555(2)
H43 H 0.377(2) 0.617(3) 0.5975(17)
H44 H 0.3254(14) 0.814(3) 0.477(2)
C49? C -0.0689(14) 0.739(2) 0.2839(13)
loop_
_geom_bond_atom_site_label_1
_geom_bond_atom_site_label_2
_geom_bond_site_symmetry_1
_geom_bond_site_symmetry_2
C1 H1 1_555 1_555
C2 C1 1_555 1_555
H2 C2 1_555 1_555
C3 C2 1_555 1_555
H3 C3 1_555 1_555
C4 C3 1_555 1_555
H4 C4 1_555 1_555
C5 C4 1_555 1_555
H5 C5 1_555 1_555
C6 C1 1_555 1_555
C7 C6 1_555 1_555
C8 C7 1_555 1_555
H6 C8 1_555 1_555
C9 C8 1_555 1_555
H7 C9 1_555 1_555
C10 C9 1_555 1_555
C11 C10 1_555 1_555
C12 C11 1_555 1_555
C13 C12 1_555 1_555
H8 C13 1_555 1_555
C14 C13 1_555 1_555
H9 C14 1_555 1_555
C15 C14 1_555 1_555
C16 C15 1_555 1_555
C17 C16 1_555 1_555
H10 C17 1_555 1_555
C18 C17 1_555 1_555
H11 C18 1_555 1_555
C19 C18 1_555 1_555
H12 C19 1_555 1_555
C20 C19 1_555 1_555
H13 C20 1_555 1_555
C21 C16 1_555 1_555
H14 C21 1_555 1_555
C22 C12 1_555 1_555
C23 C10 1_555 1_555
C24 C11 1_555 1_555
C25 C24 1_555 1_555
H15 C25 1_555 1_555
C26 C25 1_555 1_555
H16 C26 1_555 1_555
C27 C26 1_555 1_555
C28 C27 1_555 1_555
H17 C28 1_555 1_555
C29 C24 1_555 1_555
H18 C29 1_555 1_555
C30 H19 1_555 1_555
H20 C30 1_555 1_555
H21 C30 1_555 1_555
N1 C15 1_555 1_555
N2 C22 1_555 1_555
N3 C7 1_555 1_555
O1 C27 1_555 1_555
C31 C32 1_555 1_555
C32 H22 1_555 1_555
C33 C32 1_555 1_555
H23 C33 1_555 1_555
C34 C33 1_555 1_555
C35 C34 1_555 1_555
H24 C35 1_555 1_555
C36 C31 1_555 1_555
H25 C36 1_555 1_555
C37 C34 1_555 1_555
H26 C37 1_555 1_555
C38 C37 1_555 1_555
C39 C38 1_555 1_555
C40 C41 1_555 1_555
C41 C37 1_555 1_555
C42 C41 1_555 1_555
C43 C38 1_555 1_555
C44 H27 1_555 1_555
H28 C44 1_555 1_555
C45 C44 1_555 1_555
H29 C45 1_555 1_555
H30 C45 1_555 1_555
H31 C45 1_555 1_555
C46 H32 1_555 1_555
H33 C46 1_555 1_555
H34 C46 1_555 1_555
N4 C40 1_555 1_555
N5 C39 1_555 1_555
N6 C39 1_555 1_555
O2 C31 1_555 1_555
O3 C43 1_555 1_555
O4 C43 1_555 1_555
O5 C42 1_555 1_555
O6 C42 1_555 1_555
C47 O6 1_555 1_555
H35 C47 1_555 1_555
H36 C47 1_555 1_555
C48 C47 1_555 1_555
H37 C48 1_555 1_555
H38 C48 1_555 1_555
H39 C48 1_555 1_555
H40 N4 1_555 1_555
H41 N4 1_555 1_555
H42 N5 1_555 1_555
H43 N5 1_555 1_555
H44 N6 1_555 1_555
C5 C6 1_555 1_555
C20 C21 1_555 1_555
C22 N1 1_555 1_555
C23 N2 1_555 1_555
C23 N3 1_555 1_555
C28 C29 1_555 1_555
C30 O1 1_555 1_555
C35 C36 1_555 1_555
C40 N6 1_555 1_555
C44 O4 1_555 1_555
C46 O2 1_555 1_555

#END
