
#######################################################################
#
#                 Cambridge Crystallographic Data Centre
#                                CCDC 
#
#######################################################################
#
# If this CIF has been generated from an entry in the Cambridge 
# Structural Database, then it will include bibliographic, chemical, 
# crystal, experimental, refinement or atomic coordinate data resulting 
# from the CCDC's data processing and validation procedures.
#
#######################################################################

data_JOWGAF
_chemical_name_common            'dipropylammonium picrate'
_chemical_formula_moiety         'C6 H16 N1 1+,C6 H2 N3 O7 1-'
_chemical_name_systematic        
'N-propylpropan-1-aminium 2,4,6-trinitrophenolate'
_symmetry_cell_setting           monoclinic
_symmetry_space_group_name_H-M   'P 21/c'
_symmetry_Int_Tables_number      14
_space_group_name_Hall           '-P 2ybc'
loop_
_symmetry_equiv_pos_site_id
_symmetry_equiv_pos_as_xyz
1 x,y,z
2 -x,1/2+y,1/2-z
3 -x,-y,-z
4 x,1/2-y,1/2+z
_cell_length_a                   22.1665(2)
_cell_length_b                   20.53790(10)
_cell_length_c                   17.3869(2)
_cell_angle_alpha                90
_cell_angle_beta                 95.9450(10)
_cell_angle_gamma                90
_cell_volume                     7872.87
_exptl_crystal_colour            yellow
_exptl_crystal_description       block
_cell_formula_units_Z            20
loop_
_atom_site_label
_atom_site_type_symbol
_atom_site_fract_x
_atom_site_fract_y
_atom_site_fract_z
O1 O 0.37793(5) 0.41502(5) 0.02634(6)
O2 O 0.43293(5) 0.51931(6) -0.03775(8)
O3 O 0.39941(5) 0.60465(5) 0.01708(7)
O4 O 0.18224(6) 0.63051(6) -0.03246(8)
O5 O 0.30057(6) 0.31617(6) -0.01236(9)
O6 O 0.20820(6) 0.33436(6) 0.00953(9)
O7 O 0.12441(5) 0.54728(7) -0.01923(9)
N1 N 0.39306(6) 0.54862(6) -0.00847(8)
N2 N 0.25896(6) 0.35360(6) -0.00090(8)
N3 N 0.17447(6) 0.57190(7) -0.02219(8)
C1 C 0.33185(7) 0.44783(7) 0.00634(8)
C2 C 0.21966(7) 0.46324(8) -0.00999(9)
H1 H 0.1802 0.4450 -0.0118
C3 C 0.27007(7) 0.42368(7) -0.00232(9)
C4 C 0.33414(7) 0.51779(7) -0.00652(9)
C5 C 0.28444(7) 0.55758(7) -0.01422(9)
H2 H 0.2890 0.6033 -0.0190
C6 C 0.22729(7) 0.53010(8) -0.01502(9)
O8 O 0.97761(5) 0.40514(5) 0.23573(7)
O9 O 1.03135(5) 0.51111(6) 0.18174(8)
O10 O 0.99127(5) 0.59822(5) 0.22300(7)
O11 O 0.81066(5) 0.31908(6) 0.22084(8)
O12 O 0.90300(6) 0.30502(6) 0.19525(10)
O13 O 0.77502(6) 0.61461(6) 0.18325(7)
N4 N 0.98800(6) 0.54038(6) 0.20387(7)
O14 O 0.72108(6) 0.52984(7) 0.20353(9)
N5 N 0.86047(6) 0.34040(6) 0.20906(8)
N6 N 0.76980(6) 0.55606(7) 0.19518(8)
C7 C 0.93079(7) 0.43696(7) 0.21708(8)
C8 C 0.81812(7) 0.44853(8) 0.20397(9)
H3 H 0.7793 0.4289 0.2034
C9 C 0.93073(7) 0.50716(7) 0.20558(9)
C10 C 0.86950(7) 0.41068(7) 0.20911(9)
C11 C 0.82366(7) 0.51574(8) 0.19967(9)
C12 C 0.87962(7) 0.54528(7) 0.19899(8)
H4 H 0.8827 0.5912 0.1940
O15 O 0.57307(5) 0.40449(5) 0.44399(7)
O16 O 0.63142(5) 0.51015(6) 0.39754(8)
O17 O 0.50100(6) 0.30385(5) 0.39900(8)
O18 O 0.58779(5) 0.59817(5) 0.43011(7)
O19 O 0.40599(5) 0.31915(5) 0.41085(7)
N7 N 0.58605(6) 0.53996(6) 0.41281(7)
N8 N 0.45752(6) 0.34030(6) 0.40482(8)
C13 C 0.52753(7) 0.43626(7) 0.41947(8)
C14 C 0.41507(7) 0.44786(8) 0.39122(9)
H5 H 0.3761 0.4282 0.3852
C15 C 0.52817(7) 0.50657(7) 0.40778(9)
C16 C 0.46651(7) 0.41002(7) 0.40390(9)
C17 C 0.42095(7) 0.51497(7) 0.38733(9)
C18 C 0.47736(7) 0.54458(7) 0.39424(8)
H6 H 0.4808 0.5905 0.3897
O20 O 0.37377(6) 0.61386(6) 0.36471(8)
O21 O 0.31732(5) 0.52827(6) 0.37036(8)
N9 N 0.36708(6) 0.55519(7) 0.37370(8)
O22 O 0.16553(5) 0.40817(6) 0.63552(8)
O23 O 0.18481(6) 0.60525(6) 0.62023(8)
O24 O 0.22788(6) 0.51459(6) 0.60013(10)
O25 O -0.02771(6) 0.62657(6) 0.57403(8)
O26 O -0.00236(6) 0.33005(6) 0.61763(9)
O27 O -0.08608(6) 0.54347(7) 0.58616(9)
N10 N 0.18296(6) 0.54618(7) 0.60929(8)
N11 N 0.04807(7) 0.35033(7) 0.61084(9)
C19 C 0.12108(7) 0.44363(8) 0.61654(9)
N12 N -0.03575(7) 0.56816(7) 0.58437(8)
C20 C 0.05895(7) 0.41997(8) 0.60772(9)
C21 C 0.00877(7) 0.45946(8) 0.59876(9)
H7 H -0.0308 0.4414 0.5961
C22 C 0.12401(7) 0.51398(8) 0.60601(9)
C23 C 0.07415(7) 0.55362(8) 0.59626(8)
H8 H 0.0788 0.5994 0.5914
C24 C 0.01680(7) 0.52640(8) 0.59361(9)
O28 O 0.09118(11) 0.31124(9) 0.5980(4)
O30 O 0.76059(6) 0.40368(6) 0.83317(8)
O31 O 0.58208(6) 0.63666(6) 0.77529(8)
O32 O 0.58809(6) 0.33896(6) 0.80522(8)
O33 O 0.67603(6) 0.32075(6) 0.86273(10)
O34 O 0.83034(6) 0.50882(8) 0.83224(14)
O35 O 0.51832(6) 0.55916(7) 0.78921(9)
O36 O 0.79058(7) 0.60187(7) 0.82227(12)
N13 N 0.63904(6) 0.35727(7) 0.82830(8)
N14 N 0.78652(6) 0.54265(7) 0.82276(8)
C25 C 0.71872(7) 0.44363(8) 0.82425(9)
N15 N 0.56993(7) 0.57932(7) 0.78836(8)
C26 C 0.65506(7) 0.42525(7) 0.81993(9)
C27 C 0.60743(7) 0.46795(8) 0.80861(9)
H9 H 0.5668 0.4528 0.8062
C28 C 0.72608(7) 0.51366(8) 0.81659(9)
C29 C 0.61976(7) 0.53385(8) 0.80071(9)
C30 C 0.67868(7) 0.55657(7) 0.80480(9)
H10 H 0.6863 0.6018 0.7994
N16 N 0.43580(6) 0.18289(6) 0.46775(8)
H11 H 0.4020 0.1632 0.4839
H12 H 0.4237 0.2219 0.4451
C31 C 0.46003(7) 0.14068(7) 0.40831(9)
H13 H 0.4732 0.0984 0.4318
H14 H 0.4957 0.1618 0.3892
C32 C 0.41156(7) 0.12938(8) 0.34137(10)
H15 H 0.4012 0.1713 0.3151
H16 H 0.3745 0.1123 0.3614
C33 C 0.47979(7) 0.19642(8) 0.53697(10)
H17 H 0.5172 0.2158 0.5204
H18 H 0.4908 0.1552 0.5644
C34 C 0.43304(8) 0.08143(9) 0.28359(10)
H19 H 0.4673 0.1002 0.2598
H20 H 0.3998 0.0722 0.2434
H21 H 0.4459 0.0409 0.3102
C35 C 0.49571(9) 0.26055(9) 0.66047(11)
H22 H 0.5070 0.2212 0.6904
H23 H 0.4764 0.2916 0.6930
H24 H 0.5321 0.2804 0.6430
C36 C 0.45177(8) 0.24283(8) 0.59086(10)
H25 H 0.4152 0.2224 0.6087
H26 H 0.4389 0.2830 0.5622
N17 N 0.95781(6) 0.68958(6) 0.82169(8)
H27 H 0.9694 0.7290 0.8435
H28 H 0.9918 0.6701 0.8058
C37 C 0.93375(7) 0.64772(8) 0.88182(10)
H29 H 0.9207 0.6053 0.8588
H30 H 0.8979 0.6689 0.9006
C38 C 0.98178(8) 0.63684(9) 0.94911(10)
H31 H 0.9916 0.6787 0.9757
H32 H 1.0192 0.6201 0.9296
C39 C 0.91332(8) 0.70139(8) 0.75267(11)
H33 H 0.8764 0.7220 0.7692
H34 H 0.9015 0.6593 0.7277
C40 C 0.89516(11) 0.75937(11) 0.62561(14)
H35 H 0.8840 0.7186 0.5984
H36 H 0.9135 0.7892 0.5907
H37 H 0.8588 0.7795 0.6428
C41 C 0.94030(9) 0.74513(9) 0.69522(12)
H38 H 0.9766 0.7239 0.6778
H39 H 0.9533 0.7866 0.7208
C42 C 0.95960(10) 0.58839(10) 1.00609(12)
H40 H 0.9245 0.6066 1.0285
H41 H 0.9922 0.5797 1.0474
H42 H 0.9479 0.5477 0.9791
N18 N 0.35434(6) 0.68854(6) 0.60371(8)
H43 H 0.3631 0.7302 0.6209
H44 H 0.3897 0.6704 0.5902
C43 C 0.33342(7) 0.64998(8) 0.66896(11)
H45 H 0.3260 0.6043 0.6525
H46 H 0.2949 0.6682 0.6836
C44 C 0.38122(8) 0.65225(9) 0.73750(11)
H47 H 0.3864 0.6978 0.7555
H48 H 0.4204 0.6373 0.7211
C45 C 0.30988(8) 0.69224(8) 0.53320(11)
H49 H 0.2715 0.7115 0.5468
H50 H 0.3011 0.6478 0.5129
C46 C 0.33502(9) 0.73334(9) 0.47162(11)
H51 H 0.3728 0.7132 0.4570
H52 H 0.3452 0.7772 0.4928
C47 C 0.28976(10) 0.73985(11) 0.40001(13)
H53 H 0.2797 0.6965 0.3788
H54 H 0.3076 0.7662 0.3612
H55 H 0.2528 0.7610 0.4140
C48 C 0.36482(10) 0.61000(11) 0.80399(13)
H56 H 0.3265 0.6253 0.8212
H57 H 0.3970 0.6128 0.8469
H58 H 0.3603 0.5647 0.7867
N19 N 0.27639(6) 0.38111(7) 0.59742(9)
H59 H 0.2397 0.3968 0.6096
H60 H 0.3025 0.4160 0.5975
C49 C 0.30058(8) 0.33522(9) 0.66015(11)
H61 H 0.3082 0.3597 0.7093
H62 H 0.3399 0.3175 0.6474
C50 C 0.26760(9) 0.35428(9) 0.51769(12)
H63 H 0.2381 0.3180 0.5155
H64 H 0.3066 0.3371 0.5032
C51 C 0.24451(11) 0.40697(11) 0.46143(12)
H65 H 0.2727 0.4444 0.4666
H66 H 0.2044 0.4222 0.4745
C52 C 0.28158(11) 0.24125(9) 0.74372(14)
H67 H 0.3227 0.2255 0.7385
H68 H 0.2548 0.2041 0.7499
H69 H 0.2823 0.2696 0.7891
C53 C 0.25825(9) 0.27938(9) 0.67160(12)
H70 H 0.2556 0.2503 0.6259
H71 H 0.2171 0.2963 0.6772
C54 C 0.23858(13) 0.38322(15) 0.37851(14)
H72 H 0.2786 0.3709 0.3642
H73 H 0.2217 0.4181 0.3443
H74 H 0.2115 0.3454 0.3734
N20 N 0.87524(6) 0.38064(7) 0.80655(9)
H75 H 0.8382 0.3945 0.8196
H76 H 0.8999 0.4167 0.8076
C55 C 0.86624(8) 0.35760(9) 0.72530(13)
H77 H 0.8359 0.3221 0.7206
H78 H 0.9049 0.3402 0.7100
C56 C 0.84455(10) 0.41343(11) 0.67223(11)
H79 H 0.8046 0.4287 0.6857
H80 H 0.8735 0.4501 0.6801
C57 C 0.88796(12) 0.24039(10) 0.95267(13)
C58 C 0.83901(12) 0.39300(16) 0.58789(13)
H81 H 0.8786 0.3781 0.5743
H82 H 0.8254 0.4302 0.5553
H83 H 0.8095 0.3575 0.5796
C59 C 0.85893(10) 0.27956(10) 0.88362(12)
H84 H 0.8528 0.2515 0.8371
H85 H 0.8190 0.2967 0.8947
C60 C 0.90147(10) 0.33534(12) 0.86992(16)
H86 H 0.9102 0.3604 0.9184
H87 H 0.9403 0.3174 0.8558
H88 H 0.8910(10) 0.2639(11) 1.0005(14)
H89 H 0.9277(11) 0.2262(11) 0.9440(14)
H90 H 0.8597(12) 0.2008(13) 0.9609(15)
O29? O 0.0816(4) 0.3199(4) 0.6464(13)
C61? C 0.8858(4) 0.3062(5) 0.8280(7)
H91? H 0.8517 0.2782 0.8066
H92? H 0.9245 0.2894 0.8124
C62? C 0.8873(6) 0.3147(6) 0.9110(9)
H93? H 0.8513 0.3395 0.9234
H94? H 0.9241 0.3393 0.9308
loop_
_geom_bond_atom_site_label_1
_geom_bond_atom_site_label_2
_geom_bond_site_symmetry_1
_geom_bond_site_symmetry_2
O1 C1 1_555 1_555
O2 N1 1_555 1_555
O3 N1 1_555 1_555
O4 N3 1_555 1_555
O5 N2 1_555 1_555
O6 N2 1_555 1_555
O7 N3 1_555 1_555
N1 C4 1_555 1_555
N2 C3 1_555 1_555
N3 C6 1_555 1_555
C1 C3 1_555 1_555
C2 H1 1_555 1_555
C3 C2 1_555 1_555
C4 C1 1_555 1_555
C5 C4 1_555 1_555
H2 C5 1_555 1_555
C6 C2 1_555 1_555
O8 C7 1_555 1_555
O9 N4 1_555 1_555
O10 N4 1_555 1_555
O11 N5 1_555 1_555
O12 N5 1_555 1_555
O13 N6 1_555 1_555
N4 C9 1_555 1_555
O14 N6 1_555 1_555
N5 C10 1_555 1_555
N6 C11 1_555 1_555
C7 C9 1_555 1_555
C8 H3 1_555 1_555
C9 C12 1_555 1_555
C10 C7 1_555 1_555
C11 C8 1_555 1_555
C12 C11 1_555 1_555
H4 C12 1_555 1_555
O15 C13 1_555 1_555
O16 N7 1_555 1_555
O17 N8 1_555 1_555
O18 N7 1_555 1_555
O19 N8 1_555 1_555
N7 C15 1_555 1_555
N8 C16 1_555 1_555
C13 C15 1_555 1_555
C14 H5 1_555 1_555
C15 C18 1_555 1_555
C16 C13 1_555 1_555
C17 C14 1_555 1_555
C18 C17 1_555 1_555
H6 C18 1_555 1_555
O20 N9 1_555 1_555
O21 N9 1_555 1_555
N9 C17 1_555 1_555
O22 C19 1_555 1_555
O23 N10 1_555 1_555
O24 N10 1_555 1_555
O25 N12 1_555 1_555
O26 N11 1_555 1_555
O27 N12 1_555 1_555
N10 C22 1_555 1_555
N11 C20 1_555 1_555
C19 C20 1_555 1_555
N12 C24 1_555 1_555
C20 C21 1_555 1_555
C21 H7 1_555 1_555
C22 C19 1_555 1_555
C23 C22 1_555 1_555
H8 C23 1_555 1_555
C24 C21 1_555 1_555
O28 N11 1_555 1_555
O30 C25 1_555 1_555
O31 N15 1_555 1_555
O32 N13 1_555 1_555
O33 N13 1_555 1_555
O34 N14 1_555 1_555
O35 N15 1_555 1_555
O36 N14 1_555 1_555
N13 C26 1_555 1_555
N14 C28 1_555 1_555
C25 C26 1_555 1_555
N15 C29 1_555 1_555
C26 C27 1_555 1_555
C27 H9 1_555 1_555
C28 C25 1_555 1_555
C29 C27 1_555 1_555
C30 C28 1_555 1_555
H10 C30 1_555 1_555
N16 H11 1_555 1_555
H12 N16 1_555 1_555
C31 N16 1_555 1_555
H13 C31 1_555 1_555
H14 C31 1_555 1_555
C32 C31 1_555 1_555
H15 C32 1_555 1_555
H16 C32 1_555 1_555
C33 N16 1_555 1_555
H17 C33 1_555 1_555
H18 C33 1_555 1_555
C34 C32 1_555 1_555
H19 C34 1_555 1_555
H20 C34 1_555 1_555
H21 C34 1_555 1_555
C35 H22 1_555 1_555
H23 C35 1_555 1_555
H24 C35 1_555 1_555
C36 C33 1_555 1_555
H25 C36 1_555 1_555
H26 C36 1_555 1_555
N17 H27 1_555 1_555
H28 N17 1_555 1_555
C37 N17 1_555 1_555
H29 C37 1_555 1_555
H30 C37 1_555 1_555
C38 C37 1_555 1_555
H31 C38 1_555 1_555
H32 C38 1_555 1_555
C39 N17 1_555 1_555
H33 C39 1_555 1_555
H34 C39 1_555 1_555
C40 H35 1_555 1_555
H36 C40 1_555 1_555
H37 C40 1_555 1_555
C41 C39 1_555 1_555
H38 C41 1_555 1_555
H39 C41 1_555 1_555
C42 C38 1_555 1_555
H40 C42 1_555 1_555
H41 C42 1_555 1_555
H42 C42 1_555 1_555
N18 H43 1_555 1_555
H44 N18 1_555 1_555
C43 N18 1_555 1_555
H45 C43 1_555 1_555
H46 C43 1_555 1_555
C44 C43 1_555 1_555
H47 C44 1_555 1_555
H48 C44 1_555 1_555
C45 N18 1_555 1_555
H49 C45 1_555 1_555
H50 C45 1_555 1_555
C46 C45 1_555 1_555
H51 C46 1_555 1_555
H52 C46 1_555 1_555
C47 C46 1_555 1_555
H53 C47 1_555 1_555
H54 C47 1_555 1_555
H55 C47 1_555 1_555
C48 C44 1_555 1_555
H56 C48 1_555 1_555
H57 C48 1_555 1_555
H58 C48 1_555 1_555
N19 H59 1_555 1_555
H60 N19 1_555 1_555
C49 N19 1_555 1_555
H61 C49 1_555 1_555
H62 C49 1_555 1_555
C50 N19 1_555 1_555
H63 C50 1_555 1_555
H64 C50 1_555 1_555
C51 C50 1_555 1_555
H65 C51 1_555 1_555
H66 C51 1_555 1_555
C52 H67 1_555 1_555
H68 C52 1_555 1_555
H69 C52 1_555 1_555
C53 C49 1_555 1_555
H70 C53 1_555 1_555
H71 C53 1_555 1_555
C54 C51 1_555 1_555
H72 C54 1_555 1_555
H73 C54 1_555 1_555
H74 C54 1_555 1_555
N20 H75 1_555 1_555
H76 N20 1_555 1_555
C55 N20 1_555 1_555
H77 C55 1_555 1_555
H78 C55 1_555 1_555
C56 C55 1_555 1_555
H79 C56 1_555 1_555
H80 C56 1_555 1_555
C57 C59 1_555 1_555
C58 C56 1_555 1_555
H81 C58 1_555 1_555
H82 C58 1_555 1_555
H83 C58 1_555 1_555
C59 H84 1_555 1_555
H85 C59 1_555 1_555
C60 N20 1_555 1_555
H86 C60 1_555 1_555
H87 C60 1_555 1_555
H88 C57 1_555 1_555
H89 C57 1_555 1_555
H90 C57 1_555 1_555
C5 C6 1_555 1_555
C8 C10 1_555 1_555
C14 C16 1_555 1_555
C23 C24 1_555 1_555
C29 C30 1_555 1_555
C35 C36 1_555 1_555
C40 C41 1_555 1_555
C52 C53 1_555 1_555
C59 C60 1_555 1_555

#END
