
#######################################################################
#
#                 Cambridge Crystallographic Data Centre
#                                CCDC 
#
#######################################################################
#
# If this CIF has been generated from an entry in the Cambridge 
# Structural Database, then it will include bibliographic, chemical, 
# crystal, experimental, refinement or atomic coordinate data resulting 
# from the CCDC's data processing and validation procedures.
#
#######################################################################

data_JOWXUO02
_chemical_formula_moiety         'C24 H24 N2 Se2'
_chemical_name_systematic        bis(8-(Dimethylamino)naphthyl)-di-selenium
_symmetry_cell_setting           monoclinic
_symmetry_space_group_name_H-M   'P 21/c'
_symmetry_Int_Tables_number      14
_space_group_name_Hall           '-P 2ybc'
loop_
_symmetry_equiv_pos_site_id
_symmetry_equiv_pos_as_xyz
1 x,y,z
2 x,1/2-y,1/2+z
3 -x,-y,-z
4 -x,1/2+y,1/2-z
_cell_length_a                   7.7149(5)
_cell_length_b                   14.1747(18)
_cell_length_c                   19.9375(11)
_cell_angle_alpha                90
_cell_angle_beta                 90.623(5)
_cell_angle_gamma                90
_cell_volume                     2180.16
_exptl_crystal_colour            colorless
_exptl_crystal_description       plate
_cell_formula_units_Z            4
loop_
_atom_site_label
_atom_site_type_symbol
_atom_site_fract_x
_atom_site_fract_y
_atom_site_fract_z
Se1 Se 0.31590(5) 0.17058(3) 0.15426(2)
Se2 Se 0.20238(5) 0.03296(3) 0.20532(2)
N1 N 0.4238(4) 0.3275(2) 0.09322(16)
N2 N 0.0648(4) -0.1231(2) 0.25048(15)
C1 C 0.1646(5) 0.1823(3) 0.07550(18)
C2 C 0.0464(6) 0.1136(3) 0.0612(2)
H1 H 0.0453 0.0593 0.0875
C3 C -0.0728(6) 0.1220(4) 0.0087(2)
H2 H -0.1500 0.0731 -0.0002
C4 C -0.0771(6) 0.2005(4) -0.0293(2)
H3 H -0.1588 0.2062 -0.0637
C5 C 0.0353(7) 0.3582(4) -0.0546(3)
H4 H -0.0466 0.3644 -0.0889
C6 C 0.1461(7) 0.4297(4) -0.0415(3)
H5 H 0.1380 0.4852 -0.0662
C7 C 0.2726(6) 0.4216(4) 0.0085(3)
H6 H 0.3470 0.4718 0.0172
C8 C 0.2883(5) 0.3406(3) 0.0450(2)
C9 C 0.1687(4) 0.2652(3) 0.03546(17)
C10 C 0.0424(5) 0.2744(3) -0.0170(2)
C11 C 0.4629(6) 0.4072(3) 0.1365(3)
H7 H 0.3568 0.4364 0.1503
H8 H 0.5315 0.4522 0.1125
H9 H 0.5263 0.3858 0.1753
C12 C 0.5804(5) 0.2885(4) 0.0632(2)
H10 H 0.5497 0.2366 0.0346
H11 H 0.6576 0.2670 0.0980
H12 H 0.6366 0.3365 0.0373
C13 C 0.3366(5) -0.0663(3) 0.16307(18)
C14 C 0.4546(5) -0.0465(3) 0.1144(2)
H13 H 0.4632 0.0149 0.0983
C15 C 0.5626(5) -0.1163(4) 0.0882(2)
H14 H 0.6387 -0.1013 0.0540
C16 C 0.5575(5) -0.2050(3) 0.1121(2)
H15 H 0.6339 -0.2499 0.0956
C17 C 0.4317(6) -0.3225(3) 0.1881(2)
H16 H 0.5102 -0.3673 0.1730
C18 C 0.3148(7) -0.3474(3) 0.2348(3)
H17 H 0.3156 -0.4082 0.2525
C19 C 0.1922(6) -0.2813(3) 0.2565(2)
H18 H 0.1096 -0.2993 0.2877
C20 C 0.1922(5) -0.1912(3) 0.2328(2)
C21 C 0.3205(5) -0.1615(3) 0.18651(18)
C22 C 0.4380(5) -0.2308(3) 0.1616(2)
C23 C 0.0272(6) -0.1160(4) 0.3216(2)
H19 H 0.1339 -0.1153 0.3469
H20 H -0.0413 -0.1691 0.3350
H21 H -0.0357 -0.0588 0.3300
C24 C -0.0930(6) -0.1320(4) 0.2095(2)
H22 H -0.0634 -0.1307 0.1628
H23 H -0.1697 -0.0805 0.2191
H24 H -0.1495 -0.1905 0.2196
loop_
_geom_bond_atom_site_label_1
_geom_bond_atom_site_label_2
_geom_bond_site_symmetry_1
_geom_bond_site_symmetry_2
Se1 Se2 1_555 1_555
Se2 C13 1_555 1_555
N1 C8 1_555 1_555
N2 C20 1_555 1_555
C1 Se1 1_555 1_555
C2 C1 1_555 1_555
H1 C2 1_555 1_555
C3 C2 1_555 1_555
H2 C3 1_555 1_555
C4 C3 1_555 1_555
H3 C4 1_555 1_555
C5 H4 1_555 1_555
C6 C5 1_555 1_555
H5 C6 1_555 1_555
C7 C6 1_555 1_555
H6 C7 1_555 1_555
C8 C7 1_555 1_555
C9 C1 1_555 1_555
C10 C4 1_555 1_555
C11 N1 1_555 1_555
H7 C11 1_555 1_555
H8 C11 1_555 1_555
H9 C11 1_555 1_555
C12 N1 1_555 1_555
H10 C12 1_555 1_555
H11 C12 1_555 1_555
H12 C12 1_555 1_555
C13 C14 1_555 1_555
C14 H13 1_555 1_555
C15 C14 1_555 1_555
H14 C15 1_555 1_555
C16 C15 1_555 1_555
H15 C16 1_555 1_555
C17 H16 1_555 1_555
C18 C17 1_555 1_555
H17 C18 1_555 1_555
C19 C18 1_555 1_555
H18 C19 1_555 1_555
C20 C19 1_555 1_555
C21 C13 1_555 1_555
C22 C16 1_555 1_555
C23 N2 1_555 1_555
H19 C23 1_555 1_555
H20 C23 1_555 1_555
H21 C23 1_555 1_555
C24 N2 1_555 1_555
H22 C24 1_555 1_555
H23 C24 1_555 1_555
H24 C24 1_555 1_555
C5 C10 1_555 1_555
C8 C9 1_555 1_555
C9 C10 1_555 1_555
C17 C22 1_555 1_555
C20 C21 1_555 1_555
C21 C22 1_555 1_555

#END
