
#######################################################################
#
#                 Cambridge Crystallographic Data Centre
#                                CCDC 
#
#######################################################################
#
# If this CIF has been generated from an entry in the Cambridge 
# Structural Database, then it will include bibliographic, chemical, 
# crystal, experimental, refinement or atomic coordinate data resulting 
# from the CCDC's data processing and validation procedures.
#
#######################################################################

data_JOWYAX
_chemical_formula_moiety         'C23 H16 O3'
_chemical_name_systematic        3-(4-Methylbenzoyl)-4-phenyl-2H-chromen-2-one
_symmetry_cell_setting           orthorhombic
_symmetry_space_group_name_H-M   'P b c a'
_symmetry_Int_Tables_number      61
_space_group_name_Hall           '-P 2ac 2ab'
loop_
_symmetry_equiv_pos_site_id
_symmetry_equiv_pos_as_xyz
1 x,y,z
2 1/2-x,-y,1/2+z
3 1/2+x,1/2-y,-z
4 -x,1/2+y,1/2-z
5 -x,-y,-z
6 1/2+x,y,1/2-z
7 1/2-x,1/2+y,z
8 x,1/2-y,1/2+z
_cell_length_a                   11.9905(2)
_cell_length_b                   8.82516(14)
_cell_length_c                   34.0165(6)
_cell_angle_alpha                90
_cell_angle_beta                 90
_cell_angle_gamma                90
_cell_volume                     3599.56
_cell_formula_units_Z            8
loop_
_atom_site_label
_atom_site_type_symbol
_atom_site_fract_x
_atom_site_fract_y
_atom_site_fract_z
O1 O 0.67676(12) -0.07607(17) 0.45842(5)
O2 O 0.67170(14) -0.21652(17) 0.40529(5)
O3 O 0.46129(13) -0.10647(18) 0.35643(5)
C1 C 0.54260(19) 0.2801(2) 0.48645(6)
H1 H 0.4997 0.3577 0.4758
C2 C 0.5699(2) 0.2830(3) 0.52576(7)
H2 H 0.5446 0.3619 0.5415
C3 C 0.6342(2) 0.1701(3) 0.54179(7)
H3 H 0.6527 0.1734 0.5683
C4 C 0.6715(2) 0.0525(3) 0.51901(7)
H4 H 0.7159 -0.0231 0.5298
C5 C 0.64206(17) 0.0477(2) 0.47950(6)
C6 C 0.57899(15) 0.1614(2) 0.46236(5)
C7 C 0.54902(14) 0.1466(2) 0.42125(5)
C8 C 0.57614(15) 0.0177(2) 0.40213(6)
C9 C 0.64218(16) -0.1005(2) 0.42084(6)
C10 C 0.48808(16) 0.2714(2) 0.40125(5)
C11 C 0.54130(19) 0.4078(2) 0.39391(7)
H5 H 0.6144 0.4221 0.4023
C12 C 0.4871(2) 0.5220(2) 0.37435(8)
H6 H 0.5240 0.6124 0.3690
C13 C 0.3784(2) 0.5030(3) 0.36261(7)
H7 H 0.3417 0.5807 0.3494
C14 C 0.32364(19) 0.3691(3) 0.37040(7)
H8 H 0.2496 0.3570 0.3629
C15 C 0.37845(17) 0.2530(2) 0.38936(6)
H9 H 0.3418 0.1620 0.3942
C16 C 0.53680(15) -0.0161(2) 0.36079(6)
C17 C 0.59026(17) 0.0620(2) 0.32730(6)
C18 C 0.69012(19) 0.1376(3) 0.33128(6)
H10 H 0.7248 0.1423 0.3557
C19 C 0.7390(2) 0.2066(3) 0.29916(7)
H11 H 0.8071 0.2558 0.3022
C20 C 0.6890(2) 0.2040(3) 0.26260(7)
C21 C 0.5887(2) 0.1290(3) 0.25897(7)
H12 H 0.5532 0.1272 0.2347
C22 C 0.5402(2) 0.0573(3) 0.29026(7)
H13 H 0.4735 0.0051 0.2868
C23 C 0.7424(3) 0.2790(4) 0.22742(8)
H14 H 0.7963 0.2115 0.2160
H15 H 0.7788 0.3706 0.2356
H16 H 0.6861 0.3025 0.2083
loop_
_geom_bond_atom_site_label_1
_geom_bond_atom_site_label_2
_geom_bond_site_symmetry_1
_geom_bond_site_symmetry_2
O1 C5 1_555 1_555
O2 C9 1_555 1_555
O3 C16 1_555 1_555
C1 H1 1_555 1_555
C2 C1 1_555 1_555
H2 C2 1_555 1_555
C3 C2 1_555 1_555
H3 C3 1_555 1_555
C4 C3 1_555 1_555
H4 C4 1_555 1_555
C5 C4 1_555 1_555
C6 C1 1_555 1_555
C7 C6 1_555 1_555
C8 C7 1_555 1_555
C9 O1 1_555 1_555
C10 C7 1_555 1_555
C11 C10 1_555 1_555
H5 C11 1_555 1_555
C12 C11 1_555 1_555
H6 C12 1_555 1_555
C13 C12 1_555 1_555
H7 C13 1_555 1_555
C14 C13 1_555 1_555
H8 C14 1_555 1_555
C15 C10 1_555 1_555
H9 C15 1_555 1_555
C16 C8 1_555 1_555
C17 C16 1_555 1_555
C18 C17 1_555 1_555
H10 C18 1_555 1_555
C19 C18 1_555 1_555
H11 C19 1_555 1_555
C20 C19 1_555 1_555
C21 C20 1_555 1_555
H12 C21 1_555 1_555
C22 C17 1_555 1_555
H13 C22 1_555 1_555
C23 C20 1_555 1_555
H14 C23 1_555 1_555
H15 C23 1_555 1_555
H16 C23 1_555 1_555
C5 C6 1_555 1_555
C8 C9 1_555 1_555
C14 C15 1_555 1_555
C21 C22 1_555 1_555

#END
