
#######################################################################
#
#                 Cambridge Crystallographic Data Centre
#                                CCDC 
#
#######################################################################
#
# If this CIF has been generated from an entry in the Cambridge 
# Structural Database, then it will include bibliographic, chemical, 
# crystal, experimental, refinement or atomic coordinate data resulting 
# from the CCDC's data processing and validation procedures.
#
#######################################################################

data_JOXMIU
_chemical_formula_moiety         'C25 H49 B1 N2 P1 1+,B1 F4 1-'
_chemical_name_systematic        
'(boranyl(dicyclohexyl)phosphanyl)(cyclohexylamino)-N-phenylmethaniminium tetrafluoroborate'
_symmetry_cell_setting           monoclinic
_symmetry_space_group_name_H-M   'P 21/n'
_symmetry_Int_Tables_number      14
_space_group_name_Hall           '-P 2yn'
loop_
_symmetry_equiv_pos_site_id
_symmetry_equiv_pos_as_xyz
1 x,y,z
2 1/2-x,1/2+y,1/2-z
3 -x,-y,-z
4 1/2+x,1/2-y,1/2+z
_cell_length_a                   12.0541(3)
_cell_length_b                   16.1202(4)
_cell_length_c                   15.0576(3)
_cell_angle_alpha                90
_cell_angle_beta                 92.0953(12)
_cell_angle_gamma                90
_cell_volume                     2923.95
_exptl_crystal_colour            colorless
_exptl_crystal_description       chunk
_chemical_melting_point          '259-261 deg.C'
_cell_formula_units_Z            4
_exptl_crystal_recrystallization_method 'hexanes/ acetone'
loop_
_atom_site_label
_atom_site_type_symbol
_atom_site_fract_x
_atom_site_fract_y
_atom_site_fract_z
P1 P 0.73288(4) 0.20888(3) 0.53514(3)
N1 N 0.75376(14) 0.37049(11) 0.60853(10)
H1 H 0.7586(18) 0.4195(16) 0.6009(16)
C1 C 0.96303(17) 0.22337(14) 0.55496(18)
H2 H 0.9675 0.2132 0.4904
H3 H 0.9527 0.2837 0.5641
N2 N 0.72945(14) 0.35777(10) 0.45672(11)
H4 H 0.7259(18) 0.3227(15) 0.4143(18)
C2 C 1.07055(19) 0.19561(16) 0.6021(2)
H5 H 1.1339 0.2244 0.5755
H6 H 1.0692 0.2116 0.6655
C3 C 1.08718(18) 0.10302(15) 0.59521(17)
H7 H 1.1546 0.0869 0.6306
H8 H 1.0986 0.0880 0.5325
C4 C 0.98875(18) 0.05588(16) 0.62831(19)
H9 H 0.9826 0.0655 0.6929
H10 H 0.9999 -0.0043 0.6188
C5 C 0.88235(17) 0.08340(13) 0.57994(19)
H11 H 0.8188 0.0528 0.6038
H12 H 0.8864 0.0699 0.5160
C6 C 0.86364(15) 0.17631(12) 0.59062(13)
H13 H 0.8593 0.1887 0.6555
C7 C 0.5883(2) 0.09087(15) 0.6026(2)
H14 H 0.5669 0.0732 0.5414
H15 H 0.6552 0.0593 0.6222
C8 C 0.4942(2) 0.07218(18) 0.6640(2)
H16 H 0.4760 0.0124 0.6605
H17 H 0.5186 0.0848 0.7260
C9 C 0.39146(19) 0.12236(18) 0.63972(19)
H18 H 0.3350 0.1128 0.6848
H19 H 0.3601 0.1032 0.5816
C10 C 0.41609(19) 0.21424(17) 0.6345(2)
H20 H 0.4355 0.2354 0.6948
H21 H 0.3486 0.2438 0.6123
C11 C 0.51084(16) 0.23259(14) 0.57355(16)
H22 H 0.5277 0.2927 0.5750
H23 H 0.4886 0.2174 0.5117
C12 C 0.61460(16) 0.18340(12) 0.60323(13)
H24 H 0.6345 0.1996 0.6659
C13 C 0.73887(15) 0.32474(11) 0.53658(12)
C14 C 0.6671(2) 0.46339(14) 0.34972(16)
H25 H 0.5884 0.4507 0.3606
H26 H 0.6914 0.4272 0.3010
C15 C 0.6780(2) 0.55434(15) 0.32248(18)
H27 H 0.6354 0.5637 0.2659
H28 H 0.6458 0.5900 0.3684
C16 C 0.7974(2) 0.57870(16) 0.31101(16)
H29 H 0.8014 0.6387 0.2972
H30 H 0.8272 0.5478 0.2603
C17 C 0.8682(2) 0.56057(15) 0.39427(17)
H31 H 0.8444 0.5967 0.4432
H32 H 0.9468 0.5733 0.3831
C18 C 0.85816(19) 0.46994(14) 0.42199(16)
H33 H 0.8904 0.4340 0.3762
H34 H 0.9008 0.4609 0.4786
C19 C 0.73767(17) 0.44611(11) 0.43351(13)
H35 H 0.7081 0.4797 0.4832
C20 C 0.65632(18) 0.37163(14) 0.74970(14)
H36 H 0.5880 0.3524 0.7175
H37 H 0.6549 0.4330 0.7518
C21 C 0.66051(19) 0.33682(15) 0.84361(14)
H38 H 0.5955 0.3572 0.8755
H39 H 0.6559 0.2756 0.8408
C22 C 0.7661(2) 0.36165(14) 0.89481(14)
H40 H 0.7692 0.3329 0.9529
H41 H 0.7647 0.4221 0.9063
C23 C 0.86914(19) 0.34039(15) 0.84469(15)
H42 H 0.8784 0.2794 0.8437
H43 H 0.9349 0.3643 0.8766
C24 C 0.86404(18) 0.37282(14) 0.74934(14)
H44 H 0.8654 0.4342 0.7497
H45 H 0.9295 0.3530 0.7177
C25 C 0.75805(16) 0.34242(11) 0.70144(12)
H46 H 0.7587 0.2804 0.7018
B1 B 0.7180(2) 0.17385(16) 0.41319(17)
H47 H 0.644(2) 0.2020(16) 0.3881(18)
H48 H 0.791(2) 0.1935(16) 0.3807(18)
H49 H 0.707(2) 0.1069(17) 0.4186(18)
F1 F 0.76990(15) 0.13600(10) 0.78558(10)
B2 B 0.7782(3) 0.09909(17) 0.86832(18)
F2 F 0.69015(14) 0.04416(9) 0.87708(11)
F3 F 0.77869(16) 0.15727(9) 0.93442(11)
F4 F 0.87055(18) 0.04995(13) 0.87643(16)
loop_
_geom_bond_atom_site_label_1
_geom_bond_atom_site_label_2
_geom_bond_site_symmetry_1
_geom_bond_site_symmetry_2
P1 C6 1_555 1_555
N1 H1 1_555 1_555
C1 H2 1_555 1_555
H3 C1 1_555 1_555
N2 H4 1_555 1_555
C2 C1 1_555 1_555
H5 C2 1_555 1_555
H6 C2 1_555 1_555
C3 C2 1_555 1_555
H7 C3 1_555 1_555
H8 C3 1_555 1_555
C4 C3 1_555 1_555
H9 C4 1_555 1_555
H10 C4 1_555 1_555
C5 C4 1_555 1_555
H11 C5 1_555 1_555
H12 C5 1_555 1_555
C6 C1 1_555 1_555
H13 C6 1_555 1_555
C7 H14 1_555 1_555
H15 C7 1_555 1_555
C8 C7 1_555 1_555
H16 C8 1_555 1_555
H17 C8 1_555 1_555
C9 C8 1_555 1_555
H18 C9 1_555 1_555
H19 C9 1_555 1_555
C10 C9 1_555 1_555
H20 C10 1_555 1_555
H21 C10 1_555 1_555
C11 C10 1_555 1_555
H22 C11 1_555 1_555
H23 C11 1_555 1_555
C12 P1 1_555 1_555
H24 C12 1_555 1_555
C13 P1 1_555 1_555
C14 H25 1_555 1_555
H26 C14 1_555 1_555
C15 C14 1_555 1_555
H27 C15 1_555 1_555
H28 C15 1_555 1_555
C16 C15 1_555 1_555
H29 C16 1_555 1_555
H30 C16 1_555 1_555
C17 C16 1_555 1_555
H31 C17 1_555 1_555
H32 C17 1_555 1_555
C18 C17 1_555 1_555
H33 C18 1_555 1_555
H34 C18 1_555 1_555
C19 N2 1_555 1_555
H35 C19 1_555 1_555
C20 H36 1_555 1_555
H37 C20 1_555 1_555
C21 C20 1_555 1_555
H38 C21 1_555 1_555
H39 C21 1_555 1_555
C22 C21 1_555 1_555
H40 C22 1_555 1_555
H41 C22 1_555 1_555
C23 C22 1_555 1_555
H42 C23 1_555 1_555
H43 C23 1_555 1_555
C24 C23 1_555 1_555
H44 C24 1_555 1_555
H45 C24 1_555 1_555
C25 N1 1_555 1_555
H46 C25 1_555 1_555
B1 P1 1_555 1_555
H47 B1 1_555 1_555
H48 B1 1_555 1_555
H49 B1 1_555 1_555
F1 B2 1_555 1_555
B2 F2 1_555 1_555
F3 B2 1_555 1_555
F4 B2 1_555 1_555
N1 C13 1_555 1_555
N2 C13 1_555 1_555
C5 C6 1_555 1_555
C7 C12 1_555 1_555
C11 C12 1_555 1_555
C14 C19 1_555 1_555
C18 C19 1_555 1_555
C20 C25 1_555 1_555
C24 C25 1_555 1_555

#END
