
#######################################################################
#
#                 Cambridge Crystallographic Data Centre
#                                CCDC 
#
#######################################################################
#
# If this CIF has been generated from an entry in the Cambridge 
# Structural Database, then it will include bibliographic, chemical, 
# crystal, experimental, refinement or atomic coordinate data resulting 
# from the CCDC's data processing and validation procedures.
#
#######################################################################

data_JOXMAM
_chemical_formula_moiety         'C25 H36 B1 N2 P1'
_chemical_name_systematic        
1-(boranyl)-1,1-dicyclohexyl-N,N'-diphenylphosphoranecarboximidamide
_symmetry_cell_setting           monoclinic
_symmetry_space_group_name_H-M   'P 21/c'
_symmetry_Int_Tables_number      14
_space_group_name_Hall           '-P 2ybc'
loop_
_symmetry_equiv_pos_site_id
_symmetry_equiv_pos_as_xyz
1 x,y,z
2 -x,1/2+y,1/2-z
3 -x,-y,-z
4 x,1/2-y,1/2+z
_cell_length_a                   8.0389(7)
_cell_length_b                   22.5581(18)
_cell_length_c                   12.9197(11)
_cell_angle_alpha                90
_cell_angle_beta                 91.043(6)
_cell_angle_gamma                90
_cell_volume                     2342.5
_exptl_crystal_colour            colorless
_chemical_melting_point          '99 deg.C'
_cell_formula_units_Z            4
_exptl_crystal_recrystallization_method hexanes
loop_
_atom_site_label
_atom_site_type_symbol
_atom_site_fract_x
_atom_site_fract_y
_atom_site_fract_z
P1 P 0.44461(10) 0.64228(3) 0.27679(6)
C1 C -0.1432(4) 0.80991(14) 0.3199(3)
C2 C 0.0889(4) 0.75170(12) 0.3820(2)
N1 N 0.3662(4) 0.75623(11) 0.2341(2)
C3 C -0.0682(4) 0.81175(13) 0.4992(3)
N2 N 0.2129(3) 0.70772(10) 0.36774(19)
C4 C 0.3236(4) 0.71040(13) 0.2977(2)
C5 C 0.2823(4) 0.58602(12) 0.2630(2)
H1 H 0.2096 0.5885 0.3249
C6 C 0.3539(4) 0.52352(12) 0.2585(3)
H2 H 0.4100 0.5142 0.3254
H3 H 0.4383 0.5217 0.2038
C7 C 0.2187(4) 0.47703(14) 0.2362(3)
H4 H 0.2711 0.4376 0.2291
H5 H 0.1419 0.4753 0.2951
C8 C 0.1219(4) 0.49128(14) 0.1390(3)
H6 H 0.0336 0.4612 0.1279
H7 H 0.1968 0.4899 0.0791
C9 C 0.8580(4) 0.63083(13) 0.5353(3)
H8 H 0.9116 0.6211 0.6028
H9 H 0.9414 0.6508 0.4920
C10 C 0.8000(4) 0.57388(13) 0.4823(3)
H10 H 0.8976 0.5486 0.4679
H11 H 0.7262 0.5517 0.5290
C11 C 0.7069(4) 0.58742(14) 0.3813(2)
H12 H 0.6675 0.5499 0.3496
H13 H 0.7838 0.6065 0.3324
C12 C 0.5574(4) 0.62840(12) 0.3986(2)
H14 H 0.4801 0.6079 0.4467
C13 C 0.0436(4) 0.55231(14) 0.1459(3)
H15 H -0.0384 0.5527 0.2021
H16 H -0.0160 0.5614 0.0801
C14 C 0.1756(4) 0.59957(13) 0.1671(3)
H17 H 0.2484 0.6027 0.1064
H18 H 0.1203 0.6384 0.1763
B1 B 0.5864(5) 0.65170(16) 0.1608(3)
H19 H 0.6331 0.6131 0.1419
H20 H 0.6769 0.6791 0.1790
H21 H 0.5219 0.6677 0.1021
C15 C 0.3390(4) 0.81800(13) 0.2496(3)
C16 C 0.2908(4) 0.85295(13) 0.1665(3)
H22 H 0.2749 0.8359 0.0999
C17 C 0.2658(4) 0.91317(14) 0.1813(3)
H23 H 0.2335 0.9375 0.1243
C18 C 0.2875(4) 0.93776(15) 0.2777(3)
H24 H 0.2679 0.9789 0.2878
C19 C 0.3377(4) 0.90278(14) 0.3600(3)
H25 H 0.3539 0.9200 0.4265
C20 C 0.3645(4) 0.84289(13) 0.3462(3)
H26 H 0.4004 0.8189 0.4028
C21 C 0.6186(4) 0.68592(13) 0.4514(2)
H27 H 0.6927 0.7076 0.4041
H28 H 0.5221 0.7117 0.4660
C22 C 0.7125(4) 0.67215(13) 0.5522(2)
H29 H 0.7538 0.7096 0.5833
H30 H 0.6352 0.6537 0.6016
C23 C -0.1707(4) 0.83064(12) 0.4187(3)
H31 H -0.2589 0.8576 0.4312
C24 C -0.0152(4) 0.77083(13) 0.3012(2)
H32 H 0.0020 0.7568 0.2329
C25 C 0.0607(4) 0.77226(12) 0.4810(2)
H33 H 0.1298 0.7593 0.5369
H34 H -0.214(4) 0.8223(12) 0.264(2)
H35 H -0.089(3) 0.8240(12) 0.571(2)
H36 H 0.427(4) 0.7487(12) 0.189(2)
loop_
_geom_bond_atom_site_label_1
_geom_bond_atom_site_label_2
_geom_bond_site_symmetry_1
_geom_bond_site_symmetry_2
P1 C4 1_555 1_555
C1 C23 1_555 1_555
C2 N2 1_555 1_555
N1 C4 1_555 1_555
C3 C23 1_555 1_555
N2 C4 1_555 1_555
C5 P1 1_555 1_555
H1 C5 1_555 1_555
C6 C5 1_555 1_555
H2 C6 1_555 1_555
H3 C6 1_555 1_555
C7 C6 1_555 1_555
H4 C7 1_555 1_555
H5 C7 1_555 1_555
C8 C7 1_555 1_555
H6 C8 1_555 1_555
H7 C8 1_555 1_555
C9 H8 1_555 1_555
H9 C9 1_555 1_555
C10 C9 1_555 1_555
H10 C10 1_555 1_555
H11 C10 1_555 1_555
C11 C10 1_555 1_555
H12 C11 1_555 1_555
H13 C11 1_555 1_555
C12 P1 1_555 1_555
H14 C12 1_555 1_555
C13 C8 1_555 1_555
H15 C13 1_555 1_555
H16 C13 1_555 1_555
C14 C5 1_555 1_555
H17 C14 1_555 1_555
H18 C14 1_555 1_555
B1 P1 1_555 1_555
H19 B1 1_555 1_555
H20 B1 1_555 1_555
H21 B1 1_555 1_555
C15 N1 1_555 1_555
C16 C15 1_555 1_555
H22 C16 1_555 1_555
C17 C16 1_555 1_555
H23 C17 1_555 1_555
C18 C17 1_555 1_555
H24 C18 1_555 1_555
C19 C18 1_555 1_555
H25 C19 1_555 1_555
C20 C15 1_555 1_555
H26 C20 1_555 1_555
C21 C12 1_555 1_555
H27 C21 1_555 1_555
H28 C21 1_555 1_555
C22 C9 1_555 1_555
H29 C22 1_555 1_555
H30 C22 1_555 1_555
C23 H31 1_555 1_555
C24 C1 1_555 1_555
H32 C24 1_555 1_555
C25 C2 1_555 1_555
H33 C25 1_555 1_555
H34 C1 1_555 1_555
H35 C3 1_555 1_555
H36 N1 1_555 1_555
C2 C24 1_555 1_555
C3 C25 1_555 1_555
C11 C12 1_555 1_555
C13 C14 1_555 1_555
C19 C20 1_555 1_555
C21 C22 1_555 1_555

#END
