
#######################################################################
#
#                 Cambridge Crystallographic Data Centre
#                                CCDC 
#
#######################################################################
#
# If this CIF has been generated from an entry in the Cambridge 
# Structural Database, then it will include bibliographic, chemical, 
# crystal, experimental, refinement or atomic coordinate data resulting 
# from the CCDC's data processing and validation procedures.
#
#######################################################################

data_JOXPAP
_chemical_formula_moiety         'C26 H26 N2 O4 S1'
_chemical_name_systematic        
'Ethyl (1-((4-methylphenyl)sulfonyl)-2,4-diphenyl-2,5-dihydro-1H-imidazol-2-yl)acetate'
_symmetry_cell_setting           triclinic
_symmetry_space_group_name_H-M   'P -1'
_symmetry_Int_Tables_number      2
_space_group_name_Hall           '-P 1'
loop_
_symmetry_equiv_pos_site_id
_symmetry_equiv_pos_as_xyz
1 x,y,z
2 -x,-y,-z
_cell_length_a                   13.884(3)
_cell_length_b                   14.040(3)
_cell_length_c                   14.355(3)
_cell_angle_alpha                118.32(3)
_cell_angle_beta                 92.91(3)
_cell_angle_gamma                103.95(3)
_cell_volume                     2345.59
_exptl_crystal_colour            colorless
_exptl_crystal_description       needle
_cell_formula_units_Z            4
loop_
_atom_site_label
_atom_site_type_symbol
_atom_site_fract_x
_atom_site_fract_y
_atom_site_fract_z
C1 C 0.6380(4) 0.2900(5) 1.1567(5)
C2 C 0.5940(4) 0.1872(5) 1.0610(5)
H1 H 0.6356 0.1495 1.0182
C3 C 0.4909(4) 0.1404(4) 1.0285(4)
H2 H 0.4632 0.0725 0.9639
C4 C 0.4287(3) 0.1947(4) 1.0921(4)
C5 C 0.4723(4) 0.2968(4) 1.1900(4)
H3 H 0.4307 0.3331 1.2339
C6 C 0.5746(4) 0.3432(4) 1.2214(4)
H4 H 0.6022 0.4107 1.2864
C7 C 0.7517(4) 0.3415(5) 1.1901(5)
H5 H 0.7681 0.4211 1.2412
H6 H 0.7804 0.3312 1.1277
H7 H 0.7787 0.3049 1.2224
C8 C 0.2652(3) 0.2108(4) 0.9044(4)
C9 C 0.2098(3) 0.3585(4) 1.0119(4)
C10 C 0.2272(3) 0.3105(4) 1.0836(4)
H8 H 0.2806 0.3638 1.1459
H9 H 0.1659 0.2880 1.1074
C11 C 0.1735(3) 0.4595(4) 1.0506(4)
C12 C 0.1598(4) 0.5171(5) 1.1561(5)
H10 H 0.1715 0.4908 1.2028
C13 C 0.1294(5) 0.6115(6) 1.1918(5)
H11 H 0.1220 0.6508 1.2631
C14 C 0.1095(5) 0.6489(6) 1.1218(6)
H12 H 0.0870 0.7124 1.1456
C15 C 0.1226(4) 0.5936(6) 1.0182(6)
H13 H 0.1094 0.6198 0.9717
C16 C 0.1551(4) 0.4996(5) 0.9818(5)
H14 H 0.1648 0.4627 0.9112
C17 C 0.3740(3) 0.2363(4) 0.8896(4)
C18 C 0.4102(4) 0.1638(4) 0.8050(4)
H15 H 0.3651 0.0959 0.7508
C19 C 0.5114(4) 0.1886(5) 0.7982(5)
H16 H 0.5335 0.1373 0.7406
C20 C 0.5793(4) 0.2895(5) 0.8770(5)
H17 H 0.6475 0.3066 0.8730
C21 C 0.5452(4) 0.3646(5) 0.9614(5)
H18 H 0.5905 0.4332 1.0143
C22 C 0.4439(4) 0.3392(4) 0.9685(4)
H19 H 0.4221 0.3908 1.0261
C23 C 0.1972(4) 0.1001(5) 0.8089(4)
C24 C 0.0892(5) 0.0573(5) 0.8194(5)
C25 C -0.0564(4) 0.0715(6) 0.8917(5)
C26 C -0.0552(12) 0.1298(13) 1.0091(6)
N1 N 0.2568(3) 0.2130(3) 1.0094(3)
N2 N 0.2281(3) 0.3047(3) 0.9173(3)
O1 O 0.2777(2) 0.0260(3) 0.9573(3)
O2 O 0.2539(3) 0.1516(3) 1.1421(3)
O3 O 0.0510(7) -0.0517(8) 0.7780(8)
O4 O 0.0490(3) 0.1217(4) 0.8877(4)
S1 S 0.29691(10) 0.13710(12) 1.04954(11)
H20 H 0.227(3) 0.045(2) 0.801(3)
H21 H 0.193(3) 0.112(4) 0.750(3)
C28 C 0.5928(4) 0.1312(4) 0.3529(5)
C29 C 0.5052(4) 0.1102(4) 0.2848(5)
H22 H 0.5102 0.1090 0.2199
C30 C 0.4123(4) 0.0912(4) 0.3118(4)
H23 H 0.3550 0.0762 0.2646
C31 C 0.4023(4) 0.0941(4) 0.4089(4)
C32 C 0.4889(4) 0.1131(4) 0.4760(4)
H24 H 0.4841 0.1140 0.5408
C33 C 0.5805(4) 0.1303(5) 0.4476(5)
H25 H 0.6372 0.1418 0.4934
C34 C 0.6952(4) 0.1596(5) 0.3252(5)
H26 H 0.7190 0.2394 0.3501
H27 H 0.6899 0.1175 0.2485
H28 H 0.7419 0.1400 0.3595
C35 C 0.2989(3) 0.3094(4) 0.5800(4)
C36 C 0.2007(3) 0.3283(4) 0.4629(4)
C37 C 0.1949(4) 0.2059(4) 0.4006(4)
H29 H 0.1258 0.1571 0.3807
H30 H 0.2233 0.1885 0.3362
C38 C 0.1445(3) 0.3808(5) 0.4224(4)
C39 C 0.1576(4) 0.4960(5) 0.4817(5)
H31 H 0.2048 0.5406 0.5459
C40 C 0.1004(4) 0.5462(5) 0.4460(5)
H32 H 0.1096 0.6238 0.4861
C41 C 0.0312(5) 0.4804(6) 0.3518(5)
H33 H -0.0070 0.5134 0.3278
C42 C 0.0174(4) 0.3661(6) 0.2921(5)
H34 H -0.0300 0.3217 0.2280
C43 C 0.0749(4) 0.3170(5) 0.3280(5)
H35 H 0.0659 0.2395 0.2871
C44 C 0.4132(3) 0.3500(4) 0.5994(4)
C45 C 0.4593(4) 0.3743(4) 0.5263(4)
H36 H 0.4194 0.3657 0.4671
C46 C 0.5626(4) 0.4108(4) 0.5399(4)
H37 H 0.5916 0.4250 0.4890
C47 C 0.6243(4) 0.4269(4) 0.6280(5)
H38 H 0.6944 0.4532 0.6381
C48 C 0.5785(4) 0.4026(4) 0.7004(4)
H39 H 0.6185 0.4112 0.7594
C49 C 0.4758(4) 0.3663(4) 0.6873(4)
H40 H 0.4472 0.3522 0.7384
C50 C 0.2592(3) 0.3092(4) 0.6781(4)
H41 H 0.2780 0.2521 0.6883
H42 H 0.2921 0.3824 0.7419
C51 C 0.1469(4) 0.2862(5) 0.6684(4)
C52 C -0.0121(4) 0.1430(5) 0.6067(5)
H43 H -0.0292 0.1922 0.6742
H44 H -0.0363 0.0657 0.5927
C53 C -0.0627(4) 0.1513(6) 0.5173(6)
H45 H -0.0415 0.2287 0.5331
H46 H -0.1348 0.1267 0.5107
H47 H -0.0444 0.1041 0.4508
N3 N 0.2560(3) 0.1955(3) 0.4785(3)
N4 N 0.2574(3) 0.3838(3) 0.5566(3)
O6 O 0.2111(3) -0.0086(3) 0.3555(3)
O7 O 0.2988(3) 0.0750(3) 0.5452(3)
O8 O 0.1057(3) 0.3593(3) 0.7066(3)
O9 O 0.0971(3) 0.1755(3) 0.6159(3)
S2 S 0.28538(10) 0.08098(12) 0.44876(12)
C27? C -0.0767(9) 0.1576(9) 0.9927(7)
O5? O 0.0368(6) -0.0320(8) 0.7385(7)
loop_
_geom_bond_atom_site_label_1
_geom_bond_atom_site_label_2
_geom_bond_site_symmetry_1
_geom_bond_site_symmetry_2
C1 C2 1_555 1_555
C2 H1 1_555 1_555
C3 C2 1_555 1_555
H2 C3 1_555 1_555
C4 C3 1_555 1_555
C5 C4 1_555 1_555
H3 C5 1_555 1_555
C6 C1 1_555 1_555
H4 C6 1_555 1_555
C7 C1 1_555 1_555
H5 C7 1_555 1_555
H6 C7 1_555 1_555
H7 C7 1_555 1_555
C8 C17 1_555 1_555
C9 C10 1_555 1_555
C10 H8 1_555 1_555
H9 C10 1_555 1_555
C11 C9 1_555 1_555
C12 C11 1_555 1_555
H10 C12 1_555 1_555
C13 C12 1_555 1_555
H11 C13 1_555 1_555
C14 C13 1_555 1_555
H12 C14 1_555 1_555
C15 C14 1_555 1_555
H13 C15 1_555 1_555
C16 C11 1_555 1_555
H14 C16 1_555 1_555
C17 C18 1_555 1_555
C18 H15 1_555 1_555
C19 C18 1_555 1_555
H16 C19 1_555 1_555
C20 C19 1_555 1_555
H17 C20 1_555 1_555
C21 C20 1_555 1_555
H18 C21 1_555 1_555
C22 C17 1_555 1_555
H19 C22 1_555 1_555
C23 C8 1_555 1_555
C24 C23 1_555 1_555
C25 C26 1_555 1_555
N1 C8 1_555 1_555
N2 C8 1_555 1_555
O1 S1 1_555 1_555
O2 S1 1_555 1_555
O3 C24 1_555 1_555
O4 C24 1_555 1_555
S1 C4 1_555 1_555
H20 C23 1_555 1_555
H21 C23 1_555 1_555
C28 C29 1_555 1_555
C29 H22 1_555 1_555
C30 C29 1_555 1_555
H23 C30 1_555 1_555
C31 C30 1_555 1_555
C32 C31 1_555 1_555
H24 C32 1_555 1_555
C33 C28 1_555 1_555
H25 C33 1_555 1_555
C34 C28 1_555 1_555
H26 C34 1_555 1_555
H27 C34 1_555 1_555
H28 C34 1_555 1_555
C35 C44 1_555 1_555
C36 C37 1_555 1_555
C37 H29 1_555 1_555
H30 C37 1_555 1_555
C38 C36 1_555 1_555
C39 C38 1_555 1_555
H31 C39 1_555 1_555
C40 C39 1_555 1_555
H32 C40 1_555 1_555
C41 C40 1_555 1_555
H33 C41 1_555 1_555
C42 C41 1_555 1_555
H34 C42 1_555 1_555
C43 C38 1_555 1_555
H35 C43 1_555 1_555
C44 C45 1_555 1_555
C45 H36 1_555 1_555
C46 C45 1_555 1_555
H37 C46 1_555 1_555
C47 C46 1_555 1_555
H38 C47 1_555 1_555
C48 C47 1_555 1_555
H39 C48 1_555 1_555
C49 C44 1_555 1_555
H40 C49 1_555 1_555
C50 C35 1_555 1_555
H41 C50 1_555 1_555
H42 C50 1_555 1_555
C51 C50 1_555 1_555
C52 H43 1_555 1_555
H44 C52 1_555 1_555
C53 C52 1_555 1_555
H45 C53 1_555 1_555
H46 C53 1_555 1_555
H47 C53 1_555 1_555
N3 C35 1_555 1_555
N4 C35 1_555 1_555
O6 S2 1_555 1_555
O7 S2 1_555 1_555
O8 C51 1_555 1_555
O9 C51 1_555 1_555
S2 C31 1_555 1_555
C5 C6 1_555 1_555
C9 N2 1_555 1_555
C10 N1 1_555 1_555
C15 C16 1_555 1_555
C21 C22 1_555 1_555
C25 O4 1_555 1_555
N1 S1 1_555 1_555
C32 C33 1_555 1_555
C36 N4 1_555 1_555
C37 N3 1_555 1_555
C42 C43 1_555 1_555
C48 C49 1_555 1_555
C52 O9 1_555 1_555
N3 S2 1_555 1_555

#END
