
#######################################################################
#
#                 Cambridge Crystallographic Data Centre
#                                CCDC 
#
#######################################################################
#
# If this CIF has been generated from an entry in the Cambridge 
# Structural Database, then it will include bibliographic, chemical, 
# crystal, experimental, refinement or atomic coordinate data resulting 
# from the CCDC's data processing and validation procedures.
#
#######################################################################

data_JOXRIZ
_chemical_name_common            'Ethylpyridyl naphthalimide Troger Base'
_chemical_formula_moiety         'C41 H30 N6 O4'
_chemical_name_systematic        
9,23-bis(2-(Pyridin-4-yl)ethyl)-1,9,15,23-tetra-azaoctacyclo[13.13.1.1^3,7^.1^17,21^.0^2,13^.0^11,31^.0^16,27^.0^25,30^]hentriaconta-2(13),3(31),4,6,11,16(27),17(30),18,20,25-decaene-8,10,22,24-tetrone
_symmetry_cell_setting           monoclinic
_symmetry_space_group_name_H-M   'C 2/c'
_symmetry_Int_Tables_number      15
_space_group_name_Hall           '-C 2yn'
loop_
_symmetry_equiv_pos_site_id
_symmetry_equiv_pos_as_xyz
1 x,y,z
2 -x,y,1/2-z
3 1/2+x,1/2+y,z
4 1/2-x,1/2+y,1/2-z
5 -x,-y,-z
6 x,-y,1/2+z
7 1/2-x,1/2-y,-z
8 1/2+x,1/2-y,1/2+z
_cell_length_a                   16.6720(12)
_cell_length_b                   9.9486(7)
_cell_length_c                   18.7198(13)
_cell_angle_alpha                90
_cell_angle_beta                 90.02
_cell_angle_gamma                90
_cell_volume                     3104.92
_exptl_crystal_colour            yellow
_exptl_crystal_description       prism
_cell_formula_units_Z            4
_exptl_crystal_recrystallization_method Dichloromethane
_exptl_crystal_preparation       Luminescent
loop_
_atom_site_label
_atom_site_type_symbol
_atom_site_fract_x
_atom_site_fract_y
_atom_site_fract_z
O1 O 0.15463(7) 0.18074(12) 0.53555(6)
O2 O -0.07280(7) 0.16923(11) 0.40205(6)
N1 N 0.03991(8) 0.17247(13) 0.47071(7)
N2 N -0.05919(8) 0.60809(13) 0.71242(6)
N3 N 0.20826(8) -0.21710(14) 0.23549(7)
C1 C 0.08744(10) 0.22472(16) 0.52620(8)
C2 C -0.03729(10) 0.21627(16) 0.45347(8)
C3 C -0.07401(10) 0.31778(15) 0.50140(8)
C4 C -0.02978(9) 0.36944(14) 0.55964(8)
C5 C 0.05063(9) 0.32929(15) 0.57126(8)
C6 C 0.09407(10) 0.38695(16) 0.62574(8)
C7 C 0.05888(9) 0.48045(15) 0.67300(8)
C8 C -0.02079(9) 0.51618(14) 0.66461(8)
C9 C 0.000 0.6905(2) 0.750
C10 C -0.06656(9) 0.46499(15) 0.60594(8)
C11 C -0.14537(10) 0.50839(16) 0.59089(8)
C12 C -0.18652(11) 0.45788(17) 0.53324(8)
C13 C -0.15089(10) 0.36116(17) 0.48864(8)
C14 C 0.10896(10) 0.53865(17) 0.73314(8)
C15 C 0.07451(12) 0.06057(17) 0.42887(9)
C16 C 0.13605(11) 0.10866(17) 0.37409(9)
C17 C 0.16089(10) -0.00513(15) 0.32538(8)
C18 C 0.18900(10) -0.12651(16) 0.35267(9)
C19 C 0.21202(10) -0.22720(17) 0.30615(9)
C20 C 0.17978(11) -0.10219(18) 0.20949(9)
C21 C 0.15602(10) 0.00483(17) 0.25151(9)
H1 H 0.1490(11) 0.3607(16) 0.6331(8)
H2 H 0.1471(10) 0.6051(17) 0.7135(8)
H3 H 0.1838(11) 0.1470(17) 0.3980(9)
H4 H 0.1136(10) 0.1818(17) 0.3458(9)
H5 H 0.1409(10) 0.4628(18) 0.7575(9)
H6 H 0.0272(10) 0.7474(16) 0.7146(8)
H7 H 0.0290(11) 0.0124(18) 0.4056(10)
H8 H -0.2363(12) 0.4834(17) 0.5230(9)
H9 H 0.1722(11) -0.0953(19) 0.1573(11)
H10 H -0.1786(11) 0.3303(18) 0.4487(10)
H11 H 0.1912(11) -0.1406(18) 0.4060(10)
H12 H 0.2333(12) -0.3169(19) 0.3254(10)
H13 H 0.1003(11) -0.0060(17) 0.4633(10)
H14 H -0.1696(10) 0.5747(17) 0.6187(9)
H15 H 0.1361(11) 0.0833(19) 0.2306(10)
O1A O -0.15463(7) 0.18074(12) 0.96445(6)
O2A O 0.07280(7) 0.16923(11) 1.09795(6)
N1A N -0.03991(8) 0.17247(13) 1.02929(7)
N2A N 0.05919(8) 0.60809(13) 0.78758(6)
N3A N -0.20826(8) -0.21710(14) 1.26451(7)
C1A C -0.08744(10) 0.22472(16) 0.97380(8)
C2A C 0.03729(10) 0.21627(16) 1.04653(8)
C3A C 0.07401(10) 0.31778(15) 0.99860(8)
C4A C 0.02978(9) 0.36944(14) 0.94036(8)
C5A C -0.05063(9) 0.32929(15) 0.92874(8)
C6A C -0.09407(10) 0.38695(16) 0.87426(8)
C7A C -0.05888(9) 0.48045(15) 0.82700(8)
C8A C 0.02079(9) 0.51618(14) 0.83539(8)
C10A C 0.06656(9) 0.46499(15) 0.89406(8)
C11A C 0.14537(10) 0.50839(16) 0.90911(8)
C12A C 0.18652(11) 0.45788(17) 0.96676(8)
C13A C 0.15089(10) 0.36116(17) 1.01136(8)
C14A C -0.10896(10) 0.53865(17) 0.76686(8)
C15A C -0.07451(12) 0.06057(17) 1.07113(9)
C16A C -0.13605(11) 0.10866(17) 1.12591(9)
C17A C -0.16089(10) -0.00513(15) 1.17462(8)
C18A C -0.18900(10) -0.12651(16) 1.14733(9)
C19A C -0.21202(10) -0.22720(17) 1.19385(9)
C20A C -0.17978(11) -0.10219(18) 1.29051(9)
C21A C -0.15602(10) 0.00483(17) 1.24849(9)
H1A H -0.1490(11) 0.3607(16) 0.8669(8)
H2A H -0.1471(10) 0.6051(17) 0.7865(8)
H3A H -0.1838(11) 0.1470(17) 1.1020(9)
H4A H -0.1136(10) 0.1818(17) 1.1542(9)
H5A H -0.1409(10) 0.4628(18) 0.7425(9)
H6A H -0.0272(10) 0.7474(16) 0.7854(8)
H7A H -0.0290(11) 0.0124(18) 1.0944(10)
H8A H 0.2363(12) 0.4834(17) 0.9770(9)
H9A H -0.1722(11) -0.0953(19) 1.3427(11)
H10A H 0.1786(11) 0.3303(18) 1.0513(10)
H11A H -0.1912(11) -0.1406(18) 1.0940(10)
H12A H -0.2333(12) -0.3169(19) 1.1746(10)
H13A H -0.1003(11) -0.0060(17) 1.0367(10)
H14A H 0.1696(10) 0.5747(17) 0.8813(9)
H15A H -0.1361(11) 0.0833(19) 1.2694(10)
loop_
_geom_bond_atom_site_label_1
_geom_bond_atom_site_label_2
_geom_bond_site_symmetry_1
_geom_bond_site_symmetry_2
O1 C1 1_555 1_555
O2 C2 1_555 1_555
N1 C1 1_555 1_555
N2 C8 1_555 1_555
N3 C19 1_555 1_555
C1 C5 1_555 1_555
C2 N1 1_555 1_555
C3 C2 1_555 1_555
C4 C3 1_555 1_555
C5 C4 1_555 1_555
C6 C5 1_555 1_555
C7 C6 1_555 1_555
C8 C7 1_555 1_555
C9 N2 1_555 1_555
C10 C4 1_555 1_555
C11 C10 1_555 1_555
C12 C11 1_555 1_555
C13 C3 1_555 1_555
C14 C7 1_555 1_555
C15 N1 1_555 1_555
C16 C15 1_555 1_555
C17 C16 1_555 1_555
C18 C17 1_555 1_555
C19 C18 1_555 1_555
C20 N3 1_555 1_555
C21 C17 1_555 1_555
H1 C6 1_555 1_555
H2 C14 1_555 1_555
H3 C16 1_555 1_555
H4 C16 1_555 1_555
H5 C14 1_555 1_555
H6 C9 1_555 1_555
H7 C15 1_555 1_555
H8 C12 1_555 1_555
H9 C20 1_555 1_555
H10 C13 1_555 1_555
H11 C18 1_555 1_555
H12 C19 1_555 1_555
H13 C15 1_555 1_555
H14 C11 1_555 1_555
H15 C21 1_555 1_555
O1A C1A 1_555 1_555
O2A C2A 1_555 1_555
N1A C1A 1_555 1_555
N2A C9 1_555 1_555
N3A C19A 1_555 1_555
C1A C5A 1_555 1_555
C2A N1A 1_555 1_555
C3A C2A 1_555 1_555
C4A C3A 1_555 1_555
C5A C4A 1_555 1_555
C6A C5A 1_555 1_555
C7A C6A 1_555 1_555
C8A N2A 1_555 1_555
C10A C4A 1_555 1_555
C11A C10A 1_555 1_555
C12A C11A 1_555 1_555
C13A C3A 1_555 1_555
C14A N2 1_555 1_555
C15A N1A 1_555 1_555
C16A C15A 1_555 1_555
C17A C16A 1_555 1_555
C18A C17A 1_555 1_555
C19A C18A 1_555 1_555
C20A N3A 1_555 1_555
C21A C17A 1_555 1_555
H1A C6A 1_555 1_555
H2A C14A 1_555 1_555
H3A C16A 1_555 1_555
H4A C16A 1_555 1_555
H5A C14A 1_555 1_555
H6A C9 1_555 1_555
H7A C15A 1_555 1_555
H8A C12A 1_555 1_555
H9A C20A 1_555 1_555
H10A C13A 1_555 1_555
H11A C18A 1_555 1_555
H12A C19A 1_555 1_555
H13A C15A 1_555 1_555
H14A C11A 1_555 1_555
H15A C21A 1_555 1_555
C8 C10 1_555 1_555
C12 C13 1_555 1_555
C14 N2A 1_555 1_555
C20 C21 1_555 1_555
C7A C8A 1_555 1_555
C7A C14A 1_555 1_555
C8A C10A 1_555 1_555
C12A C13A 1_555 1_555
C20A C21A 1_555 1_555

#END
