
#######################################################################
#
#                 Cambridge Crystallographic Data Centre
#                                CCDC 
#
#######################################################################
#
# If this CIF has been generated from an entry in the Cambridge 
# Structural Database, then it will include bibliographic, chemical, 
# crystal, experimental, refinement or atomic coordinate data resulting 
# from the CCDC's data processing and validation procedures.
#
#######################################################################

data_JOXROF
_chemical_formula_moiety         'C23 H34 B1 N2 P1'
_chemical_name_systematic        
6-(\l^5^-Boranyl(di-t-butyl)phosphoranyl)-12,13-dihydro-5H-dibenzo[d,h][1,3]diazonine
_symmetry_cell_setting           triclinic
_symmetry_space_group_name_H-M   'P -1'
_symmetry_Int_Tables_number      2
_space_group_name_Hall           '-P 1'
loop_
_symmetry_equiv_pos_site_id
_symmetry_equiv_pos_as_xyz
1 x,y,z
2 -x,-y,-z
_cell_length_a                   11.3394(5)
_cell_length_b                   13.9575(7)
_cell_length_c                   14.6789(8)
_cell_angle_alpha                93.950(3)
_cell_angle_beta                 90.335(2)
_cell_angle_gamma                104.560(2)
_cell_volume                     2242.63
_exptl_crystal_colour            colorless
_exptl_crystal_description       shard
_cell_formula_units_Z            4
loop_
_atom_site_label
_atom_site_type_symbol
_atom_site_fract_x
_atom_site_fract_y
_atom_site_fract_z
P1 P 1.04228(5) 0.27378(5) 0.19476(4)
B1 B 1.0807(3) 0.2623(4) 0.3220(2)
H1 H 1.067(4) 0.331(3) 0.358(3)
H2 H 1.175(3) 0.252(2) 0.320(2)
H3 H 1.017(4) 0.190(3) 0.343(2)
N1 N 0.84027(17) 0.28302(15) 0.10241(13)
C1 C 0.7229(2) 0.29548(19) 0.08021(15)
N2 N 0.8137(2) 0.2451(2) 0.25756(16)
H4 H 0.856(3) 0.245(3) 0.301(2)
C2 C 0.7094(3) 0.3913(2) 0.07953(18)
H5 H 0.7739 0.4449 0.1009
C3 C 0.6027(3) 0.4095(3) 0.0480(2)
H6 H 0.5946 0.4749 0.0480
C4 C 0.5082(3) 0.3309(3) 0.0165(2)
H7 H 0.4355 0.3425 -0.0057
C5 C 0.5204(3) 0.2360(3) 0.01772(19)
H8 H 0.4548 0.1830 -0.0032
C6 C 0.6271(2) 0.2154(2) 0.04900(17)
C7 C 0.6374(3) 0.1114(2) 0.0540(2)
H9 H 0.7105 0.1040 0.0219
H10 H 0.5668 0.0661 0.0221
C8 C 0.6444(3) 0.0812(2) 0.1510(3)
H11 H 0.5942 0.0132 0.1541
H12 H 0.7289 0.0809 0.1653
C9 C 0.6032(3) 0.1471(2) 0.2224(2)
C10 C 0.4806(3) 0.1347(3) 0.2402(3)
H13 H 0.4229 0.0830 0.2081
C11 C 0.4418(3) 0.1955(4) 0.3033(3)
H14 H 0.3580 0.1849 0.3141
C12 C 0.5221(3) 0.2709(4) 0.3504(2)
H15 H 0.4946 0.3117 0.3946
C13 C 0.6448(3) 0.2877(3) 0.33317(19)
H16 H 0.7010 0.3406 0.3652
C14 C 0.6851(2) 0.2275(2) 0.26948(18)
C15 C 0.8769(2) 0.26534(16) 0.18019(15)
C16 C 1.0720(2) 0.1689(2) 0.12064(18)
C17 C 1.0172(3) 0.1576(3) 0.0236(2)
H17 H 1.0370 0.1018 -0.0103
H18 H 1.0505 0.2177 -0.0069
H19 H 0.9294 0.1463 0.0265
C18 C 1.0142(4) 0.0749(3) 0.1682(3)
H20 H 1.0268 0.0175 0.1324
H21 H 0.9275 0.0688 0.1740
H22 H 1.0516 0.0789 0.2284
C19 C 1.2089(3) 0.1806(3) 0.1142(3)
H23 H 1.2241 0.1261 0.0754
H24 H 1.2436 0.1804 0.1747
H25 H 1.2463 0.2429 0.0884
C20 C 1.1182(3) 0.3997(2) 0.1590(2)
C21 C 1.0544(3) 0.4723(2) 0.2083(3)
H26 H 1.0910 0.5391 0.1914
H27 H 1.0633 0.4699 0.2738
H28 H 0.9685 0.4540 0.1910
C22 C 1.1134(3) 0.4100(3) 0.0568(3)
H29 H 1.1545 0.4773 0.0439
H30 H 1.0291 0.3951 0.0357
H31 H 1.1537 0.3639 0.0254
C23 C 1.2534(3) 0.4264(3) 0.1934(3)
H32 H 1.2947 0.4917 0.1753
H33 H 1.2935 0.3777 0.1669
H34 H 1.2563 0.4264 0.2594
P2 P 0.30261(6) 0.24570(6) 0.68762(5)
B2 B 0.2561(3) 0.2196(4) 0.8149(2)
H35 H 0.299(3) 0.288(3) 0.852(2)
H36 H 0.292(4) 0.155(3) 0.837(3)
H37 H 0.162(5) 0.202(4) 0.813(3)
N3 N 0.51351(18) 0.27361(16) 0.59653(14)
N4 N 0.5185(2) 0.22477(18) 0.74848(16)
H38 H 0.473(3) 0.214(3) 0.796(2)
C24 C 0.6402(2) 0.29546(17) 0.57736(15)
C25 C 0.7057(3) 0.3939(2) 0.58237(18)
H39 H 0.6678 0.4436 0.6037
C26 C 0.8255(3) 0.4202(2) 0.5566(2)
H40 H 0.8689 0.4874 0.5611
C27 C 0.8826(3) 0.3477(2) 0.52397(19)
H41 H 0.9644 0.3651 0.5065
C28 C 0.8167(2) 0.2501(2) 0.51772(16)
H42 H 0.8546 0.2008 0.4957
C29 C 0.6956(2) 0.22242(18) 0.54304(15)
C30 C 0.6267(2) 0.11453(19) 0.53692(17)
H43 H 0.6769 0.0756 0.5051
H44 H 0.5524 0.1067 0.4997
C31 C 0.5911(2) 0.07151(19) 0.62884(19)
H45 H 0.5057 0.0707 0.6399
H46 H 0.5977 0.0027 0.6257
C32 C 0.6682(2) 0.12844(17) 0.70757(16)
C33 C 0.7793(2) 0.1097(2) 0.72948(18)
H47 H 0.8047 0.0593 0.6953
C34 C 0.8534(2) 0.1631(2) 0.80008(19)
H48 H 0.9277 0.1482 0.8138
C35 C 0.8195(3) 0.2372(2) 0.84994(19)
H49 H 0.8705 0.2735 0.8978
C36 C 0.7109(2) 0.2588(2) 0.83046(17)
H50 H 0.6880 0.3104 0.8648
C37 C 0.6347(2) 0.20477(19) 0.76007(17)
C38 C 0.4661(2) 0.24739(17) 0.67143(16)
C39 C 0.2962(3) 0.3734(3) 0.6635(2)
C40 C 0.4026(4) 0.4444(3) 0.7203(3)
H51 H 0.4037 0.5127 0.7104
H52 H 0.4792 0.4313 0.7013
H53 H 0.3916 0.4337 0.7846
C41 C 0.3069(4) 0.3917(3) 0.5619(3)
H54 H 0.3031 0.4592 0.5533
H55 H 0.2403 0.3456 0.5278
H56 H 0.3839 0.3820 0.5401
C42 C 0.1752(4) 0.3913(3) 0.7022(3)
H57 H 0.1699 0.4577 0.6906
H58 H 0.1738 0.3842 0.7675
H59 H 0.1064 0.3430 0.6726
C43 C 0.2135(2) 0.1441(2) 0.60545(18)
C44 C 0.2623(3) 0.1411(2) 0.50951(19)
H60 H 0.2102 0.0863 0.4725
H61 H 0.3444 0.1322 0.5121
H62 H 0.2636 0.2029 0.4827
C45 C 0.0815(3) 0.1530(3) 0.6005(2)
H63 H 0.0342 0.1009 0.5581
H64 H 0.0802 0.2172 0.5797
H65 H 0.0465 0.1465 0.6606
C46 C 0.2177(3) 0.0470(2) 0.6468(2)
H66 H 0.1729 -0.0089 0.6071
H67 H 0.1810 0.0448 0.7065
H68 H 0.3017 0.0437 0.6531
loop_
_geom_bond_atom_site_label_1
_geom_bond_atom_site_label_2
_geom_bond_site_symmetry_1
_geom_bond_site_symmetry_2
P1 B1 1_555 1_555
B1 H1 1_555 1_555
H2 B1 1_555 1_555
H3 B1 1_555 1_555
N1 C1 1_555 1_555
C1 C2 1_555 1_555
N2 H4 1_555 1_555
C2 H5 1_555 1_555
C3 C2 1_555 1_555
H6 C3 1_555 1_555
C4 C3 1_555 1_555
H7 C4 1_555 1_555
C5 C4 1_555 1_555
H8 C5 1_555 1_555
C6 C1 1_555 1_555
C7 C6 1_555 1_555
H9 C7 1_555 1_555
H10 C7 1_555 1_555
C8 C7 1_555 1_555
H11 C8 1_555 1_555
H12 C8 1_555 1_555
C9 C8 1_555 1_555
C10 C9 1_555 1_555
H13 C10 1_555 1_555
C11 C10 1_555 1_555
H14 C11 1_555 1_555
C12 C11 1_555 1_555
H15 C12 1_555 1_555
C13 C12 1_555 1_555
H16 C13 1_555 1_555
C14 N2 1_555 1_555
C15 P1 1_555 1_555
C16 P1 1_555 1_555
C17 C16 1_555 1_555
H17 C17 1_555 1_555
H18 C17 1_555 1_555
H19 C17 1_555 1_555
C18 C16 1_555 1_555
H20 C18 1_555 1_555
H21 C18 1_555 1_555
H22 C18 1_555 1_555
C19 C16 1_555 1_555
H23 C19 1_555 1_555
H24 C19 1_555 1_555
H25 C19 1_555 1_555
C20 P1 1_555 1_555
C21 C20 1_555 1_555
H26 C21 1_555 1_555
H27 C21 1_555 1_555
H28 C21 1_555 1_555
C22 C20 1_555 1_555
H29 C22 1_555 1_555
H30 C22 1_555 1_555
H31 C22 1_555 1_555
C23 C20 1_555 1_555
H32 C23 1_555 1_555
H33 C23 1_555 1_555
H34 C23 1_555 1_555
P2 B2 1_555 1_555
B2 H35 1_555 1_555
H36 B2 1_555 1_555
H37 B2 1_555 1_555
N3 C24 1_555 1_555
N4 H38 1_555 1_555
C24 C25 1_555 1_555
C25 H39 1_555 1_555
C26 C25 1_555 1_555
H40 C26 1_555 1_555
C27 C26 1_555 1_555
H41 C27 1_555 1_555
C28 C27 1_555 1_555
H42 C28 1_555 1_555
C29 C24 1_555 1_555
C30 C29 1_555 1_555
H43 C30 1_555 1_555
H44 C30 1_555 1_555
C31 C30 1_555 1_555
H45 C31 1_555 1_555
H46 C31 1_555 1_555
C32 C31 1_555 1_555
C33 C32 1_555 1_555
H47 C33 1_555 1_555
C34 C33 1_555 1_555
H48 C34 1_555 1_555
C35 C34 1_555 1_555
H49 C35 1_555 1_555
C36 C35 1_555 1_555
H50 C36 1_555 1_555
C37 N4 1_555 1_555
C38 P2 1_555 1_555
C39 P2 1_555 1_555
C40 C39 1_555 1_555
H51 C40 1_555 1_555
H52 C40 1_555 1_555
H53 C40 1_555 1_555
C41 C39 1_555 1_555
H54 C41 1_555 1_555
H55 C41 1_555 1_555
H56 C41 1_555 1_555
C42 C39 1_555 1_555
H57 C42 1_555 1_555
H58 C42 1_555 1_555
H59 C42 1_555 1_555
C43 P2 1_555 1_555
C44 C43 1_555 1_555
H60 C44 1_555 1_555
H61 C44 1_555 1_555
H62 C44 1_555 1_555
C45 C43 1_555 1_555
H63 C45 1_555 1_555
H64 C45 1_555 1_555
H65 C45 1_555 1_555
C46 C43 1_555 1_555
H66 C46 1_555 1_555
H67 C46 1_555 1_555
H68 C46 1_555 1_555
N1 C15 1_555 1_555
N2 C15 1_555 1_555
C5 C6 1_555 1_555
C9 C14 1_555 1_555
C13 C14 1_555 1_555
N3 C38 1_555 1_555
N4 C38 1_555 1_555
C28 C29 1_555 1_555
C32 C37 1_555 1_555
C36 C37 1_555 1_555

#END
