
#######################################################################
#
#                 Cambridge Crystallographic Data Centre
#                                CCDC 
#
#######################################################################
#
# If this CIF has been generated from an entry in the Cambridge 
# Structural Database, then it will include bibliographic, chemical, 
# crystal, experimental, refinement or atomic coordinate data resulting 
# from the CCDC's data processing and validation procedures.
#
#######################################################################

data_JOXRUL
_chemical_formula_moiety         'C16 H18 N2 O4'
_chemical_name_systematic        
'Methyl 3-(acetyl(methyl)amino)-2-(6-methyl-3-oxo-2,3-dihydro-1H-isoindol-1-ylidene)propanoate'
_symmetry_cell_setting           tetragonal
_symmetry_space_group_name_H-M   'P 42/n'
_symmetry_Int_Tables_number      86
_space_group_name_Hall           '-P 4bc'
loop_
_symmetry_equiv_pos_site_id
_symmetry_equiv_pos_as_xyz
1 x,y,z
2 1/2-x,1/2-y,z
3 -y,1/2+x,1/2+z
4 1/2+y,-x,1/2+z
5 -x,-y,-z
6 1/2+x,1/2+y,-z
7 y,1/2-x,1/2-z
8 1/2-y,x,1/2-z
_cell_length_a                   25.5426(4)
_cell_length_b                   25.5426(4)
_cell_length_c                   4.67850(10)
_cell_angle_alpha                90
_cell_angle_beta                 90
_cell_angle_gamma                90
_cell_volume                     3052.37
_cell_formula_units_Z            8
loop_
_atom_site_label
_atom_site_type_symbol
_atom_site_fract_x
_atom_site_fract_y
_atom_site_fract_z
N1 N 0.24159(7) -0.02437(8) 0.2351(4)
O1 O 0.32998(7) -0.03563(8) 0.3026(4)
O2 O 0.06362(7) 0.02230(8) 0.2172(5)
O3 O 0.21745(8) -0.11124(8) -0.1160(6)
N2 N 0.14399(7) -0.09488(7) 0.1324(4)
C1 C 0.15156(8) 0.00117(9) 0.2357(5)
C2 C 0.20122(8) 0.00785(8) 0.3327(5)
C3 C 0.22663(8) 0.04427(8) 0.5403(5)
C4 C 0.14057(9) -0.04161(9) 0.0200(5)
H1 H 0.1057 -0.0363 -0.0572
H2 H 0.1652 -0.0382 -0.1368
C5 C 0.20852(9) 0.08528(9) 0.7065(5)
H3 H 0.1732 0.0941 0.7048
C6 C 0.27959(9) 0.03123(9) 0.5504(5)
C7 C 0.28932(9) -0.01292(10) 0.3547(5)
C8 C 0.10826(10) 0.03522(10) 0.3163(7)
C9 C 0.24339(10) 0.11331(10) 0.8762(5)
C10 C 0.29586(11) 0.09925(11) 0.8820(6)
H4 H 0.3189 0.1180 0.9968
C11 C 0.31446(10) 0.05806(11) 0.7212(6)
H5 H 0.3496 0.0486 0.7277
C12 C 0.10244(11) -0.11049(12) 0.3275(7)
H6 H 0.0708 -0.1162 0.2217
H7 H 0.0969 -0.0833 0.4659
H8 H 0.1123 -0.1422 0.4236
C13 C 0.22359(12) 0.15908(11) 1.0498(7)
H9 H 0.2315 0.1911 0.9520
H10 H 0.2403 0.1591 1.2337
H11 H 0.1864 0.1561 1.0741
C14 C 0.18195(11) -0.12713(10) 0.0403(7)
C15 C 0.01938(11) 0.05580(13) 0.2705(9)
H12 H 0.0137 0.0586 0.4728
H13 H -0.0112 0.0413 0.1815
H14 H 0.0261 0.0899 0.1928
C16 C 0.18076(15) -0.18304(12) 0.1375(11)
H15 H 0.2081 -0.2022 0.0438
H16 H 0.1475 -0.1982 0.0902
H17 H 0.1859 -0.1845 0.3406
O4 O 0.11455(14) 0.08399(15) 0.3550(11)
H18 H 0.2375(10) -0.0515(10) 0.097(6)
O5? O 0.10371(17) 0.05596(18) 0.5740(13)
loop_
_geom_bond_atom_site_label_1
_geom_bond_atom_site_label_2
_geom_bond_site_symmetry_1
_geom_bond_site_symmetry_2
N1 C2 1_555 1_555
O1 C7 1_555 1_555
O2 C8 1_555 1_555
O3 C14 1_555 1_555
N2 C4 1_555 1_555
C1 C2 1_555 1_555
C2 C3 1_555 1_555
C3 C5 1_555 1_555
C4 C1 1_555 1_555
H1 C4 1_555 1_555
H2 C4 1_555 1_555
C5 H3 1_555 1_555
C6 C3 1_555 1_555
C7 N1 1_555 1_555
C8 C1 1_555 1_555
C9 C5 1_555 1_555
C10 C9 1_555 1_555
H4 C10 1_555 1_555
C11 C6 1_555 1_555
H5 C11 1_555 1_555
C12 N2 1_555 1_555
H6 C12 1_555 1_555
H7 C12 1_555 1_555
H8 C12 1_555 1_555
C13 C9 1_555 1_555
H9 C13 1_555 1_555
H10 C13 1_555 1_555
H11 C13 1_555 1_555
C14 N2 1_555 1_555
C15 O2 1_555 1_555
H12 C15 1_555 1_555
H13 C15 1_555 1_555
H14 C15 1_555 1_555
C16 C14 1_555 1_555
H15 C16 1_555 1_555
H16 C16 1_555 1_555
H17 C16 1_555 1_555
O4 C8 1_555 1_555
H18 N1 1_555 1_555
C6 C7 1_555 1_555
C10 C11 1_555 1_555

#END
