
#######################################################################
#
#                 Cambridge Crystallographic Data Centre
#                                CCDC 
#
#######################################################################
#
# If this CIF has been generated from an entry in the Cambridge 
# Structural Database, then it will include bibliographic, chemical, 
# crystal, experimental, refinement or atomic coordinate data resulting 
# from the CCDC's data processing and validation procedures.
#
#######################################################################

data_JOXSIA
_chemical_name_common            
'13-Hydroxyimino-6H-quinoazolino[3,4-a]quinazoline-6 (7H)-one'
_chemical_formula_moiety         'C15 H10 N4 O2'
_chemical_name_systematic        
13-(hydroxyimino)-7,13-dihydro-6H-quinazolino[3,4-a]quinazolin-6-one
_symmetry_cell_setting           triclinic
_symmetry_space_group_name_H-M   'P -1'
_symmetry_Int_Tables_number      2
_space_group_name_Hall           '-P 1'
loop_
_symmetry_equiv_pos_site_id
_symmetry_equiv_pos_as_xyz
1 x,y,z
2 -x,-y,-z
_cell_length_a                   8.1501(4)
_cell_length_b                   17.7300(8)
_cell_length_c                   17.8702(9)
_cell_angle_alpha                111.2300(10)
_cell_angle_beta                 90.1900(10)
_cell_angle_gamma                98.070(2)
_cell_volume                     2379.08
_exptl_crystal_description       needle
_cell_formula_units_Z            8
loop_
_atom_site_label
_atom_site_type_symbol
_atom_site_fract_x
_atom_site_fract_y
_atom_site_fract_z
O1 O 0.8562(2) 0.35788(10) 0.86236(9)
H1 H 0.8240 0.3686 0.8246
O2 O 0.9241(3) 0.15290(12) 0.44279(10)
N1 N 0.9265(2) 0.28705(11) 0.82032(10)
N2 N 0.8379(2) 0.27387(11) 0.47101(9)
H2 H 0.8395 0.2673 0.4209
N3 N 0.9099(2) 0.23285(10) 0.57746(9)
N4 N 0.8522(2) 0.31645(10) 0.71004(9)
C1 C 0.7784(2) 0.35541(11) 0.60331(11)
C2 C 0.9961(2) 0.19899(12) 0.69141(11)
C3 C 0.9898(2) 0.18089(11) 0.60780(11)
C4 C 0.9231(2) 0.26872(12) 0.74318(11)
C5 C 0.8492(2) 0.29989(11) 0.63308(11)
C6 C 0.6582(3) 0.47851(12) 0.62752(13)
H3 H 0.6155 0.5235 0.6623
C7 C 0.7234(3) 0.39829(13) 0.49216(12)
H4 H 0.7254 0.3899 0.4377
C8 C 1.0640(3) 0.11504(12) 0.55853(12)
H5 H 1.0626 0.1026 0.5033
C9 C 1.0754(3) 0.15138(12) 0.72388(12)
H6 H 1.0801 0.1641 0.7792
C10 C 0.7156(3) 0.42377(12) 0.65628(11)
H7 H 0.7126 0.4322 0.7107
C11 C 1.1463(3) 0.08602(13) 0.67474(13)
H8 H 1.1977 0.0543 0.6964
C12 C 0.7799(2) 0.34266(12) 0.52185(11)
C13 C 1.1399(3) 0.06831(13) 0.59210(13)
H9 H 1.1874 0.0243 0.5587
C14 C 0.6650(3) 0.46565(13) 0.54559(13)
H10 H 0.6292 0.5034 0.5268
C15 C 0.8927(3) 0.21555(13) 0.49268(12)
O3 O 0.7098(2) 0.86329(9) 1.12146(8)
H11 H 0.7449 0.8831 1.0880
O4 O 0.4865(2) 0.64725(9) 0.70524(9)
N5 N 0.5960(2) 0.79171(11) 1.08154(10)
N6 N 0.6644(2) 0.82336(10) 0.96939(9)
N7 N 0.5547(2) 0.73314(10) 0.83838(9)
N8 N 0.6629(2) 0.76228(10) 0.72729(9)
H12 H 0.6676 0.7492 0.6762
C16 C 0.6541(2) 0.80326(11) 0.89196(11)
C17 C 0.5761(2) 0.77403(12) 1.00475(11)
C18 C 0.4588(2) 0.70318(12) 0.95528(11)
C19 C 0.4461(2) 0.68330(11) 0.87175(11)
C20 C 0.7544(2) 0.85704(11) 0.85866(11)
C21 C 0.3560(3) 0.65690(12) 0.99081(12)
H13 H 0.3660 0.6703 1.0462
C22 C 0.7581(2) 0.83451(12) 0.77559(11)
C23 C 0.5629(3) 0.71016(12) 0.75305(11)
C24 C 0.9490(3) 0.95619(13) 0.79206(13)
H14 H 1.0157 0.9891 0.7703
C25 C 0.2400(3) 0.59161(12) 0.94463(12)
H15 H 0.1723 0.5608 0.9683
C26 C 0.8582(3) 0.88339(13) 0.74155(12)
H16 H 0.8633 0.8671 0.6861
C27 C 0.3266(3) 0.61752(12) 0.82510(11)
H17 H 0.3147 0.6040 0.7698
C28 C 0.8470(3) 0.93156(12) 0.90879(12)
H18 H 0.8443 0.9476 0.9644
C29 C 0.9417(3) 0.98091(13) 0.87566(13)
H19 H 1.0009 1.0308 0.9089
C30 C 0.2264(3) 0.57287(12) 0.86200(12)
H20 H 0.1481 0.5293 0.8306
O5 O 0.5132(2) 0.84293(9) 0.61826(8)
H21 H 0.4769 0.8607 0.5744
O6 O 0.6018(2) 0.64707(10) 0.19914(9)
N9 N 0.5918(2) 0.77511(10) 0.57589(10)
N10 N 0.5253(2) 0.80869(10) 0.46685(9)
N11 N 0.5866(2) 0.72654(9) 0.33423(9)
N12 N 0.5098(2) 0.76695(10) 0.22775(9)
H22 H 0.5077 0.7597 0.1775
C31 C 0.4554(2) 0.84951(11) 0.36078(11)
C32 C 0.5248(2) 0.79324(11) 0.39013(11)
C33 C 0.6724(2) 0.69190(11) 0.44744(11)
C34 C 0.5948(2) 0.75993(11) 0.49920(11)
C35 C 0.3392(3) 0.97353(12) 0.38509(12)
H23 H 0.3018 1.0200 0.4204
C36 C 0.3922(3) 0.89041(12) 0.24897(11)
H24 H 0.3888 0.8805 0.1942
C37 C 0.4534(2) 0.83596(11) 0.27897(11)
C38 C 0.8267(3) 0.58054(12) 0.43084(12)
H25 H 0.8785 0.5489 0.4525
C39 C 0.6682(2) 0.67494(11) 0.36420(11)
C40 C 0.3374(3) 0.95894(12) 0.30258(12)
H26 H 0.2987 0.9960 0.2836
C41 C 0.7460(3) 0.61031(12) 0.31493(11)
H27 H 0.7459 0.5984 0.2598
C42 C 0.5683(3) 0.70930(12) 0.24930(11)
C43 C 0.7518(3) 0.64464(12) 0.47986(12)
H28 H 0.7543 0.6565 0.5350
C44 C 0.3963(2) 0.91916(11) 0.41402(11)
H29 H 0.3957 0.9285 0.4687
C45 C 0.8232(3) 0.56410(12) 0.34860(12)
H30 H 0.8738 0.5211 0.3153
O7 O 1.0374(2) 0.36596(10) 0.36243(9)
H31 H 1.0980 0.3746 0.3203
O8 O 0.7863(2) 0.16073(9) -0.05154(9)
N13 N 0.9244(2) 0.29407(11) 0.32212(10)
N14 N 1.0265(2) 0.31337(10) 0.20838(9)
N15 N 0.9107(2) 0.22573(10) 0.07771(9)
N16 N 0.9993(2) 0.26207(11) -0.03251(10)
H32 H 0.9987 0.2508 -0.0836
C46 C 1.1221(2) 0.34533(12) 0.09764(11)
C47 C 0.9222(2) 0.27009(12) 0.24443(11)
C48 C 0.8100(2) 0.17282(11) 0.11065(11)
C49 C 1.0169(2) 0.29308(11) 0.13080(11)
C50 C 1.2033(3) 0.38014(14) -0.01795(13)
H33 H 1.1957 0.3687 -0.0730
C51 C 0.7144(3) 0.14770(13) 0.22951(12)
H34 H 0.7143 0.1645 0.2852
C52 C 0.8122(2) 0.19631(12) 0.19455(11)
C53 C 1.3071(3) 0.44788(14) 0.03246(14)
H35 H 1.3678 0.4829 0.0110
C54 C 0.8917(3) 0.21250(12) -0.00629(11)
C55 C 1.1094(3) 0.32869(12) 0.01528(12)
C56 C 0.7146(3) 0.09791(12) 0.06299(12)
H36 H 0.7137 0.0804 0.0072
C57 C 0.6184(3) 0.07526(14) 0.18217(14)
H37 H 0.5522 0.0437 0.2055
C58 C 1.2315(3) 0.41397(12) 0.14744(12)
H38 H 1.2422 0.4249 0.2023
C59 C 1.3231(3) 0.46526(13) 0.11537(14)
H39 H 1.3948 0.5109 0.1484
C60 C 0.6220(3) 0.05024(13) 0.09895(13)
H40 H 0.5610 0.0004 0.0668
loop_
_geom_bond_atom_site_label_1
_geom_bond_atom_site_label_2
_geom_bond_site_symmetry_1
_geom_bond_site_symmetry_2
O1 H1 1_555 1_555
O2 C15 1_555 1_555
N1 O1 1_555 1_555
N2 H2 1_555 1_555
N3 C3 1_555 1_555
N4 C4 1_555 1_555
C1 C5 1_555 1_555
C2 C3 1_555 1_555
C3 C8 1_555 1_555
C4 N1 1_555 1_555
C5 N3 1_555 1_555
C6 H3 1_555 1_555
C7 H4 1_555 1_555
C8 H5 1_555 1_555
C9 C2 1_555 1_555
H6 C9 1_555 1_555
C10 C1 1_555 1_555
H7 C10 1_555 1_555
C11 C9 1_555 1_555
H8 C11 1_555 1_555
C12 N2 1_555 1_555
C13 C8 1_555 1_555
H9 C13 1_555 1_555
C14 C6 1_555 1_555
H10 C14 1_555 1_555
C15 N2 1_555 1_555
O3 H11 1_555 1_555
O4 C23 1_555 1_555
N5 O3 1_555 1_555
N6 C16 1_555 1_555
N7 C16 1_555 1_555
N8 H12 1_555 1_555
C16 C20 1_555 1_555
C17 N5 1_555 1_555
C18 C17 1_555 1_555
C19 N7 1_555 1_555
C20 C22 1_555 1_555
C21 C18 1_555 1_555
H13 C21 1_555 1_555
C22 N8 1_555 1_555
C23 N7 1_555 1_555
C24 H14 1_555 1_555
C25 C21 1_555 1_555
H15 C25 1_555 1_555
C26 C22 1_555 1_555
H16 C26 1_555 1_555
C27 C19 1_555 1_555
H17 C27 1_555 1_555
C28 C20 1_555 1_555
H18 C28 1_555 1_555
C29 C24 1_555 1_555
H19 C29 1_555 1_555
C30 C25 1_555 1_555
H20 C30 1_555 1_555
O5 H21 1_555 1_555
O6 C42 1_555 1_555
N9 O5 1_555 1_555
N10 C32 1_555 1_555
N11 C32 1_555 1_555
N12 H22 1_555 1_555
C31 C32 1_555 1_555
C33 C34 1_555 1_555
C34 N9 1_555 1_555
C35 H23 1_555 1_555
C36 H24 1_555 1_555
C37 N12 1_555 1_555
C38 H25 1_555 1_555
C39 N11 1_555 1_555
C40 C35 1_555 1_555
H26 C40 1_555 1_555
C41 C39 1_555 1_555
H27 C41 1_555 1_555
C42 N11 1_555 1_555
C43 C33 1_555 1_555
H28 C43 1_555 1_555
C44 C31 1_555 1_555
H29 C44 1_555 1_555
C45 C38 1_555 1_555
H30 C45 1_555 1_555
O7 H31 1_555 1_555
O8 C54 1_555 1_555
N13 O7 1_555 1_555
N14 C47 1_555 1_555
N15 C48 1_555 1_555
N16 H32 1_555 1_555
C46 C49 1_555 1_555
C47 N13 1_555 1_555
C48 C52 1_555 1_555
C49 N14 1_555 1_555
C50 H33 1_555 1_555
C51 H34 1_555 1_555
C52 C47 1_555 1_555
C53 C50 1_555 1_555
H35 C53 1_555 1_555
C54 N15 1_555 1_555
C55 N16 1_555 1_555
C56 C48 1_555 1_555
H36 C56 1_555 1_555
C57 C51 1_555 1_555
H37 C57 1_555 1_555
C58 C46 1_555 1_555
H38 C58 1_555 1_555
C59 C53 1_555 1_555
H39 C59 1_555 1_555
C60 C56 1_555 1_555
H40 C60 1_555 1_555
N3 C15 1_555 1_555
N4 C5 1_555 1_555
C1 C12 1_555 1_555
C2 C4 1_555 1_555
C6 C10 1_555 1_555
C7 C12 1_555 1_555
C7 C14 1_555 1_555
C11 C13 1_555 1_555
N6 C17 1_555 1_555
N8 C23 1_555 1_555
C18 C19 1_555 1_555
C24 C26 1_555 1_555
C27 C30 1_555 1_555
C28 C29 1_555 1_555
N10 C34 1_555 1_555
N12 C42 1_555 1_555
C31 C37 1_555 1_555
C33 C39 1_555 1_555
C35 C44 1_555 1_555
C36 C37 1_555 1_555
C36 C40 1_555 1_555
C38 C43 1_555 1_555
C41 C45 1_555 1_555
N15 C49 1_555 1_555
N16 C54 1_555 1_555
C46 C55 1_555 1_555
C50 C55 1_555 1_555
C51 C52 1_555 1_555
C57 C60 1_555 1_555
C58 C59 1_555 1_555

#END
