
#######################################################################
#
#                 Cambridge Crystallographic Data Centre
#                                CCDC 
#
#######################################################################
#
# If this CIF has been generated from an entry in the Cambridge 
# Structural Database, then it will include bibliographic, chemical, 
# crystal, experimental, refinement or atomic coordinate data resulting 
# from the CCDC's data processing and validation procedures.
#
#######################################################################

data_JOXTAT
_chemical_formula_moiety         'C15 H9 N3 O2'
_chemical_name_systematic        
6H-quinazolino[4,3-b]quinazoline-6,8(5H)-dione
_symmetry_cell_setting           triclinic
_symmetry_space_group_name_H-M   'P -1'
_symmetry_Int_Tables_number      2
_space_group_name_Hall           '-P 1'
loop_
_symmetry_equiv_pos_site_id
_symmetry_equiv_pos_as_xyz
1 x,y,z
2 -x,-y,-z
_cell_length_a                   7.0598(4)
_cell_length_b                   8.4940(5)
_cell_length_c                   10.5944(6)
_cell_angle_alpha                97.816(3)
_cell_angle_beta                 93.664(2)
_cell_angle_gamma                113.447(3)
_cell_volume                     572.542
_exptl_crystal_colour            white
_exptl_crystal_description       Needle
_cell_formula_units_Z            2
loop_
_atom_site_label
_atom_site_type_symbol
_atom_site_fract_x
_atom_site_fract_y
_atom_site_fract_z
C1 C 0.2421(2) 0.5658(2) 0.56450(14)
C2 C 0.2739(2) 0.5147(2) 0.43324(14)
C3 C 0.2027(2) 0.6594(2) 0.81697(15)
N1 N 0.2758(2) 0.72540(17) 0.60440(12)
N2 N 0.1769(2) 0.43439(15) 0.64085(11)
N3 N 0.1594(2) 0.22129(17) 0.46839(12)
H1 H 0.1439 0.1164 0.4407
C4 C 0.2491(2) 0.7746(2) 0.73078(14)
C5 C 0.2371(2) 0.3424(2) 0.38859(15)
C6 C 0.3418(2) 0.6360(2) 0.35088(15)
H2 H 0.3672 0.7519 0.3795
O1 O 0.16220(18) 0.37831(14) 0.84878(10)
C7 C 0.2691(3) 0.2909(2) 0.26420(16)
H3 H 0.2467 0.1758 0.2352
C8 C 0.3338(3) 0.4118(2) 0.18501(16)
H4 H 0.3528 0.3776 0.1013
C9 C 0.2696(3) 0.9444(2) 0.77014(16)
H5 H 0.3028 1.0228 0.7132
C10 C 0.2405(3) 0.9961(2) 0.89351(17)
H6 H 0.2513 1.1088 0.9191
O2 O 0.00313(19) 0.13904(14) 0.64133(11)
C11 C 0.1780(2) 0.4802(2) 0.77707(15)
C12 C 0.1780(3) 0.7147(2) 0.94282(16)
H7 H 0.1500 0.6386 1.0013
C13 C 0.3712(3) 0.5843(2) 0.22774(16)
H8 H 0.4163 0.6652 0.1731
C14 C 0.1061(3) 0.2542(2) 0.58549(15)
C15 C 0.1952(3) 0.8814(2) 0.97997(17)
H9 H 0.1765 0.9176 1.0633
loop_
_geom_bond_atom_site_label_1
_geom_bond_atom_site_label_2
_geom_bond_site_symmetry_1
_geom_bond_site_symmetry_2
C1 C2 1_555 1_555
C2 C5 1_555 1_555
C3 C4 1_555 1_555
N1 C1 1_555 1_555
N2 C1 1_555 1_555
N3 H1 1_555 1_555
C4 N1 1_555 1_555
C5 N3 1_555 1_555
C6 C2 1_555 1_555
H2 C6 1_555 1_555
O1 C11 1_555 1_555
C7 C5 1_555 1_555
H3 C7 1_555 1_555
C8 C7 1_555 1_555
H4 C8 1_555 1_555
C9 C4 1_555 1_555
H5 C9 1_555 1_555
C10 C9 1_555 1_555
H6 C10 1_555 1_555
O2 C14 1_555 1_555
C11 C3 1_555 1_555
C12 C3 1_555 1_555
H7 C12 1_555 1_555
C13 C6 1_555 1_555
H8 C13 1_555 1_555
C14 N2 1_555 1_555
C15 C10 1_555 1_555
H9 C15 1_555 1_555
N2 C11 1_555 1_555
N3 C14 1_555 1_555
C8 C13 1_555 1_555
C12 C15 1_555 1_555

#END
