
#######################################################################
#
#                 Cambridge Crystallographic Data Centre
#                                CCDC 
#
#######################################################################
#
# If this CIF has been generated from an entry in the Cambridge 
# Structural Database, then it will include bibliographic, chemical, 
# crystal, experimental, refinement or atomic coordinate data resulting 
# from the CCDC's data processing and validation procedures.
#
#######################################################################

data_JOXVEZ
_chemical_formula_moiety         'C24 H19 N1 O2'
_chemical_name_systematic        
3-benzoyl-1-methyl-4-(4-methylphenyl)quinolin-2(1H)-one
_symmetry_cell_setting           triclinic
_symmetry_space_group_name_H-M   'P -1'
_symmetry_Int_Tables_number      2
_space_group_name_Hall           '-P 1'
loop_
_symmetry_equiv_pos_site_id
_symmetry_equiv_pos_as_xyz
1 x,y,z
2 -x,-y,-z
_cell_length_a                   9.5219(5)
_cell_length_b                   9.7304(8)
_cell_length_c                   11.5747(9)
_cell_angle_alpha                105.945(7)
_cell_angle_beta                 109.988(6)
_cell_angle_gamma                99.912(6)
_cell_volume                     926.093
_cell_formula_units_Z            2
_exptl_crystal_recrystallization_method chloroform
loop_
_atom_site_label
_atom_site_type_symbol
_atom_site_fract_x
_atom_site_fract_y
_atom_site_fract_z
O1 O 0.30084(12) 0.55690(12) 0.87978(10)
O2 O -0.09723(11) 0.44362(13) 0.68259(11)
N1 N 0.40588(12) 0.47078(14) 0.73456(12)
C1 C 0.2232(2) 0.20373(18) 0.39163(15)
H1 H 0.1245 0.1467 0.3266
C2 C 0.3529(2) 0.1952(2) 0.36639(19)
H2 H 0.3418 0.1328 0.2849
C3 C 0.5005(2) 0.2801(2) 0.4627(2)
H3 H 0.5880 0.2745 0.4451
C4 C 0.51876(19) 0.3716(2) 0.58302(18)
H4 H 0.6185 0.4277 0.6467
C5 C 0.38794(16) 0.38145(15) 0.61099(14)
C6 C 0.23706(16) 0.29698(15) 0.51387(13)
C7 C 0.10333(14) 0.29920(14) 0.54681(12)
C8 C 0.12826(14) 0.38005(14) 0.67123(13)
C9 C 0.28239(15) 0.47528(15) 0.77055(13)
C10 C 0.56141(17) 0.5653(2) 0.83652(17)
H5 H 0.6206 0.5032 0.8691
H6 H 0.5497 0.6337 0.9077
H7 H 0.6152 0.6204 0.7992
C11 C 0.00047(14) 0.38222(15) 0.72008(13)
C12 C 0.00261(14) 0.30873(14) 0.81775(13)
C13 C -0.08975(17) 0.33442(17) 0.88708(15)
H8 H -0.1569 0.3919 0.8681
C14 C -0.0829(2) 0.27545(18) 0.98383(16)
H9 H -0.1442 0.2940 1.0306
C15 C 0.0153(2) 0.18905(19) 1.01067(16)
H10 H 0.0217 0.1508 1.0770
C16 C 0.1045(2) 0.15859(18) 0.93975(16)
H11 H 0.1681 0.0976 0.9567
C17 C 0.09909(16) 0.21842(16) 0.84425(14)
H12 H 0.1599 0.1986 0.7972
C18 C -0.05699(14) 0.20658(14) 0.44674(13)
C19 C -0.12416(17) 0.23325(17) 0.33111(14)
H13 H -0.0701 0.3116 0.3168
C20 C -0.27080(18) 0.14413(18) 0.23714(14)
H14 H -0.3143 0.1640 0.1606
C21 C -0.35434(17) 0.02580(17) 0.25447(14)
C22 C -0.28890(17) 0.00251(15) 0.37151(15)
H15 H -0.3444 -0.0742 0.3866
C23 C -0.14236(15) 0.09126(15) 0.46657(13)
H16 H -0.1007 0.0735 0.5444
C24 C -0.5119(2) -0.0759(2) 0.14991(18)
H17 H -0.5651 -0.0203 0.1021
H18 H -0.5732 -0.1149 0.1909
H19 H -0.4976 -0.1571 0.0902
loop_
_geom_bond_atom_site_label_1
_geom_bond_atom_site_label_2
_geom_bond_site_symmetry_1
_geom_bond_site_symmetry_2
O1 C9 1_555 1_555
O2 C11 1_555 1_555
N1 C5 1_555 1_555
C1 H1 1_555 1_555
C2 C1 1_555 1_555
H2 C2 1_555 1_555
C3 C2 1_555 1_555
H3 C3 1_555 1_555
C4 C3 1_555 1_555
H4 C4 1_555 1_555
C5 C4 1_555 1_555
C6 C1 1_555 1_555
C7 C6 1_555 1_555
C8 C7 1_555 1_555
C9 N1 1_555 1_555
C10 N1 1_555 1_555
H5 C10 1_555 1_555
H6 C10 1_555 1_555
H7 C10 1_555 1_555
C11 C8 1_555 1_555
C12 C11 1_555 1_555
C13 C12 1_555 1_555
H8 C13 1_555 1_555
C14 C13 1_555 1_555
H9 C14 1_555 1_555
C15 C14 1_555 1_555
H10 C15 1_555 1_555
C16 C15 1_555 1_555
H11 C16 1_555 1_555
C17 C12 1_555 1_555
H12 C17 1_555 1_555
C18 C7 1_555 1_555
C19 C18 1_555 1_555
H13 C19 1_555 1_555
C20 C19 1_555 1_555
H14 C20 1_555 1_555
C21 C20 1_555 1_555
C22 C21 1_555 1_555
H15 C22 1_555 1_555
C23 C18 1_555 1_555
H16 C23 1_555 1_555
C24 C21 1_555 1_555
H17 C24 1_555 1_555
H18 C24 1_555 1_555
H19 C24 1_555 1_555
C5 C6 1_555 1_555
C8 C9 1_555 1_555
C16 C17 1_555 1_555
C22 C23 1_555 1_555

#END
