
#######################################################################
#
#                 Cambridge Crystallographic Data Centre
#                                CCDC 
#
#######################################################################
#
# If this CIF has been generated from an entry in the Cambridge 
# Structural Database, then it will include bibliographic, chemical, 
# crystal, experimental, refinement or atomic coordinate data resulting 
# from the CCDC's data processing and validation procedures.
#
#######################################################################

data_JOYGIP
_chemical_formula_moiety         'C13 H18 O3'
_chemical_name_systematic        
8a-ethyl-3a-methyl-3a,3b,4,5,7a,8a-hexahydrofuro[2,3-b][1]benzofuran-2(3H)-one
_symmetry_cell_setting           monoclinic
_symmetry_space_group_name_H-M   'P 21'
_symmetry_Int_Tables_number      4
_space_group_name_Hall           'P 2yb'
loop_
_symmetry_equiv_pos_site_id
_symmetry_equiv_pos_as_xyz
1 x,y,z
2 -x,1/2+y,-z
_cell_length_a                   7.1612(10)
_cell_length_b                   7.3520(12)
_cell_length_c                   11.015(2)
_cell_angle_alpha                90
_cell_angle_beta                 96.08(3)
_cell_angle_gamma                90
_cell_volume                     576.668
_exptl_crystal_colour            colorless
_exptl_crystal_description       prism
_cell_formula_units_Z            2
loop_
_atom_site_label
_atom_site_type_symbol
_atom_site_fract_x
_atom_site_fract_y
_atom_site_fract_z
O1 O 0.6915(5) 0.9246(4) 0.8295(3)
O2 O 0.4957(4) 1.0329(5) 0.6646(3)
O3 O 0.3813(6) 0.9874(7) 0.4725(3)
C1 C 0.6740(6) 1.0590(6) 0.7409(4)
C2 C 0.8275(6) 1.0266(7) 0.6518(4)
C3 C 0.9218(6) 0.8487(7) 0.7008(4)
H1 H 0.9366 0.7652 0.6308
C4 C 0.7780(7) 0.7692(6) 0.7781(4)
H2 H 0.6810 0.7007 0.7243
C5 C 0.8563(8) 0.6485(7) 0.8811(5)
H3 H 0.7729 0.6017 0.9349
C6 C 1.0355(8) 0.6046(8) 0.9002(5)
H4 H 1.0753 0.5179 0.9615
C7 C 1.1762(8) 0.6884(10) 0.8276(6)
H5 H 1.1992 0.6063 0.7595
H6 H 1.2963 0.7043 0.8799
C8 C 1.1099(7) 0.8695(9) 0.7771(6)
H7 H 1.2033 0.9200 0.7261
H8 H 1.0973 0.9553 0.8450
C9 C 0.7185(8) 1.0039(11) 0.5282(5)
H9 H 0.7468 1.1046 0.4733
H10 H 0.7515 0.8874 0.4907
C10 C 0.5154(7) 1.0058(7) 0.5485(4)
C11 C 0.6603(7) 1.2402(7) 0.8023(5)
H11 H 0.6516 1.3372 0.7396
H12 H 0.7762 1.2612 0.8579
C12 C 0.4919(8) 1.2527(8) 0.8745(5)
H13 H 0.3765 1.2355 0.8195
H14 H 0.4897 1.3726 0.9132
H15 H 0.5007 1.1581 0.9375
C13 C 0.9677(8) 1.1856(8) 0.6498(7)
H16 H 1.0575 1.1592 0.5910
H17 H 1.0353 1.2009 0.7313
H18 H 0.8993 1.2976 0.6260
loop_
_geom_bond_atom_site_label_1
_geom_bond_atom_site_label_2
_geom_bond_site_symmetry_1
_geom_bond_site_symmetry_2
O1 C1 1_555 1_555
O2 C1 1_555 1_555
O3 C10 1_555 1_555
C1 C2 1_555 1_555
C2 C3 1_555 1_555
C3 H1 1_555 1_555
C4 O1 1_555 1_555
H2 C4 1_555 1_555
C5 C4 1_555 1_555
H3 C5 1_555 1_555
C6 C5 1_555 1_555
H4 C6 1_555 1_555
C7 C6 1_555 1_555
H5 C7 1_555 1_555
H6 C7 1_555 1_555
C8 C3 1_555 1_555
H7 C8 1_555 1_555
H8 C8 1_555 1_555
C9 C2 1_555 1_555
H9 C9 1_555 1_555
H10 C9 1_555 1_555
C10 O2 1_555 1_555
C11 C1 1_555 1_555
H11 C11 1_555 1_555
H12 C11 1_555 1_555
C12 C11 1_555 1_555
H13 C12 1_555 1_555
H14 C12 1_555 1_555
H15 C12 1_555 1_555
C13 C2 1_555 1_555
H16 C13 1_555 1_555
H17 C13 1_555 1_555
H18 C13 1_555 1_555
C3 C4 1_555 1_555
C7 C8 1_555 1_555
C9 C10 1_555 1_555

#END
