
#######################################################################
#
#                 Cambridge Crystallographic Data Centre
#                                CCDC 
#
#######################################################################
#
# If this CIF has been generated from an entry in the Cambridge 
# Structural Database, then it will include bibliographic, chemical, 
# crystal, experimental, refinement or atomic coordinate data resulting 
# from the CCDC's data processing and validation procedures.
#
#######################################################################

data_JOYJIS
_chemical_formula_moiety         '2(C5 H8 O4),C5 H6 O4 2-,2(C4 H6 N3 1+)'
_chemical_name_systematic        
'bis(2-aminopyrimidin-1-ium) bis(glutaric acid) glutarate'
_symmetry_cell_setting           triclinic
_symmetry_space_group_name_H-M   'P -1'
_symmetry_Int_Tables_number      2
_space_group_name_Hall           '-P 1'
loop_
_symmetry_equiv_pos_site_id
_symmetry_equiv_pos_as_xyz
1 x,y,z
2 -x,-y,-z
_cell_length_a                   5.4848(3)
_cell_length_b                   11.1944(5)
_cell_length_c                   22.9123(11)
_cell_angle_alpha                91.7810(10)
_cell_angle_beta                 92.3710(10)
_cell_angle_gamma                103.0110(10)
_cell_volume                     1368.32
_exptl_crystal_colour            colorless
_exptl_crystal_description       prism
_cell_formula_units_Z            2
loop_
_atom_site_label
_atom_site_type_symbol
_atom_site_fract_x
_atom_site_fract_y
_atom_site_fract_z
N1 N 0.74164(19) 0.50115(9) 0.55845(4)
H1 H 0.667(3) 0.5281(14) 0.5889(7)
H2 H 0.896(3) 0.5412(16) 0.5491(7)
N2 N 0.75251(19) 0.35661(10) 0.48495(4)
N3 N 0.41079(18) 0.33150(9) 0.54674(4)
H3 H 0.327(3) 0.3632(17) 0.5796(8)
C1 C 0.6367(2) 0.39652(10) 0.53034(5)
C2 C 0.6365(2) 0.25248(12) 0.45721(5)
H4 H 0.720(3) 0.2254(14) 0.4249(7)
C3 C 0.4055(2) 0.18104(12) 0.47231(6)
H5 H 0.324(3) 0.1027(15) 0.4517(7)
C4 C 0.2966(2) 0.22500(11) 0.51838(5)
H6 H 0.137(3) 0.1865(14) 0.5329(7)
N4 N 0.51819(19) 0.87371(9) 0.05909(4)
H7 H 0.588(3) 0.8363(15) 0.0858(7)
H8 H 0.607(3) 0.9470(17) 0.0463(8)
N5 N 0.17011(18) 0.71181(9) 0.05092(4)
H9 H 0.243(3) 0.6699(16) 0.0788(8)
N6 N 0.19675(18) 0.88334(8) -0.00809(4)
C5 C 0.2961(2) 0.82320(10) 0.03392(5)
C6 C -0.0587(2) 0.65813(10) 0.02684(5)
H10 H -0.136(3) 0.5779(14) 0.0423(7)
C7 C -0.1664(2) 0.71499(11) -0.01545(5)
H11 H -0.329(3) 0.6789(14) -0.0341(7)
C8 C -0.0272(2) 0.82963(11) -0.03120(5)
H12 H -0.092(3) 0.8750(13) -0.0608(6)
O1 O 0.29014(16) -0.28725(7) 0.33716(4)
H13 H 0.132(4) -0.3180(18) 0.3518(9)
O2 O 0.28534(16) -0.11670(8) 0.39024(4)
O3 O 1.32610(17) 0.22579(8) 0.30235(4)
H14 H 1.400(4) 0.305(2) 0.3164(9)
O4 O 1.03244(17) 0.25675(8) 0.36179(4)
C9 C 0.3828(2) -0.17173(10) 0.35494(5)
C10 C 0.6234(2) -0.11885(10) 0.32588(5)
H15 H 0.739(3) -0.1737(15) 0.3332(7)
H16 H 0.583(3) -0.1301(14) 0.2823(7)
C11 C 0.7422(2) 0.01351(10) 0.34386(5)
H17 H 0.617(3) 0.0641(14) 0.3361(7)
H18 H 0.791(3) 0.0211(15) 0.3874(7)
C12 C 0.9763(2) 0.06083(10) 0.31042(5)
H19 H 1.100(3) 0.0120(14) 0.3155(7)
H20 H 0.935(3) 0.0581(15) 0.2674(8)
C13 C 1.1097(2) 0.19109(10) 0.32794(5)
O5 O 0.54306(15) 0.44004(7) 0.34901(4)
O6 O 0.84209(14) 0.60795(7) 0.36792(3)
O7 O 0.67728(16) 0.72032(8) 0.14741(4)
O8 O 0.32959(15) 0.57898(7) 0.12760(4)
C14 C 0.74516(19) 0.51051(9) 0.33709(5)
C15 C 0.8772(2) 0.48562(10) 0.28302(5)
H21 H 0.804(3) 0.4006(13) 0.2680(6)
H22 H 1.056(3) 0.4955(14) 0.2930(7)
C16 C 0.84395(19) 0.57577(10) 0.23555(5)
H23 H 0.909(3) 0.6618(13) 0.2518(6)
H24 H 0.949(3) 0.5657(13) 0.2019(7)
C17 C 0.5715(2) 0.55580(11) 0.21365(5)
H25 H 0.498(3) 0.4672(16) 0.2050(7)
H26 H 0.462(3) 0.5834(15) 0.2420(7)
C18 C 0.5273(2) 0.62339(10) 0.15951(5)
O9 O 0.10781(18) -0.15869(8) 0.19147(4)
H27 H -0.042(4) -0.2042(19) 0.1775(9)
O10 O 0.02073(16) -0.03209(7) 0.12487(4)
O11 O 1.09283(15) 0.36457(7) 0.15514(4)
H28 H 1.161(4) 0.4396(19) 0.1419(9)
O12 O 0.74059(15) 0.37242(7) 0.10348(4)
C19 C 0.1597(2) -0.05632(9) 0.16281(5)
C20 C 0.4091(2) 0.02425(10) 0.18254(5)
H29 H 0.537(3) -0.0277(14) 0.1782(7)
H30 H 0.403(3) 0.0443(14) 0.2238(7)
C21 C 0.4849(2) 0.13960(9) 0.14814(5)
H31 H 0.368(3) 0.1932(14) 0.1547(7)
H32 H 0.481(3) 0.1175(14) 0.1061(7)
C22 C 0.7494(2) 0.20567(10) 0.16794(5)
H33 H 0.866(3) 0.1519(14) 0.1616(7)
H34 H 0.755(3) 0.2283(14) 0.2105(7)
C23 C 0.8541(2) 0.32273(9) 0.13804(5)
loop_
_geom_bond_atom_site_label_1
_geom_bond_atom_site_label_2
_geom_bond_site_symmetry_1
_geom_bond_site_symmetry_2
N1 H1 1_555 1_555
H2 N1 1_555 1_555
N2 C1 1_555 1_555
N3 H3 1_555 1_555
C1 N1 1_555 1_555
C2 N2 1_555 1_555
H4 C2 1_555 1_555
C3 C2 1_555 1_555
H5 C3 1_555 1_555
C4 N3 1_555 1_555
H6 C4 1_555 1_555
N4 H7 1_555 1_555
H8 N4 1_555 1_555
N5 H9 1_555 1_555
N6 C5 1_555 1_555
C5 N4 1_555 1_555
C6 N5 1_555 1_555
H10 C6 1_555 1_555
C7 C6 1_555 1_555
H11 C7 1_555 1_555
C8 N6 1_555 1_555
H12 C8 1_555 1_555
O1 H13 1_555 1_555
O2 C9 1_555 1_555
O3 H14 1_555 1_555
O4 C13 1_555 1_555
C9 O1 1_555 1_555
C10 C9 1_555 1_555
H15 C10 1_555 1_555
H16 C10 1_555 1_555
C11 C10 1_555 1_555
H17 C11 1_555 1_555
H18 C11 1_555 1_555
C12 C11 1_555 1_555
H19 C12 1_555 1_555
H20 C12 1_555 1_555
C13 O3 1_555 1_555
O5 C14 1_555 1_555
O6 C14 1_555 1_555
O7 C18 1_555 1_555
O8 C18 1_555 1_555
C14 C15 1_555 1_555
C15 H21 1_555 1_555
H22 C15 1_555 1_555
C16 C15 1_555 1_555
H23 C16 1_555 1_555
H24 C16 1_555 1_555
C17 C16 1_555 1_555
H25 C17 1_555 1_555
H26 C17 1_555 1_555
C18 C17 1_555 1_555
O9 H27 1_555 1_555
O10 C19 1_555 1_555
O11 H28 1_555 1_555
O12 C23 1_555 1_555
C19 O9 1_555 1_555
C20 C19 1_555 1_555
H29 C20 1_555 1_555
H30 C20 1_555 1_555
C21 C20 1_555 1_555
H31 C21 1_555 1_555
H32 C21 1_555 1_555
C22 C21 1_555 1_555
H33 C22 1_555 1_555
H34 C22 1_555 1_555
C23 O11 1_555 1_555
N3 C1 1_555 1_555
C3 C4 1_555 1_555
N5 C5 1_555 1_555
C7 C8 1_555 1_555
C12 C13 1_555 1_555
C22 C23 1_555 1_555

#END
