
#######################################################################
#
#                 Cambridge Crystallographic Data Centre
#                                CCDC 
#
#######################################################################
#
# If this CIF has been generated from an entry in the Cambridge 
# Structural Database, then it will include bibliographic, chemical, 
# crystal, experimental, refinement or atomic coordinate data resulting 
# from the CCDC's data processing and validation procedures.
#
#######################################################################

data_JOYQAR
_chemical_formula_moiety         'C33 H27 N3 O1,C3 H6 O1'
_chemical_name_systematic        
"1'-Benzyl-2'',3''-dimethyl-1H,1''H-3,3':3',6''-terindol-2'(1'H)-one acetone solvate"
_symmetry_cell_setting           triclinic
_symmetry_space_group_name_H-M   'P -1'
_symmetry_Int_Tables_number      2
_space_group_name_Hall           '-P 1'
loop_
_symmetry_equiv_pos_site_id
_symmetry_equiv_pos_as_xyz
1 x,y,z
2 -x,-y,-z
_cell_length_a                   9.0471(13)
_cell_length_b                   11.2646(16)
_cell_length_c                   14.820(2)
_cell_angle_alpha                94.978(10)
_cell_angle_beta                 104.479(9)
_cell_angle_gamma                90.047(10)
_cell_volume                     1456.45
_exptl_crystal_colour            colorless
_exptl_crystal_description       block
_cell_formula_units_Z            2
loop_
_atom_site_label
_atom_site_type_symbol
_atom_site_fract_x
_atom_site_fract_y
_atom_site_fract_z
O1 O 0.0825(3) 0.6031(2) 0.8792(2)
N1 N 0.3349(3) 0.5703(2) 0.8907(2)
N2 N 0.0962(4) 0.6083(3) 1.2309(3)
H1 H 0.0516(4) 0.5412(3) 1.2072(3)
N3 N 0.0353(4) 0.9885(3) 0.8488(3)
H2 H -0.0422(4) 1.0340(3) 0.8427(3)
C1 C 0.2162(4) 0.6345(3) 0.9068(3)
C2 C 0.2787(4) 0.7543(3) 0.9633(3)
C3 C 0.4499(4) 0.7440(3) 0.9701(2)
C4 C 0.5710(4) 0.8214(4) 1.0092(3)
H3 H 0.5562(4) 0.8948(4) 1.0391(3)
C5 C 0.7154(5) 0.7877(4) 1.0030(3)
H4 H 0.7985(5) 0.8388(4) 1.0298(3)
C6 C 0.7382(5) 0.6793(4) 0.9577(3)
H5 H 0.8360(5) 0.6592(4) 0.9534(3)
C7 C 0.6174(4) 0.6005(4) 0.9187(3)
H6 H 0.6317(4) 0.5272(4) 0.8885(3)
C8 C 0.4756(4) 0.6350(3) 0.9265(3)
C9 C 0.3247(5) 0.4515(3) 0.8434(3)
H7 H 0.3996(5) 0.4025(3) 0.8811(3)
H8 H 0.2245(5) 0.4174(3) 0.8392(3)
C10 C 0.3502(4) 0.4465(3) 0.7466(3)
C11 C 0.3350(6) 0.5445(4) 0.6951(3)
H9 H 0.3096(6) 0.6177(4) 0.7206(3)
C12 C 0.3574(7) 0.5337(6) 0.6054(4)
H10 H 0.3496(7) 0.5998(6) 0.5712(4)
C13 C 0.3910(7) 0.4250(7) 0.5679(4)
H11 H 0.4029(7) 0.4171(7) 0.5071(4)
C14 C 0.4072(7) 0.3292(6) 0.6176(4)
H12 H 0.4311(7) 0.2561(6) 0.5912(4)
C15 C 0.3886(5) 0.3391(4) 0.7075(3)
H13 H 0.4020(5) 0.2730(4) 0.7420(3)
C16 C 0.2056(4) 0.8547(3) 0.9063(3)
C17 C 0.0757(4) 0.9106(4) 0.9148(3)
H14 H 0.0226(4) 0.8972(4) 0.9594(3)
C18 C 0.1356(5) 0.9844(3) 0.7935(3)
C19 C 0.1413(6) 1.0460(4) 0.7171(4)
H15 H 0.0711(6) 1.1045(4) 0.6974(4)
C20 C 0.2525(6) 1.0186(4) 0.6718(4)
H16 H 0.2558(6) 1.0577(4) 0.6196(4)
C21 C 0.3610(5) 0.9335(4) 0.7018(3)
H17 H 0.4346(5) 0.9159(4) 0.6690(3)
C22 C 0.3604(5) 0.8751(4) 0.7794(3)
H18 H 0.4348(5) 0.8199(4) 0.7999(3)
C23 C 0.2466(4) 0.8995(3) 0.8275(3)
C24 C 0.2465(4) 0.7629(3) 1.0606(3)
C25 C 0.3044(4) 0.8638(4) 1.1242(3)
H19 H 0.3513(4) 0.9255(4) 1.1031(3)
C26 C 0.2940(5) 0.8741(4) 1.2151(3)
H20 H 0.3340(5) 0.9411(4) 1.2549(3)
C27 C 0.2224(4) 0.7825(4) 1.2475(3)
C28 C 0.1608(4) 0.6847(4) 1.1836(3)
C29 C 0.1723(4) 0.6722(3) 1.0904(3)
H21 H 0.1316(4) 0.6055(3) 1.0503(3)
C30 C 0.1917(5) 0.7620(4) 1.3354(3)
C31 C 0.1139(5) 0.6559(4) 1.3233(3)
C32 C 0.2404(6) 0.8428(5) 1.4260(4)
H22 H 0.3451(15) 0.829(3) 1.4559(14)
H23 H 0.229(4) 0.9246(5) 1.4123(5)
H24 H 0.177(3) 0.826(2) 1.4668(12)
C33 C 0.0522(7) 0.5927(5) 1.3890(4)
H25 H -0.0563(10) 0.602(3) 1.3757(19)
H26 H 0.074(4) 0.5095(8) 1.382(2)
H27 H 0.099(4) 0.625(2) 1.4518(4)
O2 O 0.3139(7) 0.1478(5) 0.3949(4)
C34 C 0.2340(10) 0.2752(8) 0.2810(5)
H28 H 0.250(7) 0.3587(11) 0.3003(13)
H29 H 0.321(4) 0.245(4) 0.261(3)
H30 H 0.144(3) 0.263(5) 0.2303(16)
C35 C 0.2147(8) 0.2132(5) 0.3585(5)
C36 C 0.0785(8) 0.2288(6) 0.3937(6)
H31 H 0.081(3) 0.176(4) 0.441(3)
H32 H 0.076(4) 0.3096(16) 0.420(4)
H33 H -0.0108(9) 0.212(5) 0.3432(10)
loop_
_geom_bond_atom_site_label_1
_geom_bond_atom_site_label_2
_geom_bond_site_symmetry_1
_geom_bond_site_symmetry_2
O1 C1 1_555 1_555
N1 C1 1_555 1_555
N2 H1 1_555 1_555
N3 H2 1_555 1_555
C1 C2 1_555 1_555
C2 C3 1_555 1_555
C3 C4 1_555 1_555
C4 H3 1_555 1_555
C5 C4 1_555 1_555
H4 C5 1_555 1_555
C6 C5 1_555 1_555
H5 C6 1_555 1_555
C7 C6 1_555 1_555
H6 C7 1_555 1_555
C8 N1 1_555 1_555
C9 N1 1_555 1_555
H7 C9 1_555 1_555
H8 C9 1_555 1_555
C10 C9 1_555 1_555
C11 C10 1_555 1_555
H9 C11 1_555 1_555
C12 C11 1_555 1_555
H10 C12 1_555 1_555
C13 C12 1_555 1_555
H11 C13 1_555 1_555
C14 C13 1_555 1_555
H12 C14 1_555 1_555
C15 C10 1_555 1_555
H13 C15 1_555 1_555
C16 C2 1_555 1_555
C17 N3 1_555 1_555
H14 C17 1_555 1_555
C18 N3 1_555 1_555
C19 C18 1_555 1_555
H15 C19 1_555 1_555
C20 C19 1_555 1_555
H16 C20 1_555 1_555
C21 C20 1_555 1_555
H17 C21 1_555 1_555
C22 C21 1_555 1_555
H18 C22 1_555 1_555
C23 C16 1_555 1_555
C24 C2 1_555 1_555
C25 C24 1_555 1_555
H19 C25 1_555 1_555
C26 C25 1_555 1_555
H20 C26 1_555 1_555
C27 C26 1_555 1_555
C28 N2 1_555 1_555
C29 C24 1_555 1_555
H21 C29 1_555 1_555
C30 C27 1_555 1_555
C31 N2 1_555 1_555
C32 C30 1_555 1_555
H22 C32 1_555 1_555
H23 C32 1_555 1_555
H24 C32 1_555 1_555
C33 C31 1_555 1_555
H25 C33 1_555 1_555
H26 C33 1_555 1_555
H27 C33 1_555 1_555
O2 C35 1_555 1_555
C34 H28 1_555 1_555
H29 C34 1_555 1_555
H30 C34 1_555 1_555
C35 C34 1_555 1_555
C36 C35 1_555 1_555
H31 C36 1_555 1_555
H32 C36 1_555 1_555
H33 C36 1_555 1_555
C3 C8 1_555 1_555
C7 C8 1_555 1_555
C14 C15 1_555 1_555
C16 C17 1_555 1_555
C18 C23 1_555 1_555
C22 C23 1_555 1_555
C27 C28 1_555 1_555
C28 C29 1_555 1_555
C30 C31 1_555 1_555

#END
