
#######################################################################
#
#                 Cambridge Crystallographic Data Centre
#                                CCDC 
#
#######################################################################
#
# If this CIF has been generated from an entry in the Cambridge 
# Structural Database, then it will include bibliographic, chemical, 
# crystal, experimental, refinement or atomic coordinate data resulting 
# from the CCDC's data processing and validation procedures.
#
#######################################################################

data_JOYTEY
_chemical_formula_moiety         'C56 H36 N6 S6'
_chemical_name_systematic        
(P)-4''''',5-Dimethyl-2,2',2'',2''',2'''',2'''''-hexaphenyl-4,5':4',5'':4'',5''':4''',5'''':4'''',5'''''-se\x-1,3-thiazole
_symmetry_cell_setting           monoclinic
_symmetry_space_group_name_H-M   'P 21'
_symmetry_Int_Tables_number      4
_space_group_name_Hall           'P 2yb'
loop_
_symmetry_equiv_pos_site_id
_symmetry_equiv_pos_as_xyz
1 x,y,z
2 -x,1/2+y,-z
_cell_length_a                   12.8076(3)
_cell_length_b                   15.6426(3)
_cell_length_c                   13.6383(3)
_cell_angle_alpha                90
_cell_angle_beta                 119.7859(7)
_cell_angle_gamma                90
_cell_volume                     2371.38
_exptl_crystal_colour            colorless
_exptl_crystal_description       block
_cell_formula_units_Z            2
loop_
_atom_site_label
_atom_site_type_symbol
_atom_site_fract_x
_atom_site_fract_y
_atom_site_fract_z
S1 S 0.53969(5) 0.53992(4) 0.45552(5)
S2 S 0.55557(5) 0.54549(4) 0.07947(5)
S3 S 0.12096(5) 0.60692(4) 0.01434(5)
S4 S 0.45706(5) 0.77329(4) 0.35914(5)
S5 S 0.49439(5) 0.79034(4) -0.00528(5)
S6 S 0.05601(5) 0.83450(4) -0.08149(5)
N1 N 0.35638(17) 0.44103(13) 0.38800(16)
N2 N 0.64862(16) 0.50624(12) 0.28919(16)
N3 N 0.26188(16) 0.52009(11) -0.03254(15)
N4 N 0.28531(15) 0.66289(12) 0.28498(15)
N5 N 0.58884(15) 0.74412(12) 0.20276(15)
N6 N 0.20345(15) 0.75339(13) -0.12385(15)
C1 C 0.3053(3) 0.39638(17) 0.1971(3)
C2 C 0.3804(2) 0.44694(15) 0.30068(19)
C3 C 0.4326(2) 0.48676(15) 0.47487(19)
C4 C 0.4270(2) 0.49259(16) 0.5807(2)
C5 C 0.3453(3) 0.44054(17) 0.5913(3)
C6 C 0.3358(3) 0.44439(19) 0.6881(3)
C7 C 0.4073(3) 0.4986(2) 0.7743(3)
C8 C 0.4901(3) 0.5507(3) 0.7647(3)
C9 C 0.5003(3) 0.54658(19) 0.6682(2)
C10 C 0.47627(19) 0.49794(14) 0.32068(18)
C11 C 0.52690(18) 0.51636(14) 0.24732(18)
C12 C 0.67677(19) 0.51939(14) 0.21014(19)
C13 C 0.8000(2) 0.51234(16) 0.2294(3)
C14 C 0.8890(3) 0.4796(2) 0.3317(3)
C15 C 1.0072(3) 0.4752(3) 0.3529(4)
C16 C 1.0367(3) 0.5024(3) 0.2758(4)
C17 C 0.9491(3) 0.5348(2) 0.1751(4)
C18 C 0.8300(3) 0.53986(18) 0.1506(3)
C19 C 0.46138(17) 0.54018(15) 0.13597(17)
C20 C 0.33234(18) 0.55968(14) 0.07030(17)
C21 C 0.14813(18) 0.53871(15) -0.07184(18)
C22 C 0.0495(2) 0.50684(16) -0.17963(19)
C23 C 0.0759(3) 0.46476(17) -0.2538(3)
C24 C -0.0161(3) 0.43603(19) -0.3569(3)
C25 C -0.1339(3) 0.44793(19) -0.3866(3)
C26 C -0.1611(3) 0.4891(2) -0.3125(3)
C27 C -0.0702(2) 0.51911(19) -0.2096(2)
C28 C 0.27288(18) 0.61136(14) 0.10761(18)
C29 C 0.32505(18) 0.66763(14) 0.20726(18)
C30 C 0.34789(18) 0.71492(14) 0.37004(18)
C31 C 0.33055(19) 0.72224(15) 0.46802(18)
C32 C 0.25214(19) 0.66668(16) 0.4791(2)
C33 C 0.2347(2) 0.67151(17) 0.5707(2)
C34 C 0.2948(3) 0.73278(17) 0.6540(2)
C35 C 0.3741(3) 0.78854(16) 0.6444(2)
C36 C 0.3921(2) 0.78325(16) 0.5529(2)
C37 C 0.41438(18) 0.72529(14) 0.23104(18)
C38 C 0.46620(18) 0.74951(14) 0.15973(18)
C39 C 0.61687(18) 0.76300(14) 0.12553(19)
C40 C 0.74044(19) 0.75940(15) 0.1443(2)
C41 C 0.8347(2) 0.74303(17) 0.2522(3)
C42 C 0.9513(3) 0.73824(19) 0.2721(3)
C43 C 0.9742(3) 0.7496(2) 0.1841(3)
C44 C 0.8818(3) 0.7660(3) 0.0774(3)
C45 C 0.7643(3) 0.77053(19) 0.0569(3)
C46 C 0.40021(18) 0.77548(15) 0.04958(18)
C47 C 0.26892(18) 0.79074(15) -0.01826(19)
C48 C 0.08866(18) 0.77101(15) -0.16750(19)
C49 C -0.0074(2) 0.74038(15) -0.2770(2)
C50 C 0.0171(3) 0.68287(17) -0.3398(2)
C51 C -0.0727(3) 0.65415(19) -0.4433(3)
C52 C -0.1898(3) 0.68204(19) -0.4845(3)
C53 C -0.2162(3) 0.73770(19) -0.4225(3)
C54 C -0.1258(2) 0.76815(18) -0.3200(3)
C55 C 0.2060(2) 0.83851(16) 0.0180(2)
C56 C 0.2494(3) 0.89245(17) 0.1209(3)
H1 H 0.3411 0.3981 0.1482
H2 H 0.2241 0.4206 0.1569
H3 H 0.3011 0.3370 0.2179
H4 H 0.2958 0.4023 0.5322
H5 H 0.2792 0.4091 0.6947
H6 H 0.4006 0.5007 0.8406
H7 H 0.5394 0.5888 0.8241
H8 H 0.5580 0.5811 0.6622
H9 H 0.8695 0.4604 0.3867
H10 H 1.0681 0.4527 0.4229
H11 H 1.1176 0.4990 0.2913
H12 H 0.9699 0.5542 0.1210
H13 H 0.7699 0.5621 0.0801
H14 H 0.1573 0.4555 -0.2341
H15 H 0.0030 0.4077 -0.4076
H16 H -0.1964 0.4281 -0.4574
H17 H -0.2428 0.4970 -0.3323
H18 H -0.0897 0.5480 -0.1596
H19 H 0.2100 0.6248 0.4226
H20 H 0.1813 0.6327 0.5771
H21 H 0.2819 0.7366 0.7167
H22 H 0.4160 0.8304 0.7011
H23 H 0.4467 0.8213 0.5473
H24 H 0.8189 0.7351 0.3127
H25 H 1.0157 0.7271 0.3462
H26 H 1.0543 0.7461 0.1977
H27 H 0.8980 0.7743 0.0172
H28 H 0.7002 0.7813 -0.0174
H29 H 0.0971 0.6628 -0.3113
H30 H -0.0542 0.6154 -0.4862
H31 H -0.2519 0.6625 -0.5558
H32 H -0.2970 0.7555 -0.4499
H33 H -0.1444 0.8082 -0.2785
H34 H 0.2315 0.8640 0.1748
H35 H 0.2089 0.9481 0.0999
H36 H 0.3365 0.9008 0.1555
loop_
_geom_bond_atom_site_label_1
_geom_bond_atom_site_label_2
_geom_bond_site_symmetry_1
_geom_bond_site_symmetry_2
S1 C3 1_555 1_555
S2 C12 1_555 1_555
S3 C21 1_555 1_555
S4 C30 1_555 1_555
S5 C39 1_555 1_555
S6 C48 1_555 1_555
N1 C2 1_555 1_555
N2 C11 1_555 1_555
N3 C20 1_555 1_555
N4 C29 1_555 1_555
N5 C38 1_555 1_555
N6 C47 1_555 1_555
C1 C2 1_555 1_555
C2 C10 1_555 1_555
C3 N1 1_555 1_555
C4 C3 1_555 1_555
C5 C4 1_555 1_555
C6 C5 1_555 1_555
C7 C6 1_555 1_555
C8 C7 1_555 1_555
C9 C4 1_555 1_555
C10 S1 1_555 1_555
C11 C10 1_555 1_555
C12 N2 1_555 1_555
C13 C12 1_555 1_555
C14 C13 1_555 1_555
C15 C14 1_555 1_555
C16 C15 1_555 1_555
C17 C16 1_555 1_555
C18 C13 1_555 1_555
C19 S2 1_555 1_555
C20 C19 1_555 1_555
C21 N3 1_555 1_555
C22 C21 1_555 1_555
C23 C22 1_555 1_555
C24 C23 1_555 1_555
C25 C24 1_555 1_555
C26 C25 1_555 1_555
C27 C22 1_555 1_555
C28 S3 1_555 1_555
C29 C28 1_555 1_555
C30 N4 1_555 1_555
C31 C30 1_555 1_555
C32 C31 1_555 1_555
C33 C32 1_555 1_555
C34 C33 1_555 1_555
C35 C34 1_555 1_555
C36 C31 1_555 1_555
C37 S4 1_555 1_555
C38 C37 1_555 1_555
C39 N5 1_555 1_555
C40 C39 1_555 1_555
C41 C40 1_555 1_555
C42 C41 1_555 1_555
C43 C42 1_555 1_555
C44 C43 1_555 1_555
C45 C40 1_555 1_555
C46 S5 1_555 1_555
C47 C46 1_555 1_555
C48 N6 1_555 1_555
C49 C48 1_555 1_555
C50 C49 1_555 1_555
C51 C50 1_555 1_555
C52 C51 1_555 1_555
C53 C52 1_555 1_555
C54 C49 1_555 1_555
C55 S6 1_555 1_555
C56 C55 1_555 1_555
H1 C1 1_555 1_555
H2 C1 1_555 1_555
H3 C1 1_555 1_555
H4 C5 1_555 1_555
H5 C6 1_555 1_555
H6 C7 1_555 1_555
H7 C8 1_555 1_555
H8 C9 1_555 1_555
H9 C14 1_555 1_555
H10 C15 1_555 1_555
H11 C16 1_555 1_555
H12 C17 1_555 1_555
H13 C18 1_555 1_555
H14 C23 1_555 1_555
H15 C24 1_555 1_555
H16 C25 1_555 1_555
H17 C26 1_555 1_555
H18 C27 1_555 1_555
H19 C32 1_555 1_555
H20 C33 1_555 1_555
H21 C34 1_555 1_555
H22 C35 1_555 1_555
H23 C36 1_555 1_555
H24 C41 1_555 1_555
H25 C42 1_555 1_555
H26 C43 1_555 1_555
H27 C44 1_555 1_555
H28 C45 1_555 1_555
H29 C50 1_555 1_555
H30 C51 1_555 1_555
H31 C52 1_555 1_555
H32 C53 1_555 1_555
H33 C54 1_555 1_555
H34 C56 1_555 1_555
H35 C56 1_555 1_555
H36 C56 1_555 1_555
C8 C9 1_555 1_555
C11 C19 1_555 1_555
C17 C18 1_555 1_555
C20 C28 1_555 1_555
C26 C27 1_555 1_555
C29 C37 1_555 1_555
C35 C36 1_555 1_555
C38 C46 1_555 1_555
C44 C45 1_555 1_555
C47 C55 1_555 1_555
C53 C54 1_555 1_555

#END
