
#######################################################################
#
#                 Cambridge Crystallographic Data Centre
#                                CCDC 
#
#######################################################################
#
# If this CIF has been generated from an entry in the Cambridge 
# Structural Database, then it will include bibliographic, chemical, 
# crystal, experimental, refinement or atomic coordinate data resulting 
# from the CCDC's data processing and validation procedures.
#
#######################################################################

data_JOYTUO
_chemical_name_common            
'15,24-Diphenyl-12-aza-3-azoniaheptacyclo[12.10.0.0$2,7!.0$8,13!.0$15,19!.0$16,23!.0$20,24!]tetracosa-1(14),2,4,6,8,10,12-heptaene tetrafluoroborate'
_chemical_formula_moiety         'C34 H29 N2 1+,B1 F4 1-'
_chemical_name_systematic        
'9,13a-Diphenyl-10,10a,11,12,13,13a-hexahydro-9H-9,13,10-(propane[1,1,3]triyl)indeno[4,5-f][4,7]phenanthrolin-1-ium tetrafluoroborate'
_symmetry_cell_setting           monoclinic
_symmetry_space_group_name_H-M   'P 21/c'
_symmetry_Int_Tables_number      14
_space_group_name_Hall           '-P 2ybc'
loop_
_symmetry_equiv_pos_site_id
_symmetry_equiv_pos_as_xyz
1 x,y,z
2 -x,1/2+y,1/2-z
3 -x,-y,-z
4 x,1/2-y,1/2+z
_cell_length_a                   8.2710(5)
_cell_length_b                   12.9503(8)
_cell_length_c                   24.7661(14)
_cell_angle_alpha                90
_cell_angle_beta                 99.143(4)
_cell_angle_gamma                90
_cell_volume                     2619.04
_exptl_crystal_colour            'pale yellow'
_exptl_crystal_description       prism
_cell_formula_units_Z            4
loop_
_atom_site_label
_atom_site_type_symbol
_atom_site_fract_x
_atom_site_fract_y
_atom_site_fract_z
C1 C 0.3749(4) 0.3790(3) 0.22413(14)
H1 H 0.3870 0.4464 0.2393
C2 C 0.2540(4) 0.3140(3) 0.23644(14)
H2 H 0.1761 0.3375 0.2580
C3 C 0.2482(3) 0.2156(2) 0.21723(13)
H3 H 0.1675 0.1699 0.2268
C4 C 0.3583(3) 0.1793(2) 0.18357(13)
C5 C 0.4699(3) 0.2501(2) 0.16656(13)
C6 C 0.5761(3) 0.2213(2) 0.12760(12)
C7 C 0.5828(3) 0.1198(2) 0.11310(12)
C8 C 0.4649(3) 0.0454(2) 0.12822(12)
C9 C 0.3588(3) 0.0743(2) 0.16520(12)
C10 C 0.2586(3) -0.0031(3) 0.18244(13)
H4 H 0.1909 0.0125 0.2090
C11 C 0.2585(3) -0.0998(2) 0.16127(14)
H5 H 0.1969 -0.1537 0.1742
C12 C 0.3517(3) -0.1178(2) 0.11988(14)
H6 H 0.3420 -0.1830 0.1021
C13 C 0.7235(3) 0.0941(2) 0.08239(12)
C14 C 0.7487(3) -0.0229(2) 0.07560(13)
C15 C 0.8197(3) -0.0823(2) 0.11995(14)
H7 H 0.8533 -0.0502 0.1544
C16 C 0.8419(4) -0.1869(3) 0.11458(16)
H8 H 0.8897 -0.2260 0.1455
C17 C 0.7957(4) -0.2360(3) 0.06500(17)
H9 H 0.8119 -0.3081 0.0615
C18 C 0.7256(3) -0.1780(2) 0.02078(15)
H10 H 0.6925 -0.2107 -0.0135
C19 C 0.7026(3) -0.0726(2) 0.02561(13)
H11 H 0.6550 -0.0338 -0.0054
C20 C 0.7182(3) 0.1555(2) 0.02803(13)
H12 H 0.6315 0.1273 -0.0010
C21 C 0.8921(3) 0.1307(2) 0.01466(13)
H13 H 0.8893 0.0678 -0.0082
H14 H 0.9335 0.1889 -0.0052
C22 C 1.0017(3) 0.1139(2) 0.07035(13)
H15 H 1.1000 0.1586 0.0741
H16 H 1.0368 0.0409 0.0750
C23 C 0.8900(3) 0.1440(2) 0.11245(13)
H17 H 0.9272 0.1097 0.1484
C24 C 0.8730(3) 0.2630(2) 0.11980(13)
H18 H 0.9111 0.2832 0.1587
C25 C 0.9552(3) 0.3329(2) 0.08019(14)
H19 H 0.9859 0.4007 0.0972
H20 H 1.0547 0.2994 0.0708
C26 C 0.8245(4) 0.3458(2) 0.02880(14)
H21 H 0.8686 0.3257 -0.0046
H22 H 0.7854 0.4181 0.0249
C27 C 0.6852(3) 0.2722(2) 0.03905(13)
H23 H 0.5782 0.2947 0.0176
C28 C 0.6894(3) 0.2931(2) 0.10194(12)
C29 C 0.6496(3) 0.4066(2) 0.11012(13)
C30 C 0.7478(4) 0.4702(2) 0.14716(14)
H24 H 0.8511 0.4459 0.1649
C31 C 0.6961(4) 0.5686(3) 0.15835(15)
H25 H 0.7650 0.6113 0.1834
C32 C 0.5461(5) 0.6052(3) 0.13364(17)
H26 H 0.5099 0.6718 0.1425
C33 C 0.4489(5) 0.5442(3) 0.09588(16)
H27 H 0.3460 0.5694 0.0782
C34 C 0.5004(4) 0.4468(3) 0.08362(14)
H28 H 0.4338 0.4063 0.0568
N1 N 0.4746(3) 0.34567(19) 0.19048(11)
H29 H 0.5538 0.3967 0.1784
N2 N 0.4533(3) -0.04871(19) 0.10398(11)
B1 B 0.1515(4) 0.6249(3) 0.22412(18)
F1 F 0.0912(2) 0.71950(15) 0.23803(10)
F2 F 0.1316(3) 0.6149(2) 0.16873(9)
F3 F 0.3147(2) 0.61708(16) 0.24589(10)
F4 F 0.0644(3) 0.54742(16) 0.24624(10)
loop_
_geom_bond_atom_site_label_1
_geom_bond_atom_site_label_2
_geom_bond_site_symmetry_1
_geom_bond_site_symmetry_2
C1 H1 1_555 1_555
C2 C1 1_555 1_555
H2 C2 1_555 1_555
C3 C2 1_555 1_555
H3 C3 1_555 1_555
C4 C3 1_555 1_555
C5 C4 1_555 1_555
C6 C5 1_555 1_555
C7 C6 1_555 1_555
C8 C7 1_555 1_555
C9 C4 1_555 1_555
C10 C9 1_555 1_555
H4 C10 1_555 1_555
C11 C10 1_555 1_555
H5 C11 1_555 1_555
C12 C11 1_555 1_555
H6 C12 1_555 1_555
C13 C7 1_555 1_555
C14 C13 1_555 1_555
C15 C14 1_555 1_555
H7 C15 1_555 1_555
C16 C15 1_555 1_555
H8 C16 1_555 1_555
C17 C16 1_555 1_555
H9 C17 1_555 1_555
C18 C17 1_555 1_555
H10 C18 1_555 1_555
C19 C14 1_555 1_555
H11 C19 1_555 1_555
C20 C13 1_555 1_555
H12 C20 1_555 1_555
C21 C20 1_555 1_555
H13 C21 1_555 1_555
H14 C21 1_555 1_555
C22 C21 1_555 1_555
H15 C22 1_555 1_555
H16 C22 1_555 1_555
C23 C13 1_555 1_555
H17 C23 1_555 1_555
C24 C23 1_555 1_555
H18 C24 1_555 1_555
C25 C24 1_555 1_555
H19 C25 1_555 1_555
H20 C25 1_555 1_555
C26 C25 1_555 1_555
H21 C26 1_555 1_555
H22 C26 1_555 1_555
C27 C20 1_555 1_555
H23 C27 1_555 1_555
C28 C6 1_555 1_555
C29 C28 1_555 1_555
C30 C29 1_555 1_555
H24 C30 1_555 1_555
C31 C30 1_555 1_555
H25 C31 1_555 1_555
C32 C31 1_555 1_555
H26 C32 1_555 1_555
C33 C32 1_555 1_555
H27 C33 1_555 1_555
C34 C29 1_555 1_555
H28 C34 1_555 1_555
N1 C1 1_555 1_555
H29 N1 1_555 1_555
N2 C8 1_555 1_555
B1 F1 1_555 1_555
F2 B1 1_555 1_555
F3 B1 1_555 1_555
F4 B1 1_555 1_555
C5 N1 1_555 1_555
C8 C9 1_555 1_555
C12 N2 1_555 1_555
C18 C19 1_555 1_555
C22 C23 1_555 1_555
C24 C28 1_555 1_555
C26 C27 1_555 1_555
C27 C28 1_555 1_555
C33 C34 1_555 1_555

#END
