
#######################################################################
#
#                 Cambridge Crystallographic Data Centre
#                                CCDC 
#
#######################################################################
#
# If this CIF has been generated from an entry in the Cambridge 
# Structural Database, then it will include bibliographic, chemical, 
# crystal, experimental, refinement or atomic coordinate data resulting 
# from the CCDC's data processing and validation procedures.
#
#######################################################################

data_JOYVEA
_chemical_formula_moiety         'C34 H36 B2 N2,0.17(C1 H2 Cl2)'
_chemical_name_systematic        
"(2,2'-(5,7a-Dimethyloctahydro-1H-1,5,4-(propane[1,1,3]triyl)indene-6,7-diyl)bis(1-trihydridoborylpyridinium)) dichloromethane unknown solvate"
_symmetry_cell_setting           monoclinic
_symmetry_space_group_name_H-M   'P 21/n'
_symmetry_Int_Tables_number      14
_space_group_name_Hall           '-P 2yn'
loop_
_symmetry_equiv_pos_site_id
_symmetry_equiv_pos_as_xyz
1 x,y,z
2 1/2-x,1/2+y,1/2-z
3 -x,-y,-z
4 1/2+x,1/2-y,1/2+z
_cell_length_a                   13.1252(3)
_cell_length_b                   32.3680(8)
_cell_length_c                   41.4449(10)
_cell_angle_alpha                90
_cell_angle_beta                 95.4200(10)
_cell_angle_gamma                90
_cell_volume                     17528.6
_exptl_crystal_colour            colorless
_exptl_crystal_description       prism
_cell_formula_units_Z            24
loop_
_atom_site_label
_atom_site_type_symbol
_atom_site_fract_x
_atom_site_fract_y
_atom_site_fract_z
B1 B 0.6177(4) 0.9260(2) 0.03886(12)
H1 H 0.6339 0.9211 0.0166
H2 H 0.6318 0.9550 0.0446
H3 H 0.5452 0.9200 0.0405
B2 B 0.5367(4) 0.83754(16) 0.16283(11)
H4 H 0.5741 0.8634 0.1673
H5 H 0.5854 0.8147 0.1623
H6 H 0.4913 0.8325 0.1799
C1 C 0.7521(4) 0.87020(19) 0.04950(12)
H7 H 0.7547 0.8704 0.0267
C2 C 0.8124(4) 0.84413(18) 0.06689(14)
H8 H 0.8573 0.8265 0.0566
C3 C 0.8100(3) 0.84265(15) 0.09934(13)
H9 H 0.8526 0.8240 0.1121
C4 C 0.7453(3) 0.86835(13) 0.11344(11)
H10 H 0.7429 0.8676 0.1363
C5 C 0.6827(3) 0.89569(12) 0.09500(9)
C6 C 0.6147(3) 0.92449(12) 0.11139(8)
C7 C 0.5224(3) 0.91292(11) 0.11978(8)
C8 C 0.4716(3) 0.87388(12) 0.10841(9)
C9 C 0.4176(3) 0.87237(15) 0.07812(10)
H11 H 0.4189 0.8955 0.0641
C10 C 0.3617(4) 0.83779(17) 0.06790(13)
H12 H 0.3273 0.8364 0.0467
C11 C 0.3572(3) 0.80544(16) 0.08928(13)
H13 H 0.3162 0.7819 0.0835
C12 C 0.4136(3) 0.80780(13) 0.11949(12)
H14 H 0.4117 0.7852 0.1340
C13 C 0.4690(3) 0.94396(12) 0.13961(9)
C14 C 0.3630(3) 0.92827(12) 0.14544(9)
C15 C 0.2842(3) 0.92913(15) 0.12002(10)
H15 H 0.2965 0.9417 0.1000
C16 C 0.1890(3) 0.91203(16) 0.12348(12)
H16 H 0.1373 0.9125 0.1058
C17 C 0.1691(3) 0.89450(14) 0.15225(12)
H17 H 0.1032 0.8834 0.1547
C18 C 0.2441(3) 0.89285(13) 0.17761(11)
H18 H 0.2304 0.8804 0.1975
C19 C 0.3411(3) 0.90952(13) 0.17410(10)
H19 H 0.3929 0.9079 0.1917
C20 C 0.5368(3) 0.95725(12) 0.17109(9)
H20 H 0.5397 0.9345 0.1875
C21 C 0.4728(3) 0.99388(13) 0.18229(10)
H21 H 0.5174 1.0146 0.1942
H22 H 0.4214 0.9841 0.1966
C22 C 0.4196(3) 1.01261(14) 0.15061(11)
H23 H 0.3444 1.0093 0.1497
H24 H 0.4359 1.0424 0.1489
C23 C 0.4640(3) 0.98773(12) 0.12355(9)
H25 H 0.4156 0.9877 0.1034
C24 C 0.5740(3) 1.00166(12) 0.11592(9)
H26 H 0.5739 1.0097 0.0926
C25 C 0.6247(3) 1.03605(12) 0.13819(10)
H27 H 0.6752 1.0517 0.1268
H28 H 0.5723 1.0555 0.1448
C26 C 0.6780(3) 1.01360(12) 0.16804(9)
H29 H 0.7531 1.0171 0.1692
H30 H 0.6531 1.0240 0.1883
C27 C 0.6476(3) 0.96803(12) 0.16215(9)
H31 H 0.6994 0.9491 0.1735
C28 C 0.6520(3) 0.96594(12) 0.12436(9)
C29 C 0.7593(3) 0.97474(12) 0.11454(9)
C30 C 0.7731(3) 0.99704(15) 0.08621(10)
H32 H 0.7157 1.0089 0.0739
C31 C 0.8695(4) 1.00184(18) 0.07622(11)
H33 H 0.8783 1.0174 0.0572
C32 C 0.9529(4) 0.98435(15) 0.09347(11)
H34 H 1.0190 0.9874 0.0862
C33 C 0.9413(3) 0.96268(14) 0.12089(12)
H35 H 0.9991 0.9505 0.1328
C34 C 0.8443(3) 0.95832(13) 0.13159(10)
H36 H 0.8371 0.9437 0.1511
N1 N 0.6856(3) 0.89706(12) 0.06269(8)
N2 N 0.4703(2) 0.84076(10) 0.12869(8)
B3 B 0.4567(5) 0.3675(2) 0.00381(12)
H37 H 0.4320 0.3951 0.0088
H38 H 0.3995 0.3509 -0.0061
H39 H 0.5095 0.3698 -0.0113
B4 B 0.3372(4) 0.37205(19) 0.14196(12)
H40 H 0.3049 0.3571 0.1588
H41 H 0.3410 0.4015 0.1474
H42 H 0.4064 0.3613 0.1405
C35 C 0.5420(3) 0.30739(16) 0.03354(12)
H43 H 0.5427 0.2958 0.0125
C36 C 0.5797(3) 0.28434(15) 0.05958(12)
H44 H 0.6049 0.2572 0.0566
C37 C 0.5805(3) 0.30100(14) 0.09007(12)
H45 H 0.6069 0.2857 0.1086
C38 C 0.5427(3) 0.34007(13) 0.09342(10)
H46 H 0.5420 0.3517 0.1144
C39 C 0.5052(3) 0.36288(12) 0.06632(9)
C40 C 0.4701(3) 0.40554(12) 0.07079(9)
C41 C 0.3783(3) 0.41433(12) 0.08018(9)
C42 C 0.2960(3) 0.38258(13) 0.07992(10)
C43 C 0.2414(3) 0.37169(14) 0.05094(11)
H47 H 0.2602 0.3833 0.0313
C44 C 0.1606(4) 0.34444(16) 0.04990(14)
H48 H 0.1237 0.3367 0.0300
C45 C 0.1358(4) 0.32903(17) 0.07872(15)
H49 H 0.0793 0.3108 0.0791
C46 C 0.1912(4) 0.33949(15) 0.10696(14)
H50 H 0.1732 0.3278 0.1267
C47 C 0.3581(3) 0.45957(13) 0.08670(11)
C48 C 0.2487(3) 0.46483(13) 0.09609(14)
C49 C 0.1662(4) 0.46233(15) 0.07307(15)
H51 H 0.1790 0.4601 0.0509
C50 C 0.0644(4) 0.46294(15) 0.08062(17)
H52 H 0.0096 0.4603 0.0640
C51 C 0.0452(4) 0.46745(16) 0.11227(19)
H53 H -0.0231 0.4683 0.1180
C52 C 0.1238(4) 0.47063(17) 0.13508(18)
H54 H 0.1097 0.4739 0.1570
C53 C 0.2245(4) 0.46939(15) 0.12821(14)
H55 H 0.2778 0.4716 0.1453
C54 C 0.4410(3) 0.47891(14) 0.11202(12)
H56 H 0.4311 0.4693 0.1344
C55 C 0.4127(4) 0.52529(16) 0.10789(16)
H57 H 0.3613 0.5332 0.1228
H58 H 0.4741 0.5428 0.1125
C56 C 0.3686(4) 0.53035(16) 0.07264(18)
H59 H 0.4062 0.5518 0.0615
H60 H 0.2952 0.5378 0.0713
C57 C 0.3837(3) 0.48759(14) 0.05796(13)
H61 H 0.3328 0.4831 0.0388
C58 C 0.4948(3) 0.47897(14) 0.04869(12)
H62 H 0.4935 0.4720 0.0251
C59 C 0.5749(4) 0.51268(15) 0.05794(13)
H63 H 0.6314 0.5113 0.0437
H64 H 0.5434 0.5405 0.0559
C60 C 0.6152(3) 0.50392(15) 0.09350(13)
H65 H 0.6888 0.4967 0.0953
H66 H 0.6051 0.5281 0.1074
C61 C 0.5499(3) 0.46709(13) 0.10278(11)
H67 H 0.5875 0.4507 0.1206
C62 C 0.5426(3) 0.44209(13) 0.07025(10)
C63 C 0.6472(3) 0.42808(13) 0.06099(10)
C64 C 0.6719(3) 0.42880(16) 0.02912(11)
H68 H 0.6239 0.4392 0.0125
C65 C 0.7649(4) 0.41461(18) 0.02130(14)
H69 H 0.7801 0.4157 -0.0006
C66 C 0.8358(4) 0.39899(17) 0.04398(15)
H70 H 0.8997 0.3891 0.0382
C67 C 0.8127(3) 0.39785(15) 0.07562(13)
H71 H 0.8611 0.3872 0.0920
C68 C 0.7194(3) 0.41215(14) 0.08369(11)
H72 H 0.7047 0.4109 0.1057
N3 N 0.5037(3) 0.34591(11) 0.03631(8)
N4 N 0.2708(2) 0.36601(10) 0.10785(8)
B5 B 0.6151(4) 0.38141(18) 0.30298(11)
H73 H 0.5931 0.3678 0.3223
H74 H 0.6125 0.4114 0.3058
H75 H 0.6854 0.3730 0.3000
B6 B 0.6951(4) 0.34777(15) 0.16661(11)
H76 H 0.6612 0.3746 0.1681
H77 H 0.6434 0.3262 0.1621
H78 H 0.7402 0.3485 0.1491
C69 C 0.4657(3) 0.34107(12) 0.27750(10)
H79 H 0.4604 0.3316 0.2990
C70 C 0.3978(3) 0.32698(13) 0.25314(10)
H80 H 0.3441 0.3089 0.2579
C71 C 0.4069(3) 0.33887(13) 0.22180(10)
H81 H 0.3613 0.3287 0.2044
C72 C 0.4838(3) 0.36598(12) 0.21620(10)
H82 H 0.4921 0.3744 0.1946
C73 C 0.5494(3) 0.38125(11) 0.24144(9)
C74 C 0.6276(3) 0.41295(11) 0.23449(8)
C75 C 0.7201(3) 0.40405(11) 0.22567(8)
C76 C 0.7638(3) 0.36186(12) 0.22725(8)
C77 C 0.8144(3) 0.34731(12) 0.25625(9)
H83 H 0.8142 0.3634 0.2754
C78 C 0.8642(3) 0.31017(13) 0.25738(10)
H84 H 0.8984 0.3004 0.2771
C79 C 0.8641(3) 0.28688(13) 0.22901(10)
H85 H 0.8992 0.2612 0.2289
C80 C 0.8122(3) 0.30199(12) 0.20145(10)
H86 H 0.8122 0.2862 0.1821
C81 C 0.7836(3) 0.44091(11) 0.21743(9)
C82 C 0.8903(3) 0.42605(12) 0.20949(9)
C83 C 0.9045(3) 0.41085(13) 0.17887(10)
H87 H 0.8499 0.4124 0.1621
C84 C 0.9969(3) 0.39350(15) 0.17232(12)
H88 H 1.0049 0.3831 0.1513
C85 C 1.0777(3) 0.39127(14) 0.19634(12)
H89 H 1.1412 0.3794 0.1920
C86 C 1.0645(3) 0.40641(15) 0.22647(12)
H90 H 1.1198 0.4056 0.2430
C87 C 0.9719(3) 0.42280(13) 0.23317(10)
H91 H 0.9638 0.4321 0.2545
C88 C 0.7287(3) 0.46860(12) 0.19049(10)
H92 H 0.7280 0.4547 0.1689
C89 C 0.8029(3) 0.50581(14) 0.19231(12)
H93 H 0.8588 0.5011 0.1783
H94 H 0.7661 0.5314 0.1852
C90 C 0.8454(3) 0.50917(14) 0.22774(12)
H95 H 0.8300 0.5366 0.2368
H96 H 0.9204 0.5048 0.2302
C91 C 0.7897(3) 0.47437(12) 0.24472(10)
H97 H 0.8319 0.4644 0.2646
C92 C 0.6789(3) 0.48658(12) 0.25270(10)
H98 H 0.6728 0.4830 0.2764
C93 C 0.6402(3) 0.52928(14) 0.24182(13)
H99 H 0.6968 0.5496 0.2435
H100 H 0.5862 0.5389 0.2552
C94 C 0.5969(4) 0.52329(14) 0.20614(12)
H101 H 0.5226 0.5293 0.2034
H102 H 0.6320 0.5417 0.1917
C95 C 0.6171(3) 0.47770(13) 0.19854(10)
H103 H 0.5658 0.4670 0.1811
C96 C 0.5992(3) 0.45846(12) 0.23273(9)
C97 C 0.4905(3) 0.46458(11) 0.24192(10)
C98 C 0.4704(3) 0.47122(13) 0.27424(10)
H104 H 0.5262 0.4744 0.2904
C99 C 0.3728(4) 0.47325(14) 0.28308(12)
H105 H 0.3617 0.4777 0.3051
C100 C 0.2908(3) 0.46890(13) 0.26034(13)
H106 H 0.2232 0.4704 0.2666
C101 C 0.3067(3) 0.46218(15) 0.22775(13)
H107 H 0.2503 0.4590 0.2118
C102 C 0.4064(3) 0.46029(13) 0.21930(11)
H108 H 0.4174 0.4559 0.1972
N5 N 0.5412(2) 0.36838(9) 0.27204(7)
N6 N 0.7611(2) 0.33802(9) 0.20009(7)
B7 B 0.3811(4) 0.21244(17) 0.19022(11)
H109 H 0.3295 0.1930 0.1966
H110 H 0.4212 0.1993 0.1743
H111 H 0.3471 0.2371 0.1806
B8 B 0.3000(3) 0.24677(15) 0.32628(10)
H112 H 0.3343 0.2200 0.3248
H113 H 0.2550 0.2459 0.3438
H114 H 0.3514 0.2685 0.3307
C103 C 0.5303(3) 0.25170(12) 0.21611(10)
H115 H 0.5367 0.2605 0.1945
C104 C 0.5984(3) 0.26666(13) 0.24026(10)
H116 H 0.6513 0.2851 0.2355
C105 C 0.5884(3) 0.25435(13) 0.27166(10)
H117 H 0.6345 0.2642 0.2890
C106 C 0.5106(3) 0.22761(12) 0.27741(9)
H118 H 0.5018 0.2195 0.2990
C107 C 0.4450(3) 0.21234(12) 0.25203(8)
C108 C 0.3677(3) 0.18077(11) 0.25869(8)
C109 C 0.2744(3) 0.19024(11) 0.26705(8)
C110 C 0.2301(2) 0.23190(11) 0.26561(8)
C111 C 0.1796(3) 0.24632(12) 0.23672(9)
H119 H 0.1787 0.2300 0.2177
C112 C 0.1306(3) 0.28423(13) 0.23553(10)
H120 H 0.0984 0.2944 0.2156
C113 C 0.1292(3) 0.30687(13) 0.26335(10)
H121 H 0.0922 0.3321 0.2635
C114 C 0.1827(3) 0.29213(12) 0.29121(9)
H122 H 0.1836 0.3083 0.3104
C115 C 0.2096(3) 0.15343(11) 0.27555(9)
C116 C 0.1044(3) 0.16856(11) 0.28355(9)
C117 C 0.0890(3) 0.18359(12) 0.31408(9)
H123 H 0.1428 0.1816 0.3310
C118 C -0.0032(3) 0.20137(14) 0.32032(10)
H124 H -0.0107 0.2124 0.3412
C119 C -0.0837(3) 0.20320(13) 0.29678(11)
H125 H -0.1471 0.2150 0.3014
C120 C -0.0715(3) 0.18760(14) 0.26597(10)
H126 H -0.1268 0.1884 0.2495
C121 C 0.0224(3) 0.17090(13) 0.25960(10)
H127 H 0.0308 0.1609 0.2385
C122 C 0.2038(3) 0.11866(12) 0.24916(9)
H128 H 0.1610 0.1282 0.2293
C123 C 0.1480(3) 0.08479(13) 0.26592(11)
H129 H 0.1631 0.0572 0.2572
H130 H 0.0731 0.0893 0.2634
C124 C 0.1914(3) 0.08885(13) 0.30195(10)
H131 H 0.1355 0.0938 0.3160
H132 H 0.2284 0.0634 0.3094
C125 C 0.2645(3) 0.12585(12) 0.30301(9)
H133 H 0.2659 0.1402 0.3244
C126 C 0.3776(3) 0.11635(12) 0.29450(10)
H134 H 0.4293 0.1272 0.3117
C127 C 0.3979(3) 0.07035(13) 0.28731(12)
H135 H 0.3634 0.0522 0.3021
H136 H 0.4721 0.0643 0.2897
C128 C 0.3526(3) 0.06428(13) 0.25184(11)
H137 H 0.4055 0.0540 0.2383
H138 H 0.2952 0.0443 0.2506
C129 C 0.3145(3) 0.10757(12) 0.24036(10)
H139 H 0.3200 0.1111 0.2166
C130 C 0.3945(3) 0.13532(12) 0.26063(8)
C131 C 0.5032(3) 0.12876(11) 0.25106(9)
C132 C 0.5887(3) 0.13317(13) 0.27402(10)
H140 H 0.5780 0.1383 0.2960
C133 C 0.6874(3) 0.13022(14) 0.26542(10)
H141 H 0.7436 0.1335 0.2814
C134 C 0.7044(3) 0.12247(12) 0.23368(10)
H142 H 0.7723 0.1203 0.2277
C135 C 0.6223(3) 0.11785(13) 0.21056(10)
H143 H 0.6336 0.1125 0.1886
C136 C 0.5233(3) 0.12105(13) 0.21945(10)
H144 H 0.4674 0.1179 0.2033
N7 N 0.4550(2) 0.22534(10) 0.22126(7)
N8 N 0.2333(2) 0.25636(9) 0.29262(7)
B9 B 0.1269(5) 0.1583(2) 0.03490(13)
H145 H 0.1430 0.1626 0.0125
H146 H 0.0534 0.1626 0.0362
H147 H 0.1453 0.1301 0.0417
B10 B 0.0294(4) 0.25279(16) 0.15640(11)
H148 H 0.0667 0.2271 0.1619
H149 H -0.0186 0.2583 0.1726
H150 H 0.0780 0.2757 0.1561
C137 C 0.2506(4) 0.21732(18) 0.04392(12)
H151 H 0.2514 0.2169 0.0210
C138 C 0.3104(4) 0.24502(18) 0.06092(14)
H152 H 0.3540 0.2629 0.0503
C139 C 0.3069(4) 0.24688(16) 0.09336(13)
H153 H 0.3484 0.2661 0.1060
C140 C 0.2428(3) 0.22062(13) 0.10800(11)
H154 H 0.2390 0.2223 0.1307
C141 C 0.1842(3) 0.19201(12) 0.09026(9)
C142 C 0.1156(3) 0.16440(12) 0.10654(8)
C143 C 0.0246(3) 0.17605(11) 0.11466(8)
C144 C -0.0274(3) 0.21489(12) 0.10197(9)
C145 C -0.0740(3) 0.21577(14) 0.07024(10)
H155 H -0.0668 0.1929 0.0563
C146 C -0.1301(3) 0.24962(16) 0.05916(11)
H156 H -0.1613 0.2505 0.0375
C147 C -0.1401(3) 0.28182(16) 0.07960(13)
H157 H -0.1814 0.3049 0.0728
C148 C -0.0897(3) 0.28068(14) 0.11051(12)
H158 H -0.0956 0.3037 0.1245
C149 C -0.0304(3) 0.14567(12) 0.13423(8)
C150 C -0.1369(3) 0.16243(12) 0.14005(9)
C151 C -0.2156(3) 0.16125(14) 0.11485(11)
H159 H -0.2037 0.1481 0.0950
C152 C -0.3099(3) 0.17868(15) 0.11804(12)
H160 H -0.3615 0.1783 0.1004
C153 C -0.3294(3) 0.19698(14) 0.14737(12)
H161 H -0.3948 0.2084 0.1500
C154 C -0.2532(3) 0.19833(13) 0.17234(11)
H162 H -0.2658 0.2108 0.1923
C155 C -0.1582(3) 0.18157(12) 0.16863(9)
H163 H -0.1060 0.1832 0.1861
C156 C -0.0358(3) 0.10121(12) 0.11903(10)
H164 H -0.0833 0.1005 0.0987
C157 C -0.0812(3) 0.07796(13) 0.14647(10)
H165 H -0.0664 0.0480 0.1453
H166 H -0.1563 0.0819 0.1452
C158 C -0.0294(3) 0.09662(13) 0.17778(10)
H167 H 0.0149 0.0760 0.1899
H168 H -0.0810 0.1066 0.1919
C159 C 0.0356(3) 0.13325(12) 0.16631(9)
H169 H 0.0378 0.1564 0.1823
C160 C 0.1467(3) 0.12191(12) 0.15806(9)
H170 H 0.1985 0.1409 0.1694
C161 C 0.1765(3) 0.07624(12) 0.16450(9)
H171 H 0.2517 0.0726 0.1659
H172 H 0.1511 0.0663 0.1849
C162 C 0.1242(3) 0.05306(12) 0.13502(10)
H173 H 0.0714 0.0339 0.1418
H174 H 0.1749 0.0370 0.1240
C163 C 0.0750(3) 0.08686(12) 0.11239(9)
H175 H 0.0758 0.0783 0.0892
C164 C 0.1525(3) 0.12315(12) 0.12034(8)
C165 C 0.2595(3) 0.11347(12) 0.11044(9)
C166 C 0.2758(3) 0.08999(14) 0.08353(10)
H176 H 0.2192 0.0773 0.0714
C167 C 0.3738(3) 0.08464(15) 0.07390(11)
H177 H 0.3834 0.0688 0.0551
C168 C 0.4571(3) 0.10233(14) 0.09152(11)
H178 H 0.5241 0.0985 0.0851
C169 C 0.4425(3) 0.12541(13) 0.11826(11)
H179 H 0.4995 0.1379 0.1304
C170 C 0.3455(3) 0.13080(12) 0.12785(10)
H180 H 0.3370 0.1466 0.1467
N9 N 0.1890(3) 0.18990(12) 0.05774(8)
N10 N -0.0326(2) 0.24821(10) 0.12144(7)
B11 B 0.1620(4) 0.27516(18) 0.85157(12)
H181 H 0.1951 0.2582 0.8360
H182 H 0.1578 0.3038 0.8440
H183 H 0.0929 0.2646 0.8536
B12 B 0.0372(4) 0.2838(2) 0.98824(12)
H184 H 0.0308 0.2669 1.0076
H185 H -0.0009 0.3096 0.9899
H186 H 0.1096 0.2900 0.9865
C171 C 0.3105(4) 0.24815(15) 0.88882(14)
H187 H 0.3297 0.2342 0.8702
C172 C 0.3669(4) 0.24261(18) 0.91778(16)
H188 H 0.4250 0.2249 0.9190
C173 C 0.3413(4) 0.26201(17) 0.94488(14)
H189 H 0.3800 0.2580 0.9652
C174 C 0.2577(3) 0.28750(14) 0.94202(11)
H190 H 0.2380 0.3014 0.9607
C175 C 0.2015(3) 0.29344(12) 0.91250(9)
C176 C 0.1169(3) 0.32355(12) 0.91020(8)
C177 C 0.0237(3) 0.31484(12) 0.91865(8)
C178 C -0.0096(3) 0.27208(12) 0.92572(9)
C179 C -0.0458(3) 0.24719(13) 0.89964(10)
H191 H -0.0456 0.2574 0.8781
C180 C -0.0814(3) 0.20837(14) 0.90477(11)
H192 H -0.1063 0.1913 0.8871
C181 C -0.0802(3) 0.19451(14) 0.93673(12)
H193 H -0.1040 0.1676 0.9412
C182 C -0.0450(3) 0.21969(14) 0.96127(12)
H194 H -0.0453 0.2101 0.9829
C183 C -0.0508(3) 0.35048(12) 0.91730(9)
C184 C -0.1557(3) 0.33654(12) 0.92622(9)
C185 C -0.2280(3) 0.32018(13) 0.90299(10)
H195 H -0.2114 0.3176 0.8813
C186 C -0.3232(3) 0.30756(14) 0.91069(11)
H196 H -0.3712 0.2969 0.8942
C187 C -0.3495(3) 0.31020(16) 0.94176(12)
H197 H -0.4154 0.3019 0.9470
C188 C -0.2776(4) 0.32532(17) 0.96547(11)
H198 H -0.2939 0.3268 0.9873
C189 C -0.1834(3) 0.33812(15) 0.95788(10)
H199 H -0.1356 0.3484 0.9746
C190 C -0.0088(3) 0.38892(13) 0.93712(11)
H200 H -0.0109 0.3839 0.9609
C191 C -0.0904(4) 0.42125(15) 0.92492(15)
H201 H -0.1486 0.4207 0.9385
H202 H -0.0606 0.4494 0.9257
C192 C -0.1258(4) 0.40927(15) 0.89011(13)
H203 H -0.1160 0.4324 0.8751
H204 H -0.1989 0.4012 0.8880
C193 C -0.0578(3) 0.37266(14) 0.88336(10)
H205 H -0.0921 0.3545 0.8661
C194 C 0.0535(3) 0.38522(14) 0.87496(11)
H206 H 0.0670 0.3740 0.8533
C195 C 0.0790(4) 0.43165(15) 0.87713(14)
H207 H 0.1319 0.4387 0.8625
H208 H 0.0171 0.4484 0.8709
C196 C 0.1187(4) 0.43996(14) 0.91238(14)
H209 H 0.0783 0.4619 0.9219
H210 H 0.1916 0.4483 0.9142
C197 C 0.1048(3) 0.39818(12) 0.92921(11)
H211 H 0.1538 0.3954 0.9491
C198 C 0.1343(3) 0.36847(12) 0.90186(9)
C199 C 0.2449(3) 0.37447(12) 0.89374(10)
C200 C 0.2706(3) 0.37553(13) 0.86168(10)
H212 H 0.2178 0.3749 0.8443
C201 C 0.3719(3) 0.37747(13) 0.85489(11)
H213 H 0.3878 0.3784 0.8330
C202 C 0.4496(3) 0.37805(13) 0.87955(11)
H214 H 0.5190 0.3786 0.8748
C203 C 0.4258(3) 0.37789(14) 0.91093(11)
H215 H 0.4790 0.3788 0.9281
C204 C 0.3245(3) 0.37634(13) 0.91787(10)
H216 H 0.3097 0.3766 0.9399
N11 N 0.2273(2) 0.27323(11) 0.88605(8)
N12 N -0.0089(2) 0.25845(10) 0.95614(7)
C205 C 0.5148(6) 0.1632(3) 0.0240(2)
H217 H 0.4976 0.1340 0.0188
H218 H 0.4846 0.1706 0.0442
Cl1 Cl 0.6477(3) 0.17142(13) 0.02978(9)
Cl2 Cl 0.4648(2) 0.19362(9) -0.00580(6)
Cl3? Cl 0.6358(15) 0.1346(7) 0.0302(5)
loop_
_geom_bond_atom_site_label_1
_geom_bond_atom_site_label_2
_geom_bond_site_symmetry_1
_geom_bond_site_symmetry_2
B1 H1 1_555 1_555
H2 B1 1_555 1_555
H3 B1 1_555 1_555
B2 H4 1_555 1_555
H5 B2 1_555 1_555
H6 B2 1_555 1_555
C1 H7 1_555 1_555
C2 C1 1_555 1_555
H8 C2 1_555 1_555
C3 C2 1_555 1_555
H9 C3 1_555 1_555
C4 C3 1_555 1_555
H10 C4 1_555 1_555
C5 C4 1_555 1_555
C6 C5 1_555 1_555
C7 C6 1_555 1_555
C8 C7 1_555 1_555
C9 C8 1_555 1_555
H11 C9 1_555 1_555
C10 C9 1_555 1_555
H12 C10 1_555 1_555
C11 C10 1_555 1_555
H13 C11 1_555 1_555
C12 C11 1_555 1_555
H14 C12 1_555 1_555
C13 C7 1_555 1_555
C14 C13 1_555 1_555
C15 C14 1_555 1_555
H15 C15 1_555 1_555
C16 C15 1_555 1_555
H16 C16 1_555 1_555
C17 C16 1_555 1_555
H17 C17 1_555 1_555
C18 C17 1_555 1_555
H18 C18 1_555 1_555
C19 C14 1_555 1_555
H19 C19 1_555 1_555
C20 C13 1_555 1_555
H20 C20 1_555 1_555
C21 C20 1_555 1_555
H21 C21 1_555 1_555
H22 C21 1_555 1_555
C22 C21 1_555 1_555
H23 C22 1_555 1_555
H24 C22 1_555 1_555
C23 C13 1_555 1_555
H25 C23 1_555 1_555
C24 C23 1_555 1_555
H26 C24 1_555 1_555
C25 C24 1_555 1_555
H27 C25 1_555 1_555
H28 C25 1_555 1_555
C26 C25 1_555 1_555
H29 C26 1_555 1_555
H30 C26 1_555 1_555
C27 C20 1_555 1_555
H31 C27 1_555 1_555
C28 C6 1_555 1_555
C29 C28 1_555 1_555
C30 C29 1_555 1_555
H32 C30 1_555 1_555
C31 C30 1_555 1_555
H33 C31 1_555 1_555
C32 C31 1_555 1_555
H34 C32 1_555 1_555
C33 C32 1_555 1_555
H35 C33 1_555 1_555
C34 C29 1_555 1_555
H36 C34 1_555 1_555
N1 B1 1_555 1_555
N2 B2 1_555 1_555
B3 H37 1_555 1_555
H38 B3 1_555 1_555
H39 B3 1_555 1_555
B4 H40 1_555 1_555
H41 B4 1_555 1_555
H42 B4 1_555 1_555
C35 H43 1_555 1_555
C36 C35 1_555 1_555
H44 C36 1_555 1_555
C37 C36 1_555 1_555
H45 C37 1_555 1_555
C38 C37 1_555 1_555
H46 C38 1_555 1_555
C39 C38 1_555 1_555
C40 C39 1_555 1_555
C41 C40 1_555 1_555
C42 C41 1_555 1_555
C43 C42 1_555 1_555
H47 C43 1_555 1_555
C44 C43 1_555 1_555
H48 C44 1_555 1_555
C45 C44 1_555 1_555
H49 C45 1_555 1_555
C46 C45 1_555 1_555
H50 C46 1_555 1_555
C47 C41 1_555 1_555
C48 C47 1_555 1_555
C49 C48 1_555 1_555
H51 C49 1_555 1_555
C50 C49 1_555 1_555
H52 C50 1_555 1_555
C51 C50 1_555 1_555
H53 C51 1_555 1_555
C52 C51 1_555 1_555
H54 C52 1_555 1_555
C53 C48 1_555 1_555
H55 C53 1_555 1_555
C54 C47 1_555 1_555
H56 C54 1_555 1_555
C55 C54 1_555 1_555
H57 C55 1_555 1_555
H58 C55 1_555 1_555
C56 C55 1_555 1_555
H59 C56 1_555 1_555
H60 C56 1_555 1_555
C57 C47 1_555 1_555
H61 C57 1_555 1_555
C58 C57 1_555 1_555
H62 C58 1_555 1_555
C59 C58 1_555 1_555
H63 C59 1_555 1_555
H64 C59 1_555 1_555
C60 C59 1_555 1_555
H65 C60 1_555 1_555
H66 C60 1_555 1_555
C61 C54 1_555 1_555
H67 C61 1_555 1_555
C62 C40 1_555 1_555
C63 C62 1_555 1_555
C64 C63 1_555 1_555
H68 C64 1_555 1_555
C65 C64 1_555 1_555
H69 C65 1_555 1_555
C66 C65 1_555 1_555
H70 C66 1_555 1_555
C67 C66 1_555 1_555
H71 C67 1_555 1_555
C68 C63 1_555 1_555
H72 C68 1_555 1_555
N3 B3 1_555 1_555
N4 B4 1_555 1_555
B5 H73 1_555 1_555
H74 B5 1_555 1_555
H75 B5 1_555 1_555
B6 H76 1_555 1_555
H77 B6 1_555 1_555
H78 B6 1_555 1_555
C69 H79 1_555 1_555
C70 C69 1_555 1_555
H80 C70 1_555 1_555
C71 C70 1_555 1_555
H81 C71 1_555 1_555
C72 C71 1_555 1_555
H82 C72 1_555 1_555
C73 C72 1_555 1_555
C74 C73 1_555 1_555
C75 C74 1_555 1_555
C76 C75 1_555 1_555
C77 C76 1_555 1_555
H83 C77 1_555 1_555
C78 C77 1_555 1_555
H84 C78 1_555 1_555
C79 C78 1_555 1_555
H85 C79 1_555 1_555
C80 C79 1_555 1_555
H86 C80 1_555 1_555
C81 C75 1_555 1_555
C82 C81 1_555 1_555
C83 C82 1_555 1_555
H87 C83 1_555 1_555
C84 C83 1_555 1_555
H88 C84 1_555 1_555
C85 C84 1_555 1_555
H89 C85 1_555 1_555
C86 C85 1_555 1_555
H90 C86 1_555 1_555
C87 C82 1_555 1_555
H91 C87 1_555 1_555
C88 C81 1_555 1_555
H92 C88 1_555 1_555
C89 C88 1_555 1_555
H93 C89 1_555 1_555
H94 C89 1_555 1_555
C90 C89 1_555 1_555
H95 C90 1_555 1_555
H96 C90 1_555 1_555
C91 C81 1_555 1_555
H97 C91 1_555 1_555
C92 C91 1_555 1_555
H98 C92 1_555 1_555
C93 C92 1_555 1_555
H99 C93 1_555 1_555
H100 C93 1_555 1_555
C94 C93 1_555 1_555
H101 C94 1_555 1_555
H102 C94 1_555 1_555
C95 C88 1_555 1_555
H103 C95 1_555 1_555
C96 C74 1_555 1_555
C97 C96 1_555 1_555
C98 C97 1_555 1_555
H104 C98 1_555 1_555
C99 C98 1_555 1_555
H105 C99 1_555 1_555
C100 C99 1_555 1_555
H106 C100 1_555 1_555
C101 C100 1_555 1_555
H107 C101 1_555 1_555
C102 C97 1_555 1_555
H108 C102 1_555 1_555
N5 B5 1_555 1_555
N6 B6 1_555 1_555
B7 H109 1_555 1_555
H110 B7 1_555 1_555
H111 B7 1_555 1_555
B8 H112 1_555 1_555
H113 B8 1_555 1_555
H114 B8 1_555 1_555
C103 H115 1_555 1_555
C104 C103 1_555 1_555
H116 C104 1_555 1_555
C105 C104 1_555 1_555
H117 C105 1_555 1_555
C106 C105 1_555 1_555
H118 C106 1_555 1_555
C107 C106 1_555 1_555
C108 C107 1_555 1_555
C109 C108 1_555 1_555
C110 C109 1_555 1_555
C111 C110 1_555 1_555
H119 C111 1_555 1_555
C112 C111 1_555 1_555
H120 C112 1_555 1_555
C113 C112 1_555 1_555
H121 C113 1_555 1_555
C114 C113 1_555 1_555
H122 C114 1_555 1_555
C115 C109 1_555 1_555
C116 C115 1_555 1_555
C117 C116 1_555 1_555
H123 C117 1_555 1_555
C118 C117 1_555 1_555
H124 C118 1_555 1_555
C119 C118 1_555 1_555
H125 C119 1_555 1_555
C120 C119 1_555 1_555
H126 C120 1_555 1_555
C121 C116 1_555 1_555
H127 C121 1_555 1_555
C122 C115 1_555 1_555
H128 C122 1_555 1_555
C123 C122 1_555 1_555
H129 C123 1_555 1_555
H130 C123 1_555 1_555
C124 C123 1_555 1_555
H131 C124 1_555 1_555
H132 C124 1_555 1_555
C125 C115 1_555 1_555
H133 C125 1_555 1_555
C126 C125 1_555 1_555
H134 C126 1_555 1_555
C127 C126 1_555 1_555
H135 C127 1_555 1_555
H136 C127 1_555 1_555
C128 C127 1_555 1_555
H137 C128 1_555 1_555
H138 C128 1_555 1_555
C129 C122 1_555 1_555
H139 C129 1_555 1_555
C130 C108 1_555 1_555
C131 C130 1_555 1_555
C132 C131 1_555 1_555
H140 C132 1_555 1_555
C133 C132 1_555 1_555
H141 C133 1_555 1_555
C134 C133 1_555 1_555
H142 C134 1_555 1_555
C135 C134 1_555 1_555
H143 C135 1_555 1_555
C136 C131 1_555 1_555
H144 C136 1_555 1_555
N7 B7 1_555 1_555
N8 B8 1_555 1_555
B9 H145 1_555 1_555
H146 B9 1_555 1_555
H147 B9 1_555 1_555
B10 H148 1_555 1_555
H149 B10 1_555 1_555
H150 B10 1_555 1_555
C137 H151 1_555 1_555
C138 C137 1_555 1_555
H152 C138 1_555 1_555
C139 C138 1_555 1_555
H153 C139 1_555 1_555
C140 C139 1_555 1_555
H154 C140 1_555 1_555
C141 C140 1_555 1_555
C142 C141 1_555 1_555
C143 C142 1_555 1_555
C144 C143 1_555 1_555
C145 C144 1_555 1_555
H155 C145 1_555 1_555
C146 C145 1_555 1_555
H156 C146 1_555 1_555
C147 C146 1_555 1_555
H157 C147 1_555 1_555
C148 C147 1_555 1_555
H158 C148 1_555 1_555
C149 C143 1_555 1_555
C150 C149 1_555 1_555
C151 C150 1_555 1_555
H159 C151 1_555 1_555
C152 C151 1_555 1_555
H160 C152 1_555 1_555
C153 C152 1_555 1_555
H161 C153 1_555 1_555
C154 C153 1_555 1_555
H162 C154 1_555 1_555
C155 C150 1_555 1_555
H163 C155 1_555 1_555
C156 C149 1_555 1_555
H164 C156 1_555 1_555
C157 C156 1_555 1_555
H165 C157 1_555 1_555
H166 C157 1_555 1_555
C158 C157 1_555 1_555
H167 C158 1_555 1_555
H168 C158 1_555 1_555
C159 C149 1_555 1_555
H169 C159 1_555 1_555
C160 C159 1_555 1_555
H170 C160 1_555 1_555
C161 C160 1_555 1_555
H171 C161 1_555 1_555
H172 C161 1_555 1_555
C162 C161 1_555 1_555
H173 C162 1_555 1_555
H174 C162 1_555 1_555
C163 C156 1_555 1_555
H175 C163 1_555 1_555
C164 C142 1_555 1_555
C165 C164 1_555 1_555
C166 C165 1_555 1_555
H176 C166 1_555 1_555
C167 C166 1_555 1_555
H177 C167 1_555 1_555
C168 C167 1_555 1_555
H178 C168 1_555 1_555
C169 C168 1_555 1_555
H179 C169 1_555 1_555
C170 C165 1_555 1_555
H180 C170 1_555 1_555
N9 B9 1_555 1_555
N10 B10 1_555 1_555
B11 H181 1_555 1_555
H182 B11 1_555 1_555
H183 B11 1_555 1_555
B12 H184 1_555 1_555
H185 B12 1_555 1_555
H186 B12 1_555 1_555
C171 H187 1_555 1_555
C172 C171 1_555 1_555
H188 C172 1_555 1_555
C173 C172 1_555 1_555
H189 C173 1_555 1_555
C174 C173 1_555 1_555
H190 C174 1_555 1_555
C175 C174 1_555 1_555
C176 C175 1_555 1_555
C177 C176 1_555 1_555
C178 C177 1_555 1_555
C179 C178 1_555 1_555
H191 C179 1_555 1_555
C180 C179 1_555 1_555
H192 C180 1_555 1_555
C181 C180 1_555 1_555
H193 C181 1_555 1_555
C182 C181 1_555 1_555
H194 C182 1_555 1_555
C183 C177 1_555 1_555
C184 C183 1_555 1_555
C185 C184 1_555 1_555
H195 C185 1_555 1_555
C186 C185 1_555 1_555
H196 C186 1_555 1_555
C187 C186 1_555 1_555
H197 C187 1_555 1_555
C188 C187 1_555 1_555
H198 C188 1_555 1_555
C189 C184 1_555 1_555
H199 C189 1_555 1_555
C190 C183 1_555 1_555
H200 C190 1_555 1_555
C191 C190 1_555 1_555
H201 C191 1_555 1_555
H202 C191 1_555 1_555
C192 C191 1_555 1_555
H203 C192 1_555 1_555
H204 C192 1_555 1_555
C193 C183 1_555 1_555
H205 C193 1_555 1_555
C194 C193 1_555 1_555
H206 C194 1_555 1_555
C195 C194 1_555 1_555
H207 C195 1_555 1_555
H208 C195 1_555 1_555
C196 C195 1_555 1_555
H209 C196 1_555 1_555
H210 C196 1_555 1_555
C197 C190 1_555 1_555
H211 C197 1_555 1_555
C198 C176 1_555 1_555
C199 C198 1_555 1_555
C200 C199 1_555 1_555
H212 C200 1_555 1_555
C201 C200 1_555 1_555
H213 C201 1_555 1_555
C202 C201 1_555 1_555
H214 C202 1_555 1_555
C203 C202 1_555 1_555
H215 C203 1_555 1_555
C204 C199 1_555 1_555
H216 C204 1_555 1_555
N11 B11 1_555 1_555
N12 B12 1_555 1_555
C205 H217 1_555 1_555
H218 C205 1_555 1_555
Cl1 C205 1_555 1_555
Cl2 C205 1_555 1_555
C1 N1 1_555 1_555
C5 N1 1_555 1_555
C8 N2 1_555 1_555
C12 N2 1_555 1_555
C18 C19 1_555 1_555
C22 C23 1_555 1_555
C24 C28 1_555 1_555
C26 C27 1_555 1_555
C27 C28 1_555 1_555
C33 C34 1_555 1_555
C35 N3 1_555 1_555
C39 N3 1_555 1_555
C42 N4 1_555 1_555
C46 N4 1_555 1_555
C52 C53 1_555 1_555
C56 C57 1_555 1_555
C58 C62 1_555 1_555
C60 C61 1_555 1_555
C61 C62 1_555 1_555
C67 C68 1_555 1_555
C69 N5 1_555 1_555
C73 N5 1_555 1_555
C76 N6 1_555 1_555
C80 N6 1_555 1_555
C86 C87 1_555 1_555
C90 C91 1_555 1_555
C92 C96 1_555 1_555
C94 C95 1_555 1_555
C95 C96 1_555 1_555
C101 C102 1_555 1_555
C103 N7 1_555 1_555
C107 N7 1_555 1_555
C110 N8 1_555 1_555
C114 N8 1_555 1_555
C120 C121 1_555 1_555
C124 C125 1_555 1_555
C126 C130 1_555 1_555
C128 C129 1_555 1_555
C129 C130 1_555 1_555
C135 C136 1_555 1_555
C137 N9 1_555 1_555
C141 N9 1_555 1_555
C144 N10 1_555 1_555
C148 N10 1_555 1_555
C154 C155 1_555 1_555
C158 C159 1_555 1_555
C160 C164 1_555 1_555
C162 C163 1_555 1_555
C163 C164 1_555 1_555
C169 C170 1_555 1_555
C171 N11 1_555 1_555
C175 N11 1_555 1_555
C178 N12 1_555 1_555
C182 N12 1_555 1_555
C188 C189 1_555 1_555
C192 C193 1_555 1_555
C194 C198 1_555 1_555
C196 C197 1_555 1_555
C197 C198 1_555 1_555
C203 C204 1_555 1_555

#END
