
#######################################################################
#
#                 Cambridge Crystallographic Data Centre
#                                CCDC 
#
#######################################################################
#
# If this CIF has been generated from an entry in the Cambridge 
# Structural Database, then it will include bibliographic, chemical, 
# crystal, experimental, refinement or atomic coordinate data resulting 
# from the CCDC's data processing and validation procedures.
#
#######################################################################

data_JOZFEL
_chemical_formula_moiety         'C20 H23 N3 S1'
_chemical_name_systematic        
4-(5-(1-(Pyrrolidin-1-yl)cyclohexyl)-1,3-thiazol-2-yl)benzonitrile
_symmetry_cell_setting           monoclinic
_symmetry_space_group_name_H-M   'P 21/c'
_symmetry_Int_Tables_number      14
_space_group_name_Hall           '-P 2ybc'
loop_
_symmetry_equiv_pos_site_id
_symmetry_equiv_pos_as_xyz
1 x,y,z
2 -x,1/2+y,1/2-z
3 -x,-y,-z
4 x,1/2-y,1/2+z
_cell_length_a                   18.3769(5)
_cell_length_b                   6.2311(2)
_cell_length_c                   16.0333(4)
_cell_angle_alpha                90
_cell_angle_beta                 108.4250(10)
_cell_angle_gamma                90
_cell_volume                     1741.83
_exptl_crystal_colour            yellow
_exptl_crystal_description       plate
_cell_formula_units_Z            4
loop_
_atom_site_label
_atom_site_type_symbol
_atom_site_fract_x
_atom_site_fract_y
_atom_site_fract_z
S1 S 0.304925(19) 0.64288(5) 0.34448(2)
N1 N 0.70207(8) 0.0965(3) 0.38169(9)
N2 N 0.40634(6) 0.93098(18) 0.40816(8)
N3 N 0.15290(6) 1.00194(15) 0.25531(7)
C1 C 0.58741(8) 0.3436(2) 0.37627(9)
C2 C 0.59992(9) 0.5468(3) 0.41554(10)
H1 H 0.6505(10) 0.598(3) 0.4428(11)
C3 C 0.53835(8) 0.6718(2) 0.41653(10)
H2 H 0.5465(9) 0.798(3) 0.4451(11)
C4 C 0.46340(8) 0.5982(2) 0.37700(9)
C5 C 0.45173(9) 0.3986(2) 0.33619(10)
H3 H 0.4013(11) 0.347(3) 0.3054(12)
C6 C 0.51334(9) 0.2702(2) 0.33639(10)
H4 H 0.5040(9) 0.136(2) 0.3085(11)
C7 C 0.65166(9) 0.2068(3) 0.37878(10)
C8 C 0.39855(7) 0.7331(2) 0.37960(9)
C9 C 0.33583(8) 1.0166(2) 0.40175(10)
H5 H 0.3347(9) 1.165(3) 0.4200(11)
C10 C 0.27337(7) 0.88870(19) 0.36869(8)
C11 C 0.18880(7) 0.94363(19) 0.34839(8)
C12 C 0.18115(8) 1.1347(2) 0.40617(9)
H6 H 0.2070(8) 1.096(2) 0.4662(10)
H7 H 0.2050(8) 1.263(2) 0.3915(9)
C13 C 0.09758(8) 1.1900(2) 0.39362(9)
H8 H 0.0720(8) 1.233(2) 0.3324(10)
H9 H 0.0953(8) 1.308(2) 0.4327(10)
C14 C 0.05500(9) 0.9976(2) 0.41401(10)
H10 H 0.0764(9) 0.958(3) 0.4779(11)
H11 H 0.0012(10) 1.034(2) 0.4067(10)
C15 C 0.06188(8) 0.8049(2) 0.35879(10)
H12 H 0.0353(9) 0.833(2) 0.2957(11)
H13 H 0.0382(9) 0.682(3) 0.3735(10)
C16 C 0.14562(7) 0.75249(19) 0.37121(9)
H14 H 0.1493(8) 0.628(2) 0.3339(9)
H15 H 0.1734(8) 0.712(2) 0.4348(10)
C17 C 0.18549(9) 1.1869(2) 0.22312(9)
H16 H 0.2416(12) 1.183(3) 0.2433(12)
H17 H 0.1670(10) 1.320(3) 0.2433(12)
C18 C 0.1460(3) 1.1829(5) 0.12396(17)
H18 H 0.0979 1.2947 0.1053
H19 H 0.1861 1.2263 0.0892
C19 C 0.11826(10) 0.9547(2) 0.10287(10)
H20 H 0.1318(11) 0.874(3) 0.0581(13)
H21 H 0.0594(13) 0.972(3) 0.0829(14)
C20 C 0.14164(9) 0.8327(2) 0.18901(9)
H22 H 0.1896(9) 0.751(3) 0.1956(10)
H23 H 0.1019(9) 0.731(3) 0.1935(10)
C21? C 0.1741(4) 1.1474(7) 0.1267(2)
H24? H 0.2283 1.1085 0.1161
H25? H 0.1493 1.2878 0.0874
loop_
_geom_bond_atom_site_label_1
_geom_bond_atom_site_label_2
_geom_bond_site_symmetry_1
_geom_bond_site_symmetry_2
S1 C8 1_555 1_555
N1 C7 1_555 1_555
N2 C8 1_555 1_555
N3 C11 1_555 1_555
C1 C2 1_555 1_555
C2 H1 1_555 1_555
C3 C2 1_555 1_555
H2 C3 1_555 1_555
C4 C3 1_555 1_555
C5 C4 1_555 1_555
H3 C5 1_555 1_555
C6 C1 1_555 1_555
H4 C6 1_555 1_555
C7 C1 1_555 1_555
C8 C4 1_555 1_555
C9 N2 1_555 1_555
H5 C9 1_555 1_555
C10 S1 1_555 1_555
C11 C10 1_555 1_555
C12 C11 1_555 1_555
H6 C12 1_555 1_555
H7 C12 1_555 1_555
C13 C12 1_555 1_555
H8 C13 1_555 1_555
H9 C13 1_555 1_555
C14 C13 1_555 1_555
H10 C14 1_555 1_555
H11 C14 1_555 1_555
C15 C14 1_555 1_555
H12 C15 1_555 1_555
H13 C15 1_555 1_555
C16 C11 1_555 1_555
H14 C16 1_555 1_555
H15 C16 1_555 1_555
C17 N3 1_555 1_555
H16 C17 1_555 1_555
H17 C17 1_555 1_555
C18 C17 1_555 1_555
H18 C18 1_555 1_555
H19 C18 1_555 1_555
C19 C18 1_555 1_555
H20 C19 1_555 1_555
H21 C19 1_555 1_555
C20 N3 1_555 1_555
H22 C20 1_555 1_555
H23 C20 1_555 1_555
C5 C6 1_555 1_555
C9 C10 1_555 1_555
C15 C16 1_555 1_555
C19 C20 1_555 1_555

#END
