
#######################################################################
#
#                 Cambridge Crystallographic Data Centre
#                                CCDC 
#
#######################################################################
#
# If this CIF has been generated from an entry in the Cambridge 
# Structural Database, then it will include bibliographic, chemical, 
# crystal, experimental, refinement or atomic coordinate data resulting 
# from the CCDC's data processing and validation procedures.
#
#######################################################################

data_JOZFIP
_chemical_formula_moiety         'C21 H25 N3 S1'
_chemical_name_systematic        
5-(5-(1-(Pyrrolidin-1-yl)cyclohexyl)-1,3-thiazol-2-yl)-1H-indole
_symmetry_cell_setting           monoclinic
_symmetry_space_group_name_H-M   'P 21/c'
_symmetry_Int_Tables_number      14
_space_group_name_Hall           '-P 2ybc'
loop_
_symmetry_equiv_pos_site_id
_symmetry_equiv_pos_as_xyz
1 x,y,z
2 -x,1/2+y,1/2-z
3 -x,-y,-z
4 x,1/2-y,1/2+z
_cell_length_a                   11.3320(4)
_cell_length_b                   10.0833(4)
_cell_length_c                   15.5931(5)
_cell_angle_alpha                90
_cell_angle_beta                 92.0510(10)
_cell_angle_gamma                90
_cell_volume                     1780.59
_exptl_crystal_colour            yellow
_exptl_crystal_description       prism
_cell_formula_units_Z            4
_exptl_crystal_recrystallization_method cyclohexane/dichloromethane
loop_
_atom_site_label
_atom_site_type_symbol
_atom_site_fract_x
_atom_site_fract_y
_atom_site_fract_z
S1 S 0.699109(19) 0.61562(2) 0.603208(14)
C1 C 0.72820(12) 1.08961(12) 0.61162(8)
C2 C 0.59273(9) 0.66255(12) 0.31009(7)
C3 C 0.53979(9) 0.65611(11) 0.39854(7)
C4 C 0.57288(8) 0.77779(10) 0.45233(6)
C5 C 0.70693(8) 0.80005(9) 0.46340(6)
C6 C 0.76492(8) 0.69006(9) 0.51692(5)
C7 C 0.82517(8) 0.52151(9) 0.62474(5)
C8 C 0.83498(8) 0.42765(9) 0.69636(5)
C9 C 0.73769(8) 0.39428(9) 0.74320(6)
C10 C 0.75017(8) 0.30238(9) 0.81009(6)
C11 C 0.67128(9) 0.24616(11) 0.86957(6)
C12 C 0.73578(9) 0.16039(11) 0.91979(6)
C13 C 0.85463(12) 1.08057(14) 0.58134(10)
C14 C 0.85032(9) 0.97796(11) 0.50900(8)
N1 N 0.72661(7) 0.93171(8) 0.50260(5)
C15 C 0.67547(11) 0.95574(11) 0.58593(7)
C16 C 0.94654(8) 0.37028(10) 0.71676(6)
C17 C 0.96109(8) 0.27898(10) 0.78202(6)
C18 C 0.86223(8) 0.24515(9) 0.82796(6)
N2 N 0.85102(7) 0.15900(9) 0.89521(5)
N3 N 0.90955(7) 0.54457(8) 0.57139(5)
C19 C 0.87527(8) 0.63834(9) 0.51126(6)
C20 C 0.72623(9) 0.68127(11) 0.31908(6)
C21 C 0.75870(8) 0.80285(10) 0.37327(6)
H1 H 0.5609(13) 0.7401(16) 0.2769(10)
H2 H 0.9292(12) 0.6625(14) 0.4682(8)
H3 H 0.6570(11) 0.4302(13) 0.7302(8)
H4 H 0.4521(12) 0.6495(13) 0.3946(8)
H5 H 0.8465(11) 0.8153(13) 0.3771(8)
H6 H 0.5905(12) 0.9567(14) 0.5805(9)
H7 H 0.7624(11) 0.5994(14) 0.3448(9)
H8 H 0.5676(11) 0.5768(13) 0.4256(8)
H9 H 0.5369(11) 0.7673(13) 0.5092(8)
H10 H 0.7275(12) 0.8844(13) 0.3463(9)
H11 H 0.5860(12) 0.2640(14) 0.8746(8)
H12 H 0.5424(12) 0.8596(13) 0.4256(8)
H13 H 0.7644(13) 0.6973(15) 0.2597(9)
H14 H 0.6980(14) 0.8861(15) 0.6282(10)
H15 H 0.7118(12) 0.1032(13) 0.9697(8)
H16 H 0.9057(13) 0.1051(14) 0.9156(10)
H17 H 0.5760(12) 0.5815(15) 0.2787(9)
H18 H 1.0416(12) 0.2384(14) 0.7939(9)
H19 H 1.0096(12) 0.3967(14) 0.6863(9)
H20 H 0.7238(14) 1.1038(15) 0.6699(11)
H21 H 0.6874(12) 1.1559(15) 0.5853(9)
H22 H 0.8735(13) 1.0164(18) 0.4538(10)
H23 H 0.9063(12) 0.9057(14) 0.5224(9)
H24 H 0.8834(15) 1.1655(19) 0.5650(11)
H25 H 0.9077(14) 1.0509(18) 0.6294(11)
loop_
_geom_bond_atom_site_label_1
_geom_bond_atom_site_label_2
_geom_bond_site_symmetry_1
_geom_bond_site_symmetry_2
S1 C6 1_555 1_555
C1 C13 1_555 1_555
C2 C3 1_555 1_555
C3 C4 1_555 1_555
C4 C5 1_555 1_555
C5 C6 1_555 1_555
C6 C19 1_555 1_555
C7 S1 1_555 1_555
C8 C7 1_555 1_555
C9 C8 1_555 1_555
C10 C9 1_555 1_555
C11 C10 1_555 1_555
C12 C11 1_555 1_555
C13 C14 1_555 1_555
C14 N1 1_555 1_555
N1 C5 1_555 1_555
C15 C1 1_555 1_555
C16 C8 1_555 1_555
C17 C16 1_555 1_555
C18 C10 1_555 1_555
N2 C12 1_555 1_555
N3 C7 1_555 1_555
C19 N3 1_555 1_555
C20 C2 1_555 1_555
C21 C5 1_555 1_555
H1 C2 1_555 1_555
H2 C19 1_555 1_555
H3 C9 1_555 1_555
H4 C3 1_555 1_555
H5 C21 1_555 1_555
H6 C15 1_555 1_555
H7 C20 1_555 1_555
H8 C3 1_555 1_555
H9 C4 1_555 1_555
H10 C21 1_555 1_555
H11 C11 1_555 1_555
H12 C4 1_555 1_555
H13 C20 1_555 1_555
H14 C15 1_555 1_555
H15 C12 1_555 1_555
H16 N2 1_555 1_555
H17 C2 1_555 1_555
H18 C17 1_555 1_555
H19 C16 1_555 1_555
H20 C1 1_555 1_555
H21 C1 1_555 1_555
H22 C14 1_555 1_555
H23 C14 1_555 1_555
H24 C13 1_555 1_555
H25 C13 1_555 1_555
N1 C15 1_555 1_555
C17 C18 1_555 1_555
C18 N2 1_555 1_555
C20 C21 1_555 1_555

#END
