
#######################################################################
#
#                 Cambridge Crystallographic Data Centre
#                                CCDC 
#
#######################################################################
#
# If this CIF has been generated from an entry in the Cambridge 
# Structural Database, then it will include bibliographic, chemical, 
# crystal, experimental, refinement or atomic coordinate data resulting 
# from the CCDC's data processing and validation procedures.
#
#######################################################################

data_JOZMOC
_chemical_formula_moiety         'C22 H22 Br1 N1 O2'
_chemical_name_systematic        
5-acetyl-1-(4-bromophenyl)-3,6-dimethyl-3-(4-methylphenyl)-3,4-dihydropyridin-2(1H)-one
_symmetry_cell_setting           monoclinic
_symmetry_space_group_name_H-M   'P 21/c'
_symmetry_Int_Tables_number      14
_space_group_name_Hall           '-P 2ybc'
loop_
_symmetry_equiv_pos_site_id
_symmetry_equiv_pos_as_xyz
1 x,y,z
2 -x,1/2+y,1/2-z
3 -x,-y,-z
4 x,1/2-y,1/2+z
_cell_length_a                   25.00825(19)
_cell_length_b                   9.1190(6)
_cell_length_c                   17.54725(16)
_cell_angle_alpha                90
_cell_angle_beta                 110.5111(9)
_cell_angle_gamma                90
_cell_volume                     3747.97
_exptl_crystal_colour            colorless
_exptl_crystal_description       prism
_cell_formula_units_Z            8
loop_
_atom_site_label
_atom_site_type_symbol
_atom_site_fract_x
_atom_site_fract_y
_atom_site_fract_z
Br1 Br 0.25221(2) 0.19179(3) 0.02804(2)
O1 O 0.52650(8) 0.2339(2) 0.22756(12)
O2 O 0.61140(9) 0.8424(2) 0.15898(15)
N1 N 0.49468(8) 0.4333(2) 0.14728(13)
C1 C 0.53696(10) 0.3529(3) 0.20450(14)
C2 C 0.59656(10) 0.4215(3) 0.23442(14)
C3 C 0.59038(10) 0.5869(3) 0.24059(14)
H1 H 0.5772 0.6086 0.2864
H2 H 0.6283 0.6334 0.2528
C4 C 0.54911(10) 0.6532(3) 0.16398(14)
C5 C 0.50306(10) 0.5760(3) 0.12022(14)
C6 C 0.63054(11) 0.3618(3) 0.31986(15)
H3 H 0.6108 0.3875 0.3574
H4 H 0.6689 0.4050 0.3392
H5 H 0.6336 0.2549 0.3174
C7 C 0.62656(9) 0.3754(3) 0.17535(14)
C8 C 0.63098(10) 0.2266(3) 0.15952(16)
H6 H 0.6127 0.1560 0.1819
C9 C 0.66162(11) 0.1804(3) 0.11153(17)
H7 H 0.6638 0.0787 0.1014
C10 C 0.68905(10) 0.2800(3) 0.07803(16)
C11 C 0.68423(10) 0.4284(3) 0.09323(16)
H8 H 0.7025 0.4988 0.0708
C12 C 0.65310(10) 0.4753(3) 0.14065(15)
H9 H 0.6500 0.5773 0.1494
C13 C 0.72361(13) 0.2294(4) 0.02765(19)
H10 H 0.7628 0.2086 0.0635
H11 H 0.7240 0.3066 -0.0110
H12 H 0.7065 0.1404 -0.0022
C14 C 0.56198(11) 0.8049(3) 0.14415(16)
C15 C 0.51516(13) 0.9173(3) 0.1139(2)
H13 H 0.5241 1.0019 0.1506
H14 H 0.4789 0.8740 0.1122
H15 H 0.5120 0.9492 0.0591
C16 C 0.45897(11) 0.6198(3) 0.04016(16)
H16 H 0.4489 0.5345 0.0039
H17 H 0.4745 0.6972 0.0152
H18 H 0.4248 0.6562 0.0493
C17 C 0.43760(9) 0.3742(3) 0.11941(15)
C18 C 0.39783(10) 0.4322(3) 0.14905(16)
H19 H 0.4084 0.5089 0.1881
C19 C 0.34199(11) 0.3784(3) 0.12171(17)
H20 H 0.3143 0.4182 0.1417
C20 C 0.32765(10) 0.2665(3) 0.06509(17)
C21 C 0.36722(12) 0.2067(3) 0.03493(17)
H21 H 0.3566 0.1300 -0.0041
C22 C 0.42267(11) 0.2610(3) 0.06271(17)
H22 H 0.4504 0.2208 0.0430
Br2 Br 0.25221(2) 0.27200(6) 0.28048(2)
O3 O -0.02754(8) 0.2580(2) 0.20444(12)
O4 O -0.11439(9) 0.8587(2) 0.04088(16)
N2 N 0.00262(8) 0.4523(2) 0.15074(13)
C23 C -0.03903(10) 0.3742(3) 0.16784(14)
C24 C -0.09900(10) 0.4401(3) 0.13654(14)
C25 C -0.09379(10) 0.6062(3) 0.14592(15)
H23 H -0.1318 0.6509 0.1189
H24 H -0.0812 0.6313 0.2045
C26 C -0.05232(10) 0.6706(3) 0.11015(14)
C27 C -0.00619(10) 0.5935(2) 0.11315(14)
C28 C -0.13305(11) 0.3831(3) 0.18829(16)
H25 H -0.1130 0.4088 0.2455
H26 H -0.1368 0.2763 0.1829
H27 H -0.1711 0.4278 0.1695
C29 C -0.12851(9) 0.3885(3) 0.04820(14)
C30 C -0.15691(10) 0.4844(3) -0.01445(15)
H28 H -0.1560 0.5869 -0.0043
C31 C -0.18682(11) 0.4305(3) -0.09239(16)
H29 H -0.2064 0.4974 -0.1344
C32 C -0.18861(10) 0.2824(3) -0.10992(16)
C33 C -0.15971(11) 0.1868(3) -0.04741(16)
H30 H -0.1602 0.0845 -0.0580
C34 C -0.13019(10) 0.2389(3) 0.03037(16)
H31 H -0.1108 0.1716 0.0722
C35 C -0.22056(13) 0.2269(4) -0.19487(18)
H32 H -0.2255 0.1204 -0.1933
H33 H -0.1988 0.2499 -0.2302
H34 H -0.2581 0.2742 -0.2162
C36 C -0.06506(11) 0.8218(3) 0.07700(17)
C37 C -0.01838(12) 0.9352(3) 0.0955(2)
H35 H -0.0188 0.9959 0.1414
H36 H -0.0246 0.9973 0.0476
H37 H 0.0187 0.8861 0.1096
C38 C 0.03799(11) 0.6363(3) 0.07713(17)
H38 H 0.0468 0.5517 0.0491
H39 H 0.0728 0.6687 0.1206
H40 H 0.0232 0.7164 0.0382
C39 C 0.06069(9) 0.3987(3) 0.18337(15)
C40 C 0.07909(11) 0.2867(3) 0.14558(17)
H41 H 0.0530 0.2386 0.0995
C41 C 0.13623(12) 0.2452(3) 0.17558(18)
H42 H 0.1496 0.1689 0.1500
C42 C 0.17332(11) 0.3159(3) 0.24289(18)
C43 C 0.15501(11) 0.4245(3) 0.28223(17)
H43 H 0.1810 0.4702 0.3293
C44 C 0.09796(11) 0.4665(3) 0.25215(16)
H44 H 0.0846 0.5413 0.2786
loop_
_geom_bond_atom_site_label_1
_geom_bond_atom_site_label_2
_geom_bond_site_symmetry_1
_geom_bond_site_symmetry_2
Br1 C20 1_555 1_555
O1 C1 1_555 1_555
O2 C14 1_555 1_555
N1 C1 1_555 1_555
C1 C2 1_555 1_555
C2 C3 1_555 1_555
C3 H1 1_555 1_555
H2 C3 1_555 1_555
C4 C3 1_555 1_555
C5 N1 1_555 1_555
C6 C2 1_555 1_555
H3 C6 1_555 1_555
H4 C6 1_555 1_555
H5 C6 1_555 1_555
C7 C2 1_555 1_555
C8 C7 1_555 1_555
H6 C8 1_555 1_555
C9 C8 1_555 1_555
H7 C9 1_555 1_555
C10 C9 1_555 1_555
C11 C10 1_555 1_555
H8 C11 1_555 1_555
C12 C7 1_555 1_555
H9 C12 1_555 1_555
C13 C10 1_555 1_555
H10 C13 1_555 1_555
H11 C13 1_555 1_555
H12 C13 1_555 1_555
C14 C4 1_555 1_555
C15 C14 1_555 1_555
H13 C15 1_555 1_555
H14 C15 1_555 1_555
H15 C15 1_555 1_555
C16 C5 1_555 1_555
H16 C16 1_555 1_555
H17 C16 1_555 1_555
H18 C16 1_555 1_555
C17 N1 1_555 1_555
C18 C17 1_555 1_555
H19 C18 1_555 1_555
C19 C18 1_555 1_555
H20 C19 1_555 1_555
C20 C19 1_555 1_555
C21 C20 1_555 1_555
H21 C21 1_555 1_555
C22 C17 1_555 1_555
H22 C22 1_555 1_555
Br2 C42 1_555 1_555
O3 C23 1_555 1_555
O4 C36 1_555 1_555
N2 C23 1_555 1_555
C23 C24 1_555 1_555
C24 C25 1_555 1_555
C25 H23 1_555 1_555
H24 C25 1_555 1_555
C26 C25 1_555 1_555
C27 N2 1_555 1_555
C28 C24 1_555 1_555
H25 C28 1_555 1_555
H26 C28 1_555 1_555
H27 C28 1_555 1_555
C29 C24 1_555 1_555
C30 C29 1_555 1_555
H28 C30 1_555 1_555
C31 C30 1_555 1_555
H29 C31 1_555 1_555
C32 C31 1_555 1_555
C33 C32 1_555 1_555
H30 C33 1_555 1_555
C34 C29 1_555 1_555
H31 C34 1_555 1_555
C35 C32 1_555 1_555
H32 C35 1_555 1_555
H33 C35 1_555 1_555
H34 C35 1_555 1_555
C36 C26 1_555 1_555
C37 C36 1_555 1_555
H35 C37 1_555 1_555
H36 C37 1_555 1_555
H37 C37 1_555 1_555
C38 C27 1_555 1_555
H38 C38 1_555 1_555
H39 C38 1_555 1_555
H40 C38 1_555 1_555
C39 N2 1_555 1_555
C40 C39 1_555 1_555
H41 C40 1_555 1_555
C41 C40 1_555 1_555
H42 C41 1_555 1_555
C42 C41 1_555 1_555
C43 C42 1_555 1_555
H43 C43 1_555 1_555
C44 C39 1_555 1_555
H44 C44 1_555 1_555
C4 C5 1_555 1_555
C11 C12 1_555 1_555
C21 C22 1_555 1_555
C26 C27 1_555 1_555
C33 C34 1_555 1_555
C43 C44 1_555 1_555

#END
