
#######################################################################
#
#                 Cambridge Crystallographic Data Centre
#                                CCDC 
#
#######################################################################
#
# If this CIF has been generated from an entry in the Cambridge 
# Structural Database, then it will include bibliographic, chemical, 
# crystal, experimental, refinement or atomic coordinate data resulting 
# from the CCDC's data processing and validation procedures.
#
#######################################################################

data_JOZMUI
_chemical_formula_moiety         'C26 H23 N1 O2,C1 H1 Cl3'
_chemical_name_systematic        
'3-benzoyl-N-(2,6-dimethylphenyl)-1-methyl-1H-indene-1-carboxamide chloroform solvate'
_symmetry_cell_setting           triclinic
_symmetry_space_group_name_H-M   'P -1'
_symmetry_Int_Tables_number      2
_space_group_name_Hall           '-P 1'
loop_
_symmetry_equiv_pos_site_id
_symmetry_equiv_pos_as_xyz
1 x,y,z
2 -x,-y,-z
_cell_length_a                   9.7055(2)
_cell_length_b                   10.7415(3)
_cell_length_c                   12.9336(3)
_cell_angle_alpha                67.332(2)
_cell_angle_beta                 77.291(2)
_cell_angle_gamma                77.320(2)
_cell_volume                     1200.04
_exptl_crystal_colour            colorless
_exptl_crystal_description       prism
_cell_formula_units_Z            2
loop_
_atom_site_label
_atom_site_type_symbol
_atom_site_fract_x
_atom_site_fract_y
_atom_site_fract_z
O1 O 0.52336(12) 0.69901(11) 0.97525(8)
O2 O 0.39117(11) 0.96940(11) 0.43382(8)
N1 N 0.57828(13) 0.87068(12) 0.81098(10)
H1 H 0.567(2) 0.912(2) 0.7411(18)
C1 C 0.40546(14) 0.73117(13) 0.81841(11)
C2 C 0.33052(14) 0.85570(14) 0.73506(11)
H2 H 0.2694 0.9279 0.7547
C3 C 0.36110(14) 0.85171(14) 0.62944(11)
C4 C 0.46201(14) 0.72685(14) 0.63014(11)
C5 C 0.52489(16) 0.67486(16) 0.54473(12)
H3 H 0.5055 0.7223 0.4693
C6 C 0.61680(18) 0.55181(16) 0.57255(13)
H4 H 0.6611 0.5152 0.5151
C7 C 0.64534(17) 0.48119(16) 0.68276(13)
H5 H 0.7094 0.3977 0.6995
C8 C 0.58088(15) 0.53184(14) 0.76899(12)
H6 H 0.5988 0.4831 0.8447
C9 C 0.49024(14) 0.65475(13) 0.74158(11)
C10 C 0.50768(14) 0.76534(13) 0.87691(11)
C11 C 0.67085(14) 0.92256(14) 0.85158(11)
C12 C 0.80309(15) 0.84645(14) 0.87944(12)
C13 C 0.89129(16) 0.90511(16) 0.91368(13)
H7 H 0.9817 0.8557 0.9328
C14 C 0.84981(17) 1.03391(16) 0.92044(13)
H8 H 0.9118 1.0722 0.9435
C15 C 0.71810(17) 1.10674(15) 0.89366(13)
H9 H 0.6898 1.1948 0.8990
C16 C 0.62644(15) 1.05239(14) 0.85890(11)
C17 C 0.85138(17) 0.70754(16) 0.87092(15)
H10 H 0.9547 0.6830 0.8715
H11 H 0.8292 0.7086 0.8002
H12 H 0.8018 0.6404 0.9355
C18 C 0.48370(17) 1.13229(16) 0.83016(14)
H13 H 0.4820 1.1566 0.7492
H14 H 0.4674 1.2156 0.8480
H15 H 0.4085 1.0768 0.8746
C19 C 0.29684(15) 0.64843(15) 0.91026(12)
H16 H 0.2292 0.6290 0.8743
H17 H 0.2449 0.7011 0.9579
H18 H 0.3472 0.5624 0.9572
C20 C 0.31529(14) 0.95989(14) 0.52500(11)
C21 C 0.17984(14) 1.05572(14) 0.53135(11)
C22 C 0.17016(16) 1.18675(15) 0.44859(13)
H19 H 0.2508 1.2146 0.3935
C23 C 0.04292(18) 1.27562(16) 0.44717(14)
H20 H 0.0367 1.3650 0.3917
C24 C -0.07566(17) 1.23460(17) 0.52657(14)
H21 H -0.1631 1.2956 0.5246
C25 C -0.06697(16) 1.10536(17) 0.60853(13)
H22 H -0.1483 1.0777 0.6628
C26 C 0.06060(15) 1.01599(15) 0.61158(12)
H23 H 0.0667 0.9276 0.6684
Cl1 Cl 0.15329(6) 0.24043(6) 0.71061(5)
Cl2 Cl -0.02953(5) 0.39287(5) 0.84264(4)
Cl3 Cl 0.24694(5) 0.46737(5) 0.72732(4)
C27 C 0.14794(16) 0.33191(16) 0.79769(13)
H24 H 0.1918 0.2690 0.8662
loop_
_geom_bond_atom_site_label_1
_geom_bond_atom_site_label_2
_geom_bond_site_symmetry_1
_geom_bond_site_symmetry_2
O1 C10 1_555 1_555
O2 C20 1_555 1_555
N1 H1 1_555 1_555
C1 C2 1_555 1_555
C2 H2 1_555 1_555
C3 C2 1_555 1_555
C4 C3 1_555 1_555
C5 C4 1_555 1_555
H3 C5 1_555 1_555
C6 C5 1_555 1_555
H4 C6 1_555 1_555
C7 C6 1_555 1_555
H5 C7 1_555 1_555
C8 C7 1_555 1_555
H6 C8 1_555 1_555
C9 C1 1_555 1_555
C10 N1 1_555 1_555
C11 N1 1_555 1_555
C12 C11 1_555 1_555
C13 C12 1_555 1_555
H7 C13 1_555 1_555
C14 C13 1_555 1_555
H8 C14 1_555 1_555
C15 C14 1_555 1_555
H9 C15 1_555 1_555
C16 C11 1_555 1_555
C17 C12 1_555 1_555
H10 C17 1_555 1_555
H11 C17 1_555 1_555
H12 C17 1_555 1_555
C18 C16 1_555 1_555
H13 C18 1_555 1_555
H14 C18 1_555 1_555
H15 C18 1_555 1_555
C19 C1 1_555 1_555
H16 C19 1_555 1_555
H17 C19 1_555 1_555
H18 C19 1_555 1_555
C20 C3 1_555 1_555
C21 C20 1_555 1_555
C22 C21 1_555 1_555
H19 C22 1_555 1_555
C23 C22 1_555 1_555
H20 C23 1_555 1_555
C24 C23 1_555 1_555
H21 C24 1_555 1_555
C25 C24 1_555 1_555
H22 C25 1_555 1_555
C26 C21 1_555 1_555
H23 C26 1_555 1_555
Cl1 C27 1_555 1_555
Cl2 C27 1_555 1_555
Cl3 C27 1_555 1_555
C27 H24 1_555 1_555
C1 C10 1_555 1_555
C4 C9 1_555 1_555
C8 C9 1_555 1_555
C15 C16 1_555 1_555
C25 C26 1_555 1_555

#END
