
#######################################################################
#
#                 Cambridge Crystallographic Data Centre
#                                CCDC 
#
#######################################################################
#
# If this CIF has been generated from an entry in the Cambridge 
# Structural Database, then it will include bibliographic, chemical, 
# crystal, experimental, refinement or atomic coordinate data resulting 
# from the CCDC's data processing and validation procedures.
#
#######################################################################

data_JOZSIC
_chemical_formula_moiety         'C24 H16 N2 O6'
_chemical_name_systematic        
2,2'-((1-Phenylethane-1,2-diyl)bis(oxy))bis(1H-isoindole-1,3(2H)-dione)
_symmetry_cell_setting           monoclinic
_symmetry_space_group_name_H-M   'P 21/n'
_symmetry_Int_Tables_number      14
_space_group_name_Hall           '-P 2yn'
loop_
_symmetry_equiv_pos_site_id
_symmetry_equiv_pos_as_xyz
1 x,y,z
2 1/2-x,1/2+y,1/2-z
3 -x,-y,-z
4 1/2+x,1/2-y,1/2+z
_cell_length_a                   8.0113(3)
_cell_length_b                   34.7315(11)
_cell_length_c                   8.1300(3)
_cell_angle_alpha                90
_cell_angle_beta                 114.014(2)
_cell_angle_gamma                90
_cell_volume                     2066.33
_exptl_crystal_colour            colorless
_cell_formula_units_Z            4
loop_
_atom_site_label
_atom_site_type_symbol
_atom_site_fract_x
_atom_site_fract_y
_atom_site_fract_z
C1 C 0.2029(3) 0.11977(6) 0.6768(3)
C2 C 0.1844(4) 0.12984(7) 0.5064(3)
H1 H 0.2839 0.1397 0.4888
C3 C 0.0168(4) 0.12528(7) 0.3605(3)
H2 H 0.0052 0.1317 0.2452
C4 C -0.1301(4) 0.11156(7) 0.3858(3)
H3 H -0.2421 0.1089 0.2881
C5 C -0.1132(3) 0.10175(7) 0.5542(3)
H4 H -0.2141 0.0925 0.5709
C6 C 0.0525(3) 0.10548(7) 0.7000(3)
H5 H 0.0633 0.0984 0.8142
C7 C 0.3812(3) 0.12739(6) 0.8365(3)
H6 H 0.4736 0.1358 0.7940
C8 C 0.3545(3) 0.15795(7) 0.9528(3)
H7 H 0.2807 0.1787 0.8788
H8 H 0.2918 0.1474 1.0226
C9 C 0.4664(3) 0.23952(7) 1.1082(3)
C10 C 0.4459(3) 0.26071(6) 1.2564(3)
C11 C 0.4050(3) 0.29879(7) 1.2687(3)
H9 H 0.3886 0.3160 1.1759
C12 C 0.3892(3) 0.31045(7) 1.4256(4)
H10 H 0.3601 0.3359 1.4370
C13 C 0.4156(4) 0.28525(8) 1.5632(4)
H11 H 0.4059 0.2940 1.6671
C14 C 0.4567(3) 0.24676(7) 1.5509(3)
H12 H 0.4740 0.2296 1.6442
C15 C 0.4709(3) 0.23503(6) 1.3959(3)
C16 C 0.5063(3) 0.19624(7) 1.3410(3)
C17 C 0.6809(3) 0.06385(6) 0.8783(3)
C18 C 0.6934(3) 0.02518(6) 0.8059(3)
C19 C 0.8362(3) 0.00822(8) 0.7782(3)
H13 H 0.9452 0.0212 0.8029
C20 C 0.8090(4) -0.02913(9) 0.7118(4)
H14 H 0.9019 -0.0413 0.6911
C21 C 0.6484(4) -0.04860(8) 0.6758(4)
H15 H 0.6352 -0.0737 0.6324
C22 C 0.5059(4) -0.03135(7) 0.7033(3)
H16 H 0.3969 -0.0444 0.6787
C23 C 0.5316(3) 0.00573(6) 0.7682(3)
C24 C 0.4065(3) 0.03057(6) 0.8138(3)
N1 N 0.5068(3) 0.20203(5) 1.1720(2)
N2 N 0.5018(2) 0.06537(5) 0.8664(2)
O1 O 0.5321(2) 0.17241(4) 1.0719(2)
O2 O 0.4487(3) 0.25005(5) 0.9613(2)
O3 O 0.5280(3) 0.16568(5) 1.4166(2)
O4 O 0.2592(2) 0.02371(5) 0.8120(2)
O5 O 0.7910(2) 0.08926(5) 0.9351(2)
O6 O 0.44835(19) 0.09405(4) 0.95290(18)
loop_
_geom_bond_atom_site_label_1
_geom_bond_atom_site_label_2
_geom_bond_site_symmetry_1
_geom_bond_site_symmetry_2
C1 C2 1_555 1_555
C2 H1 1_555 1_555
C3 C2 1_555 1_555
H2 C3 1_555 1_555
C4 C3 1_555 1_555
H3 C4 1_555 1_555
C5 C4 1_555 1_555
H4 C5 1_555 1_555
C6 C1 1_555 1_555
H5 C6 1_555 1_555
C7 C1 1_555 1_555
H6 C7 1_555 1_555
C8 C7 1_555 1_555
H7 C8 1_555 1_555
H8 C8 1_555 1_555
C9 C10 1_555 1_555
C10 C11 1_555 1_555
C11 H9 1_555 1_555
C12 C11 1_555 1_555
H10 C12 1_555 1_555
C13 C12 1_555 1_555
H11 C13 1_555 1_555
C14 C13 1_555 1_555
H12 C14 1_555 1_555
C15 C10 1_555 1_555
C16 C15 1_555 1_555
C17 C18 1_555 1_555
C18 C19 1_555 1_555
C19 H13 1_555 1_555
C20 C19 1_555 1_555
H14 C20 1_555 1_555
C21 C20 1_555 1_555
H15 C21 1_555 1_555
C22 C21 1_555 1_555
H16 C22 1_555 1_555
C23 C18 1_555 1_555
C24 C23 1_555 1_555
N1 C9 1_555 1_555
N2 C17 1_555 1_555
O1 C8 1_555 1_555
O2 C9 1_555 1_555
O3 C16 1_555 1_555
O4 C24 1_555 1_555
O5 C17 1_555 1_555
O6 C7 1_555 1_555
C5 C6 1_555 1_555
C14 C15 1_555 1_555
C16 N1 1_555 1_555
C22 C23 1_555 1_555
C24 N2 1_555 1_555
N1 O1 1_555 1_555
N2 O6 1_555 1_555

#END
