
#######################################################################
#
#                 Cambridge Crystallographic Data Centre
#                                CCDC 
#
#######################################################################
#
# If this CIF has been generated from an entry in the Cambridge 
# Structural Database, then it will include bibliographic, chemical, 
# crystal, experimental, refinement or atomic coordinate data resulting 
# from the CCDC's data processing and validation procedures.
#
#######################################################################

data_JOZSAU
_chemical_formula_moiety         'C25 H42 N1 O2 P1'
_chemical_name_systematic        
'2-isopropyl-5-methylcyclohexyl benzyl((cyclohexyl(methyl)amino)methyl)phosphinate'
_symmetry_cell_setting           orthorhombic
_symmetry_space_group_name_H-M   'P 21 21 21'
_symmetry_Int_Tables_number      19
_space_group_name_Hall           'P 2ac 2ab'
loop_
_symmetry_equiv_pos_site_id
_symmetry_equiv_pos_as_xyz
1 x,y,z
2 1/2+x,1/2-y,-z
3 -x,1/2+y,1/2-z
4 1/2-x,-y,1/2+z
_cell_length_a                   8.637(3)
_cell_length_b                   10.927(4)
_cell_length_c                   26.065(10)
_cell_angle_alpha                90
_cell_angle_beta                 90
_cell_angle_gamma                90
_cell_volume                     2459.92
_exptl_crystal_colour            colorless
_exptl_crystal_description       needle
_cell_formula_units_Z            4
loop_
_atom_site_label
_atom_site_type_symbol
_atom_site_fract_x
_atom_site_fract_y
_atom_site_fract_z
C1 C 0.37345(12) 0.98987(10) 0.99378(4)
H1 H 0.4568 0.9264 0.9926
C2 C 0.32865(12) 1.01565(11) 1.04934(4)
H2 H 0.3000 0.9378 1.0663
H3 H 0.2368 1.0698 1.0499
C3 C 0.46000(14) 1.07626(11) 1.07950(4)
H4 H 0.5499 1.0186 1.0803
C4 C 0.51026(16) 1.19227(12) 1.05190(5)
H5 H 0.5988 1.2293 1.0704
H6 H 0.4240 1.2520 1.0522
C5 C 0.55725(15) 1.16600(12) 0.99652(5)
H7 H 0.6490 1.1117 0.9964
H8 H 0.5868 1.2437 0.9796
C6 C 0.42664(13) 1.10521(10) 0.96569(4)
H9 H 0.3373 1.1634 0.9657
C7 C 0.41075(18) 1.10219(15) 1.13465(5)
H10 H 0.4974 1.1390 1.1534
H11 H 0.3805 1.0254 1.1513
H12 H 0.3227 1.1588 1.1346
C8 C 0.46956(15) 1.08171(11) 0.90907(5)
H13 H 0.3885 1.0264 0.8945
C9 C 0.62579(17) 1.01762(14) 0.90198(5)
H14 H 0.6367 0.9914 0.8662
H15 H 0.6310 0.9460 0.9245
H16 H 0.7096 1.0744 0.9107
C10 C 0.4651(2) 1.20044(13) 0.87813(5)
H17 H 0.5396 1.2587 0.8925
H18 H 0.3608 1.2355 0.8797
H19 H 0.4921 1.1832 0.8423
C11 C 0.35293(14) 0.75676(11) 0.91384(5)
H20 H 0.3574 0.8168 0.8854
H21 H 0.4547 0.7569 0.9313
C12 C 0.38486(14) 0.62386(11) 0.84003(5)
H22 H 0.3422 0.6947 0.8203
C13 C 0.32546(17) 0.50844(13) 0.81357(5)
H23 H 0.2110 0.5066 0.8153
H24 H 0.3653 0.4354 0.8318
C14 C 0.37717(19) 0.50409(15) 0.75724(6)
H25 H 0.3413 0.4267 0.7415
H26 H 0.3293 0.5729 0.7383
C15 C 0.5529(2) 0.51256(16) 0.75293(6)
H27 H 0.6007 0.4399 0.7692
H28 H 0.5831 0.5135 0.7163
C16 C 0.61157(19) 0.62805(17) 0.77904(6)
H29 H 0.5703 0.7008 0.7610
H30 H 0.7260 0.6307 0.7770
C17 C 0.56129(16) 0.63180(15) 0.83551(6)
H31 H 0.6091 0.5626 0.8542
H32 H 0.5979 0.7088 0.8514
C18 C 0.37823(17) 0.53995(12) 0.92850(5)
H33 H 0.4906 0.5474 0.9326
H34 H 0.3532 0.4588 0.9148
H35 H 0.3278 0.5507 0.9619
C19 C 0.02254(13) 0.80493(12) 0.92489(4)
H36 H -0.0124 0.7194 0.9201
H37 H -0.0552 0.8466 0.9467
C20 C 0.02473(13) 0.86688(12) 0.87321(4)
C21 C 0.01927(19) 0.79765(15) 0.82863(5)
H38 H 0.0136 0.7110 0.8308
C22 C 0.0220(2) 0.85384(18) 0.78081(6)
H39 H 0.0184 0.8053 0.7506
C23 C 0.0298(2) 0.97859(18) 0.77699(6)
H40 H 0.0304 1.0169 0.7443
C24 C 0.0369(2) 1.04771(15) 0.82081(6)
H41 H 0.0437 1.1343 0.8183
C25 C 0.03426(17) 0.99251(13) 0.86876(5)
H42 H 0.0390 1.0416 0.8988
N1 N 0.32282(11) 0.63441(9) 0.89279(4)
O1 O 0.23509(9) 0.94491(7) 0.96734(3)
O2 O 0.19674(11) 0.72787(8) 1.00638(3)
P1 P 0.20413(3) 0.80254(3) 0.959016(10)
loop_
_geom_bond_atom_site_label_1
_geom_bond_atom_site_label_2
_geom_bond_site_symmetry_1
_geom_bond_site_symmetry_2
C1 H1 1_555 1_555
C2 C1 1_555 1_555
H2 C2 1_555 1_555
H3 C2 1_555 1_555
C3 C2 1_555 1_555
H4 C3 1_555 1_555
C4 C3 1_555 1_555
H5 C4 1_555 1_555
H6 C4 1_555 1_555
C5 C4 1_555 1_555
H7 C5 1_555 1_555
H8 C5 1_555 1_555
C6 C1 1_555 1_555
H9 C6 1_555 1_555
C7 C3 1_555 1_555
H10 C7 1_555 1_555
H11 C7 1_555 1_555
H12 C7 1_555 1_555
C8 C6 1_555 1_555
H13 C8 1_555 1_555
C9 C8 1_555 1_555
H14 C9 1_555 1_555
H15 C9 1_555 1_555
H16 C9 1_555 1_555
C10 C8 1_555 1_555
H17 C10 1_555 1_555
H18 C10 1_555 1_555
H19 C10 1_555 1_555
C11 H20 1_555 1_555
H21 C11 1_555 1_555
C12 H22 1_555 1_555
C13 C12 1_555 1_555
H23 C13 1_555 1_555
H24 C13 1_555 1_555
C14 C13 1_555 1_555
H25 C14 1_555 1_555
H26 C14 1_555 1_555
C15 C14 1_555 1_555
H27 C15 1_555 1_555
H28 C15 1_555 1_555
C16 C15 1_555 1_555
H29 C16 1_555 1_555
H30 C16 1_555 1_555
C17 C12 1_555 1_555
H31 C17 1_555 1_555
H32 C17 1_555 1_555
C18 H33 1_555 1_555
H34 C18 1_555 1_555
H35 C18 1_555 1_555
C19 H36 1_555 1_555
H37 C19 1_555 1_555
C20 C19 1_555 1_555
C21 C20 1_555 1_555
H38 C21 1_555 1_555
C22 C21 1_555 1_555
H39 C22 1_555 1_555
C23 C22 1_555 1_555
H40 C23 1_555 1_555
C24 C23 1_555 1_555
H41 C24 1_555 1_555
C25 C20 1_555 1_555
H42 C25 1_555 1_555
N1 C11 1_555 1_555
O1 C1 1_555 1_555
O2 P1 1_555 1_555
P1 C11 1_555 1_555
C5 C6 1_555 1_555
C12 N1 1_555 1_555
C16 C17 1_555 1_555
C18 N1 1_555 1_555
C19 P1 1_555 1_555
C24 C25 1_555 1_555
O1 P1 1_555 1_555

#END
