
#######################################################################
#
#                 Cambridge Crystallographic Data Centre
#                                CCDC 
#
#######################################################################
#
# If this CIF has been generated from an entry in the Cambridge 
# Structural Database, then it will include bibliographic, chemical, 
# crystal, experimental, refinement or atomic coordinate data resulting 
# from the CCDC's data processing and validation procedures.
#
#######################################################################

data_JOZYUS
_chemical_name_common            'Thiamine bromide sesquihydrate'
_chemical_formula_moiety         'C12 H17 N4 O1 S1 1+,Br1 1-,1.5(H2 O1)'
_chemical_name_systematic        
'3-((4-Amino-2-methyl-5-pyrimidinyl)methyl)-5-hydroxyethyl-4-methylthiazolium bromide sesquihydrate'
_symmetry_cell_setting           monoclinic
_symmetry_space_group_name_H-M   'P 21/a'
_symmetry_Int_Tables_number      14
_space_group_name_Hall           '-P 2yab'
loop_
_symmetry_equiv_pos_site_id
_symmetry_equiv_pos_as_xyz
1 x,y,z
2 1/2-x,1/2+y,-z
3 -x,-y,-z
4 1/2+x,1/2-y,z
_cell_length_a                   11.676(2)
_cell_length_b                   24.819(7)
_cell_length_c                   12.344(3)
_cell_angle_alpha                90
_cell_angle_beta                 113.74(2)
_cell_angle_gamma                90
_cell_volume                     3274.44
_exptl_crystal_colour            colorless
_cell_formula_units_Z            8
loop_
_atom_site_label
_atom_site_type_symbol
_atom_site_fract_x
_atom_site_fract_y
_atom_site_fract_z
Br1 Br 0.44501(8) 0.27574(4) 1.19675(7)
Br2 Br 0.0584(1) 0.05601(4) 0.7809(1)
O1 O 0.2983(6) 0.3998(3) 0.5770(6)
H29 H 0.210 0.409 0.556
O2 O 0.5521(9) 0.0673(4) 0.4770(8)
O3 O -0.193(1) 0.4313(6) 0.0175(9)
N1 N 0.0389(7) 0.3285(3) 0.8917(5)
C1 C 0.1069(7) 0.3251(3) 0.8288(6)
N2 N 0.1424(6) 0.2799(2) 0.7930(5)
C2 C 0.1086(7) 0.2335(3) 0.8247(6)
C3 C 0.0360(7) 0.2319(3) 0.8932(6)
C4 C 0.0043(8) 0.2812(3) 0.9221(6)
C5 C 0.1496(9) 0.3774(4) 0.7941(7)
N3 N 0.1451(7) 0.1892(3) 0.7871(6)
C6 C -0.0035(7) 0.1811(3) 0.9330(6)
S1 S 0.2950(2) 0.1505(1) 1.2217(2)
C7 C 0.2047(7) 0.1833(3) 1.0993(6)
N4 N 0.0983(6) 0.1586(2) 1.0427(5)
C8 C 0.0814(7) 0.1118(3) 1.0950(6)
C9 C 0.1830(8) 0.1020(3) 1.1945(7)
C10 C -0.0368(8) 0.0815(3) 1.0446(7)
C11 C 0.2080(9) 0.0549(4) 1.2813(8)
C12 C 0.2707(9) 0.0116(4) 1.2473(9)
O5 O 0.3873(7) 0.0262(4) 1.2521(8)
H1 H -0.048 0.282 0.968
H2 H 0.111 0.382 0.704
H3 H 0.243 0.379 0.820
H4 H 0.123 0.409 0.828
H5 H 0.193 0.191 0.740
H6 H 0.124 0.153 0.808
H7 H -0.082 0.188 0.948
H8 H -0.029 0.153 0.867
H9 H 0.240 0.219 1.085
H10 H -0.056 0.071 0.959
H11 H -0.109 0.104 1.044
H12 H -0.032 0.048 1.090
H13 H 0.126 0.043 1.284
H14 H 0.264 0.067 1.365
H15 H 0.213 -0.001 1.162
H16 H 0.279 -0.022 1.299
N5 N 0.4023(6) 0.1532(3) 0.5281(5)
C13 C 0.3325(8) 0.1544(4) 0.5904(6)
N6 N 0.2869(6) 0.1978(3) 0.6225(5)
C14 C 0.3146(7) 0.2465(3) 0.5887(6)
C15 C 0.3854(7) 0.2497(4) 0.5200(6)
C16 C 0.4276(7) 0.2015(4) 0.4938(6)
C17 C 0.3009(9) 0.1018(4) 0.6304(8)
N7 N 0.2691(6) 0.2897(3) 0.6212(6)
C18 C 0.4213(7) 0.3015(3) 0.4814(6)
S2 S 0.1099(2) 0.3431(1) 0.2175(2)
C19 C 0.2077(5) 0.3042(3) 0.3246(6)
N8 N 0.3160(4) 0.3272(3) 0.3809(4)
C20 C 0.3247(8) 0.3784(4) 0.3388(7)
C21 C 0.2180(8) 0.3942(4) 0.2496(7)
C22 C 0.4482(9) 0.4077(4) 0.3921(8)
C23 C 0.177(2) 0.4524(4) 0.193(1)
C25 C 0.142(1) 0.4445(5) 0.058(1)
O6 O 0.0242(8) 0.4169(3) 0.0037(8)
H17 H 0.483 0.203 0.450
H18 H 0.328 0.102 0.720
H19 H 0.349 0.071 0.613
H20 H 0.211 0.094 0.593
H21 H 0.217 0.286 0.665
H22 H 0.284 0.326 0.600
H23 H 0.494 0.296 0.457
H24 H 0.452 0.328 0.551
H25 H 0.180 0.265 0.333
H26 H 0.502 0.391 0.472
H27 H 0.434 0.446 0.405
H28 H 0.494 0.404 0.340
O4? O -0.112(2) 0.4157(9) -0.054(2)
C24? C 0.205(3) 0.439(1) 0.164(3)
C26? C 0.120(3) 0.476(1) 0.205(3)
O7? O 0.010(2) 0.450(1) 0.164(2)
loop_
_geom_bond_atom_site_label_1
_geom_bond_atom_site_label_2
_geom_bond_site_symmetry_1
_geom_bond_site_symmetry_2
O1 H29 1_555 1_555
N1 C1 1_555 1_555
C1 N2 1_555 1_555
N2 C2 1_555 1_555
C2 C3 1_555 1_555
C3 C4 1_555 1_555
C4 N1 1_555 1_555
C5 C1 1_555 1_555
N3 C2 1_555 1_555
C6 C3 1_555 1_555
S1 C7 1_555 1_555
C7 N4 1_555 1_555
N4 C6 1_555 1_555
C8 N4 1_555 1_555
C9 S1 1_555 1_555
C10 C8 1_555 1_555
C11 C9 1_555 1_555
C12 C11 1_555 1_555
O5 C12 1_555 1_555
N5 C13 1_555 1_555
C13 N6 1_555 1_555
N6 C14 1_555 1_555
C14 C15 1_555 1_555
C15 C16 1_555 1_555
C16 N5 1_555 1_555
C17 C13 1_555 1_555
N7 C14 1_555 1_555
C18 C15 1_555 1_555
S2 C19 1_555 1_555
C19 N8 1_555 1_555
N8 C18 1_555 1_555
C20 N8 1_555 1_555
C21 S2 1_555 1_555
C22 C20 1_555 1_555
C23 C21 1_555 1_555
C25 C23 1_555 1_555
O6 C25 1_555 1_555
H1 C4 1_555 1_555
H2 C5 1_555 1_555
H3 C5 1_555 1_555
H4 C5 1_555 1_555
H5 N3 1_555 1_555
H6 N3 1_555 1_555
H7 C6 1_555 1_555
H8 C6 1_555 1_555
H9 C7 1_555 1_555
H10 C10 1_555 1_555
H11 C10 1_555 1_555
H12 C10 1_555 1_555
H13 C11 1_555 1_555
H14 C11 1_555 1_555
H15 C12 1_555 1_555
H16 C12 1_555 1_555
H17 C16 1_555 1_555
H18 C17 1_555 1_555
H19 C17 1_555 1_555
H20 C17 1_555 1_555
H21 N7 1_555 1_555
H22 N7 1_555 1_555
H23 C18 1_555 1_555
H24 C18 1_555 1_555
H25 C19 1_555 1_555
H26 C22 1_555 1_555
H27 C22 1_555 1_555
H28 C22 1_555 1_555
C8 C9 1_555 1_555
C20 C21 1_555 1_555

#END
