
#######################################################################
#
#                 Cambridge Crystallographic Data Centre
#                                CCDC 
#
#######################################################################
#
# If this CIF has been generated from an entry in the Cambridge 
# Structural Database, then it will include bibliographic, chemical, 
# crystal, experimental, refinement or atomic coordinate data resulting 
# from the CCDC's data processing and validation procedures.
#
#######################################################################

data_JOZYUU
_chemical_formula_moiety         'C20 H23 N1 O5'
_chemical_name_systematic        
'dimethyl (3-(t-butylcarbamoyl)-2-naphthyl)malonate'
_symmetry_cell_setting           orthorhombic
_symmetry_space_group_name_H-M   'P c a 21'
_symmetry_Int_Tables_number      29
_space_group_name_Hall           'P 2c -2ac'
loop_
_symmetry_equiv_pos_site_id
_symmetry_equiv_pos_as_xyz
1 x,y,z
2 -x,-y,1/2+z
3 1/2-x,y,1/2+z
4 1/2+x,-y,z
_cell_length_a                   13.4070(10)
_cell_length_b                   15.6938(10)
_cell_length_c                   8.8651(5)
_cell_angle_alpha                90
_cell_angle_beta                 90
_cell_angle_gamma                90
_cell_volume                     1865.28
_cell_formula_units_Z            4
loop_
_atom_site_label
_atom_site_type_symbol
_atom_site_fract_x
_atom_site_fract_y
_atom_site_fract_z
C1 C 0.5790(2) 0.2820(2) 0.2146(3)
C2 C 0.6819(3) 0.25889(19) 0.2180(3)
C3 C 0.7503(3) 0.3097(2) 0.1473(4)
H1 H 0.8187 0.2939 0.1508
C4 C 0.7233(3) 0.3852(2) 0.0688(4)
C5 C 0.7940(3) 0.4355(2) -0.0086(4)
H2 H 0.8622 0.4192 -0.0092
C6 C 0.7644(3) 0.5075(2) -0.0827(4)
H3 H 0.8123 0.5415 -0.1341
C7 C 0.6628(3) 0.5317(2) -0.0830(5)
H4 H 0.6427 0.5822 -0.1337
C8 C 0.5938(3) 0.4833(2) -0.0113(5)
H5 H 0.5255 0.4995 -0.0142
C9 C 0.6219(3) 0.4090(2) 0.0675(4)
C10 C 0.5525(3) 0.3557(2) 0.1412(4)
H6 H 0.4841 0.3716 0.1400
C11 C 0.4992(2) 0.2227(2) 0.2778(4)
H7 H 0.5219 0.1630 0.2588
C12 C 0.4743(3) 0.2295(2) 0.4439(4)
C13 C 0.4678(3) 0.3143(3) 0.6609(4)
H8 H 0.4950 0.2679 0.7222
H9 H 0.3947 0.3131 0.6658
H10 H 0.4920 0.3691 0.6995
C14 C 0.4023(3) 0.2350(2) 0.1924(4)
C15 C 0.3202(3) 0.2138(3) -0.0384(4)
H11 H 0.3130 0.2751 -0.0564
H12 H 0.2602 0.1922 0.0118
H13 H 0.3292 0.1843 -0.1349
C16 C 0.7160(2) 0.18082(19) 0.3025(3)
C17 C 0.8397(2) 0.0603(2) 0.3037(4)
C18 C 0.9236(3) 0.0361(2) 0.1957(4)
H14 H 0.9717 0.0830 0.1895
H15 H 0.8958 0.0249 0.0954
H16 H 0.9573 -0.0152 0.2329
C19 C 0.8842(3) 0.0785(3) 0.4588(4)
H17 H 0.8305 0.0919 0.5300
H18 H 0.9299 0.1271 0.4518
H19 H 0.9208 0.0283 0.4942
C20 C 0.7643(3) -0.0114(2) 0.3118(5)
H20 H 0.7399 -0.0243 0.2101
H21 H 0.7083 0.0059 0.3757
H22 H 0.7961 -0.0622 0.3547
N1 N 0.7926(2) 0.13869(16) 0.2429(3)
H23 H 0.8179 0.1594 0.1590
O1 O 0.49953(18) 0.30390(14) 0.5055(3)
O2 O 0.43094(19) 0.17400(16) 0.5108(3)
O3 O 0.40638(17) 0.19877(15) 0.0568(2)
O4 O 0.33144(18) 0.27410(16) 0.2382(3)
O5 O 0.67348(17) 0.16091(14) 0.4218(2)
loop_
_geom_bond_atom_site_label_1
_geom_bond_atom_site_label_2
_geom_bond_site_symmetry_1
_geom_bond_site_symmetry_2
C1 C2 1_555 1_555
C2 C3 1_555 1_555
C3 H1 1_555 1_555
C4 C3 1_555 1_555
C5 C4 1_555 1_555
H2 C5 1_555 1_555
C6 C5 1_555 1_555
H3 C6 1_555 1_555
C7 C6 1_555 1_555
H4 C7 1_555 1_555
C8 C7 1_555 1_555
H5 C8 1_555 1_555
C9 C4 1_555 1_555
C10 C1 1_555 1_555
H6 C10 1_555 1_555
C11 C1 1_555 1_555
H7 C11 1_555 1_555
C12 C11 1_555 1_555
C13 H8 1_555 1_555
H9 C13 1_555 1_555
H10 C13 1_555 1_555
C14 C11 1_555 1_555
C15 H11 1_555 1_555
H12 C15 1_555 1_555
H13 C15 1_555 1_555
C16 C2 1_555 1_555
C17 C18 1_555 1_555
C18 H14 1_555 1_555
H15 C18 1_555 1_555
H16 C18 1_555 1_555
C19 C17 1_555 1_555
H17 C19 1_555 1_555
H18 C19 1_555 1_555
H19 C19 1_555 1_555
C20 C17 1_555 1_555
H20 C20 1_555 1_555
H21 C20 1_555 1_555
H22 C20 1_555 1_555
N1 C16 1_555 1_555
H23 N1 1_555 1_555
O1 C12 1_555 1_555
O2 C12 1_555 1_555
O3 C14 1_555 1_555
O4 C14 1_555 1_555
O5 C16 1_555 1_555
C8 C9 1_555 1_555
C9 C10 1_555 1_555
C13 O1 1_555 1_555
C15 O3 1_555 1_555
C17 N1 1_555 1_555

#END
