
#######################################################################
#
#                 Cambridge Crystallographic Data Centre
#                                CCDC 
#
#######################################################################
#
# If this CIF has been generated from an entry in the Cambridge 
# Structural Database, then it will include bibliographic, chemical, 
# crystal, experimental, refinement or atomic coordinate data resulting 
# from the CCDC's data processing and validation procedures.
#
#######################################################################

data_JUBFOB01
_chemical_compound_source        'Heartwood of tropical plants'
_chemical_formula_moiety         'C15 H14 O3'
_chemical_name_systematic        
2-Hydroxy-3-(3-methyl-2-butenyl)-1,4-naphthalenedione
_chemical_properties_biological  'antineoplastic and anticoagulant activity'
_symmetry_cell_setting           triclinic
_symmetry_space_group_name_H-M   'P -1'
_symmetry_Int_Tables_number      2
_space_group_name_Hall           '-P 1'
loop_
_symmetry_equiv_pos_site_id
_symmetry_equiv_pos_as_xyz
1 x,y,z
2 -x,-y,-z
_cell_length_a                   5.960(1)
_cell_length_b                   9.569(2)
_cell_length_c                   10.679(2)
_cell_angle_alpha                96.82(2)
_cell_angle_beta                 98.32(2)
_cell_angle_gamma                90.32(2)
_cell_volume                     598.202
_exptl_crystal_colour            yellow
_cell_formula_units_Z            2
loop_
_atom_site_label
_atom_site_type_symbol
_atom_site_fract_x
_atom_site_fract_y
_atom_site_fract_z
O1 O 0.8997(2) 0.1316(1) 0.0743(1)
O2 O 0.7028(2) 0.0004(1) -0.1514(1)
O3 O 0.0799(2) 0.2930(1) -0.1214(1)
C1 C 0.7166(3) 0.1761(2) 0.0297(2)
C2 C 0.5947(3) 0.1068(2) -0.0928(2)
C3 C 0.3854(3) 0.1420(2) -0.1435(2)
C4 C 0.2701(3) 0.2589(2) -0.0773(2)
C5 C 0.2883(3) 0.4475(2) 0.1083(2)
C6 C 0.4027(3) 0.5212(2) 0.2186(2)
C7 C 0.6195(3) 0.4839(2) 0.2671(2)
C8 C 0.7225(3) 0.3709(2) 0.2062(2)
C9 C 0.6082(3) 0.2970(2) 0.0947(2)
C10 C 0.3908(3) 0.3357(2) 0.0445(2)
C11 C 0.2654(3) 0.0663(2) -0.2671(2)
C12 C 0.3323(3) 0.1249(2) -0.3820(2)
C13 C 0.2010(3) 0.1929(2) -0.4650(2)
C14 C -0.0430(3) 0.2250(2) -0.4581(2)
C15 C 0.2910(3) 0.2422(2) -0.5777(2)
H1 H 0.830(3) -0.016(2) -0.103(2)
H2 H 0.137(3) 0.473(2) 0.074(2)
H3 H 0.328(3) 0.602(2) 0.262(2)
H4 H 0.703(3) 0.535(2) 0.344(2)
H5 H 0.867(3) 0.342(2) 0.238(2)
H6 H 0.490(3) 0.110(2) -0.394(2)
H7 H 0.307(3) -0.037(2) -0.269(2)
H8 H 0.105(3) 0.071(2) -0.267(2)
H9 H -0.103(3) 0.205(2) -0.379(2)
H10 H -0.142(3) 0.175(2) -0.529(2)
H11 H -0.071(3) 0.324(2) -0.470(2)
H12 H 0.203(3) 0.197(2) -0.662(2)
H13 H 0.460(3) 0.221(2) -0.579(2)
H14 H 0.276(3) 0.345(2) -0.575(2)
loop_
_geom_bond_atom_site_label_1
_geom_bond_atom_site_label_2
_geom_bond_site_symmetry_1
_geom_bond_site_symmetry_2
O1 C1 1_555 1_555
O2 C2 1_555 1_555
O3 C4 1_555 1_555
C1 C2 1_555 1_555
C2 C3 1_555 1_555
C3 C4 1_555 1_555
C4 C10 1_555 1_555
C5 C6 1_555 1_555
C6 C7 1_555 1_555
C7 C8 1_555 1_555
C8 C9 1_555 1_555
C9 C1 1_555 1_555
C10 C5 1_555 1_555
C11 C3 1_555 1_555
C12 C11 1_555 1_555
C13 C12 1_555 1_555
C14 C13 1_555 1_555
C15 C13 1_555 1_555
H1 O2 1_555 1_555
H2 C5 1_555 1_555
H3 C6 1_555 1_555
H4 C7 1_555 1_555
H5 C8 1_555 1_555
H6 C12 1_555 1_555
H7 C11 1_555 1_555
H8 C11 1_555 1_555
H9 C14 1_555 1_555
H10 C14 1_555 1_555
H11 C14 1_555 1_555
H12 C15 1_555 1_555
H13 C15 1_555 1_555
H14 C15 1_555 1_555
C9 C10 1_555 1_555

#END
