
#######################################################################
#
#                 Cambridge Crystallographic Data Centre
#                                CCDC 
#
#######################################################################
#
# If this CIF has been generated from an entry in the Cambridge 
# Structural Database, then it will include bibliographic, chemical, 
# crystal, experimental, refinement or atomic coordinate data resulting 
# from the CCDC's data processing and validation procedures.
#
#######################################################################

data_JUBGEU
_chemical_formula_moiety         'C12 H16 Cl1 N5 O3 S1,H2 O1'
_chemical_name_systematic        
'4-(7-Chloro-5-(n-propylsulfanyl)-3H-[1,2,3]triazolo[4,5-d]pyrimidin-3-yl)cyclopentane-1,2,3-triol monohydrate'
_symmetry_cell_setting           orthorhombic
_symmetry_space_group_name_H-M   'P 21 21 21'
_symmetry_Int_Tables_number      19
_space_group_name_Hall           'P 2ac 2ab'
loop_
_symmetry_equiv_pos_site_id
_symmetry_equiv_pos_as_xyz
1 x,y,z
2 1/2-x,-y,1/2+z
3 -x,1/2+y,1/2-z
4 1/2+x,1/2-y,-z
_cell_length_a                   4.9617(10)
_cell_length_b                   10.450(2)
_cell_length_c                   31.053(6)
_cell_angle_alpha                90
_cell_angle_beta                 90
_cell_angle_gamma                90
_cell_volume                     1610.09
_cell_formula_units_Z            4
loop_
_atom_site_label
_atom_site_type_symbol
_atom_site_fract_x
_atom_site_fract_y
_atom_site_fract_z
S1 S 0.48007(9) 0.76136(5) 0.040043(14)
Cl1 Cl 1.13803(13) 1.11309(4) 0.091073(16)
O1 O 0.7285(3) 0.31778(13) 0.15460(4)
H1 H 0.6585 0.2528 0.1659
O2 O 1.0890(3) 0.40449(12) 0.25336(4)
H2 H 1.1182 0.3269 0.2587
O3 O 0.8445(3) 0.64261(12) 0.24632(4)
H3 H 0.7001 0.6313 0.2599
N1 N 1.1404(3) 0.70133(14) 0.16512(4)
N2 N 1.3303(3) 0.78305(14) 0.18100(4)
N3 N 1.3171(3) 0.89195(15) 0.16009(5)
N4 N 0.8207(4) 0.92103(15) 0.07227(5)
N5 N 0.8054(3) 0.71280(14) 0.10736(4)
C1 C 1.1082(4) 0.46152(16) 0.15363(5)
H4 H 1.2936 0.4345 0.1461
H5 H 1.0105 0.4837 0.1269
C2 C 0.9592(4) 0.35483(16) 0.17865(5)
H6 H 1.0809 0.2798 0.1833
C3 C 0.8774(4) 0.41482(15) 0.22238(5)
H7 H 0.7033 0.3794 0.2334
C4 C 0.8550(4) 0.55722(15) 0.21091(5)
H8 H 0.6949 0.5712 0.1919
C5 C 1.1125(4) 0.57541(15) 0.18492(5)
H9 H 1.2684 0.5631 0.2049
C6 C 1.0011(4) 0.75950(16) 0.13264(5)
C7 C 1.1150(4) 0.88115(16) 0.13027(5)
C8 C 1.0105(4) 0.96158(16) 0.09791(6)
C9 C 0.7289(4) 0.79803(18) 0.07782(6)
C10 C 0.4121(4) 0.5941(2) 0.05102(6)
H10 H 0.3999 0.5825 0.0826
H11 H 0.2339 0.5723 0.0387
C11 C 0.6186(4) 0.50063(18) 0.03357(6)
H12 H 0.7953 0.5171 0.0473
H13 H 0.6392 0.5138 0.0022
C12 C 0.5339(6) 0.3625(2) 0.04219(7)
H14 H 0.5141 0.3493 0.0733
H15 H 0.6717 0.3042 0.0309
H16 H 0.3616 0.3454 0.0279
O4 O 0.5956(3) 0.09173(12) 0.20158(4)
H17 H 0.510(5) 0.0344(19) 0.1878(9)
H18 H 0.728(4) 0.063(2) 0.2168(8)
loop_
_geom_bond_atom_site_label_1
_geom_bond_atom_site_label_2
_geom_bond_site_symmetry_1
_geom_bond_site_symmetry_2
S1 C9 1_555 1_555
Cl1 C8 1_555 1_555
O1 H1 1_555 1_555
O2 H2 1_555 1_555
O3 H3 1_555 1_555
N1 N2 1_555 1_555
N2 N3 1_555 1_555
N3 C7 1_555 1_555
N4 C8 1_555 1_555
N5 C6 1_555 1_555
C1 H4 1_555 1_555
H5 C1 1_555 1_555
C2 O1 1_555 1_555
H6 C2 1_555 1_555
C3 O2 1_555 1_555
H7 C3 1_555 1_555
C4 O3 1_555 1_555
H8 C4 1_555 1_555
C5 N1 1_555 1_555
H9 C5 1_555 1_555
C6 N1 1_555 1_555
C7 C6 1_555 1_555
C8 C7 1_555 1_555
C9 N4 1_555 1_555
C10 S1 1_555 1_555
H10 C10 1_555 1_555
H11 C10 1_555 1_555
C11 C10 1_555 1_555
H12 C11 1_555 1_555
H13 C11 1_555 1_555
C12 C11 1_555 1_555
H14 C12 1_555 1_555
H15 C12 1_555 1_555
H16 C12 1_555 1_555
O4 H17 1_555 1_555
H18 O4 1_555 1_555
N5 C9 1_555 1_555
C1 C2 1_555 1_555
C1 C5 1_555 1_555
C2 C3 1_555 1_555
C3 C4 1_555 1_555
C4 C5 1_555 1_555

#END
