
#######################################################################
#
#                 Cambridge Crystallographic Data Centre
#                                CCDC 
#
#######################################################################
#
# If this CIF has been generated from an entry in the Cambridge 
# Structural Database, then it will include bibliographic, chemical, 
# crystal, experimental, refinement or atomic coordinate data resulting 
# from the CCDC's data processing and validation procedures.
#
#######################################################################

data_JUBPED
_chemical_formula_moiety         'C9 H5 Cl1 I1 N1 O1'
_chemical_name_systematic        3-Chloro-4-iodo-5-phenyl-1,2-oxazole
_symmetry_cell_setting           monoclinic
_symmetry_space_group_name_H-M   'P 21/n'
_symmetry_Int_Tables_number      14
_space_group_name_Hall           '-P 2yn'
loop_
_symmetry_equiv_pos_site_id
_symmetry_equiv_pos_as_xyz
1 x,y,z
2 1/2-x,1/2+y,1/2-z
3 -x,-y,-z
4 1/2+x,1/2-y,1/2+z
_cell_length_a                   7.349(2)
_cell_length_b                   7.076(2)
_cell_length_c                   19.278(6)
_cell_angle_alpha                90
_cell_angle_beta                 94.651(5)
_cell_angle_gamma                90
_cell_volume                     999.184
_exptl_crystal_colour            colorless
_exptl_crystal_description       Prism
_cell_formula_units_Z            4
loop_
_atom_site_label
_atom_site_type_symbol
_atom_site_fract_x
_atom_site_fract_y
_atom_site_fract_z
I1 I 0.65309(4) 0.24076(4) 0.039487(18)
Cl1 Cl 1.0026(2) 0.26173(14) -0.08657(8)
N1 N 1.2255(7) 0.2684(5) 0.0254(3)
O1 O 1.2202(6) 0.2616(4) 0.0980(3)
C1 C 0.8877(6) 0.1252(6) 0.2118(2)
H1 H 0.8167 0.0492 0.1810
C2 C 0.8627(7) 0.1203(8) 0.2821(2)
H2 H 0.7754 0.0402 0.2985
C3 C 0.9648(12) 0.2319(7) 0.3274(4)
H3 H 0.9483 0.2269 0.3747
C4 C 1.0927(7) 0.3526(8) 0.3036(3)
H4 H 1.1602 0.4310 0.3347
C5 C 1.1210(6) 0.3574(7) 0.2340(2)
H5 H 1.2090 0.4374 0.2181
C6 C 1.0175(7) 0.2424(4) 0.1874(3)
C7 C 1.0445(6) 0.2474(4) 0.1132(3)
C8 C 0.9339(6) 0.2428(4) 0.0528(3)
C9 C 1.0558(8) 0.2566(5) 0.0009(4)
loop_
_geom_bond_atom_site_label_1
_geom_bond_atom_site_label_2
_geom_bond_site_symmetry_1
_geom_bond_site_symmetry_2
I1 C8 1_555 1_555
Cl1 C9 1_555 1_555
N1 O1 1_555 1_555
O1 C7 1_555 1_555
C1 H1 1_555 1_555
C2 C1 1_555 1_555
H2 C2 1_555 1_555
C3 C2 1_555 1_555
H3 C3 1_555 1_555
C4 C3 1_555 1_555
H4 C4 1_555 1_555
C5 C4 1_555 1_555
H5 C5 1_555 1_555
C6 C1 1_555 1_555
C7 C6 1_555 1_555
C8 C7 1_555 1_555
C9 N1 1_555 1_555
C5 C6 1_555 1_555
C8 C9 1_555 1_555

#END
