
#######################################################################
#
#                 Cambridge Crystallographic Data Centre
#                                CCDC 
#
#######################################################################
#
# If this CIF has been generated from an entry in the Cambridge 
# Structural Database, then it will include bibliographic, chemical, 
# crystal, experimental, refinement or atomic coordinate data resulting 
# from the CCDC's data processing and validation procedures.
#
#######################################################################

data_JUBSIK
_chemical_formula_moiety         'C16 H27 Br1 N2 O3'
_chemical_name_systematic        
't-Butyl (2R,3S,5R)-2-(4-bromobutyl)-5-(2-cyanoethyl)-3-hydroxypyrrolidine-1-carboxylate'
_symmetry_cell_setting           orthorhombic
_symmetry_space_group_name_H-M   'P 21 21 21'
_symmetry_Int_Tables_number      19
_space_group_name_Hall           'P 2ac 2ab'
loop_
_symmetry_equiv_pos_site_id
_symmetry_equiv_pos_as_xyz
1 x,y,z
2 1/2+x,1/2-y,-z
3 -x,1/2+y,1/2-z
4 1/2-x,-y,1/2+z
_cell_length_a                   6.2050(14)
_cell_length_b                   8.1355(18)
_cell_length_c                   35.791(8)
_cell_angle_alpha                90
_cell_angle_beta                 90
_cell_angle_gamma                90
_cell_volume                     1806.76
_exptl_crystal_description       pillar
_chemical_melting_point          '139.3-141.3 deg.C'
_cell_formula_units_Z            4
loop_
_atom_site_label
_atom_site_type_symbol
_atom_site_fract_x
_atom_site_fract_y
_atom_site_fract_z
Br1 Br 0.91184(5) 0.24492(4) 0.194881(8)
O1 O 0.6024(2) -0.2638(2) 0.15913(4)
C1 C 0.4351(4) -0.5819(3) 0.02503(7)
H1 H 0.5140(4) -0.5470(3) 0.00301(7)
H2 H 0.2919(4) -0.5343(3) 0.02382(7)
N1 N 0.4065(5) -0.8989(3) 0.02636(8)
C2 C 0.9355(3) -0.2464(3) 0.06260(6)
H3 H 1.0371(3) -0.1636(3) 0.05338(6)
N2 N 0.6249(3) -0.2736(2) 0.09788(5)
C3 C 0.4183(3) -0.7597(3) 0.02527(7)
C4 C 0.7444(3) -0.2638(3) 0.03631(5)
H4 H 0.7037(3) -0.1580(3) 0.02600(5)
H5 H 0.7780(3) -0.3382(3) 0.01594(5)
C5 C 1.0370(4) 0.2519(3) 0.11785(7)
H6 H 1.0127(4) 0.2979(3) 0.09320(7)
H7 H 1.1797(4) 0.2857(3) 0.12579(7)
O2 O 0.3133(3) -0.3510(2) 0.12586(4)
C6 C 0.4973(4) -0.2994(3) 0.12754(6)
O3 O 1.0364(2) -0.4021(2) 0.06585(5)
H8 H 1.123(3) -0.3999(10) 0.0831(5)
C7 C 0.5000(4) -0.2726(3) 0.19607(6)
C8 C 0.5497(3) -0.5199(3) 0.05984(6)
H9 H 0.4726(3) -0.5574(3) 0.08181(6)
H10 H 0.6938(3) -0.5659(3) 0.06069(6)
C9 C 0.5646(4) -0.3332(3) 0.06064(6)
H11 H 0.4262(4) -0.2853(3) 0.05320(6)
C10 C 0.8364(4) -0.1933(3) 0.09922(6)
H12 H 0.9205(4) -0.2386(3) 0.11999(6)
C11 C 0.8755(5) 0.3255(3) 0.14415(8)
H13 H 0.7313(5) 0.2992(3) 0.13555(8)
H14 H 0.8907(5) 0.4441(3) 0.14401(8)
C12 C 0.6919(4) -0.2478(4) 0.22156(6)
H15 H 0.7919(17) -0.3367(15) 0.2182(4)
H16 H 0.761(2) -0.1458(14) 0.2155(4)
H17 H 0.6442(6) -0.245(3) 0.24707(7)
C13 C 1.0348(4) 0.0661(3) 0.11462(8)
H18 H 1.1418(4) 0.0335(3) 0.09631(8)
H19 H 1.0773(4) 0.0197(3) 0.13847(8)
C14 C 0.8195(4) -0.0068(3) 0.10348(7)
H20 H 0.7728(4) 0.0412(3) 0.08003(7)
H21 H 0.7127(4) 0.0193(3) 0.12236(7)
C15 C 0.3980(5) -0.4364(3) 0.20294(8)
H22 H 0.276(2) -0.4494(11) 0.1868(4)
H23 H 0.5007(11) -0.5218(4) 0.1979(5)
H24 H 0.352(3) -0.4432(10) 0.22851(17)
C16 C 0.3412(5) -0.1333(4) 0.19952(8)
H25 H 0.4094(11) -0.0322(5) 0.1923(5)
H26 H 0.2199(16) -0.1537(12) 0.1835(4)
H27 H 0.293(3) -0.1251(17) 0.22494(14)
loop_
_geom_bond_atom_site_label_1
_geom_bond_atom_site_label_2
_geom_bond_site_symmetry_1
_geom_bond_site_symmetry_2
Br1 C11 1_555 1_555
O1 C6 1_555 1_555
C1 H1 1_555 1_555
H2 C1 1_555 1_555
N1 C3 1_555 1_555
C2 H3 1_555 1_555
N2 C6 1_555 1_555
C3 C1 1_555 1_555
C4 C2 1_555 1_555
H4 C4 1_555 1_555
H5 C4 1_555 1_555
C5 H6 1_555 1_555
H7 C5 1_555 1_555
O2 C6 1_555 1_555
O3 C2 1_555 1_555
H8 O3 1_555 1_555
C7 O1 1_555 1_555
C8 C1 1_555 1_555
H9 C8 1_555 1_555
H10 C8 1_555 1_555
C9 N2 1_555 1_555
H11 C9 1_555 1_555
C10 C2 1_555 1_555
H12 C10 1_555 1_555
C11 C5 1_555 1_555
H13 C11 1_555 1_555
H14 C11 1_555 1_555
C12 C7 1_555 1_555
H15 C12 1_555 1_555
H16 C12 1_555 1_555
H17 C12 1_555 1_555
C13 C5 1_555 1_555
H18 C13 1_555 1_555
H19 C13 1_555 1_555
C14 C10 1_555 1_555
H20 C14 1_555 1_555
H21 C14 1_555 1_555
C15 C7 1_555 1_555
H22 C15 1_555 1_555
H23 C15 1_555 1_555
H24 C15 1_555 1_555
C16 C7 1_555 1_555
H25 C16 1_555 1_555
H26 C16 1_555 1_555
H27 C16 1_555 1_555
N2 C10 1_555 1_555
C4 C9 1_555 1_555
C8 C9 1_555 1_555
C13 C14 1_555 1_555

#END
