
#######################################################################
#
#                 Cambridge Crystallographic Data Centre
#                                CCDC 
#
#######################################################################
#
# If this CIF has been generated from an entry in the Cambridge 
# Structural Database, then it will include bibliographic, chemical, 
# crystal, experimental, refinement or atomic coordinate data resulting 
# from the CCDC's data processing and validation procedures.
#
#######################################################################

data_JUBSEG
_chemical_formula_moiety         'C33 H27 N1 O4'
_chemical_name_systematic        
"Ethyl 3-benzoyl-1'-benzyl-2'-oxo-2-phenyl-1',2'-dihydrospiro[cyclopropane-1,3'-indole]-2-carboxylate"
_symmetry_cell_setting           triclinic
_symmetry_space_group_name_H-M   'P -1'
_symmetry_Int_Tables_number      2
_space_group_name_Hall           '-P 1'
loop_
_symmetry_equiv_pos_site_id
_symmetry_equiv_pos_as_xyz
1 x,y,z
2 -x,-y,-z
_cell_length_a                   8.8451(18)
_cell_length_b                   11.663(2)
_cell_length_c                   13.734(3)
_cell_angle_alpha                77.10(3)
_cell_angle_beta                 72.29(3)
_cell_angle_gamma                86.66(3)
_cell_volume                     1315.53
_cell_formula_units_Z            2
loop_
_atom_site_label
_atom_site_type_symbol
_atom_site_fract_x
_atom_site_fract_y
_atom_site_fract_z
O1 O 0.52981(13) 0.45068(10) 0.14778(8)
O2 O 0.97434(13) 0.57502(10) 0.27389(9)
O3 O 0.40795(14) 0.43057(12) 0.39842(10)
O4 O 0.48566(12) 0.26280(9) 0.34547(8)
N1 N 0.75980(14) 0.37394(10) 0.05337(9)
C1 C 0.91549(17) 0.35521(12) 0.05999(11)
C2 C 1.04169(19) 0.31303(13) -0.00886(12)
H1 H 1.0306 0.2923 -0.0679
C3 C 1.18636(19) 0.30220(13) 0.01221(13)
H2 H 1.2741 0.2751 -0.0339
C4 C 1.20112(18) 0.33114(13) 0.10074(13)
H3 H 1.2989 0.3237 0.1136
C5 C 1.07184(17) 0.37124(12) 0.17093(12)
H4 H 1.0821 0.3886 0.2315
C6 C 0.92762(16) 0.38522(12) 0.15021(11)
C7 C 0.76750(16) 0.42574(12) 0.20497(11)
C8 C 0.66721(18) 0.41944(13) 0.13472(12)
C9 C 0.7075(2) 0.36329(13) -0.03531(12)
H5 H 0.7795 0.4087 -0.0988
H6 H 0.6032 0.3980 -0.0272
C10 C 0.69898(18) 0.23929(13) -0.04881(12)
C11 C 0.7278(2) 0.14077(15) 0.01977(15)
H7 H 0.7473 0.1491 0.0807
C12 C 0.7281(3) 0.02977(17) -0.00058(18)
H8 H 0.7498 -0.0356 0.0458
C13 C 0.6966(3) 0.0160(2) -0.0885(2)
H9 H 0.6967 -0.0585 -0.1022
C14 C 0.6649(3) 0.11229(19) -0.15612(16)
H10 H 0.6422 0.1029 -0.2157
C15 C 0.6663(2) 0.22381(16) -0.13727(13)
H11 H 0.6451 0.2887 -0.1844
C16 C 0.72160(17) 0.52530(12) 0.26479(11)
H12 H 0.6271 0.5674 0.2536
C17 C 0.83763(18) 0.60351(13) 0.27847(11)
C18 C 0.77869(18) 0.72130(13) 0.29652(11)
C19 C 0.62144(19) 0.73863(14) 0.35021(12)
H13 H 0.5494 0.6762 0.3738
C20 C 0.5719(2) 0.84824(16) 0.36856(15)
H14 H 0.4671 0.8592 0.4060
C21 C 0.6771(2) 0.94120(16) 0.33165(16)
H15 H 0.6430 1.0151 0.3438
C22 C 0.8325(2) 0.92595(15) 0.27678(15)
H16 H 0.9026 0.9897 0.2507
C23 C 0.8840(2) 0.81614(14) 0.26055(13)
H17 H 0.9899 0.8054 0.2253
C24 C 0.68580(16) 0.39913(12) 0.32221(11)
C25 C 0.77164(16) 0.33264(13) 0.39572(11)
C26 C 0.79253(19) 0.37815(16) 0.47578(12)
H18 H 0.7607 0.4544 0.4816
C27 C 0.8614(2) 0.3094(2) 0.54731(13)
H19 H 0.8770 0.3401 0.6005
C28 C 0.9062(2) 0.1965(2) 0.53956(15)
H20 H 0.9518 0.1509 0.5878
C29 C 0.8846(2) 0.15044(16) 0.46165(14)
H21 H 0.9139 0.0734 0.4574
C30 C 0.81914(18) 0.21864(14) 0.38931(12)
H22 H 0.8067 0.1876 0.3354
C31 C 0.51015(18) 0.36843(15) 0.35918(12)
C32 C 0.3194(2) 0.23086(18) 0.36974(16)
H23 H 0.2629 0.2955 0.3389
H24 H 0.2698 0.2125 0.4449
C33 C 0.3150(2) 0.12711(18) 0.3259(2)
H25 H 0.3853 0.1398 0.2557
H26 H 0.2088 0.1149 0.3255
H27 H 0.3480 0.0590 0.3681
loop_
_geom_bond_atom_site_label_1
_geom_bond_atom_site_label_2
_geom_bond_site_symmetry_1
_geom_bond_site_symmetry_2
O1 C8 1_555 1_555
O2 C17 1_555 1_555
O3 C31 1_555 1_555
O4 C31 1_555 1_555
N1 C1 1_555 1_555
C1 C2 1_555 1_555
C2 H1 1_555 1_555
C3 C2 1_555 1_555
H2 C3 1_555 1_555
C4 C3 1_555 1_555
H3 C4 1_555 1_555
C5 C4 1_555 1_555
H4 C5 1_555 1_555
C6 C1 1_555 1_555
C7 C6 1_555 1_555
C8 N1 1_555 1_555
C9 N1 1_555 1_555
H5 C9 1_555 1_555
H6 C9 1_555 1_555
C10 C9 1_555 1_555
C11 C10 1_555 1_555
H7 C11 1_555 1_555
C12 C11 1_555 1_555
H8 C12 1_555 1_555
C13 C12 1_555 1_555
H9 C13 1_555 1_555
C14 C13 1_555 1_555
H10 C14 1_555 1_555
C15 C10 1_555 1_555
H11 C15 1_555 1_555
C16 C7 1_555 1_555
H12 C16 1_555 1_555
C17 C16 1_555 1_555
C18 C17 1_555 1_555
C19 C18 1_555 1_555
H13 C19 1_555 1_555
C20 C19 1_555 1_555
H14 C20 1_555 1_555
C21 C20 1_555 1_555
H15 C21 1_555 1_555
C22 C21 1_555 1_555
H16 C22 1_555 1_555
C23 C18 1_555 1_555
H17 C23 1_555 1_555
C24 C7 1_555 1_555
C25 C24 1_555 1_555
C26 C25 1_555 1_555
H18 C26 1_555 1_555
C27 C26 1_555 1_555
H19 C27 1_555 1_555
C28 C27 1_555 1_555
H20 C28 1_555 1_555
C29 C28 1_555 1_555
H21 C29 1_555 1_555
C30 C25 1_555 1_555
H22 C30 1_555 1_555
C31 C24 1_555 1_555
C32 O4 1_555 1_555
H23 C32 1_555 1_555
H24 C32 1_555 1_555
C33 C32 1_555 1_555
H25 C33 1_555 1_555
H26 C33 1_555 1_555
H27 C33 1_555 1_555
C5 C6 1_555 1_555
C7 C8 1_555 1_555
C14 C15 1_555 1_555
C16 C24 1_555 1_555
C22 C23 1_555 1_555
C29 C30 1_555 1_555

#END
