
#######################################################################
#
#                 Cambridge Crystallographic Data Centre
#                                CCDC 
#
#######################################################################
#
# If this CIF has been generated from an entry in the Cambridge 
# Structural Database, then it will include bibliographic, chemical, 
# crystal, experimental, refinement or atomic coordinate data resulting 
# from the CCDC's data processing and validation procedures.
#
#######################################################################

data_JUBVUZ
_chemical_formula_moiety         'C22 H30 N2 O2 S1'
_chemical_name_systematic        
N,N-Di-isopropyl-2-(4-methylphenyl)-N'-((4-methylphenyl)sulfonyl)ethanimidamide
_symmetry_cell_setting           monoclinic
_symmetry_space_group_name_H-M   'P 21/n'
_symmetry_Int_Tables_number      14
_space_group_name_Hall           '-P 2yn'
loop_
_symmetry_equiv_pos_site_id
_symmetry_equiv_pos_as_xyz
1 x,y,z
2 1/2-x,1/2+y,1/2-z
3 -x,-y,-z
4 1/2+x,1/2-y,1/2+z
_cell_length_a                   8.2615(4)
_cell_length_b                   10.9454(9)
_cell_length_c                   23.208(2)
_cell_angle_alpha                90
_cell_angle_beta                 97.076(8)
_cell_angle_gamma                90
_cell_volume                     2082.61
_exptl_crystal_colour            colorless
_exptl_crystal_description       block
_cell_formula_units_Z            4
loop_
_atom_site_label
_atom_site_type_symbol
_atom_site_fract_x
_atom_site_fract_y
_atom_site_fract_z
S1 S 0.89663(3) 0.36679(3) 0.14008(2)
O1 O 0.98270(11) 0.47936(8) 0.13131(4)
O2 O 0.97304(11) 0.28595(9) 0.18443(4)
N1 N 0.49947(12) 0.47517(9) 0.18747(4)
N2 N 0.70793(12) 0.39064(10) 0.14640(5)
C1 C 0.8285(2) 0.23567(15) 0.45813(6)
H1 H 0.7551 0.2732 0.4831
H2 H 0.9410 0.2403 0.4772
H3 H 0.7980 0.1499 0.4512
C2 C 0.81532(16) 0.30290(12) 0.40091(6)
C3 C 0.90598(16) 0.40826(13) 0.39456(6)
H4 H 0.9787 0.4373 0.4265
C4 C 0.89212(16) 0.47162(12) 0.34243(6)
H5 H 0.9561 0.5428 0.3392
C5 C 0.78565(14) 0.43235(11) 0.29482(5)
C6 C 0.69640(15) 0.32639(11) 0.30078(6)
H6 H 0.6244 0.2970 0.2687
C7 C 0.71118(16) 0.26278(12) 0.35317(6)
H7 H 0.6488 0.1907 0.3563
C8 C 0.77626(15) 0.50673(11) 0.23904(5)
H8 H 0.7422 0.5910 0.2473
H9 H 0.8867 0.5114 0.2268
C9 C 0.65972(15) 0.45619(10) 0.18896(5)
C10 C 0.42754(15) 0.55451(11) 0.22982(5)
H10 H 0.5183 0.5818 0.2595
C11 C 0.35175(16) 0.66837(12) 0.19968(6)
H11 H 0.4328 0.7096 0.1790
H12 H 0.3159 0.7239 0.2287
H13 H 0.2578 0.6448 0.1719
C12 C 0.30526(17) 0.48455(12) 0.26145(6)
H14 H 0.2112 0.4611 0.2337
H15 H 0.2687 0.5366 0.2917
H16 H 0.3573 0.4110 0.2793
C13 C 0.38025(14) 0.42447(12) 0.13988(5)
H17 H 0.2702 0.4521 0.1483
C14 C 0.40201(17) 0.47644(13) 0.08034(6)
H18 H 0.4136 0.5654 0.0831
H19 H 0.3064 0.4561 0.0527
H20 H 0.4999 0.4412 0.0670
C15 C 0.37533(16) 0.28463(12) 0.14017(6)
H21 H 0.4753 0.2525 0.1271
H22 H 0.2806 0.2563 0.1140
H23 H 0.3669 0.2556 0.1796
C16 C 0.87745(14) 0.28660(11) 0.07352(5)
C17 C 0.84667(18) 0.16232(13) 0.07252(6)
H24 H 0.8337 0.1200 0.1074
C18 C 0.83487(19) 0.10020(13) 0.02010(6)
H25 H 0.8123 0.0151 0.0193
C19 C 0.85548(16) 0.16001(13) -0.03145(6)
C20 C 0.88678(17) 0.28502(13) -0.02930(6)
H26 H 0.9013 0.3274 -0.0640
C21 C 0.89711(17) 0.34850(12) 0.02267(6)
H27 H 0.9175 0.4339 0.0235
C22 C 0.84606(18) 0.09185(14) -0.08824(6)
H28 H 0.7589 0.1267 -0.1158
H29 H 0.8228 0.0055 -0.0818
H30 H 0.9503 0.0991 -0.1040
loop_
_geom_bond_atom_site_label_1
_geom_bond_atom_site_label_2
_geom_bond_site_symmetry_1
_geom_bond_site_symmetry_2
S1 O1 1_555 1_555
O2 S1 1_555 1_555
N1 C9 1_555 1_555
N2 S1 1_555 1_555
C1 H1 1_555 1_555
H2 C1 1_555 1_555
H3 C1 1_555 1_555
C2 C1 1_555 1_555
C3 C2 1_555 1_555
H4 C3 1_555 1_555
C4 C3 1_555 1_555
H5 C4 1_555 1_555
C5 C4 1_555 1_555
C6 C5 1_555 1_555
H6 C6 1_555 1_555
C7 C2 1_555 1_555
H7 C7 1_555 1_555
C8 C5 1_555 1_555
H8 C8 1_555 1_555
H9 C8 1_555 1_555
C9 N2 1_555 1_555
C10 N1 1_555 1_555
H10 C10 1_555 1_555
C11 C10 1_555 1_555
H11 C11 1_555 1_555
H12 C11 1_555 1_555
H13 C11 1_555 1_555
C12 C10 1_555 1_555
H14 C12 1_555 1_555
H15 C12 1_555 1_555
H16 C12 1_555 1_555
C13 N1 1_555 1_555
H17 C13 1_555 1_555
C14 C13 1_555 1_555
H18 C14 1_555 1_555
H19 C14 1_555 1_555
H20 C14 1_555 1_555
C15 C13 1_555 1_555
H21 C15 1_555 1_555
H22 C15 1_555 1_555
H23 C15 1_555 1_555
C16 S1 1_555 1_555
C17 C16 1_555 1_555
H24 C17 1_555 1_555
C18 C17 1_555 1_555
H25 C18 1_555 1_555
C19 C18 1_555 1_555
C20 C19 1_555 1_555
H26 C20 1_555 1_555
C21 C16 1_555 1_555
H27 C21 1_555 1_555
C22 C19 1_555 1_555
H28 C22 1_555 1_555
H29 C22 1_555 1_555
H30 C22 1_555 1_555
C6 C7 1_555 1_555
C8 C9 1_555 1_555
C20 C21 1_555 1_555

#END
