
#######################################################################
#
#                 Cambridge Crystallographic Data Centre
#                                CCDC 
#
#######################################################################
#
# If this CIF has been generated from an entry in the Cambridge 
# Structural Database, then it will include bibliographic, chemical, 
# crystal, experimental, refinement or atomic coordinate data resulting 
# from the CCDC's data processing and validation procedures.
#
#######################################################################

data_JUBWIO
_chemical_formula_moiety         'C17 H14 Br3 Cl3 O6'
_chemical_name_systematic        
'Methyl 5-bromo-5-(((3,5-dibromobenzoyl)oxy)methyl)-6-oxo-3-(2,2,2-trichloroethyl)tetrahydro-2H-pyran-3-carboxylate'
_symmetry_cell_setting           triclinic
_symmetry_space_group_name_H-M   'P -1'
_symmetry_Int_Tables_number      2
_space_group_name_Hall           '-P 1'
loop_
_symmetry_equiv_pos_site_id
_symmetry_equiv_pos_as_xyz
1 x,y,z
2 -x,-y,-z
_cell_length_a                   6.0225(4)
_cell_length_b                   13.2389(11)
_cell_length_c                   14.6415(14)
_cell_angle_alpha                67.651(8)
_cell_angle_beta                 82.712(7)
_cell_angle_gamma                84.717(6)
_cell_volume                     1069.75
_cell_formula_units_Z            2
loop_
_atom_site_label
_atom_site_type_symbol
_atom_site_fract_x
_atom_site_fract_y
_atom_site_fract_z
Br1 Br 0.85771(10) 0.76349(5) 0.09962(4)
Br2 Br -0.13513(12) 0.77709(5) 0.35569(6)
Br3 Br -0.32585(11) 0.33368(5) 0.46335(5)
Cl1 Cl 0.7104(3) 1.04036(11) -0.33816(11)
Cl2 Cl 0.7927(3) 0.85465(12) -0.39408(10)
Cl3 Cl 0.3417(2) 0.94241(14) -0.37495(11)
O1 O 1.0235(6) 0.9237(3) -0.1432(3)
O2 O 0.6627(6) 0.9594(3) -0.1014(3)
O3 O 1.0923(6) 0.6833(3) -0.1011(3)
O4 O 1.1500(6) 0.5660(3) 0.0473(3)
O5 O 0.5083(6) 0.5867(3) 0.1718(3)
O6 O 0.4490(7) 0.4070(3) 0.2298(3)
C1 C 0.6047(9) 0.9142(4) -0.3221(4)
C2 C 0.5568(8) 0.8372(4) -0.2136(4)
H1 H 0.4997 0.7697 -0.2142
H2 H 0.4324 0.8722 -0.1834
C3 C 0.7455(8) 0.8012(4) -0.1417(4)
C4 C 0.6319(8) 0.7217(4) -0.0428(3)
H3 H 0.5139 0.7631 -0.0159
H4 H 0.5582 0.6658 -0.0563
C5 C 0.7925(8) 0.6646(4) 0.0352(4)
C6 C 1.0250(8) 0.6321(4) -0.0050(4)
C7 C 0.9390(9) 0.7387(4) -0.1758(4)
H5 H 0.8786 0.6838 -0.1956
H6 H 1.0235 0.7901 -0.2352
C8 C 0.8300(9) 0.9006(4) -0.1290(4)
C9 C 0.7268(11) 1.0561(5) -0.0909(5)
H7 H 0.5935 1.0937 -0.0704
H8 H 0.7979 1.1050 -0.1545
H9 H 0.8328 1.0356 -0.0405
C10 C 0.7031(9) 0.5603(4) 0.1160(4)
H10 H 0.6637 0.5102 0.0854
H11 H 0.8202 0.5229 0.1609
C11 C 0.3944(8) 0.4971(4) 0.2294(4)
C12 C 0.1990(9) 0.5213(4) 0.2918(4)
C13 C 0.1482(9) 0.6221(4) 0.2982(4)
H12 H 0.2457 0.6805 0.2655
C14 C -0.0483(10) 0.6366(4) 0.3533(4)
C15 C -0.1911(10) 0.5519(5) 0.4032(4)
H13 H -0.3248 0.5632 0.4408
C16 C -0.1359(10) 0.4516(5) 0.3973(4)
C17 C 0.0587(9) 0.4339(4) 0.3427(4)
H14 H 0.0965 0.3638 0.3398
loop_
_geom_bond_atom_site_label_1
_geom_bond_atom_site_label_2
_geom_bond_site_symmetry_1
_geom_bond_site_symmetry_2
Br1 C5 1_555 1_555
Br2 C14 1_555 1_555
Br3 C16 1_555 1_555
Cl1 C1 1_555 1_555
Cl2 C1 1_555 1_555
Cl3 C1 1_555 1_555
O1 C8 1_555 1_555
O2 C8 1_555 1_555
O3 C6 1_555 1_555
O4 C6 1_555 1_555
O5 C10 1_555 1_555
O6 C11 1_555 1_555
C1 C2 1_555 1_555
C2 H1 1_555 1_555
H2 C2 1_555 1_555
C3 C2 1_555 1_555
C4 C3 1_555 1_555
H3 C4 1_555 1_555
H4 C4 1_555 1_555
C5 C4 1_555 1_555
C6 C5 1_555 1_555
C7 O3 1_555 1_555
H5 C7 1_555 1_555
H6 C7 1_555 1_555
C8 C3 1_555 1_555
C9 O2 1_555 1_555
H7 C9 1_555 1_555
H8 C9 1_555 1_555
H9 C9 1_555 1_555
C10 C5 1_555 1_555
H10 C10 1_555 1_555
H11 C10 1_555 1_555
C11 O5 1_555 1_555
C12 C11 1_555 1_555
C13 C12 1_555 1_555
H12 C13 1_555 1_555
C14 C13 1_555 1_555
C15 C14 1_555 1_555
H13 C15 1_555 1_555
C16 C15 1_555 1_555
C17 C12 1_555 1_555
H14 C17 1_555 1_555
C3 C7 1_555 1_555
C16 C17 1_555 1_555

#END
