
#######################################################################
#
#                 Cambridge Crystallographic Data Centre
#                                CCDC 
#
#######################################################################
#
# If this CIF has been generated from an entry in the Cambridge 
# Structural Database, then it will include bibliographic, chemical, 
# crystal, experimental, refinement or atomic coordinate data resulting 
# from the CCDC's data processing and validation procedures.
#
#######################################################################

data_JUBWAG
_chemical_formula_moiety         'C25 H17 Br1 Cl1 N1 O3'
_chemical_name_systematic        
4-(4-Bromophenyl)-5-(4-chlorophenyl)-6-hydroxy-7-phenyl-5,6-dihydrofuro[3,2-b]pyridin-2(4H)-one
_symmetry_cell_setting           triclinic
_symmetry_space_group_name_H-M   'P -1'
_symmetry_Int_Tables_number      2
_space_group_name_Hall           '-P 1'
loop_
_symmetry_equiv_pos_site_id
_symmetry_equiv_pos_as_xyz
1 x,y,z
2 -x,-y,-z
_cell_length_a                   9.1460(8)
_cell_length_b                   10.6429(9)
_cell_length_c                   12.1101(11)
_cell_angle_alpha                77.6590(10)
_cell_angle_beta                 88.687(2)
_cell_angle_gamma                67.8530(10)
_cell_volume                     1064.43
_exptl_crystal_colour            yellow
_exptl_crystal_description       block
_cell_formula_units_Z            2
loop_
_atom_site_label
_atom_site_type_symbol
_atom_site_fract_x
_atom_site_fract_y
_atom_site_fract_z
Br1 Br 1.33072(5) 0.43031(6) 0.93394(4)
Cl1 Cl 0.18454(16) 1.01055(19) 1.05918(13)
N1 N 0.6693(4) 0.6470(3) 0.7004(3)
O1 O 0.4025(3) 0.4989(3) 0.6242(2)
O2 O 0.5027(3) 0.2686(3) 0.7003(3)
O3 O 0.5546(4) 0.8433(3) 0.4718(2)
H1 H 0.5466 0.7924 0.4322
C1 C 0.5218(5) 0.3779(5) 0.6859(3)
C2 C 0.6459(5) 0.4152(4) 0.7214(3)
H2 H 0.7400 0.3540 0.7619
C3 C 0.6024(4) 0.5551(4) 0.6857(3)
C4 C 0.4486(5) 0.6098(4) 0.6215(3)
C5 C 0.3718(4) 0.7403(4) 0.5659(3)
C6 C 0.4595(5) 0.8370(4) 0.5668(3)
H3 H 0.3801 0.9308 0.5628
C7 C 0.5670(4) 0.7962(4) 0.6757(3)
H4 H 0.6379 0.8468 0.6595
C8 C 0.4732(4) 0.8451(4) 0.7751(3)
C9 C 0.4665(5) 0.9687(4) 0.7998(3)
H5 H 0.5225 1.0173 0.7578
C10 C 0.3781(5) 1.0209(5) 0.8858(4)
H6 H 0.3744 1.1040 0.9010
C11 C 0.2953(5) 0.9486(6) 0.9492(4)
C12 C 0.3007(5) 0.8251(5) 0.9273(4)
H7 H 0.2457 0.7763 0.9703
C13 C 0.3893(5) 0.7740(5) 0.8401(4)
H8 H 0.3925 0.6909 0.8251
C14 C 0.2166(4) 0.7931(4) 0.4989(3)
C15 C 0.1745(5) 0.9118(5) 0.4098(4)
H9 H 0.2413 0.9602 0.3941
C16 C 0.0342(6) 0.9565(6) 0.3458(4)
H10 H 0.0085 1.0341 0.2862
C17 C -0.0689(6) 0.8882(6) 0.3683(5)
H11 H -0.1616 0.9181 0.3230
C18 C -0.0330(5) 0.7762(6) 0.4580(5)
H12 H -0.1042 0.7325 0.4757
C19 C 0.1089(5) 0.7271(5) 0.5229(4)
H13 H 0.1326 0.6500 0.5828
C20 C 0.8258(4) 0.6001(4) 0.7517(3)
C21 C 0.8608(5) 0.6709(5) 0.8238(4)
H14 H 0.7835 0.7517 0.8375
C22 C 1.0119(5) 0.6210(5) 0.8759(4)
H15 H 1.0346 0.6677 0.9256
C23 C 1.1264(5) 0.5047(5) 0.8548(4)
C24 C 1.0958(5) 0.4344(5) 0.7798(4)
H16 H 1.1752 0.3558 0.7644
C25 C 0.9455(5) 0.4829(5) 0.7282(4)
H17 H 0.9241 0.4368 0.6773
loop_
_geom_bond_atom_site_label_1
_geom_bond_atom_site_label_2
_geom_bond_site_symmetry_1
_geom_bond_site_symmetry_2
Br1 C23 1_555 1_555
Cl1 C11 1_555 1_555
N1 C3 1_555 1_555
O1 C1 1_555 1_555
O2 C1 1_555 1_555
O3 H1 1_555 1_555
C1 C2 1_555 1_555
C2 H2 1_555 1_555
C3 C2 1_555 1_555
C4 O1 1_555 1_555
C5 C4 1_555 1_555
C6 O3 1_555 1_555
H3 C6 1_555 1_555
C7 N1 1_555 1_555
H4 C7 1_555 1_555
C8 C7 1_555 1_555
C9 C8 1_555 1_555
H5 C9 1_555 1_555
C10 C9 1_555 1_555
H6 C10 1_555 1_555
C11 C10 1_555 1_555
C12 C11 1_555 1_555
H7 C12 1_555 1_555
C13 C8 1_555 1_555
H8 C13 1_555 1_555
C14 C5 1_555 1_555
C15 C14 1_555 1_555
H9 C15 1_555 1_555
C16 C15 1_555 1_555
H10 C16 1_555 1_555
C17 C16 1_555 1_555
H11 C17 1_555 1_555
C18 C17 1_555 1_555
H12 C18 1_555 1_555
C19 C14 1_555 1_555
H13 C19 1_555 1_555
C20 N1 1_555 1_555
C21 C20 1_555 1_555
H14 C21 1_555 1_555
C22 C21 1_555 1_555
H15 C22 1_555 1_555
C23 C22 1_555 1_555
C24 C23 1_555 1_555
H16 C24 1_555 1_555
C25 C20 1_555 1_555
H17 C25 1_555 1_555
C3 C4 1_555 1_555
C5 C6 1_555 1_555
C6 C7 1_555 1_555
C12 C13 1_555 1_555
C18 C19 1_555 1_555
C24 C25 1_555 1_555

#END
