
#######################################################################
#
#                 Cambridge Crystallographic Data Centre
#                                CCDC 
#
#######################################################################
#
# If this CIF has been generated from an entry in the Cambridge 
# Structural Database, then it will include bibliographic, chemical, 
# crystal, experimental, refinement or atomic coordinate data resulting 
# from the CCDC's data processing and validation procedures.
#
#######################################################################

data_JUBXUZ
_chemical_formula_moiety         'C14 H13 N1 O1 S1'
_chemical_name_systematic        
2-(2-Thiophenemethyl)-6-methoxy-3-methylbenzonitrile
_symmetry_cell_setting           triclinic
_symmetry_space_group_name_H-M   'P -1'
_symmetry_Int_Tables_number      2
_space_group_name_Hall           '-P 1'
loop_
_symmetry_equiv_pos_site_id
_symmetry_equiv_pos_as_xyz
1 x,y,z
2 -x,-y,-z
_cell_length_a                   7.718(2)
_cell_length_b                   8.591(2)
_cell_length_c                   10.057(2)
_cell_angle_alpha                94.09(2)
_cell_angle_beta                 105.33(2)
_cell_angle_gamma                99.02(2)
_cell_volume                     630.686
_cell_formula_units_Z            2
loop_
_atom_site_label
_atom_site_type_symbol
_atom_site_fract_x
_atom_site_fract_y
_atom_site_fract_z
C1 C 0.1326(3) 0.1554(2) 0.4236(2)
C2 C 0.1881(3) 0.2184(2) 0.5639(2)
C3 C 0.0712(3) 0.2885(2) 0.6245(2)
C4 C -0.1004(3) 0.2992(3) 0.5449(3)
C5 C -0.1552(3) 0.2363(3) 0.4059(3)
C6 C -0.0431(3) 0.1645(3) 0.3437(2)
C7 C 0.3680(3) 0.2130(3) 0.6490(2)
N1 N 0.5113(3) 0.2107(2) 0.7175(2)
O1 O 0.1406(2) 0.3398(2) 0.7624(2)
C8 C 0.0307(4) 0.4178(3) 0.8296(3)
C9 C -0.1130(3) 0.0962(3) 0.1929(2)
C10 C 0.2624(3) 0.0818(3) 0.3604(2)
C11 C 0.3328(3) 0.1808(2) 0.2616(2)
S1 S 0.3934(1) 0.3840(1) 0.2975(1)
C12 C 0.4574(3) 0.3987(3) 0.1488(2)
C13 C 0.4346(3) 0.2564(3) 0.0753(3)
C14 C 0.3624(3) 0.1294(3) 0.1390(2)
H1 H -0.1777(34) 0.3463(29) 0.5842(25)
H2 H -0.2794(32) 0.2415(26) 0.3498(24)
H3 H 0.0947 0.4467 0.9261
H4 H 0.0073 0.5117 0.7869
H5 H -0.0831 0.3485 0.8208
H6 H -0.2365 0.1112 0.1556
H7 H -0.0367 0.1503 0.1427
H8 H -0.1089 -0.0150 0.1840
H9 H 0.2070(30) -0.0287(29) 0.3054(24)
H10 H 0.3707(34) 0.0692(28) 0.4343(24)
H11 H 0.5094(32) 0.4984(31) 0.1280(23)
H12 H 0.4508(31) 0.2415(27) -0.0143(24)
H13 H 0.3431(33) 0.0376(29) 0.1084(24)
loop_
_geom_bond_atom_site_label_1
_geom_bond_atom_site_label_2
_geom_bond_site_symmetry_1
_geom_bond_site_symmetry_2
C1 C2 1_555 1_555
C2 C3 1_555 1_555
C3 C4 1_555 1_555
C4 C5 1_555 1_555
C5 C6 1_555 1_555
C6 C1 1_555 1_555
C7 C2 1_555 1_555
N1 C7 1_555 1_555
O1 C3 1_555 1_555
C8 O1 1_555 1_555
C9 C6 1_555 1_555
C10 C1 1_555 1_555
C11 C10 1_555 1_555
S1 C11 1_555 1_555
C12 S1 1_555 1_555
C13 C12 1_555 1_555
C14 C11 1_555 1_555
H1 C4 1_555 1_555
H2 C5 1_555 1_555
H3 C8 1_555 1_555
H4 C8 1_555 1_555
H5 C8 1_555 1_555
H6 C9 1_555 1_555
H7 C9 1_555 1_555
H8 C9 1_555 1_555
H9 C10 1_555 1_555
H10 C10 1_555 1_555
H11 C12 1_555 1_555
H12 C13 1_555 1_555
H13 C14 1_555 1_555
C13 C14 1_555 1_555

#END
