
#######################################################################
#
#                 Cambridge Crystallographic Data Centre
#                                CCDC 
#
#######################################################################
#
# If this CIF has been generated from an entry in the Cambridge 
# Structural Database, then it will include bibliographic, chemical, 
# crystal, experimental, refinement or atomic coordinate data resulting 
# from the CCDC's data processing and validation procedures.
#
#######################################################################

data_JUBZUD
_chemical_formula_moiety         'C20 H19 B1 F2 N2 O2'
_chemical_name_systematic        
"4-(5,5-difluoro-1,3,7,9-tetramethyl-5H-4\l^5^,5\l^5^-dipyrrolo[1,2-c:2',1'-f][1,3,2]diazaborinin-10-yl)benzoic acid"
_symmetry_cell_setting           triclinic
_symmetry_space_group_name_H-M   'P -1'
_symmetry_Int_Tables_number      2
_space_group_name_Hall           '-P 1'
loop_
_symmetry_equiv_pos_site_id
_symmetry_equiv_pos_as_xyz
1 x,y,z
2 -x,-y,-z
_cell_length_a                   8.3643(17)
_cell_length_b                   9.794(2)
_cell_length_c                   11.596(2)
_cell_angle_alpha                79.79(3)
_cell_angle_beta                 71.08(3)
_cell_angle_gamma                87.20(3)
_cell_volume                     884.353
_cell_formula_units_Z            2
loop_
_atom_site_label
_atom_site_type_symbol
_atom_site_fract_x
_atom_site_fract_y
_atom_site_fract_z
C1 C 1.2871(5) 0.0767(4) 0.0859(3)
C2 C 1.1250(4) 0.1315(4) 0.1522(3)
C3 C 0.9778(5) 0.0772(4) 0.1469(4)
H1 H 0.9845 0.0050 0.1007
C4 C 0.8206(5) 0.1274(4) 0.2088(3)
H2 H 0.7210 0.0912 0.2025
C5 C 0.8084(4) 0.2295(4) 0.2790(3)
C6 C 0.9547(4) 0.2838(4) 0.2859(3)
H3 H 0.9469 0.3544 0.3340
C7 C 1.1125(5) 0.2355(4) 0.2230(3)
H4 H 1.2120 0.2733 0.2282
C8 C 0.6391(4) 0.2823(3) 0.3452(3)
C9 C 0.5607(4) 0.3816(4) 0.2802(3)
C10 C 0.6152(5) 0.4542(4) 0.1558(3)
C11 C 0.7752(5) 0.4376(5) 0.0529(4)
H5 H 0.7755 0.5025 -0.0220
H6 H 0.7817 0.3423 0.0365
H7 H 0.8727 0.4570 0.0769
C12 C 0.4907(5) 0.5483(4) 0.1463(3)
H8 H 0.4923 0.6121 0.0740
C13 C 0.3615(5) 0.5352(4) 0.2602(3)
C14 C 0.2012(5) 0.6152(4) 0.2927(4)
H9 H 0.1353 0.5834 0.3795
H10 H 0.1354 0.6005 0.2396
H11 H 0.2277 0.7142 0.2802
C15 C 0.3732(5) 0.2316(4) 0.6570(3)
C16 C 0.2160(5) 0.2650(5) 0.7534(4)
H12 H 0.1497 0.3320 0.7148
H13 H 0.2459 0.3049 0.8155
H14 H 0.1492 0.1800 0.7933
C17 C 0.5022(5) 0.1414(4) 0.6715(4)
H15 H 0.5066 0.0898 0.7479
C18 C 0.6227(5) 0.1386(4) 0.5575(3)
C19 C 0.7781(6) 0.0528(5) 0.5354(4)
H16 H 0.7809 -0.0024 0.6139
H17 H 0.8780 0.1135 0.4997
H18 H 0.7777 -0.0093 0.4778
C20 C 0.5666(4) 0.2329(4) 0.4715(3)
N1 N 0.4110(4) 0.2867(3) 0.5367(3)
N2 N 0.4025(4) 0.4357(3) 0.3421(3)
F1 F 0.2412(3) 0.4932(2) 0.53972(18)
F2 F 0.1559(3) 0.3089(2) 0.48057(18)
B1 B 0.2975(5) 0.3827(4) 0.4758(4)
O1 O 1.4218(3) 0.1320(3) 0.0900(2)
H19 H 1.5105 0.0926 0.0505
O2 O 1.2943(3) -0.0211(3) 0.0279(3)
loop_
_geom_bond_atom_site_label_1
_geom_bond_atom_site_label_2
_geom_bond_site_symmetry_1
_geom_bond_site_symmetry_2
C1 C2 1_555 1_555
C2 C3 1_555 1_555
C3 H1 1_555 1_555
C4 C3 1_555 1_555
H2 C4 1_555 1_555
C5 C4 1_555 1_555
C6 C5 1_555 1_555
H3 C6 1_555 1_555
C7 C2 1_555 1_555
H4 C7 1_555 1_555
C8 C5 1_555 1_555
C9 C8 1_555 1_555
C10 C9 1_555 1_555
C11 C10 1_555 1_555
H5 C11 1_555 1_555
H6 C11 1_555 1_555
H7 C11 1_555 1_555
C12 C10 1_555 1_555
H8 C12 1_555 1_555
C13 C12 1_555 1_555
C14 C13 1_555 1_555
H9 C14 1_555 1_555
H10 C14 1_555 1_555
H11 C14 1_555 1_555
C15 C16 1_555 1_555
C16 H12 1_555 1_555
H13 C16 1_555 1_555
H14 C16 1_555 1_555
C17 C15 1_555 1_555
H15 C17 1_555 1_555
C18 C17 1_555 1_555
C19 C18 1_555 1_555
H16 C19 1_555 1_555
H17 C19 1_555 1_555
H18 C19 1_555 1_555
C20 C8 1_555 1_555
N1 C15 1_555 1_555
N2 C9 1_555 1_555
F1 B1 1_555 1_555
F2 B1 1_555 1_555
B1 N1 1_555 1_555
O1 C1 1_555 1_555
H19 O1 1_555 1_555
O2 C1 1_555 1_555
C6 C7 1_555 1_555
C13 N2 1_555 1_555
C18 C20 1_555 1_555
C20 N1 1_555 1_555
N2 B1 1_555 1_555

#END
