
#######################################################################
#
#                 Cambridge Crystallographic Data Centre
#                                CCDC 
#
#######################################################################
#
# If this CIF has been generated from an entry in the Cambridge 
# Structural Database, then it will include bibliographic, chemical, 
# crystal, experimental, refinement or atomic coordinate data resulting 
# from the CCDC's data processing and validation procedures.
#
#######################################################################

data_JUCBEQ
_chemical_formula_moiety         'C21 H19 B1 F2 I2 N2 O2'
_chemical_name_systematic        
"methyl 4-(5,5-difluoro-2,8-diiodo-1,3,7,9-tetramethyl-5H-4\l^5^,5\l^5^-dipyrrolo[1,2-c:2',1'-f][1,3,2]diazaborinin-10-yl)benzoate"
_symmetry_cell_setting           triclinic
_symmetry_space_group_name_H-M   'P -1'
_symmetry_Int_Tables_number      2
_space_group_name_Hall           '-P 1'
loop_
_symmetry_equiv_pos_site_id
_symmetry_equiv_pos_as_xyz
1 x,y,z
2 -x,-y,-z
_cell_length_a                   10.0744(9)
_cell_length_b                   10.4080(10)
_cell_length_c                   11.8050(11)
_cell_angle_alpha                69.844(2)
_cell_angle_beta                 85.884(2)
_cell_angle_gamma                68.191(2)
_cell_volume                     1076.58
_cell_formula_units_Z            2
loop_
_atom_site_label
_atom_site_type_symbol
_atom_site_fract_x
_atom_site_fract_y
_atom_site_fract_z
I1 I 0.276784(10) 1.018595(10) 1.216104(8)
I2 I 0.762761(10) 0.407561(11) 0.615509(9)
C1 C 0.57821(16) 0.68766(18) 1.24473(13)
H1 H 0.6800 0.6643 1.2298
H2 H 0.5608 0.5960 1.2829
H3 H 0.5514 0.7459 1.2984
C2 C 0.49083(15) 0.77374(16) 1.12796(12)
C3 C 0.36969(15) 0.90545(15) 1.09890(12)
C4 C 0.32251(15) 0.94870(15) 0.97885(12)
C5 C 0.19672(16) 1.08373(16) 0.91478(14)
H4 H 0.1829 1.1594 0.9507
H5 H 0.1107 1.0593 0.9226
H6 H 0.2141 1.1210 0.8290
C6 C 0.41741(14) 0.83805(15) 0.93507(12)
C7 C 0.42152(14) 0.82056(14) 0.82214(12)
C8 C 0.52568(14) 0.70109(14) 0.79985(12)
C9 C 0.45122(16) 0.71949(17) 0.58276(13)
H7 H 0.4835 0.6523 0.5366
H8 H 0.4572 0.8146 0.5342
H9 H 0.3518 0.7338 0.6028
C10 C 0.54447(15) 0.65519(15) 0.69663(12)
C11 C 0.66542(15) 0.52691(15) 0.72726(13)
C12 C 0.71587(15) 0.49136(15) 0.84692(12)
C13 C 0.83665(16) 0.35878(16) 0.91961(14)
H10 H 0.8791 0.3835 0.9775
H11 H 0.9094 0.3249 0.8658
H12 H 0.8012 0.2804 0.9635
C14 C 0.31469(14) 0.93194(15) 0.72183(12)
C15 C 0.17516(15) 0.93677(16) 0.71966(12)
H13 H 0.1455 0.8709 0.7844
C16 C 0.07903(15) 1.03820(16) 0.62252(12)
H14 H -0.0170 1.0432 0.6217
C17 C 0.12375(14) 1.13258(15) 0.52620(12)
C18 C 0.26358(15) 1.12873(16) 0.52867(13)
H15 H 0.2936 1.1939 0.4635
C19 C 0.35827(15) 1.02925(17) 0.62676(13)
H16 H 0.4531 1.0272 0.6294
C20 C 0.01930(14) 1.23706(15) 0.42260(12)
C21 C -0.01053(17) 1.38967(18) 0.21833(14)
H17 H 0.0430 1.3973 0.1452
H18 H -0.0500 1.4858 0.2291
H19 H -0.0889 1.3584 0.2104
N1 N 0.51864(12) 0.73394(13) 1.02866(10)
N2 N 0.63188(12) 0.59693(13) 0.88941(10)
F1 F 0.65504(10) 0.47169(10) 1.10491(8)
F2 F 0.77623(9) 0.62464(10) 1.02716(8)
O1 O -0.10900(11) 1.27438(13) 0.42742(10)
O2 O 0.08449(11) 1.28240(12) 0.32230(9)
B1 B 0.64968(16) 0.60269(17) 1.01679(13)
loop_
_geom_bond_atom_site_label_1
_geom_bond_atom_site_label_2
_geom_bond_site_symmetry_1
_geom_bond_site_symmetry_2
I1 C3 1_555 1_555
I2 C11 1_555 1_555
C1 H1 1_555 1_555
H2 C1 1_555 1_555
H3 C1 1_555 1_555
C2 C1 1_555 1_555
C3 C2 1_555 1_555
C4 C3 1_555 1_555
C5 C4 1_555 1_555
H4 C5 1_555 1_555
H5 C5 1_555 1_555
H6 C5 1_555 1_555
C6 C4 1_555 1_555
C7 C6 1_555 1_555
C8 C7 1_555 1_555
C9 H7 1_555 1_555
H8 C9 1_555 1_555
H9 C9 1_555 1_555
C10 C8 1_555 1_555
C11 C10 1_555 1_555
C12 C11 1_555 1_555
C13 C12 1_555 1_555
H10 C13 1_555 1_555
H11 C13 1_555 1_555
H12 C13 1_555 1_555
C14 C7 1_555 1_555
C15 C14 1_555 1_555
H13 C15 1_555 1_555
C16 C15 1_555 1_555
H14 C16 1_555 1_555
C17 C16 1_555 1_555
C18 C17 1_555 1_555
H15 C18 1_555 1_555
C19 C14 1_555 1_555
H16 C19 1_555 1_555
C20 C17 1_555 1_555
C21 H17 1_555 1_555
H18 C21 1_555 1_555
H19 C21 1_555 1_555
N1 C2 1_555 1_555
N2 C8 1_555 1_555
F1 B1 1_555 1_555
F2 B1 1_555 1_555
O1 C20 1_555 1_555
O2 C20 1_555 1_555
B1 N1 1_555 1_555
C6 N1 1_555 1_555
C9 C10 1_555 1_555
C12 N2 1_555 1_555
C18 C19 1_555 1_555
C21 O2 1_555 1_555
N2 B1 1_555 1_555

#END
