
#######################################################################
#
#                 Cambridge Crystallographic Data Centre
#                                CCDC 
#
#######################################################################
#
# If this CIF has been generated from an entry in the Cambridge 
# Structural Database, then it will include bibliographic, chemical, 
# crystal, experimental, refinement or atomic coordinate data resulting 
# from the CCDC's data processing and validation procedures.
#
#######################################################################

data_JUCDUI
_chemical_formula_moiety         'C46 H57 N5 O3 S1 Si1'
_chemical_name_systematic        
(4-(2-(5-(2,2-bis(4-(diethylamino)phenyl)vinyl)-3-(2-((t-butyl(dimethyl)silyl)oxy)ethoxy)-2-thienyl)vinyl)-3-cyano-5,5-dimethylfuran-2(5H)-ylidene)malononitrile
_symmetry_cell_setting           monoclinic
_symmetry_space_group_name_H-M   'P 21/n'
_symmetry_Int_Tables_number      14
_space_group_name_Hall           '-P 2yn'
loop_
_symmetry_equiv_pos_site_id
_symmetry_equiv_pos_as_xyz
1 x,y,z
2 1/2-x,1/2+y,1/2-z
3 -x,-y,-z
4 1/2+x,1/2-y,1/2+z
_cell_length_a                   6.2311(13)
_cell_length_b                   27.413(6)
_cell_length_c                   26.198(6)
_cell_angle_alpha                90
_cell_angle_beta                 94.090(4)
_cell_angle_gamma                90
_cell_volume                     4463.57
_exptl_crystal_colour            blue
_exptl_crystal_description       Prism
_cell_formula_units_Z            4
loop_
_atom_site_label
_atom_site_type_symbol
_atom_site_fract_x
_atom_site_fract_y
_atom_site_fract_z
S1 S 0.20213(8) 0.296021(17) 0.349047(19)
Si1 Si -0.75176(9) 0.25277(2) 0.12160(2)
O1 O -0.3763(3) 0.50098(5) 0.26083(7)
O2 O -0.3056(2) 0.26327(5) 0.26211(6)
O3 O -0.5744(2) 0.24839(5) 0.17130(5)
N1 N -0.5589(5) 0.61705(8) 0.24815(10)
N2 N 0.0492(5) 0.62336(9) 0.34938(11)
N3 N 0.2410(4) 0.50257(9) 0.38076(10)
N4 N 0.5630(3) 0.39124(7) 0.49352(8)
N5 N 1.1584(3) 0.06066(7) 0.42802(8)
C1 C -0.3406(3) 0.44780(7) 0.26137(9)
C2 C -0.1427(3) 0.44176(7) 0.29824(8)
C3 C -0.0803(4) 0.48810(7) 0.31496(9)
C4 C -0.2251(4) 0.52325(8) 0.29187(9)
C5 C -0.5432(3) 0.42560(8) 0.28083(11)
H1 H -0.5553 0.4353 0.3165
H2 H -0.5355 0.3900 0.2786
H3 H -0.6694 0.4373 0.2599
C6 C -0.3044(4) 0.43388(9) 0.20656(9)
H4 H -0.4302 0.4433 0.1842
H5 H -0.2830 0.3985 0.2044
H6 H -0.1767 0.4508 0.1957
C7 C -0.2361(4) 0.57326(8) 0.29622(10)
C8 C -0.4138(5) 0.59815(8) 0.26996(11)
C9 C -0.0779(5) 0.60072(9) 0.32590(11)
C10 C 0.0971(4) 0.49774(8) 0.35109(10)
C11 C -0.0451(3) 0.39729(7) 0.31320(8)
H7 H 0.0775 0.3984 0.3369
C12 C -0.1154(3) 0.35220(7) 0.29573(8)
H8 H -0.2384 0.3521 0.2721
C13 C -0.0272(3) 0.30645(7) 0.30863(7)
C14 C -0.1237(3) 0.26199(7) 0.29295(7)
C15 C -0.0154(3) 0.22104(7) 0.31345(7)
H9 H -0.0610 0.1885 0.3067
C16 C 0.1666(3) 0.23301(7) 0.34489(7)
C17 C 0.3154(3) 0.19707(7) 0.36632(8)
H10 H 0.2855 0.1642 0.3567
C18 C 0.4949(3) 0.20420(7) 0.39890(7)
C19 C 0.5230(3) 0.25107(7) 0.42673(7)
C20 C 0.7043(3) 0.28067(7) 0.42264(8)
H11 H 0.8200 0.2689 0.4044
C21 C 0.7193(3) 0.32643(7) 0.44444(8)
H12 H 0.8438 0.3456 0.4404
C22 C 0.5530(3) 0.34534(7) 0.47271(8)
C23 C 0.3752(3) 0.31422(8) 0.47915(8)
H13 H 0.2635 0.3249 0.4994
C24 C 0.3617(3) 0.26877(7) 0.45657(7)
H14 H 0.2399 0.2489 0.4614
C25 C 0.3688(4) 0.41671(9) 0.50841(10)
H15 H 0.2416 0.4032 0.4884
H16 H 0.3800 0.4517 0.4996
C26 C 0.3350(5) 0.41219(10) 0.56450(11)
H17 H 0.3084 0.3780 0.5728
H18 H 0.2109 0.4320 0.5726
H19 H 0.4636 0.4237 0.5846
C27 C 0.7585(4) 0.42050(9) 0.49524(10)
H20 H 0.8841 0.3986 0.5010
H21 H 0.7584 0.4430 0.5248
C28 C 0.7846(5) 0.45009(10) 0.44716(12)
H22 H 0.7949 0.4280 0.4180
H23 H 0.9159 0.4698 0.4516
H24 H 0.6600 0.4716 0.4408
C29 C 0.6618(3) 0.16618(7) 0.40665(8)
C30 C 0.6803(3) 0.12709(7) 0.37246(8)
H25 H 0.5790 0.1244 0.3437
C31 C 0.8408(3) 0.09251(7) 0.37930(9)
H26 H 0.8470 0.0667 0.3553
C32 C 0.9958(3) 0.09464(7) 0.42118(9)
C33 C 0.9789(3) 0.13397(8) 0.45538(8)
H27 H 1.0803 0.1369 0.4840
C34 C 0.8171(3) 0.16831(7) 0.44787(8)
H28 H 0.8112 0.1944 0.4716
C35 C 1.3287(4) 0.06548(9) 0.46876(10)
H29 H 1.3645 0.1004 0.4735
H30 H 1.4591 0.0486 0.4584
C36 C 1.2676(5) 0.04445(10) 0.51963(12)
H31 H 1.1427 0.0620 0.5310
H32 H 1.3889 0.0480 0.5453
H33 H 1.2317 0.0098 0.5153
C37 C 1.1592(4) 0.01586(8) 0.39826(11)
H34 H 1.0090 0.0070 0.3872
H35 H 1.2202 -0.0107 0.4204
C38 C 1.2884(4) 0.01988(11) 0.35109(13)
H36 H 1.2253 0.0452 0.3283
H37 H 1.2853 -0.0115 0.3331
H38 H 1.4377 0.0285 0.3617
C39 C -0.4075(3) 0.21710(7) 0.24920(8)
H39 H -0.4337 0.1988 0.2807
H40 H -0.3139 0.1972 0.2284
C40 C -0.6165(3) 0.22785(8) 0.21937(8)
H41 H -0.7006 0.1974 0.2141
H42 H -0.7020 0.2510 0.2387
C41 C -0.6115(4) 0.23251(9) 0.06522(9)
H43 H -0.4826 0.2525 0.0622
H44 H -0.7079 0.2361 0.0342
H45 H -0.5698 0.1982 0.0695
C42 C -0.9916(4) 0.21389(10) 0.13045(11)
H46 H -0.9447 0.1806 0.1393
H47 H -1.0844 0.2133 0.0986
H48 H -1.0717 0.2273 0.1581
C43 C -0.8330(4) 0.31915(9) 0.11573(9)
C44 C -0.6393(5) 0.35045(10) 0.10317(11)
H49 H -0.5920 0.3409 0.0697
H50 H -0.5214 0.3455 0.1295
H51 H -0.6808 0.3849 0.1023
C45 C -0.9088(6) 0.33667(11) 0.16716(13)
H52 H -0.9505 0.3711 0.1644
H53 H -0.7915 0.3329 0.1939
H54 H -1.0326 0.3172 0.1760
C46 C -1.0146(5) 0.32619(11) 0.07370(13)
H55 H -1.0529 0.3608 0.0712
H56 H -1.1407 0.3072 0.0821
H57 H -0.9663 0.3150 0.0409
loop_
_geom_bond_atom_site_label_1
_geom_bond_atom_site_label_2
_geom_bond_site_symmetry_1
_geom_bond_site_symmetry_2
S1 C13 1_555 1_555
Si1 O3 1_555 1_555
O1 C1 1_555 1_555
O2 C14 1_555 1_555
O3 C40 1_555 1_555
N1 C8 1_555 1_555
N2 C9 1_555 1_555
N3 C10 1_555 1_555
N4 C22 1_555 1_555
N5 C32 1_555 1_555
C1 C2 1_555 1_555
C2 C3 1_555 1_555
C3 C4 1_555 1_555
C4 O1 1_555 1_555
C5 C1 1_555 1_555
H1 C5 1_555 1_555
H2 C5 1_555 1_555
H3 C5 1_555 1_555
C6 C1 1_555 1_555
H4 C6 1_555 1_555
H5 C6 1_555 1_555
H6 C6 1_555 1_555
C7 C4 1_555 1_555
C8 C7 1_555 1_555
C9 C7 1_555 1_555
C10 C3 1_555 1_555
C11 C2 1_555 1_555
H7 C11 1_555 1_555
C12 C11 1_555 1_555
H8 C12 1_555 1_555
C13 C12 1_555 1_555
C14 C13 1_555 1_555
C15 C14 1_555 1_555
H9 C15 1_555 1_555
C16 S1 1_555 1_555
C17 C16 1_555 1_555
H10 C17 1_555 1_555
C18 C17 1_555 1_555
C19 C18 1_555 1_555
C20 C19 1_555 1_555
H11 C20 1_555 1_555
C21 C20 1_555 1_555
H12 C21 1_555 1_555
C22 C21 1_555 1_555
C23 C22 1_555 1_555
H13 C23 1_555 1_555
C24 C19 1_555 1_555
H14 C24 1_555 1_555
C25 N4 1_555 1_555
H15 C25 1_555 1_555
H16 C25 1_555 1_555
C26 C25 1_555 1_555
H17 C26 1_555 1_555
H18 C26 1_555 1_555
H19 C26 1_555 1_555
C27 N4 1_555 1_555
H20 C27 1_555 1_555
H21 C27 1_555 1_555
C28 C27 1_555 1_555
H22 C28 1_555 1_555
H23 C28 1_555 1_555
H24 C28 1_555 1_555
C29 C18 1_555 1_555
C30 C29 1_555 1_555
H25 C30 1_555 1_555
C31 C30 1_555 1_555
H26 C31 1_555 1_555
C32 C31 1_555 1_555
C33 C32 1_555 1_555
H27 C33 1_555 1_555
C34 C29 1_555 1_555
H28 C34 1_555 1_555
C35 N5 1_555 1_555
H29 C35 1_555 1_555
H30 C35 1_555 1_555
C36 C35 1_555 1_555
H31 C36 1_555 1_555
H32 C36 1_555 1_555
H33 C36 1_555 1_555
C37 N5 1_555 1_555
H34 C37 1_555 1_555
H35 C37 1_555 1_555
C38 C37 1_555 1_555
H36 C38 1_555 1_555
H37 C38 1_555 1_555
H38 C38 1_555 1_555
C39 O2 1_555 1_555
H39 C39 1_555 1_555
H40 C39 1_555 1_555
C40 C39 1_555 1_555
H41 C40 1_555 1_555
H42 C40 1_555 1_555
C41 Si1 1_555 1_555
H43 C41 1_555 1_555
H44 C41 1_555 1_555
H45 C41 1_555 1_555
C42 Si1 1_555 1_555
H46 C42 1_555 1_555
H47 C42 1_555 1_555
H48 C42 1_555 1_555
C43 Si1 1_555 1_555
C44 C43 1_555 1_555
H49 C44 1_555 1_555
H50 C44 1_555 1_555
H51 C44 1_555 1_555
C45 C43 1_555 1_555
H52 C45 1_555 1_555
H53 C45 1_555 1_555
H54 C45 1_555 1_555
C46 C43 1_555 1_555
H55 C46 1_555 1_555
H56 C46 1_555 1_555
H57 C46 1_555 1_555
C15 C16 1_555 1_555
C23 C24 1_555 1_555
C33 C34 1_555 1_555

#END
