
#######################################################################
#
#                 Cambridge Crystallographic Data Centre
#                                CCDC 
#
#######################################################################
#
# If this CIF has been generated from an entry in the Cambridge 
# Structural Database, then it will include bibliographic, chemical, 
# crystal, experimental, refinement or atomic coordinate data resulting 
# from the CCDC's data processing and validation procedures.
#
#######################################################################

data_JUCPUU
_chemical_formula_moiety         'C17 H17 N1 O3'
_chemical_name_systematic        
3-(4-(Dimethylamino)phenyl)-3-hydroxy-1-(2-hydroxyphenyl)prop-2-en-1-one
_symmetry_cell_setting           monoclinic
_symmetry_space_group_name_H-M   'P 21/c'
_symmetry_Int_Tables_number      14
_space_group_name_Hall           '-P 2ybc'
loop_
_symmetry_equiv_pos_site_id
_symmetry_equiv_pos_as_xyz
1 x,y,z
2 -x,1/2+y,1/2-z
3 -x,-y,-z
4 x,1/2-y,1/2+z
_cell_length_a                   11.877(2)
_cell_length_b                   10.491(2)
_cell_length_c                   12.835(3)
_cell_angle_alpha                90
_cell_angle_beta                 117.51(3)
_cell_angle_gamma                90
_cell_volume                     1418.43
_exptl_crystal_colour            red
_exptl_crystal_description       block
_cell_formula_units_Z            4
loop_
_atom_site_label
_atom_site_type_symbol
_atom_site_fract_x
_atom_site_fract_y
_atom_site_fract_z
O1 O -0.31850(11) 0.10474(14) 0.45224(9)
H1 H -0.2530 0.0719 0.4585
O2 O -0.15079(10) 0.04704(12) 0.39052(8)
O3 O 0.02664(10) -0.00537(12) 0.34422(9)
H2 H -0.0183 -0.0101 0.3770
N1 N 0.24595(10) 0.11275(12) -0.00778(9)
C1 C -0.37390(14) 0.17226(15) 0.35107(12)
C2 C -0.48883(15) 0.23141(19) 0.32386(15)
H3 H -0.5258 0.2203 0.3733
C3 C -0.54847(15) 0.30541(19) 0.22611(16)
H4 H -0.6251 0.3446 0.2097
C4 C -0.49521(14) 0.32254(16) 0.15098(14)
H5 H -0.5351 0.3742 0.0850
C5 C -0.38295(13) 0.26243(14) 0.17502(12)
H6 H -0.3486 0.2726 0.1235
C6 C -0.31880(12) 0.18622(14) 0.27500(11)
C7 C -0.19805(12) 0.12139(14) 0.30167(11)
C8 C -0.13534(12) 0.13923(13) 0.23232(11)
H7 H -0.1692 0.1963 0.1698
C9 C -0.02526(12) 0.07456(13) 0.25444(10)
C10 C 0.04341(11) 0.08703(12) 0.18625(10)
C11 C 0.00512(12) 0.16949(14) 0.09055(11)
H8 H -0.0677 0.2183 0.0686
C12 C 0.07208(12) 0.18043(14) 0.02810(11)
H9 H 0.0449 0.2377 -0.0341
C13 C 0.18164(11) 0.10629(12) 0.05651(10)
C14 C 0.22152(12) 0.02544(14) 0.15434(11)
H10 H 0.2948 -0.0229 0.1772
C15 C 0.15434(12) 0.01651(14) 0.21663(11)
H11 H 0.1832 -0.0380 0.2810
C16 C 0.20713(14) 0.19957(18) -0.10544(13)
H12 H 0.1193 0.1856 -0.1592
H13 H 0.2576 0.1852 -0.1450
H14 H 0.2186 0.2857 -0.0771
C17 C 0.35532(13) 0.03278(16) 0.01946(13)
H15 H 0.4226 0.0558 0.0951
H16 H 0.3832 0.0444 -0.0392
H17 H 0.3328 -0.0549 0.0206
loop_
_geom_bond_atom_site_label_1
_geom_bond_atom_site_label_2
_geom_bond_site_symmetry_1
_geom_bond_site_symmetry_2
O1 H1 1_555 1_555
O2 C7 1_555 1_555
O3 H2 1_555 1_555
N1 C13 1_555 1_555
C1 O1 1_555 1_555
C2 C1 1_555 1_555
H3 C2 1_555 1_555
C3 C2 1_555 1_555
H4 C3 1_555 1_555
C4 C3 1_555 1_555
H5 C4 1_555 1_555
C5 C4 1_555 1_555
H6 C5 1_555 1_555
C6 C1 1_555 1_555
C7 C6 1_555 1_555
C8 C7 1_555 1_555
H7 C8 1_555 1_555
C9 O3 1_555 1_555
C10 C9 1_555 1_555
C11 C10 1_555 1_555
H8 C11 1_555 1_555
C12 C11 1_555 1_555
H9 C12 1_555 1_555
C13 C12 1_555 1_555
C14 C13 1_555 1_555
H10 C14 1_555 1_555
C15 C10 1_555 1_555
H11 C15 1_555 1_555
C16 N1 1_555 1_555
H12 C16 1_555 1_555
H13 C16 1_555 1_555
H14 C16 1_555 1_555
C17 N1 1_555 1_555
H15 C17 1_555 1_555
H16 C17 1_555 1_555
H17 C17 1_555 1_555
C5 C6 1_555 1_555
C8 C9 1_555 1_555
C14 C15 1_555 1_555

#END
