
#######################################################################
#
#                 Cambridge Crystallographic Data Centre
#                                CCDC 
#
#######################################################################
#
# If this CIF has been generated from an entry in the Cambridge 
# Structural Database, then it will include bibliographic, chemical, 
# crystal, experimental, refinement or atomic coordinate data resulting 
# from the CCDC's data processing and validation procedures.
#
#######################################################################

data_JUCPII
_chemical_formula_moiety         'C8 H4 N16 O19'
_chemical_name_systematic        
N,N'-bis(2,2,2-Trinitroethyl)-3,3'-dinitramino-4,4'-azoxyfurazan
_symmetry_cell_setting           monoclinic
_symmetry_space_group_name_H-M   'P 21/n'
_symmetry_Int_Tables_number      14
_space_group_name_Hall           '-P 2yn'
loop_
_symmetry_equiv_pos_site_id
_symmetry_equiv_pos_as_xyz
1 x,y,z
2 1/2-x,1/2+y,1/2-z
3 -x,-y,-z
4 1/2+x,1/2-y,1/2+z
_cell_length_a                   7.6635(6)
_cell_length_b                   9.5134(7)
_cell_length_c                   15.1332(12)
_cell_angle_alpha                90
_cell_angle_beta                 99.571(3)
_cell_angle_gamma                90
_cell_volume                     1087.94
_cell_formula_units_Z            2
loop_
_atom_site_label
_atom_site_type_symbol
_atom_site_fract_x
_atom_site_fract_y
_atom_site_fract_z
C1 C -0.066(2) 0.7245(16) -0.2592(9)
H1 H -0.1785 0.7154 -0.2977
C2 C 0.0489(14) 0.6185(11) -0.2982(7)
N1 N 0.0150(15) 0.5747(8) 0.0283(12)
O1 O 0.1314(11) 0.9163(7) -0.0212(5)
N2 N 0.1275(10) 0.8052(7) 0.0363(5)
C3 C 0.0394(14) 0.7090(7) -0.0118(7)
C4 C -0.021(2) 0.7596(12) -0.1000(8)
N3 N 0.0353(16) 0.8874(11) -0.1051(5)
N4 N -0.1048(18) 0.683(2) -0.1715(9)
N5 N -0.2763(15) 0.6306(16) -0.1644(6)
N6 N 0.2122(19) 0.5831(15) -0.2290(9)
N7 N -0.048(3) 0.4853(19) -0.3356(11)
N8 N 0.118(2) 0.695(3) -0.3740(16)
O2 O 0.0005(5) 0.5763(3) 0.1087(2)
O3 O -0.367(2) 0.5921(19) -0.2345(9)
O4 O -0.318(2) 0.6328(12) -0.0912(8)
O5 O 0.274(2) 0.680(2) -0.1815(11)
O6 O 0.257(3) 0.4601(16) -0.2239(10)
O7 O -0.1023(16) 0.4169(13) -0.2762(9)
O8 O -0.0181(15) 0.4531(15) -0.4109(9)
O9 O 0.018(3) 0.7811(18) -0.4148(10)
O10 O 0.259(2) 0.6550(18) -0.3928(11)
H2 H -0.0295 0.8210 -0.2595
C1B C 0.066(2) 0.2755(16) 0.2592(9)
H1B H 0.1785 0.2846 0.2977
C2B C -0.0489(14) 0.3815(11) 0.2982(7)
N1B N -0.0150(15) 0.4253(8) -0.0283(12)
O1B O -0.1314(11) 0.0837(7) 0.0212(5)
N2B N -0.1275(10) 0.1948(7) -0.0363(5)
C3B C -0.0394(14) 0.2910(7) 0.0118(7)
C4B C 0.021(2) 0.2404(12) 0.1000(8)
N3B N -0.0353(16) 0.1126(11) 0.1051(5)
N4B N 0.1048(18) 0.317(2) 0.1715(9)
N5B N 0.2763(15) 0.3694(16) 0.1644(6)
N6B N -0.2122(19) 0.4169(15) 0.2290(9)
N7B N 0.048(3) 0.5147(19) 0.3356(11)
N8B N -0.118(2) 0.305(3) 0.3740(16)
O2B O -0.0005(5) 0.4237(3) -0.1087(2)
O3B O 0.367(2) 0.4079(19) 0.2345(9)
O4B O 0.318(2) 0.3672(12) 0.0912(8)
O5B O -0.274(2) 0.320(2) 0.1815(11)
O6B O -0.257(3) 0.5399(16) 0.2239(10)
O7B O 0.1023(16) 0.5831(13) 0.2762(9)
O8B O 0.0181(15) 0.5469(15) 0.4109(9)
O9B O -0.018(3) 0.2189(18) 0.4148(10)
O10B O -0.259(2) 0.3450(18) 0.3928(11)
H2B H 0.0295 0.1790 0.2595
N9? N -0.1103(11) 0.2510(6) -0.0463(5)
N10? N -0.0214(17) 0.1454(11) 0.0872(6)
O11? O 0.1162(10) 0.8708(7) -0.0010(5)
C5? C -0.0224(11) 0.3426(8) 0.0083(6)
C6? C -0.032(2) 0.7263(11) -0.0923(8)
N11? N -0.1269(16) 0.6841(18) -0.1794(8)
N12? N -0.2972(14) 0.6280(14) -0.1773(7)
O12? O -0.325(2) 0.5948(13) -0.1018(8)
O13? O -0.393(2) 0.608(2) -0.2489(10)
C7? C -0.093(2) 0.7325(14) -0.2657(8)
N13? N -0.048(3) 0.4997(19) -0.3405(11)
O14? O -0.1364(15) 0.4374(13) -0.2953(9)
O15? O -0.0662(16) 0.4723(15) -0.4177(9)
N14? N -0.0008(16) 0.4751(7) -0.0260(12)
C8? C 0.0369(14) 0.6356(11) -0.3032(7)
N15? N 0.1926(17) 0.5815(13) -0.2355(8)
O16? O 0.243(2) 0.4624(16) -0.2449(10)
O17? O 0.261(2) 0.668(2) -0.1815(9)
O18? O 0.2749(19) 0.6824(18) -0.3775(11)
O19? O 0.013(3) 0.770(2) -0.4326(10)
N16? N 0.115(2) 0.700(3) -0.3805(15)
H3? H -0.0225 0.8158 -0.2525
H4? H -0.1958 0.7570 -0.3081
loop_
_geom_bond_atom_site_label_1
_geom_bond_atom_site_label_2
_geom_bond_site_symmetry_1
_geom_bond_site_symmetry_2
C1 H1 1_555 1_555
C2 C1 1_555 1_555
N1 C3 1_555 1_555
O1 N2 1_555 1_555
N2 C3 1_555 1_555
C3 C4 1_555 1_555
C4 N3 1_555 1_555
N3 O1 1_555 1_555
N4 C1 1_555 1_555
N5 N4 1_555 1_555
N6 C2 1_555 1_555
N7 C2 1_555 1_555
N8 C2 1_555 1_555
O2 N1 1_555 1_555
O3 N5 1_555 1_555
O4 N5 1_555 1_555
O5 N6 1_555 1_555
O6 N6 1_555 1_555
O7 N7 1_555 1_555
O8 N7 1_555 1_555
O9 N8 1_555 1_555
O10 N8 1_555 1_555
H2 C1 1_555 1_555
C1B H1B 1_555 1_555
C2B C1B 1_555 1_555
N1B N1 1_555 1_555
O1B N2B 1_555 1_555
N2B C3B 1_555 1_555
C3B N1B 1_555 1_555
C4B C3B 1_555 1_555
N3B O1B 1_555 1_555
N4B C1B 1_555 1_555
N5B N4B 1_555 1_555
N6B C2B 1_555 1_555
N7B C2B 1_555 1_555
N8B C2B 1_555 1_555
O2B N1B 1_555 1_555
O3B N5B 1_555 1_555
O4B N5B 1_555 1_555
O5B N6B 1_555 1_555
O6B N6B 1_555 1_555
O7B N7B 1_555 1_555
O8B N7B 1_555 1_555
O9B N8B 1_555 1_555
O10B N8B 1_555 1_555
H2B C1B 1_555 1_555
C4 N4 1_555 1_555
C4B N3B 1_555 1_555
C4B N4B 1_555 1_555

#END
