
#######################################################################
#
#                 Cambridge Crystallographic Data Centre
#                                CCDC 
#
#######################################################################
#
# If this CIF has been generated from an entry in the Cambridge 
# Structural Database, then it will include bibliographic, chemical, 
# crystal, experimental, refinement or atomic coordinate data resulting 
# from the CCDC's data processing and validation procedures.
#
#######################################################################

data_JUCSOR
_chemical_compound_source        'endophytic fungus Eutypella scoparia PSU-H267'
_chemical_name_common            '[12]-Cytochalasin'
_chemical_formula_moiety         'C28 H33 N1 O6'
_chemical_name_systematic        
13-(4-Hydroxybenzyl)-4,6,14,14a-tetramethyl-13,13a,14,14a,15a,15b-hexahydro-3H-oxacyclododecino[2,3-d]oxireno[f]isoindole-5,9,11(4H,8H,12H)-trione
_chemical_properties_biological  
'tested for antimicrobial, antimycobacterial and cytotoxic activity'
_symmetry_cell_setting           orthorhombic
_symmetry_space_group_name_H-M   'P 21 21 21'
_symmetry_Int_Tables_number      19
_space_group_name_Hall           'P 2ac 2ab'
loop_
_symmetry_equiv_pos_site_id
_symmetry_equiv_pos_as_xyz
1 x,y,z
2 1/2-x,-y,1/2+z
3 -x,1/2+y,1/2-z
4 1/2+x,1/2-y,-z
_cell_length_a                   7.4855(4)
_cell_length_b                   15.2669(9)
_cell_length_c                   21.8092(12)
_cell_angle_alpha                90
_cell_angle_beta                 90
_cell_angle_gamma                90
_cell_volume                     2492.36
_exptl_crystal_colour            colorless
_exptl_crystal_description       Block
_cell_formula_units_Z            4
loop_
_atom_site_label
_atom_site_type_symbol
_atom_site_fract_x
_atom_site_fract_y
_atom_site_fract_z
C1 C 0.3647(5) 0.9327(3) 0.84349(18)
C2 C 0.2680(5) 0.9184(3) 1.05804(17)
C3 C 0.3398(6) 0.8485(3) 1.0893(2)
H1 H 0.3590 0.7962 1.0685
C4 C 0.3843(6) 0.8540(3) 1.1510(2)
H2 H 0.4337 0.8059 1.1709
C5 C 0.3727(5) 0.9567(3) 0.95087(18)
H3 H 0.4155 1.0103 0.9707
C6 C 0.5352(5) 0.8974(3) 0.93569(18)
C7 C 0.3551(5) 0.9304(3) 1.18240(17)
C8 C 0.2827(6) 1.0017(3) 1.1523(2)
H4 H 0.2630 1.0538 1.1733
C9 C 0.7172(6) 0.9326(3) 0.95954(18)
H5 H 0.8082 0.8899 0.9471
C10 C 0.2396(7) 0.9954(3) 1.0909(2)
H6 H 0.1905 1.0437 1.0710
C11 C 0.7601(6) 1.0172(3) 0.92622(19)
C12 C 0.7500(6) 1.0103(3) 0.85890(19)
H7 H 0.7104 1.0620 0.8361
C13 C 0.7036(5) 0.9217(3) 0.83295(17)
H8 H 0.8014 0.8826 0.8449
C14 C 0.5339(5) 0.8856(3) 0.86540(17)
C15 C 0.2270(6) 0.9153(4) 0.99075(18)
H9 H 0.1152 0.9457 0.9834
H10 H 0.2111 0.8547 0.9785
C16 C 0.7243(7) 0.9380(4) 1.0295(2)
H11 H 0.6298 0.9752 1.0439
H12 H 0.8373 0.9618 1.0420
H13 H 0.7102 0.8804 1.0466
C17 C 0.7408(8) 1.1035(3) 0.9581(2)
H14 H 0.8241 1.1065 0.9915
H15 H 0.6213 1.1092 0.9736
H16 H 0.7647 1.1500 0.9297
C18 C 0.6941(6) 0.9172(3) 0.76421(18)
H17 H 0.6209 0.9568 0.7438
C19 C 0.7842(6) 0.8603(3) 0.7318(2)
H18 H 0.8611 0.8239 0.7536
C20 C 0.7782(7) 0.8466(3) 0.6638(2)
H19 H 0.8974 0.8539 0.6471
H20 H 0.7019 0.8908 0.6454
C21 C 0.7069(6) 0.7540(3) 0.6463(2)
H21 H 0.7526 0.7111 0.6757
C22 C 0.5038(7) 0.7573(3) 0.6509(2)
C23 C 0.4051(6) 0.7235(3) 0.7049(2)
C24 C 0.4894(6) 0.6854(3) 0.7524(2)
H22 H 0.6094 0.6712 0.7475
C25 C 0.4037(7) 0.6645(3) 0.8124(2)
H23 H 0.4769 0.6227 0.8346
H24 H 0.2876 0.6381 0.8054
C26 C 0.3825(6) 0.7464(3) 0.8497(2)
C27 C 0.7644(9) 0.7272(4) 0.5817(2)
H25 H 0.7259 0.6683 0.5737
H26 H 0.8921 0.7304 0.5785
H27 H 0.7112 0.7660 0.5523
C28 C 0.2082(7) 0.7423(4) 0.7064(3)
H28 H 0.1872 0.7953 0.7290
H29 H 0.1469 0.6946 0.7258
H30 H 0.1648 0.7492 0.6652
N1 N 0.3011(5) 0.9787(2) 0.89045(15)
H31 H 0.2223 1.0192 0.8855
O1 O 0.3044(4) 0.9309(2) 0.79135(13)
O2 O 0.9221(4) 1.0144(2) 0.88869(15)
O3 O 0.3967(5) 0.9341(2) 1.24346(13)
H32 H 0.4047 0.8843 1.2572
O4 O 0.4210(6) 0.7920(3) 0.60953(18)
O5 O 0.2537(4) 0.7690(2) 0.87845(16)
O6 O 0.5326(4) 0.79532(17) 0.84508(13)
H33 H 0.517(6) 0.840(3) 0.9499(19)
loop_
_geom_bond_atom_site_label_1
_geom_bond_atom_site_label_2
_geom_bond_site_symmetry_1
_geom_bond_site_symmetry_2
C1 C14 1_555 1_555
C2 C3 1_555 1_555
C3 H1 1_555 1_555
C4 C3 1_555 1_555
H2 C4 1_555 1_555
C5 H3 1_555 1_555
C6 C5 1_555 1_555
C7 C4 1_555 1_555
C8 C7 1_555 1_555
H4 C8 1_555 1_555
C9 C6 1_555 1_555
H5 C9 1_555 1_555
C10 C2 1_555 1_555
H6 C10 1_555 1_555
C11 C9 1_555 1_555
C12 C11 1_555 1_555
H7 C12 1_555 1_555
C13 C12 1_555 1_555
H8 C13 1_555 1_555
C14 C6 1_555 1_555
C15 C2 1_555 1_555
H9 C15 1_555 1_555
H10 C15 1_555 1_555
C16 C9 1_555 1_555
H11 C16 1_555 1_555
H12 C16 1_555 1_555
H13 C16 1_555 1_555
C17 C11 1_555 1_555
H14 C17 1_555 1_555
H15 C17 1_555 1_555
H16 C17 1_555 1_555
C18 C13 1_555 1_555
H17 C18 1_555 1_555
C19 C18 1_555 1_555
H18 C19 1_555 1_555
C20 C19 1_555 1_555
H19 C20 1_555 1_555
H20 C20 1_555 1_555
C21 C20 1_555 1_555
H21 C21 1_555 1_555
C22 C21 1_555 1_555
C23 C22 1_555 1_555
C24 C23 1_555 1_555
H22 C24 1_555 1_555
C25 C24 1_555 1_555
H23 C25 1_555 1_555
H24 C25 1_555 1_555
C26 C25 1_555 1_555
C27 C21 1_555 1_555
H25 C27 1_555 1_555
H26 C27 1_555 1_555
H27 C27 1_555 1_555
C28 C23 1_555 1_555
H28 C28 1_555 1_555
H29 C28 1_555 1_555
H30 C28 1_555 1_555
N1 C1 1_555 1_555
H31 N1 1_555 1_555
O1 C1 1_555 1_555
O2 C11 1_555 1_555
O3 C7 1_555 1_555
H32 O3 1_555 1_555
O4 C22 1_555 1_555
O5 C26 1_555 1_555
O6 C14 1_555 1_555
H33 C6 1_555 1_555
C5 C15 1_555 1_555
C5 N1 1_555 1_555
C8 C10 1_555 1_555
C12 O2 1_555 1_555
C13 C14 1_555 1_555
C26 O6 1_555 1_555

#END
