
#######################################################################
#
#                 Cambridge Crystallographic Data Centre
#                                CCDC 
#
#######################################################################
#
# If this CIF has been generated from an entry in the Cambridge 
# Structural Database, then it will include bibliographic, chemical, 
# crystal, experimental, refinement or atomic coordinate data resulting 
# from the CCDC's data processing and validation procedures.
#
#######################################################################

data_JUCTOS
_chemical_compound_source        'Usnea longissima'
_chemical_formula_moiety         'C20 H23 N1 O7'
_chemical_name_systematic        
6-Acetyl-2-(1-aminoethylidene)-4a-ethoxy-7,9-dihydroxy-8,9b-dimethyl-4a,9b-dihydrodibenzo[b,d]furan-1,3(2H,4H)-dione
_chemical_properties_biological  'human hepatoma HepG2 inhibitory activity'
_symmetry_cell_setting           monoclinic
_symmetry_space_group_name_H-M   'P 21'
_symmetry_Int_Tables_number      4
_space_group_name_Hall           'P 2yb'
loop_
_symmetry_equiv_pos_site_id
_symmetry_equiv_pos_as_xyz
1 x,y,z
2 -x,1/2+y,-z
_cell_length_a                   11.62935(18)
_cell_length_b                   9.99614(17)
_cell_length_c                   16.9428(2)
_cell_angle_alpha                90
_cell_angle_beta                 93.8401(13)
_cell_angle_gamma                90
_cell_volume                     1965.15
_cell_formula_units_Z            4
loop_
_atom_site_label
_atom_site_type_symbol
_atom_site_fract_x
_atom_site_fract_y
_atom_site_fract_z
O1 O -0.90845(10) -0.21833(12) -0.15863(8)
O2 O -0.94184(9) -0.68204(11) -0.15112(6)
O3 O -1.20096(11) -0.86727(13) -0.02516(7)
O4 O -0.57442(10) -0.48185(12) -0.12812(7)
O5 O -1.28191(10) -0.63724(13) -0.00393(7)
H1 H -1.2753 -0.7207 0.0003
N1 N -0.55096(12) -0.22534(15) -0.15410(9)
H2 H -0.5176 -0.3018 -0.1407
H3 H -0.5088 -0.1531 -0.1593
O6 O -0.83092(10) -0.62010(11) -0.25408(7)
C1 C -1.19626(14) -0.58895(17) -0.04571(9)
O7 O -1.11423(10) -0.26374(12) -0.11699(8)
H4 H -1.0519 -0.2393 -0.1348
C2 C -0.68019(14) -0.46165(16) -0.13659(9)
C3 C -1.12057(14) -0.82107(18) -0.06114(9)
C4 C -0.92988(14) -0.44953(16) -0.18618(9)
C5 C -1.02389(13) -0.47838(17) -0.13027(9)
C6 C -0.86220(13) -0.58268(15) -0.17953(9)
C7 C -0.85619(14) -0.32511(17) -0.16479(9)
C8 C -1.11052(14) -0.39607(17) -0.10269(10)
C9 C -1.02709(13) -0.61427(16) -0.11693(9)
C10 C -1.19734(13) -0.45148(17) -0.05951(9)
C11 C -0.66276(14) -0.21900(16) -0.16618(9)
C12 C -1.11236(14) -0.67722(17) -0.07444(9)
C13 C -1.03359(16) -0.91644(16) -0.09079(10)
H5 H -1.0538 -1.0081 -0.0766
H6 H -0.9569 -0.8946 -0.0667
H7 H -1.0332 -0.9090 -0.1484
C14 C -0.73224(13) -0.33491(16) -0.15800(9)
C15 C -0.76128(13) -0.57330(15) -0.11779(9)
H8 H -0.7908 -0.5575 -0.0651
H9 H -0.7188 -0.6592 -0.1157
C16 C -0.76415(16) -0.73990(18) -0.25983(10)
H10 H -0.8027 -0.8158 -0.2349
H11 H -0.6867 -0.7280 -0.2328
C17 C -0.71146(15) -0.08452(17) -0.18977(10)
H12 H -0.6489 -0.0253 -0.2039
H13 H -0.7500 -0.0458 -0.1454
H14 H -0.7672 -0.0948 -0.2354
C18 C -0.98312(15) -0.42473(17) -0.27084(10)
H15 H -1.0314 -0.3444 -0.2713
H16 H -1.0303 -0.5019 -0.2881
H17 H -0.9214 -0.4122 -0.3068
C19 C -1.29084(15) -0.36606(18) -0.02860(11)
H18 H -1.2790 -0.3587 0.0291
H19 H -1.3660 -0.4071 -0.0425
H20 H -1.2884 -0.2767 -0.0522
C20 C -0.75463(19) -0.7661(2) -0.34697(12)
H21 H -0.7054 -0.8443 -0.3537
H22 H -0.7209 -0.6878 -0.3715
H23 H -0.8315 -0.7831 -0.3723
O8 O -1.43402(10) -0.98186(12) -0.17032(7)
O9 O -1.15144(10) -0.72236(12) -0.28286(7)
O10 O -1.34932(9) -1.04232(11) -0.38954(7)
N2 N -1.44542(12) -0.72408(15) -0.15553(9)
H24 H -1.4689 -0.8029 -0.1400
H25 H -1.4772 -0.6508 -0.1382
O11 O -1.49835(14) -0.98489(18) -0.62353(9)
O12 O -1.19107(10) -1.17425(12) -0.35527(7)
C21 C -1.35535(13) -0.96396(17) -0.21581(9)
C22 C -1.25414(13) -1.06544(16) -0.33037(9)
C23 C -1.31055(13) -0.83463(17) -0.23326(9)
C24 C -1.17658(14) -0.94061(16) -0.33261(9)
O13 O -1.07371(11) -0.71496(14) -0.43052(8)
H26 H -1.0786 -0.7059 -0.3816
C25 C -1.36325(13) -0.71578(16) -0.20443(9)
C26 C -1.30431(14) -1.08761(16) -0.25120(9)
H27 H -1.3651 -1.1569 -0.2576
H28 H -1.2429 -1.1227 -0.2135
C27 C -1.33322(15) -0.57833(16) -0.23114(10)
H29 H -1.2556 -0.5550 -0.2094
H30 H -1.3888 -0.5139 -0.2124
H31 H -1.3356 -0.5760 -0.2890
C28 C -1.21101(13) -0.82411(17) -0.27967(9)
C29 C -1.30715(14) -0.95768(16) -0.44470(9)
O14 O -1.34385(15) -0.81108(16) -0.64152(8)
H32 H -1.4053 -0.8536 -0.6521
C30 C -1.25202(16) -1.30009(16) -0.36163(10)
H33 H -1.3355 -1.2841 -0.3730
H34 H -1.2412 -1.3503 -0.3113
C31 C -1.45798(17) -1.0102(2) -0.55565(11)
C32 C -1.30281(18) -0.8401(2) -0.56698(10)
C33 C -1.04878(14) -0.9741(2) -0.31533(11)
H35 H -1.0198 -1.0207 -0.3609
H36 H -1.0397 -1.0318 -0.2685
H37 H -1.0051 -0.8913 -0.3055
C34 C -1.16240(16) -0.79138(17) -0.46066(11)
C35 C -1.20963(15) -0.89215(17) -0.41597(9)
C36 C -1.51441(19) -1.1185(2) -0.51054(13)
H38 H -1.5772 -1.1584 -0.5441
H39 H -1.5454 -1.0803 -0.4631
H40 H -1.4574 -1.1875 -0.4950
C37 C -1.35824(16) -0.93820(17) -0.52159(10)
C38 C -1.20767(18) -0.76656(19) -0.53752(11)
C39 C -1.20425(19) -1.3791(2) -0.42805(11)
H41 H -1.1206 -1.3885 -0.4182
H42 H -1.2212 -1.3321 -0.4782
H43 H -1.2399 -1.4679 -0.4308
C40 C -1.1575(3) -0.6583(2) -0.58657(13)
H44 H -1.2198 -0.6021 -0.6101
H45 H -1.1154 -0.6990 -0.6286
H46 H -1.1046 -0.6032 -0.5529
loop_
_geom_bond_atom_site_label_1
_geom_bond_atom_site_label_2
_geom_bond_site_symmetry_1
_geom_bond_site_symmetry_2
O1 C7 1_555 1_555
O2 C6 1_555 1_555
O3 C3 1_555 1_555
O4 C2 1_555 1_555
O5 H1 1_555 1_555
N1 H2 1_555 1_555
H3 N1 1_555 1_555
O6 C6 1_555 1_555
C1 O5 1_555 1_555
O7 H4 1_555 1_555
C2 C14 1_555 1_555
C3 C12 1_555 1_555
C4 C5 1_555 1_555
C5 C8 1_555 1_555
C6 C4 1_555 1_555
C7 C4 1_555 1_555
C8 O7 1_555 1_555
C9 O2 1_555 1_555
C10 C1 1_555 1_555
C11 N1 1_555 1_555
C12 C1 1_555 1_555
C13 C3 1_555 1_555
H5 C13 1_555 1_555
H6 C13 1_555 1_555
H7 C13 1_555 1_555
C14 C7 1_555 1_555
C15 C2 1_555 1_555
H8 C15 1_555 1_555
H9 C15 1_555 1_555
C16 O6 1_555 1_555
H10 C16 1_555 1_555
H11 C16 1_555 1_555
C17 C11 1_555 1_555
H12 C17 1_555 1_555
H13 C17 1_555 1_555
H14 C17 1_555 1_555
C18 C4 1_555 1_555
H15 C18 1_555 1_555
H16 C18 1_555 1_555
H17 C18 1_555 1_555
C19 C10 1_555 1_555
H18 C19 1_555 1_555
H19 C19 1_555 1_555
H20 C19 1_555 1_555
C20 C16 1_555 1_555
H21 C20 1_555 1_555
H22 C20 1_555 1_555
H23 C20 1_555 1_555
O8 C21 1_555 1_555
O9 C28 1_555 1_555
O10 C22 1_555 1_555
N2 H24 1_555 1_555
H25 N2 1_555 1_555
O11 C31 1_555 1_555
O12 C22 1_555 1_555
C21 C23 1_555 1_555
C22 C24 1_555 1_555
C23 C25 1_555 1_555
C24 C28 1_555 1_555
O13 H26 1_555 1_555
C25 N2 1_555 1_555
C26 C21 1_555 1_555
H27 C26 1_555 1_555
H28 C26 1_555 1_555
C27 C25 1_555 1_555
H29 C27 1_555 1_555
H30 C27 1_555 1_555
H31 C27 1_555 1_555
C28 C23 1_555 1_555
C29 O10 1_555 1_555
O14 H32 1_555 1_555
C30 O12 1_555 1_555
H33 C30 1_555 1_555
H34 C30 1_555 1_555
C31 C36 1_555 1_555
C32 O14 1_555 1_555
C33 C24 1_555 1_555
H35 C33 1_555 1_555
H36 C33 1_555 1_555
H37 C33 1_555 1_555
C34 O13 1_555 1_555
C35 C24 1_555 1_555
C36 H38 1_555 1_555
H39 C36 1_555 1_555
H40 C36 1_555 1_555
C37 C29 1_555 1_555
C38 C32 1_555 1_555
C39 C30 1_555 1_555
H41 C39 1_555 1_555
H42 C39 1_555 1_555
H43 C39 1_555 1_555
C40 C38 1_555 1_555
H44 C40 1_555 1_555
H45 C40 1_555 1_555
H46 C40 1_555 1_555
C5 C9 1_555 1_555
C6 C15 1_555 1_555
C8 C10 1_555 1_555
C9 C12 1_555 1_555
C11 C14 1_555 1_555
C22 C26 1_555 1_555
C29 C35 1_555 1_555
C31 C37 1_555 1_555
C32 C37 1_555 1_555
C34 C35 1_555 1_555
C34 C38 1_555 1_555

#END
