
#######################################################################
#
#                 Cambridge Crystallographic Data Centre
#                                CCDC 
#
#######################################################################
#
# If this CIF has been generated from an entry in the Cambridge 
# Structural Database, then it will include bibliographic, chemical, 
# crystal, experimental, refinement or atomic coordinate data resulting 
# from the CCDC's data processing and validation procedures.
#
#######################################################################

data_JUDMUQ
_chemical_formula_moiety         'C25 H10 B1 F15 N2,2(C7 H8)'
_chemical_name_systematic        
'(4-(Trimethylamino)pyridyl) tris(pentafluorophenyl)borane'
_symmetry_cell_setting           orthorhombic
_symmetry_space_group_name_H-M   'P b c a'
_symmetry_Int_Tables_number      61
_space_group_name_Hall           '-P 2ac 2ab'
loop_
_symmetry_equiv_pos_site_id
_symmetry_equiv_pos_as_xyz
1 x,y,z
2 1/2-x,-y,1/2+z
3 1/2+x,1/2-y,-z
4 -x,1/2+y,1/2-z
5 -x,-y,-z
6 1/2+x,y,1/2-z
7 1/2-x,1/2+y,z
8 x,1/2-y,1/2+z
_cell_length_a                   12.322(1)
_cell_length_b                   20.556(2)
_cell_length_c                   28.455(3)
_cell_angle_alpha                90
_cell_angle_beta                 90
_cell_angle_gamma                90
_cell_volume                     7207.4
_exptl_crystal_colour            colorless
_chemical_melting_point          225.2-226.5deg.C(dec.)
_cell_formula_units_Z            8
_exptl_crystal_recrystallization_method toluene/hexanes
loop_
_atom_site_label
_atom_site_type_symbol
_atom_site_fract_x
_atom_site_fract_y
_atom_site_fract_z
F1 F -0.0493(2) 0.4507(1) 0.02593(8)
F2 F -0.1459(2) 0.4620(1) 0.10887(8)
F3 F -0.2396(2) 0.3566(1) 0.15009(8)
F4 F -0.2368(2) 0.2401(1) 0.10521(8)
F5 F -0.1415(2) 0.2274(1) 0.02262(8)
F6 F -0.0672(2) 0.2814(1) -0.12963(8)
F7 F -0.0203(2) 0.1633(1) -0.15800(8)
F8 F 0.0758(2) 0.0760(1) -0.09886(9)
F9 F 0.1295(2) 0.1136(1) -0.01035(9)
F10 F 0.0854(2) 0.2338(1) 0.01915(8)
F11 F 0.1026(2) 0.3711(1) -0.11365(7)
F12 F 0.3021(2) 0.4183(1) -0.11854(9)
F13 F 0.4166(2) 0.4437(1) -0.03855(9)
F14 F 0.3249(2) 0.4191(1) 0.04624(8)
F15 F 0.1273(2) 0.3716(1) 0.05265(8)
N1 N -0.1035(3) 0.3766(2) -0.0629(1)
N2 N -0.3334(3) 0.4758(2) -0.1430(1)
C1 C -0.0871(3) 0.4381(2) -0.0776(1)
C2 C -0.1607(3) 0.4725(2) -0.1028(1)
C3 C -0.2606(4) 0.4444(2) -0.1158(1)
C4 C -0.2783(3) 0.3810(2) -0.0982(1)
C5 C -0.2017(3) 0.3507(2) -0.0729(1)
C6 C -0.3118(4) 0.5408(2) -0.1607(2)
C7 C -0.4357(4) 0.4442(3) -0.1561(2)
C8 C -0.0825(3) 0.3377(2) 0.0209(1)
C9 C -0.0928(3) 0.3960(2) 0.0449(1)
C10 C -0.1423(3) 0.4034(2) 0.0874(1)
C11 C -0.1897(3) 0.3506(2) 0.1085(1)
C12 C -0.1875(3) 0.2923(2) 0.0859(2)
C13 C -0.1362(3) 0.2870(2) 0.0431(1)
C14 C 0.0004(3) 0.2636(2) -0.0521(1)
C15 C -0.0213(3) 0.2418(2) -0.0973(2)
C16 C 0.0034(3) 0.1802(2) -0.1133(2)
C17 C 0.0512(3) 0.1365(2) -0.0841(2)
C18 C 0.0778(3) 0.1554(2) -0.0392(2)
C19 C 0.0537(3) 0.2178(2) -0.0253(1)
C20 C 0.1002(3) 0.3709(2) -0.0306(1)
C21 C 0.1539(3) 0.3840(2) -0.0723(2)
C22 C 0.2570(4) 0.4084(2) -0.0762(2)
C23 C 0.3144(3) 0.4211(2) -0.0360(2)
C24 C 0.2680(3) 0.4088(2) 0.0062(2)
C25 C 0.1645(3) 0.3841(2) 0.0086(2)
B1 B -0.0199(4) 0.3367(2) -0.0307(2)
H1 H -0.0195 0.4585 -0.0695
H2 H -0.1454 0.5163 -0.1122
H3 H -0.3458 0.3595 -0.1047
H4 H -0.2170 0.3082 -0.0606
H5 H -0.3678 0.5555 -0.1817
H6 H -0.2427 0.5392 -0.1763
H7 H -0.3042 0.5694 -0.1343
H8 H -0.4217 0.4022 -0.1696
H9 H -0.4735 0.4715 -0.1781
H10 H -0.4803 0.4405 -0.1286
C26 C 0.4598(7) -0.0370(5) 0.2337(3)
C27 C 0.4689(8) 0.0240(5) 0.2093(2)
C28 C 0.3961(11) 0.0692(5) 0.2237(4)
C29 C 0.3094(13) 0.0689(8) 0.2557(4)
C30 C 0.3161(7) 0.0065(6) 0.2756(3)
C31 C 0.3790(6) -0.0470(4) 0.2678(2)
C32 C 0.5245(7) -0.0858(5) 0.2227(3)
H11 H 0.5224 0.0305 0.1852
H12 H 0.4063 0.1104 0.2085
H13 H 0.2581 0.1028 0.2622
H14 H 0.2642 0.0007 0.3004
H15 H 0.3684 -0.0877 0.2837
H16 H 0.5762 -0.0725 0.1993
H17 H 0.5622 -0.1000 0.2504
H18 H 0.4812 -0.1208 0.2106
C33 C 0.3609(9) 0.7453(4) 0.2322(3)
C34 C 0.4617(7) 0.7246(3) 0.2190(3)
C35 C 0.4962(6) 0.7341(3) 0.1732(3)
C36 C 0.4256(8) 0.7663(4) 0.1417(3)
C37 C 0.3242(7) 0.7865(3) 0.1580(4)
C38 C 0.2878(9) 0.7760(4) 0.2047(4)
C39 C 0.3296(7) 0.7319(3) 0.2803(3)
H19 H 0.5095 0.7041 0.2412
H20 H 0.5657 0.7191 0.1625
H21 H 0.4462 0.7737 0.1096
H22 H 0.2767 0.8091 0.1368
H23 H 0.2174 0.7896 0.2153
H24 H 0.2578 0.7479 0.2866
H25 H 0.3315 0.6858 0.2852
H26 H 0.3804 0.7527 0.3010
loop_
_geom_bond_atom_site_label_1
_geom_bond_atom_site_label_2
_geom_bond_site_symmetry_1
_geom_bond_site_symmetry_2
F1 C9 1_555 1_555
F2 C10 1_555 1_555
F3 C11 1_555 1_555
F4 C12 1_555 1_555
F5 C13 1_555 1_555
F6 C15 1_555 1_555
F7 C16 1_555 1_555
F8 C17 1_555 1_555
F9 C18 1_555 1_555
F10 C19 1_555 1_555
F11 C21 1_555 1_555
F12 C22 1_555 1_555
F13 C23 1_555 1_555
F14 C24 1_555 1_555
F15 C25 1_555 1_555
N1 C1 1_555 1_555
N2 C3 1_555 1_555
C1 C2 1_555 1_555
C2 C3 1_555 1_555
C3 C4 1_555 1_555
C4 C5 1_555 1_555
C5 N1 1_555 1_555
C6 N2 1_555 1_555
C7 N2 1_555 1_555
C8 C9 1_555 1_555
C9 C10 1_555 1_555
C10 C11 1_555 1_555
C11 C12 1_555 1_555
C12 C13 1_555 1_555
C13 C8 1_555 1_555
C14 C15 1_555 1_555
C15 C16 1_555 1_555
C16 C17 1_555 1_555
C17 C18 1_555 1_555
C18 C19 1_555 1_555
C19 C14 1_555 1_555
C20 C21 1_555 1_555
C21 C22 1_555 1_555
C22 C23 1_555 1_555
C23 C24 1_555 1_555
C24 C25 1_555 1_555
C25 C20 1_555 1_555
B1 N1 1_555 1_555
C26 C27 1_555 1_555
C27 C28 1_555 1_555
C28 C29 1_555 1_555
C29 C30 1_555 1_555
C30 C31 1_555 1_555
C31 C26 1_555 1_555
C32 C26 1_555 1_555
C33 C34 1_555 1_555
C34 C35 1_555 1_555
C35 C36 1_555 1_555
C36 C37 1_555 1_555
C37 C38 1_555 1_555
C38 C33 1_555 1_555
C39 C33 1_555 1_555
H1 C1 1_555 1_555
H2 C2 1_555 1_555
H3 C4 1_555 1_555
H4 C5 1_555 1_555
H5 C6 1_555 1_555
H6 C6 1_555 1_555
H7 C6 1_555 1_555
H8 C7 1_555 1_555
H9 C7 1_555 1_555
H10 C7 1_555 1_555
H11 C27 1_555 1_555
H12 C28 1_555 1_555
H13 C29 1_555 1_555
H14 C30 1_555 1_555
H15 C31 1_555 1_555
H16 C32 1_555 1_555
H17 C32 1_555 1_555
H18 C32 1_555 1_555
H19 C34 1_555 1_555
H20 C35 1_555 1_555
H21 C36 1_555 1_555
H22 C37 1_555 1_555
H23 C38 1_555 1_555
H24 C39 1_555 1_555
H25 C39 1_555 1_555
H26 C39 1_555 1_555
C8 B1 1_555 1_555
C14 B1 1_555 1_555
C20 B1 1_555 1_555

#END
