
#######################################################################
#
#                 Cambridge Crystallographic Data Centre
#                                CCDC 
#
#######################################################################
#
# If this CIF has been generated from an entry in the Cambridge 
# Structural Database, then it will include bibliographic, chemical, 
# crystal, experimental, refinement or atomic coordinate data resulting 
# from the CCDC's data processing and validation procedures.
#
#######################################################################

data_JUDPON
_chemical_compound_source        'Celastrus angulatus Maxim'
_chemical_formula_moiety         'C34 H39 N1 O11'
_chemical_name_systematic        'Angulatusine A'
_chemical_properties_biological  'possible insect antifeedant activity'
_symmetry_cell_setting           orthorhombic
_symmetry_space_group_name_H-M   'P 21 21 21'
_symmetry_Int_Tables_number      19
_space_group_name_Hall           'P 2ac 2ab'
loop_
_symmetry_equiv_pos_site_id
_symmetry_equiv_pos_as_xyz
1 x,y,z
2 1/2+x,1/2-y,-z
3 -x,1/2+y,1/2-z
4 1/2-x,-y,1/2+z
_cell_length_a                   13.78
_cell_length_b                   15.48
_cell_length_c                   15.52
_cell_angle_alpha                90
_cell_angle_beta                 90
_cell_angle_gamma                90
_cell_volume                     3310.64
_exptl_crystal_colour            colorless
_chemical_melting_point          227-230deg.C
_cell_formula_units_Z            4
loop_
_atom_site_label
_atom_site_type_symbol
_atom_site_fract_x
_atom_site_fract_y
_atom_site_fract_z
O1 O 0.2718(2) 0.6185(2) 0.2212(2)
O2 O 0.4423(2) 0.4200(2) 0.1340(2)
O3 O 0.4513(4) 0.4893(3) 0.0068(2)
O4 O 0.5575(2) 0.4883(2) 0.2636(2)
O5 O 0.6701(3) 0.4696(4) 0.1613(3)
O6 O 0.0750(2) 0.4449(2) 0.1785(2)
O7 O -0.0341(3) 0.4043(3) 0.2771(3)
O8 O 0.2479(2) 0.3481(2) 0.1899(2)
O9 O 0.2549(3) 0.3539(2) 0.0445(2)
O10 O 0.3002(2) 0.3706(2) 0.3597(2)
O11 O 0.3774(3) 0.2433(2) 0.3637(3)
N1 N 0.1496(4) 0.3108(4) 0.4589(3)
C1 C 0.4126(3) 0.4987(3) 0.1763(3)
C2 C 0.5026(4) 0.5461(3) 0.2084(3)
C3 C 0.4756(4) 0.6265(4) 0.2587(4)
C4 C 0.3957(4) 0.6141(3) 0.3280(4)
C5 C 0.3097(4) 0.5637(3) 0.2899(3)
C6 C 0.2236(4) 0.5532(3) 0.3518(3)
C7 C 0.1405(4) 0.5475(3) 0.2865(3)
C8 C 0.1480(3) 0.4579(3) 0.2449(3)
C9 C 0.2441(3) 0.4417(3) 0.1990(3)
C10 C 0.3361(3) 0.4759(3) 0.2458(3)
C11 C 0.3778(3) 0.4056(3) 0.3058(3)
C12 C 0.4375(4) 0.5816(4) 0.4137(4)
C13 C 0.1661(4) 0.6237(3) 0.2267(4)
C14 C 0.1277(5) 0.6223(4) 0.1346(4)
C15 C 0.1376(5) 0.7099(4) 0.2692(5)
C16 C 0.4602(4) 0.4245(4) 0.0477(3)
C17 C 0.4889(5) 0.3385(4) 0.0155(4)
C18 C 0.6367(4) 0.4509(4) 0.2297(4)
C19 C 0.6740(5) 0.3820(5) 0.2886(5)
C20 C -0.0138(4) 0.4190(3) 0.2034(4)
C21 C -0.0811(4) 0.4139(4) 0.1282(4)
C22 C 0.2448(3) 0.3129(3) 0.1091(3)
C23 C 0.2267(4) 0.2188(3) 0.1151(3)
C24 C 0.2470(4) 0.1688(4) 0.0425(4)
C25 C 0.2259(5) 0.0814(4) 0.0457(5)
C26 C 0.1844(6) 0.0437(4) 0.1140(5)
C27 C 0.1627(6) 0.0952(4) 0.1866(4)
C28 C 0.1857(5) 0.1824(4) 0.1868(4)
C29 C 0.3080(3) 0.2867(3) 0.3810(3)
C30 C 0.2215(3) 0.2554(3) 0.4268(3)
C31 C 0.2089(5) 0.1666(4) 0.4390(4)
C32 C 0.1330(4) 0.1324(3) 0.4756(4)
C33 C 0.0671(5) 0.1829(4) 0.5056(4)
C34 C 0.0694(4) 0.2734(4) 0.5009(4)
loop_
_geom_bond_atom_site_label_1
_geom_bond_atom_site_label_2
_geom_bond_site_symmetry_1
_geom_bond_site_symmetry_2
O1 C5 1_555 1_555
O2 C1 1_555 1_555
O3 C16 1_555 1_555
O4 C2 1_555 1_555
O5 C18 1_555 1_555
O6 C8 1_555 1_555
O7 C20 1_555 1_555
O8 C9 1_555 1_555
O9 C22 1_555 1_555
O10 C11 1_555 1_555
O11 C29 1_555 1_555
N1 C30 1_555 1_555
C1 C2 1_555 1_555
C2 C3 1_555 1_555
C3 C4 1_555 1_555
C4 C5 1_555 1_555
C5 C6 1_555 1_555
C6 C7 1_555 1_555
C7 C8 1_555 1_555
C8 C9 1_555 1_555
C9 C10 1_555 1_555
C10 C1 1_555 1_555
C11 C10 1_555 1_555
C12 C4 1_555 1_555
C13 O1 1_555 1_555
C14 C13 1_555 1_555
C15 C13 1_555 1_555
C16 O2 1_555 1_555
C17 C16 1_555 1_555
C18 O4 1_555 1_555
C19 C18 1_555 1_555
C20 O6 1_555 1_555
C21 C20 1_555 1_555
C22 O8 1_555 1_555
C23 C22 1_555 1_555
C24 C23 1_555 1_555
C25 C24 1_555 1_555
C26 C25 1_555 1_555
C27 C26 1_555 1_555
C28 C23 1_555 1_555
C29 O10 1_555 1_555
C30 C29 1_555 1_555
C31 C30 1_555 1_555
C32 C31 1_555 1_555
C33 C32 1_555 1_555
C34 N1 1_555 1_555
C5 C10 1_555 1_555
C7 C13 1_555 1_555
C27 C28 1_555 1_555
C33 C34 1_555 1_555

#END
