
#######################################################################
#
#                 Cambridge Crystallographic Data Centre
#                                CCDC 
#
#######################################################################
#
# If this CIF has been generated from an entry in the Cambridge 
# Structural Database, then it will include bibliographic, chemical, 
# crystal, experimental, refinement or atomic coordinate data resulting 
# from the CCDC's data processing and validation procedures.
#
#######################################################################

data_JUDSEI
_chemical_formula_moiety         'C21 H13 Cl1 N4'
_chemical_name_systematic        
7-Chloro-4,5-diphenyltetrazolo[1,5-a]quinoline
_symmetry_cell_setting           monoclinic
_symmetry_space_group_name_H-M   'C 2/c'
_symmetry_Int_Tables_number      15
_space_group_name_Hall           '-C 2yn'
loop_
_symmetry_equiv_pos_site_id
_symmetry_equiv_pos_as_xyz
1 x,y,z
2 -x,y,1/2-z
3 1/2+x,1/2+y,z
4 1/2-x,1/2+y,1/2-z
5 -x,-y,-z
6 x,-y,1/2+z
7 1/2-x,1/2-y,-z
8 1/2+x,1/2-y,1/2+z
_cell_length_a                   19.728(5)
_cell_length_b                   12.427(6)
_cell_length_c                   17.190(5)
_cell_angle_alpha                90
_cell_angle_beta                 124.311(18)
_cell_angle_gamma                90
_cell_volume                     3480.97
_exptl_crystal_colour            colorless
_exptl_crystal_description       prism
_cell_formula_units_Z            8
loop_
_atom_site_label
_atom_site_type_symbol
_atom_site_fract_x
_atom_site_fract_y
_atom_site_fract_z
Cl1 Cl 1.16053(4) 0.55938(8) 1.05049(5)
N1 N 0.89731(13) 0.29505(16) 0.75574(14)
N2 N 0.89630(16) 0.18598(17) 0.74786(17)
N3 N 0.82371(16) 0.16345(18) 0.67488(18)
N4 N 0.77724(14) 0.25218(17) 0.63473(15)
C1 C 0.82427(14) 0.33407(19) 0.68636(16)
C2 C 0.80858(14) 0.44747(18) 0.67908(16)
C3 C 0.87090(13) 0.51169(18) 0.74482(15)
C4 C 0.94845(14) 0.46649(19) 0.81992(16)
C5 C 0.96233(14) 0.35500(19) 0.82540(16)
C6 C 1.03551(16) 0.3083(2) 0.89458(18)
H1 H 1.0428 0.2344 0.8944
C7 C 1.09689(16) 0.3706(3) 0.96292(19)
H2 H 1.1465 0.3400 1.0101
C8 C 1.08436(15) 0.4807(2) 0.96113(17)
C9 C 1.01303(14) 0.5286(2) 0.89099(16)
H3 H 1.0075 0.6030 0.8906
C10 C 0.72580(13) 0.48547(19) 0.60389(16)
C11 C 0.68889(15) 0.4513(2) 0.51209(17)
H4 H 0.7169 0.4051 0.4970
C12 C 0.61104(16) 0.4848(2) 0.44288(19)
H5 H 0.5867 0.4616 0.3812
C13 C 0.56928(16) 0.5524(3) 0.4647(2)
H6 H 0.5167 0.5754 0.4178
C14 C 0.60494(17) 0.5862(2) 0.5553(2)
H7 H 0.5761 0.6315 0.5700
C15 C 0.68286(15) 0.5539(2) 0.62506(19)
H8 H 0.7068 0.5779 0.6865
C16 C 0.86274(13) 0.63115(18) 0.73853(16)
C17 C 0.85334(16) 0.6838(2) 0.66285(19)
H9 H 0.8513 0.6449 0.6153
C18 C 0.84691(19) 0.7948(2) 0.6573(2)
H10 H 0.8402 0.8304 0.6058
C19 C 0.85045(18) 0.8522(2) 0.7272(3)
H11 H 0.8474 0.9269 0.7239
C20 C 0.85834(17) 0.8005(2) 0.8013(2)
H12 H 0.8596 0.8397 0.8482
C21 C 0.86446(16) 0.6901(2) 0.80730(19)
H13 H 0.8698 0.6551 0.8583
loop_
_geom_bond_atom_site_label_1
_geom_bond_atom_site_label_2
_geom_bond_site_symmetry_1
_geom_bond_site_symmetry_2
Cl1 C8 1_555 1_555
N1 N2 1_555 1_555
N2 N3 1_555 1_555
N3 N4 1_555 1_555
N4 C1 1_555 1_555
C1 N1 1_555 1_555
C2 C1 1_555 1_555
C3 C2 1_555 1_555
C4 C3 1_555 1_555
C5 N1 1_555 1_555
C6 C5 1_555 1_555
H1 C6 1_555 1_555
C7 C6 1_555 1_555
H2 C7 1_555 1_555
C8 C7 1_555 1_555
C9 C4 1_555 1_555
H3 C9 1_555 1_555
C10 C2 1_555 1_555
C11 C10 1_555 1_555
H4 C11 1_555 1_555
C12 C11 1_555 1_555
H5 C12 1_555 1_555
C13 C12 1_555 1_555
H6 C13 1_555 1_555
C14 C13 1_555 1_555
H7 C14 1_555 1_555
C15 C10 1_555 1_555
H8 C15 1_555 1_555
C16 C3 1_555 1_555
C17 C16 1_555 1_555
H9 C17 1_555 1_555
C18 C17 1_555 1_555
H10 C18 1_555 1_555
C19 C18 1_555 1_555
H11 C19 1_555 1_555
C20 C19 1_555 1_555
H12 C20 1_555 1_555
C21 C16 1_555 1_555
H13 C21 1_555 1_555
C4 C5 1_555 1_555
C8 C9 1_555 1_555
C14 C15 1_555 1_555
C20 C21 1_555 1_555

#END
