
#######################################################################
#
#                 Cambridge Crystallographic Data Centre
#                                CCDC 
#
#######################################################################
#
# If this CIF has been generated from an entry in the Cambridge 
# Structural Database, then it will include bibliographic, chemical, 
# crystal, experimental, refinement or atomic coordinate data resulting 
# from the CCDC's data processing and validation procedures.
#
#######################################################################

data_JUDSAE
_chemical_formula_moiety         'C16 H14 N2'
_chemical_name_systematic        4-Methyl-3-phenylquinolin-2-amine
_symmetry_cell_setting           monoclinic
_symmetry_space_group_name_H-M   'P 21/c'
_symmetry_Int_Tables_number      14
_space_group_name_Hall           '-P 2ybc'
loop_
_symmetry_equiv_pos_site_id
_symmetry_equiv_pos_as_xyz
1 x,y,z
2 -x,1/2+y,1/2-z
3 -x,-y,-z
4 x,1/2-y,1/2+z
_cell_length_a                   9.362(3)
_cell_length_b                   9.812(3)
_cell_length_c                   14.178(5)
_cell_angle_alpha                90
_cell_angle_beta                 97.93(4)
_cell_angle_gamma                90
_cell_volume                     1289.94
_exptl_crystal_colour            colorless
_exptl_crystal_description       prism
_cell_formula_units_Z            4
loop_
_atom_site_label
_atom_site_type_symbol
_atom_site_fract_x
_atom_site_fract_y
_atom_site_fract_z
N1 N 0.63374(15) 0.14201(14) 0.51378(10)
N2 N 0.41262(17) 0.14580(18) 0.56331(13)
H1 H 0.360(2) 0.173(2) 0.6065(16)
H2 H 0.397(2) 0.057(2) 0.5379(16)
C1 C 0.54573(17) 0.20181(17) 0.56559(12)
C2 C 0.58180(17) 0.32203(16) 0.62073(11)
C3 C 0.71693(19) 0.37396(17) 0.62547(12)
C4 C 0.9589(2) 0.3536(2) 0.57056(16)
H3 H 0.9934 0.4271 0.6085
C5 C 1.0472(2) 0.2917(2) 0.51577(18)
H4 H 1.1409 0.3234 0.5159
C6 C 0.9982(2) 0.1816(2) 0.45968(18)
H5 H 1.0591 0.1396 0.4219
C7 C 0.8617(2) 0.13433(19) 0.45930(15)
H6 H 0.8300 0.0602 0.4212
C8 C 0.76808(18) 0.19588(17) 0.51567(12)
C9 C 0.81631(18) 0.30935(18) 0.57145(13)
C10 C 0.46880(17) 0.38498(16) 0.67115(11)
C11 C 0.38313(19) 0.48834(18) 0.63034(13)
H7 H 0.3967 0.5202 0.5705
C12 C 0.2775(2) 0.54601(19) 0.67590(14)
H8 H 0.2205 0.6160 0.6469
C13 C 0.2568(2) 0.5001(2) 0.76380(15)
H9 H 0.1858 0.5388 0.7951
C14 C 0.3405(2) 0.3972(2) 0.80560(14)
H10 H 0.3260 0.3655 0.8654
C15 C 0.4465(2) 0.3399(2) 0.75995(13)
H11 H 0.5034 0.2701 0.7893
C16 C 0.7624(2) 0.4974(2) 0.68469(16)
H12 H 0.6851 0.5253 0.7183
H13 H 0.7855 0.5701 0.6441
H14 H 0.8457 0.4756 0.7296
loop_
_geom_bond_atom_site_label_1
_geom_bond_atom_site_label_2
_geom_bond_site_symmetry_1
_geom_bond_site_symmetry_2
N1 C1 1_555 1_555
N2 H1 1_555 1_555
H2 N2 1_555 1_555
C1 N2 1_555 1_555
C2 C1 1_555 1_555
C3 C2 1_555 1_555
C4 H3 1_555 1_555
C5 C4 1_555 1_555
H4 C5 1_555 1_555
C6 C5 1_555 1_555
H5 C6 1_555 1_555
C7 C6 1_555 1_555
H6 C7 1_555 1_555
C8 N1 1_555 1_555
C9 C3 1_555 1_555
C10 C2 1_555 1_555
C11 C10 1_555 1_555
H7 C11 1_555 1_555
C12 C11 1_555 1_555
H8 C12 1_555 1_555
C13 C12 1_555 1_555
H9 C13 1_555 1_555
C14 C13 1_555 1_555
H10 C14 1_555 1_555
C15 C10 1_555 1_555
H11 C15 1_555 1_555
C16 C3 1_555 1_555
H12 C16 1_555 1_555
H13 C16 1_555 1_555
H14 C16 1_555 1_555
C4 C9 1_555 1_555
C7 C8 1_555 1_555
C8 C9 1_555 1_555
C14 C15 1_555 1_555

#END
