
#######################################################################
#
#                 Cambridge Crystallographic Data Centre
#                                CCDC 
#
#######################################################################
#
# If this CIF has been generated from an entry in the Cambridge 
# Structural Database, then it will include bibliographic, chemical, 
# crystal, experimental, refinement or atomic coordinate data resulting 
# from the CCDC's data processing and validation procedures.
#
#######################################################################

data_JUDVAF
_chemical_formula_moiety         'C15 H23 N1 O6'
_chemical_name_systematic        
(4S,5S,6R)-N-t-Butoxycarbonyl-6,7-O-isopropylidene-2,3-dideoxy-hept-3-enono-1,4-lactam
_symmetry_cell_setting           orthorhombic
_symmetry_space_group_name_H-M   'P 21 21 21'
_symmetry_Int_Tables_number      19
_space_group_name_Hall           'P 2ac 2ab'
loop_
_symmetry_equiv_pos_site_id
_symmetry_equiv_pos_as_xyz
1 x,y,z
2 1/2+x,1/2-y,-z
3 -x,1/2+y,1/2-z
4 1/2-x,-y,1/2+z
_cell_length_a                   22.327(3)
_cell_length_b                   12.614(2)
_cell_length_c                   6.161(1)
_cell_angle_alpha                90
_cell_angle_beta                 90
_cell_angle_gamma                90
_cell_volume                     1735.14
_exptl_crystal_colour            white
_chemical_melting_point          118-120deg.C
_cell_formula_units_Z            4
loop_
_atom_site_label
_atom_site_type_symbol
_atom_site_fract_x
_atom_site_fract_y
_atom_site_fract_z
N1 N -0.1840(2) -0.0246(4) -0.0388(9)
O1 O -0.2666(2) 0.0861(3) -0.0823(8)
O2 O -0.1199(2) 0.0119(4) 0.3869(8)
O3 O -0.0016(2) -0.0891(4) 0.0542(10)
O4 O 0.0242(6) -0.1923(12) 0.3311(24)
O6 O -0.2639(2) -0.1356(4) -0.0796(9)
O7 O -0.1689(2) -0.1969(3) -0.0719(10)
C1 C -0.2134(3) 0.0727(5) -0.0657(12)
C2 C -0.1655(3) 0.1536(6) -0.0654(14)
C3 C -0.1132(3) 0.1075(6) -0.0377(12)
C4 C -0.1183(2) -0.0105(6) -0.0115(11)
C5 C -0.0969(2) -0.0488(6) 0.2115(12)
C6 C -0.0295(3) -0.0405(7) 0.2348(13)
C7 C -0.0048(3) -0.1000(8) 0.4318(14)
C8 C 0.0479(4) -0.1488(8) 0.1272(17)
C9 C 0.1039(4) -0.0825(16) 0.0934(36)
C10 C 0.0483(6) -0.2520(9) -0.0034(29)
C11 C -0.2115(3) -0.1225(5) -0.0636(12)
C12 C -0.1834(4) -0.3105(6) -0.0937(17)
C13 C -0.2239(7) -0.3444(8) 0.0976(21)
C14 C -0.1199(5) -0.3604(7) -0.0925(33)
C15 C -0.2144(6) -0.3278(8) -0.3122(18)
H1 H -0.161(4) -0.009(6) 0.394(15)
H2 H -0.182(3) 0.234(6) -0.091(14)
H3 H -0.073(4) 0.148(6) -0.029(15)
H4 H -0.094(3) -0.069(7) -0.145(16)
H5 H -0.106(2) -0.133(5) 0.228(10)
H6 H -0.017(4) 0.036(9) 0.232(22)
O5? O 0.0542(8) -0.1334(20) 0.3595(36)
loop_
_geom_bond_atom_site_label_1
_geom_bond_atom_site_label_2
_geom_bond_site_symmetry_1
_geom_bond_site_symmetry_2
N1 C1 1_555 1_555
O1 C1 1_555 1_555
O2 C5 1_555 1_555
O3 C6 1_555 1_555
O4 C7 1_555 1_555
O6 C11 1_555 1_555
O7 C11 1_555 1_555
C1 C2 1_555 1_555
C2 C3 1_555 1_555
C3 C4 1_555 1_555
C4 N1 1_555 1_555
C5 C4 1_555 1_555
C6 C5 1_555 1_555
C7 C6 1_555 1_555
C8 O3 1_555 1_555
C9 C8 1_555 1_555
C10 C8 1_555 1_555
C11 N1 1_555 1_555
C12 O7 1_555 1_555
C13 C12 1_555 1_555
C14 C12 1_555 1_555
C15 C12 1_555 1_555
H1 O2 1_555 1_555
H2 C2 1_555 1_555
H3 C3 1_555 1_555
H4 C4 1_555 1_555
H5 C5 1_555 1_555
H6 C6 1_555 1_555
O4 C8 1_555 1_555

#END
