
#######################################################################
#
#                 Cambridge Crystallographic Data Centre
#                                CCDC 
#
#######################################################################
#
# If this CIF has been generated from an entry in the Cambridge 
# Structural Database, then it will include bibliographic, chemical, 
# crystal, experimental, refinement or atomic coordinate data resulting 
# from the CCDC's data processing and validation procedures.
#
#######################################################################

data_JUFCIY
_chemical_formula_moiety         'C24 H22 N4 O5'
_chemical_name_systematic        
2-(methoxyimino)-2-(2-((2-methylphenoxy)methyl)phenyl)-N'-(4-nitrobenzylidene)acetohydrazide
_symmetry_cell_setting           monoclinic
_symmetry_space_group_name_H-M   'P 21/n'
_symmetry_Int_Tables_number      14
_space_group_name_Hall           '-P 2yn'
loop_
_symmetry_equiv_pos_site_id
_symmetry_equiv_pos_as_xyz
1 x,y,z
2 1/2-x,1/2+y,1/2-z
3 -x,-y,-z
4 1/2+x,1/2-y,1/2+z
_cell_length_a                   7.6821(4)
_cell_length_b                   23.2151(12)
_cell_length_c                   25.1943(15)
_cell_angle_alpha                90
_cell_angle_beta                 95.803(2)
_cell_angle_gamma                90
_cell_volume                     4470.14
_exptl_crystal_colour            colorless
_exptl_crystal_description       needle
_cell_formula_units_Z            8
loop_
_atom_site_label
_atom_site_type_symbol
_atom_site_fract_x
_atom_site_fract_y
_atom_site_fract_z
O1 O -0.26253(16) 0.40731(5) 0.53333(5)
O2 O -0.02317(16) 0.36271(4) 0.51986(4)
O3 O 0.09946(11) 0.75766(4) 0.62417(3)
O4 O 0.63124(11) 0.82755(4) 0.69184(3)
O5 O 0.58188(11) 0.87760(4) 0.52350(3)
N1 N -0.10267(18) 0.40448(5) 0.53527(4)
N2 N 0.21581(12) 0.64878(4) 0.61833(4)
N3 N 0.32523(13) 0.69387(4) 0.63413(4)
H1 H 0.437(2) 0.6869(7) 0.6411(6)
N4 N 0.52650(13) 0.78002(4) 0.67838(4)
C1 C 0.18827(16) 0.55055(5) 0.59120(4)
C2 C 0.27370(18) 0.50151(6) 0.57471(5)
H2 H 0.3977 0.5014 0.5757
C3 C 0.17973(19) 0.45306(6) 0.55686(5)
H3 H 0.2375 0.4198 0.5455
C4 C 0.00012(19) 0.45453(5) 0.55613(5)
C5 C -0.08892(18) 0.50194(6) 0.57312(5)
H4 H -0.2127 0.5014 0.5728
C6 C 0.00629(17) 0.55002(5) 0.59056(5)
H5 H -0.0525 0.5830 0.6022
C7 C 0.29202(15) 0.60136(5) 0.60856(4)
H6 H 0.4161 0.5992 0.6126
C8 C 0.25467(15) 0.74729(5) 0.63586(4)
C9 C 0.38222(15) 0.79508(5) 0.65171(4)
C10 C 0.78988(17) 0.80896(6) 0.72185(6)
H7 H 0.8557 0.8426 0.7362
H8 H 0.8608 0.7872 0.6986
H9 H 0.7615 0.7843 0.7513
C11 C 0.32872(15) 0.85461(5) 0.63561(5)
C12 C 0.18674(16) 0.87956(6) 0.65749(5)
H10 H 0.1305 0.8593 0.6837
C13 C 0.12772(17) 0.93369(6) 0.64103(6)
H11 H 0.0335 0.9511 0.6568
C14 C 0.20638(18) 0.96246(6) 0.60155(6)
H12 H 0.1623 0.9987 0.5890
C15 C 0.34927(18) 0.93837(5) 0.58034(5)
H13 H 0.4031 0.9586 0.5536
C16 C 0.41512(16) 0.88485(5) 0.59776(5)
C17 C 0.58044(16) 0.86198(5) 0.57803(4)
H14 H 0.6839 0.8785 0.5994
H15 H 0.5849 0.8195 0.5818
C18 C 0.73512(16) 0.86995(5) 0.50045(5)
C19 C 0.89187(17) 0.85147(6) 0.52730(5)
H16 H 0.8994 0.8430 0.5644
C20 C 1.03816(17) 0.84545(6) 0.49918(6)
H17 H 1.1461 0.8330 0.5173
C21 C 1.02759(18) 0.85741(6) 0.44521(6)
H18 H 1.1279 0.8536 0.4263
C22 C 0.86849(18) 0.87511(5) 0.41876(5)
H19 H 0.8613 0.8827 0.3816
C23 C 0.72052(17) 0.88192(5) 0.44540(5)
C24 C 0.54785(18) 0.89964(6) 0.41707(5)
H20 H 0.5586 0.9032 0.3788
H21 H 0.5127 0.9368 0.4310
H22 H 0.4594 0.8705 0.4229
O6 O 0.38132(18) 0.77311(5) 0.32876(4)
O7 O 0.15770(17) 0.74670(6) 0.36820(5)
O8 O 0.62240(11) 0.63511(4) 0.68689(3)
O9 O 1.16718(11) 0.66162(4) 0.77511(3)
O10 O 1.15483(11) 0.48146(4) 0.72363(3)
N5 N 0.31493(19) 0.75518(5) 0.36773(4)
N6 N 0.70567(12) 0.68705(4) 0.59787(4)
N7 N 0.82799(13) 0.67735(4) 0.64094(4)
H23 H 0.939(2) 0.6897(6) 0.6404(6)
N8 N 1.04705(12) 0.67334(4) 0.73131(4)
C25 C 0.64769(15) 0.71712(5) 0.50724(4)
C26 C 0.71807(17) 0.73457(5) 0.46063(5)
H24 H 0.8413 0.7375 0.4603
C27 C 0.60910(19) 0.74755(5) 0.41500(5)
H25 H 0.6562 0.7596 0.3834
C28 C 0.43094(18) 0.74257(5) 0.41647(5)
C29 C 0.35669(17) 0.72551(6) 0.46181(5)
H26 H 0.2333 0.7226 0.4618
C30 C 0.46675(16) 0.71285(5) 0.50711(5)
H27 H 0.4184 0.7011 0.5386
C31 C 0.76688(15) 0.70484(5) 0.55520(4)
H28 H 0.8894 0.7101 0.5547
C32 C 0.77310(15) 0.65102(5) 0.68428(4)
C33 C 0.91295(14) 0.64002(5) 0.72976(4)
C34 C 1.30753(16) 0.70259(6) 0.77600(5)
H29 H 1.3809 0.6998 0.8101
H30 H 1.2591 0.7416 0.7719
H31 H 1.3784 0.6944 0.7467
C35 C 0.87970(14) 0.59275(5) 0.76739(4)
C36 C 0.73387(15) 0.59676(5) 0.79640(5)
H32 H 0.6619 0.6301 0.7932
C37 C 0.69440(16) 0.55214(6) 0.82974(5)
H33 H 0.5972 0.5553 0.8501
C38 C 0.79674(16) 0.50289(5) 0.83340(5)
H34 H 0.7677 0.4719 0.8556
C39 C 0.94123(16) 0.49860(5) 0.80488(5)
H35 H 1.0106 0.4646 0.8076
C40 C 0.98577(15) 0.54373(5) 0.77224(4)
C41 C 1.15104(15) 0.53835(5) 0.74491(5)
H36 H 1.1514 0.5671 0.7159
H37 H 1.2549 0.5450 0.7708
C42 C 1.30751(16) 0.46297(5) 0.70551(4)
C43 C 1.45797(16) 0.49618(6) 0.70528(5)
H38 H 1.4604 0.5345 0.7186
C44 C 1.60527(17) 0.47275(6) 0.68534(5)
H39 H 1.7091 0.4950 0.6856
C45 C 1.60113(19) 0.41739(7) 0.66519(6)
H40 H 1.7010 0.4017 0.6511
C46 C 1.44928(19) 0.38478(6) 0.66570(5)
H41 H 1.4473 0.3467 0.6519
C47 C 1.30058(17) 0.40636(5) 0.68578(5)
C48 C 1.13482(19) 0.37187(6) 0.68574(6)
H42 H 1.1497 0.3346 0.6685
H43 H 1.0381 0.3929 0.6661
H44 H 1.1086 0.3656 0.7226
loop_
_geom_bond_atom_site_label_1
_geom_bond_atom_site_label_2
_geom_bond_site_symmetry_1
_geom_bond_site_symmetry_2
O1 N1 1_555 1_555
O2 N1 1_555 1_555
O3 C8 1_555 1_555
O4 N4 1_555 1_555
O5 C17 1_555 1_555
N1 C4 1_555 1_555
N2 N3 1_555 1_555
N3 H1 1_555 1_555
N4 C9 1_555 1_555
C1 C2 1_555 1_555
C2 H2 1_555 1_555
C3 C2 1_555 1_555
H3 C3 1_555 1_555
C4 C3 1_555 1_555
C5 C4 1_555 1_555
H4 C5 1_555 1_555
C6 C1 1_555 1_555
H5 C6 1_555 1_555
C7 N2 1_555 1_555
H6 C7 1_555 1_555
C8 N3 1_555 1_555
C9 C8 1_555 1_555
C10 O4 1_555 1_555
H7 C10 1_555 1_555
H8 C10 1_555 1_555
H9 C10 1_555 1_555
C11 C9 1_555 1_555
C12 C11 1_555 1_555
H10 C12 1_555 1_555
C13 C12 1_555 1_555
H11 C13 1_555 1_555
C14 C13 1_555 1_555
H12 C14 1_555 1_555
C15 C14 1_555 1_555
H13 C15 1_555 1_555
C16 C11 1_555 1_555
C17 C16 1_555 1_555
H14 C17 1_555 1_555
H15 C17 1_555 1_555
C18 O5 1_555 1_555
C19 C18 1_555 1_555
H16 C19 1_555 1_555
C20 C19 1_555 1_555
H17 C20 1_555 1_555
C21 C20 1_555 1_555
H18 C21 1_555 1_555
C22 C21 1_555 1_555
H19 C22 1_555 1_555
C23 C18 1_555 1_555
C24 C23 1_555 1_555
H20 C24 1_555 1_555
H21 C24 1_555 1_555
H22 C24 1_555 1_555
O6 N5 1_555 1_555
O7 N5 1_555 1_555
O8 C32 1_555 1_555
O9 N8 1_555 1_555
O10 C41 1_555 1_555
N5 C28 1_555 1_555
N6 N7 1_555 1_555
N7 H23 1_555 1_555
N8 C33 1_555 1_555
C25 C26 1_555 1_555
C26 H24 1_555 1_555
C27 C26 1_555 1_555
H25 C27 1_555 1_555
C28 C27 1_555 1_555
C29 C28 1_555 1_555
H26 C29 1_555 1_555
C30 C25 1_555 1_555
H27 C30 1_555 1_555
C31 N6 1_555 1_555
H28 C31 1_555 1_555
C32 N7 1_555 1_555
C33 C32 1_555 1_555
C34 O9 1_555 1_555
H29 C34 1_555 1_555
H30 C34 1_555 1_555
H31 C34 1_555 1_555
C35 C33 1_555 1_555
C36 C35 1_555 1_555
H32 C36 1_555 1_555
C37 C36 1_555 1_555
H33 C37 1_555 1_555
C38 C37 1_555 1_555
H34 C38 1_555 1_555
C39 C38 1_555 1_555
H35 C39 1_555 1_555
C40 C35 1_555 1_555
C41 C40 1_555 1_555
H36 C41 1_555 1_555
H37 C41 1_555 1_555
C42 O10 1_555 1_555
C43 C42 1_555 1_555
H38 C43 1_555 1_555
C44 C43 1_555 1_555
H39 C44 1_555 1_555
C45 C44 1_555 1_555
H40 C45 1_555 1_555
C46 C45 1_555 1_555
H41 C46 1_555 1_555
C47 C42 1_555 1_555
C48 C47 1_555 1_555
H42 C48 1_555 1_555
H43 C48 1_555 1_555
H44 C48 1_555 1_555
C1 C7 1_555 1_555
C5 C6 1_555 1_555
C15 C16 1_555 1_555
C22 C23 1_555 1_555
C25 C31 1_555 1_555
C29 C30 1_555 1_555
C39 C40 1_555 1_555
C46 C47 1_555 1_555

#END
