
#######################################################################
#
#                 Cambridge Crystallographic Data Centre
#                                CCDC 
#
#######################################################################
#
# If this CIF has been generated from an entry in the Cambridge 
# Structural Database, then it will include bibliographic, chemical, 
# crystal, experimental, refinement or atomic coordinate data resulting 
# from the CCDC's data processing and validation procedures.
#
#######################################################################

data_JUFPAD
_chemical_formula_moiety         'C25 H19 N1 O1'
_chemical_name_systematic        1-(4-Methoxyphenyl)-3-(1-naphthyl)indolizine
_symmetry_cell_setting           orthorhombic
_symmetry_space_group_name_H-M   'P c a 21'
_symmetry_Int_Tables_number      29
_space_group_name_Hall           'P 2c -2ac'
loop_
_symmetry_equiv_pos_site_id
_symmetry_equiv_pos_as_xyz
1 x,y,z
2 -x,-y,1/2+z
3 1/2+x,-y,z
4 1/2-x,y,1/2+z
_cell_length_a                   13.273(3)
_cell_length_b                   18.584(5)
_cell_length_c                   7.3811(18)
_cell_angle_alpha                90
_cell_angle_beta                 90
_cell_angle_gamma                90
_cell_volume                     1820.66
_exptl_crystal_colour            colorless
_exptl_crystal_description       prismatic
_cell_formula_units_Z            4
loop_
_atom_site_label
_atom_site_type_symbol
_atom_site_fract_x
_atom_site_fract_y
_atom_site_fract_z
N1 N 0.0713(3) 0.25329(18) 0.3536(6)
O1 O 0.1836(3) -0.15934(18) 0.2307(7)
C1 C 0.0756(4) 0.3132(2) 0.4650(7)
H1 H 0.0459 0.3561 0.4285
C2 C 0.1228(4) 0.3093(3) 0.6260(8)
H2 H 0.1273 0.3500 0.6987
C3 C 0.1654(4) 0.2439(3) 0.6852(8)
H3 H 0.1976 0.2417 0.7970
C4 C 0.1598(4) 0.1840(3) 0.5797(7)
H4 H 0.1877 0.1411 0.6204
C5 C 0.1123(3) 0.1865(2) 0.4102(7)
C6 C 0.0883(3) 0.1366(2) 0.2763(7)
C7 C 0.0322(4) 0.1736(2) 0.1430(7)
H5 H 0.0055 0.1530 0.0387
C8 C 0.0232(4) 0.2445(2) 0.1909(7)
C9 C -0.0305(4) 0.3029(2) 0.0969(7)
C10 C -0.1293(4) 0.2936(3) 0.0530(9)
H6 H -0.1619 0.2518 0.0898
C11 C -0.1836(4) 0.3453(3) -0.0463(10)
H7 H -0.2511 0.3376 -0.0734
C12 C -0.1373(4) 0.4061(3) -0.1023(9)
H8 H -0.1735 0.4398 -0.1688
C13 C -0.0354(4) 0.4194(2) -0.0620(7)
C14 C 0.0195(3) 0.3675(2) 0.0380(7)
C15 C 0.1242(4) 0.3806(2) 0.0666(7)
H9 H 0.1627 0.3467 0.1284
C16 C 0.1681(4) 0.4414(3) 0.0049(8)
H10 H 0.2363 0.4491 0.0264
C17 C 0.1128(4) 0.4929(3) -0.0906(9)
H11 H 0.1439 0.5347 -0.1310
C18 C 0.0133(4) 0.4816(2) -0.1244(8)
H12 H -0.0230 0.5156 -0.1899
C19 C 0.1125(4) 0.0589(2) 0.2716(7)
C20 C 0.2004(4) 0.0301(2) 0.3407(8)
H13 H 0.2466 0.0605 0.3969
C21 C 0.2216(4) -0.0426(2) 0.3285(8)
H14 H 0.2810 -0.0605 0.3780
C22 C 0.1554(4) -0.0887(2) 0.2434(7)
C23 C 0.0672(4) -0.0617(2) 0.1730(8)
H15 H 0.0219 -0.0923 0.1157
C24 C 0.0457(4) 0.0111(2) 0.1871(8)
H16 H -0.0144 0.0286 0.1395
C25 C 0.1213(5) -0.2057(3) 0.1305(11)
H17 H 0.0547 -0.2053 0.1810
H18 H 0.1480 -0.2537 0.1352
H19 H 0.1187 -0.1898 0.0068
loop_
_geom_bond_atom_site_label_1
_geom_bond_atom_site_label_2
_geom_bond_site_symmetry_1
_geom_bond_site_symmetry_2
N1 C1 1_555 1_555
O1 C22 1_555 1_555
C1 H1 1_555 1_555
C2 C1 1_555 1_555
H2 C2 1_555 1_555
C3 C2 1_555 1_555
H3 C3 1_555 1_555
C4 C3 1_555 1_555
H4 C4 1_555 1_555
C5 N1 1_555 1_555
C6 C5 1_555 1_555
C7 C6 1_555 1_555
H5 C7 1_555 1_555
C8 N1 1_555 1_555
C9 C8 1_555 1_555
C10 C9 1_555 1_555
H6 C10 1_555 1_555
C11 C10 1_555 1_555
H7 C11 1_555 1_555
C12 C11 1_555 1_555
H8 C12 1_555 1_555
C13 C12 1_555 1_555
C14 C9 1_555 1_555
C15 C14 1_555 1_555
H9 C15 1_555 1_555
C16 C15 1_555 1_555
H10 C16 1_555 1_555
C17 C16 1_555 1_555
H11 C17 1_555 1_555
C18 C13 1_555 1_555
H12 C18 1_555 1_555
C19 C6 1_555 1_555
C20 C19 1_555 1_555
H13 C20 1_555 1_555
C21 C20 1_555 1_555
H14 C21 1_555 1_555
C22 C21 1_555 1_555
C23 C22 1_555 1_555
H15 C23 1_555 1_555
C24 C19 1_555 1_555
H16 C24 1_555 1_555
C25 O1 1_555 1_555
H17 C25 1_555 1_555
H18 C25 1_555 1_555
H19 C25 1_555 1_555
C4 C5 1_555 1_555
C7 C8 1_555 1_555
C13 C14 1_555 1_555
C17 C18 1_555 1_555
C23 C24 1_555 1_555

#END
