
#######################################################################
#
#                 Cambridge Crystallographic Data Centre
#                                CCDC 
#
#######################################################################
#
# If this CIF has been generated from an entry in the Cambridge 
# Structural Database, then it will include bibliographic, chemical, 
# crystal, experimental, refinement or atomic coordinate data resulting 
# from the CCDC's data processing and validation procedures.
#
#######################################################################

data_JUGBIW
_chemical_formula_moiety         'C28 H28 Si2'
_chemical_name_systematic        
E-3,4-bis(Trimethylsilylethynyl)-1,6-diphenyl-hex-3-en-1,5-diyne
_symmetry_cell_setting           monoclinic
_symmetry_space_group_name_H-M   'P 21/c'
_symmetry_Int_Tables_number      14
_space_group_name_Hall           '-P 2ybc'
loop_
_symmetry_equiv_pos_site_id
_symmetry_equiv_pos_as_xyz
1 x,y,z
2 -x,1/2+y,1/2-z
3 -x,-y,-z
4 x,1/2-y,1/2+z
_cell_length_a                   9.0490(6)
_cell_length_b                   13.7296(8)
_cell_length_c                   10.4373(5)
_cell_angle_alpha                90
_cell_angle_beta                 96.081(3)
_cell_angle_gamma                90
_cell_volume                     1289.42
_exptl_crystal_colour            pale-yellow
_chemical_melting_point          150deg.C(dec.)
_cell_formula_units_Z            2
loop_
_atom_site_label
_atom_site_type_symbol
_atom_site_fract_x
_atom_site_fract_y
_atom_site_fract_z
Si1 Si 0.05485(8) 0.32877(6) 0.09537(7)
C1 C -0.10085(36) 0.32763(26) -0.03466(34)
C2 C -0.00061(42) 0.39451(27) 0.23740(35)
C3 C 0.11963(41) 0.20274(25) 0.13583(40)
C4 C 0.21140(30) 0.39514(22) 0.03725(27)
C5 C 0.31464(30) 0.43860(20) 0.00111(27)
C6 C 0.43672(27) 0.49206(19) -0.04069(26)
C7 C 0.42139(28) 0.52815(20) -0.16921(26)
C8 C 0.41005(30) 0.55865(20) -0.27623(30)
C9 C 0.29618(19) 0.55476(12) -0.49962(17)
C10 C 0.28517(19) 0.59007(12) -0.62560(17)
C11 C 0.37617(19) 0.66648(12) -0.65731(17)
C12 C 0.47816(19) 0.70759(12) -0.56305(17)
C13 C 0.48917(19) 0.67228(12) -0.43707(17)
C14 C 0.39818(19) 0.59586(12) -0.40536(17)
H1 H -0.1802 0.2938 0.0083
H2 H -0.0735 0.2870 -0.1081
H3 H -0.1384 0.3924 -0.0677
H4 H -0.0849 0.3634 0.2769
H5 H -0.0287 0.4624 0.2100
H6 H 0.0892 0.3963 0.3020
H7 H 0.0324 0.1618 0.1528
H8 H 0.1878 0.2100 0.2172
H9 H 0.1741 0.1707 0.0688
H10 H 0.2309 0.5000 -0.4769
H11 H 0.2121 0.5606 -0.6932
H12 H 0.3683 0.6918 -0.7476
H13 H 0.5434 0.7624 -0.5858
H14 H 0.5623 0.7017 -0.3695
C6B C 0.56328(27) 0.50794(19) 0.04069(26)
C5B C 0.68536(30) 0.56140(20) -0.00111(27)
C7B C 0.57861(28) 0.47185(20) 0.16921(26)
C4B C 0.78860(30) 0.60486(22) -0.03725(27)
C8B C 0.58995(30) 0.44135(20) 0.27623(30)
Si1B Si 0.94515(8) 0.67123(6) -0.09537(7)
C14B C 0.60182(19) 0.40414(12) 0.40536(17)
C1B C 1.10085(36) 0.67237(26) 0.03466(34)
C2B C 1.00061(42) 0.60549(27) -0.23740(35)
C3B C 0.88037(41) 0.79726(25) -0.13583(40)
C9B C 0.70382(19) 0.44524(12) 0.49962(17)
C13B C 0.51083(19) 0.32772(12) 0.43707(17)
H1B H 1.1802 0.7062 -0.0083
H2B H 1.0735 0.7130 0.1081
H3B H 1.1384 0.6076 0.0677
H4B H 1.0849 0.6366 -0.2769
H5B H 1.0287 0.5376 -0.2100
H6B H 0.9108 0.6037 -0.3020
H7B H 0.9676 0.8382 -0.1528
H8B H 0.8122 0.7900 -0.2172
H9B H 0.8259 0.8293 -0.0688
C10B C 0.71483(19) 0.40993(12) 0.62560(17)
H10B H 0.7691 0.5000 0.4769
C12B C 0.52184(19) 0.29241(12) 0.56305(17)
H14B H 0.4377 0.2983 0.3695
C11B C 0.62383(19) 0.33352(12) 0.65731(17)
H11B H 0.7879 0.4394 0.6932
H13B H 0.4566 0.2376 0.5858
H12B H 0.6317 0.3082 0.7476
loop_
_geom_bond_atom_site_label_1
_geom_bond_atom_site_label_2
_geom_bond_site_symmetry_1
_geom_bond_site_symmetry_2
Si1 C1 1_555 1_555
C1 H1 1_555 1_555
C2 Si1 1_555 1_555
C3 Si1 1_555 1_555
C4 Si1 1_555 1_555
C5 C4 1_555 1_555
C6 C5 1_555 1_555
C7 C6 1_555 1_555
C8 C7 1_555 1_555
C9 C10 1_555 1_555
C10 C11 1_555 1_555
C11 C12 1_555 1_555
C12 C13 1_555 1_555
C13 C14 1_555 1_555
C14 C8 1_555 1_555
H2 C1 1_555 1_555
H3 C1 1_555 1_555
H4 C2 1_555 1_555
H5 C2 1_555 1_555
H6 C2 1_555 1_555
H7 C3 1_555 1_555
H8 C3 1_555 1_555
H9 C3 1_555 1_555
H10 C9 1_555 1_555
H11 C10 1_555 1_555
H12 C11 1_555 1_555
H13 C12 1_555 1_555
H14 C13 1_555 1_555
C6B C6 1_555 1_555
C5B C6B 1_555 1_555
C7B C6B 1_555 1_555
C4B C5B 1_555 1_555
C8B C7B 1_555 1_555
Si1B C4B 1_555 1_555
C14B C8B 1_555 1_555
C1B Si1B 1_555 1_555
C2B Si1B 1_555 1_555
C3B Si1B 1_555 1_555
C9B C14B 1_555 1_555
C13B C14B 1_555 1_555
H1B C1B 1_555 1_555
H2B C1B 1_555 1_555
H3B C1B 1_555 1_555
H4B C2B 1_555 1_555
H5B C2B 1_555 1_555
H6B C2B 1_555 1_555
H7B C3B 1_555 1_555
H8B C3B 1_555 1_555
H9B C3B 1_555 1_555
C10B C9B 1_555 1_555
H10B C9B 1_555 1_555
C12B C13B 1_555 1_555
H14B C13B 1_555 1_555
C11B C10B 1_555 1_555
H11B C10B 1_555 1_555
H13B C12B 1_555 1_555
H12B C11B 1_555 1_555
C9 C14 1_555 1_555
C12B C11B 1_555 1_555

#END
