
#######################################################################
#
#                 Cambridge Crystallographic Data Centre
#                                CCDC 
#
#######################################################################
#
# If this CIF has been generated from an entry in the Cambridge 
# Structural Database, then it will include bibliographic, chemical, 
# crystal, experimental, refinement or atomic coordinate data resulting 
# from the CCDC's data processing and validation procedures.
#
#######################################################################

data_JUGJIG
_chemical_formula_moiety         'C25 H23 N3 O1'
_chemical_name_systematic        
(Z)-3-(4-butoxyphenyl)-2-(4-(((E)-pyridin-2-ylmethylene)amino)phenyl)acrylonitrile
_symmetry_cell_setting           triclinic
_symmetry_space_group_name_H-M   'P -1'
_symmetry_Int_Tables_number      2
_space_group_name_Hall           '-P 1'
loop_
_symmetry_equiv_pos_site_id
_symmetry_equiv_pos_as_xyz
1 x,y,z
2 -x,-y,-z
_cell_length_a                   8.759(4)
_cell_length_b                   10.779(4)
_cell_length_c                   12.594(5)
_cell_angle_alpha                65.873(4)
_cell_angle_beta                 88.332(5)
_cell_angle_gamma                73.800(5)
_cell_volume                     1037.18
_exptl_crystal_colour            'claybank brown'
_exptl_crystal_description       triclinic
_chemical_melting_point          '378 K'
_cell_formula_units_Z            2
_exptl_crystal_preparation       Luminescent
loop_
_atom_site_label
_atom_site_type_symbol
_atom_site_fract_x
_atom_site_fract_y
_atom_site_fract_z
C1 C -0.1750(2) 0.1610(2) 1.77032(16)
H1 H -0.2143 0.1295 1.8430
C2 C -0.1095(2) 0.0688(2) 1.72086(17)
H2 H -0.1045 -0.0267 1.7593
C3 C -0.1811(2) 0.3004(2) 1.71016(16)
H3 H -0.2269 0.3627 1.7438
C4 C -0.0516(2) 0.11881(18) 1.61423(15)
H4 H -0.0074 0.0580 1.5789
C5 C -0.05963(18) 0.26084(17) 1.55994(13)
C6 C 0.0056(2) 0.32044(18) 1.44805(14)
H5 H -0.0067 0.4176 1.4128
C7 C 0.13917(18) 0.30328(16) 1.29010(13)
C8 C 0.2694(2) 0.21674(16) 1.26425(14)
H6 H 0.3144 0.1236 1.3186
C9 C 0.07473(19) 0.44077(17) 1.20541(14)
H7 H -0.0139 0.5011 1.2199
C10 C 0.1387(2) 0.48927(17) 1.10137(13)
H8 H 0.0934 0.5822 1.0468
C11 C 0.33329(19) 0.26586(16) 1.16002(13)
H9 H 0.4219 0.2053 1.1459
C12 C 0.27064(17) 0.40231(15) 1.07506(12)
C13 C 0.34107(18) 0.45152(16) 0.96274(13)
C14 C 0.4851(2) 0.35140(17) 0.95570(13)
C15 C 0.28494(19) 0.57957(17) 0.87256(13)
H10 H 0.1945 0.6394 0.8856
C16 C 0.34103(19) 0.64068(16) 0.75828(13)
C17 C 0.4394(2) 0.56348(16) 0.70427(14)
H11 H 0.4717 0.4648 0.7423
C18 C 0.2927(2) 0.78817(17) 0.69558(14)
H12 H 0.2237 0.8437 0.7275
C19 C 0.3431(2) 0.85343(17) 0.58927(14)
H13 H 0.3097 0.9521 0.5506
C20 C 0.44392(19) 0.77407(16) 0.53808(13)
C21 C 0.4907(2) 0.62748(17) 0.59677(14)
H14 H 0.5570 0.5723 0.5634
C22 C 0.5908(2) 0.76802(16) 0.37643(13)
H15 H 0.5402 0.7033 0.3670
H16 H 0.6912 0.7122 0.4247
C23 C 0.6217(2) 0.86693(17) 0.25962(14)
H17 H 0.6663 0.9349 0.2694
H18 H 0.5212 0.9195 0.2109
C24 C 0.7341(2) 0.79046(19) 0.19913(15)
H19 H 0.6911 0.7194 0.1935
H20 H 0.8352 0.7408 0.2473
C25 C 0.7652(3) 0.8831(2) 0.07870(18)
H21 H 0.6671 0.9283 0.0285
H22 H 0.8409 0.8259 0.0480
H23 H 0.8076 0.9544 0.0828
N1 N -0.12585(18) 0.35323(15) 1.60630(12)
N2 N 0.07769(16) 0.24381(14) 1.39831(11)
N3 N 0.5999(2) 0.26961(17) 0.95581(13)
O1 O 0.48961(15) 0.84712(11) 0.43224(9)
loop_
_geom_bond_atom_site_label_1
_geom_bond_atom_site_label_2
_geom_bond_site_symmetry_1
_geom_bond_site_symmetry_2
C1 H1 1_555 1_555
C2 C1 1_555 1_555
H2 C2 1_555 1_555
C3 C1 1_555 1_555
H3 C3 1_555 1_555
C4 C2 1_555 1_555
H4 C4 1_555 1_555
C5 C4 1_555 1_555
C6 C5 1_555 1_555
H5 C6 1_555 1_555
C7 C8 1_555 1_555
C8 H6 1_555 1_555
C9 C7 1_555 1_555
H7 C9 1_555 1_555
C10 C9 1_555 1_555
H8 C10 1_555 1_555
C11 C8 1_555 1_555
H9 C11 1_555 1_555
C12 C10 1_555 1_555
C13 C12 1_555 1_555
C14 C13 1_555 1_555
C15 C13 1_555 1_555
H10 C15 1_555 1_555
C16 C15 1_555 1_555
C17 C16 1_555 1_555
H11 C17 1_555 1_555
C18 C16 1_555 1_555
H12 C18 1_555 1_555
C19 C18 1_555 1_555
H13 C19 1_555 1_555
C20 C19 1_555 1_555
C21 C17 1_555 1_555
H14 C21 1_555 1_555
C22 H15 1_555 1_555
H16 C22 1_555 1_555
C23 C22 1_555 1_555
H17 C23 1_555 1_555
H18 C23 1_555 1_555
C24 C23 1_555 1_555
H19 C24 1_555 1_555
H20 C24 1_555 1_555
C25 C24 1_555 1_555
H21 C25 1_555 1_555
H22 C25 1_555 1_555
H23 C25 1_555 1_555
N1 C3 1_555 1_555
N2 C6 1_555 1_555
N3 C14 1_555 1_555
O1 C20 1_555 1_555
C5 N1 1_555 1_555
C7 N2 1_555 1_555
C11 C12 1_555 1_555
C20 C21 1_555 1_555
C22 O1 1_555 1_555

#END
