
#######################################################################
#
#                 Cambridge Crystallographic Data Centre
#                                CCDC 
#
#######################################################################
#
# If this CIF has been generated from an entry in the Cambridge 
# Structural Database, then it will include bibliographic, chemical, 
# crystal, experimental, refinement or atomic coordinate data resulting 
# from the CCDC's data processing and validation procedures.
#
#######################################################################

data_JUGNII
_chemical_formula_moiety         'C8 H10 N2 O2 S1,H2 O1'
_chemical_name_systematic        
'((4,6-Dimethyl-2-pyrimidinyl)thio)acetic acid monohydrate'
_symmetry_cell_setting           monoclinic
_symmetry_space_group_name_H-M   'P 21/c'
_symmetry_Int_Tables_number      14
_space_group_name_Hall           '-P 2ybc'
loop_
_symmetry_equiv_pos_site_id
_symmetry_equiv_pos_as_xyz
1 x,y,z
2 -x,1/2+y,1/2-z
3 -x,-y,-z
4 x,1/2-y,1/2+z
_cell_length_a                   7.652(1)
_cell_length_b                   10.741(1)
_cell_length_c                   13.267(1)
_cell_angle_alpha                90
_cell_angle_beta                 100.80(1)
_cell_angle_gamma                90
_cell_volume                     1071.1
_exptl_crystal_colour            colorless
_cell_formula_units_Z            4
loop_
_atom_site_label
_atom_site_type_symbol
_atom_site_fract_x
_atom_site_fract_y
_atom_site_fract_z
S1 S 0.8180(1) 0.18138(8) 0.34667(6)
O1 O 0.6504(3) 0.3943(3) 0.4492(2)
O2 O 0.8796(3) 0.4128(2) 0.5770(2)
N1 N 0.7041(3) -0.0407(2) 0.3774(2)
N2 N 0.7947(3) 0.0829(2) 0.5281(2)
C1 C 0.7667(4) 0.0629(3) 0.4278(2)
C2 C 0.7516(4) -0.0117(3) 0.5852(2)
C3 C 0.6828(4) -0.1208(3) 0.5409(2)
C4 C 0.6607(4) -0.1341(3) 0.4356(2)
C5 C 0.7844(6) 0.0102(4) 0.6986(3)
C6 C 0.5941(5) -0.2512(3) 0.3819(3)
C7 C 0.9235(4) 0.2929(3) 0.4384(2)
C8 C 0.8012(4) 0.3710(3) 0.4879(2)
H1 H 0.7929 0.4726 0.6054
H4 H 0.6679 -0.1953 0.5839
H5 H 0.8326 0.0913 0.7154
H6 H 0.6765 0.0026 0.7251
H7 H 0.8727 -0.0492 0.7289
H8 H 0.5869 -0.2432 0.3088
H9 H 0.6708 -0.3198 0.4049
H10 H 0.4770 -0.2713 0.3933
H11 H 1.0000 0.2500 0.5000
H12 H 1.0000 0.3339 0.3964
O3 O 0.3098(3) 0.0683(2) 0.8383(2)
H2 H 0.2910 0.0566 0.7695
H3 H 0.4589 0.0820 0.8750
loop_
_geom_bond_atom_site_label_1
_geom_bond_atom_site_label_2
_geom_bond_site_symmetry_1
_geom_bond_site_symmetry_2
S1 C1 1_555 1_555
O1 C8 1_555 1_555
O2 C8 1_555 1_555
O3 H2 1_555 1_555
N1 C1 1_555 1_555
N2 C1 1_555 1_555
C2 N2 1_555 1_555
C3 C2 1_555 1_555
C4 N1 1_555 1_555
C5 C2 1_555 1_555
C6 C4 1_555 1_555
C7 S1 1_555 1_555
C8 C7 1_555 1_555
H1 O2 1_555 1_555
H3 O3 1_555 1_555
H4 C3 1_555 1_555
H5 C5 1_555 1_555
H6 C5 1_555 1_555
H7 C5 1_555 1_555
H8 C6 1_555 1_555
H9 C6 1_555 1_555
H10 C6 1_555 1_555
H11 C7 1_555 1_555
H12 C7 1_555 1_555
C3 C4 1_555 1_555

#END
