
#######################################################################
#
#                 Cambridge Crystallographic Data Centre
#                                CCDC 
#
#######################################################################
#
# If this CIF has been generated from an entry in the Cambridge 
# Structural Database, then it will include bibliographic, chemical, 
# crystal, experimental, refinement or atomic coordinate data resulting 
# from the CCDC's data processing and validation procedures.
#
#######################################################################

data_JUGXIS
_chemical_formula_moiety         'C29 H33 N3 O3 S2'
_chemical_name_systematic        
(4S,14S)-(-)-4,14-Dibenzyl-6,9,12-trioxa-3,15,21-triazabicyclo(15.3.1)henicosa-1(21),17,19-triene-2,16-dithione
_symmetry_cell_setting           orthorhombic
_symmetry_space_group_name_H-M   'P 21 21 21'
_symmetry_Int_Tables_number      19
_space_group_name_Hall           'P 2ac 2ab'
loop_
_symmetry_equiv_pos_site_id
_symmetry_equiv_pos_as_xyz
1 x,y,z
2 1/2+x,1/2-y,-z
3 -x,1/2+y,1/2-z
4 1/2-x,-y,1/2+z
_cell_length_a                   11.738(4)
_cell_length_b                   11.955(3)
_cell_length_c                   20.595(10)
_cell_angle_alpha                90
_cell_angle_beta                 90
_cell_angle_gamma                90
_cell_volume                     2890.05
_exptl_crystal_colour            yellow
_chemical_melting_point          139-140deg.C
_cell_formula_units_Z            4
loop_
_atom_site_label
_atom_site_type_symbol
_atom_site_fract_x
_atom_site_fract_y
_atom_site_fract_z
N1 N 0.9670(9) 0.6450(10) 0.1490(5)
C1 C 0.9250(11) 0.6056(11) 0.0943(8)
C2 C 1.0109(12) 0.5733(10) 0.0426(6)
S1 S 0.9732(4) 0.5530(4) -0.0352(2)
N2 N 1.1175(10) 0.5601(11) 0.0657(5)
C3 C 1.2149(11) 0.5305(12) 0.0254(7)
C4 C 1.2685(11) 0.6378(13) -0.0034(7)
C5 C 1.3726(14) 0.6156(13) -0.0431(9)
C6 C 1.4802(16) 0.6329(14) -0.0161(7)
C7 C 1.5799(15) 0.6159(17) -0.0516(11)
C8 C 1.5733(17) 0.5696(15) -0.1112(11)
C9 C 1.4680(21) 0.5545(14) -0.1423(8)
C10 C 1.3659(15) 0.5741(14) -0.1050(9)
C11 C 1.2956(12) 0.4693(12) 0.0688(8)
O1 O 1.3210(8) 0.5358(9) 0.1218(5)
C12 C 1.3963(13) 0.4839(13) 0.1687(8)
C13 C 1.4121(13) 0.5672(16) 0.2223(8)
O2 O 1.4905(9) 0.6557(13) 0.2077(6)
C14 C 1.4502(14) 0.7453(18) 0.1738(9)
C15 C 1.3820(14) 0.8287(12) 0.2103(8)
O3 O 1.2773(8) 0.7875(8) 0.2318(5)
C16 C 1.2208(13) 0.8649(12) 0.2724(7)
C17 C 1.1221(12) 0.8000(13) 0.3026(7)
C18 C 1.1628(12) 0.7065(12) 0.3483(6)
C19 C 1.2387(12) 0.7440(13) 0.4026(8)
C20 C 1.3550(16) 0.7273(13) 0.3960(7)
C21 C 1.4300(15) 0.7586(17) 0.4418(10)
C22 C 1.3917(16) 0.8105(16) 0.4963(12)
C23 C 1.2778(21) 0.8327(14) 0.5037(8)
C24 C 1.2029(15) 0.8016(12) 0.4569(9)
N3 N 1.0542(10) 0.7507(10) 0.2494(5)
C25 C 0.9424(13) 0.7330(14) 0.2562(7)
S2 S 0.8629(4) 0.7593(6) 0.3186(2)
C26 C 0.8946(12) 0.6793(12) 0.1951(7)
C27 C 0.7745(12) 0.6646(12) 0.1865(7)
C28 C 0.7376(13) 0.6175(13) 0.1298(8)
C29 C 0.8108(11) 0.5891(11) 0.0824(8)
H1 H 1.1942 0.4821 -0.0099
H2 H 1.2906 0.6858 0.0318
H3 H 1.2123 0.6748 -0.0295
H4 H 1.4857 0.6572 0.0282
H5 H 1.6516 0.6397 -0.0340
H6 H 1.6416 0.5455 -0.1326
H7 H 1.4620 0.5320 -0.1869
H8 H 1.2926 0.5600 -0.1240
H9 H 1.3648 0.4544 0.0456
H10 H 1.2626 0.4001 0.0830
H11 H 1.3653 0.4145 0.1841
H12 H 1.4688 0.4704 0.1486
H13 H 1.4411 0.5267 0.2590
H14 H 1.3393 0.5988 0.2329
H15 H 1.5158 0.7816 0.1556
H16 H 1.4031 0.7169 0.1394
H17 H 1.3685 0.8908 0.1818
H18 H 1.4255 0.8534 0.2471
H19 H 1.2714 0.8915 0.3057
H20 H 1.1931 0.9271 0.2475
H21 H 1.0799 0.8534 0.3277
H22 H 1.2006 0.6507 0.3226
H23 H 1.0964 0.6744 0.3682
H24 H 1.3858 0.6911 0.3582
H25 H 1.5102 0.7455 0.4371
H26 H 1.4421 0.8355 0.5301
H27 H 1.2478 0.8663 0.5424
H28 H 1.1235 0.8205 0.4600
H29 H 0.7209 0.6877 0.2190
H30 H 0.6575 0.6055 0.1239
H31 H 0.7831 0.5582 0.0424
loop_
_geom_bond_atom_site_label_1
_geom_bond_atom_site_label_2
_geom_bond_site_symmetry_1
_geom_bond_site_symmetry_2
N1 C1 1_555 1_555
C1 C2 1_555 1_555
C2 S1 1_555 1_555
N2 C2 1_555 1_555
C3 N2 1_555 1_555
C4 C3 1_555 1_555
C5 C4 1_555 1_555
C6 C5 1_555 1_555
C7 C6 1_555 1_555
C8 C7 1_555 1_555
C9 C8 1_555 1_555
C10 C5 1_555 1_555
C11 C3 1_555 1_555
O1 C11 1_555 1_555
C12 O1 1_555 1_555
C13 C12 1_555 1_555
O2 C13 1_555 1_555
C14 O2 1_555 1_555
C15 C14 1_555 1_555
O3 C15 1_555 1_555
C16 O3 1_555 1_555
C17 C16 1_555 1_555
C18 C17 1_555 1_555
C19 C18 1_555 1_555
C20 C19 1_555 1_555
C21 C20 1_555 1_555
C22 C21 1_555 1_555
C23 C22 1_555 1_555
C24 C19 1_555 1_555
N3 C17 1_555 1_555
C25 N3 1_555 1_555
S2 C25 1_555 1_555
C26 N1 1_555 1_555
C27 C26 1_555 1_555
C28 C27 1_555 1_555
C29 C1 1_555 1_555
H1 C3 1_555 1_555
H2 C4 1_555 1_555
H3 C4 1_555 1_555
H4 C6 1_555 1_555
H5 C7 1_555 1_555
H6 C8 1_555 1_555
H7 C9 1_555 1_555
H8 C10 1_555 1_555
H9 C11 1_555 1_555
H10 C11 1_555 1_555
H11 C12 1_555 1_555
H12 C12 1_555 1_555
H13 C13 1_555 1_555
H14 C13 1_555 1_555
H15 C14 1_555 1_555
H16 C14 1_555 1_555
H17 C15 1_555 1_555
H18 C15 1_555 1_555
H19 C16 1_555 1_555
H20 C16 1_555 1_555
H21 C17 1_555 1_555
H22 C18 1_555 1_555
H23 C18 1_555 1_555
H24 C20 1_555 1_555
H25 C21 1_555 1_555
H26 C22 1_555 1_555
H27 C23 1_555 1_555
H28 C24 1_555 1_555
H29 C27 1_555 1_555
H30 C28 1_555 1_555
H31 C29 1_555 1_555
C9 C10 1_555 1_555
C23 C24 1_555 1_555
C25 C26 1_555 1_555
C28 C29 1_555 1_555

#END
