
#######################################################################
#
#                 Cambridge Crystallographic Data Centre
#                                CCDC 
#
#######################################################################
#
# If this CIF has been generated from an entry in the Cambridge 
# Structural Database, then it will include bibliographic, chemical, 
# crystal, experimental, refinement or atomic coordinate data resulting 
# from the CCDC's data processing and validation procedures.
#
#######################################################################

data_JUGXOY
_chemical_formula_moiety         'C27 H29 N3 O3 S2'
_chemical_name_systematic        
(4S,14S)-(-)-4,14-Diphenyl-6,9,12-trioxa-3,15,21-triazabicyclo(15.3.1)henicosa-1(21),17,19-triene-2,16-dithione
_symmetry_cell_setting           trigonal
_symmetry_space_group_name_H-M   'P 32 2 1'
_symmetry_Int_Tables_number      154
_space_group_name_Hall           'P 32 2"'
loop_
_symmetry_equiv_pos_site_id
_symmetry_equiv_pos_as_xyz
1 x,y,z
2 -y,x-y,2/3+z
3 -x+y,-x,1/3+z
4 y,x,-z
5 x-y,-y,1/3-z
6 -x,-x+y,2/3-z
_cell_length_a                   12.632(3)
_cell_length_b                   12.632(3)
_cell_length_c                   28.875(8)
_cell_angle_alpha                90
_cell_angle_beta                 90
_cell_angle_gamma                120
_cell_volume                     3990.22
_exptl_crystal_colour            yellow
_chemical_melting_point          134-135deg.C
_cell_formula_units_Z            6
loop_
_atom_site_label
_atom_site_type_symbol
_atom_site_fract_x
_atom_site_fract_y
_atom_site_fract_z
N1 N 0.3839(14) 0.0000 0.1667
C1 C 0.3652(16) 0.0758(15) 0.1405(5)
C2 C 0.4692(13) 0.1626(13) 0.1092(5)
S1 S 0.4563(5) 0.2482(5) 0.0695(2)
N2 N 0.5743(11) 0.1618(10) 0.1191(4)
C3 C 0.6897(14) 0.2455(15) 0.0943(5)
C4 C 0.7959(14) 0.2777(12) 0.1274(5)
O1 O 0.7893(9) 0.1671(9) 0.1417(3)
C5 C 0.8915(14) 0.1965(13) 0.1712(5)
C6 C 0.8720(14) 0.0813(14) 0.1942(5)
O2 O 0.8927(12) 0.0000 0.1667
C7 C 0.2564(17) 0.0779(17) 0.1389(6)
C8 C 0.1617(20) 0.0000 0.1667
C9 C 0.7034(17) 0.1968(18) 0.0483(6)
C10 C 0.7876(18) 0.2774(17) 0.0167(6)
C11 C 0.8025(21) 0.2322(26) -0.0247(7)
C12 C 0.7364(32) 0.1105(32) -0.0341(10)
C13 C 0.6587(23) 0.0318(22) -0.0023(11)
C14 C 0.6463(16) 0.0787(17) 0.0379(6)
H1 H 0.6887 0.3185 0.0859
H2 H 0.7896 0.3202 0.1539
H3 H 0.8721 0.3285 0.1119
H4 H 0.9651 0.2314 0.1532
H5 H 0.8980 0.2539 0.1944
H6 H 0.7888 0.0373 0.2047
H7 H 0.9261 0.1047 0.2203
H8 H 0.2478 0.1334 0.1187
H9 H 0.8347 0.3632 0.0235
H10 H 0.8598 0.2871 -0.0471
H11 H 0.7452 0.0805 -0.0635
H12 H 0.6138 -0.0545 -0.0082
H13 H 0.5921 0.0224 0.0608
C1D C 0.2894(22) -0.0758(15) 0.1928(5)
C6D C 0.7907(20) -0.0813(14) 0.1391(5)
C7D C 0.1785(24) -0.0779(17) 0.1944(6)
C2D C 0.3066(18) -0.1626(13) 0.2241(5)
C5D C 0.6950(19) -0.1965(13) 0.1621(5)
H6D H 0.7515 -0.0373 0.1286
H7D H 0.8214 -0.1047 0.1130
H8D H 0.1144 -0.1334 0.2146
S1D S 0.2081(7) -0.2482(5) 0.2638(2)
N2D N 0.4125(15) -0.1618(10) 0.2142(4)
O1D O 0.6222(13) -0.1671(9) 0.1916(3)
H4D H 0.7337 -0.2314 0.1801
H5D H 0.6441 -0.2539 0.1389
C3D C 0.4442(21) -0.2455(15) 0.2390(5)
C4D C 0.5182(18) -0.2777(12) 0.2059(5)
C9D C 0.5066(25) -0.1968(18) 0.2850(6)
H1D H 0.3702 -0.3185 0.2474
H2D H 0.4694 -0.3202 0.1794
H3D H 0.5436 -0.3285 0.2214
C10D C 0.5102(25) -0.2774(17) 0.3166(6)
C14D C 0.5676(23) -0.0787(17) 0.2954(6)
C11D C 0.5703(33) -0.2322(26) 0.3580(7)
H9D H 0.4715 -0.3632 0.3098
C13D C 0.6269(32) -0.0318(22) 0.3356(11)
H13D H 0.5697 -0.0224 0.2725
C12D C 0.6259(45) -0.1105(32) 0.3674(10)
H10D H 0.5727 -0.2871 0.3804
H12D H 0.6683 0.0545 0.3415
H11D H 0.6647 -0.0805 0.3968
N3 N 0.5376(12) 0.5376(12) 0.0000
C15 C 0.5452(14) 0.6288(14) 0.0235(5)
C16 C 0.4404(16) 0.6266(16) 0.0506(5)
S2 S 0.4455(5) 0.7355(5) 0.0792(2)
N4 N 0.3454(12) 0.5071(12) 0.0491(4)
C17 C 0.2301(14) 0.4868(14) 0.0716(5)
C18 C 0.1207(17) 0.3814(17) 0.0477(6)
O3 O 0.1318(14) 0.2801(15) 0.0505(5)
C19 C 0.0086(34) 0.1681(33) 0.0472(11)
C20 C 0.0580(34) 0.0836(36) 0.0458(12)
O4 O 0.0235(17) 0.0235(17) 0.0000
C21 C 0.6585(14) 0.7446(15) 0.0242(5)
C22 C 0.7569(17) 0.7569(17) 0.0000
C23 C 0.2288(13) 0.4621(13) 0.1224(5)
C24 C 0.1708(14) 0.4994(14) 0.1523(5)
C25 C 0.1590(15) 0.4764(15) 0.1991(6)
C26 C 0.2087(14) 0.4134(14) 0.2164(6)
C27 C 0.2746(16) 0.3737(16) 0.1898(6)
C28 C 0.2818(13) 0.4032(14) 0.1430(5)
H14 H 0.2256 0.5601 0.0684
H15 H 0.1187 0.4016 0.0157
H16 H 0.0467 0.3664 0.0627
H17 H 0.6643 0.8123 0.0415
H18 H 0.1355 0.5451 0.1398
H19 H 0.1165 0.5046 0.2186
H20 H 0.1986 0.3944 0.2489
H21 H 0.3117 0.3299 0.2027
H22 H 0.3282 0.3798 0.1234
C15C C 0.6288(14) 0.5452(14) -0.0235(5)
C20C C 0.0836(36) 0.0580(34) -0.0458(12)
C21C C 0.7446(15) 0.6585(14) -0.0242(5)
C16C C 0.6266(16) 0.4404(16) -0.0506(5)
C19C C 0.1681(33) 0.0086(34) -0.0472(11)
H17C H 0.8123 0.6643 -0.0415
S2C S 0.7355(5) 0.4455(5) -0.0792(2)
N4C N 0.5071(12) 0.3454(12) -0.0491(4)
O3C O 0.2801(15) 0.1318(14) -0.0505(5)
C17C C 0.4868(14) 0.2301(14) -0.0716(5)
C18C C 0.3814(17) 0.1207(17) -0.0477(6)
C23C C 0.4621(13) 0.2288(13) -0.1224(5)
H14C H 0.5601 0.2256 -0.0684
H15C H 0.4016 0.1187 -0.0157
H16C H 0.3664 0.0467 -0.0627
C24C C 0.4994(14) 0.1708(14) -0.1523(5)
C28C C 0.4032(14) 0.2818(13) -0.1430(5)
C25C C 0.4764(15) 0.1590(15) -0.1991(6)
H18C H 0.5451 0.1355 -0.1398
C27C C 0.3737(16) 0.2746(16) -0.1898(6)
H22C H 0.3798 0.3282 -0.1234
C26C C 0.4134(14) 0.2087(14) -0.2164(6)
H19C H 0.5046 0.1165 -0.2186
H21C H 0.3299 0.3117 -0.2027
H20C H 0.3944 0.1986 -0.2489
loop_
_geom_bond_atom_site_label_1
_geom_bond_atom_site_label_2
_geom_bond_site_symmetry_1
_geom_bond_site_symmetry_2
N1 C1 1_555 1_555
C1 C2 1_555 1_555
C2 S1 1_555 1_555
N2 C2 1_555 1_555
C3 N2 1_555 1_555
C4 C3 1_555 1_555
O1 C4 1_555 1_555
C5 O1 1_555 1_555
C6 C5 1_555 1_555
O2 C6 1_555 1_555
C7 C1 1_555 1_555
C8 C7 1_555 1_555
C9 C3 1_555 1_555
C10 C9 1_555 1_555
C11 C10 1_555 1_555
C12 C11 1_555 1_555
C13 C12 1_555 1_555
C14 C9 1_555 1_555
N3 C15 1_555 1_555
C15 C16 1_555 1_555
C16 S2 1_555 1_555
N4 C16 1_555 1_555
C17 N4 1_555 1_555
C18 C17 1_555 1_555
O3 C18 1_555 1_555
C19 O3 1_555 1_555
C20 C19 1_555 1_555
O4 C20 1_555 1_555
C21 C15 1_555 1_555
C22 C21 1_555 1_555
C23 C17 1_555 1_555
C24 C23 1_555 1_555
C25 C24 1_555 1_555
C26 C25 1_555 1_555
C27 C26 1_555 1_555
C28 C23 1_555 1_555
H1 C3 1_555 1_555
H2 C4 1_555 1_555
H3 C4 1_555 1_555
H4 C5 1_555 1_555
H5 C5 1_555 1_555
H6 C6 1_555 1_555
H7 C6 1_555 1_555
H8 C7 1_555 1_555
H9 C10 1_555 1_555
H10 C11 1_555 1_555
H11 C12 1_555 1_555
H12 C13 1_555 1_555
H13 C14 1_555 1_555
H14 C17 1_555 1_555
H15 C18 1_555 1_555
H16 C18 1_555 1_555
H17 C21 1_555 1_555
H18 C24 1_555 1_555
H19 C25 1_555 1_555
H20 C26 1_555 1_555
H21 C27 1_555 1_555
H22 C28 1_555 1_555
C1D N1 1_555 1_555
C6D O2 1_555 1_555
C7D C8 1_555 1_555
C2D C1D 1_555 1_555
C5D C6D 1_555 1_555
H6D C6D 1_555 1_555
H7D C6D 1_555 1_555
H8D C7D 1_555 1_555
S1D C2D 1_555 1_555
N2D C2D 1_555 1_555
O1D C5D 1_555 1_555
H4D C5D 1_555 1_555
H5D C5D 1_555 1_555
C3D N2D 1_555 1_555
C4D O1D 1_555 1_555
C9D C3D 1_555 1_555
H1D C3D 1_555 1_555
H2D C4D 1_555 1_555
H3D C4D 1_555 1_555
C10D C9D 1_555 1_555
C14D C9D 1_555 1_555
C11D C10D 1_555 1_555
H9D C10D 1_555 1_555
C13D C14D 1_555 1_555
H13D C14D 1_555 1_555
C12D C11D 1_555 1_555
H10D C11D 1_555 1_555
H12D C13D 1_555 1_555
H11D C12D 1_555 1_555
C15C N3 1_555 1_555
C20C O4 1_555 1_555
C21C C22 1_555 1_555
C16C C15C 1_555 1_555
C19C C20C 1_555 1_555
H17C C21C 1_555 1_555
S2C C16C 1_555 1_555
N4C C16C 1_555 1_555
O3C C19C 1_555 1_555
C17C N4C 1_555 1_555
C18C O3C 1_555 1_555
C23C C17C 1_555 1_555
H14C C17C 1_555 1_555
H15C C18C 1_555 1_555
H16C C18C 1_555 1_555
C24C C23C 1_555 1_555
C28C C23C 1_555 1_555
C25C C24C 1_555 1_555
H18C C24C 1_555 1_555
C27C C28C 1_555 1_555
H22C C28C 1_555 1_555
C26C C25C 1_555 1_555
H19C C25C 1_555 1_555
H21C C27C 1_555 1_555
H20C C26C 1_555 1_555
C13 C14 1_555 1_555
C27 C28 1_555 1_555
C1D C7D 1_555 1_555
C3D C4D 1_555 1_555
C13D C12D 1_555 1_555
C15C C21C 1_555 1_555
C17C C18C 1_555 1_555
C27C C26C 1_555 1_555

#END
