
#######################################################################
#
#                 Cambridge Crystallographic Data Centre
#                                CCDC 
#
#######################################################################
#
# If this CIF has been generated from an entry in the Cambridge 
# Structural Database, then it will include bibliographic, chemical, 
# crystal, experimental, refinement or atomic coordinate data resulting 
# from the CCDC's data processing and validation procedures.
#
#######################################################################

data_JUGYAL
_chemical_formula_moiety         'C32 H40 O9 S1'
_chemical_name_systematic        
(-)-trans-(2S,5S)-2-(3-(((2S)-2-Hydroxypropyl)-sulfonyl)-4-n-propoxy-5-(benzyloxy)phenyl)-5-(3,4,5-trimethoxyphenyl)tetrahydrofuran
_symmetry_cell_setting           monoclinic
_symmetry_space_group_name_H-M   'P 21'
_symmetry_Int_Tables_number      4
_space_group_name_Hall           'P 2yb'
loop_
_symmetry_equiv_pos_site_id
_symmetry_equiv_pos_as_xyz
1 x,y,z
2 -x,1/2+y,-z
_cell_length_a                   11.2230(7)
_cell_length_b                   8.659(2)
_cell_length_c                   32.550(2)
_cell_angle_alpha                90
_cell_angle_beta                 92.464(5)
_cell_angle_gamma                90
_cell_volume                     3160.28
_exptl_crystal_colour            colorless
_chemical_melting_point          117-118deg.C
_cell_formula_units_Z            4
loop_
_atom_site_label
_atom_site_type_symbol
_atom_site_fract_x
_atom_site_fract_y
_atom_site_fract_z
S1 S 0.4703(1) 0.1736 0.37968(4)
O1 O 0.6677(3) 1.1049(4) 0.5380(1)
O2 O 0.8824(3) 1.0968(4) 0.5775(1)
O3 O 1.0491(3) 0.8906(4) 0.5568(1)
O4 O 0.6858(3) 0.6827(4) 0.4269(1)
O5 O 0.3100(3) 0.3176(4) 0.31362(9)
O6 O 0.3160(3) 0.6082(4) 0.2869(1)
O7 O 0.4703(3) 0.0726(4) 0.3446(1)
O8 O 0.5648(3) 0.1590(4) 0.4106(1)
O9 O 0.3639(4) -0.0858(5) 0.4336(2)
C1 C 0.8198(4) 0.8227(6) 0.4741(1)
C2 C 0.7303(4) 0.9184(6) 0.4874(1)
C3 C 0.7485(4) 1.0037(6) 0.5231(2)
C4 C 0.8584(4) 0.9976(6) 0.5448(1)
C5 C 0.9463(4) 0.8969(6) 0.5323(1)
C6 C 0.9267(4) 0.8091(6) 0.4966(1)
C7 C 0.8055(4) 0.7393(6) 0.4336(1)
C8 C 0.6352(4) 0.7430(6) 0.3899(2)
C9 C 0.7382(5) 0.7808(7) 0.3639(2)
C10 C 0.8282(5) 0.8431(8) 0.3972(2)
C11 C 0.5496(4) 0.6260(6) 0.3702(1)
C12 C 0.5477(4) 0.4734(6) 0.3829(1)
C13 C 0.4711(4) 0.3689(6) 0.3625(1)
C14 C 0.3941(4) 0.4161(6) 0.3306(1)
C15 C 0.3949(4) 0.5710(6) 0.3180(1)
C16 C 0.4732(4) 0.6767(6) 0.3381(2)
C17 C 0.5509(5) 1.1090(9) 0.5174(2)
C18 C 0.8571(7) 1.0435(9) 0.6166(2)
C19 C 1.1437(5) 0.7970(9) 0.5434(2)
C20 C 0.3118(5) 0.7620(7) 0.2714(2)
C21 C 0.2360(5) 0.7581(6) 0.2320(2)
C22 C 0.2787(6) 0.6913(8) 0.1975(2)
C23 C 0.2083(6) 0.6887(9) 0.1608(2)
C24 C 0.0986(6) 0.7512(9) 0.1594(2)
C25 C 0.0541(6) 0.8150(10) 0.1939(2)
C26 C 0.1234(5) 0.8179(8) 0.2309(2)
C27 C 0.3304(5) 0.1583(7) 0.4031(2)
C28 C 0.2854(5) -0.0055(7) 0.4077(2)
C29 C 0.1617(6) -0.0034(8) 0.4240(2)
C30 C 0.3380(5) 0.2657(8) 0.2731(2)
C31 C 0.2298(6) 0.1856(9) 0.2548(2)
C32 C 0.1334(6) 0.2997(11) 0.2424(3)
H1 H 0.656 0.925 0.472
H2 H 0.986 0.740 0.488
H3 H 0.862 0.658 0.435
H4 H 0.589 0.834 0.394
H5 H 0.717 0.857 0.344
H6 H 0.767 0.692 0.351
H7 H 0.908 0.832 0.389
H8 H 0.814 0.948 0.403
H9 H 0.598 0.440 0.405
H10 H 0.474 0.782 0.330
H11 H 0.503 1.184 0.531
H12 H 0.559 1.138 0.489
H13 H 0.515 1.011 0.519
H14 H 0.877 1.121 0.636
H15 H 0.775 1.020 0.617
H16 H 0.903 0.953 0.623
H17 H 1.209 0.803 0.563
H18 H 1.117 0.693 0.541
H19 H 1.168 0.833 0.517
H20 H 0.390 0.797 0.266
H21 H 0.277 0.829 0.291
H22 H 0.356 0.646 0.198
H23 H 0.238 0.643 0.137
H24 H 0.052 0.750 0.134
H25 H -0.024 0.859 0.193
H26 H 0.092 0.861 0.255
H27 H 0.338 0.204 0.430
H28 H 0.273 0.214 0.387
H29 H 0.281 -0.056 0.382
H30 H 0.110 0.052 0.405
H31 H 0.133 -0.106 0.426
H32 H 0.164 0.045 0.450
H33 H 0.403 0.196 0.275
H34 H 0.358 0.351 0.257
H35 H 0.200 0.116 0.274
H36 H 0.252 0.130 0.231
H37 H 0.066 0.246 0.231
H38 H 0.111 0.355 0.266
H39 H 0.162 0.369 0.223
S2 S 0.5366(1) 0.5867(2) 0.12198(4)
O10 O 0.3415(3) 1.5274(5) -0.0332(1)
O11 O 0.1276(3) 1.5206(4) -0.0733(1)
O12 O -0.0385(3) 1.3165(5) -0.0534(1)
O13 O 0.3200(3) 1.0971(4) 0.0766(1)
O14 O 0.6962(3) 0.7261(5) 0.1888(1)
O15 O 0.6853(3) 1.0146(5) 0.2183(1)
O16 O 0.5336(3) 0.4838(4) 0.1564(1)
O17 O 0.4416(3) 0.5752(5) 0.0905(1)
O18 O 0.6449(4) 0.3396(5) 0.0629(1)
C33 C 0.1891(4) 1.2405(6) 0.0297(1)
C34 C 0.2776(4) 1.3377(6) 0.0168(1)
C35 C 0.2589(4) 1.4257(6) -0.0184(1)
C36 C 0.1516(4) 1.4202(6) -0.0408(1)
C37 C 0.0625(4) 1.3191(6) -0.0286(1)
C38 C 0.0808(4) 1.2296(6) 0.0067(2)
C39 C 0.2005(4) 1.1556(6) 0.0703(2)
C40 C 0.3704(5) 1.1556(6) 0.1145(2)
C41 C 0.2663(5) 1.1950(8) 0.1397(2)
C42 C 0.1772(5) 1.2563(8) 0.1067(2)
C43 C 0.4534(4) 1.0363(6) 0.1340(1)
C44 C 0.4582(5) 0.8846(7) 0.1202(2)
C45 C 0.5357(4) 0.7817(6) 0.1401(1)
C46 C 0.6104(4) 0.8253(7) 0.1732(1)
C47 C 0.6053(4) 0.9786(6) 0.1869(2)
C48 C 0.5289(5) 1.0811(7) 0.1676(2)
C49 C 0.4590(5) 1.5264(9) -0.0139(2)
C50 C 0.1768(6) 1.4772(8) -0.1115(2)
C51 C -0.1353(5) 1.2232(9) -0.0409(2)
C52 C 0.6629(6) 1.1355(9) 0.2423(2)
C53 C 0.7548(5) 1.1524(7) 0.2774(2)
C54 C 0.7345(6) 1.2555(9) 0.3076(2)
C55 C 0.8155(7) 1.2760(10) 0.3398(2)
C56 C 0.9173(6) 1.1950(9) 0.3421(2)
C57 C 0.9385(5) 1.0888(10) 0.3123(2)
C58 C 0.8566(5) 1.0668(8) 0.2799(2)
C59 C 0.6767(5) 0.5743(6) 0.0994(2)
C60 C 0.7206(5) 0.4101(7) 0.0928(2)
C61 C 0.8476(6) 0.4161(9) 0.0785(2)
C62 C 0.6739(7) 0.6669(9) 0.2297(2)
C63 C 0.7901(9) 0.6014(11) 0.2472(3)
C64 C 0.8446(9) 0.4974(14) 0.2194(4)
H40 H 0.352 1.344 0.032
H41 H 0.020 1.161 0.015
H42 H 0.142 1.075 0.069
H43 H 0.418 1.245 0.111
H44 H 0.286 1.272 0.160
H45 H 0.236 1.107 0.153
H46 H 0.097 1.245 0.115
H47 H 0.192 1.362 0.101
H48 H 0.409 0.852 0.097
H49 H 0.527 1.185 0.177
H50 H 0.507 1.601 -0.027
H51 H 0.454 1.551 0.014
H52 H 0.493 1.427 -0.017
H53 H 0.156 1.552 -0.132
H54 H 0.261 1.471 -0.108
H55 H 0.146 1.379 -0.120
H56 H -0.200 1.232 -0.061
H57 H -0.110 1.119 -0.039
H58 H -0.160 1.258 -0.015
H59 H 0.587 1.122 0.253
H60 H 0.664 1.227 0.226
H61 H 0.663 1.315 0.306
H62 H 0.799 1.348 0.361
H63 H 0.974 1.211 0.364
H64 H 1.010 1.030 0.314
H65 H 0.871 0.991 0.259
H66 H 0.671 0.624 0.073
H67 H 0.734 0.627 0.117
H68 H 0.720 0.352 0.118
H69 H 0.897 0.464 0.099
H70 H 0.875 0.314 0.074
H71 H 0.849 0.474 0.054
H72 H 0.614 0.589 0.228
H73 H 0.648 0.748 0.247
H74 H 0.771 0.546 0.271
H75 H 0.841 0.683 0.254
H76 H 0.916 0.461 0.233
H77 H 0.792 0.415 0.214
H78 H 0.862 0.553 0.196
loop_
_geom_bond_atom_site_label_1
_geom_bond_atom_site_label_2
_geom_bond_site_symmetry_1
_geom_bond_site_symmetry_2
S1 O7 1_555 1_555
O1 C3 1_555 1_555
O2 C4 1_555 1_555
O3 C5 1_555 1_555
O4 C7 1_555 1_555
O5 C14 1_555 1_555
O6 C15 1_555 1_555
O8 S1 1_555 1_555
O9 C28 1_555 1_555
C1 C2 1_555 1_555
C2 C3 1_555 1_555
C3 C4 1_555 1_555
C4 C5 1_555 1_555
C5 C6 1_555 1_555
C6 C1 1_555 1_555
C7 C1 1_555 1_555
C8 O4 1_555 1_555
C9 C8 1_555 1_555
C10 C7 1_555 1_555
C11 C8 1_555 1_555
C12 C11 1_555 1_555
C13 S1 1_555 1_555
C14 C13 1_555 1_555
C15 C14 1_555 1_555
C16 C11 1_555 1_555
C17 O1 1_555 1_555
C18 O2 1_555 1_555
C19 O3 1_555 1_555
C20 O6 1_555 1_555
C21 C20 1_555 1_555
C22 C21 1_555 1_555
C23 C22 1_555 1_555
C24 C23 1_555 1_555
C25 C24 1_555 1_555
C26 C21 1_555 1_555
C27 S1 1_555 1_555
C28 C27 1_555 1_555
C29 C28 1_555 1_555
C30 O5 1_555 1_555
C31 C30 1_555 1_555
C32 C31 1_555 1_555
H1 C2 1_555 1_555
H2 C6 1_555 1_555
H3 C7 1_555 1_555
H4 C8 1_555 1_555
H5 C9 1_555 1_555
H6 C9 1_555 1_555
H7 C10 1_555 1_555
H8 C10 1_555 1_555
H9 C12 1_555 1_555
H10 C16 1_555 1_555
H11 C17 1_555 1_555
H12 C17 1_555 1_555
H13 C17 1_555 1_555
H14 C18 1_555 1_555
H15 C18 1_555 1_555
H16 C18 1_555 1_555
H17 C19 1_555 1_555
H18 C19 1_555 1_555
H19 C19 1_555 1_555
H20 C20 1_555 1_555
H21 C20 1_555 1_555
H22 C22 1_555 1_555
H23 C23 1_555 1_555
H24 C24 1_555 1_555
H25 C25 1_555 1_555
H26 C26 1_555 1_555
H27 C27 1_555 1_555
H28 C27 1_555 1_555
H29 C28 1_555 1_555
H30 C29 1_555 1_555
H31 C29 1_555 1_555
H32 C29 1_555 1_555
H33 C30 1_555 1_555
H34 C30 1_555 1_555
H35 C31 1_555 1_555
H36 C31 1_555 1_555
H37 C32 1_555 1_555
H38 C32 1_555 1_555
H39 C32 1_555 1_555
S2 O16 1_555 1_555
O10 C35 1_555 1_555
O11 C36 1_555 1_555
O12 C37 1_555 1_555
O13 C39 1_555 1_555
O14 C46 1_555 1_555
O15 C47 1_555 1_555
O17 S2 1_555 1_555
O18 C60 1_555 1_555
C33 C34 1_555 1_555
C34 C35 1_555 1_555
C35 C36 1_555 1_555
C36 C37 1_555 1_555
C37 C38 1_555 1_555
C38 C33 1_555 1_555
C39 C33 1_555 1_555
C40 O13 1_555 1_555
C41 C40 1_555 1_555
C42 C39 1_555 1_555
C43 C40 1_555 1_555
C44 C43 1_555 1_555
C45 S2 1_555 1_555
C46 C45 1_555 1_555
C47 C46 1_555 1_555
C48 C43 1_555 1_555
C49 O10 1_555 1_555
C50 O11 1_555 1_555
C51 O12 1_555 1_555
C52 O15 1_555 1_555
C53 C52 1_555 1_555
C54 C53 1_555 1_555
C55 C54 1_555 1_555
C56 C55 1_555 1_555
C57 C56 1_555 1_555
C58 C53 1_555 1_555
C59 S2 1_555 1_555
C60 C59 1_555 1_555
C61 C60 1_555 1_555
C62 O14 1_555 1_555
C63 C62 1_555 1_555
C64 C63 1_555 1_555
H40 C34 1_555 1_555
H41 C38 1_555 1_555
H42 C39 1_555 1_555
H43 C40 1_555 1_555
H44 C41 1_555 1_555
H45 C41 1_555 1_555
H46 C42 1_555 1_555
H47 C42 1_555 1_555
H48 C44 1_555 1_555
H49 C48 1_555 1_555
H50 C49 1_555 1_555
H51 C49 1_555 1_555
H52 C49 1_555 1_555
H53 C50 1_555 1_555
H54 C50 1_555 1_555
H55 C50 1_555 1_555
H56 C51 1_555 1_555
H57 C51 1_555 1_555
H58 C51 1_555 1_555
H59 C52 1_555 1_555
H60 C52 1_555 1_555
H61 C54 1_555 1_555
H62 C55 1_555 1_555
H63 C56 1_555 1_555
H64 C57 1_555 1_555
H65 C58 1_555 1_555
H66 C59 1_555 1_555
H67 C59 1_555 1_555
H68 C60 1_555 1_555
H69 C61 1_555 1_555
H70 C61 1_555 1_555
H71 C61 1_555 1_555
H72 C62 1_555 1_555
H73 C62 1_555 1_555
H74 C63 1_555 1_555
H75 C63 1_555 1_555
H76 C64 1_555 1_555
H77 C64 1_555 1_555
H78 C64 1_555 1_555
C9 C10 1_555 1_555
C12 C13 1_555 1_555
C15 C16 1_555 1_555
C25 C26 1_555 1_555
C41 C42 1_555 1_555
C44 C45 1_555 1_555
C47 C48 1_555 1_555
C57 C58 1_555 1_555

#END
