
#######################################################################
#
#                 Cambridge Crystallographic Data Centre
#                                CCDC 
#
#######################################################################
#
# If this CIF has been generated from an entry in the Cambridge 
# Structural Database, then it will include bibliographic, chemical, 
# crystal, experimental, refinement or atomic coordinate data resulting 
# from the CCDC's data processing and validation procedures.
#
#######################################################################

data_JUGZOA
_chemical_formula_moiety         'C29 H30 N2 O6'
_chemical_name_systematic        
"(4S,5R,6S,1'S)-5-Acetoxy-4-benzyl-6-(1-(((benzyloxy)carbonyl)amino)-2-phenylethyl)-3,4,5,6-tetrahydro-2H-1,3-oxazin-2-one unknown solvate"
_symmetry_cell_setting           monoclinic
_symmetry_space_group_name_H-M   'P 21'
_symmetry_Int_Tables_number      4
_space_group_name_Hall           'P 2yb'
loop_
_symmetry_equiv_pos_site_id
_symmetry_equiv_pos_as_xyz
1 x,y,z
2 -x,1/2+y,-z
_cell_length_a                   10.871(4)
_cell_length_b                   21.925(6)
_cell_length_c                   13.428(2)
_cell_angle_alpha                90
_cell_angle_beta                 98.62(2)
_cell_angle_gamma                90
_cell_volume                     3164.37
_exptl_crystal_colour            white
_chemical_melting_point          140-142deg.C
_cell_formula_units_Z            4
loop_
_atom_site_label
_atom_site_type_symbol
_atom_site_fract_x
_atom_site_fract_y
_atom_site_fract_z
O6 O 0.348(1) 0.3513(7) 0.218(1)
O7 O 0.262(1) 0.4164(7) 0.3134(8)
O8 O 0.340(1) 0.5333(7) 0.2583(8)
O9 O 0.487(1) 0.4678(7) 0.6395(8)
O10 O 0.389(1) 0.5551(7) 0.676(1)
O14 O 0.243(2) 0.6119(8) 0.315(1)
N3 N 0.471(1) 0.4236(7) 0.297(1)
N4 N 0.296(1) 0.4976(7) 0.556(1)
C29 C 0.624(2) 0.572(1) 0.412(2)
C30 C 0.580(2) 0.629(1) 0.379(1)
C31 C 0.594(2) 0.6762(9) 0.444(2)
C32 C 0.656(2) 0.669(1) 0.541(2)
C33 C 0.701(2) 0.614(1) 0.572(1)
C34 C 0.684(2) 0.564(1) 0.509(2)
C35 C 0.599(1) 0.518(1) 0.340(1)
C36 C 0.493(1) 0.477(1) 0.369(1)
C37 C 0.372(2) 0.510(1) 0.362(1)
C38 C 0.269(1) 0.469(1) 0.382(1)
C39 C 0.358(2) 0.396(1) 0.273(2)
C40 C 0.278(1) 0.4456(8) 0.487(1)
C41 C 0.157(2) 0.409(1) 0.496(2)
C42 C 0.168(2) 0.380(1) 0.601(2)
C43 C 0.126(2) 0.405(1) 0.682(2)
C44 C 0.136(3) 0.381(2) 0.774(2)
C45 C 0.197(4) 0.331(3) 0.800(2)
C46 C 0.226(2) 0.299(1) 0.726(3)
C47 C 0.223(2) 0.320(1) 0.619(2)
C48 C 0.400(2) 0.502(1) 0.625(1)
C49 C 0.487(2) 0.567(1) 0.762(1)
C50 C 0.470(2) 0.536(1) 0.857(1)
C51 C 0.373(2) 0.503(1) 0.867(1)
C52 C 0.362(2) 0.475(1) 0.957(2)
C53 C 0.456(3) 0.483(1) 1.035(2)
C54 C 0.565(2) 0.515(1) 1.029(1)
C55 C 0.570(2) 0.541(1) 0.939(2)
C58 C 0.270(2) 0.586(1) 0.249(1)
C59 C 0.233(2) 0.598(1) 0.139(2)
H29 H 0.5381 0.6352 0.3125
H30 H 0.5602 0.7147 0.4225
H31 H 0.6680 0.7035 0.5838
H32 H 0.7444 0.6097 0.6393
H33 H 0.7138 0.5242 0.5305
H34 H 0.5755 0.5320 0.2723
H35 H 0.6725 0.4938 0.3426
H36 H 0.5167 0.4626 0.4352
H37 H 0.3791 0.5437 0.4078
H38 H 0.1942 0.4914 0.3667
H39 H 0.3486 0.4200 0.5030
H40 H 0.0883 0.4353 0.4875
H41 H 0.1481 0.3778 0.4473
H42 H 0.0852 0.4435 0.6693
H43 H 0.0973 0.4026 0.8249
H44 H 0.2223 0.3212 0.8674
H45 H 0.2479 0.2571 0.7402
H46 H 0.2512 0.2977 0.5657
H47 H 0.5632 0.5542 0.7429
H48 H 0.4879 0.6097 0.7723
H49 H 0.3101 0.4960 0.8096
H50 H 0.2909 0.4506 0.9635
H51 H 0.4429 0.4650 1.0974
H52 H 0.6280 0.5179 1.0846
H53 H 0.6420 0.5633 0.9306
H56 H 0.1856 0.6342 0.1298
H57 H 0.3056 0.6022 0.1071
H58 H 0.1848 0.5647 0.1083
H72 H 0.1997 0.5180 0.5526
H73 H 0.5318 0.4172 0.2297
O12 O 0.019(1) 0.5697(9) -0.249(1)
C60 C 0.065(3) 0.589(1) -0.161(2)
C63 C 0.167(3) 0.635(1) -0.156(2)
H59 H -0.0002 0.6066 -0.1307
H60 H 0.0980 0.5548 -0.1220
H66 H 0.1957 0.6466 -0.0892
H67 H 0.2344 0.6189 -0.1862
H68 H 0.1364 0.6708 -0.1941
O13 O 0.089(1) 0.5787(7) 0.5644(9)
C56 C 0.124(3) 0.640(2) 0.535(2)
C64 C 0.032(3) 0.683(1) 0.549(3)
H54 H 0.2000 0.6513 0.5783
H55 H 0.1382 0.6399 0.4681
H69 H 0.0581 0.7217 0.5303
H70 H -0.0423 0.6713 0.5064
H71 H 0.0193 0.6825 0.6167
O15 O 0.113(2) 0.3164(9) 0.141(2)
C61 C 0.117(3) 0.256(2) 0.115(3)
C62 C 0.166(3) 0.224(2) 0.203(3)
H61 H 0.0365 0.2426 0.0899
H62 H 0.1698 0.2524 0.0648
H63 H 0.1150 0.2281 0.2526
H64 H 0.1716 0.1813 0.1857
H65 H 0.2483 0.23279 0.2274
O1 O -0.112(1) 0.4410 -0.1321(8)
O2 O -0.190(1) 0.5043(7) -0.247(1)
O3 O -0.191(1) 0.3210(7) -0.1939(7)
O4 O -0.204(1) 0.3060(8) 0.2156(9)
O5 O -0.325(1) 0.3857(7) 0.1583(8)
O11 O -0.090(2) 0.2454(7) -0.106(1)
N1 N -0.320(1) 0.4338(8) -0.198(1)
N2 N -0.133(1) 0.3692(7) 0.115(1)
C1 C -0.058(2) 0.510(1) 0.152(1)
C2 C -0.048(1) 0.502(1) 0.250(1)
C3 C -0.083(2) 0.548(1) 0.312(2)
C4 C -0.129(2) 0.605(1) 0.268(3)
C5 C -0.136(3) 0.608(2) 0.175(2)
C6 C -0.104(2) 0.566(1) 0.117(2)
C7 C -0.486(1) 0.2937(9) -0.111(2)
C8 C -0.524(2) 0.307(1) -0.022(1)
C9 C -0.557(2) 0.263(1) 0.037(1)
C10 C -0.481(2) 0.235(1) -0.143(1)
C11 C -0.556(2) 0.203(1) 0.006(2)
C12 C -0.511(2) 0.188(1) -0.077(2)
C13 C -0.447(2) 0.343(1) -0.181(1)
C14 C -0.024(2) 0.464(1) 0.079(1)
C15 C -0.218(1) 0.3479(9) -0.102(1)
C16 C -0.342(1) 0.3830(9) -0.132(1)
C17 C -0.119(1) 0.3917(8) -0.060(1)
C18 C -0.135(2) 0.419(1) 0.044(1)
C19 C -0.212(2) 0.460(1) -0.197(1)
C20 C -0.103(2) 0.246(1) -0.283(2)
C21 C -0.231(2) 0.358(1) 0.163(1)
C22 C -0.295(2) 0.2876(9) 0.268(1)
C23 C -0.294(2) 0.316(1) 0.370(1)
C24 C -0.200(2) 0.353(1) 0.413(2)
C25 C -0.389(2) 0.308(1) 0.425(1)
C26 C -0.390(3) 0.334(1) 0.520(2)
C27 C -0.296(3) 0.373(1) 0.559(2)
C28 C -0.204(2) 0.381(1) 0.506(2)
C57 C -0.125(2) 0.271(1) -0.185(2)
H1 H -0.0175 0.4642 0.2787
H2 H -0.0769 0.5409 0.3814
H3 H -0.1503 0.6377 0.3095
H4 H -0.1681 0.6447 0.1432
H5 H -0.1098 0.5751 0.0474
H6 H -0.5281 0.3486 -0.0015
H7 H -0.5807 0.2728 0.1000
H8 H -0.4580 0.2257 -0.2077
H9 H -0.5872 0.1729 0.0456
H10 H -0.5031 0.1461 -0.0931
H11 H -0.4222 0.3237 -0.2382
H12 H -0.5176 0.3684 -0.2029
H13 H -0.0028 0.4847 0.0218
H14 H 0.0457 0.4420 0.1112
H15 H -0.2267 0.3171 -0.0532
H16 H -0.3657 0.3996 -0.0722
H17 H -0.0419 0.3704 -0.0517
H18 H -0.2119 0.4395 0.0401
H19 H -0.1819 0.2368 -0.3246
H20 H -0.0617 0.2755 -0.3194
H21 H -0.0552 0.2099 -0.2756
H22 H -0.3731 0.2953 0.2280
H23 H -0.2859 0.2441 0.2770
H24 H -0.1308 0.3587 0.3802
H25 H -0.4580 0.2825 0.3965
H26 H -0.4567 0.3260 0.5568
H27 H -0.2982 0.3922 0.6215
H28 H -0.1382 0.4073 0.5331
H74 H -0.0428 0.3433 0.1439
loop_
_geom_bond_atom_site_label_1
_geom_bond_atom_site_label_2
_geom_bond_site_symmetry_1
_geom_bond_site_symmetry_2
O1 C17 1_555 1_555
O2 C19 1_555 1_555
O3 C15 1_555 1_555
O4 C21 1_555 1_555
O5 C21 1_555 1_555
O6 C39 1_555 1_555
O7 C38 1_555 1_555
O8 C37 1_555 1_555
O9 C48 1_555 1_555
O10 C48 1_555 1_555
O11 C57 1_555 1_555
O12 C60 1_555 1_555
O13 C56 1_555 1_555
O14 C58 1_555 1_555
O15 C61 1_555 1_555
N1 C16 1_555 1_555
N2 C18 1_555 1_555
N3 C36 1_555 1_555
N4 C40 1_555 1_555
C1 C2 1_555 1_555
C2 C3 1_555 1_555
C3 C4 1_555 1_555
C4 C5 1_555 1_555
C5 C6 1_555 1_555
C6 C1 1_555 1_555
C7 C8 1_555 1_555
C8 C9 1_555 1_555
C9 C11 1_555 1_555
C10 C7 1_555 1_555
C11 C12 1_555 1_555
C12 C10 1_555 1_555
C13 C7 1_555 1_555
C14 C1 1_555 1_555
C15 C16 1_555 1_555
C16 C13 1_555 1_555
C17 C15 1_555 1_555
C18 C14 1_555 1_555
C19 O1 1_555 1_555
C20 C57 1_555 1_555
C21 N2 1_555 1_555
C22 O4 1_555 1_555
C23 C22 1_555 1_555
C24 C23 1_555 1_555
C25 C23 1_555 1_555
C26 C25 1_555 1_555
C27 C26 1_555 1_555
C28 C24 1_555 1_555
C29 C30 1_555 1_555
C30 C31 1_555 1_555
C31 C32 1_555 1_555
C32 C33 1_555 1_555
C33 C34 1_555 1_555
C34 C29 1_555 1_555
C35 C29 1_555 1_555
C36 C35 1_555 1_555
C37 C36 1_555 1_555
C38 C37 1_555 1_555
C39 O7 1_555 1_555
C40 C38 1_555 1_555
C41 C40 1_555 1_555
C42 C41 1_555 1_555
C43 C42 1_555 1_555
C44 C43 1_555 1_555
C45 C44 1_555 1_555
C46 C45 1_555 1_555
C47 C42 1_555 1_555
C48 N4 1_555 1_555
C49 O10 1_555 1_555
C50 C49 1_555 1_555
C51 C50 1_555 1_555
C52 C51 1_555 1_555
C53 C52 1_555 1_555
C54 C53 1_555 1_555
C55 C50 1_555 1_555
C56 C64 1_555 1_555
C57 O3 1_555 1_555
C58 O8 1_555 1_555
C59 C58 1_555 1_555
C60 C63 1_555 1_555
C61 C62 1_555 1_555
C62 H63 1_555 1_555
C63 H66 1_555 1_555
C64 H69 1_555 1_555
H1 C2 1_555 1_555
H2 C3 1_555 1_555
H3 C4 1_555 1_555
H4 C5 1_555 1_555
H5 C6 1_555 1_555
H6 C8 1_555 1_555
H7 C9 1_555 1_555
H8 C10 1_555 1_555
H9 C11 1_555 1_555
H10 C12 1_555 1_555
H11 C13 1_555 1_555
H12 C13 1_555 1_555
H13 C14 1_555 1_555
H14 C14 1_555 1_555
H15 C15 1_555 1_555
H16 C16 1_555 1_555
H17 C17 1_555 1_555
H18 C18 1_555 1_555
H19 C20 1_555 1_555
H20 C20 1_555 1_555
H21 C20 1_555 1_555
H22 C22 1_555 1_555
H23 C22 1_555 1_555
H24 C24 1_555 1_555
H25 C25 1_555 1_555
H26 C26 1_555 1_555
H27 C27 1_555 1_555
H28 C28 1_555 1_555
H29 C30 1_555 1_555
H30 C31 1_555 1_555
H31 C32 1_555 1_555
H32 C33 1_555 1_555
H33 C34 1_555 1_555
H34 C35 1_555 1_555
H35 C35 1_555 1_555
H36 C36 1_555 1_555
H37 C37 1_555 1_555
H38 C38 1_555 1_555
H39 C40 1_555 1_555
H40 C41 1_555 1_555
H41 C41 1_555 1_555
H42 C43 1_555 1_555
H43 C44 1_555 1_555
H44 C45 1_555 1_555
H45 C46 1_555 1_555
H46 C47 1_555 1_555
H47 C49 1_555 1_555
H48 C49 1_555 1_555
H49 C51 1_555 1_555
H50 C52 1_555 1_555
H51 C53 1_555 1_555
H52 C54 1_555 1_555
H53 C55 1_555 1_555
H54 C56 1_555 1_555
H55 C56 1_555 1_555
H56 C59 1_555 1_555
H57 C59 1_555 1_555
H58 C59 1_555 1_555
H59 C60 1_555 1_555
H60 C60 1_555 1_555
H61 C61 1_555 1_555
H62 C61 1_555 1_555
H64 C62 1_555 1_555
H65 C62 1_555 1_555
H67 C63 1_555 1_555
H68 C63 1_555 1_555
H70 C64 1_555 1_555
H71 C64 1_555 1_555
H72 N4 1_555 1_555
H73 N3 1_555 1_555
H74 N2 1_555 1_555
N1 C19 1_555 1_555
N3 C39 1_555 1_555
C17 C18 1_555 1_555
C27 C28 1_555 1_555
C46 C47 1_555 1_555
C54 C55 1_555 1_555

#END
