
#######################################################################
#
#                 Cambridge Crystallographic Data Centre
#                                CCDC 
#
#######################################################################
#
# If this CIF has been generated from an entry in the Cambridge 
# Structural Database, then it will include bibliographic, chemical, 
# crystal, experimental, refinement or atomic coordinate data resulting 
# from the CCDC's data processing and validation procedures.
#
#######################################################################

data_JUGZAM
_chemical_formula_moiety         'C20 H20 N2 O4'
_chemical_name_systematic        
(4S,5R,4'S,5'S)-5,5'-bis(4-Benzyloxazolidin-2-one)
_symmetry_cell_setting           monoclinic
_symmetry_space_group_name_H-M   'P 21'
_symmetry_Int_Tables_number      4
_space_group_name_Hall           'P 2yb'
loop_
_symmetry_equiv_pos_site_id
_symmetry_equiv_pos_as_xyz
1 x,y,z
2 -x,1/2+y,-z
_cell_length_a                   8.9407(8)
_cell_length_b                   7.792(1)
_cell_length_c                   26.269(4)
_cell_angle_alpha                90
_cell_angle_beta                 95.52(1)
_cell_angle_gamma                90
_cell_volume                     1821.57
_chemical_melting_point          239-240deg.C
_cell_formula_units_Z            4
loop_
_atom_site_label
_atom_site_type_symbol
_atom_site_fract_x
_atom_site_fract_y
_atom_site_fract_z
O1 O 1.1347(7) 0.7278 0.4528(3)
O2 O 0.9050(7) 0.651(1) 0.4734(3)
O3 O 0.6188(6) 0.815(1) 0.5488(2)
O4 O 0.3768(6) 0.820(1) 0.5615(2)
N1 N 0.4564(7) 0.771(2) 0.4825(3)
N2 N 1.0695(8) 0.733(2) 0.5351(4)
C21 C 1.117(1) 0.690(2) 0.6695(5)
C22 C 1.244(2) 0.708(3) 0.7015(6)
C23 C 1.302(1) 0.872(4) 0.7109(5)
C24 C 1.238(2) 1.012(3) 0.6853(6)
C25 C 1.114(1) 0.987(2) 0.6531(5)
C26 C 0.914(1) 0.805(2) 0.6057(3)
C27 C 0.944(1) 0.682(2) 0.5630(4)
C28 C 1.049(1) 0.707(2) 0.4848(4)
C29 C 0.823(1) 0.658(2) 0.5186(4)
C30 C 0.7077(9) 0.801(2) 0.5055(4)
C31 C 0.471(1) 0.803(2) 0.5310(4)
C32 C 0.594(1) 0.755(2) 0.4606(4)
C33 C 0.604(1) 0.865(2) 0.4132(4)
C34 C 0.474(1) 0.842(2) 0.3735(4)
C35 C 0.419(1) 0.683(2) 0.3601(5)
C36 C 0.298(2) 0.660(3) 0.3238(5)
C37 C 0.228(1) 0.801(4) 0.3015(5)
C38 C 0.281(2) 0.959(3) 0.3145(6)
C39 C 0.400(2) 0.986(2) 0.3498(6)
C40 C 1.050(1) 0.823(2) 0.6426(4)
H19 H 1.0711 0.5751 0.6649
H20 H 1.3034 0.6152 0.7199
H21 H 1.3876 0.8863 0.7357
H22 H 1.2852 1.1214 0.6914
H23 H 1.0533 1.0873 0.6350
H24 H 0.8843 0.9106 0.5901
H25 H 0.8301 0.7600 0.6223
H26 H 0.9639 0.5728 0.5802
H27 H 0.7689 0.5534 0.5220
H28 H 0.7598 0.9064 0.5014
H29 H 0.6145 0.6375 0.4492
H30 H 0.6044 0.9841 0.4261
H31 H 0.6972 0.8480 0.3996
H32 H 0.4701 0.5802 0.3761
H33 H 0.2551 0.5476 0.3146
H34 H 0.1433 0.7776 0.2771
H35 H 0.2295 1.0527 0.2974
H36 H 0.4383 1.1037 0.3592
H38 H 0.3417 0.8245 0.4596
H40 H 1.1608 0.8215 0.5486
O5 O 1.6629(7) 0.925(1) 1.0516(2)
O6 O 1.4218(6) 1.002(1) 1.0324(2)
O7 O 1.0929(6) 0.845(1) 0.9545(2)
O8 O 0.8439(6) 0.839(1) 0.9407(2)
N3 N 0.9666(7) 0.877(2) 1.0221(3)
N4 N 1.5506(7) 0.919(2) 0.9684(3)
C1 C 1.008(1) 0.962(2) 1.1471(4)
C2 C 0.902(2) 0.977(3) 1.1836(6)
C3 C 0.848(2) 0.836(3) 1.2041(5)
C4 C 0.888(2) 0.674(3) 1.1893(5)
C5 C 0.991(1) 0.659(2) 1.1529(5)
C6 C 1.050(1) 0.801(2) 1.1307(4)
C7 C 1.158(1) 0.785(2) 1.0896(4)
C8 C 1.119(1) 0.897(1) 1.0439(4)
C9 C 0.953(1) 0.855(2) 0.9711(4)
C10 C 1.2069(9) 0.857(2) 0.9983(3)
C11 C 1.315(1) 0.997(2) 0.9868(4)
C12 C 1.557(1) 0.943(2) 1.0195(4)
C13 C 1.412(1) 0.978(2) 0.9425(4)
C14 C 1.3592(9) 0.863(2) 0.8983(4)
C15 C 1.475(1) 0.847(2) 0.8594(3)
C16 C 1.526(1) 0.997(2) 0.8378(4)
C17 C 1.637(2) 0.985(3) 0.8052(6)
C18 C 1.692(2) 0.834(5) 0.7939(6)
C19 C 1.634(2) 0.682(3) 0.8112(6)
C20 C 1.526(1) 0.693(2) 0.8458(5)
H1 H 1.0534 1.0656 1.1345
H2 H 0.8681 1.0835 1.1959
H3 H 0.7666 0.8418 1.2269
H4 H 0.8492 0.5706 1.2063
H5 H 1.0219 0.5426 1.1409
H6 H 1.2597 0.8073 1.1038
H7 H 1.1568 0.6655 1.0780
H8 H 1.1375 1.0137 1.0544
H9 H 1.2619 0.7506 1.0028
H10 H 1.2587 1.1053 0.9850
H11 H 1.4309 1.0889 0.9260
H12 H 1.3376 0.7514 0.9116
H13 H 1.2641 0.9062 0.8816
H14 H 1.4830 1.1102 0.8459
H15 H 1.6902 1.0728 0.7882
H16 H 1.7734 0.8018 0.7734
H17 H 1.6729 0.5687 0.7997
H18 H 1.4782 0.5863 0.8591
H37 H 0.8663 0.9164 1.0470
H39 H 1.6514 0.8623 0.9510
loop_
_geom_bond_atom_site_label_1
_geom_bond_atom_site_label_2
_geom_bond_site_symmetry_1
_geom_bond_site_symmetry_2
O1 C28 1_555 1_555
O2 C28 1_555 1_555
O3 C30 1_555 1_555
O4 C31 1_555 1_555
O5 C12 1_555 1_555
O6 C11 1_555 1_555
O7 C9 1_555 1_555
O8 C9 1_555 1_555
N1 C31 1_555 1_555
N2 C27 1_555 1_555
N3 C8 1_555 1_555
N4 C12 1_555 1_555
C1 C2 1_555 1_555
C2 C3 1_555 1_555
C3 C4 1_555 1_555
C4 C5 1_555 1_555
C5 C6 1_555 1_555
C6 C1 1_555 1_555
C7 C6 1_555 1_555
C8 C7 1_555 1_555
C9 N3 1_555 1_555
C10 O7 1_555 1_555
C11 C10 1_555 1_555
C12 O6 1_555 1_555
C13 N4 1_555 1_555
C14 C13 1_555 1_555
C15 C14 1_555 1_555
C16 C15 1_555 1_555
C17 C16 1_555 1_555
C18 C17 1_555 1_555
C19 C18 1_555 1_555
C20 C15 1_555 1_555
C21 C22 1_555 1_555
C22 C23 1_555 1_555
C23 C24 1_555 1_555
C24 C25 1_555 1_555
C25 C40 1_555 1_555
C26 C27 1_555 1_555
C27 C29 1_555 1_555
C28 N2 1_555 1_555
C29 O2 1_555 1_555
C30 C29 1_555 1_555
C31 O3 1_555 1_555
C32 N1 1_555 1_555
C33 C32 1_555 1_555
C34 C33 1_555 1_555
C35 C34 1_555 1_555
C36 C35 1_555 1_555
C37 C36 1_555 1_555
C38 C37 1_555 1_555
C39 C34 1_555 1_555
C40 C21 1_555 1_555
H1 C1 1_555 1_555
H2 C2 1_555 1_555
H3 C3 1_555 1_555
H4 C4 1_555 1_555
H5 C5 1_555 1_555
H6 C7 1_555 1_555
H7 C7 1_555 1_555
H8 C8 1_555 1_555
H9 C10 1_555 1_555
H10 C11 1_555 1_555
H11 C13 1_555 1_555
H12 C14 1_555 1_555
H13 C14 1_555 1_555
H14 C16 1_555 1_555
H15 C17 1_555 1_555
H16 C18 1_555 1_555
H17 C19 1_555 1_555
H18 C20 1_555 1_555
H19 C21 1_555 1_555
H20 C22 1_555 1_555
H21 C23 1_555 1_555
H22 C24 1_555 1_555
H23 C25 1_555 1_555
H24 C26 1_555 1_555
H25 C26 1_555 1_555
H26 C27 1_555 1_555
H27 C29 1_555 1_555
H28 C30 1_555 1_555
H29 C32 1_555 1_555
H30 C33 1_555 1_555
H31 C33 1_555 1_555
H32 C35 1_555 1_555
H33 C36 1_555 1_555
H34 C37 1_555 1_555
H35 C38 1_555 1_555
H36 C39 1_555 1_555
H37 N3 1_555 1_555
H38 N1 1_555 1_555
H39 N4 1_555 1_555
H40 N2 1_555 1_555
C8 C10 1_555 1_555
C11 C13 1_555 1_555
C19 C20 1_555 1_555
C26 C40 1_555 1_555
C30 C32 1_555 1_555
C38 C39 1_555 1_555

#END
