
#######################################################################
#
#                 Cambridge Crystallographic Data Centre
#                                CCDC 
#
#######################################################################
#
# If this CIF has been generated from an entry in the Cambridge 
# Structural Database, then it will include bibliographic, chemical, 
# crystal, experimental, refinement or atomic coordinate data resulting 
# from the CCDC's data processing and validation procedures.
#
#######################################################################

data_JUHBEV
_chemical_formula_moiety         'C20 H15 N1 O2'
_chemical_name_systematic        2-(2'-Methoxybiphenyl-4-yl)-1,3-benzoxazole
_symmetry_cell_setting           orthorhombic
_symmetry_space_group_name_H-M   'P b c a'
_symmetry_Int_Tables_number      61
_space_group_name_Hall           '-P 2ac 2ab'
loop_
_symmetry_equiv_pos_site_id
_symmetry_equiv_pos_as_xyz
1 x,y,z
2 1/2-x,-y,1/2+z
3 -x,1/2+y,1/2-z
4 1/2+x,1/2-y,-z
5 -x,-y,-z
6 1/2+x,y,1/2-z
7 x,1/2-y,1/2+z
8 1/2-x,1/2+y,z
_cell_length_a                   11.287(10)
_cell_length_b                   14.380(13)
_cell_length_c                   18.206(16)
_cell_angle_alpha                90
_cell_angle_beta                 90
_cell_angle_gamma                90
_cell_volume                     2954.96
_exptl_crystal_colour            colorless
_exptl_crystal_description       plate-like
_cell_formula_units_Z            8
loop_
_atom_site_label
_atom_site_type_symbol
_atom_site_fract_x
_atom_site_fract_y
_atom_site_fract_z
O1 O 1.12401(9) 1.09975(7) 0.29165(6)
C1 C 0.65610(12) 0.77171(10) 0.41400(8)
C2 C 0.78709(12) 0.90062(9) 0.37332(8)
C3 C 1.00143(12) 0.99032(9) 0.35335(8)
C4 C 0.87365(12) 0.89765(10) 0.42604(8)
H1 H 0.8599 0.8652 0.4694
C5 C 0.67008(12) 0.86007(10) 0.38603(8)
C6 C 0.97890(13) 0.94107(10) 0.41616(8)
H2 H 1.0366 0.9374 0.4525
N1 N 1.19552(10) 1.03963(8) 0.39426(7)
C7 C 1.11027(12) 1.04104(9) 0.34830(8)
C8 C 0.91659(13) 0.99253(10) 0.29966(8)
H3 H 0.9309 1.0246 0.2562
C9 C 0.81161(13) 0.94801(10) 0.30958(8)
H4 H 0.7551 0.9496 0.2724
C10 C 1.23065(13) 1.14084(10) 0.30538(9)
C11 C 1.27498(12) 1.10378(10) 0.36802(8)
C12 C 0.56990(13) 0.90977(11) 0.37144(10)
H5 H 0.5772 0.9696 0.3526
C13 C 0.54564(13) 0.73640(11) 0.42597(9)
H6 H 0.5371 0.6766 0.4446
C14 C 1.38160(14) 1.13372(12) 0.39510(11)
H7 H 1.4135 1.1095 0.4381
C15 C 0.44806(14) 0.78827(12) 0.41076(10)
H8 H 0.3730 0.7638 0.4192
C16 C 0.45937(14) 0.87481(13) 0.38355(11)
H9 H 0.3926 0.9103 0.3731
C17 C 1.43824(16) 1.20052(13) 0.35584(13)
H10 H 1.5111 1.2224 0.3723
C18 C 1.39157(17) 1.23631(13) 0.29326(13)
H11 H 1.4335 1.2820 0.2681
C19 C 1.28566(16) 1.20762(12) 0.26624(10)
H12 H 1.2532 1.2324 0.2236
O2 O 0.75713(9) 0.72413(7) 0.42597(6)
C20 C 0.74899(16) 0.63287(11) 0.45128(13)
H13 H 0.8271 0.6075 0.4570
H14 H 0.7054 0.5962 0.4165
H15 H 0.7088 0.6321 0.4977
loop_
_geom_bond_atom_site_label_1
_geom_bond_atom_site_label_2
_geom_bond_site_symmetry_1
_geom_bond_site_symmetry_2
O1 C7 1_555 1_555
C1 C5 1_555 1_555
C2 C4 1_555 1_555
C3 C6 1_555 1_555
C4 H1 1_555 1_555
C5 C2 1_555 1_555
C6 C4 1_555 1_555
H2 C6 1_555 1_555
N1 C7 1_555 1_555
C7 C3 1_555 1_555
C8 C3 1_555 1_555
H3 C8 1_555 1_555
C9 C2 1_555 1_555
H4 C9 1_555 1_555
C10 O1 1_555 1_555
C11 N1 1_555 1_555
C12 C5 1_555 1_555
H5 C12 1_555 1_555
C13 C1 1_555 1_555
H6 C13 1_555 1_555
C14 C11 1_555 1_555
H7 C14 1_555 1_555
C15 C13 1_555 1_555
H8 C15 1_555 1_555
C16 C12 1_555 1_555
H9 C16 1_555 1_555
C17 C14 1_555 1_555
H10 C17 1_555 1_555
C18 C17 1_555 1_555
H11 C18 1_555 1_555
C19 C10 1_555 1_555
H12 C19 1_555 1_555
O2 C1 1_555 1_555
C20 O2 1_555 1_555
H13 C20 1_555 1_555
H14 C20 1_555 1_555
H15 C20 1_555 1_555
C8 C9 1_555 1_555
C10 C11 1_555 1_555
C15 C16 1_555 1_555
C18 C19 1_555 1_555

#END
