
#######################################################################
#
#                 Cambridge Crystallographic Data Centre
#                                CCDC 
#
#######################################################################
#
# If this CIF has been generated from an entry in the Cambridge 
# Structural Database, then it will include bibliographic, chemical, 
# crystal, experimental, refinement or atomic coordinate data resulting 
# from the CCDC's data processing and validation procedures.
#
#######################################################################

data_JUHXAN
_chemical_formula_moiety         'C22 H28 O7'
_chemical_name_systematic        
4,11-Dihydroxy-13-methoxy-2,2,8-trimethyl-3a,4,7,8,17,17a-hexahydro-10H-[1,3]dioxolo[4,5-h][2]benzoxacyclotetradecin-10-one
_symmetry_cell_setting           monoclinic
_symmetry_space_group_name_H-M   'P 21'
_symmetry_Int_Tables_number      4
_space_group_name_Hall           'P 2yb'
loop_
_symmetry_equiv_pos_site_id
_symmetry_equiv_pos_as_xyz
1 x,y,z
2 -x,1/2+y,-z
_cell_length_a                   8.50360(10)
_cell_length_b                   26.1166(3)
_cell_length_c                   9.35440(10)
_cell_angle_alpha                90
_cell_angle_beta                 94.3007(9)
_cell_angle_gamma                90
_cell_volume                     2071.62
_exptl_crystal_colour            colorless
_exptl_crystal_description       plate
_cell_formula_units_Z            4
loop_
_atom_site_label
_atom_site_type_symbol
_atom_site_fract_x
_atom_site_fract_y
_atom_site_fract_z
C1 C 0.1827(2) 0.45642(9) 0.8276(2)
C2 C 0.34459(19) 0.46575(7) 0.77465(16)
C3 C 0.43498(18) 0.41775(7) 0.74215(16)
C4 C 0.35911(19) 0.38291(7) 0.62735(17)
C5 C 0.43909(19) 0.35033(7) 0.55370(18)
C6 C 0.36948(19) 0.31508(7) 0.43854(18)
C7 C 0.44702(19) 0.32505(7) 0.29980(18)
C8 C 0.43318(19) 0.37855(7) 0.23241(17)
C9 C 0.27888(18) 0.40844(7) 0.24572(16)
C10 C 0.31026(19) 0.46498(7) 0.25448(17)
C11 C 0.26080(18) 0.49479(7) 0.35608(16)
H1 H 0.1380 0.4896 0.8484
C12 C 0.29728(17) 0.54995(7) 0.37621(17)
H2 H 0.1925 0.4355 0.9136
C13 C 0.30962(18) 0.57365(7) 0.51309(17)
H3 H 0.1174 0.4387 0.7528
C14 C 0.3157(2) 0.54531(8) 0.65062(18)
O1 O 0.32956(14) 0.49502(5) 0.64064(11)
C15 C 0.3291(2) 0.62759(8) 0.52058(18)
C16 C 0.3438(2) 0.65645(7) 0.39882(19)
C17 C 0.33518(18) 0.63266(7) 0.26586(18)
C18 C 0.31152(17) 0.57982(7) 0.25441(16)
O2 O 0.34636(16) 0.66421(6) 0.15201(13)
C19 C 0.3328(2) 0.64141(8) 0.01263(19)
H4 H 0.4097 0.4859 0.8432
O3 O 0.3344(2) 0.65341(6) 0.64591(15)
O4 O 0.3129(2) 0.56692(6) 0.76691(14)
O5 O 0.40363(16) 0.26349(6) 0.48381(13)
O6 O 0.37457(15) 0.29353(5) 0.18888(12)
C20 C 0.4176(2) 0.31409(7) 0.05578(19)
O7 O 0.45356(15) 0.36745(5) 0.08452(12)
C21 C 0.2770(3) 0.30861(9) -0.0512(2)
C22 C 0.5650(3) 0.28930(8) 0.0075(3)
H5 H 0.5384 0.4272 0.7144
H6 H 0.4507 0.3978 0.8294
H7 H 0.2489 0.3844 0.6110
H8 H 0.5492 0.3488 0.5716
H9 H 0.2578 0.3204 0.4211
H10 H 0.5586 0.3174 0.3181
H11 H 0.5215 0.3996 0.2688
H12 H 0.2307 0.3979 0.3308
H13 H 0.2069 0.4006 0.1641
H14 H 0.3719 0.4789 0.1870
H15 H 0.1968 0.4794 0.4233
H16 H 0.3600 0.6911 0.4060
H17 H 0.2997 0.5647 0.1595
H18 H 0.3452 0.6694 -0.0532
H19 H 0.4155 0.6170 0.0062
H20 H 0.2303 0.6247 -0.0069
H21 H 0.325(4) 0.6326(13) 0.709(3)
H22 H 0.370(3) 0.2442(11) 0.418(3)
H23 H 0.3020 0.3222 -0.1442
H24 H 0.1887 0.3273 -0.0180
H25 H 0.2440 0.2733 -0.0618
H26 H 0.5990 0.3077 -0.0729
H27 H 0.6458 0.2902 0.0870
H28 H 0.5452 0.2545 -0.0188
C23 C 0.6828(2) 0.49534(12) 0.0132(2)
C24 C 0.8474(2) 0.49955(10) 0.0882(2)
C25 C 0.9043(2) 0.55393(9) 0.11375(19)
C26 C 0.81338(19) 0.58636(9) 0.21276(18)
C27 C 0.87663(19) 0.62307(8) 0.29520(19)
C28 C 0.7881(2) 0.65694(8) 0.39135(19)
C29 C 0.86914(19) 0.65558(7) 0.54204(19)
C30 C 0.88839(19) 0.60378(7) 0.61780(18)
C31 C 0.74761(19) 0.56675(7) 0.59732(18)
C32 C 0.8030(2) 0.51215(7) 0.60493(19)
C33 C 0.76975(18) 0.47857(8) 0.50173(19)
C34 C 0.82793(18) 0.42500(8) 0.5023(2)
C35 C 0.8619(2) 0.39930(8) 0.3732(2)
C36 C 0.8640(2) 0.42327(9) 0.2322(2)
O8 O 0.84891(14) 0.47436(6) 0.22813(14)
C37 C 0.9027(2) 0.34618(9) 0.3866(3)
C38 C 0.9128(2) 0.32091(8) 0.5161(3)
C39 C 0.8834(2) 0.34664(8) 0.6388(3)
C40 C 0.84151(19) 0.39896(7) 0.6309(2)
O9 O 0.88623(18) 0.32632(6) 0.7715(2)
C41 C 0.9010(3) 0.27183(10) 0.7848(4)
O10 O 0.9344(2) 0.31879(8) 0.2693(2)
O11 O 0.8821(2) 0.39889(8) 0.12187(19)
O12 O 0.79183(19) 0.70789(6) 0.33532(16)
O13 O 0.78018(15) 0.68325(5) 0.64025(13)
C42 C 0.8405(2) 0.66851(7) 0.78140(19)
O14 O 0.91413(14) 0.61930(5) 0.76481(13)
C43 C 0.7024(2) 0.66454(8) 0.8735(2)
C44 C 0.9648(3) 0.70576(8) 0.8407(2)
H29 H 0.6817 0.5126 -0.0786
H30 H 0.6542 0.4595 -0.0042
H31 H 0.6031 0.5122 0.0679
H32 H 0.9210 0.4798 0.0329
H33 H 0.9010 0.5716 0.0227
H34 H 1.0108 0.5530 0.1513
H35 H 0.7040 0.5805 0.2138
H36 H 0.9847 0.6283 0.2981
H37 H 0.6813 0.6456 0.3942
H38 H 0.9735 0.6705 0.5389
H39 H 0.9832 0.5870 0.5897
H40 H 0.6787 0.5735 0.6723
H41 H 0.6881 0.5729 0.5036
H42 H 0.8683 0.5015 0.6859
H43 H 0.7067 0.4899 0.4209
H44 H 0.9414 0.2863 0.5205
H45 H 0.8148 0.4168 0.7159
H46 H 0.9015 0.2630 0.8877
H47 H 0.8109 0.2566 0.7303
H48 H 0.9980 0.2615 0.7434
H49 H 0.9149 0.3336 0.1898
H50 H 0.7346 0.7277 0.3757
H51 H 0.6315 0.6378 0.8353
H52 H 0.7375 0.6556 0.9716
H53 H 0.6473 0.6967 0.8740
H54 H 1.0540 0.7061 0.7798
H55 H 0.9218 0.7399 0.8416
H56 H 1.0035 0.6958 0.9367
loop_
_geom_bond_atom_site_label_1
_geom_bond_atom_site_label_2
_geom_bond_site_symmetry_1
_geom_bond_site_symmetry_2
C1 C2 1_555 1_555
C2 C3 1_555 1_555
C3 C4 1_555 1_555
C4 C5 1_555 1_555
C5 C6 1_555 1_555
C6 C7 1_555 1_555
C7 C8 1_555 1_555
C8 C9 1_555 1_555
C9 C10 1_555 1_555
C10 C11 1_555 1_555
C11 C12 1_555 1_555
H1 C1 1_555 1_555
C12 C13 1_555 1_555
H2 C1 1_555 1_555
C13 C14 1_555 1_555
H3 C1 1_555 1_555
C14 O1 1_555 1_555
O1 C2 1_555 1_555
C15 C13 1_555 1_555
C16 C15 1_555 1_555
C17 C16 1_555 1_555
C18 C12 1_555 1_555
O2 C17 1_555 1_555
C19 O2 1_555 1_555
H4 C2 1_555 1_555
O3 C15 1_555 1_555
O4 C14 1_555 1_555
O5 C6 1_555 1_555
O6 C7 1_555 1_555
C20 O6 1_555 1_555
O7 C8 1_555 1_555
C21 C20 1_555 1_555
C22 C20 1_555 1_555
H5 C3 1_555 1_555
H6 C3 1_555 1_555
H7 C4 1_555 1_555
H8 C5 1_555 1_555
H9 C6 1_555 1_555
H10 C7 1_555 1_555
H11 C8 1_555 1_555
H12 C9 1_555 1_555
H13 C9 1_555 1_555
H14 C10 1_555 1_555
H15 C11 1_555 1_555
H16 C16 1_555 1_555
H17 C18 1_555 1_555
H18 C19 1_555 1_555
H19 C19 1_555 1_555
H20 C19 1_555 1_555
H21 O3 1_555 1_555
H22 O5 1_555 1_555
H23 C21 1_555 1_555
H24 C21 1_555 1_555
H25 C21 1_555 1_555
H26 C22 1_555 1_555
H27 C22 1_555 1_555
H28 C22 1_555 1_555
C23 C24 1_555 1_555
C24 C25 1_555 1_555
C25 C26 1_555 1_555
C26 C27 1_555 1_555
C27 C28 1_555 1_555
C28 C29 1_555 1_555
C29 C30 1_555 1_555
C30 C31 1_555 1_555
C31 C32 1_555 1_555
C32 C33 1_555 1_555
C33 C34 1_555 1_555
C34 C35 1_555 1_555
C35 C36 1_555 1_555
C36 O8 1_555 1_555
O8 C24 1_555 1_555
C37 C35 1_555 1_555
C38 C37 1_555 1_555
C39 C38 1_555 1_555
C40 C34 1_555 1_555
O9 C39 1_555 1_555
C41 O9 1_555 1_555
O10 C37 1_555 1_555
O11 C36 1_555 1_555
O12 C28 1_555 1_555
O13 C29 1_555 1_555
C42 O13 1_555 1_555
O14 C30 1_555 1_555
C43 C42 1_555 1_555
C44 C42 1_555 1_555
H29 C23 1_555 1_555
H30 C23 1_555 1_555
H31 C23 1_555 1_555
H32 C24 1_555 1_555
H33 C25 1_555 1_555
H34 C25 1_555 1_555
H35 C26 1_555 1_555
H36 C27 1_555 1_555
H37 C28 1_555 1_555
H38 C29 1_555 1_555
H39 C30 1_555 1_555
H40 C31 1_555 1_555
H41 C31 1_555 1_555
H42 C32 1_555 1_555
H43 C33 1_555 1_555
H44 C38 1_555 1_555
H45 C40 1_555 1_555
H46 C41 1_555 1_555
H47 C41 1_555 1_555
H48 C41 1_555 1_555
H49 O10 1_555 1_555
H50 O12 1_555 1_555
H51 C43 1_555 1_555
H52 C43 1_555 1_555
H53 C43 1_555 1_555
H54 C44 1_555 1_555
H55 C44 1_555 1_555
H56 C44 1_555 1_555
C17 C18 1_555 1_555
C20 O7 1_555 1_555
C39 C40 1_555 1_555
C42 O14 1_555 1_555

#END
