
#######################################################################
#
#                 Cambridge Crystallographic Data Centre
#                                CCDC 
#
#######################################################################
#
# If this CIF has been generated from an entry in the Cambridge 
# Structural Database, then it will include bibliographic, chemical, 
# crystal, experimental, refinement or atomic coordinate data resulting 
# from the CCDC's data processing and validation procedures.
#
#######################################################################

data_JUJDUP
_chemical_formula_moiety         'C23 H21 N1 O3 S1'
_chemical_name_systematic        
't-butyl 3-formyl-2-phenylthiopyrano[2,3-b]indole-9(2H)-carboxylate'
_symmetry_cell_setting           orthorhombic
_symmetry_space_group_name_H-M   'P 21 21 21'
_symmetry_Int_Tables_number      19
_space_group_name_Hall           'P 2ac 2ab'
loop_
_symmetry_equiv_pos_site_id
_symmetry_equiv_pos_as_xyz
1 x,y,z
2 1/2-x,-y,1/2+z
3 -x,1/2+y,1/2-z
4 1/2+x,1/2-y,-z
_cell_length_a                   6.5533(13)
_cell_length_b                   10.610(2)
_cell_length_c                   29.128(6)
_cell_angle_alpha                90
_cell_angle_beta                 90
_cell_angle_gamma                90
_cell_volume                     2025.28
_cell_formula_units_Z            4
loop_
_atom_site_label
_atom_site_type_symbol
_atom_site_fract_x
_atom_site_fract_y
_atom_site_fract_z
S1 S 0.93443(17) 0.40781(12) 0.15943(3)
O1 O 0.3682(4) 0.2763(3) 0.23308(9)
O2 O 0.6676(5) 0.3874(3) 0.23353(10)
O3 O 1.3324(4) 0.4005(4) 0.02809(10)
N1 N 0.5749(5) 0.2682(4) 0.17138(10)
C1 C 0.4619(6) 0.1737(4) 0.14747(13)
C2 C 0.2806(6) 0.1100(5) 0.15893(15)
H1 H 0.2077 0.1286 0.1863
C3 C 0.2131(7) 0.0186(5) 0.12829(15)
H2 H 0.0931 -0.0276 0.1355
C4 C 0.3149(7) -0.0076(5) 0.08751(15)
H3 H 0.2616 -0.0694 0.0672
C5 C 0.4930(7) 0.0553(4) 0.07615(15)
H4 H 0.5636 0.0371 0.0484
C6 C 0.5660(7) 0.1467(4) 0.10672(13)
C7 C 0.7463(6) 0.2263(4) 0.10518(13)
C8 C 0.9108(6) 0.2298(4) 0.07252(13)
H5 H 0.9219 0.1629 0.0510
C9 C 1.0486(6) 0.3223(4) 0.07093(13)
C10 C 1.0371(6) 0.4393(4) 0.10063(13)
H6 H 1.1807 0.4689 0.1049
C11 C 0.7467(6) 0.2991(5) 0.14457(13)
C12 C 0.5446(7) 0.3175(5) 0.21585(14)
C13 C 0.3031(7) 0.3107(5) 0.28041(14)
C14 C 0.4599(8) 0.2606(7) 0.31534(15)
H7 H 0.4761 0.1694 0.3113
H8 H 0.4118 0.2780 0.3466
H9 H 0.5914 0.3024 0.3104
C15 C 0.1024(7) 0.2406(6) 0.28508(16)
H10 H 0.0055 0.2723 0.2622
H11 H 0.0470 0.2540 0.3159
H12 H 0.1252 0.1504 0.2801
C16 C 0.2706(8) 0.4544(6) 0.28269(17)
H13 H 0.4011 0.4974 0.2777
H14 H 0.2165 0.4773 0.3129
H15 H 0.1734 0.4800 0.2589
C17 C 0.9220(7) 0.5480(4) 0.07883(13)
C18 C 0.9872(7) 0.6724(5) 0.08400(14)
H16 H 1.1095 0.6893 0.1004
C19 C 0.8765(7) 0.7721(5) 0.06566(15)
H17 H 0.9232 0.8562 0.0696
C20 C 0.6971(7) 0.7488(5) 0.04154(15)
H18 H 0.6216 0.8168 0.0288
C21 C 0.6295(7) 0.6269(5) 0.03616(16)
H19 H 0.5066 0.6110 0.0198
C22 C 0.7401(7) 0.5263(5) 0.05447(15)
H20 H 0.6921 0.4425 0.0504
C23 C 1.2062(6) 0.3176(5) 0.03559(14)
H21 H 1.2115 0.2443 0.0169
loop_
_geom_bond_atom_site_label_1
_geom_bond_atom_site_label_2
_geom_bond_site_symmetry_1
_geom_bond_site_symmetry_2
S1 C10 1_555 1_555
O1 C12 1_555 1_555
O2 C12 1_555 1_555
O3 C23 1_555 1_555
N1 C1 1_555 1_555
C1 C2 1_555 1_555
C2 H1 1_555 1_555
C3 C2 1_555 1_555
H2 C3 1_555 1_555
C4 C3 1_555 1_555
H3 C4 1_555 1_555
C5 C4 1_555 1_555
H4 C5 1_555 1_555
C6 C1 1_555 1_555
C7 C6 1_555 1_555
C8 C7 1_555 1_555
H5 C8 1_555 1_555
C9 C8 1_555 1_555
C10 C9 1_555 1_555
H6 C10 1_555 1_555
C11 S1 1_555 1_555
C12 N1 1_555 1_555
C13 O1 1_555 1_555
C14 C13 1_555 1_555
H7 C14 1_555 1_555
H8 C14 1_555 1_555
H9 C14 1_555 1_555
C15 C13 1_555 1_555
H10 C15 1_555 1_555
H11 C15 1_555 1_555
H12 C15 1_555 1_555
C16 C13 1_555 1_555
H13 C16 1_555 1_555
H14 C16 1_555 1_555
H15 C16 1_555 1_555
C17 C10 1_555 1_555
C18 C17 1_555 1_555
H16 C18 1_555 1_555
C19 C18 1_555 1_555
H17 C19 1_555 1_555
C20 C19 1_555 1_555
H18 C20 1_555 1_555
C21 C20 1_555 1_555
H19 C21 1_555 1_555
C22 C17 1_555 1_555
H20 C22 1_555 1_555
C23 C9 1_555 1_555
H21 C23 1_555 1_555
N1 C11 1_555 1_555
C5 C6 1_555 1_555
C7 C11 1_555 1_555
C21 C22 1_555 1_555

#END
