
#######################################################################
#
#                 Cambridge Crystallographic Data Centre
#                                CCDC 
#
#######################################################################
#
# If this CIF has been generated from an entry in the Cambridge 
# Structural Database, then it will include bibliographic, chemical, 
# crystal, experimental, refinement or atomic coordinate data resulting 
# from the CCDC's data processing and validation procedures.
#
#######################################################################

data_JUJXOD
_chemical_formula_moiety         'C22 H25 N3 O6 S1'
_chemical_name_systematic        
1-(4-(4-Methoxyphenyl)-6-(methylsulfonylmethyl)-5-nitro-1-p-tolyl-1,4,5,6-tetrahydropyridazin-3-yl)ethanone
_symmetry_cell_setting           monoclinic
_symmetry_space_group_name_H-M   'P 21/c'
_symmetry_Int_Tables_number      14
_space_group_name_Hall           '-P 2ybc'
loop_
_symmetry_equiv_pos_site_id
_symmetry_equiv_pos_as_xyz
1 x,y,z
2 -x,1/2+y,1/2-z
3 -x,-y,-z
4 x,1/2-y,1/2+z
_cell_length_a                   8.9270(10)
_cell_length_b                   22.430(4)
_cell_length_c                   11.713(2)
_cell_angle_alpha                90
_cell_angle_beta                 101.720(10)
_cell_angle_gamma                90
_cell_volume                     2296.43
_exptl_crystal_colour            'light yellow'
_exptl_crystal_description       'truncated pyramid'
_chemical_melting_point          '438-439 K'
_cell_formula_units_Z            4
_exptl_crystal_recrystallization_method ethanol
loop_
_atom_site_label
_atom_site_type_symbol
_atom_site_fract_x
_atom_site_fract_y
_atom_site_fract_z
S1 S 0.26717(8) -0.04427(3) 0.39780(6)
N1 N 0.21717(19) 0.09547(8) 0.30757(15)
N2 N 0.1175(2) 0.09932(8) 0.20363(16)
N3 N 0.5931(2) 0.07344(10) 0.22132(18)
O1 O 0.0773(2) 0.06410(11) -0.08527(17)
O2 O 0.5109(2) 0.25688(8) -0.20429(16)
O3 O 0.6122(2) 0.02582(9) 0.17826(18)
O4 O 0.6958(2) 0.10528(10) 0.2672(2)
O5 O 0.2954(3) -0.10541(9) 0.3735(2)
O6 O 0.3310(2) -0.02108(10) 0.51164(15)
C1 C 0.1672(3) 0.09022(10) 0.10846(19)
C2 C 0.3331(2) 0.08539(10) 0.09762(19)
C3 C 0.4317(2) 0.09467(11) 0.21861(19)
C4 C 0.3618(3) 0.06441(10) 0.3126(2)
C5 C 0.1692(2) 0.12244(9) 0.40448(18)
C6 C 0.0343(3) 0.15414(11) 0.3873(2)
C7 C -0.0111(3) 0.18161(13) 0.4798(2)
C8 C 0.0758(3) 0.17986(12) 0.5906(2)
C9 C 0.2087(3) 0.14781(13) 0.6068(2)
C10 C 0.2565(3) 0.11913(12) 0.5162(2)
C11 C 0.0253(4) 0.21089(17) 0.6914(3)
H1 H -0.0435 0.1855 0.7221
H2 H -0.0258 0.2475 0.6645
H3 H 0.1131 0.2194 0.7514
C12 C 0.0463(3) 0.08507(13) 0.0018(2)
C13 C -0.1124(3) 0.1030(2) 0.0070(3)
H4 H -0.1756 0.1011 -0.0697
H5 H -0.1121 0.1430 0.0361
H6 H -0.1521 0.0765 0.0580
C14 C 0.3750(2) 0.12964(10) 0.01197(18)
C15 C 0.3303(3) 0.18887(11) 0.0127(2)
C16 C 0.3774(3) 0.23011(12) -0.0598(2)
C17 C 0.4713(3) 0.21278(11) -0.1350(2)
C18 C 0.5158(3) 0.15445(11) -0.1377(2)
C19 C 0.4665(3) 0.11342(11) -0.0643(2)
C20 C 0.6215(5) 0.24222(18) -0.2713(4)
C21 C 0.3404(4) -0.00243(11) 0.2925(2)
C22 C 0.0697(3) -0.03257(16) 0.3683(3)
H7 H 0.353(2) 0.0458(10) 0.0728(18)
H8 H 0.446(2) 0.1347(9) 0.2392(16)
H9 H 0.421(2) 0.0742(9) 0.3865(19)
H10 H -0.024(3) 0.1560(11) 0.317(2)
H11 H -0.103(3) 0.2004(12) 0.465(2)
H12 H 0.270(3) 0.1441(12) 0.681(2)
H13 H 0.342(3) 0.0977(11) 0.529(2)
H14 H 0.264(3) 0.1991(11) 0.064(2)
H15 H 0.347(3) 0.2692(12) -0.059(2)
H16 H 0.575(3) 0.1406(10) -0.1893(19)
H17 H 0.493(3) 0.0746(11) -0.068(2)
H18 H 0.581(4) 0.2119(16) -0.331(3)
H19 H 0.716(4) 0.2278(14) -0.219(3)
H20 H 0.634(3) 0.2748(14) -0.315(2)
H21 H 0.268(3) -0.0095(11) 0.223(2)
H22 H 0.434(3) -0.0214(13) 0.290(2)
H23 H 0.049(3) 0.0077(15) 0.381(2)
H24 H 0.030(4) -0.0419(14) 0.295(3)
H25 H 0.033(3) -0.0580(14) 0.424(3)
loop_
_geom_bond_atom_site_label_1
_geom_bond_atom_site_label_2
_geom_bond_site_symmetry_1
_geom_bond_site_symmetry_2
S1 O5 1_555 1_555
N1 N2 1_555 1_555
N2 C1 1_555 1_555
N3 O3 1_555 1_555
O1 C12 1_555 1_555
O2 C17 1_555 1_555
O4 N3 1_555 1_555
O6 S1 1_555 1_555
C1 C2 1_555 1_555
C2 C3 1_555 1_555
C3 N3 1_555 1_555
C4 N1 1_555 1_555
C5 N1 1_555 1_555
C6 C5 1_555 1_555
C7 C6 1_555 1_555
C8 C7 1_555 1_555
C9 C8 1_555 1_555
C10 C5 1_555 1_555
C11 C8 1_555 1_555
H1 C11 1_555 1_555
H2 C11 1_555 1_555
H3 C11 1_555 1_555
C12 C1 1_555 1_555
C13 C12 1_555 1_555
H4 C13 1_555 1_555
H5 C13 1_555 1_555
H6 C13 1_555 1_555
C14 C2 1_555 1_555
C15 C14 1_555 1_555
C16 C15 1_555 1_555
C17 C16 1_555 1_555
C18 C17 1_555 1_555
C19 C14 1_555 1_555
C20 O2 1_555 1_555
C21 S1 1_555 1_555
C22 S1 1_555 1_555
H7 C2 1_555 1_555
H8 C3 1_555 1_555
H9 C4 1_555 1_555
H10 C6 1_555 1_555
H11 C7 1_555 1_555
H12 C9 1_555 1_555
H13 C10 1_555 1_555
H14 C15 1_555 1_555
H15 C16 1_555 1_555
H16 C18 1_555 1_555
H17 C19 1_555 1_555
H18 C20 1_555 1_555
H19 C20 1_555 1_555
H20 C20 1_555 1_555
H21 C21 1_555 1_555
H22 C21 1_555 1_555
H23 C22 1_555 1_555
H24 C22 1_555 1_555
H25 C22 1_555 1_555
C3 C4 1_555 1_555
C4 C21 1_555 1_555
C9 C10 1_555 1_555
C18 C19 1_555 1_555

#END
