
#######################################################################
#
#                 Cambridge Crystallographic Data Centre
#                                CCDC 
#
#######################################################################
#
# If this CIF has been generated from an entry in the Cambridge 
# Structural Database, then it will include bibliographic, chemical, 
# crystal, experimental, refinement or atomic coordinate data resulting 
# from the CCDC's data processing and validation procedures.
#
#######################################################################

data_JUKDUO
_chemical_formula_moiety         'C16 H24 N2 O4'
_chemical_name_systematic        
(1S*,3S*,7R*,8R*)-10-Methyl-1-(4-morpholinyl)-3-nitro-tricyclo(6.3.0.0^3,7^)undecan-2-one
_symmetry_cell_setting           triclinic
_symmetry_space_group_name_H-M   'P -1'
_symmetry_Int_Tables_number      2
_space_group_name_Hall           '-P 1'
loop_
_symmetry_equiv_pos_site_id
_symmetry_equiv_pos_as_xyz
1 x,y,z
2 -x,-y,-z
_cell_length_a                   8.946(4)
_cell_length_b                   17.895(6)
_cell_length_c                   17.879(7)
_cell_angle_alpha                59.62(3)
_cell_angle_beta                 82.03(3)
_cell_angle_gamma                77.98(3)
_cell_volume                     2413.19
_exptl_crystal_colour            colorless
_chemical_melting_point          200-201deg.C
_cell_formula_units_Z            6
loop_
_atom_site_label
_atom_site_type_symbol
_atom_site_fract_x
_atom_site_fract_y
_atom_site_fract_z
O1 O 0.5069(5) 0.3802(3) 0.5296(2)
O2 O 0.1662(6) 0.4458(4) 0.4782(3)
O3 O 0.2214(6) 0.3187(4) 0.4872(3)
O4 O 0.9903(5) 0.5207(3) 0.2999(3)
N1 N 0.2433(6) 0.3938(4) 0.4590(3)
N2 N 0.7436(5) 0.4222(2) 0.3673(2)
C1 C 0.5164(6) 0.3840(3) 0.4598(3)
C2 C 0.3824(6) 0.4215(3) 0.3992(3)
C3 C 0.3635(8) 0.5214(3) 0.3393(4)
C4 C 0.4176(10) 0.5339(5) 0.2533(4)
C5 C 0.4081(9) 0.4574(5) 0.2481(4)
C6 C 0.4207(6) 0.3795(3) 0.3405(3)
C7 C 0.5806(6) 0.3247(3) 0.3629(3)
C8 C 0.5880(9) 0.2252(4) 0.4172(5)
C9 C 0.6429(9) 0.1957(4) 0.5033(5)
C10 C 0.7379(7) 0.2621(3) 0.4903(3)
C11 C 0.6564(6) 0.3489(3) 0.4191(3)
C12 C 0.8689(7) 0.4056(4) 0.3128(4)
C13 C 0.9324(8) 0.4903(4) 0.2527(4)
C14 C 0.8714(7) 0.5344(4) 0.3557(4)
C15 C 0.8050(7) 0.4524(3) 0.4172(3)
C16 C 0.7111(9) 0.1007(4) 0.5556(5)
H1 H 0.4243 0.5463 0.3586
H2 H 0.2585 0.5480 0.3386
H3 H 0.5224 0.5428 0.2432
H4 H 0.3582 0.5850 0.2095
H5 H 0.4887 0.4480 0.2109
H6 H 0.3116 0.4650 0.2253
H7 H 0.3480 0.3419 0.3519
H8 H 0.6411 0.3381 0.3102
H9 H 0.6559 0.1952 0.3907
H10 H 0.4875 0.2115 0.4226
H11 H 0.5541 0.2049 0.5364
H12 H 0.8394 0.2478 0.4705
H13 H 0.7430 0.2640 0.5426
H14 H 0.8327 0.3849 0.2795
H15 H 0.9477 0.3612 0.3491
H16 H 1.0134 0.4800 0.2162
H17 H 0.8532 0.5340 0.2162
H18 H 0.7918 0.5795 0.3210
H19 H 0.9117 0.5545 0.3883
H20 H 0.8827 0.4076 0.4541
H21 H 0.7245 0.4643 0.4530
H22 H 0.6422 0.0633 0.5617
H23 H 0.8048 0.0893 0.5270
H24 H 0.7322 0.0894 0.6119
O5 O 0.1309(4) -0.0333(2) 0.8953(2)
O6 O -0.1996(5) 0.0218(3) 0.7996(3)
O7 O -0.2134(5) 0.0110(3) 0.9245(3)
O8 O 0.5268(5) 0.1925(3) 0.8393(3)
N3 N -0.1638(5) 0.0413(3) 0.8498(3)
N4 N 0.2955(4) 0.1358(2) 0.7947(2)
C17 C 0.1091(6) 0.0412(3) 0.8371(3)
C18 C -0.0476(6) 0.1019(3) 0.8199(3)
C19 C -0.0747(7) 0.1576(4) 0.8659(4)
C20 C -0.0743(11) 0.2479(4) 0.7955(7)
C21 C -0.0962(10) 0.2559(4) 0.7150(5)
C22 C -0.0447(6) 0.1661(3) 0.7216(3)
C23 C 0.1195(6) 0.1510(3) 0.6863(3)
C24 C 0.1409(8) 0.1038(4) 0.6336(4)
C25 C 0.2302(9) 0.0183(5) 0.6818(5)
C26 C 0.3288(6) 0.0248(3) 0.7397(3)
C27 C 0.2249(5) 0.0891(3) 0.7646(3)
C28 C 0.3922(7) 0.1985(4) 0.7286(3)
C29 C 0.4410(8) 0.2489(4) 0.7645(4)
C30 C 0.4371(7) 0.1302(4) 0.9040(4)
C31 C 0.3857(6) 0.0771(3) 0.8718(3)
C32 C 0.3080(9) -0.0322(5) 0.6355(5)
H25 H 0.0078 0.1403 0.9034
H26 H -0.1693 0.1506 0.8995
H27 H 0.0197 0.2672 0.7928
H28 H -0.1567 0.2855 0.8064
H29 H -0.0353 0.2965 0.6701
H30 H -0.2015 0.2770 0.6999
H31 H -0.1159 0.1549 0.6944
H32 H 0.1554 0.2063 0.6525
H33 H 0.1962 0.1354 0.5799
H34 H 0.0431 0.1001 0.6205
H35 H 0.1567 -0.0168 0.7214
H36 H 0.4182 0.0485 0.7069
H37 H 0.3596 -0.0307 0.7899
H38 H 0.3371 0.2372 0.6765
H39 H 0.4816 0.1666 0.7150
H40 H 0.4999 0.2921 0.7215
H41 H 0.3507 0.2790 0.7798
H42 H 0.3489 0.1600 0.9210
H43 H 0.4972 0.0916 0.9541
H44 H 0.4737 0.0455 0.8568
H45 H 0.3254 0.0353 0.9157
H46 H 0.2353 -0.0347 0.6024
H47 H 0.3871 -0.0012 0.5972
H48 H 0.3523 -0.0907 0.6765
O9 O -0.0731(4) -0.4005(2) 0.8654(3)
O10 O 0.2455(5) -0.4233(3) 0.9236(3)
O11 O 0.2296(5) -0.2950(3) 0.8112(3)
O12 O -0.6243(5) -0.3209(3) 1.0086(3)
N5 N 0.1828(6) -0.3482(3) 0.8818(3)
N6 N -0.3384(5) -0.2851(2) 0.9166(3)
C33 C -0.0883(6) -0.3376(3) 0.8752(3)
C34 C 0.0302(6) -0.3203(3) 0.9173(3)
C35 C 0.0176(7) -0.3712(3) 1.0167(3)
C36 C -0.0597(9) -0.3051(4) 1.0414(4)
C37 C -0.0353(8) -0.2190(3) 0.9728(3)
C38 C -0.0059(6) -0.2213(3) 0.8875(3)
C39 C -0.1447(6) -0.1837(3) 0.8293(3)
C40 C -0.1068(8) -0.1363(4) 0.7306(3)
C41 C -0.1444(10) -0.1885(5) 0.6948(4)
C42 C -0.2680(7) -0.2381(3) 0.7551(3)
C43 C -0.2214(6) -0.2606(3) 0.8442(3)
C44 C -0.4031(6) -0.3626(3) 0.9354(3)
C45 C -0.5017(7) -0.3889(4) 1.0174(4)
C46 C -0.5650(8) -0.2447(5) 0.9888(5)
C47 C -0.4674(7) -0.2145(3) 0.9055(4)
C48 C -0.1722(9) -0.1423(5) 0.5992(4)
H49 H 0.1174 -0.3948 1.0404
H50 H -0.0391 -0.4184 1.0368
H51 H -0.0236 -0.3174 1.0952
H52 H -0.1674 -0.3071 1.0488
H53 H 0.0511 -0.2039 0.9856
H54 H -0.1230 -0.1758 0.9679
H55 H 0.0800 -0.1931 0.8552
H56 H -0.2168 -0.1453 0.8447
H57 H -0.0010 -0.1294 0.7200
H58 H -0.1686 -0.0793 0.7029
H59 H -0.0557 -0.2325 0.7043
H60 H -0.2718 -0.2902 0.7529
H61 H -0.3654 -0.2005 0.7403
H62 H -0.3222 -0.4094 0.9407
H63 H -0.4652 -0.3479 0.8887
H64 H -0.5416 -0.4404 1.0310
H65 H -0.4400 -0.4031 1.0641
H66 H -0.5036 -0.2581 1.0353
H67 H -0.6478 -0.1987 0.9833
H68 H -0.5279 -0.2018 0.8590
H69 H -0.4295 -0.1622 0.8913
H70 H -0.0869 -0.1141 0.5661
H71 H -0.1864 -0.1843 0.5835
H72 H -0.2628 -0.0991 0.5875
loop_
_geom_bond_atom_site_label_1
_geom_bond_atom_site_label_2
_geom_bond_site_symmetry_1
_geom_bond_site_symmetry_2
O1 C1 1_555 1_555
O2 N1 1_555 1_555
O3 N1 1_555 1_555
O4 C13 1_555 1_555
O5 C17 1_555 1_555
O6 N3 1_555 1_555
O7 N3 1_555 1_555
O8 C29 1_555 1_555
O9 C33 1_555 1_555
O10 N5 1_555 1_555
O11 N5 1_555 1_555
O12 C45 1_555 1_555
N1 C2 1_555 1_555
N2 C11 1_555 1_555
N3 C18 1_555 1_555
N4 C27 1_555 1_555
N5 C34 1_555 1_555
N6 C43 1_555 1_555
C1 C2 1_555 1_555
C2 C3 1_555 1_555
C3 C4 1_555 1_555
C4 C5 1_555 1_555
C5 C6 1_555 1_555
C6 C2 1_555 1_555
C7 C6 1_555 1_555
C8 C7 1_555 1_555
C9 C8 1_555 1_555
C10 C9 1_555 1_555
C11 C1 1_555 1_555
C12 N2 1_555 1_555
C13 C12 1_555 1_555
C14 O4 1_555 1_555
C15 N2 1_555 1_555
C16 C9 1_555 1_555
C17 C18 1_555 1_555
C18 C19 1_555 1_555
C19 C20 1_555 1_555
C20 C21 1_555 1_555
C21 C22 1_555 1_555
C22 C18 1_555 1_555
C23 C22 1_555 1_555
C24 C23 1_555 1_555
C25 C24 1_555 1_555
C26 C25 1_555 1_555
C27 C17 1_555 1_555
C28 N4 1_555 1_555
C29 C28 1_555 1_555
C30 O8 1_555 1_555
C31 N4 1_555 1_555
C32 C25 1_555 1_555
C33 C34 1_555 1_555
C34 C35 1_555 1_555
C35 C36 1_555 1_555
C36 C37 1_555 1_555
C37 C38 1_555 1_555
C38 C34 1_555 1_555
C39 C38 1_555 1_555
C40 C39 1_555 1_555
C41 C40 1_555 1_555
C42 C41 1_555 1_555
C43 C33 1_555 1_555
C44 N6 1_555 1_555
C45 C44 1_555 1_555
C46 O12 1_555 1_555
C47 N6 1_555 1_555
C48 C41 1_555 1_555
H1 C3 1_555 1_555
H2 C3 1_555 1_555
H3 C4 1_555 1_555
H4 C4 1_555 1_555
H5 C5 1_555 1_555
H6 C5 1_555 1_555
H7 C6 1_555 1_555
H8 C7 1_555 1_555
H9 C8 1_555 1_555
H10 C8 1_555 1_555
H11 C9 1_555 1_555
H12 C10 1_555 1_555
H13 C10 1_555 1_555
H14 C12 1_555 1_555
H15 C12 1_555 1_555
H16 C13 1_555 1_555
H17 C13 1_555 1_555
H18 C14 1_555 1_555
H19 C14 1_555 1_555
H20 C15 1_555 1_555
H21 C15 1_555 1_555
H22 C16 1_555 1_555
H23 C16 1_555 1_555
H24 C16 1_555 1_555
H25 C19 1_555 1_555
H26 C19 1_555 1_555
H27 C20 1_555 1_555
H28 C20 1_555 1_555
H29 C21 1_555 1_555
H30 C21 1_555 1_555
H31 C22 1_555 1_555
H32 C23 1_555 1_555
H33 C24 1_555 1_555
H34 C24 1_555 1_555
H35 C25 1_555 1_555
H36 C26 1_555 1_555
H37 C26 1_555 1_555
H38 C28 1_555 1_555
H39 C28 1_555 1_555
H40 C29 1_555 1_555
H41 C29 1_555 1_555
H42 C30 1_555 1_555
H43 C30 1_555 1_555
H44 C31 1_555 1_555
H45 C31 1_555 1_555
H46 C32 1_555 1_555
H47 C32 1_555 1_555
H48 C32 1_555 1_555
H49 C35 1_555 1_555
H50 C35 1_555 1_555
H51 C36 1_555 1_555
H52 C36 1_555 1_555
H53 C37 1_555 1_555
H54 C37 1_555 1_555
H55 C38 1_555 1_555
H56 C39 1_555 1_555
H57 C40 1_555 1_555
H58 C40 1_555 1_555
H59 C41 1_555 1_555
H60 C42 1_555 1_555
H61 C42 1_555 1_555
H62 C44 1_555 1_555
H63 C44 1_555 1_555
H64 C45 1_555 1_555
H65 C45 1_555 1_555
H66 C46 1_555 1_555
H67 C46 1_555 1_555
H68 C47 1_555 1_555
H69 C47 1_555 1_555
H70 C48 1_555 1_555
H71 C48 1_555 1_555
H72 C48 1_555 1_555
C7 C11 1_555 1_555
C10 C11 1_555 1_555
C14 C15 1_555 1_555
C23 C27 1_555 1_555
C26 C27 1_555 1_555
C30 C31 1_555 1_555
C39 C43 1_555 1_555
C42 C43 1_555 1_555
C46 C47 1_555 1_555

#END
