
#######################################################################
#
#                 Cambridge Crystallographic Data Centre
#                                CCDC 
#
#######################################################################
#
# If this CIF has been generated from an entry in the Cambridge 
# Structural Database, then it will include bibliographic, chemical, 
# crystal, experimental, refinement or atomic coordinate data resulting 
# from the CCDC's data processing and validation procedures.
#
#######################################################################

data_JUKDEY
_chemical_formula_moiety         'C16 H26 N2 O3'
_chemical_name_systematic        
(1S*,3S*,4S*,5S*)-4-Isopropyl-3-methyl-3-nitro-1-(1-pyrrolidinyl)bicyclo(3.3.0)octan-2-one
_symmetry_cell_setting           monoclinic
_symmetry_space_group_name_H-M   'P 21/c'
_symmetry_Int_Tables_number      14
_space_group_name_Hall           '-P 2ybc'
loop_
_symmetry_equiv_pos_site_id
_symmetry_equiv_pos_as_xyz
1 x,y,z
2 -x,1/2+y,1/2-z
3 -x,-y,-z
4 x,1/2-y,1/2+z
_cell_length_a                   9.0761(32)
_cell_length_b                   17.0322(59)
_cell_length_c                   11.1067(36)
_cell_angle_alpha                90
_cell_angle_beta                 107.974(25)
_cell_angle_gamma                90
_cell_volume                     1633.15
_exptl_crystal_colour            yellow
_chemical_melting_point          102-103deg.C
_cell_formula_units_Z            4
loop_
_atom_site_label
_atom_site_type_symbol
_atom_site_fract_x
_atom_site_fract_y
_atom_site_fract_z
O1 O 0.2329(4) 0.7429(2) 0.1269(3)
O2 O -0.0205(4) 0.8824(2) 0.0620(3)
O3 O -0.1648(4) 0.7818(2) -0.0083(3)
N1 N -0.0519(4) 0.8218(3) -0.0004(3)
N2 N 0.4342(4) 0.8841(2) 0.1396(3)
C1 C 0.2166(5) 0.7893(2) 0.0420(4)
C2 C 0.0637(5) 0.7970(3) -0.0690(4)
C3 C 0.0921(4) 0.8640(2) -0.1531(4)
C4 C 0.2394(4) 0.9079(2) -0.0730(3)
C5 C 0.3492(5) 0.9349(3) -0.1474(4)
C6 C 0.4856(6) 0.8773(3) -0.1137(5)
C7 C 0.4317(5) 0.8084(3) -0.0523(4)
C8 C 0.3346(5) 0.8477(2) 0.0240(4)
C9 C 0.3548(5) 0.9207(3) 0.2206(4)
C10 C 0.4743(6) 0.9285(4) 0.3452(5)
C11 C 0.6130(6) 0.8839(3) 0.3438(4)
C12 C 0.5646(5) 0.8382(3) 0.2198(4)
C13 C 0.0167(5) 0.7175(3) -0.1313(5)
C14 C -0.0470(5) 0.9174(3) -0.2162(4)
C15 C -0.1893(5) 0.8723(3) -0.2961(4)
C16 C -0.0068(6) 0.9807(3) -0.2990(5)
H1 H 0.1186 0.8399 -0.2217
H2 H 0.2101 0.9516 -0.0307
H3 H 0.3854 0.9873 -0.1238
H4 H 0.2962 0.9338 -0.2368
H5 H 0.5093 0.8611 -0.1884
H6 H 0.5761 0.9011 -0.0564
H7 H 0.3693 0.7728 -0.1143
H8 H 0.5188 0.7806 0.0022
H9 H 0.2728 0.8874 0.2283
H10 H 0.3121 0.9703 0.1861
H11 H 0.4372 0.9093 0.4118
H12 H 0.4984 0.9832 0.3601
H13 H 0.6951 0.9194 0.3438
H14 H 0.6474 0.8506 0.4170
H15 H 0.6463 0.8347 0.1820
H16 H 0.5323 0.7864 0.2344
H17 H -0.0771 0.7235 -0.2004
H18 H 0.0972 0.6979 -0.1624
H19 H -0.0003 0.6813 -0.0707
H20 H -0.0734 0.9435 -0.1490
H21 H -0.2158 0.8335 -0.2435
H22 H -0.2753 0.9071 -0.3294
H23 H -0.1649 0.8467 -0.3646
H24 H -0.0940 1.0143 -0.3354
H25 H 0.0785 1.0114 -0.2482
H26 H 0.0225 0.9552 -0.3653
loop_
_geom_bond_atom_site_label_1
_geom_bond_atom_site_label_2
_geom_bond_site_symmetry_1
_geom_bond_site_symmetry_2
O1 C1 1_555 1_555
O2 N1 1_555 1_555
O3 N1 1_555 1_555
N1 C2 1_555 1_555
N2 C8 1_555 1_555
C1 C2 1_555 1_555
C2 C3 1_555 1_555
C3 C4 1_555 1_555
C4 C5 1_555 1_555
C5 C6 1_555 1_555
C6 C7 1_555 1_555
C7 C8 1_555 1_555
C8 C1 1_555 1_555
C9 N2 1_555 1_555
C10 C9 1_555 1_555
C11 C10 1_555 1_555
C12 N2 1_555 1_555
C13 C2 1_555 1_555
C14 C3 1_555 1_555
C15 C14 1_555 1_555
C16 C14 1_555 1_555
H1 C3 1_555 1_555
H2 C4 1_555 1_555
H3 C5 1_555 1_555
H4 C5 1_555 1_555
H5 C6 1_555 1_555
H6 C6 1_555 1_555
H7 C7 1_555 1_555
H8 C7 1_555 1_555
H9 C9 1_555 1_555
H10 C9 1_555 1_555
H11 C10 1_555 1_555
H12 C10 1_555 1_555
H13 C11 1_555 1_555
H14 C11 1_555 1_555
H15 C12 1_555 1_555
H16 C12 1_555 1_555
H17 C13 1_555 1_555
H18 C13 1_555 1_555
H19 C13 1_555 1_555
H20 C14 1_555 1_555
H21 C15 1_555 1_555
H22 C15 1_555 1_555
H23 C15 1_555 1_555
H24 C16 1_555 1_555
H25 C16 1_555 1_555
H26 C16 1_555 1_555
C4 C8 1_555 1_555
C11 C12 1_555 1_555

#END
