
#######################################################################
#
#                 Cambridge Crystallographic Data Centre
#                                CCDC 
#
#######################################################################
#
# If this CIF has been generated from an entry in the Cambridge 
# Structural Database, then it will include bibliographic, chemical, 
# crystal, experimental, refinement or atomic coordinate data resulting 
# from the CCDC's data processing and validation procedures.
#
#######################################################################

data_JUKNOU
_chemical_formula_moiety         'C30 H38 O6'
_chemical_name_systematic        
1,7-bis(3-Methoxy-4-propoxyphenyl)-5-propoxyhepta-1,4,6-trien-3-one
_symmetry_cell_setting           monoclinic
_symmetry_space_group_name_H-M   'P 21/c'
_symmetry_Int_Tables_number      14
_space_group_name_Hall           '-P 2ybc'
loop_
_symmetry_equiv_pos_site_id
_symmetry_equiv_pos_as_xyz
1 x,y,z
2 -x,1/2+y,1/2-z
3 -x,-y,-z
4 x,1/2-y,1/2+z
_cell_length_a                   12.279(5)
_cell_length_b                   26.129(6)
_cell_length_c                   9.096(7)
_cell_angle_alpha                90
_cell_angle_beta                 98.658(5)
_cell_angle_gamma                90
_cell_volume                     2885.09
_exptl_crystal_colour            colorless
_exptl_crystal_description       block
_cell_formula_units_Z            4
loop_
_atom_site_label
_atom_site_type_symbol
_atom_site_fract_x
_atom_site_fract_y
_atom_site_fract_z
O1 O 0.19798(18) 0.17999(8) 1.0573(2)
O2 O 0.12431(17) 0.13266(8) 0.8143(2)
C1 C 0.2280(2) 0.15236(10) 0.8214(3)
O3 O 0.1917(2) -0.05840(9) -0.5776(2)
C2 C 0.3974(2) 0.17051(10) 0.7282(3)
C3 C 0.2677(2) 0.17869(10) 0.9555(3)
O4 O 0.60762(19) 0.16380(10) 0.4081(2)
C4 C 0.3693(2) 0.20150(11) 0.9696(3)
H1 H 0.3954 0.2198 1.0553
C5 C 0.2925(2) 0.14835(10) 0.7129(3)
H2 H 0.2662 0.1305 0.6264
C6 C 0.4333(2) 0.19739(11) 0.8572(3)
H3 H 0.5020 0.2131 0.8687
C7 C 0.4445(2) 0.13853(11) 0.4888(3)
H4 H 0.3797 0.1196 0.4746
O5 O 0.0484(2) -0.05831(10) -0.3938(3)
C8 C 0.1463(3) -0.03471(12) -0.3458(3)
C9 C 0.5153(3) 0.13596(12) 0.3735(3)
C10 C 0.4901(3) 0.10948(12) 0.2450(3)
H5 H 0.5411 0.1108 0.1792
C11 C 0.2731(3) 0.01165(12) -0.1656(3)
C12 C 0.4664(2) 0.16617(11) 0.6124(3)
H6 H 0.5321 0.1845 0.6261
C13 C 0.1733(3) -0.01203(12) -0.2081(3)
H7 H 0.1225 -0.0128 -0.1420
C14 C 0.2336(3) 0.20612(13) 1.1951(3)
H8 H 0.2481 0.2419 1.1765
H9 H 0.3008 0.1908 1.2459
C15 C 0.2226(3) -0.03375(11) -0.4438(3)
C16 C 0.3476(3) 0.01323(13) -0.2646(4)
H10 H 0.4151 0.0295 -0.2376
O6 O 0.3183(2) 0.07151(10) 0.2758(3)
C17 C 0.3925(3) 0.07945(12) 0.1995(3)
C18 C 0.0757(3) 0.11168(14) 0.6742(4)
H11 H 0.0716 0.1377 0.5990
H12 H 0.0029 0.0995 0.6814
H13 H 0.1200 0.0838 0.6483
C19 C 0.2965(3) 0.03504(12) -0.0158(4)
H14 H 0.2393 0.0333 0.0404
C20 C 0.3229(3) -0.00950(13) -0.4064(4)
H15 H 0.3731 -0.0082 -0.4734
C21 C 0.2709(3) -0.06320(14) -0.6764(4)
H16 H 0.3372 -0.0794 -0.6258
H17 H 0.2904 -0.0297 -0.7100
C22 C 0.6870(4) 0.1648(2) 0.3067(5)
H18 H 0.6573 0.1824 0.2157
H19 H 0.7071 0.1302 0.2821
C23 C 0.2212(4) -0.09520(17) -0.8071(4)
H20 H 0.1957 -0.1273 -0.7710
H21 H 0.1578 -0.0774 -0.8600
C24 C 0.3843(3) 0.05734(13) 0.0475(3)
H22 H 0.4445 0.0598 -0.0030
C25 C 0.1449(5) 0.2017(2) 1.2873(5)
H23 H 0.1288 0.1658 1.3000
H24 H 0.1705 0.2159 1.3849
C26 C -0.0361(3) -0.05395(18) -0.3041(5)
H25 H -0.1026 -0.0690 -0.3550
H26 H -0.0487 -0.0185 -0.2851
H27 H -0.0142 -0.0715 -0.2116
C27 C 0.2997(4) -0.10609(19) -0.9116(5)
H28 H 0.2659 -0.1287 -0.9883
H29 H 0.3646 -0.1219 -0.8588
H30 H 0.3196 -0.0747 -0.9555
C28 C 0.7872(4) 0.1934(2) 0.3884(8)
H31 H 0.8092 0.1782 0.4856
H32 H 0.8484 0.1903 0.3327
C29 C 0.0444(5) 0.2277(3) 1.2239(9)
H33 H 0.0568 0.2462 1.1368
H34 H 0.0228 0.2511 1.2956
H35 H -0.0130 0.2029 1.1973
C30 C 0.7623(5) 0.2450(3) 0.4046(9)
H36 H 0.7501 0.2611 0.3087
H37 H 0.8227 0.2615 0.4660
H38 H 0.6971 0.2479 0.4505
loop_
_geom_bond_atom_site_label_1
_geom_bond_atom_site_label_2
_geom_bond_site_symmetry_1
_geom_bond_site_symmetry_2
O1 C3 1_555 1_555
O2 C1 1_555 1_555
C1 C3 1_555 1_555
O3 C15 1_555 1_555
C2 C5 1_555 1_555
C3 C4 1_555 1_555
O4 C9 1_555 1_555
C4 H1 1_555 1_555
C5 C1 1_555 1_555
H2 C5 1_555 1_555
C6 C2 1_555 1_555
H3 C6 1_555 1_555
C7 H4 1_555 1_555
O5 C8 1_555 1_555
C8 C13 1_555 1_555
C9 C7 1_555 1_555
C10 C9 1_555 1_555
H5 C10 1_555 1_555
C11 C13 1_555 1_555
C12 C2 1_555 1_555
H6 C12 1_555 1_555
C13 H7 1_555 1_555
C14 O1 1_555 1_555
H8 C14 1_555 1_555
H9 C14 1_555 1_555
C15 C8 1_555 1_555
C16 C11 1_555 1_555
H10 C16 1_555 1_555
O6 C17 1_555 1_555
C17 C10 1_555 1_555
C18 O2 1_555 1_555
H11 C18 1_555 1_555
H12 C18 1_555 1_555
H13 C18 1_555 1_555
C19 C11 1_555 1_555
H14 C19 1_555 1_555
C20 C15 1_555 1_555
H15 C20 1_555 1_555
C21 O3 1_555 1_555
H16 C21 1_555 1_555
H17 C21 1_555 1_555
C22 O4 1_555 1_555
H18 C22 1_555 1_555
H19 C22 1_555 1_555
C23 C21 1_555 1_555
H20 C23 1_555 1_555
H21 C23 1_555 1_555
C24 C17 1_555 1_555
H22 C24 1_555 1_555
C25 C14 1_555 1_555
H23 C25 1_555 1_555
H24 C25 1_555 1_555
C26 O5 1_555 1_555
H25 C26 1_555 1_555
H26 C26 1_555 1_555
H27 C26 1_555 1_555
C27 C23 1_555 1_555
H28 C27 1_555 1_555
H29 C27 1_555 1_555
H30 C27 1_555 1_555
C28 C22 1_555 1_555
H31 C28 1_555 1_555
H32 C28 1_555 1_555
C29 C25 1_555 1_555
H33 C29 1_555 1_555
H34 C29 1_555 1_555
H35 C29 1_555 1_555
C30 C28 1_555 1_555
H36 C30 1_555 1_555
H37 C30 1_555 1_555
H38 C30 1_555 1_555
C4 C6 1_555 1_555
C7 C12 1_555 1_555
C16 C20 1_555 1_555
C19 C24 1_555 1_555

#END
