
#######################################################################
#
#                 Cambridge Crystallographic Data Centre
#                                CCDC 
#
#######################################################################
#
# If this CIF has been generated from an entry in the Cambridge 
# Structural Database, then it will include bibliographic, chemical, 
# crystal, experimental, refinement or atomic coordinate data resulting 
# from the CCDC's data processing and validation procedures.
#
#######################################################################

data_JUKNIO
_chemical_formula_moiety         'C22 H23 Cl1 N2 O3 S1'
_chemical_name_systematic        
N-(3-((3-Chlorophenyl)amino)-2-hydroxy-3-phenylpropyl)-4-methylbenzenesulfonamide
_symmetry_cell_setting           monoclinic
_symmetry_space_group_name_H-M   'P 21'
_symmetry_Int_Tables_number      4
_space_group_name_Hall           'P 2yb'
loop_
_symmetry_equiv_pos_site_id
_symmetry_equiv_pos_as_xyz
1 x,y,z
2 -x,1/2+y,-z
_cell_length_a                   12.3793(4)
_cell_length_b                   5.6132(2)
_cell_length_c                   15.3373(5)
_cell_angle_alpha                90
_cell_angle_beta                 108.8802(11)
_cell_angle_gamma                90
_cell_volume                     1008.41
_exptl_crystal_colour            colorless
_exptl_crystal_description       prism
_cell_formula_units_Z            2
loop_
_atom_site_label
_atom_site_type_symbol
_atom_site_fract_x
_atom_site_fract_y
_atom_site_fract_z
S1 S 0.34281(6) 0.6001(2) 0.02956(5)
O1 O 0.6661(2) 0.9478(4) 0.21667(17)
H1 H 0.674(4) 0.972(8) 0.166(3)
O2 O 0.3644(2) 0.3515(6) 0.0453(2)
O3 O 0.3179(2) 0.6933(6) -0.06196(17)
N1 N 0.6385(2) 0.4000(5) 0.33621(19)
H2 H 0.640(3) 0.289(8) 0.300(3)
N2 N 0.4553(3) 0.7451(7) 0.0915(2)
H3 H 0.444(3) 0.915(8) 0.079(3)
C1 C 0.6914(2) 0.4047(6) 0.5875(2)
C2 C 0.6441(3) 0.1916(6) 0.6015(2)
H4 H 0.6436 0.1455 0.6610
C3 C 0.5972(3) 0.0475(5) 0.5250(2)
H5 H 0.5647 -0.1014 0.5324
C4 C 0.5969(2) 0.1161(6) 0.4383(2)
H6 H 0.5628 0.0154 0.3870
C5 C 0.6464(2) 0.3335(5) 0.4252(2)
C6 C 0.6958(2) 0.4781(5) 0.5020(2)
H7 H 0.7318 0.6238 0.4959
C7 C 0.8719(3) 0.4026(6) 0.3182(2)
H8 H 0.8260 0.2785 0.2829
C8 C 0.9896(3) 0.3870(6) 0.3444(2)
H9 H 1.0240 0.2509 0.3277
C9 C 1.0581(3) 0.5685(6) 0.3951(2)
H10 H 1.1389 0.5572 0.4127
C10 C 1.0074(3) 0.7662(6) 0.4199(2)
H11 H 1.0535 0.8910 0.4545
C11 C 0.8893(3) 0.7821(6) 0.3941(2)
H12 H 0.8552 0.9183 0.4111
C12 C 0.8203(2) 0.6006(6) 0.34345(18)
C13 C 0.6911(2) 0.6171(7) 0.31838(19)
H13 H 0.673(3) 0.752(7) 0.355(3)
C14 C 0.6342(3) 0.7019(7) 0.2183(2)
H14 H 0.664(3) 0.597(9) 0.176(3)
C15 C 0.5047(3) 0.6823(8) 0.1888(2)
H15 H 0.4828 0.5175 0.1988
H16 H 0.4750 0.7908 0.2266
C16 C 0.1073(2) 0.5870(7) 0.15873(19)
H17 H 0.0864 0.4828 0.1994
C17 C 0.1975(3) 0.5255(6) 0.1280(2)
H18 H 0.2380 0.3808 0.1474
C18 C 0.2276(3) 0.6775(6) 0.0689(2)
C19 C 0.1703(3) 0.8893(7) 0.0408(2)
H19 H 0.1918 0.9932 0.0005
C20 C 0.0800(3) 0.9486(6) 0.0728(2)
H20 H 0.0405 1.0948 0.0541
C21 C 0.0470(3) 0.7976(6) 0.1312(2)
C22 C -0.0516(3) 0.8611(7) 0.1636(2)
H21 H -0.0741 1.0267 0.1470
H22 H -0.0288 0.8426 0.2306
H23 H -0.1161 0.7554 0.1342
Cl1 Cl 0.74909(6) 0.59285(14) 0.68215(5)
loop_
_geom_bond_atom_site_label_1
_geom_bond_atom_site_label_2
_geom_bond_site_symmetry_1
_geom_bond_site_symmetry_2
S1 O2 1_555 1_555
O1 H1 1_555 1_555
O3 S1 1_555 1_555
N1 H2 1_555 1_555
N2 S1 1_555 1_555
H3 N2 1_555 1_555
C1 C2 1_555 1_555
C2 H4 1_555 1_555
C3 C2 1_555 1_555
H5 C3 1_555 1_555
C4 C3 1_555 1_555
H6 C4 1_555 1_555
C5 N1 1_555 1_555
C6 C1 1_555 1_555
H7 C6 1_555 1_555
C7 H8 1_555 1_555
C8 C7 1_555 1_555
H9 C8 1_555 1_555
C9 C8 1_555 1_555
H10 C9 1_555 1_555
C10 C9 1_555 1_555
H11 C10 1_555 1_555
C11 C10 1_555 1_555
H12 C11 1_555 1_555
C12 C7 1_555 1_555
C13 N1 1_555 1_555
H13 C13 1_555 1_555
C14 O1 1_555 1_555
H14 C14 1_555 1_555
C15 N2 1_555 1_555
H15 C15 1_555 1_555
H16 C15 1_555 1_555
C16 H17 1_555 1_555
C17 C16 1_555 1_555
H18 C17 1_555 1_555
C18 S1 1_555 1_555
C19 C18 1_555 1_555
H19 C19 1_555 1_555
C20 C19 1_555 1_555
H20 C20 1_555 1_555
C21 C16 1_555 1_555
C22 C21 1_555 1_555
H21 C22 1_555 1_555
H22 C22 1_555 1_555
H23 C22 1_555 1_555
Cl1 C1 1_555 1_555
C4 C5 1_555 1_555
C5 C6 1_555 1_555
C11 C12 1_555 1_555
C12 C13 1_555 1_555
C13 C14 1_555 1_555
C14 C15 1_555 1_555
C17 C18 1_555 1_555
C20 C21 1_555 1_555

#END
