
#######################################################################
#
#                 Cambridge Crystallographic Data Centre
#                                CCDC 
#
#######################################################################
#
# If this CIF has been generated from an entry in the Cambridge 
# Structural Database, then it will include bibliographic, chemical, 
# crystal, experimental, refinement or atomic coordinate data resulting 
# from the CCDC's data processing and validation procedures.
#
#######################################################################

data_JUKTAM
_chemical_formula_moiety         'C23 H23 N1 O3 S1'
_chemical_name_systematic        
2-benzyl-3-((4-methylphenyl)sulfonyl)-5-phenyl-1,3-oxazolidine
_symmetry_cell_setting           orthorhombic
_symmetry_space_group_name_H-M   'P b c n'
_symmetry_Int_Tables_number      60
_space_group_name_Hall           '-P 2n 2ab'
loop_
_symmetry_equiv_pos_site_id
_symmetry_equiv_pos_as_xyz
1 x,y,z
2 1/2-x,1/2-y,1/2+z
3 1/2+x,1/2-y,-z
4 -x,y,1/2-z
5 -x,-y,-z
6 1/2+x,1/2+y,1/2-z
7 1/2-x,1/2+y,z
8 x,-y,1/2+z
_cell_length_a                   19.8081(19)
_cell_length_b                   7.7407(8)
_cell_length_c                   27.192(3)
_cell_angle_alpha                90
_cell_angle_beta                 90
_cell_angle_gamma                90
_cell_volume                     4169.31
_exptl_crystal_colour            colorless
_exptl_crystal_description       block
_cell_formula_units_Z            8
loop_
_atom_site_label
_atom_site_type_symbol
_atom_site_fract_x
_atom_site_fract_y
_atom_site_fract_z
S1 S 0.12993(4) 0.50648(11) 0.05995(3)
O1 O 0.03516(10) 0.2142(3) 0.13951(9)
O2 O 0.19879(10) 0.5568(3) 0.06534(9)
O3 O 0.07975(11) 0.6301(3) 0.04704(9)
N1 N 0.10712(11) 0.4294(3) 0.11313(9)
C1 C 0.11312(15) -0.0041(4) 0.16769(12)
C2 C 0.09869(15) 0.1325(4) 0.13021(12)
H1 H 0.0995 0.0832 0.0970
C3 C 0.03519(13) 0.3845(4) 0.12121(11)
H2 H 0.0108 0.3887 0.0899
C4 C 0.14768(14) 0.2857(4) 0.13379(12)
H3 H 0.1603 0.3085 0.1676
H4 H 0.1881 0.2656 0.1145
C5 C 0.06592(15) 0.2852(5) -0.00269(11)
H5 H 0.0270 0.3486 0.0035
C6 C 0.12679(14) 0.3355(4) 0.01799(11)
C7 C 0.12051(18) 0.0441(5) -0.04190(13)
C8 C -0.07229(15) 0.4698(4) 0.16312(12)
C9 C -0.11856(17) 0.5573(5) 0.13452(13)
H6 H -0.1037 0.6398 0.1121
C10 C 0.18485(16) 0.2399(5) 0.00787(12)
H7 H 0.2261 0.2731 0.0211
C11 C 0.00238(15) 0.5050(5) 0.15765(13)
H8 H 0.0088 0.6233 0.1469
H9 H 0.0241 0.4920 0.1894
C12 C -0.1646(2) 0.3162(6) 0.19999(17)
H10 H -0.1799 0.2336 0.2222
C13 C 0.06329(16) 0.1431(5) -0.03199(13)
H11 H 0.0222 0.1110 -0.0458
C14 C 0.18080(17) 0.0971(5) -0.02173(14)
H12 H 0.2198 0.0343 -0.0284
C15 C -0.09609(18) 0.3482(5) 0.19584(14)
H13 H -0.0658 0.2871 0.2153
C16 C -0.18728(19) 0.5230(6) 0.13895(16)
H14 H -0.2180 0.5816 0.1192
C17 C 0.16229(17) -0.1252(5) 0.15659(14)
H15 H 0.1840 -0.1224 0.1263
C18 C 0.1472(2) -0.2537(6) 0.23508(17)
H16 H 0.1604 -0.3330 0.2589
C19 C -0.20977(19) 0.4051(6) 0.17176(18)
H17 H -0.2558 0.3846 0.1751
C20 C 0.17903(19) -0.2508(5) 0.19092(17)
H18 H 0.2119 -0.3327 0.1837
C21 C 0.0803(3) -0.0189(5) 0.21098(14)
H19 H 0.0454 0.0572 0.2182
C22 C 0.0972(3) -0.1435(7) 0.24447(16)
H20 H 0.0737 -0.1513 0.2740
C23 C 0.1165(2) -0.1155(7) -0.07268(19)
H21 H 0.0708 -0.1322 -0.0835
H22 H 0.1455 -0.1036 -0.1007
H23 H 0.1305 -0.2134 -0.0536
loop_
_geom_bond_atom_site_label_1
_geom_bond_atom_site_label_2
_geom_bond_site_symmetry_1
_geom_bond_site_symmetry_2
S1 O2 1_555 1_555
O1 C2 1_555 1_555
O3 S1 1_555 1_555
N1 S1 1_555 1_555
C1 C2 1_555 1_555
C2 H1 1_555 1_555
C3 O1 1_555 1_555
H2 C3 1_555 1_555
C4 N1 1_555 1_555
H3 C4 1_555 1_555
H4 C4 1_555 1_555
C5 H5 1_555 1_555
C6 S1 1_555 1_555
C7 C13 1_555 1_555
C8 C9 1_555 1_555
C9 H6 1_555 1_555
C10 C6 1_555 1_555
H7 C10 1_555 1_555
C11 C3 1_555 1_555
H8 C11 1_555 1_555
H9 C11 1_555 1_555
C12 H10 1_555 1_555
C13 C5 1_555 1_555
H11 C13 1_555 1_555
C14 C7 1_555 1_555
H12 C14 1_555 1_555
C15 C8 1_555 1_555
H13 C15 1_555 1_555
C16 C9 1_555 1_555
H14 C16 1_555 1_555
C17 C1 1_555 1_555
H15 C17 1_555 1_555
C18 H16 1_555 1_555
C19 C12 1_555 1_555
H17 C19 1_555 1_555
C20 C17 1_555 1_555
H18 C20 1_555 1_555
C21 C1 1_555 1_555
H19 C21 1_555 1_555
C22 C18 1_555 1_555
H20 C22 1_555 1_555
C23 C7 1_555 1_555
H21 C23 1_555 1_555
H22 C23 1_555 1_555
H23 C23 1_555 1_555
N1 C3 1_555 1_555
C2 C4 1_555 1_555
C5 C6 1_555 1_555
C8 C11 1_555 1_555
C10 C14 1_555 1_555
C12 C15 1_555 1_555
C16 C19 1_555 1_555
C18 C20 1_555 1_555
C21 C22 1_555 1_555

#END
