
#######################################################################
#
#                 Cambridge Crystallographic Data Centre
#                                CCDC 
#
#######################################################################
#
# If this CIF has been generated from an entry in the Cambridge 
# Structural Database, then it will include bibliographic, chemical, 
# crystal, experimental, refinement or atomic coordinate data resulting 
# from the CCDC's data processing and validation procedures.
#
#######################################################################

data_JUKVOC
_chemical_formula_moiety         'C28 H42 N2 O6'
_chemical_name_systematic        
8,19-bis(2-Ethoxyethyl)-7,8,9,10,18,19,20,21-octahydro-6H,17H-dibenzo[b,k][1,4,10,13,7,16]tetraoxadiazacyclo-octadecine
_symmetry_cell_setting           triclinic
_symmetry_space_group_name_H-M   'P -1'
_symmetry_Int_Tables_number      2
_space_group_name_Hall           '-P 1'
loop_
_symmetry_equiv_pos_site_id
_symmetry_equiv_pos_as_xyz
1 x,y,z
2 -x,-y,-z
_cell_length_a                   4.8922(15)
_cell_length_b                   10.102(3)
_cell_length_c                   14.454(4)
_cell_angle_alpha                81.084(5)
_cell_angle_beta                 87.770(5)
_cell_angle_gamma                84.859(5)
_cell_volume                     702.633
_exptl_crystal_colour            colorless
_exptl_crystal_description       block
_cell_formula_units_Z            1
loop_
_atom_site_label
_atom_site_type_symbol
_atom_site_fract_x
_atom_site_fract_y
_atom_site_fract_z
N1 N 0.3903(3) 0.04625(15) 0.69164(9)
O1 O 0.0702(3) 0.22485(12) 0.47914(8)
O2 O -0.2322(3) 0.22198(12) 0.34026(8)
O3 O 0.2472(4) 0.19009(19) 0.90665(10)
C1 C -0.0834(3) 0.33138(16) 0.33349(12)
C2 C -0.0832(4) 0.43474(18) 0.25936(13)
H1 H -0.1917 0.4338 0.2081
C3 C 0.0795(4) 0.54103(18) 0.26092(14)
H2 H 0.0818 0.6100 0.2102
C4 C 0.2350(5) 0.5438(2) 0.33665(15)
H3 H 0.3407 0.6156 0.3379
C5 C 0.2365(4) 0.44035(19) 0.41169(14)
H4 H 0.3434 0.4429 0.4631
C6 C 0.0804(4) 0.33365(16) 0.41055(12)
C7 C 0.2617(4) 0.20805(18) 0.55352(12)
H5 H 0.2177 0.2747 0.5946
H6 H 0.4473 0.2166 0.5286
C8 C 0.2332(4) 0.06885(19) 0.60522(12)
H7 H 0.0411 0.0575 0.6206
H8 H 0.2997 0.0031 0.5655
C9 C 0.5456(4) -0.08328(19) 0.71008(13)
H9 H 0.6714 -0.0799 0.7598
H10 H 0.6562 -0.0956 0.6544
C10 C -0.3897(4) 0.20698(19) 0.26250(13)
H11 H -0.2700 0.1966 0.2086
H12 H -0.5169 0.2858 0.2464
C11 C 0.2339(4) 0.08829(19) 0.77104(13)
H13 H 0.1511 0.0117 0.8063
H14 H 0.0873 0.1553 0.7485
C12 C 0.4112(5) 0.1458(3) 0.83390(15)
H15 H 0.5523 0.0779 0.8596
H16 H 0.5003 0.2204 0.7987
C13 C 0.4060(11) 0.2567(7) 0.9645(3)
H17 H 0.4919 0.3305 0.9268
H18 H 0.5484 0.1942 0.9953
C14 C 0.2099(13) 0.3079(7) 1.0351(4)
H19 H 0.0735 0.3715 1.0036
H20 H 0.3079 0.3510 1.0767
H21 H 0.1223 0.2342 1.0704
N1A N -0.3903(3) -0.04625(15) 0.30836(9)
O1A O -0.0702(3) -0.22485(12) 0.52086(8)
O2A O 0.2322(3) -0.22198(12) 0.65974(8)
O3A O -0.2472(4) -0.19009(19) 0.09335(10)
C1A C 0.0834(3) -0.33138(16) 0.66651(12)
C2A C 0.0832(4) -0.43474(18) 0.74064(13)
H1A H 0.1917 -0.4338 0.7919
C3A C -0.0795(4) -0.54103(18) 0.73908(14)
H2A H -0.0818 -0.6100 0.7898
C4A C -0.2350(5) -0.5438(2) 0.66335(15)
H3A H -0.3407 -0.6156 0.6621
C5A C -0.2365(4) -0.44035(19) 0.58831(14)
H4A H -0.3434 -0.4429 0.5369
C6A C -0.0804(4) -0.33365(16) 0.58945(12)
C7A C -0.2617(4) -0.20805(18) 0.44648(12)
H5A H -0.2177 -0.2747 0.4054
H6A H -0.4473 -0.2166 0.4714
C8A C -0.2332(4) -0.06885(19) 0.39478(12)
H7A H -0.0411 -0.0575 0.3794
H8A H -0.2997 -0.0031 0.4345
C9A C -0.5456(4) 0.08328(19) 0.28992(13)
H9A H -0.6714 0.0799 0.2402
H10A H -0.6562 0.0956 0.3456
C10A C 0.3897(4) -0.20698(19) 0.73750(13)
H11A H 0.2700 -0.1966 0.7914
H12A H 0.5169 -0.2858 0.7536
C11A C -0.2339(4) -0.08829(19) 0.22896(13)
H13A H -0.1511 -0.0117 0.1937
H14A H -0.0873 -0.1553 0.2515
C12A C -0.4112(5) -0.1458(3) 0.16610(15)
H15A H -0.5523 -0.0779 0.1404
H16A H -0.5003 -0.2204 0.2013
C13A C -0.4060(11) -0.2567(7) 0.0355(3)
H17A H -0.4919 -0.3305 0.0732
H18A H -0.5484 -0.1942 0.0047
C14A C -0.2099(13) -0.3079(7) -0.0351(4)
H19A H -0.0735 -0.3715 -0.0036
H20A H -0.3079 -0.3510 -0.0767
H21A H -0.1223 -0.2342 -0.0704
C15? C 0.364(7) 0.353(2) 0.9931(15)
H22? H 0.5442 0.3741 0.9703
H23? H 0.3338 0.3760 1.0548
H24? H 0.2291 0.4022 0.9519
C16? C 0.341(7) 0.204(2) 0.9969(10)
H25? H 0.5178 0.1538 1.0089
H26? H 0.2109 0.1717 1.0457
loop_
_geom_bond_atom_site_label_1
_geom_bond_atom_site_label_2
_geom_bond_site_symmetry_1
_geom_bond_site_symmetry_2
N1 C8 1_555 1_555
O1 C6 1_555 1_555
O2 C1 1_555 1_555
O3 C12 1_555 1_555
C1 C2 1_555 1_555
C2 H1 1_555 1_555
C3 C2 1_555 1_555
H2 C3 1_555 1_555
C4 C3 1_555 1_555
H3 C4 1_555 1_555
C5 C4 1_555 1_555
H4 C5 1_555 1_555
C6 C1 1_555 1_555
C7 O1 1_555 1_555
H5 C7 1_555 1_555
H6 C7 1_555 1_555
C8 C7 1_555 1_555
H7 C8 1_555 1_555
H8 C8 1_555 1_555
C9 N1 1_555 1_555
H9 C9 1_555 1_555
H10 C9 1_555 1_555
C10 O2 1_555 1_555
H11 C10 1_555 1_555
H12 C10 1_555 1_555
C11 N1 1_555 1_555
H13 C11 1_555 1_555
H14 C11 1_555 1_555
C12 C11 1_555 1_555
H15 C12 1_555 1_555
H16 C12 1_555 1_555
C13 O3 1_555 1_555
H17 C13 1_555 1_555
H18 C13 1_555 1_555
C14 C13 1_555 1_555
H19 C14 1_555 1_555
H20 C14 1_555 1_555
H21 C14 1_555 1_555
N1A C8A 1_555 1_555
O1A C6A 1_555 1_555
O2A C1A 1_555 1_555
O3A C12A 1_555 1_555
C1A C2A 1_555 1_555
C2A H1A 1_555 1_555
C3A C2A 1_555 1_555
H2A C3A 1_555 1_555
C4A C3A 1_555 1_555
H3A C4A 1_555 1_555
C5A C4A 1_555 1_555
H4A C5A 1_555 1_555
C6A C1A 1_555 1_555
C7A O1A 1_555 1_555
H5A C7A 1_555 1_555
H6A C7A 1_555 1_555
C8A C7A 1_555 1_555
H7A C8A 1_555 1_555
H8A C8A 1_555 1_555
C9A C10 1_555 1_555
H9A C9A 1_555 1_555
H10A C9A 1_555 1_555
C10A C9 1_555 1_555
H11A C10A 1_555 1_555
H12A C10A 1_555 1_555
C11A N1A 1_555 1_555
H13A C11A 1_555 1_555
H14A C11A 1_555 1_555
C12A C11A 1_555 1_555
H15A C12A 1_555 1_555
H16A C12A 1_555 1_555
C13A O3A 1_555 1_555
H17A C13A 1_555 1_555
H18A C13A 1_555 1_555
C14A C13A 1_555 1_555
H19A C14A 1_555 1_555
H20A C14A 1_555 1_555
H21A C14A 1_555 1_555
C5 C6 1_555 1_555
N1A C9A 1_555 1_555
O2A C10A 1_555 1_555
C5A C6A 1_555 1_555

#END
