
#######################################################################
#
#                 Cambridge Crystallographic Data Centre
#                                CCDC 
#
#######################################################################
#
# If this CIF has been generated from an entry in the Cambridge 
# Structural Database, then it will include bibliographic, chemical, 
# crystal, experimental, refinement or atomic coordinate data resulting 
# from the CCDC's data processing and validation procedures.
#
#######################################################################

data_JUKYEV
_chemical_compound_source        'fungus Nodulisporium sp. (No. 65-12-7-1)'
_chemical_name_common            'Nodulisporisteriod C'
_chemical_formula_moiety         'C22 H34 O4'
_chemical_name_systematic        
'3-(3-Acetyl-7-(1-hydroxyethyl)-3a,6-dimethyl-2,3,3a,4,5,6,7,8,9,9b-decahydro-1H-cyclopenta[a]naphthalen-6-yl)propanoic acid'
_chemical_properties_biological  
'tested for cytotoxic activity against five human cancer cell lines'
_symmetry_cell_setting           monoclinic
_symmetry_space_group_name_H-M   'P 21'
_symmetry_Int_Tables_number      4
_space_group_name_Hall           'P 2yb'
loop_
_symmetry_equiv_pos_site_id
_symmetry_equiv_pos_as_xyz
1 x,y,z
2 -x,1/2+y,-z
_cell_length_a                   10.63371(18)
_cell_length_b                   7.40855(12)
_cell_length_c                   12.7199(2)
_cell_angle_alpha                90
_cell_angle_beta                 96.9608(16)
_cell_angle_gamma                90
_cell_volume                     994.692
_exptl_crystal_colour            colorless
_exptl_crystal_description       plate
_cell_formula_units_Z            2
loop_
_atom_site_label
_atom_site_type_symbol
_atom_site_fract_x
_atom_site_fract_y
_atom_site_fract_z
O1 O 0.35136(10) 0.42247(16) 0.47571(8)
H1 H 0.3443 0.3703 0.4184
O2 O 0.30582(11) 0.20965(18) 1.29676(9)
C1 C 0.24431(13) 0.2041(2) 0.81886(11)
O3 O -0.14215(11) 0.12198(19) 0.53825(10)
H2 H -0.2038 0.0547 0.5317
C2 C -0.04718(14) 0.0427(2) 0.59822(11)
O4 O -0.05584(11) -0.10291(19) 0.63892(10)
C3 C 0.20789(13) 0.3981(2) 0.97099(11)
H3 H 0.1175 0.4268 0.9565
C4 C 0.31102(15) 0.5276(2) 0.81389(12)
H4 H 0.3594 0.5991 0.8685
H5 H 0.2431 0.6026 0.7800
C5 C 0.39660(14) 0.4719(2) 0.73228(12)
H6 H 0.4740 0.4197 0.7678
H7 H 0.4190 0.5773 0.6933
C6 C 0.41117(14) 0.0347(2) 0.73762(12)
H8 H 0.4770 0.0980 0.7810
H9 H 0.4413 -0.0006 0.6725
H10 H 0.3876 -0.0709 0.7744
C7 C 0.40088(13) 0.2981(2) 0.55877(11)
H11 H 0.3819 0.1747 0.5340
C8 C 0.06938(15) 0.1586(2) 0.61271(13)
H12 H 0.0609 0.2452 0.6686
H13 H 0.0745 0.2259 0.5480
C9 C 0.20805(15) 0.1828(2) 1.23874(12)
C10 C 0.29522(13) 0.15881(19) 0.71351(11)
C11 C 0.13645(14) 0.0849(2) 0.97831(12)
H14 H 0.0496 0.1272 0.9657
H15 H 0.1375 -0.0254 1.0195
C12 C 0.25497(13) 0.3677(2) 0.86428(11)
C13 C 0.32972(13) 0.33429(19) 0.65553(11)
H16 H 0.2489 0.3896 0.6274
C14 C 0.21830(13) 0.2271(2) 1.04024(11)
C15 C 0.35550(14) 0.1610(2) 1.06413(12)
H17 H 0.3921 0.1490 0.9991
H18 H 0.3566 0.0460 1.0990
H19 H 0.4037 0.2465 1.1092
C16 C 0.19260(14) 0.0545(2) 0.64018(11)
H20 H 0.2266 0.0240 0.5750
H21 H 0.1741 -0.0576 0.6746
C17 C 0.54373(14) 0.3214(2) 0.57595(12)
H22 H 0.5784 0.2934 0.5116
H23 H 0.5792 0.2415 0.6312
H24 H 0.5639 0.4439 0.5960
C18 C 0.18586(15) 0.0459(2) 0.87170(11)
H25 H 0.2488 -0.0492 0.8827
H26 H 0.1160 -0.0003 0.8230
C19 C 0.26757(16) 0.5443(2) 1.04584(12)
H27 H 0.2385 0.6634 1.0223
H28 H 0.3593 0.5406 1.0509
C20 C 0.22122(15) 0.4960(2) 1.15308(12)
H29 H 0.1552 0.5788 1.1685
H30 H 0.2907 0.5036 1.2098
C21 C 0.16925(13) 0.3008(2) 1.14311(11)
H31 H 0.0765 0.3062 1.1313
C22 C 0.1237(2) 0.0265(3) 1.25790(14)
H32 H 0.1652 -0.0483 1.3132
H33 H 0.1064 -0.0430 1.1941
H34 H 0.0456 0.0711 1.2787
loop_
_geom_bond_atom_site_label_1
_geom_bond_atom_site_label_2
_geom_bond_site_symmetry_1
_geom_bond_site_symmetry_2
O1 H1 1_555 1_555
O2 C9 1_555 1_555
C1 C10 1_555 1_555
O3 H2 1_555 1_555
C2 O3 1_555 1_555
O4 C2 1_555 1_555
C3 H3 1_555 1_555
C4 H4 1_555 1_555
H5 C4 1_555 1_555
C5 C4 1_555 1_555
H6 C5 1_555 1_555
H7 C5 1_555 1_555
C6 H8 1_555 1_555
H9 C6 1_555 1_555
H10 C6 1_555 1_555
C7 O1 1_555 1_555
H11 C7 1_555 1_555
C8 C2 1_555 1_555
H12 C8 1_555 1_555
H13 C8 1_555 1_555
C9 C21 1_555 1_555
C10 C6 1_555 1_555
C11 H14 1_555 1_555
H15 C11 1_555 1_555
C12 C1 1_555 1_555
C13 C5 1_555 1_555
H16 C13 1_555 1_555
C14 C3 1_555 1_555
C15 C14 1_555 1_555
H17 C15 1_555 1_555
H18 C15 1_555 1_555
H19 C15 1_555 1_555
C16 C8 1_555 1_555
H20 C16 1_555 1_555
H21 C16 1_555 1_555
C17 C7 1_555 1_555
H22 C17 1_555 1_555
H23 C17 1_555 1_555
H24 C17 1_555 1_555
C18 C1 1_555 1_555
H25 C18 1_555 1_555
H26 C18 1_555 1_555
C19 C3 1_555 1_555
H27 C19 1_555 1_555
H28 C19 1_555 1_555
C20 C19 1_555 1_555
H29 C20 1_555 1_555
H30 C20 1_555 1_555
C21 C14 1_555 1_555
H31 C21 1_555 1_555
C22 C9 1_555 1_555
H32 C22 1_555 1_555
H33 C22 1_555 1_555
H34 C22 1_555 1_555
C3 C12 1_555 1_555
C4 C12 1_555 1_555
C7 C13 1_555 1_555
C10 C13 1_555 1_555
C10 C16 1_555 1_555
C11 C14 1_555 1_555
C11 C18 1_555 1_555
C20 C21 1_555 1_555

#END
