
#######################################################################
#
#                 Cambridge Crystallographic Data Centre
#                                CCDC 
#
#######################################################################
#
# If this CIF has been generated from an entry in the Cambridge 
# Structural Database, then it will include bibliographic, chemical, 
# crystal, experimental, refinement or atomic coordinate data resulting 
# from the CCDC's data processing and validation procedures.
#
#######################################################################

data_JUKYOF
_chemical_formula_moiety         '2(C25 H36 N1 O5 1+),C8 H4 O4 2-,13(H2 O1)'
_chemical_name_systematic        
'bis(19-n-Pentyl-6,7,9,10,18,19,20,21-octahydro-17H-dibenzo[b,k][1,4,7,10,13,16]pentaoxazacyclo-octadecin-19-ium) terephthalate tridecahydrate'
_symmetry_cell_setting           triclinic
_symmetry_space_group_name_H-M   'P -1'
_symmetry_Int_Tables_number      2
_space_group_name_Hall           '-P 1'
loop_
_symmetry_equiv_pos_site_id
_symmetry_equiv_pos_as_xyz
1 x,y,z
2 -x,-y,-z
_cell_length_a                   12.9024(13)
_cell_length_b                   12.9804(16)
_cell_length_c                   31.537(4)
_cell_angle_alpha                82.392(4)
_cell_angle_beta                 85.834(4)
_cell_angle_gamma                68.262(4)
_cell_volume                     4861.37
_exptl_crystal_description       block
_cell_formula_units_Z            3
loop_
_atom_site_label
_atom_site_type_symbol
_atom_site_fract_x
_atom_site_fract_y
_atom_site_fract_z
C1 C 0.2777(4) 0.7632(5) 0.23072(16)
C2 C 0.2787(5) 0.8642(5) 0.21104(18)
H1 H 0.2472 0.9288 0.2256
C3 C 0.3243(5) 0.8725(5) 0.17078(18)
H2 H 0.3234 0.9430 0.1577
C4 C 0.3716(4) 0.7800(5) 0.14896(17)
C5 C 0.3727(4) 0.6785(5) 0.16880(18)
H3 H 0.4060 0.6136 0.1545
C6 C 0.3262(4) 0.6700(5) 0.20904(17)
H4 H 0.3274 0.5994 0.2222
C7 C 0.2240(4) 0.7535(5) 0.27433(17)
C8 C 0.4213(5) 0.7893(7) 0.10445(19)
O1 O 0.2293(3) 0.6602(3) 0.29104(11)
O2 O 0.1748(4) 0.8416(4) 0.29157(13)
O3 O 0.3974(4) 0.8838(4) 0.08398(12)
O4 O 0.4853(4) 0.7001(4) 0.09010(13)
C9 C -0.0011(4) 0.6028(4) 0.47980(16)
C10 C -0.0268(4) 0.5895(4) 0.52260(16)
H5 H -0.0457 0.6515 0.5385
C11 C 0.0261(4) 0.5107(4) 0.45697(15)
H6 H 0.0441 0.5175 0.4272
C12 C -0.0003(4) 0.7131(5) 0.45721(18)
O5 O 0.0135(3) 0.7222(3) 0.41754(11)
O6 O -0.0151(3) 0.7893(3) 0.48056(11)
C9A C 0.0011(4) 0.3972(4) 0.52020(16)
C10A C 0.0268(4) 0.4105(4) 0.47740(16)
H5A H 0.0457 0.3485 0.4615
C11A C -0.0261(4) 0.4893(4) 0.54303(15)
H6A H -0.0441 0.4825 0.5728
C12A C 0.0003(4) 0.2869(5) 0.54279(18)
O5A O -0.0135(3) 0.2778(3) 0.58246(11)
O6A O 0.0151(3) 0.2107(3) 0.51944(11)
C13 C 0.5174(5) 0.7973(4) 0.43269(18)
C14 C 0.6312(5) 0.7315(5) 0.42937(17)
C15 C 0.6902(6) 0.6858(5) 0.46600(19)
H7 H 0.7671 0.6405 0.4640
C16 C 0.6397(7) 0.7045(7) 0.5053(2)
H8 H 0.6821 0.6732 0.5304
C17 C 0.5293(8) 0.7675(6) 0.5089(2)
H9 H 0.4942 0.7794 0.5363
C18 C 0.4691(6) 0.8137(5) 0.4724(2)
H10 H 0.3921 0.8581 0.4749
C19 C 0.5704(4) 1.1664(4) 0.26907(16)
C20 C 0.6811(4) 1.1203(4) 0.28102(15)
C21 C 0.7505(4) 1.1791(5) 0.26947(16)
H11 H 0.8260 1.1489 0.2780
C22 C 0.7098(5) 1.2814(5) 0.24555(18)
H12 H 0.7576 1.3220 0.2378
C23 C 0.6025(5) 1.3254(5) 0.23276(18)
H13 H 0.5760 1.3953 0.2155
C24 C 0.5320(4) 1.2678(5) 0.24499(16)
H14 H 0.4564 1.2991 0.2366
C25 C 0.3488(4) 0.9085(5) 0.3966(2)
H15 H 0.3377 0.9699 0.4141
H16 H 0.3058 0.8631 0.4103
C26 C 0.3092(5) 0.9550(5) 0.3528(2)
H17 H 0.3335 0.8948 0.3339
H18 H 0.2266 0.9880 0.3532
C27 C 0.3364(4) 1.0715(5) 0.29212(19)
H19 H 0.2555 1.1036 0.2866
H20 H 0.3705 1.0055 0.2762
C28 C 0.3877(4) 1.1561(5) 0.27683(18)
H21 H 0.3720 1.1827 0.2462
H22 H 0.3566 1.2209 0.2934
C29 C 0.8303(4) 0.9609(4) 0.31067(16)
H23 H 0.8580 1.0052 0.3270
H24 H 0.8715 0.9518 0.2828
C30 C 0.8477(4) 0.8497(4) 0.33506(15)
H25 H 0.8171 0.8608 0.3645
H26 H 0.9289 0.8067 0.3370
C31 C 0.8245(4) 0.6668(4) 0.33809(16)
H27 H 0.9061 0.6271 0.3350
H28 H 0.7874 0.6266 0.3239
C32 C 0.7927(4) 0.6628(4) 0.38448(17)
H29 H 0.8135 0.5843 0.3974
H30 H 0.8324 0.6990 0.3995
C33 C 0.8119(4) 0.7821(4) 0.26838(15)
H31 H 0.7819 0.8603 0.2549
H32 H 0.7680 0.7422 0.2581
C34 C 0.9319(4) 0.7290(4) 0.25355(16)
H33 H 0.9616 0.6492 0.2651
H34 H 0.9776 0.7662 0.2644
C35 C 0.9389(4) 0.7401(4) 0.20508(16)
H35 H 0.8907 0.7052 0.1946
H36 H 0.9100 0.8202 0.1939
C36 C 1.0561(4) 0.6862(6) 0.18795(17)
H37 H 1.1040 0.7214 0.1985
H38 H 1.0849 0.6063 0.1994
C37 C 1.0657(5) 0.6953(6) 0.14010(18)
H39 H 1.1438 0.6582 0.1313
H40 H 1.0398 0.7742 0.1284
H41 H 1.0198 0.6594 0.1293
N1 N 0.7946(3) 0.7819(3) 0.31580(13)
H42 H 0.7229(17) 0.814(4) 0.3207(14)
O7 O 0.4654(3) 0.8401(3) 0.39410(12)
O8 O 0.3535(3) 1.0384(3) 0.33684(12)
O9 O 0.5066(3) 1.1026(3) 0.28274(11)
O10 O 0.7138(2) 1.0163(3) 0.30403(10)
O11 O 0.6751(3) 0.7200(3) 0.38863(11)
C38 C 0.8313(4) 0.4970(4) 0.23668(17)
C39 C 0.7164(4) 0.5670(4) 0.23756(17)
C40 C 0.6653(5) 0.6203(5) 0.19999(18)
H43 H 0.5887 0.6672 0.2004
C41 C 0.7254(6) 0.6060(6) 0.16115(19)
H44 H 0.6901 0.6429 0.1351
C42 C 0.8361(6) 0.5377(6) 0.1611(2)
H45 H 0.8771 0.5275 0.1348
C43 C 0.8881(5) 0.4844(5) 0.19838(19)
H46 H 0.9649 0.4381 0.1976
C44 C 0.7539(4) 0.1371(4) 0.39860(16)
C45 C 0.6447(4) 0.1846(4) 0.38430(15)
C46 C 0.5745(4) 0.1258(5) 0.39350(18)
H47 H 0.5006 0.1561 0.3832
C47 C 0.6114(5) 0.0232(5) 0.41764(19)
H48 H 0.5624 -0.0165 0.4241
C48 C 0.7181(5) -0.0223(5) 0.43240(18)
H49 H 0.7428 -0.0930 0.4491
C49 C 0.7902(5) 0.0359(5) 0.42270(17)
H50 H 0.8642 0.0050 0.4329
C50 C 0.9934(4) 0.3792(5) 0.27515(19)
H51 H 1.0379 0.4235 0.2620
H52 H 1.0068 0.3162 0.2582
C51 C 1.0264(4) 0.3363(5) 0.32017(19)
H53 H 1.1087 0.3031 0.3216
H54 H 0.9991 0.3986 0.3381
C52 C 0.9892(4) 0.2307(5) 0.38074(19)
H55 H 0.9528 0.3003 0.3943
H56 H 1.0689 0.1990 0.3884
C53 C 0.9346(4) 0.1494(5) 0.39672(19)
H57 H 0.9688 0.0805 0.3825
H58 H 0.9439 0.1291 0.4280
C54 C 0.4988(4) 0.3451(4) 0.35362(17)
H59 H 0.4562 0.3564 0.3811
H60 H 0.4711 0.3005 0.3375
C55 C 0.4841(4) 0.4543(4) 0.32857(16)
H61 H 0.4033 0.4978 0.3254
H62 H 0.5174 0.4412 0.2996
C56 C 0.5103(4) 0.6361(4) 0.32447(17)
H63 H 0.4286 0.6773 0.3258
H64 H 0.5459 0.6768 0.3392
C57 C 0.5483(4) 0.6371(5) 0.27877(17)
H65 H 0.5088 0.6027 0.2628
H66 H 0.5321 0.7149 0.2656
C58 C 0.5120(4) 0.5273(4) 0.39495(15)
H67 H 0.5528 0.5703 0.4051
H68 H 0.5428 0.4504 0.4097
C59 C 0.3921(4) 0.5781(5) 0.40852(17)
H69 H 0.3494 0.5355 0.3995
H70 H 0.3596 0.6561 0.3950
C60 C 0.3856(4) 0.5755(5) 0.45772(18)
H71 H 0.4194 0.4971 0.4707
H72 H 0.4298 0.6171 0.4662
C61 C 0.2700(4) 0.6242(5) 0.47466(18)
H73 H 0.2276 0.5786 0.4682
H74 H 0.2341 0.7003 0.4597
C62 C 0.2630(5) 0.6310(6) 0.52208(18)
H75 H 0.1846 0.6639 0.5313
H76 H 0.3033 0.6776 0.5287
H77 H 0.2967 0.5558 0.5372
N2 N 0.5357(3) 0.5220(3) 0.34821(13)
H78 H 0.6072(17) 0.495(4) 0.3431(14)
O12 O 0.8754(3) 0.4487(3) 0.27559(11)
O13 O 0.9803(3) 0.2547(3) 0.33578(13)
O14 O 0.8179(3) 0.2017(3) 0.38715(11)
O15 O 0.6156(2) 0.2879(3) 0.36131(11)
O16 O 0.6663(3) 0.5750(3) 0.27720(11)
C63 C -0.0647(4) 0.5071(4) 0.93699(16)
C64 C 0.0442(4) 0.4601(4) 0.95265(16)
C65 C 0.1124(5) 0.5213(5) 0.94684(16)
H79 H 0.1854 0.4907 0.9580
C66 C 0.0749(5) 0.6275(5) 0.92472(18)
H80 H 0.1222 0.6695 0.9207
C67 C -0.0313(5) 0.6723(5) 0.90858(18)
H81 H -0.0566 0.7447 0.8931
C68 C -0.1009(5) 0.6122(5) 0.91494(17)
H82 H -0.1741 0.6437 0.9040
C69 C -0.1468(5) 0.1383(5) 1.09236(19)
C70 C -0.0333(5) 0.0707(5) 1.09116(18)
C71 C 0.0183(6) 0.0140(5) 1.1283(2)
H83 H 0.0952 -0.0320 1.1278
C72 C -0.0437(8) 0.0245(7) 1.1668(2)
H84 H -0.0086 -0.0144 1.1927
C73 C -0.1548(8) 0.0908(7) 1.1675(3)
H85 H -0.1963 0.0972 1.1938
C74 C -0.2061(6) 0.1475(5) 1.1305(2)
H86 H -0.2830 0.1935 1.1312
C75 C -0.2433(4) 0.4944(4) 0.93523(18)
H87 H -0.2507 0.5164 0.9040
H88 H -0.2781 0.5624 0.9499
C76 C -0.2999(4) 0.4141(5) 0.9493(2)
H89 H -0.3794 0.4480 0.9416
H90 H -0.2645 0.3459 0.9348
C77 C -0.3406(5) 0.3065(5) 1.0090(2)
H91 H -0.3152 0.2451 0.9906
H92 H -0.4229 0.3420 1.0076
C78 C -0.3078(5) 0.2617(5) 1.0536(2)
H93 H -0.3200 0.3239 1.0708
H94 H -0.3539 0.2187 1.0664
C79 C 0.1357(4) 0.0032(5) 1.04985(18)
H95 H 0.1509 -0.0753 1.0618
H96 H 0.1764 0.0346 1.0667
C80 C 0.1731(4) 0.0085(4) 1.00410(18)
H97 H 0.2542 -0.0350 1.0023
H98 H 0.1350 -0.0280 0.9884
C81 C 0.2066(4) 0.1842(4) 1.00330(16)
H99 H 0.2875 0.1395 1.0050
H100 H 0.1762 0.1925 1.0329
C82 C 0.1911(4) 0.2968(4) 0.98052(17)
H101 H 0.2181 0.3390 0.9982
H102 H 0.2338 0.2897 0.9530
C83 C 0.1755(4) 0.1227(4) 0.93495(16)
H103 H 0.1489 0.2011 0.9216
H104 H 0.1312 0.0854 0.9233
C84 C 0.2963(4) 0.0667(5) 0.92149(17)
H105 H 0.3427 0.1010 0.9337
H106 H 0.3228 -0.0135 0.9326
C85 C 0.3081(4) 0.0792(5) 0.87329(16)
H107 H 0.2555 0.0517 0.8614
H108 H 0.2869 0.1594 0.8627
C86 C 0.4245(4) 0.0167(6) 0.85709(19)
H109 H 0.4458 -0.0634 0.8677
H110 H 0.4770 0.0445 0.8689
C87 C 0.4356(5) 0.0290(6) 0.80890(19)
H111 H 0.5125 -0.0138 0.8002
H112 H 0.4171 0.1080 0.7982
H113 H 0.3845 0.0008 0.7970
N3 N 0.1517(3) 0.1228(4) 0.98229(14)
H114 H 0.0802(16) 0.155(3) 0.9865(14)
O17 O -0.1279(3) 0.4418(3) 0.94558(11)
O18 O -0.2911(3) 0.3864(3) 0.99426(14)
O19 O -0.1914(3) 0.1903(3) 1.05369(12)
O20 O 0.0175(3) 0.0671(3) 1.05179(11)
O21 O 0.0748(3) 0.3535(3) 0.97312(11)
O22 O 0.5713(3) 0.8729(3) 0.31300(12)
H115 H 0.548(4) 0.869(4) 0.3380(7)
H116 H 0.561(4) 0.935(2) 0.3026(13)
O23 O 0.7565(3) 0.4289(3) 0.35462(12)
H117 H 0.785(4) 0.429(4) 0.3309(8)
H118 H 0.760(4) 0.366(2) 0.3648(13)
O24 O 0.9301(3) 0.2152(3) 0.97522(12)
H119 H 0.903(4) 0.210(4) 0.9992(8)
H120 H 0.923(3) 0.2791(19) 0.9662(13)
O25 O 0.2342(4) 0.4590(4) 0.26248(13)
H121 H 0.245(5) 0.421(4) 0.2867(10)
H122 H 0.229(5) 0.523(2) 0.2656(16)
O26 O 0.0966(3) 0.5993(3) 0.35133(12)
H123 H 0.136(4) 0.628(4) 0.3360(12)
H124 H 0.083(4) 0.625(4) 0.3746(9)
O27 O 0.3047(3) 0.1076(4) 0.10084(14)
H125 H 0.337(4) 0.0413(18) 0.0970(18)
H126 H 0.332(4) 0.147(3) 0.0865(17)
O28 O 0.1121(3) 0.9230(4) 0.45278(13)
H127 H 0.108(4) 0.924(4) 0.4270(6)
H128 H 0.075(4) 0.891(4) 0.4667(12)
O29 O 0.0817(4) 0.8798(3) 0.37100(13)
H129 H 0.113(4) 0.857(4) 0.3480(10)
H130 H 0.070(4) 0.825(3) 0.3854(10)
O30 O 0.2801(4) 0.1982(3) 0.39986(14)
H131 H 0.260(5) 0.176(4) 0.4235(9)
H132 H 0.307(4) 0.150(3) 0.3843(13)
O31 O 0.1728(3) 0.1019(3) 0.46139(13)
H133 H 0.163(4) 0.042(2) 0.4625(17)
H134 H 0.130(4) 0.139(3) 0.4790(14)
O32 O 0.2531(3) 0.3913(3) 0.34971(13)
H135 H 0.249(4) 0.343(3) 0.3693(13)
H136 H 0.202(3) 0.452(2) 0.3540(16)
O33 O 0.5280(4) 0.6674(4) 0.87681(15)
H137 H 0.576(4) 0.658(5) 0.8574(14)
H138 H 0.496(4) 0.623(4) 0.8767(18)
O34 O 0.2867(4) 0.3803(4) 0.17981(14)
H139 H 0.277(5) 0.414(4) 0.2020(13)
H140 H 0.257(5) 0.332(4) 0.1866(18)
O35 O 0.0493(5) 0.0695(4) 0.27666(16)
H141 H 0.083(5) 0.0011(18) 0.2802(19)
H142 H 0.038(6) 0.094(5) 0.3005(12)
O36 O 0.2509(5) 0.1834(5) 0.18121(17)
H143 H 0.194(5) 0.172(7) 0.1925(19)
H144 H 0.261(5) 0.160(6) 0.1572(12)
O37 O 0.5886(3) 0.4777(4) 0.11456(16)
H145 H 0.5552 0.5467 0.1065
H146 H 0.6510 0.4673 0.1225
O38 O 0.0411(4) 0.1952(4) 0.20380(17)
H147 H 0.0423 0.1552 0.2275
H148 H 0.0151 0.1715 0.1848
O39 O 0.4432(7) 0.2292(7) 0.0563(3)
H149 H 0.4516 0.2620 0.0767
H150 H 0.4277 0.2759 0.0339
O41 O 0.4774(8) 0.9295(8) 0.0058(3)
H153 H 0.4545 0.9082 0.0300
H154 H 0.5036 0.8741 -0.0086
O43 O 0.6064(5) 0.6213(5) 0.0176(2)
H157 H 0.5709 0.6331 0.0414
H158 H 0.6303 0.5517 0.0154
O40? O 0.3989(7) 0.2377(8) 0.0614(3)
H151? H 0.4307 0.2614 0.0785
H152? H 0.4480 0.1994 0.0445
O42? O 0.4685(8) 0.8823(8) 0.0014(3)
H155? H 0.4441 0.8790 0.0271
H156? H 0.4868 0.9394 -0.0035
loop_
_geom_bond_atom_site_label_1
_geom_bond_atom_site_label_2
_geom_bond_site_symmetry_1
_geom_bond_site_symmetry_2
C1 C2 1_555 1_555
C2 H1 1_555 1_555
C3 C2 1_555 1_555
H2 C3 1_555 1_555
C4 C3 1_555 1_555
C5 C4 1_555 1_555
H3 C5 1_555 1_555
C6 C1 1_555 1_555
H4 C6 1_555 1_555
C7 C1 1_555 1_555
C8 C4 1_555 1_555
O1 C7 1_555 1_555
O2 C7 1_555 1_555
O3 C8 1_555 1_555
O4 C8 1_555 1_555
C9 C10 1_555 1_555
C10 H5 1_555 1_555
C11 C9 1_555 1_555
H6 C11 1_555 1_555
C12 C9 1_555 1_555
O5 C12 1_555 1_555
O6 C12 1_555 1_555
C13 C14 1_555 1_555
C14 C15 1_555 1_555
C15 H7 1_555 1_555
C16 C15 1_555 1_555
H8 C16 1_555 1_555
C17 C16 1_555 1_555
H9 C17 1_555 1_555
C18 C13 1_555 1_555
H10 C18 1_555 1_555
C19 C20 1_555 1_555
C20 C21 1_555 1_555
C21 H11 1_555 1_555
C22 C21 1_555 1_555
H12 C22 1_555 1_555
C23 C22 1_555 1_555
H13 C23 1_555 1_555
C24 C19 1_555 1_555
H14 C24 1_555 1_555
C25 H15 1_555 1_555
H16 C25 1_555 1_555
C26 C25 1_555 1_555
H17 C26 1_555 1_555
H18 C26 1_555 1_555
C27 H19 1_555 1_555
H20 C27 1_555 1_555
C28 C27 1_555 1_555
H21 C28 1_555 1_555
H22 C28 1_555 1_555
C29 H23 1_555 1_555
H24 C29 1_555 1_555
C30 C29 1_555 1_555
H25 C30 1_555 1_555
H26 C30 1_555 1_555
C31 H27 1_555 1_555
H28 C31 1_555 1_555
C32 C31 1_555 1_555
H29 C32 1_555 1_555
H30 C32 1_555 1_555
C33 H31 1_555 1_555
H32 C33 1_555 1_555
C34 C33 1_555 1_555
H33 C34 1_555 1_555
H34 C34 1_555 1_555
C35 C34 1_555 1_555
H35 C35 1_555 1_555
H36 C35 1_555 1_555
C36 C35 1_555 1_555
H37 C36 1_555 1_555
H38 C36 1_555 1_555
C37 C36 1_555 1_555
H39 C37 1_555 1_555
H40 C37 1_555 1_555
H41 C37 1_555 1_555
N1 C30 1_555 1_555
H42 N1 1_555 1_555
O7 C13 1_555 1_555
O8 C26 1_555 1_555
O9 C19 1_555 1_555
O10 C20 1_555 1_555
O11 C14 1_555 1_555
C38 C39 1_555 1_555
C39 C40 1_555 1_555
C40 H43 1_555 1_555
C41 C40 1_555 1_555
H44 C41 1_555 1_555
C42 C41 1_555 1_555
H45 C42 1_555 1_555
C43 C38 1_555 1_555
H46 C43 1_555 1_555
C44 C45 1_555 1_555
C45 C46 1_555 1_555
C46 H47 1_555 1_555
C47 C46 1_555 1_555
H48 C47 1_555 1_555
C48 C47 1_555 1_555
H49 C48 1_555 1_555
C49 C44 1_555 1_555
H50 C49 1_555 1_555
C50 H51 1_555 1_555
H52 C50 1_555 1_555
C51 C50 1_555 1_555
H53 C51 1_555 1_555
H54 C51 1_555 1_555
C52 H55 1_555 1_555
H56 C52 1_555 1_555
C53 C52 1_555 1_555
H57 C53 1_555 1_555
H58 C53 1_555 1_555
C54 H59 1_555 1_555
H60 C54 1_555 1_555
C55 C54 1_555 1_555
H61 C55 1_555 1_555
H62 C55 1_555 1_555
C56 H63 1_555 1_555
H64 C56 1_555 1_555
C57 C56 1_555 1_555
H65 C57 1_555 1_555
H66 C57 1_555 1_555
C58 H67 1_555 1_555
H68 C58 1_555 1_555
C59 C58 1_555 1_555
H69 C59 1_555 1_555
H70 C59 1_555 1_555
C60 C59 1_555 1_555
H71 C60 1_555 1_555
H72 C60 1_555 1_555
C61 C60 1_555 1_555
H73 C61 1_555 1_555
H74 C61 1_555 1_555
C62 C61 1_555 1_555
H75 C62 1_555 1_555
H76 C62 1_555 1_555
H77 C62 1_555 1_555
N2 C55 1_555 1_555
H78 N2 1_555 1_555
O12 C38 1_555 1_555
O13 C51 1_555 1_555
O14 C44 1_555 1_555
O15 C45 1_555 1_555
O16 C39 1_555 1_555
C63 C64 1_555 1_555
C64 C65 1_555 1_555
C65 H79 1_555 1_555
C66 C65 1_555 1_555
H80 C66 1_555 1_555
C67 C66 1_555 1_555
H81 C67 1_555 1_555
C68 C63 1_555 1_555
H82 C68 1_555 1_555
C69 C70 1_555 1_555
C70 C71 1_555 1_555
C71 H83 1_555 1_555
C72 C71 1_555 1_555
H84 C72 1_555 1_555
C73 C72 1_555 1_555
H85 C73 1_555 1_555
C74 C69 1_555 1_555
H86 C74 1_555 1_555
C75 H87 1_555 1_555
H88 C75 1_555 1_555
C76 C75 1_555 1_555
H89 C76 1_555 1_555
H90 C76 1_555 1_555
C77 H91 1_555 1_555
H92 C77 1_555 1_555
C78 C77 1_555 1_555
H93 C78 1_555 1_555
H94 C78 1_555 1_555
C79 H95 1_555 1_555
H96 C79 1_555 1_555
C80 C79 1_555 1_555
H97 C80 1_555 1_555
H98 C80 1_555 1_555
C81 H99 1_555 1_555
H100 C81 1_555 1_555
C82 C81 1_555 1_555
H101 C82 1_555 1_555
H102 C82 1_555 1_555
C83 H103 1_555 1_555
H104 C83 1_555 1_555
C84 C83 1_555 1_555
H105 C84 1_555 1_555
H106 C84 1_555 1_555
C85 C84 1_555 1_555
H107 C85 1_555 1_555
H108 C85 1_555 1_555
C86 C85 1_555 1_555
H109 C86 1_555 1_555
H110 C86 1_555 1_555
C87 C86 1_555 1_555
H111 C87 1_555 1_555
H112 C87 1_555 1_555
H113 C87 1_555 1_555
N3 C80 1_555 1_555
H114 N3 1_555 1_555
O17 C63 1_555 1_555
O18 C76 1_555 1_555
O19 C69 1_555 1_555
O20 C70 1_555 1_555
O21 C64 1_555 1_555
O22 H115 1_555 1_555
H116 O22 1_555 1_555
O23 H117 1_555 1_555
H118 O23 1_555 1_555
O24 H119 1_555 1_555
H120 O24 1_555 1_555
O25 H121 1_555 1_555
H122 O25 1_555 1_555
O26 H123 1_555 1_555
H124 O26 1_555 1_555
O27 H125 1_555 1_555
H126 O27 1_555 1_555
O28 H127 1_555 1_555
H128 O28 1_555 1_555
O29 H129 1_555 1_555
H130 O29 1_555 1_555
O30 H131 1_555 1_555
H132 O30 1_555 1_555
O31 H133 1_555 1_555
H134 O31 1_555 1_555
O32 H135 1_555 1_555
H136 O32 1_555 1_555
O33 H137 1_555 1_555
H138 O33 1_555 1_555
O34 H139 1_555 1_555
H140 O34 1_555 1_555
O35 H141 1_555 1_555
H142 O35 1_555 1_555
O36 H143 1_555 1_555
H144 O36 1_555 1_555
O37 H145 1_555 1_555
H146 O37 1_555 1_555
O38 H147 1_555 1_555
H148 O38 1_555 1_555
O39 H149 1_555 1_555
H150 O39 1_555 1_555
O41 H153 1_555 1_555
H154 O41 1_555 1_555
O43 H157 1_555 1_555
H158 O43 1_555 1_555
C9A C10A 1_555 1_555
C10A C11 1_555 1_555
H5A C10A 1_555 1_555
C11A C10 1_555 1_555
H6A C11A 1_555 1_555
C12A C9A 1_555 1_555
O5A C12A 1_555 1_555
O6A C12A 1_555 1_555
C5 C6 1_555 1_555
C17 C18 1_555 1_555
C23 C24 1_555 1_555
C25 O7 1_555 1_555
C27 O8 1_555 1_555
C28 O9 1_555 1_555
C29 O10 1_555 1_555
C31 N1 1_555 1_555
C32 O11 1_555 1_555
C33 N1 1_555 1_555
C42 C43 1_555 1_555
C48 C49 1_555 1_555
C50 O12 1_555 1_555
C52 O13 1_555 1_555
C53 O14 1_555 1_555
C54 O15 1_555 1_555
C56 N2 1_555 1_555
C57 O16 1_555 1_555
C58 N2 1_555 1_555
C67 C68 1_555 1_555
C73 C74 1_555 1_555
C75 O17 1_555 1_555
C77 O18 1_555 1_555
C78 O19 1_555 1_555
C79 O20 1_555 1_555
C81 N3 1_555 1_555
C82 O21 1_555 1_555
C83 N3 1_555 1_555
C9A C11A 1_555 1_555

#END
