
#######################################################################
#
#                 Cambridge Crystallographic Data Centre
#                                CCDC 
#
#######################################################################
#
# If this CIF has been generated from an entry in the Cambridge 
# Structural Database, then it will include bibliographic, chemical, 
# crystal, experimental, refinement or atomic coordinate data resulting 
# from the CCDC's data processing and validation procedures.
#
#######################################################################

data_JULFON
_chemical_formula_moiety         'C20 H24 O3'
_chemical_name_systematic        
2a-Hydroxy-2-isobutyryl-4-isopropyl-8-methyl-2,2a-dihydroacenaphthylen-3(1H)-one
_symmetry_cell_setting           monoclinic
_symmetry_space_group_name_H-M   'P 21/c'
_symmetry_Int_Tables_number      14
_space_group_name_Hall           '-P 2ybc'
loop_
_symmetry_equiv_pos_site_id
_symmetry_equiv_pos_as_xyz
1 x,y,z
2 -x,1/2+y,1/2-z
3 -x,-y,-z
4 x,1/2-y,1/2+z
_cell_length_a                   5.9307(2)
_cell_length_b                   17.5343(5)
_cell_length_c                   16.2363(4)
_cell_angle_alpha                90
_cell_angle_beta                 97.5600(10)
_cell_angle_gamma                90
_cell_volume                     1673.75
_exptl_crystal_colour            yellow
_exptl_crystal_description       block
_cell_formula_units_Z            4
loop_
_atom_site_label
_atom_site_type_symbol
_atom_site_fract_x
_atom_site_fract_y
_atom_site_fract_z
O1 O 0.2010(2) 0.52573(6) 0.42508(7)
O2 O -0.0506(2) 0.77510(6) 0.45361(7)
O3 O -0.19886(19) 0.61525(6) 0.49842(7)
H1 H -0.1910 0.5714 0.5195
C1 C -0.2491(3) 0.91501(10) 0.53049(12)
H2 H -0.1840 0.9275 0.5875
H3 H -0.3397 0.9581 0.5063
H4 H -0.1261 0.9045 0.4973
C2 C -0.4015(3) 0.84436(10) 0.53116(11)
H5 H -0.4631 0.8323 0.4723
C3 C -0.2653(3) 0.77572(9) 0.56695(10)
C4 C -0.1023(3) 0.74195(9) 0.51397(9)
C5 C -0.0148(3) 0.66119(8) 0.53791(9)
C6 C 0.2214(3) 0.63451(9) 0.51493(9)
H6 H 0.3212 0.6802 0.5127
C7 C 0.1966(3) 0.59475(9) 0.43050(10)
C8 C 0.1665(3) 0.64393(9) 0.35351(10)
H7 H 0.0643 0.6874 0.3634
C9 C 0.3971(3) 0.67693(11) 0.33866(12)
H8 H 0.4639 0.7050 0.3881
H9 H 0.3757 0.7116 0.2909
H10 H 0.4991 0.6353 0.3274
C10 C 0.4493(3) 0.54557(10) 0.77938(11)
H11 H 0.4211 0.4926 0.7617
H12 H 0.4696 0.5482 0.8402
H13 H 0.5871 0.5642 0.7586
C11 C 0.2505(3) 0.59413(9) 0.74506(10)
C12 C 0.1080(3) 0.62785(9) 0.79688(10)
H14 H 0.1345 0.6178 0.8548
C13 C -0.0716(3) 0.67577(9) 0.76647(10)
H15 H -0.1631 0.6983 0.8037
C14 C -0.1170(3) 0.69051(9) 0.68187(10)
C15 C 0.0184(3) 0.65316(8) 0.63054(10)
C16 C 0.3229(3) 0.58321(9) 0.58840(10)
H16 H 0.2939 0.5287 0.5753
H17 H 0.4889 0.5913 0.6015
C17 C 0.2010(3) 0.60807(9) 0.65975(10)
C18 C 0.0564(3) 0.60017(11) 0.27777(11)
H18 H 0.1538 0.5572 0.2669
H19 H 0.0369 0.6342 0.2294
H20 H -0.0925 0.5810 0.2882
C19 C -0.2718(3) 0.74907(9) 0.64408(10)
H21 H -0.3822 0.7693 0.6755
C20 C -0.6031(3) 0.86212(10) 0.57791(13)
H22 H -0.6925 0.8157 0.5824
H23 H -0.6991 0.9011 0.5476
H24 H -0.5468 0.8809 0.6337
loop_
_geom_bond_atom_site_label_1
_geom_bond_atom_site_label_2
_geom_bond_site_symmetry_1
_geom_bond_site_symmetry_2
O1 C7 1_555 1_555
O2 C4 1_555 1_555
O3 H1 1_555 1_555
C1 H2 1_555 1_555
H3 C1 1_555 1_555
H4 C1 1_555 1_555
C2 C1 1_555 1_555
H5 C2 1_555 1_555
C3 C2 1_555 1_555
C4 C3 1_555 1_555
C5 O3 1_555 1_555
C6 C5 1_555 1_555
H6 C6 1_555 1_555
C7 C6 1_555 1_555
C8 C7 1_555 1_555
H7 C8 1_555 1_555
C9 C8 1_555 1_555
H8 C9 1_555 1_555
H9 C9 1_555 1_555
H10 C9 1_555 1_555
C10 H11 1_555 1_555
H12 C10 1_555 1_555
H13 C10 1_555 1_555
C11 C10 1_555 1_555
C12 C11 1_555 1_555
H14 C12 1_555 1_555
C13 C12 1_555 1_555
H15 C13 1_555 1_555
C14 C13 1_555 1_555
C15 C5 1_555 1_555
C16 C6 1_555 1_555
H16 C16 1_555 1_555
H17 C16 1_555 1_555
C17 C11 1_555 1_555
C18 C8 1_555 1_555
H18 C18 1_555 1_555
H19 C18 1_555 1_555
H20 C18 1_555 1_555
C19 C3 1_555 1_555
H21 C19 1_555 1_555
C20 C2 1_555 1_555
H22 C20 1_555 1_555
H23 C20 1_555 1_555
H24 C20 1_555 1_555
C4 C5 1_555 1_555
C14 C15 1_555 1_555
C14 C19 1_555 1_555
C15 C17 1_555 1_555
C16 C17 1_555 1_555

#END
