
#######################################################################
#
#                 Cambridge Crystallographic Data Centre
#                                CCDC 
#
#######################################################################
#
# If this CIF has been generated from an entry in the Cambridge 
# Structural Database, then it will include bibliographic, chemical, 
# crystal, experimental, refinement or atomic coordinate data resulting 
# from the CCDC's data processing and validation procedures.
#
#######################################################################

data_JULJEF
_chemical_formula_moiety         'C14 H12 O1'
_chemical_name_systematic        2-Phenylacetophenone
_symmetry_cell_setting           orthorhombic
_symmetry_space_group_name_H-M   'P c a 21'
_symmetry_Int_Tables_number      29
_space_group_name_Hall           'P 2c -2ac'
loop_
_symmetry_equiv_pos_site_id
_symmetry_equiv_pos_as_xyz
1 x,y,z
2 1/2-x,y,1/2+z
3 1/2+x,-y,z
4 -x,-y,1/2+z
_cell_length_a                   8.028(4)
_cell_length_b                   5.456(3)
_cell_length_c                   24.035(9)
_cell_angle_alpha                90
_cell_angle_beta                 90
_cell_angle_gamma                90
_cell_volume                     1052.75
_exptl_crystal_colour            Colorless
_cell_formula_units_Z            4
loop_
_atom_site_label
_atom_site_type_symbol
_atom_site_fract_x
_atom_site_fract_y
_atom_site_fract_z
O1 O 0.30725(31) 0.9691(5) 0.4999(4)
C1 C 0.38168(27) 0.9455(4) 0.6132(4)
C2 C 0.41658(30) 0.9204(4) 0.6689(4)
C3 C 0.50863(29) 0.7236(4) 0.6878(4)
C4 C 0.56735(31) 0.5518(4) 0.6501(4)
C5 C 0.53353(28) 0.5756(4) 0.5944(4)
C6 C 0.43983(26) 0.7725(4) 0.5749(4)
C7 C 0.40283(32) 0.8081(5) 0.5148(4)
C8 C 0.48586(29) 0.6440(4) 0.4730(4)
C9 C 0.44540(25) 0.6933(4) 0.4134(4)
C10 C 0.50690(28) 0.8997(4) 0.3862(4)
C11 C 0.47195(29) 0.9402(4) 0.3309(4)
C12 C 0.37303(30) 0.7784(5) 0.3015(4)
C13 C 0.30981(27) 0.5739(4) 0.3281(4)
C14 C 0.34644(27) 0.5317(4) 0.3833(4)
H1 H 0.3182 1.0829 0.6000
H2 H 0.3752 1.0391 0.6950
H3 H 0.5326 0.7053 0.7267
H4 H 0.6313 0.4151 0.6632
H5 H 0.5759 0.4567 0.5686
H6 H 0.6042 0.6600 0.4778
H7 H 0.4572 0.4772 0.4815
H8 H 0.5750 1.0147 0.4061
H9 H 0.5151 1.0829 0.3126
H10 H 0.3484 0.8085 0.2630
H11 H 0.2416 0.4608 0.3077
H12 H 0.3021 0.3885 0.4012
loop_
_geom_bond_atom_site_label_1
_geom_bond_atom_site_label_2
_geom_bond_site_symmetry_1
_geom_bond_site_symmetry_2
O1 C7 1_555 1_555
C1 C2 1_555 1_555
C2 C3 1_555 1_555
C3 C4 1_555 1_555
C4 C5 1_555 1_555
C5 C6 1_555 1_555
C6 C1 1_555 1_555
C7 C6 1_555 1_555
C8 C7 1_555 1_555
C9 C8 1_555 1_555
C10 C9 1_555 1_555
C11 C10 1_555 1_555
C12 C11 1_555 1_555
C13 C12 1_555 1_555
C14 C9 1_555 1_555
H1 C1 1_555 1_555
H2 C2 1_555 1_555
H3 C3 1_555 1_555
H4 C4 1_555 1_555
H5 C5 1_555 1_555
H6 C8 1_555 1_555
H7 C8 1_555 1_555
H8 C10 1_555 1_555
H9 C11 1_555 1_555
H10 C12 1_555 1_555
H11 C13 1_555 1_555
H12 C14 1_555 1_555
C13 C14 1_555 1_555

#END
