
#######################################################################
#
#                 Cambridge Crystallographic Data Centre
#                                CCDC 
#
#######################################################################
#
# If this CIF has been generated from an entry in the Cambridge 
# Structural Database, then it will include bibliographic, chemical, 
# crystal, experimental, refinement or atomic coordinate data resulting 
# from the CCDC's data processing and validation procedures.
#
#######################################################################

data_JULLEJ
_chemical_formula_moiety         'C28 H42 N2 O4,C8 H6 O4'
_chemical_name_systematic        
'8,19-Dibutyl-7,8,9,10,18,19,20,21-octahydro-6H,17H-dibenzo[b,k][1,4,10,13,7,16]tetraoxadiazacyclooctadecine terephthalic acid clathrate'
_symmetry_cell_setting           monoclinic
_symmetry_space_group_name_H-M   'C 2/c'
_symmetry_Int_Tables_number      15
_space_group_name_Hall           '-C 2yn'
loop_
_symmetry_equiv_pos_site_id
_symmetry_equiv_pos_as_xyz
1 x,y,z
2 -x,y,1/2-z
3 1/2+x,1/2+y,z
4 1/2-x,1/2+y,1/2-z
5 -x,-y,-z
6 x,-y,1/2+z
7 1/2-x,1/2-y,-z
8 1/2+x,1/2-y,1/2+z
_cell_length_a                   31.850(3)
_cell_length_b                   5.7811(5)
_cell_length_c                   20.098(2)
_cell_angle_alpha                90
_cell_angle_beta                 112.557(3)
_cell_angle_gamma                90
_cell_volume                     3417.5
_exptl_crystal_colour            colorless
_exptl_crystal_description       plate
_cell_formula_units_Z            4
loop_
_atom_site_label
_atom_site_type_symbol
_atom_site_fract_x
_atom_site_fract_y
_atom_site_fract_z
C1 C 0.46437(8) 0.0460(4) 0.52234(13)
C2 C 0.47474(9) 0.2016(4) 0.47865(15)
H1 H 0.4574 0.3394 0.4634
C3 C 0.48944(9) -0.1566(4) 0.54312(16)
H2 H 0.4821 -0.2654 0.5724
C4 C 0.42755(8) 0.0900(4) 0.54942(14)
O1 O 0.40572(6) 0.2861(3) 0.52747(10)
H3 H 0.3843(12) 0.304(8) 0.544(2)
O2 O 0.41913(6) -0.0464(3) 0.58905(10)
C1D C 0.53563(8) -0.0460(4) 0.47766(13)
C2D C 0.52526(9) -0.2016(4) 0.52135(15)
H1D H 0.5426 -0.3394 0.5366
C3D C 0.51056(9) 0.1566(4) 0.45688(16)
H2D H 0.5179 0.2654 0.4276
C4D C 0.57245(8) -0.0900(4) 0.45058(14)
O1D O 0.59428(6) -0.2861(3) 0.47253(10)
H3D H 0.6157(12) -0.304(8) 0.456(2)
O2D O 0.58087(6) 0.0464(3) 0.41095(10)
C5 C 0.30353(8) 0.9588(4) 0.39035(12)
C6 C 0.27216(7) 1.1395(4) 0.36214(12)
C7 C 0.27704(8) 1.2897(4) 0.31234(13)
H4 H 0.2552 1.4083 0.2919
C8 C 0.31403(9) 1.2669(4) 0.29218(14)
H5 H 0.3175 1.3710 0.2581
C9 C 0.34561(9) 1.0946(4) 0.32128(14)
H6 H 0.3711 1.0822 0.3079
C10 C 0.34036(8) 0.9383(4) 0.37030(13)
H7 H 0.3620 0.8182 0.3899
C11 C 0.32903(7) 0.6513(4) 0.47757(12)
H8 H 0.3578 0.7308 0.5064
H9 H 0.3349 0.5399 0.4447
C12 C 0.30934(7) 0.5297(4) 0.52596(12)
H10 H 0.2986 0.6469 0.5517
H11 H 0.2828 0.4360 0.4960
C13 C 0.32274(8) 0.1604(4) 0.59134(13)
H12 H 0.3475 0.0468 0.6130
H13 H 0.3027 0.0989 0.5437
C14 C 0.29520(8) 0.1718(4) 0.63861(13)
H14 H 0.2804 0.0209 0.6382
H15 H 0.3153 0.2083 0.6889
C15 C 0.36947(8) 0.5051(4) 0.64646(12)
H16 H 0.3482 0.5614 0.6682
H17 H 0.3837 0.6421 0.6340
C16 C 0.40634(8) 0.3622(4) 0.70200(14)
H18 H 0.3919 0.2327 0.7175
H19 H 0.4260 0.2947 0.6791
C17 C 0.43542(12) 0.4962(6) 0.76719(18)
H20 H 0.4157 0.5780 0.7876
H21 H 0.4530 0.6139 0.7530
C18 C 0.46810(14) 0.3381(7) 0.8244(2)
H22 H 0.4508 0.2327 0.8424
H23 H 0.4886 0.4317 0.8643
H24 H 0.4860 0.2481 0.8033
N1 N 0.34319(6) 0.3773(3) 0.57936(10)
O3 O 0.29456(5) 0.8154(3) 0.43782(8)
O4 O 0.26154(5) 0.3483(3) 0.61066(9)
C5F C 0.19647(8) 0.5412(4) 0.60965(12)
C6F C 0.22784(7) 0.3605(4) 0.63786(12)
C7F C 0.22296(8) 0.2103(4) 0.68766(13)
H4F H 0.2448 0.0917 0.7081
C8F C 0.18597(9) 0.2331(4) 0.70782(14)
H5F H 0.1825 0.1290 0.7419
C9F C 0.15439(9) 0.4054(4) 0.67872(14)
H6F H 0.1289 0.4178 0.6921
C10F C 0.15964(8) 0.5617(4) 0.62970(13)
H7F H 0.1380 0.6818 0.6101
C11F C 0.17097(7) 0.8487(4) 0.52243(12)
H8F H 0.1422 0.7692 0.4936
H9F H 0.1651 0.9601 0.5553
C12F C 0.19066(7) 0.9703(4) 0.47404(12)
H10F H 0.2014 0.8531 0.4483
H11F H 0.2172 1.0640 0.5040
C13F C 0.17726(8) 1.3396(4) 0.40866(13)
H12F H 0.1525 1.4532 0.3870
H13F H 0.1973 1.4011 0.4563
C14F C 0.20480(8) 1.3282(4) 0.36139(13)
H14F H 0.2196 1.4791 0.3618
H15F H 0.1847 1.2917 0.3111
C15F C 0.13053(8) 0.9949(4) 0.35354(12)
H16F H 0.1518 0.9386 0.3318
H17F H 0.1163 0.8579 0.3660
C16F C 0.09366(8) 1.1378(4) 0.29800(14)
H18F H 0.1081 1.2673 0.2825
H19F H 0.0740 1.2053 0.3209
C17F C 0.06458(12) 1.0038(6) 0.23281(18)
H20F H 0.0843 0.9220 0.2124
H21F H 0.0470 0.8861 0.2470
C18F C 0.03190(14) 1.1619(7) 0.1756(2)
H22F H 0.0492 1.2673 0.1576
H23F H 0.0114 1.0683 0.1357
H24F H 0.0140 1.2519 0.1967
N1F N 0.15681(6) 1.1227(3) 0.42064(10)
O3F O 0.20544(5) 0.6846(3) 0.56218(8)
O4F O 0.23846(5) 1.1517(3) 0.38934(9)
H25? H 0.3631(16) 0.327(10) 0.564(3)
loop_
_geom_bond_atom_site_label_1
_geom_bond_atom_site_label_2
_geom_bond_site_symmetry_1
_geom_bond_site_symmetry_2
C1 C2 1_555 1_555
C2 H1 1_555 1_555
C3 C1 1_555 1_555
H2 C3 1_555 1_555
C4 C1 1_555 1_555
O1 C4 1_555 1_555
H3 O1 1_555 1_555
O2 C4 1_555 1_555
C5 C6 1_555 1_555
C6 C7 1_555 1_555
C7 H4 1_555 1_555
C8 C7 1_555 1_555
H5 C8 1_555 1_555
C9 C8 1_555 1_555
H6 C9 1_555 1_555
C10 C5 1_555 1_555
H7 C10 1_555 1_555
C11 H8 1_555 1_555
H9 C11 1_555 1_555
C12 C11 1_555 1_555
H10 C12 1_555 1_555
H11 C12 1_555 1_555
C13 H12 1_555 1_555
H13 C13 1_555 1_555
C14 C13 1_555 1_555
H14 C14 1_555 1_555
H15 C14 1_555 1_555
C15 H16 1_555 1_555
H17 C15 1_555 1_555
C16 C15 1_555 1_555
H18 C16 1_555 1_555
H19 C16 1_555 1_555
C17 C16 1_555 1_555
H20 C17 1_555 1_555
H21 C17 1_555 1_555
C18 C17 1_555 1_555
H22 C18 1_555 1_555
H23 C18 1_555 1_555
H24 C18 1_555 1_555
N1 C12 1_555 1_555
O3 C5 1_555 1_555
O4 C14 1_555 1_555
C1D C2D 1_555 1_555
C2D C3 1_555 1_555
H1D C2D 1_555 1_555
C3D C2 1_555 1_555
H2D C3D 1_555 1_555
C4D C1D 1_555 1_555
O1D C4D 1_555 1_555
H3D O1D 1_555 1_555
O2D C4D 1_555 1_555
C5F C6F 1_555 1_555
C6F O4 1_555 1_555
C7F C6F 1_555 1_555
H4F C7F 1_555 1_555
C8F C7F 1_555 1_555
H5F C8F 1_555 1_555
C9F C8F 1_555 1_555
H6F C9F 1_555 1_555
C10F C5F 1_555 1_555
H7F C10F 1_555 1_555
C11F H8F 1_555 1_555
H9F C11F 1_555 1_555
C12F C11F 1_555 1_555
H10F C12F 1_555 1_555
H11F C12F 1_555 1_555
C13F H12F 1_555 1_555
H13F C13F 1_555 1_555
C14F C13F 1_555 1_555
H14F C14F 1_555 1_555
H15F C14F 1_555 1_555
C15F H16F 1_555 1_555
H17F C15F 1_555 1_555
C16F C15F 1_555 1_555
H18F C16F 1_555 1_555
H19F C16F 1_555 1_555
C17F C16F 1_555 1_555
H20F C17F 1_555 1_555
H21F C17F 1_555 1_555
C18F C17F 1_555 1_555
H22F C18F 1_555 1_555
H23F C18F 1_555 1_555
H24F C18F 1_555 1_555
N1F C12F 1_555 1_555
O3F C5F 1_555 1_555
O4F C6 1_555 1_555
C9 C10 1_555 1_555
C11 O3 1_555 1_555
C13 N1 1_555 1_555
C15 N1 1_555 1_555
C1D C3D 1_555 1_555
C9F C10F 1_555 1_555
C11F O3F 1_555 1_555
C13F N1F 1_555 1_555
C14F O4F 1_555 1_555
C15F N1F 1_555 1_555

#END
