
#######################################################################
#
#                 Cambridge Crystallographic Data Centre
#                                CCDC 
#
#######################################################################
#
# If this CIF has been generated from an entry in the Cambridge 
# Structural Database, then it will include bibliographic, chemical, 
# crystal, experimental, refinement or atomic coordinate data resulting 
# from the CCDC's data processing and validation procedures.
#
#######################################################################

data_JULLIN
_chemical_formula_moiety         'C26 H38 N2 O6,C8 H6 O4,0.19(H2 O1)'
_chemical_name_systematic        
'8,19-bis(2-Methoxyethyl)-7,8,9,10,18,19,20,21-octahydro-6H,17H-dibenzo[b,k][1,4,10,13,7,16]tetraoxadiazacyclooctadecine terephthalic acid clathrate hydrate'
_symmetry_cell_setting           monoclinic
_symmetry_space_group_name_H-M   'C 2/c'
_symmetry_Int_Tables_number      15
_space_group_name_Hall           '-C 2yn'
loop_
_symmetry_equiv_pos_site_id
_symmetry_equiv_pos_as_xyz
1 x,y,z
2 -x,y,1/2-z
3 1/2+x,1/2+y,z
4 1/2-x,1/2+y,1/2-z
5 -x,-y,-z
6 x,-y,1/2+z
7 1/2-x,1/2-y,-z
8 1/2+x,1/2-y,1/2+z
_cell_length_a                   31.427(4)
_cell_length_b                   5.8115(8)
_cell_length_c                   19.863(2)
_cell_angle_alpha                90
_cell_angle_beta                 114.729(4)
_cell_angle_gamma                90
_cell_volume                     3295.06
_exptl_crystal_colour            colorless
_exptl_crystal_description       block
_cell_formula_units_Z            4
loop_
_atom_site_label
_atom_site_type_symbol
_atom_site_fract_x
_atom_site_fract_y
_atom_site_fract_z
O1 O 0.0000 0.326(4) 0.7500
H1 H 0.0207 0.4000 0.7866
H1A H -0.0207 0.4000 0.7134
C1 C 0.03311(8) 0.5555(5) 0.97339(14)
C2 C 0.01008(9) 0.3448(5) 0.95570(15)
H2 H 0.0171 0.2382 0.9256
C3 C 0.02336(9) 0.7098(5) 1.01777(14)
H3 H 0.0394 0.8530 1.0303
C4 C 0.06749(9) 0.6139(5) 0.94099(15)
O2 O 0.08963(6) 0.8072(4) 0.96376(11)
H4 H 0.1091(14) 0.815(9) 0.943(2)
O3 O 0.07237(6) 0.4854(4) 0.89593(11)
C1D C -0.03311(8) 0.4445(5) 1.02661(14)
C2D C -0.01008(9) 0.6552(5) 1.04430(15)
H2D H -0.0171 0.7618 1.0744
C3D C -0.02336(9) 0.2902(5) 0.98223(14)
H3D H -0.0394 0.1470 0.9697
C4D C -0.06749(9) 0.3861(5) 1.05901(15)
O2D O -0.08963(6) 0.1928(4) 1.03624(11)
H4D H -0.1091(14) 0.185(9) 1.057(2)
O3D O -0.07237(6) 0.5146(4) 1.10407(11)
C5 C 0.19736(8) 1.4766(5) 1.10838(13)
C6 C 0.23072(8) 1.6516(5) 1.13869(13)
C7 C 0.22635(9) 1.8091(5) 1.18727(14)
H5 H 0.2495 1.9247 1.2088
C8 C 0.18780(9) 1.7982(5) 1.20474(15)
H6 H 0.1844 1.9079 1.2376
C9 C 0.15473(9) 1.6293(5) 1.17451(15)
H7 H 0.1284 1.6238 1.1864
C10 C 0.15926(9) 1.4654(5) 1.12641(14)
H8 H 0.1365 1.3474 1.1063
C11 C 0.16961(8) 1.1661(5) 1.02091(14)
H9 H 0.1404 1.2479 0.9893
H10 H 0.1630 1.0609 1.0545
C12 C 0.18909(8) 1.0347(5) 0.97401(13)
H11 H 0.2039 1.1438 0.9521
H12 H 0.2134 0.9258 1.0058
C13 C 0.16745(8) 0.6824(5) 0.89614(14)
H13 H 0.1394 0.5866 0.8687
H14 H 0.1859 0.6030 0.9436
C14 C 0.19665(8) 0.6873(5) 0.85183(14)
H15 H 0.2093 0.5320 0.8507
H16 H 0.1771 0.7352 0.8002
N1 N 0.15122(7) 0.9049(4) 0.91357(11)
O4 O 0.20592(5) 1.3259(3) 1.06219(9)
O5 O 0.23432(6) 0.8472(3) 0.88611(9)
C15 C 0.12663(9) 1.0593(5) 0.84905(13)
H17 H 0.1491 1.1020 0.8280
H18 H 0.1182 1.2024 0.8676
C16 C 0.0833(2) 0.9681(16) 0.7874(5)
H19 H 0.0655 0.8739 0.8084
H20 H 0.0631 1.0983 0.7602
O6 O 0.0942(2) 0.8337(15) 0.7382(4)
C17 C 0.0537(2) 0.7524(19) 0.6777(5)
H21 H 0.0629 0.6778 0.6416
H22 H 0.0328 0.8819 0.6541
H23 H 0.0374 0.6411 0.6956
C5F C 0.30264(8) 1.0234(5) 0.89162(13)
C6F C 0.26928(8) 0.8484(5) 0.86131(13)
C7F C 0.27365(9) 0.6909(5) 0.81273(14)
H5F H 0.2505 0.5753 0.7912
C8F C 0.31220(9) 0.7018(5) 0.79526(15)
H6F H 0.3156 0.5921 0.7624
C9F C 0.34527(9) 0.8707(5) 0.82549(15)
H7F H 0.3716 0.8762 0.8136
C10F C 0.34074(9) 1.0346(5) 0.87359(14)
H8F H 0.3635 1.1526 0.8937
C11F C 0.33039(8) 1.3339(5) 0.97909(14)
H9F H 0.3596 1.2521 1.0107
H10F H 0.3370 1.4391 0.9455
C12F C 0.31091(8) 1.4653(5) 1.02599(13)
H11F H 0.2961 1.3562 1.0479
H12F H 0.2866 1.5742 0.9942
C13F C 0.33255(8) 1.8176(5) 1.10386(14)
H13F H 0.3606 1.9134 1.1313
H14F H 0.3141 1.8970 1.0564
C14F C 0.30335(8) 1.8127(5) 1.14817(14)
H15F H 0.2907 1.9680 1.1493
H16F H 0.3229 1.7648 1.1998
N1F N 0.34878(7) 1.5951(4) 1.08643(11)
O4F O 0.29408(5) 1.1741(3) 0.93781(9)
O5F O 0.26568(6) 1.6528(3) 1.11389(9)
C15F C 0.37337(9) 1.4407(5) 1.15095(13)
H17F H 0.3509 1.3980 1.1720
H18F H 0.3818 1.2976 1.1324
C16F C 0.4167(2) 1.5319(16) 1.2126(5)
H19F H 0.4345 1.6261 1.1916
H20F H 0.4369 1.4017 1.2398
O6F O 0.4058(2) 1.6663(15) 1.2618(4)
C17F C 0.4463(2) 1.7476(19) 1.3223(5)
H21F H 0.4371 1.8222 1.3584
H22F H 0.4672 1.6181 1.3459
H23F H 0.4626 1.8589 1.3044
H24? H 0.1316(17) 0.871(11) 0.933(3)
H25? H 0.1464 1.0846 0.8219
H26? H 0.1206 1.2104 0.8665
C18? C 0.0799(7) 0.947(5) 0.7973(15)
H27? H 0.0644 0.8790 0.8270
H28? H 0.0587 1.0648 0.7640
O7? O 0.0892(6) 0.773(3) 0.7547(10)
C19? C 0.0465(8) 0.678(5) 0.7022(16)
H29? H 0.0529 0.5336 0.6829
H30? H 0.0317 0.7873 0.6613
H31? H 0.0254 0.6491 0.7262
loop_
_geom_bond_atom_site_label_1
_geom_bond_atom_site_label_2
_geom_bond_site_symmetry_1
_geom_bond_site_symmetry_2
O1 H1 1_555 1_555
C1 C2 1_555 1_555
C2 H2 1_555 1_555
C3 C1 1_555 1_555
H3 C3 1_555 1_555
C4 C1 1_555 1_555
O2 C4 1_555 1_555
H4 O2 1_555 1_555
O3 C4 1_555 1_555
C5 C6 1_555 1_555
C6 C7 1_555 1_555
C7 H5 1_555 1_555
C8 C7 1_555 1_555
H6 C8 1_555 1_555
C9 C8 1_555 1_555
H7 C9 1_555 1_555
C10 C5 1_555 1_555
H8 C10 1_555 1_555
C11 H9 1_555 1_555
H10 C11 1_555 1_555
C12 C11 1_555 1_555
H11 C12 1_555 1_555
H12 C12 1_555 1_555
C13 H13 1_555 1_555
H14 C13 1_555 1_555
C14 C13 1_555 1_555
H15 C14 1_555 1_555
H16 C14 1_555 1_555
N1 C12 1_555 1_555
O4 C5 1_555 1_555
O5 C14 1_555 1_555
C15 N1 1_555 1_555
H17 C15 1_555 1_555
H18 C15 1_555 1_555
C16 C15 1_555 1_555
H19 C16 1_555 1_555
H20 C16 1_555 1_555
O6 C16 1_555 1_555
C17 O6 1_555 1_555
H21 C17 1_555 1_555
H22 C17 1_555 1_555
H23 C17 1_555 1_555
H1A O1 1_555 1_555
C1D C2D 1_555 1_555
C2D C3 1_555 1_555
H2D C2D 1_555 1_555
C3D C2 1_555 1_555
H3D C3D 1_555 1_555
C4D C1D 1_555 1_555
O2D C4D 1_555 1_555
H4D O2D 1_555 1_555
O3D C4D 1_555 1_555
C5F C6F 1_555 1_555
C6F O5 1_555 1_555
C7F C6F 1_555 1_555
H5F C7F 1_555 1_555
C8F C7F 1_555 1_555
H6F C8F 1_555 1_555
C9F C8F 1_555 1_555
H7F C9F 1_555 1_555
C10F C5F 1_555 1_555
H8F C10F 1_555 1_555
C11F H9F 1_555 1_555
H10F C11F 1_555 1_555
C12F C11F 1_555 1_555
H11F C12F 1_555 1_555
H12F C12F 1_555 1_555
C13F H13F 1_555 1_555
H14F C13F 1_555 1_555
C14F C13F 1_555 1_555
H15F C14F 1_555 1_555
H16F C14F 1_555 1_555
N1F C12F 1_555 1_555
O4F C5F 1_555 1_555
O5F C6 1_555 1_555
C15F N1F 1_555 1_555
H17F C15F 1_555 1_555
H18F C15F 1_555 1_555
C16F C15F 1_555 1_555
H19F C16F 1_555 1_555
H20F C16F 1_555 1_555
O6F C16F 1_555 1_555
C17F O6F 1_555 1_555
H21F C17F 1_555 1_555
H22F C17F 1_555 1_555
H23F C17F 1_555 1_555
C9 C10 1_555 1_555
C11 O4 1_555 1_555
C13 N1 1_555 1_555
C1D C3D 1_555 1_555
C9F C10F 1_555 1_555
C11F O4F 1_555 1_555
C13F N1F 1_555 1_555
C14F O5F 1_555 1_555

#END
