
#######################################################################
#
#                 Cambridge Crystallographic Data Centre
#                                CCDC 
#
#######################################################################
#
# If this CIF has been generated from an entry in the Cambridge 
# Structural Database, then it will include bibliographic, chemical, 
# crystal, experimental, refinement or atomic coordinate data resulting 
# from the CCDC's data processing and validation procedures.
#
#######################################################################

data_JULRIR01
_chemical_formula_moiety         'C8 H12 N2 O5'
_chemical_name_systematic        
dimethyl-trans-2-oxohexahydro-pyrimidine-4,6-dicarboxylate
_chemical_properties_biological  'potential DHO synthetase inhibitor'
_symmetry_cell_setting           triclinic
_symmetry_space_group_name_H-M   'P -1'
_symmetry_Int_Tables_number      2
_space_group_name_Hall           '-P 1'
loop_
_symmetry_equiv_pos_site_id
_symmetry_equiv_pos_as_xyz
1 x,y,z
2 -x,-y,-z
_cell_length_a                   7.4377(2)
_cell_length_b                   8.3035(2)
_cell_length_c                   9.2515(3)
_cell_angle_alpha                73.265(2)
_cell_angle_beta                 67.994(2)
_cell_angle_gamma                71.219(2)
_cell_volume                     492.336
_exptl_crystal_colour            colorless
_exptl_crystal_description       prism
_cell_formula_units_Z            2
loop_
_atom_site_label
_atom_site_type_symbol
_atom_site_fract_x
_atom_site_fract_y
_atom_site_fract_z
O1 O 0.76122(5) -0.00452(5) 0.47021(4)
O2 O 0.10975(6) 0.50922(5) 0.80622(5)
O3 O 0.13675(6) 0.39918(6) 0.60018(5)
O4 O 0.71825(9) 0.25920(5) 0.98366(5)
O5 O 0.74004(9) 0.00761(5) 0.92448(5)
N1 N 0.48968(5) 0.17749(5) 0.60668(5)
H1 H 0.4042(13) 0.1383(16) 0.5652(14)
N2 N 0.80989(5) 0.16064(5) 0.60388(5)
H2 H 0.9586(4) 0.1000(15) 0.5722(14)
C1 C 0.68961(5) 0.10501(5) 0.55876(5)
C2 C 0.39347(5) 0.28372(5) 0.72833(5)
H3 H 0.3510(19) 0.2084(14) 0.8496(6)
C3 C 0.53259(6) 0.38929(5) 0.72106(5)
H4 H 0.4673(17) 0.4550(13) 0.8222(8)
H5 H 0.5499(19) 0.4903(11) 0.6143(8)
C4 C 0.73848(6) 0.26986(5) 0.72047(5)
H6 H 0.8470(12) 0.3487(11) 0.6855(13)
C5 C 0.19953(5) 0.40250(5) 0.70224(5)
C6 C -0.07956(7) 0.62769(7) 0.79468(7)
H7 H -0.097(2) 0.7259(14) 0.8554(16)
H8 H -0.1934(14) 0.5591(15) 0.8604(15)
H9 H -0.075(3) 0.674(2) 0.6736(6)
C7 C 0.73246(6) 0.16092(5) 0.88619(5)
C8 C 0.71001(10) 0.17031(7) 1.14536(7)
H10 H 0.5678(10) 0.1416(19) 1.2084(16)
H11 H 0.7244(19) 0.2607(13) 1.1997(13)
H12 H 0.8281(15) 0.0560(11) 1.1459(17)
loop_
_geom_bond_atom_site_label_1
_geom_bond_atom_site_label_2
_geom_bond_site_symmetry_1
_geom_bond_site_symmetry_2
O1 C1 1_555 1_555
O2 C5 1_555 1_555
O3 C5 1_555 1_555
O4 C7 1_555 1_555
O5 C7 1_555 1_555
N1 H1 1_555 1_555
N2 H2 1_555 1_555
C1 N1 1_555 1_555
C2 N1 1_555 1_555
H3 C2 1_555 1_555
C3 C2 1_555 1_555
H4 C3 1_555 1_555
H5 C3 1_555 1_555
C4 N2 1_555 1_555
H6 C4 1_555 1_555
C5 C2 1_555 1_555
C6 O2 1_555 1_555
H7 C6 1_555 1_555
H8 C6 1_555 1_555
H9 C6 1_555 1_555
C7 C4 1_555 1_555
C8 O4 1_555 1_555
H10 C8 1_555 1_555
H11 C8 1_555 1_555
H12 C8 1_555 1_555
N2 C1 1_555 1_555
C3 C4 1_555 1_555

#END
