
#######################################################################
#
#                 Cambridge Crystallographic Data Centre
#                                CCDC 
#
#######################################################################
#
# If this CIF has been generated from an entry in the Cambridge 
# Structural Database, then it will include bibliographic, chemical, 
# crystal, experimental, refinement or atomic coordinate data resulting 
# from the CCDC's data processing and validation procedures.
#
#######################################################################

data_JUMZAS
_chemical_name_common            
"5,5':11,11':17,17':23,23'-tetrakis(benzene-2,3-dicarboxamido)-bis(2,8,14,20-tetrakis(2-phenylethyl)-6,10:12,16:18,22:24,4-O,O'-tetramethylenecalix[4]resorcinarene) heptahydrate clathrate nitrobenzene solvate"
_chemical_formula_moiety         'C160 H128 N8 O24,10(C6 H5 N1 O2),7(H2 O1)'
_chemical_name_systematic        
"5,5':11,11':17,17':23,23'-tetrakis(benzene-2,3-dicarboxamido)-bis(2,8,14,20-tetrakis(2-phenylethyl)-6,10:12,16:18,22:24,4-tetrakis(methylenedioxy)calix[4]arene) heptahydrate clathrate nitrobenzene solvate"
_symmetry_cell_setting           triclinic
_symmetry_space_group_name_H-M   'P -1'
_symmetry_Int_Tables_number      2
_space_group_name_Hall           '-P 1'
loop_
_symmetry_equiv_pos_site_id
_symmetry_equiv_pos_as_xyz
1 x,y,z
2 -x,-y,-z
_cell_length_a                   15.358(1)
_cell_length_b                   16.029(1)
_cell_length_c                   21.009(2)
_cell_angle_alpha                93.435(3)
_cell_angle_beta                 105.838(3)
_cell_angle_gamma                92.280(3)
_cell_volume                     4958.09
_exptl_crystal_colour            'pale yellow'
_cell_formula_units_Z            1
loop_
_atom_site_label
_atom_site_type_symbol
_atom_site_fract_x
_atom_site_fract_y
_atom_site_fract_z
C1 C 0.6211(8) 0.1253(8) 0.4701(8)
C2 C 0.6502(8) 0.1712(8) 0.5314(8)
C3 C 0.7212(8) 0.2323(8) 0.5432(8)
C4 C 0.7632(8) 0.2476(8) 0.4936(8)
C5 C 0.7341(8) 0.2017(8) 0.4323(8)
C6 C 0.6630(8) 0.1406(8) 0.4205(8)
H1 H 0.5661 0.0780 0.4609
H2 H 0.6176 0.1594 0.5698
H3 H 0.7437 0.2679 0.5907
H4 H 0.8182 0.2949 0.5028
H5 H 0.7666 0.2135 0.3939
C7 C 0.6255(12) 0.0955(12) 0.3525(8)
H6 H 0.6812 0.0743 0.3347
H7 H 0.5818 0.0423 0.3555
C8 C 0.5714(10) 0.1529(11) 0.3036(8)
H8 H 0.5261 0.1845 0.3270
H9 H 0.6176 0.1986 0.2923
C9 C 0.5131(11) 0.1044(11) 0.2387(8)
H10 H 0.5606 0.0674 0.2214
C10 C 0.4446(7) 0.2406(8) 0.2031(4)
C11 C 0.4707(7) 0.1618(8) 0.1857(4)
C12 C 0.4580(7) 0.1358(8) 0.1191(4)
C13 C 0.4193(7) 0.1885(8) 0.0698(4)
C14 C 0.3932(7) 0.2672(8) 0.0872(4)
C15 C 0.4059(7) 0.2932(8) 0.1538(4)
H11 H 0.4545 0.2607 0.2546
C16 C 0.4151(13) 0.1603(12) -0.0007(9)
O1 O 0.4800(8) 0.1752(8) -0.0224(6)
N1 N 0.3313(9) 0.1268(9) -0.0389(6)
C17 C 0.3651(5) 0.1153(7) -0.1481(5)
C18 C 0.3343(5) 0.0886(7) -0.2153(5)
C19 C 0.2483(5) 0.0482(7) -0.2408(5)
C20 C 0.1932(5) 0.0346(7) -0.1991(5)
C21 C 0.2241(5) 0.0614(7) -0.1319(5)
C22 C 0.3100(5) 0.1017(7) -0.1064(5)
H12 H 0.4317 0.1466 -0.1284
H13 H 0.3769 0.0991 -0.2476
H14 H 0.2244 0.0275 -0.2928
H15 H 0.1814 0.0508 -0.0996
O2 O 0.4846(8) 0.0587(8) 0.1000(6)
C23 C 0.4296(12) -0.0159(12) 0.1007(9)
H16 H 0.4345 -0.0612 0.0618
H17 H 0.3600 0.0009 0.0921
O3 O 0.4553(7) -0.0515(8) 0.1614(6)
C24 C 0.3974(8) 0.0629(6) 0.3002(5)
C25 C 0.3300(8) 0.0076(6) 0.3093(5)
C26 C 0.3047(8) -0.0665(6) 0.2686(5)
C27 C 0.3469(8) -0.0852(6) 0.2190(5)
C28 C 0.4144(8) -0.0300(6) 0.2100(5)
C29 C 0.4396(8) 0.0441(6) 0.2506(5)
H18 H 0.4170 0.1202 0.3317
O4 O 0.2408(8) -0.1262(8) 0.2785(6)
C30 C 0.1490(13) -0.1061(13) 0.2432(10)
H19 H 0.1087 -0.1637 0.2241
H20 H 0.1514 -0.0688 0.2025
O5 O 0.1107(8) -0.0614(8) 0.2880(6)
C31 C 0.2763(11) 0.0280(12) 0.3596(8)
H21 H 0.2515 -0.0271 0.3779
C32 C 0.3346(11) 0.0718(12) 0.4248(8)
H22 H 0.3525 0.1348 0.4152(8)
H23 H 0.3957 0.0392 0.4435
C33 C 0.2836(13) 0.0765(13) 0.4755(9)
H24 H 0.2233 0.1098 0.4556
H25 H 0.2643 0.0129 0.4824
C34 C 0.4246(10) 0.1124(8) 0.5690(7)
C35 C 0.4697(10) 0.1516(8) 0.6311(7)
C36 C 0.4218(10) 0.1989(8) 0.6667(7)
C37 C 0.3289(10) 0.2071(8) 0.6401(7)
C38 C 0.2839(10) 0.1679(8) 0.5780(7)
C39 C 0.3317(10) 0.1206(8) 0.5425(7)
H26 H 0.4617 0.0758 0.5415
H27 H 0.5416 0.1453 0.6517
H28 H 0.4567 0.2292 0.7147
H29 H 0.2919 0.2437 0.6676
H30 H 0.2119 0.1742 0.5575
C40 C 0.1972(6) 0.1609(7) 0.3210(5)
C41 C 0.1228(6) 0.1994(7) 0.2826(5)
C42 C 0.0459(6) 0.1510(7) 0.2458(5)
C43 C 0.0433(6) 0.0640(7) 0.2475(5)
C44 C 0.1177(6) 0.0255(7) 0.2859(5)
C45 C 0.1947(6) 0.0739(7) 0.3227(5)
H31 H 0.2568 0.1983 0.3494
C46 C -0.0349(12) 0.0107(12) 0.2044(10)
O6 O -0.0329(8) -0.0217(9) 0.1517(7)
N2 N 0.1067(9) -0.0104(9) -0.2298(7)
C47 C 0.1214(11) 0.2961(11) 0.2765(8)
H32 H 0.0516 0.3124 0.2668
C48 C 0.1742(12) 0.3447(12) 0.3429(9)
H33 H 0.1753 0.4111 0.3366
H34 H 0.2429 0.3248 0.3571
C49 C 0.1280(12) 0.3270(13) 0.3980(9)
H35 H 0.1376 0.2626 0.4093
H36 H 0.0564 0.3356 0.3782
C50 C 0.1147(8) 0.4539(11) 0.4716(7)
C51 C 0.1450(8) 0.5045(11) 0.5307(7)
C52 C 0.2226(8) 0.4853(11) 0.5791(7)
C53 C 0.2698(8) 0.4155(11) 0.5683(7)
C54 C 0.2396(8) 0.3650(11) 0.5092(7)
C55 C 0.1620(8) 0.3842(11) 0.4609(7)
H37 H 0.0547 0.4688 0.4342
H38 H 0.1084 0.5585 0.5390
H39 H 0.2460 0.5244 0.6248
H40 H 0.3299 0.4007 0.6058
H41 H 0.2762 0.3110 0.5009
C56 C 0.2436(7) 0.3400(7) 0.2220(4)
C57 C 0.1530(7) 0.3179(7) 0.2173(4)
C58 C 0.0880(7) 0.3140(7) 0.1558(4)
C59 C 0.1135(7) 0.3320(7) 0.0991(4)
C60 C 0.2041(7) 0.3541(7) 0.1039(4)
C61 C 0.2691(7) 0.3581(7) 0.1653(4)
H42 H 0.2940 0.3431 0.2696
O7 O -0.0038(7) 0.2965(8) 0.1493(5)
C62 C -0.0324(12) 0.2103(12) 0.1468(9)
H43 H 0.0140 0.1728 0.1286
H44 H -0.1001 0.1992 0.1137
O8 O -0.0320(7) 0.1864(8) 0.2104(6)
C63 C 0.0413(13) 0.3145(14) 0.0335(10)
O9 O 0.0482(8) 0.2559(9) -0.0044(6)
N3 N -0.0252(9) 0.3683(9) 0.0237(6)
C64 C -0.1666(8) 0.4213(6) -0.0318(5)
C65 C -0.2563(8) 0.4115(6) -0.0713(5)
C66 C -0.2909(8) 0.3338(6) -0.1039(5)
C67 C -0.2357(8) 0.2658(6) -0.0971(5)
C68 C -0.1460(8) 0.2756(6) -0.0576(5)
C69 C -0.1115(8) 0.3533(6) -0.0250(5)
H45 H -0.1399 0.4815 -0.0066
H46 H -0.2990 0.4642 -0.0765
H47 H -0.3603 0.3263 -0.1344
H48 H -0.1033 0.2229 -0.0524
N4 N -0.2639(9) 0.1847(9) -0.1298(7)
C70 C 0.3352(14) -0.1728(14) 0.1873(10)
O10 O 0.3823(9) -0.2292(9) 0.2133(7)
O11 O 0.2238(7) 0.3766(7) 0.0460(5)
C71 C 0.261(11) 0.3122(12) 0.0099(9)
H49 H 0.2436 0.3240 -0.0420
H50 H 0.2332 0.2510 0.0154
O12 O 0.3578(7) 0.3161(7) 0.0351(5)
C72 C 0.3694(11) 0.3783(11) 0.1652(8)
H51 H 0.3773 0.4203 0.1285
C73 C 0.4236(11) 0.4244(11) 0.2324(8)
H52 H 0.3930 0.4824 0.2399
H53 H 0.4192 0.3837 0.2706
C74 C 0.5255(11) 0.4440(12) 0.2375(8)
H54 H 0.5556 0.3860 0.2290
H55 H 0.5601 0.4723 0.2863
C75 C 0.5266(8) 0.5885(11) 0.1962(6)
C76 C 0.5379(8) 0.6425(11) 0.1491(6)
C77 C 0.5601(8) 0.6110(11) 0.0925(6)
C78 C 0.5711(8) 0.5255(11) 0.0831(6)
C79 C 0.5598(8) 0.4715(11) 0.1302(6)
C80 C 0.5376(8) 0.5030(11) 0.1868(6)
H56 H 0.5094 0.6128 0.2400
H57 H 0.5293 0.7087 0.1564
H58 H 0.5688 0.6528 0.0560
H59 H 0.5883 0.5011 0.0393
H60 H 0.5683 0.4053 0.1229
N2A N -0.1067(9) 0.0104(9) 0.2298(7)
C20A C -0.1932(5) -0.0346(7) 0.1991(5)
C19A C -0.2483(5) -0.0482(7) 0.2408(5)
C18A C -0.3343(5) -0.0886(7) 0.2153(5)
C17A C -0.3651(5) -0.1153(7) 0.1481(5)
C22A C -0.3100(5) -0.1017(7) 0.1064(5)
N1A N -0.3313(9) -0.1268(9) 0.0389(6)
C16A C -0.4151(13) -0.1603(12) 0.0007(9)
C13A C -0.4193(7) -0.1885(8) -0.0698(4)
C12A C -0.4580(7) -0.1358(8) -0.1191(4)
C11A C -0.4707(7) -0.1618(8) -0.1857(4)
C9A C -0.5131(11) -0.1044(11) -0.2387(8)
C8A C -0.5714(10) -0.1529(11) -0.3036(8)
C7A C -0.6255(12) -0.0955(12) -0.3525(8)
C6A C -0.6630(8) -0.1406(8) -0.4205(8)
C1A C -0.6211(8) -0.1253(8) -0.4701(8)
C2A C -0.6502(8) -0.1712(8) -0.5314(8)
C3A C -0.7212(8) -0.2323(8) -0.5432(8)
C4A C -0.7632(8) -0.2476(8) -0.4936(8)
C5A C -0.7341(8) -0.2017(8) -0.4323(8)
H5A H -0.7666 -0.2135 -0.3939
H4A H -0.8182 -0.2949 -0.5028
H3A H -0.7437 -0.2679 -0.5907
H2A H -0.6176 -0.1594 -0.5698
H1A H -0.5661 -0.0780 -0.4609
H6A H -0.6812 -0.0743 -0.3347
H7A H -0.5818 -0.0423 -0.3555
H8A H -0.5261 -0.1845 -0.3270
H9A H -0.6176 -0.1986 -0.2923
H10A H -0.5606 -0.0674 -0.2214
C29A C -0.4396(8) -0.0441(6) -0.2506(5)
C24A C -0.3974(8) -0.0629(6) -0.3002(5)
C25A C -0.3300(8) -0.0076(6) -0.3093(5)
C26A C -0.3047(8) 0.0665(6) -0.2686(5)
C27A C -0.3469(8) 0.0852(6) -0.2190(5)
C28A C -0.4144(8) 0.0300(6) -0.2100(5)
O3A O -0.4553(7) 0.0515(8) -0.1614(6)
C23A C -0.4296(12) 0.0159(12) -0.1007(9)
O2A O -0.4846(8) -0.0587(8) -0.1000(6)
H16A H -0.4345 0.0612 -0.0618
H17A H -0.3600 -0.0009 -0.0921
C70A C -0.3352(14) 0.1728(14) -0.1873(10)
O10A O -0.3823(9) 0.2292(9) -0.2133(7)
O4A O -0.2408(8) 0.1262(8) -0.2785(6)
C30A C -0.1490(13) 0.1061(13) -0.2432(10)
H19A H -0.1087 0.1637 -0.2241
H20A H -0.1514 0.0688 -0.2025
O5A O -0.1107(8) 0.0614(8) -0.2880(6)
C44A C -0.1177(6) -0.0255(7) -0.2859(5)
C43A C -0.0433(6) -0.0640(7) -0.2475(5)
C42A C -0.0459(6) -0.1510(7) -0.2458(5)
C41A C -0.1228(6) -0.1994(7) -0.2826(5)
C40A C -0.1972(6) -0.1609(7) -0.3210(5)
C45A C -0.1947(6) -0.0739(7) -0.3227(5)
C31A C -0.2763(11) -0.0280(12) -0.3596(8)
H21A H -0.2515 0.0271 -0.3779
C32A C -0.3346(11) -0.0718(12) -0.4248(8)
H22A H -0.3525 -0.1348 -0.4152(8)
H23A H -0.3957 -0.0392 -0.4435
C33A C -0.2836(13) -0.0765(13) -0.4755(9)
H24A H -0.2233 -0.1098 -0.4556
H25A H -0.2643 -0.0129 -0.4824
C39A C -0.3317(10) -0.1206(8) -0.5425(7)
C34A C -0.4246(10) -0.1124(8) -0.5690(7)
C35A C -0.4697(10) -0.1516(8) -0.6311(7)
C36A C -0.4218(10) -0.1989(8) -0.6667(7)
C37A C -0.3289(10) -0.2071(8) -0.6401(7)
C38A C -0.2839(10) -0.1679(8) -0.5780(7)
H30A H -0.2119 -0.1742 -0.5575
H29A H -0.2919 -0.2437 -0.6676
H28A H -0.4567 -0.2292 -0.7147
H27A H -0.5416 -0.1453 -0.6517
H26A H -0.4617 -0.0758 -0.5415
H31A H -0.2568 -0.1983 -0.3494
C47A C -0.1214(11) -0.2961(11) -0.2765(8)
H32A H -0.0516 -0.3124 -0.2668
C48A C -0.1742(12) -0.3447(12) -0.3429(9)
H33A H -0.1753 -0.4111 -0.3366
H34A H -0.2429 -0.3248 -0.3571
C49A C -0.1280(12) -0.3270(13) -0.3980(9)
H35A H -0.1376 -0.2626 -0.4093
H36A H -0.0564 -0.3356 -0.3782
C55A C -0.1620(8) -0.3842(11) -0.4609(7)
C50A C -0.1147(8) -0.4539(11) -0.4716(7)
C51A C -0.1450(8) -0.5045(11) -0.5307(7)
C52A C -0.2226(8) -0.4853(11) -0.5791(7)
C53A C -0.2698(8) -0.4155(11) -0.5683(7)
C54A C -0.2396(8) -0.3650(11) -0.5092(7)
H41A H -0.2762 -0.3110 -0.5009
H40A H -0.3299 -0.4007 -0.6058
H39A H -0.2460 -0.5244 -0.6248
H38A H -0.1084 -0.5585 -0.5390
H37A H -0.0547 -0.4688 -0.4342
C57A C -0.1530(7) -0.3179(7) -0.2173(4)
C56A C -0.2436(7) -0.3400(7) -0.2220(4)
C61A C -0.2691(7) -0.3581(7) -0.1653(4)
C60A C -0.2041(7) -0.3541(7) -0.1039(4)
C59A C -0.1135(7) -0.3320(7) -0.0991(4)
C58A C -0.0880(7) -0.3140(7) -0.1558(4)
O7A O 0.0038(7) -0.2965(8) -0.1493(5)
C62A C 0.0324(12) -0.2103(12) -0.1468(9)
H43A H -0.0140 -0.1728 -0.1286
H44A H 0.1001 -0.1992 -0.1137
O8A O 0.0320(7) -0.1864(8) -0.2104(6)
C63A C -0.0413(13) -0.3145(14) -0.0335(10)
O9A O -0.0482(8) -0.2559(9) 0.0044(6)
N3A N 0.0252(9) -0.3683(9) -0.0237(6)
C69A C 0.1115(8) -0.3533(6) 0.0250(5)
C64A C 0.1666(8) -0.4213(6) 0.0318(5)
C65A C 0.2563(8) -0.4115(6) 0.0713(5)
C66A C 0.2909(8) -0.3338(6) 0.1039(5)
C67A C 0.2357(8) -0.2658(6) 0.0971(5)
C68A C 0.1460(8) -0.2756(6) 0.0576(5)
H48A H 0.1033 -0.2229 0.0524
N4A N 0.2639(9) -0.1847(9) 0.1298(7)
H47A H 0.3603 -0.3263 0.1344
H46A H 0.2990 -0.4642 0.0765
H45A H 0.1399 -0.4815 0.0066
O11A O -0.2238(7) -0.3766(7) -0.0460(5)
C71A C -0.261(11) -0.3122(12) -0.0099(9)
H49A H -0.2436 -0.3240 0.0420
H50A H -0.2332 -0.2510 -0.0154
O12A O -0.3578(7) -0.3161(7) -0.0351(5)
C14A C -0.3932(7) -0.2672(8) -0.0872(4)
C15A C -0.4059(7) -0.2932(8) -0.1538(4)
C10A C -0.4446(7) -0.2406(8) -0.2031(4)
H11A H -0.4545 -0.2607 -0.2546
C72A C -0.3694(11) -0.3783(11) -0.1652(8)
H51A H -0.3773 -0.4203 -0.1285
C73A C -0.4236(11) -0.4244(11) -0.2324(8)
H52A H -0.3930 -0.4824 -0.2399
H53A H -0.4192 -0.3837 -0.2706
C74A C -0.5255(11) -0.4440(12) -0.2375(8)
H54A H -0.5556 -0.3860 -0.2290
H55A H -0.5601 -0.4723 -0.2863
C80A C -0.5376(8) -0.5030(11) -0.1868(6)
C75A C -0.5266(8) -0.5885(11) -0.1962(6)
C76A C -0.5379(8) -0.6425(11) -0.1491(6)
C77A C -0.5601(8) -0.6110(11) -0.0925(6)
C78A C -0.5711(8) -0.5255(11) -0.0831(6)
C79A C -0.5598(8) -0.4715(11) -0.1302(6)
H60A H -0.5683 -0.4053 -0.1229
H59A H -0.5883 -0.5011 -0.0393
H58A H -0.5688 -0.6528 -0.0560
H57A H -0.5293 -0.7087 -0.1564
H56A H -0.5094 -0.6128 -0.2400
H42A H -0.2940 -0.3431 -0.2696
C46A C 0.0349(12) -0.0107(12) -0.2044(10)
O6A O 0.0329(8) 0.0217(9) -0.1517(7)
H18A H -0.4170 -0.1202 -0.3317
O1A O -0.4800(8) -0.1752(8) 0.0224(6)
C21A C -0.2241(5) -0.0614(7) 0.1319(5)
H15A H -0.1814 -0.0508 0.0996
H12A H -0.4317 -0.1466 0.1284
H13A H -0.3769 -0.0991 0.2476
H14A H -0.2244 -0.0275 0.2928
C81 C 0.5921(11) 0.4219(10) 0.4921(7)
C82 C 0.6436(11) 0.4626(10) 0.5519(7)
C83 C 0.6244(11) 0.4455(10) 0.6111(7)
C84 C 0.5537(11) 0.3877(10) 0.6104(7)
C85 C 0.5022(11) 0.3469(10) 0.5506(7)
C86 C 0.5214(11) 0.3641(10) 0.4914(7)
H61 H 0.6070 0.4352 0.4463
H62 H 0.6984 0.5074 0.5524
H63 H 0.6643 0.4770 0.6574
H64 H 0.5388 0.3744 0.6563
H65 H 0.4474 0.3022 0.5501
N5 N 0.4653(18) 0.3281(17) 0.4195(13)
O13 O 0.5019(14) 0.3392(14) 0.3800(11)
O14 O 0.4102(15) 0.2805(14) 0.4299(10)
C87 C 0.7756(9) 0.3135(9) 0.1723(9)
C88 C 0.7350(9) 0.3167(9) 0.1045(9)
C89 C 0.6850(9) 0.2467(9) 0.0676(9)
C90 C 0.6757(9) 0.1735(9) 0.0985(9)
C91 C 0.7163(9) 0.1704(9) 0.1663(9)
C92 C 0.7663(9) 0.2404(9) 0.2032(9)
H66 H 0.8143 0.3677 0.2008
H67 H 0.7422 0.3733 0.0806
H68 H 0.6535 0.2491 0.0151
H69 H 0.6370 0.1194 0.0700
H70 H 0.7091 0.1137 0.1902
N6 N 0.8149(22) 0.2467(25) 0.2760(17)
O15 O 0.8104(13) 0.1754(15) 0.2928(10)
O16 O 0.8517(18) 0.3054(18) 0.3004(13)
C93 C 1.0056(11) 0.1898(11) 0.4866(8)
C94 C 1.0380(11) 0.2300(11) 0.5500(8)
C95 C 1.0170(11) 0.1955(11) 0.6038(8)
C96 C 0.9637(11) 0.1208(11) 0.5941(8)
C97 C 0.9314(11) 0.0805(11) 0.5307(8)
C98 C 0.9523(11) 0.1150(11) 0.4770(8)
H71 H 1.0218 0.2165 0.4450
H72 H 1.0792 0.2879 0.5575
H73 H 1.0421 0.2267 0.6529
H74 H 0.9475 0.0941 0.6357
H75 H 0.8901 0.0226 0.5233
N7 N 0.9223(19) 0.0644(18) 0.3911(12)
O17 O 0.8709(18) 0.0208(17) 0.4145(13)
O18 O 0.9772(21) 0.1044(19) 0.3826(14)
C99 C 0.0731(8) 0.3097(12) 0.8467(6)
C100 C 0.0994(8) 0.2416(12) 0.8132(6)
C101 C 0.1666(8) 0.2531(12) 0.7808(6)
C102 C 0.2074(8) 0.3327(12) 0.7819(6)
C103 C 0.1811(8) 0.4008(12) 0.8154(6)
C104 C 0.1139(8) 0.3893(12) 0.8478(6)
H76 H 0.0211 0.3007 0.8719
H77 H 0.0677 0.1799 0.8123
H78 H 0.1869 0.2004 0.7548
H79 H 0.2594 0.3416 0.7567
H80 H 0.2128 0.4625 0.8163
N8 N 0.0799(15) 0.4620(15) 0.8774(10)
O19 O 0.0266(12) 0.4469(11) 0.9075(8)
O20 O 0.1162(12) 0.5287(13) 0.8736(9)
C105 C 0.9133(11) 0.4787(8) 0.7555(9)
C106 C 0.8452(11) 0.4538(8) 0.7839(9)
C107 C 0.7968(11) 0.3769(8) 0.7631(9)
C108 C 0.8165(11) 0.3248(8) 0.7139(9)
C109 C 0.8847(11) 0.3496(8) 0.6855(9)
C110 C 0.9330(11) 0.4265(8) 0.7063(9)
H81 H 0.9508 0.5382 0.7716
H82 H 0.8299 0.4942 0.8220
H83 H 0.7441 0.3577 0.7851
H84 H 0.7791 0.2652 0.6978
H85 H 0.8999 0.3092 0.6473
N9 N 1.0115(18) 0.4518(22) 0.6767(15)
O21 O 1.0352(16) 0.5240(17) 0.7036(12)
O22 O 1.0191(18) 0.4065(18) 0.6388(14)
O23 O 0.1715(12) 0.1122(12) 0.0171(9)
O24 O 0.8652(14) 0.0492(14) 0.9167(10)
O25 O 0.2224(15) 0.1147(15) 0.1542(11)
O26 O 0.0195(46) 0.0402(41) 0.9761(30)
loop_
_geom_bond_atom_site_label_1
_geom_bond_atom_site_label_2
_geom_bond_site_symmetry_1
_geom_bond_site_symmetry_2
C1 C2 1_555 1_555
C2 C3 1_555 1_555
C3 C4 1_555 1_555
C4 C5 1_555 1_555
C5 C6 1_555 1_555
C6 C1 1_555 1_555
H1 C1 1_555 1_555
H2 C2 1_555 1_555
H3 C3 1_555 1_555
H4 C4 1_555 1_555
H5 C5 1_555 1_555
C7 C6 1_555 1_555
H6 C7 1_555 1_555
H7 C7 1_555 1_555
C8 C7 1_555 1_555
H8 C8 1_555 1_555
H9 C8 1_555 1_555
C9 C8 1_555 1_555
H10 C9 1_555 1_555
C10 C11 1_555 1_555
C11 C9 1_555 1_555
C12 C11 1_555 1_555
C13 C12 1_555 1_555
C14 C13 1_555 1_555
C15 C10 1_555 1_555
H11 C10 1_555 1_555
C16 C13 1_555 1_555
O1 C16 1_555 1_555
N1 C16 1_555 1_555
C17 C18 1_555 1_555
C18 C19 1_555 1_555
C19 C20 1_555 1_555
C20 C21 1_555 1_555
C21 C22 1_555 1_555
C22 N1 1_555 1_555
H12 C17 1_555 1_555
H13 C18 1_555 1_555
H14 C19 1_555 1_555
H15 C21 1_555 1_555
O2 C12 1_555 1_555
C23 O2 1_555 1_555
H16 C23 1_555 1_555
H17 C23 1_555 1_555
O3 C23 1_555 1_555
C24 C25 1_555 1_555
C25 C26 1_555 1_555
C26 C27 1_555 1_555
C27 C28 1_555 1_555
C28 O3 1_555 1_555
C29 C9 1_555 1_555
H18 C24 1_555 1_555
O4 C26 1_555 1_555
C30 O4 1_555 1_555
H19 C30 1_555 1_555
H20 C30 1_555 1_555
O5 C30 1_555 1_555
C31 C25 1_555 1_555
H21 C31 1_555 1_555
C32 C31 1_555 1_555
H22 C32 1_555 1_555
H23 C32 1_555 1_555
C33 C32 1_555 1_555
H24 C33 1_555 1_555
H25 C33 1_555 1_555
C34 C35 1_555 1_555
C35 C36 1_555 1_555
C36 C37 1_555 1_555
C37 C38 1_555 1_555
C38 C39 1_555 1_555
C39 C33 1_555 1_555
H26 C34 1_555 1_555
H27 C35 1_555 1_555
H28 C36 1_555 1_555
H29 C37 1_555 1_555
H30 C38 1_555 1_555
C40 C41 1_555 1_555
C41 C42 1_555 1_555
C42 C43 1_555 1_555
C43 C44 1_555 1_555
C44 O5 1_555 1_555
C45 C31 1_555 1_555
H31 C40 1_555 1_555
C46 C43 1_555 1_555
O6 C46 1_555 1_555
N2 C20 1_555 1_555
C47 C41 1_555 1_555
H32 C47 1_555 1_555
C48 C47 1_555 1_555
H33 C48 1_555 1_555
H34 C48 1_555 1_555
C49 C48 1_555 1_555
H35 C49 1_555 1_555
H36 C49 1_555 1_555
C50 C51 1_555 1_555
C51 C52 1_555 1_555
C52 C53 1_555 1_555
C53 C54 1_555 1_555
C54 C55 1_555 1_555
C55 C49 1_555 1_555
H37 C50 1_555 1_555
H38 C51 1_555 1_555
H39 C52 1_555 1_555
H40 C53 1_555 1_555
H41 C54 1_555 1_555
C56 C57 1_555 1_555
C57 C47 1_555 1_555
C58 C57 1_555 1_555
C59 C58 1_555 1_555
C60 C59 1_555 1_555
C61 C56 1_555 1_555
H42 C56 1_555 1_555
O7 C58 1_555 1_555
C62 O7 1_555 1_555
H43 C62 1_555 1_555
H44 C62 1_555 1_555
O8 C42 1_555 1_555
C63 C59 1_555 1_555
O9 C63 1_555 1_555
N3 C63 1_555 1_555
C64 C65 1_555 1_555
C65 C66 1_555 1_555
C66 C67 1_555 1_555
C67 C68 1_555 1_555
C68 C69 1_555 1_555
C69 N3 1_555 1_555
H45 C64 1_555 1_555
H46 C65 1_555 1_555
H47 C66 1_555 1_555
H48 C68 1_555 1_555
N4 C67 1_555 1_555
C70 C27 1_555 1_555
O10 C70 1_555 1_555
O11 C60 1_555 1_555
C71 O11 1_555 1_555
H49 C71 1_555 1_555
H50 C71 1_555 1_555
O12 C14 1_555 1_555
C72 C15 1_555 1_555
H51 C72 1_555 1_555
C73 C72 1_555 1_555
H52 C73 1_555 1_555
H53 C73 1_555 1_555
C74 C73 1_555 1_555
H54 C74 1_555 1_555
H55 C74 1_555 1_555
C75 C76 1_555 1_555
C76 C77 1_555 1_555
C77 C78 1_555 1_555
C78 C79 1_555 1_555
C79 C80 1_555 1_555
C80 C74 1_555 1_555
H56 C75 1_555 1_555
H57 C76 1_555 1_555
H58 C77 1_555 1_555
H59 C78 1_555 1_555
H60 C79 1_555 1_555
C81 C82 1_555 1_555
C82 C83 1_555 1_555
C83 C84 1_555 1_555
C84 C85 1_555 1_555
C85 C86 1_555 1_555
C86 C81 1_555 1_555
H61 C81 1_555 1_555
H62 C82 1_555 1_555
H63 C83 1_555 1_555
H64 C84 1_555 1_555
H65 C85 1_555 1_555
N5 C86 1_555 1_555
O13 N5 1_555 1_555
O14 N5 1_555 1_555
C87 C88 1_555 1_555
C88 C89 1_555 1_555
C89 C90 1_555 1_555
C90 C91 1_555 1_555
C91 C92 1_555 1_555
C92 C87 1_555 1_555
H66 C87 1_555 1_555
H67 C88 1_555 1_555
H68 C89 1_555 1_555
H69 C90 1_555 1_555
H70 C91 1_555 1_555
N6 C92 1_555 1_555
O15 N6 1_555 1_555
O16 N6 1_555 1_555
C93 C94 1_555 1_555
C94 C95 1_555 1_555
C95 C96 1_555 1_555
C96 C97 1_555 1_555
C97 C98 1_555 1_555
C98 C93 1_555 1_555
H71 C93 1_555 1_555
H72 C94 1_555 1_555
H73 C95 1_555 1_555
H74 C96 1_555 1_555
H75 C97 1_555 1_555
N7 C98 1_555 1_555
O17 N7 1_555 1_555
O18 N7 1_555 1_555
C99 C100 1_555 1_555
C100 C101 1_555 1_555
C101 C102 1_555 1_555
C102 C103 1_555 1_555
C103 C104 1_555 1_555
C104 C99 1_555 1_555
H76 C99 1_555 1_555
H77 C100 1_555 1_555
H78 C101 1_555 1_555
H79 C102 1_555 1_555
H80 C103 1_555 1_555
N8 C104 1_555 1_555
O19 N8 1_555 1_555
O20 N8 1_555 1_555
C105 C106 1_555 1_555
C106 C107 1_555 1_555
C107 C108 1_555 1_555
C108 C109 1_555 1_555
C109 C110 1_555 1_555
C110 C105 1_555 1_555
H81 C105 1_555 1_555
H82 C106 1_555 1_555
H83 C107 1_555 1_555
H84 C108 1_555 1_555
H85 C109 1_555 1_555
N9 C110 1_555 1_555
O21 N9 1_555 1_555
O22 N9 1_555 1_555
N2A C46 1_555 1_555
C20A N2A 1_555 1_555
C19A C20A 1_555 1_555
C18A C19A 1_555 1_555
C17A C18A 1_555 1_555
C22A C17A 1_555 1_555
N1A C22A 1_555 1_555
C16A N1A 1_555 1_555
C13A C16A 1_555 1_555
C12A C13A 1_555 1_555
C11A C12A 1_555 1_555
C9A C11A 1_555 1_555
C8A C9A 1_555 1_555
C7A C8A 1_555 1_555
C6A C7A 1_555 1_555
C1A C6A 1_555 1_555
C2A C1A 1_555 1_555
C3A C2A 1_555 1_555
C4A C3A 1_555 1_555
C5A C6A 1_555 1_555
H5A C5A 1_555 1_555
H4A C4A 1_555 1_555
H3A C3A 1_555 1_555
H2A C2A 1_555 1_555
H1A C1A 1_555 1_555
H6A C7A 1_555 1_555
H7A C7A 1_555 1_555
H8A C8A 1_555 1_555
H9A C8A 1_555 1_555
H10A C9A 1_555 1_555
C29A C9A 1_555 1_555
C24A C29A 1_555 1_555
C25A C24A 1_555 1_555
C26A C25A 1_555 1_555
C27A C26A 1_555 1_555
C28A C29A 1_555 1_555
O3A C28A 1_555 1_555
C23A O3A 1_555 1_555
O2A C12A 1_555 1_555
H16A C23A 1_555 1_555
H17A C23A 1_555 1_555
C70A N4 1_555 1_555
O10A C70A 1_555 1_555
O4A C26A 1_555 1_555
C30A O4A 1_555 1_555
H19A C30A 1_555 1_555
H20A C30A 1_555 1_555
O5A C30A 1_555 1_555
C44A O5A 1_555 1_555
C43A C44A 1_555 1_555
C42A C43A 1_555 1_555
C41A C42A 1_555 1_555
C40A C41A 1_555 1_555
C45A C44A 1_555 1_555
C31A C25A 1_555 1_555
H21A C31A 1_555 1_555
C32A C31A 1_555 1_555
H22A C32A 1_555 1_555
H23A C32A 1_555 1_555
C33A C32A 1_555 1_555
H24A C33A 1_555 1_555
H25A C33A 1_555 1_555
C39A C33A 1_555 1_555
C34A C39A 1_555 1_555
C35A C34A 1_555 1_555
C36A C35A 1_555 1_555
C37A C36A 1_555 1_555
C38A C39A 1_555 1_555
H30A C38A 1_555 1_555
H29A C37A 1_555 1_555
H28A C36A 1_555 1_555
H27A C35A 1_555 1_555
H26A C34A 1_555 1_555
H31A C40A 1_555 1_555
C47A C41A 1_555 1_555
H32A C47A 1_555 1_555
C48A C47A 1_555 1_555
H33A C48A 1_555 1_555
H34A C48A 1_555 1_555
C49A C48A 1_555 1_555
H35A C49A 1_555 1_555
H36A C49A 1_555 1_555
C55A C49A 1_555 1_555
C50A C55A 1_555 1_555
C51A C50A 1_555 1_555
C52A C51A 1_555 1_555
C53A C52A 1_555 1_555
C54A C55A 1_555 1_555
H41A C54A 1_555 1_555
H40A C53A 1_555 1_555
H39A C52A 1_555 1_555
H38A C51A 1_555 1_555
H37A C50A 1_555 1_555
C57A C47A 1_555 1_555
C56A C57A 1_555 1_555
C61A C56A 1_555 1_555
C60A C61A 1_555 1_555
C59A C60A 1_555 1_555
C58A C57A 1_555 1_555
O7A C58A 1_555 1_555
C62A O7A 1_555 1_555
H43A C62A 1_555 1_555
H44A C62A 1_555 1_555
O8A C42A 1_555 1_555
C63A C59A 1_555 1_555
O9A C63A 1_555 1_555
N3A C63A 1_555 1_555
C69A N3A 1_555 1_555
C64A C69A 1_555 1_555
C65A C64A 1_555 1_555
C66A C65A 1_555 1_555
C67A C66A 1_555 1_555
C68A C69A 1_555 1_555
H48A C68A 1_555 1_555
N4A C70 1_555 1_555
H47A C66A 1_555 1_555
H46A C65A 1_555 1_555
H45A C64A 1_555 1_555
O11A C60A 1_555 1_555
C71A O11A 1_555 1_555
H49A C71A 1_555 1_555
H50A C71A 1_555 1_555
O12A C71A 1_555 1_555
C14A C13A 1_555 1_555
C15A C14A 1_555 1_555
C10A C11A 1_555 1_555
H11A C10A 1_555 1_555
C72A C61A 1_555 1_555
H51A C72A 1_555 1_555
C73A C72A 1_555 1_555
H52A C73A 1_555 1_555
H53A C73A 1_555 1_555
C74A C73A 1_555 1_555
H54A C74A 1_555 1_555
H55A C74A 1_555 1_555
C80A C74A 1_555 1_555
C75A C80A 1_555 1_555
C76A C75A 1_555 1_555
C77A C76A 1_555 1_555
C78A C77A 1_555 1_555
C79A C80A 1_555 1_555
H60A C79A 1_555 1_555
H59A C78A 1_555 1_555
H58A C77A 1_555 1_555
H57A C76A 1_555 1_555
H56A C75A 1_555 1_555
H42A C56A 1_555 1_555
C46A N2 1_555 1_555
O6A C46A 1_555 1_555
H18A C24A 1_555 1_555
O1A C16A 1_555 1_555
C21A C20A 1_555 1_555
H15A C21A 1_555 1_555
H12A C17A 1_555 1_555
H13A C18A 1_555 1_555
H14A C19A 1_555 1_555
C14 C15 1_555 1_555
C17 C22 1_555 1_555
C24 C29 1_555 1_555
C28 C29 1_555 1_555
C34 C39 1_555 1_555
C40 C45 1_555 1_555
C44 C45 1_555 1_555
C50 C55 1_555 1_555
C60 C61 1_555 1_555
C61 C72 1_555 1_555
C62 O8 1_555 1_555
C64 C69 1_555 1_555
C71 O12 1_555 1_555
C75 C80 1_555 1_555
C22A C21A 1_555 1_555
C4A C5A 1_555 1_555
C27A C28A 1_555 1_555
C27A C70A 1_555 1_555
C23A O2A 1_555 1_555
C43A C46A 1_555 1_555
C40A C45A 1_555 1_555
C45A C31A 1_555 1_555
C37A C38A 1_555 1_555
C53A C54A 1_555 1_555
C59A C58A 1_555 1_555
C62A O8A 1_555 1_555
C67A C68A 1_555 1_555
C67A N4A 1_555 1_555
O12A C14A 1_555 1_555
C15A C10A 1_555 1_555
C15A C72A 1_555 1_555
C78A C79A 1_555 1_555

#END
