
#######################################################################
#
#                 Cambridge Crystallographic Data Centre
#                                CCDC 
#
#######################################################################
#
# If this CIF has been generated from an entry in the Cambridge 
# Structural Database, then it will include bibliographic, chemical, 
# crystal, experimental, refinement or atomic coordinate data resulting 
# from the CCDC's data processing and validation procedures.
#
#######################################################################

data_JUNZIB
_chemical_formula_moiety         'C39 H48 N4'
_chemical_name_systematic        2,3,7,8,12,13,16,16-Octaethylbenzochlorin
_symmetry_cell_setting           triclinic
_symmetry_space_group_name_H-M   'P -1'
_symmetry_Int_Tables_number      2
_space_group_name_Hall           '-P 1'
loop_
_symmetry_equiv_pos_site_id
_symmetry_equiv_pos_as_xyz
1 x,y,z
2 -x,-y,-z
_cell_length_a                   13.441(8)
_cell_length_b                   13.941(4)
_cell_length_c                   9.138(2)
_cell_angle_alpha                100.94(2)
_cell_angle_beta                 95.91(4)
_cell_angle_gamma                79.05(4)
_cell_volume                     1646.58
_cell_formula_units_Z            2
loop_
_atom_site_label
_atom_site_type_symbol
_atom_site_fract_x
_atom_site_fract_y
_atom_site_fract_z
N1 N 0.7547(3) 0.3013(3) -0.1109(4)
N2 N 0.5919(3) 0.4562(3) -0.1589(4)
N3 N 0.7279(3) 0.5965(3) 0.0304(4)
N4 N 0.8825(3) 0.4399(3) 0.0830(4)
C1 C 0.8374(4) 0.2367(3) -0.0786(5)
C2 C 0.8318(4) 0.1285(3) -0.1464(6)
C3 C 0.7265(4) 0.1432(4) -0.2257(5)
C4 C 0.6866(4) 0.2457(3) -0.1999(5)
C5 C 0.5895(4) 0.2818(4) -0.2627(5)
C6 C 0.5420(4) 0.3844(4) -0.2387(5)
C7 C 0.4423(4) 0.4324(4) -0.2820(5)
C8 C 0.4360(4) 0.5328(4) -0.2280(5)
C9 C 0.5307(4) 0.5480(3) -0.1513(5)
C10 C 0.5547(4) 0.6395(4) -0.0816(5)
C11 C 0.6430(4) 0.6635(3) -0.0038(5)
C12 C 0.6566(4) 0.7651(3) 0.0548(5)
C13 C 0.7503(4) 0.7591(3) 0.1263(5)
C14 C 0.7930(4) 0.6541(3) 0.1106(5)
C15 C 0.8907(4) 0.6147(3) 0.1712(5)
C16 C 0.9321(4) 0.5156(3) 0.1556(5)
C17 C 1.0311(4) 0.4706(4) 0.2094(5)
C18 C 1.0388(4) 0.3706(3) 0.1675(5)
C19 C 0.9451(4) 0.3506(3) 0.0837(5)
C20 C 0.9240(4) 0.2595(3) 0.0111(6)
C21 C 0.9135(4) 0.0826(4) -0.2553(6)
C22 C 0.9143(5) 0.1412(4) -0.3840(6)
C23 C 0.8371(4) 0.0650(4) -0.0223(6)
C24 C 0.7613(5) 0.1051(4) 0.0972(7)
C25 C 0.3554(4) 0.3876(4) -0.3708(6)
C26 C 0.3629(4) 0.3708(4) -0.5380(6)
C27 C 0.3451(4) 0.6136(4) -0.2448(5)
C28 C 0.3491(4) 0.6656(4) -0.3746(6)
C29 C 0.5832(4) 0.8579(3) 0.0301(6)
C30 C 0.5892(5) 0.8805(4) -0.1261(7)
C31 C 0.8030(4) 0.8436(4) 0.2035(6)
C32 C 0.7655(5) 0.8904(4) 0.3580(7)
C33 C 1.1124(4) 0.5269(4) 0.2881(6)
C34 C 1.1050(5) 0.5540(4) 0.4562(6)
C35 C 1.1262(4) 0.2901(4) 0.1945(5)
C36 C 1.1142(5) 0.2420(4) 0.3252(6)
C37 C 0.6752(5) 0.0742(4) -0.3103(6)
C38 C 0.5788(5) 0.1091(4) -0.3734(7)
C39 C 0.5376(4) 0.2082(4) -0.3506(6)
H1 H 0.65910 0.45650 -0.16670
H2 H 0.84820 0.45650 0.03330
H3 H 0.50000 0.69570 -0.10000
H4 H 0.93180 0.67390 0.23330
H5 H 0.90910 0.02170 -0.33330
H6 H 0.97730 0.08700 -0.20000
H7 H 0.84090 0.15220 -0.43330
H8 H 0.93180 0.21740 -0.33330
H9 H 0.95450 0.10870 -0.46670
H10 H 0.90910 0.04350 0.00000
H11 H 0.84090 0.00000 -0.10000
H12 H 0.70450 0.10870 0.03330
H13 H 0.77270 0.17390 0.13330
H14 H 0.79550 0.04350 0.16670
H15 H 0.29550 0.43480 -0.33330
H16 H 0.34090 0.32610 -0.33330
H17 H 0.43180 0.32610 -0.56670
H18 H 0.36360 0.43480 -0.56670
H19 H 0.31820 0.32610 -0.60000
H20 H 0.27270 0.58700 -0.26670
H21 H 0.34090 0.67390 -0.13330
H22 H 0.36360 0.63040 -0.46670
H23 H 0.40910 0.69570 -0.36670
H24 H 0.29950 0.71740 -0.40000
H25 H 0.50000 0.84780 0.03330
H26 H 0.59090 0.93480 0.10000
H27 H 0.54550 0.93480 -0.16670
H28 H 0.56820 0.82610 -0.20000
H29 H 0.65910 0.89130 -0.13330
H30 H 0.88640 0.82610 0.20000
H31 H 0.79550 0.91300 0.13330
H32 H 0.79550 0.82610 0.40000
H33 H 0.68180 0.91300 0.33330
H34 H 0.79550 0.95650 0.43330
H35 H 1.11360 0.58700 0.26670
H36 H 1.18180 0.47830 0.26670
H37 H 1.11360 0.50000 0.50000
H38 H 1.04550 0.60870 0.46670
H39 H 1.18180 0.58700 0.50000
H40 H 1.13640 0.23910 0.10000
H41 H 1.20450 0.30430 0.20000
H42 H 1.04550 0.21740 0.33330
H43 H 1.18180 0.19570 0.33330
H44 H 1.11360 0.30430 0.43330
H45 H 0.70450 0.00000 -0.33330
H46 H 0.54550 0.06520 -0.43330
H47 H 0.45450 0.21740 -0.40000
loop_
_geom_bond_atom_site_label_1
_geom_bond_atom_site_label_2
_geom_bond_site_symmetry_1
_geom_bond_site_symmetry_2
N1 C1 1_555 1_555
N2 C6 1_555 1_555
N3 C11 1_555 1_555
N4 C16 1_555 1_555
C1 C2 1_555 1_555
C2 C3 1_555 1_555
C3 C4 1_555 1_555
C4 N1 1_555 1_555
C5 C4 1_555 1_555
C6 C5 1_555 1_555
C7 C6 1_555 1_555
C8 C7 1_555 1_555
C9 N2 1_555 1_555
C10 C9 1_555 1_555
C11 C10 1_555 1_555
C12 C11 1_555 1_555
C13 C12 1_555 1_555
C14 N3 1_555 1_555
C15 C14 1_555 1_555
C16 C15 1_555 1_555
C17 C16 1_555 1_555
C18 C17 1_555 1_555
C19 N4 1_555 1_555
C20 C1 1_555 1_555
C21 C2 1_555 1_555
C22 C21 1_555 1_555
C23 C2 1_555 1_555
C24 C23 1_555 1_555
C25 C7 1_555 1_555
C26 C25 1_555 1_555
C27 C8 1_555 1_555
C28 C27 1_555 1_555
C29 C12 1_555 1_555
C30 C29 1_555 1_555
C31 C13 1_555 1_555
C32 C31 1_555 1_555
C33 C17 1_555 1_555
C34 C33 1_555 1_555
C35 C18 1_555 1_555
C36 C35 1_555 1_555
C37 C3 1_555 1_555
C38 C37 1_555 1_555
C39 C5 1_555 1_555
H1 N2 1_555 1_555
H2 N4 1_555 1_555
H3 C10 1_555 1_555
H4 C15 1_555 1_555
H5 C21 1_555 1_555
H6 C21 1_555 1_555
H7 C22 1_555 1_555
H8 C22 1_555 1_555
H9 C22 1_555 1_555
H10 C23 1_555 1_555
H11 C23 1_555 1_555
H12 C24 1_555 1_555
H13 C24 1_555 1_555
H14 C24 1_555 1_555
H15 C25 1_555 1_555
H16 C25 1_555 1_555
H17 C26 1_555 1_555
H18 C26 1_555 1_555
H19 C26 1_555 1_555
H20 C27 1_555 1_555
H21 C27 1_555 1_555
H22 C28 1_555 1_555
H23 C28 1_555 1_555
H24 C28 1_555 1_555
H25 C29 1_555 1_555
H26 C29 1_555 1_555
H27 C30 1_555 1_555
H28 C30 1_555 1_555
H29 C30 1_555 1_555
H30 C31 1_555 1_555
H31 C31 1_555 1_555
H32 C32 1_555 1_555
H33 C32 1_555 1_555
H34 C32 1_555 1_555
H35 C33 1_555 1_555
H36 C33 1_555 1_555
H37 C34 1_555 1_555
H38 C34 1_555 1_555
H39 C34 1_555 1_555
H40 C35 1_555 1_555
H41 C35 1_555 1_555
H42 C36 1_555 1_555
H43 C36 1_555 1_555
H44 C36 1_555 1_555
H45 C37 1_555 1_555
H46 C38 1_555 1_555
H47 C39 1_555 1_555
C8 C9 1_555 1_555
C13 C14 1_555 1_555
C18 C19 1_555 1_555
C19 C20 1_555 1_555
C38 C39 1_555 1_555

#END
