
#######################################################################
#
#                 Cambridge Crystallographic Data Centre
#                                CCDC 
#
#######################################################################
#
# If this CIF has been generated from an entry in the Cambridge 
# Structural Database, then it will include bibliographic, chemical, 
# crystal, experimental, refinement or atomic coordinate data resulting 
# from the CCDC's data processing and validation procedures.
#
#######################################################################

data_JUNZOH
_chemical_formula_moiety         'C38 H52 N4'
_chemical_name_systematic        
2,3-Dihydro-5,10-dimethyl-2,3,7,8,12,13,17,18-octaethylchlorin
_symmetry_cell_setting           monoclinic
_symmetry_space_group_name_H-M   'C 2/c'
_symmetry_Int_Tables_number      15
_space_group_name_Hall           '-C 2yn'
loop_
_symmetry_equiv_pos_site_id
_symmetry_equiv_pos_as_xyz
1 x,y,z
2 1/2+x,1/2+y,z
3 -x,y,1/2-z
4 1/2-x,1/2+y,1/2-z
5 -x,-y,-z
6 1/2-x,1/2-y,-z
7 x,-y,1/2+z
8 1/2+x,1/2-y,1/2+z
_cell_length_a                   22.249(9)
_cell_length_b                   11.704(3)
_cell_length_c                   27.646(6)
_cell_angle_alpha                90
_cell_angle_beta                 105.56(3)
_cell_angle_gamma                90
_cell_volume                     6935.24
_cell_formula_units_Z            8
loop_
_atom_site_label
_atom_site_type_symbol
_atom_site_fract_x
_atom_site_fract_y
_atom_site_fract_z
N1 N 0.8546(1) -0.1721(3) 0.9035(1)
N2 N 0.8299(2) -0.2936(3) 0.9881(1)
N3 N 0.8820(2) -0.0944(3) 1.0488(1)
N4 N 0.9091(2) 0.0254(3) 0.9643(1)
C1 C 0.8610(2) -0.0986 0.8668(2)
C2 C 0.8361(2) -0.1523(4) 0.8152(2)
C3 C 0.8434(2) -0.2789(4) 0.8288(2)
C4 C 0.8374(2) -0.2768(4) 0.8826(1)
C5 C 0.8173(2) -0.3719(3) 0.9042(2)
C6 C 0.8106(2) -0.3788(3) 0.9529(2)
C7 C 0.7828(2) -0.4664(3) 0.9774(2)
C8 C 0.7865(2) -0.4311(4) 1.0250(2)
C9 C 0.8167(2) -0.3215(4) 1.0323(2)
C10 C 0.8298(2) -0.2570(4) 1.0751(2)
C11 C 0.8626(2) -0.1535(4) 1.0844(1)
C12 C 0.8816(2) -0.0993(4) 1.1336(2)
C13 C 0.9156(2) -0.0069(4) 1.1272(2)
C14 C 0.9145(2) -0.0043(4) 1.0748(2)
C15 C 0.9421(2) 0.0804(4) 1.0526(2)
C16 C 0.9393(2) 0.0951(3) 1.0029(2)
C17 C 0.9666(2) 0.1845(4) 0.9810(2)
C18 C 0.9521(2) 0.1675(4) 0.9302(2)
C19 C 0.9142(2) 0.0656(4) 0.9190(2)
C20 C 0.8868(2) 0.0116(4) 0.8729(2)
C21 C 0.8010(2) -0.4763(4) 0.8708(2)
C22 C 0.8842(3) 0.0750(4) 0.8247(2)
C23 C 0.7675(3) -0.1178(4) 0.7926(2)
C24 C 0.7396(3) -0.1632(6) 0.7395(2)
C25 C 0.9064(3) -0.3293(4) 0.8274(2)
C26 C 0.9131(4) -0.3616(7) 0.7774(3)
C27 C 0.7500(2) -0.5757(4) 0.9547(2)
C28 C 0.7946(3) -0.6779(4) 0.9618(2)
C29 C 0.7645(2) -0.4908(4) 1.0649(2)
C30 C 0.8152(3) -0.5533(5) 1.1022(2)
C31 C 0.8678(3) -0.1436(5) 1.1808(2)
C32 C 0.9120(3) -0.2359(6) 1.2053(2)
C33 C 0.9471(3) 0.0784(5) 1.1669(2)
C34 C 0.9096(4) 0.1805(7) 1.1635(3)
C35 C 1.0055(2) 0.2801(4) 1.0116(2)
C36 C 0.9674(3) 0.3736(4) 1.0273(2)
C37 C 0.9804(2) 0.2392(4) 0.8956(2)
C38 C 0.9429(3) 0.3472(4) 0.8768(2)
H1 H 0.85140 -0.22500 0.97830
H2 H 0.88690 -0.04330 0.96860
H3 H 0.86800 -0.12670 0.79100
H4 H 0.81080 -0.32500 0.81520
H5 H 0.81170 -0.29600 1.10540
H6 H 0.96880 0.14190 1.07710
H7 H 0.82400 -0.50000 0.84720
H8 H 0.75680 -0.47500 0.84780
H9 H 0.80080 -0.55030 0.89060
H10 H 0.86490 0.07500 0.79350
H11 H 0.88970 0.16540 0.83330
H12 H 0.93290 0.06800 0.82030
H13 H 0.75600 -0.04020 0.79940
H14 H 0.74469 -0.16563 0.81272
H15 H 0.69290 -0.15080 0.73270
H16 H 0.76590 -0.13250 0.71840
H17 H 0.74677 -0.24905 0.74112
H18 H 0.93240 -0.25000 0.83700
H19 H 0.92217 -0.38964 0.85452
H20 H 0.86490 -0.37500 0.76090
H21 H 0.94284 -0.42091 0.77025
H22 H 0.90730 -0.28270 0.76380
H23 H 0.71620 -0.60000 0.96740
H24 H 0.72970 -0.55000 0.91300
H25 H 0.82370 -0.69850 1.00000
H26 H 0.83780 -0.67500 0.94570
H27 H 0.77180 -0.74660 0.94080
H28 H 0.74030 -0.43330 1.08170
H29 H 0.72630 -0.54500 1.04570
H30 H 0.85080 -0.50000 1.12050
H31 H 0.79820 -0.58820 1.13220
H32 H 0.83650 -0.60620 1.09190
H33 H 0.87000 -0.08200 1.20510
H34 H 0.82060 -0.16650 1.17190
H35 H 0.91750 -0.29940 1.18710
H36 H 0.95480 -0.20730 1.21790
H37 H 0.90740 -0.24280 1.24330
H38 H 0.98060 0.07820 1.19800
H39 H 0.97500 0.11000 1.14520
H40 H 0.86550 0.18060 1.16400
H41 H 0.90660 0.20595 1.12731
H42 H 0.93320 0.24990 1.18380
H43 H 1.03190 0.30660 0.98960
H44 H 1.03680 0.24500 1.04550
H45 H 1.00000 0.42500 1.05430
H46 H 0.93490 0.34450 1.04460
H47 H 0.93390 0.40540 0.99270
H48 H 1.02540 0.26150 0.91290
H49 H 0.98002 0.19106 0.86535
H50 H 0.89630 0.33180 0.86030
H51 H 0.96920 0.38960 0.85650
H52 H 0.94640 0.39530 0.91210
loop_
_geom_bond_atom_site_label_1
_geom_bond_atom_site_label_2
_geom_bond_site_symmetry_1
_geom_bond_site_symmetry_2
N1 C1 1_555 1_555
N2 C6 1_555 1_555
N3 C11 1_555 1_555
N4 C16 1_555 1_555
C1 C2 1_555 1_555
C2 C3 1_555 1_555
C3 C4 1_555 1_555
C4 N1 1_555 1_555
C5 C4 1_555 1_555
C6 C5 1_555 1_555
C7 C6 1_555 1_555
C8 C7 1_555 1_555
C9 N2 1_555 1_555
C10 C9 1_555 1_555
C11 C10 1_555 1_555
C12 C11 1_555 1_555
C13 C12 1_555 1_555
C14 N3 1_555 1_555
C15 C14 1_555 1_555
C16 C15 1_555 1_555
C17 C16 1_555 1_555
C18 C17 1_555 1_555
C19 N4 1_555 1_555
C20 C1 1_555 1_555
C21 C5 1_555 1_555
C22 C20 1_555 1_555
C23 C2 1_555 1_555
C24 C23 1_555 1_555
C25 C3 1_555 1_555
C26 C25 1_555 1_555
C27 C7 1_555 1_555
C28 C27 1_555 1_555
C29 C8 1_555 1_555
C30 C29 1_555 1_555
C31 C12 1_555 1_555
C32 C31 1_555 1_555
C33 C13 1_555 1_555
C34 C33 1_555 1_555
C35 C17 1_555 1_555
C36 C35 1_555 1_555
C37 C18 1_555 1_555
C38 C37 1_555 1_555
H1 N2 1_555 1_555
H2 N4 1_555 1_555
H3 C2 1_555 1_555
H4 C3 1_555 1_555
H5 C10 1_555 1_555
H6 C15 1_555 1_555
H7 C21 1_555 1_555
H8 C21 1_555 1_555
H9 C21 1_555 1_555
H10 C22 1_555 1_555
H11 C22 1_555 1_555
H12 C22 1_555 1_555
H13 C23 1_555 1_555
H14 C23 1_555 1_555
H15 C24 1_555 1_555
H16 C24 1_555 1_555
H17 C24 1_555 1_555
H18 C25 1_555 1_555
H19 C25 1_555 1_555
H20 C26 1_555 1_555
H21 C26 1_555 1_555
H22 C26 1_555 1_555
H23 C27 1_555 1_555
H24 C27 1_555 1_555
H25 C28 1_555 1_555
H26 C28 1_555 1_555
H27 C28 1_555 1_555
H28 C29 1_555 1_555
H29 C29 1_555 1_555
H30 C30 1_555 1_555
H31 C30 1_555 1_555
H32 C30 1_555 1_555
H33 C31 1_555 1_555
H34 C31 1_555 1_555
H35 C32 1_555 1_555
H36 C32 1_555 1_555
H37 C32 1_555 1_555
H38 C33 1_555 1_555
H39 C33 1_555 1_555
H40 C34 1_555 1_555
H41 C34 1_555 1_555
H42 C34 1_555 1_555
H43 C35 1_555 1_555
H44 C35 1_555 1_555
H45 C36 1_555 1_555
H46 C36 1_555 1_555
H47 C36 1_555 1_555
H48 C37 1_555 1_555
H49 C37 1_555 1_555
H50 C38 1_555 1_555
H51 C38 1_555 1_555
H52 C38 1_555 1_555
C8 C9 1_555 1_555
C13 C14 1_555 1_555
C18 C19 1_555 1_555
C19 C20 1_555 1_555

#END
