
#######################################################################
#
#                 Cambridge Crystallographic Data Centre
#                                CCDC 
#
#######################################################################
#
# If this CIF has been generated from an entry in the Cambridge 
# Structural Database, then it will include bibliographic, chemical, 
# crystal, experimental, refinement or atomic coordinate data resulting 
# from the CCDC's data processing and validation procedures.
#
#######################################################################

data_JUPCAA
_chemical_formula_moiety         'C10 H11 N4 O2 S1 1+,0.5(I2),Cl1 1-'
_chemical_name_systematic        
'4-(Pyrimidin-2(1H)-ylidenesulfamoyl)anilinium chloride hemikis(di-iodine)'
_symmetry_cell_setting           triclinic
_symmetry_space_group_name_H-M   'P -1'
_symmetry_Int_Tables_number      2
_space_group_name_Hall           '-P 1'
loop_
_symmetry_equiv_pos_site_id
_symmetry_equiv_pos_as_xyz
1 x,y,z
2 -x,-y,-z
_cell_length_a                   5.6561(6)
_cell_length_b                   11.4126(12)
_cell_length_c                   12.2064(12)
_cell_angle_alpha                116.6140(10)
_cell_angle_beta                 91.131(2)
_cell_angle_gamma                104.114(2)
_cell_volume                     675.581
_exptl_crystal_colour            brown
_exptl_crystal_description       needle
_cell_formula_units_Z            2
_exptl_crystal_recrystallization_method methanol
loop_
_atom_site_label
_atom_site_type_symbol
_atom_site_fract_x
_atom_site_fract_y
_atom_site_fract_z
I1 I 0.58942(2) 0.49876(2) 0.10359(2)
I1A I 0.41058(2) 0.50124(2) -0.10359(2)
Cl1 Cl 0.73672(7) 0.48460(4) 0.35449(4)
S1 S 0.65231(6) 1.05445(3) 0.27490(3)
O1 O 0.4847(2) 1.13865(12) 0.31274(11)
O2 O 0.9072(2) 1.12276(12) 0.32847(11)
N1 N 0.6992(2) 0.87384(13) -0.06693(11)
H1 H 0.607(6) 0.915(3) -0.084(3)
N2 N 0.8914(2) 0.85595(13) 0.09550(12)
N3 N 0.6031(2) 0.98561(12) 0.12642(11)
N4 N 0.3231(2) 0.63467(13) 0.44716(12)
H2 H 0.351(6) 0.680(3) 0.533(3)
H3 H 0.178(6) 0.592(3) 0.421(3)
H4 H 0.404(6) 0.582(3) 0.421(3)
C1 C 0.7347(2) 0.90506(13) 0.05562(12)
C2 C 0.8168(3) 0.79430(15) -0.15112(13)
H5 H 0.792(6) 0.787(3) -0.227(3)
C3 C 0.9793(3) 0.74348(16) -0.11327(14)
H6 H 1.063(6) 0.697(3) -0.165(3)
C4 C 1.0081(3) 0.77750(16) 0.01206(14)
H7 H 1.129(6) 0.747(4) 0.041(3)
C5 C 0.5522(2) 0.92560(13) 0.32055(12)
C6 C 0.3033(2) 0.85515(15) 0.29677(13)
H8 H 0.192(6) 0.880(3) 0.255(3)
C7 C 0.2265(3) 0.75688(14) 0.33686(13)
H9 H 0.065(6) 0.704(3) 0.321(3)
C8 C 0.4000(2) 0.73559(13) 0.40264(12)
C9 C 0.6479(3) 0.80766(14) 0.42888(13)
H10 H 0.763(6) 0.793(3) 0.472(3)
C10 C 0.7248(2) 0.90257(14) 0.38554(13)
H11 H 0.894(6) 0.954(3) 0.402(3)
loop_
_geom_bond_atom_site_label_1
_geom_bond_atom_site_label_2
_geom_bond_site_symmetry_1
_geom_bond_site_symmetry_2
I1 I1A 1_555 1_555
S1 O1 1_555 1_555
O2 S1 1_555 1_555
N1 H1 1_555 1_555
N2 C1 1_555 1_555
N3 S1 1_555 1_555
N4 H2 1_555 1_555
H3 N4 1_555 1_555
H4 N4 1_555 1_555
C1 N1 1_555 1_555
C2 N1 1_555 1_555
H5 C2 1_555 1_555
C3 C2 1_555 1_555
H6 C3 1_555 1_555
C4 N2 1_555 1_555
H7 C4 1_555 1_555
C5 S1 1_555 1_555
C6 C5 1_555 1_555
H8 C6 1_555 1_555
C7 C6 1_555 1_555
H9 C7 1_555 1_555
C8 N4 1_555 1_555
C9 C8 1_555 1_555
H10 C9 1_555 1_555
C10 C5 1_555 1_555
H11 C10 1_555 1_555
N3 C1 1_555 1_555
C3 C4 1_555 1_555
C7 C8 1_555 1_555
C9 C10 1_555 1_555

#END
