
#######################################################################
#
#                 Cambridge Crystallographic Data Centre
#                                CCDC 
#
#######################################################################
#
# If this CIF has been generated from an entry in the Cambridge 
# Structural Database, then it will include bibliographic, chemical, 
# crystal, experimental, refinement or atomic coordinate data resulting 
# from the CCDC's data processing and validation procedures.
#
#######################################################################

data_JUPDAB
_chemical_formula_moiety         'C10 H11 N4 O2 S1 1+,C2 H6 O2,I3 1-'
_chemical_name_systematic        
'4-(Pyrimidin-2(1H)-ylidenesulfamoyl)anilinium tri-iodide ethylene glycol solvate'
_symmetry_cell_setting           triclinic
_symmetry_space_group_name_H-M   'P -1'
_symmetry_Int_Tables_number      2
_space_group_name_Hall           '-P 1'
loop_
_symmetry_equiv_pos_site_id
_symmetry_equiv_pos_as_xyz
1 x,y,z
2 -x,-y,-z
_cell_length_a                   8.0577(9)
_cell_length_b                   10.8694(12)
_cell_length_c                   11.7471(13)
_cell_angle_alpha                84.291(2)
_cell_angle_beta                 74.230(2)
_cell_angle_gamma                85.792(2)
_cell_volume                     984.048
_exptl_crystal_colour            yellow
_exptl_crystal_description       plate
_cell_formula_units_Z            2
_exptl_crystal_recrystallization_method 'methanol/ethylene glycol'
loop_
_atom_site_label
_atom_site_type_symbol
_atom_site_fract_x
_atom_site_fract_y
_atom_site_fract_z
I1 I 0.37874(2) 0.66162(2) 0.37869(2)
I2 I 0.32311(3) 0.49592(2) 0.20208(2)
I3 I 0.41079(3) 0.82932(2) 0.53919(2)
S1 S 0.12809(9) 1.04045(6) 0.21246(6)
O1 O 0.1491(3) 1.16989(18) 0.21897(18)
O2 O 0.0396(3) 1.01369(19) 0.12664(17)
N1 N -0.0597(3) 0.8373(2) 0.4925(2)
H1 H -0.058(5) 0.892(3) 0.545(3)
N2 N -0.0376(3) 0.7958(2) 0.2963(2)
N3 N 0.0405(3) 0.9876(2) 0.3455(2)
N4 N 0.8441(3) 0.8123(3) 0.0814(2)
H2 H 0.916(6) 0.849(4) 0.016(4)
H3 H 0.909(5) 0.821(4) 0.127(4)
H4 H 0.847(4) 0.740(4) 0.066(3)
C1 C -0.0163(3) 0.8734(3) 0.3736(2)
C2 C -0.1164(4) 0.7247(3) 0.5353(3)
H5 H -0.1441 0.7021 0.6183
C3 C -0.1342(4) 0.6423(3) 0.4592(3)
H6 H -0.1724 0.5614 0.4866
C4 C -0.0935(4) 0.6835(3) 0.3398(3)
H7 H -0.1062 0.6282 0.2854
C5 C 0.3377(3) 0.9685(3) 0.1734(2)
C6 C 0.4605(4) 1.0093(3) 0.2220(3)
H8 H 0.4306 1.0724 0.2755
C7 C 0.6271(4) 0.9571(3) 0.1921(3)
H9 H 0.7130 0.9844 0.2241
C8 C 0.6661(4) 0.8650(3) 0.1152(2)
C9 C 0.5447(4) 0.8233(3) 0.0663(2)
H10 H 0.5757 0.7604 0.0127
C10 C 0.3762(4) 0.8747(3) 0.0967(2)
H11 H 0.2899 0.8462 0.0658
O3 O 0.8532(3) 0.3134(2) 0.0029(2)
H12 H 0.797(7) 0.377(4) -0.028(5)
O4 O 0.7711(3) 0.5500(2) 0.1111(2)
H13 H 0.6573(17) 0.539(4) 0.131(4)
C11 C 0.7870(5) 0.3232(3) 0.1274(3)
H14 H 0.8314 0.2510 0.1707
H15 H 0.6596 0.3211 0.1490
C12 C 0.8362(5) 0.4398(3) 0.1658(3)
H16 H 0.7915 0.4399 0.2531
H17 H 0.9637 0.4407 0.1460
loop_
_geom_bond_atom_site_label_1
_geom_bond_atom_site_label_2
_geom_bond_site_symmetry_1
_geom_bond_site_symmetry_2
I1 I2 1_555 1_555
I3 I1 1_555 1_555
S1 O1 1_555 1_555
O2 S1 1_555 1_555
N1 H1 1_555 1_555
N2 C1 1_555 1_555
N3 S1 1_555 1_555
N4 H2 1_555 1_555
H3 N4 1_555 1_555
H4 N4 1_555 1_555
C1 N1 1_555 1_555
C2 N1 1_555 1_555
H5 C2 1_555 1_555
C3 C2 1_555 1_555
H6 C3 1_555 1_555
C4 N2 1_555 1_555
H7 C4 1_555 1_555
C5 S1 1_555 1_555
C6 C5 1_555 1_555
H8 C6 1_555 1_555
C7 C6 1_555 1_555
H9 C7 1_555 1_555
C8 N4 1_555 1_555
C9 C8 1_555 1_555
H10 C9 1_555 1_555
C10 C5 1_555 1_555
H11 C10 1_555 1_555
O3 H12 1_555 1_555
O4 H13 1_555 1_555
C11 O3 1_555 1_555
H14 C11 1_555 1_555
H15 C11 1_555 1_555
C12 O4 1_555 1_555
H16 C12 1_555 1_555
H17 C12 1_555 1_555
N3 C1 1_555 1_555
C3 C4 1_555 1_555
C7 C8 1_555 1_555
C9 C10 1_555 1_555
C11 C12 1_555 1_555

#END
