
#######################################################################
#
#                 Cambridge Crystallographic Data Centre
#                                CCDC 
#
#######################################################################
#
# If this CIF has been generated from an entry in the Cambridge 
# Structural Database, then it will include bibliographic, chemical, 
# crystal, experimental, refinement or atomic coordinate data resulting 
# from the CCDC's data processing and validation procedures.
#
#######################################################################

data_JUPDIH
_chemical_formula_moiety         'C22 H22'
_chemical_name_systematic        
14,17-Dimethyl-(2)(1,3)azuleno(2)paracyclophane
_symmetry_cell_setting           monoclinic
_symmetry_space_group_name_H-M   'P 21'
_symmetry_Int_Tables_number      4
_space_group_name_Hall           'P 2yb'
loop_
_symmetry_equiv_pos_site_id
_symmetry_equiv_pos_as_xyz
1 x,y,z
2 -x,1/2+y,-z
_cell_length_a                   7.9870(2)
_cell_length_b                   12.6805(4)
_cell_length_c                   8.1337(3)
_cell_angle_alpha                90
_cell_angle_beta                 105.788(2)
_cell_angle_gamma                90
_cell_volume                     792.697
_exptl_crystal_colour            blue
_exptl_crystal_description       plates
_chemical_melting_point          153deg.C
_cell_formula_units_Z            2
loop_
_atom_site_label
_atom_site_type_symbol
_atom_site_fract_x
_atom_site_fract_y
_atom_site_fract_z
C1 C 0.21365(19) 0.30967(12) 0.56792(18)
H1 H 0.1312 0.2768 0.6241
H2 H 0.3327 0.3025 0.6449
C2 C 0.20186(17) 0.25224(12) 0.39214(17)
H3 H 0.3191 0.2502 0.3732
H4 H 0.1635 0.1785 0.3991
C3 C 0.07733(16) 0.30593(10) 0.24108(17)
C4 C -0.10511(17) 0.29714(11) 0.18493(17)
C5 C -0.20495(18) 0.21922(12) 0.23307(18)
H5 H -0.1420 0.1681 0.3112
C6 C -0.38496(18) 0.20608(13) 0.18194(19)
H6 H -0.4278 0.1457 0.2265
C7 C -0.51038(18) 0.26941(14) 0.0746(2)
H7 H -0.6267 0.2454 0.0559
C8 C -0.49212(18) 0.36245(14) -0.00989(19)
H8 H -0.5975 0.3946 -0.0728
C9 C -0.34036(17) 0.41464(13) -0.01449(17)
H9 H -0.3563 0.4772 -0.0811
C10 C -0.16867(17) 0.38801(11) 0.06479(17)
C11 C -0.02020(17) 0.44457(11) 0.05509(18)
C12 C 0.12485(17) 0.39076(11) 0.15369(17)
H10 H 0.2417 0.4095 0.1606
C13 C -0.0104(2) 0.55583(12) -0.00701(19)
H11 H -0.1091 0.5682 -0.1092
H12 H 0.0987 0.5645 -0.0412
C14 C -0.0158(2) 0.64047(12) 0.13375(19)
H13 H 0.0527 0.7032 0.1198
H14 H -0.1375 0.6630 0.1207
C15 C 0.05886(18) 0.59327(11) 0.30968(18)
C16 C 0.23739(18) 0.57607(12) 0.37772(19)
C17 C 0.28842(18) 0.49120(12) 0.48966(18)
H15 H 0.4092 0.4786 0.5373
C18 C 0.16988(18) 0.42439(12) 0.53435(17)
C19 C -0.00494(17) 0.45816(12) 0.49907(18)
C20 C -0.05530(18) 0.54130(11) 0.38506(17)
H16 H -0.1731 0.5638 0.3571
C21 C -0.13807(19) 0.40202(13) 0.56721(19)
H17 H -0.2485 0.4406 0.5335
H18 H -0.0971 0.3985 0.6921
H19 H -0.1553 0.3304 0.5203
C22 C 0.3709(2) 0.63599(15) 0.3147(2)
H20 H 0.4878 0.6183 0.3855
H21 H 0.3511 0.7119 0.3220
H22 H 0.3607 0.6167 0.1957
loop_
_geom_bond_atom_site_label_1
_geom_bond_atom_site_label_2
_geom_bond_site_symmetry_1
_geom_bond_site_symmetry_2
C1 H1 1_555 1_555
H2 C1 1_555 1_555
C2 C1 1_555 1_555
H3 C2 1_555 1_555
H4 C2 1_555 1_555
C3 C2 1_555 1_555
C4 C3 1_555 1_555
C5 C4 1_555 1_555
H5 C5 1_555 1_555
C6 C5 1_555 1_555
H6 C6 1_555 1_555
C7 C6 1_555 1_555
H7 C7 1_555 1_555
C8 C7 1_555 1_555
H8 C8 1_555 1_555
C9 C8 1_555 1_555
H9 C9 1_555 1_555
C10 C4 1_555 1_555
C11 C10 1_555 1_555
C12 C3 1_555 1_555
H10 C12 1_555 1_555
C13 C11 1_555 1_555
H11 C13 1_555 1_555
H12 C13 1_555 1_555
C14 C13 1_555 1_555
H13 C14 1_555 1_555
H14 C14 1_555 1_555
C15 C14 1_555 1_555
C16 C15 1_555 1_555
C17 C16 1_555 1_555
H15 C17 1_555 1_555
C18 C1 1_555 1_555
C19 C18 1_555 1_555
C20 C15 1_555 1_555
H16 C20 1_555 1_555
C21 C19 1_555 1_555
H17 C21 1_555 1_555
H18 C21 1_555 1_555
H19 C21 1_555 1_555
C22 C16 1_555 1_555
H20 C22 1_555 1_555
H21 C22 1_555 1_555
H22 C22 1_555 1_555
C9 C10 1_555 1_555
C11 C12 1_555 1_555
C17 C18 1_555 1_555
C19 C20 1_555 1_555

#END
