
#######################################################################
#
#                 Cambridge Crystallographic Data Centre
#                                CCDC 
#
#######################################################################
#
# If this CIF has been generated from an entry in the Cambridge 
# Structural Database, then it will include bibliographic, chemical, 
# crystal, experimental, refinement or atomic coordinate data resulting 
# from the CCDC's data processing and validation procedures.
#
#######################################################################

data_JUPVIZ
_chemical_formula_moiety         'C33 H34 O4,C4 H11 N1'
_chemical_name_systematic        
"(4R,5S)-2-t-Butyl-\a,\a,\a',\a'-tetraphenyl-1,3-dioxolane-4,5-dimethanol isopropyl-methylamine clathrate"
_symmetry_cell_setting           monoclinic
_symmetry_space_group_name_H-M   'P 21'
_symmetry_Int_Tables_number      4
_space_group_name_Hall           'P 2yb'
loop_
_symmetry_equiv_pos_site_id
_symmetry_equiv_pos_as_xyz
1 x,y,z
2 -x,1/2+y,-z
_cell_length_a                   10.177(5)
_cell_length_b                   10.833(6)
_cell_length_c                   15.199(7)
_cell_angle_alpha                90
_cell_angle_beta                 98.05(4)
_cell_angle_gamma                90
_cell_volume                     1659.14
_exptl_crystal_colour            colorless
_cell_formula_units_Z            2
loop_
_atom_site_label
_atom_site_type_symbol
_atom_site_fract_x
_atom_site_fract_y
_atom_site_fract_z
C1 C 0.5278(3) 0.3418(4) 0.0972(2)
H1 H 0.5664(3) 0.3826(4) 0.0510(2)
C2 C 0.4032(4) 0.2727(5) 0.0566(2)
C3 C 0.4437(6) 0.1746(6) -0.0052(4)
H2 H 0.4846(6) 0.2121(6) -0.0517(4)
H3 H 0.3680(6) 0.1275(6) -0.0308(4)
H4 H 0.5063(6) 0.1211(6) 0.0290(4)
C4 C 0.3361(5) 0.2138(7) 0.1282(4)
H5 H 0.3086(5) 0.2772(7) 0.1658(4)
H6 H 0.3985(5) 0.1603(7) 0.1627(4)
H7 H 0.2602(5) 0.1668(7) 0.1029(4)
C5 C 0.3119(6) 0.3650(7) 0.0026(4)
H8 H 0.3562(6) 0.3999(7) -0.0433(4)
H9 H 0.2901(6) 0.4294(7) 0.0414(4)
H10 H 0.2321(6) 0.3246(7) -0.0237(4)
O1 O 0.6229(2) 0.2613 0.1435(2)
O2 O 0.5009(2) 0.4299(3) 0.1598(1)
C6 C 0.6884(3) 0.3232(4) 0.2201(2)
H11 H 0.6643(3) 0.2844(4) 0.2723(2)
C7 C 0.6259(3) 0.4538(4) 0.2110(2)
H12 H 0.6770(3) 0.5026(4) 0.1755(2)
C8 C 0.8416(3) 0.3187(4) 0.2263(2)
C9 C 0.8986(4) 0.1873(4) 0.2288(2)
C10 C 0.8260(5) 0.0816(5) 0.2077(4)
H13 H 0.7326(5) 0.0887(5) 0.1876(4)
C11 C 0.8858(6) -0.0341(6) 0.2157(4)
H14 H 0.8345(6) -0.1071(6) 0.1998(4)
C12 C 1.0176(5) -0.0450(6) 0.2452(4)
H15 H 1.0571(5) -0.1253(6) 0.2540(4)
C13 C 1.0948(5) 0.0625(7) 0.2636(4)
H16 H 1.1883(5) 0.0531(7) 0.2822(4)
C14 C 1.0350(4) 0.1764(5) 0.2562(3)
H17 H 1.0880(4) 0.2493(5) 0.2682(3)
C15 C 0.8908(3) 0.3912(4) 0.1502(2)
C16 C 0.9515(5) 0.5038(5) 0.1639(3)
H18 H 0.9712(5) 0.5354(5) 0.2233(3)
C17 C 0.9901(5) 0.5693(6) 0.0921(4)
H19 H 1.0271(5) 0.6504(6) 0.1025(4)
C18 C 0.9696(4) 0.5225(6) 0.0091(3)
H20 H 1.0015(4) 0.5663(6) -0.0385(3)
C19 C 0.9097(5) 0.4102(6) -0.0051(3)
H21 H 0.8929(5) 0.3781(6) -0.0645(3)
C20 C 0.8688(4) 0.3432(5) 0.0651(2)
H22 H 0.8264(4) 0.2644(5) 0.0547(2)
C21 C 0.6096(3) 0.5296(4) 0.2960(2)
C22 C 0.5514(4) 0.4557(4) 0.3687(2)
C23 C 0.4525(5) 0.3689(5) 0.3504(3)
H23 H 0.4216(5) 0.3493(5) 0.2895(3)
C24 C 0.4015(7) 0.3073(6) 0.4168(4)
H24 H 0.3325(7) 0.2476(6) 0.4012(4)
C25 C 0.4466(8) 0.3312(7) 0.5043(4)
H25 H 0.4078(8) 0.2897(7) 0.5502(4)
C26 C 0.5455(9) 0.4167(7) 0.5241(3)
H26 H 0.5778(9) 0.4323(7) 0.5855(3)
C27 C 0.5972(6) 0.4806(5) 0.4571(3)
H27 H 0.6673(6) 0.5394(5) 0.4721(3)
C28 C 0.5258(4) 0.6434(4) 0.2677(2)
C29 C 0.3901(4) 0.6386(5) 0.2486(4)
H28 H 0.3441(4) 0.5630(5) 0.2566(4)
C30 C 0.3176(5) 0.7413(6) 0.2194(4)
H29 H 0.2231(5) 0.7339(6) 0.2043(4)
C31 C 0.3800(6) 0.8528(5) 0.2109(4)
H30 H 0.3274(6) 0.9236(5) 0.1912(4)
C32 C 0.5131(5) 0.8588(5) 0.2311(3)
H31 H 0.5561(5) 0.9363(5) 0.2243(3)
C33 C 0.5872(4) 0.7567(5) 0.2590(3)
H32 H 0.6818(4) 0.7635(5) 0.2736(3)
O3 O 0.8911(3) 0.3776(4) 0.3084(2)
H33 H 0.884(6) 0.339(6) 0.340(4)
O4 O 0.7381(3) 0.5733(4) 0.3307(2)
H34 H 0.783(6) 0.518(6) 0.329(4)
N1 N 0.859(1) 0.229(1) 0.4501(4)
C34 C 0.7419(9) 0.126(1) 0.4411(8)
C35 C 0.936(1) 0.210(1) 0.5136(6)
C36 C 0.913(1) 0.149(1) 0.5983(5)
C37 C 1.050(1) 0.309(1) 0.5112(7)
loop_
_geom_bond_atom_site_label_1
_geom_bond_atom_site_label_2
_geom_bond_site_symmetry_1
_geom_bond_site_symmetry_2
C1 H1 1_555 1_555
C2 C1 1_555 1_555
C3 C2 1_555 1_555
H2 C3 1_555 1_555
H3 C3 1_555 1_555
H4 C3 1_555 1_555
C4 C2 1_555 1_555
H5 C4 1_555 1_555
H6 C4 1_555 1_555
H7 C4 1_555 1_555
C5 C2 1_555 1_555
H8 C5 1_555 1_555
H9 C5 1_555 1_555
H10 C5 1_555 1_555
O1 C1 1_555 1_555
O2 C1 1_555 1_555
C6 O1 1_555 1_555
H11 C6 1_555 1_555
C7 O2 1_555 1_555
H12 C7 1_555 1_555
C8 C6 1_555 1_555
C9 C8 1_555 1_555
C10 C9 1_555 1_555
H13 C10 1_555 1_555
C11 C10 1_555 1_555
H14 C11 1_555 1_555
C12 C11 1_555 1_555
H15 C12 1_555 1_555
C13 C12 1_555 1_555
H16 C13 1_555 1_555
C14 C9 1_555 1_555
H17 C14 1_555 1_555
C15 C8 1_555 1_555
C16 C15 1_555 1_555
H18 C16 1_555 1_555
C17 C16 1_555 1_555
H19 C17 1_555 1_555
C18 C17 1_555 1_555
H20 C18 1_555 1_555
C19 C18 1_555 1_555
H21 C19 1_555 1_555
C20 C15 1_555 1_555
H22 C20 1_555 1_555
C21 C7 1_555 1_555
C22 C21 1_555 1_555
C23 C22 1_555 1_555
H23 C23 1_555 1_555
C24 C23 1_555 1_555
H24 C24 1_555 1_555
C25 C24 1_555 1_555
H25 C25 1_555 1_555
C26 C25 1_555 1_555
H26 C26 1_555 1_555
C27 C22 1_555 1_555
H27 C27 1_555 1_555
C28 C21 1_555 1_555
C29 C28 1_555 1_555
H28 C29 1_555 1_555
C30 C29 1_555 1_555
H29 C30 1_555 1_555
C31 C30 1_555 1_555
H30 C31 1_555 1_555
C32 C31 1_555 1_555
H31 C32 1_555 1_555
C33 C28 1_555 1_555
H32 C33 1_555 1_555
O3 C8 1_555 1_555
H33 O3 1_555 1_555
O4 C21 1_555 1_555
H34 O4 1_555 1_555
N1 C34 1_555 1_555
C35 N1 1_555 1_555
C36 C35 1_555 1_555
C37 C35 1_555 1_555
C6 C7 1_555 1_555
C13 C14 1_555 1_555
C19 C20 1_555 1_555
C26 C27 1_555 1_555
C32 C33 1_555 1_555

#END
