
#######################################################################
#
#                 Cambridge Crystallographic Data Centre
#                                CCDC 
#
#######################################################################
#
# If this CIF has been generated from an entry in the Cambridge 
# Structural Database, then it will include bibliographic, chemical, 
# crystal, experimental, refinement or atomic coordinate data resulting 
# from the CCDC's data processing and validation procedures.
#
#######################################################################

data_JUPVOF
_chemical_formula_moiety         'C35 H30 O4,C5 H11 N1'
_chemical_name_systematic        
"(4R,5R)-2-Phenyl-\a,\a,\a',\a'-tetraphenyl-1,3-dioxolane-4,5-dimethanol piperidine clathrate"
_symmetry_cell_setting           orthorhombic
_symmetry_space_group_name_H-M   'P 21 21 21'
_symmetry_Int_Tables_number      19
_space_group_name_Hall           'P 2ac 2ab'
loop_
_symmetry_equiv_pos_site_id
_symmetry_equiv_pos_as_xyz
1 x,y,z
2 1/2+x,1/2-y,-z
3 -x,1/2+y,1/2-z
4 1/2-x,-y,1/2+z
_cell_length_a                   9.593(2)
_cell_length_b                   18.394(6)
_cell_length_c                   18.819(6)
_cell_angle_alpha                90
_cell_angle_beta                 90
_cell_angle_gamma                90
_cell_volume                     3320.68
_exptl_crystal_colour            colorless
_cell_formula_units_Z            4
loop_
_atom_site_label
_atom_site_type_symbol
_atom_site_fract_x
_atom_site_fract_y
_atom_site_fract_z
C1 C 0.8193(6) 1.1110(3) 0.4153(3)
H1 H 0.7889(6) 1.1559(3) 0.4361(3)
C2 C 0.8630(7) 1.1219(4) 0.3389(3)
C3 C 0.9418(8) 1.0701(4) 0.3053(3)
H2 H 0.9728(8) 1.0278(4) 0.3307(3)
C4 C 0.9781(9) 1.0810(5) 0.2335(4)
H3 H 1.0329(9) 1.0456(5) 0.2086(4)
C5 C 0.931(1) 1.1443(6) 0.1996(3)
H4 H 0.958(1) 1.1525(6) 0.1512(3)
C6 C 0.8560(9) 1.1931(5) 0.2347(4)
H5 H 0.8203(9) 1.2343(5) 0.2093(4)
C7 C 0.8217(7) 1.1848(4) 0.3031(4)
H6 H 0.7719(7) 1.2215(4) 0.3288(4)
O1 O 0.9297(3) 1.0783(2) 0.4568(2)
O2 O 0.7122(4) 1.0579(2) 0.4162(2)
C8 C 0.8654(5) 1.0360(3) 0.5109(2)
H7 H 0.9102(5) 0.9895(3) 0.5131(2)
C9 C 0.7136(5) 1.0239(3) 0.4851(2)
H8 H 0.6517(5) 1.0505(3) 0.5156(2)
C10 C 0.8742(5) 1.0721(2) 0.5859(2)
C11 C 0.8062(5) 1.1479(3) 0.5840(2)
C12 C 0.6703(5) 1.1567(3) 0.6066(2)
H9 H 0.6220(5) 1.1161(3) 0.6271(2)
C13 C 0.6039(7) 1.2238(4) 0.6015(3)
H10 H 0.5088(7) 1.2299(4) 0.6159(3)
C14 C 0.6755(8) 1.2817(4) 0.5741(3)
H11 H 0.6319(8) 1.3285(4) 0.5708(3)
C15 C 0.8106(8) 1.2738(3) 0.5531(3)
H12 H 0.8625(8) 1.3140(3) 0.5343(3)
C16 C 0.8774(6) 1.2068(3) 0.5578(3)
H13 H 0.9725(6) 1.2005(3) 0.5433(3)
C17 C 1.0229(5) 1.0796(3) 0.6141(2)
C18 C 1.0402(6) 1.1077(3) 0.6820(3)
H14 H 0.9597(6) 1.1231(3) 0.7081(3)
C19 C 1.1718(6) 1.1136(3) 0.7118(3)
H15 H 1.1826(6) 1.1306(3) 0.7596(3)
C20 C 1.2858(6) 1.0941(4) 0.6738(3)
H16 H 1.3766(6) 1.0996(4) 0.6944(3)
C21 C 1.2714(6) 1.0671(4) 0.6075(4)
H17 H 1.3524(6) 1.0544(4) 0.5803(4)
C22 C 1.1419(6) 1.0604(3) 0.5776(3)
H18 H 1.1316(6) 1.0396(3) 0.5312(3)
O3 O 0.7969(3) 1.0255(2) 0.6315(1)
H19 H 0.8277(3) 0.9946(2) 0.6612(1)
C23 C 0.6629(6) 0.9456(3) 0.4792(2)
C24 C 0.7475(5) 0.9033(3) 0.4245(2)
C25 C 0.7266(6) 0.9161(3) 0.3520(3)
H20 H 0.6610(6) 0.9527(3) 0.3378(3)
C26 C 0.8025(6) 0.8784(3) 0.3021(3)
H21 H 0.7885(6) 0.8889(3) 0.2527(3)
C27 C 0.8959(7) 0.8284(4) 0.3215(4)
H22 H 0.9473(7) 0.8022(4) 0.2861(4)
C28 C 0.9142(7) 0.8112(3) 0.3927(4)
H23 H 0.9784(7) 0.7742(3) 0.4073(4)
C29 C 0.8430(6) 0.8500(3) 0.4436(3)
H24 H 0.8569(6) 0.8409(3) 0.4932(3)
C30 C 0.5062(5) 0.9403(3) 0.4615(3)
C31 C 0.4303(6) 0.9949(3) 0.4327(3)
H25 H 0.4751(6) 1.0407(3) 0.4242(3)
C32 C 0.2897(6) 0.9857(4) 0.4151(3)
H26 H 0.2354(6) 1.0248(4) 0.3959(3)
C33 C 0.2292(7) 0.9205(5) 0.4272(4)
H27 H 0.1345(7) 0.9118(5) 0.4134(4)
C34 C 0.3037(9) 0.8647(5) 0.4572(5)
H28 H 0.2589(9) 0.8190(5) 0.4661(5)
C35 C 0.4433(7) 0.8749(4) 0.4734(4)
H29 H 0.494(7) 0.8362(4) 0.4953(4)
O4 O 0.6863(4) 0.9125(2) 0.5476(2)
H30 H 0.6992(4) 0.9456(2) 0.5784(2)
N1 N 0.9432(5) 0.9123(3) 0.6890(3)
H31 H 0.8596(5) 0.9333(3) 0.6821(3)
C36 C 1.1569(8) 0.8125(4) 0.7369(4)
H32 H 1.1786(8) 0.7682(4) 0.7613(4)
H33 H 1.2421(8) 0.8333(4) 0.7196(4)
C37 C 1.004(1) 0.8638(4) 0.6434(4)
H34 H 0.932(1) 0.8468(4) 0.6123(4)
H35 H 1.072(1) 0.8899(4) 0.6162(4)
C38 C 1.071(1) 0.7992(5) 0.6727(5)
H36 H 1.121(1) 0.7748(5) 0.6359(5)
H37 H 0.998(1) 0.7672(5) 0.6885(5)
C39 C 1.090(1) 0.8629(4) 0.7831(4)
H38 H 1.018(1) 0.8374(4) 0.8087(4)
H39 H 1.157(1) 0.8800(4) 0.8170(4)
C40 C 1.023(1) 0.9250(4) 0.7482(3)
H40 H 1.095(1) 0.9581(4) 0.7349(3)
H41 H 0.963(1) 0.9476(4) 0.7826(3)
loop_
_geom_bond_atom_site_label_1
_geom_bond_atom_site_label_2
_geom_bond_site_symmetry_1
_geom_bond_site_symmetry_2
C1 H1 1_555 1_555
C2 C1 1_555 1_555
C3 C2 1_555 1_555
H2 C3 1_555 1_555
C4 C3 1_555 1_555
H3 C4 1_555 1_555
C5 C4 1_555 1_555
H4 C5 1_555 1_555
C6 C5 1_555 1_555
H5 C6 1_555 1_555
C7 C2 1_555 1_555
H6 C7 1_555 1_555
O1 C1 1_555 1_555
O2 C1 1_555 1_555
C8 O1 1_555 1_555
H7 C8 1_555 1_555
C9 O2 1_555 1_555
H8 C9 1_555 1_555
C10 C8 1_555 1_555
C11 C10 1_555 1_555
C12 C11 1_555 1_555
H9 C12 1_555 1_555
C13 C12 1_555 1_555
H10 C13 1_555 1_555
C14 C13 1_555 1_555
H11 C14 1_555 1_555
C15 C14 1_555 1_555
H12 C15 1_555 1_555
C16 C11 1_555 1_555
H13 C16 1_555 1_555
C17 C10 1_555 1_555
C18 C17 1_555 1_555
H14 C18 1_555 1_555
C19 C18 1_555 1_555
H15 C19 1_555 1_555
C20 C19 1_555 1_555
H16 C20 1_555 1_555
C21 C20 1_555 1_555
H17 C21 1_555 1_555
C22 C17 1_555 1_555
H18 C22 1_555 1_555
O3 C10 1_555 1_555
H19 O3 1_555 1_555
C23 C9 1_555 1_555
C24 C23 1_555 1_555
C25 C24 1_555 1_555
H20 C25 1_555 1_555
C26 C25 1_555 1_555
H21 C26 1_555 1_555
C27 C26 1_555 1_555
H22 C27 1_555 1_555
C28 C27 1_555 1_555
H23 C28 1_555 1_555
C29 C24 1_555 1_555
H24 C29 1_555 1_555
C30 C23 1_555 1_555
C31 C30 1_555 1_555
H25 C31 1_555 1_555
C32 C31 1_555 1_555
H26 C32 1_555 1_555
C33 C32 1_555 1_555
H27 C33 1_555 1_555
C34 C33 1_555 1_555
H28 C34 1_555 1_555
C35 C30 1_555 1_555
H29 C35 1_555 1_555
O4 C23 1_555 1_555
H30 O4 1_555 1_555
N1 H31 1_555 1_555
C36 H32 1_555 1_555
H33 C36 1_555 1_555
C37 N1 1_555 1_555
H34 C37 1_555 1_555
H35 C37 1_555 1_555
C38 C36 1_555 1_555
H36 C38 1_555 1_555
H37 C38 1_555 1_555
C39 C36 1_555 1_555
H38 C39 1_555 1_555
H39 C39 1_555 1_555
C40 N1 1_555 1_555
H40 C40 1_555 1_555
H41 C40 1_555 1_555
C6 C7 1_555 1_555
C8 C9 1_555 1_555
C15 C16 1_555 1_555
C21 C22 1_555 1_555
C28 C29 1_555 1_555
C34 C35 1_555 1_555
C37 C38 1_555 1_555
C39 C40 1_555 1_555

#END
