
#######################################################################
#
#                 Cambridge Crystallographic Data Centre
#                                CCDC 
#
#######################################################################
#
# If this CIF has been generated from an entry in the Cambridge 
# Structural Database, then it will include bibliographic, chemical, 
# crystal, experimental, refinement or atomic coordinate data resulting 
# from the CCDC's data processing and validation procedures.
#
#######################################################################

data_JUPVEV
_chemical_formula_moiety         'C27 H35 N3 O7 S1'
_chemical_name_systematic        
"N-(3-(N'-Benzoxycarbonyl-2,2-dimethyloxazolidin-4-yl)-2-isoxazolin-5-yl)carboxy-4,6-isopropano-1-aza-2-thiabicyclo(4.3.0)octane 2,2-dioxide"
_symmetry_cell_setting           monoclinic
_symmetry_space_group_name_H-M   'C 2'
_symmetry_Int_Tables_number      5
_space_group_name_Hall           'C 2y'
loop_
_symmetry_equiv_pos_site_id
_symmetry_equiv_pos_as_xyz
1 x,y,z
2 1/2+x,1/2+y,z
3 -x,y,-z
4 1/2-x,1/2+y,-z
_cell_length_a                   23.581(5)
_cell_length_b                   9.098(1)
_cell_length_c                   14.188(2)
_cell_angle_alpha                90
_cell_angle_beta                 116.628(7)
_cell_angle_gamma                90
_cell_volume                     2721.04
_cell_formula_units_Z            4
loop_
_atom_site_label
_atom_site_type_symbol
_atom_site_fract_x
_atom_site_fract_y
_atom_site_fract_z
S1 S 0.12646(3) 0.202 0.56733(4)
O1 O 0.17490(8) 0.1246(2) 0.5551(1)
O2 O 0.08187(8) 0.1162(2) 0.5861(1)
O3 O -0.00442(8) 0.3373(2) 0.3126(1)
O4 O 0.07639(8) 0.1051(2) 0.2738(1)
O5 O -0.1706(1) 0.1348(2) 0.0482(2)
O6 O -0.14783(7) -0.3199(2) 0.0731(1)
O7 O -0.04993(7) -0.2528(2) 0.0967(1)
N1 N 0.08631(8) 0.3114(2) 0.4617(1)
N2 N 0.03131(9) 0.08422 0.1667(2)
N3 N -0.12252(8) -0.0808(2) 0.0639(2)
C1 C 0.0830(1) 0.4642(3) 0.4937(2)
C2 C 0.0875(1) 0.5858(3) 0.4222(2)
C3 C 0.1419(2) 0.6780(3) 0.5009(2)
C4 C 0.1199(2) 0.7481(3) 0.5769(3)
C5 C 0.1221(2) 0.6190(4) 0.6503(2)
C6 C 0.1407(1) 0.4899(3) 0.6007(2)
C7 C 0.1897(1) 0.5627(3) 0.5695(2)
C8 C 0.2479(2) 0.6285(4) 0.6643(3)
C9 C 0.2153(1) 0.4623(4) 0.5100(2)
C10 C 0.1570(1) 0.3476(3) 0.6603(2)
C11 C 0.0376(1) 0.2585(3) 0.3696(2)
C12 C 0.0428(1) 0.0988(3) 0.3384(2)
C13 C -0.0215(1) 0.0345(3) 0.2670(2)
C14 C -0.0213(1) 0.0488(3) 0.1627(2)
C15 C -0.0783(1) 0.0278(3) 0.0595(2)
C16 C -0.1208(2) 0.1632(4) 0.0257(3)
C17 C -0.1853(1) -0.0166(3) 0.0400(2)
C18 C -0.2347(1) -0.0611(4) -0.0676(3)
C19 C -0.2067(1) -0.0508(5) 0.1229(2)
C20 C -0.1107(1) -0.2264(3) 0.0770(2)
C21 C -0.0311(1) -0.4051(3) 0.1125(2)
C22 C 0.0385(1) -0.4130(3) 0.1449(2)
C23 C 0.0653(1) -0.5527(3) 0.1551(2)
C24 C 0.1300(1) -0.5675(4) 0.1912(2)
C25 C 0.1682(1) -0.4470(4) 0.2174(2)
C26 C 0.1425(1) -0.3086(4) 0.2058(2)
C27 C 0.0774(1) -0.2927(3) 0.1699(2)
H1 H 0.0425(9) 0.471(3) 0.498(2)
H2 H 0.046(1) 0.644(3) 0.384(2)
H3 H 0.097(1) 0.542(3) 0.372(2)
H4 H 0.163(1) 0.752(3) 0.472(2)
H5 H 0.073(1) 0.790(3) 0.534(2)
H6 H 0.146(1) 0.825(3) 0.610(2)
H7 H 0.079(1) 0.592(3) 0.648(2)
H8 H 0.153(1) 0.641(4) 0.721(2)
H9 H 0.230(1) 0.710(4) 0.701(2)
H10 H 0.272(1) 0.547(4) 0.703(2)
H11 H 0.270(1) 0.660(4) 0.635(2)
H12 H 0.202(1) 0.330(3) 0.697(2)
H13 H 0.139(1) 0.346(3) 0.703(2)
H14 H 0.068(1) 0.048(3) 0.401(2)
H15 H -0.023(1) -0.069(3) 0.283(2)
H16 H -0.059(1) 0.090(3) 0.260(2)
H17 H -0.066(1) 0.010(3) 0.009(2)
H18 H -0.163(2) 0.153(5) -0.041(3)
H19 H -0.101(1) 0.255(3) 0.055(2)
H20 H -0.222(1) -0.026(3) -0.122(2)
H21 H -0.247(2) -0.145(4) -0.073(3)
H22 H -0.269(1) -0.003(3) -0.081(2)
H23 H -0.059(1) -0.461(3) 0.044(2)
H24 H -0.041(1) -0.453(3) 0.169(2)
H25 H 0.037(1) -0.632(3) 0.132(2)
H26 H 0.145(1) -0.674(4) 0.198(2)
H27 H 0.214(1) -0.474(4) 0.240(2)
H28 H 0.167(2) -0.210(4) 0.215(3)
H29 H 0.0590(9) -0.207(2) 0.158(1)
H30 H 0.182 0.418 0.452
H31 H 0.241 0.517 0.488
H32 H 0.241 0.386 0.558
H33 H -0.175 -0.023 0.190
H34 H -0.245 -0.001 0.107
H35 H -0.214 -0.155 0.123
loop_
_geom_bond_atom_site_label_1
_geom_bond_atom_site_label_2
_geom_bond_site_symmetry_1
_geom_bond_site_symmetry_2
S1 O1 1_555 1_555
O2 S1 1_555 1_555
O3 C11 1_555 1_555
O4 N2 1_555 1_555
O5 C16 1_555 1_555
O6 C20 1_555 1_555
O7 C20 1_555 1_555
N1 S1 1_555 1_555
N2 C14 1_555 1_555
N3 C15 1_555 1_555
C1 N1 1_555 1_555
C2 C1 1_555 1_555
C3 C2 1_555 1_555
C4 C3 1_555 1_555
C5 C4 1_555 1_555
C6 C1 1_555 1_555
C7 C3 1_555 1_555
C8 C7 1_555 1_555
C9 C7 1_555 1_555
C10 S1 1_555 1_555
C11 N1 1_555 1_555
C12 O4 1_555 1_555
C13 C12 1_555 1_555
C14 C13 1_555 1_555
C15 C14 1_555 1_555
C16 C15 1_555 1_555
C17 O5 1_555 1_555
C18 C17 1_555 1_555
C19 C17 1_555 1_555
C20 N3 1_555 1_555
C21 O7 1_555 1_555
C22 C21 1_555 1_555
C23 C22 1_555 1_555
C24 C23 1_555 1_555
C25 C24 1_555 1_555
C26 C25 1_555 1_555
C27 C22 1_555 1_555
H1 C1 1_555 1_555
H2 C2 1_555 1_555
H3 C2 1_555 1_555
H4 C3 1_555 1_555
H5 C4 1_555 1_555
H6 C4 1_555 1_555
H7 C5 1_555 1_555
H8 C5 1_555 1_555
H9 C8 1_555 1_555
H10 C8 1_555 1_555
H11 C8 1_555 1_555
H12 C10 1_555 1_555
H13 C10 1_555 1_555
H14 C12 1_555 1_555
H15 C13 1_555 1_555
H16 C13 1_555 1_555
H17 C15 1_555 1_555
H18 C16 1_555 1_555
H19 C16 1_555 1_555
H20 C18 1_555 1_555
H21 C18 1_555 1_555
H22 C18 1_555 1_555
H23 C21 1_555 1_555
H24 C21 1_555 1_555
H25 C23 1_555 1_555
H26 C24 1_555 1_555
H27 C25 1_555 1_555
H28 C26 1_555 1_555
H29 C27 1_555 1_555
H30 C9 1_555 1_555
H31 C9 1_555 1_555
H32 C9 1_555 1_555
H33 C19 1_555 1_555
H34 C19 1_555 1_555
H35 C19 1_555 1_555
N3 C17 1_555 1_555
C5 C6 1_555 1_555
C6 C7 1_555 1_555
C6 C10 1_555 1_555
C11 C12 1_555 1_555
C26 C27 1_555 1_555

#END
