
#######################################################################
#
#                 Cambridge Crystallographic Data Centre
#                                CCDC 
#
#######################################################################
#
# If this CIF has been generated from an entry in the Cambridge 
# Structural Database, then it will include bibliographic, chemical, 
# crystal, experimental, refinement or atomic coordinate data resulting 
# from the CCDC's data processing and validation procedures.
#
#######################################################################

data_JUQCIH
_chemical_formula_moiety         'C18 H24 O7'
_chemical_name_systematic        
(3aR*,6aR*,9aR*,9bS*)-Spiro[(1',3'-dioxolane)-2',6-(decahydro-9a-methoxycarbonyl-8,8-dimethyl-9-oxoazuleno[4,5-c]furan-1(3H)-one)]
_symmetry_cell_setting           monoclinic
_symmetry_space_group_name_H-M   'P 21/c'
_symmetry_Int_Tables_number      14
_space_group_name_Hall           '-P 2ybc'
loop_
_symmetry_equiv_pos_site_id
_symmetry_equiv_pos_as_xyz
1 x,y,z
2 -x,1/2+y,1/2-z
3 -x,-y,-z
4 x,1/2-y,1/2+z
_cell_length_a                   13.807(1)
_cell_length_b                   10.226
_cell_length_c                   12.162(1)
_cell_angle_alpha                90
_cell_angle_beta                 90.30
_cell_angle_gamma                90
_cell_volume                     1717.13
_exptl_crystal_colour            colorless
_exptl_crystal_description       plate
_cell_formula_units_Z            4
loop_
_atom_site_label
_atom_site_type_symbol
_atom_site_fract_x
_atom_site_fract_y
_atom_site_fract_z
O1 O 0.18520(11) -0.36142(13) 0.38303(12)
C1 C 0.16013(12) -0.27589(17) 0.44381(14)
O2 O 0.08454(9) -0.29281(12) 0.51262(11)
C2 C 0.07372(13) -0.18076(18) 0.58459(15)
H1 H 0.00690(13) -0.15528(18) 0.58833(15)
H2 H 0.09689(13) -0.20189(18) 0.65700(15)
C3 C 0.18094(13) 0.01678(18) 0.62393(14)
H3 H 0.13303(13) 0.07879(18) 0.64717(14)
H4 H 0.19905(13) -0.03775(18) 0.68492(14)
C4 C 0.27011(13) 0.09457(18) 0.58646(14)
H5 H 0.32509(13) 0.03786(18) 0.59463(14)
H6 H 0.27727(13) 0.16843(18) 0.63455(14)
C5 C 0.27022(12) 0.14578(16) 0.46861(14)
C6 C 0.40018(12) -0.01454(19) 0.39196(17)
H7 H 0.40791(12) -0.04587(19) 0.46590(17)
H8 H 0.45013(12) 0.04788(19) 0.37613(17)
C7 C 0.40374(12) -0.12846(20) 0.30996(18)
C8 C 0.29799(12) -0.14831(17) 0.27626(14)
O3 O 0.27129(9) -0.20709(14) 0.19620(10)
C9 C 0.29891(11) 0.04859(16) 0.37731(14)
H9 H 0.29564(11) 0.10783(16) 0.31616(14)
C10 C 0.23101(11) -0.06859(15) 0.35423(13)
C11 C 0.20581(11) -0.14322(15) 0.46112(13)
H10 H 0.26879(11) -0.15116(15) 0.49426(13)
C12 C 0.13486(11) -0.07029(16) 0.53593(13)
H11 H 0.09792(11) -0.00823(16) 0.49389(13)
O4 O 0.17723(8) 0.20046(12) 0.44564(10)
C13 C 0.19252(15) 0.32297(19) 0.39288(18)
H12 H 0.19979(15) 0.31218(19) 0.31494(18)
H13 H 0.14008(15) 0.38213(19) 0.40711(18)
C14 C 0.28545(17) 0.36893(20) 0.44459(21)
H14 H 0.27300(17) 0.41149(20) 0.51344(21)
H15 H 0.31977(17) 0.42758(20) 0.39704(21)
O5 O 0.33840(9) 0.25136(13) 0.46062(12)
C15 C 0.46161(17) -0.09575(29) 0.20792(22)
H16 H 0.52848(17) -0.08326(29) 0.22721(22)
H17 H 0.43639(17) -0.01685(29) 0.17598(22)
H18 H 0.45612(17) -0.16588(29) 0.15579(22)
C16 C 0.44177(16) -0.25551(24) 0.36113(25)
H19 H 0.50837(16) -0.24526(24) 0.38253(25)
H20 H 0.43627(16) -0.32548(24) 0.30885(25)
H21 H 0.40364(16) -0.27548(24) 0.42474(25)
C17 C 0.13837(11) -0.03812(16) 0.28960(13)
O6 O 0.06428(8) -0.09843(13) 0.30049(10)
O7 O 0.15126(8) 0.05771(13) 0.21752(10)
C18 C 0.06776(14) 0.09091(20) 0.14993(15)
H22 H 0.08452(14) 0.16110(20) 0.10120(15)
H23 H 0.01522(14) 0.11771(20) 0.19615(15)
H24 H 0.04848(14) 0.01595(20) 0.10764(15)
loop_
_geom_bond_atom_site_label_1
_geom_bond_atom_site_label_2
_geom_bond_site_symmetry_1
_geom_bond_site_symmetry_2
O1 C1 1_555 1_555
C1 O2 1_555 1_555
O2 C2 1_555 1_555
C2 H1 1_555 1_555
H2 C2 1_555 1_555
C3 H3 1_555 1_555
H4 C3 1_555 1_555
C4 C3 1_555 1_555
H5 C4 1_555 1_555
H6 C4 1_555 1_555
C5 C4 1_555 1_555
C6 H7 1_555 1_555
H8 C6 1_555 1_555
C7 C6 1_555 1_555
C8 C7 1_555 1_555
O3 C8 1_555 1_555
C9 C5 1_555 1_555
H9 C9 1_555 1_555
C10 C8 1_555 1_555
C11 C1 1_555 1_555
H10 C11 1_555 1_555
C12 C2 1_555 1_555
H11 C12 1_555 1_555
O4 C5 1_555 1_555
C13 O4 1_555 1_555
H12 C13 1_555 1_555
H13 C13 1_555 1_555
C14 C13 1_555 1_555
H14 C14 1_555 1_555
H15 C14 1_555 1_555
O5 C5 1_555 1_555
C15 C7 1_555 1_555
H16 C15 1_555 1_555
H17 C15 1_555 1_555
H18 C15 1_555 1_555
C16 C7 1_555 1_555
H19 C16 1_555 1_555
H20 C16 1_555 1_555
H21 C16 1_555 1_555
C17 C10 1_555 1_555
O6 C17 1_555 1_555
O7 C17 1_555 1_555
C18 O7 1_555 1_555
H22 C18 1_555 1_555
H23 C18 1_555 1_555
H24 C18 1_555 1_555
C3 C12 1_555 1_555
C6 C9 1_555 1_555
C9 C10 1_555 1_555
C10 C11 1_555 1_555
C11 C12 1_555 1_555
C14 O5 1_555 1_555

#END
