
#######################################################################
#
#                 Cambridge Crystallographic Data Centre
#                                CCDC 
#
#######################################################################
#
# If this CIF has been generated from an entry in the Cambridge 
# Structural Database, then it will include bibliographic, chemical, 
# crystal, experimental, refinement or atomic coordinate data resulting 
# from the CCDC's data processing and validation procedures.
#
#######################################################################

data_JUQJAI
_chemical_name_common            'neoansamycin B methanol solvate'
_chemical_formula_moiety         'C30 H37 N1 O6,C1 H4 O1'
_chemical_name_systematic        
'4-ethyl-20-hydroxy-8-methoxy-10-methyl-12-pentyl-2-oxa-14-azahexacyclo[13.7.1.0^1,10^.0^3,21^.0^11,15^.0^17,22^]tricosa-3,17,19,21-tetraene-9,13,16-trione methanol solvate'
_symmetry_cell_setting           monoclinic
_symmetry_space_group_name_H-M   'P 21'
_symmetry_Int_Tables_number      4
_space_group_name_Hall           'P 2yb'
loop_
_symmetry_equiv_pos_site_id
_symmetry_equiv_pos_as_xyz
1 x,y,z
2 -x,1/2+y,-z
_cell_length_a                   8.4830(7)
_cell_length_b                   14.8131(13)
_cell_length_c                   11.6451(9)
_cell_angle_alpha                90
_cell_angle_beta                 90.4230(10)
_cell_angle_gamma                90
_cell_volume                     1463.28
_exptl_crystal_colour            white
_cell_formula_units_Z            2
loop_
_atom_site_label
_atom_site_type_symbol
_atom_site_fract_x
_atom_site_fract_y
_atom_site_fract_z
N1 N -0.2056(5) 0.6045(3) 0.4836(3)
H1 H -0.2405 0.5504 0.4757
O1 O -0.1982(5) 0.6373(2) 0.2940(3)
O2 O -0.4070(4) 0.5818(3) 0.6651(3)
O3 O -0.0078(4) 0.6738(3) 1.1229(3)
H2 H -0.0611 0.6498 1.1727
O4 O 0.1657(3) 0.7198(2) 0.7712(2)
O5 O 0.0071(4) 0.9125(2) 0.5338(3)
O6 O 0.3157(4) 0.9172(2) 0.5542(3)
C1 C -0.1839(6) 0.6606(3) 0.3958(4)
C2 C -0.1445(6) 0.7533(3) 0.4397(4)
H3 H -0.0320 0.7641 0.4272
C3 C -0.1726(5) 0.7472(3) 0.5701(3)
H4 H -0.2798 0.7683 0.5861
C4 C -0.1646(6) 0.6436(3) 0.5939(3)
C5 C -0.2808(6) 0.6145(3) 0.6875(4)
C6 C -0.2229(6) 0.6324(3) 0.8060(3)
C7 C -0.0818(5) 0.6757(3) 0.8177(3)
C8 C 0.0140(5) 0.7055(3) 0.7188(3)
C9 C 0.0070(5) 0.6324(3) 0.6290(4)
H5 H 0.0281 0.5732 0.6610
H6 H 0.0781 0.6441 0.5659
C10 C -0.2993(6) 0.6068(3) 0.9072(4)
H7 H -0.3969 0.5784 0.9039
C11 C -0.2280(6) 0.6243(4) 1.0120(4)
H8 H -0.2811 0.6096 1.0790
C12 C -0.0789(6) 0.6632(3) 1.0200(4)
C13 C -0.0029(5) 0.6926(3) 0.9211(4)
C14 C 0.1526(6) 0.7306(3) 0.8918(4)
C15 C 0.2721(6) 0.7704(4) 0.9432(4)
C16 C 0.4119(6) 0.7971(4) 0.8714(5)
H9 H 0.4240 0.7536 0.8099
H10 H 0.5062 0.7945 0.9189
C17 C 0.3982(6) 0.8929(4) 0.8184(5)
H11 H 0.4050 0.9370 0.8799
H12 H 0.4874 0.9027 0.7683
C18 C 0.2479(6) 0.9099(4) 0.7505(4)
H13 H 0.2386 0.9744 0.7378
H14 H 0.1595 0.8918 0.7976
C19 C 0.2324(5) 0.8625(3) 0.6345(4)
H15 H 0.2787 0.8020 0.6383
C20 C 0.0594(5) 0.8570(3) 0.6005(4)
C21 C -0.0576(5) 0.7913(3) 0.6583(4)
C22 C -0.2376(6) 0.8269(3) 0.3774(4)
H16 H -0.2524 0.8772 0.4296
H17 H -0.3411 0.8034 0.3577
C23 C -0.1593(8) 0.8618(4) 0.2678(5)
H18 H -0.0606 0.8906 0.2889
H19 H -0.1343 0.8104 0.2196
C24 C -0.2547(9) 0.9269(5) 0.1988(6)
H20 H -0.2701 0.9820 0.2423
H21 H -0.3574 0.9012 0.1818
C25 C -0.1657(13) 0.9490(6) 0.0825(7)
H22 H -0.0697 0.9819 0.1002
H23 H -0.1362 0.8928 0.0456
C26 C -0.2602(12) 1.0013(8) 0.0043(8)
H24 H -0.3488 0.9661 -0.0210
H25 H -0.1979 1.0182 -0.0608
H26 H -0.2970 1.0547 0.0424
C27 C 0.2783(7) 0.7939(5) 1.0702(4)
H27 H 0.3137 0.8559 1.0783
H28 H 0.1724 0.7904 1.1008
C28 C 0.3833(10) 0.7348(7) 1.1403(6)
H29 H 0.3473 0.6735 1.1352
H30 H 0.3814 0.7541 1.2190
H31 H 0.4891 0.7387 1.1119
C29 C 0.3406(8) 0.8732(4) 0.4470(5)
H32 H 0.3887 0.8154 0.4602
H33 H 0.4085 0.9094 0.4003
H34 H 0.2412 0.8650 0.4084
C30 C -0.1531(6) 0.8515(3) 0.7412(4)
H35 H -0.0869 0.8696 0.8043
H36 H -0.2416 0.8182 0.7696
H37 H -0.1899 0.9041 0.7009
O7 O 0.3730(7) 0.6420(4) 0.4854(5)
H38 H 0.4323 0.6218 0.5351
C31 C 0.3475(12) 0.5767(7) 0.4018(7)
H39 H 0.4286 0.5805 0.3449
H40 H 0.2466 0.5865 0.3660
H41 H 0.3495 0.5179 0.4365
loop_
_geom_bond_atom_site_label_1
_geom_bond_atom_site_label_2
_geom_bond_site_symmetry_1
_geom_bond_site_symmetry_2
N1 H1 1_555 1_555
O1 C1 1_555 1_555
O2 C5 1_555 1_555
O3 H2 1_555 1_555
O4 C8 1_555 1_555
O5 C20 1_555 1_555
O6 C19 1_555 1_555
C1 N1 1_555 1_555
C2 C1 1_555 1_555
H3 C2 1_555 1_555
C3 C2 1_555 1_555
H4 C3 1_555 1_555
C4 N1 1_555 1_555
C5 C4 1_555 1_555
C6 C5 1_555 1_555
C7 C6 1_555 1_555
C8 C7 1_555 1_555
C9 C4 1_555 1_555
H5 C9 1_555 1_555
H6 C9 1_555 1_555
C10 C6 1_555 1_555
H7 C10 1_555 1_555
C11 C10 1_555 1_555
H8 C11 1_555 1_555
C12 O3 1_555 1_555
C13 C7 1_555 1_555
C14 O4 1_555 1_555
C15 C14 1_555 1_555
C16 C15 1_555 1_555
H9 C16 1_555 1_555
H10 C16 1_555 1_555
C17 C16 1_555 1_555
H11 C17 1_555 1_555
H12 C17 1_555 1_555
C18 C17 1_555 1_555
H13 C18 1_555 1_555
H14 C18 1_555 1_555
C19 C18 1_555 1_555
H15 C19 1_555 1_555
C20 C19 1_555 1_555
C21 C3 1_555 1_555
C22 C2 1_555 1_555
H16 C22 1_555 1_555
H17 C22 1_555 1_555
C23 C22 1_555 1_555
H18 C23 1_555 1_555
H19 C23 1_555 1_555
C24 C23 1_555 1_555
H20 C24 1_555 1_555
H21 C24 1_555 1_555
C25 C24 1_555 1_555
H22 C25 1_555 1_555
H23 C25 1_555 1_555
C26 C25 1_555 1_555
H24 C26 1_555 1_555
H25 C26 1_555 1_555
H26 C26 1_555 1_555
C27 C15 1_555 1_555
H27 C27 1_555 1_555
H28 C27 1_555 1_555
C28 C27 1_555 1_555
H29 C28 1_555 1_555
H30 C28 1_555 1_555
H31 C28 1_555 1_555
C29 O6 1_555 1_555
H32 C29 1_555 1_555
H33 C29 1_555 1_555
H34 C29 1_555 1_555
C30 C21 1_555 1_555
H35 C30 1_555 1_555
H36 C30 1_555 1_555
H37 C30 1_555 1_555
O7 H38 1_555 1_555
C31 O7 1_555 1_555
H39 C31 1_555 1_555
H40 C31 1_555 1_555
H41 C31 1_555 1_555
C3 C4 1_555 1_555
C8 C9 1_555 1_555
C8 C21 1_555 1_555
C11 C12 1_555 1_555
C12 C13 1_555 1_555
C13 C14 1_555 1_555
C20 C21 1_555 1_555

#END
