
#######################################################################
#
#                 Cambridge Crystallographic Data Centre
#                                CCDC 
#
#######################################################################
#
# If this CIF has been generated from an entry in the Cambridge 
# Structural Database, then it will include bibliographic, chemical, 
# crystal, experimental, refinement or atomic coordinate data resulting 
# from the CCDC's data processing and validation procedures.
#
#######################################################################

data_JUQKUB
_chemical_formula_moiety         'C26 H23 N3'
_chemical_name_systematic        
5,7,8-Triphenyl-5,6,8-triazadispiro(2.0.4.3)undeca-6,10-diene
_symmetry_cell_setting           monoclinic
_symmetry_space_group_name_H-M   'P 21/n'
_symmetry_Int_Tables_number      14
_space_group_name_Hall           '-P 2yn'
loop_
_symmetry_equiv_pos_site_id
_symmetry_equiv_pos_as_xyz
1 x,y,z
2 1/2+x,1/2-y,1/2+z
3 -x,-y,-z
4 1/2-x,1/2+y,1/2-z
_cell_length_a                   14.607(2)
_cell_length_b                   9.031(1)
_cell_length_c                   15.936(2)
_cell_angle_alpha                90
_cell_angle_beta                 110.05(1)
_cell_angle_gamma                90
_cell_volume                     1974.8
_exptl_crystal_colour            'light yellow'
_exptl_crystal_description       plate
_chemical_melting_point          166-168deg.C(dec)
_cell_formula_units_Z            4
loop_
_atom_site_label
_atom_site_type_symbol
_atom_site_fract_x
_atom_site_fract_y
_atom_site_fract_z
N1 N 0.31284(14) 0.5247(2) 0.14774(12)
N2 N 0.40309(13) 0.5684(2) 0.20777(12)
N3 N 0.41955(13) 0.3410(2) 0.15807(12)
C1 C 0.3179(2) 0.3813(2) 0.10499(14)
C2 C 0.2988(2) 0.3910(3) 0.00320(14)
C3 C 0.3137(2) 0.5350(3) -0.0387(2)
C4 C 0.3821(2) 0.4070(3) -0.0319(2)
C5 C 0.2172(2) 0.2883(3) -0.0394(2)
C6 C 0.1879(2) 0.2192(3) 0.0199(2)
C7 C 0.2415(2) 0.2671(3) 0.1128(2)
C8 C 0.4619(2) 0.4591(2) 0.21362(14)
C9 C 0.2375(2) 0.6269(2) 0.12144(14)
C10 C 0.2501(2) 0.7670(3) 0.1622(2)
C11 C 0.1749(2) 0.8676(3) 0.1392(2)
C12 C 0.0856(2) 0.8350(3) 0.0753(2)
C13 C 0.0728(2) 0.6982(3) 0.0335(2)
C14 C 0.1475(2) 0.5944(3) 0.0561(2)
C15 C 0.5664(2) 0.4741(2) 0.26590(14)
C16 C 0.5954(2) 0.5672(3) 0.3401(2)
C17 C 0.6930(2) 0.5968(3) 0.3842(2)
C18 C 0.7633(2) 0.5346(3) 0.3551(2)
C19 C 0.7354(2) 0.4392(3) 0.2823(2)
C20 C 0.6375(2) 0.4090(3) 0.2377(2)
C21 C 0.4509(2) 0.1911(2) 0.17173(15)
C22 C 0.4932(2) 0.1341(3) 0.2576(2)
C23 C 0.5232(2) -0.0117(3) 0.2699(2)
C24 C 0.5101(2) -0.1045(3) 0.1975(2)
C25 C 0.4655(2) -0.0498(3) 0.1120(2)
C26 C 0.4367(2) 0.0978(3) 0.0985(2)
H1 H 0.3419(16) 0.6196(26) 0.0011(15)
H2 H 0.2614(20) 0.5592(28) -0.0966(18)
H3 H 0.3745(15) 0.3505(24) -0.0863(15)
H4 H 0.4488(20) 0.4158(27) 0.0151(17)
H5 H 0.1871(19) 0.2736(28) -0.1071(18)
H6 H 0.1384(18) 0.1434(29) 0.0088(16)
H7 H 0.1978(18) 0.3121(26) 0.1420(16)
H8 H 0.2753(18) 0.1779(27) 0.1526(16)
H9 H 0.3121(16) 0.7885(21) 0.2073(14)
H10 H 0.1874(15) 0.9666(24) 0.1704(13)
H11 H 0.0319(18) 0.9099(26) 0.0613(15)
H12 H 0.0080(16) 0.6713(22) -0.0128(14)
H13 H 0.1350(17) 0.5026(27) 0.0227(15)
H14 H 0.5450(18) 0.6163(26) 0.3625(16)
H15 H 0.7124(16) 0.6591(25) 0.4383(15)
H16 H 0.8299(19) 0.5559(24) 0.3876(15)
H17 H 0.7811(18) 0.3897(25) 0.2629(16)
H18 H 0.6172(17) 0.3477(25) 0.1887(16)
H19 H 0.5019(16) 0.1942(24) 0.3094(16)
H20 H 0.5514(16) -0.0514(23) 0.3329(15)
H21 H 0.5304(16) -0.2120(26) 0.2070(15)
H22 H 0.4540(16) -0.1121(25) 0.0571(15)
H23 H 0.4014(17) 0.1396(25) 0.0382(16)
loop_
_geom_bond_atom_site_label_1
_geom_bond_atom_site_label_2
_geom_bond_site_symmetry_1
_geom_bond_site_symmetry_2
N1 N2 1_555 1_555
N2 C8 1_555 1_555
N3 C1 1_555 1_555
C1 N1 1_555 1_555
C2 C1 1_555 1_555
C3 C2 1_555 1_555
C4 C2 1_555 1_555
C5 C2 1_555 1_555
C6 C5 1_555 1_555
C7 C1 1_555 1_555
C8 N3 1_555 1_555
C9 N1 1_555 1_555
C10 C9 1_555 1_555
C11 C10 1_555 1_555
C12 C11 1_555 1_555
C13 C12 1_555 1_555
C14 C9 1_555 1_555
C15 C8 1_555 1_555
C16 C15 1_555 1_555
C17 C16 1_555 1_555
C18 C17 1_555 1_555
C19 C18 1_555 1_555
C20 C15 1_555 1_555
C21 N3 1_555 1_555
C22 C21 1_555 1_555
C23 C22 1_555 1_555
C24 C23 1_555 1_555
C25 C24 1_555 1_555
C26 C21 1_555 1_555
H1 C3 1_555 1_555
H2 C3 1_555 1_555
H3 C4 1_555 1_555
H4 C4 1_555 1_555
H5 C5 1_555 1_555
H6 C6 1_555 1_555
H7 C7 1_555 1_555
H8 C7 1_555 1_555
H9 C10 1_555 1_555
H10 C11 1_555 1_555
H11 C12 1_555 1_555
H12 C13 1_555 1_555
H13 C14 1_555 1_555
H14 C16 1_555 1_555
H15 C17 1_555 1_555
H16 C18 1_555 1_555
H17 C19 1_555 1_555
H18 C20 1_555 1_555
H19 C22 1_555 1_555
H20 C23 1_555 1_555
H21 C24 1_555 1_555
H22 C25 1_555 1_555
H23 C26 1_555 1_555
C3 C4 1_555 1_555
C6 C7 1_555 1_555
C13 C14 1_555 1_555
C19 C20 1_555 1_555
C25 C26 1_555 1_555

#END
