
#######################################################################
#
#                 Cambridge Crystallographic Data Centre
#                                CCDC 
#
#######################################################################
#
# If this CIF has been generated from an entry in the Cambridge 
# Structural Database, then it will include bibliographic, chemical, 
# crystal, experimental, refinement or atomic coordinate data resulting 
# from the CCDC's data processing and validation procedures.
#
#######################################################################

data_JUQLIQ
_chemical_formula_moiety         'C26 H25 N3 O1'
_chemical_name_systematic        
N(3)-(2-(1-Cyclopropylcyclopropylcarbonyl)phenyl)-N(1)-phenylbenzamidrazone
_symmetry_cell_setting           monoclinic
_symmetry_space_group_name_H-M   'P 21/c'
_symmetry_Int_Tables_number      14
_space_group_name_Hall           '-P 2ybc'
loop_
_symmetry_equiv_pos_site_id
_symmetry_equiv_pos_as_xyz
1 x,y,z
2 x,1/2-y,1/2+z
3 -x,-y,-z
4 -x,1/2+y,1/2-z
_cell_length_a                   10.7150(4)
_cell_length_b                   19.5777(8)
_cell_length_c                   10.4154(4)
_cell_angle_alpha                90
_cell_angle_beta                 105.425(1)
_cell_angle_gamma                90
_cell_volume                     2106.19
_exptl_crystal_colour            'light yellow'
_exptl_crystal_description       needle
_cell_formula_units_Z            4
loop_
_atom_site_label
_atom_site_type_symbol
_atom_site_fract_x
_atom_site_fract_y
_atom_site_fract_z
O1 O 0.2010(4) 0.1381(2) 0.0790(4)
N1 N 0.1657(4) 0.2693(2) 0.0395(4)
H1 H 0.1456(4) 0.2278(2) 0.0080(4)
N2 N 0.1102(4) 0.3250(2) -0.0323(5)
C1 C 0.2532(5) 0.2785(3) 0.1617(6)
C2 C 0.3082(5) 0.2201(3) 0.2385(6)
C3 C 0.3894(6) 0.2316(3) 0.3661(6)
H2 H 0.4248(6) 0.1933(3) 0.4194(6)
C4 C 0.4204(6) 0.2960(3) 0.4176(6)
H3 H 0.4761(6) 0.3020(3) 0.5046(6)
C5 C 0.3681(6) 0.3525(3) 0.3391(6)
H4 H 0.3892(6) 0.3973(3) 0.3730(6)
C6 C 0.2860(5) 0.3439(3) 0.2129(6)
H5 H 0.2517(5) 0.3828(3) 0.1608(6)
C7 C 0.2817(5) 0.1490(3) 0.1856(6)
C8 C 0.3596(5) 0.0906(3) 0.2620(6)
C9 C 0.2859(6) 0.0246(3) 0.2527(6)
H6 H 0.3327(6) -0.0182(3) 0.2453(6)
H7 H 0.1934(6) 0.0248(3) 0.2026(6)
C10 C 0.3241(6) 0.0626(3) 0.3841(6)
H8 H 0.3943(6) 0.0431(3) 0.4566(6)
H9 H 0.2549(6) 0.0862(3) 0.4139(6)
C11 C 0.4980(5) 0.0901(3) 0.2582(6)
H10 H 0.5476(5) 0.1324(3) 0.2938(6)
C12 C 0.5343(6) 0.0582(3) 0.1413(6)
H11 H 0.4652(6) 0.0350(3) 0.0730(6)
H12 H 0.6004(6) 0.0816(3) 0.1066(6)
C13 C 0.5778(6) 0.0257(3) 0.2768(6)
H13 H 0.6705(6) 0.0293(3) 0.3251(6)
H14 H 0.5354(6) -0.0174(3) 0.2915(6)
C14 C 0.0280(5) 0.3112(3) -0.1474(6)
N3 N 0.0074(4) 0.2441(2) -0.1970(5)
H15 H 0.0762(4) 0.2183(2) -0.1895(5)
C15 C -0.0348(5) 0.3694(3) -0.2304(6)
C16 C -0.0803(5) 0.3628(3) -0.3686(6)
H16 H -0.0796(5) 0.3194(3) -0.4092(6)
C17 C -0.1268(6) 0.4201(3) -0.4475(7)
H17 H -0.1568(6) 0.4155(3) -0.5415(7)
C18 C -0.1293(6) 0.4835(3) -0.3889(7)
H18 H -0.1602(6) 0.5224(3) -0.4426(7)
C19 C -0.0867(6) 0.4900(3) -0.2520(7)
H19 H -0.0889(6) 0.5333(3) -0.2114(7)
C20 C -0.0406(5) 0.4332(3) -0.1738(6)
H20 H -0.0126(5) 0.4380(3) -0.0797(6)
C21 C -0.1135(5) 0.2147(3) -0.2575(6)
C22 C -0.1205(6) 0.1610(3) -0.3458(6)
H21 H -0.0446(6) 0.1462(3) -0.3683(6)
C23 C -0.2374(6) 0.1289(3) -0.4015(6)
H22 H -0.2415(6) 0.0917(3) -0.4612(6)
C24 C -0.3493(7) 0.1511(3) -0.3698(7)
H23 H -0.4295(7) 0.1287(3) -0.4068(7)
C25 C -0.3434(6) 0.2057(3) -0.2846(7)
H24 H -0.4203(6) 0.2218(3) -0.2658(7)
C26 C -0.2258(5) 0.2373(3) -0.2261(6)
H25 H -0.2217(5) 0.2740(3) -0.1653(6)
loop_
_geom_bond_atom_site_label_1
_geom_bond_atom_site_label_2
_geom_bond_site_symmetry_1
_geom_bond_site_symmetry_2
O1 C7 1_555 1_555
N1 H1 1_555 1_555
N2 N1 1_555 1_555
C1 N1 1_555 1_555
C2 C1 1_555 1_555
C3 C2 1_555 1_555
H2 C3 1_555 1_555
C4 C3 1_555 1_555
H3 C4 1_555 1_555
C5 C4 1_555 1_555
H4 C5 1_555 1_555
C6 C1 1_555 1_555
H5 C6 1_555 1_555
C7 C2 1_555 1_555
C8 C7 1_555 1_555
C9 C8 1_555 1_555
H6 C9 1_555 1_555
H7 C9 1_555 1_555
C10 C8 1_555 1_555
H8 C10 1_555 1_555
H9 C10 1_555 1_555
C11 C8 1_555 1_555
H10 C11 1_555 1_555
C12 C11 1_555 1_555
H11 C12 1_555 1_555
H12 C12 1_555 1_555
C13 C11 1_555 1_555
H13 C13 1_555 1_555
H14 C13 1_555 1_555
C14 N2 1_555 1_555
N3 C14 1_555 1_555
H15 N3 1_555 1_555
C15 C14 1_555 1_555
C16 C15 1_555 1_555
H16 C16 1_555 1_555
C17 C16 1_555 1_555
H17 C17 1_555 1_555
C18 C17 1_555 1_555
H18 C18 1_555 1_555
C19 C18 1_555 1_555
H19 C19 1_555 1_555
C20 C15 1_555 1_555
H20 C20 1_555 1_555
C21 N3 1_555 1_555
C22 C21 1_555 1_555
H21 C22 1_555 1_555
C23 C22 1_555 1_555
H22 C23 1_555 1_555
C24 C23 1_555 1_555
H23 C24 1_555 1_555
C25 C24 1_555 1_555
H24 C25 1_555 1_555
C26 C21 1_555 1_555
H25 C26 1_555 1_555
C5 C6 1_555 1_555
C9 C10 1_555 1_555
C12 C13 1_555 1_555
C19 C20 1_555 1_555
C25 C26 1_555 1_555

#END
