
#######################################################################
#
#                 Cambridge Crystallographic Data Centre
#                                CCDC 
#
#######################################################################
#
# If this CIF has been generated from an entry in the Cambridge 
# Structural Database, then it will include bibliographic, chemical, 
# crystal, experimental, refinement or atomic coordinate data resulting 
# from the CCDC's data processing and validation procedures.
#
#######################################################################

data_JUQLAI
_chemical_formula_moiety         'C26 H23 N3'
_chemical_name_systematic        
1,4-Diphenyl-2-(1-cyclopropylcyclopropyl)-6,7-benzo-1,3,5-triazepine
_symmetry_cell_setting           triclinic
_symmetry_space_group_name_H-M   'P -1'
_symmetry_Int_Tables_number      2
_space_group_name_Hall           '-P 1'
loop_
_symmetry_equiv_pos_site_id
_symmetry_equiv_pos_as_xyz
1 x,y,z
2 -x,-y,-z
_cell_length_a                   9.5828(2)
_cell_length_b                   10.0525(1)
_cell_length_c                   12.8054(3)
_cell_angle_alpha                98.118(1)
_cell_angle_beta                 105.963(1)
_cell_angle_gamma                116.988(1)
_cell_volume                     1004.6
_exptl_crystal_colour            'light yellow'
_exptl_crystal_description       block
_chemical_melting_point          136-138deg.C(dec)
_cell_formula_units_Z            2
loop_
_atom_site_label
_atom_site_type_symbol
_atom_site_fract_x
_atom_site_fract_y
_atom_site_fract_z
N1 N 0.5289(2) 0.9581(2) 0.29723(11)
N2 N 0.5894(2) 0.98960(15) 0.13054(11)
N3 N 0.3175(2) 0.7461(2) 0.06427(12)
C1 C 0.6191(2) 1.0482(2) 0.23488(13)
C2 C 0.4691(2) 0.8307(2) 0.06798(13)
C3 C 0.2530(2) 0.8003(2) 0.13473(14)
C4 C 0.3503(2) 0.9028(2) 0.24738(14)
C5 C 0.2765(2) 0.9521(2) 0.3115(2)
C6 C 0.1040(2) 0.8976(2) 0.2651(2)
C7 C 0.0046(2) 0.7932(2) 0.1546(2)
C8 C 0.0775(2) 0.7435(2) 0.0908(2)
C9 C 0.5841(2) 0.8676(2) 0.35031(12)
C10 C 0.4797(2) 0.7546(2) 0.39012(15)
C11 C 0.5386(2) 0.6722(2) 0.4480(2)
C12 C 0.7009(2) 0.6992(2) 0.4677(2)
C13 C 0.8037(2) 0.8096(2) 0.4273(2)
C14 C 0.7466(2) 0.8931(2) 0.36799(14)
C15 C 0.7500(2) 1.2168(2) 0.29564(13)
C16 C 0.7011(2) 1.3125(2) 0.3650(2)
C17 C 0.8236(2) 1.2696(2) 0.42622(14)
C18 C 0.8566(2) 1.2937(2) 0.23133(14)
C19 C 1.0087(2) 1.2805(2) 0.2387(2)
C20 C 1.0317(2) 1.4375(2) 0.2882(2)
C21 C 0.5243(2) 0.7638(2) -0.01266(13)
C22 C 0.4289(2) 0.6030(2) -0.0722(2)
C23 C 0.4792(3) 0.5413(2) -0.1489(2)
C24 C 0.6219(3) 0.6380(2) -0.1679(2)
C25 C 0.7170(3) 0.7977(2) -0.1096(2)
C26 C 0.6692(2) 0.8606(2) -0.03171(15)
H1 H 0.3511(26) 1.0281(25) 0.3915(19)
H2 H 0.0566(28) 0.9339(26) 0.3099(19)
H3 H -0.1162(28) 0.7575(25) 0.1186(19)
H4 H 0.0093(24) 0.6710(23) 0.0137(17)
H5 H 0.3654(26) 0.7364(24) 0.3784(17)
H6 H 0.4625(27) 0.5945(25) 0.4738(18)
H7 H 0.9174(26) 0.8286(24) 0.4380(17)
H8 H 0.8198(25) 0.9725(24) 0.3394(17)
H9 H 0.7415(24) 1.4188(24) 0.3603(17)
H10 H 0.5858(27) 1.2605(24) 0.3643(17)
H11 H 0.9477(25) 1.3504(23) 0.4648(17)
H12 H 0.7818(25) 1.1886(24) 0.4627(17)
H13 H 0.7915(25) 1.2860(23) 0.1556(18)
H14 H 1.0421(27) 1.2306(25) 0.2931(19)
H15 H 1.0257(30) 1.2639(28) 0.1667(22)
H16 H 1.0858(29) 1.4809(27) 0.3738(21)
H17 H 1.0619(29) 1.5140(27) 0.2489(20)
H18 H 0.3228(27) 0.5316(25) -0.0599(18)
H19 H 0.4127(31) 0.4304(30) -0.1888(21)
H20 H 0.6557(26) 0.5940(25) -0.2229(18)
H21 H 0.8194(29) 0.8676(26) -0.1230(19)
H22 H 0.7365(24) 0.9699(23) 0.0097(17)
H23 H 0.7415(27) 0.6397(26) 0.5097(19)
loop_
_geom_bond_atom_site_label_1
_geom_bond_atom_site_label_2
_geom_bond_site_symmetry_1
_geom_bond_site_symmetry_2
N1 C1 1_555 1_555
N2 C1 1_555 1_555
N3 C2 1_555 1_555
C1 C15 1_555 1_555
C2 N2 1_555 1_555
C3 N3 1_555 1_555
C4 N1 1_555 1_555
C5 C4 1_555 1_555
C6 C5 1_555 1_555
C7 C6 1_555 1_555
C8 C3 1_555 1_555
C9 N1 1_555 1_555
C10 C9 1_555 1_555
C11 C10 1_555 1_555
C12 C11 1_555 1_555
C13 C12 1_555 1_555
C14 C9 1_555 1_555
C15 C16 1_555 1_555
C16 C17 1_555 1_555
C17 C15 1_555 1_555
C18 C15 1_555 1_555
C19 C18 1_555 1_555
C20 C18 1_555 1_555
C21 C2 1_555 1_555
C22 C21 1_555 1_555
C23 C22 1_555 1_555
C24 C23 1_555 1_555
C25 C24 1_555 1_555
C26 C21 1_555 1_555
H1 C5 1_555 1_555
H2 C6 1_555 1_555
H3 C7 1_555 1_555
H4 C8 1_555 1_555
H5 C10 1_555 1_555
H6 C11 1_555 1_555
H7 C13 1_555 1_555
H8 C14 1_555 1_555
H9 C16 1_555 1_555
H10 C16 1_555 1_555
H11 C17 1_555 1_555
H12 C17 1_555 1_555
H13 C18 1_555 1_555
H14 C19 1_555 1_555
H15 C19 1_555 1_555
H16 C20 1_555 1_555
H17 C20 1_555 1_555
H18 C22 1_555 1_555
H19 C23 1_555 1_555
H20 C24 1_555 1_555
H21 C25 1_555 1_555
H22 C26 1_555 1_555
H23 C12 1_555 1_555
C3 C4 1_555 1_555
C7 C8 1_555 1_555
C13 C14 1_555 1_555
C19 C20 1_555 1_555
C25 C26 1_555 1_555

#END
