
#######################################################################
#
#                 Cambridge Crystallographic Data Centre
#                                CCDC 
#
#######################################################################
#
# If this CIF has been generated from an entry in the Cambridge 
# Structural Database, then it will include bibliographic, chemical, 
# crystal, experimental, refinement or atomic coordinate data resulting 
# from the CCDC's data processing and validation procedures.
#
#######################################################################

data_JUQPUI
_chemical_formula_moiety         'C14 H9 B1 F2 N4 O1'
_chemical_name_systematic        
([2,3'-biimidazo[1,2-a]pyridin]-2'-olato)-difluoro-boron
_symmetry_cell_setting           monoclinic
_symmetry_space_group_name_H-M   'P 21/n'
_symmetry_Int_Tables_number      14
_space_group_name_Hall           '-P 2yn'
loop_
_symmetry_equiv_pos_site_id
_symmetry_equiv_pos_as_xyz
1 x,y,z
2 1/2-x,1/2+y,1/2-z
3 -x,-y,-z
4 1/2+x,1/2-y,1/2+z
_cell_length_a                   10.213(2)
_cell_length_b                   9.1955(18)
_cell_length_c                   13.667(3)
_cell_angle_alpha                90
_cell_angle_beta                 105.03(3)
_cell_angle_gamma                90
_cell_volume                     1239.61
_exptl_crystal_colour            'pale yellow'
_exptl_crystal_description       prism
_cell_formula_units_Z            4
loop_
_atom_site_label
_atom_site_type_symbol
_atom_site_fract_x
_atom_site_fract_y
_atom_site_fract_z
C1 C 0.2484(3) 0.0238(4) 0.5374(2)
C2 C 0.1698(3) 0.1225(4) 0.5737(3)
H1 H 0.1864 0.1414 0.6427
C3 C 0.0669(4) 0.1916(4) 0.5051(3)
H2 H 0.0120 0.2571 0.5278
C4 C 0.0434(4) 0.1646(4) 0.4009(3)
H3 H -0.0262 0.2130 0.3550
C5 C 0.1216(3) 0.0683(4) 0.3670(3)
H4 H 0.1061 0.0498 0.2981
C6 C 0.3167(3) -0.1025(4) 0.4193(2)
H5 H 0.3226 -0.1388 0.3570
C7 C 0.3977(3) -0.1383(4) 0.5124(2)
C8 C 0.5102(3) -0.2298(4) 0.5529(2)
C9 C 0.5646(3) -0.3603(4) 0.4071(2)
H6 H 0.4993 -0.3142 0.3565
C10 C 0.6471(3) -0.4615(4) 0.3835(3)
H7 H 0.6370 -0.4866 0.3160
C11 C 0.7478(3) -0.5293(4) 0.4592(3)
H8 H 0.8045 -0.5979 0.4415
C12 C 0.7631(3) -0.4956(4) 0.5582(3)
H9 H 0.8299 -0.5411 0.6082
C13 C 0.6784(3) -0.3925(4) 0.5844(2)
C14 C 0.5707(3) -0.2423(4) 0.6546(2)
B1 B 0.4080(4) -0.0845(5) 0.7023(3)
F1 F 0.4251(3) 0.0426(3) 0.75224(18)
F2 F 0.3103(2) -0.1675(4) 0.73069(19)
N1 N 0.2241(2) -0.0015(3) 0.43572(18)
N2 N 0.3555(2) -0.0595(3) 0.58597(18)
N3 N 0.5785(2) -0.3267(3) 0.50680(19)
N4 N 0.6732(3) -0.3403(3) 0.6756(2)
O1 O 0.5344(2) -0.1665(3) 0.72692(16)
loop_
_geom_bond_atom_site_label_1
_geom_bond_atom_site_label_2
_geom_bond_site_symmetry_1
_geom_bond_site_symmetry_2
C1 C2 1_555 1_555
C2 H1 1_555 1_555
C3 C2 1_555 1_555
H2 C3 1_555 1_555
C4 C3 1_555 1_555
H3 C4 1_555 1_555
C5 C4 1_555 1_555
H4 C5 1_555 1_555
C6 H5 1_555 1_555
C7 C6 1_555 1_555
C8 C7 1_555 1_555
C9 H6 1_555 1_555
C10 C9 1_555 1_555
H7 C10 1_555 1_555
C11 C10 1_555 1_555
H8 C11 1_555 1_555
C12 C11 1_555 1_555
H9 C12 1_555 1_555
C13 C12 1_555 1_555
C14 C8 1_555 1_555
B1 F1 1_555 1_555
F2 B1 1_555 1_555
N1 C1 1_555 1_555
N2 C1 1_555 1_555
N3 C8 1_555 1_555
N4 C13 1_555 1_555
O1 C14 1_555 1_555
C5 N1 1_555 1_555
C6 N1 1_555 1_555
C7 N2 1_555 1_555
C9 N3 1_555 1_555
C13 N3 1_555 1_555
C14 N4 1_555 1_555
B1 N2 1_555 1_555
B1 O1 1_555 1_555

#END
