
#######################################################################
#
#                 Cambridge Crystallographic Data Centre
#                                CCDC 
#
#######################################################################
#
# If this CIF has been generated from an entry in the Cambridge 
# Structural Database, then it will include bibliographic, chemical, 
# crystal, experimental, refinement or atomic coordinate data resulting 
# from the CCDC's data processing and validation procedures.
#
#######################################################################

data_JUQSOD01
_chemical_formula_moiety         'C6 H9 D3 O5'
_chemical_name_systematic        'Methyl 2,3,5-O-trideutero-\a-D-lyxofuranoside'
_symmetry_cell_setting           orthorhombic
_symmetry_space_group_name_H-M   'P 21 21 21'
_symmetry_Int_Tables_number      19
_space_group_name_Hall           'P 2ac 2ab'
loop_
_symmetry_equiv_pos_site_id
_symmetry_equiv_pos_as_xyz
1 x,y,z
2 1/2-x,-y,1/2+z
3 -x,1/2+y,1/2-z
4 1/2+x,1/2-y,-z
_cell_length_a                   10.332(3)
_cell_length_b                   15.446(2)
_cell_length_c                   4.6140(10)
_cell_angle_alpha                90
_cell_angle_beta                 90
_cell_angle_gamma                90
_cell_volume                     736.339
_exptl_crystal_colour            white
_exptl_crystal_description       'rectangular needle'
_cell_formula_units_Z            4
_exptl_crystal_recrystallization_method 'deuterium oxide'
loop_
_atom_site_label
_atom_site_type_symbol
_atom_site_fract_x
_atom_site_fract_y
_atom_site_fract_z
C1 C -0.71775(10) 0.15156(7) 0.2425(3)
H1 H -0.7137(3) 0.11884(18) 0.0302(7)
C2 C -0.58410(10) 0.17232(7) 0.3689(3)
H2 H -0.5925(3) 0.1698(2) 0.6066(6)
C3 C -0.56211(10) 0.26672(7) 0.2821(3)
H3 H -0.4906(3) 0.29905(19) 0.4196(7)
C4 C -0.69916(11) 0.30098(7) 0.3245(2)
H4 H -0.7204(3) 0.30436(19) 0.5602(6)
C5 C -0.72594(11) 0.38786(7) 0.1845(3)
H5 H -0.7060(3) 0.3847(2) -0.0481(7)
H6 H -0.6603(3) 0.43621(18) 0.2816(9)
C6 C -0.89127(11) 0.05315(7) 0.3225(3)
H7 H -0.9648(3) 0.0956(2) 0.2300(11)
H8 H -0.8563(4) 0.0083(2) 0.1579(10)
H9 H -0.9336(4) 0.0167(2) 0.5002(10)
O1 O -0.78588(13) 0.10159(8) 0.4427(3)
O2 O -0.48778(12) 0.11402(8) 0.2712(3)
D1 D -0.4336(2) 0.09936(16) 0.4396(6)
O3 O -0.53067(13) 0.27315(9) -0.0162(3)
D2 D -0.4392(2) 0.26271(17) -0.0454(6)
O4 O -0.77866(12) 0.23423(8) 0.1956(3)
O5 O -0.85566(12) 0.41635(8) 0.2337(3)
D3 D -0.9083(2) 0.40055(17) 0.0658(6)
H10? H -0.4336(2) 0.09936(16) 0.4396(6)
H11? H -0.4392(2) 0.26271(17) -0.0454(6)
H12? H -0.9083(2) 0.40055(17) 0.0658(6)
loop_
_geom_bond_atom_site_label_1
_geom_bond_atom_site_label_2
_geom_bond_site_symmetry_1
_geom_bond_site_symmetry_2
C1 H1 1_555 1_555
C2 C1 1_555 1_555
H2 C2 1_555 1_555
C3 C2 1_555 1_555
H3 C3 1_555 1_555
C4 C3 1_555 1_555
H4 C4 1_555 1_555
C5 C4 1_555 1_555
H5 C5 1_555 1_555
H6 C5 1_555 1_555
C6 H7 1_555 1_555
H8 C6 1_555 1_555
H9 C6 1_555 1_555
O1 C1 1_555 1_555
O2 C2 1_555 1_555
D1 O2 1_555 1_555
O3 C3 1_555 1_555
D2 O3 1_555 1_555
O4 C1 1_555 1_555
O5 C5 1_555 1_555
D3 O5 1_555 1_555
C4 O4 1_555 1_555
C6 O1 1_555 1_555

#END
