
#######################################################################
#
#                 Cambridge Crystallographic Data Centre
#                                CCDC 
#
#######################################################################
#
# If this CIF has been generated from an entry in the Cambridge 
# Structural Database, then it will include bibliographic, chemical, 
# crystal, experimental, refinement or atomic coordinate data resulting 
# from the CCDC's data processing and validation procedures.
#
#######################################################################

data_JUQSET
_chemical_name_common            'PDB Chemical Component code: AXR'
_chemical_formula_moiety         'C6 H12 O5'
_chemical_name_systematic        'Methyl \a-D-arabinofuranoside'
_symmetry_cell_setting           triclinic
_symmetry_space_group_name_H-M   'P 1'
_symmetry_Int_Tables_number      1
_space_group_name_Hall           'P 1'
loop_
_symmetry_equiv_pos_site_id
_symmetry_equiv_pos_as_xyz
1 x,y,z
_cell_length_a                   12.2648(10)
_cell_length_b                   6.8312(10)
_cell_length_c                   4.601(2)
_cell_angle_alpha                89.60(3)
_cell_angle_beta                 100.63(3)
_cell_angle_gamma                86.67(3)
_cell_volume                     378.17
_exptl_crystal_colour            colorless
_exptl_crystal_description       arrowhead
_chemical_melting_point          325K
_cell_formula_units_Z            2
_exptl_crystal_recrystallization_method 'ethyl acetate'
loop_
_atom_site_label
_atom_site_type_symbol
_atom_site_fract_x
_atom_site_fract_y
_atom_site_fract_z
O1 O -0.66559(17) -1.3960(3) 0.0268(6)
O2 O -0.45413(18) -1.6297(3) -0.2373(6)
O3 O -0.32612(18) -1.4830(3) 0.3935(5)
O4 O -0.53861(17) -1.1636(3) -0.0397(6)
O5 O -0.33797(18) -0.9673(3) 0.0087(6)
C1 C -0.5799(2) -1.3515(4) -0.1212(7)
C2 C -0.4831(2) -1.5045(4) -0.0122(7)
C3 C -0.3891(2) -1.3824(4) 0.1380(7)
C4 C -0.4517(2) -1.1947(4) 0.2130(7)
C5 C -0.3827(2) -1.0168(4) 0.2627(8)
C6 C -0.7675(3) -1.2810(5) -0.0773(11)
H1 H -0.601(4) -1.340(6) -0.311(11)
H2 H -0.506(4) -1.590(7) 0.133(12)
H3 H -0.336(4) -1.358(7) -0.010(12)
H4 H -0.479(3) -1.222(6) 0.402(11)
H5 H -0.432(4) -0.915(7) 0.334(11)
H6 H -0.321(4) -1.051(7) 0.445(12)
H7 H -0.821(6) -1.335(9) 0.049(16)
H8 H -0.786(5) -1.286(9) -0.310(17)
H9 H -0.759(5) -1.143(9) -0.021(15)
H10 H -0.416(6) -1.575(10) -0.354(17)
H11 H -0.261(4) -1.445(8) 0.426(13)
H12 H -0.384(7) -0.864(11) -0.07(2)
O6 O 0.20372(18) -0.8802(3) -0.6212(6)
O7 O -0.01148(19) -1.0658(3) -0.3640(6)
O8 O -0.13237(18) -0.8691(3) -1.0121(6)
O9 O 0.07896(18) -0.6197(3) -0.5488(6)
O10 O -0.12180(18) -0.3764(3) -0.6071(6)
C7 C 0.1179(2) -0.8183(4) -0.4748(8)
C8 C 0.0198(2) -0.9464(4) -0.5859(7)
C9 C -0.0719(2) -0.8006(4) -0.7450(7)
C10 C -0.0063(2) -0.6262(4) -0.8054(7)
C11 C -0.0731(2) -0.4316(5) -0.8560(8)
C12 C 0.3063(3) -0.7920(5) -0.5148(10)
H13 H -0.028(4) -0.329(6) -0.883(11)
H14 H 0.149(4) -0.824(8) -0.263(13)
H15 H -0.133(4) -0.450(7) -1.003(12)
H16 H 0.048(3) -1.035(6) -0.720(10)
H17 H 0.362(6) -0.850(9) -0.606(16)
H18 H -0.124(4) -0.764(6) -0.612(11)
H19 H 0.329(6) -0.817(11) -0.279(19)
H20 H 0.026(4) -0.644(7) -0.974(11)
H21 H 0.301(5) -0.648(9) -0.560(15)
H22 H -0.062(5) -0.995(8) -0.273(14)
H23 H -0.197(5) -0.900(8) -0.980(13)
H24 H -0.086(4) -0.283(6) -0.524(11)
loop_
_geom_bond_atom_site_label_1
_geom_bond_atom_site_label_2
_geom_bond_site_symmetry_1
_geom_bond_site_symmetry_2
O1 C1 1_555 1_555
O2 C2 1_555 1_555
O3 C3 1_555 1_555
O4 C1 1_555 1_555
O5 C5 1_555 1_555
C1 C2 1_555 1_555
C2 C3 1_555 1_555
C3 C4 1_555 1_555
C4 O4 1_555 1_555
C5 C4 1_555 1_555
C6 O1 1_555 1_555
H1 C1 1_555 1_555
H2 C2 1_555 1_555
H3 C3 1_555 1_555
H4 C4 1_555 1_555
H5 C5 1_555 1_555
H6 C5 1_555 1_555
H7 C6 1_555 1_555
H8 C6 1_555 1_555
H9 C6 1_555 1_555
H10 O2 1_555 1_555
H11 O3 1_555 1_555
H12 O5 1_555 1_555
O6 C7 1_555 1_555
O7 C8 1_555 1_555
O8 C9 1_555 1_555
O9 C7 1_555 1_555
O10 C11 1_555 1_555
C7 C8 1_555 1_555
C8 C9 1_555 1_555
C9 C10 1_555 1_555
C10 O9 1_555 1_555
C11 C10 1_555 1_555
C12 O6 1_555 1_555
H13 C11 1_555 1_555
H14 C7 1_555 1_555
H15 C11 1_555 1_555
H16 C8 1_555 1_555
H17 C12 1_555 1_555
H18 C9 1_555 1_555
H19 C12 1_555 1_555
H20 C10 1_555 1_555
H21 C12 1_555 1_555
H22 O7 1_555 1_555
H23 O8 1_555 1_555
H24 O10 1_555 1_555

#END
