
#######################################################################
#
#                 Cambridge Crystallographic Data Centre
#                                CCDC 
#
#######################################################################
#
# If this CIF has been generated from an entry in the Cambridge 
# Structural Database, then it will include bibliographic, chemical, 
# crystal, experimental, refinement or atomic coordinate data resulting 
# from the CCDC's data processing and validation procedures.
#
#######################################################################

data_JUQTEW
_chemical_formula_moiety         'C22 H26 N8 Se1'
_chemical_name_systematic        
5,5'-(2,1,3-Benzoselenadiazole-4,7-diyl)bis(N,N-diethylpyrimidin-2-amine)
_symmetry_cell_setting           triclinic
_symmetry_space_group_name_H-M   'P -1'
_symmetry_Int_Tables_number      2
_space_group_name_Hall           '-P 1'
loop_
_symmetry_equiv_pos_site_id
_symmetry_equiv_pos_as_xyz
1 x,y,z
2 -x,-y,-z
_cell_length_a                   8.7524(5)
_cell_length_b                   8.7836(5)
_cell_length_c                   14.9820(8)
_cell_angle_alpha                98.910(2)
_cell_angle_beta                 98.117(2)
_cell_angle_gamma                92.599(2)
_cell_volume                     1123.82
_exptl_crystal_colour            red
_exptl_crystal_description       block
_cell_formula_units_Z            2
loop_
_atom_site_label
_atom_site_type_symbol
_atom_site_fract_x
_atom_site_fract_y
_atom_site_fract_z
Se1 Se 0.39368(4) 1.11582(5) 0.09994(3)
N1 N 0.2248(4) 1.1089(4) 0.1533(2)
N2 N 0.3416(4) 0.9365(4) 0.0249(2)
N3 N -0.0554(5) 1.1688(5) 0.3619(3)
N4 N -0.3007(4) 1.1246(6) 0.2667(3)
N5 N -0.2780(6) 1.2494(7) 0.4160(3)
N6 N 0.3991(4) 0.4942(5) -0.1170(3)
N7 N 0.1715(5) 0.4951(5) -0.2260(3)
N8 N 0.3824(6) 0.3607(7) -0.2628(3)
C1 C 0.1408(4) 0.9804(4) 0.1138(3)
C2 C 0.2060(4) 0.8848(4) 0.0426(3)
C3 C 0.1220(4) 0.7459(4) -0.0073(3)
C4 C -0.0210(5) 0.7134(5) 0.0144(3)
H1 H -0.0798 0.6263 -0.0181
C5 C -0.0839(5) 0.8071(5) 0.0846(3)
H2 H -0.1821 0.7784 0.0959
C6 C -0.0073(4) 0.9369(5) 0.1361(3)
C7 C -0.0753(5) 1.0281(5) 0.2099(3)
C8 C -0.2311(5) 1.0512(6) 0.2015(3)
H3 H -0.2918 1.0123 0.1458
C9 C 0.0078(5) 1.0966(6) 0.2938(3)
H4 H 0.1146 1.0910 0.3023
C10 C -0.2085(6) 1.1796(6) 0.3460(3)
C11 C -0.1919(9) 1.3046(11) 0.5056(4)
H5 H -0.0891 1.3417 0.4981
H6 H -0.2416 1.3924 0.5335
C12 C -0.1761(13) 1.1971(15) 0.5670(6)
H7 H -0.1243 1.1105 0.5414
H8 H -0.2766 1.1623 0.5774
H9 H -0.1166 1.2457 0.6239
C13 C -0.4386(9) 1.2857(10) 0.4006(5)
H10 H -0.4576 1.3705 0.4465
H11 H -0.4635 1.3156 0.3408
C14 C -0.5280(12) 1.1549(10) 0.4058(5)
H12 H -0.5098 1.0725 0.3593
H13 H -0.6353 1.1759 0.3970
H14 H -0.5011 1.1254 0.4648
C15 C 0.1903(5) 0.6434(4) -0.0763(3)
C16 C 0.3351(5) 0.5896(5) -0.0577(3)
H15 H 0.3914 0.6222 0.0001
C17 C 0.1128(5) 0.5884(5) -0.1635(3)
H16 H 0.0135 0.6190 -0.1790
C18 C 0.3163(6) 0.4542(6) -0.2002(3)
C19 C 0.5346(9) 0.2968(9) -0.2334(5)
H17 H 0.5337 0.2676 -0.1736
H18 H 0.5456 0.2041 -0.2758
C20 C 0.6688(12) 0.4049(13) -0.2290(7)
H19 H 0.6674 0.4394 -0.2868
H20 H 0.7620 0.3542 -0.2150
H21 H 0.6650 0.4921 -0.1822
C21 C 0.3280(17) 0.3421(14) -0.3582(8)
H22 H 0.4158 0.3438 -0.3912
H23 H 0.2670 0.4278 -0.3709
C22 C 0.2311(16) 0.1929(13) -0.3916(9)
H24 H 0.1860 0.1898 -0.4541
H25 H 0.1505 0.1860 -0.3548
H26 H 0.2950 0.1076 -0.3871
C23? C 0.2676(16) 0.2456(13) -0.3339(7)
H27? H 0.3092 0.1466 -0.3508
H28? H 0.1669 0.2316 -0.3151
C24? C 0.2683(19) 0.3423(14) -0.4016(9)
H29? H 0.1993 0.2962 -0.4557
H30? H 0.3711 0.3544 -0.4161
H31? H 0.2348 0.4416 -0.3790
loop_
_geom_bond_atom_site_label_1
_geom_bond_atom_site_label_2
_geom_bond_site_symmetry_1
_geom_bond_site_symmetry_2
Se1 N1 1_555 1_555
N1 C1 1_555 1_555
N2 Se1 1_555 1_555
N3 C9 1_555 1_555
N4 C8 1_555 1_555
N5 C10 1_555 1_555
N6 C16 1_555 1_555
N7 C17 1_555 1_555
N8 C18 1_555 1_555
C1 C2 1_555 1_555
C2 N2 1_555 1_555
C3 C2 1_555 1_555
C4 C3 1_555 1_555
H1 C4 1_555 1_555
C5 C4 1_555 1_555
H2 C5 1_555 1_555
C6 C1 1_555 1_555
C7 C6 1_555 1_555
C8 C7 1_555 1_555
H3 C8 1_555 1_555
C9 C7 1_555 1_555
H4 C9 1_555 1_555
C10 N3 1_555 1_555
C11 N5 1_555 1_555
H5 C11 1_555 1_555
H6 C11 1_555 1_555
C12 C11 1_555 1_555
H7 C12 1_555 1_555
H8 C12 1_555 1_555
H9 C12 1_555 1_555
C13 N5 1_555 1_555
H10 C13 1_555 1_555
H11 C13 1_555 1_555
C14 C13 1_555 1_555
H12 C14 1_555 1_555
H13 C14 1_555 1_555
H14 C14 1_555 1_555
C15 C3 1_555 1_555
C16 C15 1_555 1_555
H15 C16 1_555 1_555
C17 C15 1_555 1_555
H16 C17 1_555 1_555
C18 N6 1_555 1_555
C19 N8 1_555 1_555
H17 C19 1_555 1_555
H18 C19 1_555 1_555
C20 C19 1_555 1_555
H19 C20 1_555 1_555
H20 C20 1_555 1_555
H21 C20 1_555 1_555
C21 N8 1_555 1_555
H22 C21 1_555 1_555
H23 C21 1_555 1_555
C22 C21 1_555 1_555
H24 C22 1_555 1_555
H25 C22 1_555 1_555
H26 C22 1_555 1_555
N4 C10 1_555 1_555
N7 C18 1_555 1_555
C5 C6 1_555 1_555

#END
