
#######################################################################
#
#                 Cambridge Crystallographic Data Centre
#                                CCDC 
#
#######################################################################
#
# If this CIF has been generated from an entry in the Cambridge 
# Structural Database, then it will include bibliographic, chemical, 
# crystal, experimental, refinement or atomic coordinate data resulting 
# from the CCDC's data processing and validation procedures.
#
#######################################################################

data_JURDOR
_chemical_formula_moiety         'C18 H18 O2'
_chemical_name_systematic        
2-methyl-2-(1-(4-methylphenyl)vinyl)-2,3-dihydro-1-benzofuran-3-ol
_symmetry_cell_setting           monoclinic
_symmetry_space_group_name_H-M   'P 21/n'
_symmetry_Int_Tables_number      14
_space_group_name_Hall           '-P 2yn'
loop_
_symmetry_equiv_pos_site_id
_symmetry_equiv_pos_as_xyz
1 x,y,z
2 1/2-x,1/2+y,1/2-z
3 -x,-y,-z
4 1/2+x,1/2-y,1/2+z
_cell_length_a                   13.640(3)
_cell_length_b                   7.8939(16)
_cell_length_c                   14.097(3)
_cell_angle_alpha                90
_cell_angle_beta                 108.53(3)
_cell_angle_gamma                90
_cell_volume                     1439.17
_cell_formula_units_Z            4
loop_
_atom_site_label
_atom_site_type_symbol
_atom_site_fract_x
_atom_site_fract_y
_atom_site_fract_z
O1 O 0.29249(6) -0.03555(11) 0.23055(6)
O2 O 0.24165(7) 0.31381(11) 0.09870(6)
H1 H 0.2466 0.3482 0.1564
C1 C 0.38444(9) 0.05140(15) 0.26527(8)
C2 C 0.45669(9) 0.02942(16) 0.35917(9)
H2 H 0.4463 -0.0506 0.4054
C3 C 0.54533(9) 0.12987(16) 0.38278(9)
H3 H 0.5969 0.1168 0.4460
C4 C 0.55965(9) 0.24868(16) 0.31560(9)
H4 H 0.6202 0.3169 0.3337
C5 C 0.48566(9) 0.26829(15) 0.22164(9)
H5 H 0.4952 0.3495 0.1756
C6 C 0.39778(9) 0.16721(14) 0.19650(8)
C7 C 0.30267(9) 0.16516(14) 0.10576(8)
H6 H 0.3236 0.1543 0.0442
C8 C 0.24903(9) -0.00228(15) 0.12218(8)
C9 C 0.13273(9) 0.01197(17) 0.09796(9)
H7 H 0.1051 -0.0957 0.1131
H8 H 0.1012 0.0384 0.0268
H9 H 0.1167 0.1024 0.1383
C10 C 0.27920(9) -0.14890(15) 0.06657(9)
C11 C 0.32909(12) -0.28454(18) 0.11257(10)
H10 H 0.3442 -0.3746 0.0747
H11 H 0.3498 -0.2919 0.1835
C12 C 0.24600(9) -0.13588(15) -0.04564(9)
C13 C 0.14911(10) -0.19289(16) -0.10466(9)
H12 H 0.1030 -0.2398 -0.0735
C14 C 0.11879(11) -0.18233(17) -0.20852(10)
H13 H 0.0526 -0.2229 -0.2471
C15 C 0.18406(12) -0.11317(17) -0.25659(10)
C16 C 0.28153(12) -0.05907(17) -0.19781(10)
H14 H 0.3278 -0.0131 -0.2291
C17 C 0.31235(10) -0.07111(16) -0.09415(10)
H15 H 0.3797 -0.0347 -0.0558
C18 C 0.15066(15) -0.0953(2) -0.36904(11)
H16 H 0.0828 -0.1484 -0.3984
H17 H 0.2013 -0.1509 -0.3948
H18 H 0.1462 0.0251 -0.3869
loop_
_geom_bond_atom_site_label_1
_geom_bond_atom_site_label_2
_geom_bond_site_symmetry_1
_geom_bond_site_symmetry_2
O1 C1 1_555 1_555
O2 H1 1_555 1_555
C1 C2 1_555 1_555
C2 H2 1_555 1_555
C3 C2 1_555 1_555
H3 C3 1_555 1_555
C4 C3 1_555 1_555
H4 C4 1_555 1_555
C5 C4 1_555 1_555
H5 C5 1_555 1_555
C6 C1 1_555 1_555
C7 O2 1_555 1_555
H6 C7 1_555 1_555
C8 O1 1_555 1_555
C9 C8 1_555 1_555
H7 C9 1_555 1_555
H8 C9 1_555 1_555
H9 C9 1_555 1_555
C10 C8 1_555 1_555
C11 C10 1_555 1_555
H10 C11 1_555 1_555
H11 C11 1_555 1_555
C12 C10 1_555 1_555
C13 C12 1_555 1_555
H12 C13 1_555 1_555
C14 C13 1_555 1_555
H13 C14 1_555 1_555
C15 C14 1_555 1_555
C16 C15 1_555 1_555
H14 C16 1_555 1_555
C17 C12 1_555 1_555
H15 C17 1_555 1_555
C18 C15 1_555 1_555
H16 C18 1_555 1_555
H17 C18 1_555 1_555
H18 C18 1_555 1_555
C5 C6 1_555 1_555
C6 C7 1_555 1_555
C7 C8 1_555 1_555
C16 C17 1_555 1_555

#END
