
#######################################################################
#
#                 Cambridge Crystallographic Data Centre
#                                CCDC 
#
#######################################################################
#
# If this CIF has been generated from an entry in the Cambridge 
# Structural Database, then it will include bibliographic, chemical, 
# crystal, experimental, refinement or atomic coordinate data resulting 
# from the CCDC's data processing and validation procedures.
#
#######################################################################

data_JUSVIC
_chemical_formula_moiety         'C12 H16 O2'
_chemical_name_systematic        
(1R*,2S*)-1-Ethynyl-1-methoxy-2-((E)-but-2'-en-1'-on-1'-yl)cyclopentane
_symmetry_cell_setting           monoclinic
_symmetry_space_group_name_H-M   'P 21/n'
_symmetry_Int_Tables_number      14
_space_group_name_Hall           '-P 2yn'
loop_
_symmetry_equiv_pos_site_id
_symmetry_equiv_pos_as_xyz
1 x,y,z
2 1/2-x,1/2+y,1/2-z
3 -x,-y,-z
4 1/2+x,1/2-y,1/2+z
_cell_length_a                   8.211(2)
_cell_length_b                   12.391(2)
_cell_length_c                   10.738(2)
_cell_angle_alpha                90
_cell_angle_beta                 98.51(2)
_cell_angle_gamma                90
_cell_volume                     1080.48
_chemical_melting_point          62-63deg.C
_cell_formula_units_Z            4
loop_
_atom_site_label
_atom_site_type_symbol
_atom_site_fract_x
_atom_site_fract_y
_atom_site_fract_z
C1 C 0.1636(2) 0.1180(1) 0.1570(1)
C2 C 0.2947(2) 0.1128(1) 0.0655(1)
C3 C 0.2440(2) 0.2017(1) -0.0334(1)
C4 C 0.0815(2) 0.2494(1) -0.0036(1)
C5 C 0.0114(2) 0.1617(1) 0.0720(1)
O1 O 0.2300(1) 0.1951(1) 0.2507(1)
C6 C 0.1238(2) 0.2239(1) 0.3395(1)
C7 C 0.1327(2) 0.0135(1) 0.2157(1)
C8 C 0.1065(2) -0.0710(1) 0.2601(1)
C9 C 0.4695(2) 0.1232(1) 0.1364(1)
O2 O 0.5555(1) 0.2007(1) 0.1211(1)
C10 C 0.5269(2) 0.0357(1) 0.2257(1)
C11 C 0.6715(2) 0.0367(1) 0.2971(1)
C12 C 0.7329(2) -0.0438(1) 0.3958(1)
H1 H 0.284(2) 0.041(1) 0.029(1)
H2 H 0.334(2) 0.259(1) -0.031(1)
H3 H 0.227(2) 0.165(1) -0.117(1)
H4 H 0.105(2) 0.317(1) 0.050(1)
H5 H -0.074(2) 0.185(1) 0.121(1)
H6 H -0.033(2) 0.102(1) 0.016(1)
H7 H 0.189(2) 0.268(1) 0.402(2)
H8 H 0.082(2) 0.160(1) 0.377(1)
H9 H 0.031(2) 0.270(1) 0.299(2)
H10 H 0.087(2) -0.139(1) 0.291(1)
H11 H 0.453(2) -0.023(1) 0.233(1)
H12 H 0.744(2) 0.098(1) 0.286(2)
H13 H 0.757(3) -0.011(2) 0.476(2)
H14 H 0.657(3) -0.108(2) 0.399(2)
H15 H 0.831(3) -0.080(2) 0.385(2)
loop_
_geom_bond_atom_site_label_1
_geom_bond_atom_site_label_2
_geom_bond_site_symmetry_1
_geom_bond_site_symmetry_2
C1 C2 1_555 1_555
C2 C3 1_555 1_555
C3 C4 1_555 1_555
C4 C5 1_555 1_555
C5 C1 1_555 1_555
O1 C1 1_555 1_555
C6 O1 1_555 1_555
C7 C1 1_555 1_555
C8 C7 1_555 1_555
C9 C2 1_555 1_555
O2 C9 1_555 1_555
C10 C9 1_555 1_555
C11 C10 1_555 1_555
C12 C11 1_555 1_555
H1 C2 1_555 1_555
H2 C3 1_555 1_555
H3 C3 1_555 1_555
H4 C4 1_555 1_555
H5 C5 1_555 1_555
H6 C5 1_555 1_555
H7 C6 1_555 1_555
H8 C6 1_555 1_555
H9 C6 1_555 1_555
H10 C8 1_555 1_555
H11 C10 1_555 1_555
H12 C11 1_555 1_555
H13 C12 1_555 1_555
H14 C12 1_555 1_555
H15 C12 1_555 1_555

#END
