
#######################################################################
#
#                 Cambridge Crystallographic Data Centre
#                                CCDC 
#
#######################################################################
#
# If this CIF has been generated from an entry in the Cambridge 
# Structural Database, then it will include bibliographic, chemical, 
# crystal, experimental, refinement or atomic coordinate data resulting 
# from the CCDC's data processing and validation procedures.
#
#######################################################################

data_JUSXIE
_chemical_formula_moiety         'C72 H88 O4 Si8,2(C6 H6)'
_chemical_name_systematic        
'11,8,10:18,15,17:25,22,24:26,1,27-Tetra(1,3)butadien-1-yl-4-ylidene-tetrabenzo(b,d,i,n)(1,6,11,16)tetraoxacycloeicosin-3,6,13,20,31,34,38,42-octayloctakis(trimethyl)silane dibenzene clathrate'
_symmetry_cell_setting           tetragonal
_symmetry_space_group_name_H-M   'I 41/a'
_symmetry_Int_Tables_number      88
_space_group_name_Hall           '-I 4ad'
loop_
_symmetry_equiv_pos_site_id
_symmetry_equiv_pos_as_xyz
1 x,y,z
2 1/2+x,1/2+y,1/2+z
3 3/4-y,1/4+x,1/4+z
4 1/4-y,3/4+x,3/4+z
5 1/2-x,-y,1/2+z
6 -x,1/2-y,z
7 3/4+y,3/4-x,3/4+z
8 1/4+y,1/4-x,1/4+z
9 -x,-y,-z
10 1/2-x,1/2-y,1/2-z
11 1/4+y,3/4-x,3/4-z
12 3/4+y,1/4-x,1/4-z
13 1/2+x,y,1/2-z
14 x,1/2+y,-z
15 1/4-y,1/4+x,1/4-z
16 3/4-y,3/4+x,3/4-z
_cell_length_a                   25.147(2)
_cell_length_b                   25.147(2)
_cell_length_c                   14.972(1)
_cell_angle_alpha                90
_cell_angle_beta                 90
_cell_angle_gamma                90
_cell_volume                     9467.87
_exptl_crystal_colour            colorless
_chemical_melting_point          'above 300deg.C'
_cell_formula_units_Z            4
loop_
_atom_site_label
_atom_site_type_symbol
_atom_site_fract_x
_atom_site_fract_y
_atom_site_fract_z
Si1 Si 0.1068(1) 0.5235(1) 0.1323(2)
C1 C 0.0800(17) 0.5353(8) 0.2349(11)
C2 C 0.1780(8) 0.5095(10) 0.1531(23)
C3 C 0.0818(9) 0.4630(5) 0.0709(11)
Si2 Si 0.2162(2) 0.8547(1) 0.1566(2)
C4 C 0.2153(9) 0.9271(6) 0.1250(12)
C5 C 0.1957(10) 0.8423(7) 0.2684(9)
C6 C 0.2890(9) 0.8298(9) 0.1517(19)
C13 C 0.1020(3) 0.5833(3) 0.0591(5)
C14 C 0.1192(3) 0.6340(3) 0.0886(5)
C15 C 0.1159(3) 0.6763(3) 0.0309(5)
C16 C 0.1338(3) 0.7319(3) 0.0356(5)
C17 C 0.1606(3) 0.7621(3) 0.0983(6)
C18 C 0.1767(4) 0.8143(4) 0.0756(6)
C19 C 0.1632(3) 0.8330(3) -0.0092(6)
C20 C 0.1356(3) 0.8042(3) -0.0738(5)
C21 C 0.1207(3) 0.7538(3) -0.0466(5)
O1 O 0.0955(2) 0.7173(2) -0.1017(3)
C22 C 0.0941(3) 0.6703(3) -0.0538(5)
C23 C 0.1271(3) 0.8255(3) -0.1646(5)
C24 C 0.0804(3) 0.5809(3) -0.0259(5)
H1 H 0.1385 0.6350 0.1560
H2 H 0.1838 0.7441 0.1546
H3 H 0.1795 0.8636 -0.0331
H4 H 0.0762 0.5492 -0.0482
C23J C 0.0755(3) 0.6229(3) -0.0854(5)
C22O C 0.0797(3) 0.8441(3) -0.1962(5)
C24O C 0.1691(3) 0.8304(3) -0.2241(5)
C20J C 0.0542(3) 0.6144(3) -0.1762(5)
C15O C 0.0737(3) 0.8659(3) -0.2809(5)
O1O O 0.0327(2) 0.8455(2) -0.1483(3)
C13O C 0.1667(3) 0.8520(3) -0.3091(5)
H4O H 0.2008 0.8262 -0.2018
C19J C 0.0830(3) 0.5868(3) -0.2408(6)
C21J C 0.0038(3) 0.6293(3) -0.2034(5)
C14O C 0.1160(3) 0.8692(3) -0.3386(5)
C16O C 0.0181(3) 0.8838(3) -0.2856(5)
C21O C -0.0038(3) 0.8707(3) -0.2034(5)
Si1O Si 0.2265(1) 0.8568(1) -0.3823(2)
C18J C 0.0643(4) 0.5733(4) -0.3256(6)
H3J H 0.1136 0.5705 -0.2169
C16J C -0.0181(3) 0.6162(3) -0.2856(5)
O1J O -0.0327(2) 0.6545(2) -0.1483(3)
H1O H 0.1150 0.8885 -0.4060
C17O C -0.0121(3) 0.9106(3) -0.3483(6)
C20O C -0.0542(3) 0.8856(3) -0.1762(5)
C1O C 0.2147(8) 0.8300(17) -0.4849(11)
C2O C 0.2405(10) 0.9280(8) -0.4031(23)
C3O C 0.2870(5) 0.8318(9) -0.3209(11)
Si2J Si 0.1047(1) 0.5338(2) -0.4066(2)
C17J C 0.0121(3) 0.5894(3) -0.3483(6)
C15J C -0.0737(3) 0.6341(3) -0.2809(5)
C22J C -0.0797(3) 0.6559(3) -0.1962(5)
C18O C -0.0643(4) 0.9267(4) -0.3256(6)
H2O H 0.0059 0.9338 -0.4046
C19O C -0.0830(3) 0.9132(3) -0.2408(6)
C23O C -0.0755(3) 0.8771(3) -0.0854(5)
C4J C 0.1771(6) 0.5347(9) -0.3750(12)
C5J C 0.0923(7) 0.5543(10) -0.5184(9)
C6J C 0.0798(9) 0.4610(9) -0.4017(19)
H2J H -0.0059 0.5662 -0.4046
C14J C -0.1160(3) 0.6308(3) -0.3386(5)
C23E C -0.1271(3) 0.6745(3) -0.1646(5)
Si2O Si -0.1047(1) 0.9662(2) -0.4066(2)
H3O H -0.1136 0.9295 -0.2169
C22E C -0.0941(3) 0.8297(3) -0.0538(5)
C24E C -0.0804(3) 0.9191(3) -0.0259(5)
C13J C -0.1667(3) 0.6480(3) -0.3091(5)
H1J H -0.1150 0.6115 -0.4060
C20E C -0.1356(3) 0.6958(3) -0.0738(5)
C24J C -0.1691(3) 0.6696(3) -0.2241(5)
C4O C -0.1771(6) 0.9653(9) -0.3750(12)
C5O C -0.0923(7) 0.9457(10) -0.5184(9)
C6O C -0.0798(9) 1.0390(9) -0.4017(19)
C15E C -0.1159(3) 0.8237(3) 0.0309(5)
O1E O -0.0955(2) 0.7827(2) -0.1017(3)
C13E C -0.1020(3) 0.9167(3) 0.0591(5)
H4E H -0.0762 0.9508 -0.0482
Si1J Si -0.2265(1) 0.6432(1) -0.3823(2)
C19E C -0.1632(3) 0.6670(3) -0.0092(6)
C21E C -0.1207(3) 0.7462(3) -0.0466(5)
H4J H -0.2008 0.6738 -0.2018
C14E C -0.1192(3) 0.8660(3) 0.0886(5)
C16E C -0.1338(3) 0.7681(3) 0.0356(5)
Si1E Si -0.1068(1) 0.9765(1) 0.1323(2)
C1J C -0.2147(8) 0.6700(17) -0.4849(11)
C2J C -0.2405(10) 0.5720(8) -0.4031(23)
C3J C -0.2870(5) 0.6682(9) -0.3209(11)
C18E C -0.1767(4) 0.6857(4) 0.0756(6)
H3E H -0.1795 0.6364 -0.0331
H1E H -0.1385 0.8650 0.1560
C17E C -0.1606(3) 0.7379(3) 0.0983(6)
C1E C -0.0800(17) 0.9647(8) 0.2349(11)
C2E C -0.1780(8) 0.9905(10) 0.1531(23)
C3E C -0.0818(9) 1.0370(5) 0.0709(11)
Si2E Si -0.2162(2) 0.6453(1) 0.1566(2)
H2E H -0.1838 0.7559 0.1546
C4E C -0.2153(9) 0.5729(6) 0.1250(12)
C5E C -0.1957(10) 0.6577(7) 0.2684(9)
C6E C -0.2890(9) 0.6702(9) 0.1517(19)
C7? C -0.0025(10) 0.7667(18) 0.0802(15)
C8? C 0.0159(10) 0.7841(18) 0.1631(15)
C9? C 0.0166(10) 0.7493(18) 0.2357(15)
C10? C -0.0010(10) 0.6970(18) 0.2253(15)
C11? C -0.0193(10) 0.6796(18) 0.1424(15)
C12? C -0.0200(10) 0.7144(18) 0.0698(15)
loop_
_geom_bond_atom_site_label_1
_geom_bond_atom_site_label_2
_geom_bond_site_symmetry_1
_geom_bond_site_symmetry_2
Si1 C1 1_555 1_555
C2 Si1 1_555 1_555
C3 Si1 1_555 1_555
Si2 C4 1_555 1_555
C5 Si2 1_555 1_555
C6 Si2 1_555 1_555
C13 Si1 1_555 1_555
C14 C13 1_555 1_555
C15 C14 1_555 1_555
C16 C15 1_555 1_555
C17 C16 1_555 1_555
C18 Si2 1_555 1_555
C19 C18 1_555 1_555
C20 C19 1_555 1_555
C21 C16 1_555 1_555
O1 C21 1_555 1_555
C22 C15 1_555 1_555
C23 C20 1_555 1_555
C24 C13 1_555 1_555
H1 C14 1_555 1_555
H2 C17 1_555 1_555
H3 C19 1_555 1_555
H4 C24 1_555 1_555
C23J C22 1_555 1_555
C22O C23 1_555 1_555
C24O C23 1_555 1_555
C20J C23J 1_555 1_555
C15O C22O 1_555 1_555
O1O C22O 1_555 1_555
C13O C24O 1_555 1_555
H4O C24O 1_555 1_555
C19J C20J 1_555 1_555
C21J C20J 1_555 1_555
C14O C15O 1_555 1_555
C16O C15O 1_555 1_555
C21O O1O 1_555 1_555
Si1O C13O 1_555 1_555
C18J C19J 1_555 1_555
H3J C19J 1_555 1_555
C16J C21J 1_555 1_555
O1J C21J 1_555 1_555
H1O C14O 1_555 1_555
C17O C16O 1_555 1_555
C20O C21O 1_555 1_555
C1O Si1O 1_555 1_555
C2O Si1O 1_555 1_555
C3O Si1O 1_555 1_555
Si2J C18J 1_555 1_555
C17J C18J 1_555 1_555
C15J C16J 1_555 1_555
C22J O1J 1_555 1_555
C18O C17O 1_555 1_555
H2O C17O 1_555 1_555
C19O C20O 1_555 1_555
C23O C20O 1_555 1_555
C4J Si2J 1_555 1_555
C5J Si2J 1_555 1_555
C6J Si2J 1_555 1_555
H2J C17J 1_555 1_555
C14J C15J 1_555 1_555
C23E C22J 1_555 1_555
Si2O C18O 1_555 1_555
H3O C19O 1_555 1_555
C22E C23O 1_555 1_555
C24E C23O 1_555 1_555
C13J C14J 1_555 1_555
H1J C14J 1_555 1_555
C20E C23E 1_555 1_555
C24J C23E 1_555 1_555
C4O Si2O 1_555 1_555
C5O Si2O 1_555 1_555
C6O Si2O 1_555 1_555
C15E C22E 1_555 1_555
O1E C22E 1_555 1_555
C13E C24E 1_555 1_555
H4E C24E 1_555 1_555
Si1J C13J 1_555 1_555
C19E C20E 1_555 1_555
C21E C20E 1_555 1_555
H4J C24J 1_555 1_555
C14E C15E 1_555 1_555
C16E C15E 1_555 1_555
Si1E C13E 1_555 1_555
C1J Si1J 1_555 1_555
C2J Si1J 1_555 1_555
C3J Si1J 1_555 1_555
C18E C19E 1_555 1_555
H3E C19E 1_555 1_555
H1E C14E 1_555 1_555
C17E C16E 1_555 1_555
C1E Si1E 1_555 1_555
C2E Si1E 1_555 1_555
C3E Si1E 1_555 1_555
Si2E C18E 1_555 1_555
H2E C17E 1_555 1_555
C4E Si2E 1_555 1_555
C5E Si2E 1_555 1_555
C6E Si2E 1_555 1_555
C17 C18 1_555 1_555
C20 C21 1_555 1_555
O1 C22 1_555 1_555
C24 C23J 1_555 1_555
C13O C14O 1_555 1_555
C16O C21O 1_555 1_555
C16J C17J 1_555 1_555
C15J C22J 1_555 1_555
C18O C19O 1_555 1_555
C13J C24J 1_555 1_555
O1E C21E 1_555 1_555
C13E C14E 1_555 1_555
C21E C16E 1_555 1_555
C18E C17E 1_555 1_555

#END
