
#######################################################################
#
#                 Cambridge Crystallographic Data Centre
#                                CCDC 
#
#######################################################################
#
# If this CIF has been generated from an entry in the Cambridge 
# Structural Database, then it will include bibliographic, chemical, 
# crystal, experimental, refinement or atomic coordinate data resulting 
# from the CCDC's data processing and validation procedures.
#
#######################################################################

data_JUTBAB
_chemical_formula_moiety         'C18 H18 O3'
_chemical_name_systematic        
4,5-Benzo-1-methoxy-7-phenyl-2,9-dioxabicyclo(4.2.1)non-4-ene
_symmetry_cell_setting           monoclinic
_symmetry_space_group_name_H-M   'P 21/c'
_symmetry_Int_Tables_number      14
_space_group_name_Hall           '-P 2ybc'
loop_
_symmetry_equiv_pos_site_id
_symmetry_equiv_pos_as_xyz
1 x,y,z
2 -x,1/2+y,1/2-z
3 -x,-y,-z
4 x,1/2-y,1/2+z
_cell_length_a                   12.620(4)
_cell_length_b                   6.234(1)
_cell_length_c                   18.976(5)
_cell_angle_alpha                90
_cell_angle_beta                 106.82(3)
_cell_angle_gamma                90
_cell_volume                     1429.03
_exptl_crystal_colour            white
_chemical_melting_point          70deg.C(dec.)
_cell_formula_units_Z            4
loop_
_atom_site_label
_atom_site_type_symbol
_atom_site_fract_x
_atom_site_fract_y
_atom_site_fract_z
C1 C 0.8228(2) -0.0411(4) 0.5678(1)
O1 O 0.8185(1) 0.1116(2) 0.62292(7)
C2 C 0.9009(2) 0.0807(3) 0.6919(1)
C3 C 0.8634(1) -0.0800(3) 0.7382(1)
C4 C 0.8814(2) -0.0396(4) 0.8130(1)
C5 C 0.8500(2) -0.1830(4) 0.8582(1)
C6 C 0.7976(2) -0.3722(4) 0.8287(1)
C7 C 0.7792(2) -0.4143(4) 0.7547(1)
C8 C 0.8120(1) -0.2717(3) 0.7088(1)
C9 C 0.7956(2) -0.3383(3) 0.6290(1)
O2 O 0.8737(1) -0.2307(2) 0.59935(7)
O3 O 0.8928 0.0270 0.5274
C10 C 0.8737(2) 0.2350(4) 0.4978(1)
C11 C 0.7041(2) -0.0979(4) 0.5287(1)
C12 C 0.6816(2) -0.2970(4) 0.5714(1)
C13 C 0.5846(2) -0.2894(4) 0.6027(1)
C14 C 0.5601(2) -0.1089(4) 0.6383(1)
C15 C 0.4735(2) -0.1128(5) 0.6695(1)
C16 C 0.4100(2) -0.2938(5) 0.6656(1)
C17 C 0.4332(2) -0.4735(5) 0.6309(1)
C18 C 0.5195(2) -0.4711(4) 0.5993(1)
H1 H 0.9146 0.2137 0.7174
H2 H 0.9672 0.0311 0.6832
H3 H 0.9162 0.0906 0.8333
H4 H 0.8640 -0.1527 0.9091
H5 H 0.7748 -0.4719 0.8593
H6 H 0.7431 -0.5437 0.7347
H7 H 0.8043 -0.4893 0.6348
H8 H 0.9254 0.2658 0.4713
H9 H 0.8006 0.2437 0.4654
H10 H 0.8823 0.3361 0.5365
H11 H 0.6954 -0.1318 0.4785
H12 H 0.6561 0.0170 0.5315
H13 H 0.6580 -0.4127 0.5383
H14 H 0.6031 0.0176 0.6413
H15 H 0.4579 0.0114 0.6937
H16 H 0.3504 -0.2941 0.6868
H17 H 0.3901 -0.5996 0.6286
H18 H 0.5345 -0.5958 0.5750
O4? O 0.8122 0.0663 0.5103
loop_
_geom_bond_atom_site_label_1
_geom_bond_atom_site_label_2
_geom_bond_site_symmetry_1
_geom_bond_site_symmetry_2
C1 O1 1_555 1_555
O1 C2 1_555 1_555
C2 C3 1_555 1_555
C3 C4 1_555 1_555
C4 C5 1_555 1_555
C5 C6 1_555 1_555
C6 C7 1_555 1_555
C7 C8 1_555 1_555
C8 C3 1_555 1_555
C9 C8 1_555 1_555
O2 C1 1_555 1_555
O3 C1 1_555 1_555
C10 O3 1_555 1_555
C11 C1 1_555 1_555
C12 C9 1_555 1_555
C13 C12 1_555 1_555
C14 C13 1_555 1_555
C15 C14 1_555 1_555
C16 C15 1_555 1_555
C17 C16 1_555 1_555
C18 C13 1_555 1_555
H1 C2 1_555 1_555
H2 C2 1_555 1_555
H3 C4 1_555 1_555
H4 C5 1_555 1_555
H5 C6 1_555 1_555
H6 C7 1_555 1_555
H7 C9 1_555 1_555
H8 C10 1_555 1_555
H9 C10 1_555 1_555
H10 C10 1_555 1_555
H11 C11 1_555 1_555
H12 C11 1_555 1_555
H13 C12 1_555 1_555
H14 C14 1_555 1_555
H15 C15 1_555 1_555
H16 C16 1_555 1_555
H17 C17 1_555 1_555
H18 C18 1_555 1_555
C9 O2 1_555 1_555
C11 C12 1_555 1_555
C17 C18 1_555 1_555

#END
