
#######################################################################
#
#                 Cambridge Crystallographic Data Centre
#                                CCDC 
#
#######################################################################
#
# If this CIF has been generated from an entry in the Cambridge 
# Structural Database, then it will include bibliographic, chemical, 
# crystal, experimental, refinement or atomic coordinate data resulting 
# from the CCDC's data processing and validation procedures.
#
#######################################################################

data_JUTBOR
_chemical_formula_moiety         'C14 H18 N2 O3 S1'
_chemical_name_systematic        
N-(t-Butylsulfinyl)-2-phenyl-4,5-dihydro-1,3-oxazole-4-carboxamide
_symmetry_cell_setting           monoclinic
_symmetry_space_group_name_H-M   'P 21'
_symmetry_Int_Tables_number      4
_space_group_name_Hall           'P 2yb'
loop_
_symmetry_equiv_pos_site_id
_symmetry_equiv_pos_as_xyz
1 x,y,z
2 -x,1/2+y,-z
_cell_length_a                   6.306(4)
_cell_length_b                   8.935(6)
_cell_length_c                   13.518(9)
_cell_angle_alpha                90
_cell_angle_beta                 96.662(8)
_cell_angle_gamma                90
_cell_volume                     756.517
_exptl_crystal_colour            colorless
_exptl_crystal_description       rod
_cell_formula_units_Z            2
loop_
_atom_site_label
_atom_site_type_symbol
_atom_site_fract_x
_atom_site_fract_y
_atom_site_fract_z
S1 S 0.59061(18) 0.41856(9) 0.39831(7)
N1 N 0.7010(5) 0.2973(3) 0.4834(2)
N2 N 0.8189(5) 0.2768(4) 0.7073(2)
O1 O 0.4328(6) 0.5075(4) 0.4444(2)
O2 O 0.9686(5) 0.4582(3) 0.5265(2)
O3 O 1.1490(4) 0.3562(4) 0.7637(2)
C1 C 0.4405(7) 0.2883(5) 0.3141(3)
C2 C 0.2741(8) 0.2066(6) 0.3638(4)
H1 H 0.1811 0.1535 0.3146
H2 H 0.1924 0.2772 0.3973
H3 H 0.3423 0.1369 0.4113
C3 C 0.3339(10) 0.3879(6) 0.2323(3)
H4 H 0.4412 0.4382 0.1998
H5 H 0.2465 0.4607 0.2606
H6 H 0.2466 0.3281 0.1847
C4 C 0.5985(10) 0.1831(9) 0.2745(5)
H7 H 0.5247 0.1183 0.2254
H8 H 0.6677 0.1242 0.3282
H9 H 0.7035 0.2402 0.2447
C5 C 0.8806(7) 0.3422(5) 0.5415(3)
C6 C 0.9535(6) 0.2413(4) 0.6277(3)
H10 H 0.9405 0.1357 0.6084
C7 C 1.1806(7) 0.2784(6) 0.6736(4)
H11 H 1.2638 0.1880 0.6879
H12 H 1.2526 0.3415 0.6296
C8 C 0.9396(6) 0.3428(4) 0.7740(3)
C9 C 0.8735(6) 0.4077(5) 0.8646(3)
C10 C 1.0068(8) 0.5038(6) 0.9228(4)
H13 H 1.1387 0.5299 0.9036
C11 C 0.9440(13) 0.5608(7) 1.0092(5)
H14 H 1.0358 0.6223 1.0498
C12 C 0.7487(11) 0.5274(8) 1.0352(4)
H15 H 0.7055 0.5699 1.0924
C13 C 0.6136(9) 0.4326(9) 0.9793(4)
H16 H 0.4814 0.4081 0.9989
C14 C 0.6769(7) 0.3742(6) 0.8935(3)
H17 H 0.5852 0.3109 0.8542
H18 H 0.617(6) 0.228(5) 0.502(3)
loop_
_geom_bond_atom_site_label_1
_geom_bond_atom_site_label_2
_geom_bond_site_symmetry_1
_geom_bond_site_symmetry_2
S1 N1 1_555 1_555
N1 C5 1_555 1_555
N2 C6 1_555 1_555
O1 S1 1_555 1_555
O2 C5 1_555 1_555
O3 C7 1_555 1_555
C1 S1 1_555 1_555
C2 C1 1_555 1_555
H1 C2 1_555 1_555
H2 C2 1_555 1_555
H3 C2 1_555 1_555
C3 C1 1_555 1_555
H4 C3 1_555 1_555
H5 C3 1_555 1_555
H6 C3 1_555 1_555
C4 C1 1_555 1_555
H7 C4 1_555 1_555
H8 C4 1_555 1_555
H9 C4 1_555 1_555
C5 C6 1_555 1_555
C6 H10 1_555 1_555
C7 C6 1_555 1_555
H11 C7 1_555 1_555
H12 C7 1_555 1_555
C8 N2 1_555 1_555
C9 C8 1_555 1_555
C10 C9 1_555 1_555
H13 C10 1_555 1_555
C11 C10 1_555 1_555
H14 C11 1_555 1_555
C12 C11 1_555 1_555
H15 C12 1_555 1_555
C13 C12 1_555 1_555
H16 C13 1_555 1_555
C14 C9 1_555 1_555
H17 C14 1_555 1_555
H18 N1 1_555 1_555
O3 C8 1_555 1_555
C13 C14 1_555 1_555

#END
