
#######################################################################
#
#                 Cambridge Crystallographic Data Centre
#                                CCDC 
#
#######################################################################
#
# If this CIF has been generated from an entry in the Cambridge 
# Structural Database, then it will include bibliographic, chemical, 
# crystal, experimental, refinement or atomic coordinate data resulting 
# from the CCDC's data processing and validation procedures.
#
#######################################################################

data_JUTDIN
_chemical_formula_moiety         'C16 H15 N5 O3'
_chemical_name_systematic        
'(E)-Methyl 2-(4-benzyl-1-(3-(dimethylamino)propyl)-8-nitro-3-oxo-3,4-dihydropyrazino[2,3-b]quinoxalin-2(1H)-ylidene)acetate'
_symmetry_cell_setting           monoclinic
_symmetry_space_group_name_H-M   'P 21'
_symmetry_Int_Tables_number      4
_space_group_name_Hall           'P 2yb'
loop_
_symmetry_equiv_pos_site_id
_symmetry_equiv_pos_as_xyz
1 x,y,z
2 -x,1/2+y,-z
_cell_length_a                   8.4267(9)
_cell_length_b                   10.4362(12)
_cell_length_c                   17.949(2)
_cell_angle_alpha                90
_cell_angle_beta                 100.189(7)
_cell_angle_gamma                90
_cell_volume                     1553.59
_exptl_crystal_colour            yellow
_exptl_crystal_description       needle
_cell_formula_units_Z            4
_exptl_crystal_recrystallization_method 
'Re-crystallisation from solvent: chloroform, methanol'
_exptl_crystal_preparation       Luminescent
loop_
_atom_site_label
_atom_site_type_symbol
_atom_site_fract_x
_atom_site_fract_y
_atom_site_fract_z
O1 O -1.0289(4) -0.4892(4) -0.4957(2)
O2 O -0.9919(4) -0.2977(5) -0.5345(2)
N1 N -0.4770(3) -0.3205(3) -0.23158(17)
N2 N -0.4193(3) 0.0216(4) -0.22923(18)
C1 C -0.4813(5) 0.1377(5) -0.2706(3)
H1 H -0.4228 0.1521 -0.3118
H2 H -0.4629 0.2108 -0.2368
C2 C -0.6587(5) 0.1274(5) -0.3020(3)
H3 H -0.6943 0.2038 -0.3310
H4 H -0.7186 0.1211 -0.2608
C3 C -0.6922(4) 0.0111(4) -0.3523(2)
H5 H -0.8074 -0.0042 -0.3638
H6 H -0.6544 0.0264 -0.3995
N3 N -0.3110(3) -0.1857(4) -0.15096(17)
H7 H -0.2742 -0.1094 -0.1419
N4 N -0.9584(4) -0.3847(6) -0.4898(2)
C4 C -0.4253(3) -0.2049(4) -0.2124(2)
C5 C -0.4853(3) -0.0860(4) -0.25355(19)
N5 N -0.6101(3) -0.1032(3) -0.31435(15)
C6 C -0.6621(3) -0.2256(4) -0.3391(2)
C7 C -0.7790(3) -0.2443(4) -0.40403(19)
H8 H -0.8216 -0.1751 -0.4336
C8 C -0.8299(4) -0.3679(5) -0.4232(2)
C9 C -0.7675(4) -0.4748(5) -0.3829(2)
H9 H -0.8040 -0.5568 -0.3974
C10 C -0.6492(4) -0.4554(4) -0.3203(2)
H10 H -0.6043 -0.5263 -0.2929
C11 C -0.5939(3) -0.3331(4) -0.2964(2)
C12 C -0.2464(4) -0.2880(5) -0.0990(2)
H11 H -0.1353 -0.2683 -0.0774
H12 H -0.2472 -0.3674 -0.1271
C13 C -0.340(3) -0.307(2) -0.0360(11)
O3 O -0.3141(14) -0.2150(14) 0.0208(7)
C14 C -0.4101(14) -0.2476(15) 0.0745(6)
H13 H -0.4177 -0.2014 0.1180
C15 C -0.491(2) -0.3588(15) 0.0520(11)
H14 H -0.5626 -0.4021 0.0767
C16 C -0.4428(15) -0.3934(15) -0.0148(8)
H15 H -0.4770 -0.4673 -0.0420
O5 O -1.5284(4) -0.1108(4) -0.5345(2)
O6 O -1.5161(4) -0.3166(4) -0.53088(18)
O7 O -0.8994(3) -0.0986(3) -0.01391(15)
N6 N -0.9812(3) -0.1707(3) -0.24971(17)
N7 N -0.8185(3) -0.2652(3) -0.14838(17)
H21 H -0.7831 -0.3343 -0.1251
N8 N -1.4687(3) -0.2104(5) -0.5065(2)
C21 C -0.9303(3) -0.2747(4) -0.2114(2)
C22 C -0.9890(4) -0.4058(4) -0.2324(2)
N9 N -0.9229(4) -0.4975(4) -0.1900(2)
C23 C -0.9557(15) -0.6280(15) -0.2164(10)
H22 H -0.9284 -0.6880 -0.1748
H23 H -0.8927 -0.6490 -0.2550
C24 C -1.1367(13) -0.6348(10) -0.2491(8)
H24 H -1.1986 -0.6094 -0.2108
H25 H -1.1662 -0.7220 -0.2643
C25 C -1.1762(5) -0.5438(4) -0.3189(3)
H26 H -1.1295 -0.5771 -0.3606
H27 H -1.2920 -0.5374 -0.3352
N10 N -1.1078(3) -0.4160(3) -0.29628(18)
C26 C -1.1667(3) -0.3065(4) -0.33786(19)
C27 C -1.2861(4) -0.3144(4) -0.4023(2)
H28 H -1.3282 -0.3933 -0.4200
C28 C -1.3409(3) -0.2015(4) -0.4395(2)
C29 C -1.2809(4) -0.0819(4) -0.4166(2)
H29 H -1.3201 -0.0083 -0.4428
C30 C -1.1604(4) -0.0755(4) -0.3532(2)
H30 H -1.1176 0.0039 -0.3370
C31 C -1.1014(3) -0.1856(4) -0.31315(19)
C32 C -0.7545(3) -0.1425(4) -0.1176(2)
H31 H -0.7196 -0.0934 -0.1577
H32 H -0.6606 -0.1581 -0.0789
C33 C -0.8727(3) -0.0654(4) -0.0844(2)
C34 C -0.9659(4) 0.0346(4) -0.1100(2)
H33 H -0.9711 0.0749 -0.1566
C35 C -1.0557(5) 0.0678(6) -0.0525(3)
H34 H -1.1297 0.1343 -0.0542
C36 C -1.0135(6) -0.0139(6) 0.0034(4)
H35 H -1.0547 -0.0144 0.0482
H16? H -0.1427 -0.2610 -0.0709
H17? H -0.2284 -0.3629 -0.1283
C17? C -0.350(6) -0.324(4) -0.045(2)
O4? O -0.362(2) -0.245(3) 0.0141(14)
C18? C -0.453(2) -0.421(2) -0.0517(13)
H18? H -0.4732 -0.4796 -0.0913
C19? C -0.523(2) -0.417(2) 0.0117(13)
H19? H -0.5961 -0.4760 0.0246
C20? C -0.469(4) -0.311(3) 0.052(2)
H20? H -0.4974 -0.2863 0.0981
C37? C -1.0678(19) -0.6544(13) -0.2887(10)
H36? H -0.9720 -0.6560 -0.3118
H37? H -1.1240 -0.7354 -0.2985
C38? C -1.024(3) -0.629(2) -0.2032(13)
H38? H -0.9594 -0.6993 -0.1787
H39? H -1.1208 -0.6224 -0.1815
H40? H -1.1986 -0.5485 -0.3737
H41? H -1.2779 -0.5528 -0.3012
loop_
_geom_bond_atom_site_label_1
_geom_bond_atom_site_label_2
_geom_bond_site_symmetry_1
_geom_bond_site_symmetry_2
O1 N4 1_555 1_555
O2 N4 1_555 1_555
N1 C4 1_555 1_555
N2 C1 1_555 1_555
C1 H1 1_555 1_555
H2 C1 1_555 1_555
C2 C1 1_555 1_555
H3 C2 1_555 1_555
H4 C2 1_555 1_555
C3 C2 1_555 1_555
H5 C3 1_555 1_555
H6 C3 1_555 1_555
N3 H7 1_555 1_555
N4 C8 1_555 1_555
C4 N3 1_555 1_555
C5 N2 1_555 1_555
N5 C3 1_555 1_555
C6 N5 1_555 1_555
C7 C6 1_555 1_555
H8 C7 1_555 1_555
C8 C7 1_555 1_555
C9 C8 1_555 1_555
H9 C9 1_555 1_555
C10 C9 1_555 1_555
H10 C10 1_555 1_555
C11 N1 1_555 1_555
C12 N3 1_555 1_555
H11 C12 1_555 1_555
H12 C12 1_555 1_555
C13 C12 1_555 1_555
O3 C13 1_555 1_555
C14 O3 1_555 1_555
H13 C14 1_555 1_555
C15 C14 1_555 1_555
H14 C15 1_555 1_555
C16 C13 1_555 1_555
H15 C16 1_555 1_555
O5 N8 1_555 1_555
O6 N8 1_555 1_555
O7 C33 1_555 1_555
N6 C21 1_555 1_555
N7 H21 1_555 1_555
N8 C28 1_555 1_555
C21 N7 1_555 1_555
C22 C21 1_555 1_555
N9 C22 1_555 1_555
C23 N9 1_555 1_555
H22 C23 1_555 1_555
H23 C23 1_555 1_555
C24 C23 1_555 1_555
H24 C24 1_555 1_555
H25 C24 1_555 1_555
C25 C24 1_555 1_555
H26 C25 1_555 1_555
H27 C25 1_555 1_555
N10 C22 1_555 1_555
C26 N10 1_555 1_555
C27 C26 1_555 1_555
H28 C27 1_555 1_555
C28 C27 1_555 1_555
C29 C28 1_555 1_555
H29 C29 1_555 1_555
C30 C29 1_555 1_555
H30 C30 1_555 1_555
C31 N6 1_555 1_555
C32 N7 1_555 1_555
H31 C32 1_555 1_555
H32 C32 1_555 1_555
C33 C32 1_555 1_555
C34 C33 1_555 1_555
H33 C34 1_555 1_555
C35 C34 1_555 1_555
H34 C35 1_555 1_555
C36 O7 1_555 1_555
H35 C36 1_555 1_555
C4 C5 1_555 1_555
C5 N5 1_555 1_555
C6 C11 1_555 1_555
C10 C11 1_555 1_555
C15 C16 1_555 1_555
C25 N10 1_555 1_555
C26 C31 1_555 1_555
C30 C31 1_555 1_555
C35 C36 1_555 1_555

#END
