
#######################################################################
#
#                 Cambridge Crystallographic Data Centre
#                                CCDC 
#
#######################################################################
#
# If this CIF has been generated from an entry in the Cambridge 
# Structural Database, then it will include bibliographic, chemical, 
# crystal, experimental, refinement or atomic coordinate data resulting 
# from the CCDC's data processing and validation procedures.
#
#######################################################################

data_JUTLIT
_chemical_formula_moiety         'C27 H27 N1 O3'
_chemical_name_systematic        
'9-Fluorenylmethyl 6-oxo-2-(2-propenyl)-3-azabicyclo(7.1.0)dec-7-ene-3-carboxylate'
_symmetry_cell_setting           triclinic
_symmetry_space_group_name_H-M   'P -1'
_symmetry_Int_Tables_number      2
_space_group_name_Hall           '-P 1'
loop_
_symmetry_equiv_pos_site_id
_symmetry_equiv_pos_as_xyz
1 x,y,z
2 -x,-y,-z
_cell_length_a                   9.560(1)
_cell_length_b                   14.886(2)
_cell_length_c                   8.457(2)
_cell_angle_alpha                104.01(1)
_cell_angle_beta                 103.90(2)
_cell_angle_gamma                80.82(1)
_cell_volume                     1126.94
_chemical_melting_point          139-141deg.C
_cell_formula_units_Z            2
loop_
_atom_site_label
_atom_site_type_symbol
_atom_site_fract_x
_atom_site_fract_y
_atom_site_fract_z
O1 O 0.38406(25) 1.06343(17) 0.72780(31)
O2 O 0.19215(23) 0.91923(15) 0.41044(28)
O3 O 0.09443(19) 0.81178(12) 0.48409(24)
N1 N 0.33543(25) 0.80536(16) 0.52819(33)
C1 C 0.46131(57) 0.80689(35) 0.91335(65)
C2 C 0.46620(43) 0.73017(30) 0.76373(71)
C3 C 0.34819(37) 0.72551(23) 0.60613(48)
C4 C 0.46503(38) 0.84416(26) 0.52177(58)
C5 C 0.52412(38) 0.91771(26) 0.67846(61)
C6 C 0.40782(33) 0.98374(24) 0.74948(43)
C7 C 0.32395(44) 0.95748(30) 0.85113(52)
C8 C 0.34381(54) 0.88416(35) 0.91917(57)
C9 C 0.43085(74) 0.71028(41) 0.91307(84)
C10 C 0.37628(62) 0.63281(30) 0.48830(72)
C11 C 0.26900(79) 0.61462(32) 0.33686(91)
C12 C 0.2912(12) 0.58930(56) 0.19106(94)
C13 C 0.20739(33) 0.85076(20) 0.46868(37)
C14 C -0.04425(31) 0.86780(22) 0.45930(45)
C15 C -0.14855(32) 0.82250(21) 0.51680(40)
C16 C -0.17495(30) 0.72490(22) 0.41923(46)
C17 C -0.22101(42) 0.69388(30) 0.25304(56)
C18 C -0.23680(51) 0.59926(38) 0.19122(75)
C19 C -0.20763(60) 0.54016(35) 0.30065(91)
C20 C -0.16357(51) 0.57090(30) 0.46826(77)
C21 C -0.14495(34) 0.66478(23) 0.53116(48)
C22 C -0.09873(35) 0.71715(24) 0.69848(46)
C23 C -0.05394(52) 0.69040(33) 0.85196(62)
C24 C -0.01247(59) 0.75606(44) 0.99242(62)
C25 C -0.01536(50) 0.84836(38) 0.98663(59)
C26 C -0.05908(42) 0.87591(28) 0.83813(50)
C27 C -0.10000(31) 0.81018(22) 0.69291(41)
H1 H 0.5521(49) 0.8284(30) 0.9952(55)
H2 H 0.5569(47) 0.7106(29) 0.7360(53)
H3 H 0.2600(38) 0.7316(23) 0.6392(42)
H4 H 0.4411(38) 0.8722(25) 0.4135(46)
H5 H 0.5345(39) 0.7923(25) 0.4957(42)
H6 H 0.5887(42) 0.9584(26) 0.6493(45)
H7 H 0.5797(41) 0.8860(27) 0.7650(48)
H8 H 0.2398(40) 1.0019(26) 0.8615(45)
H9 H 0.2744(44) 0.8791(28) 0.9966(51)
H10 H 0.4944(57) 0.6829(36) 1.0029(67)
H11 H 0.3300(58) 0.6965(38) 0.8908(71)
H12 H 0.4587(49) 0.6274(29) 0.4118(58)
H13 H 0.3846(50) 0.5825(33) 0.5475(56)
H14 H 0.2113 0.5789 0.0993
H15 H 0.3869 0.5794 0.1735
H16 H 0.1708 0.6233 0.3478
H17 H -0.0801(31) 0.8685(20) 0.3329(39)
H18 H -0.0308(30) 0.9331(21) 0.5314(36)
H19 H -0.2341(33) 0.8653(20) 0.5080(36)
H20 H -0.2359(42) 0.7317(27) 0.1737(50)
H21 H -0.2604(49) 0.5767(32) 0.0649(61)
H22 H -0.2227(51) 0.4778(34) 0.2546(59)
H23 H -0.1452(45) 0.5291(30) 0.5523(52)
H24 H -0.0511(45) 0.6300(29) 0.8562(52)
H25 H 0.0245(46) 0.7408(30) 1.1078(60)
H26 H 0.0218(43) 0.8986(29) 1.1158(54)
H27 H -0.0623(36) 0.9444(25) 0.8337(42)
loop_
_geom_bond_atom_site_label_1
_geom_bond_atom_site_label_2
_geom_bond_site_symmetry_1
_geom_bond_site_symmetry_2
O1 C6 1_555 1_555
O2 C13 1_555 1_555
O3 C13 1_555 1_555
N1 C3 1_555 1_555
C1 C2 1_555 1_555
C2 C3 1_555 1_555
C3 C10 1_555 1_555
C4 N1 1_555 1_555
C5 C4 1_555 1_555
C6 C5 1_555 1_555
C7 C6 1_555 1_555
C8 C1 1_555 1_555
C9 C1 1_555 1_555
C10 C11 1_555 1_555
C11 C12 1_555 1_555
C12 H14 1_555 1_555
C13 N1 1_555 1_555
C14 O3 1_555 1_555
C15 C14 1_555 1_555
C16 C15 1_555 1_555
C17 C16 1_555 1_555
C18 C17 1_555 1_555
C19 C18 1_555 1_555
C20 C19 1_555 1_555
C21 C16 1_555 1_555
C22 C21 1_555 1_555
C23 C22 1_555 1_555
C24 C23 1_555 1_555
C25 C24 1_555 1_555
C26 C25 1_555 1_555
C27 C15 1_555 1_555
H1 C1 1_555 1_555
H2 C2 1_555 1_555
H3 C3 1_555 1_555
H4 C4 1_555 1_555
H5 C4 1_555 1_555
H6 C5 1_555 1_555
H7 C5 1_555 1_555
H8 C7 1_555 1_555
H9 C8 1_555 1_555
H10 C9 1_555 1_555
H11 C9 1_555 1_555
H12 C10 1_555 1_555
H13 C10 1_555 1_555
H15 C12 1_555 1_555
H16 C11 1_555 1_555
H17 C14 1_555 1_555
H18 C14 1_555 1_555
H19 C15 1_555 1_555
H20 C17 1_555 1_555
H21 C18 1_555 1_555
H22 C19 1_555 1_555
H23 C20 1_555 1_555
H24 C23 1_555 1_555
H25 C24 1_555 1_555
H26 C25 1_555 1_555
H27 C26 1_555 1_555
C2 C9 1_555 1_555
C7 C8 1_555 1_555
C20 C21 1_555 1_555
C22 C27 1_555 1_555
C26 C27 1_555 1_555

#END
