
#######################################################################
#
#                 Cambridge Crystallographic Data Centre
#                                CCDC 
#
#######################################################################
#
# If this CIF has been generated from an entry in the Cambridge 
# Structural Database, then it will include bibliographic, chemical, 
# crystal, experimental, refinement or atomic coordinate data resulting 
# from the CCDC's data processing and validation procedures.
#
#######################################################################

data_JUTLOZ
_chemical_formula_moiety         'C14 H19 N1 O4'
_chemical_name_systematic        
'Methyl 2-oxo-9-(2-propenyl)-4-oxa-8-azatricyclo(8.1.0.0^3,5^)undecane-8-carboxylate'
_symmetry_cell_setting           orthorhombic
_symmetry_space_group_name_H-M   'P b c a'
_symmetry_Int_Tables_number      61
_space_group_name_Hall           '-P 2ac 2ab'
loop_
_symmetry_equiv_pos_site_id
_symmetry_equiv_pos_as_xyz
1 x,y,z
2 1/2-x,1/2+y,z
3 x,1/2-y,1/2+z
4 1/2-x,-y,1/2+z
5 -x,-y,-z
6 1/2+x,1/2-y,-z
7 -x,1/2+y,1/2-z
8 1/2+x,y,1/2-z
_cell_length_a                   18.54(2)
_cell_length_b                   20.84(1)
_cell_length_c                   7.012(1)
_cell_angle_alpha                90
_cell_angle_beta                 90
_cell_angle_gamma                90
_cell_volume                     2709.25
_cell_formula_units_Z            8
loop_
_atom_site_label
_atom_site_type_symbol
_atom_site_fract_x
_atom_site_fract_y
_atom_site_fract_z
O1 O 0.45418(48) 0.03913(48) 1.1682(13)
O2 O 0.37869(51) 0.20704(47) 0.5876(15)
O3 O 0.29522(52) 0.13182(46) 0.5209(14)
O4 O 0.30638(51) 0.01194(56) 1.1251(16)
N1 N 0.39921(67) 0.10190(57) 0.6553(14)
C1 C 0.44158(84) 0.14856(66) 1.0865(23)
C2 C 0.47150(81) 0.16510(60) 0.8905(23)
C3 C 0.47309(75) 0.11423(59) 0.7351(19)
C4 C 0.38035(76) 0.03430(70) 0.6234(21)
C5 C 0.36304(75) -0.00227(62) 0.8033(21)
C6 C 0.31161(82) 0.03463(83) 0.9356(24)
C7 C 0.33559(77) 0.07461(75) 1.0906(25)
C8 C 0.41505(83) 0.08359(79) 1.1226(19)
C9 C 0.52010(92) 0.16068(72) 1.0558(22)
C10 C 0.52766(85) 0.13034(66) 0.5734(20)
C11 C 0.60382(78) 0.12869(77) 0.6320(21)
C12 C 0.65224(96) 0.16999(85) 0.5791(27)
C13 C 0.35905(84) 0.15129(82) 0.5849(24)
C14 C 0.24962(95) 0.18195(80) 0.4496(23)
H1 H 0.4174 0.1855 1.1487
H2 H 0.4631 0.2089 0.8382
H3 H 0.4910 0.0745 0.7980
H4 H 0.3380 0.0325 0.5389
H5 H 0.4187 0.0130 0.5506
H6 H 0.3460 -0.0447 0.7763
H7 H 0.4086 -0.0080 0.8745
H8 H 0.2637 0.0458 0.8715
H9 H 0.3047 0.1121 1.1280
H10 H 0.5445 0.1985 1.1071
H11 H 0.5534 0.1256 1.0679
H12 H 0.5181 0.1018 0.4630
H13 H 0.5160 0.1733 0.5244
H14 H 0.6169 0.0924 0.7128
H15 H 0.7034 0.1669 0.6145
H16 H 0.6420 0.2050 0.4888
H17 H 0.2401 0.2161 0.5461
H18 H 0.2729 0.2071 0.3444
H19 H 0.2036 0.1700 0.4017
loop_
_geom_bond_atom_site_label_1
_geom_bond_atom_site_label_2
_geom_bond_site_symmetry_1
_geom_bond_site_symmetry_2
O1 C8 1_555 1_555
O2 C13 1_555 1_555
O3 C13 1_555 1_555
O4 C6 1_555 1_555
N1 C3 1_555 1_555
C1 C2 1_555 1_555
C2 C3 1_555 1_555
C3 C10 1_555 1_555
C4 N1 1_555 1_555
C5 C4 1_555 1_555
C6 C5 1_555 1_555
C7 O4 1_555 1_555
C8 C1 1_555 1_555
C9 C1 1_555 1_555
C10 C11 1_555 1_555
C11 C12 1_555 1_555
C12 H15 1_555 1_555
C13 N1 1_555 1_555
C14 O3 1_555 1_555
H1 C1 1_555 1_555
H2 C2 1_555 1_555
H3 C3 1_555 1_555
H4 C4 1_555 1_555
H5 C4 1_555 1_555
H6 C5 1_555 1_555
H7 C5 1_555 1_555
H8 C6 1_555 1_555
H9 C7 1_555 1_555
H10 C9 1_555 1_555
H11 C9 1_555 1_555
H12 C10 1_555 1_555
H13 C10 1_555 1_555
H14 C11 1_555 1_555
H16 C12 1_555 1_555
H17 C14 1_555 1_555
H18 C14 1_555 1_555
H19 C14 1_555 1_555
C2 C9 1_555 1_555
C6 C7 1_555 1_555
C7 C8 1_555 1_555

#END
