
#######################################################################
#
#                 Cambridge Crystallographic Data Centre
#                                CCDC 
#
#######################################################################
#
# If this CIF has been generated from an entry in the Cambridge 
# Structural Database, then it will include bibliographic, chemical, 
# crystal, experimental, refinement or atomic coordinate data resulting 
# from the CCDC's data processing and validation procedures.
#
#######################################################################

data_JUWCIN01
_chemical_formula_moiety         'C19 H24 O7,H2 O1'
_chemical_name_systematic        
'7,8,9,16-Tetrahydroxy-14-methoxy-3-methyl-3,4,7,8,9,10-hexahydro-1H-2-benzoxacyclotetradecin-1-one monohydrate'
_symmetry_cell_setting           monoclinic
_symmetry_space_group_name_H-M   'C 2'
_symmetry_Int_Tables_number      5
_space_group_name_Hall           'C 2y'
loop_
_symmetry_equiv_pos_site_id
_symmetry_equiv_pos_as_xyz
1 x,y,z
2 1/2+x,1/2+y,z
3 -x,y,-z
4 1/2-x,1/2+y,-z
_cell_length_a                   16.8112(2)
_cell_length_b                   4.97960(10)
_cell_length_c                   23.1742(3)
_cell_angle_alpha                90
_cell_angle_beta                 105.1099(15)
_cell_angle_gamma                90
_cell_volume                     1872.91
_exptl_crystal_colour            colorless
_exptl_crystal_description       lath
_cell_formula_units_Z            4
loop_
_atom_site_label
_atom_site_type_symbol
_atom_site_fract_x
_atom_site_fract_y
_atom_site_fract_z
C1 C 0.65198(10) 0.3712(4) 0.21506(8)
C2 C 0.61897(9) 0.1617(3) 0.24973(7)
C3 C 0.63511(9) 0.2245(3) 0.31602(7)
C4 C 0.59065(9) 0.4650(4) 0.33162(7)
C5 C 0.57550(9) 0.4997(3) 0.38413(7)
C6 C 0.52748(9) 0.7285(3) 0.40049(7)
C7 C 0.44807(9) 0.6265(3) 0.41396(6)
C8 C 0.39679(9) 0.4557(3) 0.36323(6)
C9 C 0.36417(9) 0.6092(3) 0.30451(6)
C10 C 0.33710(9) 0.4170(4) 0.25335(7)
C11 C 0.37831(9) 0.3777(3) 0.21242(7)
C12 C 0.35511(10) 0.1741(3) 0.16422(7)
C13 C 0.41375(10) 0.0144(3) 0.14542(7)
C14 C 0.50359(10) 0.0178(3) 0.17243(7)
C15 C 0.38435(12) -0.1707(4) 0.09801(7)
C16 C 0.30001(12) -0.2046(4) 0.07221(8)
C17 C 0.24456(11) -0.0499(4) 0.09185(7)
C18 C 0.27191(10) 0.1460(4) 0.13631(7)
C19 C 0.12859(13) -0.2805(5) 0.02992(9)
O1 O 0.52903(6) 0.1381(3) 0.22583(5)
O2 O 0.55291(8) -0.0900(3) 0.14878(6)
O3 O 0.43468(9) -0.3252(3) 0.07538(6)
O4 O 0.16137(8) -0.0652(3) 0.07033(5)
O5 O 0.57433(7) 0.8646(3) 0.45325(5)
O6 O 0.39986(6) 0.8464(3) 0.42604(5)
O7 O 0.32823(6) 0.3369(3) 0.38034(5)
H1 H 0.6363 0.3307 0.1729
H2 H 0.7118 0.3830 0.2286
H3 H 0.6287 0.5381 0.2196
H4 H 0.6441 -0.0119 0.2462
H5 H 0.6954 0.2548 0.3312
H6 H 0.6207 0.0687 0.3358
H7 H 0.5720 0.5968 0.3009
H8 H 0.5939 0.3722 0.4137
H9 H 0.5137 0.8598 0.3673
H10 H 0.4653 0.5131 0.4513
H11 H 0.4326 0.3106 0.3566
H12 H 0.4084 0.7226 0.2971
H13 H 0.3192 0.7238 0.3096
H14 H 0.2893 0.3148 0.2529
H15 H 0.4265 0.4829 0.2136
H16 H 0.2838 -0.3308 0.0416
H17 H 0.2310 0.2608 0.1472
H18 H 0.4838 -0.2816 0.0917
H19 H 0.0689 -0.2757 0.0224
H20 H 0.1487 -0.4507 0.0490
H21 H 0.1430 -0.2612 -0.0082
H22 H 0.6222 0.8899 0.4498
H23 H 0.4114 0.8598 0.4637
H24 H 0.3410 0.1827 0.3912
O8 O 0.24026(7) 0.4625(3) 0.46652(5)
H25 H 0.2646 0.4670 0.4398
H26 H 0.2487 0.5972 0.4869
loop_
_geom_bond_atom_site_label_1
_geom_bond_atom_site_label_2
_geom_bond_site_symmetry_1
_geom_bond_site_symmetry_2
C1 C2 1_555 1_555
C2 C3 1_555 1_555
C3 C4 1_555 1_555
C4 C5 1_555 1_555
C5 C6 1_555 1_555
C6 C7 1_555 1_555
C7 C8 1_555 1_555
C8 C9 1_555 1_555
C9 C10 1_555 1_555
C10 C11 1_555 1_555
C11 C12 1_555 1_555
C12 C13 1_555 1_555
C13 C14 1_555 1_555
C14 O1 1_555 1_555
C15 C13 1_555 1_555
C16 C15 1_555 1_555
C17 C16 1_555 1_555
C18 C12 1_555 1_555
C19 O4 1_555 1_555
O1 C2 1_555 1_555
O2 C14 1_555 1_555
O3 C15 1_555 1_555
O4 C17 1_555 1_555
O5 C6 1_555 1_555
O6 C7 1_555 1_555
O7 C8 1_555 1_555
H1 C1 1_555 1_555
H2 C1 1_555 1_555
H3 C1 1_555 1_555
H4 C2 1_555 1_555
H5 C3 1_555 1_555
H6 C3 1_555 1_555
H7 C4 1_555 1_555
H8 C5 1_555 1_555
H9 C6 1_555 1_555
H10 C7 1_555 1_555
H11 C8 1_555 1_555
H12 C9 1_555 1_555
H13 C9 1_555 1_555
H14 C10 1_555 1_555
H15 C11 1_555 1_555
H16 C16 1_555 1_555
H17 C18 1_555 1_555
H18 O3 1_555 1_555
H19 C19 1_555 1_555
H20 C19 1_555 1_555
H21 C19 1_555 1_555
H22 O5 1_555 1_555
H23 O6 1_555 1_555
H24 O7 1_555 1_555
O8 H25 1_555 1_555
H26 O8 1_555 1_555
C17 C18 1_555 1_555

#END
