
#######################################################################
#
#                 Cambridge Crystallographic Data Centre
#                                CCDC 
#
#######################################################################
#
# If this CIF has been generated from an entry in the Cambridge 
# Structural Database, then it will include bibliographic, chemical, 
# crystal, experimental, refinement or atomic coordinate data resulting 
# from the CCDC's data processing and validation procedures.
#
#######################################################################

data_JUWQEZ
_chemical_formula_moiety         'C76 H18 O2,3(C1 S2)'
_chemical_name_systematic        
'15,18-bis(4-Methoxybenzyl)-C60fullerene carbon disulfide solvate'
_symmetry_cell_setting           triclinic
_symmetry_space_group_name_H-M   'P -1'
_symmetry_Int_Tables_number      2
_space_group_name_Hall           '-P 1'
loop_
_symmetry_equiv_pos_site_id
_symmetry_equiv_pos_as_xyz
1 x,y,z
2 -x,-y,-z
_cell_length_a                   9.9843(11)
_cell_length_b                   12.0891(13)
_cell_length_c                   21.210(2)
_cell_angle_alpha                81.7599(14)
_cell_angle_beta                 81.9494(14)
_cell_angle_gamma                73.6137(13)
_cell_volume                     2417.31
_exptl_crystal_colour            colorless
_exptl_crystal_description       rod
_cell_formula_units_Z            2
loop_
_atom_site_label
_atom_site_type_symbol
_atom_site_fract_x
_atom_site_fract_y
_atom_site_fract_z
S1 S 0.67721(10) 0.83982(8) 0.47121(4)
S2 S 0.45446(10) 0.91346(9) 0.37534(5)
C1 C 0.5657(3) 0.8771(3) 0.42343(15)
S3 S 0.32504(10) 0.84114(10) 0.23237(5)
S4 S 0.16112(13) 0.74549(9) 0.35177(5)
C2 C 0.2427(4) 0.7913(3) 0.29155(16)
S5 S 0.51228(10) 0.07435(10) 0.16466(5)
S6 S 0.31952(12) 0.07454(11) 0.06262(5)
C3 C 0.4178(3) 0.0743(3) 0.11255(17)
O1 O -0.1495(12) 0.1026(11) 0.9761(5)
O2 O -0.4213(2) 0.6590(2) 1.06275(10)
C4 C 0.2421(4) 0.3666(3) 0.7738(2)
C5 C 0.3731(4) 0.4003(3) 0.73906(19)
C6 C 0.4060(9) 0.4823(9) 0.7715(4)
C7 C 0.2905(5) 0.5228(5) 0.8197(2)
C8 C 0.1847(5) 0.4635(4) 0.8179(2)
C9 C 0.0450(6) 0.5222(6) 0.8269(4)
C10 C 0.0072(4) 0.6427(4) 0.83795(16)
C11 C 0.1086(4) 0.6991(3) 0.84243(17)
C12 C 0.2542(5) 0.6382(5) 0.8331(2)
C13 C 0.3310(5) 0.7172(4) 0.7985(2)
C14 C 0.4411(6) 0.6786(6) 0.7525(3)
C15 C 0.4821(8) 0.5593(5) 0.7382(3)
C16 C 0.5212(7) 0.5558(5) 0.6704(3)
C17 C 0.4847(8) 0.4772(6) 0.6391(3)
C18 C 0.4092(4) 0.3979(3) 0.6743(2)
C19 C 0.3103(8) 0.3840(10) 0.6321(5)
C20 C 0.1784(6) 0.3756(4) 0.6582(2)
C21 C 0.1366(5) 0.3779(4) 0.7281(2)
C22 C -0.0029(7) 0.4379(7) 0.7372(3)
C23 C -0.0704(3) 0.4997(2) 0.79584(12)
C24 C -0.1535(15) 0.6302(8) 0.7756(7)
C25 C -0.1165(9) 0.7039(6) 0.8055(4)
C26 C -0.1317(6) 0.8193(5) 0.7786(3)
C27 C -0.0245(8) 0.8763(6) 0.7827(3)
C28 C 0.0935(6) 0.8182(4) 0.8135(2)
C29 C 0.2307(5) 0.8296(4) 0.7864(3)
C30 C 0.2452(6) 0.8989(5) 0.7285(3)
C31 C 0.3612(4) 0.8585(4) 0.6804(2)
C32 C 0.4567(4) 0.7516(4) 0.6917(2)
C33 C 0.5062(12) 0.6739(6) 0.6401(5)
C34 C 0.4558(13) 0.7112(10) 0.5813(5)
C35 C 0.4204(13) 0.6286(7) 0.5486(6)
C36 C 0.4332(7) 0.5127(6) 0.5765(3)
C37 C 0.3251(10) 0.4547(9) 0.5724(4)
C38 C 0.2098(6) 0.5136(5) 0.5399(3)
C39 C 0.0719(5) 0.5031(4) 0.5672(3)
C40 C 0.0575(5) 0.4346(4) 0.6252(3)
C41 C -0.0562(4) 0.4749(4) 0.67416(18)
C42 C -0.1532(4) 0.5803(4) 0.6627(2)
C43 C -0.2013(14) 0.6584(7) 0.7150(5)
C44 C -0.2170(7) 0.7751(5) 0.6854(3)
C45 C -0.1838(6) 0.8555(5) 0.7162(3)
C46 C -0.1082(4) 0.9343(3) 0.68114(19)
C47 C -0.0102(7) 0.9496(8) 0.7222(4)
C48 C 0.1227(6) 0.9591(4) 0.6958(3)
C49 C 0.1612(6) 0.9564(4) 0.6276(2)
C50 C 0.3078(9) 0.8945(9) 0.6183(5)
C51 C 0.3560(14) 0.8215(12) 0.5703(5)
C52 C 0.2582(7) 0.8085(7) 0.5282(4)
C53 C 0.2972(4) 0.6877(5) 0.51524(18)
C54 C 0.1951(4) 0.6321(4) 0.51159(17)
C55 C 0.0472(5) 0.6953(6) 0.5209(2)
C56 C -0.0285(5) 0.6142(4) 0.5560(2)
C57 C -0.1389(5) 0.6525(5) 0.6026(3)
C58 C -0.1784(8) 0.7722(6) 0.6167(3)
C59 C -0.1058(14) 0.8475(14) 0.5824(7)
C60 C -0.0705(4) 0.9320(3) 0.6157(2)
C61 C 0.0677(5) 0.9429(4) 0.5880(3)
C62 C 0.1161(5) 0.8684(5) 0.5380(2)
C63 C 0.0093(6) 0.8089(6) 0.5334(3)
C64 C 0.2878(4) 0.2402(4) 0.8096(2)
H1 H 0.3242 0.1848 0.7771
H2 H 0.3659 0.2356 0.8348
C65 C 0.1730(5) 0.2018(5) 0.8541(3)
C66 C 0.0845(7) 0.1476(6) 0.8316(3)
H3 H 0.0978 0.1333 0.7879
C67 C -0.0235(10) 0.1144(14) 0.8731(6)
H4 H -0.0820 0.0767 0.8577
C68 C -0.0445(11) 0.1366(10) 0.9360(5)
C69 C 0.0465(8) 0.1885(8) 0.9601(3)
H5 H 0.0337 0.2026 1.0037
C70 C 0.1542(6) 0.2181(6) 0.9185(3)
H6 H 0.2170 0.2506 0.9346
C71 C -0.1747(10) 0.1331(10) 1.0400(3)
H7 H -0.0907 0.0968 1.0622
H8 H -0.2539 0.1058 1.0628
H9 H -0.1968 0.2176 1.0391
C72 C -0.1643(3) 0.4328(2) 0.84236(12)
H10 H -0.2375 0.4221 0.8186
H11 H -0.1055 0.3549 0.8567
C73 C -0.2343(3) 0.4933(2) 0.90040(12)
C74 C -0.3720(3) 0.5635(3) 0.90177(13)
H12 H -0.4217 0.5724 0.8655
C75 C -0.4386(3) 0.6209(3) 0.95460(13)
H13 H -0.5323 0.6684 0.9543
C76 C -0.3663(3) 0.6079(3) 1.00788(13)
C77 C -0.2280(3) 0.5381(3) 1.00743(13)
H14 H -0.1784 0.5291 1.0437
C78 C -0.1639(3) 0.4824(2) 0.95454(13)
H15 H -0.0698 0.4356 0.9548
C79 C -0.5609(3) 0.7328(3) 1.06369(16)
H16 H -0.5643 0.7975 1.0298
H17 H -0.5894 0.7630 1.1054
H18 H -0.6248 0.6885 1.0565
O3? O -0.139(4) 0.117(3) 0.9775(16)
C80? C 0.2178(9) 0.3509(7) 0.7487(5)
C81? C 0.3366(8) 0.3714(7) 0.6963(4)
C82? C 0.283(2) 0.383(2) 0.6363(11)
C83? C 0.1367(12) 0.3953(10) 0.6419(5)
C84? C 0.0925(11) 0.3861(9) 0.7111(5)
C85? C -0.0354(15) 0.4551(14) 0.7316(8)
C86? C 0.0741(16) 0.5038(16) 0.8201(10)
C87? C 0.1983(10) 0.4351(9) 0.7976(5)
C88? C 0.3099(13) 0.4911(11) 0.8050(6)
C89? C 0.425(2) 0.489(2) 0.7609(11)
C90? C 0.4376(9) 0.4230(8) 0.7042(5)
C91? C 0.4997(19) 0.4935(16) 0.6511(7)
C92? C 0.4552(17) 0.4991(13) 0.5920(7)
C93? C 0.349(2) 0.445(2) 0.5816(11)
C94? C 0.2588(13) 0.5183(12) 0.5357(6)
C95? C 0.1160(11) 0.5276(9) 0.5455(5)
C96? C 0.0521(10) 0.4652(10) 0.5979(6)
C97? C -0.0825(8) 0.5358(8) 0.6213(4)
C98? C -0.1218(9) 0.5341(9) 0.6866(5)
C99? C -0.193(3) 0.6367(18) 0.7121(12)
C100? C -0.150(3) 0.613(2) 0.7737(16)
C101? C -0.126(2) 0.7294(15) 0.7983(10)
C102? C -0.0025(9) 0.7135(9) 0.8331(4)
C103? C 0.0914(9) 0.6078(8) 0.8422(4)
C104? C 0.2421(11) 0.5959(11) 0.8342(5)
C105? C 0.2891(11) 0.6945(10) 0.8162(5)
C106? C 0.4076(15) 0.6917(13) 0.7681(7)
C107? C 0.4719(19) 0.5907(13) 0.7429(8)
C108? C 0.5209(16) 0.5914(12) 0.6735(7)
C109? C 0.498(3) 0.6991(17) 0.6384(13)
C110? C 0.452(3) 0.698(2) 0.5727(12)
C111? C 0.430(3) 0.6046(17) 0.5508(13)
C112? C 0.3061(9) 0.6217(10) 0.5167(4)
C113? C 0.2127(10) 0.7293(8) 0.5059(4)
C114? C 0.0599(12) 0.7425(12) 0.5155(5)
C115? C 0.0123(11) 0.6434(10) 0.5337(5)
C116? C -0.1038(12) 0.6431(10) 0.5814(5)
C117? C -0.1715(19) 0.7457(13) 0.6074(7)
C118? C -0.2156(15) 0.7440(11) 0.6755(6)
C119? C -0.1357(8) 0.9126(7) 0.6446(4)
C120? C -0.121(3) 0.854(3) 0.5882(17)
C121? C -0.0068(14) 0.8462(11) 0.5432(6)
C122? C 0.0990(12) 0.9043(11) 0.5526(6)
C123? C 0.2310(19) 0.8309(17) 0.5300(12)
C124? C 0.350(3) 0.817(2) 0.5605(12)
C125? C 0.3373(19) 0.8771(18) 0.6175(11)
C126? C 0.4307(10) 0.8010(9) 0.6630(5)
C127? C 0.3868(9) 0.7983(8) 0.7277(4)
C128? C 0.2512(12) 0.8719(11) 0.7504(6)
C129? C 0.1875(12) 0.8090(9) 0.8052(5)
C130? C 0.0442(12) 0.8172(11) 0.8131(6)
C131? C -0.0406(18) 0.8905(15) 0.7674(7)
C132? C -0.1497(12) 0.8344(10) 0.7585(6)
C133? C -0.1986(13) 0.8416(12) 0.6987(6)
C134? C -0.0326(9) 0.9647(8) 0.6529(4)
C135? C 0.0892(12) 0.9598(10) 0.6058(6)
C136? C 0.2096(12) 0.9475(9) 0.6385(5)
C137? C 0.1656(12) 0.9429(10) 0.7080(6)
C138? C 0.0206(18) 0.952(2) 0.7147(9)
C139? C 0.2592(9) 0.2209(8) 0.7782(4)
H19? H 0.2682 0.1707 0.7440
H20? H 0.3521 0.2033 0.7944
C140? C 0.1540(14) 0.1911(11) 0.8328(6)
C141? C 0.0441(14) 0.1475(15) 0.8235(8)
H21? H 0.0364 0.1321 0.7817
C142? C -0.053(3) 0.126(3) 0.8724(16)
H22? H -0.1298 0.0989 0.8652
C143? C -0.032(4) 0.148(3) 0.9390(16)
C144? C 0.069(2) 0.189(2) 0.9443(8)
H23? H 0.0789 0.2058 0.9856
C145? C 0.1639(15) 0.2106(12) 0.8959(7)
H24? H 0.2383 0.2392 0.9042
C146? C -0.138(3) 0.150(3) 1.0359(13)
H25? H -0.2142 0.1288 1.0654
H26? H -0.1514 0.2336 1.0324
H27? H -0.0478 0.1096 1.0523
loop_
_geom_bond_atom_site_label_1
_geom_bond_atom_site_label_2
_geom_bond_site_symmetry_1
_geom_bond_site_symmetry_2
S1 C1 1_555 1_555
S2 C1 1_555 1_555
S3 C2 1_555 1_555
S4 C2 1_555 1_555
S5 C3 1_555 1_555
S6 C3 1_555 1_555
O1 C68 1_555 1_555
O2 C76 1_555 1_555
C4 C5 1_555 1_555
C5 C6 1_555 1_555
C6 C7 1_555 1_555
C7 C8 1_555 1_555
C8 C4 1_555 1_555
C9 C8 1_555 1_555
C10 C9 1_555 1_555
C11 C10 1_555 1_555
C12 C7 1_555 1_555
C13 C12 1_555 1_555
C14 C13 1_555 1_555
C15 C6 1_555 1_555
C16 C15 1_555 1_555
C17 C16 1_555 1_555
C18 C5 1_555 1_555
C19 C18 1_555 1_555
C20 C19 1_555 1_555
C21 C4 1_555 1_555
C22 C21 1_555 1_555
C23 C9 1_555 1_555
C24 C23 1_555 1_555
C25 C10 1_555 1_555
C26 C25 1_555 1_555
C27 C26 1_555 1_555
C28 C11 1_555 1_555
C29 C13 1_555 1_555
C30 C29 1_555 1_555
C31 C30 1_555 1_555
C32 C14 1_555 1_555
C33 C16 1_555 1_555
C34 C33 1_555 1_555
C35 C34 1_555 1_555
C36 C17 1_555 1_555
C37 C19 1_555 1_555
C38 C37 1_555 1_555
C39 C38 1_555 1_555
C40 C20 1_555 1_555
C41 C22 1_555 1_555
C42 C41 1_555 1_555
C43 C24 1_555 1_555
C44 C43 1_555 1_555
C45 C26 1_555 1_555
C46 C45 1_555 1_555
C47 C27 1_555 1_555
C48 C30 1_555 1_555
C49 C48 1_555 1_555
C50 C31 1_555 1_555
C51 C34 1_555 1_555
C52 C51 1_555 1_555
C53 C35 1_555 1_555
C54 C38 1_555 1_555
C55 C54 1_555 1_555
C56 C39 1_555 1_555
C57 C42 1_555 1_555
C58 C44 1_555 1_555
C59 C58 1_555 1_555
C60 C46 1_555 1_555
C61 C49 1_555 1_555
C62 C52 1_555 1_555
C63 C55 1_555 1_555
C64 C4 1_555 1_555
H1 C64 1_555 1_555
H2 C64 1_555 1_555
C65 C64 1_555 1_555
C66 C65 1_555 1_555
H3 C66 1_555 1_555
C67 C66 1_555 1_555
H4 C67 1_555 1_555
C68 C67 1_555 1_555
C69 C68 1_555 1_555
H5 C69 1_555 1_555
C70 C65 1_555 1_555
H6 C70 1_555 1_555
C71 O1 1_555 1_555
H7 C71 1_555 1_555
H8 C71 1_555 1_555
H9 C71 1_555 1_555
C72 C23 1_555 1_555
H10 C72 1_555 1_555
H11 C72 1_555 1_555
C73 C72 1_555 1_555
C74 C73 1_555 1_555
H12 C74 1_555 1_555
C75 C74 1_555 1_555
H13 C75 1_555 1_555
C76 C75 1_555 1_555
C77 C76 1_555 1_555
H14 C77 1_555 1_555
C78 C73 1_555 1_555
H15 C78 1_555 1_555
C79 O2 1_555 1_555
H16 C79 1_555 1_555
H17 C79 1_555 1_555
H18 C79 1_555 1_555
C11 C12 1_555 1_555
C14 C15 1_555 1_555
C17 C18 1_555 1_555
C20 C21 1_555 1_555
C22 C23 1_555 1_555
C24 C25 1_555 1_555
C27 C28 1_555 1_555
C28 C29 1_555 1_555
C31 C32 1_555 1_555
C32 C33 1_555 1_555
C35 C36 1_555 1_555
C36 C37 1_555 1_555
C39 C40 1_555 1_555
C40 C41 1_555 1_555
C42 C43 1_555 1_555
C44 C45 1_555 1_555
C46 C47 1_555 1_555
C47 C48 1_555 1_555
C49 C50 1_555 1_555
C50 C51 1_555 1_555
C52 C53 1_555 1_555
C53 C54 1_555 1_555
C55 C56 1_555 1_555
C56 C57 1_555 1_555
C57 C58 1_555 1_555
C59 C60 1_555 1_555
C59 C63 1_555 1_555
C60 C61 1_555 1_555
C61 C62 1_555 1_555
C62 C63 1_555 1_555
C69 C70 1_555 1_555
C77 C78 1_555 1_555

#END
