
#######################################################################
#
#                 Cambridge Crystallographic Data Centre
#                                CCDC 
#
#######################################################################
#
# If this CIF has been generated from an entry in the Cambridge 
# Structural Database, then it will include bibliographic, chemical, 
# crystal, experimental, refinement or atomic coordinate data resulting 
# from the CCDC's data processing and validation procedures.
#
#######################################################################

data_JUWTOM
_chemical_formula_moiety         'C16 H14 N2 O3'
_chemical_name_systematic        
2-Amino-5-oxo-4-propyl-4,5-dihydropyrano[3,2-c]chromene-3-carbonitrile
_symmetry_cell_setting           triclinic
_symmetry_space_group_name_H-M   'P -1'
_symmetry_Int_Tables_number      2
_space_group_name_Hall           '-P 1'
loop_
_symmetry_equiv_pos_site_id
_symmetry_equiv_pos_as_xyz
1 x,y,z
2 -x,-y,-z
_cell_length_a                   7.7379(5)
_cell_length_b                   8.7520(6)
_cell_length_c                   11.6589(5)
_cell_angle_alpha                96.668(4)
_cell_angle_beta                 100.033(4)
_cell_angle_gamma                112.547(6)
_cell_volume                     703.389
_exptl_crystal_colour            white
_exptl_crystal_description       block
_cell_formula_units_Z            2
loop_
_atom_site_label
_atom_site_type_symbol
_atom_site_fract_x
_atom_site_fract_y
_atom_site_fract_z
N1 N -0.0315(2) 0.4253(2) 0.22446(12)
H1 H -0.0505 0.4637 0.1610
H2 H -0.1116 0.4090 0.2692
N2 N 0.2362(2) 0.5043(2) -0.00190(13)
C1 C 0.4291(2) 0.35771(19) 0.23790(12)
H3 H 0.5504 0.4553 0.2449
C2 C 0.2640(2) 0.40690(19) 0.19634(12)
C3 C 0.1221(2) 0.3908(2) 0.25334(12)
O1 O 0.12075(15) 0.33275(15) 0.35769(9)
C4 C 0.2733(2) 0.30286(19) 0.40916(12)
C5 C 0.4217(2) 0.31746(18) 0.35968(12)
C6 C 0.5810(2) 0.2913(2) 0.42610(14)
O2 O 0.56638(17) 0.23976(16) 0.53223(10)
C7 C 0.4097(2) 0.2197(2) 0.57908(14)
C8 C 0.2592(2) 0.25309(19) 0.52184(12)
C9 C 0.1062(2) 0.2367(2) 0.57500(14)
H4 H 0.0043 0.2586 0.5375
C10 C 0.1072(3) 0.1883(3) 0.68250(17)
H5 H 0.0064 0.1786 0.7186
C11 C 0.2578(3) 0.1538(3) 0.73767(18)
H6 H 0.2564 0.1201 0.8104
C12 C 0.4092(3) 0.1686(3) 0.68670(16)
H7 H 0.5095 0.1445 0.7240
C13 C 0.2499(2) 0.4625(2) 0.08724(14)
C14 C 0.4217(2) 0.2098(2) 0.14860(13)
H8 H 0.4240 0.2416 0.0717
H9 H 0.5362 0.1903 0.1745
C15 C 0.2469(3) 0.0476(2) 0.13438(17)
H10 H 0.1322 0.0681 0.1115
H11 H 0.2473 0.0133 0.2106
C16 C 0.2364(3) -0.0951(3) 0.04322(18)
H12 H 0.1222 -0.1942 0.0386
H13 H 0.3478 -0.1182 0.0661
H14 H 0.2325 -0.0635 -0.0330
O3 O 0.72821(17) 0.31130(18) 0.39612(11)
loop_
_geom_bond_atom_site_label_1
_geom_bond_atom_site_label_2
_geom_bond_site_symmetry_1
_geom_bond_site_symmetry_2
N1 H1 1_555 1_555
H2 N1 1_555 1_555
N2 C13 1_555 1_555
C1 H3 1_555 1_555
C2 C1 1_555 1_555
C3 N1 1_555 1_555
O1 C3 1_555 1_555
C4 O1 1_555 1_555
C5 C1 1_555 1_555
C6 C5 1_555 1_555
O2 C6 1_555 1_555
C7 O2 1_555 1_555
C8 C4 1_555 1_555
C9 C8 1_555 1_555
H4 C9 1_555 1_555
C10 C9 1_555 1_555
H5 C10 1_555 1_555
C11 C10 1_555 1_555
H6 C11 1_555 1_555
C12 C7 1_555 1_555
H7 C12 1_555 1_555
C13 C2 1_555 1_555
C14 C1 1_555 1_555
H8 C14 1_555 1_555
H9 C14 1_555 1_555
C15 C14 1_555 1_555
H10 C15 1_555 1_555
H11 C15 1_555 1_555
C16 C15 1_555 1_555
H12 C16 1_555 1_555
H13 C16 1_555 1_555
H14 C16 1_555 1_555
O3 C6 1_555 1_555
C2 C3 1_555 1_555
C4 C5 1_555 1_555
C7 C8 1_555 1_555
C11 C12 1_555 1_555

#END
