
#######################################################################
#
#                 Cambridge Crystallographic Data Centre
#                                CCDC 
#
#######################################################################
#
# If this CIF has been generated from an entry in the Cambridge 
# Structural Database, then it will include bibliographic, chemical, 
# crystal, experimental, refinement or atomic coordinate data resulting 
# from the CCDC's data processing and validation procedures.
#
#######################################################################

data_JUWYIL
_chemical_formula_moiety         'C92 H140 Li6 O8 P2'
_chemical_name_systematic        
"(\m~6~-2,2',2''-Phosphinetriyltris(4,6-di-t-butylphenolato))-(\m~5~-2,2',2''-phosphinetriyltris(4,6-di-t-butylphenolato))-bis(diethyl ether)-hexa-lithium unknown solvate"
_symmetry_cell_setting           monoclinic
_symmetry_space_group_name_H-M   'P 21/n'
_symmetry_Int_Tables_number      14
_space_group_name_Hall           '-P 2yn'
loop_
_symmetry_equiv_pos_site_id
_symmetry_equiv_pos_as_xyz
1 x,y,z
2 1/2-x,1/2+y,1/2-z
3 -x,-y,-z
4 1/2+x,1/2-y,1/2+z
_cell_length_a                   14.7467(2)
_cell_length_b                   36.4333(4)
_cell_length_c                   19.1059(3)
_cell_angle_alpha                90
_cell_angle_beta                 96.86
_cell_angle_gamma                90
_cell_volume                     10191.6
_exptl_crystal_colour            colorless
_exptl_crystal_description       prism
_cell_formula_units_Z            4
loop_
_atom_site_label
_atom_site_type_symbol
_atom_site_fract_x
_atom_site_fract_y
_atom_site_fract_z
C1 C 0.2344(2) 0.18842(9) 0.13555(17)
C2 C 0.2385(2) 0.19216(9) 0.21004(17)
C3 C 0.2516(2) 0.22767(9) 0.24115(18)
C4 C 0.2482(3) 0.23378(9) 0.32056(19)
C5 C 0.3196(3) 0.21028(11) 0.3634(2)
H1 H 0.3084 0.1849 0.3519
H2 H 0.3165 0.2140 0.4127
H3 H 0.3793 0.2170 0.3523
C6 C 0.2671(3) 0.27381(10) 0.3431(2)
H4 H 0.2632 0.2758 0.3927
H5 H 0.2221 0.2894 0.3177
H6 H 0.3269 0.2811 0.3334
C7 C 0.1509(3) 0.22516(10) 0.3394(2)
H7 H 0.1355 0.2001 0.3279
H8 H 0.1495 0.2291 0.3889
H9 H 0.1075 0.2411 0.3132
C8 C 0.2679(2) 0.25658(10) 0.19725(19)
H10 H 0.2803 0.2805 0.2174
C9 C 0.2690(2) 0.25393(10) 0.12424(19)
C10 C 0.2926(3) 0.28732(11) 0.0822(2)
C11 C 0.3928(3) 0.29602(13) 0.0996(3)
H11 H 0.4085 0.3167 0.0723
H12 H 0.4294 0.2753 0.0896
H13 H 0.4041 0.3019 0.1489
C12 C 0.2366(4) 0.32114(13) 0.1016(3)
H14 H 0.2499 0.3421 0.0742
H15 H 0.2523 0.3264 0.1508
H16 H 0.1727 0.3155 0.0926
C13 C 0.2703(5) 0.28210(15) 0.0045(3)
H17 H 0.2855 0.3034 -0.0213
H18 H 0.2060 0.2774 -0.0051
H19 H 0.3037 0.2613 -0.0098
C14 C 0.2506(2) 0.21943(10) 0.09474(19)
H20 H 0.2499 0.2167 0.0447
C15 C 0.1154(2) 0.14463(9) 0.03206(17)
C16 C 0.1153(2) 0.13530(9) -0.03913(17)
H21 H 0.1730 0.1317 -0.0566
C17 C 0.0341(2) 0.13074(10) -0.08305(18)
C18 C 0.0298(3) 0.12068(12) -0.16140(19)
C19 C 0.1249(3) 0.11832(15) -0.1862(2)
H22 H 0.1188 0.1130 -0.2358
H23 H 0.1577 0.0988 -0.1607
H24 H 0.1577 0.1409 -0.1773
C20 C -0.0245(4) 0.14991(14) -0.2063(2)
H25 H -0.0265 0.1437 -0.2553
H26 H 0.0052 0.1732 -0.1978
H27 H -0.0856 0.1513 -0.1939
C21 C -0.0168(3) 0.08345(13) -0.1745(2)
H28 H -0.0209 0.0775 -0.2237
H29 H -0.0770 0.0842 -0.1601
H30 H 0.0189 0.0651 -0.1477
C22 C -0.0471(2) 0.13492(10) -0.05305(17)
H31 H -0.1048 0.1323 -0.0817
C23 C -0.0517(2) 0.14471(9) 0.01761(18)
C24 C -0.1436(2) 0.14729(10) 0.04737(18)
C25 C -0.1572(2) 0.18568(10) 0.0765(2)
H32 H -0.2148 0.1867 0.0950
H33 H -0.1568 0.2032 0.0390
H34 H -0.1089 0.1913 0.1132
C26 C -0.2247(2) 0.13975(12) -0.0083(2)
H35 H -0.2810 0.1421 0.0118
H36 H -0.2192 0.1152 -0.0258
H37 H -0.2240 0.1569 -0.0464
C27 C -0.1461(3) 0.11833(11) 0.1067(2)
H38 H -0.2030 0.1203 0.1261
H39 H -0.0964 0.1222 0.1432
H40 H -0.1410 0.0943 0.0869
C28 C 0.0324(2) 0.15027(9) 0.06070(17)
C29 C 0.3141(2) 0.13201(9) 0.05696(16)
C30 C 0.3723(2) 0.10492(9) 0.09029(17)
C31 C 0.4552(2) 0.09676(10) 0.06106(18)
C32 C 0.5243(3) 0.06868(12) 0.0969(2)
C33 C 0.5584(3) 0.08170(14) 0.1717(2)
H41 H 0.6023 0.0648 0.1946
H42 H 0.5072 0.0835 0.1982
H43 H 0.5862 0.1054 0.1691
C34 C 0.6091(3) 0.06462(13) 0.0570(2)
H44 H 0.6505 0.0472 0.0811
H45 H 0.6392 0.0879 0.0551
H46 H 0.5900 0.0562 0.0100
C35 C 0.4820(3) 0.03051(11) 0.0980(2)
H47 H 0.5257 0.0133 0.1200
H48 H 0.4631 0.0231 0.0503
H49 H 0.4298 0.0313 0.1236
C36 C 0.4724(2) 0.11535(11) 0.0014(2)
H50 H 0.5268 0.1091 -0.0190
C37 C 0.4155(3) 0.14260(11) -0.0319(2)
C38 C 0.4385(3) 0.16107(13) -0.1001(3)
C39 C 0.4144(5) 0.1333(2) -0.1607(3)
H51 H 0.4290 0.1442 -0.2037
H52 H 0.3507 0.1271 -0.1655
H53 H 0.4503 0.1114 -0.1511
C40 C 0.5387(7) 0.1739(3) -0.0907(6)
H54 H 0.5527 0.1854 -0.1333
H55 H 0.5781 0.1531 -0.0804
H56 H 0.5479 0.1911 -0.0525
C41 C 0.4001(8) 0.2009(3) -0.1058(6)
H57 H 0.4146 0.2119 -0.1488
H58 H 0.4270 0.2150 -0.0664
H59 H 0.3350 0.2002 -0.1059
C42 C 0.3375(2) 0.15051(10) -0.00299(18)
H60 H 0.2979 0.1694 -0.0242
C43 C 0.2005(2) 0.02029(9) 0.29994(17)
C44 C 0.2537(2) 0.00234(9) 0.25354(18)
C45 C 0.2699(2) -0.03598(10) 0.2642(2)
C46 C 0.3252(3) -0.05820(11) 0.2155(3)
C47 C 0.4251(3) -0.04498(14) 0.2267(3)
H61 H 0.4618 -0.0583 0.1972
H62 H 0.4492 -0.0484 0.2752
H63 H 0.4261 -0.0193 0.2152
C48 C 0.2735(8) -0.0504(3) 0.1309(5)
H64 H 0.3050 -0.0639 0.0980
H65 H 0.2757 -0.0246 0.1205
H66 H 0.2110 -0.0583 0.1272
C49 C 0.3078(7) -0.0999(2) 0.2172(6)
H67 H 0.3444 -0.1120 0.1858
H68 H 0.2444 -0.1047 0.2025
H69 H 0.3238 -0.1089 0.2642
C50 C 0.2343(2) -0.05309(10) 0.3207(2)
H70 H 0.2433 -0.0790 0.3271
C51 C 0.1853(2) -0.03498(9) 0.36878(17)
C52 C 0.1524(2) -0.05657(9) 0.43046(18)
C53 C 0.2351(3) -0.07238(11) 0.4764(2)
H71 H 0.2154 -0.0859 0.5150
H72 H 0.2737 -0.0524 0.4944
H73 H 0.2686 -0.0883 0.4488
C54 C 0.0913(3) -0.08790(10) 0.4011(2)
H74 H 0.0706 -0.1012 0.4395
H75 H 0.1255 -0.1040 0.3743
H76 H 0.0396 -0.0784 0.3712
C55 C 0.0984(3) -0.03229(11) 0.4749(2)
H77 H 0.0784 -0.0463 0.5127
H78 H 0.0462 -0.0227 0.4458
H79 H 0.1361 -0.0124 0.4940
C56 C 0.1701(2) 0.00179(9) 0.35723(17)
H80 H 0.1367 0.0154 0.3888
C57 C 0.0516(2) 0.07188(9) 0.30149(16)
C58 C 0.0170(2) 0.10776(9) 0.30846(15)
C59 C -0.0761(2) 0.11236(9) 0.31782(16)
C60 C -0.1139(2) 0.15059(9) 0.33450(18)
C61 C -0.1048(3) 0.17792(10) 0.2749(2)
H81 H -0.1295 0.2013 0.2861
H82 H -0.1378 0.1686 0.2322
H83 H -0.0415 0.1807 0.2687
C62 C -0.0608(3) 0.16505(11) 0.40159(19)
H84 H -0.0840 0.1886 0.4132
H85 H 0.0025 0.1673 0.3949
H86 H -0.0668 0.1481 0.4393
C63 C -0.2157(2) 0.14905(10) 0.3443(2)
H87 H -0.2363 0.1732 0.3547
H88 H -0.2239 0.1329 0.3828
H89 H -0.2503 0.1401 0.3020
C64 C -0.1314(2) 0.08132(9) 0.31281(17)
H90 H -0.1949 0.0842 0.3181
C65 C -0.1003(2) 0.04603(9) 0.30019(17)
C66 C -0.1670(2) 0.01372(10) 0.28817(19)
C67 C -0.2511(3) 0.01826(13) 0.3248(3)
H91 H -0.2886 -0.0030 0.3140
H92 H -0.2847 0.0399 0.3090
H93 H -0.2339 0.0197 0.3748
C68 C -0.1847(13) 0.0041(6) 0.2129(6)
H94 H -0.1277 0.0015 0.1937
H95 H -0.2203 0.0231 0.1880
H96 H -0.2176 -0.0187 0.2078
C69 C -0.1218(9) -0.0206(4) 0.3282(8)
H97 H -0.0658 -0.0265 0.3098
H98 H -0.1628 -0.0411 0.3217
H99 H -0.1093 -0.0152 0.3775
C70 C -0.0079(2) 0.04189(9) 0.29561(16)
H100 H 0.0161 0.0178 0.2892
C71 C 0.2392(2) 0.08956(8) 0.36367(16)
C72 C 0.3323(2) 0.09633(8) 0.35625(17)
C73 C 0.3916(2) 0.11043(9) 0.41501(17)
C74 C 0.4939(2) 0.11569(9) 0.41027(18)
C75 C 0.5096(2) 0.14523(10) 0.3564(2)
H101 H 0.5739 0.1480 0.3541
H102 H 0.4846 0.1682 0.3695
H103 H 0.4800 0.1378 0.3111
C76 C 0.5384(2) 0.07958(10) 0.39143(19)
H104 H 0.6020 0.0841 0.3888
H105 H 0.5102 0.0707 0.3467
H106 H 0.5320 0.0615 0.4271
C77 C 0.5452(2) 0.12781(12) 0.4809(2)
H107 H 0.6089 0.1308 0.4765
H108 H 0.5379 0.1097 0.5163
H109 H 0.5203 0.1508 0.4944
C78 C 0.3519(2) 0.11929(9) 0.47529(18)
H110 H 0.3891 0.1297 0.5150
C79 C 0.2592(2) 0.11416(9) 0.48331(17)
C80 C 0.2218(3) 0.12575(12) 0.55203(19)
C81 C 0.2839(7) 0.1107(4) 0.6165(5)
H111 H 0.3458 0.1182 0.6138
H112 H 0.2807 0.0843 0.6167
H113 H 0.2639 0.1201 0.6590
C82 C 0.1282(5) 0.1131(3) 0.5561(4)
H114 H 0.1088 0.1210 0.5999
H115 H 0.1263 0.0868 0.5536
H116 H 0.0883 0.1232 0.5176
C83 C 0.2246(9) 0.1686(2) 0.5546(5)
H117 H 0.2862 0.1768 0.5531
H118 H 0.2033 0.1769 0.5974
H119 H 0.1861 0.1783 0.5149
C84 C 0.2043(2) 0.09840(9) 0.42679(17)
H120 H 0.1411 0.0937 0.4311
C85 C 0.0314(4) 0.23480(16) -0.0397(3)
H121 H 0.0131 0.2419 -0.0877
H122 H 0.0085 0.2107 -0.0317
H123 H 0.0968 0.2347 -0.0307
C86 C -0.0063(4) 0.26126(18) 0.0070(4)
H124 H -0.0716 0.2611 -0.0040
H125 H 0.0168 0.2851 -0.0029
C87 C -0.0258(7) 0.2758(3) 0.1170(6)
H126 H -0.0916 0.2734 0.1071
H127 H -0.0084 0.3006 0.1061
C88 C 0.0061(8) 0.2664(3) 0.1922(5)
H128 H -0.0221 0.2826 0.2227
H129 H 0.0713 0.2690 0.2007
H130 H -0.0104 0.2415 0.2013
O1 O 0.22656(14) 0.16217(5) 0.24860(11)
O2 O 0.03768(14) 0.16083(6) 0.12851(11)
O3 O 0.34924(14) 0.08762(6) 0.14756(11)
O4 O 0.28969(15) 0.02071(6) 0.20366(12)
O5 O 0.07327(14) 0.13623(6) 0.30393(11)
O6 O 0.36265(14) 0.08998(6) 0.29439(11)
O7 O 0.0168(2) 0.25116(8) 0.0801(2)
O8 O 0.1592(2) 0.04689(10) 0.05820(17)
P1 P 0.21311(6) 0.14176(2) 0.09984(4)
P2 P 0.17213(6) 0.06883(2) 0.28609(4)
Li1 Li 0.1033(4) 0.14017(16) 0.2110(3)
Li2 Li 0.1898(4) 0.14840(16) 0.3352(3)
Li3 Li 0.2927(4) 0.11655(16) 0.2216(3)
Li4 Li 0.2446(4) 0.05581(18) 0.1391(4)
Li5 Li 0.0810(4) 0.20808(18) 0.1153(4)
Li6 Li 0.3790(4) 0.05647(16) 0.2285(3)
C89 C 0.2563(5) 0.03617(19) -0.0252(4)
H131 H 0.2583 0.0253 -0.0708
H132 H 0.2958 0.0228 0.0094
H133 H 0.2762 0.0612 -0.0260
C90 C 0.1682(5) 0.0349(2) -0.0082(4)
H134 H 0.1463 0.0099 -0.0130
H135 H 0.1296 0.0499 -0.0417
C91 C 0.0627(6) 0.0502(2) 0.0669(4)
H136 H 0.0508 0.0743 0.0855
H137 H 0.0259 0.0475 0.0216
C92 C 0.0388(5) 0.0222(3) 0.1147(3)
H138 H -0.0224 0.0263 0.1254
H139 H 0.0803 0.0232 0.1573
H140 H 0.0425 -0.0014 0.0931
C93? C 0.5343(7) 0.1596(4) -0.1124(7)
H141? H 0.5639 0.1396 -0.0863
H142? H 0.5639 0.1822 -0.0972
H143? H 0.5381 0.1561 -0.1617
C94? C 0.3649(7) 0.1852(3) -0.1324(5)
H144? H 0.3080 0.1780 -0.1168
H145? H 0.3605 0.1832 -0.1828
H146? H 0.3782 0.2102 -0.1186
C95? C 0.3043(9) -0.0565(3) 0.1508(6)
H147? H 0.3440 -0.0722 0.1278
H148? H 0.3104 -0.0317 0.1353
H149? H 0.2422 -0.0644 0.1392
C96? C 0.3466(8) -0.0990(2) 0.2489(6)
H150? H 0.3640 -0.0969 0.2988
H151? H 0.3954 -0.1100 0.2273
H152? H 0.2929 -0.1140 0.2402
C97? C -0.2178(16) 0.0219(8) 0.2070(10)
H153? H -0.2480 0.0453 0.2060
H154? H -0.2619 0.0030 0.1937
H155? H -0.1729 0.0221 0.1746
C98? C -0.1261(12) -0.0228(5) 0.283(3)
H156? H -0.0738 -0.0210 0.2578
H157? H -0.1701 -0.0390 0.2585
H158? H -0.1077 -0.0321 0.3295
C99? C 0.2927(18) 0.1375(9) 0.6081(11)
H159? H 0.2646 0.1448 0.6487
H160? H 0.3259 0.1578 0.5917
H161? H 0.3338 0.1174 0.6205
C100? C 0.1813(17) 0.0873(7) 0.5828(10)
H162? H 0.1338 0.0778 0.5490
H163? H 0.1571 0.0924 0.6263
H164? H 0.2297 0.0696 0.5910
C101? C 0.1392(18) 0.1511(9) 0.5353(10)
H165? H 0.1030 0.1428 0.4932
H166? H 0.1599 0.1757 0.5283
H167? H 0.1030 0.1508 0.5739
C102? C -0.0304(19) 0.2674(6) 0.1577(11)
H168? H -0.0961 0.2700 0.1473
H169? H -0.0182 0.2496 0.1955
C103? C 0.0117(12) 0.3039(4) 0.1808(9)
H170? H -0.0162 0.3130 0.2203
H171? H 0.0019 0.3211 0.1426
H172? H 0.0761 0.3008 0.1942
loop_
_geom_bond_atom_site_label_1
_geom_bond_atom_site_label_2
_geom_bond_site_symmetry_1
_geom_bond_site_symmetry_2
C1 C2 1_555 1_555
C2 C3 1_555 1_555
C3 C4 1_555 1_555
C4 C5 1_555 1_555
C5 H1 1_555 1_555
H2 C5 1_555 1_555
H3 C5 1_555 1_555
C6 C4 1_555 1_555
H4 C6 1_555 1_555
H5 C6 1_555 1_555
H6 C6 1_555 1_555
C7 C4 1_555 1_555
H7 C7 1_555 1_555
H8 C7 1_555 1_555
H9 C7 1_555 1_555
C8 C3 1_555 1_555
H10 C8 1_555 1_555
C9 C8 1_555 1_555
C10 C9 1_555 1_555
C11 C10 1_555 1_555
H11 C11 1_555 1_555
H12 C11 1_555 1_555
H13 C11 1_555 1_555
C12 C10 1_555 1_555
H14 C12 1_555 1_555
H15 C12 1_555 1_555
H16 C12 1_555 1_555
C13 C10 1_555 1_555
H17 C13 1_555 1_555
H18 C13 1_555 1_555
H19 C13 1_555 1_555
C14 C1 1_555 1_555
H20 C14 1_555 1_555
C15 C16 1_555 1_555
C16 H21 1_555 1_555
C17 C16 1_555 1_555
C18 C17 1_555 1_555
C19 C18 1_555 1_555
H22 C19 1_555 1_555
H23 C19 1_555 1_555
H24 C19 1_555 1_555
C20 C18 1_555 1_555
H25 C20 1_555 1_555
H26 C20 1_555 1_555
H27 C20 1_555 1_555
C21 C18 1_555 1_555
H28 C21 1_555 1_555
H29 C21 1_555 1_555
H30 C21 1_555 1_555
C22 C17 1_555 1_555
H31 C22 1_555 1_555
C23 C22 1_555 1_555
C24 C23 1_555 1_555
C25 C24 1_555 1_555
H32 C25 1_555 1_555
H33 C25 1_555 1_555
H34 C25 1_555 1_555
C26 C24 1_555 1_555
H35 C26 1_555 1_555
H36 C26 1_555 1_555
H37 C26 1_555 1_555
C27 C24 1_555 1_555
H38 C27 1_555 1_555
H39 C27 1_555 1_555
H40 C27 1_555 1_555
C28 C15 1_555 1_555
C29 C30 1_555 1_555
C30 C31 1_555 1_555
C31 C32 1_555 1_555
C32 C33 1_555 1_555
C33 H41 1_555 1_555
H42 C33 1_555 1_555
H43 C33 1_555 1_555
C34 C32 1_555 1_555
H44 C34 1_555 1_555
H45 C34 1_555 1_555
H46 C34 1_555 1_555
C35 C32 1_555 1_555
H47 C35 1_555 1_555
H48 C35 1_555 1_555
H49 C35 1_555 1_555
C36 C31 1_555 1_555
H50 C36 1_555 1_555
C37 C36 1_555 1_555
C38 C37 1_555 1_555
C39 C38 1_555 1_555
H51 C39 1_555 1_555
H52 C39 1_555 1_555
H53 C39 1_555 1_555
C40 C38 1_555 1_555
H54 C40 1_555 1_555
H55 C40 1_555 1_555
H56 C40 1_555 1_555
C41 C38 1_555 1_555
H57 C41 1_555 1_555
H58 C41 1_555 1_555
H59 C41 1_555 1_555
C42 C29 1_555 1_555
H60 C42 1_555 1_555
C43 C44 1_555 1_555
C44 C45 1_555 1_555
C45 C46 1_555 1_555
C46 C47 1_555 1_555
C47 H61 1_555 1_555
H62 C47 1_555 1_555
H63 C47 1_555 1_555
C48 C46 1_555 1_555
H64 C48 1_555 1_555
H65 C48 1_555 1_555
H66 C48 1_555 1_555
C49 C46 1_555 1_555
H67 C49 1_555 1_555
H68 C49 1_555 1_555
H69 C49 1_555 1_555
C50 C45 1_555 1_555
H70 C50 1_555 1_555
C51 C50 1_555 1_555
C52 C51 1_555 1_555
C53 C52 1_555 1_555
H71 C53 1_555 1_555
H72 C53 1_555 1_555
H73 C53 1_555 1_555
C54 C52 1_555 1_555
H74 C54 1_555 1_555
H75 C54 1_555 1_555
H76 C54 1_555 1_555
C55 C52 1_555 1_555
H77 C55 1_555 1_555
H78 C55 1_555 1_555
H79 C55 1_555 1_555
C56 C43 1_555 1_555
H80 C56 1_555 1_555
C57 C58 1_555 1_555
C58 C59 1_555 1_555
C59 C60 1_555 1_555
C60 C61 1_555 1_555
C61 H81 1_555 1_555
H82 C61 1_555 1_555
H83 C61 1_555 1_555
C62 C60 1_555 1_555
H84 C62 1_555 1_555
H85 C62 1_555 1_555
H86 C62 1_555 1_555
C63 C60 1_555 1_555
H87 C63 1_555 1_555
H88 C63 1_555 1_555
H89 C63 1_555 1_555
C64 C59 1_555 1_555
H90 C64 1_555 1_555
C65 C64 1_555 1_555
C66 C65 1_555 1_555
C67 C66 1_555 1_555
H91 C67 1_555 1_555
H92 C67 1_555 1_555
H93 C67 1_555 1_555
C68 C66 1_555 1_555
H94 C68 1_555 1_555
H95 C68 1_555 1_555
H96 C68 1_555 1_555
C69 C66 1_555 1_555
H97 C69 1_555 1_555
H98 C69 1_555 1_555
H99 C69 1_555 1_555
C70 C57 1_555 1_555
H100 C70 1_555 1_555
C71 C72 1_555 1_555
C72 C73 1_555 1_555
C73 C74 1_555 1_555
C74 C75 1_555 1_555
C75 H101 1_555 1_555
H102 C75 1_555 1_555
H103 C75 1_555 1_555
C76 C74 1_555 1_555
H104 C76 1_555 1_555
H105 C76 1_555 1_555
H106 C76 1_555 1_555
C77 C74 1_555 1_555
H107 C77 1_555 1_555
H108 C77 1_555 1_555
H109 C77 1_555 1_555
C78 C73 1_555 1_555
H110 C78 1_555 1_555
C79 C78 1_555 1_555
C80 C79 1_555 1_555
C81 C80 1_555 1_555
H111 C81 1_555 1_555
H112 C81 1_555 1_555
H113 C81 1_555 1_555
C82 C80 1_555 1_555
H114 C82 1_555 1_555
H115 C82 1_555 1_555
H116 C82 1_555 1_555
C83 C80 1_555 1_555
H117 C83 1_555 1_555
H118 C83 1_555 1_555
H119 C83 1_555 1_555
C84 C71 1_555 1_555
H120 C84 1_555 1_555
C85 H121 1_555 1_555
H122 C85 1_555 1_555
H123 C85 1_555 1_555
C86 C85 1_555 1_555
H124 C86 1_555 1_555
H125 C86 1_555 1_555
C87 H126 1_555 1_555
H127 C87 1_555 1_555
C88 C87 1_555 1_555
H128 C88 1_555 1_555
H129 C88 1_555 1_555
H130 C88 1_555 1_555
O1 C2 1_555 1_555
O2 C28 1_555 1_555
O3 C30 1_555 1_555
O4 C44 1_555 1_555
O5 C58 1_555 1_555
O6 C72 1_555 1_555
O7 C86 1_555 1_555
O8 Li4 1_555 1_555
P1 C1 1_555 1_555
P2 C43 1_555 1_555
Li1 O1 1_555 1_555
Li2 O1 1_555 1_555
Li3 O1 1_555 1_555
Li4 O3 1_555 1_555
Li5 O2 1_555 1_555
Li6 O3 1_555 1_555
C89 H131 1_555 1_555
H132 C89 1_555 1_555
H133 C89 1_555 1_555
C90 O8 1_555 1_555
H134 C90 1_555 1_555
H135 C90 1_555 1_555
C91 O8 1_555 1_555
H136 C91 1_555 1_555
H137 C91 1_555 1_555
C92 C91 1_555 1_555
H138 C92 1_555 1_555
H139 C92 1_555 1_555
H140 C92 1_555 1_555
C9 C14 1_555 1_555
C15 P1 1_555 1_555
C23 C28 1_555 1_555
C29 P1 1_555 1_555
C37 C42 1_555 1_555
C51 C56 1_555 1_555
C57 P2 1_555 1_555
C65 C70 1_555 1_555
C71 P2 1_555 1_555
C79 C84 1_555 1_555
C87 O7 1_555 1_555
O2 Li1 1_555 1_555
O3 Li3 1_555 1_555
O4 Li4 1_555 1_555
O4 Li6 1_555 1_555
O5 Li1 1_555 1_555
O5 Li2 1_555 1_555
O6 Li3 1_555 1_555
O6 Li6 1_555 1_555
O7 Li5 1_555 1_555
P1 Li3 1_555 1_555
C89 C90 1_555 1_555

#END
