
#######################################################################
#
#                 Cambridge Crystallographic Data Centre
#                                CCDC 
#
#######################################################################
#
# If this CIF has been generated from an entry in the Cambridge 
# Structural Database, then it will include bibliographic, chemical, 
# crystal, experimental, refinement or atomic coordinate data resulting 
# from the CCDC's data processing and validation procedures.
#
#######################################################################

data_JUWZIK01
_chemical_name_common            'coriandrone B'
_chemical_formula_moiety         'C16 H20 O5'
_chemical_name_systematic        
3-Hydroxy-5-methoxy-2,2,8-trimethyl-3,4,7,8-tetrahydro-2H,10H-pyrano[4,3-h]chromen-10-one
_symmetry_cell_setting           orthorhombic
_symmetry_space_group_name_H-M   'P 21 21 21'
_symmetry_Int_Tables_number      19
_space_group_name_Hall           'P 2ac 2ab'
loop_
_symmetry_equiv_pos_site_id
_symmetry_equiv_pos_as_xyz
1 x,y,z
2 1/2-x,-y,1/2+z
3 1/2+x,1/2-y,-z
4 -x,1/2+y,1/2-z
_cell_length_a                   8.7505(5)
_cell_length_b                   10.8915(6)
_cell_length_c                   15.6217(7)
_cell_angle_alpha                90
_cell_angle_beta                 90
_cell_angle_gamma                90
_cell_volume                     1488.84
_exptl_crystal_colour            'light colorless'
_exptl_crystal_description       block
_cell_formula_units_Z            4
loop_
_atom_site_label
_atom_site_type_symbol
_atom_site_fract_x
_atom_site_fract_y
_atom_site_fract_z
O1 O -0.1041(2) -0.6632(2) -0.73018(13)
O2 O -0.0033(2) -0.51068(19) -0.65974(12)
O3 O -0.41411(19) -0.67639(17) -0.72072(10)
O4 O -0.8130(2) -0.7720(2) -0.72587(15)
H1 H -0.8909 -0.7303 -0.7268
O5 O -0.6180(2) -0.5855(2) -0.44815(11)
C1 C -0.2577(3) -0.5760(2) -0.61954(15)
C2 C -0.1229(3) -0.5870(3) -0.67502(17)
C3 C -0.0235(3) -0.4082(3) -0.60076(17)
H2 H -0.0929 -0.3478 -0.6263
C4 C -0.0927(4) -0.4569(3) -0.51986(17)
H3 H -0.1096 -0.3900 -0.4800
H4 H -0.0233 -0.5151 -0.4934
C5 C -0.2421(3) -0.5189(3) -0.53992(16)
C6 C -0.3602(3) -0.5199(3) -0.48088(17)
H5 H -0.3482 -0.4822 -0.4279
C7 C -0.4963(3) -0.5776(3) -0.50166(15)
C8 C -0.5195(3) -0.6315(2) -0.58230(15)
C9 C -0.3995(3) -0.6308(2) -0.64035(15)
C10 C -0.6718(3) -0.6868(3) -0.60556(17)
H6 H -0.7535 -0.6356 -0.5833
H7 H -0.6811 -0.7675 -0.5799
C11 C -0.6866(3) -0.6971(3) -0.70206(17)
H8 H -0.7005 -0.6149 -0.7263
C12 C -0.5449(3) -0.7547(2) -0.74087(16)
C13 C 0.1339(4) -0.3510(3) -0.5899(2)
H9 H 0.2021 -0.4101 -0.5651
H10 H 0.1266 -0.2807 -0.5531
H11 H 0.1723 -0.3261 -0.6448
C14 C -0.6011(4) -0.5348(4) -0.36370(18)
H12 H -0.5901 -0.4472 -0.3676
H13 H -0.5121 -0.5691 -0.3369
H14 H -0.6899 -0.5540 -0.3302
C15 C -0.5132(4) -0.8817(2) -0.7077(2)
H15 H -0.4317 -0.9180 -0.7401
H16 H -0.6035 -0.9311 -0.7132
H17 H -0.4841 -0.8771 -0.6485
C16 C -0.5520(3) -0.7521(3) -0.83806(17)
H18 H -0.5705 -0.6696 -0.8571
H19 H -0.6333 -0.8044 -0.8574
H20 H -0.4568 -0.7807 -0.8611
loop_
_geom_bond_atom_site_label_1
_geom_bond_atom_site_label_2
_geom_bond_site_symmetry_1
_geom_bond_site_symmetry_2
O1 C2 1_555 1_555
O2 C2 1_555 1_555
O3 C9 1_555 1_555
O4 H1 1_555 1_555
O5 C7 1_555 1_555
C1 C2 1_555 1_555
C3 O2 1_555 1_555
H2 C3 1_555 1_555
C4 C3 1_555 1_555
H3 C4 1_555 1_555
H4 C4 1_555 1_555
C5 C1 1_555 1_555
C6 C5 1_555 1_555
H5 C6 1_555 1_555
C7 C6 1_555 1_555
C8 C7 1_555 1_555
C9 C1 1_555 1_555
C10 C8 1_555 1_555
H6 C10 1_555 1_555
H7 C10 1_555 1_555
C11 O4 1_555 1_555
H8 C11 1_555 1_555
C12 O3 1_555 1_555
C13 C3 1_555 1_555
H9 C13 1_555 1_555
H10 C13 1_555 1_555
H11 C13 1_555 1_555
C14 O5 1_555 1_555
H12 C14 1_555 1_555
H13 C14 1_555 1_555
H14 C14 1_555 1_555
C15 C12 1_555 1_555
H15 C15 1_555 1_555
H16 C15 1_555 1_555
H17 C15 1_555 1_555
C16 C12 1_555 1_555
H18 C16 1_555 1_555
H19 C16 1_555 1_555
H20 C16 1_555 1_555
C4 C5 1_555 1_555
C8 C9 1_555 1_555
C10 C11 1_555 1_555
C11 C12 1_555 1_555

#END
