
#######################################################################
#
#                 Cambridge Crystallographic Data Centre
#                                CCDC 
#
#######################################################################
#
# If this CIF has been generated from an entry in the Cambridge 
# Structural Database, then it will include bibliographic, chemical, 
# crystal, experimental, refinement or atomic coordinate data resulting 
# from the CCDC's data processing and validation procedures.
#
#######################################################################

data_JUXLET
_chemical_formula_moiety         
'2(C10 H12 S4 1+),C10 H12 S4,2(C12 H4 N2 O2 1-)'
_chemical_name_systematic        
'tris(Tetramethyltetrathiafulvalene) bis(2,3-dicyano-1,4-naphthoquinone)'
_symmetry_cell_setting           triclinic
_symmetry_space_group_name_H-M   'P -1'
_symmetry_Int_Tables_number      2
_space_group_name_Hall           '-P 1'
loop_
_symmetry_equiv_pos_site_id
_symmetry_equiv_pos_as_xyz
1 x,y,z
2 -x,-y,-z
_cell_length_a                   10.527(3)
_cell_length_b                   11.853(3)
_cell_length_c                   11.996(3)
_cell_angle_alpha                68.51(2)
_cell_angle_beta                 69.58(2)
_cell_angle_gamma                82.58(2)
_cell_volume                     1305.24
_exptl_crystal_colour            black
_cell_formula_units_Z            1
loop_
_atom_site_label
_atom_site_type_symbol
_atom_site_fract_x
_atom_site_fract_y
_atom_site_fract_z
S1 S 0.2107(1) 0.5432(1) 0.7089(1)
S2 S 0.2773(1) 0.7270(1) 0.4569(1)
S3 S 0.3438(1) 0.3377(1) 0.5749(1)
S4 S 0.4146(1) 0.5304(1) 0.3285(1)
C1 C 0.2833(3) 0.5757(3) 0.5469(3)
C2 C 0.1683(3) 0.6932(3) 0.7004(3)
C3 C 0.1993(3) 0.7776(3) 0.5847(3)
C4 C 0.1007(5) 0.7156(5) 0.8229(4)
C5 C 0.1734(5) 0.9110(4) 0.5508(5)
C6 C 0.3406(3) 0.4905(3) 0.4912(3)
C7 C 0.4250(3) 0.2946(3) 0.4431(3)
C8 C 0.4564(3) 0.3828(3) 0.3294(3)
C9 C 0.4504(5) 0.1609(4) 0.4693(5)
C10 C 0.5236(5) 0.3684(5) 0.2030(4)
H1 H 0.0653(53) 0.7968(51) 0.8048(49)
H2 H 0.0449(48) 0.6563(44) 0.8808(45)
H3 H 0.1580(60) 0.7149(52) 0.8597(56)
H4 H 0.1424(49) 0.9346(45) 0.6156(49)
H5 H 0.2506(54) 0.9586(46) 0.4980(50)
H6 H 0.1289(63) 0.9275(54) 0.4975(59)
H7 H 0.4800(56) 0.1436(50) 0.3923(55)
H8 H 0.4991(50) 0.1312(44) 0.5272(48)
H9 H 0.3630(49) 0.1210(41) 0.5141(44)
H10 H 0.5237(68) 0.3017(63) 0.2078(65)
H11 H 0.4792(66) 0.4106(59) 0.1449(63)
H12 H 0.5954(61) 0.4171(51) 0.1570(55)
S5 S 0.0647(1) 0.3236(1) 0.4836(1)
S6 S 0.0877(1) 0.5647(1) 0.2965(1)
C11 C 0.0324(3) 0.4769(3) 0.4533(3)
C12 C 0.1421(3) 0.3350(3) 0.3263(3)
C13 C 0.1524(3) 0.4479(3) 0.2401(3)
C14 C 0.1895(5) 0.2199(3) 0.3020(5)
C15 C 0.2116(6) 0.4794(4) 0.0993(4)
H13 H 0.2169(54) 0.2300(47) 0.2231(54)
H14 H 0.2489(51) 0.1721(45) 0.3567(47)
H15 H 0.1318(57) 0.1599(51) 0.3457(52)
H16 H 0.2602(53) 0.4060(50) 0.0791(48)
H17 H 0.1483(63) 0.5083(56) 0.0591(59)
H18 H 0.2720(55) 0.5361(52) 0.0745(52)
C11A C -0.0324(3) 0.5231(3) 0.5467(3)
S5A S -0.0647(1) 0.6764(1) 0.5164(1)
S6A S -0.0877(1) 0.4353(1) 0.7035(1)
C12A C -0.1421(3) 0.6650(3) 0.6737(3)
C13A C -0.1524(3) 0.5521(3) 0.7599(3)
C14A C -0.1895(5) 0.7801(3) 0.6980(5)
C15A C -0.2116(6) 0.5206(4) 0.9007(4)
H13A H -0.2169(54) 0.7700(47) 0.7769(54)
H14A H -0.2489(51) 0.8279(45) 0.6433(47)
H15A H -0.1318(57) 0.8401(51) 0.6543(52)
H16A H -0.2602(53) 0.5940(50) 0.9209(48)
H17A H -0.1483(63) 0.4917(56) 0.9409(59)
H18A H -0.2720(55) 0.4639(52) 0.9255(52)
O1 O 0.5972(3) 0.7252(3) 0.0035(3)
O2 O 0.4465(3) 1.0354(2) 0.2645(2)
N1 N 0.1411(3) 0.9896(3) 0.2323(3)
N2 N 0.2574(4) 0.7715(3) 0.0276(3)
C16 C 0.5673(4) 0.8030(3) 0.0546(3)
C17 C 0.6639(3) 0.8449(3) 0.0948(3)
C18 C 0.6254(3) 0.9281(3) 0.1603(3)
C19 C 0.4850(3) 0.9728(3) 0.1955(3)
C20 C 0.3927(3) 0.9341(3) 0.1516(3)
C21 C 0.4327(3) 0.8544(3) 0.0828(3)
C22 C 0.7969(4) 0.8020(4) 0.0688(4)
C23 C 0.8893(4) 0.8400(4) 0.1024(4)
C24 C 0.8527(4) 0.9232(4) 0.1642(4)
C25 C 0.7219(4) 0.9652(3) 0.1946(4)
C26 C 0.2534(4) 0.9670(3) 0.1943(3)
C27 C 0.3350(4) 0.8089(3) 0.0523(3)
H19 H 0.8171(38) 0.7466(35) 0.0315(36)
H20 H 0.9771(48) 0.8110(40) 0.0876(41)
H21 H 0.9106(50) 0.9507(44) 0.1866(45)
H22 H 0.6975(34) 1.0172(31) 0.2310(32)
loop_
_geom_bond_atom_site_label_1
_geom_bond_atom_site_label_2
_geom_bond_site_symmetry_1
_geom_bond_site_symmetry_2
S1 C1 1_555 1_555
S2 C1 1_555 1_555
S3 C6 1_555 1_555
S4 C6 1_555 1_555
S5 C11 1_555 1_555
S6 C11 1_555 1_555
O1 C16 1_555 1_555
O2 C19 1_555 1_555
N1 C26 1_555 1_555
N2 C27 1_555 1_555
C1 C6 1_555 1_555
C2 S1 1_555 1_555
C3 S2 1_555 1_555
C4 C2 1_555 1_555
C5 C3 1_555 1_555
C7 S3 1_555 1_555
C8 S4 1_555 1_555
C9 C7 1_555 1_555
C10 C8 1_555 1_555
C11 C11A 1_555 1_555
C12 S5 1_555 1_555
C13 S6 1_555 1_555
C14 C12 1_555 1_555
C15 C13 1_555 1_555
C16 C17 1_555 1_555
C17 C18 1_555 1_555
C18 C19 1_555 1_555
C19 C20 1_555 1_555
C20 C21 1_555 1_555
C21 C16 1_555 1_555
C22 C17 1_555 1_555
C23 C22 1_555 1_555
C24 C23 1_555 1_555
C25 C18 1_555 1_555
C26 C20 1_555 1_555
C27 C21 1_555 1_555
H1 C4 1_555 1_555
H2 C4 1_555 1_555
H3 C4 1_555 1_555
H4 C5 1_555 1_555
H5 C5 1_555 1_555
H6 C5 1_555 1_555
H7 C9 1_555 1_555
H8 C9 1_555 1_555
H9 C9 1_555 1_555
H10 C10 1_555 1_555
H11 C10 1_555 1_555
H12 C10 1_555 1_555
H13 C14 1_555 1_555
H14 C14 1_555 1_555
H15 C14 1_555 1_555
H16 C15 1_555 1_555
H17 C15 1_555 1_555
H18 C15 1_555 1_555
H19 C22 1_555 1_555
H20 C23 1_555 1_555
H21 C24 1_555 1_555
H22 C25 1_555 1_555
C11A S5A 1_555 1_555
S5A C12A 1_555 1_555
S6A C11A 1_555 1_555
C12A C13A 1_555 1_555
C13A S6A 1_555 1_555
C14A C12A 1_555 1_555
C15A C13A 1_555 1_555
H13A C14A 1_555 1_555
H14A C14A 1_555 1_555
H15A C14A 1_555 1_555
H16A C15A 1_555 1_555
H17A C15A 1_555 1_555
H18A C15A 1_555 1_555
C2 C3 1_555 1_555
C7 C8 1_555 1_555
C12 C13 1_555 1_555
C24 C25 1_555 1_555

#END
