
#######################################################################
#
#                 Cambridge Crystallographic Data Centre
#                                CCDC 
#
#######################################################################
#
# If this CIF has been generated from an entry in the Cambridge 
# Structural Database, then it will include bibliographic, chemical, 
# crystal, experimental, refinement or atomic coordinate data resulting 
# from the CCDC's data processing and validation procedures.
#
#######################################################################

data_JUYWUV
_chemical_formula_moiety         'C26 H24 O2'
_chemical_name_systematic        (3.3.2)(1,4)Cyclophane-2,11-dione
_symmetry_cell_setting           orthorhombic
_symmetry_space_group_name_H-M   'P n m a'
_symmetry_Int_Tables_number      62
_space_group_name_Hall           '-P 2ac 2n'
loop_
_symmetry_equiv_pos_site_id
_symmetry_equiv_pos_as_xyz
1 x,y,z
2 1/2-x,-y,1/2+z
3 1/2+x,1/2-y,1/2-z
4 -x,1/2+y,-z
5 -x,-y,-z
6 1/2+x,y,1/2-z
7 1/2-x,1/2+y,1/2+z
8 x,1/2-y,z
_cell_length_a                   12.099(2)
_cell_length_b                   18.816(5)
_cell_length_c                   8.703(2)
_cell_angle_alpha                90
_cell_angle_beta                 90
_cell_angle_gamma                90
_cell_volume                     1981.28
_exptl_crystal_colour            colorless
_chemical_melting_point          183-184deg.C
_cell_formula_units_Z            4
loop_
_atom_site_label
_atom_site_type_symbol
_atom_site_fract_x
_atom_site_fract_y
_atom_site_fract_z
O1 O 0.0082(2) 0.0621(1) -0.2085(3)
C1 C 0.4094(5) 0.2175(3) 0.3117(8)
C2 C 0.3236(3) 0.1656(1) 0.2330(4)
C3 C 0.3833(2) 0.1264(2) 0.1291(4)
C4 C 0.3345(2) 0.0785(1) 0.0318(3)
C5 C 0.2213(2) 0.0675(1) 0.0362(3)
C6 C 0.1605(2) 0.1056(2) 0.1412(3)
C7 C 0.2102(3) 0.1540(2) 0.2370(4)
C8 C 0.1637(2) 0.0168(1) -0.0725(3)
C9 C 0.1080(3) 0.0583(1) -0.1986(3)
C10 C 0.1818(2) 0.0957(1) -0.3134(3)
C11 C 0.1776(2) 0.1756(1) -0.3004(3)
C12 C 0.2686(2) 0.2136(1) -0.2503(3)
C13 C 0.0852(2) 0.2135(1) -0.3461(3)
H1 H 0.4454 0.1935 0.3951
H2 H 0.4621 0.1324 0.1250
H3 H 0.3786 0.0519 -0.0397
H4 H 0.0824 0.0971 0.1486
H5 H 0.1659 0.1804 0.3085
H6 H 0.1088 -0.0097 -0.0171
H7 H 0.2160 -0.0161 -0.1153
H8 H 0.1603 0.0819 -0.4153
H9 H 0.2565 0.0802 -0.2973
H10 H 0.3327 0.1881 -0.2156
H11 H 0.0205 0.1879 -0.3781
C1G C 0.4094(5) 0.2825(3) 0.3117(8)
C12G C 0.2686(2) 0.2864(1) -0.2503(3)
C13G C 0.0852(2) 0.2865(1) -0.3461(3)
C2G C 0.3236(3) 0.3344(1) 0.2330(4)
H1G H 0.4454 0.3065 0.3951
C11G C 0.1776(2) 0.3244(1) -0.3004(3)
H10G H 0.3327 0.3119 -0.2156
H11G H 0.0205 0.3121 -0.3781
C3G C 0.3833(2) 0.3736(2) 0.1291(4)
C7G C 0.2102(3) 0.3460(2) 0.2370(4)
C10G C 0.1818(2) 0.4043(1) -0.3134(3)
C4G C 0.3345(2) 0.4215(1) 0.0318(3)
H2G H 0.4621 0.3676 0.1250
C6G C 0.1605(2) 0.3944(2) 0.1412(3)
H5G H 0.1659 0.3196 0.3085
C9G C 0.1080(3) 0.4417(1) -0.1986(3)
H8G H 0.1603 0.4181 -0.4153
H9G H 0.2565 0.4198 -0.2973
C5G C 0.2213(2) 0.4325(1) 0.0362(3)
H3G H 0.3786 0.4481 -0.0397
H4G H 0.0824 0.4029 0.1486
O1G O 0.0082(2) 0.4379(1) -0.2085(3)
C8G C 0.1637(2) 0.4832(1) -0.0725(3)
H6G H 0.1088 0.5097 -0.0171
H7G H 0.2160 0.5161 -0.1153
C14? C 0.3491(5) 0.2164(3) 0.3705(7)
H12? H 0.4647 0.2312 0.2383
H13? H 0.3950 0.1921 0.4437
H14? H 0.2819 0.2301 0.4211
loop_
_geom_bond_atom_site_label_1
_geom_bond_atom_site_label_2
_geom_bond_site_symmetry_1
_geom_bond_site_symmetry_2
O1 C9 1_555 1_555
C1 C2 1_555 1_555
C2 C3 1_555 1_555
C3 C4 1_555 1_555
C4 C5 1_555 1_555
C5 C6 1_555 1_555
C6 C7 1_555 1_555
C7 C2 1_555 1_555
C8 C5 1_555 1_555
C9 C8 1_555 1_555
C10 C9 1_555 1_555
C11 C10 1_555 1_555
C12 C11 1_555 1_555
C13 C11 1_555 1_555
H1 C1 1_555 1_555
H2 C3 1_555 1_555
H3 C4 1_555 1_555
H4 C6 1_555 1_555
H5 C7 1_555 1_555
H6 C8 1_555 1_555
H7 C8 1_555 1_555
H8 C10 1_555 1_555
H9 C10 1_555 1_555
H10 C12 1_555 1_555
H11 C13 1_555 1_555
C1G C1 1_555 1_555
C12G C12 1_555 1_555
C13G C13 1_555 1_555
C2G C1G 1_555 1_555
H1G C1G 1_555 1_555
C11G C12G 1_555 1_555
H10G C12G 1_555 1_555
H11G C13G 1_555 1_555
C3G C2G 1_555 1_555
C7G C2G 1_555 1_555
C10G C11G 1_555 1_555
C4G C3G 1_555 1_555
H2G C3G 1_555 1_555
C6G C7G 1_555 1_555
H5G C7G 1_555 1_555
C9G C10G 1_555 1_555
H8G C10G 1_555 1_555
H9G C10G 1_555 1_555
C5G C4G 1_555 1_555
H3G C4G 1_555 1_555
H4G C6G 1_555 1_555
O1G C9G 1_555 1_555
C8G C9G 1_555 1_555
H6G C8G 1_555 1_555
H7G C8G 1_555 1_555
C13G C11G 1_555 1_555
C6G C5G 1_555 1_555
C5G C8G 1_555 1_555

#END
