
#######################################################################
#
#                 Cambridge Crystallographic Data Centre
#                                CCDC 
#
#######################################################################
#
# If this CIF has been generated from an entry in the Cambridge 
# Structural Database, then it will include bibliographic, chemical, 
# crystal, experimental, refinement or atomic coordinate data resulting 
# from the CCDC's data processing and validation procedures.
#
#######################################################################

data_JUZDUF
_chemical_formula_moiety         'C38 H26'
_chemical_name_systematic        
9-(2-(2-(2-(9-Anthryl)vinyl)phenyl)vinyl)phenanthrene
_symmetry_cell_setting           orthorhombic
_symmetry_space_group_name_H-M   'P 21 21 21'
_symmetry_Int_Tables_number      19
_space_group_name_Hall           'P 2ac 2ab'
loop_
_symmetry_equiv_pos_site_id
_symmetry_equiv_pos_as_xyz
1 x,y,z
2 1/2-x,-y,1/2+z
3 1/2+x,1/2-y,-z
4 -x,1/2+y,1/2-z
_cell_length_a                   6.5390(2)
_cell_length_b                   13.4209(6)
_cell_length_c                   29.4803(14)
_cell_angle_alpha                90
_cell_angle_beta                 90
_cell_angle_gamma                90
_cell_volume                     2587.17
_exptl_crystal_colour            yellow
_exptl_crystal_description       needle
_chemical_melting_point          '507 K'
_cell_formula_units_Z            4
_chemical_properties_physical    Heat-sensitive
_exptl_crystal_recrystallization_method Sublimation
_exptl_crystal_preparation       Luminescent
loop_
_atom_site_label
_atom_site_type_symbol
_atom_site_fract_x
_atom_site_fract_y
_atom_site_fract_z
C1 C 0.5402(6) 0.9346(3) 0.13756(15)
C2 C 0.7121(7) 0.9961(3) 0.13529(15)
H1 H 0.7255 1.0402 0.1111
C3 C 0.1178(6) 0.6780(3) 0.21467(16)
C4 C -0.0290(6) 0.6763(3) 0.25113(16)
C5 C 0.0967(7) 0.6131(4) 0.17941(18)
H2 H 0.1973 0.6118 0.1571
C6 C 0.8440(7) 0.9278(3) 0.20378(17)
H3 H 0.9456 0.9248 0.2258
C7 C -0.2257(7) 0.5477(3) 0.20902(18)
C8 C 0.5206(6) 0.8685(3) 0.17440(15)
C9 C -0.2021(6) 0.6126(3) 0.24801(16)
C10 C 0.6753(6) 0.8667(3) 0.20710(15)
H4 H 0.6642 0.8234 0.2316
C11 C 0.8630(7) 0.9929(3) 0.16818(17)
H5 H 0.9763 1.0346 0.1662
C12 C 0.2881(8) 0.8972(4) -0.01480(16)
C13 C 0.2887(6) 0.7499(3) 0.21436(16)
H6 H 0.3594 0.7606 0.2413
C14 C 0.3469(6) 0.7997(3) 0.17804(15)
H7 H 0.2695 0.7903 0.1519
C15 C 0.4665(11) 0.7652(4) -0.0551(2)
H8 H 0.5772 0.7220 -0.0572
C16 C -0.3973(8) 0.4862(4) 0.2023(2)
H9 H -0.5024 0.4870 0.2235
C17 C 0.1332(8) 0.8955(4) -0.04928(17)
C18 C -0.3218(8) 0.6760(4) 0.32029(19)
H10 H -0.4189 0.6756 0.3433
C19 C -0.0728(7) 0.5474(3) 0.17533(18)
C20 C -0.3442(7) 0.6141(4) 0.28365(18)
H11 H -0.4568 0.5719 0.2824
C21 C -0.4133(10) 0.4253(4) 0.1654(2)
H12 H -0.5278 0.3848 0.1621
C22 C 0.3148(11) 0.7650(4) -0.0889(2)
H13 H 0.3256 0.7218 -0.1134
C23 C 0.2702(7) 0.9643(4) 0.02172(16)
C24 C -0.0102(7) 0.7401(4) 0.28885(17)
H14 H 0.1008 0.7832 0.2906
C25 C 0.4510(9) 0.8290(4) -0.01919(18)
H15 H 0.5513 0.8275 0.0032
C26 C 0.1558(10) 0.8267(5) -0.0858(2)
H16 H 0.0560 0.8248 -0.1083
C27 C -0.1529(8) 0.7398(4) 0.32306(19)
H17 H -0.1374 0.7817 0.3479
C28 C -0.2593(10) 0.4231(4) 0.1323(2)
H18 H -0.2704 0.3814 0.1072
C29 C -0.0280(9) 0.9615(5) -0.04650(19)
H19 H -0.1303 0.9585 -0.0684
C30 C -0.0433(8) 1.0317(4) -0.01244(18)
C31 C 0.1091(8) 1.0338(4) 0.02295(16)
C32 C -0.0628(10) 1.1772(5) 0.0557(2)
H20 H -0.0697 1.2261 0.0779
C33 C -0.0928(9) 0.4834(4) 0.1376(2)
H21 H 0.0100 0.4823 0.1158
C34 C -0.2132(10) 1.1733(5) 0.0214(2)
H22 H -0.3188 1.2197 0.0212
C35 C 0.0925(9) 1.1096(4) 0.05626(19)
H23 H 0.1902 1.1133 0.0791
C36 C -0.2053(10) 1.1033(5) -0.0109(2)
H24 H -0.3073 1.1012 -0.0329
C37 C 0.3840(7) 0.9415(3) 0.10148(15)
H25 H 0.2479 0.9333 0.1098
C38 C 0.4234(7) 0.9584(4) 0.05872(16)
H26 H 0.5597 0.9676 0.0508
loop_
_geom_bond_atom_site_label_1
_geom_bond_atom_site_label_2
_geom_bond_site_symmetry_1
_geom_bond_site_symmetry_2
C1 C2 1_555 1_555
C2 H1 1_555 1_555
C3 C4 1_555 1_555
C4 C9 1_555 1_555
C5 C3 1_555 1_555
H2 C5 1_555 1_555
C6 H3 1_555 1_555
C7 C9 1_555 1_555
C8 C1 1_555 1_555
C9 C20 1_555 1_555
C10 C6 1_555 1_555
H4 C10 1_555 1_555
C11 C2 1_555 1_555
H5 C11 1_555 1_555
C12 C17 1_555 1_555
C13 C3 1_555 1_555
H6 C13 1_555 1_555
C14 C8 1_555 1_555
H7 C14 1_555 1_555
C15 H8 1_555 1_555
C16 C7 1_555 1_555
H9 C16 1_555 1_555
C17 C26 1_555 1_555
C18 H10 1_555 1_555
C19 C5 1_555 1_555
C20 C18 1_555 1_555
H11 C20 1_555 1_555
C21 C16 1_555 1_555
H12 C21 1_555 1_555
C22 C15 1_555 1_555
H13 C22 1_555 1_555
C23 C12 1_555 1_555
C24 C4 1_555 1_555
H14 C24 1_555 1_555
C25 C12 1_555 1_555
H15 C25 1_555 1_555
C26 C22 1_555 1_555
H16 C26 1_555 1_555
C27 C18 1_555 1_555
H17 C27 1_555 1_555
C28 C21 1_555 1_555
H18 C28 1_555 1_555
C29 C17 1_555 1_555
H19 C29 1_555 1_555
C30 C29 1_555 1_555
C31 C23 1_555 1_555
C32 H20 1_555 1_555
C33 C19 1_555 1_555
H21 C33 1_555 1_555
C34 C32 1_555 1_555
H22 C34 1_555 1_555
C35 C31 1_555 1_555
H23 C35 1_555 1_555
C36 C30 1_555 1_555
H24 C36 1_555 1_555
C37 C1 1_555 1_555
H25 C37 1_555 1_555
C38 C23 1_555 1_555
H26 C38 1_555 1_555
C6 C11 1_555 1_555
C7 C19 1_555 1_555
C8 C10 1_555 1_555
C13 C14 1_555 1_555
C15 C25 1_555 1_555
C24 C27 1_555 1_555
C28 C33 1_555 1_555
C30 C31 1_555 1_555
C32 C35 1_555 1_555
C34 C36 1_555 1_555
C37 C38 1_555 1_555

#END
