
#######################################################################
#
#                 Cambridge Crystallographic Data Centre
#                                CCDC 
#
#######################################################################
#
# If this CIF has been generated from an entry in the Cambridge 
# Structural Database, then it will include bibliographic, chemical, 
# crystal, experimental, refinement or atomic coordinate data resulting 
# from the CCDC's data processing and validation procedures.
#
#######################################################################

data_JUZDEP
_chemical_formula_moiety         'C16 H18 Cl2 N2 2+,2(Cl1 O4 1-)'
_chemical_name_systematic        
'1-(3-Ammoniopropyl)-4-[(E)-2-(3,4-dichlorophenyl)vinyl]pyridinium diperchlorate'
_symmetry_cell_setting           monoclinic
_symmetry_space_group_name_H-M   'P 21/c'
_symmetry_Int_Tables_number      14
_space_group_name_Hall           '-P 2ybc'
loop_
_symmetry_equiv_pos_site_id
_symmetry_equiv_pos_as_xyz
1 x,y,z
2 -x,1/2+y,1/2-z
3 -x,-y,-z
4 x,1/2-y,1/2+z
_cell_length_a                   13.7468(13)
_cell_length_b                   15.9421(15)
_cell_length_c                   9.4227(9)
_cell_angle_alpha                90
_cell_angle_beta                 98.566(3)
_cell_angle_gamma                90
_cell_volume                     2041.98
_exptl_crystal_colour            colorless
_exptl_crystal_description       plate
_cell_formula_units_Z            4
_chemical_properties_physical    Light-sensitive
_exptl_crystal_recrystallization_method acetonitrile/benzene
loop_
_atom_site_label
_atom_site_type_symbol
_atom_site_fract_x
_atom_site_fract_y
_atom_site_fract_z
Cl1 Cl 0.55041(11) 0.15199(9) 0.68553(15)
O1 O 0.5150(5) 0.1530(6) 0.8225(8)
O2 O 0.5141(11) 0.0787(5) 0.6092(10)
O3 O 0.5085(9) 0.2230(4) 0.6040(8)
O4 O 0.6520(6) 0.1569(10) 0.7082(9)
O9 O 0.7750(6) 0.6425(4) 0.0286(9)
O10 O 0.7243(6) 0.7725(5) -0.0436(7)
Cl2 Cl 0.7712(5) 0.7107(2) -0.0743(5)
O11 O 0.7461(15) 0.6755(9) -0.2088(11)
O12 O 0.8777(8) 0.7235(10) -0.067(2)
Cl4 Cl 1.0724(11) 0.7641(6) 0.1306(16)
C1 C 0.6830(13) 0.3643(10) 0.6170(19)
H1 H 0.6629 0.3088 0.6349
C2 C 0.7505(10) 0.3787(9) 0.5233(15)
H2 H 0.7763 0.3334 0.4749
C3 C 0.7797(8) 0.4614(10) 0.5022(12)
C4 C 0.7412(10) 0.5254(8) 0.5745(13)
H3 H 0.7625 0.5812 0.5620
C5 C 0.672(3) 0.5108(10) 0.665(3)
H4 H 0.6452 0.5556 0.7125
C6 C 0.8513(7) 0.4740(6) 0.4029(11)
H5 H 0.8676 0.4267 0.3497
C7 C 0.8948(7) 0.5462(7) 0.3817(12)
H6 H 0.8766 0.5937 0.4325
C8 C 0.9692(8) 0.5588(11) 0.2856(11)
C9 C 0.9915(14) 0.6402(12) 0.255(2)
H7 H 0.9606 0.6843 0.2991
C10 C 1.0562(13) 0.6607(10) 0.163(2)
C11 C 1.1103(14) 0.6000(13) 0.106(2)
C12 C 1.0876(14) 0.5191(12) 0.138(2)
H8 H 1.1214 0.4748 0.0986
C13 C 1.0179(14) 0.4980(12) 0.226(2)
H9 H 1.0046 0.4407 0.2429
Cl5 Cl 1.20015(13) 0.61683(18) 0.0030(2)
N1 N 0.6456(3) 0.4311(3) 0.6830(5)
N2 N 0.3866(4) 0.3090(3) 0.8257(6)
H10 H 0.3386 0.3008 0.8812
H11 H 0.4458 0.2940 0.8758
H12 H 0.3738 0.2771 0.7450
C14 C 0.5715(4) 0.4076(4) 0.7750(6)
H13 H 0.5782 0.4446 0.8603
H14 H 0.5829 0.3491 0.8085
C15 C 0.4676(4) 0.4157(4) 0.6912(6)
H15 H 0.4587 0.4729 0.6504
H16 H 0.4596 0.3753 0.6105
C16 C 0.3892(4) 0.3992(4) 0.7851(6)
H17 H 0.4027 0.4338 0.8731
H18 H 0.3242 0.4158 0.7329
O5? O 0.637(3) 0.100(2) 0.693(4)
O6? O 0.560(3) 0.2161(18) 0.575(4)
O7? O 0.554(5) 0.191(3) 0.807(4)
O8? O 0.472(3) 0.100(4) 0.635(6)
Cl3? Cl 0.7917(6) 0.7111(2) -0.0557(6)
O13? O 0.7950(18) 0.6898(10) -0.1925(13)
O14? O 0.8844(8) 0.7472(10) 0.004(2)
Cl6? Cl 1.1110(10) 0.7486(6) 0.1862(14)
C17? C 0.6863(19) 0.3846(13) 0.589(2)
H19? H 0.6692 0.3270 0.5783
C18? C 0.7522(13) 0.4181(14) 0.5093(18)
H20? H 0.7793 0.3826 0.4442
C19? C 0.7809(12) 0.5015(13) 0.5191(19)
C20? C 0.7382(14) 0.5533(13) 0.613(2)
H21? H 0.7530 0.6113 0.6246
C21? C 0.673(3) 0.5127(11) 0.689(4)
H22? H 0.6430 0.5468 0.7532
C22? C 0.8525(13) 0.5384(11) 0.4379(18)
H23? H 0.8661 0.5967 0.4495
C23? C 0.8991(10) 0.4960(10) 0.3500(15)
H24? H 0.8829 0.4385 0.3343
C24? C 0.9765(13) 0.5330(12) 0.273(2)
C25? C 0.9999(16) 0.6180(13) 0.267(3)
H25? H 0.9653 0.6581 0.3145
C26? C 1.0744(14) 0.6443(9) 0.190(2)
C27? C 1.116(2) 0.5814(13) 0.114(3)
C28? C 1.0956(15) 0.4978(12) 0.122(2)
H26? H 1.1294 0.4568 0.0749
C29? C 1.0234(15) 0.4755(12) 0.203(2)
H27? H 1.0063 0.4181 0.2087
loop_
_geom_bond_atom_site_label_1
_geom_bond_atom_site_label_2
_geom_bond_site_symmetry_1
_geom_bond_site_symmetry_2
Cl1 O1 1_555 1_555
O2 Cl1 1_555 1_555
O3 Cl1 1_555 1_555
O4 Cl1 1_555 1_555
O9 Cl2 1_555 1_555
O10 Cl2 1_555 1_555
Cl2 O11 1_555 1_555
O12 Cl2 1_555 1_555
Cl4 C10 1_555 1_555
C1 H1 1_555 1_555
C2 C1 1_555 1_555
H2 C2 1_555 1_555
C3 C2 1_555 1_555
C4 C3 1_555 1_555
H3 C4 1_555 1_555
C5 C4 1_555 1_555
H4 C5 1_555 1_555
C6 C3 1_555 1_555
H5 C6 1_555 1_555
C7 C6 1_555 1_555
H6 C7 1_555 1_555
C8 C7 1_555 1_555
C9 C8 1_555 1_555
H7 C9 1_555 1_555
C10 C9 1_555 1_555
C11 C10 1_555 1_555
C12 C11 1_555 1_555
H8 C12 1_555 1_555
C13 C8 1_555 1_555
H9 C13 1_555 1_555
Cl5 C11 1_555 1_555
N1 C1 1_555 1_555
N2 H10 1_555 1_555
H11 N2 1_555 1_555
H12 N2 1_555 1_555
C14 N1 1_555 1_555
H13 C14 1_555 1_555
H14 C14 1_555 1_555
C15 C14 1_555 1_555
H15 C15 1_555 1_555
H16 C15 1_555 1_555
C16 N2 1_555 1_555
H17 C16 1_555 1_555
H18 C16 1_555 1_555
C5 N1 1_555 1_555
C12 C13 1_555 1_555
C15 C16 1_555 1_555

#END
