
#######################################################################
#
#                 Cambridge Crystallographic Data Centre
#                                CCDC 
#
#######################################################################
#
# If this CIF has been generated from an entry in the Cambridge 
# Structural Database, then it will include bibliographic, chemical, 
# crystal, experimental, refinement or atomic coordinate data resulting 
# from the CCDC's data processing and validation procedures.
#
#######################################################################

data_JUZFAN
_chemical_formula_moiety         'C38 H26'
_chemical_name_systematic        
9-(2-(3-(2-(9-Anthryl)vinyl)phenyl)vinyl)phenanthrene
_symmetry_cell_setting           orthorhombic
_symmetry_space_group_name_H-M   'P 21 21 21'
_symmetry_Int_Tables_number      19
_space_group_name_Hall           'P 2ac 2ab'
loop_
_symmetry_equiv_pos_site_id
_symmetry_equiv_pos_as_xyz
1 x,y,z
2 1/2-x,-y,1/2+z
3 1/2+x,1/2-y,-z
4 -x,1/2+y,1/2-z
_cell_length_a                   5.49845(16)
_cell_length_b                   19.2134(6)
_cell_length_c                   24.2912(7)
_cell_angle_alpha                90
_cell_angle_beta                 90
_cell_angle_gamma                90
_cell_volume                     2566.22
_cell_formula_units_Z            4
loop_
_atom_site_label
_atom_site_type_symbol
_atom_site_fract_x
_atom_site_fract_y
_atom_site_fract_z
C1 C 0.1126(5) 0.87208(14) 0.74137(10)
H1 H 0.0074 0.8991 0.7203
C2 C 0.0874(5) 0.80037(13) 0.74171(9)
C3 C -0.4447(5) 0.74800(13) 0.64651(9)
C4 C -0.6192(4) 0.78433(13) 0.61127(9)
C5 C 0.4282(5) 0.79265(12) 0.80573(9)
C6 C 0.5914(5) 0.75005(13) 0.83985(10)
H2 H 0.7398 0.7700 0.8492
C7 C 0.2919(6) 0.90355(14) 0.77190(11)
H3 H 0.3070 0.9518 0.7712
C8 C -0.7996(5) 0.74610(14) 0.58282(9)
C9 C 0.4510(6) 0.86444(13) 0.80370(10)
H4 H 0.5731 0.8864 0.8237
C10 C -0.4613(5) 0.67778(15) 0.64997(11)
H5 H -0.3496 0.6545 0.6721
C11 C -0.6388(5) 0.63749(14) 0.62190(11)
C12 C 0.6866(5) 0.64577(12) 0.95021(11)
C13 C -0.8095(5) 0.67111(15) 0.58806(10)
C14 C 0.2476(5) 0.76179(13) 0.77451(9)
H6 H 0.2320 0.7136 0.7753
C15 C 0.7160(5) 0.64542(12) 0.89243(11)
C16 C -0.0931(6) 0.76274(14) 0.70837(11)
H7 H -0.0820 0.7145 0.7095
C17 C -0.6157(5) 0.85676(15) 0.60560(11)
H8 H -0.4962 0.8822 0.6238
C18 C 0.8986(5) 0.60374(13) 0.86877(11)
C19 C 0.8498(5) 0.60668(12) 0.98418(11)
C20 C -0.9612(6) 0.85434(18) 0.54634(12)
H9 H -1.0764 0.8777 0.5252
C21 C 0.4984(5) 0.68389(14) 0.97665(12)
H10 H 0.3898 0.7095 0.9554
C22 C -0.9670(5) 0.78318(18) 0.55016(10)
H11 H -1.0847 0.7587 0.5306
C23 C 0.8159(6) 0.60929(15) 1.04266(12)
H12 H 0.9217 0.5847 1.0654
C24 C 1.0626(5) 0.56481(12) 0.90353(13)
C25 C 0.9264(6) 0.59701(16) 0.81073(13)
H13 H 0.8216 0.6209 0.7873
C26 C 1.0333(6) 0.56821(13) 0.96009(13)
H14 H 1.1405 0.5438 0.9826
C27 C 0.6353(6) 0.64634(16) 1.06545(13)
H15 H 0.6175 0.6471 1.1035
C28 C -0.9909(7) 0.5589(2) 0.56784(16)
H16 H -1.1082 0.5327 0.5496
C29 C -0.7830(6) 0.89135(17) 0.57410(11)
H17 H -0.7771 0.9396 0.5713
C30 C -0.9852(6) 0.62964(18) 0.56122(13)
H18 H -1.0996 0.6508 0.5385
C31 C 0.4735(6) 0.68381(15) 1.03239(12)
H19 H 0.3478 0.7089 1.0486
C32 C -0.6496(6) 0.56405(16) 0.62824(14)
H20 H -0.5376 0.5417 0.6508
C33 C 1.2702(7) 0.52014(17) 0.82443(18)
H21 H 1.3956 0.4936 0.8096
C34 C 1.2463(6) 0.52447(15) 0.87897(16)
H22 H 1.3541 0.5002 0.9014
C35 C 1.1075(8) 0.5554(2) 0.78866(16)
H23 H 1.1224 0.5506 0.7507
C36 C -0.8219(7) 0.52602(19) 0.60169(16)
H24 H -0.8269 0.4780 0.6061
C37 C 0.5523(5) 0.68858(15) 0.85816(12)
H25 H 0.4037 0.6687 0.8488
C38 C -0.2638(5) 0.78716(14) 0.67792(10)
H26 H -0.2736 0.8354 0.6756
loop_
_geom_bond_atom_site_label_1
_geom_bond_atom_site_label_2
_geom_bond_site_symmetry_1
_geom_bond_site_symmetry_2
C1 H1 1_555 1_555
C2 C1 1_555 1_555
C3 C4 1_555 1_555
C4 C8 1_555 1_555
C5 C6 1_555 1_555
C6 H2 1_555 1_555
C7 C1 1_555 1_555
H3 C7 1_555 1_555
C8 C13 1_555 1_555
C9 C5 1_555 1_555
H4 C9 1_555 1_555
C10 C3 1_555 1_555
H5 C10 1_555 1_555
C11 C10 1_555 1_555
C12 C15 1_555 1_555
C13 C11 1_555 1_555
C14 C2 1_555 1_555
H6 C14 1_555 1_555
C15 C18 1_555 1_555
C16 C2 1_555 1_555
H7 C16 1_555 1_555
C17 C4 1_555 1_555
H8 C17 1_555 1_555
C18 C24 1_555 1_555
C19 C12 1_555 1_555
C20 H9 1_555 1_555
C21 C12 1_555 1_555
H10 C21 1_555 1_555
C22 C8 1_555 1_555
H11 C22 1_555 1_555
C23 C19 1_555 1_555
H12 C23 1_555 1_555
C24 C26 1_555 1_555
C25 C18 1_555 1_555
H13 C25 1_555 1_555
C26 C19 1_555 1_555
H14 C26 1_555 1_555
C27 C23 1_555 1_555
H15 C27 1_555 1_555
C28 H16 1_555 1_555
C29 C17 1_555 1_555
H17 C29 1_555 1_555
C30 C13 1_555 1_555
H18 C30 1_555 1_555
C31 C21 1_555 1_555
H19 C31 1_555 1_555
C32 C11 1_555 1_555
H20 C32 1_555 1_555
C33 H21 1_555 1_555
C34 C24 1_555 1_555
H22 C34 1_555 1_555
C35 C25 1_555 1_555
H23 C35 1_555 1_555
C36 C28 1_555 1_555
H24 C36 1_555 1_555
C37 C6 1_555 1_555
H25 C37 1_555 1_555
C38 C3 1_555 1_555
H26 C38 1_555 1_555
C5 C14 1_555 1_555
C7 C9 1_555 1_555
C15 C37 1_555 1_555
C16 C38 1_555 1_555
C20 C22 1_555 1_555
C20 C29 1_555 1_555
C27 C31 1_555 1_555
C28 C30 1_555 1_555
C32 C36 1_555 1_555
C33 C34 1_555 1_555
C33 C35 1_555 1_555

#END
