
#######################################################################
#
#                 Cambridge Crystallographic Data Centre
#                                CCDC 
#
#######################################################################
#
# If this CIF has been generated from an entry in the Cambridge 
# Structural Database, then it will include bibliographic, chemical, 
# crystal, experimental, refinement or atomic coordinate data resulting 
# from the CCDC's data processing and validation procedures.
#
#######################################################################

data_JUZQOM
_chemical_formula_moiety         'C25 H23 N1 O5 S1'
_chemical_name_systematic        
'Ethyl 2-benzoyl-3-(2-phenylethyl)-2,3-dihydro-1,2-benzothiazole-3-carboxylate 1,1-dioxide'
_symmetry_cell_setting           orthorhombic
_symmetry_space_group_name_H-M   'P 21 21 21'
_symmetry_Int_Tables_number      19
_space_group_name_Hall           'P 2ac 2ab'
loop_
_symmetry_equiv_pos_site_id
_symmetry_equiv_pos_as_xyz
1 x,y,z
2 1/2-x,-y,1/2+z
3 -x,1/2+y,1/2-z
4 1/2+x,1/2-y,-z
_cell_length_a                   8.8035(2)
_cell_length_b                   14.9120(3)
_cell_length_c                   17.9438(5)
_cell_angle_alpha                90
_cell_angle_beta                 90
_cell_angle_gamma                90
_cell_volume                     2355.62
_exptl_crystal_colour            colorless
_exptl_crystal_description       block
_cell_formula_units_Z            4
loop_
_atom_site_label
_atom_site_type_symbol
_atom_site_fract_x
_atom_site_fract_y
_atom_site_fract_z
S1 S 0.04348(6) 0.71568(3) 0.87415(3)
O1 O 0.0439(2) 0.63266(10) 0.83527(10)
O2 O 0.47230(18) 0.74681(11) 0.86221(10)
O3 O -0.01537(18) 0.71524(11) 0.94813(9)
N1 N 0.21872(19) 0.76330(10) 0.87134(10)
O4 O 0.2975(2) 0.74783(11) 0.72805(9)
C1 C 0.3546(3) 0.71625(15) 0.88512(13)
O5 O 0.39458(19) 0.88691(12) 0.72420(9)
C2 C 0.2975(3) 0.92455(13) 0.86931(13)
H1 H 0.4019 0.9100 0.8815
H2 H 0.2991 0.9768 0.8372
C3 C 0.2289(2) 0.84605(13) 0.82578(12)
C4 C 0.3447(3) 0.63029(14) 0.92619(13)
C5 C 0.2702(3) 0.62160(15) 0.99405(13)
H3 H 0.2219 0.6707 1.0154
C6 C 0.3201(3) 0.83018(16) 0.75406(13)
C7 C 0.4196(3) 0.55679(16) 0.89603(14)
H4 H 0.4728 0.5628 0.8515
C8 C -0.0374(3) 0.80122(13) 0.82239(12)
C9 C 0.0667(2) 0.86504(14) 0.80169(12)
C10 C 0.2736(3) 1.03612(15) 0.97194(14)
C11 C 0.0188(3) 0.93813(16) 0.76015(14)
H5 H 0.0875 0.9820 0.7452
C12 C -0.1898(3) 0.80736(17) 0.80369(15)
H6 H -0.2588 0.7636 0.8184
C13 C 0.3389(4) 0.46708(18) 0.99743(17)
H7 H 0.3343 0.4115 1.0209
C14 C -0.2355(3) 0.8806(2) 0.76261(16)
H8 H -0.3370 0.8866 0.7491
C15 C 0.2274(3) 1.11683(17) 0.94157(17)
H9 H 0.1553 1.1169 0.9036
C16 C 0.2150(3) 0.94894(16) 0.94082(15)
H10 H 0.1070 0.9542 0.9309
H11 H 0.2293 0.9016 0.9773
C17 C 0.2685(3) 0.53979(17) 1.02946(15)
H12 H 0.2197 0.5337 1.0751
C18 C 0.3890(4) 0.7215(2) 0.66403(15)
H13 H 0.3433 0.7438 0.6185
H14 H 0.4903 0.7465 0.6683
C19 C 0.3804(3) 1.03899(19) 1.02794(16)
H15 H 0.4133 0.9860 1.0499
C20 C 0.4157(3) 0.47551(17) 0.93142(17)
H16 H 0.4649 0.4263 0.9108
C21 C -0.1323(3) 0.94457(19) 0.74147(16)
H17 H -0.1653 0.9936 0.7138
C22 C 0.2861(4) 1.19726(18) 0.9665(2)
H18 H 0.2527 1.2510 0.9459
C23 C 0.3930(4) 1.1976(2) 1.0212(2)
H19 H 0.4342 1.2516 1.0376
C24 C 0.4390(4) 1.1197(2) 1.05166(17)
H20 H 0.5115 1.1204 1.0893
C25 C 0.3966(5) 0.6263(2) 0.6622(2)
H21 H 0.4544 0.6076 0.6196
H22 H 0.2957 0.6021 0.6589
H23 H 0.4446 0.6049 0.7068
loop_
_geom_bond_atom_site_label_1
_geom_bond_atom_site_label_2
_geom_bond_site_symmetry_1
_geom_bond_site_symmetry_2
S1 O1 1_555 1_555
O2 C1 1_555 1_555
O3 S1 1_555 1_555
N1 S1 1_555 1_555
O4 C6 1_555 1_555
C1 N1 1_555 1_555
O5 C6 1_555 1_555
C2 H1 1_555 1_555
H2 C2 1_555 1_555
C3 N1 1_555 1_555
C4 C1 1_555 1_555
C5 C4 1_555 1_555
H3 C5 1_555 1_555
C6 C3 1_555 1_555
C7 C4 1_555 1_555
H4 C7 1_555 1_555
C8 S1 1_555 1_555
C9 C3 1_555 1_555
C10 C15 1_555 1_555
C11 C9 1_555 1_555
H5 C11 1_555 1_555
C12 C8 1_555 1_555
H6 C12 1_555 1_555
C13 H7 1_555 1_555
C14 C12 1_555 1_555
H8 C14 1_555 1_555
C15 H9 1_555 1_555
C16 C2 1_555 1_555
H10 C16 1_555 1_555
H11 C16 1_555 1_555
C17 C5 1_555 1_555
H12 C17 1_555 1_555
C18 O4 1_555 1_555
H13 C18 1_555 1_555
H14 C18 1_555 1_555
C19 C10 1_555 1_555
H15 C19 1_555 1_555
C20 C7 1_555 1_555
H16 C20 1_555 1_555
C21 C11 1_555 1_555
H17 C21 1_555 1_555
C22 C15 1_555 1_555
H18 C22 1_555 1_555
C23 C22 1_555 1_555
H19 C23 1_555 1_555
C24 C19 1_555 1_555
H20 C24 1_555 1_555
C25 C18 1_555 1_555
H21 C25 1_555 1_555
H22 C25 1_555 1_555
H23 C25 1_555 1_555
C2 C3 1_555 1_555
C8 C9 1_555 1_555
C10 C16 1_555 1_555
C13 C17 1_555 1_555
C13 C20 1_555 1_555
C14 C21 1_555 1_555
C23 C24 1_555 1_555

#END
