
#######################################################################
#
#                 Cambridge Crystallographic Data Centre
#                                CCDC 
#
#######################################################################
#
# If this CIF has been generated from an entry in the Cambridge 
# Structural Database, then it will include bibliographic, chemical, 
# crystal, experimental, refinement or atomic coordinate data resulting 
# from the CCDC's data processing and validation procedures.
#
#######################################################################

data_KABDAU
_chemical_formula_moiety         'C6 H10 N3 O3 1+,Cl1 O4 1-'
_chemical_name_systematic        
'1-(2-Hydroxyethyl)-2-methyl-5-nitro-1H-imidazol-3-ium perchlorate'
_symmetry_cell_setting           monoclinic
_symmetry_space_group_name_H-M   'P 21/c'
_symmetry_Int_Tables_number      14
_space_group_name_Hall           '-P 2ybc'
loop_
_symmetry_equiv_pos_site_id
_symmetry_equiv_pos_as_xyz
1 x,y,z
2 -x,1/2+y,1/2-z
3 -x,-y,-z
4 x,1/2-y,1/2+z
_cell_length_a                   7.8541(13)
_cell_length_b                   10.6791(17)
_cell_length_c                   13.032(2)
_cell_angle_alpha                90
_cell_angle_beta                 93.904(2)
_cell_angle_gamma                90
_cell_volume                     1090.52
_exptl_crystal_colour            colorless
_exptl_crystal_description       prism
_cell_formula_units_Z            4
loop_
_atom_site_label
_atom_site_type_symbol
_atom_site_fract_x
_atom_site_fract_y
_atom_site_fract_z
O1 O 0.7469(2) 0.70762(17) 0.58597(12)
H1 H 0.8599 0.7118 0.5945
O2 O 0.4144(3) 0.4116(2) 0.66132(15)
O3 O 0.2449(3) 0.4469(2) 0.78337(19)
N1 N 0.6726(2) 0.55501(15) 0.76908(12)
N2 N 0.6393(3) 0.64689(18) 0.91461(14)
H2 H 0.6580 0.6952 0.9643
N3 N 0.3813(3) 0.45742(19) 0.74353(16)
C1 C 0.7048(3) 0.5773(2) 0.58035(16)
H3 H 0.7611 0.5397 0.5240
H4 H 0.5827 0.5686 0.5656
C2 C 0.7567(3) 0.5070(2) 0.67880(16)
H5 H 0.7283 0.4191 0.6694
H6 H 0.8794 0.5131 0.6922
C3 C 0.7495(3) 0.6272(2) 0.84260(15)
C4 C 0.4896(3) 0.5882(2) 0.88970(17)
H7 H 0.3928 0.5879 0.9270
C5 C 0.5098(3) 0.53022(19) 0.79949(16)
C6 C 0.9254(3) 0.6762(3) 0.8466(2)
H8 H 0.9791 0.6507 0.7860
H9 H 0.9887 0.6439 0.9065
H10 H 0.9228 0.7660 0.8500
Cl1 Cl 1.22616(7) 0.74741(5) 0.59693(4)
O4 O 1.3343(4) 0.7477(2) 0.6879(2)
O5 O 1.1033(4) 0.6500(3) 0.5984(3)
O6 O 1.3237(5) 0.7180(3) 0.5116(2)
O7 O 1.1515(5) 0.8663(3) 0.5795(2)
loop_
_geom_bond_atom_site_label_1
_geom_bond_atom_site_label_2
_geom_bond_site_symmetry_1
_geom_bond_site_symmetry_2
O1 H1 1_555 1_555
O2 N3 1_555 1_555
O3 N3 1_555 1_555
N1 C2 1_555 1_555
N2 H2 1_555 1_555
N3 C5 1_555 1_555
C1 O1 1_555 1_555
H3 C1 1_555 1_555
H4 C1 1_555 1_555
C2 C1 1_555 1_555
H5 C2 1_555 1_555
H6 C2 1_555 1_555
C3 N1 1_555 1_555
C4 N2 1_555 1_555
H7 C4 1_555 1_555
C5 N1 1_555 1_555
C6 C3 1_555 1_555
H8 C6 1_555 1_555
H9 C6 1_555 1_555
H10 C6 1_555 1_555
Cl1 O4 1_555 1_555
O5 Cl1 1_555 1_555
O6 Cl1 1_555 1_555
O7 Cl1 1_555 1_555
N2 C3 1_555 1_555
C4 C5 1_555 1_555

#END
