
#######################################################################
#
#                 Cambridge Crystallographic Data Centre
#                                CCDC 
#
#######################################################################
#
# If this CIF has been generated from an entry in the Cambridge 
# Structural Database, then it will include bibliographic, chemical, 
# crystal, experimental, refinement or atomic coordinate data resulting 
# from the CCDC's data processing and validation procedures.
#
#######################################################################

data_KABFIE
_chemical_name_common            
'(3-((4-((1-(Carboxymethyl)pyridinium-3-yl)methoxy)phenoxy)methyl)pyridinium-1-yl)acetate bromide hydrate'
_chemical_formula_moiety         'C22 H21 N2 O6 1+,2(H2 O1),Br1 1-'
_chemical_name_systematic        
"1-Carboxymethyl-1'-carboxylatomethyl-3,3'-[p-phenylenebis(oxymethylene)]dipyridinium bromide dihydrate"
_symmetry_cell_setting           monoclinic
_symmetry_space_group_name_H-M   'C 2/c'
_symmetry_Int_Tables_number      15
_space_group_name_Hall           '-C 2yn'
loop_
_symmetry_equiv_pos_site_id
_symmetry_equiv_pos_as_xyz
1 x,y,z
2 -x,y,1/2-z
3 1/2+x,1/2+y,z
4 1/2-x,1/2+y,1/2-z
5 -x,-y,-z
6 x,-y,1/2+z
7 1/2-x,1/2-y,-z
8 1/2+x,1/2-y,1/2+z
_cell_length_a                   20.605(4)
_cell_length_b                   7.9612(12)
_cell_length_c                   15.233(4)
_cell_angle_alpha                90
_cell_angle_beta                 113.845(16)
_cell_angle_gamma                90
_cell_volume                     2285.54
_exptl_crystal_colour            'light yellow'
_exptl_crystal_description       block
_cell_formula_units_Z            4
loop_
_atom_site_label
_atom_site_type_symbol
_atom_site_fract_x
_atom_site_fract_y
_atom_site_fract_z
Br1 Br 0.0000 0.04115(8) 0.2500
O1 O -0.20052(13) 1.2950(4) -0.42592(16)
O2 O -0.26011(13) 1.2308(4) -0.33644(16)
O3 O -0.05771(12) 0.8158(3) -0.05634(16)
N1 N -0.14157(13) 1.2645(3) -0.16985(17)
C1 C -0.20678(19) 1.2737(4) -0.3465(2)
C2 C -0.13832(18) 1.3130(5) -0.2610(2)
H2 H -0.1288 1.4324 -0.2600
H3 H -0.0995 1.2538 -0.2679
C3 C -0.17237(18) 1.3677(5) -0.1291(2)
H4 H -0.1902 1.4708 -0.1572
C4 C -0.17744(18) 1.3203(5) -0.0454(3)
H5 H -0.1982 1.3922 -0.0161
C5 C -0.15208(18) 1.1677(5) -0.0053(2)
H6 H -0.1561 1.1351 0.0509
C6 C -0.12032(16) 1.0615(4) -0.0482(2)
C7 C -0.11602(16) 1.1142(4) -0.1314(2)
H7 H -0.0951 1.0448 -0.1617
C8 C -0.09107(19) 0.8968(4) -0.0026(2)
H8 H -0.1291 0.8268 -0.0008
H9 H -0.0569 0.9145 0.0628
C9 C -0.02970(17) 0.6583(4) -0.0252(2)
C10 C -0.02951(18) 0.5794(4) 0.0558(2)
H10 H -0.0492 0.6325 0.0937
C11 C 0.00005(18) 0.5785(4) -0.0802(2)
H11 H 0.0003 0.6316 -0.1344
O1D O 0.20052(13) -0.2950(4) 0.42592(16)
O2D O 0.26011(13) -0.2308(4) 0.33644(16)
O3D O 0.05771(12) 0.1842(3) 0.05634(16)
N1D N 0.14157(13) -0.2645(3) 0.16985(17)
C1D C 0.20678(19) -0.2737(4) 0.3465(2)
C2D C 0.13832(18) -0.3130(5) 0.2610(2)
H2D H 0.1288 -0.4324 0.2600
H3D H 0.0995 -0.2538 0.2679
C3D C 0.17237(18) -0.3677(5) 0.1291(2)
H4D H 0.1902 -0.4708 0.1572
C4D C 0.17744(18) -0.3203(5) 0.0454(3)
H5D H 0.1982 -0.3922 0.0161
C5D C 0.15208(18) -0.1677(5) 0.0053(2)
H6D H 0.1561 -0.1351 -0.0509
C6D C 0.12032(16) -0.0615(4) 0.0482(2)
C7D C 0.11602(16) -0.1142(4) 0.1314(2)
H7D H 0.0951 -0.0448 0.1617
C8D C 0.09107(19) 0.1032(4) 0.0026(2)
H8D H 0.1291 0.1732 0.0008
H9D H 0.0569 0.0855 -0.0628
C9D C 0.02970(17) 0.3417(4) 0.0252(2)
C10D C 0.02951(18) 0.4206(4) -0.0558(2)
H10D H 0.0492 0.3675 -0.0937
C11D C -0.00005(18) 0.4215(4) 0.0802(2)
H11D H -0.0003 0.3684 0.1344
O4 O 0.15569(16) 0.2619(4) 0.28766(19)
H12 H 0.1174 0.2082 0.2578
H13 H 0.1662 0.2720 0.2395
H1? H -0.2364 1.2608 -0.4703
loop_
_geom_bond_atom_site_label_1
_geom_bond_atom_site_label_2
_geom_bond_site_symmetry_1
_geom_bond_site_symmetry_2
O1 C1 1_555 1_555
O2 C1 1_555 1_555
O3 C8 1_555 1_555
N1 C2 1_555 1_555
C1 C2 1_555 1_555
C2 H2 1_555 1_555
H3 C2 1_555 1_555
C3 N1 1_555 1_555
H4 C3 1_555 1_555
C4 C3 1_555 1_555
H5 C4 1_555 1_555
C5 C4 1_555 1_555
H6 C5 1_555 1_555
C6 C5 1_555 1_555
C7 N1 1_555 1_555
H7 C7 1_555 1_555
C8 C6 1_555 1_555
H8 C8 1_555 1_555
H9 C8 1_555 1_555
C9 O3 1_555 1_555
C10 C9 1_555 1_555
H10 C10 1_555 1_555
C11 C9 1_555 1_555
H11 C11 1_555 1_555
O4 H12 1_555 1_555
H13 O4 1_555 1_555
O1D C1D 1_555 1_555
O2D C1D 1_555 1_555
O3D C8D 1_555 1_555
N1D C2D 1_555 1_555
C1D C2D 1_555 1_555
C2D H2D 1_555 1_555
H3D C2D 1_555 1_555
C3D N1D 1_555 1_555
H4D C3D 1_555 1_555
C4D C3D 1_555 1_555
H5D C4D 1_555 1_555
C5D C4D 1_555 1_555
H6D C5D 1_555 1_555
C6D C5D 1_555 1_555
C7D N1D 1_555 1_555
H7D C7D 1_555 1_555
C8D C6D 1_555 1_555
H8D C8D 1_555 1_555
H9D C8D 1_555 1_555
C9D O3D 1_555 1_555
C10D C11 1_555 1_555
H10D C10D 1_555 1_555
C11D C10 1_555 1_555
H11D C11D 1_555 1_555
C6 C7 1_555 1_555
C6D C7D 1_555 1_555
C9D C10D 1_555 1_555
C9D C11D 1_555 1_555

#END
