
#######################################################################
#
#                 Cambridge Crystallographic Data Centre
#                                CCDC 
#
#######################################################################
#
# If this CIF has been generated from an entry in the Cambridge 
# Structural Database, then it will include bibliographic, chemical, 
# crystal, experimental, refinement or atomic coordinate data resulting 
# from the CCDC's data processing and validation procedures.
#
#######################################################################

data_KABGOM
_chemical_formula_moiety         'C21 H20 N2 O2'
_chemical_name_systematic        
2-(4-Ethyl-5-phenyl-1-vinyl-1H-pyrrol-2-yl)-5,5-dimethyl-4-oxo-4,5-dihydrofuran-3-carbonitrile
_symmetry_cell_setting           monoclinic
_symmetry_space_group_name_H-M   'P 21/n'
_symmetry_Int_Tables_number      14
_space_group_name_Hall           '-P 2yn'
loop_
_symmetry_equiv_pos_site_id
_symmetry_equiv_pos_as_xyz
1 x,y,z
2 1/2-x,1/2+y,1/2-z
3 -x,-y,-z
4 1/2+x,1/2-y,1/2+z
_cell_length_a                   11.2449(7)
_cell_length_b                   11.6294(7)
_cell_length_c                   13.4932(8)
_cell_angle_alpha                90
_cell_angle_beta                 92.534(2)
_cell_angle_gamma                90
_cell_volume                     1762.8
_exptl_crystal_colour            yellow
_exptl_crystal_description       prism
_chemical_melting_point          '417.15 K'
_cell_formula_units_Z            4
_exptl_crystal_recrystallization_method acetone
loop_
_atom_site_label
_atom_site_type_symbol
_atom_site_fract_x
_atom_site_fract_y
_atom_site_fract_z
O1 O 0.03585(7) 0.27317(7) 0.78320(6)
O2 O 0.13871(8) 0.08162(7) 0.97206(6)
N1 N 0.02791(8) 0.51742(8) 0.75225(7)
C1 C -0.13574(12) 0.48424(12) 0.63555(11)
H1 H -0.1799 0.5392 0.6679
H2 H -0.1689 0.4460 0.5805
C2 C -0.08292(11) 0.10974(10) 0.82758(9)
H3 H -0.1265 0.1630 0.8665
H4 H -0.0812 0.0359 0.8594
H5 H -0.1210 0.1030 0.7628
C3 C 0.04331(10) 0.15301(9) 0.81825(8)
C4 C 0.08149(9) 0.34368(9) 0.85384(8)
C5 C 0.07677(10) 0.46463(9) 0.83740(8)
C6 C 0.03187(9) 0.63463(9) 0.76636(8)
C7 C -0.01038(10) 0.71851(9) 0.69045(8)
C8 C 0.04510(10) 0.72901(11) 0.60042(9)
H6 H 0.1083 0.6809 0.5865
C9 C 0.00619(11) 0.81107(11) 0.53155(9)
H7 H 0.0435 0.8178 0.4717
C10 C -0.08819(11) 0.88299(11) 0.55174(9)
H8 H -0.1137 0.9381 0.5056
C11 C 0.12753(10) 0.28472(9) 0.93617(8)
C12 C 0.10944(10) 0.16304(9) 0.91937(8)
C13 C 0.18365(10) 0.33067(10) 1.02349(8)
N2 N 0.23016(10) 0.36406(9) 1.09547(8)
C14 C -0.02674(11) 0.46058(10) 0.66760(8)
H9 H 0.0164 0.4054 0.6345
C15 C 0.08361(10) 0.65765(9) 0.86008(8)
C16 C 0.11131(10) 0.55144(10) 0.90383(8)
H10 H 0.1468 0.5405 0.9667
C17 C 0.11048(11) 0.77420(10) 0.90341(9)
H11 H 0.1083 0.7695 0.9751
H12 H 0.0488 0.8274 0.8805
C18 C 0.23091(11) 0.82152(10) 0.87616(11)
H13 H 0.2927 0.7701 0.8997
H14 H 0.2430 0.8957 0.9062
H15 H 0.2330 0.8287 0.8054
C19 C -0.10558(11) 0.79082(10) 0.71008(9)
H16 H -0.1432 0.7843 0.7698
C20 C -0.14440(11) 0.87267(10) 0.64059(9)
H17 H -0.2081 0.9204 0.6539
C21 C 0.11303(12) 0.08364(10) 0.74548(9)
H18 H 0.0745 0.0884 0.6807
H19 H 0.1165 0.0048 0.7664
H20 H 0.1923 0.1138 0.7433
loop_
_geom_bond_atom_site_label_1
_geom_bond_atom_site_label_2
_geom_bond_site_symmetry_1
_geom_bond_site_symmetry_2
O1 C3 1_555 1_555
O2 C12 1_555 1_555
N1 C5 1_555 1_555
C1 H1 1_555 1_555
H2 C1 1_555 1_555
C2 H3 1_555 1_555
H4 C2 1_555 1_555
H5 C2 1_555 1_555
C3 C2 1_555 1_555
C4 O1 1_555 1_555
C5 C4 1_555 1_555
C6 N1 1_555 1_555
C7 C6 1_555 1_555
C8 C7 1_555 1_555
H6 C8 1_555 1_555
C9 C8 1_555 1_555
H7 C9 1_555 1_555
C10 C9 1_555 1_555
H8 C10 1_555 1_555
C11 C4 1_555 1_555
C12 C3 1_555 1_555
C13 C11 1_555 1_555
N2 C13 1_555 1_555
C14 N1 1_555 1_555
H9 C14 1_555 1_555
C15 C6 1_555 1_555
C16 C5 1_555 1_555
H10 C16 1_555 1_555
C17 C15 1_555 1_555
H11 C17 1_555 1_555
H12 C17 1_555 1_555
C18 C17 1_555 1_555
H13 C18 1_555 1_555
H14 C18 1_555 1_555
H15 C18 1_555 1_555
C19 C7 1_555 1_555
H16 C19 1_555 1_555
C20 C10 1_555 1_555
H17 C20 1_555 1_555
C21 C3 1_555 1_555
H18 C21 1_555 1_555
H19 C21 1_555 1_555
H20 C21 1_555 1_555
C1 C14 1_555 1_555
C11 C12 1_555 1_555
C15 C16 1_555 1_555
C19 C20 1_555 1_555

#END
