
#######################################################################
#
#                 Cambridge Crystallographic Data Centre
#                                CCDC 
#
#######################################################################
#
# If this CIF has been generated from an entry in the Cambridge 
# Structural Database, then it will include bibliographic, chemical, 
# crystal, experimental, refinement or atomic coordinate data resulting 
# from the CCDC's data processing and validation procedures.
#
#######################################################################

data_KABGEB
_chemical_formula_moiety         'C20 H24 F1 N1 O3 S1'
_chemical_name_systematic        
'[(3R,4S)-4-(4-Fluorophenyl)-1-methylpiperidin-3-yl]methyl 4-methylbenzenesulfonate'
_symmetry_cell_setting           monoclinic
_symmetry_space_group_name_H-M   'P 21'
_symmetry_Int_Tables_number      4
_space_group_name_Hall           'P 2yb'
loop_
_symmetry_equiv_pos_site_id
_symmetry_equiv_pos_as_xyz
1 x,y,z
2 -x,1/2+y,-z
_cell_length_a                   9.1590(4)
_cell_length_b                   10.0764(5)
_cell_length_c                   10.7644(6)
_cell_angle_alpha                90
_cell_angle_beta                 95.7180(10)
_cell_angle_gamma                90
_cell_volume                     988.501
_exptl_crystal_colour            yellow
_exptl_crystal_description       chunk
_chemical_melting_point          '380 K'
_cell_formula_units_Z            2
loop_
_atom_site_label
_atom_site_type_symbol
_atom_site_fract_x
_atom_site_fract_y
_atom_site_fract_z
S1 S 0.34071(5) 0.65560(6) 0.19254(4)
O1 O 0.37947(12) 0.66249(15) 0.33871(9)
C1 C 0.51158(17) 0.6533(2) 0.13267(13)
O2 O 0.2721(2) 0.52973(18) 0.17277(14)
C2 C 0.4586(2) 0.77398(17) 0.53214(15)
H1 H 0.4844 0.8619 0.5665
O3 O 0.26443(18) 0.77282(18) 0.15090(14)
N1 N 0.3547(2) 0.71908(16) 0.72847(16)
C3 C 0.5921(2) 0.68346(16) 0.56744(16)
H2 H 0.5703 0.5965 0.5292
C4 C 0.7277(2) 0.73680(18) 0.51511(18)
C5 C 0.6116(2) 0.6639(3) 0.70958(16)
H3 H 0.6855 0.5963 0.7303
H4 H 0.6463 0.7460 0.7492
C6 C 0.4245(2) 0.79152(17) 0.39340(16)
H5 H 0.3462 0.8558 0.3764
H6 H 0.5105 0.8238 0.3571
C7 C 0.5673(2) 0.7700(2) 0.08678(18)
H7 H 0.5152 0.8491 0.0888
C8 C 0.3242(2) 0.7278(2) 0.59338(18)
H8 H 0.2441 0.7895 0.5729
H9 H 0.2937 0.6414 0.5604
C9 C 0.4712(3) 0.62325(19) 0.75996(19)
H10 H 0.4409 0.5373 0.7260
H11 H 0.4878 0.6148 0.8500
C10 C 0.7843(2) 0.6761(3) 0.41456(18)
H12 H 0.7424 0.5975 0.3828
C11 C 0.5895(3) 0.5365(2) 0.12864(18)
H13 H 0.5529 0.4583 0.1595
C12 C 0.9024(3) 0.7304(3) 0.3602(2)
H14 H 0.9399 0.6887 0.2931
C13 C 0.7790(2) 0.6507(4) 0.03166(18)
C14 C 0.7223(3) 0.5368(3) 0.0783(2)
H15 H 0.7748 0.4580 0.0759
C15 C 0.9241(3) 0.6477(6) -0.0255(3)
H16 H 0.9107 0.6047 -0.1054
H17 H 0.9953 0.5998 0.0285
H18 H 0.9579 0.7369 -0.0357
F1 F 1.07463(15) 0.9031(2) 0.35259(18)
C16 C 0.2204(3) 0.6809(4) 0.7843(2)
H19 H 0.1910 0.5934 0.7567
H20 H 0.1435 0.7428 0.7590
H21 H 0.2392 0.6815 0.8737
C17 C 0.7948(2) 0.8534(2) 0.5606(2)
H22 H 0.7603 0.8954 0.6288
C18 C 0.9617(2) 0.8460(3) 0.4074(3)
C19 C 0.7006(3) 0.7662(3) 0.0384(2)
H23 H 0.7389 0.8444 0.0092
C20 C 0.9115(3) 0.9079(3) 0.5067(3)
H24 H 0.9551 0.9859 0.5379
loop_
_geom_bond_atom_site_label_1
_geom_bond_atom_site_label_2
_geom_bond_site_symmetry_1
_geom_bond_site_symmetry_2
S1 O1 1_555 1_555
O1 C6 1_555 1_555
C1 S1 1_555 1_555
O2 S1 1_555 1_555
C2 H1 1_555 1_555
O3 S1 1_555 1_555
N1 C8 1_555 1_555
C3 C2 1_555 1_555
H2 C3 1_555 1_555
C4 C3 1_555 1_555
C5 C3 1_555 1_555
H3 C5 1_555 1_555
H4 C5 1_555 1_555
C6 C2 1_555 1_555
H5 C6 1_555 1_555
H6 C6 1_555 1_555
C7 C1 1_555 1_555
H7 C7 1_555 1_555
C8 C2 1_555 1_555
H8 C8 1_555 1_555
H9 C8 1_555 1_555
C9 N1 1_555 1_555
H10 C9 1_555 1_555
H11 C9 1_555 1_555
C10 C4 1_555 1_555
H12 C10 1_555 1_555
C11 C1 1_555 1_555
H13 C11 1_555 1_555
C12 C10 1_555 1_555
H14 C12 1_555 1_555
C13 C14 1_555 1_555
C14 C11 1_555 1_555
H15 C14 1_555 1_555
C15 C13 1_555 1_555
H16 C15 1_555 1_555
H17 C15 1_555 1_555
H18 C15 1_555 1_555
F1 C18 1_555 1_555
C16 N1 1_555 1_555
H19 C16 1_555 1_555
H20 C16 1_555 1_555
H21 C16 1_555 1_555
C17 C4 1_555 1_555
H22 C17 1_555 1_555
C18 C12 1_555 1_555
C19 C7 1_555 1_555
H23 C19 1_555 1_555
C20 C17 1_555 1_555
H24 C20 1_555 1_555
C5 C9 1_555 1_555
C13 C19 1_555 1_555
C18 C20 1_555 1_555

#END
