
#######################################################################
#
#                 Cambridge Crystallographic Data Centre
#                                CCDC 
#
#######################################################################
#
# If this CIF has been generated from an entry in the Cambridge 
# Structural Database, then it will include bibliographic, chemical, 
# crystal, experimental, refinement or atomic coordinate data resulting 
# from the CCDC's data processing and validation procedures.
#
#######################################################################

data_KABHIG
_chemical_formula_moiety         'C16 H14 Cl2 N2 O3,H2 O1'
_chemical_name_systematic        
"N'-[(E)-1-(3,5-Dichloro-2-hydroxyphenyl)ethylidene]-4-methoxybenzohydrazide monohydrate"
_symmetry_cell_setting           triclinic
_symmetry_space_group_name_H-M   'P -1'
_symmetry_Int_Tables_number      2
_space_group_name_Hall           '-P 1'
loop_
_symmetry_equiv_pos_site_id
_symmetry_equiv_pos_as_xyz
1 x,y,z
2 -x,-y,-z
_cell_length_a                   7.033(5)
_cell_length_b                   7.516(7)
_cell_length_c                   16.647(10)
_cell_angle_alpha                85.105(10)
_cell_angle_beta                 81.386(12)
_cell_angle_gamma                79.414(10)
_cell_volume                     853.713
_exptl_crystal_colour            yellow
_exptl_crystal_description       plate
_cell_formula_units_Z            2
loop_
_atom_site_label
_atom_site_type_symbol
_atom_site_fract_x
_atom_site_fract_y
_atom_site_fract_z
Cl1 Cl 1.0655(2) -0.37144(18) 0.19059(9)
Cl2 Cl 0.8926(3) 0.3075(2) 0.05875(8)
O1 O 0.9149(5) -0.2090(4) 0.34325(19)
H1 H 0.8675 -0.1599 0.3856
O2 O 0.7613(6) -0.2102(4) 0.5397(2)
O3 O 0.5111(6) 0.0452(6) 0.8985(2)
N1 N 0.7805(5) 0.0497(5) 0.4303(2)
N2 N 0.7259(5) 0.0879(5) 0.5112(2)
H2 H 0.6983 0.1973 0.5264
C1 C 0.8427(6) 0.1022(6) 0.2902(3)
C2 C 0.9122(6) -0.0844(6) 0.2809(3)
C3 C 0.9789(7) -0.1428(6) 0.2023(3)
C4 C 0.9757(7) -0.0251(7) 0.1341(3)
H3 H 1.0221 -0.0668 0.0826
C5 C 0.9020(7) 0.1566(7) 0.1441(3)
C6 C 0.8384(7) 0.2200(6) 0.2203(3)
H4 H 0.7918 0.3432 0.2255
C7 C 0.7781(6) 0.1720(6) 0.3720(3)
C8 C 0.7186(6) -0.0562(6) 0.5645(3)
C9 C 0.6577(6) -0.0211(6) 0.6511(3)
C10 C 0.5662(7) 0.1480(7) 0.6775(3)
H5 H 0.5393 0.2442 0.6396
C11 C 0.5141(7) 0.1750(7) 0.7606(3)
H6 H 0.4542 0.2887 0.7780
C12 C 0.5526(7) 0.0310(7) 0.8165(3)
C13 C 0.6383(7) -0.1378(7) 0.7914(3)
H7 H 0.6614 -0.2346 0.8294
C14 C 0.6904(7) -0.1634(7) 0.7088(3)
H8 H 0.7484 -0.2780 0.6919
C15 C 0.4310(10) 0.2206(10) 0.9292(4)
H9 H 0.5202 0.3029 0.9109
H10 H 0.4107 0.2103 0.9876
H11 H 0.3086 0.2657 0.9095
C16 C 0.7148(6) 0.3729(4) 0.3805(3)
H12 H 0.6850 0.3969 0.4371
H13 H 0.6008 0.4148 0.3542
H14 H 0.8183 0.4351 0.3555
O4 O 0.7853(6) 0.4252(4) 0.5716(3)
H15 H 0.7839 0.5382 0.5611
H16 H 0.8905 0.3884 0.5919
loop_
_geom_bond_atom_site_label_1
_geom_bond_atom_site_label_2
_geom_bond_site_symmetry_1
_geom_bond_site_symmetry_2
Cl1 C3 1_555 1_555
Cl2 C5 1_555 1_555
O1 H1 1_555 1_555
O2 C8 1_555 1_555
O3 C12 1_555 1_555
O4 H15 1_555 1_555
N1 N2 1_555 1_555
N2 H2 1_555 1_555
C1 C2 1_555 1_555
C2 O1 1_555 1_555
C3 C2 1_555 1_555
C4 C3 1_555 1_555
H3 C4 1_555 1_555
C5 C4 1_555 1_555
C6 C1 1_555 1_555
H4 C6 1_555 1_555
C7 N1 1_555 1_555
C8 N2 1_555 1_555
C9 C8 1_555 1_555
C10 C9 1_555 1_555
H5 C10 1_555 1_555
C11 C10 1_555 1_555
H6 C11 1_555 1_555
C12 C11 1_555 1_555
C13 C12 1_555 1_555
H7 C13 1_555 1_555
C14 C9 1_555 1_555
H8 C14 1_555 1_555
C15 O3 1_555 1_555
H9 C15 1_555 1_555
H10 C15 1_555 1_555
H11 C15 1_555 1_555
C16 C7 1_555 1_555
H12 C16 1_555 1_555
H13 C16 1_555 1_555
H14 C16 1_555 1_555
H16 O4 1_555 1_555
C1 C7 1_555 1_555
C5 C6 1_555 1_555
C13 C14 1_555 1_555

#END
