
#######################################################################
#
#                 Cambridge Crystallographic Data Centre
#                                CCDC 
#
#######################################################################
#
# If this CIF has been generated from an entry in the Cambridge 
# Structural Database, then it will include bibliographic, chemical, 
# crystal, experimental, refinement or atomic coordinate data resulting 
# from the CCDC's data processing and validation procedures.
#
#######################################################################

data_KABJUV
_chemical_formula_moiety         'C19 H18 Cl2 N2 O3 S1'
_chemical_name_systematic        
N-(1-(2,6-Dichlorobenzyl)-2-oxo-1,2-dihydro-3H-indol-3-ylidene)-2-methylpropane-2-sulfonamide
_symmetry_cell_setting           monoclinic
_symmetry_space_group_name_H-M   'P 21/c'
_symmetry_Int_Tables_number      14
_space_group_name_Hall           '-P 2ybc'
loop_
_symmetry_equiv_pos_site_id
_symmetry_equiv_pos_as_xyz
1 x,y,z
2 -x,1/2+y,1/2-z
3 -x,-y,-z
4 x,1/2-y,1/2+z
_cell_length_a                   15.0536(5)
_cell_length_b                   11.1765(4)
_cell_length_c                   11.8469(4)
_cell_angle_alpha                90
_cell_angle_beta                 107.0650(10)
_cell_angle_gamma                90
_cell_volume                     1905.44
_exptl_crystal_colour            red
_exptl_crystal_description       block
_cell_formula_units_Z            4
loop_
_atom_site_label
_atom_site_type_symbol
_atom_site_fract_x
_atom_site_fract_y
_atom_site_fract_z
Cl1 Cl 0.28379(3) 0.95519(3) 0.44081(3)
Cl2 Cl 0.61505(3) 0.73897(4) 0.47936(4)
S1 S 0.12528(2) 0.40778(3) 0.30956(3)
O1 O 0.40733(8) 0.58324(10) 0.38823(10)
O2 O 0.05809(8) 0.50282(10) 0.28371(10)
O3 O 0.12193(9) 0.32312(10) 0.39955(10)
N1 N 0.35821(9) 0.69447(11) 0.52243(11)
N2 N 0.23189(9) 0.46744(11) 0.34297(11)
C1 C 0.22164(10) 0.59619(12) 0.51737(12)
C2 C 0.25928(11) 0.54237(12) 0.42907(13)
C3 C 0.28288(11) 0.68894(13) 0.57043(12)
C4 C 0.44764(10) 0.84834(13) 0.45224(12)
C5 C 0.14440(11) 0.57195(14) 0.55570(13)
H1 H 0.1032 0.5087 0.5213
C6 C 0.38106(11) 0.93153(13) 0.39342(13)
C7 C 0.43704(11) 0.77768(14) 0.55627(13)
H2 H 0.4948 0.7320 0.5919
H3 H 0.4281 0.8338 0.6167
C8 C 0.38858(12) 0.99783(14) 0.29763(14)
H4 H 0.3413 1.0530 0.2595
C9 C 0.53499(12) 0.90285(14) 0.31542(15)
H5 H 0.5887 0.8935 0.2897
C10 C 0.12167(11) 0.32965(13) 0.17510(13)
C11 C 0.12846(11) 0.64132(15) 0.64459(13)
H6 H 0.0767 0.6248 0.6726
C12 C 0.26669(13) 0.76052(14) 0.65756(14)
H7 H 0.3074 0.8243 0.6918
C13 C 0.52524(11) 0.83675(14) 0.41069(14)
C14 C 0.18827(13) 0.73532(14) 0.69309(14)
H8 H 0.1752 0.7837 0.7522
C15 C 0.46575(12) 0.98243(14) 0.25846(14)
H9 H 0.4713 1.0265 0.1923
C16 C 0.19740(13) 0.23464(15) 0.20343(17)
H10 H 0.1861 0.1779 0.2607
H11 H 0.1969 0.1920 0.1310
H12 H 0.2580 0.2729 0.2369
C17 C 0.02514(13) 0.27320(17) 0.13250(16)
H13 H 0.0178 0.2151 0.1911
H14 H -0.0222 0.3358 0.1220
H15 H 0.0179 0.2325 0.0571
C18 C 0.13580(14) 0.42069(15) 0.08614(14)
H16 H 0.1981 0.4555 0.1155
H17 H 0.1293 0.3809 0.0104
H18 H 0.0891 0.4842 0.0754
C19 C 0.35219(10) 0.60527(12) 0.44178(13)
loop_
_geom_bond_atom_site_label_1
_geom_bond_atom_site_label_2
_geom_bond_site_symmetry_1
_geom_bond_site_symmetry_2
Cl1 C6 1_555 1_555
Cl2 C13 1_555 1_555
S1 O2 1_555 1_555
O1 C19 1_555 1_555
O3 S1 1_555 1_555
N1 C3 1_555 1_555
N2 S1 1_555 1_555
C1 C2 1_555 1_555
C2 N2 1_555 1_555
C3 C1 1_555 1_555
C4 C6 1_555 1_555
C5 C1 1_555 1_555
H1 C5 1_555 1_555
C6 C8 1_555 1_555
C7 N1 1_555 1_555
H2 C7 1_555 1_555
H3 C7 1_555 1_555
C8 H4 1_555 1_555
C9 H5 1_555 1_555
C10 S1 1_555 1_555
C11 C5 1_555 1_555
H6 C11 1_555 1_555
C12 C3 1_555 1_555
H7 C12 1_555 1_555
C13 C4 1_555 1_555
C14 C11 1_555 1_555
H8 C14 1_555 1_555
C15 C8 1_555 1_555
H9 C15 1_555 1_555
C16 C10 1_555 1_555
H10 C16 1_555 1_555
H11 C16 1_555 1_555
H12 C16 1_555 1_555
C17 C10 1_555 1_555
H13 C17 1_555 1_555
H14 C17 1_555 1_555
H15 C17 1_555 1_555
C18 C10 1_555 1_555
H16 C18 1_555 1_555
H17 C18 1_555 1_555
H18 C18 1_555 1_555
C19 N1 1_555 1_555
C2 C19 1_555 1_555
C4 C7 1_555 1_555
C9 C13 1_555 1_555
C9 C15 1_555 1_555
C12 C14 1_555 1_555

#END
