
#######################################################################
#
#                 Cambridge Crystallographic Data Centre
#                                CCDC 
#
#######################################################################
#
# If this CIF has been generated from an entry in the Cambridge 
# Structural Database, then it will include bibliographic, chemical, 
# crystal, experimental, refinement or atomic coordinate data resulting 
# from the CCDC's data processing and validation procedures.
#
#######################################################################

data_KABLOO
_chemical_formula_moiety         'C14 H12 O3 S1'
_chemical_name_systematic        
1,4-Di-m-benza-2-oxa-5-thiahexaphane-5,5-dioxide
_symmetry_cell_setting           monoclinic
_symmetry_space_group_name_H-M   'P 21/c'
_symmetry_Int_Tables_number      14
_space_group_name_Hall           '-P 2ybc'
loop_
_symmetry_equiv_pos_site_id
_symmetry_equiv_pos_as_xyz
1 x,y,z
2 -x,1/2+y,1/2-z
3 -x,-y,-z
4 x,1/2-y,1/2+z
_cell_length_a                   8.344(2)
_cell_length_b                   5.405(1)
_cell_length_c                   25.887(4)
_cell_angle_alpha                90
_cell_angle_beta                 91.96(2)
_cell_angle_gamma                90
_cell_volume                     1166.8
_exptl_crystal_colour            colorless
_cell_formula_units_Z            4
loop_
_atom_site_label
_atom_site_type_symbol
_atom_site_fract_x
_atom_site_fract_y
_atom_site_fract_z
O1 O 0.3178(2) 0.0203(3) 0.2713(1)
C1 C 0.1819(2) 0.0054(4) 0.3011(1)
C2 C 0.0781(3) -0.1911(4) 0.2947(1)
C3 C -0.0405(3) -0.2235(4) 0.3303(1)
C4 C -0.0477(2) -0.0734(4) 0.3733(1)
C5 C 0.0564(2) 0.1256(4) 0.3793(1)
C6 C 0.1634(2) 0.1742(4) 0.3405(1)
C7 C 0.0793(2) 0.2575(4) 0.4305(1)
S1 S 0.2334(1) 0.1029(1) 0.4700(1)
C8 C 0.4025(2) 0.1195(4) 0.4307(1)
C9 C 0.5011(3) 0.3252(4) 0.4328(1)
C10 C 0.6055(3) 0.3659(5) 0.3933(1)
C11 C 0.5989(2) 0.2166(4) 0.3499(1)
C12 C 0.4972(2) 0.0126(4) 0.3471(1)
C13 C 0.4071(2) -0.0437(4) 0.3897(1)
C14 C 0.4544(3) -0.1078(4) 0.2964(1)
O2 O 0.2609(2) 0.2481(3) 0.5159(1)
O3 O 0.1880(2) -0.1517(3) 0.4750(1)
H1 H 0.0873 -0.3029 0.2662
H2 H -0.1187 -0.3521 0.3249
H3 H -0.1246 -0.1070 0.3992
H4 H 0.2244 0.3248 0.3412
H5 H 0.1110 0.4255 0.4245
H6 H -0.0199 0.2557 0.4482
H7 H 0.4966 0.4390 0.4612
H8 H 0.6827 0.4974 0.3960
H9 H 0.6653 0.2542 0.3214
H10 H 0.3474 -0.1954 0.3904
H11 H 0.4264 -0.2777 0.3021
H12 H 0.5447 -0.0998 0.2744
loop_
_geom_bond_atom_site_label_1
_geom_bond_atom_site_label_2
_geom_bond_site_symmetry_1
_geom_bond_site_symmetry_2
O1 C1 1_555 1_555
C1 C2 1_555 1_555
C2 C3 1_555 1_555
C3 C4 1_555 1_555
C4 C5 1_555 1_555
C5 C6 1_555 1_555
C6 C1 1_555 1_555
C7 C5 1_555 1_555
S1 C7 1_555 1_555
C8 S1 1_555 1_555
C9 C8 1_555 1_555
C10 C9 1_555 1_555
C11 C10 1_555 1_555
C12 C11 1_555 1_555
C13 C8 1_555 1_555
C14 O1 1_555 1_555
O2 S1 1_555 1_555
O3 S1 1_555 1_555
H1 C2 1_555 1_555
H2 C3 1_555 1_555
H3 C4 1_555 1_555
H4 C6 1_555 1_555
H5 C7 1_555 1_555
H6 C7 1_555 1_555
H7 C9 1_555 1_555
H8 C10 1_555 1_555
H9 C11 1_555 1_555
H10 C13 1_555 1_555
H11 C14 1_555 1_555
H12 C14 1_555 1_555
C12 C13 1_555 1_555
C12 C14 1_555 1_555

#END
