
#######################################################################
#
#                 Cambridge Crystallographic Data Centre
#                                CCDC 
#
#######################################################################
#
# If this CIF has been generated from an entry in the Cambridge 
# Structural Database, then it will include bibliographic, chemical, 
# crystal, experimental, refinement or atomic coordinate data resulting 
# from the CCDC's data processing and validation procedures.
#
#######################################################################

data_KABSAK
_chemical_formula_moiety         'C82 H52,2(C6 H4 Cl2)'
_chemical_name_systematic        
"6,12-bis(10-(1,1':3',1''-Terphenyl-5'-yl)-9-anthryl)chrysene 1,2-dichlorobenzene solvate"
_symmetry_cell_setting           monoclinic
_symmetry_space_group_name_H-M   'P 21/c'
_symmetry_Int_Tables_number      14
_space_group_name_Hall           '-P 2ybc'
loop_
_symmetry_equiv_pos_site_id
_symmetry_equiv_pos_as_xyz
1 x,y,z
2 -x,1/2+y,1/2-z
3 -x,-y,-z
4 x,1/2-y,1/2+z
_cell_length_a                   9.6963(13)
_cell_length_b                   32.629(4)
_cell_length_c                   11.4490(16)
_cell_angle_alpha                90
_cell_angle_beta                 113.025(2)
_cell_angle_gamma                90
_cell_volume                     3333.67
_exptl_crystal_colour            colorless
_exptl_crystal_description       block
_cell_formula_units_Z            2
loop_
_atom_site_label
_atom_site_type_symbol
_atom_site_fract_x
_atom_site_fract_y
_atom_site_fract_z
C1 C 0.0589(3) 0.01355(8) 0.0323(3)
C2 C 0.1086(3) 0.04077(8) -0.0406(3)
H1 H 0.1885 0.0591 0.0029
C3 C 0.0468(3) 0.04173(8) -0.1694(3)
C4 C -0.0736(3) 0.01412(8) -0.2386(3)
C5 C -0.1264(3) -0.01348(8) -0.1692(3)
C6 C -0.2443(3) -0.04030(8) -0.2399(3)
H2 H -0.2815 -0.0592 -0.1962
C7 C -0.3060(3) -0.03969(9) -0.3697(3)
H3 H -0.3858 -0.0578 -0.4143
C8 C -0.2528(3) -0.01260(8) -0.4378(3)
H4 H -0.2955 -0.0125 -0.5280
C9 C -0.1384(3) 0.01381(8) -0.3724(3)
H5 H -0.1021 0.0322 -0.4181
C10 C 0.1051(3) 0.07136(8) -0.2380(2)
C11 C 0.2459(3) 0.06465(8) -0.2443(2)
C12 C 0.3319(3) 0.02855(8) -0.1919(3)
H6 H 0.2944 0.0088 -0.1506
C13 C 0.4655(3) 0.02206(8) -0.2002(3)
H7 H 0.5213 -0.0019 -0.1639
C14 C 0.5232(3) 0.05075(8) -0.2626(3)
H8 H 0.6170 0.0458 -0.2682
C15 C 0.4445(3) 0.08530(8) -0.3144(3)
H9 H 0.4843 0.1042 -0.3562
C16 C 0.3036(3) 0.09387(8) -0.3074(3)
C17 C 0.2199(3) 0.12920(8) -0.3622(2)
C18 C 0.0796(3) 0.13582(8) -0.3564(2)
C19 C -0.0083(3) 0.17148(8) -0.4104(3)
H10 H 0.0302 0.1916 -0.4494
C20 C -0.1454(3) 0.17713(8) -0.4070(3)
H11 H -0.2021 0.2009 -0.4443
C21 C -0.2042(3) 0.14773(8) -0.3481(3)
H12 H -0.3008 0.1517 -0.3470
C22 C -0.1234(3) 0.11387(8) -0.2930(3)
H13 H -0.1638 0.0947 -0.2525
C23 C 0.0212(3) 0.10647(8) -0.2948(2)
C24 C 0.2771(3) 0.15845(8) -0.4334(3)
C25 C 0.3932(3) 0.18553(8) -0.3699(3)
H14 H 0.4333 0.1866 -0.2798
C26 C 0.4519(3) 0.21128(8) -0.4372(3)
C27 C 0.3898(3) 0.20886(8) -0.5696(3)
H15 H 0.4317 0.2251 -0.6162
C28 C 0.2683(3) 0.18347(8) -0.6361(3)
C29 C 0.2144(3) 0.15809(8) -0.5655(3)
H16 H 0.1330 0.1402 -0.6085
C30 C 0.5769(3) 0.24013(8) -0.3702(3)
C31 C 0.6746(3) 0.23359(8) -0.2445(3)
H17 H 0.6585 0.2109 -0.1992
C32 C 0.7948(3) 0.25959(9) -0.1847(3)
H18 H 0.8589 0.2549 -0.0986
C33 C 0.8215(3) 0.29199(9) -0.2487(3)
H19 H 0.9052 0.3094 -0.2077
C34 C 0.7260(3) 0.29939(9) -0.3738(3)
H20 H 0.7445 0.3218 -0.4187
C35 C 0.6039(3) 0.27411(8) -0.4328(3)
H21 H 0.5371 0.2799 -0.5174
C36 C 0.1999(3) 0.18332(8) -0.7768(3)
C37 C 0.2173(3) 0.21654(9) -0.8462(3)
H22 H 0.2729 0.2397 -0.8024
C38 C 0.1559(3) 0.21653(9) -0.9771(3)
H23 H 0.1701 0.2395 -1.0221
C39 C 0.0739(3) 0.18332(9) -1.0433(3)
H24 H 0.0328 0.1831 -1.1334
C40 C 0.0526(3) 0.15031(8) -0.9763(3)
H25 H -0.0053 0.1275 -1.0208
C41 C 0.1150(3) 0.15022(8) -0.8451(3)
H26 H 0.0998 0.1272 -0.8006
C1B C -0.0589(3) -0.01355(8) -0.0323(3)
C2B C -0.1086(3) -0.04077(8) 0.0406(3)
H1B H -0.1885 -0.0591 -0.0029
C3B C -0.0468(3) -0.04173(8) 0.1694(3)
C4B C 0.0736(3) -0.01412(8) 0.2386(3)
C5B C 0.1264(3) 0.01348(8) 0.1692(3)
C6B C 0.2443(3) 0.04030(8) 0.2399(3)
H2B H 0.2815 0.0592 0.1962
C7B C 0.3060(3) 0.03969(9) 0.3697(3)
H3B H 0.3858 0.0578 0.4143
C8B C 0.2528(3) 0.01260(8) 0.4378(3)
H4B H 0.2955 0.0125 0.5280
C9B C 0.1384(3) -0.01381(8) 0.3724(3)
H5B H 0.1021 -0.0322 0.4181
C10B C -0.1051(3) -0.07136(8) 0.2380(2)
C11B C -0.2459(3) -0.06465(8) 0.2443(2)
C12B C -0.3319(3) -0.02855(8) 0.1919(3)
H6B H -0.2944 -0.0088 0.1506
C13B C -0.4655(3) -0.02206(8) 0.2002(3)
H7B H -0.5213 0.0019 0.1639
C14B C -0.5232(3) -0.05075(8) 0.2626(3)
H8B H -0.6170 -0.0458 0.2682
C15B C -0.4445(3) -0.08530(8) 0.3144(3)
H9B H -0.4843 -0.1042 0.3562
C16B C -0.3036(3) -0.09387(8) 0.3074(3)
C17B C -0.2199(3) -0.12920(8) 0.3622(2)
C18B C -0.0796(3) -0.13582(8) 0.3564(2)
C19B C 0.0083(3) -0.17148(8) 0.4104(3)
H10B H -0.0302 -0.1916 0.4494
C20B C 0.1454(3) -0.17713(8) 0.4070(3)
H11B H 0.2021 -0.2009 0.4443
C21B C 0.2042(3) -0.14773(8) 0.3481(3)
H12B H 0.3008 -0.1517 0.3470
C22B C 0.1234(3) -0.11387(8) 0.2930(3)
H13B H 0.1638 -0.0947 0.2525
C23B C -0.0212(3) -0.10647(8) 0.2948(2)
C24B C -0.2771(3) -0.15845(8) 0.4334(3)
C25B C -0.3932(3) -0.18553(8) 0.3699(3)
H14B H -0.4333 -0.1866 0.2798
C26B C -0.4519(3) -0.21128(8) 0.4372(3)
C27B C -0.3898(3) -0.20886(8) 0.5696(3)
H15B H -0.4317 -0.2251 0.6162
C28B C -0.2683(3) -0.18347(8) 0.6361(3)
C29B C -0.2144(3) -0.15809(8) 0.5655(3)
H16B H -0.1330 -0.1402 0.6085
C30B C -0.5769(3) -0.24013(8) 0.3702(3)
C31B C -0.6746(3) -0.23359(8) 0.2445(3)
H17B H -0.6585 -0.2109 0.1992
C32B C -0.7948(3) -0.25959(9) 0.1847(3)
H18B H -0.8589 -0.2549 0.0986
C33B C -0.8215(3) -0.29199(9) 0.2487(3)
H19B H -0.9052 -0.3094 0.2077
C34B C -0.7260(3) -0.29939(9) 0.3738(3)
H20B H -0.7445 -0.3218 0.4187
C35B C -0.6039(3) -0.27411(8) 0.4328(3)
H21B H -0.5371 -0.2799 0.5174
C36B C -0.1999(3) -0.18332(8) 0.7768(3)
C37B C -0.2173(3) -0.21654(9) 0.8462(3)
H22B H -0.2729 -0.2397 0.8024
C38B C -0.1559(3) -0.21653(9) 0.9771(3)
H23B H -0.1701 -0.2395 1.0221
C39B C -0.0739(3) -0.18332(9) 1.0433(3)
H24B H -0.0328 -0.1831 1.1334
C40B C -0.0526(3) -0.15031(8) 0.9763(3)
H25B H 0.0053 -0.1275 1.0208
C41B C -0.1150(3) -0.15022(8) 0.8451(3)
H26B H -0.0998 -0.1272 0.8006
C42 C 0.6845(3) 0.08905(8) 0.1284(3)
C43 C 0.7433(3) 0.08976(8) 0.2602(3)
C44 C 0.6593(3) 0.10633(9) 0.3224(3)
H27 H 0.6981 0.1066 0.4125
C45 C 0.5199(3) 0.12234(10) 0.2539(3)
H28 H 0.4636 0.1341 0.2971
C46 C 0.4603(3) 0.12152(9) 0.1219(3)
H29 H 0.3634 0.1324 0.0751
C47 C 0.5432(3) 0.10471(9) 0.0599(3)
H30 H 0.5032 0.1039 -0.0303
Cl1 Cl 0.78830(8) 0.06871(2) 0.04896(7)
Cl2 Cl 0.91929(8) 0.07008(2) 0.34732(7)
loop_
_geom_bond_atom_site_label_1
_geom_bond_atom_site_label_2
_geom_bond_site_symmetry_1
_geom_bond_site_symmetry_2
C1 C2 1_555 1_555
C2 H1 1_555 1_555
C3 C2 1_555 1_555
C4 C3 1_555 1_555
C5 C4 1_555 1_555
C6 C5 1_555 1_555
H2 C6 1_555 1_555
C7 C6 1_555 1_555
H3 C7 1_555 1_555
C8 C7 1_555 1_555
H4 C8 1_555 1_555
C9 C4 1_555 1_555
H5 C9 1_555 1_555
C10 C3 1_555 1_555
C11 C10 1_555 1_555
C12 C11 1_555 1_555
H6 C12 1_555 1_555
C13 C12 1_555 1_555
H7 C13 1_555 1_555
C14 C13 1_555 1_555
H8 C14 1_555 1_555
C15 C14 1_555 1_555
H9 C15 1_555 1_555
C16 C11 1_555 1_555
C17 C16 1_555 1_555
C18 C17 1_555 1_555
C19 C18 1_555 1_555
H10 C19 1_555 1_555
C20 C19 1_555 1_555
H11 C20 1_555 1_555
C21 C20 1_555 1_555
H12 C21 1_555 1_555
C22 C21 1_555 1_555
H13 C22 1_555 1_555
C23 C10 1_555 1_555
C24 C17 1_555 1_555
C25 C24 1_555 1_555
H14 C25 1_555 1_555
C26 C25 1_555 1_555
C27 C26 1_555 1_555
H15 C27 1_555 1_555
C28 C27 1_555 1_555
C29 C24 1_555 1_555
H16 C29 1_555 1_555
C30 C26 1_555 1_555
C31 C30 1_555 1_555
H17 C31 1_555 1_555
C32 C31 1_555 1_555
H18 C32 1_555 1_555
C33 C32 1_555 1_555
H19 C33 1_555 1_555
C34 C33 1_555 1_555
H20 C34 1_555 1_555
C35 C30 1_555 1_555
H21 C35 1_555 1_555
C36 C28 1_555 1_555
C37 C36 1_555 1_555
H22 C37 1_555 1_555
C38 C37 1_555 1_555
H23 C38 1_555 1_555
C39 C38 1_555 1_555
H24 C39 1_555 1_555
C40 C39 1_555 1_555
H25 C40 1_555 1_555
C41 C36 1_555 1_555
H26 C41 1_555 1_555
C42 C43 1_555 1_555
C43 C44 1_555 1_555
C44 H27 1_555 1_555
C45 C44 1_555 1_555
H28 C45 1_555 1_555
C46 C45 1_555 1_555
H29 C46 1_555 1_555
C47 C42 1_555 1_555
H30 C47 1_555 1_555
Cl1 C42 1_555 1_555
Cl2 C43 1_555 1_555
C1B C1 1_555 1_555
C2B C1B 1_555 1_555
H1B C2B 1_555 1_555
C3B C2B 1_555 1_555
C4B C3B 1_555 1_555
C5B C1 1_555 1_555
C6B C5B 1_555 1_555
H2B C6B 1_555 1_555
C7B C6B 1_555 1_555
H3B C7B 1_555 1_555
C8B C7B 1_555 1_555
H4B C8B 1_555 1_555
C9B C4B 1_555 1_555
H5B C9B 1_555 1_555
C10B C3B 1_555 1_555
C11B C10B 1_555 1_555
C12B C11B 1_555 1_555
H6B C12B 1_555 1_555
C13B C12B 1_555 1_555
H7B C13B 1_555 1_555
C14B C13B 1_555 1_555
H8B C14B 1_555 1_555
C15B C14B 1_555 1_555
H9B C15B 1_555 1_555
C16B C11B 1_555 1_555
C17B C16B 1_555 1_555
C18B C17B 1_555 1_555
C19B C18B 1_555 1_555
H10B C19B 1_555 1_555
C20B C19B 1_555 1_555
H11B C20B 1_555 1_555
C21B C20B 1_555 1_555
H12B C21B 1_555 1_555
C22B C21B 1_555 1_555
H13B C22B 1_555 1_555
C23B C10B 1_555 1_555
C24B C17B 1_555 1_555
C25B C24B 1_555 1_555
H14B C25B 1_555 1_555
C26B C25B 1_555 1_555
C27B C26B 1_555 1_555
H15B C27B 1_555 1_555
C28B C27B 1_555 1_555
C29B C24B 1_555 1_555
H16B C29B 1_555 1_555
C30B C26B 1_555 1_555
C31B C30B 1_555 1_555
H17B C31B 1_555 1_555
C32B C31B 1_555 1_555
H18B C32B 1_555 1_555
C33B C32B 1_555 1_555
H19B C33B 1_555 1_555
C34B C33B 1_555 1_555
H20B C34B 1_555 1_555
C35B C30B 1_555 1_555
H21B C35B 1_555 1_555
C36B C28B 1_555 1_555
C37B C36B 1_555 1_555
H22B C37B 1_555 1_555
C38B C37B 1_555 1_555
H23B C38B 1_555 1_555
C39B C38B 1_555 1_555
H24B C39B 1_555 1_555
C40B C39B 1_555 1_555
H25B C40B 1_555 1_555
C41B C36B 1_555 1_555
H26B C41B 1_555 1_555
C5 C1B 1_555 1_555
C8 C9 1_555 1_555
C15 C16 1_555 1_555
C18 C23 1_555 1_555
C22 C23 1_555 1_555
C28 C29 1_555 1_555
C34 C35 1_555 1_555
C40 C41 1_555 1_555
C46 C47 1_555 1_555
C4B C5B 1_555 1_555
C8B C9B 1_555 1_555
C15B C16B 1_555 1_555
C18B C23B 1_555 1_555
C22B C23B 1_555 1_555
C28B C29B 1_555 1_555
C34B C35B 1_555 1_555
C40B C41B 1_555 1_555

#END
