
#######################################################################
#
#                 Cambridge Crystallographic Data Centre
#                                CCDC 
#
#######################################################################
#
# If this CIF has been generated from an entry in the Cambridge 
# Structural Database, then it will include bibliographic, chemical, 
# crystal, experimental, refinement or atomic coordinate data resulting 
# from the CCDC's data processing and validation procedures.
#
#######################################################################

data_KABYET
_chemical_formula_moiety         'C76 Cl34'
_chemical_name_systematic        tetratriacontachloroC76fullerene
_symmetry_cell_setting           monoclinic
_symmetry_space_group_name_H-M   'P 21/n'
_symmetry_Int_Tables_number      14
_space_group_name_Hall           '-P 2yn'
loop_
_symmetry_equiv_pos_site_id
_symmetry_equiv_pos_as_xyz
1 x,y,z
2 1/2-x,1/2+y,1/2-z
3 -x,-y,-z
4 1/2+x,1/2-y,1/2+z
_cell_length_a                   13.821(7)
_cell_length_b                   19.569(9)
_cell_length_c                   25.085(12)
_cell_angle_alpha                90
_cell_angle_beta                 91.879(11)
_cell_angle_gamma                90
_cell_volume                     6780.92
_cell_formula_units_Z            4
loop_
_atom_site_label
_atom_site_type_symbol
_atom_site_fract_x
_atom_site_fract_y
_atom_site_fract_z
C1 C 0.0698(8) 0.0730(5) 0.0645(4)
C2 C 0.0832(8) 0.0753(5) 0.0107(4)
C3 C 0.0040(7) 0.0909(5) -0.0258(4)
C4 C -0.0900(8) 0.1041(5) -0.0055(4)
C5 C -0.1039(8) 0.0970(5) 0.0458(4)
C6 C -0.0237(8) 0.0806(6) 0.0806(5)
C7 C -0.0455(8) 0.0969(6) 0.1357(4)
C8 C 0.0291(8) 0.1097(6) 0.1694(5)
C9 C 0.1254(8) 0.1039(6) 0.1544(4)
C10 C 0.1496(7) 0.0864(5) 0.1026(4)
C11 C 0.2429(7) 0.1000(6) 0.0823(5)
C12 C 0.2546(8) 0.0960(6) 0.0299(5)
C13 C 0.1785(8) 0.0827(5) -0.0052(4)
C14 C 0.1980(7) 0.1023(6) -0.0572(5)
C15 C 0.1239(8) 0.1195(6) -0.0922(4)
C16 C 0.0275(8) 0.1125(6) -0.0776(5)
C17 C -0.0405(8) 0.1428(6) -0.1168(5)
C18 C -0.1326(7) 0.1693(6) -0.0926(4)
C19 C -0.1735(8) 0.1345(6) -0.0404(5)
C20 C -0.2237(8) 0.1930(6) -0.0101(4)
C21 C -0.2071(8) 0.1970(6) 0.0526(4)
C22 C -0.1850(7) 0.1271(6) 0.0776(5)
C23 C -0.1432(8) 0.1317(6) 0.1366(5)
C24 C -0.1204(8) 0.1992(6) 0.1581(5)
C25 C -0.0472(8) 0.2120(6) 0.1943(5)
C26 C 0.0222(9) 0.1570(6) 0.2148(4)
C27 C 0.1266(8) 0.1821(6) 0.2279(4)
C28 C 0.1928(8) 0.1282(5) 0.1972(5)
C29 C 0.2882(8) 0.1564(6) 0.1740(4)
C30 C 0.3261(8) 0.1235(6) 0.1199(4)
C31 C 0.3819(8) 0.1872(6) 0.0907(5)
C32 C 0.3591(7) 0.1949(7) 0.0303(5)
C33 C 0.3381(8) 0.1292(6) 0.0015(5)
C34 C 0.2968(8) 0.1367(6) -0.0588(4)
C35 C 0.2751(9) 0.2096(6) -0.0756(5)
C36 C 0.2047(9) 0.2247(6) -0.1088(5)
C37 C 0.1359(8) 0.1708(6) -0.1350(4)
C38 C 0.0288(10) 0.1991(6) -0.1461(5)
C39 C 0.0199(9) 0.2678(6) -0.1211(4)
C40 C -0.0535(9) 0.2852(6) -0.0925(4)
C41 C -0.1221(8) 0.2417(6) -0.0712(5)
C42 C -0.1776(8) 0.2558(6) -0.0328(4)
C43 C -0.1962(8) 0.3269(5) -0.0135(5)
C44 C -0.1937(8) 0.3270(6) 0.0512(4)
C45 C -0.1968(8) 0.2571(6) 0.0777(5)
C46 C -0.1752(8) 0.2618(6) 0.1384(5)
C47 C -0.1038(8) 0.3208(6) 0.1608(5)
C48 C -0.0406(9) 0.2859(7) 0.2054(5)
C49 C 0.0659(8) 0.3124(6) 0.2151(5)
C50 C 0.1364(10) 0.2528(6) 0.2062(5)
C51 C 0.2123(9) 0.2744(6) 0.1791(5)
C52 C 0.2807(9) 0.2297(6) 0.1559(5)
C53 C 0.3361(8) 0.2486(5) 0.1168(5)
C54 C 0.3541(8) 0.3179(6) 0.1012(5)
C55 C 0.3540(8) 0.3258(6) 0.0379(5)
C56 C 0.3549(8) 0.2571(7) 0.0084(5)
C57 C 0.3309(8) 0.2668(6) -0.0540(5)
C58 C 0.2651(9) 0.3294(6) -0.0731(5)
C59 C 0.1976(10) 0.2989(7) -0.1196(5)
C60 C 0.0925(9) 0.3257(7) -0.1277(5)
C61 C 0.0529(9) 0.3769(6) -0.0814(5)
C62 C -0.0569(8) 0.3598(6) -0.0804(5)
C63 C -0.1103(8) 0.3761(6) -0.0278(5)
C64 C -0.0449(8) 0.3657(6) 0.0192(4)
C65 C -0.0939(9) 0.3482(6) 0.0641(4)
C66 C -0.0448(8) 0.3426(5) 0.1152(5)
C67 C 0.0510(8) 0.3575(6) 0.1181(4)
C68 C 0.1040(8) 0.3661(6) 0.1731(5)
C69 C 0.2181(9) 0.3486(6) 0.1698(4)
C70 C 0.2657(9) 0.3680(6) 0.1192(5)
C71 C 0.2045(8) 0.3636(5) 0.0708(5)
C72 C 0.2521(8) 0.3483(5) 0.0250(5)
C73 C 0.2039(8) 0.3473(6) -0.0257(4)
C74 C 0.1076(9) 0.3636(6) -0.0294(4)
C75 C 0.0565(8) 0.3678(6) 0.0190(5)
C76 C 0.1041(8) 0.3663(5) 0.0699(5)
Cl1 Cl 0.4460(2) 0.38135(18) 0.01636(13)
Cl2 Cl 0.4663(2) 0.34309(17) 0.13379(14)
Cl3 Cl 0.3069(2) 0.45598(15) 0.12001(13)
Cl4 Cl 0.2867(2) 0.38182(16) 0.22590(12)
Cl5 Cl 0.0851(2) 0.45314(16) 0.19069(13)
Cl6 Cl 0.0836(3) 0.34768(19) 0.28033(13)
Cl7 Cl -0.1043(3) 0.2937(2) 0.26793(15)
Cl8 Cl -0.1611(2) 0.39585(18) 0.18537(14)
Cl9 Cl -0.2899(2) 0.26287(18) 0.17166(13)
Cl10 Cl -0.2860(2) 0.38218(17) 0.07525(13)
Cl11 Cl -0.3082(2) 0.35413(16) -0.04388(13)
Cl12 Cl -0.1466(2) 0.46374(15) -0.02621(13)
Cl13 Cl -0.1286(2) 0.39571(16) -0.13463(12)
Cl14 Cl 0.0754(2) 0.46498(15) -0.09627(13)
Cl15 Cl 0.0709(3) 0.36699(18) -0.19026(13)
Cl16 Cl 0.2618(3) 0.3101(2) -0.18084(14)
Cl17 Cl 0.3212(2) 0.40582(18) -0.09269(14)
Cl18 Cl 0.4468(2) 0.27012(18) -0.08653(13)
Cl19 Cl 0.3717(2) 0.09856(19) -0.10786(14)
Cl20 Cl 0.4436(2) 0.07423(17) 0.00375(14)
Cl21 Cl 0.5086(2) 0.18255(17) 0.10259(13)
Cl22 Cl 0.3824(2) 0.15834(17) 0.22444(13)
Cl23 Cl 0.2199(2) 0.05447(16) 0.23746(12)
Cl24 Cl 0.1615(2) 0.18637(17) 0.29659(12)
Cl25 Cl -0.0314(2) 0.11665(18) 0.27164(13)
Cl26 Cl -0.2183(3) 0.0893(2) 0.18409(15)
Cl27 Cl -0.2905(2) 0.07456(17) 0.07268(13)
Cl28 Cl -0.3532(2) 0.19240(17) -0.02091(13)
Cl29 Cl -0.2487(2) 0.06421(15) -0.05967(12)
Cl30 Cl -0.2260(2) 0.17834(16) -0.14365(12)
Cl31 Cl -0.0682(2) 0.07286(16) -0.16246(12)
Cl32 Cl -0.0061(2) 0.20753(17) -0.21433(12)
Cl33 Cl 0.3987(2) 0.05123(16) 0.13369(13)
Cl34 Cl 0.1863(2) 0.13440(18) -0.19312(12)
loop_
_geom_bond_atom_site_label_1
_geom_bond_atom_site_label_2
_geom_bond_site_symmetry_1
_geom_bond_site_symmetry_2
C1 C2 1_555 1_555
C2 C3 1_555 1_555
C3 C4 1_555 1_555
C4 C5 1_555 1_555
C5 C6 1_555 1_555
C6 C1 1_555 1_555
C7 C6 1_555 1_555
C8 C7 1_555 1_555
C9 C8 1_555 1_555
C10 C1 1_555 1_555
C11 C10 1_555 1_555
C12 C11 1_555 1_555
C13 C2 1_555 1_555
C14 C13 1_555 1_555
C15 C14 1_555 1_555
C16 C3 1_555 1_555
C17 C16 1_555 1_555
C18 C17 1_555 1_555
C19 C4 1_555 1_555
C20 C19 1_555 1_555
C21 C20 1_555 1_555
C22 C5 1_555 1_555
C23 C7 1_555 1_555
C24 C23 1_555 1_555
C25 C24 1_555 1_555
C26 C8 1_555 1_555
C27 C26 1_555 1_555
C28 C9 1_555 1_555
C29 C28 1_555 1_555
C30 C11 1_555 1_555
C31 C30 1_555 1_555
C32 C31 1_555 1_555
C33 C12 1_555 1_555
C34 C14 1_555 1_555
C35 C34 1_555 1_555
C36 C35 1_555 1_555
C37 C15 1_555 1_555
C38 C17 1_555 1_555
C39 C38 1_555 1_555
C40 C39 1_555 1_555
C41 C18 1_555 1_555
C42 C20 1_555 1_555
C43 C42 1_555 1_555
C44 C43 1_555 1_555
C45 C21 1_555 1_555
C46 C24 1_555 1_555
C47 C46 1_555 1_555
C48 C25 1_555 1_555
C49 C48 1_555 1_555
C50 C27 1_555 1_555
C51 C50 1_555 1_555
C52 C29 1_555 1_555
C53 C31 1_555 1_555
C54 C53 1_555 1_555
C55 C54 1_555 1_555
C56 C32 1_555 1_555
C57 C35 1_555 1_555
C58 C57 1_555 1_555
C59 C36 1_555 1_555
C60 C39 1_555 1_555
C61 C60 1_555 1_555
C62 C40 1_555 1_555
C63 C43 1_555 1_555
C64 C63 1_555 1_555
C65 C44 1_555 1_555
C66 C47 1_555 1_555
C67 C66 1_555 1_555
C68 C49 1_555 1_555
C69 C51 1_555 1_555
C70 C54 1_555 1_555
C71 C70 1_555 1_555
C72 C55 1_555 1_555
C73 C58 1_555 1_555
C74 C61 1_555 1_555
C75 C64 1_555 1_555
C76 C67 1_555 1_555
Cl1 C55 1_555 1_555
Cl2 C54 1_555 1_555
Cl3 C70 1_555 1_555
Cl4 C69 1_555 1_555
Cl5 C68 1_555 1_555
Cl6 C49 1_555 1_555
Cl7 C48 1_555 1_555
Cl8 C47 1_555 1_555
Cl9 C46 1_555 1_555
Cl10 C44 1_555 1_555
Cl11 C43 1_555 1_555
Cl12 C63 1_555 1_555
Cl13 C62 1_555 1_555
Cl14 C61 1_555 1_555
Cl15 C60 1_555 1_555
Cl16 C59 1_555 1_555
Cl17 C58 1_555 1_555
Cl18 C57 1_555 1_555
Cl19 C34 1_555 1_555
Cl20 C33 1_555 1_555
Cl21 C31 1_555 1_555
Cl22 C29 1_555 1_555
Cl23 C28 1_555 1_555
Cl24 C27 1_555 1_555
Cl25 C26 1_555 1_555
Cl26 C23 1_555 1_555
Cl27 C22 1_555 1_555
Cl28 C20 1_555 1_555
Cl29 C19 1_555 1_555
Cl30 C18 1_555 1_555
Cl31 C17 1_555 1_555
Cl32 C38 1_555 1_555
Cl33 C30 1_555 1_555
Cl34 C37 1_555 1_555
C9 C10 1_555 1_555
C12 C13 1_555 1_555
C15 C16 1_555 1_555
C18 C19 1_555 1_555
C21 C22 1_555 1_555
C22 C23 1_555 1_555
C25 C26 1_555 1_555
C27 C28 1_555 1_555
C29 C30 1_555 1_555
C32 C33 1_555 1_555
C33 C34 1_555 1_555
C36 C37 1_555 1_555
C37 C38 1_555 1_555
C40 C41 1_555 1_555
C41 C42 1_555 1_555
C44 C45 1_555 1_555
C45 C46 1_555 1_555
C47 C48 1_555 1_555
C49 C50 1_555 1_555
C51 C52 1_555 1_555
C52 C53 1_555 1_555
C55 C56 1_555 1_555
C56 C57 1_555 1_555
C58 C59 1_555 1_555
C59 C60 1_555 1_555
C61 C62 1_555 1_555
C62 C63 1_555 1_555
C64 C65 1_555 1_555
C65 C66 1_555 1_555
C67 C68 1_555 1_555
C68 C69 1_555 1_555
C69 C70 1_555 1_555
C71 C72 1_555 1_555
C71 C76 1_555 1_555
C72 C73 1_555 1_555
C73 C74 1_555 1_555
C74 C75 1_555 1_555
C75 C76 1_555 1_555

#END
