
#######################################################################
#
#                 Cambridge Crystallographic Data Centre
#                                CCDC 
#
#######################################################################
#
# If this CIF has been generated from an entry in the Cambridge 
# Structural Database, then it will include bibliographic, chemical, 
# crystal, experimental, refinement or atomic coordinate data resulting 
# from the CCDC's data processing and validation procedures.
#
#######################################################################

data_KABYAN
_chemical_formula_moiety         'C18 H30 O4'
_chemical_name_systematic        
'12-Methyl-cis-bicyclo(10.1.0)tridecane-cis-1,13-diyl diacetate'
_symmetry_cell_setting           monoclinic
_symmetry_space_group_name_H-M   'P 21/c'
_symmetry_Int_Tables_number      14
_space_group_name_Hall           '-P 2ybc'
loop_
_symmetry_equiv_pos_site_id
_symmetry_equiv_pos_as_xyz
1 x,y,z
2 -x,1/2+y,1/2-z
3 -x,-y,-z
4 x,1/2-y,1/2+z
_cell_length_a                   12.326(1)
_cell_length_b                   14.998(2)
_cell_length_c                   10.388(3)
_cell_angle_alpha                90
_cell_angle_beta                 108.33(1)
_cell_angle_gamma                90
_cell_volume                     1822.94
_exptl_crystal_colour            colorless
_chemical_melting_point          70-72deg.C
_cell_formula_units_Z            4
loop_
_atom_site_label
_atom_site_type_symbol
_atom_site_fract_x
_atom_site_fract_y
_atom_site_fract_z
O1 O -0.0057(2) 0.3790(2) 0.2571(3)
O2 O -0.0734(4) 0.2501(3) 0.3040(4)
O3 O 0.2055(2) 0.4119(2) 0.2357(3)
O4 O 0.1589(3) 0.2717(2) 0.1580(3)
C1 C 0.2038(3) 0.3877(2) 0.3699(4)
C2 C 0.3018(3) 0.3285(3) 0.4455(4)
C3 C 0.4193(4) 0.3632(3) 0.4515(5)
C4 C 0.5182(4) 0.3044(3) 0.5360(5)
C5 C 0.5340(4) 0.2975(4) 0.6848(5)
C6 C 0.5911(5) 0.3714(7) 0.7762(8)
C7 C 0.5328(6) 0.4491(5) 0.7903(7)
C8 C 0.4213(4) 0.4440(3) 0.8253(5)
C9 C 0.3489(5) 0.5251(3) 0.7901(5)
C10 C 0.2886(4) 0.5372(3) 0.6376(5)
C11 C 0.1889(4) 0.4724(3) 0.5835(4)
C12 C 0.1493(3) 0.4598(3) 0.4299(4)
C13 C 0.0865(3) 0.3754(3) 0.3800(4)
C14 C 0.1138(4) 0.5450(3) 0.3505(5)
C15 C -0.0763(4) 0.3087(3) 0.2267(5)
C16 C -0.1551(4) 0.3135(3) 0.0852(5)
C17 C 0.1746(4) 0.3484(4) 0.1373(4)
C18 C 0.1648(5) 0.3886(3) 0.0034(5)
H1 H 0.2934 0.2699 0.4079
H2 H 0.3001 0.3181 0.5389
H3 H 0.4274 0.4237 0.4894
H4 H 0.4254 0.3580 0.3618
H5 H 0.5844 0.3241 0.5110
H6 H 0.5053 0.2437 0.4999
H7 H 0.4629 0.2781 0.7010
H8 H 0.5845 0.2429 0.7214
H9 H 0.6543 0.3897 0.7492
H10 H 0.6179 0.3471 0.8654
H11 H 0.5841 0.4853 0.8577
H12 H 0.5145 0.4783 0.7050
H13 H 0.3659 0.3885 0.7664
H14 H 0.4380 0.4248 0.9218
H15 H 0.2819 0.5244 0.8401
H16 H 0.3901 0.5779 0.8243
H17 H 0.3446 0.5285 0.5794
H18 H 0.2542 0.5976 0.6273
H19 H 0.2102 0.4197 0.6312
H20 H 0.1190 0.4919 0.6037
H21 H 0.0750 0.3303 0.4514
H22 H 0.0679 0.5756 0.3814
H23 H 0.0842 0.5337 0.2638
H24 H 0.1789 0.5893 0.3628
H25 H -0.2037 0.2629 0.0663
H26 H -0.1117 0.3151 0.0239
H27 H -0.1999 0.3661 0.0747
H28 H 0.1432 0.3438 -0.0648
H29 H 0.2363 0.4132 0.0052
H30 H 0.1085 0.4341 -0.0163
loop_
_geom_bond_atom_site_label_1
_geom_bond_atom_site_label_2
_geom_bond_site_symmetry_1
_geom_bond_site_symmetry_2
O1 C13 1_555 1_555
O2 C15 1_555 1_555
O3 C1 1_555 1_555
O4 C17 1_555 1_555
C1 C2 1_555 1_555
C2 C3 1_555 1_555
C3 C4 1_555 1_555
C4 C5 1_555 1_555
C5 C6 1_555 1_555
C6 C7 1_555 1_555
C7 C8 1_555 1_555
C8 C9 1_555 1_555
C9 C10 1_555 1_555
C10 C11 1_555 1_555
C11 C12 1_555 1_555
C12 C1 1_555 1_555
C13 C1 1_555 1_555
C14 C12 1_555 1_555
C15 O1 1_555 1_555
C16 C15 1_555 1_555
C17 O3 1_555 1_555
C18 C17 1_555 1_555
H1 C2 1_555 1_555
H2 C2 1_555 1_555
H3 C3 1_555 1_555
H4 C3 1_555 1_555
H5 C4 1_555 1_555
H6 C4 1_555 1_555
H7 C5 1_555 1_555
H8 C5 1_555 1_555
H9 C6 1_555 1_555
H10 C6 1_555 1_555
H11 C7 1_555 1_555
H12 C7 1_555 1_555
H13 C8 1_555 1_555
H14 C8 1_555 1_555
H15 C9 1_555 1_555
H16 C9 1_555 1_555
H17 C10 1_555 1_555
H18 C10 1_555 1_555
H19 C11 1_555 1_555
H20 C11 1_555 1_555
H21 C13 1_555 1_555
H22 C14 1_555 1_555
H23 C14 1_555 1_555
H24 C14 1_555 1_555
H25 C16 1_555 1_555
H26 C16 1_555 1_555
H27 C16 1_555 1_555
H28 C18 1_555 1_555
H29 C18 1_555 1_555
H30 C18 1_555 1_555
C12 C13 1_555 1_555

#END
