
#######################################################################
#
#                 Cambridge Crystallographic Data Centre
#                                CCDC 
#
#######################################################################
#
# If this CIF has been generated from an entry in the Cambridge 
# Structural Database, then it will include bibliographic, chemical, 
# crystal, experimental, refinement or atomic coordinate data resulting 
# from the CCDC's data processing and validation procedures.
#
#######################################################################

data_KACFID
_chemical_formula_moiety         'C21 H21 N1 O3'
_chemical_name_systematic        
7,8-Dimethyl-4,9-dioxo-1,6-diphenyl-5-aza-8-oxaspiro[2.6]nonane
_symmetry_cell_setting           orthorhombic
_symmetry_space_group_name_H-M   'P 21 21 21'
_symmetry_Int_Tables_number      19
_space_group_name_Hall           'P 2ac 2ab'
loop_
_symmetry_equiv_pos_site_id
_symmetry_equiv_pos_as_xyz
1 x,y,z
2 1/2-x,-y,1/2+z
3 1/2+x,1/2-y,-z
4 -x,1/2+y,1/2-z
_cell_length_a                   10.469(3)
_cell_length_b                   28.626(3)
_cell_length_c                   5.938(4)
_cell_angle_alpha                90
_cell_angle_beta                 90
_cell_angle_gamma                90
_cell_volume                     1779.53
_chemical_melting_point          221-222.5deg.C
_cell_formula_units_Z            4
loop_
_atom_site_label
_atom_site_type_symbol
_atom_site_fract_x
_atom_site_fract_y
_atom_site_fract_z
O1 O 0.8868(2) 0.23096(6) 0.1411(4)
O2 O 0.7546(2) 0.13529(7) 0.7022(3)
O3 O 0.6165(2) 0.13070(6) 0.4300(3)
N1 N 0.6760(2) 0.22292(7) 0.1778(4)
C1 C 0.9633(3) 0.16199(10) 0.4258(6)
C2 C 0.9230(2) 0.13108(9) 0.2397(5)
C3 C 0.8254(2) 0.16499(8) 0.3506(4)
C4 C 0.7962(2) 0.20803(8) 0.2140(5)
C5 C 0.5566(2) 0.19607(8) 0.1903(5)
C6 C 0.5795(2) 0.14335(8) 0.2050(4)
C7 C 0.7317(2) 0.14347(8) 0.5092(4)
C8 C 0.6635(4) 0.2683(1) 0.065(1)
C9 C 0.4704(4) 0.2136(1) 0.3772(8)
C10 C 0.4575(2) 0.11675(7) 0.1516(4)
C11 C 0.4021(3) 0.1215(1) -0.0575(5)
C12 C 0.2891(3) 0.0982(1) -0.1101(6)
C13 C 0.2323(3) 0.0697(1) 0.0476(7)
C14 C 0.2882(3) 0.0641(1) 0.2533(7)
C15 C 0.4003(2) 0.08747(9) 0.3074(5)
C16 C 0.9133(2) 0.07888(8) 0.2602(4)
C17 C 0.8677(3) 0.05339(9) 0.0814(5)
C18 C 0.8678(3) 0.00489(9) 0.0854(5)
C19 C 0.9137(3) -0.0182(1) 0.2708(6)
C20 C 0.9581(3) 0.00666(10) 0.4516(6)
C21 C 0.9582(3) 0.05525(9) 0.4475(5)
loop_
_geom_bond_atom_site_label_1
_geom_bond_atom_site_label_2
_geom_bond_site_symmetry_1
_geom_bond_site_symmetry_2
O1 C4 1_555 1_555
O2 C7 1_555 1_555
O3 C6 1_555 1_555
N1 C4 1_555 1_555
C1 C2 1_555 1_555
C2 C3 1_555 1_555
C3 C1 1_555 1_555
C4 C3 1_555 1_555
C5 N1 1_555 1_555
C6 C5 1_555 1_555
C7 O3 1_555 1_555
C8 N1 1_555 1_555
C9 C5 1_555 1_555
C10 C6 1_555 1_555
C11 C10 1_555 1_555
C12 C11 1_555 1_555
C13 C12 1_555 1_555
C14 C13 1_555 1_555
C15 C10 1_555 1_555
C16 C2 1_555 1_555
C17 C16 1_555 1_555
C18 C17 1_555 1_555
C19 C18 1_555 1_555
C20 C19 1_555 1_555
C21 C16 1_555 1_555
C3 C7 1_555 1_555
C14 C15 1_555 1_555
C20 C21 1_555 1_555

#END
