
#######################################################################
#
#                 Cambridge Crystallographic Data Centre
#                                CCDC 
#
#######################################################################
#
# If this CIF has been generated from an entry in the Cambridge 
# Structural Database, then it will include bibliographic, chemical, 
# crystal, experimental, refinement or atomic coordinate data resulting 
# from the CCDC's data processing and validation procedures.
#
#######################################################################

data_KACHAA
_chemical_formula_moiety         'C15 H14 O6 S1'
_chemical_name_systematic        
'ethyl 4-oxo-6-(2-phenylvinyl)-3,4-dihydro-1,2-oxathiine-5-carboxylate 2,2-dioxide'
_symmetry_cell_setting           triclinic
_symmetry_space_group_name_H-M   'P -1'
_symmetry_Int_Tables_number      2
_space_group_name_Hall           '-P 1'
loop_
_symmetry_equiv_pos_site_id
_symmetry_equiv_pos_as_xyz
1 x,y,z
2 -x,-y,-z
_cell_length_a                   8.5023(2)
_cell_length_b                   9.1314(2)
_cell_length_c                   10.6477(2)
_cell_angle_alpha                71.5121(15)
_cell_angle_beta                 83.3557(16)
_cell_angle_gamma                72.1792(15)
_cell_volume                     746.224
_exptl_crystal_colour            yellow
_exptl_crystal_description       block
_cell_formula_units_Z            2
loop_
_atom_site_label
_atom_site_type_symbol
_atom_site_fract_x
_atom_site_fract_y
_atom_site_fract_z
C1 C 0.6816(3) 1.0530(3) -0.1261(2)
C2 C 0.6576(4) 1.0418(4) -0.2490(3)
H1 H 0.7260 0.9566 -0.2771
C3 C 0.5345(4) 1.1547(4) -0.3297(3)
H2 H 0.5202 1.1453 -0.4118
C4 C 0.4329(4) 1.2805(4) -0.2899(3)
H3 H 0.3496 1.3572 -0.3447
C5 C 0.4550(4) 1.2931(4) -0.1680(3)
H4 H 0.3858 1.3786 -0.1406
C6 C 0.5769(4) 1.1820(3) -0.0872(3)
H5 H 0.5902 1.1924 -0.0053
C7 C 0.8104(3) 0.9280(3) -0.0433(2)
H6 H 0.8777 0.8495 -0.0797
C8 C 0.8414(3) 0.9151(3) 0.0805(2)
H7 H 0.7769 0.9949 0.1166
C9 C 0.9681(3) 0.7861(3) 0.1627(2)
C10 C 0.9907(3) 0.7574(3) 0.2929(2)
C11 C 0.8911(3) 0.8726(3) 0.3656(2)
C12 C 0.8303(4) 1.1425(3) 0.3735(3)
H8 H 0.9000 1.2106 0.3690
H9 H 0.8054 1.0948 0.4660
C13 C 0.6750(5) 1.2409(4) 0.3029(4)
H10 H 0.6993 1.2824 0.2103
H11 H 0.6228 1.3289 0.3384
H12 H 0.6021 1.1753 0.3141
C14 C 1.1152(3) 0.6190(3) 0.3717(2)
C15 C 1.2200(3) 0.4957(3) 0.3063(3)
H13 H 1.2390 0.3895 0.3704
H14 H 1.3265 0.5161 0.2819
O1 O 1.0687(2) 0.68413(19) 0.09321(16)
O2 O 0.8039(2) 0.8388(2) 0.46013(18)
O3 O 0.9177(2) 1.01551(19) 0.31406(16)
O4 O 1.1414(3) 0.6015(2) 0.48510(19)
O5 O 1.2584(3) 0.4356(3) 0.0799(2)
O6 O 0.9966(3) 0.4340(3) 0.2023(2)
S1 S 1.13432(10) 0.49451(8) 0.16597(7)
loop_
_geom_bond_atom_site_label_1
_geom_bond_atom_site_label_2
_geom_bond_site_symmetry_1
_geom_bond_site_symmetry_2
C1 C2 1_555 1_555
C2 H1 1_555 1_555
C3 C2 1_555 1_555
H2 C3 1_555 1_555
C4 C3 1_555 1_555
H3 C4 1_555 1_555
C5 C4 1_555 1_555
H4 C5 1_555 1_555
C6 C1 1_555 1_555
H5 C6 1_555 1_555
C7 C1 1_555 1_555
H6 C7 1_555 1_555
C8 C7 1_555 1_555
H7 C8 1_555 1_555
C9 C8 1_555 1_555
C10 C9 1_555 1_555
C11 C10 1_555 1_555
C12 H8 1_555 1_555
H9 C12 1_555 1_555
C13 C12 1_555 1_555
H10 C13 1_555 1_555
H11 C13 1_555 1_555
H12 C13 1_555 1_555
C14 C10 1_555 1_555
C15 C14 1_555 1_555
H13 C15 1_555 1_555
H14 C15 1_555 1_555
O1 C9 1_555 1_555
O2 C11 1_555 1_555
O3 C11 1_555 1_555
O4 C14 1_555 1_555
O5 S1 1_555 1_555
O6 S1 1_555 1_555
S1 C15 1_555 1_555
C5 C6 1_555 1_555
C12 O3 1_555 1_555
O1 S1 1_555 1_555

#END
