
#######################################################################
#
#                 Cambridge Crystallographic Data Centre
#                                CCDC 
#
#######################################################################
#
# If this CIF has been generated from an entry in the Cambridge 
# Structural Database, then it will include bibliographic, chemical, 
# crystal, experimental, refinement or atomic coordinate data resulting 
# from the CCDC's data processing and validation procedures.
#
#######################################################################

data_KACJEG
_chemical_formula_moiety         'C12 H7 N3 O3 S2'
_chemical_name_systematic        
4-((4-Oxo-2-thioxo-1,3-thiazolidin-5-ylidene)methyl)-3-phenyl-1,2,3-oxadiazol-3-ium-5-olate
_symmetry_cell_setting           monoclinic
_symmetry_space_group_name_H-M   'P 21/c'
_symmetry_Int_Tables_number      14
_space_group_name_Hall           '-P 2ybc'
loop_
_symmetry_equiv_pos_site_id
_symmetry_equiv_pos_as_xyz
1 x,y,z
2 -x,1/2+y,1/2-z
3 -x,-y,-z
4 x,1/2-y,1/2+z
_cell_length_a                   16.749(3)
_cell_length_b                   4.9332(10)
_cell_length_c                   24.777(5)
_cell_angle_alpha                90
_cell_angle_beta                 140.16(3)
_cell_angle_gamma                90
_cell_volume                     1311.55
_exptl_crystal_description       needle
_cell_formula_units_Z            4
loop_
_atom_site_label
_atom_site_type_symbol
_atom_site_fract_x
_atom_site_fract_y
_atom_site_fract_z
S1 S 0.21892(6) 0.56594(14) 0.02201(4)
S2 S 0.37512(7) 0.1956(2) 0.16993(5)
O1 O 0.02982(19) 1.2030(4) -0.19659(13)
O2 O 0.19172(19) 0.9914(4) -0.07178(13)
O3 O -0.08346(15) 0.2391(4) -0.08469(11)
N1 N -0.1254(2) 0.9963(4) -0.24310(13)
N2 N -0.0981(3) 1.1904(5) -0.26308(17)
N3 N 0.12733(19) 0.1957(4) 0.03543(13)
C1 C 0.0814(3) 1.0104(5) -0.13451(17)
C2 C -0.0254(2) 0.8758(5) -0.16756(15)
C3 C -0.0345(2) 0.6628(5) -0.13397(14)
H1 H -0.1151 0.6075 -0.1676
C4 C 0.0566(2) 0.5297(5) -0.06067(14)
C5 C 0.0229(2) 0.3102(4) -0.04045(14)
C6 C 0.2407(2) 0.3004(5) 0.07901(17)
C7 C -0.2546(2) 0.9295(6) -0.30285(16)
C8 C -0.3140(6) 0.8716(13) -0.3838(4)
H2 H -0.2716 0.8708 -0.3945
C9 C -0.4408(6) 0.8164(15) -0.4455(4)
H3 H -0.4856 0.7726 -0.4997
C10 C -0.4994(9) 0.825(2) -0.4284(7)
H4 H -0.5848 0.7939 -0.4710
C11 C -0.432(2) 0.881(4) -0.3452(14)
H5 H -0.4707 0.8725 -0.3320
C12 C -0.3079(11) 0.949(2) -0.2847(7)
H6 H -0.2640 1.0085 -0.2318
H7 H 0.120(4) 0.059(8) 0.054(2)
C13? C -0.3071(6) 0.6914(14) -0.3512(5)
H8? H -0.2601 0.5877 -0.3506
C14? C -0.4244(7) 0.6056(16) -0.3990(5)
H9? H -0.4561 0.4462 -0.4301
C15? C -0.4927(10) 0.753(3) -0.4006(7)
H10? H -0.5735 0.6970 -0.4347
C16? C -0.449(2) 0.979(5) -0.3549(16)
H11? H -0.5009 1.0795 -0.3590
C17? C -0.3281(12) 1.063(3) -0.3013(8)
H12? H -0.2948 1.2069 -0.2644
loop_
_geom_bond_atom_site_label_1
_geom_bond_atom_site_label_2
_geom_bond_site_symmetry_1
_geom_bond_site_symmetry_2
S1 C4 1_555 1_555
S2 C6 1_555 1_555
O1 N2 1_555 1_555
O2 C1 1_555 1_555
O3 C5 1_555 1_555
N1 N2 1_555 1_555
N3 C5 1_555 1_555
C1 O1 1_555 1_555
C2 N1 1_555 1_555
C3 C2 1_555 1_555
H1 C3 1_555 1_555
C4 C3 1_555 1_555
C5 C4 1_555 1_555
C6 S1 1_555 1_555
C7 N1 1_555 1_555
C8 C7 1_555 1_555
H2 C8 1_555 1_555
C9 C8 1_555 1_555
H3 C9 1_555 1_555
C10 C9 1_555 1_555
H4 C10 1_555 1_555
C11 C10 1_555 1_555
H5 C11 1_555 1_555
C12 C7 1_555 1_555
H6 C12 1_555 1_555
H7 N3 1_555 1_555
N3 C6 1_555 1_555
C1 C2 1_555 1_555
C11 C12 1_555 1_555

#END
