
#######################################################################
#
#                 Cambridge Crystallographic Data Centre
#                                CCDC 
#
#######################################################################
#
# If this CIF has been generated from an entry in the Cambridge 
# Structural Database, then it will include bibliographic, chemical, 
# crystal, experimental, refinement or atomic coordinate data resulting 
# from the CCDC's data processing and validation procedures.
#
#######################################################################

data_KACJOQ
_chemical_formula_moiety         'C24 H14 Cl2 N2 O2'
_chemical_name_systematic        
1,5-bis(4-Chlorophenyl)-4-oxo-4,5-dihydro-1H-pyrrolo[3,2-c]quinoline-2-carbaldehyde
_symmetry_cell_setting           triclinic
_symmetry_space_group_name_H-M   'P -1'
_symmetry_Int_Tables_number      2
_space_group_name_Hall           '-P 1'
loop_
_symmetry_equiv_pos_site_id
_symmetry_equiv_pos_as_xyz
1 x,y,z
2 -x,-y,-z
_cell_length_a                   6.3775(5)
_cell_length_b                   12.1686(10)
_cell_length_c                   13.4121(8)
_cell_angle_alpha                80.819(6)
_cell_angle_beta                 88.955(5)
_cell_angle_gamma                75.537(7)
_cell_volume                     994.698
_cell_formula_units_Z            2
loop_
_atom_site_label
_atom_site_type_symbol
_atom_site_fract_x
_atom_site_fract_y
_atom_site_fract_z
Cl1 Cl 0.59660(17) 0.58361(8) -0.43729(6)
Cl2 Cl 0.8312(2) 0.87537(10) 0.60420(6)
O1 O 1.0621(3) 0.81377(16) -0.15785(11)
O2 O 1.4529(3) 1.00946(17) 0.13582(15)
N1 N 0.8432(3) 0.72042(16) -0.06035(13)
N2 N 1.0515(3) 0.84506(17) 0.17778(14)
C1 C 0.7114(4) 0.6947(2) 0.21279(18)
H1 H 0.7456 0.7193 0.2712
C2 C 0.5680(4) 0.6258(2) 0.2173(2)
H2 H 0.5082 0.6034 0.2786
C3 C 0.5136(4) 0.5904(2) 0.1310(2)
H3 H 0.4154 0.5449 0.1342
C4 C 0.6033(4) 0.6215(2) 0.0401(2)
H4 H 0.5659 0.5964 -0.0175
C5 C 0.7504(3) 0.69074(18) 0.03324(17)
C6 C 0.8065(3) 0.72821(18) 0.12153(17)
C7 C 0.9627(3) 0.79674(18) 0.10902(16)
C8 C 1.0552(3) 0.82206(18) 0.01661(16)
C9 C 0.9933(3) 0.78742(19) -0.07439(16)
C10 C 1.2041(3) 0.88726(18) 0.02880(16)
H5 H 1.2886 0.9158 -0.0211
C11 C 1.2006(4) 0.90045(19) 0.12765(16)
C12 C 1.3268(4) 0.9597(2) 0.17868(18)
H6 H 1.3098 0.9595 0.2477
C13 C 0.7783(4) 0.68441(19) -0.15005(17)
C14 C 0.5728(4) 0.7317(2) -0.19148(19)
H7 H 0.4747 0.7856 -0.1607
C15 C 0.5126(4) 0.6991(2) -0.2786(2)
H8 H 0.3731 0.7287 -0.3058
C16 C 0.6639(5) 0.6215(2) -0.3242(2)
C17 C 0.8678(5) 0.5730(2) -0.2836(2)
H9 H 0.9663 0.5199 -0.3151
C18 C 0.9254(4) 0.6043(2) -0.1949(2)
H10 H 1.0626 0.5715 -0.1658
C19 C 0.9934(4) 0.8514(2) 0.28135(16)
C20 C 0.8449(4) 0.9460(2) 0.30406(19)
H11 H 0.7800 1.0049 0.2527
C21 C 0.7913(5) 0.9538(3) 0.4033(2)
H12 H 0.6898 1.0177 0.4192
C22 C 0.8897(5) 0.8663(3) 0.47841(19)
C23 C 1.0345(6) 0.7706(3) 0.4562(2)
H13 H 1.0973 0.7111 0.5076
C24 C 1.0871(5) 0.7628(3) 0.3565(2)
H14 H 1.1853 0.6979 0.3405
loop_
_geom_bond_atom_site_label_1
_geom_bond_atom_site_label_2
_geom_bond_site_symmetry_1
_geom_bond_site_symmetry_2
Cl1 C16 1_555 1_555
Cl2 C22 1_555 1_555
O1 C9 1_555 1_555
O2 C12 1_555 1_555
N1 C5 1_555 1_555
N2 C7 1_555 1_555
C1 H1 1_555 1_555
C2 C1 1_555 1_555
H2 C2 1_555 1_555
C3 C2 1_555 1_555
H3 C3 1_555 1_555
C4 C3 1_555 1_555
H4 C4 1_555 1_555
C5 C4 1_555 1_555
C6 C1 1_555 1_555
C7 C6 1_555 1_555
C8 C7 1_555 1_555
C9 N1 1_555 1_555
C10 C8 1_555 1_555
H5 C10 1_555 1_555
C11 N2 1_555 1_555
C12 C11 1_555 1_555
H6 C12 1_555 1_555
C13 N1 1_555 1_555
C14 C13 1_555 1_555
H7 C14 1_555 1_555
C15 C14 1_555 1_555
H8 C15 1_555 1_555
C16 C15 1_555 1_555
C17 C16 1_555 1_555
H9 C17 1_555 1_555
C18 C13 1_555 1_555
H10 C18 1_555 1_555
C19 N2 1_555 1_555
C20 C19 1_555 1_555
H11 C20 1_555 1_555
C21 C20 1_555 1_555
H12 C21 1_555 1_555
C22 C21 1_555 1_555
C23 C22 1_555 1_555
H13 C23 1_555 1_555
C24 C19 1_555 1_555
H14 C24 1_555 1_555
C5 C6 1_555 1_555
C8 C9 1_555 1_555
C10 C11 1_555 1_555
C17 C18 1_555 1_555
C23 C24 1_555 1_555

#END
