
#######################################################################
#
#                 Cambridge Crystallographic Data Centre
#                                CCDC 
#
#######################################################################
#
# If this CIF has been generated from an entry in the Cambridge 
# Structural Database, then it will include bibliographic, chemical, 
# crystal, experimental, refinement or atomic coordinate data resulting 
# from the CCDC's data processing and validation procedures.
#
#######################################################################

data_KACJUW
_chemical_formula_moiety         'C24 H14 Cl2 N2 O2'
_chemical_name_systematic        
1,5-bis(4-Chlorophenyl)-4-oxo-4,5-dihydro-1H-pyrrolo[3,2-c]quinoline-3-carbaldehyde
_symmetry_cell_setting           triclinic
_symmetry_space_group_name_H-M   'P -1'
_symmetry_Int_Tables_number      2
_space_group_name_Hall           '-P 1'
loop_
_symmetry_equiv_pos_site_id
_symmetry_equiv_pos_as_xyz
1 x,y,z
2 -x,-y,-z
_cell_length_a                   5.2005(5)
_cell_length_b                   13.556(3)
_cell_length_c                   15.6215(13)
_cell_angle_alpha                73.584(12)
_cell_angle_beta                 85.490(8)
_cell_angle_gamma                87.120(12)
_cell_volume                     1052.67
_cell_formula_units_Z            2
loop_
_atom_site_label
_atom_site_type_symbol
_atom_site_fract_x
_atom_site_fract_y
_atom_site_fract_z
Cl1 Cl 0.4620(3) 0.66266(16) 0.68029(8)
Cl2 Cl 0.8757(4) 0.91300(15) -0.32879(11)
O1 O 0.1374(6) 0.5856(2) 0.32649(19)
O2 O -0.1582(6) 0.4767(3) 0.1210(2)
N1 N 0.4482(6) 0.7066(3) 0.2922(2)
N2 N 0.4274(7) 0.6975(3) 0.0311(2)
C1 C 0.2867(10) 0.7560(5) 0.4260(3)
H1 H 0.1710 0.8024 0.3919
C2 C 0.2899(11) 0.7455(6) 0.5163(4)
H2 H 0.1769 0.7849 0.5432
C3 C 0.4587(10) 0.6775(4) 0.5656(3)
C4 C 0.6283(10) 0.6200(4) 0.5279(3)
H3 H 0.7459 0.5748 0.5622
C5 C 0.6232(9) 0.6300(4) 0.4371(3)
H4 H 0.7355 0.5902 0.4104
C6 C 0.4528(8) 0.6985(4) 0.3869(3)
C7 C 0.8128(8) 0.8416(4) 0.0810(3)
H5 H 0.8250 0.8447 0.0206
C8 C 0.9737(9) 0.9009(4) 0.1118(3)
H6 H 1.0936 0.9427 0.0725
C9 C 0.9538(9) 0.8972(4) 0.2012(3)
H7 H 1.0598 0.9374 0.2220
C10 C 0.7792(8) 0.8348(4) 0.2598(3)
H8 H 0.7672 0.8339 0.3197
C11 C 0.6186(7) 0.7724(3) 0.2306(3)
C12 C 0.6330(8) 0.7775(3) 0.1388(3)
C13 C 0.4607(8) 0.7119(3) 0.1141(3)
C14 C 0.2956(7) 0.6476(3) 0.1755(3)
C15 C 0.2815(8) 0.6418(3) 0.2695(3)
C16 C 0.2480(9) 0.6237(4) 0.0428(3)
H9 H 0.1956 0.5988 -0.0025
C17 C 0.1560(8) 0.5913(3) 0.1307(3)
C18 C -0.0456(9) 0.5192(4) 0.1648(3)
H10 H -0.0936 0.5038 0.2257
C19 C 0.5400(8) 0.7503(4) -0.0552(3)
C20 C 0.4526(10) 0.8471(4) -0.0976(3)
H11 H 0.3229 0.8792 -0.0697
C21 C 0.5567(10) 0.8979(4) -0.1824(3)
H12 H 0.4983 0.9639 -0.2117
C22 C 0.7452(11) 0.8493(5) -0.2218(3)
C23 C 0.8316(10) 0.7525(5) -0.1802(3)
H13 H 0.9604 0.7205 -0.2085
C24 C 0.7292(9) 0.7020(4) -0.0967(3)
H14 H 0.7870 0.6356 -0.0683
loop_
_geom_bond_atom_site_label_1
_geom_bond_atom_site_label_2
_geom_bond_site_symmetry_1
_geom_bond_site_symmetry_2
Cl1 C3 1_555 1_555
Cl2 C22 1_555 1_555
O1 C15 1_555 1_555
O2 C18 1_555 1_555
N1 C6 1_555 1_555
N2 C13 1_555 1_555
C1 H1 1_555 1_555
C2 C1 1_555 1_555
H2 C2 1_555 1_555
C3 C2 1_555 1_555
C4 C3 1_555 1_555
H3 C4 1_555 1_555
C5 C4 1_555 1_555
H4 C5 1_555 1_555
C6 C1 1_555 1_555
C7 H5 1_555 1_555
C8 C7 1_555 1_555
H6 C8 1_555 1_555
C9 C8 1_555 1_555
H7 C9 1_555 1_555
C10 C9 1_555 1_555
H8 C10 1_555 1_555
C11 N1 1_555 1_555
C12 C7 1_555 1_555
C13 C12 1_555 1_555
C14 C13 1_555 1_555
C15 N1 1_555 1_555
C16 N2 1_555 1_555
H9 C16 1_555 1_555
C17 C14 1_555 1_555
C18 C17 1_555 1_555
H10 C18 1_555 1_555
C19 N2 1_555 1_555
C20 C19 1_555 1_555
H11 C20 1_555 1_555
C21 C20 1_555 1_555
H12 C21 1_555 1_555
C22 C21 1_555 1_555
C23 C22 1_555 1_555
H13 C23 1_555 1_555
C24 C19 1_555 1_555
H14 C24 1_555 1_555
C5 C6 1_555 1_555
C10 C11 1_555 1_555
C11 C12 1_555 1_555
C14 C15 1_555 1_555
C16 C17 1_555 1_555
C23 C24 1_555 1_555

#END
