
#######################################################################
#
#                 Cambridge Crystallographic Data Centre
#                                CCDC 
#
#######################################################################
#
# If this CIF has been generated from an entry in the Cambridge 
# Structural Database, then it will include bibliographic, chemical, 
# crystal, experimental, refinement or atomic coordinate data resulting 
# from the CCDC's data processing and validation procedures.
#
#######################################################################

data_KACKAD
_chemical_formula_moiety         'C24 H17 Cl1 N2 O2'
_chemical_name_systematic        
1-(4-Chlorophenyl)-8-methoxy-5-phenyl-1,5-dihydro-4H-pyrrolo[3,2-c]quinolin-4-one
_symmetry_cell_setting           orthorhombic
_symmetry_space_group_name_H-M   'P 21 21 21'
_symmetry_Int_Tables_number      19
_space_group_name_Hall           'P 2ac 2ab'
loop_
_symmetry_equiv_pos_site_id
_symmetry_equiv_pos_as_xyz
1 x,y,z
2 1/2-x,-y,1/2+z
3 1/2+x,1/2-y,-z
4 -x,1/2+y,1/2-z
_cell_length_a                   8.0462(5)
_cell_length_b                   9.2337(6)
_cell_length_c                   26.6656(13)
_cell_angle_alpha                90
_cell_angle_beta                 90
_cell_angle_gamma                90
_cell_volume                     1981.15
_cell_formula_units_Z            4
loop_
_atom_site_label
_atom_site_type_symbol
_atom_site_fract_x
_atom_site_fract_y
_atom_site_fract_z
Cl1 Cl 0.37213(18) 0.35295(15) 0.99291(3)
O1 O 0.4342(3) 0.3672(2) 0.60467(6)
O2 O -0.1046(2) 0.1588(2) 0.83099(6)
N1 N 0.4963(2) 0.38340(19) 0.77509(6)
N2 N 0.2232(2) 0.2705(2) 0.65115(6)
C1 C 0.4157(3) 0.4985(3) 0.85364(9)
H1 H 0.3965 0.5842 0.8363
C2 C 0.3866(4) 0.4916(4) 0.90455(10)
H2 H 0.3479 0.5724 0.9218
C3 C 0.4156(4) 0.3640(4) 0.92928(9)
C4 C 0.4769(4) 0.2435(3) 0.90470(10)
H3 H 0.4973 0.1582 0.9221
C5 C 0.5072(3) 0.2519(3) 0.85410(9)
H4 H 0.5505 0.1726 0.8371
C6 C 0.4732(3) 0.3782(2) 0.82867(8)
C7 C 0.6390(3) 0.4332(3) 0.75201(10)
H5 H 0.7328 0.4677 0.7685
C8 C 0.6209(3) 0.4238(3) 0.70167(9)
H6 H 0.6988 0.4499 0.6775
C9 C 0.3770(3) 0.3377(3) 0.64612(8)
C10 C 0.4604(3) 0.3667(2) 0.69293(8)
C11 C 0.3855(3) 0.3412(2) 0.73861(7)
C12 C 0.2215(2) 0.2805(2) 0.74316(7)
C13 C 0.1451(2) 0.2421(2) 0.69731(7)
C14 C -0.0089(3) 0.1722(2) 0.69909(7)
H7 H -0.0589 0.1430 0.6693
C15 C -0.0877(3) 0.1456(3) 0.74362(8)
H8 H -0.1902 0.0989 0.7439
C16 C -0.0147(3) 0.1882(2) 0.78817(8)
C17 C 0.1376(3) 0.2544(2) 0.78813(7)
H9 H 0.1856 0.2824 0.8183
C18 C -0.0497(4) 0.2236(5) 0.87593(9)
H10 H -0.0438 0.3266 0.8716
H11 H 0.0583 0.1869 0.8844
H12 H -0.1264 0.2013 0.9024
C19 C 0.1345(3) 0.2375(3) 0.60545(7)
C20 C 0.0178(6) 0.3321(4) 0.58865(14)
H13 H -0.0037 0.4170 0.6063
C21 C -0.0687(7) 0.3011(6) 0.54507(17)
H14 H -0.1493 0.3649 0.5334
C22 C -0.0356(7) 0.1762(7) 0.51919(11)
H15 H -0.0915 0.1565 0.4894
C23 C 0.0772(6) 0.0827(6) 0.53675(13)
H16 H 0.0966 -0.0032 0.5195
C24 C 0.1663(4) 0.1118(4) 0.58054(10)
H17 H 0.2454 0.0468 0.5924
loop_
_geom_bond_atom_site_label_1
_geom_bond_atom_site_label_2
_geom_bond_site_symmetry_1
_geom_bond_site_symmetry_2
Cl1 C3 1_555 1_555
O1 C9 1_555 1_555
O2 C16 1_555 1_555
N1 C6 1_555 1_555
N2 C9 1_555 1_555
C1 H1 1_555 1_555
C2 C1 1_555 1_555
H2 C2 1_555 1_555
C3 C2 1_555 1_555
C4 C3 1_555 1_555
H3 C4 1_555 1_555
C5 C4 1_555 1_555
H4 C5 1_555 1_555
C6 C1 1_555 1_555
C7 N1 1_555 1_555
H5 C7 1_555 1_555
C8 C7 1_555 1_555
H6 C8 1_555 1_555
C9 C10 1_555 1_555
C10 C8 1_555 1_555
C11 N1 1_555 1_555
C12 C11 1_555 1_555
C13 N2 1_555 1_555
C14 C13 1_555 1_555
H7 C14 1_555 1_555
C15 C14 1_555 1_555
H8 C15 1_555 1_555
C16 C15 1_555 1_555
C17 C12 1_555 1_555
H9 C17 1_555 1_555
C18 O2 1_555 1_555
H10 C18 1_555 1_555
H11 C18 1_555 1_555
H12 C18 1_555 1_555
C19 N2 1_555 1_555
C20 C19 1_555 1_555
H13 C20 1_555 1_555
C21 C20 1_555 1_555
H14 C21 1_555 1_555
C22 C21 1_555 1_555
H15 C22 1_555 1_555
C23 C22 1_555 1_555
H16 C23 1_555 1_555
C24 C19 1_555 1_555
H17 C24 1_555 1_555
C5 C6 1_555 1_555
C10 C11 1_555 1_555
C12 C13 1_555 1_555
C16 C17 1_555 1_555
C23 C24 1_555 1_555

#END
