
#######################################################################
#
#                 Cambridge Crystallographic Data Centre
#                                CCDC 
#
#######################################################################
#
# If this CIF has been generated from an entry in the Cambridge 
# Structural Database, then it will include bibliographic, chemical, 
# crystal, experimental, refinement or atomic coordinate data resulting 
# from the CCDC's data processing and validation procedures.
#
#######################################################################

data_KACNUA
_chemical_formula_moiety         'C32 H35 F1 N2 O10'
_chemical_name_systematic        
'2-(Acetoxymethyl)-6-((5-(4-fluorophenyl)-1-(4-isopropylphenyl)-1H-pyrazol-3-yl)oxy)tetrahydro-2H-pyran-3,4,5-triyl triacetate'
_symmetry_cell_setting           monoclinic
_symmetry_space_group_name_H-M   'P 21'
_symmetry_Int_Tables_number      4
_space_group_name_Hall           'P 2yb'
loop_
_symmetry_equiv_pos_site_id
_symmetry_equiv_pos_as_xyz
1 x,y,z
2 -x,1/2+y,-z
_cell_length_a                   11.838(2)
_cell_length_b                   9.4500(19)
_cell_length_c                   14.514(3)
_cell_angle_alpha                90
_cell_angle_beta                 100.41(3)
_cell_angle_gamma                90
_cell_volume                     1596.94
_exptl_crystal_colour            colorless
_exptl_crystal_description       block
_cell_formula_units_Z            2
loop_
_atom_site_label
_atom_site_type_symbol
_atom_site_fract_x
_atom_site_fract_y
_atom_site_fract_z
F1 F 0.3870(4) 0.7562(7) -0.3693(2)
O1 O 0.7096(3) 0.7679(5) 0.2328(2)
N1 N 0.5110(4) 0.7482(6) 0.1745(3)
C1 C -0.0571(7) 0.5365(13) 0.1208(7)
H1 H -0.1383 0.5284 0.1190
H2 H -0.0197 0.5616 0.1829
H3 H -0.0275 0.4477 0.1035
N2 N 0.4487(3) 0.7389(6) 0.0840(3)
O2 O 0.6117(5) 0.4087(8) 0.6350(4)
C2 C -0.1037(6) 0.6445(8) -0.0375(5)
H4 H -0.1836 0.6391 -0.0331
H5 H -0.0833 0.5639 -0.0712
H6 H -0.0900 0.7296 -0.0699
O3 O 0.6889(4) 0.5044(5) 0.5207(3)
C3 C -0.0353(6) 0.6460(12) 0.0551(6)
H7 H -0.0560 0.7347 0.0829
C4 C 0.0943(6) 0.6550(10) 0.0613(5)
O4 O 0.8211(6) 0.7878(9) 0.6991(4)
O5 O 0.6808(4) 0.8684(6) 0.5944(3)
C5 C 0.1503(5) 0.7579(9) 0.1235(5)
H8 H 0.1081 0.8080 0.1608
C6 C 0.2646(5) 0.7864(8) 0.1307(4)
H9 H 0.2997 0.8532 0.1735
O6 O 0.9808(4) 0.8118(6) 0.5261(3)
O7 O 0.8676(4) 1.0041(5) 0.5218(3)
C7 C 0.3278(4) 0.7158(6) 0.0743(4)
C8 C 0.2754(5) 0.6121(7) 0.0123(4)
H10 H 0.3182 0.5612 -0.0241
O8 O 0.9582(5) 0.9253(8) 0.2682(5)
O9 O 0.8086(3) 1.0185(5) 0.3233(3)
C9 C 0.1588(6) 0.5859(9) 0.0056(5)
H11 H 0.1235 0.5198 -0.0378
C10 C 0.6166(5) 0.7526(7) 0.1596(4)
C11 C 0.6267(5) 0.7524(7) 0.0670(4)
H12 H 0.6936 0.7566 0.0420
C12 C 0.5166(5) 0.7447(7) 0.0199(3)
C13 C 0.4752(5) 0.7458(8) -0.0840(3)
C14 C 0.4076(5) 0.8529(9) -0.1269(4)
H13 H 0.3821 0.9229 -0.0905
C15 C 0.3764(5) 0.8589(9) -0.2231(5)
H14 H 0.3299 0.9308 -0.2528
C16 C 0.4177(5) 0.7528(10) -0.2730(4)
C17 C 0.4849(6) 0.6446(9) -0.2346(4)
H15 H 0.5102 0.5746 -0.2711
C18 C 0.5136(5) 0.6440(7) -0.1383(4)
H16 H 0.5606 0.5721 -0.1091
O10 O 0.6664(3) 0.6905(4) 0.3702(3)
C19 C 0.6296(5) 0.7317(8) 0.4549(4)
H17 H 0.5646 0.7970 0.4397
C20 C 0.7282(5) 0.8069(7) 0.5196(4)
H18 H 0.7907 0.7411 0.5434
C21 C 0.7701(5) 0.9285(7) 0.4673(4)
H19 H 0.7068 0.9968 0.4561
C22 C 0.7943(5) 0.8877(6) 0.3693(4)
H20 H 0.8626 0.8277 0.3740
C23 C 0.6853(5) 0.8100(7) 0.3199(4)
H21 H 0.6185 0.8730 0.3118
C24 C 0.7891(7) 0.3151(10) 0.6060(6)
H22 H 0.7828 0.2516 0.6564
H23 H 0.8580 0.3701 0.6220
H24 H 0.7918 0.2616 0.5502
C25 C 0.6878(7) 0.4111(10) 0.5894(6)
C26 C 0.5921(5) 0.6046(8) 0.4997(5)
H25 H 0.5285 0.5604 0.4581
H26 H 0.5663 0.6307 0.5571
C27 C 0.6865(7) 0.9371(11) 0.7505(5)
H27 H 0.7293 0.9237 0.8127
H28 H 0.6087 0.9064 0.7481
H29 H 0.6871 1.0355 0.7342
C28 C 0.7392(6) 0.8539(10) 0.6839(5)
C29 C 1.0570(6) 1.0182(9) 0.6014(5)
H30 H 1.1263 0.9638 0.6171
H31 H 1.0332 1.0496 0.6579
H32 H 1.0707 1.0988 0.5647
C30 C 0.9674(7) 0.9312(10) 0.5479(6)
C31 C 0.9088(7) 1.1752(8) 0.2416(5)
H33 H 0.9720 1.1781 0.2085
H34 H 0.9229 1.2398 0.2935
H35 H 0.8395 1.2020 0.2000
C32 C 0.8957(6) 1.0240(10) 0.2781(5)
loop_
_geom_bond_atom_site_label_1
_geom_bond_atom_site_label_2
_geom_bond_site_symmetry_1
_geom_bond_site_symmetry_2
F1 C16 1_555 1_555
O1 C10 1_555 1_555
N1 N2 1_555 1_555
C1 H1 1_555 1_555
H2 C1 1_555 1_555
H3 C1 1_555 1_555
N2 C7 1_555 1_555
O2 C25 1_555 1_555
C2 H4 1_555 1_555
H5 C2 1_555 1_555
H6 C2 1_555 1_555
O3 C25 1_555 1_555
C3 C1 1_555 1_555
H7 C3 1_555 1_555
C4 C3 1_555 1_555
O4 C28 1_555 1_555
O5 C20 1_555 1_555
C5 C4 1_555 1_555
H8 C5 1_555 1_555
C6 C5 1_555 1_555
H9 C6 1_555 1_555
O6 C30 1_555 1_555
O7 C21 1_555 1_555
C7 C6 1_555 1_555
C8 C7 1_555 1_555
H10 C8 1_555 1_555
O8 C32 1_555 1_555
O9 C22 1_555 1_555
C9 C4 1_555 1_555
H11 C9 1_555 1_555
C10 N1 1_555 1_555
C11 C10 1_555 1_555
H12 C11 1_555 1_555
C12 N2 1_555 1_555
C13 C12 1_555 1_555
C14 C13 1_555 1_555
H13 C14 1_555 1_555
C15 C14 1_555 1_555
H14 C15 1_555 1_555
C16 C15 1_555 1_555
C17 C16 1_555 1_555
H15 C17 1_555 1_555
C18 C13 1_555 1_555
H16 C18 1_555 1_555
O10 C19 1_555 1_555
C19 H17 1_555 1_555
C20 C19 1_555 1_555
H18 C20 1_555 1_555
C21 C20 1_555 1_555
H19 C21 1_555 1_555
C22 C21 1_555 1_555
H20 C22 1_555 1_555
C23 O1 1_555 1_555
H21 C23 1_555 1_555
C24 H22 1_555 1_555
H23 C24 1_555 1_555
H24 C24 1_555 1_555
C25 C24 1_555 1_555
C26 O3 1_555 1_555
H25 C26 1_555 1_555
H26 C26 1_555 1_555
C27 H27 1_555 1_555
H28 C27 1_555 1_555
H29 C27 1_555 1_555
C28 O5 1_555 1_555
C29 H30 1_555 1_555
H31 C29 1_555 1_555
H32 C29 1_555 1_555
C30 O7 1_555 1_555
C31 H33 1_555 1_555
H34 C31 1_555 1_555
H35 C31 1_555 1_555
C32 O9 1_555 1_555
C2 C3 1_555 1_555
C8 C9 1_555 1_555
C11 C12 1_555 1_555
C17 C18 1_555 1_555
O10 C23 1_555 1_555
C19 C26 1_555 1_555
C22 C23 1_555 1_555
C27 C28 1_555 1_555
C29 C30 1_555 1_555
C31 C32 1_555 1_555

#END
