
#######################################################################
#
#                 Cambridge Crystallographic Data Centre
#                                CCDC 
#
#######################################################################
#
# If this CIF has been generated from an entry in the Cambridge 
# Structural Database, then it will include bibliographic, chemical, 
# crystal, experimental, refinement or atomic coordinate data resulting 
# from the CCDC's data processing and validation procedures.
#
#######################################################################

data_KACRUC01
_chemical_formula_moiety         'C11 H12 O3'
_chemical_name_systematic        
3-Hydroxy-4,4-dimethyl-3,4-dihydro-2-benzopyran-1-one
_symmetry_cell_setting           monoclinic
_symmetry_space_group_name_H-M   'P 21/c'
_symmetry_Int_Tables_number      14
_space_group_name_Hall           '-P 2ybc'
loop_
_symmetry_equiv_pos_site_id
_symmetry_equiv_pos_as_xyz
1 x,y,z
2 x,1/2-y,1/2+z
3 -x,-y,-z
4 -x,1/2+y,1/2-z
_cell_length_a                   23.668(6)
_cell_length_b                   11.749(4)
_cell_length_c                   7.2148(19)
_cell_angle_alpha                90
_cell_angle_beta                 96.70(2)
_cell_angle_gamma                90
_cell_volume                     1992.56
_exptl_crystal_colour            colorless
_exptl_crystal_description       'thin prism'
_cell_formula_units_Z            8
_exptl_crystal_recrystallization_method sublimation
loop_
_atom_site_label
_atom_site_type_symbol
_atom_site_fract_x
_atom_site_fract_y
_atom_site_fract_z
O1 O 0.03614(15) 0.8129(3) 0.0488(6)
O2 O 0.03154(14) 0.9632(3) 0.2296(6)
O3 O 0.06859(14) 1.1331(3) 0.1399(5)
H1 H 0.0381 1.1551 0.0860
C1 C 0.0604(2) 0.8880(4) 0.1396(9)
C2 C 0.0588(2) 1.0692(5) 0.2961(10)
H2 H 0.0322(15) 1.104(3) 0.374(5)
C3 C 0.1161(2) 1.0435(4) 0.4088(8)
C4 C 0.1505(2) 0.9707(4) 0.2946(7)
C5 C 0.2407(2) 0.9063(4) 0.2088(8)
H3 H 0.2802 0.9093 0.2245
C6 C 0.2099(2) 0.9731(4) 0.3159(6)
H4 H 0.2289 1.0212 0.4046
C7 C 0.2128(3) 0.8348(4) 0.0784(8)
H5 H 0.2336 0.7891 0.0060
C8 C 0.1541(3) 0.8301(4) 0.0532(7)
H6 H 0.1353 0.7825 -0.0368
C9 C 0.1235(2) 0.8978(4) 0.1646(7)
C10 C 0.14356(19) 1.1594(4) 0.4641(7)
H7 H 0.1205 1.1993 0.5438
H8 H 0.1465 1.2037 0.3538
H9 H 0.1808 1.1475 0.5292
C11 C 0.1045(2) 0.9805(4) 0.5873(7)
H10 H 0.0865 0.9089 0.5547
H11 H 0.0800 1.0259 0.6546
H12 H 0.1398 0.9674 0.6642
O4 O 0.50347(13) 0.3229(3) 0.1850(4)
O5 O 0.47444(11) 0.4999(2) 0.1905(4)
O6 O 0.40475(13) 0.5665(3) -0.0385(4)
H13 H 0.4281 0.5908 -0.1040
C12 C 0.4643(2) 0.3876(4) 0.1985(7)
C13 C 0.4260(2) 0.5778(4) 0.1483(7)
H14 H 0.4428(14) 0.6535(15) 0.170(5)
C14 C 0.38021(19) 0.5540(4) 0.2719(6)
C15 C 0.3641(2) 0.4287(4) 0.2557(6)
C16 C 0.3103(2) 0.3898(4) 0.2822(6)
H15 H 0.2815 0.4411 0.3009
C17 C 0.2996(2) 0.2710(5) 0.2805(7)
H16 H 0.2635 0.2448 0.2965
C18 C 0.3419(2) 0.1938(4) 0.2555(6)
H17 H 0.3346 0.1161 0.2584
C19 C 0.3952(2) 0.2329(4) 0.2262(6)
H18 H 0.4236 0.1815 0.2051
C20 C 0.4064(2) 0.3499(4) 0.2282(6)
C21 C 0.33047(17) 0.6351(3) 0.2150(6)
H19 H 0.3152 0.6202 0.0882
H20 H 0.3437 0.7123 0.2259
H21 H 0.3014 0.6235 0.2953
C22 C 0.40349(18) 0.5782(3) 0.4759(5)
H22 H 0.4349 0.5283 0.5130
H23 H 0.3741 0.5655 0.5546
H24 H 0.4160 0.6558 0.4877
loop_
_geom_bond_atom_site_label_1
_geom_bond_atom_site_label_2
_geom_bond_site_symmetry_1
_geom_bond_site_symmetry_2
O1 C1 1_555 1_555
O2 C1 1_555 1_555
O3 H1 1_555 1_555
C1 C9 1_555 1_555
C2 O2 1_555 1_555
H2 C2 1_555 1_555
C3 C2 1_555 1_555
C4 C3 1_555 1_555
C5 H3 1_555 1_555
C6 C4 1_555 1_555
H4 C6 1_555 1_555
C7 C5 1_555 1_555
H5 C7 1_555 1_555
C8 C7 1_555 1_555
H6 C8 1_555 1_555
C9 C4 1_555 1_555
C10 C3 1_555 1_555
H7 C10 1_555 1_555
H8 C10 1_555 1_555
H9 C10 1_555 1_555
C11 C3 1_555 1_555
H10 C11 1_555 1_555
H11 C11 1_555 1_555
H12 C11 1_555 1_555
O4 C12 1_555 1_555
O5 C12 1_555 1_555
O6 H13 1_555 1_555
C12 C20 1_555 1_555
C13 O5 1_555 1_555
H14 C13 1_555 1_555
C14 C13 1_555 1_555
C15 C14 1_555 1_555
C16 C15 1_555 1_555
H15 C16 1_555 1_555
C17 C16 1_555 1_555
H16 C17 1_555 1_555
C18 C17 1_555 1_555
H17 C18 1_555 1_555
C19 C18 1_555 1_555
H18 C19 1_555 1_555
C20 C15 1_555 1_555
C21 C14 1_555 1_555
H19 C21 1_555 1_555
H20 C21 1_555 1_555
H21 C21 1_555 1_555
C22 C14 1_555 1_555
H22 C22 1_555 1_555
H23 C22 1_555 1_555
H24 C22 1_555 1_555
O3 C2 1_555 1_555
C5 C6 1_555 1_555
C8 C9 1_555 1_555
O6 C13 1_555 1_555
C19 C20 1_555 1_555

#END
