
#######################################################################
#
#                 Cambridge Crystallographic Data Centre
#                                CCDC 
#
#######################################################################
#
# If this CIF has been generated from an entry in the Cambridge 
# Structural Database, then it will include bibliographic, chemical, 
# crystal, experimental, refinement or atomic coordinate data resulting 
# from the CCDC's data processing and validation procedures.
#
#######################################################################

data_KACSAJ
_chemical_formula_moiety         'C10 H10 O4'
_chemical_name_systematic        
3-Hydroxy-6-methoxy-3,4-dihydro-2-benzopyran-1-one
_symmetry_cell_setting           monoclinic
_symmetry_space_group_name_H-M   'P 21/c'
_symmetry_Int_Tables_number      14
_space_group_name_Hall           '-P 2ybc'
loop_
_symmetry_equiv_pos_site_id
_symmetry_equiv_pos_as_xyz
1 x,y,z
2 x,1/2-y,1/2+z
3 -x,-y,-z
4 -x,1/2+y,1/2-z
_cell_length_a                   14.185(7)
_cell_length_b                   4.105(4)
_cell_length_c                   15.598(13)
_cell_angle_alpha                90
_cell_angle_beta                 98.59(6)
_cell_angle_gamma                90
_cell_volume                     898.074
_exptl_crystal_colour            colorless
_exptl_crystal_description       'thin plate'
_chemical_melting_point          '420.8 K'
_cell_formula_units_Z            4
loop_
_atom_site_label
_atom_site_type_symbol
_atom_site_fract_x
_atom_site_fract_y
_atom_site_fract_z
O1 O 0.69768(13) 0.0038(5) 0.31981(12)
O2 O 0.57814(11) 0.1025(4) 0.21785(10)
O3 O 0.44897(12) 0.1698(5) 0.11296(11)
H1 H 0.4106 0.2453 0.1420
O4 O 0.91863(12) 0.7115(5) 0.04701(11)
C1 C 0.67079(18) 0.1289(7) 0.24926(16)
C2 C 0.53813(18) 0.2973(7) 0.14120(15)
H2 H 0.5347(15) 0.536(6) 0.1666(14)
C3 C 0.60102(15) 0.2635(7) 0.07277(15)
H3 H 0.5993 0.0404 0.0521
H4 H 0.5781 0.4040 0.0241
C4 C 0.70107(16) 0.3541(6) 0.10899(15)
C5 C 0.76158(17) 0.4927(7) 0.05699(16)
H5 H 0.7398 0.5324 -0.0013
C6 C 0.85407(18) 0.5717(7) 0.09160(16)
C7 C 0.88747(18) 0.5044(8) 0.17885(17)
H6 H 0.9501 0.5536 0.2021
C8 C 0.82770(18) 0.3660(7) 0.22986(16)
H7 H 0.8499 0.3223 0.2879
C9 C 0.73383(17) 0.2901(6) 0.19551(15)
C10 C 0.8884(2) 0.7870(8) -0.04187(18)
H8 H 0.9403 0.8824 -0.0660
H9 H 0.8362 0.9383 -0.0466
H10 H 0.8681 0.5912 -0.0729
loop_
_geom_bond_atom_site_label_1
_geom_bond_atom_site_label_2
_geom_bond_site_symmetry_1
_geom_bond_site_symmetry_2
O1 C1 1_555 1_555
O2 C1 1_555 1_555
O3 H1 1_555 1_555
O4 C6 1_555 1_555
C1 C9 1_555 1_555
C2 O2 1_555 1_555
H2 C2 1_555 1_555
C3 C2 1_555 1_555
H3 C3 1_555 1_555
H4 C3 1_555 1_555
C4 C3 1_555 1_555
C5 C4 1_555 1_555
H5 C5 1_555 1_555
C6 C5 1_555 1_555
C7 C6 1_555 1_555
H6 C7 1_555 1_555
C8 C7 1_555 1_555
H7 C8 1_555 1_555
C9 C4 1_555 1_555
C10 O4 1_555 1_555
H8 C10 1_555 1_555
H9 C10 1_555 1_555
H10 C10 1_555 1_555
O3 C2 1_555 1_555
C8 C9 1_555 1_555

#END
