
#######################################################################
#
#                 Cambridge Crystallographic Data Centre
#                                CCDC 
#
#######################################################################
#
# If this CIF has been generated from an entry in the Cambridge 
# Structural Database, then it will include bibliographic, chemical, 
# crystal, experimental, refinement or atomic coordinate data resulting 
# from the CCDC's data processing and validation procedures.
#
#######################################################################

data_KACTOA
_chemical_formula_moiety         'C13 H9 N3 O4 S1'
_chemical_name_systematic        
4-((2,4-dioxo-1,3-thiazolidin-5-ylidene)methyl)-3-(4-methylphenyl)-1,2,3-oxadiazol-3-ium-5-olate
_symmetry_cell_setting           monoclinic
_symmetry_space_group_name_H-M   'P 21/c'
_symmetry_Int_Tables_number      14
_space_group_name_Hall           '-P 2ybc'
loop_
_symmetry_equiv_pos_site_id
_symmetry_equiv_pos_as_xyz
1 x,y,z
2 -x,1/2+y,1/2-z
3 -x,-y,-z
4 x,1/2-y,1/2+z
_cell_length_a                   7.46360(10)
_cell_length_b                   22.0840(5)
_cell_length_c                   8.2955(2)
_cell_angle_alpha                90
_cell_angle_beta                 98.2900(14)
_cell_angle_gamma                90
_cell_volume                     1353.03
_cell_formula_units_Z            4
loop_
_atom_site_label
_atom_site_type_symbol
_atom_site_fract_x
_atom_site_fract_y
_atom_site_fract_z
S1 S 0.01824(6) -0.04994(2) 0.19509(6)
O1 O -0.31065(18) 0.09417(7) 0.46956(18)
O2 O -0.28311(19) 0.00796(8) 0.3242(2)
O3 O 0.39048(18) 0.05911(6) 0.10463(18)
O4 O 0.1817(2) -0.13453(7) 0.0446(2)
N1 N -0.0519(2) 0.13427(7) 0.47007(19)
N2 N -0.2042(2) 0.14276(8) 0.5276(2)
N3 N 0.3153(2) -0.04092(7) 0.0689(2)
H1 H 0.4066 -0.0502 0.0214
C1 C -0.2148(3) 0.05429(9) 0.3801(2)
C2 C -0.0447(2) 0.08324(8) 0.3799(2)
C3 C 0.1020(3) 0.06989(9) 0.2934(2)
H2 H 0.1872 0.1005 0.2921
C4 C 0.1340(2) 0.01899(8) 0.2131(2)
C5 C 0.2940(2) 0.01618(8) 0.1255(2)
C6 C 0.1863(3) -0.08284(9) 0.0905(2)
C7 C 0.0955(3) 0.17531(8) 0.5226(2)
C8 C 0.0724(3) 0.23691(9) 0.4997(3)
H3 H -0.0369 0.2526 0.4488
C9 C 0.2154(4) 0.27449(10) 0.5543(3)
H4 H 0.2021 0.3160 0.5380
C10 C 0.3787(3) 0.25223(10) 0.6328(3)
C11 C 0.3966(3) 0.18985(10) 0.6541(3)
H5 H 0.5053 0.1741 0.7063
C12 C 0.2559(3) 0.15088(9) 0.5994(3)
H6 H 0.2688 0.1093 0.6138
C13 C 0.5344(4) 0.29295(13) 0.6942(4)
H7 H 0.6345 0.2690 0.7443
H8 H 0.4984 0.3206 0.7728
H9 H 0.5700 0.3153 0.6047
loop_
_geom_bond_atom_site_label_1
_geom_bond_atom_site_label_2
_geom_bond_site_symmetry_1
_geom_bond_site_symmetry_2
S1 C4 1_555 1_555
O1 N2 1_555 1_555
O2 C1 1_555 1_555
O3 C5 1_555 1_555
O4 C6 1_555 1_555
N1 N2 1_555 1_555
N3 H1 1_555 1_555
C1 O1 1_555 1_555
C2 N1 1_555 1_555
C3 C2 1_555 1_555
H2 C3 1_555 1_555
C4 C3 1_555 1_555
C5 N3 1_555 1_555
C6 S1 1_555 1_555
C7 N1 1_555 1_555
C8 C7 1_555 1_555
H3 C8 1_555 1_555
C9 C8 1_555 1_555
H4 C9 1_555 1_555
C10 C9 1_555 1_555
C11 C10 1_555 1_555
H5 C11 1_555 1_555
C12 C7 1_555 1_555
H6 C12 1_555 1_555
C13 C10 1_555 1_555
H7 C13 1_555 1_555
H8 C13 1_555 1_555
H9 C13 1_555 1_555
N3 C6 1_555 1_555
C1 C2 1_555 1_555
C4 C5 1_555 1_555
C11 C12 1_555 1_555

#END
