
#######################################################################
#
#                 Cambridge Crystallographic Data Centre
#                                CCDC 
#
#######################################################################
#
# If this CIF has been generated from an entry in the Cambridge 
# Structural Database, then it will include bibliographic, chemical, 
# crystal, experimental, refinement or atomic coordinate data resulting 
# from the CCDC's data processing and validation procedures.
#
#######################################################################

data_KACTEQ
_chemical_formula_moiety         'C33 H30 Br1 N1 O5'
_chemical_name_systematic        
'dimethyl 1-benzyl-4-(2-(4-bromophenyl)-2-oxoethyl)-2-phenyl-1,4,5,7-tetrahydro-6H-indole-6,6-dicarboxylate unknown solvate'
_symmetry_cell_setting           orthorhombic
_symmetry_space_group_name_H-M   'I 2 2 2'
_symmetry_Int_Tables_number      23
_space_group_name_Hall           'I 2 2'
loop_
_symmetry_equiv_pos_site_id
_symmetry_equiv_pos_as_xyz
1 x,y,z
2 -x,-y,z
3 x,-y,-z
4 -x,y,-z
5 1/2+x,1/2+y,1/2+z
6 1/2-x,1/2-y,1/2+z
7 1/2+x,1/2-y,1/2-z
8 1/2-x,1/2+y,1/2-z
_cell_length_a                   15.713(12)
_cell_length_b                   28.08(2)
_cell_length_c                   28.507(18)
_cell_angle_alpha                90
_cell_angle_beta                 90
_cell_angle_gamma                90
_cell_volume                     12577.9
_exptl_crystal_colour            colorless
_exptl_crystal_description       prismatic
_cell_formula_units_Z            16
loop_
_atom_site_label
_atom_site_type_symbol
_atom_site_fract_x
_atom_site_fract_y
_atom_site_fract_z
Br1 Br 0.13221(9) 0.51121(4) 0.08640(4)
N1 N 0.3564(4) 0.8051(2) 0.3350(2)
O1 O 0.0875(5) 0.6504(3) 0.2774(3)
O2 O 0.3572(7) 0.6157(3) 0.3953(3)
O3 O 0.3234(6) 0.6575(3) 0.4556(2)
O4 O 0.1452(5) 0.6749(3) 0.4057(3)
O5 O 0.2022(5) 0.7411(3) 0.4253(3)
C1 C 0.1437(6) 0.6523(3) 0.2490(3)
C2 C 0.2140(6) 0.6881(3) 0.2527(3)
H1 H 0.2024 0.7144 0.2316
H2 H 0.2670 0.6734 0.2429
C3 C 0.2236(6) 0.7070(3) 0.3028(3)
H3 H 0.1667 0.7127 0.3157
C4 C 0.2685(6) 0.6706(3) 0.3334(3)
H4 H 0.3223 0.6622 0.3189
H5 H 0.2340 0.6420 0.3350
C5 C 0.2854(6) 0.6884(3) 0.3835(3)
C6 C 0.3479(6) 0.7291(3) 0.3815(3)
H6 H 0.4050 0.7168 0.3770
H7 H 0.3467 0.7465 0.4109
C7 C 0.3249(6) 0.7621(3) 0.3414(3)
C8 C 0.2735(6) 0.7526(3) 0.3049(3)
C9 C 0.2754(6) 0.7905(3) 0.2755(3)
H8 H 0.2463 0.7928 0.2472
C10 C 0.3252(6) 0.8237(3) 0.2937(3)
C11 C 0.3466(5) 0.8698(3) 0.2755(3)
C12 C 0.3741(7) 0.8751(3) 0.2300(3)
H9 H 0.3810 0.8480 0.2116
C13 C 0.3916(8) 0.9184(4) 0.2108(4)
H10 H 0.4113 0.9209 0.1802
C14 C 0.3800(9) 0.9562(4) 0.2365(4)
H11 H 0.3897 0.9859 0.2232
C15 C 0.3544(9) 0.9539(4) 0.2817(5)
H12 H 0.3490 0.9817 0.2992
C16 C 0.3364(7) 0.9110(3) 0.3016(4)
H13 H 0.3175 0.9094 0.3325
C17 C 0.4143(6) 0.8293(3) 0.3679(3)
H14 H 0.4479 0.8522 0.3503
H15 H 0.4532 0.8058 0.3806
C18 C 0.3735(7) 0.8548(3) 0.4081(3)
C19 C 0.4222(6) 0.8791(3) 0.4384(3)
H16 H 0.4807 0.8793 0.4337
C20 C 0.3913(9) 0.9026(4) 0.4744(4)
H17 H 0.4275 0.9172 0.4958
C21 C 0.3040(10) 0.9053(4) 0.4799(4)
H18 H 0.2807 0.9230 0.5042
C22 C 0.2522(8) 0.8816(5) 0.4493(4)
H19 H 0.1934 0.8837 0.4524
C23 C 0.2865(7) 0.8552(3) 0.4143(4)
H20 H 0.2516 0.8373 0.3946
C24 C 0.3261(7) 0.6503(4) 0.4115(4)
C25 C 0.3584(9) 0.6209(5) 0.4866(4)
H21 H 0.3323 0.5908 0.4796
H22 H 0.3471 0.6292 0.5187
H23 H 0.4187 0.6186 0.4819
C26 C 0.2046(8) 0.6987(4) 0.4056(3)
C27 C 0.1222(10) 0.7564(6) 0.4461(5)
H24 H 0.0955 0.7794 0.4261
H25 H 0.1330 0.7704 0.4762
H26 H 0.0853 0.7294 0.4498
C28 C 0.1440(5) 0.6200(3) 0.2089(3)
C29 C 0.0714(6) 0.5936(3) 0.1990(4)
H27 H 0.0236 0.5971 0.2179
C30 C 0.0688(6) 0.5627(3) 0.1621(3)
H28 H 0.0192 0.5456 0.1563
C31 C 0.1358(7) 0.5564(3) 0.1344(3)
C32 C 0.2080(7) 0.5805(3) 0.1408(3)
H29 H 0.2545 0.5760 0.1211
C33 C 0.2113(6) 0.6127(3) 0.1782(3)
H30 H 0.2610 0.6301 0.1827
Br2 Br 0.37895(9) 0.89430(5) 0.01070(4)
N2 N 0.6182(5) 0.6760(2) 0.3225(2)
O6 O 0.3469(5) 0.7103(3) 0.1610(2)
O7 O 0.4032(8) 0.5919(4) 0.2138(6)
O8 O 0.4727(5) 0.5690(4) 0.2729(3)
O9 O 0.5941(11) 0.5920(5) 0.1407(5)
O10 O 0.6061(8) 0.5436(3) 0.1925(3)
C34 C 0.4007(7) 0.7410(4) 0.1612(3)
C35 C 0.4674(6) 0.7413(3) 0.1986(3)
H31 H 0.5216 0.7495 0.1844
H32 H 0.4537 0.7660 0.2212
C36 C 0.4761(6) 0.6955(3) 0.2234(3)
H33 H 0.4191 0.6840 0.2315
C37 C 0.5184(7) 0.6588(4) 0.1901(3)
H34 H 0.4792 0.6509 0.1650
H35 H 0.5688 0.6728 0.1761
C38 C 0.5432(7) 0.6134(3) 0.2160(3)
C39 C 0.6081(6) 0.6226(3) 0.2532(3)
H36 H 0.6128 0.5950 0.2734
H37 H 0.6632 0.6281 0.2388
C40 C 0.5840(6) 0.6638(3) 0.2807(3)
C41 C 0.5279(6) 0.6978(3) 0.2673(3)
C42 C 0.5321(6) 0.7324(3) 0.3028(3)
H38 H 0.5018 0.7608 0.3029
C43 C 0.5856(6) 0.7187(3) 0.3363(3)
C44 C 0.6046(6) 0.7397(3) 0.3827(3)
C45 C 0.6328(7) 0.7866(3) 0.3840(3)
H39 H 0.6431 0.8027 0.3561
C46 C 0.6453(7) 0.8093(3) 0.4253(3)
H40 H 0.6614 0.8412 0.4250
C47 C 0.6353(8) 0.7870(4) 0.4671(3)
H41 H 0.6457 0.8027 0.4952
C48 C 0.6103(9) 0.7423(4) 0.4664(3)
H42 H 0.6029 0.7259 0.4945
C49 C 0.5949(7) 0.7197(3) 0.4241(3)
H43 H 0.5764 0.6883 0.4249
C50 C 0.6842(6) 0.6505(3) 0.3455(3)
H44 H 0.7131 0.6720 0.3668
H45 H 0.7252 0.6404 0.3221
C51 C 0.6562(6) 0.6077(3) 0.3725(3)
C52 C 0.7163(8) 0.5781(4) 0.3907(4)
H46 H 0.7735 0.5838 0.3845
C53 C 0.6938(10) 0.5406(4) 0.4177(6)
H47 H 0.7364 0.5212 0.4299
C54 C 0.6137(12) 0.5303(4) 0.4274(4)
H48 H 0.6000 0.5048 0.4468
C55 C 0.5512(10) 0.5582(4) 0.4082(4)
H49 H 0.4943 0.5508 0.4132
C56 C 0.5738(8) 0.5989(4) 0.3802(4)
H50 H 0.5320 0.6187 0.3678
C57 C 0.4672(9) 0.5909(4) 0.2329(6)
C58 C 0.3985(10) 0.5434(5) 0.2918(5)
H51 H 0.3589 0.5371 0.2669
H52 H 0.3715 0.5625 0.3154
H53 H 0.4168 0.5139 0.3054
C59 C 0.5809(11) 0.5804(6) 0.1796(5)
C60 C 0.6482(11) 0.5132(5) 0.1600(6)
H54 H 0.6067 0.4973 0.1410
H55 H 0.6811 0.4900 0.1768
H56 H 0.6851 0.5318 0.1404
C61 C 0.3974(6) 0.7779(3) 0.1253(3)
C62 C 0.3376(6) 0.7757(4) 0.0902(3)
H57 H 0.2995 0.7504 0.0896
C63 C 0.3327(7) 0.8101(4) 0.0558(3)
H58 H 0.2916 0.8081 0.0324
C64 C 0.3887(7) 0.8470(4) 0.0566(3)
C65 C 0.4476(7) 0.8494(4) 0.0906(4)
H59 H 0.4865 0.8744 0.0903
C66 C 0.4523(7) 0.8165(3) 0.1255(3)
H60 H 0.4922 0.8199 0.1494
loop_
_geom_bond_atom_site_label_1
_geom_bond_atom_site_label_2
_geom_bond_site_symmetry_1
_geom_bond_site_symmetry_2
Br1 C31 1_555 1_555
N1 C7 1_555 1_555
O1 C1 1_555 1_555
O2 C24 1_555 1_555
O3 C24 1_555 1_555
O4 C26 1_555 1_555
O5 C26 1_555 1_555
C1 C2 1_555 1_555
C2 H1 1_555 1_555
H2 C2 1_555 1_555
C3 C2 1_555 1_555
H3 C3 1_555 1_555
C4 C3 1_555 1_555
H4 C4 1_555 1_555
H5 C4 1_555 1_555
C5 C4 1_555 1_555
C6 C5 1_555 1_555
H6 C6 1_555 1_555
H7 C6 1_555 1_555
C7 C6 1_555 1_555
C8 C3 1_555 1_555
C9 C8 1_555 1_555
H8 C9 1_555 1_555
C10 N1 1_555 1_555
C11 C10 1_555 1_555
C12 C11 1_555 1_555
H9 C12 1_555 1_555
C13 C12 1_555 1_555
H10 C13 1_555 1_555
C14 C13 1_555 1_555
H11 C14 1_555 1_555
C15 C14 1_555 1_555
H12 C15 1_555 1_555
C16 C11 1_555 1_555
H13 C16 1_555 1_555
C17 N1 1_555 1_555
H14 C17 1_555 1_555
H15 C17 1_555 1_555
C18 C17 1_555 1_555
C19 C18 1_555 1_555
H16 C19 1_555 1_555
C20 C19 1_555 1_555
H17 C20 1_555 1_555
C21 C20 1_555 1_555
H18 C21 1_555 1_555
C22 C21 1_555 1_555
H19 C22 1_555 1_555
C23 C18 1_555 1_555
H20 C23 1_555 1_555
C24 C5 1_555 1_555
C25 O3 1_555 1_555
H21 C25 1_555 1_555
H22 C25 1_555 1_555
H23 C25 1_555 1_555
C26 C5 1_555 1_555
C27 O5 1_555 1_555
H24 C27 1_555 1_555
H25 C27 1_555 1_555
H26 C27 1_555 1_555
C28 C1 1_555 1_555
C29 C28 1_555 1_555
H27 C29 1_555 1_555
C30 C29 1_555 1_555
H28 C30 1_555 1_555
C31 C30 1_555 1_555
C32 C31 1_555 1_555
H29 C32 1_555 1_555
C33 C28 1_555 1_555
H30 C33 1_555 1_555
Br2 C64 1_555 1_555
N2 C40 1_555 1_555
O6 C34 1_555 1_555
O7 C57 1_555 1_555
O8 C57 1_555 1_555
O9 C59 1_555 1_555
O10 C59 1_555 1_555
C34 C35 1_555 1_555
C35 H31 1_555 1_555
H32 C35 1_555 1_555
C36 C35 1_555 1_555
H33 C36 1_555 1_555
C37 C36 1_555 1_555
H34 C37 1_555 1_555
H35 C37 1_555 1_555
C38 C37 1_555 1_555
C39 C38 1_555 1_555
H36 C39 1_555 1_555
H37 C39 1_555 1_555
C40 C39 1_555 1_555
C41 C36 1_555 1_555
C42 C41 1_555 1_555
H38 C42 1_555 1_555
C43 N2 1_555 1_555
C44 C43 1_555 1_555
C45 C44 1_555 1_555
H39 C45 1_555 1_555
C46 C45 1_555 1_555
H40 C46 1_555 1_555
C47 C46 1_555 1_555
H41 C47 1_555 1_555
C48 C47 1_555 1_555
H42 C48 1_555 1_555
C49 C44 1_555 1_555
H43 C49 1_555 1_555
C50 N2 1_555 1_555
H44 C50 1_555 1_555
H45 C50 1_555 1_555
C51 C50 1_555 1_555
C52 C51 1_555 1_555
H46 C52 1_555 1_555
C53 C52 1_555 1_555
H47 C53 1_555 1_555
C54 C53 1_555 1_555
H48 C54 1_555 1_555
C55 C54 1_555 1_555
H49 C55 1_555 1_555
C56 C51 1_555 1_555
H50 C56 1_555 1_555
C57 C38 1_555 1_555
C58 O8 1_555 1_555
H51 C58 1_555 1_555
H52 C58 1_555 1_555
H53 C58 1_555 1_555
C59 C38 1_555 1_555
C60 O10 1_555 1_555
H54 C60 1_555 1_555
H55 C60 1_555 1_555
H56 C60 1_555 1_555
C61 C34 1_555 1_555
C62 C61 1_555 1_555
H57 C62 1_555 1_555
C63 C62 1_555 1_555
H58 C63 1_555 1_555
C64 C63 1_555 1_555
C65 C64 1_555 1_555
H59 C65 1_555 1_555
C66 C61 1_555 1_555
H60 C66 1_555 1_555
C7 C8 1_555 1_555
C9 C10 1_555 1_555
C15 C16 1_555 1_555
C22 C23 1_555 1_555
C32 C33 1_555 1_555
C40 C41 1_555 1_555
C42 C43 1_555 1_555
C48 C49 1_555 1_555
C55 C56 1_555 1_555
C65 C66 1_555 1_555

#END
