
#######################################################################
#
#                 Cambridge Crystallographic Data Centre
#                                CCDC 
#
#######################################################################
#
# If this CIF has been generated from an entry in the Cambridge 
# Structural Database, then it will include bibliographic, chemical, 
# crystal, experimental, refinement or atomic coordinate data resulting 
# from the CCDC's data processing and validation procedures.
#
#######################################################################

data_KACVES
_chemical_compound_source        'commercially available tea tree oil'
_chemical_name_common            p-Menthane-1,2,4-triol
_chemical_formula_moiety         'C10 H20 O3'
_chemical_name_systematic        4-Isopropyl-1-methylcyclohexane-1,2,4-triol
_symmetry_cell_setting           monoclinic
_symmetry_space_group_name_H-M   'P 21/c'
_symmetry_Int_Tables_number      14
_space_group_name_Hall           '-P 2ybc'
loop_
_symmetry_equiv_pos_site_id
_symmetry_equiv_pos_as_xyz
1 x,y,z
2 -x,1/2+y,1/2-z
3 -x,-y,-z
4 x,1/2-y,1/2+z
_cell_length_a                   6.326(2)
_cell_length_b                   15.9917(5)
_cell_length_c                   11.7653(5)
_cell_angle_alpha                90
_cell_angle_beta                 117.576(2)
_cell_angle_gamma                90
_cell_volume                     1055.01
_exptl_crystal_colour            colorless
_exptl_crystal_description       block
_cell_formula_units_Z            4
_exptl_crystal_recrystallization_method acetone
loop_
_atom_site_label
_atom_site_type_symbol
_atom_site_fract_x
_atom_site_fract_y
_atom_site_fract_z
C1 C 0.07841(19) 0.75370(7) 0.80388(10)
C2 C 0.01434(19) 0.71630(7) 0.67145(10)
H1 H -0.1597 0.7161 0.6206
C3 C 0.10327(19) 0.62664(7) 0.68166(10)
H2 H 0.0649 0.6065 0.5965
H3 H 0.0198 0.5916 0.7152
C4 C 0.37293(18) 0.61799(7) 0.76822(10)
C5 C 0.43835(18) 0.65677(7) 0.89989(10)
H4 H 0.3714 0.6227 0.9435
H5 H 0.6104 0.6565 0.9513
C6 C 0.34716(19) 0.74645(7) 0.88973(10)
H6 H 0.3853 0.7666 0.9748
H7 H 0.4290 0.7819 0.8558
C7 C -0.0085(2) 0.84341(8) 0.79261(12)
H8 H 0.0752 0.8779 0.7599
H9 H -0.1765 0.8456 0.7352
H10 H 0.0208 0.8634 0.8756
C8 C 0.4493(2) 0.52496(7) 0.77948(12)
H11 H 0.3474 0.4933 0.8064
C9 C 0.4097(3) 0.48912(8) 0.65061(14)
H12 H 0.2475 0.4986 0.5875
H13 H 0.5152 0.5162 0.6242
H14 H 0.4416 0.4301 0.6592
C10 C 0.7074(2) 0.50987(8) 0.87965(13)
H15 H 0.7325 0.5323 0.9606
H16 H 0.7391 0.4509 0.8882
H17 H 0.8128 0.5369 0.8531
O1 O -0.04714(13) 0.70163(5) 0.85303(7)
H18 H -0.008(3) 0.7149(9) 0.9274(16)
O2 O 0.11179(16) 0.76834(5) 0.60717(8)
H19 H 0.249(3) 0.7511(10) 0.6308(15)
O3 O 0.48338(14) 0.66572(5) 0.70521(7)
H20 H 0.623(3) 0.6740(9) 0.7540(15)
loop_
_geom_bond_atom_site_label_1
_geom_bond_atom_site_label_2
_geom_bond_site_symmetry_1
_geom_bond_site_symmetry_2
C1 C2 1_555 1_555
C2 H1 1_555 1_555
C3 C2 1_555 1_555
H2 C3 1_555 1_555
H3 C3 1_555 1_555
C4 C3 1_555 1_555
C5 C4 1_555 1_555
H4 C5 1_555 1_555
H5 C5 1_555 1_555
C6 C1 1_555 1_555
H6 C6 1_555 1_555
H7 C6 1_555 1_555
C7 C1 1_555 1_555
H8 C7 1_555 1_555
H9 C7 1_555 1_555
H10 C7 1_555 1_555
C8 C4 1_555 1_555
H11 C8 1_555 1_555
C9 C8 1_555 1_555
H12 C9 1_555 1_555
H13 C9 1_555 1_555
H14 C9 1_555 1_555
C10 C8 1_555 1_555
H15 C10 1_555 1_555
H16 C10 1_555 1_555
H17 C10 1_555 1_555
O1 C1 1_555 1_555
H18 O1 1_555 1_555
O2 C2 1_555 1_555
H19 O2 1_555 1_555
O3 C4 1_555 1_555
H20 O3 1_555 1_555
C5 C6 1_555 1_555

#END
