
#######################################################################
#
#                 Cambridge Crystallographic Data Centre
#                                CCDC 
#
#######################################################################
#
# If this CIF has been generated from an entry in the Cambridge 
# Structural Database, then it will include bibliographic, chemical, 
# crystal, experimental, refinement or atomic coordinate data resulting 
# from the CCDC's data processing and validation procedures.
#
#######################################################################

data_KACVUI
_chemical_formula_moiety         'C29 H30 Br1 Cl1 N4 O3 S1'
_chemical_name_systematic        
3-Bromo-4-((4-((4-chlorobenzylidene)amino)-5-phenyl-4H-1,2,4-triazol-3-yl)sulfanyl)-5-((2-isopropyl-5-methylcyclohexyl)oxy)furan-2(5H)-one
_chemical_properties_biological  'anti-cancer activity'
_symmetry_cell_setting           monoclinic
_symmetry_space_group_name_H-M   'C 2'
_symmetry_Int_Tables_number      5
_space_group_name_Hall           'C 2y'
loop_
_symmetry_equiv_pos_site_id
_symmetry_equiv_pos_as_xyz
1 x,y,z
2 -x,y,-z
3 1/2+x,1/2+y,z
4 1/2-x,1/2+y,-z
_cell_length_a                   33.795(5)
_cell_length_b                   8.871(5)
_cell_length_c                   10.039(5)
_cell_angle_alpha                90
_cell_angle_beta                 98.337(5)
_cell_angle_gamma                90
_cell_volume                     2977.84
_exptl_crystal_colour            colorless
_exptl_crystal_description       block
_chemical_melting_point          '191-192 deg.C'
_cell_formula_units_Z            4
loop_
_atom_site_label
_atom_site_type_symbol
_atom_site_fract_x
_atom_site_fract_y
_atom_site_fract_z
Br1 Br 0.807776(14) 1.31485(6) 1.12378(5)
C1 C 0.80300(15) 1.4366(7) 0.5673(5)
H1 H 0.8131 1.3458 0.5404
C2 C 0.80693(17) 1.5663(7) 0.4950(6)
H2 H 0.8202 1.5626 0.4200
C3 C 0.79178(18) 1.7001(7) 0.5313(6)
H3 H 0.7940 1.7865 0.4804
C4 C 0.77317(18) 1.7055(6) 0.6447(6)
H4 H 0.7635 1.7971 0.6714
C5 C 0.76864(15) 1.5792(6) 0.7183(6)
H5 H 0.7554 1.5848 0.7932
C6 C 0.78374(13) 1.4422(5) 0.6813(5)
C7 C 0.77731(12) 1.3029(7) 0.7575(4)
C8 C 0.78534(14) 1.0916(6) 0.8639(5)
C9 C 0.82658(13) 0.9938(5) 1.1021(5)
C10 C 0.82710(13) 1.1218(5) 1.1712(5)
C11 C 0.84493(16) 1.0944(7) 1.3124(6)
C12 C 0.84665(13) 0.8723(5) 1.1943(5)
H6 H 0.8284 0.7876 1.2001
C13 C 0.89235(13) 0.6678(5) 1.1766(5)
H7 H 0.8692 0.6028 1.1489
C14 C 0.90635(16) 0.6441(6) 1.3254(5)
H8 H 0.9288 0.7101 1.3544
H9 H 0.8849 0.6706 1.3758
C15 C 0.91869(19) 0.4828(7) 1.3557(6)
H10 H 0.8954 0.4186 1.3268
C16 C 0.95123(19) 0.4405(8) 1.2710(6)
H11 H 0.9750 0.5004 1.2995
H12 H 0.9583 0.3352 1.2858
C17 C 0.93728(19) 0.4667(6) 1.1223(6)
H13 H 0.9149 0.4005 1.0924
H14 H 0.9588 0.4412 1.0718
C18 C 0.92460(14) 0.6298(5) 1.0926(5)
H15 H 0.9477 0.6929 1.1258
C19 C 0.91303(15) 0.6670(6) 0.9413(5)
H16 H 0.9071 0.7752 0.9366
C20 C 0.87538(18) 0.5884(7) 0.8752(6)
H17 H 0.8687 0.6235 0.7843
H18 H 0.8538 0.6103 0.9246
H19 H 0.8799 0.4815 0.8749
C21 C 0.9479(2) 0.6434(9) 0.8623(7)
H20 H 0.9558 0.5394 0.8675
H21 H 0.9700 0.7053 0.8998
H22 H 0.9397 0.6707 0.7698
C22 C 0.9320(2) 0.4544(9) 1.5043(7)
H23 H 0.9538 0.5202 1.5364
H24 H 0.9404 0.3514 1.5174
H25 H 0.9101 0.4735 1.5531
C23 C 0.85985(15) 1.0961(7) 0.7248(6)
H26 H 0.8425 1.0271 0.6774
C24 C 0.90301(16) 1.0813(6) 0.7251(6)
C25 C 0.92941(19) 1.1578(8) 0.8120(8)
H27 H 0.9204 1.2225 0.8741
C26 C 0.97042(19) 1.1408(9) 0.8098(9)
H28 H 0.9885 1.1999 0.8658
C27 C 0.98407(18) 1.0395(7) 0.7272(8)
C28 C 0.9575(2) 0.9651(9) 0.6391(8)
H29 H 0.9667 0.9005 0.5773
C29 C 0.91665(18) 0.9821(8) 0.6377(7)
H30 H 0.8987 0.9265 0.5780
Cl1 Cl 1.03452(5) 1.0066(2) 0.7357(3)
N1 N 0.74333(11) 1.2692(4) 0.7997(4)
N2 N 0.74837(12) 1.1341(5) 0.8672(4)
N3 N 0.80444(11) 1.1950(4) 0.7922(4)
N4 N 0.84610(12) 1.2017(5) 0.7885(5)
O1 O 0.84916(13) 1.1772(5) 1.4059(4)
O2 O 0.85601(10) 0.9458(4) 1.3228(3)
O3 O 0.88073(7) 0.8247(4) 1.1468(3)
S1 S 0.80831(4) 0.93170(14) 0.94097(14)
loop_
_geom_bond_atom_site_label_1
_geom_bond_atom_site_label_2
_geom_bond_site_symmetry_1
_geom_bond_site_symmetry_2
Br1 C10 1_555 1_555
C1 H1 1_555 1_555
C2 C1 1_555 1_555
H2 C2 1_555 1_555
C3 C2 1_555 1_555
H3 C3 1_555 1_555
C4 C3 1_555 1_555
H4 C4 1_555 1_555
C5 C4 1_555 1_555
H5 C5 1_555 1_555
C6 C1 1_555 1_555
C7 C6 1_555 1_555
C8 N2 1_555 1_555
C9 C10 1_555 1_555
C10 C11 1_555 1_555
C11 O1 1_555 1_555
C12 C9 1_555 1_555
H6 C12 1_555 1_555
C13 H7 1_555 1_555
C14 C13 1_555 1_555
H8 C14 1_555 1_555
H9 C14 1_555 1_555
C15 C14 1_555 1_555
H10 C15 1_555 1_555
C16 C15 1_555 1_555
H11 C16 1_555 1_555
H12 C16 1_555 1_555
C17 C16 1_555 1_555
H13 C17 1_555 1_555
H14 C17 1_555 1_555
C18 C13 1_555 1_555
H15 C18 1_555 1_555
C19 C18 1_555 1_555
H16 C19 1_555 1_555
C20 C19 1_555 1_555
H17 C20 1_555 1_555
H18 C20 1_555 1_555
H19 C20 1_555 1_555
C21 C19 1_555 1_555
H20 C21 1_555 1_555
H21 C21 1_555 1_555
H22 C21 1_555 1_555
C22 C15 1_555 1_555
H23 C22 1_555 1_555
H24 C22 1_555 1_555
H25 C22 1_555 1_555
C23 H26 1_555 1_555
C24 C23 1_555 1_555
C25 C24 1_555 1_555
H27 C25 1_555 1_555
C26 C25 1_555 1_555
H28 C26 1_555 1_555
C27 C26 1_555 1_555
C28 C27 1_555 1_555
H29 C28 1_555 1_555
C29 C24 1_555 1_555
H30 C29 1_555 1_555
Cl1 C27 1_555 1_555
N1 C7 1_555 1_555
N2 N1 1_555 1_555
N3 C7 1_555 1_555
N4 C23 1_555 1_555
O2 C11 1_555 1_555
O3 C12 1_555 1_555
S1 C8 1_555 1_555
C5 C6 1_555 1_555
C8 N3 1_555 1_555
C9 S1 1_555 1_555
C12 O2 1_555 1_555
C13 O3 1_555 1_555
C17 C18 1_555 1_555
C28 C29 1_555 1_555
N3 N4 1_555 1_555

#END
