
#######################################################################
#
#                 Cambridge Crystallographic Data Centre
#                                CCDC 
#
#######################################################################
#
# If this CIF has been generated from an entry in the Cambridge 
# Structural Database, then it will include bibliographic, chemical, 
# crystal, experimental, refinement or atomic coordinate data resulting 
# from the CCDC's data processing and validation procedures.
#
#######################################################################

data_KACWET
_chemical_formula_moiety         'C17 H25 N2 O2'
_chemical_name_systematic        
'2-(4-t-Butylphenyl)-4,4,5,5-tetramethylimidazoline-1-oxyl-3-oxide radical'
_symmetry_cell_setting           monoclinic
_symmetry_space_group_name_H-M   'P 21/c'
_symmetry_Int_Tables_number      14
_space_group_name_Hall           '-P 2ybc'
loop_
_symmetry_equiv_pos_site_id
_symmetry_equiv_pos_as_xyz
1 x,y,z
2 -x,1/2+y,1/2-z
3 -x,-y,-z
4 x,1/2-y,1/2+z
_cell_length_a                   13.3511(18)
_cell_length_b                   12.1685(12)
_cell_length_c                   11.8217(12)
_cell_angle_alpha                90
_cell_angle_beta                 115.5450(10)
_cell_angle_gamma                90
_cell_volume                     1732.84
_exptl_crystal_colour            blue
_exptl_crystal_description       block
_cell_formula_units_Z            4
loop_
_atom_site_label
_atom_site_type_symbol
_atom_site_fract_x
_atom_site_fract_y
_atom_site_fract_z
O1 O 0.37950(14) 0.44084(17) 0.34599(18)
O2 O 0.05631(14) 0.33227(15) 0.36844(17)
N1 N 0.28709(15) 0.39397(16) 0.32300(17)
N2 N 0.13274(14) 0.34607(15) 0.33115(17)
C1 C 0.22399(16) 0.40877(16) 0.38613(19)
C2 C 0.2434(2) 0.3040(2) 0.2277(2)
C3 C 0.12245(19) 0.2967(2) 0.2104(2)
C4 C 0.3129(3) 0.2022(3) 0.2900(3)
H1 H 0.3902 0.2184 0.3166
H2 H 0.2916 0.1426 0.2310
H3 H 0.3005 0.1817 0.3614
C5 C 0.2595(3) 0.3338(3) 0.1133(3)
H4 H 0.2293 0.4056 0.0848
H5 H 0.2221 0.2810 0.0482
H6 H 0.3373 0.3338 0.1337
C6 C 0.0733(3) 0.1836(3) 0.1940(4)
H7 H 0.1192 0.1383 0.2636
H8 H 0.0692 0.1520 0.1177
H9 H 0.0001 0.1880 0.1901
C7 C 0.0433(3) 0.3734(4) 0.1072(3)
H10 H -0.0250 0.3805 0.1153
H11 H 0.0282 0.3432 0.0265
H12 H 0.0771 0.4444 0.1155
C8 C 0.24955(16) 0.48116(16) 0.49303(19)
C9 C 0.35845(17) 0.51082(17) 0.5719(2)
H13 H 0.4169 0.4836 0.5572
C10 C 0.37956(18) 0.5804(2) 0.6715(2)
H14 H 0.4527 0.5989 0.7235
C11 C 0.2952(2) 0.62398(19) 0.6968(2)
C12 C 0.18660(19) 0.59379(19) 0.6171(2)
H15 H 0.1283 0.6217 0.6315
C13 C 0.16396(17) 0.52384(17) 0.5180(2)
H16 H 0.0908 0.5046 0.4668
C14 C 0.3167(3) 0.7013(3) 0.8066(3)
C15 C 0.2822(6) 0.6519(6) 0.8948(5)
H17 H 0.2135 0.6134 0.8501
H18 H 0.2722 0.7081 0.9459
H19 H 0.3380 0.6011 0.9471
C16 C 0.4292(3) 0.7511(4) 0.8605(4)
H20 H 0.4331 0.8079 0.9187
H21 H 0.4438 0.7820 0.7945
H22 H 0.4835 0.6956 0.9034
C17 C 0.2334(4) 0.7995(5) 0.7585(6)
H23 H 0.1590 0.7716 0.7176
H24 H 0.2494 0.8424 0.7001
H25 H 0.2406 0.8447 0.8281
loop_
_geom_bond_atom_site_label_1
_geom_bond_atom_site_label_2
_geom_bond_site_symmetry_1
_geom_bond_site_symmetry_2
O1 N1 1_555 1_555
O2 N2 1_555 1_555
N1 C1 1_555 1_555
N2 C1 1_555 1_555
C1 C8 1_555 1_555
C2 N1 1_555 1_555
C3 N2 1_555 1_555
C4 C2 1_555 1_555
H1 C4 1_555 1_555
H2 C4 1_555 1_555
H3 C4 1_555 1_555
C5 C2 1_555 1_555
H4 C5 1_555 1_555
H5 C5 1_555 1_555
H6 C5 1_555 1_555
C6 C3 1_555 1_555
H7 C6 1_555 1_555
H8 C6 1_555 1_555
H9 C6 1_555 1_555
C7 C3 1_555 1_555
H10 C7 1_555 1_555
H11 C7 1_555 1_555
H12 C7 1_555 1_555
C8 C9 1_555 1_555
C9 H13 1_555 1_555
C10 C9 1_555 1_555
H14 C10 1_555 1_555
C11 C10 1_555 1_555
C12 C11 1_555 1_555
H15 C12 1_555 1_555
C13 C8 1_555 1_555
H16 C13 1_555 1_555
C14 C11 1_555 1_555
C15 C14 1_555 1_555
H17 C15 1_555 1_555
H18 C15 1_555 1_555
H19 C15 1_555 1_555
C16 C14 1_555 1_555
H20 C16 1_555 1_555
H21 C16 1_555 1_555
H22 C16 1_555 1_555
C17 C14 1_555 1_555
H23 C17 1_555 1_555
H24 C17 1_555 1_555
H25 C17 1_555 1_555
C2 C3 1_555 1_555
C12 C13 1_555 1_555

#END
