
#######################################################################
#
#                 Cambridge Crystallographic Data Centre
#                                CCDC 
#
#######################################################################
#
# If this CIF has been generated from an entry in the Cambridge 
# Structural Database, then it will include bibliographic, chemical, 
# crystal, experimental, refinement or atomic coordinate data resulting 
# from the CCDC's data processing and validation procedures.
#
#######################################################################

data_KACWEQ
_chemical_compound_source        'Formosan gorgonian Briareum excavatum'
_chemical_formula_moiety         'C30 H42 O12'
_chemical_name_systematic        'Excavatolide B'
_chemical_properties_biological  
'no activity against P-388, KB, A-549 and HT-29 cancer cell lines'
_symmetry_cell_setting           monoclinic
_symmetry_space_group_name_H-M   'P 21'
_symmetry_Int_Tables_number      4
_space_group_name_Hall           'P 2yb'
loop_
_symmetry_equiv_pos_site_id
_symmetry_equiv_pos_as_xyz
1 x,y,z
2 -x,1/2+y,-z
_cell_length_a                   10.294(3)
_cell_length_b                   9.712(3)
_cell_length_c                   15.254(3)
_cell_angle_alpha                90
_cell_angle_beta                 92.47(2)
_cell_angle_gamma                90
_cell_volume                     1523.61
_exptl_crystal_colour            colorless
_exptl_crystal_description       prism
_chemical_melting_point          224-225deg.C
_cell_formula_units_Z            2
_exptl_crystal_recrystallization_method acetone
loop_
_atom_site_label
_atom_site_type_symbol
_atom_site_fract_x
_atom_site_fract_y
_atom_site_fract_z
O1 O -0.0762(3) 0.6557(5) 0.3243(2)
O2 O 0.0279(4) 0.6299(5) 0.4573(2)
O3 O 0.1625(3) 0.5860(4) 0.2767(2)
O4 O 0.3200(4) 0.7124(5) 0.3435(3)
O5 O -0.2230(3) 0.7522(5) -0.0725(2)
O6 O -0.4046(4) 0.8243(5) -0.1437(2)
O7 O -0.2255(3) 1.0000 0.0111(2)
O8 O -0.2402(3) 0.7450(4) 0.1924(2)
O9 O -0.4541(3) 0.7443(5) 0.1548(3)
O10 O -0.0504(3) 1.3448(5) 0.2136(2)
O11 O 0.1665(3) 0.9959(4) 0.2832(2)
O12 O 0.2820(4) 1.0671(6) 0.4028(3)
C1 C -0.0581(5) 0.9126(6) 0.2953(3)
C2 C 0.0141(4) 0.7665(6) 0.3037(3)
C3 C 0.1056(4) 0.7108(6) 0.2357(3)
C4 C 0.0497(4) 0.6620(6) 0.1465(3)
C5 C 0.0716(5) 0.7563(6) 0.0686(3)
C6 C -0.0212(5) 0.7925(6) 0.0114(3)
C7 C -0.1616(5) 0.7617(6) 0.0178(3)
C8 C -0.2363(5) 0.8738(6) 0.0616(3)
C9 C -0.2318(4) 0.8851(6) 0.1594(3)
C10 C -0.1087(4) 0.9583(6) 0.2006(3)
C11 C -0.1383(5) 1.1188(6) 0.1922(3)
C12 C -0.0180(5) 1.2005(6) 0.2254(3)
C13 C 0.0095(5) 1.1671(6) 0.3215(3)
C14 C 0.0492(5) 1.0148(6) 0.3307(3)
C15 C -0.1668(5) 0.9127(6) 0.3621(3)
C16 C 0.2088(5) 0.8080(7) 0.0611(3)
C17 C -0.3459(5) 0.9193(6) 0.0015(3)
C18 C -0.4697(5) 0.9850(7) 0.0202(3)
C19 C -0.3337(5) 0.8303(6) -0.0793(3)
C20 C -0.2646(5) 1.1707(6) 0.2308(3)
C21 C -0.0527(5) 0.5927(7) 0.4048(3)
C22 C -0.1513(5) 0.4800(7) 0.4161(3)
C23 C 0.2684(6) 0.6056(7) 0.3288(4)
C24 C 0.3168(6) 0.4686(7) 0.3679(4)
C25 C 0.4227(6) 0.4832(7) 0.4371(4)
C26 C 0.4778(8) 0.3484(7) 0.4692(5)
C27 C -0.3628(5) 0.6901(7) 0.1867(4)
C28 C -0.3591(6) 0.5448(7) 0.2220(4)
C29 C 0.2786(5) 1.0315(7) 0.3273(4)
C30 C 0.3937(5) 1.0147(7) 0.2717(3)
H1 H 0.0680 0.7752 0.3555
H2 H 0.1726 0.7761 0.2270
H3 H 0.0879 0.5754 0.1344
H4 H -0.0414 0.6510 0.1511
H5 H 0.0038 0.8429 -0.0385
H6 H -0.1723 0.6770 0.0479
H7 H -0.3065 0.9343 0.1763
H8 H -0.0401 0.9398 0.1626
H9 H -0.1470 1.1369 0.1311
H10 H 0.0548 1.1773 0.1922
H11 H 0.0783 1.2238 0.3442
H12 H -0.0663 1.1833 0.3532
H13 H 0.0680 0.9955 0.3909
H14 H -0.2015 1.0029 0.3666
H15 H -0.2338 0.8510 0.3430
H16 H -0.1319 0.8841 0.4179
H17 H 0.2621 0.7719 0.1081
H18 H 0.2413 0.7789 0.0068
H19 H 0.2093 0.9057 0.0638
H20 H -0.4672 1.0155 0.0794
H21 H -0.4838 1.0615 -0.0178
H22 H -0.5384 0.9205 0.0112
H23 H -0.2780 1.2643 0.2149
H24 H -0.3356 1.1169 0.2084
H25 H -0.2582 1.1629 0.2929
H26 H -0.2362 0.5184 0.4136
H27 H -0.1443 0.4141 0.3706
H28 H -0.1354 0.4366 0.4714
H29 H 0.2455 0.4233 0.3929
H30 H 0.3484 0.4138 0.3218
H31 H 0.4908 0.5358 0.4138
H32 H 0.3887 0.5306 0.4856
H33 H 0.4111 0.2951 0.4936
H34 H 0.5126 0.2999 0.4214
H35 H 0.5448 0.3650 0.5126
H36 H -0.4442 0.5068 0.2183
H37 H -0.3059 0.4905 0.1884
H38 H -0.3280 0.5459 0.2815
H39 H 0.3999 0.9214 0.2536
H40 H 0.3837 1.0722 0.2214
H41 H 0.4705 1.0399 0.3046
H42 H 0.0500 1.4048 0.2149
loop_
_geom_bond_atom_site_label_1
_geom_bond_atom_site_label_2
_geom_bond_site_symmetry_1
_geom_bond_site_symmetry_2
O1 C2 1_555 1_555
O2 C21 1_555 1_555
O3 C3 1_555 1_555
O4 C23 1_555 1_555
O5 C7 1_555 1_555
O6 C19 1_555 1_555
O7 C8 1_555 1_555
O8 C9 1_555 1_555
O9 C27 1_555 1_555
O10 C12 1_555 1_555
O11 C14 1_555 1_555
O12 C29 1_555 1_555
C1 C2 1_555 1_555
C2 C3 1_555 1_555
C3 C4 1_555 1_555
C4 C5 1_555 1_555
C5 C6 1_555 1_555
C6 C7 1_555 1_555
C7 C8 1_555 1_555
C8 C9 1_555 1_555
C9 C10 1_555 1_555
C10 C1 1_555 1_555
C11 C10 1_555 1_555
C12 C11 1_555 1_555
C13 C12 1_555 1_555
C14 C1 1_555 1_555
C15 C1 1_555 1_555
C16 C5 1_555 1_555
C17 O7 1_555 1_555
C18 C17 1_555 1_555
C19 O5 1_555 1_555
C20 C11 1_555 1_555
C21 O1 1_555 1_555
C22 C21 1_555 1_555
C23 O3 1_555 1_555
C24 C23 1_555 1_555
C25 C24 1_555 1_555
C26 C25 1_555 1_555
C27 O8 1_555 1_555
C28 C27 1_555 1_555
C29 O11 1_555 1_555
C30 C29 1_555 1_555
H1 C2 1_555 1_555
H2 C3 1_555 1_555
H3 C4 1_555 1_555
H4 C4 1_555 1_555
H5 C6 1_555 1_555
H6 C7 1_555 1_555
H7 C9 1_555 1_555
H8 C10 1_555 1_555
H9 C11 1_555 1_555
H10 C12 1_555 1_555
H11 C13 1_555 1_555
H12 C13 1_555 1_555
H13 C14 1_555 1_555
H14 C15 1_555 1_555
H15 C15 1_555 1_555
H16 C15 1_555 1_555
H17 C16 1_555 1_555
H18 C16 1_555 1_555
H19 C16 1_555 1_555
H20 C18 1_555 1_555
H21 C18 1_555 1_555
H22 C18 1_555 1_555
H23 C20 1_555 1_555
H24 C20 1_555 1_555
H25 C20 1_555 1_555
H26 C22 1_555 1_555
H27 C22 1_555 1_555
H28 C22 1_555 1_555
H29 C24 1_555 1_555
H30 C24 1_555 1_555
H31 C25 1_555 1_555
H32 C25 1_555 1_555
H33 C26 1_555 1_555
H34 C26 1_555 1_555
H35 C26 1_555 1_555
H36 C28 1_555 1_555
H37 C28 1_555 1_555
H38 C28 1_555 1_555
H39 C30 1_555 1_555
H40 C30 1_555 1_555
H41 C30 1_555 1_555
H42 O10 1_555 1_555
C8 C17 1_555 1_555
C13 C14 1_555 1_555
C17 C19 1_555 1_555

#END
