
#######################################################################
#
#                 Cambridge Crystallographic Data Centre
#                                CCDC 
#
#######################################################################
#
# If this CIF has been generated from an entry in the Cambridge 
# Structural Database, then it will include bibliographic, chemical, 
# crystal, experimental, refinement or atomic coordinate data resulting 
# from the CCDC's data processing and validation procedures.
#
#######################################################################

data_KACXUJ
_chemical_formula_moiety         'C26 H23 N3 O6 S3,C17 H15 N3,C1 H1 Cl3'
_chemical_name_systematic        
"6,6''-Dimethyl-5,5''-diphenyl-4H,4'H,4''H-3,3':5',3''-ter-1,4-thiazine 1,1,1',1',1'',1''-hexaoxide 3',5'-dimethyl-2,2',6',2''-terpyridine chloroform solvate"
_symmetry_cell_setting           triclinic
_symmetry_space_group_name_H-M   'P -1'
_symmetry_Int_Tables_number      2
_space_group_name_Hall           '-P 1'
loop_
_symmetry_equiv_pos_site_id
_symmetry_equiv_pos_as_xyz
1 x,y,z
2 -x,-y,-z
_cell_length_a                   12.1851(4)
_cell_length_b                   12.7756(4)
_cell_length_c                   15.7666(5)
_cell_angle_alpha                82.4650(10)
_cell_angle_beta                 77.9780(10)
_cell_angle_gamma                70.3200(10)
_cell_volume                     2255.4
_exptl_crystal_colour            colorless
_exptl_crystal_description       block
_cell_formula_units_Z            2
loop_
_atom_site_label
_atom_site_type_symbol
_atom_site_fract_x
_atom_site_fract_y
_atom_site_fract_z
S1 S 0.27275(4) 0.20753(4) 0.35908(3)
S2 S 1.13713(4) -0.03041(4) 0.13699(3)
S3 S 0.69329(4) -0.19149(4) 0.17449(3)
C1 C 0.93662(18) 0.36621(16) 0.12267(13)
H1 H 0.9797 0.3440 0.1693
C2 C 0.8868(2) 0.47871(17) 0.09997(15)
H2 H 0.8964 0.5331 0.1309
C3 C 0.8235(2) 0.51169(17) 0.03261(15)
H3 H 0.7888 0.5887 0.0176
C4 C 0.8107(2) 0.43223(17) -0.01317(15)
H4 H 0.7677 0.4549 -0.0598
C5 C 0.86065(19) 0.31959(16) 0.00890(13)
H5 H 0.8518 0.2655 -0.0228
C6 C 0.92353(16) 0.28563(14) 0.07724(12)
C7 C 0.97039(15) 0.16484(14) 0.10346(11)
C8 C 1.08377(15) 0.11276(15) 0.11510(12)
C9 C 1.17912(18) 0.16724(19) 0.10338(16)
H6 H 1.1607 0.2331 0.0627
H7 H 1.2558 0.1143 0.0802
H8 H 1.1826 0.1897 0.1596
C10 C 1.00905(15) -0.06461(15) 0.16864(12)
H9 H 1.0121 -0.1339 0.2002
C11 C 0.90411(15) 0.00433(13) 0.14995(11)
C12 C 0.79887(14) -0.03500(13) 0.17181(11)
C13 C 0.80622(16) -0.13437(14) 0.14620(12)
H10 H 0.8774 -0.1748 0.1108
C14 C 0.58224(16) -0.08603(15) 0.22800(12)
H11 H 0.5060 -0.0943 0.2456
C15 C 0.59745(14) 0.00794(13) 0.24642(11)
C16 C 0.50159(14) 0.08817(13) 0.30379(11)
C17 C 0.38798(15) 0.12143(14) 0.29171(12)
H12 H 0.3709 0.0959 0.2435
C18 C 0.25852(18) 0.30409(18) 0.50664(14)
H13 H 0.2904 0.2831 0.5608
H14 H 0.1814 0.2923 0.5153
H15 H 0.2491 0.3828 0.4897
C19 C 0.34261(15) 0.23343(14) 0.43595(12)
C20 C 0.46183(15) 0.18971(13) 0.43182(11)
C21 C 0.52292(15) 0.21177(15) 0.49698(12)
C22 C 0.5227(2) 0.31850(18) 0.50506(17)
H16 H 0.4806 0.3794 0.4705
C23 C 0.5844(3) 0.3366(2) 0.5639(2)
H17 H 0.5839 0.4100 0.5692
C24 C 0.6459(2) 0.2494(2) 0.61440(16)
H18 H 0.6880 0.2625 0.6542
C25 C 0.64632(17) 0.14259(18) 0.60698(13)
H19 H 0.6882 0.0821 0.6420
C26 C 0.58555(16) 0.12374(16) 0.54835(12)
H20 H 0.5866 0.0501 0.5432
N4 N 0.88604(12) 0.11101(11) 0.11538(9)
H36 H 0.8172 0.1477 0.0998
N5 N 0.70040(12) 0.03360(11) 0.21975(9)
H37 H 0.7032 0.0968 0.2341
N6 N 0.53774(12) 0.11982(12) 0.37006(9)
H38 H 0.6135 0.0942 0.3734
O1 O 0.21778(12) 0.31063(11) 0.31151(9)
O2 O 0.19168(12) 0.14805(12) 0.40085(10)
O3 O 0.72543(13) -0.28678(11) 0.23543(11)
O4 O 0.66027(14) -0.21347(13) 0.09780(10)
O5 O 1.20369(13) -0.05555(13) 0.20718(10)
O6 O 1.20097(13) -0.08230(13) 0.05707(11)
N1 N 0.78331(13) 0.06629(13) 0.37554(10)
C27 C 0.84112(17) -0.03638(16) 0.40458(13)
H21 H 0.7985 -0.0880 0.4214
C28 C 0.95955(19) -0.07178(18) 0.41157(14)
H22 H 0.9975 -0.1458 0.4323
C29 C 1.02092(18) 0.00374(19) 0.38749(14)
H23 H 1.1024 -0.0176 0.3914
C30 C 0.96251(16) 0.11116(17) 0.35746(13)
H24 H 1.0034 0.1642 0.3408
C31 C 0.84367(15) 0.14011(15) 0.35209(11)
C32 C 0.77438(15) 0.25100(14) 0.31631(11)
C33 C 0.77700(18) 0.35395(16) 0.33635(12)
C34 C 0.8533(2) 0.3643(2) 0.39737(16)
H25 H 0.8217 0.4390 0.4191
H26 H 0.9346 0.3520 0.3661
H27 H 0.8531 0.3085 0.4463
C35 C 0.70421(18) 0.44915(16) 0.29838(13)
H28 H 0.7041 0.5199 0.3110
C36 C 0.63139(16) 0.44478(14) 0.24239(13)
C37 C 0.55725(19) 0.54996(16) 0.19956(16)
H29 H 0.5536 0.5359 0.1407
H30 H 0.5929 0.6089 0.1964
H31 H 0.4770 0.5734 0.2337
C38 C 0.63568(14) 0.33807(14) 0.22598(11)
C39 C 0.56520(15) 0.31722(13) 0.16688(11)
C40 C 0.44284(16) 0.36440(14) 0.17842(12)
H32 H 0.4018 0.4152 0.2222
C41 C 0.38175(16) 0.33583(15) 0.12482(13)
H33 H 0.2979 0.3655 0.1323
C42 C 0.44417(17) 0.26411(18) 0.06083(13)
H34 H 0.4045 0.2450 0.0223
C43 C 0.56651(17) 0.22014(17) 0.05364(13)
H35 H 0.6092 0.1703 0.0095
N2 N 0.70458(12) 0.24481(11) 0.26238(9)
N3 N 0.62753(13) 0.24448(13) 0.10602(10)
C44 C 0.1078(2) 0.57247(18) 0.30088(16)
H39 H 0.1412 0.4910 0.2918
Cl1 Cl -0.03498(6) 0.62352(5) 0.27506(4)
Cl2 Cl 0.20119(6) 0.64156(5) 0.23318(5)
Cl3 Cl 0.10131(9) 0.59213(6) 0.41046(5)
loop_
_geom_bond_atom_site_label_1
_geom_bond_atom_site_label_2
_geom_bond_site_symmetry_1
_geom_bond_site_symmetry_2
S1 C17 1_555 1_555
S2 C8 1_555 1_555
S3 C13 1_555 1_555
C1 H1 1_555 1_555
C2 C1 1_555 1_555
H2 C2 1_555 1_555
C3 C2 1_555 1_555
H3 C3 1_555 1_555
C4 C3 1_555 1_555
H4 C4 1_555 1_555
C5 C4 1_555 1_555
H5 C5 1_555 1_555
C6 C1 1_555 1_555
C7 C6 1_555 1_555
C8 C7 1_555 1_555
C9 C8 1_555 1_555
H6 C9 1_555 1_555
H7 C9 1_555 1_555
H8 C9 1_555 1_555
C10 S2 1_555 1_555
H9 C10 1_555 1_555
C11 C10 1_555 1_555
C12 C11 1_555 1_555
C13 C12 1_555 1_555
H10 C13 1_555 1_555
C14 S3 1_555 1_555
H11 C14 1_555 1_555
C15 C14 1_555 1_555
C16 C15 1_555 1_555
C17 C16 1_555 1_555
H12 C17 1_555 1_555
C18 H13 1_555 1_555
H14 C18 1_555 1_555
H15 C18 1_555 1_555
C19 S1 1_555 1_555
C20 C19 1_555 1_555
C21 C20 1_555 1_555
C22 C21 1_555 1_555
H16 C22 1_555 1_555
C23 C22 1_555 1_555
H17 C23 1_555 1_555
C24 C23 1_555 1_555
H18 C24 1_555 1_555
C25 C24 1_555 1_555
H19 C25 1_555 1_555
C26 C21 1_555 1_555
H20 C26 1_555 1_555
N1 C27 1_555 1_555
C27 H21 1_555 1_555
C28 C27 1_555 1_555
H22 C28 1_555 1_555
C29 C28 1_555 1_555
H23 C29 1_555 1_555
C30 C29 1_555 1_555
H24 C30 1_555 1_555
C31 N1 1_555 1_555
C32 C31 1_555 1_555
C33 C32 1_555 1_555
C34 C33 1_555 1_555
H25 C34 1_555 1_555
H26 C34 1_555 1_555
H27 C34 1_555 1_555
C35 C33 1_555 1_555
H28 C35 1_555 1_555
C36 C35 1_555 1_555
C37 C36 1_555 1_555
H29 C37 1_555 1_555
H30 C37 1_555 1_555
H31 C37 1_555 1_555
C38 C36 1_555 1_555
C39 C38 1_555 1_555
C40 C39 1_555 1_555
H32 C40 1_555 1_555
C41 C40 1_555 1_555
H33 C41 1_555 1_555
C42 C41 1_555 1_555
H34 C42 1_555 1_555
C43 C42 1_555 1_555
H35 C43 1_555 1_555
N2 C32 1_555 1_555
N3 C39 1_555 1_555
N4 C7 1_555 1_555
H36 N4 1_555 1_555
N5 C12 1_555 1_555
H37 N5 1_555 1_555
N6 C16 1_555 1_555
H38 N6 1_555 1_555
O1 S1 1_555 1_555
O2 S1 1_555 1_555
O3 S3 1_555 1_555
O4 S3 1_555 1_555
O5 S2 1_555 1_555
O6 S2 1_555 1_555
C44 H39 1_555 1_555
Cl1 C44 1_555 1_555
Cl2 C44 1_555 1_555
Cl3 C44 1_555 1_555
C5 C6 1_555 1_555
C11 N4 1_555 1_555
C15 N5 1_555 1_555
C18 C19 1_555 1_555
C20 N6 1_555 1_555
C25 C26 1_555 1_555
C30 C31 1_555 1_555
C38 N2 1_555 1_555
C43 N3 1_555 1_555

#END
