
#######################################################################
#
#                 Cambridge Crystallographic Data Centre
#                                CCDC 
#
#######################################################################
#
# If this CIF has been generated from an entry in the Cambridge 
# Structural Database, then it will include bibliographic, chemical, 
# crystal, experimental, refinement or atomic coordinate data resulting 
# from the CCDC's data processing and validation procedures.
#
#######################################################################

data_KACZIX
_chemical_compound_source        'Bodies of soft coral Sinularia flexibilis'
_chemical_formula_moiety         'C20 H32 O5'
_chemical_name_systematic        Sinuflexolide
_chemical_properties_biological  'cytotoxic activity in human cancer cell lines'
_symmetry_cell_setting           monoclinic
_symmetry_space_group_name_H-M   'P 21'
_symmetry_Int_Tables_number      4
_space_group_name_Hall           'P 2yb'
loop_
_symmetry_equiv_pos_site_id
_symmetry_equiv_pos_as_xyz
1 x,y,z
2 -x,1/2+y,-z
_cell_length_a                   10.252(4)
_cell_length_b                   10.483(5)
_cell_length_c                   10.25(2)
_cell_angle_alpha                90
_cell_angle_beta                 116.71(8)
_cell_angle_gamma                90
_cell_volume                     984.038
_exptl_crystal_colour            colorless
_exptl_crystal_description       prisms
_chemical_melting_point          172-173deg.C
_cell_formula_units_Z            2
loop_
_atom_site_label
_atom_site_type_symbol
_atom_site_fract_x
_atom_site_fract_y
_atom_site_fract_z
O1 O 0.4116(5) 0.2249 0.5329(6)
O2 O 0.5146(6) 0.4451(8) 0.7151(7)
O3 O 1.0391(6) 0.2669(7) 0.4625(6)
O4 O 0.7890(5) -0.0025 0.4117(6)
O5 O 0.2158(6) 0.2078(9) 0.3267(6)
C1 C 0.5968(7) 0.2412(10) 0.3922(8)
C2 C 0.6331(8) 0.3142(10) 0.5331(9)
C3 C 0.5671(8) 0.249(1) 0.6233(9)
C4 C 0.5752(9) 0.318(1) 0.7550(10)
C5 C 0.742(1) 0.346(1) 0.8671(10)
C6 C 0.8431(9) 0.229(1) 0.9151(9)
C7 C 0.9568(8) 0.224(1) 0.8600(8)
C8 C 1.0000(9) 0.122(1) 0.8178(8)
C9 C 1.1247(8) 0.128(1) 0.7747(8)
C10 C 1.0829(8) 0.081(1) 0.6192(9)
C11 C 0.9697(9) 0.1625(9) 0.5000(10)
C12 C 0.8622(9) 0.0916(10) 0.3642(9)
C13 C 0.7456(9) 0.1817(10) 0.2553(9)
C14 C 0.6828(8) 0.285(1) 0.3154(8)
C15 C 0.4327(8) 0.247(1) 0.3045(9)
C16 C 0.3483(9) 0.227(1) 0.3860(10)
C17 C 0.3632(8) 0.242(1) 0.162(1)
C18 C 0.5040(9) 0.242(1) 0.8299(10)
C19 C 0.940(1) -0.011(1) 0.810(1)
C20 C 0.9369(8) 0.021(1) 0.2876(9)
H1 H 0.6219 0.1545 0.4185
H2 H 0.7361 0.3182 0.5891
H3 H 0.5949 0.3983 0.5092
H4 H 0.6142 0.1690 0.6548
H5 H 0.7799 0.4042 0.8219
H6 H 0.7439 0.3834 0.9520
H7 H 0.8922 0.2272 1.0187
H8 H 0.7842 0.1543 0.8805
H9 H 1.0012 0.3026 0.8562
H10 H 1.1559 0.2144 0.7818
H11 H 1.2031 0.0772 0.8410
H12 H 1.1685 0.0795 0.6054
H13 H 1.0450 -0.0030 0.6100
H14 H 0.9129 0.2005 0.5415
H15 H 0.7876 0.2232 0.2009
H16 H 0.6661 0.1301 0.1916
H17 H 0.6207 0.3370 0.2356
H18 H 0.7622 0.3347 0.3823
H19 H 0.2894 0.3053 0.1282
H20 H 0.4303 0.2572 0.1234
H21 H 0.5175 0.2847 0.9169
H22 H 0.4023 0.2346 0.7667
H23 H 0.5465 0.1598 0.8530
H24 H 0.8386 -0.0120 0.7447
H25 H 0.9896 -0.0690 0.7763
H26 H 0.9539 -0.0368 0.9045
H27 H 0.8658 -0.0242 0.2064
H28 H 0.9859 0.0800 0.2551
H29 H 1.0054 -0.0378 0.3538
H30? H 0.3208 0.1601 0.1333
loop_
_geom_bond_atom_site_label_1
_geom_bond_atom_site_label_2
_geom_bond_site_symmetry_1
_geom_bond_site_symmetry_2
O1 C3 1_555 1_555
O2 C4 1_555 1_555
O3 C11 1_555 1_555
O4 C12 1_555 1_555
O5 C16 1_555 1_555
C1 C2 1_555 1_555
C2 C3 1_555 1_555
C3 C4 1_555 1_555
C4 C5 1_555 1_555
C5 C6 1_555 1_555
C6 C7 1_555 1_555
C7 C8 1_555 1_555
C8 C9 1_555 1_555
C9 C10 1_555 1_555
C10 C11 1_555 1_555
C11 C12 1_555 1_555
C12 C13 1_555 1_555
C13 C14 1_555 1_555
C14 C1 1_555 1_555
C15 C1 1_555 1_555
C16 O1 1_555 1_555
C17 C15 1_555 1_555
C18 C4 1_555 1_555
C19 C8 1_555 1_555
C20 C12 1_555 1_555
H1 C1 1_555 1_555
H2 C2 1_555 1_555
H3 C2 1_555 1_555
H4 C3 1_555 1_555
H5 C5 1_555 1_555
H6 C5 1_555 1_555
H7 C6 1_555 1_555
H8 C6 1_555 1_555
H9 C7 1_555 1_555
H10 C9 1_555 1_555
H11 C9 1_555 1_555
H12 C10 1_555 1_555
H13 C10 1_555 1_555
H14 C11 1_555 1_555
H15 C13 1_555 1_555
H16 C13 1_555 1_555
H17 C14 1_555 1_555
H18 C14 1_555 1_555
H19 C17 1_555 1_555
H20 C17 1_555 1_555
H21 C18 1_555 1_555
H22 C18 1_555 1_555
H23 C18 1_555 1_555
H24 C19 1_555 1_555
H25 C19 1_555 1_555
H26 C19 1_555 1_555
H27 C20 1_555 1_555
H28 C20 1_555 1_555
H29 C20 1_555 1_555
C15 C16 1_555 1_555

#END
