
#######################################################################
#
#                 Cambridge Crystallographic Data Centre
#                                CCDC 
#
#######################################################################
#
# If this CIF has been generated from an entry in the Cambridge 
# Structural Database, then it will include bibliographic, chemical, 
# crystal, experimental, refinement or atomic coordinate data resulting 
# from the CCDC's data processing and validation procedures.
#
#######################################################################

data_KADBIC
_chemical_formula_moiety         'C19 H22 B1 I1 O2 S1'
_chemical_name_systematic        
2-(2-(2-Iodophenyl)-1-(2-thienyl)prop-1-en-1-yl)-4,4,5,5-tetramethyl-1,3,2-dioxaborolane
_symmetry_cell_setting           orthorhombic
_symmetry_space_group_name_H-M   'P b c a'
_symmetry_Int_Tables_number      61
_space_group_name_Hall           '-P 2ac 2ab'
loop_
_symmetry_equiv_pos_site_id
_symmetry_equiv_pos_as_xyz
1 x,y,z
2 1/2-x,-y,1/2+z
3 -x,1/2+y,1/2-z
4 1/2+x,1/2-y,-z
5 -x,-y,-z
6 1/2+x,y,1/2-z
7 x,1/2-y,1/2+z
8 1/2-x,1/2+y,z
_cell_length_a                   7.7475(4)
_cell_length_b                   14.4249(8)
_cell_length_c                   34.686(2)
_cell_angle_alpha                90
_cell_angle_beta                 90
_cell_angle_gamma                90
_cell_volume                     3876.4
_exptl_crystal_colour            colorless
_exptl_crystal_description       plate
_cell_formula_units_Z            8
loop_
_atom_site_label
_atom_site_type_symbol
_atom_site_fract_x
_atom_site_fract_y
_atom_site_fract_z
I1 I 0.18043(5) 0.753983(19) 0.292682(9)
S1 S -0.2686(2) 0.69381(11) 0.40902(4)
C1 C -0.0966(14) 0.7948(6) 0.4550(2)
H1 H -0.0253 0.8422 0.4654
O1 O 0.0571(4) 1.00293(19) 0.41249(9)
O2 O 0.2493(4) 0.89402(19) 0.39181(9)
C2 C -0.0410(5) 0.9165(3) 0.32023(12)
C3 C -0.0937(5) 1.0082(3) 0.32053(12)
H2 H -0.1741 1.0283 0.3394
C4 C -0.0312(6) 1.0714(3) 0.29366(12)
H3 H -0.0691 1.1341 0.2942
C5 C 0.0862(6) 1.0427(3) 0.26618(13)
H4 H 0.1270 1.0855 0.2475
C6 C 0.1448(6) 0.9523(3) 0.26568(13)
H5 H 0.2273 0.9328 0.2471
C7 C 0.0807(6) 0.8901(3) 0.29291(12)
C8 C -0.1195(5) 0.8487(3) 0.34821(12)
C9 C -0.2562(8) 0.7853(4) 0.33073(14)
H6 H -0.3607 0.7872 0.3466
H7 H -0.2122 0.7217 0.3297
H8 H -0.2837 0.8064 0.3046
C10 C -0.0702(5) 0.8488(3) 0.38522(11)
C11 C -0.1343(5) 0.7881(3) 0.41564(12)
C12 C -0.2670(7) 0.6671(3) 0.45644(13)
H9 H -0.3271 0.6154 0.4669
C13 C -0.1729(7) 0.7255(3) 0.47794(14)
H10 H -0.1595 0.7208 0.5051
C14 C 0.2288(6) 1.0385(3) 0.42289(14)
C15 C 0.2473(8) 1.0231(4) 0.46621(15)
H11 H 0.1507 1.0528 0.4796
H12 H 0.3562 1.0501 0.4751
H13 H 0.2467 0.9564 0.4717
C16 C 0.2353(7) 1.1408(3) 0.41366(17)
H14 H 0.1580 1.1745 0.4311
H15 H 0.1984 1.1507 0.3869
H16 H 0.3535 1.1636 0.4169
C17 C 0.3535(6) 0.9778(3) 0.39831(14)
C18 C 0.5189(6) 0.9489(4) 0.41864(17)
H17 H 0.5869 0.9090 0.4015
H18 H 0.4902 0.9148 0.4422
H19 H 0.5862 1.0042 0.4252
C19 C 0.3917(7) 1.0182(4) 0.35883(15)
H20 H 0.2836 1.0382 0.3467
H21 H 0.4469 0.9709 0.3427
H22 H 0.4692 1.0715 0.3616
B1 B 0.0819(6) 0.9169(3) 0.39681(13)
C20? C -0.239(6) 0.708(2) 0.4196(7)
H23? H -0.2910 0.6810 0.3974
S2? S -0.078(3) 0.8177(10) 0.4611(3)
loop_
_geom_bond_atom_site_label_1
_geom_bond_atom_site_label_2
_geom_bond_site_symmetry_1
_geom_bond_site_symmetry_2
I1 C7 1_555 1_555
S1 C11 1_555 1_555
C1 H1 1_555 1_555
O1 C14 1_555 1_555
O2 C17 1_555 1_555
C2 C3 1_555 1_555
C3 H2 1_555 1_555
C4 C3 1_555 1_555
H3 C4 1_555 1_555
C5 C4 1_555 1_555
H4 C5 1_555 1_555
C6 C5 1_555 1_555
H5 C6 1_555 1_555
C7 C2 1_555 1_555
C8 C2 1_555 1_555
C9 C8 1_555 1_555
H6 C9 1_555 1_555
H7 C9 1_555 1_555
H8 C9 1_555 1_555
C10 C8 1_555 1_555
C11 C1 1_555 1_555
C12 S1 1_555 1_555
H9 C12 1_555 1_555
C13 C1 1_555 1_555
H10 C13 1_555 1_555
C14 C15 1_555 1_555
C15 H11 1_555 1_555
H12 C15 1_555 1_555
H13 C15 1_555 1_555
C16 C14 1_555 1_555
H14 C16 1_555 1_555
H15 C16 1_555 1_555
H16 C16 1_555 1_555
C17 C14 1_555 1_555
C18 C17 1_555 1_555
H17 C18 1_555 1_555
H18 C18 1_555 1_555
H19 C18 1_555 1_555
C19 C17 1_555 1_555
H20 C19 1_555 1_555
H21 C19 1_555 1_555
H22 C19 1_555 1_555
B1 O1 1_555 1_555
O2 B1 1_555 1_555
C6 C7 1_555 1_555
C10 C11 1_555 1_555
C10 B1 1_555 1_555
C12 C13 1_555 1_555

#END
