
#######################################################################
#
#                 Cambridge Crystallographic Data Centre
#                                CCDC 
#
#######################################################################
#
# If this CIF has been generated from an entry in the Cambridge 
# Structural Database, then it will include bibliographic, chemical, 
# crystal, experimental, refinement or atomic coordinate data resulting 
# from the CCDC's data processing and validation procedures.
#
#######################################################################

data_KADBEY
_chemical_formula_moiety         'C34 H28,C4 H10 O1'
_chemical_name_systematic        
'5,8-Dimethyl-6,7-bis(2-phenylvinyl)dibenzo[a,c][8]annulene diethyl ether solvate'
_symmetry_cell_setting           triclinic
_symmetry_space_group_name_H-M   'P -1'
_symmetry_Int_Tables_number      2
_space_group_name_Hall           '-P 1'
loop_
_symmetry_equiv_pos_site_id
_symmetry_equiv_pos_as_xyz
1 x,y,z
2 -x,-y,-z
_cell_length_a                   7.7703(16)
_cell_length_b                   11.284(2)
_cell_length_c                   17.614(4)
_cell_angle_alpha                96.96(3)
_cell_angle_beta                 96.69(3)
_cell_angle_gamma                99.11(3)
_cell_volume                     1499.1
_cell_formula_units_Z            2
loop_
_atom_site_label
_atom_site_type_symbol
_atom_site_fract_x
_atom_site_fract_y
_atom_site_fract_z
C1 C 0.03199(19) 0.76525(15) 0.35434(9)
C2 C 0.0141(2) 0.83672(16) 0.42317(9)
H1 H 0.0481 0.9223 0.4284
C3 C -0.0517(2) 0.78500(17) 0.48328(9)
H2 H -0.0631 0.8348 0.5293
C4 C -0.1010(2) 0.66079(18) 0.47646(9)
H3 H -0.1435 0.6247 0.5182
C5 C -0.0881(2) 0.58855(16) 0.40822(9)
H4 H -0.1242 0.5032 0.4035
C6 C -0.02289(19) 0.63948(15) 0.34653(9)
C7 C -0.0263(2) 0.56108(14) 0.27098(8)
C8 C 0.1256(2) 0.54630(14) 0.24307(9)
C9 C 0.2999(2) 0.60043(15) 0.29088(8)
C10 C 0.3642(2) 0.71980(15) 0.29439(8)
C11 C 0.2551(2) 0.80335(14) 0.26082(9)
C12 C 0.0999(2) 0.82627(14) 0.29015(9)
C13 C 0.0117(2) 0.91351(15) 0.26154(9)
H5 H -0.0914 0.9298 0.2819
C14 C 0.0705(2) 0.97696(16) 0.20432(9)
H6 H 0.0077 1.0353 0.1852
C15 C 0.2232(2) 0.95409(16) 0.17514(9)
H7 H 0.2649 0.9970 0.1358
C16 C 0.3141(2) 0.86912(16) 0.20338(9)
H8 H 0.4186 0.8550 0.1834
C17 C -0.2091(2) 0.50914(17) 0.23014(10)
H9 H -0.2626 0.5737 0.2096
H10 H -0.2809 0.4738 0.2667
H11 H -0.2025 0.4461 0.1876
C18 C 0.5459(2) 0.78031(16) 0.33344(10)
H12 H 0.6130 0.7184 0.3487
H13 H 0.5356 0.8357 0.3794
H14 H 0.6067 0.8260 0.2975
C19 C 0.1284(2) 0.47833(15) 0.16685(9)
H15 H 0.0181 0.4413 0.1380
C20 C 0.2726(2) 0.46392(16) 0.13440(9)
H16 H 0.3829 0.5000 0.1637
C21 C 0.2763(2) 0.39724(16) 0.05741(9)
C22 C 0.1290(2) 0.36461(18) 0.00124(10)
H17 H 0.0203 0.3862 0.0122
C23 C 0.1377(3) 0.30104(19) -0.07055(10)
H18 H 0.0352 0.2786 -0.1077
C24 C 0.2955(3) 0.27056(19) -0.08774(11)
H19 H 0.3012 0.2253 -0.1362
C25 C 0.4434(3) 0.3057(2) -0.03465(11)
H20 H 0.5528 0.2870 -0.0470
C26 C 0.4347(3) 0.3687(2) 0.03720(11)
H21 H 0.5388 0.3929 0.0734
C27 C 0.3905(2) 0.51949(15) 0.33343(8)
H22 H 0.4992 0.5538 0.3646
C28 C 0.3328(2) 0.40127(15) 0.33193(9)
H23 H 0.2288 0.3669 0.2974
C29 C 0.4120(2) 0.31837(15) 0.37775(9)
C30 C 0.3554(2) 0.19377(16) 0.35795(10)
H24 H 0.2663 0.1644 0.3151
C31 C 0.4261(2) 0.11144(16) 0.39941(10)
H25 H 0.3860 0.0269 0.3847
C32 C 0.5548(2) 0.15271(17) 0.46200(10)
H26 H 0.6043 0.0966 0.4901
C33 C 0.6121(2) 0.27714(16) 0.48397(9)
H27 H 0.6994 0.3059 0.5275
C34 C 0.5416(2) 0.35860(15) 0.44210(9)
H28 H 0.5816 0.4431 0.4572
C35 C 0.8370(3) 0.2249(2) 0.30515(12)
H29 H 0.9244 0.1717 0.3108
H30 H 0.7835 0.2349 0.3527
H31 H 0.8947 0.3043 0.2953
C36 C 0.6979(3) 0.1702(2) 0.23913(11)
H32 H 0.6433 0.0879 0.2470
H33 H 0.6050 0.2207 0.2348
C37 C 0.6666(3) 0.1029(3) 0.10649(12)
H34 H 0.5676 0.1468 0.0962
H35 H 0.6176 0.0207 0.1165
C38 C 0.7627(4) 0.0932(3) 0.03724(13)
H36 H 0.8105 0.1747 0.0273
H37 H 0.6810 0.0504 -0.0079
H38 H 0.8591 0.0483 0.0472
O1 O 0.78044(19) 0.16414(14) 0.17079(8)
loop_
_geom_bond_atom_site_label_1
_geom_bond_atom_site_label_2
_geom_bond_site_symmetry_1
_geom_bond_site_symmetry_2
C1 C2 1_555 1_555
C2 H1 1_555 1_555
C3 C2 1_555 1_555
H2 C3 1_555 1_555
C4 C3 1_555 1_555
H3 C4 1_555 1_555
C5 C4 1_555 1_555
H4 C5 1_555 1_555
C6 C1 1_555 1_555
C7 C6 1_555 1_555
C8 C7 1_555 1_555
C9 C8 1_555 1_555
C10 C9 1_555 1_555
C11 C10 1_555 1_555
C12 C1 1_555 1_555
C13 C12 1_555 1_555
H5 C13 1_555 1_555
C14 C13 1_555 1_555
H6 C14 1_555 1_555
C15 C14 1_555 1_555
H7 C15 1_555 1_555
C16 C11 1_555 1_555
H8 C16 1_555 1_555
C17 C7 1_555 1_555
H9 C17 1_555 1_555
H10 C17 1_555 1_555
H11 C17 1_555 1_555
C18 C10 1_555 1_555
H12 C18 1_555 1_555
H13 C18 1_555 1_555
H14 C18 1_555 1_555
C19 C8 1_555 1_555
H15 C19 1_555 1_555
C20 C19 1_555 1_555
H16 C20 1_555 1_555
C21 C20 1_555 1_555
C22 C21 1_555 1_555
H17 C22 1_555 1_555
C23 C22 1_555 1_555
H18 C23 1_555 1_555
C24 C23 1_555 1_555
H19 C24 1_555 1_555
C25 C24 1_555 1_555
H20 C25 1_555 1_555
C26 C21 1_555 1_555
H21 C26 1_555 1_555
C27 C9 1_555 1_555
H22 C27 1_555 1_555
C28 C27 1_555 1_555
H23 C28 1_555 1_555
C29 C28 1_555 1_555
C30 C29 1_555 1_555
H24 C30 1_555 1_555
C31 C30 1_555 1_555
H25 C31 1_555 1_555
C32 C31 1_555 1_555
H26 C32 1_555 1_555
C33 C32 1_555 1_555
H27 C33 1_555 1_555
C34 C29 1_555 1_555
H28 C34 1_555 1_555
C35 H29 1_555 1_555
H30 C35 1_555 1_555
H31 C35 1_555 1_555
C36 C35 1_555 1_555
H32 C36 1_555 1_555
H33 C36 1_555 1_555
C37 H34 1_555 1_555
H35 C37 1_555 1_555
C38 C37 1_555 1_555
H36 C38 1_555 1_555
H37 C38 1_555 1_555
H38 C38 1_555 1_555
O1 C36 1_555 1_555
C5 C6 1_555 1_555
C11 C12 1_555 1_555
C15 C16 1_555 1_555
C25 C26 1_555 1_555
C33 C34 1_555 1_555
C37 O1 1_555 1_555

#END
