
#######################################################################
#
#                 Cambridge Crystallographic Data Centre
#                                CCDC 
#
#######################################################################
#
# If this CIF has been generated from an entry in the Cambridge 
# Structural Database, then it will include bibliographic, chemical, 
# crystal, experimental, refinement or atomic coordinate data resulting 
# from the CCDC's data processing and validation procedures.
#
#######################################################################

data_KADCUP
_chemical_formula_moiety         'C13 H9 N5 O1'
_chemical_name_systematic        
'4-Cyanobenzaldehyde (pyrazin-2-ylcarbonyl)hydrazone'
_symmetry_cell_setting           triclinic
_symmetry_space_group_name_H-M   'P -1'
_symmetry_Int_Tables_number      2
_space_group_name_Hall           '-P 1'
loop_
_symmetry_equiv_pos_site_id
_symmetry_equiv_pos_as_xyz
1 x,y,z
2 -x,-y,-z
_cell_length_a                   5.7736(3)
_cell_length_b                   7.6045(3)
_cell_length_c                   14.1155(7)
_cell_angle_alpha                97.893(3)
_cell_angle_beta                 98.736(2)
_cell_angle_gamma                109.767(3)
_cell_volume                     564.476
_exptl_crystal_colour            colorless
_exptl_crystal_description       plate
_chemical_melting_point          '520-521 K'
_cell_formula_units_Z            2
_exptl_crystal_recrystallization_method ethanol
loop_
_atom_site_label
_atom_site_type_symbol
_atom_site_fract_x
_atom_site_fract_y
_atom_site_fract_z
O1 O 1.06885(19) 0.65729(13) 0.33389(7)
N1 N 1.3455(2) 1.24115(17) 0.44700(9)
N2 N 0.8320(2) 1.03236(15) 0.36430(8)
N3 N 0.6659(2) 0.65107(15) 0.29982(8)
H1 H 0.5673 0.7173 0.3028
N4 N 0.5650(2) 0.45837(15) 0.26018(8)
N5 N -0.2741(2) -0.56596(17) 0.03715(10)
C1 C 1.0037(3) 0.94919(18) 0.37241(9)
C2 C 1.2562(3) 1.05201(19) 0.41303(10)
H2 H 1.3700 0.9864 0.4170
C3 C 1.1760(3) 1.32488(19) 0.43740(10)
H3 H 1.2308 1.4591 0.4592
C4 C 0.9219(3) 1.22213(19) 0.39659(10)
H4 H 0.8088 1.2883 0.3915
C5 C 0.9179(3) 0.73804(19) 0.33415(10)
C6 C 0.3293(3) 0.39066(19) 0.22160(10)
H5 H 0.2359 0.4723 0.2210
C7 C 0.2039(3) 0.18651(19) 0.17826(10)
C8 C 0.3333(3) 0.06074(19) 0.18454(10)
H6 H 0.5067 0.1082 0.2154
C9 C 0.2096(3) -0.13164(19) 0.14604(10)
H7 H 0.2977 -0.2165 0.1504
C10 C -0.0461(3) -0.20163(19) 0.10056(10)
C11 C -0.1751(3) -0.07724(19) 0.09212(10)
H8 H -0.3475 -0.1243 0.0599
C12 C -0.0492(3) 0.11626(19) 0.13131(10)
H9 H -0.1365 0.2015 0.1260
C13 C -0.1742(3) -0.40383(19) 0.06412(10)
loop_
_geom_bond_atom_site_label_1
_geom_bond_atom_site_label_2
_geom_bond_site_symmetry_1
_geom_bond_site_symmetry_2
O1 C5 1_555 1_555
N1 C2 1_555 1_555
N2 C1 1_555 1_555
N3 H1 1_555 1_555
N4 N3 1_555 1_555
N5 C13 1_555 1_555
C1 C2 1_555 1_555
C2 H2 1_555 1_555
C3 N1 1_555 1_555
H3 C3 1_555 1_555
C4 N2 1_555 1_555
H4 C4 1_555 1_555
C5 N3 1_555 1_555
C6 N4 1_555 1_555
H5 C6 1_555 1_555
C7 C6 1_555 1_555
C8 C7 1_555 1_555
H6 C8 1_555 1_555
C9 C8 1_555 1_555
H7 C9 1_555 1_555
C10 C9 1_555 1_555
C11 C10 1_555 1_555
H8 C11 1_555 1_555
C12 C7 1_555 1_555
H9 C12 1_555 1_555
C13 C10 1_555 1_555
C1 C5 1_555 1_555
C3 C4 1_555 1_555
C11 C12 1_555 1_555

#END
