
#######################################################################
#
#                 Cambridge Crystallographic Data Centre
#                                CCDC 
#
#######################################################################
#
# If this CIF has been generated from an entry in the Cambridge 
# Structural Database, then it will include bibliographic, chemical, 
# crystal, experimental, refinement or atomic coordinate data resulting 
# from the CCDC's data processing and validation procedures.
#
#######################################################################

data_KADCAW
_chemical_formula_moiety         'C22 H24 N2 O2,2(H2 O1)'
_chemical_name_systematic        
"1,1'-(2,3,5,6-Tetramethyl-1,4-phenylene)bis(methylene)dipyridinium-4-olate dihydrate"
_symmetry_cell_setting           rhombohedral
_symmetry_space_group_name_H-M   'R -3'
_symmetry_Int_Tables_number      148
_space_group_name_Hall           '-R 3'
loop_
_symmetry_equiv_pos_site_id
_symmetry_equiv_pos_as_xyz
1 x,y,z
2 -y,x-y,z
3 -x+y,-x,z
4 2/3+x,1/3+y,1/3+z
5 2/3-y,1/3+x-y,1/3+z
6 2/3-x+y,1/3-x,1/3+z
7 1/3+x,2/3+y,2/3+z
8 1/3-y,2/3+x-y,2/3+z
9 1/3-x+y,2/3-x,2/3+z
10 -x,-y,-z
11 y,-x+y,-z
12 x-y,x,-z
13 1/3-x,2/3-y,2/3-z
14 1/3+y,2/3-x+y,2/3-z
15 1/3+x-y,2/3+x,2/3-z
16 2/3-x,1/3-y,1/3-z
17 2/3+y,1/3-x+y,1/3-z
18 2/3+x-y,1/3+x,1/3-z
_cell_length_a                   18.0795(4)
_cell_length_b                   18.0795(4)
_cell_length_c                   16.3558(6)
_cell_angle_alpha                90
_cell_angle_beta                 90
_cell_angle_gamma                120
_cell_volume                     4629.94
_exptl_crystal_colour            colorless
_exptl_crystal_description       block
_cell_formula_units_Z            9
loop_
_atom_site_label
_atom_site_type_symbol
_atom_site_fract_x
_atom_site_fract_y
_atom_site_fract_z
O1 O 0.96417(8) 0.69712(9) 0.04756(9)
N1 N 0.71006(9) 0.54851(9) 0.09456(9)
C1 C 0.55852(10) 0.50202(11) 0.05667(11)
C2 C 0.82133(12) 0.65240(12) 0.01317(12)
C3 C 0.52498(11) 0.55640(12) 0.06719(11)
C4 C 0.76882(12) 0.53970(12) 0.13937(11)
C5 C 0.88575(11) 0.64856(12) 0.06011(11)
C6 C 0.85291(12) 0.58584(12) 0.12360(12)
C7 C 0.73746(12) 0.60478(12) 0.03224(11)
C8 C 0.61909(11) 0.50057(14) 0.11964(12)
H1 H 0.6126 0.5246 0.1703
H2 H 0.6033 0.4417 0.1303
C9 C 0.55385(16) 0.62084(16) 0.13560(13)
H3 H 0.5085 0.6036 0.1747
H4 H 0.5685 0.6758 0.1138
H5 H 0.6029 0.6242 0.1619
C10 C 0.46475(11) 0.55298(12) 0.01099(11)
C11 C 0.42440(14) 0.60770(14) 0.02545(15)
H6 H 0.4675 0.6669 0.0225
H7 H 0.3983 0.5955 0.0786
H8 H 0.3818 0.5954 -0.0155
H9 H 0.6944(13) 0.6087(12) 0.0066(12)
H10 H 0.8914(13) 0.5780(13) 0.1568(13)
H11 H 0.8357(13) 0.6890(14) -0.0324(13)
H12 H 0.7454(12) 0.4997(13) 0.1827(13)
O1I O 0.03583(8) 0.30288(9) -0.04756(9)
N1I N 0.28994(9) 0.45149(9) -0.09456(9)
C1I C 0.44148(10) 0.49798(11) -0.05667(11)
C2I C 0.17867(12) 0.34760(12) -0.01317(12)
C3I C 0.47502(11) 0.44360(12) -0.06719(11)
C4I C 0.23118(12) 0.46030(12) -0.13937(11)
C5I C 0.11425(11) 0.35144(12) -0.06011(11)
C6I C 0.14709(12) 0.41416(12) -0.12360(12)
C7I C 0.26254(12) 0.39522(12) -0.03224(11)
C8I C 0.38091(11) 0.49943(14) -0.11964(12)
H1I H 0.3874 0.4754 -0.1703
H2I H 0.3967 0.5583 -0.1303
C9I C 0.44615(16) 0.37916(16) -0.13560(13)
H3I H 0.4915 0.3964 -0.1747
H4I H 0.4315 0.3242 -0.1138
H5I H 0.3971 0.3758 -0.1619
C10I C 0.53525(11) 0.44702(12) -0.01099(11)
C11I C 0.57560(14) 0.39230(14) -0.02545(15)
H6I H 0.5325 0.3331 -0.0225
H7I H 0.6017 0.4045 -0.0786
H8I H 0.6182 0.4046 0.0155
H9I H 0.3056(13) 0.3913(12) -0.0066(12)
H10I H 0.1086(13) 0.4220(13) -0.1568(13)
H11I H 0.1643(13) 0.3110(14) 0.0324(13)
H12I H 0.2546(12) 0.5003(13) -0.1827(13)
O2 O 0.99071(11) 0.84872(12) -0.02269(12)
H13 H 0.983(2) 0.795(2) 0.001(2)
H14 H 0.934(3) 0.850(2) -0.003(3)
C12? C 0.6667 0.3333 0.2095(15)
loop_
_geom_bond_atom_site_label_1
_geom_bond_atom_site_label_2
_geom_bond_site_symmetry_1
_geom_bond_site_symmetry_2
O1 C5 1_555 1_555
N1 C4 1_555 1_555
C1 C3 1_555 1_555
C2 C5 1_555 1_555
C3 C9 1_555 1_555
C4 C6 1_555 1_555
C5 C6 1_555 1_555
C6 H10 1_555 1_555
C7 N1 1_555 1_555
C8 N1 1_555 1_555
H1 C8 1_555 1_555
H2 C8 1_555 1_555
C9 H3 1_555 1_555
H4 C9 1_555 1_555
H5 C9 1_555 1_555
C10 C3 1_555 1_555
C11 C10 1_555 1_555
H6 C11 1_555 1_555
H7 C11 1_555 1_555
H8 C11 1_555 1_555
H9 C7 1_555 1_555
H11 C2 1_555 1_555
H12 C4 1_555 1_555
O2 H13 1_555 1_555
H14 O2 1_555 1_555
O1I C5I 1_555 1_555
N1I C4I 1_555 1_555
C1I C10 1_555 1_555
C2I C5I 1_555 1_555
C3I C1I 1_555 1_555
C4I C6I 1_555 1_555
C5I C6I 1_555 1_555
C6I H10I 1_555 1_555
C7I N1I 1_555 1_555
C8I N1I 1_555 1_555
H1I C8I 1_555 1_555
H2I C8I 1_555 1_555
C9I C3I 1_555 1_555
H3I C9I 1_555 1_555
H4I C9I 1_555 1_555
H5I C9I 1_555 1_555
C10I C1 1_555 1_555
C11I C10I 1_555 1_555
H6I C11I 1_555 1_555
H7I C11I 1_555 1_555
H8I C11I 1_555 1_555
H9I C7I 1_555 1_555
H11I C2I 1_555 1_555
H12I C4I 1_555 1_555
C1 C8 1_555 1_555
C2 C7 1_555 1_555
C1I C8I 1_555 1_555
C2I C7I 1_555 1_555
C3I C10I 1_555 1_555

#END
