
#######################################################################
#
#                 Cambridge Crystallographic Data Centre
#                                CCDC 
#
#######################################################################
#
# If this CIF has been generated from an entry in the Cambridge 
# Structural Database, then it will include bibliographic, chemical, 
# crystal, experimental, refinement or atomic coordinate data resulting 
# from the CCDC's data processing and validation procedures.
#
#######################################################################

data_KADCID
_chemical_formula_moiety         'C17 H12 O1 S5'
_chemical_name_systematic        
4-Benzoylthiolato-5-benzylthiolato-1,2-dithiole-3-thione
_symmetry_cell_setting           orthorhombic
_symmetry_space_group_name_H-M   'P 21 21 21'
_symmetry_Int_Tables_number      19
_space_group_name_Hall           'P 2ac 2ab'
loop_
_symmetry_equiv_pos_site_id
_symmetry_equiv_pos_as_xyz
1 x,y,z
2 1/2-x,-y,1/2+z
3 -x,1/2+y,1/2-z
4 1/2+x,1/2-y,-z
_cell_length_a                   5.5698(2)
_cell_length_b                   10.9537(5)
_cell_length_c                   27.4998(11)
_cell_angle_alpha                90
_cell_angle_beta                 90
_cell_angle_gamma                90
_cell_volume                     1677.76
_exptl_crystal_colour            orange
_exptl_crystal_description       needle
_chemical_melting_point          '160-161 deg.C'
_cell_formula_units_Z            4
_exptl_crystal_recrystallization_method acetone
loop_
_atom_site_label
_atom_site_type_symbol
_atom_site_fract_x
_atom_site_fract_y
_atom_site_fract_z
S1 S 0.51164(15) 0.25652(7) 0.25467(3)
S2 S 0.37340(13) 0.34234(7) 0.19397(3)
S3 S -0.02696(14) 0.51491(7) 0.19001(3)
S4 S -0.08846(13) 0.46387(7) 0.31037(3)
S5 S 0.32297(14) 0.29491(7) 0.35562(3)
O1 O 0.2653(4) 0.6205(2) 0.32716(8)
C1 C 0.1479(5) 0.4247(3) 0.22313(11)
C2 C 0.1425(5) 0.4024(3) 0.27406(11)
C3 C 0.3097(5) 0.3255(3) 0.29382(10)
C4 C 0.0683(5) 0.5879(3) 0.33952(10)
C5 C -0.0712(5) 0.6468(3) 0.37939(10)
C6 C 0.0100(6) 0.7577(3) 0.39762(10)
H1 H 0.1546 0.7923 0.3856
C7 C -0.1200(6) 0.8177(3) 0.43342(11)
H2 H -0.0657 0.8941 0.4455
C8 C -0.3283(7) 0.7665(3) 0.45152(11)
H3 H -0.4158 0.8073 0.4763
C9 C -0.4100(6) 0.6554(3) 0.43354(11)
H4 H -0.5538 0.6207 0.4459
C10 C -0.2822(6) 0.5951(3) 0.39757(10)
H5 H -0.3378 0.5191 0.3853
C11 C 0.5579(5) 0.1788(3) 0.35951(10)
H6 H 0.5173 0.1079 0.3388
H7 H 0.7137 0.2126 0.3486
C12 C 0.5717(5) 0.1407(3) 0.41240(10)
C13 C 0.3881(6) 0.0721(3) 0.43309(11)
H8 H 0.2547 0.0476 0.4139
C14 C 0.4001(6) 0.0395(3) 0.48166(11)
H9 H 0.2741 -0.0070 0.4957
C15 C 0.5946(6) 0.0744(3) 0.50996(11)
H10 H 0.6020 0.0514 0.5432
C16 C 0.7771(6) 0.1424(3) 0.48969(11)
H11 H 0.9106 0.1662 0.5090
C17 C 0.7659(6) 0.1766(3) 0.44053(11)
H12 H 0.8908 0.2242 0.4266
loop_
_geom_bond_atom_site_label_1
_geom_bond_atom_site_label_2
_geom_bond_site_symmetry_1
_geom_bond_site_symmetry_2
S1 S2 1_555 1_555
S2 C1 1_555 1_555
S3 C1 1_555 1_555
S4 C2 1_555 1_555
S5 C3 1_555 1_555
O1 C4 1_555 1_555
C1 C2 1_555 1_555
C2 C3 1_555 1_555
C3 S1 1_555 1_555
C4 S4 1_555 1_555
C5 C4 1_555 1_555
C6 C5 1_555 1_555
H1 C6 1_555 1_555
C7 C6 1_555 1_555
H2 C7 1_555 1_555
C8 C7 1_555 1_555
H3 C8 1_555 1_555
C9 C8 1_555 1_555
H4 C9 1_555 1_555
C10 C5 1_555 1_555
H5 C10 1_555 1_555
C11 S5 1_555 1_555
H6 C11 1_555 1_555
H7 C11 1_555 1_555
C12 C11 1_555 1_555
C13 C12 1_555 1_555
H8 C13 1_555 1_555
C14 C13 1_555 1_555
H9 C14 1_555 1_555
C15 C14 1_555 1_555
H10 C15 1_555 1_555
C16 C15 1_555 1_555
H11 C16 1_555 1_555
C17 C12 1_555 1_555
H12 C17 1_555 1_555
C9 C10 1_555 1_555
C16 C17 1_555 1_555

#END
