
#######################################################################
#
#                 Cambridge Crystallographic Data Centre
#                                CCDC 
#
#######################################################################
#
# If this CIF has been generated from an entry in the Cambridge 
# Structural Database, then it will include bibliographic, chemical, 
# crystal, experimental, refinement or atomic coordinate data resulting 
# from the CCDC's data processing and validation procedures.
#
#######################################################################

data_KADDUQ
_chemical_formula_moiety         'C12 H9 N5 O3'
_chemical_name_systematic        
'2-Nitrobenzaldehyde (pyrazin-2-ylcarbonyl)hydrazone'
_symmetry_cell_setting           monoclinic
_symmetry_space_group_name_H-M   'C 2/c'
_symmetry_Int_Tables_number      15
_space_group_name_Hall           '-C 2yn'
loop_
_symmetry_equiv_pos_site_id
_symmetry_equiv_pos_as_xyz
1 x,y,z
2 -x,y,1/2-z
3 1/2+x,1/2+y,z
4 1/2-x,1/2+y,1/2-z
5 -x,-y,-z
6 x,-y,1/2+z
7 1/2-x,1/2-y,-z
8 1/2+x,1/2-y,1/2+z
_cell_length_a                   9.3190(2)
_cell_length_b                   12.1162(3)
_cell_length_c                   20.3639(5)
_cell_angle_alpha                90
_cell_angle_beta                 90.5667(13)
_cell_angle_gamma                90
_cell_volume                     2299.19
_exptl_crystal_colour            brown
_exptl_crystal_description       block
_chemical_melting_point          '455-456 K'
_cell_formula_units_Z            8
_exptl_crystal_recrystallization_method ethanol
loop_
_atom_site_label
_atom_site_type_symbol
_atom_site_fract_x
_atom_site_fract_y
_atom_site_fract_z
O1 O 0.53437(11) 0.42178(7) 0.65476(5)
O2 O 0.16564(9) 0.70245(7) 0.42518(4)
O3 O 0.11226(10) 0.63966(7) 0.32834(4)
N1 N 0.78846(11) 0.64283(9) 0.76196(5)
N2 N 0.64001(10) 0.70297(8) 0.64638(5)
N3 N 0.44659(10) 0.56340(8) 0.59231(5)
H1 H 0.4505 0.6345 0.5838
N4 N 0.35423(10) 0.49657(8) 0.55741(5)
N5 N 0.13211(10) 0.62658(8) 0.38741(5)
C1 C 0.62668(11) 0.60267(9) 0.67354(5)
C2 C 0.70031(13) 0.57294(10) 0.73055(6)
H2 H 0.6877 0.5007 0.7477
C3 C 0.80254(12) 0.74222(10) 0.73459(6)
H3 H 0.8644 0.7946 0.7549
C4 C 0.72970(13) 0.77188(10) 0.67724(6)
H4 H 0.7443 0.8435 0.6595
C5 C 0.53157(12) 0.51945(9) 0.63991(6)
C6 C 0.28367(12) 0.54463(9) 0.51144(5)
H5 H 0.2977 0.6208 0.5026
C7 C 0.17993(11) 0.47917(9) 0.47235(5)
C8 C 0.11080(11) 0.51511(9) 0.41452(5)
C9 C 0.01758(12) 0.44801(9) 0.37858(5)
H6 H -0.0267 0.4750 0.3395
C10 C -0.01019(12) 0.34186(9) 0.40001(6)
H7 H -0.0746 0.2958 0.3761
C11 C 0.05694(12) 0.30325(9) 0.45675(6)
H8 H 0.0394 0.2300 0.4713
C12 C 0.14921(12) 0.37079(9) 0.49224(6)
H9 H 0.1930 0.3430 0.5312
loop_
_geom_bond_atom_site_label_1
_geom_bond_atom_site_label_2
_geom_bond_site_symmetry_1
_geom_bond_site_symmetry_2
O1 C5 1_555 1_555
O2 N5 1_555 1_555
O3 N5 1_555 1_555
N1 C2 1_555 1_555
N2 C1 1_555 1_555
N3 H1 1_555 1_555
N4 N3 1_555 1_555
N5 C8 1_555 1_555
C1 C2 1_555 1_555
C2 H2 1_555 1_555
C3 N1 1_555 1_555
H3 C3 1_555 1_555
C4 N2 1_555 1_555
H4 C4 1_555 1_555
C5 N3 1_555 1_555
C6 N4 1_555 1_555
H5 C6 1_555 1_555
C7 C6 1_555 1_555
C8 C7 1_555 1_555
C9 C8 1_555 1_555
H6 C9 1_555 1_555
C10 C9 1_555 1_555
H7 C10 1_555 1_555
C11 C10 1_555 1_555
H8 C11 1_555 1_555
C12 C7 1_555 1_555
H9 C12 1_555 1_555
C1 C5 1_555 1_555
C3 C4 1_555 1_555
C11 C12 1_555 1_555

#END
