
#######################################################################
#
#                 Cambridge Crystallographic Data Centre
#                                CCDC 
#
#######################################################################
#
# If this CIF has been generated from an entry in the Cambridge 
# Structural Database, then it will include bibliographic, chemical, 
# crystal, experimental, refinement or atomic coordinate data resulting 
# from the CCDC's data processing and validation procedures.
#
#######################################################################

data_KADDAW
_chemical_formula_moiety         'C13 H12 N4 O2'
_chemical_name_systematic        
'3-Methoxybenzaldehyde (pyrazin-2-ylcarbonyl)hydrazone'
_symmetry_cell_setting           monoclinic
_symmetry_space_group_name_H-M   'P 21/n'
_symmetry_Int_Tables_number      14
_space_group_name_Hall           '-P 2yn'
loop_
_symmetry_equiv_pos_site_id
_symmetry_equiv_pos_as_xyz
1 x,y,z
2 1/2-x,1/2+y,1/2-z
3 -x,-y,-z
4 1/2+x,1/2-y,1/2+z
_cell_length_a                   5.9537(2)
_cell_length_b                   9.6335(3)
_cell_length_c                   20.7974(6)
_cell_angle_alpha                90
_cell_angle_beta                 97.871(2)
_cell_angle_gamma                90
_cell_volume                     1181.6
_exptl_crystal_colour            colorless
_exptl_crystal_description       slab
_chemical_melting_point          '433-434 K'
_cell_formula_units_Z            4
_exptl_crystal_recrystallization_method ethanol
loop_
_atom_site_label
_atom_site_type_symbol
_atom_site_fract_x
_atom_site_fract_y
_atom_site_fract_z
O1 O 0.85240(19) 0.76029(13) 0.52309(5)
O2 O 0.59563(18) 0.28969(12) 0.75330(5)
N1 N 0.7481(2) 1.04885(14) 0.37109(7)
N2 N 0.3911(2) 0.91241(13) 0.42021(6)
N3 N 0.4689(2) 0.72485(13) 0.51450(6)
H1 H 0.3355 0.7506 0.4945
N4 N 0.4800(2) 0.62365(13) 0.56185(6)
C1 C 0.6089(3) 0.89008(16) 0.44419(7)
C2 C 0.7854(3) 0.95883(17) 0.42058(8)
H2 H 0.9367 0.9417 0.4400
C3 C 0.5310(3) 1.06913(17) 0.34686(8)
H3 H 0.4967 1.1312 0.3114
C4 C 0.3533(3) 1.00332(16) 0.37137(8)
H4 H 0.2018 1.0233 0.3530
C5 C 0.6580(3) 0.78544(16) 0.49813(7)
C6 C 0.2870(3) 0.57183(16) 0.56932(7)
H5 H 0.1553 0.6044 0.5426
C7 C 0.2621(3) 0.46432(16) 0.61761(7)
C8 C 0.4423(3) 0.42279(16) 0.66388(7)
H6 H 0.5876 0.4637 0.6642
C9 C 0.4092(3) 0.32160(16) 0.70947(7)
C10 C 0.1971(3) 0.25934(16) 0.70868(8)
H7 H 0.1749 0.1888 0.7391
C11 C 0.0184(3) 0.30212(17) 0.66262(8)
H8 H -0.1266 0.2606 0.6620
C12 C 0.0485(3) 0.40411(17) 0.61768(8)
H9 H -0.0756 0.4331 0.5870
C13 C 0.5640(3) 0.19039(17) 0.80263(8)
H10 H 0.4465 0.2237 0.8276
H11 H 0.7066 0.1783 0.8317
H12 H 0.5171 0.1013 0.7823
loop_
_geom_bond_atom_site_label_1
_geom_bond_atom_site_label_2
_geom_bond_site_symmetry_1
_geom_bond_site_symmetry_2
O1 C5 1_555 1_555
O2 C9 1_555 1_555
N1 C2 1_555 1_555
N2 C1 1_555 1_555
N3 H1 1_555 1_555
N4 N3 1_555 1_555
C1 C2 1_555 1_555
C2 H2 1_555 1_555
C3 N1 1_555 1_555
H3 C3 1_555 1_555
C4 N2 1_555 1_555
H4 C4 1_555 1_555
C5 N3 1_555 1_555
C6 N4 1_555 1_555
H5 C6 1_555 1_555
C7 C6 1_555 1_555
C8 C7 1_555 1_555
H6 C8 1_555 1_555
C9 C8 1_555 1_555
C10 C9 1_555 1_555
H7 C10 1_555 1_555
C11 C10 1_555 1_555
H8 C11 1_555 1_555
C12 C7 1_555 1_555
H9 C12 1_555 1_555
C13 O2 1_555 1_555
H10 C13 1_555 1_555
H11 C13 1_555 1_555
H12 C13 1_555 1_555
C1 C5 1_555 1_555
C3 C4 1_555 1_555
C11 C12 1_555 1_555

#END
