
#######################################################################
#
#                 Cambridge Crystallographic Data Centre
#                                CCDC 
#
#######################################################################
#
# If this CIF has been generated from an entry in the Cambridge 
# Structural Database, then it will include bibliographic, chemical, 
# crystal, experimental, refinement or atomic coordinate data resulting 
# from the CCDC's data processing and validation procedures.
#
#######################################################################

data_KADFAY01
_chemical_formula_moiety         'C20 H10 O2 S10'
_chemical_name_systematic        
bis(4-benzoylthio-1,3-dithiole-2-thione)-5,5'-disulfide
_symmetry_cell_setting           monoclinic
_symmetry_space_group_name_H-M   'P 21'
_symmetry_Int_Tables_number      4
_space_group_name_Hall           'P 2yb'
loop_
_symmetry_equiv_pos_site_id
_symmetry_equiv_pos_as_xyz
1 x,y,z
2 -x,1/2+y,-z
_cell_length_a                   13.1300(3)
_cell_length_b                   13.7061(5)
_cell_length_c                   13.3967(5)
_cell_angle_alpha                90
_cell_angle_beta                 90.510(2)
_cell_angle_gamma                90
_cell_volume                     2410.79
_exptl_crystal_colour            orange
_exptl_crystal_description       block
_cell_formula_units_Z            4
_exptl_crystal_recrystallization_method chloroform/toluene
loop_
_atom_site_label
_atom_site_type_symbol
_atom_site_fract_x
_atom_site_fract_y
_atom_site_fract_z
S1 S 0.36174(9) 0.42050(10) 0.53776(8)
S2 S 0.37400(7) 0.40676(8) 0.75626(7)
S3 S 0.18992(7) 0.48332(7) 0.66629(7)
S4 S 0.28979(7) 0.43505(8) 0.96864(7)
S5 S 0.09130(6) 0.52757(8) 0.86327(8)
S6 S 0.39991(10) 0.68183(9) 1.19125(8)
S7 S 0.42173(7) 0.69693(8) 0.97383(7)
S8 S 0.21834(8) 0.68858(8) 1.05557(7)
S9 S 0.33570(7) 0.70038(8) 0.75732(7)
S10 S 0.11638(7) 0.67820(8) 0.85364(8)
O1 O 0.48624(19) 0.4281(3) 0.9275(2)
O2 O 0.5258(2) 0.6611(3) 0.8055(2)
C1 C 0.3104(3) 0.4358(3) 0.6464(3)
C2 C 0.2804(2) 0.4457(2) 0.8391(2)
C3 C 0.1949(2) 0.4817(3) 0.7962(3)
C4 C 0.3476(3) 0.6890(3) 1.0805(3)
C5 C 0.3216(2) 0.6929(3) 0.8870(2)
C6 C 0.2276(2) 0.6889(3) 0.9261(2)
C7 C 0.4237(2) 0.4274(3) 0.9932(3)
C8 C 0.4487(2) 0.4262(3) 1.1007(2)
C9 C 0.5480(3) 0.4459(3) 1.1303(3)
H1 H 0.5975 0.4578 1.0826
C10 C 0.5735(3) 0.4479(3) 1.2300(3)
H2 H 0.6399 0.4627 1.2495
C11 C 0.5016(3) 0.4282(3) 1.3009(3)
H3 H 0.5197 0.4294 1.3682
C12 C 0.4037(3) 0.4068(3) 1.2736(3)
H4 H 0.3553 0.3927 1.3218
C13 C 0.3772(3) 0.4063(3) 1.1733(3)
H5 H 0.3105 0.3923 1.1544
C14 C 0.4676(3) 0.6741(3) 0.7372(3)
C15 C 0.4952(2) 0.6709(3) 0.6310(2)
C16 C 0.5965(3) 0.6549(3) 0.6069(3)
H6 H 0.6447 0.6469 0.6576
C17 C 0.6263(3) 0.6508(3) 0.5090(3)
H7 H 0.6944 0.6402 0.4938
C18 C 0.5562(3) 0.6624(3) 0.4334(3)
H8 H 0.5764 0.6591 0.3671
C19 C 0.4568(3) 0.6789(4) 0.4563(3)
H9 H 0.4093 0.6873 0.4052
C20 C 0.4259(3) 0.6832(4) 0.5535(3)
H10 H 0.3577 0.6944 0.5677
S11 S 0.89623(10) 0.42054(10) 0.03454(8)
S12 S 0.86855(7) 0.43607(8) 0.25096(7)
S13 S 1.06562(8) 0.48584(8) 0.16994(8)
S14 S 0.94292(7) 0.48394(8) 0.46604(7)
S15 S 1.16107(6) 0.52414(8) 0.37154(8)
S16 S 0.89149(9) 0.74598(9) 0.68895(8)
S17 S 0.88003(7) 0.76904(8) 0.47032(7)
S18 S 1.06942(7) 0.70470(7) 0.55878(7)
S19 S 0.96457(7) 0.76062(8) 0.25860(7)
S20 S 1.17252(6) 0.67557(7) 0.35994(7)
O3 O 0.7616(2) 0.4167(3) 0.4180(2)
O4 O 0.7890(2) 0.6771(3) 0.2990(2)
C21 C 0.9430(3) 0.4468(3) 0.1441(3)
C22 C 0.9608(3) 0.4747(3) 0.3368(3)
C23 C 1.0530(3) 0.4965(3) 0.2987(3)
C24 C 0.9452(3) 0.7403(3) 0.5785(3)
C25 C 0.9770(2) 0.7414(2) 0.3875(2)
C26 C 1.0662(2) 0.7109(2) 0.4289(2)
C27 C 0.8160(2) 0.4416(3) 0.4864(3)
C28 C 0.7858(2) 0.4406(3) 0.5919(3)
C29 C 0.6867(3) 0.4146(3) 0.6140(3)
H11 H 0.6412 0.3986 0.5630
C30 C 0.6557(3) 0.4127(4) 0.7118(4)
H12 H 0.5892 0.3948 0.7263
C31 C 0.7215(3) 0.4368(4) 0.7886(3)
H13 H 0.6997 0.4359 0.8545
C32 C 0.8200(3) 0.4622(4) 0.7661(3)
H14 H 0.8653 0.4780 0.8174
C33 C 0.8521(3) 0.4644(3) 0.6694(3)
H15 H 0.9189 0.4821 0.6554
C34 C 0.8426(2) 0.7056(3) 0.2333(3)
C35 C 0.8173(2) 0.6978(3) 0.1255(2)
C36 C 0.7217(3) 0.6621(3) 0.0993(3)
H16 H 0.6757 0.6452 0.1487
C37 C 0.6950(3) 0.6517(3) -0.0003(3)
H17 H 0.6319 0.6258 -0.0179
C38 C 0.7622(3) 0.6800(3) -0.0736(3)
H18 H 0.7440 0.6742 -0.1406
C39 C 0.8556(3) 0.7163(3) -0.0474(3)
H19 H 0.9007 0.7350 -0.0971
C40 C 0.8844(3) 0.7259(3) 0.0515(3)
H20 H 0.9481 0.7509 0.0683
loop_
_geom_bond_atom_site_label_1
_geom_bond_atom_site_label_2
_geom_bond_site_symmetry_1
_geom_bond_site_symmetry_2
S1 C1 1_555 1_555
S2 C1 1_555 1_555
S3 C1 1_555 1_555
S4 C2 1_555 1_555
S5 S10 1_555 1_555
S6 C4 1_555 1_555
S7 C4 1_555 1_555
S8 C4 1_555 1_555
S9 C5 1_555 1_555
S10 C6 1_555 1_555
O1 C7 1_555 1_555
O2 C14 1_555 1_555
C2 S2 1_555 1_555
C3 S3 1_555 1_555
C5 S7 1_555 1_555
C6 S8 1_555 1_555
C7 S4 1_555 1_555
C8 C7 1_555 1_555
C9 C8 1_555 1_555
H1 C9 1_555 1_555
C10 C9 1_555 1_555
H2 C10 1_555 1_555
C11 C10 1_555 1_555
H3 C11 1_555 1_555
C12 C11 1_555 1_555
H4 C12 1_555 1_555
C13 C8 1_555 1_555
H5 C13 1_555 1_555
C14 S9 1_555 1_555
C15 C14 1_555 1_555
C16 C15 1_555 1_555
H6 C16 1_555 1_555
C17 C16 1_555 1_555
H7 C17 1_555 1_555
C18 C17 1_555 1_555
H8 C18 1_555 1_555
C19 C18 1_555 1_555
H9 C19 1_555 1_555
C20 C15 1_555 1_555
H10 C20 1_555 1_555
S11 C21 1_555 1_555
S12 C21 1_555 1_555
S13 C21 1_555 1_555
S14 C22 1_555 1_555
S15 S20 1_555 1_555
S16 C24 1_555 1_555
S17 C24 1_555 1_555
S18 C24 1_555 1_555
S19 C25 1_555 1_555
S20 C26 1_555 1_555
O3 C27 1_555 1_555
O4 C34 1_555 1_555
C22 S12 1_555 1_555
C23 S13 1_555 1_555
C25 S17 1_555 1_555
C26 S18 1_555 1_555
C27 S14 1_555 1_555
C28 C27 1_555 1_555
C29 C28 1_555 1_555
H11 C29 1_555 1_555
C30 C29 1_555 1_555
H12 C30 1_555 1_555
C31 C30 1_555 1_555
H13 C31 1_555 1_555
C32 C31 1_555 1_555
H14 C32 1_555 1_555
C33 C28 1_555 1_555
H15 C33 1_555 1_555
C34 S19 1_555 1_555
C35 C34 1_555 1_555
C36 C35 1_555 1_555
H16 C36 1_555 1_555
C37 C36 1_555 1_555
H17 C37 1_555 1_555
C38 C37 1_555 1_555
H18 C38 1_555 1_555
C39 C38 1_555 1_555
H19 C39 1_555 1_555
C40 C35 1_555 1_555
H20 C40 1_555 1_555
S5 C3 1_555 1_555
C2 C3 1_555 1_555
C5 C6 1_555 1_555
C12 C13 1_555 1_555
C19 C20 1_555 1_555
S15 C23 1_555 1_555
C22 C23 1_555 1_555
C25 C26 1_555 1_555
C32 C33 1_555 1_555
C39 C40 1_555 1_555

#END
