
#######################################################################
#
#                 Cambridge Crystallographic Data Centre
#                                CCDC 
#
#######################################################################
#
# If this CIF has been generated from an entry in the Cambridge 
# Structural Database, then it will include bibliographic, chemical, 
# crystal, experimental, refinement or atomic coordinate data resulting 
# from the CCDC's data processing and validation procedures.
#
#######################################################################

data_KADFAY
_chemical_formula_moiety         'C20 H10 O2 S10'
_chemical_name_systematic        
bis(4-benzoylthio-1,3-dithiole-2-thione)-5,5'-disulfide
_symmetry_cell_setting           monoclinic
_symmetry_space_group_name_H-M   'P 21/c'
_symmetry_Int_Tables_number      14
_space_group_name_Hall           '-P 2ybc'
loop_
_symmetry_equiv_pos_site_id
_symmetry_equiv_pos_as_xyz
1 x,y,z
2 -x,1/2+y,1/2-z
3 -x,-y,-z
4 x,1/2-y,1/2+z
_cell_length_a                   12.653(10)
_cell_length_b                   25.82(2)
_cell_length_c                   7.337(7)
_cell_angle_alpha                90
_cell_angle_beta                 101.170(10)
_cell_angle_gamma                90
_cell_volume                     2351.59
_exptl_crystal_colour            yellow
_exptl_crystal_description       plate
_cell_formula_units_Z            4
_exptl_crystal_recrystallization_method chloroform
loop_
_atom_site_label
_atom_site_type_symbol
_atom_site_fract_x
_atom_site_fract_y
_atom_site_fract_z
S1 S -0.11197(11) 0.63814(6) 0.5318(2)
S2 S 0.11104(10) 0.65261(5) 0.73680(19)
S3 S 0.02178(11) 0.54858(5) 0.7031(2)
S4 S 0.32942(11) 0.61184(5) 0.9601(2)
S5 S 0.22615(11) 0.49907(5) 0.9125(2)
S6 S 0.67197(11) 0.58748(6) 0.7111(2)
S7 S 0.44760(10) 0.60054(5) 0.5106(2)
S8 S 0.49745(11) 0.51243(5) 0.75755(19)
S9 S 0.21591(10) 0.56176(5) 0.36811(19)
S10 S 0.27157(11) 0.46920(5) 0.6711(2)
O1 O 0.2815(3) 0.70904(16) 0.8778(8)
O2 O 0.2742(3) 0.66066(14) 0.3987(6)
C1 C 0.0003(4) 0.6135(2) 0.6519(7)
C2 C 0.1963(4) 0.6033(2) 0.8385(7)
C3 C 0.1539(4) 0.5547(2) 0.8254(7)
C4 C 0.5462(4) 0.56735(19) 0.6636(7)
C5 C 0.3411(4) 0.5574(2) 0.5188(7)
C6 C 0.3650(4) 0.51656(19) 0.6352(8)
C7 C 0.3521(4) 0.6800(2) 0.9491(8)
C8 C 0.4630(4) 0.6961(2) 1.0342(8)
C9 C 0.4840(4) 0.7490(2) 1.0524(8)
H1 H 0.4279 0.7734 1.0136
C10 C 0.5878(4) 0.7661(2) 1.1281(9)
H2 H 0.6027 0.8021 1.1406
C11 C 0.6688(5) 0.7306(2) 1.1846(8)
H3 H 0.7397 0.7423 1.2347
C12 C 0.6471(4) 0.6775(2) 1.1687(8)
H4 H 0.7028 0.6531 1.2097
C13 C 0.5452(4) 0.6609(2) 1.0935(8)
H5 H 0.5306 0.6249 1.0820
C14 C 0.2010(4) 0.63141(19) 0.3349(8)
C15 C 0.0970(4) 0.6471(2) 0.2233(7)
C16 C 0.0806(5) 0.6998(2) 0.1902(8)
H6 H 0.1355 0.7239 0.2395
C17 C -0.0165(4) 0.7173(2) 0.0847(8)
H7 H -0.0274 0.7532 0.0596
C18 C -0.0969(4) 0.6822(2) 0.0167(8)
H8 H -0.1636 0.6941 -0.0534
C19 C -0.0808(4) 0.6296(2) 0.0502(8)
H9 H -0.1363 0.6058 0.0013
C20 C 0.0147(4) 0.6115(2) 0.1535(7)
H10 H 0.0249 0.5755 0.1774
loop_
_geom_bond_atom_site_label_1
_geom_bond_atom_site_label_2
_geom_bond_site_symmetry_1
_geom_bond_site_symmetry_2
S1 C1 1_555 1_555
S2 C1 1_555 1_555
S3 C1 1_555 1_555
S4 C2 1_555 1_555
S5 S10 1_555 1_555
S6 C4 1_555 1_555
S7 C4 1_555 1_555
S8 C4 1_555 1_555
S9 C5 1_555 1_555
S10 C6 1_555 1_555
O1 C7 1_555 1_555
O2 C14 1_555 1_555
C2 S2 1_555 1_555
C3 S3 1_555 1_555
C5 S7 1_555 1_555
C6 S8 1_555 1_555
C7 S4 1_555 1_555
C8 C7 1_555 1_555
C9 C8 1_555 1_555
H1 C9 1_555 1_555
C10 C9 1_555 1_555
H2 C10 1_555 1_555
C11 C10 1_555 1_555
H3 C11 1_555 1_555
C12 C11 1_555 1_555
H4 C12 1_555 1_555
C13 C8 1_555 1_555
H5 C13 1_555 1_555
C14 S9 1_555 1_555
C15 C14 1_555 1_555
C16 C15 1_555 1_555
H6 C16 1_555 1_555
C17 C16 1_555 1_555
H7 C17 1_555 1_555
C18 C17 1_555 1_555
H8 C18 1_555 1_555
C19 C18 1_555 1_555
H9 C19 1_555 1_555
C20 C15 1_555 1_555
H10 C20 1_555 1_555
S5 C3 1_555 1_555
C2 C3 1_555 1_555
C5 C6 1_555 1_555
C12 C13 1_555 1_555
C19 C20 1_555 1_555

#END
