
#######################################################################
#
#                 Cambridge Crystallographic Data Centre
#                                CCDC 
#
#######################################################################
#
# If this CIF has been generated from an entry in the Cambridge 
# Structural Database, then it will include bibliographic, chemical, 
# crystal, experimental, refinement or atomic coordinate data resulting 
# from the CCDC's data processing and validation procedures.
#
#######################################################################

data_KADJIL
_chemical_formula_moiety         'C22 H18 O3 S1'
_chemical_name_systematic        
10-benzoyl-8-methyl-3a,9b,10,10a-tetrahydro[1]benzothieno[2,3-f][2]benzofuran-1(3H)-one
_symmetry_cell_setting           orthorhombic
_symmetry_space_group_name_H-M   'P 21 21 21'
_symmetry_Int_Tables_number      19
_space_group_name_Hall           'P 2ac 2ab'
loop_
_symmetry_equiv_pos_site_id
_symmetry_equiv_pos_as_xyz
1 x,y,z
2 1/2-x,-y,1/2+z
3 -x,1/2+y,1/2-z
4 1/2+x,1/2-y,-z
_cell_length_a                   5.5999(4)
_cell_length_b                   10.2273(7)
_cell_length_c                   29.747(2)
_cell_angle_alpha                90
_cell_angle_beta                 90
_cell_angle_gamma                90
_cell_volume                     1703.67
_exptl_crystal_colour            colorless
_exptl_crystal_description       plate
_cell_formula_units_Z            4
loop_
_atom_site_label
_atom_site_type_symbol
_atom_site_fract_x
_atom_site_fract_y
_atom_site_fract_z
S1 S 0.73998(16) 0.71059(7) 0.91186(2)
O1 O -0.0858(4) 1.0126(2) 0.86541(7)
O2 O 0.0892(4) 1.0727(2) 0.75890(6)
O3 O 0.4201(4) 0.9710(2) 0.73662(7)
C1 C 0.3632(6) 1.2581(3) 0.87482(9)
H1 H 0.4899 1.2045 0.8854
C2 C 0.3853(6) 1.3937(3) 0.87530(9)
H2 H 0.5267 1.4329 0.8867
C3 C 0.2029(6) 1.4715(3) 0.85926(9)
H3 H 0.2201 1.5639 0.8596
C4 C -0.0059(6) 1.4159(3) 0.84261(10)
H4 H -0.1304 1.4699 0.8314
C5 C -0.0308(5) 1.2808(3) 0.84253(9)
H5 H -0.1735 1.2423 0.8314
C6 C 0.1521(5) 1.2014(3) 0.85863(8)
C7 C 0.1122(5) 1.0575(3) 0.85885(8)
C8 C 0.3199(5) 0.9656(3) 0.84824(9)
H6 H 0.4685 1.0178 0.8432
C9 C 0.2506(6) 0.8930(2) 0.80433(8)
H7 H 0.0930 0.8485 0.8084
C10 C 0.2359(6) 0.9891(3) 0.76530(8)
C11 C 0.5812(6) 0.8718(3) 0.75353(10)
H8 H 0.7227 0.9125 0.7677
H9 H 0.6356 0.8141 0.7288
C12 C 0.4369(6) 0.7937(3) 0.78834(9)
H10 H 0.3535 0.7201 0.7728
C13 C 0.5926(6) 0.7388(3) 0.82484(9)
H11 H 0.7203 0.6819 0.8171
C14 C 0.5548(6) 0.7684(3) 0.86781(9)
C15 C 0.6464(6) 0.8410(3) 0.94664(9)
C16 C 0.7472(7) 0.8711(3) 0.98813(9)
H12 H 0.8820 0.8244 0.9990
C17 C 0.6451(6) 0.9715(3) 1.01326(9)
H13 H 0.7142 0.9943 1.0414
C18 C 0.4455(6) 1.0393(3) 0.99843(9)
C19 C 0.3491(6) 1.0072(3) 0.95641(9)
H14 H 0.2122 1.0526 0.9458
C20 C 0.4507(6) 0.9098(3) 0.92989(9)
C21 C 0.3656(6) 0.8615(3) 0.88463(8)
H15 H 0.2146 0.8110 0.8892
C22 C 0.3334(7) 1.1456(3) 1.02637(10)
H16 H 0.4194 1.1534 1.0549
H17 H 0.1660 1.1237 1.0323
H18 H 0.3420 1.2287 1.0101
loop_
_geom_bond_atom_site_label_1
_geom_bond_atom_site_label_2
_geom_bond_site_symmetry_1
_geom_bond_site_symmetry_2
S1 C14 1_555 1_555
O1 C7 1_555 1_555
O2 C10 1_555 1_555
O3 C10 1_555 1_555
C1 H1 1_555 1_555
C2 C1 1_555 1_555
H2 C2 1_555 1_555
C3 C2 1_555 1_555
H3 C3 1_555 1_555
C4 C3 1_555 1_555
H4 C4 1_555 1_555
C5 C4 1_555 1_555
H5 C5 1_555 1_555
C6 C1 1_555 1_555
C7 C6 1_555 1_555
C8 C7 1_555 1_555
H6 C8 1_555 1_555
C9 C8 1_555 1_555
H7 C9 1_555 1_555
C10 C9 1_555 1_555
C11 O3 1_555 1_555
H8 C11 1_555 1_555
H9 C11 1_555 1_555
C12 C9 1_555 1_555
H10 C12 1_555 1_555
C13 C12 1_555 1_555
H11 C13 1_555 1_555
C14 C13 1_555 1_555
C15 S1 1_555 1_555
C16 C15 1_555 1_555
H12 C16 1_555 1_555
C17 C16 1_555 1_555
H13 C17 1_555 1_555
C18 C17 1_555 1_555
C19 C18 1_555 1_555
H14 C19 1_555 1_555
C20 C15 1_555 1_555
C21 C8 1_555 1_555
H15 C21 1_555 1_555
C22 C18 1_555 1_555
H16 C22 1_555 1_555
H17 C22 1_555 1_555
H18 C22 1_555 1_555
C5 C6 1_555 1_555
C11 C12 1_555 1_555
C14 C21 1_555 1_555
C19 C20 1_555 1_555
C20 C21 1_555 1_555

#END
