
#######################################################################
#
#                 Cambridge Crystallographic Data Centre
#                                CCDC 
#
#######################################################################
#
# If this CIF has been generated from an entry in the Cambridge 
# Structural Database, then it will include bibliographic, chemical, 
# crystal, experimental, refinement or atomic coordinate data resulting 
# from the CCDC's data processing and validation procedures.
#
#######################################################################

data_KADLAC
_chemical_formula_moiety         'C8 H9 Cl2 N3 S1'
_chemical_name_systematic        
1-(3,4-Dichlorophenyl)-4-methylthiosemicarbazide
_symmetry_cell_setting           monoclinic
_symmetry_space_group_name_H-M   'P 21/n'
_symmetry_Int_Tables_number      14
_space_group_name_Hall           '-P 2yn'
loop_
_symmetry_equiv_pos_site_id
_symmetry_equiv_pos_as_xyz
1 x,y,z
2 1/2-x,1/2+y,1/2-z
3 -x,-y,-z
4 1/2+x,1/2-y,1/2+z
_cell_length_a                   6.477(1)
_cell_length_b                   27.079(5)
_cell_length_c                   6.266(1)
_cell_angle_alpha                90
_cell_angle_beta                 96.84(2)
_cell_angle_gamma                90
_cell_volume                     1091.18
_exptl_crystal_colour            colorless
_cell_formula_units_Z            4
loop_
_atom_site_label
_atom_site_type_symbol
_atom_site_fract_x
_atom_site_fract_y
_atom_site_fract_z
Cl1 Cl 0.8632(2) 0.81356(4) 0.1395(2)
Cl2 Cl 0.8155(2) 0.75763(4) 0.5744(2)
S1 S 0.2468(1) 0.99149(3) -0.2622(1)
N1 N 0.0146(4) 0.9247(1) -0.0900(4)
N2 N 0.2990(4) 0.9516(1) 0.1217(4)
N3 N 0.2462(4) 0.9211(1) 0.2856(4)
C1 C 0.3859(4) 0.8824(1) 0.3492(4)
C2 C 0.5395(5) 0.8682(1) 0.2272(5)
C3 C 0.6706(5) 0.8296(1) 0.2949(5)
C4 C 0.6482(5) 0.8051(1) 0.4828(5)
C5 C 0.4922(6) 0.8187(1) 0.6027(5)
C6 C 0.3622(6) 0.8568(1) 0.5369(5)
C7 C 0.1794(4) 0.9534(1) -0.0682(4)
C8 C -0.1452(6) 0.9246(2) -0.2751(6)
H1 H 0.560(5) 0.888(1) 0.094(5)
H2 H 0.461(6) 0.802(1) 0.724(6)
H3 H 0.252(6) 0.862(1) 0.611(6)
H4 H -0.006(5) 0.905(1) 0.017(6)
H5 H 0.404(5) 0.969(1) 0.142(5)
H6 H 0.223(6) 0.938(1) 0.393(6)
H7 H -0.202(10) 0.886(2) -0.286(10)
H8 H -0.094(11) 0.923(3) -0.407(12)
H9 H -0.257(7) 0.932(2) -0.241(7)
loop_
_geom_bond_atom_site_label_1
_geom_bond_atom_site_label_2
_geom_bond_site_symmetry_1
_geom_bond_site_symmetry_2
Cl1 C3 1_555 1_555
Cl2 C4 1_555 1_555
S1 C7 1_555 1_555
N1 C7 1_555 1_555
N2 N3 1_555 1_555
N3 C1 1_555 1_555
C1 C2 1_555 1_555
C2 C3 1_555 1_555
C3 C4 1_555 1_555
C4 C5 1_555 1_555
C5 C6 1_555 1_555
C6 C1 1_555 1_555
C7 N2 1_555 1_555
C8 N1 1_555 1_555
H1 C2 1_555 1_555
H2 C5 1_555 1_555
H3 C6 1_555 1_555
H4 N1 1_555 1_555
H5 N2 1_555 1_555
H6 N3 1_555 1_555
H7 C8 1_555 1_555
H8 C8 1_555 1_555
H9 C8 1_555 1_555

#END
