
#######################################################################
#
#                 Cambridge Crystallographic Data Centre
#                                CCDC 
#
#######################################################################
#
# If this CIF has been generated from an entry in the Cambridge 
# Structural Database, then it will include bibliographic, chemical, 
# crystal, experimental, refinement or atomic coordinate data resulting 
# from the CCDC's data processing and validation procedures.
#
#######################################################################

data_KADMEH
_chemical_formula_moiety         'C3 H14 B10 N1 O1 1-,C8 H20 N1 1+'
_chemical_name_systematic        
'Tetraethylammonium 1-acrylamidononahydro-closo-decaborate'
_symmetry_cell_setting           monoclinic
_symmetry_space_group_name_H-M   'P 21/c'
_symmetry_Int_Tables_number      14
_space_group_name_Hall           '-P 2ybc'
loop_
_symmetry_equiv_pos_site_id
_symmetry_equiv_pos_as_xyz
1 x,y,z
2 -x,1/2+y,1/2-z
3 -x,-y,-z
4 x,1/2-y,1/2+z
_cell_length_a                   9.934(4)
_cell_length_b                   15.207(4)
_cell_length_c                   13.489(5)
_cell_angle_alpha                90
_cell_angle_beta                 94.16(3)
_cell_angle_gamma                90
_cell_volume                     2032.37
_exptl_crystal_colour            yellow
_cell_formula_units_Z            4
loop_
_atom_site_label
_atom_site_type_symbol
_atom_site_fract_x
_atom_site_fract_y
_atom_site_fract_z
O1 O 0.1382(3) 0.9912(2) 0.1052(2)
N1 N 0.1934(2) 0.8636(2) 0.1829(2)
C1 C 0.1529(3) 0.9440(2) 0.1861(2)
C2 C 0.1210(3) 0.9877(2) 0.2768(2)
C3 C 0.0635(3) 1.0651(2) 0.2773(3)
B1 B 0.2157(3) 0.8120(2) 0.0888(2)
B2 B 0.0690(3) 0.7569(3) 0.0312(2)
B3 B 0.1609(4) 0.8367(3) -0.0395(2)
B4 B 0.3226(4) 0.8506(2) 0.0063(3)
B5 B 0.3555(3) 0.7477(2) 0.0487(2)
B6 B 0.2073(3) 0.6941(2) 0.0937(2)
B7 B 0.1042(4) 0.6530(3) -0.0005(3)
B8 B 0.1282(3) 0.7282(3) -0.0883(2)
B9 B 0.2669(3) 0.6658(2) -0.0269(2)
B10 B 0.2987(3) 0.7717(2) -0.0813(2)
H1 H 0.1955(29) 0.8363(20) 0.2426(22)
H2 H 0.1415(27) 0.9553(19) 0.3312(22)
H3 H 0.0417(36) 1.0971(23) 0.3366(28)
H4 H 0.0433(35) 1.1059(23) 0.2149(27)
H25 H -0.0331(27) 0.7775(16) 0.0549(20)
H26 H 0.1062(29) 0.8938(19) -0.0724(21)
H27 H 0.3817(28) 0.9100(19) 0.0077(20)
H28 H 0.4558(29) 0.7298(18) 0.0882(20)
H29 H 0.2126(25) 0.6644(17) 0.1708(20)
H30 H 0.0407(34) 0.5916(21) -0.0033(24)
H31 H 0.0727(29) 0.7260(18) -0.1624(22)
H32 H 0.3330(31) 0.6078(21) -0.0534(23)
H33 H 0.3551(34) 0.7762(20) -0.1501(26)
H34 H 0.1592(44) 0.9582(30) 0.0571(34)
N2 N 0.3333(2) 0.3958(2) 0.2140(2)
C4 C 0.2607(3) 0.4280(3) 0.1187(3)
C5 C 0.3294(6) 0.4074(3) 0.0253(3)
C6 C 0.4694(3) 0.4388(2) 0.2341(3)
C7 C 0.4676(5) 0.5377(3) 0.2442(5)
C8 C 0.2420(4) 0.4157(3) 0.2969(3)
C9 C 0.2941(5) 0.3881(4) 0.3996(3)
C10 C 0.3635(3) 0.2984(2) 0.2086(3)
C11 C 0.2399(5) 0.2409(3) 0.1889(6)
H5 H 0.2517 0.4907 0.1231
H6 H 0.1728 0.4016 0.1129
H7 H 0.2764 0.4303 -0.0313
H8 H 0.3383 0.3449 0.0188
H9 H 0.4172 0.4339 0.0290
H10 H 0.5234 0.4244 0.1802
H11 H 0.5105 0.4148 0.2948
H12 H 0.5583 0.5588 0.2568
H13 H 0.4152 0.5538 0.2985
H14 H 0.4282 0.5634 0.1838
H15 H 0.1577 0.3862 0.2815
H16 H 0.2271 0.4780 0.2977
H17 H 0.2293 0.4035 0.4461
H18 H 0.3778 0.4175 0.4172
H19 H 0.3084 0.3256 0.4011
H20 H 0.4222 0.2891 0.1562
H21 H 0.4085 0.2806 0.2708
H22 H 0.2672 0.1804 0.1866
H23 H 0.1940 0.2572 0.1265
H24 H 0.1803 0.2487 0.2411
loop_
_geom_bond_atom_site_label_1
_geom_bond_atom_site_label_2
_geom_bond_site_symmetry_1
_geom_bond_site_symmetry_2
O1 C1 1_555 1_555
N1 C1 1_555 1_555
C1 C2 1_555 1_555
C2 C3 1_555 1_555
C3 H3 1_555 1_555
B1 N1 1_555 1_555
B2 B1 1_555 1_555
B3 B1 1_555 1_555
B4 B1 1_555 1_555
B5 B1 1_555 1_555
B6 B1 1_555 1_555
B7 B2 1_555 1_555
B8 B2 1_555 1_555
B9 B5 1_555 1_555
B10 B3 1_555 1_555
N2 C4 1_555 1_555
C4 C5 1_555 1_555
C5 H7 1_555 1_555
C6 N2 1_555 1_555
C7 C6 1_555 1_555
C8 N2 1_555 1_555
C9 C8 1_555 1_555
C10 N2 1_555 1_555
C11 C10 1_555 1_555
H1 N1 1_555 1_555
H2 C2 1_555 1_555
H4 C3 1_555 1_555
H5 C4 1_555 1_555
H6 C4 1_555 1_555
H8 C5 1_555 1_555
H9 C5 1_555 1_555
H10 C6 1_555 1_555
H11 C6 1_555 1_555
H12 C7 1_555 1_555
H13 C7 1_555 1_555
H14 C7 1_555 1_555
H15 C8 1_555 1_555
H16 C8 1_555 1_555
H17 C9 1_555 1_555
H18 C9 1_555 1_555
H19 C9 1_555 1_555
H20 C10 1_555 1_555
H21 C10 1_555 1_555
H22 C11 1_555 1_555
H23 C11 1_555 1_555
H24 C11 1_555 1_555
H25 B2 1_555 1_555
H26 B3 1_555 1_555
H27 B4 1_555 1_555
H28 B5 1_555 1_555
H29 B6 1_555 1_555
H30 B7 1_555 1_555
H31 B8 1_555 1_555
H32 B9 1_555 1_555
H33 B10 1_555 1_555
H34 O1 1_555 1_555
B2 B3 1_555 1_555
B2 B6 1_555 1_555
B3 B4 1_555 1_555
B3 B8 1_555 1_555
B4 B5 1_555 1_555
B4 B10 1_555 1_555
B5 B6 1_555 1_555
B5 B10 1_555 1_555
B6 B7 1_555 1_555
B6 B9 1_555 1_555
B7 B8 1_555 1_555
B7 B9 1_555 1_555
B8 B9 1_555 1_555
B8 B10 1_555 1_555
B9 B10 1_555 1_555

#END
