
#######################################################################
#
#                 Cambridge Crystallographic Data Centre
#                                CCDC 
#
#######################################################################
#
# If this CIF has been generated from an entry in the Cambridge 
# Structural Database, then it will include bibliographic, chemical, 
# crystal, experimental, refinement or atomic coordinate data resulting 
# from the CCDC's data processing and validation procedures.
#
#######################################################################

data_KADNOT
_chemical_formula_moiety         'C18 H28 N1 1+,C6 H2 N3 O9 S1 1-'
_chemical_name_systematic        
'2-n-Butyl-3-(4-methylphenyl)quinuclidinium 2,4,6-trinitrobenzenesulfonate'
_chemical_properties_biological  
'dopamine transporter (DAT) inhibitory activity'
_symmetry_cell_setting           monoclinic
_symmetry_space_group_name_H-M   'P 21/c'
_symmetry_Int_Tables_number      14
_space_group_name_Hall           '-P 2ybc'
loop_
_symmetry_equiv_pos_site_id
_symmetry_equiv_pos_as_xyz
1 x,y,z
2 -x,1/2+y,1/2-z
3 -x,-y,-z
4 x,1/2-y,1/2+z
_cell_length_a                   18.059(9)
_cell_length_b                   9.162(2)
_cell_length_c                   15.799(2)
_cell_angle_alpha                90
_cell_angle_beta                 92.21(3)
_cell_angle_gamma                90
_cell_volume                     2612.1
_cell_formula_units_Z            4
loop_
_atom_site_label
_atom_site_type_symbol
_atom_site_fract_x
_atom_site_fract_y
_atom_site_fract_z
S1 S 0.8569(1) 0.0253(2) 0.1175(1)
O1 O 0.7910(3) -0.0526(7) 0.1376(4)
O2 O 0.8886(4) 0.1166(6) 0.1844(3)
O3 O 0.8509(3) 0.0959(6) 0.0355(3)
C1 C 0.9257(4) -0.1117(8) 0.1047(4)
C2 C 0.9781(5) -0.1537(8) 0.1678(4)
N1 N 0.9643(5) -0.1116(8) 0.2592(4)
O4 O 0.9056(5) -0.1469(8) 0.2853(3)
O5 O 1.0167(5) -0.0526(8) 0.2956(4)
C3 C 1.0389(5) -0.2371(9) 0.1568(4)
C4 C 1.0508(5) -0.2863(9) 0.0749(5)
N2 N 1.1151(5) -0.3744(9) 0.0614(5)
O6 O 1.1701(4) -0.3590(9) 0.1073(5)
O7 O 1.1132(4) -0.4610(8) 0.0013(5)
C5 C 1.0007(5) -0.2567(9) 0.0095(5)
C6 C 0.9407(5) -0.1717(8) 0.0243(4)
N3 N 0.8865(5) -0.1490(7) -0.0463(4)
O8 O 0.9099(4) -0.0883(7) -0.1094(3)
O9 O 0.8254(4) -0.1948(7) -0.0405(4)
H1 H 1.0713 -0.2606 0.2019
H2 H 1.0078 -0.2943 -0.0443
N5 N 0.7450(7) -0.3271(15) 0.1860(8)
C12 C 0.7365(4) -0.3593(7) 0.2820(8)
C13 C 0.6765(4) -0.2609(4) 0.3152(8)
C14 C 0.7002(3) -0.1019(5) 0.3202(7)
C15 C 0.6437(3) -0.0076(8) 0.3635(6)
C16 C 0.5712(4) 0.0030(20) 0.3119(10)
C17 C 0.7162(6) -0.5250(10) 0.2863(6)
C18 C 0.6610(6) -0.5687(10) 0.3491(6)
C19 C 0.6809(6) -0.5735(11) 0.4342(7)
C20 C 0.6347(8) -0.6190(12) 0.4937(7)
C21 C 0.5633(8) -0.6604(13) 0.4753(8)
C22 C 0.5403(7) -0.6564(14) 0.3925(8)
C23 C 0.5879(7) -0.6097(12) 0.3307(7)
C24 C 0.5158(8) -0.7149(17) 0.5435(11)
C25 C 0.7058(8) -0.5869(12) 0.1934(6)
C26 C 0.6522(8) -0.4887(17) 0.1435(8)
C27 C 0.6895(8) -0.3450(14) 0.1275(8)
C28 C 0.8126(6) -0.4251(11) 0.1705(7)
C29 C 0.7798(9) -0.5809(13) 0.1536(10)
H3 H 0.7879 -0.2368 0.1923
H6 H 0.6243 -0.2731 0.3390
H16 H 0.6637 -0.2939 0.3711
H18 H 0.7475 -0.0951 0.3513
H19 H 0.7069 -0.0652 0.2635
H20 H 0.6639 0.0896 0.3720
H21 H 0.6343 -0.0484 0.4187
H22 H 0.5372 0.0638 0.3409
H23 H 0.5503 -0.0930 0.3047
H24 H 0.5802 0.0440 0.2574
H25 H 0.7622 -0.5710 0.3077
H26 H 0.7284 -0.5438 0.4512
H27 H 0.6523 -0.6224 0.5497
H28 H 0.4923 -0.6851 0.3769
H29 H 0.5701 -0.6058 0.2747
H30 H 0.5420 -0.7058 0.5973
H31 H 0.5038 -0.8156 0.5333
H32 H 0.4711 -0.6585 0.5439
H33 H 0.6873 -0.6873 0.1943
H34 H 0.6377 -0.5346 0.0900
H35 H 0.6080 -0.4731 0.1752
H36 H 0.7091 -0.3442 0.0712
H37 H 0.6541 -0.2660 0.1313
H38 H 0.8464 -0.4257 0.2197
H39 H 0.8390 -0.3909 0.1220
H40 H 0.7743 -0.5988 0.0932
H41 H 0.8126 -0.6546 0.1784
N4? N 0.7680(14) -0.3280(30) 0.1931(16)
C7? C 0.7114(4) -0.3530(9) 0.2732(17)
C8? C 0.6399(4) -0.2674(5) 0.2810(10)
C9? C 0.6489(7) -0.1081(6) 0.2567(4)
C10? C 0.6280(7) -0.0053(9) 0.3273(5)
C11? C 0.6699(14) -0.0390(30) 0.4102(7)
H4? H 0.7415 -0.3167 0.3217
H5? H 0.6015 -0.3112 0.2448
H7? H 0.6999 -0.0905 0.2428
H8? H 0.6179 -0.0877 0.2066
H9? H 0.5752 -0.0129 0.3357
H10? H 0.6384 0.0943 0.3108
H11? H 0.6576 0.0320 0.4520
H12? H 0.7223 -0.0362 0.4016
H13? H 0.6564 -0.1346 0.4294
H14? H 0.7606 -0.2330 0.1819
H15? H 0.7836 -0.3412 0.3133
H17? H 0.6325 -0.2689 0.2782
loop_
_geom_bond_atom_site_label_1
_geom_bond_atom_site_label_2
_geom_bond_site_symmetry_1
_geom_bond_site_symmetry_2
S1 O1 1_555 1_555
O2 S1 1_555 1_555
O3 S1 1_555 1_555
C1 S1 1_555 1_555
C2 C1 1_555 1_555
N1 C2 1_555 1_555
O4 N1 1_555 1_555
O5 N1 1_555 1_555
C3 C2 1_555 1_555
C4 C3 1_555 1_555
N2 C4 1_555 1_555
O6 N2 1_555 1_555
O7 N2 1_555 1_555
C5 C4 1_555 1_555
C6 C1 1_555 1_555
N3 C6 1_555 1_555
O8 N3 1_555 1_555
O9 N3 1_555 1_555
N5 C12 1_555 1_555
C12 C13 1_555 1_555
C13 C14 1_555 1_555
C14 C15 1_555 1_555
C15 C16 1_555 1_555
C16 H22 1_555 1_555
C17 C12 1_555 1_555
C18 C17 1_555 1_555
C19 C18 1_555 1_555
C20 C19 1_555 1_555
C21 C20 1_555 1_555
C22 C21 1_555 1_555
C23 C18 1_555 1_555
C24 C21 1_555 1_555
C25 C17 1_555 1_555
C26 C25 1_555 1_555
C27 N5 1_555 1_555
C28 N5 1_555 1_555
C29 C25 1_555 1_555
H1 C3 1_555 1_555
H2 C5 1_555 1_555
H3 N5 1_555 1_555
H6 C13 1_555 1_555
H16 C13 1_555 1_555
H18 C14 1_555 1_555
H19 C14 1_555 1_555
H20 C15 1_555 1_555
H21 C15 1_555 1_555
H23 C16 1_555 1_555
H24 C16 1_555 1_555
H25 C17 1_555 1_555
H26 C19 1_555 1_555
H27 C20 1_555 1_555
H28 C22 1_555 1_555
H29 C23 1_555 1_555
H30 C24 1_555 1_555
H31 C24 1_555 1_555
H32 C24 1_555 1_555
H33 C25 1_555 1_555
H34 C26 1_555 1_555
H35 C26 1_555 1_555
H36 C27 1_555 1_555
H37 C27 1_555 1_555
H38 C28 1_555 1_555
H39 C28 1_555 1_555
H40 C29 1_555 1_555
H41 C29 1_555 1_555
C5 C6 1_555 1_555
C22 C23 1_555 1_555
C26 C27 1_555 1_555
C28 C29 1_555 1_555

#END
