
#######################################################################
#
#                 Cambridge Crystallographic Data Centre
#                                CCDC 
#
#######################################################################
#
# If this CIF has been generated from an entry in the Cambridge 
# Structural Database, then it will include bibliographic, chemical, 
# crystal, experimental, refinement or atomic coordinate data resulting 
# from the CCDC's data processing and validation procedures.
#
#######################################################################

data_KADYUL
_chemical_formula_moiety         'C4 H16 Ca1 N2 O5 2+,H12 B12 2-'
_chemical_name_systematic        
'bis(Acetonitrile)-penta-aqua-calcium(ii) dodecahydro-closo-dodecaborate'
_symmetry_cell_setting           monoclinic
_symmetry_space_group_name_H-M   'P 21/c'
_symmetry_Int_Tables_number      14
_space_group_name_Hall           '-P 2ybc'
loop_
_symmetry_equiv_pos_site_id
_symmetry_equiv_pos_as_xyz
1 x,y,z
2 -x,1/2+y,1/2-z
3 -x,-y,-z
4 x,1/2-y,1/2+z
_cell_length_a                   7.3948(5)
_cell_length_b                   13.5088(9)
_cell_length_c                   19.2895(13)
_cell_angle_alpha                90
_cell_angle_beta                 91.049(1)
_cell_angle_gamma                90
_cell_volume                     1926.6
_exptl_crystal_colour            colorless
_exptl_crystal_description       irregular
_cell_formula_units_Z            4
loop_
_atom_site_label
_atom_site_type_symbol
_atom_site_fract_x
_atom_site_fract_y
_atom_site_fract_z
Ca1 Ca 0.48906(4) 0.418477(19) 0.805309(13)
N1 N 0.24530(16) 0.51122(9) 0.73628(6)
N2 N 0.48735(17) 0.24237(9) 0.84809(7)
O1 O 0.80641(15) 0.38425(9) 0.78800(7)
O2 O 0.48463(16) 0.35339(10) 0.69291(6)
O3 O 0.19968(16) 0.40329(10) 0.86580(6)
O4 O 0.5902(2) 0.58400(9) 0.78696(7)
O5 O 0.60876(17) 0.45786(11) 0.91771(6)
C1 C 0.48485(19) 0.17075(11) 0.87888(7)
C2 C 0.4818(3) 0.07959(12) 0.91888(10)
C3 C 0.14102(19) 0.55919(10) 0.70836(7)
C4 C 0.0093(3) 0.62169(14) 0.67278(10)
H1 H 0.845(3) 0.3714(17) 0.7497(13)
H2 H 0.170(3) 0.4516(17) 0.8795(11)
H3 H 0.041(4) 0.682(2) 0.6715(14)
H4 H -0.001(3) 0.6031(18) 0.6270(15)
H5 H -0.089(4) 0.6200(19) 0.6969(13)
H6 H 0.388(3) 0.3498(15) 0.6676(11)
H7 H 0.596(4) 0.0655(19) 0.9338(14)
H8 H 0.195(3) 0.3650(19) 0.8975(14)
H9 H 0.446(3) 0.031(2) 0.8914(15)
H10 H 0.396(4) 0.0783(17) 0.9513(15)
H11 H 0.529(4) 0.624(2) 0.7837(16)
H12 H 0.675(4) 0.6058(18) 0.8065(14)
H13 H 0.646(3) 0.514(2) 0.9298(13)
H14 H 0.647(3) 0.4205(18) 0.9430(14)
H15 H 0.890(3) 0.3929(18) 0.8144(13)
H16 H 0.554(3) 0.3269(16) 0.6742(11)
B1 B 0.9307(2) 0.34582(11) 0.52310(8)
B2 B 0.9058(2) 0.34657(11) 0.61454(8)
B3 B 0.8397(2) 0.22536(11) 0.64082(8)
B4 B 0.7539(2) 0.27602(11) 0.56152(8)
B5 B 0.8807(2) 0.22388(11) 0.49303(8)
B6 B 0.8231(2) 0.14979(11) 0.56585(8)
B7 B 1.1255(2) 0.33810(11) 0.57872(8)
B8 B 1.0679(2) 0.26423(11) 0.65215(8)
B9 B 1.0176(2) 0.14240(11) 0.62147(8)
B10 B 1.0437(2) 0.14129(11) 0.53021(8)
B11 B 1.1092(2) 0.26213(11) 0.50378(8)
B12 B 1.1949(2) 0.21193(11) 0.58309(8)
H17 H 0.729(2) 0.0880(11) 0.5613(9)
H18 H 1.197(2) 0.2737(12) 0.4586(9)
H19 H 0.861(2) 0.4137(11) 0.6417(9)
H20 H 1.221(2) 0.3987(12) 0.5838(8)
H21 H 1.123(2) 0.2771(11) 0.7029(8)
H22 H 1.089(2) 0.0741(12) 0.5040(9)
H23 H 1.044(2) 0.0745(11) 0.6539(8)
H24 H 0.902(2) 0.4117(11) 0.4926(8)
H25 H 0.827(2) 0.2105(12) 0.4416(9)
H26 H 0.757(2) 0.2113(12) 0.6863(9)
H27 H 1.339(2) 0.1879(12) 0.5902(8)
H28 H 0.613(2) 0.2973(12) 0.5555(8)
loop_
_geom_bond_atom_site_label_1
_geom_bond_atom_site_label_2
_geom_bond_site_symmetry_1
_geom_bond_site_symmetry_2
Ca1 N1 1_555 1_555
N1 C3 1_555 1_555
N2 Ca1 1_555 1_555
O1 Ca1 1_555 1_555
O2 Ca1 1_555 1_555
O3 Ca1 1_555 1_555
O4 Ca1 1_555 1_555
O5 Ca1 1_555 1_555
C1 N2 1_555 1_555
C2 C1 1_555 1_555
C3 C4 1_555 1_555
C4 H3 1_555 1_555
H1 O1 1_555 1_555
H2 O3 1_555 1_555
H4 C4 1_555 1_555
H5 C4 1_555 1_555
H6 O2 1_555 1_555
H7 C2 1_555 1_555
H8 O3 1_555 1_555
H9 C2 1_555 1_555
H10 C2 1_555 1_555
H11 O4 1_555 1_555
H12 O4 1_555 1_555
H13 O5 1_555 1_555
H14 O5 1_555 1_555
H15 O1 1_555 1_555
H16 O2 1_555 1_555
B1 B2 1_555 1_555
B2 B3 1_555 1_555
B3 B4 1_555 1_555
B4 B1 1_555 1_555
B5 B1 1_555 1_555
B6 B3 1_555 1_555
B7 B1 1_555 1_555
B8 B2 1_555 1_555
B9 B3 1_555 1_555
B10 B5 1_555 1_555
B11 B1 1_555 1_555
B12 B7 1_555 1_555
H17 B6 1_555 1_555
H18 B11 1_555 1_555
H19 B2 1_555 1_555
H20 B7 1_555 1_555
H21 B8 1_555 1_555
H22 B10 1_555 1_555
H23 B9 1_555 1_555
H24 B1 1_555 1_555
H25 B5 1_555 1_555
H26 B3 1_555 1_555
H27 B12 1_555 1_555
H28 B4 1_555 1_555
B2 B4 1_555 1_555
B2 B7 1_555 1_555
B3 B8 1_555 1_555
B4 B5 1_555 1_555
B4 B6 1_555 1_555
B5 B6 1_555 1_555
B5 B11 1_555 1_555
B6 B9 1_555 1_555
B6 B10 1_555 1_555
B7 B8 1_555 1_555
B7 B11 1_555 1_555
B8 B9 1_555 1_555
B8 B12 1_555 1_555
B9 B10 1_555 1_555
B9 B12 1_555 1_555
B10 B11 1_555 1_555
B10 B12 1_555 1_555
B11 B12 1_555 1_555

#END
