
#######################################################################
#
#                 Cambridge Crystallographic Data Centre
#                                CCDC 
#
#######################################################################
#
# If this CIF has been generated from an entry in the Cambridge 
# Structural Database, then it will include bibliographic, chemical, 
# crystal, experimental, refinement or atomic coordinate data resulting 
# from the CCDC's data processing and validation procedures.
#
#######################################################################

data_KADZIY
_chemical_formula_moiety         'C13 H10 N2 O4'
_chemical_name_systematic        4'-Nitrosalicylanilide
_symmetry_cell_setting           monoclinic
_symmetry_space_group_name_H-M   'P 21/a'
_symmetry_Int_Tables_number      14
_space_group_name_Hall           '-P 2yab'
loop_
_symmetry_equiv_pos_site_id
_symmetry_equiv_pos_as_xyz
1 x,y,z
2 1/2-x,1/2+y,-z
3 -x,-y,-z
4 1/2+x,1/2-y,z
_cell_length_a                   28.36(1)
_cell_length_b                   11.64(1)
_cell_length_c                   7.293(8)
_cell_angle_alpha                90
_cell_angle_beta                 90.68(6)
_cell_angle_gamma                90
_cell_volume                     2407.33
_exptl_crystal_colour            tan
_chemical_melting_point          237-238deg.C
_cell_formula_units_Z            8
loop_
_atom_site_label
_atom_site_type_symbol
_atom_site_fract_x
_atom_site_fract_y
_atom_site_fract_z
C1 C 0.72615(7) 0.1581(2) 0.5792(3)
C2 C 0.71594(8) 0.0572(2) 0.4828(3)
C3 C 0.67004(8) 0.0378(2) 0.4190(3)
C4 C 0.63488(8) 0.1135(2) 0.4586(4)
C5 C 0.64373(8) 0.2108(2) 0.5601(4)
C6 C 0.68900(8) 0.2328(2) 0.6184(3)
C7 C 0.77429(8) 0.1940(2) 0.6424(3)
C8 C 0.85764(7) 0.1296(2) 0.6724(3)
C9 C 0.87535(8) 0.2181(2) 0.7805(3)
C10 C 0.92289(9) 0.2208(3) 0.8233(4)
C11 C 0.95157(9) 0.1372(3) 0.7604(4)
C12 C 0.93515(9) 0.0478(3) 0.6545(4)
C13 C 0.88797(9) 0.0453(2) 0.6096(4)
N1 N 0.80960(6) 0.1169(2) 0.6255(3)
N2 N 1.00250(8) 0.1409(3) 0.8058(4)
O1 O 0.78143(5) 0.2905(1) 0.7072(2)
O2 O 0.75075(5) -0.0202(1) 0.4509(2)
O3 O 1.01649(8) 0.2173(3) 0.9069(4)
O4 O 1.02750(8) 0.0679(3) 0.7428(4)
H2 H 0.7387(8) -0.090(2) 0.408(3)
H4 H 0.8005(8) 0.049(2) 0.582(3)
H5 H 0.6650(7) -0.027(2) 0.353(3)
H6 H 0.6054(7) 0.098(2) 0.413(3)
H7 H 0.6216(8) 0.262(2) 0.590(3)
H8 H 0.6969(8) 0.304(2) 0.682(3)
H9 H 0.8562(8) 0.277(2) 0.821(3)
H10 H 0.9330(8) 0.280(2) 0.896(3)
H11 H 0.9537(9) -0.018(2) 0.624(4)
H12 H 0.8738(7) -0.019(2) 0.551(3)
C14 C 0.72567(7) 0.3826(2) 1.0801(3)
C15 C 0.71572(8) 0.4844(2) 0.9824(3)
C16 C 0.67012(8) 0.5043(2) 0.9182(3)
C17 C 0.63433(8) 0.4286(2) 0.9548(2)
C18 C 0.64339(8) 0.3312(2) 1.0562(4)
C19 C 0.68849(8) 0.3086(2) 1.1160(3)
C20 C 0.77364(7) 0.3458(2) 1.1427(3)
C21 C 0.85698(8) 0.4092(2) 1.1743(3)
C22 C 0.88788(9) 0.4929(2) 1.1154(4)
C23 C 0.93495(9) 0.4892(3) 1.1610(4)
C24 C 0.95080(9) 0.3998(3) 1.2674(4)
C25 C 0.92151(9) 0.3151(3) 1.3261(4)
C26 C 0.87426(9) 0.3193(2) 1.2814(4)
N3 N 0.80913(6) 0.4225(2) 1.1267(3)
N4 N 1.00152(8) 0.3937(3) 1.3159(4)
O5 O 0.78025(5) 0.2496(1) 1.2081(2)
O6 O 0.75063(5) 0.5616(1) 0.9533(2)
O7 O 1.02673(7) 0.4699(3) 1.2650(4)
O8 O 1.01495(8) 0.3115(3) 1.4077(4)
H1 H 0.7381(8) 0.632(2) 0.896(3)
H3 H 0.8018(8) 0.488(2) 1.075(3)
H13 H 0.6642(8) 0.578(2) 0.848(3)
H14 H 0.6052(9) 0.455(2) 0.908(3)
H15 H 0.6213(7) 0.283(2) 1.074(3)
H16 H 0.6925(7) 0.235(2) 1.177(3)
H17 H 0.8747(2) 0.553(2) 1.045(3)
H18 H 0.9542(8) 0.548(2) 1.118(3)
H19 H 0.9302(8) 0.255(2) 1.398(3)
H20 H 0.8525(8) 0.265(2) 1.327(3)
loop_
_geom_bond_atom_site_label_1
_geom_bond_atom_site_label_2
_geom_bond_site_symmetry_1
_geom_bond_site_symmetry_2
C1 C2 1_555 1_555
C2 C3 1_555 1_555
C3 C4 1_555 1_555
C4 C5 1_555 1_555
C5 C6 1_555 1_555
C6 C1 1_555 1_555
C7 C1 1_555 1_555
C8 C9 1_555 1_555
C9 C10 1_555 1_555
C10 C11 1_555 1_555
C11 C12 1_555 1_555
C12 C13 1_555 1_555
C13 C8 1_555 1_555
N1 C7 1_555 1_555
N2 C11 1_555 1_555
O1 C7 1_555 1_555
O2 C2 1_555 1_555
O3 N2 1_555 1_555
O4 N2 1_555 1_555
C14 C15 1_555 1_555
C15 C16 1_555 1_555
C16 C17 1_555 1_555
C17 C18 1_555 1_555
C18 C19 1_555 1_555
C19 C14 1_555 1_555
C20 C14 1_555 1_555
C21 C22 1_555 1_555
C22 C23 1_555 1_555
C23 C24 1_555 1_555
C24 C25 1_555 1_555
C25 C26 1_555 1_555
C26 C21 1_555 1_555
N3 C20 1_555 1_555
N4 C24 1_555 1_555
O5 C20 1_555 1_555
O6 C15 1_555 1_555
O7 N4 1_555 1_555
O8 N4 1_555 1_555
H1 O6 1_555 1_555
H2 O2 1_555 1_555
H3 N3 1_555 1_555
H4 N1 1_555 1_555
H5 C3 1_555 1_555
H6 C4 1_555 1_555
H7 C5 1_555 1_555
H8 C6 1_555 1_555
H9 C9 1_555 1_555
H10 C10 1_555 1_555
H11 C12 1_555 1_555
H12 C13 1_555 1_555
H13 C16 1_555 1_555
H14 C17 1_555 1_555
H15 C18 1_555 1_555
H16 C19 1_555 1_555
H17 C22 1_555 1_555
H18 C23 1_555 1_555
H19 C25 1_555 1_555
H20 C26 1_555 1_555
C8 N1 1_555 1_555
C21 N3 1_555 1_555

#END
