
#######################################################################
#
#                 Cambridge Crystallographic Data Centre
#                                CCDC 
#
#######################################################################
#
# If this CIF has been generated from an entry in the Cambridge 
# Structural Database, then it will include bibliographic, chemical, 
# crystal, experimental, refinement or atomic coordinate data resulting 
# from the CCDC's data processing and validation procedures.
#
#######################################################################

data_KAFCIG
_chemical_name_common            'Wilfolide A'
_chemical_formula_moiety         'C15 H20 O3'
_chemical_name_systematic        
3,3,6-Trimethyl-2a,3,6,7,8,9,9a,9b-octahydro-2-oxacycloocta[cd]pentalene-1,5-dione
_symmetry_cell_setting           monoclinic
_symmetry_space_group_name_H-M   'P 21'
_symmetry_Int_Tables_number      4
_space_group_name_Hall           'P 2yb'
loop_
_symmetry_equiv_pos_site_id
_symmetry_equiv_pos_as_xyz
1 x,y,z
2 -x,1/2+y,-z
_cell_length_a                   16.0624(6)
_cell_length_b                   10.0882(4)
_cell_length_c                   16.5720(6)
_cell_angle_alpha                90
_cell_angle_beta                 101.598(2)
_cell_angle_gamma                90
_cell_volume                     2630.51
_exptl_crystal_colour            colorless
_exptl_crystal_description       block
_cell_formula_units_Z            8
loop_
_atom_site_label
_atom_site_type_symbol
_atom_site_fract_x
_atom_site_fract_y
_atom_site_fract_z
O1 O 0.83104(11) 0.4580(2) 0.19522(11)
O2 O 0.60294(12) 0.3725(3) 0.43086(13)
O3 O 0.73234(11) 0.2858(2) 0.46321(12)
C1 C 0.80024(14) 0.3542(3) 0.21319(16)
C2 C 0.75164(16) 0.2650(3) 0.14602(17)
H1 H 0.7475 0.1743 0.1691
C3 C 0.66087(16) 0.3202(3) 0.11501(17)
H2 H 0.6649 0.4175 0.1086
H3 H 0.6383 0.2827 0.0598
C4 C 0.59705(16) 0.2920(4) 0.16996(18)
H4 H 0.5912 0.1947 0.1742
H5 H 0.5411 0.3272 0.1422
C5 C 0.61824(15) 0.3491(3) 0.25747(17)
H6 H 0.6564 0.4261 0.2574
H7 H 0.5650 0.3824 0.2716
C6 C 0.66006(15) 0.2540(3) 0.32522(17)
H8 H 0.6255 0.1708 0.3193
C7 C 0.75419(14) 0.2140(3) 0.33156(16)
H9 H 0.7584 0.1249 0.3061
C8 C 0.81072(14) 0.3125(3) 0.30069(16)
C9 C 0.87690(15) 0.3482(3) 0.35836(16)
H10 H 0.9182 0.4112 0.3496
C10 C 0.87945(15) 0.2779(3) 0.43935(16)
C11 C 0.79101(15) 0.2098(3) 0.42491(16)
H11 H 0.7958 0.1164 0.4457
C12 C 0.65903(15) 0.3112(3) 0.40933(18)
C13 C 0.94823(16) 0.1691(3) 0.45092(18)
H12 H 0.9339 0.1034 0.4067
H13 H 0.9511 0.1256 0.5043
H14 H 1.0034 0.2091 0.4491
C14 C 0.89648(18) 0.3724(3) 0.51270(17)
H15 H 0.9539 0.4090 0.5189
H16 H 0.8915 0.3242 0.5628
H17 H 0.8549 0.4447 0.5034
C15 C 0.8004(2) 0.2567(4) 0.07556(18)
H18 H 0.8021 0.3445 0.0506
H19 H 0.7717 0.1942 0.0338
H20 H 0.8585 0.2261 0.0972
O4 O 0.14711(11) -0.0700(2) 0.29652(13)
O5 O 0.41298(13) -0.0360(3) 0.10085(13)
O6 O 0.44726(12) 0.0406(3) 0.22901(12)
C16 C 0.17840(16) 0.0302(3) 0.27401(17)
C17 C 0.12157(16) 0.1405(3) 0.22906(18)
H21 H 0.1551 0.2246 0.2326
C18 C 0.09096(18) 0.1031(4) 0.13791(19)
H22 H 0.0398 0.1564 0.1155
H23 H 0.0735 0.0088 0.1351
C19 C 0.15569(18) 0.1226(4) 0.08174(18)
H24 H 0.1273 0.1019 0.0244
H25 H 0.1721 0.2173 0.0834
C20 C 0.23689(17) 0.0388(3) 0.10360(17)
H26 H 0.2248 -0.0393 0.1355
H27 H 0.2513 0.0058 0.0518
C21 C 0.31436(16) 0.1105(3) 0.15299(16)
H28 H 0.3209 0.1953 0.1237
C22 C 0.31723(15) 0.1445(3) 0.24387(15)
H29 H 0.2989 0.2380 0.2501
C23 C 0.27197(16) 0.0498(3) 0.29110(16)
C24 C 0.32499(16) -0.0009(3) 0.35658(16)
H30 H 0.3082 -0.0648 0.3923
C25 C 0.41348(16) 0.0534(3) 0.36791(16)
C26 C 0.41143(16) 0.1246(3) 0.28476(17)
H31 H 0.4419 0.2115 0.2934
C27 C 0.39467(17) 0.0297(3) 0.15528(17)
C28 C 0.48198(16) -0.0535(3) 0.38791(17)
H32 H 0.4802 -0.0931 0.4415
H33 H 0.5380 -0.0136 0.3897
H34 H 0.4717 -0.1222 0.3453
C29 C 0.42625(18) 0.1572(3) 0.43706(18)
H35 H 0.3815 0.2245 0.4246
H36 H 0.4819 0.1994 0.4413
H37 H 0.4235 0.1138 0.4894
C30 C 0.04608(17) 0.1606(4) 0.2715(2)
H38 H 0.0106 0.0808 0.2648
H39 H 0.0122 0.2364 0.2466
H40 H 0.0671 0.1776 0.3303
O7 O 0.35082(11) 0.4272(2) 0.18319(12)
O8 O 0.10618(14) 0.4318(3) 0.39989(13)
O9 O 0.06643(12) 0.5255(3) 0.27692(13)
C31 C 0.32503(15) 0.5260(3) 0.21335(15)
C32 C 0.38702(16) 0.6266(3) 0.26058(17)
H41 H 0.3559 0.7111 0.2654
C33 C 0.42369(17) 0.5743(3) 0.34734(18)
H42 H 0.4765 0.6238 0.3696
H43 H 0.4395 0.4801 0.3427
C34 C 0.36491(18) 0.5838(4) 0.40990(17)
H44 H 0.3503 0.6783 0.4156
H45 H 0.3971 0.5537 0.4641
C35 C 0.28151(16) 0.5038(3) 0.38914(17)
H46 H 0.2888 0.4314 0.3509
H47 H 0.2710 0.4626 0.4404
C36 C 0.20326(16) 0.5852(3) 0.35021(16)
H48 H 0.2008 0.6636 0.3865
C37 C 0.19402(15) 0.6364(3) 0.26207(16)
H49 H 0.2132 0.7306 0.2614
C38 C 0.23259(15) 0.5523(3) 0.20390(16)
C39 C 0.17468(16) 0.5183(3) 0.13686(16)
H50 H 0.1870 0.4637 0.0941
C40 C 0.08802(17) 0.5758(3) 0.13650(18)
C41 C 0.09742(15) 0.6238(3) 0.22626(17)
H51 H 0.0680 0.7107 0.2286
C42 C 0.12213(18) 0.5044(3) 0.34784(17)
C43 C 0.07286(19) 0.6953(3) 0.0785(2)
H52 H 0.1163 0.7628 0.0974
H53 H 0.0165 0.7324 0.0783
H54 H 0.0761 0.6671 0.0226
C44 C 0.01677(17) 0.4736(3) 0.11037(19)
H55 H 0.0133 0.4498 0.0524
H56 H -0.0375 0.5117 0.1173
H57 H 0.0291 0.3941 0.1447
C45 C 0.45731(17) 0.6536(3) 0.2124(2)
H58 H 0.4904 0.5726 0.2102
H59 H 0.4947 0.7238 0.2399
H60 H 0.4317 0.6817 0.1563
O10 O 0.68521(12) 0.9244(2) 0.33200(12)
O11 O 0.90192(12) 0.9513(3) 0.08750(16)
O12 O 0.77008(11) 0.8786(3) 0.04451(12)
C46 C 0.71114(14) 0.8320(3) 0.29704(16)
C47 C 0.75460(15) 0.7148(3) 0.34597(16)
H61 H 0.7519 0.6367 0.3084
C48 C 0.84892(16) 0.7468(3) 0.38241(17)
H62 H 0.8520 0.8367 0.4068
H63 H 0.8696 0.6835 0.4277
C49 C 0.90924(16) 0.7413(3) 0.32180(18)
H64 H 0.9065 0.6511 0.2979
H65 H 0.9679 0.7550 0.3531
C50 C 0.89235(15) 0.8416(3) 0.25090(18)
H66 H 0.8586 0.9159 0.2666
H67 H 0.9474 0.8782 0.2432
C51 C 0.84545(15) 0.7850(3) 0.16906(17)
H68 H 0.8772 0.7042 0.1575
C52 C 0.75085(14) 0.7455(3) 0.15864(15)
H69 H 0.7446 0.6486 0.1686
C53 C 0.69778(14) 0.8273(3) 0.20576(16)
C54 C 0.63078(14) 0.8813(3) 0.15635(16)
H70 H 0.5913 0.9376 0.1752
C55 C 0.62406(15) 0.8435(3) 0.06699(15)
C56 C 0.71253(15) 0.7825(3) 0.06846(16)
H71 H 0.7077 0.7024 0.0323
C57 C 0.84530(16) 0.8810(4) 0.0989(2)
C58 C 0.60225(17) 0.9606(4) 0.00885(17)
H72 H 0.5446 0.9913 0.0098
H73 H 0.6054 0.9332 -0.0472
H74 H 0.6427 1.0326 0.0264
C59 C 0.55696(16) 0.7346(3) 0.04353(18)
H75 H 0.5727 0.6575 0.0793
H76 H 0.5538 0.7088 -0.0140
H77 H 0.5015 0.7681 0.0503
C60 C 0.70747(19) 0.6810(4) 0.41479(18)
H78 H 0.7130 0.7547 0.4541
H79 H 0.7319 0.6006 0.4433
H80 H 0.6472 0.6661 0.3911
loop_
_geom_bond_atom_site_label_1
_geom_bond_atom_site_label_2
_geom_bond_site_symmetry_1
_geom_bond_site_symmetry_2
O1 C1 1_555 1_555
O2 C12 1_555 1_555
O3 C11 1_555 1_555
C1 C2 1_555 1_555
C2 H1 1_555 1_555
C3 C2 1_555 1_555
H2 C3 1_555 1_555
H3 C3 1_555 1_555
C4 C3 1_555 1_555
H4 C4 1_555 1_555
H5 C4 1_555 1_555
C5 C4 1_555 1_555
H6 C5 1_555 1_555
H7 C5 1_555 1_555
C6 C5 1_555 1_555
H8 C6 1_555 1_555
C7 C6 1_555 1_555
H9 C7 1_555 1_555
C8 C1 1_555 1_555
C9 C8 1_555 1_555
H10 C9 1_555 1_555
C10 C9 1_555 1_555
C11 C7 1_555 1_555
H11 C11 1_555 1_555
C12 O3 1_555 1_555
C13 C10 1_555 1_555
H12 C13 1_555 1_555
H13 C13 1_555 1_555
H14 C13 1_555 1_555
C14 C10 1_555 1_555
H15 C14 1_555 1_555
H16 C14 1_555 1_555
H17 C14 1_555 1_555
C15 C2 1_555 1_555
H18 C15 1_555 1_555
H19 C15 1_555 1_555
H20 C15 1_555 1_555
O4 C16 1_555 1_555
O5 C27 1_555 1_555
O6 C26 1_555 1_555
C16 C17 1_555 1_555
C17 H21 1_555 1_555
C18 C17 1_555 1_555
H22 C18 1_555 1_555
H23 C18 1_555 1_555
C19 C18 1_555 1_555
H24 C19 1_555 1_555
H25 C19 1_555 1_555
C20 C19 1_555 1_555
H26 C20 1_555 1_555
H27 C20 1_555 1_555
C21 C20 1_555 1_555
H28 C21 1_555 1_555
C22 C21 1_555 1_555
H29 C22 1_555 1_555
C23 C16 1_555 1_555
C24 C23 1_555 1_555
H30 C24 1_555 1_555
C25 C24 1_555 1_555
C26 C22 1_555 1_555
H31 C26 1_555 1_555
C27 O6 1_555 1_555
C28 C25 1_555 1_555
H32 C28 1_555 1_555
H33 C28 1_555 1_555
H34 C28 1_555 1_555
C29 C25 1_555 1_555
H35 C29 1_555 1_555
H36 C29 1_555 1_555
H37 C29 1_555 1_555
C30 C17 1_555 1_555
H38 C30 1_555 1_555
H39 C30 1_555 1_555
H40 C30 1_555 1_555
O7 C31 1_555 1_555
O8 C42 1_555 1_555
O9 C41 1_555 1_555
C31 C32 1_555 1_555
C32 H41 1_555 1_555
C33 C32 1_555 1_555
H42 C33 1_555 1_555
H43 C33 1_555 1_555
C34 C33 1_555 1_555
H44 C34 1_555 1_555
H45 C34 1_555 1_555
C35 C34 1_555 1_555
H46 C35 1_555 1_555
H47 C35 1_555 1_555
C36 C35 1_555 1_555
H48 C36 1_555 1_555
C37 C36 1_555 1_555
H49 C37 1_555 1_555
C38 C31 1_555 1_555
C39 C38 1_555 1_555
H50 C39 1_555 1_555
C40 C39 1_555 1_555
C41 C37 1_555 1_555
H51 C41 1_555 1_555
C42 O9 1_555 1_555
C43 C40 1_555 1_555
H52 C43 1_555 1_555
H53 C43 1_555 1_555
H54 C43 1_555 1_555
C44 C40 1_555 1_555
H55 C44 1_555 1_555
H56 C44 1_555 1_555
H57 C44 1_555 1_555
C45 C32 1_555 1_555
H58 C45 1_555 1_555
H59 C45 1_555 1_555
H60 C45 1_555 1_555
O10 C46 1_555 1_555
O11 C57 1_555 1_555
O12 C56 1_555 1_555
C46 C47 1_555 1_555
C47 H61 1_555 1_555
C48 C47 1_555 1_555
H62 C48 1_555 1_555
H63 C48 1_555 1_555
C49 C48 1_555 1_555
H64 C49 1_555 1_555
H65 C49 1_555 1_555
C50 C49 1_555 1_555
H66 C50 1_555 1_555
H67 C50 1_555 1_555
C51 C50 1_555 1_555
H68 C51 1_555 1_555
C52 C51 1_555 1_555
H69 C52 1_555 1_555
C53 C46 1_555 1_555
C54 C53 1_555 1_555
H70 C54 1_555 1_555
C55 C54 1_555 1_555
C56 C52 1_555 1_555
H71 C56 1_555 1_555
C57 O12 1_555 1_555
C58 C55 1_555 1_555
H72 C58 1_555 1_555
H73 C58 1_555 1_555
H74 C58 1_555 1_555
C59 C55 1_555 1_555
H75 C59 1_555 1_555
H76 C59 1_555 1_555
H77 C59 1_555 1_555
C60 C47 1_555 1_555
H78 C60 1_555 1_555
H79 C60 1_555 1_555
H80 C60 1_555 1_555
C6 C12 1_555 1_555
C7 C8 1_555 1_555
C10 C11 1_555 1_555
C21 C27 1_555 1_555
C22 C23 1_555 1_555
C25 C26 1_555 1_555
C36 C42 1_555 1_555
C37 C38 1_555 1_555
C40 C41 1_555 1_555
C51 C57 1_555 1_555
C52 C53 1_555 1_555
C55 C56 1_555 1_555

#END
