
#######################################################################
#
#                 Cambridge Crystallographic Data Centre
#                                CCDC 
#
#######################################################################
#
# If this CIF has been generated from an entry in the Cambridge 
# Structural Database, then it will include bibliographic, chemical, 
# crystal, experimental, refinement or atomic coordinate data resulting 
# from the CCDC's data processing and validation procedures.
#
#######################################################################

data_KAFCOM
_chemical_name_common            'Cynancholide B'
_chemical_formula_moiety         'C15 H22 O3'
_chemical_name_systematic        
3,3,6-Trimethyldecahydro-2-oxacyclo-octa[cd]pentalene-1,5-dione
_symmetry_cell_setting           orthorhombic
_symmetry_space_group_name_H-M   'P 21 21 21'
_symmetry_Int_Tables_number      19
_space_group_name_Hall           'P 2ac 2ab'
loop_
_symmetry_equiv_pos_site_id
_symmetry_equiv_pos_as_xyz
1 x,y,z
2 1/2+x,1/2-y,-z
3 -x,1/2+y,1/2-z
4 1/2-x,-y,1/2+z
_cell_length_a                   6.6701(5)
_cell_length_b                   8.3471(6)
_cell_length_c                   24.1334(17)
_cell_angle_alpha                90
_cell_angle_beta                 90
_cell_angle_gamma                90
_cell_volume                     1343.65
_exptl_crystal_colour            colorless
_exptl_crystal_description       prism
_cell_formula_units_Z            4
loop_
_atom_site_label
_atom_site_type_symbol
_atom_site_fract_x
_atom_site_fract_y
_atom_site_fract_z
O1 O 0.4044(2) 0.7819(2) 0.03966(7)
O2 O 0.3808(3) 1.0174(3) -0.00283(9)
O3 O 0.6414(3) 1.0611(2) 0.20425(8)
C1 C 0.5460(3) 0.6949(3) 0.07472(9)
H1 H 0.6102 0.6063 0.0532
C2 C 0.7062(3) 0.8194(2) 0.09260(9)
H2 H 0.8413 0.7906 0.0776
C3 C 0.6336(3) 0.9793(3) 0.06885(9)
H3 H 0.5741 1.0419 0.1001
C4 C 0.7927(4) 1.0851(3) 0.04162(10)
C5 C 0.9359(6) 1.1683(6) 0.08447(18)
H4 H 1.0275 1.2400 0.0638
H5 H 0.8533 1.2365 0.1091
C6 C 1.0626(5) 1.0582(5) 0.12071(15)
H6 H 1.0773 0.9541 0.1015
H7 H 1.1981 1.1055 0.1242
C7 C 0.9825(4) 1.0273(3) 0.17774(10)
C8 C 0.7647(3) 0.9758(3) 0.18188(8)
C9 C 0.7058(3) 0.8156(3) 0.15694(9)
H8 H 0.8032 0.7324 0.1697
C10 C 0.4937(3) 0.7596(3) 0.17081(9)
H9 H 0.3969 0.8490 0.1675
H10 H 0.4873 0.7162 0.2089
C11 C 0.4489(3) 0.6281(3) 0.12788(10)
C12 C 0.4647(4) 0.9342(3) 0.03049(10)
C13 C 1.0361(6) 1.1485(7) 0.22049(15)
H11 H 0.9683 1.2498 0.2122
H12 H 1.1816 1.1652 0.2204
H13 H 0.9938 1.1102 0.2570
C14 C 0.5575(4) 0.4727(3) 0.14267(12)
H14 H 0.5261 0.3906 0.1150
H15 H 0.5138 0.4362 0.1793
H16 H 0.7025 0.4918 0.1432
C15 C 0.2250(4) 0.5929(3) 0.12219(12)
H17 H 0.1538 0.6918 0.1126
H18 H 0.1735 0.5511 0.1574
H19 H 0.2043 0.5133 0.0929
H20 H 0.851(4) 1.026(4) 0.0143(13)
H21 H 0.722(4) 1.181(4) 0.0264(12)
H22 H 1.068(6) 0.940(5) 0.1863(15)
C16? C 0.9918(12) 1.0925(13) 0.0673(4)
H23? H 1.0785 1.1625 0.0445
H24? H 1.0511 0.9838 0.0669
C17? C 0.9938(12) 1.1552(10) 0.1273(3)
H25? H 0.8794 1.2298 0.1315
H26? H 1.1177 1.2189 0.1323
loop_
_geom_bond_atom_site_label_1
_geom_bond_atom_site_label_2
_geom_bond_site_symmetry_1
_geom_bond_site_symmetry_2
O1 C1 1_555 1_555
O2 C12 1_555 1_555
O3 C8 1_555 1_555
C1 H1 1_555 1_555
C2 C1 1_555 1_555
H2 C2 1_555 1_555
C3 C2 1_555 1_555
H3 C3 1_555 1_555
C4 C3 1_555 1_555
C5 C4 1_555 1_555
H4 C5 1_555 1_555
H5 C5 1_555 1_555
C6 C5 1_555 1_555
H6 C6 1_555 1_555
H7 C6 1_555 1_555
C7 C6 1_555 1_555
C8 C7 1_555 1_555
C9 C2 1_555 1_555
H8 C9 1_555 1_555
C10 C9 1_555 1_555
H9 C10 1_555 1_555
H10 C10 1_555 1_555
C11 C1 1_555 1_555
C12 O1 1_555 1_555
C13 C7 1_555 1_555
H11 C13 1_555 1_555
H12 C13 1_555 1_555
H13 C13 1_555 1_555
C14 C11 1_555 1_555
H14 C14 1_555 1_555
H15 C14 1_555 1_555
H16 C14 1_555 1_555
C15 C11 1_555 1_555
H17 C15 1_555 1_555
H18 C15 1_555 1_555
H19 C15 1_555 1_555
H20 C4 1_555 1_555
H21 C4 1_555 1_555
H22 C7 1_555 1_555
C3 C12 1_555 1_555
C8 C9 1_555 1_555
C10 C11 1_555 1_555

#END
