
#######################################################################
#
#                 Cambridge Crystallographic Data Centre
#                                CCDC 
#
#######################################################################
#
# If this CIF has been generated from an entry in the Cambridge 
# Structural Database, then it will include bibliographic, chemical, 
# crystal, experimental, refinement or atomic coordinate data resulting 
# from the CCDC's data processing and validation procedures.
#
#######################################################################

data_KAFDIE02
_chemical_formula_moiety         'C10 H14 N4 S1'
_chemical_name_systematic        
(E)-1-[4-(Dimethylamino)benzylidene]thiosemicarbazide
_symmetry_cell_setting           monoclinic
_symmetry_space_group_name_H-M   'P 21/n'
_symmetry_Int_Tables_number      14
_space_group_name_Hall           '-P 2yn'
loop_
_symmetry_equiv_pos_site_id
_symmetry_equiv_pos_as_xyz
1 x,y,z
2 1/2-x,1/2+y,1/2-z
3 -x,-y,-z
4 1/2+x,1/2-y,1/2+z
_cell_length_a                   5.6984(13)
_cell_length_b                   8.9493(14)
_cell_length_c                   22.813(2)
_cell_angle_alpha                90.00
_cell_angle_beta                 93.860(2)
_cell_angle_gamma                90.00
_cell_volume                     1160.75
_exptl_crystal_colour            orange
_exptl_crystal_description       block
_cell_formula_units_Z            4
_exptl_crystal_recrystallization_method ethanol
loop_
_atom_site_label
_atom_site_type_symbol
_atom_site_fract_x
_atom_site_fract_y
_atom_site_fract_z
N1 N 0.9364(3) 0.1808(2) 0.14592(8)
H1 H 1.0442 0.2390 0.1611
N2 N 0.7454(3) 0.1467(2) 0.17756(8)
N3 N 0.7772(3) 0.0474(2) 0.06910(8)
H2 H 0.6548 0.0349 0.0887
H3 H 0.7820 0.0093 0.0346
N4 N 0.0633(3) 0.1090(2) 0.39241(9)
S1 S 1.20240(11) 0.15551(9) 0.05735(3)
C1 C 0.9570(4) 0.1249(2) 0.09195(9)
C2 C 0.7371(4) 0.2136(3) 0.22678(9)
H4 H 0.8539 0.2829 0.2374
C3 C 0.5554(4) 0.1872(2) 0.26677(9)
C4 C 0.5549(4) 0.2699(3) 0.31838(10)
H5 H 0.6676 0.3441 0.3253
C5 C 0.3937(4) 0.2457(3) 0.35945(10)
H6 H 0.3985 0.3044 0.3932
C6 C 0.2228(4) 0.1346(2) 0.35143(9)
C7 C 0.2210(4) 0.0514(3) 0.29886(9)
H7 H 0.1082 -0.0226 0.2916
C8 C 0.3831(4) 0.0782(3) 0.25809(9)
H8 H 0.3771 0.0217 0.2238
C9 C -0.1011(4) -0.0139(3) 0.38610(12)
H9 H -0.1877 -0.0074 0.3486
H10 H -0.2082 -0.0092 0.4168
H11 H -0.0166 -0.1067 0.3887
C10 C 0.0832(6) 0.1853(3) 0.44832(12)
H12 H 0.2193 0.1495 0.4711
H13 H -0.0549 0.1664 0.4690
H14 H 0.0984 0.2908 0.4419
loop_
_geom_bond_atom_site_label_1
_geom_bond_atom_site_label_2
_geom_bond_site_symmetry_1
_geom_bond_site_symmetry_2
N1 H1 1_555 1_555
N2 N1 1_555 1_555
N3 H2 1_555 1_555
H3 N3 1_555 1_555
N4 C6 1_555 1_555
S1 C1 1_555 1_555
C1 N1 1_555 1_555
C2 N2 1_555 1_555
H4 C2 1_555 1_555
C3 C2 1_555 1_555
C4 C3 1_555 1_555
H5 C4 1_555 1_555
C5 C4 1_555 1_555
H6 C5 1_555 1_555
C6 C5 1_555 1_555
C7 C6 1_555 1_555
H7 C7 1_555 1_555
C8 C3 1_555 1_555
H8 C8 1_555 1_555
C9 N4 1_555 1_555
H9 C9 1_555 1_555
H10 C9 1_555 1_555
H11 C9 1_555 1_555
C10 N4 1_555 1_555
H12 C10 1_555 1_555
H13 C10 1_555 1_555
H14 C10 1_555 1_555
N3 C1 1_555 1_555
C7 C8 1_555 1_555

#END
