
#######################################################################
#
#                 Cambridge Crystallographic Data Centre
#                                CCDC 
#
#######################################################################
#
# If this CIF has been generated from an entry in the Cambridge 
# Structural Database, then it will include bibliographic, chemical, 
# crystal, experimental, refinement or atomic coordinate data resulting 
# from the CCDC's data processing and validation procedures.
#
#######################################################################

data_KAFQAM
_chemical_formula_moiety         'C36 H45 N3 O3,3(C4 H8 O1)'
_chemical_name_systematic        
'1,3,5-tris(2-(t-Butyl(hydroxy)amino)phenyl)benzene tetrahydrofuran solvate'
_symmetry_cell_setting           rhombohedral
_symmetry_space_group_name_H-M   'R -3'
_symmetry_Int_Tables_number      148
_space_group_name_Hall           '-R 3'
loop_
_symmetry_equiv_pos_site_id
_symmetry_equiv_pos_as_xyz
1 x,y,z
2 -y,x-y,z
3 -x+y,-x,z
4 2/3+x,1/3+y,1/3+z
5 2/3-y,1/3+x-y,1/3+z
6 2/3-x+y,1/3-x,1/3+z
7 1/3+x,2/3+y,2/3+z
8 1/3-y,2/3+x-y,2/3+z
9 1/3-x+y,2/3-x,2/3+z
10 -x,-y,-z
11 y,-x+y,-z
12 x-y,x,-z
13 1/3-x,2/3-y,2/3-z
14 1/3+y,2/3-x+y,2/3-z
15 1/3+x-y,2/3+x,2/3-z
16 2/3-x,1/3-y,1/3-z
17 2/3+y,1/3-x+y,1/3-z
18 2/3+x-y,1/3+x,1/3-z
_cell_length_a                   22.8161(10)
_cell_length_b                   22.8161(10)
_cell_length_c                   14.7211(8)
_cell_angle_alpha                90
_cell_angle_beta                 90
_cell_angle_gamma                120
_cell_volume                     6636.72
_exptl_crystal_description       prism
_cell_formula_units_Z            6
loop_
_atom_site_label
_atom_site_type_symbol
_atom_site_fract_x
_atom_site_fract_y
_atom_site_fract_z
C1 C 0.63826(6) 0.26280(6) 0.70022(8)
C2 C 0.70858(6) 0.30543(6) 0.69998(8)
H1 H 0.7366 0.2867 0.6997
C3 C 0.60843(6) 0.18802(6) 0.71155(8)
C4 C 0.62886(6) 0.14852(6) 0.66229(8)
C5 C 0.60653(7) 0.08186(6) 0.68952(9)
H2 H 0.6215 0.0563 0.6584
C6 C 0.56256(7) 0.05328(7) 0.76191(9)
H3 H 0.5493 0.0094 0.7804
C7 C 0.53830(7) 0.09026(7) 0.80693(9)
H4 H 0.5071 0.0707 0.8538
C8 C 0.56092(6) 0.15659(6) 0.78146(8)
H5 H 0.5442 0.1810 0.8115
C9 C 0.63761(7) 0.16892(7) 0.49609(9)
C10 C 0.60038(8) 0.20874(8) 0.49987(10)
H6 H 0.5653 0.1892 0.5448
H7 H 0.5807 0.2071 0.4416
H8 H 0.6317 0.2549 0.5155
C11 C 0.69223(8) 0.20020(8) 0.42325(10)
H9 H 0.7258 0.2451 0.4413
H10 H 0.6722 0.2022 0.3668
H11 H 0.7131 0.1730 0.4157
C12 C 0.58818(9) 0.09472(8) 0.47286(10)
H12 H 0.6121 0.0700 0.4714
H13 H 0.5682 0.0921 0.4145
H14 H 0.5533 0.0755 0.5181
N1 N 0.67328(5) 0.17803(5) 0.58539(7)
O1 O 0.71250(5) 0.14392(5) 0.57772(7)
H15 H 0.7529 0.1722 0.5754
C1A C 0.73720(6) 0.37546(8) 0.70022(8)
C2A C 0.69457(6) 0.40315(8) 0.69998(8)
H1A H 0.7133 0.4499 0.6997
C3A C 0.81198(6) 0.42041(8) 0.71155(8)
C4A C 0.85148(6) 0.48034(8) 0.66229(8)
C5A C 0.91814(6) 0.52467(9) 0.68952(9)
H2A H 0.9437 0.5652 0.6584
C6A C 0.94672(7) 0.50928(10) 0.76191(9)
H3A H 0.9906 0.5399 0.7804
C7A C 0.90974(7) 0.44804(10) 0.80693(9)
H4A H 0.9293 0.4364 0.8538
C8A C 0.84341(6) 0.40433(8) 0.78146(8)
H5A H 0.8190 0.3632 0.8115
C9A C 0.83108(7) 0.46869(10) 0.49609(9)
C10A C 0.79126(8) 0.39164(11) 0.49987(10)
H6A H 0.8108 0.3761 0.5448
H7A H 0.7929 0.3736 0.4416
H8A H 0.7451 0.3768 0.5155
C11A C 0.79980(8) 0.49203(11) 0.42325(10)
H9A H 0.7549 0.4807 0.4413
H10A H 0.7978 0.4700 0.3668
H11A H 0.8270 0.5401 0.4157
C12A C 0.90528(8) 0.49346(12) 0.47286(10)
H12A H 0.9300 0.5421 0.4714
H13A H 0.9079 0.4761 0.4145
H14A H 0.9245 0.4778 0.5181
N1A N 0.82197(5) 0.49525(7) 0.58539(7)
O1A O 0.85608(5) 0.56858(7) 0.57772(7)
H15A H 0.8278 0.5807 0.5754
C1B C 0.62454(8) 0.36174(6) 0.70022(8)
C2B C 0.59685(8) 0.29142(6) 0.69998(8)
H1B H 0.5501 0.2634 0.6997
C3B C 0.57959(8) 0.39157(6) 0.71155(8)
C4B C 0.51966(8) 0.37114(6) 0.66229(8)
C5B C 0.47533(9) 0.39347(7) 0.68952(9)
H2B H 0.4348 0.3785 0.6584
C6B C 0.49072(10) 0.43744(7) 0.76191(9)
H3B H 0.4601 0.4507 0.7804
C7B C 0.55196(10) 0.46170(7) 0.80693(9)
H4B H 0.5636 0.4929 0.8538
C8B C 0.59567(8) 0.43908(6) 0.78146(8)
H5B H 0.6368 0.4558 0.8115
C9B C 0.53131(10) 0.36239(7) 0.49609(9)
C10B C 0.60836(11) 0.39962(8) 0.49987(10)
H6B H 0.6239 0.4347 0.5448
H7B H 0.6264 0.4193 0.4416
H8B H 0.6232 0.3683 0.5155
C11B C 0.50797(11) 0.30777(8) 0.42325(10)
H9B H 0.5193 0.2742 0.4413
H10B H 0.5300 0.3278 0.3668
H11B H 0.4599 0.2869 0.4157
C12B C 0.50654(12) 0.41182(9) 0.47286(10)
H12B H 0.4579 0.3879 0.4714
H13B H 0.5239 0.4318 0.4145
H14B H 0.5222 0.4467 0.5181
N1B N 0.50475(7) 0.32672(5) 0.58539(7)
O1B O 0.43142(7) 0.28750(5) 0.57772(7)
H15B H 0.4193 0.2471 0.5754
O2 O 0.84396(5) 0.24643(6) 0.56520(8)
C13 C 0.88482(8) 0.27994(8) 0.64396(11)
H16 H 0.8992 0.2512 0.6735
H17 H 0.8593 0.2905 0.6872
C14 C 0.94494(10) 0.34366(9) 0.61003(11)
H18 H 0.9852 0.3548 0.6451
H19 H 0.9368 0.3815 0.6119
C15 C 0.95134(9) 0.32491(10) 0.51239(12)
H20 H 0.9746 0.3648 0.4743
H21 H 0.9751 0.2996 0.5098
C16 C 0.87858(8) 0.28186(8) 0.48486(10)
H22 H 0.8606 0.3098 0.4628
H23 H 0.8740 0.2504 0.4374
loop_
_geom_bond_atom_site_label_1
_geom_bond_atom_site_label_2
_geom_bond_site_symmetry_1
_geom_bond_site_symmetry_2
C1 C2 1_555 1_555
C2 H1 1_555 1_555
C3 C1 1_555 1_555
C4 C3 1_555 1_555
C5 C4 1_555 1_555
H2 C5 1_555 1_555
C6 C5 1_555 1_555
H3 C6 1_555 1_555
C7 C6 1_555 1_555
H4 C7 1_555 1_555
C8 C3 1_555 1_555
H5 C8 1_555 1_555
C9 C10 1_555 1_555
C10 H6 1_555 1_555
H7 C10 1_555 1_555
H8 C10 1_555 1_555
C11 C9 1_555 1_555
H9 C11 1_555 1_555
H10 C11 1_555 1_555
H11 C11 1_555 1_555
C12 C9 1_555 1_555
H12 C12 1_555 1_555
H13 C12 1_555 1_555
H14 C12 1_555 1_555
N1 C4 1_555 1_555
O1 N1 1_555 1_555
H15 O1 1_555 1_555
O2 C13 1_555 1_555
C13 H16 1_555 1_555
H17 C13 1_555 1_555
C14 C13 1_555 1_555
H18 C14 1_555 1_555
H19 C14 1_555 1_555
C15 C14 1_555 1_555
H20 C15 1_555 1_555
H21 C15 1_555 1_555
C16 O2 1_555 1_555
H22 C16 1_555 1_555
H23 C16 1_555 1_555
C1A C2 1_555 1_555
C2A C1A 1_555 1_555
H1A C2A 1_555 1_555
C3A C1A 1_555 1_555
C4A C3A 1_555 1_555
C5A C4A 1_555 1_555
H2A C5A 1_555 1_555
C6A C5A 1_555 1_555
H3A C6A 1_555 1_555
C7A C6A 1_555 1_555
H4A C7A 1_555 1_555
C8A C3A 1_555 1_555
H5A C8A 1_555 1_555
C9A C10A 1_555 1_555
C10A H6A 1_555 1_555
H7A C10A 1_555 1_555
H8A C10A 1_555 1_555
C11A C9A 1_555 1_555
H9A C11A 1_555 1_555
H10A C11A 1_555 1_555
H11A C11A 1_555 1_555
C12A C9A 1_555 1_555
H12A C12A 1_555 1_555
H13A C12A 1_555 1_555
H14A C12A 1_555 1_555
N1A C4A 1_555 1_555
O1A N1A 1_555 1_555
H15A O1A 1_555 1_555
C1B C2A 1_555 1_555
C2B C1 1_555 1_555
H1B C2B 1_555 1_555
C3B C1B 1_555 1_555
C4B C3B 1_555 1_555
C5B C4B 1_555 1_555
H2B C5B 1_555 1_555
C6B C5B 1_555 1_555
H3B C6B 1_555 1_555
C7B C6B 1_555 1_555
H4B C7B 1_555 1_555
C8B C3B 1_555 1_555
H5B C8B 1_555 1_555
C9B C10B 1_555 1_555
C10B H6B 1_555 1_555
H7B C10B 1_555 1_555
H8B C10B 1_555 1_555
C11B C9B 1_555 1_555
H9B C11B 1_555 1_555
H10B C11B 1_555 1_555
H11B C11B 1_555 1_555
C12B C9B 1_555 1_555
H12B C12B 1_555 1_555
H13B C12B 1_555 1_555
H14B C12B 1_555 1_555
N1B C4B 1_555 1_555
O1B N1B 1_555 1_555
H15B O1B 1_555 1_555
C7 C8 1_555 1_555
C9 N1 1_555 1_555
C15 C16 1_555 1_555
C7A C8A 1_555 1_555
C9A N1A 1_555 1_555
C1B C2B 1_555 1_555
C7B C8B 1_555 1_555
C9B N1B 1_555 1_555

#END
