
#######################################################################
#
#                 Cambridge Crystallographic Data Centre
#                                CCDC 
#
#######################################################################
#
# If this CIF has been generated from an entry in the Cambridge 
# Structural Database, then it will include bibliographic, chemical, 
# crystal, experimental, refinement or atomic coordinate data resulting 
# from the CCDC's data processing and validation procedures.
#
#######################################################################

data_KAFYAU
_chemical_formula_moiety         'C24 H18 Cl2 N2 O3,0.5(C3 H6 O1)'
_chemical_name_systematic        
'4,6-Dichloro-3-(1-((4-methoxyphenyl)amino)-3-oxo-3-phenylprop-1-en-2-yl)-1,3-dihydro-2H-indol-2-one acetone solvate'
_symmetry_cell_setting           triclinic
_symmetry_space_group_name_H-M   'P -1'
_symmetry_Int_Tables_number      2
_space_group_name_Hall           '-P 1'
loop_
_symmetry_equiv_pos_site_id
_symmetry_equiv_pos_as_xyz
1 x,y,z
2 -x,-y,-z
_cell_length_a                   11.980(3)
_cell_length_b                   13.777(3)
_cell_length_c                   14.492(3)
_cell_angle_alpha                83.296(5)
_cell_angle_beta                 80.970(5)
_cell_angle_gamma                87.489(5)
_cell_volume                     2345.29
_exptl_crystal_colour            yellow
_exptl_crystal_description       prismatic
_cell_formula_units_Z            4
loop_
_atom_site_label
_atom_site_type_symbol
_atom_site_fract_x
_atom_site_fract_y
_atom_site_fract_z
H1 H -0.103(3) 0.024(3) 0.555(3)
Cl1 Cl 0.00763(13) 0.41678(9) 0.38954(11)
Cl2 Cl -0.20937(12) 0.17605(12) 0.21784(10)
N1 N -0.0865(3) 0.0854(3) 0.5440(3)
N2 N 0.1492(3) 0.3457(3) 0.6553(3)
O1 O 0.0019(3) 0.0892(2) 0.6722(2)
O2 O 0.1632(3) 0.1143(2) 0.4415(2)
O3 O 0.4213(3) 0.4926(3) 0.8798(3)
C1 C -0.0520(4) 0.3041(3) 0.3892(4)
C2 C -0.1035(4) 0.2875(4) 0.3136(4)
H2 H -0.1063 0.3354 0.2631
C3 C -0.1504(4) 0.1977(4) 0.3158(3)
C4 C -0.1510(4) 0.1254(3) 0.3886(3)
H3 H -0.1849 0.0660 0.3887
C5 C -0.0987(4) 0.1451(3) 0.4620(3)
C6 C -0.0483(3) 0.2339(3) 0.4632(3)
C7 C 0.0059(4) 0.2295(3) 0.5504(3)
H4 H -0.0309 0.2781 0.5901
C8 C -0.0237(4) 0.1272(3) 0.5979(3)
C9 C 0.1328(3) 0.2462(3) 0.5302(3)
C10 C 0.1881(4) 0.2995(3) 0.5809(3)
H5 H 0.2654 0.3043 0.5604
C11 C 0.1982(4) 0.1916(3) 0.4610(3)
C12 C 0.3102(4) 0.2270(3) 0.4112(3)
C13 C 0.3955(4) 0.1591(4) 0.3857(4)
H6 H 0.3838 0.0929 0.4039
C14 C 0.4969(5) 0.1885(5) 0.3338(5)
H7 H 0.5536 0.1425 0.3176
C15 C 0.5141(5) 0.2855(5) 0.3060(5)
H8 H 0.5826 0.3055 0.2708
C16 C 0.4308(5) 0.3536(4) 0.3299(4)
H9 H 0.4429 0.4196 0.3107
C17 C 0.3292(4) 0.3245(3) 0.3823(3)
H10 H 0.2731 0.3711 0.3982
C18 C 0.2186(4) 0.3852(3) 0.7117(3)
C19 C 0.1703(4) 0.4464(3) 0.7759(3)
H11 H 0.0937 0.4627 0.7802
C20 C 0.2338(4) 0.4840(3) 0.8341(3)
H12 H 0.2003 0.5249 0.8779
C21 C 0.3484(4) 0.4604(3) 0.8267(3)
C22 C 0.3966(4) 0.3992(3) 0.7628(3)
H13 H 0.4735 0.3837 0.7575
C23 C 0.3315(4) 0.3605(3) 0.7063(3)
H14 H 0.3643 0.3174 0.6643
C24 C 0.3790(6) 0.5575(5) 0.9448(5)
H15 H 0.3395 0.6110 0.9143
H16 H 0.4404 0.5820 0.9699
H17 H 0.3279 0.5240 0.9950
H18 H 0.080(4) 0.352(3) 0.669(3)
Cl3 Cl 0.85728(12) 0.03737(9) 1.01095(11)
Cl4 Cl 0.42872(12) 0.17828(13) 1.06695(11)
N3 N 0.7452(3) 0.3328(3) 0.8164(3)
N4 N 1.1373(3) 0.1515(3) 0.8068(3)
O4 O 0.9173(3) 0.3656(3) 0.7295(3)
O5 O 0.8895(3) 0.3639(2) 0.9782(3)
O6 O 1.5875(3) 0.0566(2) 0.6834(3)
C25 C 0.7552(4) 0.1243(3) 0.9837(3)
C26 C 0.6464(4) 0.1173(4) 1.0318(4)
H19 H 0.6278 0.0676 1.0803
C27 C 0.5659(4) 0.1851(4) 1.0066(3)
C28 C 0.5886(4) 0.2602(3) 0.9354(3)
H20 H 0.5329 0.3050 0.9187
C29 C 0.6988(4) 0.2650(3) 0.8902(3)
C30 C 0.7836(4) 0.1995(3) 0.9139(3)
C31 C 0.8929(3) 0.2257(3) 0.8523(3)
H21 H 0.9141 0.1738 0.8115
C32 C 0.8578(4) 0.3168(3) 0.7918(3)
C33 C 0.9915(4) 0.2404(3) 0.9024(3)
C34 C 1.0986(4) 0.2055(3) 0.8766(3)
H22 H 1.1519 0.2213 0.9122
C35 C 0.9707(4) 0.3053(3) 0.9754(3)
C36 C 1.0471(4) 0.3004(3) 1.0478(3)
C37 C 1.0819(5) 0.3867(4) 1.0742(4)
H23 H 1.0596 0.4470 1.0459
C38 C 1.1506(6) 0.3815(6) 1.1439(5)
H24 H 1.1774 0.4385 1.1602
C39 C 1.1787(6) 0.2933(7) 1.1880(5)
H25 H 1.2233 0.2907 1.2354
C40 C 1.1429(5) 0.2093(6) 1.1641(4)
H26 H 1.1627 0.1496 1.1951
C41 C 1.0771(4) 0.2120(4) 1.0939(4)
H27 H 1.0528 0.1540 1.0775
C42 C 1.2523(4) 0.1258(3) 0.7810(3)
C43 C 1.2861(4) 0.0960(3) 0.6931(3)
H28 H 1.2328 0.0912 0.6537
C44 C 1.3979(4) 0.0735(3) 0.6631(3)
H29 H 1.4190 0.0538 0.6034
C45 C 1.4791(4) 0.0796(3) 0.7195(3)
C46 C 1.4459(4) 0.1080(3) 0.8078(3)
H30 H 1.4992 0.1118 0.8475
C47 C 1.3335(4) 0.1308(3) 0.8377(3)
H31 H 1.3123 0.1500 0.8975
C48 C 1.6701(5) 0.0508(5) 0.7429(5)
H32 H 1.6790 0.1143 0.7617
H33 H 1.7408 0.0285 0.7101
H34 H 1.6471 0.0058 0.7977
H35 H 1.099(4) 0.138(3) 0.766(3)
H36 H 0.717(5) 0.373(4) 0.785(4)
O7 O 0.6616(5) 0.4052(5) 0.6392(4)
C49 C 0.6280(8) 0.2778(6) 0.5520(8)
H37 H 0.6545 0.2332 0.6004
H38 H 0.6628 0.2608 0.4915
H39 H 0.5474 0.2740 0.5573
C50 C 0.6572(5) 0.3765(5) 0.5623(5)
C51 C 0.6751(9) 0.4438(5) 0.4803(6)
H40 H 0.6111 0.4881 0.4791
H41 H 0.6845 0.4090 0.4258
H42 H 0.7418 0.4799 0.4802
loop_
_geom_bond_atom_site_label_1
_geom_bond_atom_site_label_2
_geom_bond_site_symmetry_1
_geom_bond_site_symmetry_2
H1 N1 1_555 1_555
Cl1 C1 1_555 1_555
Cl2 C3 1_555 1_555
N1 C5 1_555 1_555
N2 C10 1_555 1_555
O1 C8 1_555 1_555
O2 C11 1_555 1_555
O3 C21 1_555 1_555
C1 C2 1_555 1_555
C2 H2 1_555 1_555
C3 C2 1_555 1_555
C4 C3 1_555 1_555
H3 C4 1_555 1_555
C5 C4 1_555 1_555
C6 C1 1_555 1_555
C7 C6 1_555 1_555
H4 C7 1_555 1_555
C8 N1 1_555 1_555
C9 C7 1_555 1_555
C10 C9 1_555 1_555
H5 C10 1_555 1_555
C11 C9 1_555 1_555
C12 C11 1_555 1_555
C13 C12 1_555 1_555
H6 C13 1_555 1_555
C14 C13 1_555 1_555
H7 C14 1_555 1_555
C15 C14 1_555 1_555
H8 C15 1_555 1_555
C16 C15 1_555 1_555
H9 C16 1_555 1_555
C17 C12 1_555 1_555
H10 C17 1_555 1_555
C18 N2 1_555 1_555
C19 C18 1_555 1_555
H11 C19 1_555 1_555
C20 C19 1_555 1_555
H12 C20 1_555 1_555
C21 C20 1_555 1_555
C22 C21 1_555 1_555
H13 C22 1_555 1_555
C23 C18 1_555 1_555
H14 C23 1_555 1_555
C24 O3 1_555 1_555
H15 C24 1_555 1_555
H16 C24 1_555 1_555
H17 C24 1_555 1_555
H18 N2 1_555 1_555
Cl3 C25 1_555 1_555
Cl4 C27 1_555 1_555
N3 C29 1_555 1_555
N4 C34 1_555 1_555
O4 C32 1_555 1_555
O5 C35 1_555 1_555
O6 C45 1_555 1_555
C25 C26 1_555 1_555
C26 H19 1_555 1_555
C27 C26 1_555 1_555
C28 C27 1_555 1_555
H20 C28 1_555 1_555
C29 C28 1_555 1_555
C30 C25 1_555 1_555
C31 C30 1_555 1_555
H21 C31 1_555 1_555
C32 N3 1_555 1_555
C33 C31 1_555 1_555
C34 C33 1_555 1_555
H22 C34 1_555 1_555
C35 C33 1_555 1_555
C36 C35 1_555 1_555
C37 C36 1_555 1_555
H23 C37 1_555 1_555
C38 C37 1_555 1_555
H24 C38 1_555 1_555
C39 C38 1_555 1_555
H25 C39 1_555 1_555
C40 C39 1_555 1_555
H26 C40 1_555 1_555
C41 C36 1_555 1_555
H27 C41 1_555 1_555
C42 N4 1_555 1_555
C43 C42 1_555 1_555
H28 C43 1_555 1_555
C44 C43 1_555 1_555
H29 C44 1_555 1_555
C45 C44 1_555 1_555
C46 C45 1_555 1_555
H30 C46 1_555 1_555
C47 C42 1_555 1_555
H31 C47 1_555 1_555
C48 O6 1_555 1_555
H32 C48 1_555 1_555
H33 C48 1_555 1_555
H34 C48 1_555 1_555
H35 N4 1_555 1_555
H36 N3 1_555 1_555
O7 C50 1_555 1_555
C49 H37 1_555 1_555
H38 C49 1_555 1_555
H39 C49 1_555 1_555
C50 C49 1_555 1_555
C51 C50 1_555 1_555
H40 C51 1_555 1_555
H41 C51 1_555 1_555
H42 C51 1_555 1_555
C5 C6 1_555 1_555
C7 C8 1_555 1_555
C16 C17 1_555 1_555
C22 C23 1_555 1_555
C29 C30 1_555 1_555
C31 C32 1_555 1_555
C40 C41 1_555 1_555
C46 C47 1_555 1_555

#END
