
#######################################################################
#
#                 Cambridge Crystallographic Data Centre
#                                CCDC 
#
#######################################################################
#
# If this CIF has been generated from an entry in the Cambridge 
# Structural Database, then it will include bibliographic, chemical, 
# crystal, experimental, refinement or atomic coordinate data resulting 
# from the CCDC's data processing and validation procedures.
#
#######################################################################

data_KAGBOL
_chemical_formula_moiety         'C20 H16 Br1 N1 O1'
_chemical_name_systematic        
(E)-2-(4-Bromobenzylidene)-4-(1H-indol-3-yl)cyclopentanone
_symmetry_cell_setting           orthorhombic
_symmetry_space_group_name_H-M   'P 21 21 21'
_symmetry_Int_Tables_number      19
_space_group_name_Hall           'P 2ac 2ab'
loop_
_symmetry_equiv_pos_site_id
_symmetry_equiv_pos_as_xyz
1 x,y,z
2 1/2-x,-y,1/2+z
3 -x,1/2+y,1/2-z
4 1/2+x,1/2-y,-z
_cell_length_a                   5.6021(13)
_cell_length_b                   13.195(3)
_cell_length_c                   21.579(5)
_cell_angle_alpha                90
_cell_angle_beta                 90
_cell_angle_gamma                90
_cell_volume                     1595.11
_exptl_crystal_colour            'light yellow'
_exptl_crystal_description       plate
_chemical_melting_point          185-187deg.C
_cell_formula_units_Z            4
_exptl_crystal_recrystallization_method acetonitrile
loop_
_atom_site_label
_atom_site_type_symbol
_atom_site_fract_x
_atom_site_fract_y
_atom_site_fract_z
Br1 Br 0.37860(10) 0.74025(4) 0.36113(2)
O1 O 0.8844(6) 0.3337(2) 0.66799(13)
N1 N 0.8313(6) 0.6609(3) 0.80456(14)
H1 H 0.9615 0.6981 0.8034
C1 C 0.4734(8) 0.6599(3) 0.43058(18)
C2 C 0.6809(8) 0.6062(3) 0.4278(2)
H2 H 0.7795 0.6093 0.3920
C3 C 0.7457(8) 0.5468(3) 0.4782(2)
H3 H 0.8891 0.5084 0.4764
C4 C 0.6045(8) 0.5423(3) 0.53153(17)
C5 C 0.3926(8) 0.5991(3) 0.53227(18)
H4 H 0.2928 0.5973 0.5679
C6 C 0.3268(8) 0.6579(3) 0.4818(2)
H5 H 0.1831 0.6961 0.4826
C7 C 0.6813(7) 0.4753(3) 0.58193(18)
H6 H 0.8218 0.4377 0.5732
C8 C 0.5882(7) 0.4578(3) 0.63817(18)
C9 C 0.7001(8) 0.3799(3) 0.67909(19)
C10 C 0.5473(8) 0.3687(3) 0.73595(19)
H7 H 0.6470 0.3574 0.7732
H8 H 0.4349 0.3113 0.7314
C11 C 0.4112(8) 0.4700(3) 0.74078(18)
H9 H 0.2525 0.4588 0.7609
C12 C 0.3757(8) 0.5008(3) 0.67115(17)
H10 H 0.2259 0.4719 0.6545
H11 H 0.3704 0.5755 0.6667
C13 C 0.5498(7) 0.5478(3) 0.77628(18)
C14 C 0.7581(7) 0.5933(3) 0.75963(18)
H12 H 0.8418 0.5803 0.7222
C15 C 0.6653(7) 0.6599(3) 0.85140(18)
C16 C 0.4860(7) 0.5898(3) 0.83547(18)
C17 C 0.2955(7) 0.5743(3) 0.87626(18)
H13 H 0.1748 0.5261 0.8670
C18 C 0.2856(8) 0.6309(3) 0.9306(2)
H14 H 0.1562 0.6217 0.9585
C19 C 0.4655(8) 0.7015(3) 0.94464(19)
H15 H 0.4548 0.7393 0.9820
C20 C 0.6572(8) 0.7174(3) 0.90574(18)
H16 H 0.7782 0.7653 0.9154
loop_
_geom_bond_atom_site_label_1
_geom_bond_atom_site_label_2
_geom_bond_site_symmetry_1
_geom_bond_site_symmetry_2
Br1 C1 1_555 1_555
O1 C9 1_555 1_555
N1 H1 1_555 1_555
C1 C2 1_555 1_555
C2 H2 1_555 1_555
C3 C2 1_555 1_555
H3 C3 1_555 1_555
C4 C3 1_555 1_555
C5 C4 1_555 1_555
H4 C5 1_555 1_555
C6 C1 1_555 1_555
H5 C6 1_555 1_555
C7 C4 1_555 1_555
H6 C7 1_555 1_555
C8 C7 1_555 1_555
C9 C8 1_555 1_555
C10 C9 1_555 1_555
H7 C10 1_555 1_555
H8 C10 1_555 1_555
C11 C10 1_555 1_555
H9 C11 1_555 1_555
C12 C8 1_555 1_555
H10 C12 1_555 1_555
H11 C12 1_555 1_555
C13 C11 1_555 1_555
C14 N1 1_555 1_555
H12 C14 1_555 1_555
C15 N1 1_555 1_555
C16 C13 1_555 1_555
C17 C16 1_555 1_555
H13 C17 1_555 1_555
C18 C17 1_555 1_555
H14 C18 1_555 1_555
C19 C18 1_555 1_555
H15 C19 1_555 1_555
C20 C15 1_555 1_555
H16 C20 1_555 1_555
C5 C6 1_555 1_555
C11 C12 1_555 1_555
C13 C14 1_555 1_555
C15 C16 1_555 1_555
C19 C20 1_555 1_555

#END
