
#######################################################################
#
#                 Cambridge Crystallographic Data Centre
#                                CCDC 
#
#######################################################################
#
# If this CIF has been generated from an entry in the Cambridge 
# Structural Database, then it will include bibliographic, chemical, 
# crystal, experimental, refinement or atomic coordinate data resulting 
# from the CCDC's data processing and validation procedures.
#
#######################################################################

data_KAGBUR
_chemical_formula_moiety         'C26 H21 N1 O1'
_chemical_name_systematic        
(E)-2-Benzylidene-4-(2-phenyl-1H-indol-3-yl)cyclopentanone
_symmetry_cell_setting           monoclinic
_symmetry_space_group_name_H-M   'P 21/c'
_symmetry_Int_Tables_number      14
_space_group_name_Hall           '-P 2ybc'
loop_
_symmetry_equiv_pos_site_id
_symmetry_equiv_pos_as_xyz
1 x,y,z
2 -x,1/2+y,1/2-z
3 -x,-y,-z
4 x,1/2-y,1/2+z
_cell_length_a                   15.924(3)
_cell_length_b                   8.0895(16)
_cell_length_c                   17.966(7)
_cell_angle_alpha                90
_cell_angle_beta                 122.981(19)
_cell_angle_gamma                90
_cell_volume                     1941.38
_exptl_crystal_colour            yellow
_exptl_crystal_description       plate
_chemical_melting_point          192-194deg.C
_cell_formula_units_Z            4
loop_
_atom_site_label
_atom_site_type_symbol
_atom_site_fract_x
_atom_site_fract_y
_atom_site_fract_z
O1 O -0.37269(14) -0.4979(2) -0.51057(13)
N1 N -0.34268(17) -0.0750(3) -0.15206(16)
H1 H -0.3429 -0.0617 -0.1047
C1 C -0.0101(2) -0.2341(4) -0.3145(2)
H2 H -0.0464 -0.1686 -0.2974
C2 C 0.0889(2) -0.1984(4) -0.2810(2)
H3 H 0.1201 -0.1077 -0.2416
C3 C 0.1431(2) -0.2935(4) -0.3044(2)
H4 H 0.2116 -0.2694 -0.2806
C4 C 0.0976(2) -0.4230(4) -0.3620(2)
H5 H 0.1345 -0.4886 -0.3785
C5 C -0.0014(2) -0.4580(4) -0.3961(2)
H6 H -0.0322 -0.5477 -0.4362
C6 C -0.0576(2) -0.3652(3) -0.37322(19)
C7 C -0.1630(2) -0.4072(3) -0.4132(2)
H7 H -0.1910 -0.4767 -0.4639
C8 C -0.2262(2) -0.3627(3) -0.38941(19)
C9 C -0.3331(2) -0.4164(3) -0.4425(2)
C10 C -0.3837(2) -0.3486(4) -0.39892(19)
H8 H -0.4316 -0.4298 -0.4013
H9 H -0.4201 -0.2453 -0.4283
C11 C -0.2981(2) -0.3152(4) -0.30241(19)
H10 H -0.2800 -0.4223 -0.2694
C12 C -0.2100(2) -0.2641(4) -0.31160(19)
H11 H -0.2119 -0.1440 -0.3231
H12 H -0.1448 -0.2917 -0.2571
C13 C -0.32211(19) -0.1932(3) -0.25406(19)
C14 C -0.36263(19) -0.0294(3) -0.28377(19)
C15 C -0.3878(2) 0.0669(4) -0.3581(2)
H13 H -0.3825 0.0227 -0.4044
C16 C -0.4207(2) 0.2277(4) -0.3629(2)
H14 H -0.4376 0.2940 -0.4129
C17 C -0.4293(2) 0.2940(4) -0.2951(2)
H15 H -0.4506 0.4053 -0.2994
C18 C -0.4074(2) 0.2012(4) -0.2227(2)
H16 H -0.4148 0.2453 -0.1776
C19 C -0.37391(19) 0.0396(3) -0.21782(19)
C20 C -0.3105(2) -0.2153(4) -0.17313(19)
C21 C -0.2697(2) -0.3555(4) -0.1105(2)
C22 C -0.3226(3) -0.4228(4) -0.0764(2)
H17 H -0.3867 -0.3803 -0.0949
C23 C -0.2824(3) -0.5504(4) -0.0159(2)
H18 H -0.3192 -0.5957 0.0068
C24 C -0.1895(3) -0.6122(4) 0.0118(2)
H19 H -0.1615 -0.6980 0.0548
C25 C -0.1368(3) -0.5509(5) -0.0225(3)
H20 H -0.0734 -0.5961 -0.0045
C26 C -0.1771(2) -0.4224(4) -0.0836(2)
H21 H -0.1407 -0.3798 -0.1072
loop_
_geom_bond_atom_site_label_1
_geom_bond_atom_site_label_2
_geom_bond_site_symmetry_1
_geom_bond_site_symmetry_2
O1 C9 1_555 1_555
N1 H1 1_555 1_555
C1 H2 1_555 1_555
C2 C1 1_555 1_555
H3 C2 1_555 1_555
C3 C2 1_555 1_555
H4 C3 1_555 1_555
C4 C3 1_555 1_555
H5 C4 1_555 1_555
C5 C4 1_555 1_555
H6 C5 1_555 1_555
C6 C1 1_555 1_555
C7 C6 1_555 1_555
H7 C7 1_555 1_555
C8 C7 1_555 1_555
C9 C8 1_555 1_555
C10 C9 1_555 1_555
H8 C10 1_555 1_555
H9 C10 1_555 1_555
C11 C10 1_555 1_555
H10 C11 1_555 1_555
C12 C8 1_555 1_555
H11 C12 1_555 1_555
H12 C12 1_555 1_555
C13 C11 1_555 1_555
C14 C13 1_555 1_555
C15 C14 1_555 1_555
H13 C15 1_555 1_555
C16 C15 1_555 1_555
H14 C16 1_555 1_555
C17 C16 1_555 1_555
H15 C17 1_555 1_555
C18 C17 1_555 1_555
H16 C18 1_555 1_555
C19 N1 1_555 1_555
C20 N1 1_555 1_555
C21 C20 1_555 1_555
C22 C21 1_555 1_555
H17 C22 1_555 1_555
C23 C22 1_555 1_555
H18 C23 1_555 1_555
C24 C23 1_555 1_555
H19 C24 1_555 1_555
C25 C24 1_555 1_555
H20 C25 1_555 1_555
C26 C21 1_555 1_555
H21 C26 1_555 1_555
C5 C6 1_555 1_555
C11 C12 1_555 1_555
C13 C20 1_555 1_555
C14 C19 1_555 1_555
C18 C19 1_555 1_555
C25 C26 1_555 1_555

#END
