
#######################################################################
#
#                 Cambridge Crystallographic Data Centre
#                                CCDC 
#
#######################################################################
#
# If this CIF has been generated from an entry in the Cambridge 
# Structural Database, then it will include bibliographic, chemical, 
# crystal, experimental, refinement or atomic coordinate data resulting 
# from the CCDC's data processing and validation procedures.
#
#######################################################################

data_KAGCAX
_chemical_formula_moiety         'C24 H36 N2 O4'
_chemical_name_systematic        
"diethyl 3,3'-di-t-butyl-4,4'-dimethyl-2,2'-bipyrrole-5,5'-dicarboxylate"
_symmetry_cell_setting           monoclinic
_symmetry_space_group_name_H-M   'C 2/c'
_symmetry_Int_Tables_number      15
_space_group_name_Hall           '-C 2yn'
loop_
_symmetry_equiv_pos_site_id
_symmetry_equiv_pos_as_xyz
1 x,y,z
2 1/2+x,1/2+y,z
3 -x,y,1/2-z
4 1/2-x,1/2+y,1/2-z
5 -x,-y,-z
6 1/2-x,1/2-y,-z
7 x,-y,1/2+z
8 1/2+x,1/2-y,1/2+z
_cell_length_a                   23.700(3)
_cell_length_b                   10.2800(10)
_cell_length_c                   11.136(2)
_cell_angle_alpha                90
_cell_angle_beta                 112.250(10)
_cell_angle_gamma                90
_cell_volume                     2511.11
_exptl_crystal_colour            colorless
_exptl_crystal_description       block
_chemical_melting_point          '291-292 deg.C'
_cell_formula_units_Z            4
_exptl_crystal_recrystallization_method dichloromethane/hexane
loop_
_atom_site_label
_atom_site_type_symbol
_atom_site_fract_x
_atom_site_fract_y
_atom_site_fract_z
N1 N 0.03236(13) 0.1613(3) 0.1434(3)
H1 H 0.0037 0.1105 0.0962
C1 C 0.02882(15) 0.2403(4) 0.2380(3)
O1 O 0.06482(17) 0.0151(4) -0.0279(4)
O2 O 0.15246(13) 0.1181(3) 0.0279(3)
C2 C 0.08446(15) 0.3061(4) 0.2945(3)
C3 C 0.12173(15) 0.2629(4) 0.2269(3)
C4 C 0.08760(15) 0.1740(4) 0.1339(3)
C5 C 0.10293(16) 0.4024(4) 0.4067(3)
C6 C 0.1209(2) 0.5325(5) 0.3647(5)
H2 H 0.0876 0.5649 0.2906
H3 H 0.1559 0.5204 0.3425
H4 H 0.1304 0.5938 0.4346
C7 C 0.1572(2) 0.3475(5) 0.5216(4)
H5 H 0.1456 0.2669 0.5493
H6 H 0.1691 0.4086 0.5919
H7 H 0.1908 0.3326 0.4951
C8 C 0.0532(2) 0.4302(5) 0.4567(5)
H8 H 0.0185 0.4663 0.3881
H9 H 0.0678 0.4912 0.5270
H10 H 0.0416 0.3509 0.4867
C9 C 0.18603(16) 0.3008(4) 0.2492(4)
H11 H 0.1943 0.2812 0.1732
H12 H 0.2137 0.2531 0.3218
H13 H 0.1913 0.3924 0.2670
C10 C 0.09960(19) 0.0952(4) 0.0383(4)
C11 C 0.1674(3) 0.0435(6) -0.0669(7)
H14 H 0.2034 -0.0083 -0.0214
H15 H 0.1341 -0.0160 -0.1103
C12 C 0.1775(5) 0.1139(7) -0.1549(9)
H16 H 0.1996 0.0633 -0.1949
H17 H 0.2009 0.1893 -0.1145
H18 H 0.1393 0.1409 -0.2196
C1B C -0.02882(15) 0.2403(4) 0.2620(3)
N1B N -0.03236(13) 0.1613(3) 0.3566(3)
H1B H -0.0037 0.1105 0.4038
C4B C -0.08760(15) 0.1740(4) 0.3661(3)
C3B C -0.12173(15) 0.2629(4) 0.2731(3)
C2B C -0.08446(15) 0.3061(4) 0.2055(3)
C5B C -0.10293(16) 0.4024(4) 0.0933(3)
C6B C -0.1209(2) 0.5325(5) 0.1353(5)
H2B H -0.0876 0.5649 0.2094
H3B H -0.1559 0.5204 0.1575
H4B H -0.1304 0.5938 0.0654
C7B C -0.1572(2) 0.3475(5) -0.0216(4)
H5B H -0.1456 0.2669 -0.0493
H6B H -0.1691 0.4086 -0.0919
H7B H -0.1908 0.3326 0.0049
C8B C -0.0532(2) 0.4302(5) 0.0433(5)
H8B H -0.0185 0.4663 0.1119
H9B H -0.0678 0.4912 -0.0270
H10B H -0.0416 0.3509 0.0133
C9B C -0.18603(16) 0.3008(4) 0.2508(4)
H11B H -0.1943 0.2812 0.3268
H12B H -0.2137 0.2531 0.1782
H13B H -0.1913 0.3924 0.2330
C10B C -0.09960(19) 0.0952(4) 0.4617(4)
O1B O -0.06482(17) 0.0151(4) 0.5279(4)
O2B O -0.15246(13) 0.1181(3) 0.4721(3)
C11B C -0.1674(3) 0.0435(6) 0.5669(7)
H14B H -0.2034 -0.0083 0.5214
H15B H -0.1341 -0.0160 0.6103
C12B C -0.1775(5) 0.1139(7) 0.6549(9)
H16B H -0.1996 0.0633 0.6949
H17B H -0.2009 0.1893 0.6145
H18B H -0.1393 0.1409 0.7196
loop_
_geom_bond_atom_site_label_1
_geom_bond_atom_site_label_2
_geom_bond_site_symmetry_1
_geom_bond_site_symmetry_2
N1 H1 1_555 1_555
C1 N1 1_555 1_555
O1 C10 1_555 1_555
O2 C10 1_555 1_555
C2 C1 1_555 1_555
C3 C2 1_555 1_555
C4 N1 1_555 1_555
C5 C2 1_555 1_555
C6 C5 1_555 1_555
H2 C6 1_555 1_555
H3 C6 1_555 1_555
H4 C6 1_555 1_555
C7 C5 1_555 1_555
H5 C7 1_555 1_555
H6 C7 1_555 1_555
H7 C7 1_555 1_555
C8 C5 1_555 1_555
H8 C8 1_555 1_555
H9 C8 1_555 1_555
H10 C8 1_555 1_555
C9 C3 1_555 1_555
H11 C9 1_555 1_555
H12 C9 1_555 1_555
H13 C9 1_555 1_555
C10 C4 1_555 1_555
C11 O2 1_555 1_555
H14 C11 1_555 1_555
H15 C11 1_555 1_555
C12 C11 1_555 1_555
H16 C12 1_555 1_555
H17 C12 1_555 1_555
H18 C12 1_555 1_555
C1B C1 1_555 1_555
N1B C1B 1_555 1_555
H1B N1B 1_555 1_555
C4B N1B 1_555 1_555
C3B C4B 1_555 1_555
C2B C1B 1_555 1_555
C5B C2B 1_555 1_555
C6B C5B 1_555 1_555
H2B C6B 1_555 1_555
H3B C6B 1_555 1_555
H4B C6B 1_555 1_555
C7B C5B 1_555 1_555
H5B C7B 1_555 1_555
H6B C7B 1_555 1_555
H7B C7B 1_555 1_555
C8B C5B 1_555 1_555
H8B C8B 1_555 1_555
H9B C8B 1_555 1_555
H10B C8B 1_555 1_555
C9B C3B 1_555 1_555
H11B C9B 1_555 1_555
H12B C9B 1_555 1_555
H13B C9B 1_555 1_555
C10B C4B 1_555 1_555
O1B C10B 1_555 1_555
O2B C10B 1_555 1_555
C11B O2B 1_555 1_555
H14B C11B 1_555 1_555
H15B C11B 1_555 1_555
C12B C11B 1_555 1_555
H16B C12B 1_555 1_555
H17B C12B 1_555 1_555
H18B C12B 1_555 1_555
C3 C4 1_555 1_555
C3B C2B 1_555 1_555

#END
