
#######################################################################
#
#                 Cambridge Crystallographic Data Centre
#                                CCDC 
#
#######################################################################
#
# If this CIF has been generated from an entry in the Cambridge 
# Structural Database, then it will include bibliographic, chemical, 
# crystal, experimental, refinement or atomic coordinate data resulting 
# from the CCDC's data processing and validation procedures.
#
#######################################################################

data_KAGDIH
_chemical_formula_moiety         'C19 H20 O3'
_chemical_name_systematic        
2-(2-t-Butyl-6-methylphenoxy)isophthalaldehyde
_symmetry_cell_setting           monoclinic
_symmetry_space_group_name_H-M   'P 21/n'
_symmetry_Int_Tables_number      14
_space_group_name_Hall           '-P 2yn'
loop_
_symmetry_equiv_pos_site_id
_symmetry_equiv_pos_as_xyz
1 x,y,z
2 1/2-x,1/2+y,1/2-z
3 -x,-y,-z
4 1/2+x,1/2-y,1/2+z
_cell_length_a                   8.8160(6)
_cell_length_b                   13.8040(9)
_cell_length_c                   13.1240(9)
_cell_angle_alpha                90
_cell_angle_beta                 98.6350(10)
_cell_angle_gamma                90
_cell_volume                     1579.04
_exptl_crystal_colour            white
_exptl_crystal_description       block
_cell_formula_units_Z            4
loop_
_atom_site_label
_atom_site_type_symbol
_atom_site_fract_x
_atom_site_fract_y
_atom_site_fract_z
C1 C 1.00580(12) 0.19507(8) 0.62213(8)
C2 C 1.13290(12) 0.13864(8) 0.60652(8)
C3 C 1.12894(13) 0.04203(8) 0.63679(9)
H1 H 1.2125 0.0009 0.6283
C4 C 1.00671(14) 0.00414(9) 0.67895(9)
H2 H 1.0062 -0.0625 0.6968
C5 C 0.88589(14) 0.06265(9) 0.69512(9)
H3 H 0.8028 0.0360 0.7243
C6 C 0.88454(12) 0.16062(9) 0.66909(8)
C7 C 1.27026(12) 0.18058(8) 0.56184(9)
C8 C 1.34744(13) 0.26023(9) 0.63394(9)
H4 H 1.2718 0.3102 0.6433
H5 H 1.4315 0.2894 0.6034
H6 H 1.3881 0.2318 0.7009
C9 C 1.39148(14) 0.10269(9) 0.55128(10)
H7 H 1.4296 0.0755 0.6193
H8 H 1.4769 0.1318 0.5222
H9 H 1.3453 0.0510 0.5056
C10 C 1.22023(13) 0.22180(9) 0.45312(9)
H10 H 1.1750 0.1700 0.4073
H11 H 1.3097 0.2486 0.4267
H12 H 1.1441 0.2731 0.4561
C11 C 0.75961(13) 0.22598(9) 0.69626(10)
H13 H 0.8056 0.2844 0.7304
H14 H 0.7007 0.1918 0.7427
H15 H 0.6913 0.2443 0.6333
C12 C 0.89072(11) 0.34306(8) 0.54244(8)
C13 C 0.87852(12) 0.43999(8) 0.57173(8)
C14 C 0.76191(13) 0.49746(8) 0.51980(9)
H16 H 0.7532 0.5631 0.5398
C15 C 0.65858(13) 0.46045(9) 0.43956(9)
H17 H 0.5792 0.5001 0.4048
C16 C 0.67231(12) 0.36526(8) 0.41067(9)
H18 H 0.6013 0.3400 0.3554
C17 C 0.78776(12) 0.30467(8) 0.46024(8)
C18 C 0.98593(13) 0.48292(9) 0.65762(9)
H19 H 1.0616 0.4425 0.6954
C19 C 0.79397(13) 0.20467(8) 0.41987(9)
H20 H 0.8834 0.1670 0.4408
O1 O 1.01144(8) 0.29385(5) 0.59721(6)
O2 O 0.98104(10) 0.56758(6) 0.68154(7)
O3 O 0.68960(10) 0.16923(6) 0.36137(7)
loop_
_geom_bond_atom_site_label_1
_geom_bond_atom_site_label_2
_geom_bond_site_symmetry_1
_geom_bond_site_symmetry_2
C1 C2 1_555 1_555
C2 C3 1_555 1_555
C3 H1 1_555 1_555
C4 C3 1_555 1_555
H2 C4 1_555 1_555
C5 C4 1_555 1_555
H3 C5 1_555 1_555
C6 C1 1_555 1_555
C7 C2 1_555 1_555
C8 C7 1_555 1_555
H4 C8 1_555 1_555
H5 C8 1_555 1_555
H6 C8 1_555 1_555
C9 C7 1_555 1_555
H7 C9 1_555 1_555
H8 C9 1_555 1_555
H9 C9 1_555 1_555
C10 C7 1_555 1_555
H10 C10 1_555 1_555
H11 C10 1_555 1_555
H12 C10 1_555 1_555
C11 C6 1_555 1_555
H13 C11 1_555 1_555
H14 C11 1_555 1_555
H15 C11 1_555 1_555
C12 C13 1_555 1_555
C13 C14 1_555 1_555
C14 H16 1_555 1_555
C15 C14 1_555 1_555
H17 C15 1_555 1_555
C16 C15 1_555 1_555
H18 C16 1_555 1_555
C17 C12 1_555 1_555
C18 C13 1_555 1_555
H19 C18 1_555 1_555
C19 C17 1_555 1_555
H20 C19 1_555 1_555
O1 C1 1_555 1_555
O2 C18 1_555 1_555
O3 C19 1_555 1_555
C5 C6 1_555 1_555
C12 O1 1_555 1_555
C16 C17 1_555 1_555

#END
