
#######################################################################
#
#                 Cambridge Crystallographic Data Centre
#                                CCDC 
#
#######################################################################
#
# If this CIF has been generated from an entry in the Cambridge 
# Structural Database, then it will include bibliographic, chemical, 
# crystal, experimental, refinement or atomic coordinate data resulting 
# from the CCDC's data processing and validation procedures.
#
#######################################################################

data_KAGTIV
_chemical_formula_moiety         'C27 H28 O4 Si1'
_chemical_name_systematic        
1,5-Dimethoxy-4-phenyl-8-(phenylethynyl)-8-(trimethylsiloxy)-bicyclo(3.2.1)octa-3,6-dien-2-one
_symmetry_cell_setting           orthorhombic
_symmetry_space_group_name_H-M   'P 21 21 21'
_symmetry_Int_Tables_number      19
_space_group_name_Hall           'P 2ac 2ab'
loop_
_symmetry_equiv_pos_site_id
_symmetry_equiv_pos_as_xyz
1 x,y,z
2 1/2+x,1/2-y,-z
3 -x,1/2+y,1/2-z
4 1/2-x,-y,1/2+z
_cell_length_a                   8.824(4)
_cell_length_b                   9.417(4)
_cell_length_c                   29.073(14)
_cell_angle_alpha                90
_cell_angle_beta                 90
_cell_angle_gamma                90
_cell_volume                     2415.84
_exptl_crystal_colour            'light yellow'
_chemical_melting_point          138-139deg.C
_cell_formula_units_Z            4
loop_
_atom_site_label
_atom_site_type_symbol
_atom_site_fract_x
_atom_site_fract_y
_atom_site_fract_z
C1 C 0.6283(4) 0.1640(3) 0.11680(10)
C2 C 0.7238(4) 0.2103(3) 0.07357(11)
C3 C 0.6087(4) 0.2157(3) 0.03390(10)
C4 C 0.4969(4) 0.1003(3) 0.03204(11)
C5 C 0.4922(4) -0.0030(3) 0.06380(11)
C6 C 0.6065(4) 0.0013(3) 0.10332(10)
C7 C 0.1855(5) 0.2823(6) 0.13155(18)
C8 C 0.3729(5) 0.1474(5) 0.20863(14)
C9 C 0.4227(6) 0.4572(4) 0.18419(16)
C10 C 0.7392(6) 0.4628(4) 0.08801(17)
C11 C 0.3838(4) -0.1239(3) 0.05985(10)
C12 C 0.4310(4) -0.2634(4) 0.06767(12)
C13 C 0.3333(5) -0.3759(4) 0.06047(15)
C14 C 0.1862(5) -0.3500(5) 0.04648(14)
C15 C 0.1370(4) -0.2122(5) 0.03940(14)
C16 C 0.2357(4) -0.0994(4) 0.04575(13)
C17 C 0.6522(5) -0.1545(4) 0.16844(14)
C18 C 0.7619(4) -0.0321(4) 0.08449(13)
C19 C 0.8244(4) 0.0825(4) 0.06764(13)
C20 C 0.7169(3) 0.1769(3) 0.15967(11)
C21 C 0.7781(4) 0.1864(3) 0.19577(11)
C22 C 0.8442(4) 0.1889(3) 0.24149(11)
C23 C 0.7862(5) 0.2777(4) 0.27481(13)
C24 C 0.8450(6) 0.2727(5) 0.31933(14)
C25 C 0.9584(5) 0.1801(6) 0.32978(13)
C26 C 1.0171(5) 0.0907(6) 0.29634(16)
C27 C 0.9612(4) 0.0959(5) 0.25253(14)
O1 O 0.4924(2) 0.2399(2) 0.11955(7)
O2 O 0.8132(3) 0.3326(2) 0.07744(9)
O3 O 0.6141(3) 0.3092(3) 0.00519(8)
O4 O 0.5480(3) -0.0797(2) 0.14013(7)
Si1 Si 0.3711(1) 0.2791(1) 0.16117(3)
loop_
_geom_bond_atom_site_label_1
_geom_bond_atom_site_label_2
_geom_bond_site_symmetry_1
_geom_bond_site_symmetry_2
C1 C2 1_555 1_555
C2 C3 1_555 1_555
C3 C4 1_555 1_555
C4 C5 1_555 1_555
C5 C6 1_555 1_555
C6 C1 1_555 1_555
C7 Si1 1_555 1_555
C8 Si1 1_555 1_555
C9 Si1 1_555 1_555
C10 O2 1_555 1_555
C11 C5 1_555 1_555
C12 C11 1_555 1_555
C13 C12 1_555 1_555
C14 C13 1_555 1_555
C15 C14 1_555 1_555
C16 C11 1_555 1_555
C17 O4 1_555 1_555
C18 C6 1_555 1_555
C19 C2 1_555 1_555
C20 C1 1_555 1_555
C21 C20 1_555 1_555
C22 C21 1_555 1_555
C23 C22 1_555 1_555
C24 C23 1_555 1_555
C25 C24 1_555 1_555
C26 C25 1_555 1_555
C27 C22 1_555 1_555
O1 C1 1_555 1_555
O2 C2 1_555 1_555
O3 C3 1_555 1_555
O4 C6 1_555 1_555
Si1 O1 1_555 1_555
C15 C16 1_555 1_555
C18 C19 1_555 1_555
C26 C27 1_555 1_555

#END
