
#######################################################################
#
#                 Cambridge Crystallographic Data Centre
#                                CCDC 
#
#######################################################################
#
# If this CIF has been generated from an entry in the Cambridge 
# Structural Database, then it will include bibliographic, chemical, 
# crystal, experimental, refinement or atomic coordinate data resulting 
# from the CCDC's data processing and validation procedures.
#
#######################################################################

data_KAGTAQ
_chemical_formula_moiety         'C16 H17 N3 O5 S1'
_chemical_name_systematic        
2-((2-(2,4-dimethoxybenzylidene)hydrazino)carbonyl)benzenesulfonamide
_symmetry_cell_setting           monoclinic
_symmetry_space_group_name_H-M   'P 21/c'
_symmetry_Int_Tables_number      14
_space_group_name_Hall           '-P 2ybc'
loop_
_symmetry_equiv_pos_site_id
_symmetry_equiv_pos_as_xyz
1 x,y,z
2 -x,1/2+y,1/2-z
3 -x,-y,-z
4 x,1/2-y,1/2+z
_cell_length_a                   16.3030(2)
_cell_length_b                   12.6915(2)
_cell_length_c                   8.2361(1)
_cell_angle_alpha                90
_cell_angle_beta                 90.1813(9)
_cell_angle_gamma                90
_cell_volume                     1704.12
_exptl_crystal_colour            colorless
_exptl_crystal_description       block
_cell_formula_units_Z            4
loop_
_atom_site_label
_atom_site_type_symbol
_atom_site_fract_x
_atom_site_fract_y
_atom_site_fract_z
S1 S 0.37554(2) 0.95243(3) 0.09230(4)
O1 O 0.29740(6) 0.96505(9) 0.16830(13)
O2 O 0.44653(6) 0.99937(9) 0.16512(13)
O3 O 0.23744(6) 0.84307(8) -0.13084(11)
O4 O -0.03996(6) 0.53067(8) 0.24858(13)
O5 O -0.27556(6) 0.63023(10) -0.05557(15)
N1 N 0.36923(8) 0.99943(10) -0.08939(16)
H1 H 0.3295(9) 0.9685(13) -0.139(2)
H2 H 0.4163(7) 0.9954(14) -0.137(2)
N2 N 0.18945(7) 0.71971(9) 0.04870(14)
H3 H 0.2025(10) 0.6853(12) 0.1358(15)
N3 N 0.10884(7) 0.72277(9) -0.00395(14)
C1 C 0.39498(8) 0.81551(11) 0.07490(16)
C2 C 0.47355(8) 0.77980(12) 0.11023(19)
H4 H 0.5152 0.8286 0.1395
C3 C 0.49135(9) 0.67325(13) 0.1030(2)
H5 H 0.5452 0.6489 0.1268
C4 C 0.43064(9) 0.60282(12) 0.06120(19)
H6 H 0.4427 0.5296 0.0572
C5 C 0.35226(9) 0.63764(11) 0.02490(17)
H7 H 0.3111 0.5881 -0.0042
C6 C 0.33299(8) 0.74454(11) 0.03053(15)
C7 C 0.24848(8) 0.77683(10) -0.02350(15)
C8 C 0.06137(8) 0.66088(11) 0.07645(16)
H8 H 0.0834 0.6202 0.1631
C9 C -0.02530(8) 0.65228(11) 0.03681(16)
C10 C -0.07701(8) 0.58418(10) 0.12623(16)
C11 C -0.15999(8) 0.57748(11) 0.09083(17)
H9 H -0.1943 0.5313 0.1507
C12 C -0.19241(9) 0.63903(12) -0.03314(19)
C13 C -0.14283(10) 0.70573(14) -0.1238(2)
H10 H -0.1653 0.7468 -0.2095
C14 C -0.06017(9) 0.71116(14) -0.0869(2)
H11 H -0.0262 0.7568 -0.1485
C15 C -0.08952(11) 0.46333(14) 0.3482(2)
H12 H -0.1312 0.5056 0.4038
H13 H -0.0547 0.4282 0.4290
H14 H -0.1165 0.4103 0.2800
C16 C -0.31301(10) 0.70604(15) -0.1597(2)
H15 H -0.2980 0.7771 -0.1238
H16 H -0.3728 0.6980 -0.1556
H17 H -0.2941 0.6951 -0.2713
loop_
_geom_bond_atom_site_label_1
_geom_bond_atom_site_label_2
_geom_bond_site_symmetry_1
_geom_bond_site_symmetry_2
S1 O1 1_555 1_555
O2 S1 1_555 1_555
O3 C7 1_555 1_555
O4 C10 1_555 1_555
O5 C12 1_555 1_555
N1 S1 1_555 1_555
H1 N1 1_555 1_555
H2 N1 1_555 1_555
N2 H3 1_555 1_555
N3 N2 1_555 1_555
C1 S1 1_555 1_555
C2 C1 1_555 1_555
H4 C2 1_555 1_555
C3 C2 1_555 1_555
H5 C3 1_555 1_555
C4 C3 1_555 1_555
H6 C4 1_555 1_555
C5 C4 1_555 1_555
H7 C5 1_555 1_555
C6 C1 1_555 1_555
C7 N2 1_555 1_555
C8 N3 1_555 1_555
H8 C8 1_555 1_555
C9 C8 1_555 1_555
C10 C9 1_555 1_555
C11 C10 1_555 1_555
H9 C11 1_555 1_555
C12 C11 1_555 1_555
C13 C12 1_555 1_555
H10 C13 1_555 1_555
C14 C9 1_555 1_555
H11 C14 1_555 1_555
C15 O4 1_555 1_555
H12 C15 1_555 1_555
H13 C15 1_555 1_555
H14 C15 1_555 1_555
C16 O5 1_555 1_555
H15 C16 1_555 1_555
H16 C16 1_555 1_555
H17 C16 1_555 1_555
C5 C6 1_555 1_555
C6 C7 1_555 1_555
C13 C14 1_555 1_555

#END
