
#######################################################################
#
#                 Cambridge Crystallographic Data Centre
#                                CCDC 
#
#######################################################################
#
# If this CIF has been generated from an entry in the Cambridge 
# Structural Database, then it will include bibliographic, chemical, 
# crystal, experimental, refinement or atomic coordinate data resulting 
# from the CCDC's data processing and validation procedures.
#
#######################################################################

data_KAGTER
_chemical_formula_moiety         'C24 H20 O4'
_chemical_name_systematic        
1,4-Dimethoxy-5-phenyl-3-(phenylethynyl)-3-hydroxybicyclo(2.2.2)octa-5,7-dien-2-one
_symmetry_cell_setting           monoclinic
_symmetry_space_group_name_H-M   'P 21/n'
_symmetry_Int_Tables_number      14
_space_group_name_Hall           '-P 2yn'
loop_
_symmetry_equiv_pos_site_id
_symmetry_equiv_pos_as_xyz
1 x,y,z
2 1/2-x,1/2+y,1/2-z
3 -x,-y,-z
4 1/2+x,1/2-y,1/2+z
_cell_length_a                   10.5679(17)
_cell_length_b                   17.9936(29)
_cell_length_c                   11.0308(16)
_cell_angle_alpha                90
_cell_angle_beta                 112.233(12)
_cell_angle_gamma                90
_cell_volume                     1941.61
_exptl_crystal_colour            colorless
_chemical_melting_point          141-142deg.C
_cell_formula_units_Z            4
loop_
_atom_site_label
_atom_site_type_symbol
_atom_site_fract_x
_atom_site_fract_y
_atom_site_fract_z
C1 C 0.80385(19) 0.09352(10) 0.85776(17)
C2 C 0.86812(18) 0.09736(9) 0.77533(16)
C3 C 0.87345(18) 0.02182(9) 0.71093(17)
C4 C 0.92033(22) -0.03733(10) 0.81761(20)
C5 C 0.85312(23) -0.03974(11) 0.89617(20)
C6 C 0.74454(20) 0.01899(10) 0.87108(18)
C7 C 0.64888(19) -0.00070(9) 0.72960(17)
C8 C 0.72163(17) 0.00229(9) 0.63029(16)
C9 C 0.70410(18) -0.06909(9) 0.56071(16)
C10 C 0.67247(18) -0.12202(9) 0.49039(17)
C11 C 0.62719(19) -0.18360(9) 0.40055(16)
C12 C 0.48896(20) -0.20177(10) 0.34748(19)
C13 C 0.44254(24) -0.25859(11) 0.25694(20)
C14 C 0.53251(25) -0.29776(11) 0.21782(20)
C15 C 0.66949(26) -0.28063(12) 0.27091(23)
C16 C 0.71804(24) -0.22402(12) 0.36232(22)
C17 C 0.91362(18) 0.16914(9) 0.74081(18)
C18 C 0.97834(21) 0.22048(11) 0.84023(22)
C19 C 1.00342(26) 0.29207(12) 0.80955(25)
C20 C 0.96527(27) 0.31384(12) 0.68144(26)
C21 C 0.90529(27) 0.26330(12) 0.58238(25)
C22 C 0.88034(23) 0.19096(12) 0.61164(21)
C23 C 1.08896(24) 0.03113(18) 0.68694(33)
C24 C 0.58575(45) 0.07230(17) 0.95474(45)
O1 O 0.94397(13) 0.02166(7) 0.62581(13)
O2 O 0.66114(13) 0.06100(6) 0.54122(12)
O3 O 0.52960(13) -0.01579(7) 0.69868(12)
O4 O 0.68157(16) 0.01397(8) 0.96219(13)
loop_
_geom_bond_atom_site_label_1
_geom_bond_atom_site_label_2
_geom_bond_site_symmetry_1
_geom_bond_site_symmetry_2
C1 C2 1_555 1_555
C2 C3 1_555 1_555
C3 C4 1_555 1_555
C4 C5 1_555 1_555
C5 C6 1_555 1_555
C6 C1 1_555 1_555
C7 C6 1_555 1_555
C8 C3 1_555 1_555
C9 C8 1_555 1_555
C10 C9 1_555 1_555
C11 C10 1_555 1_555
C12 C11 1_555 1_555
C13 C12 1_555 1_555
C14 C13 1_555 1_555
C15 C14 1_555 1_555
C16 C11 1_555 1_555
C17 C2 1_555 1_555
C18 C17 1_555 1_555
C19 C18 1_555 1_555
C20 C19 1_555 1_555
C21 C20 1_555 1_555
C22 C17 1_555 1_555
C23 O1 1_555 1_555
C24 O4 1_555 1_555
O1 C3 1_555 1_555
O2 C8 1_555 1_555
O3 C7 1_555 1_555
O4 C6 1_555 1_555
C7 C8 1_555 1_555
C15 C16 1_555 1_555
C21 C22 1_555 1_555

#END
