
#######################################################################
#
#                 Cambridge Crystallographic Data Centre
#                                CCDC 
#
#######################################################################
#
# If this CIF has been generated from an entry in the Cambridge 
# Structural Database, then it will include bibliographic, chemical, 
# crystal, experimental, refinement or atomic coordinate data resulting 
# from the CCDC's data processing and validation procedures.
#
#######################################################################

data_KAGTES
_chemical_formula_moiety         'C17 H18 N4 O2 S1,0.5(C4 H8 O2)'
_chemical_name_systematic        
'1,5-bis(4-Methoxybenzylidene)thiocarbonohydrazide 1,4-dioxane solvate'
_chemical_properties_biological  
'strong inhibitory effect on and causes death of human leukemia (HL-60) and human liver (BEL-7402) cancer cells'
_symmetry_cell_setting           monoclinic
_symmetry_space_group_name_H-M   'P 21/c'
_symmetry_Int_Tables_number      14
_space_group_name_Hall           '-P 2ybc'
loop_
_symmetry_equiv_pos_site_id
_symmetry_equiv_pos_as_xyz
1 x,y,z
2 x,1/2-y,1/2+z
3 -x,-y,-z
4 -x,1/2+y,1/2-z
_cell_length_a                   14.363(3)
_cell_length_b                   12.622(2)
_cell_length_c                   10.970(2)
_cell_angle_alpha                90
_cell_angle_beta                 101.730(10)
_cell_angle_gamma                90
_cell_volume                     1947.22
_exptl_crystal_colour            colorless
_chemical_melting_point          201-203deg.C
_cell_formula_units_Z            4
_exptl_crystal_recrystallization_method ethanol/dioxane
loop_
_atom_site_label
_atom_site_type_symbol
_atom_site_fract_x
_atom_site_fract_y
_atom_site_fract_z
S1 S 0.61772(7) 0.89022(8) 0.07506(8)
O1 O 0.29217(17) 0.9115(2) -0.8567(2)
O2 O 1.15837(18) 0.6052(2) 0.1038(3)
N1 N 0.49925(18) 0.8885(2) -0.2799(2)
N2 N 0.52009(18) 0.9099(2) -0.1538(2)
H1 H 0.4842 0.9524 -0.1229
N3 N 0.64787(18) 0.8017(2) -0.1357(2)
H2 H 0.6291 0.7860 -0.2131
N4 N 0.73234(19) 0.7616(2) -0.0689(2)
C1 C 0.3272(3) 0.8355(4) -0.9320(3)
H3 H 0.3935 0.8483 -0.9292
H4 H 0.2926 0.8413 -1.0163
H5 H 0.3191 0.7656 -0.9012
C2 C 0.3314(2) 0.9138(3) -0.7330(3)
C3 C 0.4048(2) 0.8496(3) -0.6743(3)
H6 H 0.4308 0.7994 -0.7196
C4 C 0.4393(2) 0.8605(3) -0.5481(3)
H7 H 0.4897 0.8181 -0.5095
C5 C 0.4005(2) 0.9339(3) -0.4767(3)
C6 C 0.3271(2) 0.9978(3) -0.5382(3)
H8 H 0.3006 1.0477 -0.4931
C7 C 0.2928(2) 0.9890(3) -0.6642(3)
H9 H 0.2440 1.0330 -0.7035
C8 C 0.4340(2) 0.9457(3) -0.3443(3)
H10 H 0.4064 0.9980 -0.3034
C9 C 0.5954(2) 0.8654(3) -0.0787(3)
C10 C 0.7883(2) 0.7188(3) -0.1320(3)
H11 H 0.7697 0.7118 -0.2179
C11 C 0.8812(2) 0.6813(3) -0.0684(3)
C12 C 0.9069(2) 0.6780(3) 0.0601(3)
H12 H 0.8616 0.6937 0.1070
C13 C 0.9979(3) 0.6521(3) 0.1208(3)
H13 H 1.0132 0.6503 0.2073
C14 C 1.0661(3) 0.6289(3) 0.0526(3)
C15 C 1.0409(3) 0.6281(3) -0.0756(3)
H14 H 1.0859 0.6102 -0.1222
C16 C 0.9500(3) 0.6536(3) -0.1352(3)
H15 H 0.9342 0.6522 -0.2217
C17 C 1.1872(3) 0.6066(4) 0.2334(4)
H16 H 1.1800 0.6769 0.2637
H17 H 1.2527 0.5857 0.2562
H18 H 1.1488 0.5583 0.2694
O3 O 0.9665(2) 0.5470(3) -0.4043(3)
C18 C 0.9056(3) 0.5275(4) -0.5174(4)
H19 H 0.9030 0.5891 -0.5709
H20 H 0.8420 0.5136 -0.5042
C19 C 1.0597(4) 0.5644(5) -0.4230(6)
H21 H 1.0603 0.6265 -0.4751
H22 H 1.1019 0.5779 -0.3435
C19B C 0.9403(4) 0.4356(5) -0.5770(6)
O3B O 1.0335(2) 0.4530(3) -0.5957(3)
C18B C 1.0944(3) 0.4725(4) -0.4826(4)
H19B H 1.0970 0.4109 -0.4291
H20B H 1.1580 0.4864 -0.4958
H21B H 0.9397 0.3735 -0.5249
H22B H 0.8981 0.4221 -0.6565
loop_
_geom_bond_atom_site_label_1
_geom_bond_atom_site_label_2
_geom_bond_site_symmetry_1
_geom_bond_site_symmetry_2
S1 C9 1_555 1_555
O1 C1 1_555 1_555
O2 C14 1_555 1_555
N1 N2 1_555 1_555
N2 H1 1_555 1_555
N3 H2 1_555 1_555
N4 N3 1_555 1_555
C1 H3 1_555 1_555
H4 C1 1_555 1_555
H5 C1 1_555 1_555
C2 O1 1_555 1_555
C3 C2 1_555 1_555
H6 C3 1_555 1_555
C4 C3 1_555 1_555
H7 C4 1_555 1_555
C5 C4 1_555 1_555
C6 C5 1_555 1_555
H8 C6 1_555 1_555
C7 C2 1_555 1_555
H9 C7 1_555 1_555
C8 N1 1_555 1_555
H10 C8 1_555 1_555
C9 N2 1_555 1_555
C10 N4 1_555 1_555
H11 C10 1_555 1_555
C11 C10 1_555 1_555
C12 C11 1_555 1_555
H12 C12 1_555 1_555
C13 C12 1_555 1_555
H13 C13 1_555 1_555
C14 C13 1_555 1_555
C15 C14 1_555 1_555
H14 C15 1_555 1_555
C16 C11 1_555 1_555
H15 C16 1_555 1_555
C17 O2 1_555 1_555
H16 C17 1_555 1_555
H17 C17 1_555 1_555
H18 C17 1_555 1_555
O3 C18 1_555 1_555
C18 H19 1_555 1_555
H20 C18 1_555 1_555
C19 O3 1_555 1_555
H21 C19 1_555 1_555
H22 C19 1_555 1_555
C19B C18 1_555 1_555
O3B C19B 1_555 1_555
C18B C19 1_555 1_555
H19B C18B 1_555 1_555
H20B C18B 1_555 1_555
H21B C19B 1_555 1_555
H22B C19B 1_555 1_555
N3 C9 1_555 1_555
C5 C8 1_555 1_555
C6 C7 1_555 1_555
C15 C16 1_555 1_555
O3B C18B 1_555 1_555

#END
