
#######################################################################
#
#                 Cambridge Crystallographic Data Centre
#                                CCDC 
#
#######################################################################
#
# If this CIF has been generated from an entry in the Cambridge 
# Structural Database, then it will include bibliographic, chemical, 
# crystal, experimental, refinement or atomic coordinate data resulting 
# from the CCDC's data processing and validation procedures.
#
#######################################################################

data_KAGVEW
_chemical_formula_moiety         'C30 H38 Ca2 N4 O14 S2 2+,C10 H6 O6 S2 2-'
_chemical_name_systematic        
"(\m-naphthalene-1,5-disulfonato)-octaaqua-bis(2,2'-bipyridine)-di-calcium naphthalene-1,5-disulfonate"
_symmetry_cell_setting           triclinic
_symmetry_space_group_name_H-M   'P -1'
_symmetry_Int_Tables_number      2
_space_group_name_Hall           '-P 1'
loop_
_symmetry_equiv_pos_site_id
_symmetry_equiv_pos_as_xyz
1 x,y,z
2 -x,-y,-z
_cell_length_a                   7.123(5)
_cell_length_b                   13.476(8)
_cell_length_c                   13.476(8)
_cell_angle_alpha                113.79
_cell_angle_beta                 93.078(7)
_cell_angle_gamma                93.078(7)
_cell_volume                     1177.91
_exptl_crystal_colour            colorless
_exptl_crystal_description       block
_cell_formula_units_Z            1
loop_
_atom_site_label
_atom_site_type_symbol
_atom_site_fract_x
_atom_site_fract_y
_atom_site_fract_z
C1 C 0.7357(15) 0.8736(8) 0.5117(10)
H1 H 0.823(15) 0.826(8) 0.504(10)
C2 C 0.6355(12) 0.8980(7) 0.6038(9)
H2 H 0.672(14) 0.866(7) 0.651(10)
C3 C 0.4978(11) 0.9678(6) 0.6215(8)
C4 C 0.4497(10) 1.0132(5) 0.5476(7)
C5 C 0.3033(14) 1.0841(7) 0.5642(9)
H3 H 0.255(17) 1.105(9) 0.620(12)
O1 O 0.4708(8) 0.9400(5) 0.8005(6)
O2 O 0.3918(11) 1.1104(5) 0.8003(6)
O3 O 0.1830(9) 0.9484(6) 0.7049(7)
S1 S 0.3744(3) 0.99361(15) 0.7410(2)
C1A C 0.2643(15) 1.1264(8) 0.4883(10)
H1A H 0.177(15) 1.174(8) 0.496(10)
C2A C 0.3645(12) 1.1020(7) 0.3962(9)
H2A H 0.328(14) 1.134(7) 0.349(10)
C3A C 0.5022(11) 1.0322(6) 0.3785(8)
C4A C 0.5503(10) 0.9868(5) 0.4524(7)
C5A C 0.6967(14) 0.9159(7) 0.4358(9)
H3A H 0.745(17) 0.895(9) 0.380(12)
O1A O 0.5292(8) 1.0600(5) 0.1995(6)
O2A O 0.6082(11) 0.8896(5) 0.1997(6)
O3A O 0.8170(9) 1.0516(6) 0.2951(7)
S1A S 0.6256(3) 1.00639(15) 0.2590(2)
C6 C -0.1077(11) 0.3647(6) 0.3998(7)
H4 H -0.100(12) 0.296(7) 0.325(8)
C7 C -0.2725(11) 0.3540(6) 0.4429(8)
H5 H -0.372(14) 0.290(8) 0.395(10)
C8 C -0.3163(12) 0.4361(6) 0.5394(8)
H6 H -0.425(14) 0.431(7) 0.556(9)
C9 C -0.1946(10) 0.5267(5) 0.5936(7)
C10 C -0.0225(10) 0.5414(5) 0.5491(8)
C11 C 0.2193(13) 0.5110(7) 0.8307(10)
H7 H 0.211(15) 0.531(8) 0.770(11)
C12 C 0.2693(13) 0.4096(7) 0.8160(11)
H8 H 0.263(15) 0.354(8) 0.720(11)
C13 C 0.2946(13) 0.3872(7) 0.9044(13)
H9 H 0.337(19) 0.341(10) 0.892(13)
C14 C 0.2699(13) 0.4642(8) 1.0068(13)
H10 H 0.292(19) 0.453(10) 1.053(12)
C15 C 0.2250(10) 0.5671(6) 1.0156(9)
C16 C 0.2003(10) 0.6551(6) 1.1237(8)
C17 C 0.2406(14) 0.6484(8) 1.2202(10)
H11 H 0.291(16) 0.589(9) 1.224(10)
C18 C 0.2146(19) 0.7337(9) 1.3168(11)
H12 H 0.233(18) 0.734(9) 1.404(13)
C19 C 0.1420(16) 0.8250(9) 1.3130(10)
H13 H 0.109(17) 0.878(9) 1.379(12)
C20 C 0.1104(13) 0.8283(7) 1.2148(9)
H14 H 0.058(15) 0.883(8) 1.205(10)
Ca1 Ca 0.0899(2) 0.77083(10) 0.94440(14)
N1 N 0.1999(9) 0.5900(5) 0.9302(7)
N2 N 0.1364(10) 0.7468(5) 1.1190(7)
O4 O -0.2117(11) 0.8252(7) 1.0058(7)
H15 H -0.33(2) 0.799(11) 0.963(14)
H16 H -0.24(2) 0.855(13) 1.063(15)
O5 O -0.0072(8) 0.8746(4) 0.8355(5)
H17 H -0.089(10) 0.839(6) 0.782(5)
H18 H -0.044(12) 0.872(8) 0.894(4)
O6 O -0.1021(8) 0.6384(4) 0.7985(5)
O7 O 0.3756(10) 0.7675(5) 0.8600(7)
H19 H 0.415(19) 0.810(8) 0.822(13)
H20 H 0.424(16) 0.708(5) 0.826(9)
O8 O -0.4299(8) 0.5820(4) 0.7429(6)
O9 O -0.2789(8) 0.7239(4) 0.7017(6)
S2 S -0.2582(2) 0.62498(13) 0.71770(17)
O10 O 0.2190(9) 0.9491(4) 1.0526(7)
H21 H 0.137(15) 0.996(9) 1.079(11)
H22 H 0.28(2) 0.944(10) 1.107(6)
C6A C 0.1077(11) 0.6353(6) 0.6002(7)
H4A H 0.100(12) 0.704(7) 0.675(8)
C7A C 0.2725(11) 0.6460(6) 0.5571(8)
H5A H 0.372(14) 0.710(8) 0.605(10)
C8A C 0.3163(12) 0.5639(6) 0.4606(8)
H6A H 0.425(14) 0.569(7) 0.444(9)
C9A C 0.1946(10) 0.4733(5) 0.4064(7)
C10A C 0.0225(10) 0.4586(5) 0.4509(8)
O6A O 0.1021(8) 0.3616(4) 0.2015(5)
O8A O 0.4299(8) 0.4180(4) 0.2571(6)
O9A O 0.2789(8) 0.2761(4) 0.2983(6)
S2A S 0.2582(2) 0.37502(13) 0.28230(17)
C11A C -0.2193(13) 0.4890(7) 0.1693(10)
H7A H -0.211(15) 0.469(8) 0.230(11)
C12A C -0.2693(13) 0.5904(7) 0.1840(11)
H8A H -0.263(15) 0.646(8) 0.280(11)
C13A C -0.2946(13) 0.6128(7) 0.0956(13)
H9A H -0.337(19) 0.659(10) 0.108(13)
C14A C -0.2699(13) 0.5358(8) -0.0068(13)
H10A H -0.292(19) 0.547(10) -0.053(12)
C15A C -0.2250(10) 0.4329(6) -0.0156(9)
C16A C -0.2003(10) 0.3449(6) -0.1237(8)
C17A C -0.2406(14) 0.3516(8) -0.2202(10)
H11A H -0.291(16) 0.411(9) -0.224(10)
C18A C -0.2146(19) 0.2663(9) -0.3168(11)
H12A H -0.233(18) 0.266(9) -0.404(13)
C19A C -0.1420(16) 0.1750(9) -0.3130(10)
H13A H -0.109(17) 0.122(9) -0.379(12)
C20A C -0.1104(13) 0.1717(7) -0.2148(9)
H14A H -0.058(15) 0.117(8) -0.205(10)
Ca1A Ca -0.0899(2) 0.22917(10) 0.05560(14)
N1A N -0.1999(9) 0.4100(5) 0.0698(7)
N2A N -0.1364(10) 0.2532(5) -0.1190(7)
O4A O 0.2117(11) 0.1748(7) -0.0058(7)
H15A H 0.33(2) 0.201(11) 0.037(14)
H16A H 0.24(2) 0.145(13) -0.063(15)
O5A O 0.0072(8) 0.1254(4) 0.1645(5)
H17A H 0.089(10) 0.161(6) 0.218(5)
H18A H 0.044(12) 0.128(8) 0.106(4)
O7A O -0.3756(10) 0.2325(5) 0.1400(7)
H19A H -0.415(19) 0.190(8) 0.178(13)
H20A H -0.424(16) 0.292(5) 0.174(9)
O10A O -0.2190(9) 0.0509(4) -0.0526(7)
H21A H -0.137(15) 0.004(9) -0.079(11)
H22A H -0.28(2) 0.056(10) -0.107(6)
loop_
_geom_bond_atom_site_label_1
_geom_bond_atom_site_label_2
_geom_bond_site_symmetry_1
_geom_bond_site_symmetry_2
C1 H1 1_555 1_555
C2 C1 1_555 1_555
H2 C2 1_555 1_555
C3 C2 1_555 1_555
C4 C3 1_555 1_555
C5 C4 1_555 1_555
H3 C5 1_555 1_555
O1 S1 1_555 1_555
O2 S1 1_555 1_555
O3 S1 1_555 1_555
S1 C3 1_555 1_555
C6 H4 1_555 1_555
C7 C6 1_555 1_555
H5 C7 1_555 1_555
C8 C7 1_555 1_555
H6 C8 1_555 1_555
C9 C8 1_555 1_555
C10 C9 1_555 1_555
C11 H7 1_555 1_555
C12 C11 1_555 1_555
H8 C12 1_555 1_555
C13 C12 1_555 1_555
H9 C13 1_555 1_555
C14 C13 1_555 1_555
H10 C14 1_555 1_555
C15 C14 1_555 1_555
C16 C15 1_555 1_555
C17 C16 1_555 1_555
H11 C17 1_555 1_555
C18 C17 1_555 1_555
H12 C18 1_555 1_555
C19 C18 1_555 1_555
H13 C19 1_555 1_555
C20 C19 1_555 1_555
H14 C20 1_555 1_555
Ca1 N1 1_555 1_555
N1 C11 1_555 1_555
N2 C16 1_555 1_555
O4 Ca1 1_555 1_555
H15 O4 1_555 1_555
H16 O4 1_555 1_555
O5 Ca1 1_555 1_555
H17 O5 1_555 1_555
H18 O5 1_555 1_555
O6 Ca1 1_555 1_555
O7 Ca1 1_555 1_555
H19 O7 1_555 1_555
H20 O7 1_555 1_555
O8 S2 1_555 1_555
O9 S2 1_555 1_555
S2 C9 1_555 1_555
O10 Ca1 1_555 1_555
H21 O10 1_555 1_555
H22 O10 1_555 1_555
C1A C5 1_555 1_555
H1A C1A 1_555 1_555
C2A C1A 1_555 1_555
H2A C2A 1_555 1_555
C3A C2A 1_555 1_555
C4A C4 1_555 1_555
C5A C1 1_555 1_555
H3A C5A 1_555 1_555
O1A S1A 1_555 1_555
O2A S1A 1_555 1_555
O3A S1A 1_555 1_555
S1A C3A 1_555 1_555
C6A C10 1_555 1_555
H4A C6A 1_555 1_555
C7A C6A 1_555 1_555
H5A C7A 1_555 1_555
C8A C7A 1_555 1_555
H6A C8A 1_555 1_555
C9A C8A 1_555 1_555
C10A C6 1_555 1_555
O6A S2A 1_555 1_555
O8A S2A 1_555 1_555
O9A S2A 1_555 1_555
S2A C9A 1_555 1_555
C11A H7A 1_555 1_555
C12A C11A 1_555 1_555
H8A C12A 1_555 1_555
C13A C12A 1_555 1_555
H9A C13A 1_555 1_555
C14A C13A 1_555 1_555
H10A C14A 1_555 1_555
C15A C14A 1_555 1_555
C16A C15A 1_555 1_555
C17A C16A 1_555 1_555
H11A C17A 1_555 1_555
C18A C17A 1_555 1_555
H12A C18A 1_555 1_555
C19A C18A 1_555 1_555
H13A C19A 1_555 1_555
C20A C19A 1_555 1_555
H14A C20A 1_555 1_555
Ca1A O6A 1_555 1_555
N1A C11A 1_555 1_555
N2A C16A 1_555 1_555
O4A Ca1A 1_555 1_555
H15A O4A 1_555 1_555
H16A O4A 1_555 1_555
O5A Ca1A 1_555 1_555
H17A O5A 1_555 1_555
H18A O5A 1_555 1_555
O7A Ca1A 1_555 1_555
H19A O7A 1_555 1_555
H20A O7A 1_555 1_555
O10A Ca1A 1_555 1_555
H21A O10A 1_555 1_555
H22A O10A 1_555 1_555
C10 C10A 1_555 1_555
C15 N1 1_555 1_555
C20 N2 1_555 1_555
Ca1 N2 1_555 1_555
O6 S2 1_555 1_555
C3A C4A 1_555 1_555
C4A C5A 1_555 1_555
C9A C10A 1_555 1_555
C15A N1A 1_555 1_555
C20A N2A 1_555 1_555
Ca1A N1A 1_555 1_555
Ca1A N2A 1_555 1_555

#END
