
#######################################################################
#
#                 Cambridge Crystallographic Data Centre
#                                CCDC 
#
#######################################################################
#
# If this CIF has been generated from an entry in the Cambridge 
# Structural Database, then it will include bibliographic, chemical, 
# crystal, experimental, refinement or atomic coordinate data resulting 
# from the CCDC's data processing and validation procedures.
#
#######################################################################

data_KAGVAR
_chemical_formula_moiety         'C23 H20 O4'
_chemical_name_systematic        
'Dimethyl 4-phenyl-1,3-dihydro-2H-fluorene-2,2-dicarboxylate'
_symmetry_cell_setting           triclinic
_symmetry_space_group_name_H-M   'P -1'
_symmetry_Int_Tables_number      2
_space_group_name_Hall           '-P 1'
loop_
_symmetry_equiv_pos_site_id
_symmetry_equiv_pos_as_xyz
1 x,y,z
2 -x,-y,-z
_cell_length_a                   9.0854(18)
_cell_length_b                   9.955(2)
_cell_length_c                   11.014(2)
_cell_angle_alpha                80.98(3)
_cell_angle_beta                 80.71(3)
_cell_angle_gamma                67.70(3)
_cell_volume                     904.58
_exptl_crystal_colour            colorless
_exptl_crystal_description       block
_cell_formula_units_Z            2
loop_
_atom_site_label
_atom_site_type_symbol
_atom_site_fract_x
_atom_site_fract_y
_atom_site_fract_z
C1 C 0.7018(5) 0.8901(5) 0.2800(4)
C2 C 0.4970(6) 1.0538(6) 0.1757(5)
H1 H 0.5694 1.0785 0.1107
H2 H 0.4009 1.1378 0.1872
H3 H 0.4712 0.9763 0.1539
C3 C 0.7005(5) 0.7403(5) 0.4772(4)
C4 C 0.6870(6) 0.5897(6) 0.6630(5)
H4 H 0.5739 0.6363 0.6846
H5 H 0.7393 0.5552 0.7370
H6 H 0.7065 0.5087 0.6175
C5 C 0.7708(4) 0.8470(4) 0.4029(4)
C6 C 0.7435(4) 0.9793(4) 0.4779(4)
H7 H 0.6298 1.0304 0.4994
H8 H 0.7938 0.9436 0.5538
C7 C 0.8137(5) 1.0786(5) 0.4006(4)
C8 C 0.7731(6) 1.2265(5) 0.3948(4)
H9 H 0.6898 1.2883 0.4441
C9 C 0.8789(5) 1.2713(4) 0.3010(4)
C10 C 0.8824(6) 1.4096(5) 0.2578(4)
H10 H 0.8101 1.4923 0.2928
C11 C 0.9965(6) 1.4197(6) 0.1618(5)
H11 H 1.0021 1.5103 0.1309
C12 C 1.1011(6) 1.2973(6) 0.1121(4)
H12 H 1.1774 1.3066 0.0475
C13 C 1.0986(5) 1.1601(5) 0.1536(4)
H13 H 1.1710 1.0790 0.1166
C14 C 0.9889(5) 1.1445(4) 0.2497(4)
C15 C 0.9530(5) 1.0176(5) 0.3124(4)
C16 C 1.0178(5) 0.8747(5) 0.3008(4)
C17 C 0.9441(4) 0.7704(4) 0.3727(4)
H14 H 0.9623 0.6911 0.3243
H15 H 0.9939 0.7293 0.4484
C18 C 1.1571(5) 0.8072(4) 0.2148(4)
C19 C 1.2989(5) 0.7779(5) 0.2511(4)
H16 H 1.3082 0.8030 0.3266
C20 C 1.4310(5) 0.7093(5) 0.1738(5)
H17 H 1.5319 0.6863 0.1981
C21 C 1.4193(6) 0.6723(5) 0.0582(5)
H18 H 1.5121 0.6266 0.0076
C22 C 1.2797(7) 0.7015(6) 0.0212(5)
H19 H 1.2700 0.6790 -0.0552
C23 C 1.1516(6) 0.7657(6) 0.0996(5)
H20 H 1.0512 0.7843 0.0762
O1 O 0.7545(4) 0.8290(4) 0.1864(3)
O2 O 0.5720(3) 1.0066(3) 0.2896(3)
O3 O 0.6043(4) 0.7089(4) 0.4408(3)
O4 O 0.7491(4) 0.6933(3) 0.5876(3)
loop_
_geom_bond_atom_site_label_1
_geom_bond_atom_site_label_2
_geom_bond_site_symmetry_1
_geom_bond_site_symmetry_2
C1 C5 1_555 1_555
C2 H1 1_555 1_555
H2 C2 1_555 1_555
H3 C2 1_555 1_555
C3 C5 1_555 1_555
C4 H4 1_555 1_555
H5 C4 1_555 1_555
H6 C4 1_555 1_555
C5 C6 1_555 1_555
C6 H7 1_555 1_555
H8 C6 1_555 1_555
C7 C6 1_555 1_555
C8 C7 1_555 1_555
H9 C8 1_555 1_555
C9 C8 1_555 1_555
C10 C9 1_555 1_555
H10 C10 1_555 1_555
C11 C10 1_555 1_555
H11 C11 1_555 1_555
C12 C11 1_555 1_555
H12 C12 1_555 1_555
C13 C12 1_555 1_555
H13 C13 1_555 1_555
C14 C9 1_555 1_555
C15 C7 1_555 1_555
C16 C15 1_555 1_555
C17 C5 1_555 1_555
H14 C17 1_555 1_555
H15 C17 1_555 1_555
C18 C16 1_555 1_555
C19 C18 1_555 1_555
H16 C19 1_555 1_555
C20 C19 1_555 1_555
H17 C20 1_555 1_555
C21 C20 1_555 1_555
H18 C21 1_555 1_555
C22 C21 1_555 1_555
H19 C22 1_555 1_555
C23 C18 1_555 1_555
H20 C23 1_555 1_555
O1 C1 1_555 1_555
O2 C1 1_555 1_555
O3 C3 1_555 1_555
O4 C3 1_555 1_555
C2 O2 1_555 1_555
C4 O4 1_555 1_555
C13 C14 1_555 1_555
C14 C15 1_555 1_555
C16 C17 1_555 1_555
C22 C23 1_555 1_555

#END
