
#######################################################################
#
#                 Cambridge Crystallographic Data Centre
#                                CCDC 
#
#######################################################################
#
# If this CIF has been generated from an entry in the Cambridge 
# Structural Database, then it will include bibliographic, chemical, 
# crystal, experimental, refinement or atomic coordinate data resulting 
# from the CCDC's data processing and validation procedures.
#
#######################################################################

data_KAGYAV
_chemical_name_common            
"N,N,N',N'-tetramethyl-3-dimethylamino-2-bromo-4-trimethylsilyloxypent-2-ene-amidinium bromide"
_chemical_formula_moiety         'C15 H33 Br1 N3 O1 Si1 1+,Br1 1-'
_chemical_name_systematic        
'2-bromo-1,3-bis(dimethylamino)-N,N,4-trimethyl-4-((trimethylsilyl)oxy)pent-2-en-1-iminium bromide'
_symmetry_cell_setting           orthorhombic
_symmetry_space_group_name_H-M   'P b c a'
_symmetry_Int_Tables_number      61
_space_group_name_Hall           '-P 2ac 2ab'
loop_
_symmetry_equiv_pos_site_id
_symmetry_equiv_pos_as_xyz
1 x,y,z
2 1/2-x,-y,1/2+z
3 1/2+x,1/2-y,-z
4 -x,1/2+y,1/2-z
5 -x,-y,-z
6 1/2+x,y,1/2-z
7 1/2-x,1/2+y,z
8 x,1/2-y,1/2+z
_cell_length_a                   13.3524(5)
_cell_length_b                   11.3802(3)
_cell_length_c                   27.4261(14)
_cell_angle_alpha                90
_cell_angle_beta                 90
_cell_angle_gamma                90
_cell_volume                     4167.48
_exptl_crystal_colour            yellow
_exptl_crystal_description       block
_cell_formula_units_Z            8
_exptl_crystal_recrystallization_method acetonitrile
loop_
_atom_site_label
_atom_site_type_symbol
_atom_site_fract_x
_atom_site_fract_y
_atom_site_fract_z
Br1 Br 0.54519(4) 0.73694(4) 0.13843(2)
Br2 Br 0.45103(4) 0.23306(5) 0.24383(2)
N1 N 0.5406(3) 0.3518(3) 0.13946(16)
C1 C 0.4511(4) 0.4276(4) 0.1374(2)
H1 H 0.3938 0.3816 0.1258
H2 H 0.4633 0.4930 0.1149
H3 H 0.4367 0.4585 0.1700
C2 C 0.6368(4) 0.4157(5) 0.1374(2)
H4 H 0.6879 0.3714 0.1553
H5 H 0.6287 0.4935 0.1521
H6 H 0.6576 0.4244 0.1033
N2 N 0.6052(3) 0.1612(4) 0.14393(15)
C3 C 0.6869(4) 0.1740(5) 0.1081(2)
H7 H 0.6711 0.2385 0.0857
H8 H 0.6942 0.1008 0.0896
H9 H 0.7496 0.1914 0.1252
C4 C 0.6060(4) 0.0462(5) 0.1683(2)
H10 H 0.5545 0.0448 0.1938
H11 H 0.6719 0.0328 0.1831
H12 H 0.5922 -0.0157 0.1444
C5 C 0.5318(3) 0.2392(4) 0.15005(16)
C6 C 0.4400(4) 0.1967(4) 0.17545(17)
C7 C 0.3621(3) 0.1384(4) 0.15758(18)
N3 N 0.2856(3) 0.0847(4) 0.18667(15)
C8 C 0.2094(4) 0.1616(5) 0.2075(2)
H13 H 0.2364 0.2005 0.2365
H14 H 0.1506 0.1149 0.2166
H15 H 0.1900 0.2209 0.1834
C9 C 0.3192(4) -0.0079(5) 0.2199(2)
H16 H 0.3710 -0.0551 0.2039
H17 H 0.2623 -0.0583 0.2284
H18 H 0.3466 0.0277 0.2496
C10 C 0.3455(4) 0.1153(4) 0.10276(18)
C11 C 0.3601(4) -0.0161(4) 0.09338(19)
H19 H 0.3426 -0.0341 0.0595
H20 H 0.3168 -0.0612 0.1154
H21 H 0.4302 -0.0372 0.0993
C12 C 0.2409(3) 0.1539(4) 0.08853(18)
H22 H 0.2334 0.2383 0.0947
H23 H 0.1916 0.1103 0.1078
H24 H 0.2301 0.1381 0.0538
O1 O 0.4196(2) 0.1804(3) 0.07547(12)
Si1 Si 0.41809(10) 0.21877(12) 0.01674(5)
C13 C 0.3405(4) 0.3517(5) 0.0054(2)
H25 H 0.2698 0.3332 0.0113
H26 H 0.3491 0.3772 -0.0285
H27 H 0.3616 0.4149 0.0274
C14 C 0.3757(4) 0.0988(5) -0.02454(19)
H28 H 0.4182 0.0295 -0.0198
H29 H 0.3804 0.1251 -0.0585
H30 H 0.3060 0.0785 -0.0170
C15 C 0.5486(4) 0.2599(5) 0.00131(18)
H31 H 0.5687 0.3283 0.0207
H32 H 0.5529 0.2791 -0.0335
H33 H 0.5934 0.1939 0.0086
loop_
_geom_bond_atom_site_label_1
_geom_bond_atom_site_label_2
_geom_bond_site_symmetry_1
_geom_bond_site_symmetry_2
Br2 C6 1_555 1_555
N1 C1 1_555 1_555
C1 H1 1_555 1_555
H2 C1 1_555 1_555
H3 C1 1_555 1_555
C2 N1 1_555 1_555
H4 C2 1_555 1_555
H5 C2 1_555 1_555
H6 C2 1_555 1_555
N2 C3 1_555 1_555
C3 H7 1_555 1_555
H8 C3 1_555 1_555
H9 C3 1_555 1_555
C4 N2 1_555 1_555
H10 C4 1_555 1_555
H11 C4 1_555 1_555
H12 C4 1_555 1_555
C5 N1 1_555 1_555
C6 C5 1_555 1_555
C7 C6 1_555 1_555
N3 C7 1_555 1_555
C8 N3 1_555 1_555
H13 C8 1_555 1_555
H14 C8 1_555 1_555
H15 C8 1_555 1_555
C9 N3 1_555 1_555
H16 C9 1_555 1_555
H17 C9 1_555 1_555
H18 C9 1_555 1_555
C10 C7 1_555 1_555
C11 C10 1_555 1_555
H19 C11 1_555 1_555
H20 C11 1_555 1_555
H21 C11 1_555 1_555
C12 C10 1_555 1_555
H22 C12 1_555 1_555
H23 C12 1_555 1_555
H24 C12 1_555 1_555
O1 C10 1_555 1_555
Si1 O1 1_555 1_555
C13 Si1 1_555 1_555
H25 C13 1_555 1_555
H26 C13 1_555 1_555
H27 C13 1_555 1_555
C14 Si1 1_555 1_555
H28 C14 1_555 1_555
H29 C14 1_555 1_555
H30 C14 1_555 1_555
C15 Si1 1_555 1_555
H31 C15 1_555 1_555
H32 C15 1_555 1_555
H33 C15 1_555 1_555
N2 C5 1_555 1_555

#END
