
#######################################################################
#
#                 Cambridge Crystallographic Data Centre
#                                CCDC 
#
#######################################################################
#
# If this CIF has been generated from an entry in the Cambridge 
# Structural Database, then it will include bibliographic, chemical, 
# crystal, experimental, refinement or atomic coordinate data resulting 
# from the CCDC's data processing and validation procedures.
#
#######################################################################

data_KAHBOM
_chemical_formula_moiety         'C18 H16 N2 O5'
_chemical_name_systematic        
'4-((2,5-Dioxoimidazolidin-4-yl)methyl)phenyl 2-methoxybenzoate'
_symmetry_cell_setting           monoclinic
_symmetry_space_group_name_H-M   'P 21'
_symmetry_Int_Tables_number      4
_space_group_name_Hall           'P 2yb'
loop_
_symmetry_equiv_pos_site_id
_symmetry_equiv_pos_as_xyz
1 x,y,z
2 -x,1/2+y,-z
_cell_length_a                   8.6071(17)
_cell_length_b                   11.167(2)
_cell_length_c                   9.3826(19)
_cell_angle_alpha                90
_cell_angle_beta                 115.10(3)
_cell_angle_gamma                90
_cell_volume                     816.654
_exptl_crystal_colour            colorless
_exptl_crystal_description       block
_cell_formula_units_Z            2
loop_
_atom_site_label
_atom_site_type_symbol
_atom_site_fract_x
_atom_site_fract_y
_atom_site_fract_z
O1 O 0.27677(14) 0.66972(10) 0.84300(13)
O2 O 0.34063(16) 0.89031(11) 0.97089(13)
O3 O 0.14128(15) 1.01743(11) 0.81104(12)
O4 O 0.5379(2) 1.05481(12) 1.76101(15)
O5 O 0.50804(17) 1.45210(10) 1.63781(14)
N1 N 0.44264(19) 1.15257(12) 1.52242(15)
H1 H 0.4057 1.0907 1.4588
N2 N 0.53422(19) 1.26244(12) 1.73916(15)
H2 H 0.5701 1.2812 1.8392
C1 C 0.1434(2) 0.90698(16) 0.55015(17)
H3 H 0.1276 0.9913 0.5459
C2 C 0.1105(2) 0.84391(17) 0.41261(18)
H4 H 0.0735 0.8847 0.3149
C3 C 0.1321(2) 0.72111(17) 0.41968(19)
H5 H 0.1080 0.6777 0.3256
C4 C 0.1883(2) 0.65995(17) 0.5615(2)
H6 H 0.2028 0.5755 0.5639
C5 C 0.22359(18) 0.72248(14) 0.70055(18)
C6 C 0.19957(18) 0.84773(14) 0.69452(17)
C7 C 0.3050(2) 0.54258(15) 0.8532(2)
H7 H 0.3423 0.5166 0.9625
H8 H 0.3939 0.5229 0.8176
H9 H 0.1982 0.5015 0.7863
C8 C 0.23813(19) 0.91639(14) 0.84073(17)
C9 C 0.1701(2) 1.09111(14) 0.94224(17)
C10 C 0.0812(2) 1.06943(18) 1.0311(2)
H10 H 0.0021 1.0049 1.0062
C11 C 0.1093(2) 1.14407(18) 1.1585(2)
H11 H 0.0495 1.1293 1.2217
C12 C 0.22238(18) 1.23928(15) 1.19508(17)
C13 C 0.3075(2) 1.26037(15) 1.10001(18)
H12 H 0.3841 1.3262 1.1221
C14 C 0.2816(2) 1.18625(16) 0.97373(19)
H13 H 0.3401 1.2009 0.9094
C15 C 0.2647(2) 1.31317(15) 1.34201(18)
H14 H 0.1754 1.3014 1.3809
H15 H 0.2675 1.3992 1.3176
C16 C 0.43966(19) 1.27480(13) 1.46866(16)
H16 H 0.5280 1.2838 1.4265
C17 C 0.5085(2) 1.14419(14) 1.68128(19)
C18 C 0.49684(19) 1.34411(14) 1.62172(17)
loop_
_geom_bond_atom_site_label_1
_geom_bond_atom_site_label_2
_geom_bond_site_symmetry_1
_geom_bond_site_symmetry_2
O1 C5 1_555 1_555
O2 C8 1_555 1_555
O3 C8 1_555 1_555
O4 C17 1_555 1_555
O5 C18 1_555 1_555
N1 H1 1_555 1_555
N2 H2 1_555 1_555
C1 H3 1_555 1_555
C2 C1 1_555 1_555
H4 C2 1_555 1_555
C3 C2 1_555 1_555
H5 C3 1_555 1_555
C4 C3 1_555 1_555
H6 C4 1_555 1_555
C5 C4 1_555 1_555
C6 C1 1_555 1_555
C7 O1 1_555 1_555
H7 C7 1_555 1_555
H8 C7 1_555 1_555
H9 C7 1_555 1_555
C8 C6 1_555 1_555
C9 O3 1_555 1_555
C10 C9 1_555 1_555
H10 C10 1_555 1_555
C11 C10 1_555 1_555
H11 C11 1_555 1_555
C12 C11 1_555 1_555
C13 C12 1_555 1_555
H12 C13 1_555 1_555
C14 C9 1_555 1_555
H13 C14 1_555 1_555
C15 C12 1_555 1_555
H14 C15 1_555 1_555
H15 C15 1_555 1_555
C16 N1 1_555 1_555
H16 C16 1_555 1_555
C17 N1 1_555 1_555
C18 N2 1_555 1_555
N2 C17 1_555 1_555
C5 C6 1_555 1_555
C13 C14 1_555 1_555
C15 C16 1_555 1_555
C16 C18 1_555 1_555

#END
