
#######################################################################
#
#                 Cambridge Crystallographic Data Centre
#                                CCDC 
#
#######################################################################
#
# If this CIF has been generated from an entry in the Cambridge 
# Structural Database, then it will include bibliographic, chemical, 
# crystal, experimental, refinement or atomic coordinate data resulting 
# from the CCDC's data processing and validation procedures.
#
#######################################################################

data_KAHCII
_chemical_formula_moiety         'C24 H38 N4 2+,2(C24 H20 B1 1-)'
_chemical_name_systematic        
"N''-Benzyl-N''-(3-(benzyldimethylazaniumyl)propyl)-N,N,N',N'-tetramethylguanidinium bis(tetraphenylborate)"
_symmetry_cell_setting           monoclinic
_symmetry_space_group_name_H-M   'P 21/c'
_symmetry_Int_Tables_number      14
_space_group_name_Hall           '-P 2ybc'
loop_
_symmetry_equiv_pos_site_id
_symmetry_equiv_pos_as_xyz
1 x,y,z
2 -x,1/2+y,1/2-z
3 -x,-y,-z
4 x,1/2-y,1/2+z
_cell_length_a                   20.3677(9)
_cell_length_b                   12.1101(5)
_cell_length_c                   25.5580(12)
_cell_angle_alpha                90
_cell_angle_beta                 112.507(2)
_cell_angle_gamma                90
_cell_volume                     5823.85
_exptl_crystal_colour            colorless
_exptl_crystal_description       block
_cell_formula_units_Z            4
_exptl_crystal_recrystallization_method acetonitrile
loop_
_atom_site_label
_atom_site_type_symbol
_atom_site_fract_x
_atom_site_fract_y
_atom_site_fract_z
N1 N 0.42988(5) 0.26256(7) 0.07644(4)
N2 N 0.35454(5) 0.13022(7) 0.08976(4)
N3 N 0.30742(4) 0.29028(7) 0.03943(3)
N4 N 0.17834(4) 0.31337(7) -0.17076(3)
C1 C 0.36450(5) 0.22714(8) 0.06888(4)
C2 C 0.44809(6) 0.38008(9) 0.08200(4)
H1 H 0.4547 0.4054 0.0479
H2 H 0.4922 0.3913 0.1152
H3 H 0.4096 0.4222 0.0867
C3 C 0.48710(6) 0.18814(10) 0.07763(5)
H4 H 0.5228 0.1835 0.1163
H5 H 0.5093 0.2166 0.0524
H6 H 0.4675 0.1145 0.0649
C4 C 0.29137(6) 0.06255(9) 0.06026(5)
H7 H 0.2597 0.0651 0.0810
H8 H 0.3058 -0.0140 0.0582
H9 H 0.2664 0.0913 0.0219
C5 C 0.40727(6) 0.08275(10) 0.14151(5)
H10 H 0.4338 0.0245 0.1315
H11 H 0.3831 0.0514 0.1647
H12 H 0.4402 0.1406 0.1630
C6 C 0.24849(5) 0.30775(9) 0.05902(4)
H13 H 0.2600 0.2719 0.0963
H14 H 0.2044 0.2740 0.0318
C7 C 0.23730(5) 0.43013(9) 0.06391(4)
C8 C 0.17815(6) 0.48332(10) 0.02458(5)
H15 H 0.1430 0.4416 -0.0041
C9 C 0.17034(6) 0.59713(10) 0.02714(5)
H16 H 0.1303 0.6329 -0.0001
C10 C 0.22059(7) 0.65826(10) 0.06926(5)
H17 H 0.2152 0.7360 0.0707
C11 C 0.27903(6) 0.60616(10) 0.10949(5)
H18 H 0.3133 0.6480 0.1387
C12 C 0.28713(6) 0.49265(10) 0.10673(5)
H19 H 0.3270 0.4572 0.1343
C13 C 0.30239(5) 0.34444(8) -0.01334(4)
H20 H 0.3456 0.3279 -0.0209
H21 H 0.2996 0.4254 -0.0093
C14 C 0.23657(5) 0.30416(9) -0.06305(4)
H22 H 0.2318 0.2232 -0.0607
H23 H 0.1934 0.3393 -0.0616
C15 C 0.24436(5) 0.33405(8) -0.11817(4)
H24 H 0.2571 0.4132 -0.1170
H25 H 0.2841 0.2908 -0.1210
C16 C 0.14732(6) 0.20164(8) -0.16939(4)
H26 H 0.1087 0.1869 -0.2059
H27 H 0.1287 0.1997 -0.1393
H28 H 0.1843 0.1453 -0.1621
C17 C 0.20009(6) 0.31652(9) -0.22064(4)
H29 H 0.2340 0.2569 -0.2172
H30 H 0.2224 0.3878 -0.2216
H31 H 0.1581 0.3069 -0.2556
C18 C 0.12001(5) 0.39863(8) -0.17835(4)
H32 H 0.0798 0.3836 -0.2146
H33 H 0.1024 0.3888 -0.1475
C19 C 0.14251(5) 0.51683(8) -0.17835(4)
C20 C 0.14317(6) 0.56721(9) -0.22727(5)
H34 H 0.1303 0.5263 -0.2615
C21 C 0.16279(7) 0.67763(10) -0.22577(5)
H35 H 0.1642 0.7116 -0.2588
C22 C 0.18025(7) 0.73815(9) -0.17629(6)
H36 H 0.1936 0.8135 -0.1756
C23 C 0.17838(6) 0.68936(9) -0.12783(5)
H37 H 0.1897 0.7313 -0.0941
C24 C 0.15983(6) 0.57893(9) -0.12892(5)
H38 H 0.1589 0.5452 -0.0956
B1 B 0.46620(6) 0.23547(9) 0.36054(4)
C25 C 0.53180(5) 0.27524(8) 0.41906(4)
C26 C 0.53687(5) 0.37636(8) 0.44722(4)
H39 H 0.4994 0.4284 0.4321
C27 C 0.59477(6) 0.40360(9) 0.49663(5)
H40 H 0.5956 0.4725 0.5147
C28 C 0.65101(6) 0.33058(9) 0.51945(4)
H41 H 0.6902 0.3484 0.5532
C29 C 0.64893(6) 0.23066(9) 0.49194(4)
H42 H 0.6874 0.1803 0.5065
C30 C 0.59059(5) 0.20459(8) 0.44326(4)
H43 H 0.5903 0.1357 0.4254
C31 C 0.43022(5) 0.12063(8) 0.37144(4)
C32 C 0.43723(5) 0.08192(8) 0.42503(4)
H44 H 0.4664 0.1220 0.4576
C33 C 0.40298(5) -0.01320(8) 0.43244(4)
H45 H 0.4094 -0.0366 0.4696
C34 C 0.35964(5) -0.07381(8) 0.38589(5)
H46 H 0.3368 -0.1391 0.3908
C35 C 0.35032(5) -0.03701(9) 0.33182(5)
H47 H 0.3204 -0.0767 0.2994
C36 C 0.38493(5) 0.05798(8) 0.32539(4)
H48 H 0.3776 0.0817 0.2881
C37 C 0.50326(5) 0.21940(8) 0.31399(4)
C38 C 0.52380(5) 0.11719(9) 0.29919(4)
H49 H 0.5107 0.0516 0.3131
C39 C 0.56287(6) 0.10823(10) 0.26469(5)
H50 H 0.5759 0.0374 0.2559
C40 C 0.58261(6) 0.20214(10) 0.24331(5)
H51 H 0.6096 0.1963 0.2202
C41 C 0.56232(6) 0.30497(10) 0.25618(5)
H52 H 0.5748 0.3701 0.2414
C42 C 0.52364(6) 0.31235(9) 0.29076(4)
H53 H 0.5104 0.3835 0.2990
C43 C 0.40014(5) 0.32412(8) 0.33856(4)
C44 C 0.36416(5) 0.35274(9) 0.28117(4)
H54 H 0.3797 0.3210 0.2539
C45 C 0.30691(6) 0.42552(10) 0.26273(5)
H55 H 0.2839 0.4416 0.2235
C46 C 0.28330(6) 0.47461(9) 0.30136(5)
H56 H 0.2453 0.5263 0.2891
C47 C 0.31613(6) 0.44687(9) 0.35821(5)
H57 H 0.3003 0.4793 0.3852
C48 C 0.37217(5) 0.37170(9) 0.37589(4)
H58 H 0.3924 0.3517 0.4148
B2 B -0.05215(6) 0.70020(10) 0.40237(5)
C49 C -0.04678(5) 0.73498(8) 0.46616(4)
C50 C -0.01343(5) 0.83323(9) 0.49223(4)
H59 H 0.0002 0.8850 0.4704
C51 C 0.00054(6) 0.85813(9) 0.54879(4)
H60 H 0.0240 0.9250 0.5649
C52 C -0.01996(6) 0.78472(9) 0.58155(4)
H61 H -0.0102 0.8005 0.6202
C53 C -0.05484(6) 0.68795(9) 0.55698(4)
H62 H -0.0699 0.6378 0.5787
C54 C -0.06784(5) 0.66418(9) 0.50041(4)
H63 H -0.0918 0.5976 0.4845
C55 C 0.02320(5) 0.64157(8) 0.40784(4)
C56 C 0.08370(5) 0.63716(8) 0.45817(4)
H64 H 0.0813 0.6677 0.4916
C57 C 0.14745(5) 0.58952(8) 0.46106(5)
H65 H 0.1872 0.5881 0.4961
C58 C 0.15304(6) 0.54410(8) 0.41296(5)
H66 H 0.1965 0.5123 0.4147
C59 C 0.09406(6) 0.54589(8) 0.36225(5)
H67 H 0.0970 0.5152 0.3290
C60 C 0.03075(6) 0.59263(8) 0.36028(4)
H68 H -0.0092 0.5916 0.3254
C61 C -0.11684(5) 0.60929(10) 0.37559(4)
C62 C -0.10414(6) 0.49566(10) 0.38699(5)
H69 H -0.0571 0.4723 0.4090
C63 C -0.15750(7) 0.41580(12) 0.36737(6)
H70 H -0.1463 0.3402 0.3764
C64 C -0.22645(8) 0.44651(14) 0.33485(5)
H71 H -0.2630 0.3927 0.3209
C65 C -0.24121(7) 0.55746(15) 0.32296(5)
H72 H -0.2884 0.5798 0.3006
C66 C -0.18766(6) 0.63718(12) 0.34342(4)
H73 H -0.1997 0.7127 0.3352
C67 C -0.06546(5) 0.81251(9) 0.36295(4)
C68 C -0.02646(5) 0.84143(9) 0.32986(4)
H74 H 0.0094 0.7924 0.3287
C69 C -0.03839(6) 0.93941(9) 0.29857(4)
H75 H -0.0110 0.9552 0.2766
C70 C -0.08985(6) 1.01377(9) 0.29939(5)
H76 H -0.0981 1.0804 0.2782
C71 C -0.12914(6) 0.98859(10) 0.33193(5)
H77 H -0.1644 1.0385 0.3332
C72 C -0.11691(6) 0.89051(10) 0.36257(4)
H78 H -0.1447 0.8754 0.3843
loop_
_geom_bond_atom_site_label_1
_geom_bond_atom_site_label_2
_geom_bond_site_symmetry_1
_geom_bond_site_symmetry_2
N1 C1 1_555 1_555
N2 C1 1_555 1_555
N3 C1 1_555 1_555
N4 C15 1_555 1_555
C2 N1 1_555 1_555
H1 C2 1_555 1_555
H2 C2 1_555 1_555
H3 C2 1_555 1_555
C3 N1 1_555 1_555
H4 C3 1_555 1_555
H5 C3 1_555 1_555
H6 C3 1_555 1_555
C4 N2 1_555 1_555
H7 C4 1_555 1_555
H8 C4 1_555 1_555
H9 C4 1_555 1_555
C5 N2 1_555 1_555
H10 C5 1_555 1_555
H11 C5 1_555 1_555
H12 C5 1_555 1_555
C6 N3 1_555 1_555
H13 C6 1_555 1_555
H14 C6 1_555 1_555
C7 C6 1_555 1_555
C8 C7 1_555 1_555
H15 C8 1_555 1_555
C9 C8 1_555 1_555
H16 C9 1_555 1_555
C10 C9 1_555 1_555
H17 C10 1_555 1_555
C11 C10 1_555 1_555
H18 C11 1_555 1_555
C12 C7 1_555 1_555
H19 C12 1_555 1_555
C13 N3 1_555 1_555
H20 C13 1_555 1_555
H21 C13 1_555 1_555
C14 C13 1_555 1_555
H22 C14 1_555 1_555
H23 C14 1_555 1_555
C15 C14 1_555 1_555
H24 C15 1_555 1_555
H25 C15 1_555 1_555
C16 N4 1_555 1_555
H26 C16 1_555 1_555
H27 C16 1_555 1_555
H28 C16 1_555 1_555
C17 N4 1_555 1_555
H29 C17 1_555 1_555
H30 C17 1_555 1_555
H31 C17 1_555 1_555
C18 N4 1_555 1_555
H32 C18 1_555 1_555
H33 C18 1_555 1_555
C19 C18 1_555 1_555
C20 C19 1_555 1_555
H34 C20 1_555 1_555
C21 C20 1_555 1_555
H35 C21 1_555 1_555
C22 C21 1_555 1_555
H36 C22 1_555 1_555
C23 C22 1_555 1_555
H37 C23 1_555 1_555
C24 C19 1_555 1_555
H38 C24 1_555 1_555
B1 C25 1_555 1_555
C25 C26 1_555 1_555
C26 H39 1_555 1_555
C27 C26 1_555 1_555
H40 C27 1_555 1_555
C28 C27 1_555 1_555
H41 C28 1_555 1_555
C29 C28 1_555 1_555
H42 C29 1_555 1_555
C30 C25 1_555 1_555
H43 C30 1_555 1_555
C31 B1 1_555 1_555
C32 C31 1_555 1_555
H44 C32 1_555 1_555
C33 C32 1_555 1_555
H45 C33 1_555 1_555
C34 C33 1_555 1_555
H46 C34 1_555 1_555
C35 C34 1_555 1_555
H47 C35 1_555 1_555
C36 C31 1_555 1_555
H48 C36 1_555 1_555
C37 B1 1_555 1_555
C38 C37 1_555 1_555
H49 C38 1_555 1_555
C39 C38 1_555 1_555
H50 C39 1_555 1_555
C40 C39 1_555 1_555
H51 C40 1_555 1_555
C41 C40 1_555 1_555
H52 C41 1_555 1_555
C42 C37 1_555 1_555
H53 C42 1_555 1_555
C43 B1 1_555 1_555
C44 C43 1_555 1_555
H54 C44 1_555 1_555
C45 C44 1_555 1_555
H55 C45 1_555 1_555
C46 C45 1_555 1_555
H56 C46 1_555 1_555
C47 C46 1_555 1_555
H57 C47 1_555 1_555
C48 C43 1_555 1_555
H58 C48 1_555 1_555
B2 C49 1_555 1_555
C49 C50 1_555 1_555
C50 H59 1_555 1_555
C51 C50 1_555 1_555
H60 C51 1_555 1_555
C52 C51 1_555 1_555
H61 C52 1_555 1_555
C53 C52 1_555 1_555
H62 C53 1_555 1_555
C54 C49 1_555 1_555
H63 C54 1_555 1_555
C55 B2 1_555 1_555
C56 C55 1_555 1_555
H64 C56 1_555 1_555
C57 C56 1_555 1_555
H65 C57 1_555 1_555
C58 C57 1_555 1_555
H66 C58 1_555 1_555
C59 C58 1_555 1_555
H67 C59 1_555 1_555
C60 C55 1_555 1_555
H68 C60 1_555 1_555
C61 B2 1_555 1_555
C62 C61 1_555 1_555
H69 C62 1_555 1_555
C63 C62 1_555 1_555
H70 C63 1_555 1_555
C64 C63 1_555 1_555
H71 C64 1_555 1_555
C65 C64 1_555 1_555
H72 C65 1_555 1_555
C66 C61 1_555 1_555
H73 C66 1_555 1_555
C67 B2 1_555 1_555
C68 C67 1_555 1_555
H74 C68 1_555 1_555
C69 C68 1_555 1_555
H75 C69 1_555 1_555
C70 C69 1_555 1_555
H76 C70 1_555 1_555
C71 C70 1_555 1_555
H77 C71 1_555 1_555
C72 C67 1_555 1_555
H78 C72 1_555 1_555
C11 C12 1_555 1_555
C23 C24 1_555 1_555
C29 C30 1_555 1_555
C35 C36 1_555 1_555
C41 C42 1_555 1_555
C47 C48 1_555 1_555
C53 C54 1_555 1_555
C59 C60 1_555 1_555
C65 C66 1_555 1_555
C71 C72 1_555 1_555

#END
