
#######################################################################
#
#                 Cambridge Crystallographic Data Centre
#                                CCDC 
#
#######################################################################
#
# If this CIF has been generated from an entry in the Cambridge 
# Structural Database, then it will include bibliographic, chemical, 
# crystal, experimental, refinement or atomic coordinate data resulting 
# from the CCDC's data processing and validation procedures.
#
#######################################################################

data_KAHDUV
_chemical_formula_moiety         'C14 H20 F1 N1 O3 S1'
_chemical_name_systematic        
'Methyl (2R,3S)-3-((t-butylsulfinyl)amino)-2-fluoro-3-phenylpropanoate'
_symmetry_cell_setting           orthorhombic
_symmetry_space_group_name_H-M   'P 21 21 21'
_symmetry_Int_Tables_number      19
_space_group_name_Hall           'P 2ac 2ab'
loop_
_symmetry_equiv_pos_site_id
_symmetry_equiv_pos_as_xyz
1 x,y,z
2 1/2-x,-y,1/2+z
3 -x,1/2+y,1/2-z
4 1/2+x,1/2-y,-z
_cell_length_a                   9.1809(14)
_cell_length_b                   9.2384(15)
_cell_length_c                   18.577(3)
_cell_angle_alpha                90
_cell_angle_beta                 90
_cell_angle_gamma                90
_cell_volume                     1575.64
_exptl_crystal_colour            colorless
_exptl_crystal_description       block
_cell_formula_units_Z            4
loop_
_atom_site_label
_atom_site_type_symbol
_atom_site_fract_x
_atom_site_fract_y
_atom_site_fract_z
S1 S 0.45246(5) 0.13512(6) 1.04644(3)
C1 C 0.4525(2) 0.0513(2) 0.86771(10)
C2 C 0.4258(3) 0.1407(3) 0.80959(13)
H1 H 0.3412 0.1960 0.8085
C3 C 0.5233(3) 0.1489(4) 0.75313(14)
H2 H 0.5032 0.2089 0.7142
C4 C 0.6486(3) 0.0701(4) 0.75394(14)
H3 H 0.7134 0.0755 0.7156
C5 C 0.6780(3) -0.0166(3) 0.81134(15)
H4 H 0.7640 -0.0698 0.8124
C6 C 0.5812(3) -0.0262(3) 0.86807(13)
H5 H 0.6029 -0.0855 0.9070
C7 C 0.3370(2) 0.0338(2) 0.92539(10)
H6 H 0.2837 0.1254 0.9288
C8 C 0.2285(2) -0.0833(2) 0.90203(11)
H7 H 0.1834 -0.0536 0.8566
C9 C 0.1100(2) -0.1116(2) 0.95639(13)
C10 C 0.3929(3) 0.0729(3) 1.13521(12)
C11 C 0.4604(4) 0.1814(4) 1.18744(15)
H8 H 0.4255 0.1626 1.2352
H9 H 0.4337 0.2778 1.1734
H10 H 0.5646 0.1720 1.1865
C12 C 0.4469(5) -0.0790(3) 1.15008(15)
H11 H 0.5481 -0.0858 1.1376
H12 H 0.3920 -0.1468 1.1218
H13 H 0.4347 -0.1008 1.2002
C13 C 0.2279(3) 0.0833(4) 1.13551(16)
H14 H 0.1880 0.0102 1.1045
H15 H 0.1989 0.1772 1.1186
H16 H 0.1924 0.0692 1.1836
C14 C -0.1016(3) -0.0130(4) 1.00859(19)
H17 H -0.1445 -0.1076 1.0052
H18 H -0.1733 0.0589 0.9969
H19 H -0.0670 0.0026 1.0567
F1 F 0.30213(17) -0.21153(14) 0.89103(8)
N1 N 0.38966(18) -0.00242(17) 0.99719(8)
H20 H 0.3884 -0.0897 1.0133
O1 O 0.02014(16) -0.00250(18) 0.95826(11)
O2 O 0.10015(19) -0.21952(17) 0.99189(10)
O3 O 0.61290(18) 0.1341(2) 1.04867(11)
loop_
_geom_bond_atom_site_label_1
_geom_bond_atom_site_label_2
_geom_bond_site_symmetry_1
_geom_bond_site_symmetry_2
S1 C10 1_555 1_555
C1 C2 1_555 1_555
C2 H1 1_555 1_555
C3 C2 1_555 1_555
H2 C3 1_555 1_555
C4 C3 1_555 1_555
H3 C4 1_555 1_555
C5 C4 1_555 1_555
H4 C5 1_555 1_555
C6 C1 1_555 1_555
H5 C6 1_555 1_555
C7 C1 1_555 1_555
H6 C7 1_555 1_555
C8 C7 1_555 1_555
H7 C8 1_555 1_555
C9 C8 1_555 1_555
C10 C11 1_555 1_555
C11 H8 1_555 1_555
H9 C11 1_555 1_555
H10 C11 1_555 1_555
C12 C10 1_555 1_555
H11 C12 1_555 1_555
H12 C12 1_555 1_555
H13 C12 1_555 1_555
C13 C10 1_555 1_555
H14 C13 1_555 1_555
H15 C13 1_555 1_555
H16 C13 1_555 1_555
C14 H17 1_555 1_555
H18 C14 1_555 1_555
H19 C14 1_555 1_555
F1 C8 1_555 1_555
N1 S1 1_555 1_555
H20 N1 1_555 1_555
O1 C9 1_555 1_555
O2 C9 1_555 1_555
O3 S1 1_555 1_555
C5 C6 1_555 1_555
C7 N1 1_555 1_555
C14 O1 1_555 1_555

#END
