
#######################################################################
#
#                 Cambridge Crystallographic Data Centre
#                                CCDC 
#
#######################################################################
#
# If this CIF has been generated from an entry in the Cambridge 
# Structural Database, then it will include bibliographic, chemical, 
# crystal, experimental, refinement or atomic coordinate data resulting 
# from the CCDC's data processing and validation procedures.
#
#######################################################################

data_KAHGUV10
_chemical_formula_moiety         'C18 H24 N6'
_chemical_name_systematic        Hexa-azaoctadecahydrocoronene
_symmetry_cell_setting           monoclinic
_symmetry_space_group_name_H-M   'P 21/c'
_symmetry_Int_Tables_number      14
_space_group_name_Hall           '-P 2ybc'
loop_
_symmetry_equiv_pos_site_id
_symmetry_equiv_pos_as_xyz
1 x,y,z
2 -x,1/2+y,1/2-z
3 -x,-y,-z
4 x,1/2-y,1/2+z
_cell_length_a                   9.784(2)
_cell_length_b                   9.384(4)
_cell_length_c                   9.614(8)
_cell_angle_alpha                90
_cell_angle_beta                 117.53(3)
_cell_angle_gamma                90
_cell_volume                     782.743
_exptl_crystal_colour            colorless
_cell_formula_units_Z            2
_chemical_properties_physical    Air-sensitive
loop_
_atom_site_label
_atom_site_type_symbol
_atom_site_fract_x
_atom_site_fract_y
_atom_site_fract_z
N1 N 0.2337(4) 0.5576(4) 0.2183(4)
N2 N 0.5247(4) 0.6463(4) 0.2582(4)
N3 N 0.2070(4) 0.4437(4) 0.4765(4)
C1 C 0.3675(5) 0.5324(4) 0.3616(5)
C2 C 0.5133(5) 0.5687(5) 0.3773(5)
C3 C 0.3547(4) 0.4681(5) 0.4852(5)
C4 C 0.0919(5) 0.5676(5) 0.2308(5)
C5 C 0.2506(5) 0.6679(5) 0.1221(5)
C6 C 0.3934(6) 0.6396(5) 0.1062(5)
C7 C 0.6730(6) 0.6405(6) 0.2595(5)
C8 C 0.2036(5) 0.3338(5) 0.5779(5)
C9 C 0.0808(4) 0.4411(5) 0.3197(5)
H1 H 0.0064 0.5680 0.1287
H2 H 0.0929 0.6522 0.2855
H3 H 0.2592 0.7580 0.1704
H4 H 0.1637 0.6671 0.0211
H5 H 0.4032 0.7097 0.0400
H6 H 0.3872 0.5475 0.0627
H7 H 0.6868 0.5490 0.2255
H8 H 0.6775 0.7117 0.1917
H9 H 0.2200 0.2440 0.5426
H10 H 0.1063 0.3338 0.5774
H11 H -0.0140 0.4441 0.3244
H12 H 0.0859 0.3562 0.2684
C3B C 0.6453(4) 0.5319(5) 0.5148(5)
C2B C 0.4867(5) 0.4313(5) 0.6227(5)
C8B C 0.7964(5) 0.6662(5) 0.4221(5)
C7B C 0.3270(6) 0.3595(6) 0.7405(5)
N3B N 0.7930(4) 0.5563(4) 0.5235(4)
C1B C 0.6325(5) 0.4676(4) 0.6384(5)
N2B N 0.4753(4) 0.3537(4) 0.7418(4)
H9B H 0.7800 0.7560 0.4574
H10B H 0.8937 0.6662 0.4226
H7B H 0.3132 0.4510 0.7745
H8B H 0.3225 0.2883 0.8083
C9B C 0.9192(4) 0.5589(5) 0.6803(5)
N1B N 0.7663(4) 0.4424(4) 0.7817(4)
C6B C 0.6066(6) 0.3604(5) 0.8938(5)
C4B C 0.9081(5) 0.4324(5) 0.7692(5)
H11B H 1.0140 0.5559 0.6756
H12B H 0.9141 0.6438 0.7316
C5B C 0.7494(5) 0.3321(5) 0.8779(5)
H5B H 0.5968 0.2903 0.9600
H6B H 0.6128 0.4525 0.9373
H1B H 0.9936 0.4320 0.8713
H2B H 0.9071 0.3478 0.7145
H3B H 0.7408 0.2420 0.8296
H4B H 0.8363 0.3329 0.9789
loop_
_geom_bond_atom_site_label_1
_geom_bond_atom_site_label_2
_geom_bond_site_symmetry_1
_geom_bond_site_symmetry_2
N1 C1 1_555 1_555
N2 C2 1_555 1_555
N3 C3 1_555 1_555
C1 C2 1_555 1_555
C2 C3B 1_555 1_555
C3 C1 1_555 1_555
C4 N1 1_555 1_555
C5 N1 1_555 1_555
C6 N2 1_555 1_555
C7 N2 1_555 1_555
C8 N3 1_555 1_555
C9 N3 1_555 1_555
H1 C4 1_555 1_555
H2 C4 1_555 1_555
H3 C5 1_555 1_555
H4 C5 1_555 1_555
H5 C6 1_555 1_555
H6 C6 1_555 1_555
H7 C7 1_555 1_555
H8 C7 1_555 1_555
H9 C8 1_555 1_555
H10 C8 1_555 1_555
H11 C9 1_555 1_555
H12 C9 1_555 1_555
C3B N3B 1_555 1_555
C2B C3 1_555 1_555
C8B C7 1_555 1_555
C7B C8 1_555 1_555
N3B C8B 1_555 1_555
C1B C3B 1_555 1_555
N2B C2B 1_555 1_555
H9B C8B 1_555 1_555
H10B C8B 1_555 1_555
H7B C7B 1_555 1_555
H8B C7B 1_555 1_555
C9B N3B 1_555 1_555
N1B C1B 1_555 1_555
C6B N2B 1_555 1_555
C4B C9B 1_555 1_555
H11B C9B 1_555 1_555
H12B C9B 1_555 1_555
C5B N1B 1_555 1_555
H5B C6B 1_555 1_555
H6B C6B 1_555 1_555
H1B C4B 1_555 1_555
H2B C4B 1_555 1_555
H3B C5B 1_555 1_555
H4B C5B 1_555 1_555
C4 C9 1_555 1_555
C5 C6 1_555 1_555
C2B C1B 1_555 1_555
C7B N2B 1_555 1_555
N1B C4B 1_555 1_555
C6B C5B 1_555 1_555

#END
