
#######################################################################
#
#                 Cambridge Crystallographic Data Centre
#                                CCDC 
#
#######################################################################
#
# If this CIF has been generated from an entry in the Cambridge 
# Structural Database, then it will include bibliographic, chemical, 
# crystal, experimental, refinement or atomic coordinate data resulting 
# from the CCDC's data processing and validation procedures.
#
#######################################################################

data_KAHHIN
_chemical_compound_source        'fruits of Daucus carota L.'
_chemical_formula_moiety         'C15 H28 O4'
_chemical_name_systematic        
(1R,2R,4S,4aS,7R,8aS)-7-(2-Hydroxypropan-2-yl)-1,4a-dimethyldecahydronaphthalene-1,2,4-triol
_chemical_properties_biological  'antioxidant activity'
_symmetry_cell_setting           orthorhombic
_symmetry_space_group_name_H-M   'P 21 21 21'
_symmetry_Int_Tables_number      19
_space_group_name_Hall           'P 2ac 2ab'
loop_
_symmetry_equiv_pos_site_id
_symmetry_equiv_pos_as_xyz
1 x,y,z
2 1/2-x,-y,1/2+z
3 1/2+x,1/2-y,-z
4 -x,1/2+y,1/2-z
_cell_length_a                   7.78967(13)
_cell_length_b                   9.08141(16)
_cell_length_c                   21.7623(4)
_cell_angle_alpha                90
_cell_angle_beta                 90
_cell_angle_gamma                90
_cell_volume                     1539.49
_exptl_crystal_colour            colorless
_exptl_crystal_description       block
_chemical_melting_point          '112-114 deg.C'
_cell_formula_units_Z            4
_exptl_crystal_recrystallization_method methanol
loop_
_atom_site_label
_atom_site_type_symbol
_atom_site_fract_x
_atom_site_fract_y
_atom_site_fract_z
O1 O 0.61126(14) 0.58386(17) 0.76392(6)
H1 H 0.6270 0.5630 0.7277
O2 O 0.01260(15) 0.51195(14) 0.70929(7)
H2 H 0.0434 0.4257 0.7104
O3 O -0.07741(13) 0.71700(12) 0.80855(6)
H3 H -0.162(3) 0.666(2) 0.7933(11)
O4 O 0.27008(15) 1.05675(13) 0.86065(5)
H4 H 0.1753 1.0532 0.8443
C1 C 0.43905(18) 0.63901(17) 0.77180(7)
H5 H 0.4340 0.7384 0.7544
C2 C 0.31226(19) 0.54269(18) 0.73710(7)
H6 H 0.3435 0.5400 0.6940
H7 H 0.3178 0.4430 0.7529
C3 C 0.13047(19) 0.60036(16) 0.74348(7)
H8 H 0.1293 0.6982 0.7245
C4 C 0.07148(18) 0.62121(16) 0.80982(7)
C5 C 0.21033(17) 0.71153(16) 0.84399(6)
H9 H 0.2152 0.8055 0.8219
C6 C 0.1578(2) 0.75319(17) 0.90979(7)
H10 H 0.1517 0.6640 0.9342
H11 H 0.0436 0.7957 0.9087
C7 C 0.2791(2) 0.86243(18) 0.94199(7)
H12 H 0.2514 0.8550 0.9858
C8 C 0.4622(2) 0.8032(2) 0.93606(8)
H13 H 0.5415 0.8761 0.9520
H14 H 0.4731 0.7154 0.9612
C9 C 0.51291(19) 0.7658(2) 0.87024(8)
H15 H 0.6301 0.7297 0.8700
H16 H 0.5096 0.8550 0.8458
C10 C 0.39605(19) 0.64944(16) 0.84016(7)
C11 C 0.2530(3) 1.02715(19) 0.92540(8)
C12 C 0.3899(6) 1.1224(3) 0.95578(13)
H17 H 0.5003 1.0987 0.9388
H18 H 0.3908 1.1040 0.9992
H19 H 0.3649 1.2244 0.9484
C13 C 0.0734(4) 1.0769(3) 0.94529(11)
H20 H 0.0593 1.1797 0.9364
H21 H 0.0598 1.0608 0.9886
H22 H -0.0116 1.0212 0.9233
C14 C 0.0181(2) 0.4767(2) 0.84030(9)
H23 H 0.0000 0.4929 0.8834
H24 H 0.1071 0.4048 0.8347
H25 H -0.0862 0.4418 0.8219
C15 C 0.4247(2) 0.5003(2) 0.87235(9)
H26 H 0.3808 0.4225 0.8469
H27 H 0.3658 0.4999 0.9111
H28 H 0.5453 0.4855 0.8791
loop_
_geom_bond_atom_site_label_1
_geom_bond_atom_site_label_2
_geom_bond_site_symmetry_1
_geom_bond_site_symmetry_2
O1 H1 1_555 1_555
O2 H2 1_555 1_555
O3 H3 1_555 1_555
O4 H4 1_555 1_555
C1 O1 1_555 1_555
H5 C1 1_555 1_555
C2 C1 1_555 1_555
H6 C2 1_555 1_555
H7 C2 1_555 1_555
C3 O2 1_555 1_555
H8 C3 1_555 1_555
C4 O3 1_555 1_555
C5 C4 1_555 1_555
H9 C5 1_555 1_555
C6 C5 1_555 1_555
H10 C6 1_555 1_555
H11 C6 1_555 1_555
C7 C6 1_555 1_555
H12 C7 1_555 1_555
C8 C7 1_555 1_555
H13 C8 1_555 1_555
H14 C8 1_555 1_555
C9 C8 1_555 1_555
H15 C9 1_555 1_555
H16 C9 1_555 1_555
C10 C1 1_555 1_555
C11 O4 1_555 1_555
C12 C11 1_555 1_555
H17 C12 1_555 1_555
H18 C12 1_555 1_555
H19 C12 1_555 1_555
C13 C11 1_555 1_555
H20 C13 1_555 1_555
H21 C13 1_555 1_555
H22 C13 1_555 1_555
C14 C4 1_555 1_555
H23 C14 1_555 1_555
H24 C14 1_555 1_555
H25 C14 1_555 1_555
C15 C10 1_555 1_555
H26 C15 1_555 1_555
H27 C15 1_555 1_555
H28 C15 1_555 1_555
C2 C3 1_555 1_555
C3 C4 1_555 1_555
C5 C10 1_555 1_555
C7 C11 1_555 1_555
C9 C10 1_555 1_555

#END
