
#######################################################################
#
#                 Cambridge Crystallographic Data Centre
#                                CCDC 
#
#######################################################################
#
# If this CIF has been generated from an entry in the Cambridge 
# Structural Database, then it will include bibliographic, chemical, 
# crystal, experimental, refinement or atomic coordinate data resulting 
# from the CCDC's data processing and validation procedures.
#
#######################################################################

data_KAHHEG10
_chemical_formula_moiety         'C18 H24 N6 2+,2(F6 P1 1-)'
_chemical_name_systematic        
'Hexa-azaoctadecahydrocoronene bis(hexafluorophosphate)'
_symmetry_cell_setting           triclinic
_symmetry_space_group_name_H-M   'P -1'
_symmetry_Int_Tables_number      2
_space_group_name_Hall           '-P 1'
loop_
_symmetry_equiv_pos_site_id
_symmetry_equiv_pos_as_xyz
1 x,y,z
2 -x,-y,-z
_cell_length_a                   6.966(2)
_cell_length_b                   8.915(1)
_cell_length_c                   10.632(2)
_cell_angle_alpha                100.45(1)
_cell_angle_beta                 108.92(2)
_cell_angle_gamma                105.09(1)
_cell_volume                     576.958
_cell_formula_units_Z            1
loop_
_atom_site_label
_atom_site_type_symbol
_atom_site_fract_x
_atom_site_fract_y
_atom_site_fract_z
P1 P 0.35036(14) 0.30401(11) 0.18317(9)
F1 F 0.3227(4) 0.1840(3) 0.2745(2)
F2 F 0.1437(4) 0.3413(3) 0.1909(2)
F3 F 0.5018(4) 0.4507(3) 0.3167(2)
F4 F 0.3741(4) 0.4211(3) 0.0890(2)
F5 F 0.5540(3) 0.2626(3) 0.1723(2)
F6 F 0.1981(3) 0.1578(2) 0.0465(2)
N1 N 0.7325(4) 1.2137(3) 0.7619(2)
N2 N 0.3158(4) 1.0127(3) 0.6911(3)
N3 N 0.9217(4) 1.2190(3) 0.5666(3)
C1 C 0.6209(5) 1.1157(3) 0.6323(3)
C2 C 0.4035(5) 0.9997(3) 0.5977(3)
C3 C 0.7086(4) 1.1155(3) 0.5326(3)
C4 C 0.9511(6) 1.3239(4) 0.8013(4)
C5 C 0.6562(6) 1.1918(5) 0.8720(3)
C6 C 0.4190(6) 1.1516(5) 0.8176(4)
C7 C 0.1008(6) 0.9042(4) 0.6628(4)
C8 C 0.9563(6) 1.2524(4) 0.4445(4)
C9 C 0.9801(6) 1.3666(4) 0.6766(4)
H1 H 1.0502(53) 1.2714(39) 0.8448(33)
H2 H 0.9746(53) 1.4175(43) 0.8729(36)
H3 H 0.7123(57) 1.2871(46) 0.9416(40)
H4 H 0.6906(52) 1.1056(41) 0.9079(34)
H5 H 0.3510(51) 1.1168(39) 0.8779(36)
H6 H 0.3678(60) 1.2430(47) 0.7981(40)
H7 H -0.0057(60) 0.9562(44) 0.6286(38)
H8 H 0.0992(50) 0.8894(39) 0.7496(36)
H9 H 0.8749(52) 1.3193(40) 0.4092(33)
H10 H 1.1066(55) 1.3202(39) 0.4712(33)
H11 H 1.1211(58) 1.4246(41) 0.6977(35)
H12 H 0.8918(51) 1.4340(38) 0.6480(32)
C3A C 0.2914(4) 0.8845(3) 0.4674(3)
C2A C 0.5965(5) 1.0003(3) 0.4023(3)
C8A C 0.0437(6) 0.7476(4) 0.5555(4)
C7A C 0.8992(6) 1.0958(4) 0.3372(4)
N3A N 0.0783(4) 0.7810(3) 0.4334(3)
C1A C 0.3791(5) 0.8843(3) 0.3677(3)
N2A N 0.6842(4) 0.9873(3) 0.3089(3)
H9A H 0.1251(52) 0.6807(40) 0.5908(33)
H10A H -0.1066(55) 0.6798(39) 0.5288(33)
H7A H 1.0057(60) 1.0438(44) 0.3714(38)
H8A H 0.9008(50) 1.1106(39) 0.2504(36)
C9A C 0.0199(6) 0.6334(4) 0.3234(4)
N1A N 0.2675(4) 0.7863(3) 0.2381(2)
C6A C 0.5810(6) 0.8484(5) 0.1824(4)
C4A C 0.0489(6) 0.6761(4) 0.1987(4)
H11A H -0.1211(58) 0.5754(41) 0.3023(35)
H12A H 0.1082(51) 0.5660(38) 0.3520(32)
C5A C 0.3438(6) 0.8082(5) 0.1280(3)
H5A H 0.6490(51) 0.8832(39) 0.1221(36)
H6A H 0.6322(60) 0.7570(47) 0.2019(40)
H1A H -0.0502(53) 0.7286(39) 0.1552(33)
H2A H 0.0254(53) 0.5825(43) 0.1271(36)
H3A H 0.2877(57) 0.7129(46) 0.0584(40)
H4A H 0.3094(52) 0.8944(41) 0.0921(34)
loop_
_geom_bond_atom_site_label_1
_geom_bond_atom_site_label_2
_geom_bond_site_symmetry_1
_geom_bond_site_symmetry_2
P1 F1 1_555 1_555
F2 P1 1_555 1_555
F3 P1 1_555 1_555
F4 P1 1_555 1_555
F5 P1 1_555 1_555
F6 P1 1_555 1_555
N1 C1 1_555 1_555
N2 C2 1_555 1_555
N3 C3 1_555 1_555
C1 C2 1_555 1_555
C2 C3A 1_555 1_555
C3 C1 1_555 1_555
C4 N1 1_555 1_555
C5 N1 1_555 1_555
C6 N2 1_555 1_555
C7 N2 1_555 1_555
C8 N3 1_555 1_555
C9 N3 1_555 1_555
H1 C4 1_555 1_555
H2 C4 1_555 1_555
H3 C5 1_555 1_555
H4 C5 1_555 1_555
H5 C6 1_555 1_555
H6 C6 1_555 1_555
H7 C7 1_555 1_555
H8 C7 1_555 1_555
H9 C8 1_555 1_555
H10 C8 1_555 1_555
H11 C9 1_555 1_555
H12 C9 1_555 1_555
C3A N3A 1_555 1_555
C2A C3 1_555 1_555
C8A C7 1_555 1_555
C7A C8 1_555 1_555
N3A C8A 1_555 1_555
C1A C3A 1_555 1_555
N2A C2A 1_555 1_555
H9A C8A 1_555 1_555
H10A C8A 1_555 1_555
H7A C7A 1_555 1_555
H8A C7A 1_555 1_555
C9A N3A 1_555 1_555
N1A C1A 1_555 1_555
C6A N2A 1_555 1_555
C4A C9A 1_555 1_555
H11A C9A 1_555 1_555
H12A C9A 1_555 1_555
C5A N1A 1_555 1_555
H5A C6A 1_555 1_555
H6A C6A 1_555 1_555
H1A C4A 1_555 1_555
H2A C4A 1_555 1_555
H3A C5A 1_555 1_555
H4A C5A 1_555 1_555
C4 C9 1_555 1_555
C5 C6 1_555 1_555
C2A C1A 1_555 1_555
C7A N2A 1_555 1_555
N1A C4A 1_555 1_555
C6A C5A 1_555 1_555

#END
