
#######################################################################
#
#                 Cambridge Crystallographic Data Centre
#                                CCDC 
#
#######################################################################
#
# If this CIF has been generated from an entry in the Cambridge 
# Structural Database, then it will include bibliographic, chemical, 
# crystal, experimental, refinement or atomic coordinate data resulting 
# from the CCDC's data processing and validation procedures.
#
#######################################################################

data_KAHKEM
_chemical_formula_moiety         'C22 H27 N3 O5 S1'
_chemical_name_systematic        
'ethyl (3-(((t-butoxycarbonyl)amino)(2-thienyl)methyl)-1-methyl-2-oxo-2,3-dihydro-1H-indol-3-yl)carbamate unknown solvate'
_symmetry_cell_setting           monoclinic
_symmetry_space_group_name_H-M   'P 21'
_symmetry_Int_Tables_number      4
_space_group_name_Hall           'P 2yb'
loop_
_symmetry_equiv_pos_site_id
_symmetry_equiv_pos_as_xyz
1 x,y,z
2 -x,1/2+y,-z
_cell_length_a                   11.9327(6)
_cell_length_b                   12.6785(7)
_cell_length_c                   17.6556(9)
_cell_angle_alpha                90
_cell_angle_beta                 109.402(2)
_cell_angle_gamma                90
_cell_volume                     2519.4
_exptl_crystal_colour            colorless
_exptl_crystal_description       Block
_cell_formula_units_Z            4
loop_
_atom_site_label
_atom_site_type_symbol
_atom_site_fract_x
_atom_site_fract_y
_atom_site_fract_z
C1 C 0.7297(3) 0.3819(4) -0.0481(3)
H1 H 0.7034 0.3539 -0.0997
C2 C 0.7153(3) 0.4810(4) -0.0339(3)
H2 H 0.6789 0.5321 -0.0719
C3 C 0.7703(6) 0.4980(6) 0.0580(6)
H3 H 0.7708 0.5622 0.0836
S1 S 0.7947(2) 0.3126(2) 0.02804(17)
C4 C 0.8160(3) 0.4102(2) 0.0954(2)
C5 C 0.8757(3) 0.3970(3) 0.18423(19)
H4 H 0.881(3) 0.330(3) 0.197(2)
C6 C 0.7240(3) 0.4094(3) 0.2491(2)
O1 O 0.6838(3) 0.4779(2) 0.2909(2)
C7 C 0.5852(4) 0.4506(3) 0.3207(3)
C8 C 0.591(2) 0.5429(13) 0.3785(15)
H5 H 0.6687 0.5468 0.4177
H6 H 0.5333 0.5318 0.4051
H7 H 0.5732 0.6077 0.3487
C9 C 0.623(2) 0.3506(13) 0.3728(12)
H8 H 0.6945 0.3649 0.4168
H9 H 0.6376 0.2944 0.3408
H10 H 0.5612 0.3303 0.3933
C10 C 0.4691(13) 0.440(2) 0.2525(11)
H11 H 0.4769 0.3865 0.2159
H12 H 0.4490 0.5058 0.2249
H13 H 0.4076 0.4196 0.2735
C11 C 1.0088(3) 0.4301(3) 0.21293(19)
C12 C 1.0178(3) 0.5471(3) 0.1903(2)
C13 C 1.0968(6) 0.6465(4) 0.0975(4)
H14 H 1.0414 0.6995 0.1012
H15 H 1.0880 0.6347 0.0421
H16 H 1.1763 0.6697 0.1258
C14 C 1.1102(3) 0.4462(3) 0.1199(2)
C15 C 1.1698(4) 0.4165(5) 0.0682(3)
H17 H 1.1946 0.4656 0.0379
C16 C 1.1907(5) 0.3094(7) 0.0640(4)
H18 H 1.2307 0.2866 0.0300
C17 C 1.1553(4) 0.2366(5) 0.1075(3)
H19 H 1.1704 0.1654 0.1027
C18 C 1.0961(3) 0.2693(4) 0.1592(3)
H20 H 1.0716 0.2202 0.1897
C19 C 1.0741(3) 0.3748(3) 0.1649(2)
C20 C 1.1661(3) 0.4525(3) 0.3407(2)
C21 C 1.3184(5) 0.4457(7) 0.4716(4)
H21 H 1.3442 0.3918 0.5128
H22 H 1.3724 0.4451 0.4409
C22 C 1.3219(8) 0.5415(10) 0.5065(5)
H23 H 1.3090 0.5956 0.4665
H24 H 1.3982 0.5514 0.5469
H25 H 1.2610 0.5451 0.5308
N1 N 0.8153(2) 0.4523(2) 0.23132(18)
H26 H 0.8386 0.5147 0.2485
N2 N 1.0582(2) 0.4154(2) 0.29887(16)
H27 H 1.0176 0.3823 0.3235
N3 N 1.0734(3) 0.5477(3) 0.13319(19)
O2 O 0.6864(2) 0.3210(2) 0.22924(17)
O3 O 0.9763(3) 0.6211(2) 0.21445(18)
O4 O 1.2291(2) 0.5030(3) 0.31321(17)
O5 O 1.1959(2) 0.4218(3) 0.41774(16)
C27 C 0.1068(3) 0.5241(3) 0.78110(19)
C28 C 0.0950(7) 0.5319(5) 0.8520(4)
H40 H 0.1429 0.5750 0.8925
S3 S 0.0055(2) 0.4399(2) 0.72530(14)
C29 C -0.0025(4) 0.4654(4) 0.8619(3)
H41 H -0.0241 0.4607 0.9078
C30 C -0.0513(4) 0.4155(4) 0.7954(3)
H42 H -0.1144 0.3691 0.7881
C31 C 0.1944(3) 0.5821(3) 0.75086(19)
H43 H 0.203(2) 0.657(3) 0.7691(17)
C32 C 0.0847(3) 0.6641(3) 0.6222(2)
C33 C -0.0203(4) 0.7156(3) 0.4825(2)
C34 C -0.1422(4) 0.7008(4) 0.4879(3)
H44 H -0.1588 0.6268 0.4890
H45 H -0.2000 0.7327 0.4421
H46 H -0.1459 0.7334 0.5361
C35 C 0.0156(5) 0.8305(4) 0.4895(3)
H47 H 0.0211 0.8563 0.5417
H48 H -0.0428 0.8706 0.4492
H49 H 0.0913 0.8376 0.4820
C36 C -0.0130(6) 0.6670(5) 0.4052(3)
H50 H 0.0660 0.6756 0.4033
H51 H -0.0686 0.7016 0.3598
H52 H -0.0317 0.5932 0.4038
C37 C 0.3212(3) 0.5322(3) 0.77891(19)
C38 C 0.3114(3) 0.4182(3) 0.7470(2)
C39 C 0.3313(6) 0.2368(4) 0.8007(4)
H53 H 0.3114 0.2191 0.7449
H54 H 0.2711 0.2101 0.8207
H55 H 0.4065 0.2059 0.8305
C40 C 0.3761(3) 0.4066(3) 0.8831(2)
C41 C 0.3693(3) 0.5140(3) 0.8684(2)
C42 C 0.4014(3) 0.5864(4) 0.9305(2)
H56 H 0.3972 0.6588 0.9215
C43 C 0.4417(4) 0.5421(6) 1.0096(3)
H57 H 0.4623 0.5869 1.0538
C44 C 0.4503(4) 0.4368(7) 1.0215(3)
H58 H 0.4797 0.4115 1.0738
C45 C 0.4178(4) 0.3661(4) 0.9599(3)
H59 H 0.4233 0.2938 0.9693
C46 C 0.4977(3) 0.5618(3) 0.7433(2)
C47 C 0.6618(5) 0.6034(6) 0.7014(5)
H60 H 0.6560 0.5337 0.6776
H61 H 0.7240 0.6027 0.7533
C48 C 0.6871(7) 0.6842(9) 0.6480(6)
H62 H 0.7621 0.6690 0.6413
H63 H 0.6900 0.7527 0.6716
H64 H 0.6255 0.6828 0.5965
N4 N 0.3387(3) 0.3511(2) 0.8101(2)
N5 N 0.1540(3) 0.5868(2) 0.66456(16)
H65 H 0.1754 0.5375 0.6389
N6 N 0.3947(3) 0.5980(2) 0.74794(19)
H66 H 0.3721 0.6611 0.7323
O6 O 0.0661(3) 0.6520(2) 0.54390(14)
O7 O 0.0445(3) 0.7343(2) 0.65241(15)
O8 O 0.2792(3) 0.3924(2) 0.67658(16)
O9 O 0.5397(3) 0.4767(3) 0.76548(18)
O10 O 0.5481(2) 0.6349(3) 0.70929(19)
H28? H 0.7066 0.3467 -0.0971
H29? H 0.6776 0.5261 -0.0762
C23? C 0.7982(6) 0.3350(7) 0.0410(6)
H30? H 0.8215 0.2651 0.0521
S2? S 0.7599(3) 0.5232(3) 0.0515(3)
C24? C 0.549(2) 0.5589(12) 0.342(2)
H31? H 0.5255 0.6027 0.2953
H32? H 0.6158 0.5907 0.3826
H33? H 0.4845 0.5515 0.3626
C25? C 0.625(2) 0.3748(18) 0.3901(12)
H34? H 0.6399 0.3070 0.3712
H35? H 0.5642 0.3685 0.4142
H36? H 0.6967 0.4006 0.4292
C26? C 0.4805(14) 0.408(2) 0.2490(11)
H37? H 0.4546 0.4612 0.2085
H38? H 0.4160 0.3885 0.2673
H39? H 0.5063 0.3468 0.2270
C49? C 0.0259(7) 0.4574(5) 0.7389(6)
H67? H 0.0140 0.4370 0.6862
S4? S 0.0980(5) 0.5384(4) 0.8717(3)
H68? H -0.0309 0.4552 0.9044
H69? H -0.1142 0.3680 0.7825
C50? C 0.659(2) 0.601(3) 0.698(2)
H70? H 0.6790 0.5296 0.7169
H71? H 0.7241 0.6475 0.7270
C51? C 0.635(5) 0.609(6) 0.610(2)
H72? H 0.7091 0.6136 0.5996
H73? H 0.5879 0.6699 0.5891
H74? H 0.5933 0.5466 0.5842
loop_
_geom_bond_atom_site_label_1
_geom_bond_atom_site_label_2
_geom_bond_site_symmetry_1
_geom_bond_site_symmetry_2
C1 H1 1_555 1_555
C2 C1 1_555 1_555
H2 C2 1_555 1_555
C3 C2 1_555 1_555
H3 C3 1_555 1_555
S1 C1 1_555 1_555
C4 C3 1_555 1_555
C5 C4 1_555 1_555
H4 C5 1_555 1_555
C6 O1 1_555 1_555
O1 C7 1_555 1_555
C7 C8 1_555 1_555
C8 H5 1_555 1_555
H6 C8 1_555 1_555
H7 C8 1_555 1_555
C9 C7 1_555 1_555
H8 C9 1_555 1_555
H9 C9 1_555 1_555
H10 C9 1_555 1_555
C10 C7 1_555 1_555
H11 C10 1_555 1_555
H12 C10 1_555 1_555
H13 C10 1_555 1_555
C11 C5 1_555 1_555
C12 C11 1_555 1_555
C13 H14 1_555 1_555
H15 C13 1_555 1_555
H16 C13 1_555 1_555
C14 C15 1_555 1_555
C15 H17 1_555 1_555
C16 C15 1_555 1_555
H18 C16 1_555 1_555
C17 C16 1_555 1_555
H19 C17 1_555 1_555
C18 C17 1_555 1_555
H20 C18 1_555 1_555
C19 C11 1_555 1_555
C20 N2 1_555 1_555
C21 H21 1_555 1_555
H22 C21 1_555 1_555
C22 C21 1_555 1_555
H23 C22 1_555 1_555
H24 C22 1_555 1_555
H25 C22 1_555 1_555
N1 C5 1_555 1_555
H26 N1 1_555 1_555
N2 C11 1_555 1_555
H27 N2 1_555 1_555
N3 C12 1_555 1_555
O2 C6 1_555 1_555
O3 C12 1_555 1_555
O4 C20 1_555 1_555
O5 C20 1_555 1_555
C27 C28 1_555 1_555
C28 H40 1_555 1_555
S3 C27 1_555 1_555
C29 C28 1_555 1_555
H41 C29 1_555 1_555
C30 S3 1_555 1_555
H42 C30 1_555 1_555
C31 C27 1_555 1_555
H43 C31 1_555 1_555
C32 N5 1_555 1_555
C33 C34 1_555 1_555
C34 H44 1_555 1_555
H45 C34 1_555 1_555
H46 C34 1_555 1_555
C35 C33 1_555 1_555
H47 C35 1_555 1_555
H48 C35 1_555 1_555
H49 C35 1_555 1_555
C36 C33 1_555 1_555
H50 C36 1_555 1_555
H51 C36 1_555 1_555
H52 C36 1_555 1_555
C37 C31 1_555 1_555
C38 C37 1_555 1_555
C39 H53 1_555 1_555
H54 C39 1_555 1_555
H55 C39 1_555 1_555
C40 C41 1_555 1_555
C41 C37 1_555 1_555
C42 C41 1_555 1_555
H56 C42 1_555 1_555
C43 C42 1_555 1_555
H57 C43 1_555 1_555
C44 C43 1_555 1_555
H58 C44 1_555 1_555
C45 C40 1_555 1_555
H59 C45 1_555 1_555
C46 N6 1_555 1_555
C47 H60 1_555 1_555
H61 C47 1_555 1_555
C48 C47 1_555 1_555
H62 C48 1_555 1_555
H63 C48 1_555 1_555
H64 C48 1_555 1_555
N4 C38 1_555 1_555
N5 C31 1_555 1_555
H65 N5 1_555 1_555
N6 C37 1_555 1_555
H66 N6 1_555 1_555
O6 C32 1_555 1_555
O7 C32 1_555 1_555
O8 C38 1_555 1_555
O9 C46 1_555 1_555
O10 C46 1_555 1_555
S1 C4 1_555 1_555
C6 N1 1_555 1_555
C13 N3 1_555 1_555
C14 C19 1_555 1_555
C14 N3 1_555 1_555
C18 C19 1_555 1_555
C21 O5 1_555 1_555
C29 C30 1_555 1_555
C33 O6 1_555 1_555
C39 N4 1_555 1_555
C40 N4 1_555 1_555
C44 C45 1_555 1_555
C47 O10 1_555 1_555

#END
