
#######################################################################
#
#                 Cambridge Crystallographic Data Centre
#                                CCDC 
#
#######################################################################
#
# If this CIF has been generated from an entry in the Cambridge 
# Structural Database, then it will include bibliographic, chemical, 
# crystal, experimental, refinement or atomic coordinate data resulting 
# from the CCDC's data processing and validation procedures.
#
#######################################################################

data_KAHLOX
_chemical_name_common            'Vitamin D3'
_chemical_formula_moiety         'C27 H44 O1'
_chemical_name_systematic        9,10-Secocholesta-5,7,10-trien-3-ol
_symmetry_cell_setting           hexagonal
_symmetry_space_group_name_H-M   'P 65'
_symmetry_Int_Tables_number      170
_space_group_name_Hall           'P 65'
loop_
_symmetry_equiv_pos_site_id
_symmetry_equiv_pos_as_xyz
1 x,y,z
2 x-y,x,5/6+z
3 y,-x+y,1/6+z
4 -y,x-y,2/3+z
5 -x+y,-x,1/3+z
6 -x,-y,1/2+z
_cell_length_a                   28.2798(11)
_cell_length_b                   28.2798(11)
_cell_length_c                   5.9321(3)
_cell_angle_alpha                90
_cell_angle_beta                 90
_cell_angle_gamma                120
_cell_volume                     4108.58
_exptl_crystal_colour            colorless
_exptl_crystal_description       columnar
_cell_formula_units_Z            6
loop_
_atom_site_label
_atom_site_type_symbol
_atom_site_fract_x
_atom_site_fract_y
_atom_site_fract_z
O1 O 0.94824(12) 0.05613(12) 1.1387(6)
H1 H 0.9358 0.0247 1.0844
C1 C 0.90053(17) 0.15832(17) 1.1106(8)
H2 H 0.8650 0.1378 1.1895
H3 H 0.9184 0.1968 1.1618
C2 C 0.93679(17) 0.13390(17) 1.1727(8)
H4 H 0.9742 0.1578 1.1147
H5 H 0.9389 0.1319 1.3387
C3 C 0.91391(17) 0.07770(17) 1.0739(7)
H6 H 0.8768 0.0538 1.1397
C4 C 0.90819(17) 0.07819(17) 0.8195(7)
H7 H 0.9447 0.1001 0.7504
H8 H 0.8917 0.0404 0.7609
C5 C 0.87271(16) 0.10221(16) 0.7555(7)
C6 C 0.82857(17) 0.07560(18) 0.6236(8)
H9 H 0.8217 0.0418 0.5613
C7 C 0.79034(17) 0.09404(18) 0.5676(8)
H10 H 0.7904 0.1205 0.6661
C8 C 0.75547(17) 0.07869(19) 0.3971(8)
C9 C 0.74990(18) 0.0385(2) 0.2157(8)
H11 H 0.7655 0.0162 0.2725
H12 H 0.7716 0.0591 0.0828
C10 C 0.89088(17) 0.15606(18) 0.8618(7)
C11 C 0.6911(2) 0.0003(2) 0.1415(9)
H13 H 0.6914 -0.0190 0.0027
H14 H 0.6721 -0.0276 0.2601
C12 C 0.65906(19) 0.0294(2) 0.0965(8)
H15 H 0.6207 0.0020 0.0615
H16 H 0.6747 0.0534 -0.0366
C13 C 0.66036(17) 0.06363(19) 0.2987(8)
C14 C 0.72173(17) 0.10494(19) 0.3453(8)
H17 H 0.7367 0.1257 0.2017
C15 C 0.72060(19) 0.1454(2) 0.5122(9)
H18 H 0.7545 0.1813 0.5027
H19 H 0.7160 0.1316 0.6687
C16 C 0.6707(2) 0.1493(2) 0.4358(11)
H20 H 0.6827 0.1857 0.3699
H21 H 0.6468 0.1441 0.5663
C17 C 0.6393(2) 0.1042(2) 0.2574(9)
H22 H 0.6524 0.1210 0.1053
C18 C 0.6327(2) 0.0278(2) 0.5026(9)
H23 H 0.5962 -0.0015 0.4603
H24 H 0.6297 0.0499 0.6227
H25 H 0.6545 0.0119 0.5561
C19 C 0.90097(19) 0.20003(19) 0.7403(9)
H26 H 0.8965 0.1973 0.5813
H27 H 0.9126 0.2340 0.8132
C20 C 0.5771(2) 0.0823(2) 0.2671(10)
H28 H 0.5643 0.0671 0.4216
C21 C 0.5450(2) 0.0363(3) 0.0980(10)
H29 H 0.5064 0.0262 0.1023
H30 H 0.5485 0.0046 0.1373
H31 H 0.5595 0.0488 -0.0540
C22 C 0.5653(3) 0.1287(3) 0.2333(14)
H32 H 0.5651 0.1358 0.0700
H33 H 0.5946 0.1623 0.3043
C23 C 0.5074(3) 0.1144(4) 0.341(2)
H34 H 0.4780 0.0823 0.2622
H35 H 0.5067 0.1043 0.5014
C24 C 0.4965(3) 0.1580(4) 0.3276(15)
H36 H 0.4980 0.1684 0.1673
H37 H 0.5258 0.1898 0.4082
C25 C 0.4420(3) 0.1458(4) 0.4243(14)
H38 H 0.4131 0.1104 0.3592
C26 C 0.4298(4) 0.1901(4) 0.3534(17)
H39 H 0.3990 0.1868 0.4413
H40 H 0.4206 0.1861 0.1926
H41 H 0.4620 0.2260 0.3802
C27 C 0.4391(3) 0.1406(3) 0.6793(15)
H42 H 0.4454 0.1108 0.7246
H43 H 0.4030 0.1327 0.7310
H44 H 0.4672 0.1749 0.7467
loop_
_geom_bond_atom_site_label_1
_geom_bond_atom_site_label_2
_geom_bond_site_symmetry_1
_geom_bond_site_symmetry_2
O1 H1 1_555 1_555
C1 H2 1_555 1_555
H3 C1 1_555 1_555
C2 C1 1_555 1_555
H4 C2 1_555 1_555
H5 C2 1_555 1_555
C3 O1 1_555 1_555
H6 C3 1_555 1_555
C4 C3 1_555 1_555
H7 C4 1_555 1_555
H8 C4 1_555 1_555
C5 C4 1_555 1_555
C6 C5 1_555 1_555
H9 C6 1_555 1_555
C7 C6 1_555 1_555
H10 C7 1_555 1_555
C8 C7 1_555 1_555
C9 C8 1_555 1_555
H11 C9 1_555 1_555
H12 C9 1_555 1_555
C10 C1 1_555 1_555
C11 C9 1_555 1_555
H13 C11 1_555 1_555
H14 C11 1_555 1_555
C12 C11 1_555 1_555
H15 C12 1_555 1_555
H16 C12 1_555 1_555
C13 C12 1_555 1_555
C14 C8 1_555 1_555
H17 C14 1_555 1_555
C15 C14 1_555 1_555
H18 C15 1_555 1_555
H19 C15 1_555 1_555
C16 C15 1_555 1_555
H20 C16 1_555 1_555
H21 C16 1_555 1_555
C17 C13 1_555 1_555
H22 C17 1_555 1_555
C18 C13 1_555 1_555
H23 C18 1_555 1_555
H24 C18 1_555 1_555
H25 C18 1_555 1_555
C19 C10 1_555 1_555
H26 C19 1_555 1_555
H27 C19 1_555 1_555
C20 C17 1_555 1_555
H28 C20 1_555 1_555
C21 C20 1_555 1_555
H29 C21 1_555 1_555
H30 C21 1_555 1_555
H31 C21 1_555 1_555
C22 C20 1_555 1_555
H32 C22 1_555 1_555
H33 C22 1_555 1_555
C23 C22 1_555 1_555
H34 C23 1_555 1_555
H35 C23 1_555 1_555
C24 C23 1_555 1_555
H36 C24 1_555 1_555
H37 C24 1_555 1_555
C25 C24 1_555 1_555
H38 C25 1_555 1_555
C26 C25 1_555 1_555
H39 C26 1_555 1_555
H40 C26 1_555 1_555
H41 C26 1_555 1_555
C27 C25 1_555 1_555
H42 C27 1_555 1_555
H43 C27 1_555 1_555
H44 C27 1_555 1_555
C2 C3 1_555 1_555
C5 C10 1_555 1_555
C13 C14 1_555 1_555
C16 C17 1_555 1_555

#END
