
#######################################################################
#
#                 Cambridge Crystallographic Data Centre
#                                CCDC 
#
#######################################################################
#
# If this CIF has been generated from an entry in the Cambridge 
# Structural Database, then it will include bibliographic, chemical, 
# crystal, experimental, refinement or atomic coordinate data resulting 
# from the CCDC's data processing and validation procedures.
#
#######################################################################

data_KAHSEU
_chemical_name_common            "1,2-bis(2'-pyridyl) carborane"
_chemical_formula_moiety         'C12 H18 B10 N2'
_chemical_name_systematic        
1,2-bis(pyridin-2-yl)-1,2-dicarba-closo-dodecaborane(10)
_symmetry_cell_setting           triclinic
_symmetry_space_group_name_H-M   'P -1'
_symmetry_Int_Tables_number      2
_space_group_name_Hall           '-P 1'
loop_
_symmetry_equiv_pos_site_id
_symmetry_equiv_pos_as_xyz
1 x,y,z
2 -x,-y,-z
_cell_length_a                   10.8960(6)
_cell_length_b                   11.5827(7)
_cell_length_c                   13.8917(8)
_cell_angle_alpha                75.274(2)
_cell_angle_beta                 75.479(2)
_cell_angle_gamma                74.569(2)
_cell_volume                     1602.66
_exptl_crystal_colour            colorless
_exptl_crystal_description       prism
_cell_formula_units_Z            4
loop_
_atom_site_label
_atom_site_type_symbol
_atom_site_fract_x
_atom_site_fract_y
_atom_site_fract_z
N1 N 0.64860(11) 0.38088(10) 0.18554(8)
N2 N 0.39174(12) 0.41317(11) 0.37314(9)
C1 C 0.68490(12) 0.24124(11) 0.34118(9)
C2 C 0.56911(12) 0.26377(11) 0.44556(9)
C3 C 0.64907(12) 0.26721(12) 0.23848(9)
C4 C 0.62902(13) 0.17561(13) 0.20013(11)
H1 H 0.6309 0.0955 0.2400
C5 C 0.60619(14) 0.20421(14) 0.10218(11)
H2 H 0.5927 0.1436 0.0733
C6 C 0.60333(14) 0.32159(14) 0.04733(10)
H3 H 0.5860 0.3439 -0.0194
C7 C 0.62609(14) 0.40642(14) 0.09118(10)
H4 H 0.6258 0.4869 0.0524
C8 C 0.42857(12) 0.30484(12) 0.43478(9)
C9 C 0.34523(13) 0.23125(12) 0.48983(10)
H5 H 0.3753 0.1545 0.5307
C10 C 0.21532(15) 0.27279(15) 0.48377(11)
H6 H 0.1546 0.2244 0.5217
C11 C 0.17361(13) 0.38296(15) 0.42360(11)
H7 H 0.0844 0.4123 0.4199
C12 C 0.26437(15) 0.45012(14) 0.36855(12)
H8 H 0.2363 0.5258 0.3254
B1 B 0.64470(14) 0.11664(13) 0.43112(12)
H9 H 0.5943 0.0511 0.4179
B2 B 0.80881(14) 0.12174(14) 0.37220(12)
H10 H 0.8681 0.0580 0.3208
B3 B 0.82390(14) 0.27667(14) 0.34807(11)
H11 H 0.8928 0.3153 0.2807
B4 B 0.66963(14) 0.36631(13) 0.39317(11)
H12 H 0.6356 0.4635 0.3555
B5 B 0.61318(15) 0.16065(14) 0.55027(11)
H13 H 0.5428 0.1229 0.6170
B6 B 0.76615(15) 0.07072(15) 0.50531(12)
H14 H 0.7976 -0.0272 0.5425
B7 B 0.87749(15) 0.16990(15) 0.45403(12)
H15 H 0.9831 0.1377 0.4575
B8 B 0.79143(15) 0.32107(15) 0.46666(12)
H16 H 0.8399 0.3890 0.4783
B9 B 0.62798(15) 0.31476(14) 0.52646(11)
H17 H 0.5672 0.3786 0.5773
B10 B 0.75683(15) 0.19340(16) 0.56412(12)
H18 H 0.7828 0.1767 0.6403
N4 N 0.77071(11) 0.68432(11) -0.05120(8)
N5 N 0.58921(11) 0.90099(10) 0.12203(9)
C14 C 0.89428(12) 0.73837(11) 0.04726(9)
C15 C 0.78522(11) 0.75299(11) 0.15571(9)
C16 C 0.84402(12) 0.75929(12) -0.04936(9)
C17 C 0.87768(14) 0.85038(13) -0.13082(11)
H20 H 0.9301 0.9017 -0.1262
C18 C 0.83311(15) 0.86503(15) -0.21925(11)
H21 H 0.8544 0.9267 -0.2764
C19 C 0.75754(14) 0.78877(14) -0.22270(11)
H22 H 0.7253 0.7968 -0.2821
C20 C 0.72942(14) 0.70003(14) -0.13766(11)
H23 H 0.6778 0.6471 -0.1408
C21 C 0.64228(11) 0.78348(11) 0.15408(9)
C22 C 0.57193(12) 0.69216(12) 0.18882(9)
H24 H 0.6133 0.6096 0.2110
C23 C 0.43952(13) 0.72467(13) 0.19020(10)
H25 H 0.3883 0.6646 0.2140
C24 C 0.38322(13) 0.84524(14) 0.15657(10)
H26 H 0.2929 0.8698 0.1562
C25 C 0.46130(13) 0.92937(13) 0.12347(11)
H27 H 0.4221 1.0123 0.1003
B11 B 0.87102(13) 0.60863(13) 0.13817(11)
H28 H 0.8266 0.5367 0.1281
B12 B 1.02849(14) 0.62800(14) 0.07127(12)
H29 H 1.0891 0.5679 0.0174
B13 B 1.02943(14) 0.78638(14) 0.04743(12)
H30 H 1.0912 0.8304 -0.0223
B14 B 0.87271(14) 0.86560(13) 0.09804(12)
H31 H 0.8295 0.9609 0.0618
B15 B 0.84193(14) 0.65369(13) 0.25650(11)
H32 H 0.7788 0.6104 0.3256
B16 B 0.99847(14) 0.57435(14) 0.20514(12)
H33 H 1.0401 0.4781 0.2405
B17 B 1.09635(14) 0.68428(15) 0.14915(12)
H34 H 1.2033 0.6605 0.1476
B18 B 1.00010(15) 0.83126(15) 0.16518(13)
H35 H 1.0429 0.9049 0.1741
B19 B 0.84274(14) 0.81201(14) 0.23184(12)
H36 H 0.7802 0.8729 0.2845
B20 B 0.98168(15) 0.69996(15) 0.26329(12)
H37 H 1.0125 0.6866 0.3372
N3? N 0.34523(13) 0.23125(12) 0.48983(10)
C13? C 0.39174(12) 0.41317(11) 0.37314(9)
H19? H 0.4526 0.4612 0.3348
loop_
_geom_bond_atom_site_label_1
_geom_bond_atom_site_label_2
_geom_bond_site_symmetry_1
_geom_bond_site_symmetry_2
N1 C3 1_555 1_555
N2 C8 1_555 1_555
C1 C2 1_555 1_555
C2 C8 1_555 1_555
C3 C1 1_555 1_555
C4 C3 1_555 1_555
H1 C4 1_555 1_555
C5 C4 1_555 1_555
H2 C5 1_555 1_555
C6 C5 1_555 1_555
H3 C6 1_555 1_555
C7 N1 1_555 1_555
H4 C7 1_555 1_555
C8 C9 1_555 1_555
C9 H5 1_555 1_555
C10 C9 1_555 1_555
H6 C10 1_555 1_555
C11 C10 1_555 1_555
H7 C11 1_555 1_555
C12 N2 1_555 1_555
H8 C12 1_555 1_555
B1 C1 1_555 1_555
H9 B1 1_555 1_555
B2 C1 1_555 1_555
H10 B2 1_555 1_555
B3 C1 1_555 1_555
H11 B3 1_555 1_555
B4 C1 1_555 1_555
H12 B4 1_555 1_555
B5 C2 1_555 1_555
H13 B5 1_555 1_555
B6 B1 1_555 1_555
H14 B6 1_555 1_555
B7 B2 1_555 1_555
H15 B7 1_555 1_555
B8 B3 1_555 1_555
H16 B8 1_555 1_555
B9 C2 1_555 1_555
H17 B9 1_555 1_555
B10 B5 1_555 1_555
H18 B10 1_555 1_555
N4 C16 1_555 1_555
N5 C21 1_555 1_555
C14 C15 1_555 1_555
C15 C21 1_555 1_555
C16 C14 1_555 1_555
C17 C16 1_555 1_555
H20 C17 1_555 1_555
C18 C17 1_555 1_555
H21 C18 1_555 1_555
C19 C18 1_555 1_555
H22 C19 1_555 1_555
C20 N4 1_555 1_555
H23 C20 1_555 1_555
C21 C22 1_555 1_555
C22 H24 1_555 1_555
C23 C22 1_555 1_555
H25 C23 1_555 1_555
C24 C23 1_555 1_555
H26 C24 1_555 1_555
C25 N5 1_555 1_555
H27 C25 1_555 1_555
B11 C14 1_555 1_555
H28 B11 1_555 1_555
B12 C14 1_555 1_555
H29 B12 1_555 1_555
B13 C14 1_555 1_555
H30 B13 1_555 1_555
B14 C14 1_555 1_555
H31 B14 1_555 1_555
B15 C15 1_555 1_555
H32 B15 1_555 1_555
B16 B11 1_555 1_555
H33 B16 1_555 1_555
B17 B12 1_555 1_555
H34 B17 1_555 1_555
B18 B13 1_555 1_555
H35 B18 1_555 1_555
B19 C15 1_555 1_555
H36 B19 1_555 1_555
B20 B15 1_555 1_555
H37 B20 1_555 1_555
C2 B1 1_555 1_555
C2 B4 1_555 1_555
C6 C7 1_555 1_555
C11 C12 1_555 1_555
B1 B2 1_555 1_555
B1 B5 1_555 1_555
B2 B3 1_555 1_555
B2 B6 1_555 1_555
B3 B4 1_555 1_555
B3 B7 1_555 1_555
B4 B8 1_555 1_555
B4 B9 1_555 1_555
B5 B6 1_555 1_555
B5 B9 1_555 1_555
B6 B7 1_555 1_555
B6 B10 1_555 1_555
B7 B8 1_555 1_555
B7 B10 1_555 1_555
B8 B9 1_555 1_555
B8 B10 1_555 1_555
B9 B10 1_555 1_555
C15 B11 1_555 1_555
C15 B14 1_555 1_555
C19 C20 1_555 1_555
C24 C25 1_555 1_555
B11 B12 1_555 1_555
B11 B15 1_555 1_555
B12 B13 1_555 1_555
B12 B16 1_555 1_555
B13 B14 1_555 1_555
B13 B17 1_555 1_555
B14 B18 1_555 1_555
B14 B19 1_555 1_555
B15 B16 1_555 1_555
B15 B19 1_555 1_555
B16 B17 1_555 1_555
B16 B20 1_555 1_555
B17 B18 1_555 1_555
B17 B20 1_555 1_555
B18 B19 1_555 1_555
B18 B20 1_555 1_555
B19 B20 1_555 1_555

#END
