
#######################################################################
#
#                 Cambridge Crystallographic Data Centre
#                                CCDC 
#
#######################################################################
#
# If this CIF has been generated from an entry in the Cambridge 
# Structural Database, then it will include bibliographic, chemical, 
# crystal, experimental, refinement or atomic coordinate data resulting 
# from the CCDC's data processing and validation procedures.
#
#######################################################################

data_KAHTAO01
_chemical_compound_source        'Bupleurum sibricum vest'
_chemical_formula_moiety         'C24 H28 O4'
_chemical_name_systematic        
6,16-bis(Butenylidene)-5,15-dioxa-pentacyclo(9.5.2.0^1,13^.0^2,10^.0^3,7^)-octadeca-3(7),12-diene-4,14-dione
_symmetry_cell_setting           monoclinic
_symmetry_space_group_name_H-M   'P 21/n'
_symmetry_Int_Tables_number      14
_space_group_name_Hall           '-P 2yn'
loop_
_symmetry_equiv_pos_site_id
_symmetry_equiv_pos_as_xyz
1 x,y,z
2 1/2-x,1/2+y,1/2-z
3 -x,-y,-z
4 1/2+x,1/2-y,1/2+z
_cell_length_a                   26.345(4)
_cell_length_b                   8.313(6)
_cell_length_c                   9.297(1)
_cell_angle_alpha                90
_cell_angle_beta                 86.33(3)
_cell_angle_gamma                90
_cell_volume                     2031.92
_cell_formula_units_Z            4
loop_
_atom_site_label
_atom_site_type_symbol
_atom_site_fract_x
_atom_site_fract_y
_atom_site_fract_z
O1 O 0.1295(2) 0.1986(5) 0.3059(4)
O2 O 0.0591(2) 0.0470(5) 0.3468(4)
O3 O 0.1478(1) -0.2603(4) 0.5573(4)
O4 O 0.2255(1) -0.2280(5) 0.6367(5)
C1 C 0.0799(2) 0.0876(6) 0.6776(5)
C2 C 0.0898(2) 0.1916(6) 0.8120(5)
C3 C 0.1159(2) 0.3519(6) 0.7781(6)
C4 C 0.1611(2) 0.3401(6) 0.6702(6)
C5 C 0.1449(2) 0.2583(6) 0.5401(5)
C6 C 0.1605(2) 0.2890(6) 0.3929(6)
C7 C 0.0945(2) 0.1196(6) 0.3967(5)
C8 C 0.1066(2) 0.1492(5) 0.5451(5)
C9 C 0.1958(2) 0.3859(7) 0.3340(7)
C10 C 0.2086(3) 0.4135(9) 0.1807(8)
C11 C 0.2063(4) 0.5870(1) 0.1335(8)
C12 C 0.2150(4) 0.6190(1) -0.011(1)
C13 C 0.1643(2) 0.0135(6) 0.8496(6)
C14 C 0.1191(2) 0.0932(7) 0.9233(5)
C15 C 0.0802(3) -0.0421(8) 0.9792(6)
C16 C 0.0671(2) -0.1422(7) 0.8526(6)
C17 C 0.0969(2) -0.0904(6) 0.7134(5)
C18 C 0.0971(2) -0.2086(6) 0.5937(5)
C19 C 0.1815(2) -0.1902(6) 0.6467(6)
C20 C 0.1526(2) -0.0820(6) 0.7431(5)
C21 C 0.0595(2) -0.2740(7) 0.5283(6)
C22 C 0.0639(2) -0.4029(8) 0.4174(6)
C23 C 0.0371(2) -0.3707(9) 0.2871(7)
C24 C 0.0404(3) -0.4952(9) 0.1731(6)
loop_
_geom_bond_atom_site_label_1
_geom_bond_atom_site_label_2
_geom_bond_site_symmetry_1
_geom_bond_site_symmetry_2
O1 C6 1_555 1_555
O2 C7 1_555 1_555
O3 C18 1_555 1_555
O4 C19 1_555 1_555
C1 C2 1_555 1_555
C2 C3 1_555 1_555
C3 C4 1_555 1_555
C4 C5 1_555 1_555
C5 C6 1_555 1_555
C6 C9 1_555 1_555
C7 O1 1_555 1_555
C8 C1 1_555 1_555
C9 C10 1_555 1_555
C10 C11 1_555 1_555
C11 C12 1_555 1_555
C13 C14 1_555 1_555
C14 C2 1_555 1_555
C15 C14 1_555 1_555
C16 C15 1_555 1_555
C17 C1 1_555 1_555
C18 C17 1_555 1_555
C19 O3 1_555 1_555
C20 C13 1_555 1_555
C21 C18 1_555 1_555
C22 C21 1_555 1_555
C23 C22 1_555 1_555
C24 C23 1_555 1_555
C5 C8 1_555 1_555
C7 C8 1_555 1_555
C16 C17 1_555 1_555
C17 C20 1_555 1_555
C19 C20 1_555 1_555

#END
