
#######################################################################
#
#                 Cambridge Crystallographic Data Centre
#                                CCDC 
#
#######################################################################
#
# If this CIF has been generated from an entry in the Cambridge 
# Structural Database, then it will include bibliographic, chemical, 
# crystal, experimental, refinement or atomic coordinate data resulting 
# from the CCDC's data processing and validation procedures.
#
#######################################################################

data_KAJGAG
_chemical_formula_moiety         'C27 H25 N1 O4'
_chemical_name_systematic        
'3,5-dimethyl-2,4-diphenylhexa-2,4-dien-1-yl 4-nitrobenzoate'
_symmetry_cell_setting           orthorhombic
_symmetry_space_group_name_H-M   'P n a 21'
_symmetry_Int_Tables_number      33
_space_group_name_Hall           'P 2c -2n'
loop_
_symmetry_equiv_pos_site_id
_symmetry_equiv_pos_as_xyz
1 x,y,z
2 -x,-y,1/2+z
3 1/2-x,1/2+y,1/2+z
4 1/2+x,1/2-y,z
_cell_length_a                   25.893(5)
_cell_length_b                   12.995(3)
_cell_length_c                   6.5547(14)
_cell_angle_alpha                90
_cell_angle_beta                 90
_cell_angle_gamma                90
_cell_volume                     2205.52
_exptl_crystal_colour            colorless
_exptl_crystal_description       plate
_cell_formula_units_Z            4
loop_
_atom_site_label
_atom_site_type_symbol
_atom_site_fract_x
_atom_site_fract_y
_atom_site_fract_z
O1 O 0.07132(8) 0.74905(18) 0.4429(4)
O2 O 0.04045(9) 0.6781(2) 0.1552(4)
O3 O -0.10947(11) 0.4880(2) 0.9982(5)
O4 O -0.16062(10) 0.4871(2) 0.7384(5)
N1 N -0.11950(11) 0.5081(2) 0.8200(5)
C1 C 0.11650(13) 0.7870(3) 0.3323(6)
H1 H 0.1064 0.8102 0.1941
H2 H 0.1425 0.7316 0.3182
C2 C 0.13843(13) 0.8749(3) 0.4516(6)
C3 C 0.18367(13) 0.8685(3) 0.5473(6)
C4 C 0.20723(14) 0.9567(3) 0.6621(7)
H3 H 0.1882 1.0200 0.6312
H4 H 0.2434 0.9648 0.6210
H5 H 0.2055 0.9429 0.8089
C5 C 0.21500(13) 0.7709(3) 0.5490(5)
C6 C 0.20326(14) 0.6932(3) 0.6766(6)
C7 C 0.23024(15) 0.5902(3) 0.6806(7)
H6 H 0.2561 0.5898 0.7897
H7 H 0.2473 0.5783 0.5491
H8 H 0.2049 0.5357 0.7054
C8 C 0.16049(15) 0.6997(3) 0.8296(6)
H9 H 0.1322 0.6543 0.7880
H10 H 0.1479 0.7707 0.8374
H11 H 0.1734 0.6783 0.9637
C9 C 0.25883(13) 0.7676(3) 0.4001(6)
C10 C 0.25289(13) 0.8066(3) 0.2038(6)
H12 H 0.2211 0.8382 0.1670
C11 C 0.29216(15) 0.8005(3) 0.0611(6)
H13 H 0.2870 0.8271 -0.0725
C12 C 0.33877(15) 0.7558(3) 0.1125(7)
H14 H 0.3656 0.7502 0.0144
C13 C 0.34583(15) 0.7195(3) 0.3087(7)
H15 H 0.3780 0.6896 0.3455
C14 C 0.30686(14) 0.7259(3) 0.4523(7)
H16 H 0.3127 0.7018 0.5872
C15 C 0.10384(12) 0.9676(3) 0.4542(6)
C16 C 0.07253(14) 0.9865(3) 0.6213(6)
H17 H 0.0748 0.9434 0.7379
C17 C 0.03751(15) 1.0686(3) 0.6197(7)
H18 H 0.0160 1.0804 0.7347
C18 C 0.03420(14) 1.1319(3) 0.4528(7)
H19 H 0.0107 1.1881 0.4525
C19 C 0.06521(15) 1.1135(3) 0.2851(7)
H20 H 0.0629 1.1569 0.1689
C20 C 0.09974(15) 1.0317(3) 0.2856(6)
H21 H 0.1208 1.0195 0.1694
C21 C 0.03743(13) 0.6939(3) 0.3359(6)
C22 C -0.00416(13) 0.6516(3) 0.4684(6)
C23 C 0.00400(13) 0.6342(3) 0.6758(6)
H22 H 0.0355 0.6546 0.7378
C24 C -0.03396(13) 0.5874(3) 0.7906(6)
H23 H -0.0285 0.5740 0.9314
C25 C -0.07990(13) 0.5601(3) 0.6988(6)
C26 C -0.08948(14) 0.5780(3) 0.4939(6)
H24 H -0.1215 0.5594 0.4337
C27 C -0.05080(13) 0.6237(3) 0.3798(6)
H25 H -0.0563 0.6362 0.2387
loop_
_geom_bond_atom_site_label_1
_geom_bond_atom_site_label_2
_geom_bond_site_symmetry_1
_geom_bond_site_symmetry_2
O1 C1 1_555 1_555
O2 C21 1_555 1_555
O3 N1 1_555 1_555
O4 N1 1_555 1_555
N1 C25 1_555 1_555
C1 H1 1_555 1_555
H2 C1 1_555 1_555
C2 C1 1_555 1_555
C3 C2 1_555 1_555
C4 C3 1_555 1_555
H3 C4 1_555 1_555
H4 C4 1_555 1_555
H5 C4 1_555 1_555
C5 C3 1_555 1_555
C6 C5 1_555 1_555
C7 C6 1_555 1_555
H6 C7 1_555 1_555
H7 C7 1_555 1_555
H8 C7 1_555 1_555
C8 C6 1_555 1_555
H9 C8 1_555 1_555
H10 C8 1_555 1_555
H11 C8 1_555 1_555
C9 C5 1_555 1_555
C10 C9 1_555 1_555
H12 C10 1_555 1_555
C11 C10 1_555 1_555
H13 C11 1_555 1_555
C12 C11 1_555 1_555
H14 C12 1_555 1_555
C13 C12 1_555 1_555
H15 C13 1_555 1_555
C14 C9 1_555 1_555
H16 C14 1_555 1_555
C15 C2 1_555 1_555
C16 C15 1_555 1_555
H17 C16 1_555 1_555
C17 C16 1_555 1_555
H18 C17 1_555 1_555
C18 C17 1_555 1_555
H19 C18 1_555 1_555
C19 C18 1_555 1_555
H20 C19 1_555 1_555
C20 C15 1_555 1_555
H21 C20 1_555 1_555
C21 O1 1_555 1_555
C22 C21 1_555 1_555
C23 C22 1_555 1_555
H22 C23 1_555 1_555
C24 C23 1_555 1_555
H23 C24 1_555 1_555
C25 C24 1_555 1_555
C26 C25 1_555 1_555
H24 C26 1_555 1_555
C27 C22 1_555 1_555
H25 C27 1_555 1_555
C13 C14 1_555 1_555
C19 C20 1_555 1_555
C26 C27 1_555 1_555

#END
