
#######################################################################
#
#                 Cambridge Crystallographic Data Centre
#                                CCDC 
#
#######################################################################
#
# If this CIF has been generated from an entry in the Cambridge 
# Structural Database, then it will include bibliographic, chemical, 
# crystal, experimental, refinement or atomic coordinate data resulting 
# from the CCDC's data processing and validation procedures.
#
#######################################################################

data_KAJGOU
_chemical_formula_moiety         'C15 H15 N1 O3'
_chemical_name_systematic        
6-hydroxy-3,4a,5-trimethyl-4,4a-dihydro-1H-benzo[f]indole-2,7-dione
_symmetry_cell_setting           monoclinic
_symmetry_space_group_name_H-M   'P 21'
_symmetry_Int_Tables_number      4
_space_group_name_Hall           'P 2yb'
loop_
_symmetry_equiv_pos_site_id
_symmetry_equiv_pos_as_xyz
1 x,y,z
2 -x,1/2+y,-z
_cell_length_a                   10.2550(4)
_cell_length_b                   8.8388(4)
_cell_length_c                   14.0241(6)
_cell_angle_alpha                90
_cell_angle_beta                 91.441(2)
_cell_angle_gamma                90
_cell_volume                     1270.77
_exptl_crystal_colour            yellow
_exptl_crystal_description       block
_cell_formula_units_Z            4
loop_
_atom_site_label
_atom_site_type_symbol
_atom_site_fract_x
_atom_site_fract_y
_atom_site_fract_z
N1 N 0.39910(15) 0.11353(17) 0.07453(11)
H1 H 0.3854 0.0617 0.0216
O1 O 0.77385(13) -0.38811(15) 0.38400(9)
C1 C 0.39057(17) -0.0481(2) 0.37693(13)
H2 H 0.3852 -0.1542 0.3967
H3 H 0.3322 -0.0311 0.3215
H4 H 0.3645 0.0174 0.4295
O2 O 0.77001(14) -0.18980(17) 0.52660(9)
H5 H 0.810(2) -0.276(3) 0.5131(17)
C2 C 0.36250(17) 0.2623(2) 0.08837(13)
O3 O 0.30477(14) 0.34111(16) 0.02931(9)
C3 C 0.40898(18) 0.3044(2) 0.18614(13)
C4 C 0.3935(2) 0.4611(2) 0.22370(14)
H6 H 0.4297 0.4665 0.2890
H7 H 0.3007 0.4875 0.2237
H8 H 0.4399 0.5323 0.1831
C5 C 0.46687(17) 0.1818(2) 0.22508(13)
C6 C 0.53815(17) 0.1574(2) 0.31865(13)
H9 H 0.4982 0.2210 0.3682
H10 H 0.6301 0.1893 0.3128
C7 C 0.53378(17) -0.0104(2) 0.34983(12)
C8 C 0.56656(17) -0.1142(2) 0.26709(13)
C9 C 0.51232(17) -0.0795(2) 0.17375(13)
H11 H 0.5131 -0.1536 0.1247
C10 C 0.46049(17) 0.0583(2) 0.15626(12)
C11 C 0.64075(18) -0.2397(2) 0.27987(13)
H12 H 0.6499 -0.3079 0.2281
C12 C 0.70628(17) -0.2730(2) 0.36958(13)
C13 C 0.69539(18) -0.1610(2) 0.44563(13)
C14 C 0.62100(17) -0.0366(2) 0.43730(13)
C15 C 0.6191(2) 0.0791(2) 0.51585(13)
H13 H 0.6795 0.0483 0.5675
H14 H 0.5306 0.0868 0.5403
H15 H 0.6458 0.1776 0.4909
N2 N 1.19822(15) 0.88581(18) 0.77359(11)
H16 H 1.1952 0.9572 0.7299
O4 O 1.31916(13) 1.00979(15) 0.89164(9)
O5 O 0.92116(13) 0.22088(16) 0.54702(9)
O6 O 0.93412(13) 0.06650(16) 0.70812(10)
H17 H 0.916(2) 0.046(3) 0.6531(17)
C16 C 0.89451(17) 0.5328(2) 0.84090(13)
H18 H 0.8163 0.5106 0.8018
H19 H 0.9074 0.6425 0.8444
H20 H 0.8838 0.4924 0.9053
C17 C 1.25963(17) 0.8977(2) 0.86170(13)
C18 C 1.24200(17) 0.7514(2) 0.91108(13)
C19 C 1.30140(18) 0.7197(2) 1.00685(13)
H21 H 1.2781 0.6171 1.0267
H22 H 1.2687 0.7928 1.0530
H23 H 1.3965 0.7283 1.0039
C20 C 1.17243(17) 0.6606(2) 0.85196(13)
C21 C 1.13708(17) 0.4979(2) 0.85923(13)
H24 H 1.1187 0.4733 0.9264
H25 H 1.2119 0.4353 0.8398
C22 C 1.01527(17) 0.4580(2) 0.79519(13)
C23 C 1.02722(17) 0.5288(2) 0.69645(13)
C24 C 1.07591(18) 0.6823(2) 0.68938(13)
H26 H 1.0616 0.7391 0.6326
C25 C 1.14194(17) 0.7437(2) 0.76454(13)
C26 C 0.99428(17) 0.2883(2) 0.79352(13)
C27 C 1.01041(19) 0.2019(2) 0.88540(13)
H27 H 0.9940 0.0942 0.8736
H28 H 0.9482 0.2399 0.9316
H29 H 1.0995 0.2153 0.9109
C28 C 0.96031(17) 0.2182(2) 0.71202(13)
C29 C 0.95295(18) 0.2956(2) 0.61934(13)
C30 C 0.99026(17) 0.4529(2) 0.61656(13)
H30 H 0.9888 0.5044 0.5571
loop_
_geom_bond_atom_site_label_1
_geom_bond_atom_site_label_2
_geom_bond_site_symmetry_1
_geom_bond_site_symmetry_2
N1 H1 1_555 1_555
O1 C12 1_555 1_555
C1 H2 1_555 1_555
H3 C1 1_555 1_555
H4 C1 1_555 1_555
O2 H5 1_555 1_555
C2 N1 1_555 1_555
O3 C2 1_555 1_555
C3 C2 1_555 1_555
C4 C3 1_555 1_555
H6 C4 1_555 1_555
H7 C4 1_555 1_555
H8 C4 1_555 1_555
C5 C3 1_555 1_555
C6 C5 1_555 1_555
H9 C6 1_555 1_555
H10 C6 1_555 1_555
C7 C1 1_555 1_555
C8 C7 1_555 1_555
C9 C8 1_555 1_555
H11 C9 1_555 1_555
C10 N1 1_555 1_555
C11 C8 1_555 1_555
H12 C11 1_555 1_555
C12 C11 1_555 1_555
C13 O2 1_555 1_555
C14 C7 1_555 1_555
C15 C14 1_555 1_555
H13 C15 1_555 1_555
H14 C15 1_555 1_555
H15 C15 1_555 1_555
N2 H16 1_555 1_555
O4 C17 1_555 1_555
O5 C29 1_555 1_555
O6 H17 1_555 1_555
C16 H18 1_555 1_555
H19 C16 1_555 1_555
H20 C16 1_555 1_555
C17 N2 1_555 1_555
C18 C17 1_555 1_555
C19 C18 1_555 1_555
H21 C19 1_555 1_555
H22 C19 1_555 1_555
H23 C19 1_555 1_555
C20 C18 1_555 1_555
C21 C20 1_555 1_555
H24 C21 1_555 1_555
H25 C21 1_555 1_555
C22 C16 1_555 1_555
C23 C22 1_555 1_555
C24 C23 1_555 1_555
H26 C24 1_555 1_555
C25 N2 1_555 1_555
C26 C22 1_555 1_555
C27 C26 1_555 1_555
H27 C27 1_555 1_555
H28 C27 1_555 1_555
H29 C27 1_555 1_555
C28 O6 1_555 1_555
C29 C28 1_555 1_555
C30 C23 1_555 1_555
H30 C30 1_555 1_555
C5 C10 1_555 1_555
C6 C7 1_555 1_555
C9 C10 1_555 1_555
C12 C13 1_555 1_555
C13 C14 1_555 1_555
C20 C25 1_555 1_555
C21 C22 1_555 1_555
C24 C25 1_555 1_555
C26 C28 1_555 1_555
C29 C30 1_555 1_555

#END
