
#######################################################################
#
#                 Cambridge Crystallographic Data Centre
#                                CCDC 
#
#######################################################################
#
# If this CIF has been generated from an entry in the Cambridge 
# Structural Database, then it will include bibliographic, chemical, 
# crystal, experimental, refinement or atomic coordinate data resulting 
# from the CCDC's data processing and validation procedures.
#
#######################################################################

data_KAJHIP
_chemical_formula_moiety         'C21 H15 Br1 O4'
_chemical_name_systematic        
11-(4-bromophenyl)-3,3a,11,11a-tetrahydro-4H-cyclopenta[4,5]pyrano[3,2-c]chromene-1,4(2H)-dione
_symmetry_cell_setting           orthorhombic
_symmetry_space_group_name_H-M   'P 21 21 21'
_symmetry_Int_Tables_number      19
_space_group_name_Hall           'P 2ac 2ab'
loop_
_symmetry_equiv_pos_site_id
_symmetry_equiv_pos_as_xyz
1 x,y,z
2 1/2-x,-y,1/2+z
3 -x,1/2+y,1/2-z
4 1/2+x,1/2-y,-z
_cell_length_a                   5.5081(14)
_cell_length_b                   15.560(4)
_cell_length_c                   19.522(5)
_cell_angle_alpha                90
_cell_angle_beta                 90
_cell_angle_gamma                90
_cell_volume                     1673.15
_exptl_crystal_colour            colorless
_exptl_crystal_description       Plate
_cell_formula_units_Z            4
loop_
_atom_site_label
_atom_site_type_symbol
_atom_site_fract_x
_atom_site_fract_y
_atom_site_fract_z
Br1 Br -0.01579(9) 0.41139(3) 0.52409(2)
O1 O 0.8158(5) 0.62616(17) 0.71624(15)
O2 O 0.5913(6) 0.87056(17) 0.66610(15)
O3 O 0.2752(6) 0.86195(18) 0.73492(16)
O4 O 0.8930(6) 0.5929(2) 0.87814(18)
C1 C 0.6429(8) 0.5679(2) 0.7481(2)
H1 H 0.7355 0.5190 0.7658
C2 C 0.5287(8) 0.6127(2) 0.8092(2)
H2 H 0.4125 0.5738 0.8312
C3 C 0.4009(8) 0.6981(3) 0.7919(2)
H3 H 0.2303 0.6884 0.7800
C4 C 0.5333(8) 0.7415(2) 0.73429(19)
C5 C 0.7285(7) 0.7057(2) 0.7020(2)
C6 C 0.8633(8) 0.7508(3) 0.6497(2)
C7 C 1.0631(8) 0.7171(3) 0.6152(2)
H4 H 1.1111 0.6607 0.6233
C8 C 1.1901(8) 0.7667(3) 0.5690(2)
H5 H 1.3219 0.7437 0.5455
C9 C 1.1197(9) 0.8514(3) 0.5577(2)
H6 H 1.2089 0.8855 0.5277
C10 C 0.9194(9) 0.8856(3) 0.5903(2)
H7 H 0.8721 0.9420 0.5819
C11 C 0.7912(8) 0.8352(2) 0.6352(2)
C12 C 0.4540(8) 0.8261(2) 0.7132(2)
C13 C 0.4229(9) 0.7488(3) 0.8600(2)
H8 H 0.4050 0.8100 0.8522
H9 H 0.3005 0.7303 0.8925
C14 C 0.6767(9) 0.7278(3) 0.8860(2)
H10 H 0.7950 0.7677 0.8675
H11 H 0.6827 0.7304 0.9356
C15 C 0.7251(9) 0.6381(3) 0.8611(2)
C16 C 0.4730(8) 0.5334(2) 0.6938(2)
C17 C 0.2551(8) 0.4932(3) 0.7111(2)
H12 H 0.2063 0.4917 0.7567
C18 C 0.1103(8) 0.4554(3) 0.6617(2)
H13 H -0.0328 0.4275 0.6738
C19 C 0.1821(8) 0.4597(3) 0.5942(2)
C20 C 0.3964(8) 0.4991(3) 0.5752(2)
H14 H 0.4433 0.5008 0.5295
C21 C 0.5398(8) 0.5359(3) 0.6252(2)
H15 H 0.6839 0.5629 0.6127
loop_
_geom_bond_atom_site_label_1
_geom_bond_atom_site_label_2
_geom_bond_site_symmetry_1
_geom_bond_site_symmetry_2
Br1 C19 1_555 1_555
O1 C1 1_555 1_555
O2 C11 1_555 1_555
O3 C12 1_555 1_555
O4 C15 1_555 1_555
C1 H1 1_555 1_555
C2 C1 1_555 1_555
H2 C2 1_555 1_555
C3 C2 1_555 1_555
H3 C3 1_555 1_555
C4 C3 1_555 1_555
C5 O1 1_555 1_555
C6 C5 1_555 1_555
C7 C6 1_555 1_555
H4 C7 1_555 1_555
C8 C7 1_555 1_555
H5 C8 1_555 1_555
C9 C8 1_555 1_555
H6 C9 1_555 1_555
C10 C9 1_555 1_555
H7 C10 1_555 1_555
C11 C6 1_555 1_555
C12 O2 1_555 1_555
C13 C3 1_555 1_555
H8 C13 1_555 1_555
H9 C13 1_555 1_555
C14 C13 1_555 1_555
H10 C14 1_555 1_555
H11 C14 1_555 1_555
C15 C2 1_555 1_555
C16 C1 1_555 1_555
C17 C16 1_555 1_555
H12 C17 1_555 1_555
C18 C17 1_555 1_555
H13 C18 1_555 1_555
C19 C18 1_555 1_555
C20 C19 1_555 1_555
H14 C20 1_555 1_555
C21 C16 1_555 1_555
H15 C21 1_555 1_555
C4 C5 1_555 1_555
C4 C12 1_555 1_555
C10 C11 1_555 1_555
C14 C15 1_555 1_555
C20 C21 1_555 1_555

#END
