
#######################################################################
#
#                 Cambridge Crystallographic Data Centre
#                                CCDC 
#
#######################################################################
#
# If this CIF has been generated from an entry in the Cambridge 
# Structural Database, then it will include bibliographic, chemical, 
# crystal, experimental, refinement or atomic coordinate data resulting 
# from the CCDC's data processing and validation procedures.
#
#######################################################################

data_KAJJUA
_chemical_formula_moiety         'C18 H18 N2 O3 S1'
_chemical_name_systematic        
5,7-Dimethyl-2-phenylsulfonyl-2,7-diazabenzo(c)bicyclo(3.2.1)octan-6-one
_symmetry_cell_setting           monoclinic
_symmetry_space_group_name_H-M   'P 21/c'
_symmetry_Int_Tables_number      14
_space_group_name_Hall           '-P 2ybc'
loop_
_symmetry_equiv_pos_site_id
_symmetry_equiv_pos_as_xyz
1 x,y,z
2 -x,1/2+y,1/2-z
3 -x,-y,-z
4 x,1/2-y,1/2+z
_cell_length_a                   8.428(3)
_cell_length_b                   8.586(5)
_cell_length_c                   22.786(13)
_cell_angle_alpha                90
_cell_angle_beta                 98.70(4)
_cell_angle_gamma                90
_cell_volume                     1629.89
_cell_formula_units_Z            4
loop_
_atom_site_label
_atom_site_type_symbol
_atom_site_fract_x
_atom_site_fract_y
_atom_site_fract_z
S1 S 0.4168(2) 0.7709(2) 0.3089(1)
O1 O 0.3198(4) 0.9043(4) 0.3163(2)
O2 O 0.4264(5) 0.7170(5) 0.2502(1)
C1 C 0.6123(6) 0.8083(6) 0.3457(2)
C2 C 0.6569(7) 0.9605(6) 0.3601(2)
C3 C 0.8109(7) 0.9906(7) 0.3874(3)
C4 C 0.9168(7) 0.8713(8) 0.4009(3)
C5 C 0.8728(7) 0.7205(8) 0.3864(3)
C6 C 0.7211(7) 0.6868(6) 0.3582(3)
N1 N 0.3563(5) 0.6198(5) 0.3441(2)
C7 C 0.3275(5) 0.6265(6) 0.4044(2)
C8 C 0.3559(6) 0.7612(6) 0.4382(2)
C9 C 0.3214(7) 0.7647(8) 0.4955(2)
C10 C 0.2612(7) 0.6371(8) 0.5199(3)
C11 C 0.2369(7) 0.5019(7) 0.4871(2)
C12 C 0.2703(5) 0.4922(6) 0.4295(2)
C13 C 0.2408(6) 0.3431(6) 0.3928(2)
C14 C 0.0897(7) 0.3790(6) 0.3487(2)
N2 N 0.1390(5) 0.4534(5) 0.3023(2)
C15 C 0.3116(6) 0.4723(6) 0.3116(2)
C16 C 0.3676(7) 0.3374(7) 0.3518(3)
C17 C 0.2251(9) 0.1962(7) 0.4285(3)
O3 O -0.0487(4) 0.3519(4) 0.3552(2)
C18 C 0.0330(9) 0.5379(10) 0.2577(3)
H1 H 0.5854(65) 1.0444(64) 0.3529(23)
H2 H 0.8379(64) 1.0923(67) 0.3962(23)
H3 H 1.0180(68) 0.8971(62) 0.4198(23)
H4 H 0.9450(65) 0.6448(65) 0.3963(23)
H5 H 0.6877(61) 0.5784(64) 0.3440(23)
H6 H 0.4004(63) 0.8562(62) 0.4240(23)
H7 H 0.3455(63) 0.8617(63) 0.5168(24)
H8 H 0.2290(61) 0.6376(63) 0.5574(25)
H9 H 0.1980(62) 0.4186(64) 0.5031(24)
H10 H 0.3483(61) 0.4802(62) 0.2734(24)
H11 H 0.3635(63) 0.2470(67) 0.3306(23)
H12 H 0.4852(68) 0.3562(63) 0.3767(24)
H13 H 0.3168(70) 0.1847(61) 0.4587(25)
H14 H 0.2109(63) 0.1051(68) 0.4006(23)
H15 H 0.1265(69) 0.1998(62) 0.4492(23)
H16 H 0.0770(63) 0.5732(64) 0.2294(24)
H17 H -0.0121(65) 0.6235(69) 0.2722(24)
H18 H -0.0469(69) 0.4790(63) 0.2397(23)
loop_
_geom_bond_atom_site_label_1
_geom_bond_atom_site_label_2
_geom_bond_site_symmetry_1
_geom_bond_site_symmetry_2
S1 O1 1_555 1_555
O2 S1 1_555 1_555
C1 S1 1_555 1_555
C2 C1 1_555 1_555
C3 C2 1_555 1_555
C4 C3 1_555 1_555
C5 C4 1_555 1_555
C6 C1 1_555 1_555
N1 S1 1_555 1_555
C7 N1 1_555 1_555
C8 C7 1_555 1_555
C9 C8 1_555 1_555
C10 C9 1_555 1_555
C11 C10 1_555 1_555
C12 C7 1_555 1_555
C13 C12 1_555 1_555
C14 C13 1_555 1_555
N2 C14 1_555 1_555
C15 N1 1_555 1_555
C16 C13 1_555 1_555
C17 C13 1_555 1_555
O3 C14 1_555 1_555
C18 N2 1_555 1_555
H1 C2 1_555 1_555
H2 C3 1_555 1_555
H3 C4 1_555 1_555
H4 C5 1_555 1_555
H5 C6 1_555 1_555
H6 C8 1_555 1_555
H7 C9 1_555 1_555
H8 C10 1_555 1_555
H9 C11 1_555 1_555
H10 C15 1_555 1_555
H11 C16 1_555 1_555
H12 C16 1_555 1_555
H13 C17 1_555 1_555
H14 C17 1_555 1_555
H15 C17 1_555 1_555
H16 C18 1_555 1_555
H17 C18 1_555 1_555
H18 C18 1_555 1_555
C5 C6 1_555 1_555
C11 C12 1_555 1_555
N2 C15 1_555 1_555
C15 C16 1_555 1_555

#END
