
#######################################################################
#
#                 Cambridge Crystallographic Data Centre
#                                CCDC 
#
#######################################################################
#
# If this CIF has been generated from an entry in the Cambridge 
# Structural Database, then it will include bibliographic, chemical, 
# crystal, experimental, refinement or atomic coordinate data resulting 
# from the CCDC's data processing and validation procedures.
#
#######################################################################

data_KAJJIO
_chemical_formula_moiety         'C18 H18 N2 O3 S1'
_chemical_name_systematic        
5,8-Dimethyl-2-phenylsulfonyl-2,8-diazabenzo(c)bicyclo(3.3.0)octan-7-one
_symmetry_cell_setting           monoclinic
_symmetry_space_group_name_H-M   'I 2/a'
_symmetry_Int_Tables_number      15
_space_group_name_Hall           '-I 2ya'
loop_
_symmetry_equiv_pos_site_id
_symmetry_equiv_pos_as_xyz
1 x,y,z
2 1/2+x,1/2+y,1/2+z
3 1/2-x,y,-z
4 -x,1/2+y,1/2-z
5 -x,-y,-z
6 1/2-x,1/2-y,1/2-z
7 1/2+x,-y,z
8 x,1/2-y,1/2+z
_cell_length_a                   18.716(6)
_cell_length_b                   8.486(4)
_cell_length_c                   21.237(4)
_cell_angle_alpha                90
_cell_angle_beta                 98.26(2)
_cell_angle_gamma                90
_cell_volume                     3337.95
_cell_formula_units_Z            8
loop_
_atom_site_label
_atom_site_type_symbol
_atom_site_fract_x
_atom_site_fract_y
_atom_site_fract_z
S1 S 0.4493(1) 0.5610(1) 0.1479
O1 O 0.5191(1) 0.4906(3) 0.1522(1)
O2 O 0.4352(2) 0.7114(3) 0.1181(1)
C1 C 0.4256(2) 0.5717(4) 0.2248(2)
C2 C 0.3711(2) 0.6720(5) 0.2364(2)
C3 C 0.3507(2) 0.6756(5) 0.2960(2)
C4 C 0.3838(2) 0.5801(6) 0.3436(2)
C5 C 0.4381(2) 0.4806(5) 0.3325(2)
C6 C 0.4598(2) 0.4761(5) 0.2732(2)
N1 N 0.3932(1) 0.4352(3) 0.1079(1)
C7 C 0.3170(2) 0.4632(4) 0.0994(1)
C8 C 0.2820(2) 0.6016(5) 0.0787(2)
C9 C 0.2081(3) 0.6032(6) 0.0741(2)
C10 C 0.1712(3) 0.4733(9) 0.0889(2)
C11 C 0.2060(2) 0.3338(6) 0.1075(2)
C12 C 0.2809(2) 0.3296(4) 0.1131(2)
C13 C 0.3318(2) 0.1963(4) 0.1336(2)
C14 C 0.4043(2) 0.2631(4) 0.1180(2)
N2 N 0.4144(2) 0.1878(4) 0.0589(1)
C15 C 0.3671(2) 0.0713(5) 0.0405(2)
C16 C 0.3182(3) 0.0524(5) 0.0898(2)
C17 C 0.4711(3) 0.2338(7) 0.0231(2)
O3 O 0.3653(2) -0.0056(3) -0.0086(1)
C18 C 0.3334(3) 0.1562(6) 0.2043(2)
H1 H 0.349(2) 0.739(4) 0.202(2)
H2 H 0.315(2) 0.747(4) 0.303(2)
H3 H 0.368(2) 0.579(4) 0.384(2)
H4 H 0.466(2) 0.410(4) 0.367(2)
H5 H 0.496(2) 0.410(4) 0.263(2)
H6 H 0.310(2) 0.692(4) 0.066(2)
H7 H 0.183(2) 0.699(4) 0.054(2)
H8 H 0.125(2) 0.478(4) 0.084(2)
H9 H 0.184(2) 0.245(4) 0.119(2)
H10 H 0.447(2) 0.246(4) 0.153(2)
H11 H 0.266(2) 0.044(4) 0.071(2)
H12 H 0.331(2) -0.037(4) 0.109(2)
H13 H 0.467(2) 0.348(5) 0.009(2)
H14 H 0.517(2) 0.236(4) 0.047(2)
H15 H 0.484(2) 0.150(5) 0.006(2)
H16 H 0.373(2) 0.074(4) 0.215(2)
H17 H 0.344(2) 0.254(4) 0.232(2)
H18 H 0.286(2) 0.112(4) 0.212(2)
loop_
_geom_bond_atom_site_label_1
_geom_bond_atom_site_label_2
_geom_bond_site_symmetry_1
_geom_bond_site_symmetry_2
S1 O1 1_555 1_555
O2 S1 1_555 1_555
C1 S1 1_555 1_555
C2 C1 1_555 1_555
C3 C2 1_555 1_555
C4 C3 1_555 1_555
C5 C4 1_555 1_555
C6 C1 1_555 1_555
N1 S1 1_555 1_555
C7 N1 1_555 1_555
C8 C7 1_555 1_555
C9 C8 1_555 1_555
C10 C9 1_555 1_555
C11 C10 1_555 1_555
C12 C7 1_555 1_555
C13 C12 1_555 1_555
C14 N1 1_555 1_555
N2 C14 1_555 1_555
C15 N2 1_555 1_555
C16 C13 1_555 1_555
C17 N2 1_555 1_555
O3 C15 1_555 1_555
C18 C13 1_555 1_555
H1 C2 1_555 1_555
H2 C3 1_555 1_555
H3 C4 1_555 1_555
H4 C5 1_555 1_555
H5 C6 1_555 1_555
H6 C8 1_555 1_555
H7 C9 1_555 1_555
H8 C10 1_555 1_555
H9 C11 1_555 1_555
H10 C14 1_555 1_555
H11 C16 1_555 1_555
H12 C16 1_555 1_555
H13 C17 1_555 1_555
H14 C17 1_555 1_555
H15 C17 1_555 1_555
H16 C18 1_555 1_555
H17 C18 1_555 1_555
H18 C18 1_555 1_555
C5 C6 1_555 1_555
C11 C12 1_555 1_555
C13 C14 1_555 1_555
C15 C16 1_555 1_555

#END
