
#######################################################################
#
#                 Cambridge Crystallographic Data Centre
#                                CCDC 
#
#######################################################################
#
# If this CIF has been generated from an entry in the Cambridge 
# Structural Database, then it will include bibliographic, chemical, 
# crystal, experimental, refinement or atomic coordinate data resulting 
# from the CCDC's data processing and validation procedures.
#
#######################################################################

data_KAJMUG
_chemical_formula_moiety         'C19 H19 Br2 N1 O3 S1'
_chemical_name_systematic        
4-Bromo-1-((4-bromophenyl)sulfonyl)-3-methyl-5-(2-phenylvinyl)pyrrolidin-3-ol
_symmetry_cell_setting           monoclinic
_symmetry_space_group_name_H-M   'P 21'
_symmetry_Int_Tables_number      4
_space_group_name_Hall           'P 2yb'
loop_
_symmetry_equiv_pos_site_id
_symmetry_equiv_pos_as_xyz
1 x,y,z
2 -x,1/2+y,-z
_cell_length_a                   7.7418(4)
_cell_length_b                   12.0109(6)
_cell_length_c                   10.5954(6)
_cell_angle_alpha                90
_cell_angle_beta                 103.683(2)
_cell_angle_gamma                90
_cell_volume                     957.262
_exptl_crystal_colour            colorless
_exptl_crystal_description       block
_cell_formula_units_Z            2
loop_
_atom_site_label
_atom_site_type_symbol
_atom_site_fract_x
_atom_site_fract_y
_atom_site_fract_z
Br1 Br 1.98106(5) 0.28368(3) 1.33390(3)
Br2 Br 1.95629(5) -0.03562(3) 2.07085(4)
S1 S 1.46862(11) 0.24608(6) 1.60982(8)
O1 O 1.3700(3) 0.16590(18) 1.5226(2)
O2 O 1.3773(3) 0.32707(18) 1.6693(2)
O3 O 1.9800(3) 0.30259(17) 1.6349(2)
H1 H 2.0894 0.3123 1.6421
N1 N 1.5880(4) 0.3155(2) 1.5296(3)
C1 C 1.4538(4) 0.0108(3) 1.0569(3)
H2 H 1.5332 -0.0423 1.1058
C2 C 1.3594(5) -0.0148(3) 0.9299(3)
H3 H 1.3742 -0.0852 0.8929
C3 C 1.2448(5) 0.0632(3) 0.8591(3)
H4 H 1.1814 0.0464 0.7730
C4 C 1.2220(5) 0.1649(3) 0.9125(3)
H5 H 1.1436 0.2184 0.8633
C5 C 1.3134(5) 0.1891(3) 1.0380(3)
H6 H 1.2953 0.2589 1.0750
C6 C 1.4314(4) 0.1133(3) 1.1113(3)
C7 C 1.5379(4) 0.1382(3) 1.2430(3)
H7 H 1.6141 0.0806 1.2852
C8 C 1.5390(5) 0.2317(3) 1.3088(3)
H8 H 1.4516 0.2863 1.2747
C9 C 1.6693(4) 0.2565(2) 1.4334(3)
H9 H 1.7301 0.1867 1.4722
C10 C 1.7112(4) 0.4034(3) 1.5998(3)
H10 H 1.7322 0.3936 1.6950
H11 H 1.6613 0.4786 1.5766
C11 C 1.8830(4) 0.3879(2) 1.5556(3)
C12 C 1.8056(4) 0.3439(3) 1.4186(3)
H12 H 1.7420 0.4063 1.3643
C13 C 1.9917(5) 0.4931(3) 1.5594(3)
H13 H 2.0369 0.5166 1.6498
H14 H 1.9168 0.5521 1.5111
H15 H 2.0918 0.4788 1.5198
C14 C 1.6136(4) 0.1721(3) 1.7361(3)
C15 C 1.6660(5) 0.2181(2) 1.8590(3)
H16 H 1.6288 0.2911 1.8749
C16 C 1.7717(5) 0.1580(3) 1.9581(3)
H17 H 1.8088 0.1889 2.0428
C17 C 1.8234(4) 0.0517(3) 1.9326(3)
C18 C 1.7770(5) 0.0063(3) 1.8103(3)
H18 H 1.8184 -0.0656 1.7944
C19 C 1.6695(5) 0.0662(3) 1.7106(3)
H19 H 1.6342 0.0354 1.6258
loop_
_geom_bond_atom_site_label_1
_geom_bond_atom_site_label_2
_geom_bond_site_symmetry_1
_geom_bond_site_symmetry_2
Br1 C12 1_555 1_555
Br2 C17 1_555 1_555
S1 O1 1_555 1_555
O2 S1 1_555 1_555
O3 H1 1_555 1_555
N1 S1 1_555 1_555
C1 H2 1_555 1_555
C2 C1 1_555 1_555
H3 C2 1_555 1_555
C3 C2 1_555 1_555
H4 C3 1_555 1_555
C4 C3 1_555 1_555
H5 C4 1_555 1_555
C5 C4 1_555 1_555
H6 C5 1_555 1_555
C6 C1 1_555 1_555
C7 C6 1_555 1_555
H7 C7 1_555 1_555
C8 C7 1_555 1_555
H8 C8 1_555 1_555
C9 N1 1_555 1_555
H9 C9 1_555 1_555
C10 N1 1_555 1_555
H10 C10 1_555 1_555
H11 C10 1_555 1_555
C11 O3 1_555 1_555
C12 C9 1_555 1_555
H12 C12 1_555 1_555
C13 C11 1_555 1_555
H13 C13 1_555 1_555
H14 C13 1_555 1_555
H15 C13 1_555 1_555
C14 S1 1_555 1_555
C15 C14 1_555 1_555
H16 C15 1_555 1_555
C16 C15 1_555 1_555
H17 C16 1_555 1_555
C17 C16 1_555 1_555
C18 C17 1_555 1_555
H18 C18 1_555 1_555
C19 C14 1_555 1_555
H19 C19 1_555 1_555
C5 C6 1_555 1_555
C8 C9 1_555 1_555
C10 C11 1_555 1_555
C11 C12 1_555 1_555
C18 C19 1_555 1_555

#END
