
#######################################################################
#
#                 Cambridge Crystallographic Data Centre
#                                CCDC 
#
#######################################################################
#
# If this CIF has been generated from an entry in the Cambridge 
# Structural Database, then it will include bibliographic, chemical, 
# crystal, experimental, refinement or atomic coordinate data resulting 
# from the CCDC's data processing and validation procedures.
#
#######################################################################

data_KAJRUK
_chemical_formula_moiety         'C21 H12 N4 O3,C1 H1 Cl3'
_chemical_name_systematic        
'5-Methyl-7-(pyrimidin-5-ylcarbonyl)-4H-benzo[de]pyrido[4,3-g]isoquinoline-4,6(5H)-dione chloroform solvate'
_symmetry_cell_setting           triclinic
_symmetry_space_group_name_H-M   'P -1'
_symmetry_Int_Tables_number      2
_space_group_name_Hall           '-P 1'
loop_
_symmetry_equiv_pos_site_id
_symmetry_equiv_pos_as_xyz
1 x,y,z
2 -x,-y,-z
_cell_length_a                   9.1223(2)
_cell_length_b                   10.2911(2)
_cell_length_c                   12.3139(2)
_cell_angle_alpha                69.152(1)
_cell_angle_beta                 77.562(1)
_cell_angle_gamma                70.655(1)
_cell_volume                     1013.08
_exptl_crystal_colour            green
_exptl_crystal_description       block
_cell_formula_units_Z            2
loop_
_atom_site_label
_atom_site_type_symbol
_atom_site_fract_x
_atom_site_fract_y
_atom_site_fract_z
O1 O 0.40569(11) 0.25478(12) 0.71552(8)
O2 O 0.68234(12) 0.09213(12) 1.02548(9)
O3 O 0.08270(12) 0.47092(11) 0.65622(8)
N1 N 0.54511(12) 0.18159(12) 0.86888(9)
N2 N -0.30723(13) 0.43199(13) 0.93837(11)
N3 N 0.10866(17) -0.02008(14) 0.72292(11)
N4 N 0.06521(15) 0.14961(14) 0.53248(10)
C1 C 0.40557(14) 0.23474(13) 0.81959(11)
C2 C 0.55581(15) 0.14979(13) 0.98785(11)
C3 C 0.40845(14) 0.18749(13) 1.06328(11)
C4 C 0.41521(16) 0.16570(14) 1.18002(11)
C5 C 0.27711(17) 0.19750(15) 1.25336(11)
C6 C 0.13338(16) 0.25051(14) 1.21056(11)
C7 C 0.12301(14) 0.27379(13) 1.09198(10)
C8 C 0.26281(14) 0.24232(13) 1.01779(10)
C9 C 0.25886(14) 0.26526(13) 0.89660(10)
C10 C -0.02462(14) 0.32782(13) 1.04276(11)
C11 C -0.17162(15) 0.36242(14) 1.10760(12)
C12 C -0.30613(16) 0.41235(15) 1.05325(13)
C13 C -0.17003(15) 0.40067(14) 0.87705(12)
C14 C -0.02471(14) 0.34825(13) 0.92278(11)
C15 C 0.11973(14) 0.31692(13) 0.84984(10)
C16 C 0.10755(14) 0.34715(14) 0.72173(10)
C17 C 0.10360(14) 0.22617(13) 0.68369(10)
C18 C 0.12008(17) 0.08527(15) 0.75816(12)
C19 C 0.08242(18) 0.01829(16) 0.61171(13)
C20 C 0.07554(16) 0.25297(15) 0.56963(11)
C21 C 0.69078(16) 0.15075(16) 0.79182(13)
H1 H 0.515(2) 0.130(2) 1.2104(18)
H2 H 0.279(2) 0.185(2) 1.3330(17)
H3 H 0.037(2) 0.275(2) 1.2650(17)
H4 H -0.184(2) 0.351(2) 1.1883(18)
H5 H -0.404(2) 0.433(2) 1.0951(17)
H6 H -0.171(2) 0.413(2) 0.7977(18)
H7 H 0.140(2) 0.062(2) 0.8340(19)
H8 H 0.075(3) -0.055(2) 0.5850(19)
H9 H 0.066(2) 0.344(2) 0.5185(17)
H10 H 0.758(4) 0.090(4) 0.834(3)
H11 H 0.676(3) 0.101(3) 0.745(2)
H12 H 0.709(4) 0.232(3) 0.741(3)
C22 C 0.51076(17) 0.32809(15) 0.45851(12)
Cl1 Cl 0.69402(4) 0.35546(4) 0.44987(3)
Cl2 Cl 0.42840(5) 0.43184(4) 0.32679(3)
Cl3 Cl 0.53122(5) 0.14379(4) 0.48528(4)
H13 H 0.440(2) 0.359(2) 0.5207(16)
loop_
_geom_bond_atom_site_label_1
_geom_bond_atom_site_label_2
_geom_bond_site_symmetry_1
_geom_bond_site_symmetry_2
O1 C1 1_555 1_555
O2 C2 1_555 1_555
O3 C16 1_555 1_555
N1 C1 1_555 1_555
N2 C12 1_555 1_555
N3 C18 1_555 1_555
N4 C19 1_555 1_555
C1 C9 1_555 1_555
C2 N1 1_555 1_555
C3 C2 1_555 1_555
C4 C3 1_555 1_555
C5 C4 1_555 1_555
C6 C5 1_555 1_555
C7 C6 1_555 1_555
C8 C3 1_555 1_555
C9 C8 1_555 1_555
C10 C7 1_555 1_555
C11 C10 1_555 1_555
C12 C11 1_555 1_555
C13 N2 1_555 1_555
C14 C10 1_555 1_555
C15 C9 1_555 1_555
C16 C15 1_555 1_555
C17 C16 1_555 1_555
C18 C17 1_555 1_555
C19 N3 1_555 1_555
C20 N4 1_555 1_555
C21 N1 1_555 1_555
C22 Cl1 1_555 1_555
Cl2 C22 1_555 1_555
Cl3 C22 1_555 1_555
H1 C4 1_555 1_555
H2 C5 1_555 1_555
H3 C6 1_555 1_555
H4 C11 1_555 1_555
H5 C12 1_555 1_555
H6 C13 1_555 1_555
H7 C18 1_555 1_555
H8 C19 1_555 1_555
H9 C20 1_555 1_555
H10 C21 1_555 1_555
H11 C21 1_555 1_555
H12 C21 1_555 1_555
H13 C22 1_555 1_555
C7 C8 1_555 1_555
C13 C14 1_555 1_555
C14 C15 1_555 1_555
C17 C20 1_555 1_555

#END
