
#######################################################################
#
#                 Cambridge Crystallographic Data Centre
#                                CCDC 
#
#######################################################################
#
# If this CIF has been generated from an entry in the Cambridge 
# Structural Database, then it will include bibliographic, chemical, 
# crystal, experimental, refinement or atomic coordinate data resulting 
# from the CCDC's data processing and validation procedures.
#
#######################################################################

data_KAKFUA
_chemical_formula_moiety         'C17 H28 O3'
_chemical_name_systematic        4-Methoxy-6-undecyl-2H-pyran-2-one
_symmetry_cell_setting           triclinic
_symmetry_space_group_name_H-M   'P -1'
_symmetry_Int_Tables_number      2
_space_group_name_Hall           '-P 1'
loop_
_symmetry_equiv_pos_site_id
_symmetry_equiv_pos_as_xyz
1 x,y,z
2 -x,-y,-z
_cell_length_a                   5.4827(4)
_cell_length_b                   9.5299(8)
_cell_length_c                   16.2267(10)
_cell_angle_alpha                97.898(6)
_cell_angle_beta                 98.226(6)
_cell_angle_gamma                92.046(7)
_cell_volume                     829.829
_cell_formula_units_Z            2
loop_
_atom_site_label
_atom_site_type_symbol
_atom_site_fract_x
_atom_site_fract_y
_atom_site_fract_z
O1 O 1.1033(2) 0.47273(11) 0.66066(7)
O2 O 1.3762(2) 0.38123(14) 0.58456(8)
O3 O 1.0679(2) 0.83006(12) 0.54895(8)
C1 C 1.2531(3) 0.48201(18) 0.59883(10)
C2 C 1.2455(3) 0.60641(17) 0.55973(9)
H1 H 1.3446 0.6172 0.5188
C3 C 1.0933(3) 0.70985(16) 0.58212(9)
C4 C 0.9442(3) 0.69442(16) 0.64591(10)
H2 H 0.8412 0.7656 0.6615
C5 C 0.9526(3) 0.57811(16) 0.68314(9)
C6 C 0.8138(3) 0.54145(17) 0.75035(10)
H3 H 0.9303 0.5125 0.7949
H4 H 0.7011 0.4603 0.7271
C7 C 0.6669(3) 0.65837(16) 0.78910(9)
H5 H 0.5431 0.6845 0.7458
H6 H 0.7767 0.7413 0.8110
C8 C 0.5408(3) 0.61374(18) 0.85958(10)
H7 H 0.6646 0.5841 0.9016
H8 H 0.4276 0.5325 0.8370
C9 C 0.3989(3) 0.73011(17) 0.90192(10)
H9 H 0.2733 0.7586 0.8600
H10 H 0.5116 0.8119 0.9236
C10 C 0.2757(3) 0.68716(17) 0.97360(10)
H11 H 0.1597 0.6070 0.9516
H12 H 0.4007 0.6562 1.0148
C11 C 0.1404(3) 0.80407(18) 1.01724(10)
H13 H 0.0175 0.8361 0.9758
H14 H 0.2571 0.8836 1.0399
C12 C 0.0134(3) 0.76133(18) 1.08794(10)
H15 H -0.1057 0.6830 1.0651
H16 H 0.1357 0.7277 1.1289
C13 C -0.1178(3) 0.87993(18) 1.13231(11)
H17 H 0.0026 0.9571 1.1561
H18 H -0.2362 0.9152 1.0908
C14 C -0.2516(3) 0.83917(19) 1.20158(11)
H19 H -0.3743 0.7631 1.1778
H20 H -0.1340 0.8029 1.2429
C15 C -0.3769(4) 0.9591(2) 1.24526(12)
H21 H -0.4916 0.9967 1.2036
H22 H -0.2534 1.0343 1.2700
C16 C -0.5152(4) 0.9190(3) 1.31315(14)
H23 H -0.6468 0.8502 1.2887
H24 H -0.5823 1.0020 1.3400
H25 H -0.4045 0.8794 1.3541
C17 C 1.2029(4) 0.8484(2) 0.48087(13)
H26 H 1.1455 0.7770 0.4336
H27 H 1.3756 0.8398 0.4988
H28 H 1.1775 0.9407 0.4648
loop_
_geom_bond_atom_site_label_1
_geom_bond_atom_site_label_2
_geom_bond_site_symmetry_1
_geom_bond_site_symmetry_2
O1 C1 1_555 1_555
O2 C1 1_555 1_555
O3 C3 1_555 1_555
C1 C2 1_555 1_555
C2 H1 1_555 1_555
C3 C2 1_555 1_555
C4 C3 1_555 1_555
H2 C4 1_555 1_555
C5 O1 1_555 1_555
C6 C5 1_555 1_555
H3 C6 1_555 1_555
H4 C6 1_555 1_555
C7 C6 1_555 1_555
H5 C7 1_555 1_555
H6 C7 1_555 1_555
C8 C7 1_555 1_555
H7 C8 1_555 1_555
H8 C8 1_555 1_555
C9 C8 1_555 1_555
H9 C9 1_555 1_555
H10 C9 1_555 1_555
C10 C9 1_555 1_555
H11 C10 1_555 1_555
H12 C10 1_555 1_555
C11 C10 1_555 1_555
H13 C11 1_555 1_555
H14 C11 1_555 1_555
C12 C11 1_555 1_555
H15 C12 1_555 1_555
H16 C12 1_555 1_555
C13 C12 1_555 1_555
H17 C13 1_555 1_555
H18 C13 1_555 1_555
C14 C13 1_555 1_555
H19 C14 1_555 1_555
H20 C14 1_555 1_555
C15 C14 1_555 1_555
H21 C15 1_555 1_555
H22 C15 1_555 1_555
C16 C15 1_555 1_555
H23 C16 1_555 1_555
H24 C16 1_555 1_555
H25 C16 1_555 1_555
C17 O3 1_555 1_555
H26 C17 1_555 1_555
H27 C17 1_555 1_555
H28 C17 1_555 1_555
C4 C5 1_555 1_555

#END
