
#######################################################################
#
#                 Cambridge Crystallographic Data Centre
#                                CCDC 
#
#######################################################################
#
# If this CIF has been generated from an entry in the Cambridge 
# Structural Database, then it will include bibliographic, chemical, 
# crystal, experimental, refinement or atomic coordinate data resulting 
# from the CCDC's data processing and validation procedures.
#
#######################################################################

data_KAKJOY
_chemical_formula_moiety         'C55 H88 O11 Si1'
_chemical_name_systematic        
'2-(5-Ethyl-5,6-dimethyltetrahydro-2H-pyran-2-yl)-9-(6-hydroxy-5-methyl-7-(3-methyl-6-(1-oxo-1-(2-(trimethylsilyl)ethoxy)butan-2-yl)tetrahydro-2H-pyran-2-yl)-4-oxooctan-3-yl)-2,10,12-trimethyl-1,6,8-trioxadispiro[4.1.5^7^.3^5^]pentadec-13-en-15-yl benzoate'
_chemical_properties_biological  'antiproliferative activity'
_symmetry_cell_setting           monoclinic
_symmetry_space_group_name_H-M   'P 21'
_symmetry_Int_Tables_number      4
_space_group_name_Hall           'P 2yb'
loop_
_symmetry_equiv_pos_site_id
_symmetry_equiv_pos_as_xyz
1 x,y,z
2 -x,1/2+y,-z
_cell_length_a                   12.1784(3)
_cell_length_b                   10.4550(2)
_cell_length_c                   22.4818(4)
_cell_angle_alpha                90
_cell_angle_beta                 99.8798(18)
_cell_angle_gamma                90
_cell_volume                     2820.05
_exptl_crystal_colour            colorless
_exptl_crystal_description       block
_cell_formula_units_Z            2
loop_
_atom_site_label
_atom_site_type_symbol
_atom_site_fract_x
_atom_site_fract_y
_atom_site_fract_z
O1 O -0.7429(2) -0.4023(2) -0.58095(9)
O2 O -0.8458(2) -0.5181(3) -0.66126(9)
O3 O -0.5484(2) -0.5023(2) -0.97813(9)
O4 O -0.7989(2) -0.3382(3) -0.46195(9)
O5 O -0.6722(2) -0.6807(2) -0.86992(10)
H1 H -0.6044 -0.6896 -0.8648
O6 O -0.7669(2) 0.0078(2) -0.71355(10)
O7 O -0.8571(2) -0.2301(2) -0.61603(10)
O8 O -0.6904(3) -0.4000(3) -0.79542(11)
O9 O -0.3543(3) -0.4861(3) -0.86019(11)
C1 C -0.8111(4) -0.5119(4) -0.59784(14)
O10 O -0.4361(2) -0.6776(3) -0.86476(12)
O11 O -0.9389(3) -0.2849(3) -0.41476(12)
C2 C -0.7921(3) -0.2879(3) -0.56473(14)
C3 C -0.8704(3) -0.3112(4) -0.51975(15)
H2 H -0.9147 -0.2342 -0.5162
C4 C -0.7611(3) -0.5298(3) -0.69843(13)
H3 H -0.7174 -0.4506 -0.6951
C5 C -0.6173(3) -0.6130(3) -0.99444(12)
H4 H -0.5803 -0.6871 -0.9730
C6 C -0.8452(4) -0.3221(3) -0.41287(15)
C7 C -0.7640(3) -0.4780(3) -0.80978(14)
C8 C -0.8234(3) -0.5429(3) -0.76432(13)
H5 H -0.8260 -0.6344 -0.7740
C9 C -0.7025(3) -0.5641(3) -0.90184(12)
H6 H -0.6400 -0.5042 -0.8926
C10 C -0.7248(3) -0.5887(3) -0.97073(13)
H7 H -0.7583 -0.5109 -0.9903
C11 C -0.4391(3) -0.5073(4) -0.99249(15)
H8 H -0.4067 -0.4219 -0.9847
C12 C -0.8695(3) 0.0122(3) -0.81580(17)
C13 C -0.8191(3) -0.1086(3) -0.69893(15)
H9 H -0.7761 -0.1808 -0.7107
C14 C -0.7678(4) -0.3542(3) -0.35677(15)
C15 C -0.9293(3) 0.1234(3) -0.80229(19)
H10 H -0.9143 0.1389 -0.7596
H11 H -1.0078 0.1098 -0.8151
H12 H -0.9059 0.1959 -0.8231
C16 C -0.6303(3) -0.6389(3) -1.06252(13)
H13 H -0.6682 -0.7214 -1.0707
C17 C -0.3630(3) -0.6011(4) -0.95101(16)
H14 H -0.3795 -0.6881 -0.9662
C18 C -0.3888(3) -0.5934(4) -0.88814(16)
C19 C -0.8014(3) -0.5089(4) -0.87696(13)
H15 H -0.8609 -0.5730 -0.8810
C20 C -0.7542(3) 0.0163(4) -0.77588(15)
H16 H -0.7233 0.1012 -0.7813
C21 C -0.8092(4) -0.1098(4) -0.63073(16)
C22 C -0.9172(4) -0.5094(5) -0.57390(17)
H17 H -0.9676 -0.5755 -0.5851
C23 C -0.9361(3) -0.1171(4) -0.73425(17)
H18 H -0.9813 -0.0488 -0.7221
H19 H -0.9694 -0.1981 -0.7260
C24 C -0.9452(4) -0.4209(5) -0.53812(17)
H20 H -1.0126 -0.4270 -0.5242
C25 C -0.9456(3) -0.4951(4) -0.77461(16)
H21 H -0.9496 -0.4179 -0.7511
H22 H -0.9679 -0.4729 -0.8169
C26 C -0.9329(3) -0.1064(4) -0.80153(16)
H23 H -0.8974 -0.1819 -0.8146
H24 H -1.0085 -0.1027 -0.8238
C27 C -0.6960(4) -0.1961(4) -0.54315(16)
H25 H -0.7121 -0.1425 -0.5105
H26 H -0.6272 -0.2423 -0.5297
C28 C -0.8083(3) -0.6970(4) -0.98692(15)
H27 H -0.8264 -0.7049 -1.0300
H28 H -0.8748 -0.6786 -0.9709
H29 H -0.7763 -0.7756 -0.9700
C29 C -0.6825(4) -0.6413(4) -0.67906(16)
H30 H -0.7249 -0.7206 -0.6881
C30 C -0.6888(4) -0.1174(4) -0.59879(17)
H31 H -0.6424 -0.1591 -0.6240
H32 H -0.6591 -0.0329 -0.5879
C31 C -0.7314(8) -0.3668(6) -0.24852(19)
H33 H -0.7548 -0.3563 -0.2116
C32 C -0.4436(4) -0.5337(5) -1.05920(16)
H34 H -0.3687 -0.5473 -1.0671
H35 H -0.4747 -0.4600 -1.0824
C33 C -0.8045(5) -0.3403(4) -0.30196(16)
H36 H -0.8770 -0.3138 -0.3009
C34 C -0.3734(4) -0.4725(5) -0.79751(18)
H37 H -0.3549 -0.5517 -0.7757
H38 H -0.4513 -0.4535 -0.7972
C35 C -0.5146(4) -0.6511(4) -1.07912(15)
H39 H -0.5215 -0.6614 -1.1225
H40 H -0.4782 -0.7266 -1.0600
C36 C -0.3023(4) -0.3669(5) -0.76795(18)
H41 H -0.3272 -0.2875 -0.7882
H42 H -0.2264 -0.3817 -0.7741
C37 C -0.7377(6) -0.6269(5) -0.57594(18)
H43 H -0.7834 -0.7039 -0.5851
C38 C -0.6715(3) -0.0790(5) -0.79158(17)
H44 H -0.6092 -0.0841 -0.7591
H45 H -0.6462 -0.0524 -0.8278
H46 H -0.7063 -0.1614 -0.7978
C39 C -0.6602(4) -0.3964(4) -0.35704(18)
H47 H -0.6348 -0.4060 -0.3935
C40 C -0.7002(4) -0.5376(5) -1.10077(15)
H48 H -0.7755 -0.5412 -1.0935
H49 H -0.6992 -0.5535 -1.1427
H50 H -0.6697 -0.4544 -1.0901
C41 C -0.5907(5) -0.4242(5) -0.3038(2)
H51 H -0.5191 -0.4545 -0.3044
C42 C -0.8583(4) 0.0208(5) -0.88194(18)
H52 H -0.8119 0.0939 -0.8871
H53 H -0.8198 -0.0551 -0.8923
C43 C -0.5855(5) -0.6443(6) -0.7134(2)
H54 H -0.6128 -0.6628 -0.7552
H55 H -0.5336 -0.7093 -0.6967
H56 H -0.5489 -0.5627 -0.7101
C44 C -0.2656(5) -0.4965(5) -0.6443(2)
H57 H -0.3246 -0.5571 -0.6561
H58 H -0.2568 -0.4819 -0.6016
H59 H -0.1974 -0.5296 -0.6541
C45 C -0.8465(5) -0.3870(5) -0.91012(17)
H60 H -0.9025 -0.3499 -0.8902
H61 H -0.8786 -0.4076 -0.9510
H62 H -0.7867 -0.3271 -0.9100
C46 C -0.8735(6) -0.0005(5) -0.6075(2)
H63 H -0.9519 -0.0124 -0.6211
H64 H -0.8506 0.0794 -0.6225
H65 H -0.8584 0.0003 -0.5641
C47 C -0.6420(5) -0.6359(5) -0.61069(18)
H66 H -0.5987 -0.7120 -0.5981
H67 H -0.5937 -0.5623 -0.6012
C48 C -0.4383(4) -0.2849(6) -0.6718(3)
H68 H -0.4604 -0.2135 -0.6980
H69 H -0.4329 -0.2584 -0.6305
H70 H -0.4927 -0.3519 -0.6803
C49 C -0.1914(5) -0.2257(5) -0.6576(2)
H71 H -0.1194 -0.2619 -0.6590
H72 H -0.1959 -0.2019 -0.6169
H73 H -0.2023 -0.1514 -0.6831
C50 C -0.2397(4) -0.5729(6) -0.9525(2)
H74 H -0.2292 -0.5665 -0.9942
H75 H -0.2201 -0.4910 -0.9334
C51 C -0.6261(7) -0.4078(6) -0.2503(2)
H76 H -0.5778 -0.4248 -0.2145
C52 C -1.0271(4) -0.5922(6) -0.7575(2)
H77 H -1.0246 -0.6684 -0.7811
H78 H -1.1010 -0.5572 -0.7653
H79 H -1.0072 -0.6125 -0.7154
Si1 Si -0.30047(9) -0.34503(10) -0.68460(4)
C53 C -0.9659(4) 0.0330(7) -0.9257(2)
H80 H -0.9502 0.0452 -0.9657
H81 H -1.0070 0.1050 -0.9147
H82 H -1.0092 -0.0434 -0.9246
C54 C -0.1630(5) -0.6733(8) -0.9214(3)
H83 H -0.1788 -0.7537 -0.9417
H84 H -0.1739 -0.6812 -0.8802
H85 H -0.0872 -0.6494 -0.9222
C55 C -0.6957(8) -0.6252(6) -0.5069(2)
H86 H -0.6546 -0.5479 -0.4960
H87 H -0.6481 -0.6976 -0.4957
H88 H -0.7582 -0.6290 -0.4861
loop_
_geom_bond_atom_site_label_1
_geom_bond_atom_site_label_2
_geom_bond_site_symmetry_1
_geom_bond_site_symmetry_2
O1 C1 1_555 1_555
O2 C1 1_555 1_555
O3 C5 1_555 1_555
O4 C3 1_555 1_555
O5 H1 1_555 1_555
O6 C13 1_555 1_555
O7 C2 1_555 1_555
O8 C7 1_555 1_555
O9 C18 1_555 1_555
C1 C22 1_555 1_555
O10 C18 1_555 1_555
O11 C6 1_555 1_555
C2 O1 1_555 1_555
C3 C2 1_555 1_555
H2 C3 1_555 1_555
C4 O2 1_555 1_555
H3 C4 1_555 1_555
C5 H4 1_555 1_555
C6 O4 1_555 1_555
C7 C8 1_555 1_555
C8 C4 1_555 1_555
H5 C8 1_555 1_555
C9 O5 1_555 1_555
H6 C9 1_555 1_555
C10 C5 1_555 1_555
H7 C10 1_555 1_555
C11 O3 1_555 1_555
H8 C11 1_555 1_555
C12 C15 1_555 1_555
C13 H9 1_555 1_555
C14 C6 1_555 1_555
C15 H10 1_555 1_555
H11 C15 1_555 1_555
H12 C15 1_555 1_555
C16 C5 1_555 1_555
H13 C16 1_555 1_555
C17 C11 1_555 1_555
H14 C17 1_555 1_555
C18 C17 1_555 1_555
C19 C7 1_555 1_555
H15 C19 1_555 1_555
C20 O6 1_555 1_555
H16 C20 1_555 1_555
C21 O7 1_555 1_555
C22 H17 1_555 1_555
C23 C13 1_555 1_555
H18 C23 1_555 1_555
H19 C23 1_555 1_555
C24 C3 1_555 1_555
H20 C24 1_555 1_555
C25 C8 1_555 1_555
H21 C25 1_555 1_555
H22 C25 1_555 1_555
C26 C12 1_555 1_555
H23 C26 1_555 1_555
H24 C26 1_555 1_555
C27 C2 1_555 1_555
H25 C27 1_555 1_555
H26 C27 1_555 1_555
C28 C10 1_555 1_555
H27 C28 1_555 1_555
H28 C28 1_555 1_555
H29 C28 1_555 1_555
C29 C4 1_555 1_555
H30 C29 1_555 1_555
C30 C21 1_555 1_555
H31 C30 1_555 1_555
H32 C30 1_555 1_555
C31 H33 1_555 1_555
C32 C11 1_555 1_555
H34 C32 1_555 1_555
H35 C32 1_555 1_555
C33 C14 1_555 1_555
H36 C33 1_555 1_555
C34 O9 1_555 1_555
H37 C34 1_555 1_555
H38 C34 1_555 1_555
C35 C16 1_555 1_555
H39 C35 1_555 1_555
H40 C35 1_555 1_555
C36 C34 1_555 1_555
H41 C36 1_555 1_555
H42 C36 1_555 1_555
C37 C1 1_555 1_555
H43 C37 1_555 1_555
C38 C20 1_555 1_555
H44 C38 1_555 1_555
H45 C38 1_555 1_555
H46 C38 1_555 1_555
C39 C14 1_555 1_555
H47 C39 1_555 1_555
C40 C16 1_555 1_555
H48 C40 1_555 1_555
H49 C40 1_555 1_555
H50 C40 1_555 1_555
C41 C39 1_555 1_555
H51 C41 1_555 1_555
C42 C12 1_555 1_555
H52 C42 1_555 1_555
H53 C42 1_555 1_555
C43 C29 1_555 1_555
H54 C43 1_555 1_555
H55 C43 1_555 1_555
H56 C43 1_555 1_555
C44 H57 1_555 1_555
H58 C44 1_555 1_555
H59 C44 1_555 1_555
C45 C19 1_555 1_555
H60 C45 1_555 1_555
H61 C45 1_555 1_555
H62 C45 1_555 1_555
C46 C21 1_555 1_555
H63 C46 1_555 1_555
H64 C46 1_555 1_555
H65 C46 1_555 1_555
C47 C29 1_555 1_555
H66 C47 1_555 1_555
H67 C47 1_555 1_555
C48 H68 1_555 1_555
H69 C48 1_555 1_555
H70 C48 1_555 1_555
C49 H71 1_555 1_555
H72 C49 1_555 1_555
H73 C49 1_555 1_555
C50 C17 1_555 1_555
H74 C50 1_555 1_555
H75 C50 1_555 1_555
C51 C31 1_555 1_555
H76 C51 1_555 1_555
C52 C25 1_555 1_555
H77 C52 1_555 1_555
H78 C52 1_555 1_555
H79 C52 1_555 1_555
Si1 C36 1_555 1_555
C53 C42 1_555 1_555
H80 C53 1_555 1_555
H81 C53 1_555 1_555
H82 C53 1_555 1_555
C54 C50 1_555 1_555
H83 C54 1_555 1_555
H84 C54 1_555 1_555
H85 C54 1_555 1_555
C55 C37 1_555 1_555
H86 C55 1_555 1_555
H87 C55 1_555 1_555
H88 C55 1_555 1_555
C9 C10 1_555 1_555
C9 C19 1_555 1_555
C12 C20 1_555 1_555
C13 C21 1_555 1_555
C22 C24 1_555 1_555
C23 C26 1_555 1_555
C27 C30 1_555 1_555
C31 C33 1_555 1_555
C32 C35 1_555 1_555
C37 C47 1_555 1_555
C41 C51 1_555 1_555
C44 Si1 1_555 1_555
C48 Si1 1_555 1_555
C49 Si1 1_555 1_555

#END
