
#######################################################################
#
#                 Cambridge Crystallographic Data Centre
#                                CCDC 
#
#######################################################################
#
# If this CIF has been generated from an entry in the Cambridge 
# Structural Database, then it will include bibliographic, chemical, 
# crystal, experimental, refinement or atomic coordinate data resulting 
# from the CCDC's data processing and validation procedures.
#
#######################################################################

data_KAKQOF02
_chemical_formula_moiety         'C15 H15 Cl1 N2 O1'
_chemical_name_systematic        
(E)-4-chloro-2-(((4-(dimethylamino)phenyl)imino)methyl)phenol
_symmetry_cell_setting           orthorhombic
_symmetry_space_group_name_H-M   'P 21 21 21'
_symmetry_Int_Tables_number      19
_space_group_name_Hall           'P 2ac 2ab'
loop_
_symmetry_equiv_pos_site_id
_symmetry_equiv_pos_as_xyz
1 x,y,z
2 1/2-x,-y,1/2+z
3 1/2+x,1/2-y,-z
4 -x,1/2+y,1/2-z
_cell_length_a                   6.08830(10)
_cell_length_b                   8.4291(2)
_cell_length_c                   26.3386(7)
_cell_angle_alpha                90
_cell_angle_beta                 90
_cell_angle_gamma                90
_cell_volume                     1351.67
_exptl_crystal_colour            orange
_exptl_crystal_description       block
_chemical_melting_point          '448 K'
_cell_formula_units_Z            4
_exptl_crystal_recrystallization_method 'chloroform/ hexane'
_exptl_crystal_preparation       ', Luminescent'
loop_
_atom_site_label
_atom_site_type_symbol
_atom_site_fract_x
_atom_site_fract_y
_atom_site_fract_z
Cl1 Cl 0.46637(10) 0.09667(7) 0.23985(2)
C1 C 0.7605(3) -0.2008(2) 0.14222(6)
N1 N 0.8514(3) -0.36609(17) 0.07234(6)
C2 C 0.9610(3) -0.2295(2) 0.16724(7)
C3 C 0.6078(3) -0.0991(2) 0.16509(7)
H1 H 0.4742 -0.0789 0.1492
C4 C 0.7112(3) -0.2745(2) 0.09370(7)
H2 H 0.5769 -0.2552 0.0780
O1 O 1.1142(2) -0.32640(19) 0.14737(6)
H3 H 1.0713 -0.3602 0.1199
C5 C 0.8191(3) -0.4450(2) 0.02578(6)
C6 C 0.7826(3) -0.6266(2) -0.06455(6)
N2 N 0.7613(3) -0.7184(2) -0.10727(6)
C7 C 0.6554(3) -0.0290(2) 0.21118(7)
C8 C 0.6166(3) -0.5224(2) -0.04885(7)
H4 H 0.4908 -0.5126 -0.0686
C9 C 0.9871(3) -0.5444(2) 0.00952(7)
H5 H 1.1145 -0.5512 0.0289
C10 C 0.8521(3) -0.0579(2) 0.23546(7)
H6 H 0.8824 -0.0095 0.2664
C11 C 1.0032(3) -0.1583(2) 0.21382(7)
H7 H 1.1349 -0.1788 0.2305
C12 C 0.9280(4) -0.8325(3) -0.12113(8)
H8 H 1.0632 -0.7782 -0.1282
H9 H 0.8817 -0.8897 -0.1508
H10 H 0.9499 -0.9056 -0.0936
C13 C 0.9716(3) -0.6330(2) -0.03413(7)
H11 H 1.0879 -0.6981 -0.0436
C14 C 0.6339(3) -0.4342(2) -0.00506(7)
H12 H 0.5201 -0.3663 0.0041
C15 C 0.5570(4) -0.7241(3) -0.13504(8)
H13 H 0.4438 -0.7666 -0.1136
H14 H 0.5742 -0.7906 -0.1644
H15 H 0.5172 -0.6190 -0.1456
loop_
_geom_bond_atom_site_label_1
_geom_bond_atom_site_label_2
_geom_bond_site_symmetry_1
_geom_bond_site_symmetry_2
Cl1 C7 1_555 1_555
C1 C2 1_555 1_555
N1 C4 1_555 1_555
C2 O1 1_555 1_555
C3 C1 1_555 1_555
H1 C3 1_555 1_555
C4 C1 1_555 1_555
H2 C4 1_555 1_555
O1 H3 1_555 1_555
C5 N1 1_555 1_555
C6 N2 1_555 1_555
N2 C12 1_555 1_555
C7 C3 1_555 1_555
C8 C6 1_555 1_555
H4 C8 1_555 1_555
C9 C5 1_555 1_555
H5 C9 1_555 1_555
C10 C7 1_555 1_555
H6 C10 1_555 1_555
C11 C2 1_555 1_555
H7 C11 1_555 1_555
C12 H8 1_555 1_555
H9 C12 1_555 1_555
H10 C12 1_555 1_555
C13 C6 1_555 1_555
H11 C13 1_555 1_555
C14 C5 1_555 1_555
H12 C14 1_555 1_555
C15 N2 1_555 1_555
H13 C15 1_555 1_555
H14 C15 1_555 1_555
H15 C15 1_555 1_555
C8 C14 1_555 1_555
C9 C13 1_555 1_555
C10 C11 1_555 1_555

#END
