
#######################################################################
#
#                 Cambridge Crystallographic Data Centre
#                                CCDC 
#
#######################################################################
#
# If this CIF has been generated from an entry in the Cambridge 
# Structural Database, then it will include bibliographic, chemical, 
# crystal, experimental, refinement or atomic coordinate data resulting 
# from the CCDC's data processing and validation procedures.
#
#######################################################################

data_KAKQOF
_chemical_formula_moiety         'C15 H15 Cl1 N2 O1'
_chemical_name_systematic        
4-chloro-2-((4-(dimethylamino)phenyl)carbonoimidoyl)phenol
_symmetry_cell_setting           orthorhombic
_symmetry_space_group_name_H-M   'P 21 21 21'
_symmetry_Int_Tables_number      19
_space_group_name_Hall           'P 2ac 2ab'
loop_
_symmetry_equiv_pos_site_id
_symmetry_equiv_pos_as_xyz
1 x,y,z
2 1/2-x,-y,1/2+z
3 -x,1/2+y,1/2-z
4 1/2+x,1/2-y,-z
_cell_length_a                   6.0936(12)
_cell_length_b                   8.4244(17)
_cell_length_c                   26.374(5)
_cell_angle_alpha                90
_cell_angle_beta                 90
_cell_angle_gamma                90
_cell_volume                     1353.91
_exptl_crystal_description       Prism
_cell_formula_units_Z            4
loop_
_atom_site_label
_atom_site_type_symbol
_atom_site_fract_x
_atom_site_fract_y
_atom_site_fract_z
Cl1 Cl 0.5332(3) 0.5967(2) 0.23997(6)
C1 C 0.2375(9) 0.2987(6) 0.1419(2)
O1 O -0.1141(7) 0.1729(6) 0.14705(15)
H1 H -0.0781 0.1484 0.1181
N1 N 0.1484(7) 0.1345(5) 0.07222(16)
C2 C 0.0396(9) 0.2714(6) 0.16722(19)
C3 C 0.0706(9) -0.3319(7) -0.1207(2)
H2 H 0.0489 -0.4050 -0.0932
H3 H 0.1154 -0.3892 -0.1504
H4 H -0.0641 -0.2769 -0.1275
C4 C 0.3923(9) 0.3998(7) 0.16478(19)
H5 H 0.5260 0.4194 0.1490
C5 C 0.1484(10) 0.4434(6) 0.2351(2)
H6 H 0.1187 0.4932 0.2658
N2 N 0.2392(7) -0.2182(6) -0.10706(17)
C6 C -0.0040(10) 0.3428(6) 0.21369(19)
H7 H -0.1357 0.3227 0.2303
C7 C 0.3450(10) 0.4697(6) 0.2107(2)
C8 C 0.2150(9) -0.1266(6) -0.0643(2)
C9 C 0.0148(9) -0.0440(6) 0.00976(19)
H8 H -0.1103 -0.0524 0.0298
C10 C 0.3813(9) -0.0227(6) -0.04859(19)
H9 H 0.5070 -0.0137 -0.0684
C11 C 0.1803(9) 0.0556(6) 0.0253(2)
C12 C 0.2883(10) 0.2266(7) 0.09329(19)
H10 H 0.4219 0.2472 0.0775
C13 C 0.3660(9) 0.0662(7) -0.00514(19)
H11 H 0.4801 0.1337 0.0040
C14 C 0.0265(9) -0.1320(6) -0.03428(19)
H12 H -0.0915 -0.1951 -0.0440
C15 C 0.4434(10) -0.2253(7) -0.1348(2)
H13 H 0.4677 -0.1260 -0.1517
H14 H 0.4364 -0.3092 -0.1593
H15 H 0.5618 -0.2452 -0.1116
loop_
_geom_bond_atom_site_label_1
_geom_bond_atom_site_label_2
_geom_bond_site_symmetry_1
_geom_bond_site_symmetry_2
Cl1 C7 1_555 1_555
C1 C2 1_555 1_555
O1 H1 1_555 1_555
N1 C11 1_555 1_555
C2 O1 1_555 1_555
C3 H2 1_555 1_555
H3 C3 1_555 1_555
H4 C3 1_555 1_555
C4 C1 1_555 1_555
H5 C4 1_555 1_555
C5 H6 1_555 1_555
N2 C3 1_555 1_555
C6 C2 1_555 1_555
H7 C6 1_555 1_555
C7 C4 1_555 1_555
C8 N2 1_555 1_555
C9 H8 1_555 1_555
C10 C8 1_555 1_555
H9 C10 1_555 1_555
C11 C9 1_555 1_555
C12 C1 1_555 1_555
H10 C12 1_555 1_555
C13 C10 1_555 1_555
H11 C13 1_555 1_555
C14 C8 1_555 1_555
H12 C14 1_555 1_555
C15 N2 1_555 1_555
H13 C15 1_555 1_555
H14 C15 1_555 1_555
H15 C15 1_555 1_555
N1 C12 1_555 1_555
C5 C6 1_555 1_555
C5 C7 1_555 1_555
C9 C14 1_555 1_555
C11 C13 1_555 1_555

#END
