
#######################################################################
#
#                 Cambridge Crystallographic Data Centre
#                                CCDC 
#
#######################################################################
#
# If this CIF has been generated from an entry in the Cambridge 
# Structural Database, then it will include bibliographic, chemical, 
# crystal, experimental, refinement or atomic coordinate data resulting 
# from the CCDC's data processing and validation procedures.
#
#######################################################################

data_KAKRAS
_chemical_formula_moiety         'C16 H18 N2 O2'
_chemical_name_systematic        
2-((4-(dimethylamino)phenyl)carbonoimidoyl)-5-methoxyphenol
_symmetry_cell_setting           monoclinic
_symmetry_space_group_name_H-M   'P 21/c'
_symmetry_Int_Tables_number      14
_space_group_name_Hall           '-P 2ybc'
loop_
_symmetry_equiv_pos_site_id
_symmetry_equiv_pos_as_xyz
1 x,y,z
2 -x,1/2+y,1/2-z
3 -x,-y,-z
4 x,1/2-y,1/2+z
_cell_length_a                   14.9189(13)
_cell_length_b                   5.9680(5)
_cell_length_c                   20.9971(18)
_cell_angle_alpha                90
_cell_angle_beta                 130.968(3)
_cell_angle_gamma                90
_cell_volume                     1411.61
_exptl_crystal_description       Prism
_cell_formula_units_Z            4
loop_
_atom_site_label
_atom_site_type_symbol
_atom_site_fract_x
_atom_site_fract_y
_atom_site_fract_z
N1 N 0.24352(15) 0.5360(3) 0.23882(11)
N2 N 0.08051(17) 0.4410(3) 0.41459(13)
O1 O 0.24081(14) 0.7983(2) 0.13946(10)
H1 H 0.2236 0.7528 0.1671
O2 O 0.46038(14) 0.5651(3) 0.05883(10)
C1 C 0.30198(18) 0.3931(4) 0.23271(13)
H2 H 0.3220 0.2560 0.2601
C2 C 0.33733(17) 0.4395(3) 0.18454(13)
C3 C 0.30658(18) 0.6433(3) 0.13990(13)
C4 C 0.34514(18) 0.6882(3) 0.09633(14)
H3 H 0.3236 0.8212 0.0663
C5 C 0.41541(18) 0.5347(3) 0.09780(13)
C6 C 0.44653(19) 0.3331(4) 0.14098(14)
H4 H 0.4939 0.2302 0.1415
C7 C 0.40668(18) 0.2878(3) 0.18266(13)
H5 H 0.4265 0.1515 0.2106
C8 C 0.4306(2) 0.7643(4) 0.01141(17)
H6 H 0.3459 0.7760 -0.0315
H7 H 0.4649 0.7595 -0.0144
H8 H 0.4609 0.8918 0.0482
C9 C 0.20878(17) 0.5004(3) 0.28661(13)
C10 C 0.13948(19) 0.6647(4) 0.28202(14)
H9 H 0.1205 0.7912 0.2494
C11 C 0.09739(19) 0.6486(4) 0.32377(14)
H10 H 0.0508 0.7632 0.3186
C12 C 0.12381(18) 0.4619(4) 0.37390(13)
C13 C 0.19677(18) 0.2969(4) 0.38038(14)
H11 H 0.2182 0.1723 0.4144
C14 C 0.23729(19) 0.3154(4) 0.33746(14)
H12 H 0.2845 0.2023 0.3426
C15 C 0.0063(2) 0.6111(4) 0.40783(17)
H13 H 0.0539 0.7389 0.4409
H14 H -0.0309 0.5530 0.4282
H15 H -0.0536 0.6548 0.3499
C16 C 0.1031(2) 0.2469(4) 0.46331(18)
H16 H 0.0730 0.1164 0.4280
H17 H 0.0643 0.2632 0.4857
H18 H 0.1870 0.2312 0.5089
loop_
_geom_bond_atom_site_label_1
_geom_bond_atom_site_label_2
_geom_bond_site_symmetry_1
_geom_bond_site_symmetry_2
N1 C1 1_555 1_555
N2 C12 1_555 1_555
O1 H1 1_555 1_555
O2 C5 1_555 1_555
C1 H2 1_555 1_555
C2 C1 1_555 1_555
C3 O1 1_555 1_555
C4 C3 1_555 1_555
H3 C4 1_555 1_555
C5 C4 1_555 1_555
C6 C5 1_555 1_555
H4 C6 1_555 1_555
C7 C2 1_555 1_555
H5 C7 1_555 1_555
C8 O2 1_555 1_555
H6 C8 1_555 1_555
H7 C8 1_555 1_555
H8 C8 1_555 1_555
C9 N1 1_555 1_555
C10 C9 1_555 1_555
H9 C10 1_555 1_555
C11 C10 1_555 1_555
H10 C11 1_555 1_555
C12 C11 1_555 1_555
C13 C12 1_555 1_555
H11 C13 1_555 1_555
C14 C9 1_555 1_555
H12 C14 1_555 1_555
C15 N2 1_555 1_555
H13 C15 1_555 1_555
H14 C15 1_555 1_555
H15 C15 1_555 1_555
C16 N2 1_555 1_555
H16 C16 1_555 1_555
H17 C16 1_555 1_555
H18 C16 1_555 1_555
C2 C3 1_555 1_555
C6 C7 1_555 1_555
C13 C14 1_555 1_555

#END
