
#######################################################################
#
#                 Cambridge Crystallographic Data Centre
#                                CCDC 
#
#######################################################################
#
# If this CIF has been generated from an entry in the Cambridge 
# Structural Database, then it will include bibliographic, chemical, 
# crystal, experimental, refinement or atomic coordinate data resulting 
# from the CCDC's data processing and validation procedures.
#
#######################################################################

data_KAKSOG02
_chemical_formula_moiety         'C21 H24 O6'
_chemical_name_systematic        
'4,4,11-Trimethyl-10,14-dioxo-2,15-dioxapentacyclo[6.5.3.2^9,12^.0^1,9^.0^3,8^]octadeca-5,17-dien-11-yl acetate'
_symmetry_cell_setting           orthorhombic
_symmetry_space_group_name_H-M   'P b c a'
_symmetry_Int_Tables_number      61
_space_group_name_Hall           '-P 2ac 2ab'
loop_
_symmetry_equiv_pos_site_id
_symmetry_equiv_pos_as_xyz
1 x,y,z
2 1/2-x,-y,1/2+z
3 -x,1/2+y,1/2-z
4 1/2+x,1/2-y,-z
5 -x,-y,-z
6 1/2+x,y,1/2-z
7 x,1/2-y,1/2+z
8 1/2-x,1/2+y,z
_cell_length_a                   14.767(3)
_cell_length_b                   10.080(2)
_cell_length_c                   25.114(5)
_cell_angle_alpha                90
_cell_angle_beta                 90
_cell_angle_gamma                90
_cell_volume                     3738.25
_cell_formula_units_Z            8
loop_
_atom_site_label
_atom_site_type_symbol
_atom_site_fract_x
_atom_site_fract_y
_atom_site_fract_z
C1 C -0.0851(2) 0.2725(3) 0.47063(12)
C2 C -0.1598(3) 0.3768(4) 0.47773(14)
H1 H -0.2048 0.3654 0.4505
H2 H -0.1340 0.4639 0.4750
H3 H -0.1874 0.3662 0.5121
C3 C -0.0175(3) 0.2909(4) 0.51625(13)
H4 H -0.0481 0.2792 0.5497
H5 H 0.0077 0.3786 0.5146
H6 H 0.0301 0.2266 0.5131
C4 C -0.1285(2) 0.1372(4) 0.47330(14)
H7 H -0.1647 0.1192 0.5028
C5 C -0.1199(2) 0.0428(4) 0.43781(15)
H8 H -0.1513 -0.0357 0.4439
C6 C -0.0632(3) 0.0504(3) 0.38765(12)
H9 H -0.1021 0.0649 0.3571
H10 H -0.0312 -0.0326 0.3824
C7 C 0.0048(2) 0.1643(3) 0.39249(11)
C8 C 0.0443(2) 0.2292(3) 0.34301(11)
C9 C 0.1178(2) 0.1656(3) 0.30970(12)
C10 C 0.1606(2) 0.2632(3) 0.26936(11)
C11 C 0.2616(2) 0.2771(4) 0.28043(12)
H11 H 0.2913 0.1944 0.2731
H12 H 0.2706 0.3003 0.3171
H13 H 0.2864 0.3452 0.2581
C12 C 0.1784(3) 0.2405(4) 0.17218(13)
C13 C 0.1569(3) 0.1478(4) 0.12736(13)
H14 H 0.1709 0.1898 0.0941
H15 H 0.0937 0.1256 0.1283
H16 H 0.1924 0.0684 0.1310
C14 C 0.1058(2) 0.3934(3) 0.27195(12)
H17 H 0.1259 0.4562 0.2446
C15 C 0.0076(2) 0.3557(4) 0.26405(13)
H18 H -0.0275 0.3871 0.2360
C16 C -0.0235(2) 0.2734(3) 0.30095(12)
H19 H -0.0833 0.2444 0.3011
C17 C 0.1120(2) 0.4565(3) 0.32908(12)
H20 H 0.1735 0.4858 0.3359
H21 H 0.0724 0.5331 0.3312
C18 C 0.0844(2) 0.3548(3) 0.37030(12)
C19 C -0.0452(2) 0.2839(3) 0.41504(12)
H22 H -0.0972 0.2975 0.3914
C20 C 0.0835(2) 0.1145(3) 0.42702(12)
H23 H 0.0593 0.0845 0.4609
H24 H 0.1107 0.0383 0.4096
C21 C 0.1631(2) 0.3181(4) 0.40797(13)
O1 O 0.01356(15) 0.3970(2) 0.40606(8)
O2 O 0.15297(17) 0.2099(2) 0.43722(9)
O3 O 0.22820(18) 0.3872(3) 0.41404(10)
O4 O 0.13996(18) 0.0509(2) 0.31208(9)
O5 O 0.14519(16) 0.1947(2) 0.21864(8)
O6 O 0.2186(2) 0.3437(3) 0.16782(10)
loop_
_geom_bond_atom_site_label_1
_geom_bond_atom_site_label_2
_geom_bond_site_symmetry_1
_geom_bond_site_symmetry_2
C1 C2 1_555 1_555
C2 H1 1_555 1_555
H2 C2 1_555 1_555
H3 C2 1_555 1_555
C3 C1 1_555 1_555
H4 C3 1_555 1_555
H5 C3 1_555 1_555
H6 C3 1_555 1_555
C4 C1 1_555 1_555
H7 C4 1_555 1_555
C5 C4 1_555 1_555
H8 C5 1_555 1_555
C6 C5 1_555 1_555
H9 C6 1_555 1_555
H10 C6 1_555 1_555
C7 C6 1_555 1_555
C8 C7 1_555 1_555
C9 C8 1_555 1_555
C10 C9 1_555 1_555
C11 C10 1_555 1_555
H11 C11 1_555 1_555
H12 C11 1_555 1_555
H13 C11 1_555 1_555
C12 C13 1_555 1_555
C13 H14 1_555 1_555
H15 C13 1_555 1_555
H16 C13 1_555 1_555
C14 C10 1_555 1_555
H17 C14 1_555 1_555
C15 C14 1_555 1_555
H18 C15 1_555 1_555
C16 C8 1_555 1_555
H19 C16 1_555 1_555
C17 C14 1_555 1_555
H20 C17 1_555 1_555
H21 C17 1_555 1_555
C18 C8 1_555 1_555
C19 C1 1_555 1_555
H22 C19 1_555 1_555
C20 C7 1_555 1_555
H23 C20 1_555 1_555
H24 C20 1_555 1_555
C21 C18 1_555 1_555
O1 C18 1_555 1_555
O2 C20 1_555 1_555
O3 C21 1_555 1_555
O4 C9 1_555 1_555
O5 C10 1_555 1_555
O6 C12 1_555 1_555
C7 C19 1_555 1_555
C12 O5 1_555 1_555
C15 C16 1_555 1_555
C17 C18 1_555 1_555
C19 O1 1_555 1_555
C21 O2 1_555 1_555

#END
