
#######################################################################
#
#                 Cambridge Crystallographic Data Centre
#                                CCDC 
#
#######################################################################
#
# If this CIF has been generated from an entry in the Cambridge 
# Structural Database, then it will include bibliographic, chemical, 
# crystal, experimental, refinement or atomic coordinate data resulting 
# from the CCDC's data processing and validation procedures.
#
#######################################################################

data_KAKSOG
_chemical_formula_moiety         'C21 H24 O6'
_chemical_name_systematic        
'4,4,11-trimethyl-10,14-dioxo-2,15-dioxapentacyclo[6.5.3.2^9,12^.0^1,9^.0^3,8^]octadeca-5,17-dien-11-yl acetate'
_symmetry_cell_setting           orthorhombic
_symmetry_space_group_name_H-M   'P b c a'
_symmetry_Int_Tables_number      61
_space_group_name_Hall           '-P 2ac 2ab'
loop_
_symmetry_equiv_pos_site_id
_symmetry_equiv_pos_as_xyz
1 x,y,z
2 1/2-x,-y,1/2+z
3 -x,1/2+y,1/2-z
4 1/2+x,1/2-y,-z
5 -x,-y,-z
6 1/2+x,y,1/2-z
7 x,1/2-y,1/2+z
8 1/2-x,1/2+y,z
_cell_length_a                   10.922(2)
_cell_length_b                   15.497(3)
_cell_length_c                   21.965(4)
_cell_angle_alpha                90
_cell_angle_beta                 90
_cell_angle_gamma                90
_cell_volume                     3717.76
_cell_formula_units_Z            8
loop_
_atom_site_label
_atom_site_type_symbol
_atom_site_fract_x
_atom_site_fract_y
_atom_site_fract_z
C1 C 0.4100(2) 0.32584(16) 0.45872(11)
C2 C 0.3758(2) 0.24091(16) 0.42558(11)
C3 C 0.4443(2) 0.22682(15) 0.36579(10)
C4 C 0.4381(2) 0.13570(15) 0.33832(10)
C5 C 0.3186(2) 0.08442(15) 0.33146(11)
H1 H 0.2700 0.0892 0.3683
H2 H 0.2711 0.1070 0.2977
C6 C 0.3520(3) -0.00976(17) 0.31974(11)
H3 H 0.2937 -0.0442 0.3006
C7 C 0.4561(3) -0.04588(16) 0.33450(11)
H4 H 0.4668 -0.1033 0.3234
C8 C 0.5604(2) -0.00311(16) 0.36773(11)
C9 C 0.5159(2) 0.08726(15) 0.38525(10)
H5 H 0.4643 0.0801 0.4214
C10 C 0.5848(2) 0.22880(15) 0.37775(10)
C11 C 0.6205(2) 0.30416(14) 0.41865(11)
H6 H 0.6923 0.3329 0.4024
H7 H 0.6397 0.2834 0.4592
C12 C 0.5122(2) 0.36760(15) 0.42141(11)
H8 H 0.5371 0.4231 0.4389
C13 C 0.2978(2) 0.38323(16) 0.46759(11)
H9 H 0.2412 0.3553 0.4946
H10 H 0.2590 0.3930 0.4290
H11 H 0.3226 0.4375 0.4847
C14 C 0.4184(2) 0.30870(16) 0.33066(11)
H12 H 0.3795 0.3095 0.2930
C15 C 0.4568(2) 0.37910(16) 0.35880(11)
H13 H 0.4500 0.4333 0.3409
C16 C 0.6546(2) 0.23229(17) 0.31690(12)
C17 C 0.4913(2) 0.14338(15) 0.27442(10)
H14 H 0.5002 0.0858 0.2577
H15 H 0.4329 0.1740 0.2491
C18 C 0.6785(2) -0.00346(15) 0.32983(12)
H16 H 0.7015 -0.0619 0.3210
H17 H 0.7428 0.0241 0.3524
H18 H 0.6650 0.0272 0.2925
C19 C 0.5846(2) -0.05408(14) 0.42690(11)
H19 H 0.5118 -0.0546 0.4513
H20 H 0.6498 -0.0271 0.4492
H21 H 0.6073 -0.1123 0.4170
C20 C 0.4939(3) 0.3449(2) 0.56188(13)
C21 C 0.5223(2) 0.29413(17) 0.61797(10)
H22 H 0.5671 0.3296 0.6460
H23 H 0.5707 0.2447 0.6073
H24 H 0.4473 0.2755 0.6366
O1 O 0.45173(15) 0.29159(10) 0.51754(7)
O2 O 0.5059(2) 0.42062(13) 0.55588(9)
O3 O 0.29765(15) 0.19319(11) 0.44549(7)
O4 O 0.61450(14) 0.14561(10) 0.40265(7)
O5 O 0.60810(16) 0.18674(11) 0.27006(7)
O6 O 0.75089(18) 0.26819(11) 0.30990(8)
loop_
_geom_bond_atom_site_label_1
_geom_bond_atom_site_label_2
_geom_bond_site_symmetry_1
_geom_bond_site_symmetry_2
C1 C2 1_555 1_555
C2 C3 1_555 1_555
C3 C4 1_555 1_555
C4 C5 1_555 1_555
C5 H1 1_555 1_555
H2 C5 1_555 1_555
C6 C5 1_555 1_555
H3 C6 1_555 1_555
C7 C6 1_555 1_555
H4 C7 1_555 1_555
C8 C7 1_555 1_555
C9 C4 1_555 1_555
H5 C9 1_555 1_555
C10 C3 1_555 1_555
C11 C10 1_555 1_555
H6 C11 1_555 1_555
H7 C11 1_555 1_555
C12 C1 1_555 1_555
H8 C12 1_555 1_555
C13 C1 1_555 1_555
H9 C13 1_555 1_555
H10 C13 1_555 1_555
H11 C13 1_555 1_555
C14 C3 1_555 1_555
H12 C14 1_555 1_555
C15 C12 1_555 1_555
H13 C15 1_555 1_555
C16 C10 1_555 1_555
C17 C4 1_555 1_555
H14 C17 1_555 1_555
H15 C17 1_555 1_555
C18 C8 1_555 1_555
H16 C18 1_555 1_555
H17 C18 1_555 1_555
H18 C18 1_555 1_555
C19 C8 1_555 1_555
H19 C19 1_555 1_555
H20 C19 1_555 1_555
H21 C19 1_555 1_555
C20 C21 1_555 1_555
C21 H22 1_555 1_555
H23 C21 1_555 1_555
H24 C21 1_555 1_555
O1 C1 1_555 1_555
O2 C20 1_555 1_555
O3 C2 1_555 1_555
O4 C9 1_555 1_555
O5 C16 1_555 1_555
O6 C16 1_555 1_555
C8 C9 1_555 1_555
C10 O4 1_555 1_555
C11 C12 1_555 1_555
C14 C15 1_555 1_555
C17 O5 1_555 1_555
C20 O1 1_555 1_555

#END
