
#######################################################################
#
#                 Cambridge Crystallographic Data Centre
#                                CCDC 
#
#######################################################################
#
# If this CIF has been generated from an entry in the Cambridge 
# Structural Database, then it will include bibliographic, chemical, 
# crystal, experimental, refinement or atomic coordinate data resulting 
# from the CCDC's data processing and validation procedures.
#
#######################################################################

data_KAKVAV
_chemical_formula_moiety         'C23 H18 N4'
_chemical_name_systematic        
2-Amino-8-methyl-4-phenyl-6,11-dihydro-5H-pyrido[2,3-a]carbazole-3-carbonitrile
_symmetry_cell_setting           monoclinic
_symmetry_space_group_name_H-M   'P 21/c'
_symmetry_Int_Tables_number      14
_space_group_name_Hall           '-P 2ybc'
loop_
_symmetry_equiv_pos_site_id
_symmetry_equiv_pos_as_xyz
1 x,y,z
2 -x,1/2+y,1/2-z
3 -x,-y,-z
4 x,1/2-y,1/2+z
_cell_length_a                   6.9626(4)
_cell_length_b                   7.9051(4)
_cell_length_c                   32.9708(18)
_cell_angle_alpha                90
_cell_angle_beta                 90.215(2)
_cell_angle_gamma                90
_cell_volume                     1814.7
_exptl_crystal_colour            orange
_cell_formula_units_Z            4
loop_
_atom_site_label
_atom_site_type_symbol
_atom_site_fract_x
_atom_site_fract_y
_atom_site_fract_z
N1 N 0.10883(14) 0.75859(13) 0.71062(3)
H1 H 0.034(2) 0.8304(19) 0.6985(4)
N2 N 0.26028(14) 0.83598(13) 0.63034(3)
N3 N 0.24820(17) 0.98506(16) 0.57054(4)
H2 H 0.157(2) 1.045(2) 0.5818(5)
H3 H 0.296(2) 1.021(2) 0.5464(5)
N4 N 0.62328(17) 0.84296(16) 0.50805(3)
C1 C 0.10150(16) 0.71204(15) 0.75085(3)
C2 C -0.03459(17) 0.74916(15) 0.78067(4)
H4 H -0.1465 0.8132 0.7746
C3 C -0.00001(17) 0.68912(15) 0.81935(4)
H5 H -0.0909 0.7128 0.8400
C4 C 0.16530(17) 0.59372(15) 0.82948(3)
C5 C 0.29603(16) 0.55412(14) 0.79946(3)
H6 H 0.4057 0.4873 0.8057
C6 C 0.26602(16) 0.61312(14) 0.75967(3)
C7 C 0.37275(16) 0.60087(14) 0.72304(3)
C8 C 0.56096(17) 0.51859(16) 0.71336(4)
H7 H 0.5791 0.4171 0.7305
H8 H 0.6676 0.5982 0.7190
C9 C 0.56227(17) 0.46811(15) 0.66851(4)
H9 H 0.6941 0.4343 0.6608
H10 H 0.4775 0.3689 0.6646
C10 C 0.49586(16) 0.60968(15) 0.64075(4)
C11 C 0.34304(16) 0.71532(15) 0.65313(3)
C12 C 0.27421(16) 0.69117(15) 0.69413(4)
C13 C 0.33008(17) 0.86094(16) 0.59296(4)
C14 C 0.48369(17) 0.76258(16) 0.57774(4)
C15 C 0.56556(16) 0.63429(15) 0.60176(4)
C16 C 0.72313(17) 0.53101(15) 0.58373(4)
C17 C 0.91061(18) 0.54357(16) 0.59848(4)
H11 H 0.9374 0.6112 0.6216
C18 C 1.05780(19) 0.45715(18) 0.57929(4)
H12 H 1.1856 0.4664 0.5893
C19 C 1.0196(2) 0.35737(18) 0.54566(4)
H13 H 1.1215 0.3006 0.5323
C20 C 0.8334(2) 0.34055(18) 0.53165(4)
H14 H 0.8067 0.2693 0.5091
C21 C 0.68511(19) 0.42765(17) 0.55047(4)
H15 H 0.5573 0.4166 0.5406
C22 C 0.56230(18) 0.80337(16) 0.53908(4)
C23 C 0.20099(18) 0.54250(17) 0.87288(4)
H16 H 0.1160 0.4483 0.8800
H17 H 0.1750 0.6387 0.8908
H18 H 0.3351 0.5072 0.8761
loop_
_geom_bond_atom_site_label_1
_geom_bond_atom_site_label_2
_geom_bond_site_symmetry_1
_geom_bond_site_symmetry_2
N1 H1 1_555 1_555
N2 C11 1_555 1_555
N3 H2 1_555 1_555
H3 N3 1_555 1_555
N4 C22 1_555 1_555
C1 N1 1_555 1_555
C2 C1 1_555 1_555
H4 C2 1_555 1_555
C3 C2 1_555 1_555
H5 C3 1_555 1_555
C4 C3 1_555 1_555
C5 C4 1_555 1_555
H6 C5 1_555 1_555
C6 C1 1_555 1_555
C7 C6 1_555 1_555
C8 C7 1_555 1_555
H7 C8 1_555 1_555
H8 C8 1_555 1_555
C9 C8 1_555 1_555
H9 C9 1_555 1_555
H10 C9 1_555 1_555
C10 C9 1_555 1_555
C11 C10 1_555 1_555
C12 N1 1_555 1_555
C13 N2 1_555 1_555
C14 C13 1_555 1_555
C15 C10 1_555 1_555
C16 C15 1_555 1_555
C17 C16 1_555 1_555
H11 C17 1_555 1_555
C18 C17 1_555 1_555
H12 C18 1_555 1_555
C19 C18 1_555 1_555
H13 C19 1_555 1_555
C20 C19 1_555 1_555
H14 C20 1_555 1_555
C21 C16 1_555 1_555
H15 C21 1_555 1_555
C22 C14 1_555 1_555
C23 C4 1_555 1_555
H16 C23 1_555 1_555
H17 C23 1_555 1_555
H18 C23 1_555 1_555
N3 C13 1_555 1_555
C5 C6 1_555 1_555
C7 C12 1_555 1_555
C11 C12 1_555 1_555
C14 C15 1_555 1_555
C20 C21 1_555 1_555

#END
