
#######################################################################
#
#                 Cambridge Crystallographic Data Centre
#                                CCDC 
#
#######################################################################
#
# If this CIF has been generated from an entry in the Cambridge 
# Structural Database, then it will include bibliographic, chemical, 
# crystal, experimental, refinement or atomic coordinate data resulting 
# from the CCDC's data processing and validation procedures.
#
#######################################################################

data_KAKXAX
_chemical_name_common            
"2'-Methoxyl-O-1',4':3',6'-dianhydro-beta-D-fructofuranosyl 3,6-anhydro-4-chloro-4-deoxy-alpha-D-galactopyranoside"
_chemical_formula_moiety         'C13 H19 Cl1 O8'
_chemical_name_systematic        
6-((8-Chloro-4-hydroxy-2,6-dioxabicyclo[3.2.1]oct-3-yl)oxy)-6-methoxyhexahydrofuro[3,2-b]furan-3-ol
_symmetry_cell_setting           monoclinic
_symmetry_space_group_name_H-M   'P 21'
_symmetry_Int_Tables_number      4
_space_group_name_Hall           'P 2yb'
loop_
_symmetry_equiv_pos_site_id
_symmetry_equiv_pos_as_xyz
1 x,y,z
2 -x,1/2+y,-z
_cell_length_a                   11.493(2)
_cell_length_b                   5.8466(12)
_cell_length_c                   11.719(2)
_cell_angle_alpha                90
_cell_angle_beta                 107.50(3)
_cell_angle_gamma                90
_cell_volume                     751.012
_exptl_crystal_colour            colorless
_exptl_crystal_description       prismatic
_cell_formula_units_Z            2
loop_
_atom_site_label
_atom_site_type_symbol
_atom_site_fract_x
_atom_site_fract_y
_atom_site_fract_z
Cl1 Cl 0.88463(9) 0.2673(2) 0.44507(11)
O1 O 0.5876(2) -0.0223(5) 0.2227(2)
O2 O 0.4990(3) 0.4360(5) 0.2991(3)
O3 O 0.6704(3) 0.0000(5) 0.4978(2)
O4 O 0.3891(2) 0.0718(5) 0.1704(2)
O5 O -0.0937(3) 0.0543(8) 0.1393(3)
O6 O 0.2273(2) 0.0670(5) 0.3057(2)
O7 O 0.3271(2) -0.3061(4) 0.1137(2)
O8 O 0.0827(2) -0.0944(5) 0.0365(2)
C1 C 0.4894(3) 0.0191(6) 0.2707(3)
H1 H 0.4723 -0.1186 0.3106
C2 C 0.1924(3) 0.0194(7) 0.0355(3)
H2 H 0.1860 0.1826 0.0473
H3 H 0.2090 -0.0056 -0.0400
C3 C 0.5139(3) 0.2234(6) 0.3576(3)
H4 H 0.4590 0.2147 0.4073
C4 C 0.2922(3) -0.0849(6) 0.1381(3)
C5 C 0.6465(3) 0.2167(6) 0.4383(3)
H5 H 0.6639 0.3433 0.4958
C6 C 0.2264(3) -0.1288(6) 0.2322(3)
H6 H 0.2602 -0.2630 0.2810
C7 C 0.7280(3) 0.2239(7) 0.3597(3)
H7 H 0.7004 0.3381 0.2961
C8 C 0.0936(3) -0.1711(7) 0.1565(3)
H8 H 0.0702 -0.3320 0.1582
C9 C 0.7062(3) -0.0189(7) 0.3106(4)
H9 H 0.7701 -0.0671 0.2761
C10 C 0.0211(3) -0.0155(8) 0.2149(3)
H10 H 0.0075 -0.0991 0.2822
C11 C 0.7115(4) -0.1522(7) 0.4207(4)
H11 H 0.6590 -0.2854 0.4006
H12 H 0.7943 -0.2028 0.4600
C12 C 0.1115(4) 0.1757(8) 0.2660(4)
H13 H 0.1101 0.2890 0.2051
H14 H 0.0925 0.2504 0.3321
C13 C 0.3813(4) -0.3265(9) 0.0188(4)
H15 H 0.4013 -0.4838 0.0104
H16 H 0.4541 -0.2356 0.0371
H17 H 0.3247 -0.2740 -0.0546
H18 H 0.426(5) 0.430(13) 0.247(6)
H19 H -0.072(5) 0.131(10) 0.102(5)
loop_
_geom_bond_atom_site_label_1
_geom_bond_atom_site_label_2
_geom_bond_site_symmetry_1
_geom_bond_site_symmetry_2
Cl1 C7 1_555 1_555
O1 C1 1_555 1_555
O2 C3 1_555 1_555
O3 C5 1_555 1_555
O4 C1 1_555 1_555
O5 C10 1_555 1_555
O6 C6 1_555 1_555
O7 C4 1_555 1_555
O8 C2 1_555 1_555
C1 H1 1_555 1_555
C2 H2 1_555 1_555
H3 C2 1_555 1_555
C3 C1 1_555 1_555
H4 C3 1_555 1_555
C4 O4 1_555 1_555
C5 C3 1_555 1_555
H5 C5 1_555 1_555
C6 C4 1_555 1_555
H6 C6 1_555 1_555
C7 C5 1_555 1_555
H7 C7 1_555 1_555
C8 O8 1_555 1_555
H8 C8 1_555 1_555
C9 O1 1_555 1_555
H9 C9 1_555 1_555
C10 C8 1_555 1_555
H10 C10 1_555 1_555
C11 O3 1_555 1_555
H11 C11 1_555 1_555
H12 C11 1_555 1_555
C12 O6 1_555 1_555
H13 C12 1_555 1_555
H14 C12 1_555 1_555
C13 O7 1_555 1_555
H15 C13 1_555 1_555
H16 C13 1_555 1_555
H17 C13 1_555 1_555
H18 O2 1_555 1_555
H19 O5 1_555 1_555
C2 C4 1_555 1_555
C6 C8 1_555 1_555
C7 C9 1_555 1_555
C9 C11 1_555 1_555
C10 C12 1_555 1_555

#END
