
#######################################################################
#
#                 Cambridge Crystallographic Data Centre
#                                CCDC 
#
#######################################################################
#
# If this CIF has been generated from an entry in the Cambridge 
# Structural Database, then it will include bibliographic, chemical, 
# crystal, experimental, refinement or atomic coordinate data resulting 
# from the CCDC's data processing and validation procedures.
#
#######################################################################

data_KAKYED
_chemical_formula_moiety         'C20 H24 N2 O3'
_chemical_name_systematic        
"ethyl 1'-ethylidene-2'-methyl-2-oxo-1,1',2,2',5',6',7',7a'-octahydrospiro[indole-3,3'-pyrrolizine]-2'-carboxylate"
_symmetry_cell_setting           triclinic
_symmetry_space_group_name_H-M   'P -1'
_symmetry_Int_Tables_number      2
_space_group_name_Hall           '-P 1'
loop_
_symmetry_equiv_pos_site_id
_symmetry_equiv_pos_as_xyz
1 x,y,z
2 -x,-y,-z
_cell_length_a                   8.6872(6)
_cell_length_b                   9.4657(5)
_cell_length_c                   23.097(4)
_cell_angle_alpha                89.791(8)
_cell_angle_beta                 83.853(10)
_cell_angle_gamma                73.808(5)
_cell_volume                     1812.77
_cell_formula_units_Z            4
loop_
_atom_site_label
_atom_site_type_symbol
_atom_site_fract_x
_atom_site_fract_y
_atom_site_fract_z
O1 O 0.6312(3) 0.6947(2) 0.22938(8)
O2 O 0.8416(3) 0.7790(2) 0.34799(9)
O3 O 0.8178(3) 0.6873(3) 0.43685(9)
N1 N 0.4985(3) 0.8939(2) 0.28892(9)
H1 H 0.4860 0.9609 0.2632
N2 N 0.4948(2) 0.5476(2) 0.32425(8)
C1 C 0.9034(8) 1.0029(5) 0.3257(2)
H2 H 0.9906 0.9535 0.2973
H3 H 0.9265 1.0874 0.3415
H4 H 0.8055 1.0337 0.3075
C2 C 0.8847(5) 0.9023(4) 0.37257(18)
H5 H 0.9848 0.8671 0.3900
H6 H 0.8009 0.9531 0.4026
C3 C 0.8045(3) 0.6829(3) 0.38581(12)
C4 C 0.7386(3) 0.5755(3) 0.35374(10)
C5 C 0.8628(3) 0.4988(3) 0.30255(12)
H7 H 0.9586 0.4401 0.3175
H8 H 0.8894 0.5718 0.2775
H9 H 0.8177 0.4369 0.2808
C6 C 0.6900(3) 0.4568(3) 0.39012(10)
C7 C 0.7654(3) 0.3700(3) 0.42949(12)
H10 H 0.7127 0.3029 0.4449
C8 C 0.9212(4) 0.3612(4) 0.45350(16)
H11 H 0.9909 0.3952 0.4251
H12 H 0.9722 0.2611 0.4625
H13 H 0.9003 0.4218 0.4883
C9 C 0.5706(3) 0.6651(2) 0.33460(9)
C10 C 0.5424(3) 0.4331(3) 0.36789(10)
H14 H 0.5719 0.3362 0.3483
C11 C 0.5754(3) 0.7501(3) 0.27714(10)
C12 C 0.4414(3) 0.9208(3) 0.34839(10)
C13 C 0.4806(3) 0.7893(2) 0.37782(10)
C14 C 0.4431(3) 0.7915(3) 0.43754(10)
H15 H 0.4714 0.7051 0.4581
C15 C 0.3631(4) 0.9238(3) 0.46647(12)
H16 H 0.3369 0.9258 0.5066
C16 C 0.3218(4) 1.0522(3) 0.43640(13)
H17 H 0.2672 1.1398 0.4565
C17 C 0.3604(4) 1.0531(3) 0.37653(12)
H18 H 0.3326 1.1398 0.3561
C18 C 0.3179(3) 0.5912(3) 0.32662(13)
H19 H 0.2853 0.5557 0.2919
H20 H 0.2761 0.6976 0.3290
C19 C 0.2542(5) 0.5252(6) 0.37949(18)
H21 H 0.1790 0.6018 0.4043
H22 H 0.1977 0.4564 0.3681
C20 C 0.3918(4) 0.4474(3) 0.41159(12)
H23 H 0.3828 0.3512 0.4232
H24 H 0.3958 0.5039 0.4461
O4 O 0.1886(3) 1.4648(2) 0.16215(9)
O5 O 0.1978(3) 1.3744(3) 0.07256(10)
O6 O 0.4287(3) 1.2411(2) 0.27041(8)
N3 N 0.5496(3) 1.3793(2) 0.20967(9)
H25 H 0.5684 1.4360 0.2354
N4 N 0.5301(3) 1.0395(2) 0.16979(9)
C21 C 0.1435(8) 1.7184(5) 0.1804(3)
H26 H 0.1038 1.8143 0.1648
H27 H 0.2506 1.7064 0.1907
H28 H 0.0741 1.7085 0.2145
C22 C 0.1466(8) 1.6139(4) 0.1398(2)
H29 H 0.2244 1.6189 0.1070
H30 H 0.0415 1.6349 0.1257
C23 C 0.2164(4) 1.3550(3) 0.12249(13)
C24 C 0.2827(3) 1.2086(3) 0.15167(11)
C25 C 0.1687(4) 1.1946(4) 0.20631(13)
H31 H 0.2117 1.1022 0.2241
H32 H 0.0641 1.1992 0.1951
H33 H 0.1595 1.2736 0.2336
C26 C 0.3104(3) 1.0713(3) 0.11310(11)
C27 C 0.2161(4) 1.0404(4) 0.07611(13)
H34 H 0.2554 0.9486 0.0574
C28 C 0.0567(5) 1.1308(5) 0.06007(17)
H35 H 0.0725 1.1790 0.0242
H36 H 0.0065 1.2034 0.0903
H37 H -0.0113 1.0682 0.0554
C29 C 0.4595(4) 0.9605(3) 0.12929(11)
H38 H 0.4277 0.8810 0.1501
C30 C 0.4600(3) 1.1989(3) 0.16412(10)
C31 C 0.4737(4) 1.2747(3) 0.22204(10)
C32 C 0.5449(3) 1.2795(3) 0.12005(10)
C33 C 0.5723(3) 1.2691(3) 0.05999(11)
H39 H 0.5373 1.2019 0.0394
C34 C 0.6530(4) 1.3606(3) 0.03093(12)
H40 H 0.6725 1.3541 -0.0095
C35 C 0.7046(4) 1.4606(3) 0.06099(13)
H41 H 0.7599 1.5199 0.0407
C36 C 0.6756(4) 1.4744(3) 0.12108(13)
H42 H 0.7098 1.5424 0.1415
C37 C 0.5943(3) 1.3842(3) 0.14957(11)
C38 C 0.5950(4) 0.8925(3) 0.08069(13)
H43 H 0.5899 0.7959 0.0687
H44 H 0.5875 0.9548 0.0471
C39 C 0.7455(5) 0.8818(5) 0.10692(18)
H45 H 0.8227 0.9094 0.0789
H46 H 0.7925 0.7814 0.1181
C40 C 0.7073(4) 0.9830(3) 0.15943(13)
H47 H 0.7497 0.9302 0.1930
H48 H 0.7551 1.0636 0.1526
loop_
_geom_bond_atom_site_label_1
_geom_bond_atom_site_label_2
_geom_bond_site_symmetry_1
_geom_bond_site_symmetry_2
O1 C11 1_555 1_555
O2 C2 1_555 1_555
O3 C3 1_555 1_555
N1 H1 1_555 1_555
N2 C9 1_555 1_555
C1 H2 1_555 1_555
H3 C1 1_555 1_555
H4 C1 1_555 1_555
C2 C1 1_555 1_555
H5 C2 1_555 1_555
H6 C2 1_555 1_555
C3 O2 1_555 1_555
C4 C3 1_555 1_555
C5 C4 1_555 1_555
H7 C5 1_555 1_555
H8 C5 1_555 1_555
H9 C5 1_555 1_555
C6 C4 1_555 1_555
C7 C6 1_555 1_555
H10 C7 1_555 1_555
C8 C7 1_555 1_555
H11 C8 1_555 1_555
H12 C8 1_555 1_555
H13 C8 1_555 1_555
C9 C4 1_555 1_555
C10 N2 1_555 1_555
H14 C10 1_555 1_555
C11 N1 1_555 1_555
C12 N1 1_555 1_555
C13 C9 1_555 1_555
C14 C13 1_555 1_555
H15 C14 1_555 1_555
C15 C14 1_555 1_555
H16 C15 1_555 1_555
C16 C15 1_555 1_555
H17 C16 1_555 1_555
C17 C12 1_555 1_555
H18 C17 1_555 1_555
C18 N2 1_555 1_555
H19 C18 1_555 1_555
H20 C18 1_555 1_555
C19 C18 1_555 1_555
H21 C19 1_555 1_555
H22 C19 1_555 1_555
C20 C10 1_555 1_555
H23 C20 1_555 1_555
H24 C20 1_555 1_555
O4 C22 1_555 1_555
O5 C23 1_555 1_555
O6 C31 1_555 1_555
N3 H25 1_555 1_555
N4 C29 1_555 1_555
C21 H26 1_555 1_555
H27 C21 1_555 1_555
H28 C21 1_555 1_555
C22 C21 1_555 1_555
H29 C22 1_555 1_555
H30 C22 1_555 1_555
C23 O4 1_555 1_555
C24 C23 1_555 1_555
C25 C24 1_555 1_555
H31 C25 1_555 1_555
H32 C25 1_555 1_555
H33 C25 1_555 1_555
C26 C24 1_555 1_555
C27 C26 1_555 1_555
H34 C27 1_555 1_555
C28 C27 1_555 1_555
H35 C28 1_555 1_555
H36 C28 1_555 1_555
H37 C28 1_555 1_555
C29 C26 1_555 1_555
H38 C29 1_555 1_555
C30 N4 1_555 1_555
C31 N3 1_555 1_555
C32 C30 1_555 1_555
C33 C32 1_555 1_555
H39 C33 1_555 1_555
C34 C33 1_555 1_555
H40 C34 1_555 1_555
C35 C34 1_555 1_555
H41 C35 1_555 1_555
C36 C35 1_555 1_555
H42 C36 1_555 1_555
C37 N3 1_555 1_555
C38 C29 1_555 1_555
H43 C38 1_555 1_555
H44 C38 1_555 1_555
C39 C38 1_555 1_555
H45 C39 1_555 1_555
H46 C39 1_555 1_555
C40 N4 1_555 1_555
H47 C40 1_555 1_555
H48 C40 1_555 1_555
C6 C10 1_555 1_555
C9 C11 1_555 1_555
C12 C13 1_555 1_555
C16 C17 1_555 1_555
C19 C20 1_555 1_555
C24 C30 1_555 1_555
C30 C31 1_555 1_555
C32 C37 1_555 1_555
C36 C37 1_555 1_555
C39 C40 1_555 1_555

#END
