
#######################################################################
#
#                 Cambridge Crystallographic Data Centre
#                                CCDC 
#
#######################################################################
#
# If this CIF has been generated from an entry in the Cambridge 
# Structural Database, then it will include bibliographic, chemical, 
# crystal, experimental, refinement or atomic coordinate data resulting 
# from the CCDC's data processing and validation procedures.
#
#######################################################################

data_KALBAD
_chemical_formula_moiety         'C22 H22 O4'
_chemical_name_systematic        
9-(cyclopentoxy)-8-methoxy-5H-benzo[4',5']cyclohepta[1',2':4,5]benzo[1,2-d][1,3]dioxole
_symmetry_cell_setting           triclinic
_symmetry_space_group_name_H-M   'P -1'
_symmetry_Int_Tables_number      2
_space_group_name_Hall           '-P 1'
loop_
_symmetry_equiv_pos_site_id
_symmetry_equiv_pos_as_xyz
1 x,y,z
2 -x,-y,-z
_cell_length_a                   9.4510(6)
_cell_length_b                   9.7866(6)
_cell_length_c                   11.0042(7)
_cell_angle_alpha                105.463(3)
_cell_angle_beta                 102.774(3)
_cell_angle_gamma                105.821(3)
_cell_volume                     895.187
_exptl_crystal_colour            colorless
_cell_formula_units_Z            2
loop_
_atom_site_label
_atom_site_type_symbol
_atom_site_fract_x
_atom_site_fract_y
_atom_site_fract_z
O1 O 1.11699(11) 0.36526(11) 1.17736(9)
O2 O 0.58353(15) -0.25823(16) 0.39080(12)
O3 O 0.42356(14) -0.28386(15) 0.52040(13)
O4 O 1.39622(12) 0.35613(15) 1.16627(11)
C1 C 0.8346(2) 0.1393(3) 1.2160(2)
H1 H 0.7536 0.1410 1.1453
H2 H 0.7898 0.0604 1.2486
C2 C 0.9656(2) 0.1106(2) 1.16517(19)
H3 H 0.9836 0.0228 1.1806
H4 H 0.9398 0.0929 1.0706
C3 C 1.1081(2) 0.2519(2) 1.24208(16)
H5 H 1.2033 0.2279 1.2578
C4 C 1.14196(17) 0.33004(16) 1.05620(14)
C5 C 1.02309(16) 0.30507(15) 0.94199(14)
C6 C 1.05291(17) 0.28230(17) 0.81965(15)
C7 C 0.9279(2) 0.26134(19) 0.69742(16)
H6 H 0.8910 0.3456 0.7151
H7 H 0.9711 0.2617 0.6253
C8 C 0.79408(17) 0.11605(18) 0.65564(14)
C9 C 0.76284(19) -0.0017(2) 0.53664(15)
H8 H 0.8258 0.0074 0.4830
C10 C 0.63709(18) -0.1303(2) 0.50191(15)
C11 C 0.4510(2) -0.3570(2) 0.40285(18)
H9 H 0.4676 -0.4495 0.4066
H10 H 0.3617 -0.3833 0.3262
C12 C 0.9064(2) 0.2912(3) 1.32692(19)
H11 H 0.8653 0.2887 1.4000
H12 H 0.8860 0.3697 1.2956
C13 C 1.0796(2) 0.3200(3) 1.37072(17)
H13 H 1.1393 0.4276 1.4112
H14 H 1.1057 0.2703 1.4333
C14 C 0.54157(17) -0.14502(19) 0.57894(15)
C15 C 0.56772(17) -0.03265(19) 0.69437(15)
H15 H 0.5008 -0.0430 0.7446
C16 C 0.69874(17) 0.09945(18) 0.73559(14)
C17 C 0.73269(18) 0.21638(19) 0.86386(15)
H16 H 0.6472 0.2312 0.8859
C18 C 0.87145(18) 0.30477(17) 0.95355(15)
H17 H 0.8715 0.3728 1.0309
C19 C 1.19693(19) 0.28033(19) 0.81429(16)
H18 H 1.2160 0.2635 0.7332
C20 C 1.31373(18) 0.30278(19) 0.92686(17)
H19 H 1.4098 0.3006 0.9208
C21 C 1.28723(17) 0.32849(18) 1.04837(16)
C22 C 1.5379(2) 0.3370(3) 1.1619(2)
H20 H 1.5178 0.2362 1.1044
H21 H 1.5998 0.3528 1.2497
H22 H 1.5926 0.4091 1.1285
loop_
_geom_bond_atom_site_label_1
_geom_bond_atom_site_label_2
_geom_bond_site_symmetry_1
_geom_bond_site_symmetry_2
O1 C3 1_555 1_555
O2 C10 1_555 1_555
O3 C11 1_555 1_555
O4 C21 1_555 1_555
C1 H1 1_555 1_555
H2 C1 1_555 1_555
C2 C1 1_555 1_555
H3 C2 1_555 1_555
H4 C2 1_555 1_555
C3 C2 1_555 1_555
H5 C3 1_555 1_555
C4 O1 1_555 1_555
C5 C4 1_555 1_555
C6 C5 1_555 1_555
C7 C6 1_555 1_555
H6 C7 1_555 1_555
H7 C7 1_555 1_555
C8 C7 1_555 1_555
C9 C8 1_555 1_555
H8 C9 1_555 1_555
C10 C9 1_555 1_555
C11 O2 1_555 1_555
H9 C11 1_555 1_555
H10 C11 1_555 1_555
C12 C1 1_555 1_555
H11 C12 1_555 1_555
H12 C12 1_555 1_555
C13 C3 1_555 1_555
H13 C13 1_555 1_555
H14 C13 1_555 1_555
C14 O3 1_555 1_555
C15 C14 1_555 1_555
H15 C15 1_555 1_555
C16 C8 1_555 1_555
C17 C16 1_555 1_555
H16 C17 1_555 1_555
C18 C5 1_555 1_555
H17 C18 1_555 1_555
C19 C6 1_555 1_555
H18 C19 1_555 1_555
C20 C19 1_555 1_555
H19 C20 1_555 1_555
C21 C4 1_555 1_555
C22 O4 1_555 1_555
H20 C22 1_555 1_555
H21 C22 1_555 1_555
H22 C22 1_555 1_555
C10 C14 1_555 1_555
C12 C13 1_555 1_555
C15 C16 1_555 1_555
C17 C18 1_555 1_555
C20 C21 1_555 1_555

#END
