
#######################################################################
#
#                 Cambridge Crystallographic Data Centre
#                                CCDC 
#
#######################################################################
#
# If this CIF has been generated from an entry in the Cambridge 
# Structural Database, then it will include bibliographic, chemical, 
# crystal, experimental, refinement or atomic coordinate data resulting 
# from the CCDC's data processing and validation procedures.
#
#######################################################################

data_KALCIL
_chemical_formula_moiety         'C20 H18 Cl2 N4 O2'
_chemical_name_systematic        
2,5-Dichloro-3,6-bis((2-(pyridin-2-yl)ethyl)amino)-1,4-benzoquinone
_symmetry_cell_setting           monoclinic
_symmetry_space_group_name_H-M   'P 21/c'
_symmetry_Int_Tables_number      14
_space_group_name_Hall           '-P 2ybc'
loop_
_symmetry_equiv_pos_site_id
_symmetry_equiv_pos_as_xyz
1 x,y,z
2 -x,1/2+y,1/2-z
3 -x,-y,-z
4 x,1/2-y,1/2+z
_cell_length_a                   8.4086(15)
_cell_length_b                   7.2680(14)
_cell_length_c                   15.564(3)
_cell_angle_alpha                90
_cell_angle_beta                 99.219(5)
_cell_angle_gamma                90
_cell_volume                     938.888
_exptl_crystal_colour            red
_exptl_crystal_description       plate
_cell_formula_units_Z            2
loop_
_atom_site_label
_atom_site_type_symbol
_atom_site_fract_x
_atom_site_fract_y
_atom_site_fract_z
C1 C 0.3894(3) 1.4959(4) 0.56003(17)
O1 O 0.2976(2) 1.5020(3) 0.61418(12)
C2 C 0.3712(3) 1.3671(4) 0.49037(17)
Cl1 Cl 0.20900(9) 1.21929(10) 0.48912(4)
C3 C 0.4726(3) 1.3669(4) 0.42991(17)
N1 N 0.4717(3) 1.2630(3) 0.35953(16)
H1 H 0.554(4) 1.290(4) 0.334(2)
C4 C 0.3636(4) 1.1155(4) 0.32541(18)
H2 H 0.3624 1.1046 0.2619
H3 H 0.2530 1.1458 0.3349
C5 C 0.4143(3) 0.9322(4) 0.36886(19)
H4 H 0.5200 0.8956 0.3540
H5 H 0.4270 0.9470 0.4328
C6 C 0.2941(4) 0.7838(4) 0.34105(19)
C7 C 0.1737(4) 0.7412(4) 0.3892(2)
H6 H 0.1686 0.8048 0.4420
C8 C 0.0623(4) 0.6083(4) 0.3612(2)
H7 H -0.0204 0.5780 0.3938
C9 C 0.0738(4) 0.5194(4) 0.2838(2)
H8 H -0.0010 0.4262 0.2619
C10 C 0.1955(4) 0.5687(4) 0.2395(2)
H9 H 0.2024 0.5069 0.1864
N2 N 0.3046(3) 0.6975(3) 0.26606(15)
C1B C 0.6106(3) 1.5041(4) 0.43997(17)
O1B O 0.7024(2) 1.4980(3) 0.38582(12)
C2B C 0.6288(3) 1.6329(4) 0.50963(17)
Cl1B Cl 0.79100(9) 1.78071(10) 0.51088(4)
C3B C 0.5274(3) 1.6331(4) 0.57009(17)
N1B N 0.5283(3) 1.7370(3) 0.64047(16)
H1B H 0.446(4) 1.710(4) 0.666(2)
C4B C 0.6364(4) 1.8845(4) 0.67459(18)
H2B H 0.6376 1.8954 0.7381
H3B H 0.7470 1.8542 0.6651
C5B C 0.5857(3) 2.0678(4) 0.63114(19)
H4B H 0.4800 2.1044 0.6460
H5B H 0.5730 2.0530 0.5672
C6B C 0.7059(4) 2.2162(4) 0.65895(19)
C7B C 0.8263(4) 2.2588(4) 0.6108(2)
H6B H 0.8314 2.1952 0.5580
C8B C 0.9377(4) 2.3917(4) 0.6388(2)
H7B H 1.0204 2.4220 0.6062
C9B C 0.9262(4) 2.4806(4) 0.7162(2)
H8B H 1.0010 2.5738 0.7381
C10B C 0.8045(4) 2.4313(4) 0.7605(2)
H9B H 0.7976 2.4931 0.8136
N2B N 0.6954(3) 2.3025(3) 0.73394(15)
loop_
_geom_bond_atom_site_label_1
_geom_bond_atom_site_label_2
_geom_bond_site_symmetry_1
_geom_bond_site_symmetry_2
C1 O1 1_555 1_555
C2 C1 1_555 1_555
Cl1 C2 1_555 1_555
C3 C2 1_555 1_555
N1 C3 1_555 1_555
H1 N1 1_555 1_555
C4 N1 1_555 1_555
H2 C4 1_555 1_555
H3 C4 1_555 1_555
C5 C4 1_555 1_555
H4 C5 1_555 1_555
H5 C5 1_555 1_555
C6 C5 1_555 1_555
C7 C6 1_555 1_555
H6 C7 1_555 1_555
C8 C7 1_555 1_555
H7 C8 1_555 1_555
C9 C8 1_555 1_555
H8 C9 1_555 1_555
C10 C9 1_555 1_555
H9 C10 1_555 1_555
N2 C6 1_555 1_555
C1B C3 1_555 1_555
O1B C1B 1_555 1_555
C2B C1B 1_555 1_555
Cl1B C2B 1_555 1_555
C3B C1 1_555 1_555
N1B C3B 1_555 1_555
H1B N1B 1_555 1_555
C4B N1B 1_555 1_555
H2B C4B 1_555 1_555
H3B C4B 1_555 1_555
C5B C4B 1_555 1_555
H4B C5B 1_555 1_555
H5B C5B 1_555 1_555
C6B C5B 1_555 1_555
C7B C6B 1_555 1_555
H6B C7B 1_555 1_555
C8B C7B 1_555 1_555
H7B C8B 1_555 1_555
C9B C8B 1_555 1_555
H8B C9B 1_555 1_555
C10B C9B 1_555 1_555
H9B C10B 1_555 1_555
N2B C6B 1_555 1_555
C10 N2 1_555 1_555
C2B C3B 1_555 1_555
C10B N2B 1_555 1_555

#END
