
#######################################################################
#
#                 Cambridge Crystallographic Data Centre
#                                CCDC 
#
#######################################################################
#
# If this CIF has been generated from an entry in the Cambridge 
# Structural Database, then it will include bibliographic, chemical, 
# crystal, experimental, refinement or atomic coordinate data resulting 
# from the CCDC's data processing and validation procedures.
#
#######################################################################

data_KALCAD
_chemical_formula_moiety         'C18 H14 Cl2 N4 O2'
_chemical_name_systematic        
2,5-Dichloro-3,6-bis((pyridin-2-ylmethyl)amino)-1,4-benzoquinone
_symmetry_cell_setting           monoclinic
_symmetry_space_group_name_H-M   'P 21/n'
_symmetry_Int_Tables_number      14
_space_group_name_Hall           '-P 2yn'
loop_
_symmetry_equiv_pos_site_id
_symmetry_equiv_pos_as_xyz
1 x,y,z
2 1/2-x,1/2+y,1/2-z
3 -x,-y,-z
4 1/2+x,1/2-y,1/2+z
_cell_length_a                   4.9351(9)
_cell_length_b                   12.511(2)
_cell_length_c                   13.638(2)
_cell_angle_alpha                90
_cell_angle_beta                 90.916(3)
_cell_angle_gamma                90
_cell_volume                     841.944
_exptl_crystal_colour            red
_exptl_crystal_description       plate
_cell_formula_units_Z            2
loop_
_atom_site_label
_atom_site_type_symbol
_atom_site_fract_x
_atom_site_fract_y
_atom_site_fract_z
C1 C -0.1520(5) 0.08815(18) 0.53800(17)
O1 O -0.2929(4) 0.15850(14) 0.57391(14)
C2 C 0.0576(5) 0.10774(18) 0.46976(17)
Cl1 Cl 0.10315(11) 0.24167(4) 0.43948(4)
C3 C 0.2089(4) 0.02734(18) 0.43125(17)
N1 N 0.4098(4) 0.03041(16) 0.36821(15)
H1 H 0.478(6) -0.028(3) 0.356(2)
C4 C 0.5195(5) 0.11858(18) 0.31235(17)
H2 H 0.377(5) 0.149(2) 0.273(2)
H3 H 0.612(5) 0.171(2) 0.3572(18)
C5 C 0.7314(5) 0.07658(18) 0.24333(17)
C6 C 0.8482(5) 0.1447(2) 0.17541(17)
H4 H 0.791(6) 0.220(2) 0.172(2)
C7 C 1.0443(5) 0.1041(2) 0.11441(18)
H5 H 1.124(6) 0.144(3) 0.071(2)
C8 C 1.1177(5) -0.0023(2) 0.12325(18)
H6 H 1.254(6) -0.035(3) 0.086(2)
C9 C 0.9903(5) -0.0637(2) 0.19268(18)
H7 H 1.039(6) -0.131(3) 0.206(2)
N2 N 0.7998(4) -0.02621(16) 0.25248(15)
C1B C 0.1520(5) -0.08815(18) 0.46200(17)
O1B O 0.2929(4) -0.15850(14) 0.42609(14)
C2B C -0.0576(5) -0.10774(18) 0.53024(17)
Cl1B Cl -0.10315(11) -0.24167(4) 0.56052(4)
C3B C -0.2089(4) -0.02734(18) 0.56875(17)
N1B N -0.4098(4) -0.03041(16) 0.63179(15)
H1B H -0.478(6) 0.028(3) 0.644(2)
C4B C -0.5195(5) -0.11858(18) 0.68765(17)
H2B H -0.377(5) -0.149(2) 0.727(2)
H3B H -0.612(5) -0.171(2) 0.6428(18)
C5B C -0.7314(5) -0.07658(18) 0.75667(17)
C6B C -0.8482(5) -0.1447(2) 0.82459(17)
H4B H -0.791(6) -0.220(2) 0.828(2)
C7B C -1.0443(5) -0.1041(2) 0.88559(18)
H5B H -1.124(6) -0.144(3) 0.929(2)
C8B C -1.1177(5) 0.0023(2) 0.87675(18)
H6B H -1.254(6) 0.035(3) 0.914(2)
C9B C -0.9903(5) 0.0637(2) 0.80732(18)
H7B H -1.039(6) 0.131(3) 0.794(2)
N2B N -0.7998(4) 0.02621(16) 0.74752(15)
loop_
_geom_bond_atom_site_label_1
_geom_bond_atom_site_label_2
_geom_bond_site_symmetry_1
_geom_bond_site_symmetry_2
C1 O1 1_555 1_555
C2 C1 1_555 1_555
Cl1 C2 1_555 1_555
C3 C2 1_555 1_555
N1 C3 1_555 1_555
H1 N1 1_555 1_555
C4 N1 1_555 1_555
H2 C4 1_555 1_555
H3 C4 1_555 1_555
C5 C4 1_555 1_555
C6 C5 1_555 1_555
H4 C6 1_555 1_555
C7 C6 1_555 1_555
H5 C7 1_555 1_555
C8 C7 1_555 1_555
H6 C8 1_555 1_555
C9 C8 1_555 1_555
H7 C9 1_555 1_555
N2 C5 1_555 1_555
C1B C3 1_555 1_555
O1B C1B 1_555 1_555
C2B C1B 1_555 1_555
Cl1B C2B 1_555 1_555
C3B C1 1_555 1_555
N1B C3B 1_555 1_555
H1B N1B 1_555 1_555
C4B N1B 1_555 1_555
H2B C4B 1_555 1_555
H3B C4B 1_555 1_555
C5B C4B 1_555 1_555
C6B C5B 1_555 1_555
H4B C6B 1_555 1_555
C7B C6B 1_555 1_555
H5B C7B 1_555 1_555
C8B C7B 1_555 1_555
H6B C8B 1_555 1_555
C9B C8B 1_555 1_555
H7B C9B 1_555 1_555
N2B C5B 1_555 1_555
C9 N2 1_555 1_555
C2B C3B 1_555 1_555
C9B N2B 1_555 1_555

#END
