
#######################################################################
#
#                 Cambridge Crystallographic Data Centre
#                                CCDC 
#
#######################################################################
#
# If this CIF has been generated from an entry in the Cambridge 
# Structural Database, then it will include bibliographic, chemical, 
# crystal, experimental, refinement or atomic coordinate data resulting 
# from the CCDC's data processing and validation procedures.
#
#######################################################################

data_KALCIM
_chemical_formula_moiety         'C16 H12 Cl1 F3 N2 O1 S1'
_chemical_name_systematic        
4-(chloromethyl)-N-((4-(trifluoromethyl)phenyl)carbamothioyl)benzamide
_symmetry_cell_setting           triclinic
_symmetry_space_group_name_H-M   'P -1'
_symmetry_Int_Tables_number      2
_space_group_name_Hall           '-P 1'
loop_
_symmetry_equiv_pos_site_id
_symmetry_equiv_pos_as_xyz
1 x,y,z
2 -x,-y,-z
_cell_length_a                   6.663(3)
_cell_length_b                   8.250(4)
_cell_length_c                   15.438(6)
_cell_angle_alpha                78.748(8)
_cell_angle_beta                 80.811(7)
_cell_angle_gamma                80.398(8)
_cell_volume                     813.527
_exptl_crystal_description       diamond
_cell_formula_units_Z            2
loop_
_atom_site_label
_atom_site_type_symbol
_atom_site_fract_x
_atom_site_fract_y
_atom_site_fract_z
Cl1 Cl -0.2758(3) 0.4263(3) -0.41493(11)
S1 S 0.1994(2) -0.07794(18) 0.09874(9)
F1 F 0.9932(6) 0.0312(8) 0.3865(3)
F2 F 0.7664(8) -0.1140(6) 0.4519(3)
F3 F 0.7257(9) 0.1356(7) 0.4507(3)
N1 N 0.4079(6) 0.1784(5) 0.0876(3)
H1 H 0.4373 0.2714 0.0559
N2 N 0.2023(6) 0.1959(5) -0.0209(3)
H2 H 0.1061 0.1564 -0.0377
O1 O 0.3930(6) 0.4113(5) -0.0591(2)
C1 C 0.8004(10) 0.0205(9) 0.3988(4)
C2 C 0.6999(8) 0.0542(6) 0.3174(3)
C3 C 0.7841(8) 0.1488(7) 0.2398(3)
H3 H 0.9064 0.1898 0.2389
C4 C 0.6888(8) 0.1826(6) 0.1646(3)
H4 H 0.7477 0.2447 0.1127
C5 C 0.5058(7) 0.1246(6) 0.1658(3)
C6 C 0.4199(8) 0.0334(8) 0.2428(3)
H5 H 0.2956 -0.0050 0.2445
C7 C 0.5193(8) -0.0012(7) 0.3183(3)
H6 H 0.4609 -0.0635 0.3702
C8 C 0.2766(7) 0.1047(6) 0.0565(3)
C9 C 0.2594(8) 0.3388(6) -0.0741(3)
C10 C 0.1447(8) 0.3992(6) -0.1530(3)
C11 C -0.0644(8) 0.4467(6) -0.1423(3)
H7 H -0.1377 0.4385 -0.0855
C12 C -0.1658(8) 0.5068(6) -0.2161(3)
H8 H -0.3069 0.5401 -0.2084
C13 C -0.0613(9) 0.5180(6) -0.3004(3)
C14 C 0.1496(9) 0.4679(8) -0.3116(3)
H9 H 0.2214 0.4730 -0.3687
C15 C 0.2523(9) 0.4110(7) -0.2388(3)
H10 H 0.3939 0.3803 -0.2466
C16 C -0.1717(10) 0.5841(8) -0.3808(4)
H11 H -0.0766 0.6324 -0.4295
H12 H -0.2816 0.6720 -0.3669
loop_
_geom_bond_atom_site_label_1
_geom_bond_atom_site_label_2
_geom_bond_site_symmetry_1
_geom_bond_site_symmetry_2
Cl1 C16 1_555 1_555
S1 C8 1_555 1_555
F1 C1 1_555 1_555
F2 C1 1_555 1_555
F3 C1 1_555 1_555
N1 H1 1_555 1_555
N2 H2 1_555 1_555
O1 C9 1_555 1_555
C1 C2 1_555 1_555
C2 C3 1_555 1_555
C3 H3 1_555 1_555
C4 C3 1_555 1_555
H4 C4 1_555 1_555
C5 N1 1_555 1_555
C6 C5 1_555 1_555
H5 C6 1_555 1_555
C7 C2 1_555 1_555
H6 C7 1_555 1_555
C8 N1 1_555 1_555
C9 N2 1_555 1_555
C10 C9 1_555 1_555
C11 C10 1_555 1_555
H7 C11 1_555 1_555
C12 C11 1_555 1_555
H8 C12 1_555 1_555
C13 C12 1_555 1_555
C14 C13 1_555 1_555
H9 C14 1_555 1_555
C15 C10 1_555 1_555
H10 C15 1_555 1_555
C16 C13 1_555 1_555
H11 C16 1_555 1_555
H12 C16 1_555 1_555
N2 C8 1_555 1_555
C4 C5 1_555 1_555
C6 C7 1_555 1_555
C14 C15 1_555 1_555

#END
