
#######################################################################
#
#                 Cambridge Crystallographic Data Centre
#                                CCDC 
#
#######################################################################
#
# If this CIF has been generated from an entry in the Cambridge 
# Structural Database, then it will include bibliographic, chemical, 
# crystal, experimental, refinement or atomic coordinate data resulting 
# from the CCDC's data processing and validation procedures.
#
#######################################################################

data_KALCOS
_chemical_formula_moiety         'C15 H10 F4 N2 O1 S1'
_chemical_name_systematic        
4-fluoro-N-((4-(trifluoromethyl)phenyl)carbamothioyl)benzamide
_symmetry_cell_setting           triclinic
_symmetry_space_group_name_H-M   'P -1'
_symmetry_Int_Tables_number      2
_space_group_name_Hall           '-P 1'
loop_
_symmetry_equiv_pos_site_id
_symmetry_equiv_pos_as_xyz
1 x,y,z
2 -x,-y,-z
_cell_length_a                   7.807(2)
_cell_length_b                   13.593(4)
_cell_length_c                   14.312(4)
_cell_angle_alpha                81.965(4)
_cell_angle_beta                 85.382(4)
_cell_angle_gamma                81.585(5)
_cell_volume                     1484.9
_exptl_crystal_description       bulk
_cell_formula_units_Z            4
loop_
_atom_site_label
_atom_site_type_symbol
_atom_site_fract_x
_atom_site_fract_y
_atom_site_fract_z
S1 S 0.50209(18) 0.13191(11) -0.17858(9)
F1 F 1.2174(5) -0.4184(3) -0.1735(3)
F2 F 0.4054(6) 0.4853(5) 0.1920(6)
F3 F 0.2211(7) 0.4033(3) 0.2509(3)
F4 F 0.1825(7) 0.4874(4) 0.1283(3)
N1 N 0.7505(4) -0.0062(3) -0.1142(3)
H1 H 0.7604 -0.0193 -0.1716
N2 N 0.6443(5) 0.1066(3) -0.0117(3)
H2 H 0.7159 0.0677 0.0241
O1 O 0.8540(4) -0.0594(3) 0.0308(2)
C1 C 0.9884(7) -0.2454(4) -0.0246(4)
H3 H 0.9536 -0.2442 0.0390
C2 C 1.0786(9) -0.3316(5) -0.0541(5)
H4 H 1.1041 -0.3887 -0.0110
C3 C 1.1290(7) -0.3321(5) -0.1458(6)
C4 C 1.0954(7) -0.2516(5) -0.2114(5)
H5 H 1.1325 -0.2543 -0.2745
C5 C 1.0041(6) -0.1644(4) -0.1824(4)
H6 H 0.9794 -0.1079 -0.2264
C6 C 0.9497(6) -0.1613(4) -0.0885(3)
C7 C 0.8494(6) -0.0726(4) -0.0512(3)
C8 C 0.6367(5) 0.0793(3) -0.0971(3)
C9 C 0.5529(6) 0.1895(3) 0.0291(3)
C10 C 0.4971(7) 0.2812(4) -0.0209(4)
H7 H 0.5155 0.2911 -0.0864
C11 C 0.4146(7) 0.3575(4) 0.0259(4)
H8 H 0.3754 0.4188 -0.0085
C12 C 0.3884(6) 0.3456(4) 0.1228(3)
C13 C 0.4456(6) 0.2549(4) 0.1727(3)
H9 H 0.4294 0.2458 0.2382
C14 C 0.5263(6) 0.1773(3) 0.1266(3)
H10 H 0.5636 0.1158 0.1612
C15 C 0.3061(9) 0.4300(4) 0.1721(4)
S2 S 0.2918(2) 1.06737(10) 0.35529(9)
F5 F 0.8034(6) 0.4501(3) 0.3998(3)
F6 F 0.0651(5) 1.3371(3) 0.7841(3)
F7 F -0.1718(5) 1.2850(3) 0.7990(3)
F8 F -0.1154(7) 1.3908(3) 0.6834(3)
N3 N 0.3794(5) 0.8821(3) 0.4328(3)
H11 H 0.4119 0.8732 0.3754
N4 N 0.2412(5) 0.9881(3) 0.5349(3)
H12 H 0.2517 0.9328 0.5727
O2 O 0.3626(6) 0.8018(3) 0.5826(2)
C16 C 0.6138(8) 0.6467(4) 0.5332(4)
H13 H 0.6149 0.6638 0.5939
C17 C 0.7103(9) 0.5599(5) 0.5102(5)
H14 H 0.7768 0.5183 0.5549
C18 C 0.7083(8) 0.5351(4) 0.4228(5)
C19 C 0.6121(8) 0.5933(4) 0.3560(4)
H15 H 0.6105 0.5741 0.2963
C20 C 0.5163(7) 0.6818(4) 0.3783(4)
H16 H 0.4518 0.7236 0.3328
C21 C 0.5165(6) 0.7082(4) 0.4684(3)
C22 C 0.4131(7) 0.7995(4) 0.4997(3)
C23 C 0.2992(6) 0.9786(3) 0.4461(3)
C24 C 0.1656(6) 1.0726(3) 0.5781(3)
C25 C 0.0779(6) 1.1590(4) 0.5322(3)
H17 H 0.0657 1.1656 0.4674
C26 C 0.0082(6) 1.2355(4) 0.5837(4)
H18 H -0.0486 1.2945 0.5527
C27 C 0.0209(6) 1.2265(4) 0.6792(3)
C28 C 0.1050(7) 1.1400(4) 0.7250(4)
H19 H 0.1135 1.1329 0.7901
C29 C 0.1774(7) 1.0629(4) 0.6742(3)
H20 H 0.2345 1.0042 0.7054
C30 C -0.0538(8) 1.3094(5) 0.7339(4)
loop_
_geom_bond_atom_site_label_1
_geom_bond_atom_site_label_2
_geom_bond_site_symmetry_1
_geom_bond_site_symmetry_2
S1 C8 1_555 1_555
F1 C3 1_555 1_555
F2 C15 1_555 1_555
F3 C15 1_555 1_555
F4 C15 1_555 1_555
N1 H1 1_555 1_555
N2 H2 1_555 1_555
O1 C7 1_555 1_555
C1 H3 1_555 1_555
C2 C1 1_555 1_555
H4 C2 1_555 1_555
C3 C2 1_555 1_555
C4 C3 1_555 1_555
H5 C4 1_555 1_555
C5 C4 1_555 1_555
H6 C5 1_555 1_555
C6 C1 1_555 1_555
C7 N1 1_555 1_555
C8 N1 1_555 1_555
C9 N2 1_555 1_555
C10 C9 1_555 1_555
H7 C10 1_555 1_555
C11 C10 1_555 1_555
H8 C11 1_555 1_555
C12 C11 1_555 1_555
C13 C12 1_555 1_555
H9 C13 1_555 1_555
C14 C9 1_555 1_555
H10 C14 1_555 1_555
C15 C12 1_555 1_555
S2 C23 1_555 1_555
F5 C18 1_555 1_555
F6 C30 1_555 1_555
F7 C30 1_555 1_555
F8 C30 1_555 1_555
N3 H11 1_555 1_555
N4 H12 1_555 1_555
O2 C22 1_555 1_555
C16 H13 1_555 1_555
C17 C16 1_555 1_555
H14 C17 1_555 1_555
C18 C17 1_555 1_555
C19 C18 1_555 1_555
H15 C19 1_555 1_555
C20 C19 1_555 1_555
H16 C20 1_555 1_555
C21 C16 1_555 1_555
C22 N3 1_555 1_555
C23 N3 1_555 1_555
C24 N4 1_555 1_555
C25 C24 1_555 1_555
H17 C25 1_555 1_555
C26 C25 1_555 1_555
H18 C26 1_555 1_555
C27 C26 1_555 1_555
C28 C27 1_555 1_555
H19 C28 1_555 1_555
C29 C24 1_555 1_555
H20 C29 1_555 1_555
C30 C27 1_555 1_555
N2 C8 1_555 1_555
C5 C6 1_555 1_555
C6 C7 1_555 1_555
C13 C14 1_555 1_555
N4 C23 1_555 1_555
C20 C21 1_555 1_555
C21 C22 1_555 1_555
C28 C29 1_555 1_555

#END
