
#######################################################################
#
#                 Cambridge Crystallographic Data Centre
#                                CCDC 
#
#######################################################################
#
# If this CIF has been generated from an entry in the Cambridge 
# Structural Database, then it will include bibliographic, chemical, 
# crystal, experimental, refinement or atomic coordinate data resulting 
# from the CCDC's data processing and validation procedures.
#
#######################################################################

data_KALDEJ
_chemical_formula_moiety         'C32 H20 N2 O1,C1 H1 Cl3'
_chemical_name_systematic        
'(2,6-bis(2-(2-naphthyl)vinyl)-4H-pyran-4-ylidene)malononitrile chloroform solvate'
_symmetry_cell_setting           triclinic
_symmetry_space_group_name_H-M   'P -1'
_symmetry_Int_Tables_number      2
_space_group_name_Hall           '-P 1'
loop_
_symmetry_equiv_pos_site_id
_symmetry_equiv_pos_as_xyz
1 x,y,z
2 -x,-y,-z
_cell_length_a                   10.2579(15)
_cell_length_b                   11.1576(16)
_cell_length_c                   13.1346(19)
_cell_angle_alpha                73.223(7)
_cell_angle_beta                 85.827(8)
_cell_angle_gamma                84.164(7)
_cell_volume                     1430.37
_exptl_crystal_description       Prism
_cell_formula_units_Z            2
loop_
_atom_site_label
_atom_site_type_symbol
_atom_site_fract_x
_atom_site_fract_y
_atom_site_fract_z
Cl1 Cl 0.40334(15) 0.2014(2) 0.38885(14)
Cl2 Cl 0.5719(5) 0.3529(2) 0.4464(3)
Cl3 Cl 0.67263(16) 0.1268(2) 0.39878(13)
C1 C 0.5435(5) 0.2042(4) 0.4545(3)
H1 H 0.5306 0.1579 0.5297
O1 O 1.03603(18) 0.55304(15) 0.25111(14)
N1 N 1.1902(3) 1.0546(2) -0.0012(2)
N2 N 1.4187(3) 0.8998(3) 0.2888(3)
C2 C 0.7119(3) 0.3644(2) 0.0921(2)
H2 H 0.7306 0.3136 0.1600
C3 C 0.6248(3) 0.3255(2) 0.0321(3)
C4 C 0.5639(3) 0.2095(3) 0.0726(3)
H3 H 0.5818 0.1581 0.1405
C5 C 0.4823(4) 0.1745(3) 0.0146(4)
H4 H 0.4452 0.0983 0.0415
C6 C 0.4519(3) 0.2514(4) -0.0865(4)
H5 H 0.3934 0.2262 -0.1256
C7 C 0.5059(3) 0.3628(3) -0.1294(3)
H6 H 0.4843 0.4127 -0.1970
C8 C 0.5953(3) 0.4022(3) -0.0705(3)
C9 C 0.6568(3) 0.5166(3) -0.1102(2)
H7 H 0.6394 0.5680 -0.1782
C10 C 0.7400(3) 0.5520(2) -0.0510(2)
H8 H 0.7779 0.6277 -0.0788
C11 C 0.7703(2) 0.4758(2) 0.0528(2)
C12 C 0.8596(3) 0.5099(2) 0.1181(2)
H9 H 0.8812 0.4498 0.1814
C13 C 0.9147(3) 0.6191(2) 0.0970(2)
H10 H 0.8887 0.6821 0.0366
C14 C 1.0102(2) 0.6470(2) 0.1594(2)
C15 C 1.0742(3) 0.7524(2) 0.1322(2)
H11 H 1.0534 0.8151 0.0701
C16 C 1.1733(2) 0.7703(2) 0.1965(2)
C17 C 1.1958(3) 0.6696(2) 0.2906(2)
H12 H 1.2592 0.6747 0.3359
C18 C 1.1280(3) 0.5676(2) 0.3157(2)
C19 C 1.1429(3) 0.4632(3) 0.4116(2)
H13 H 1.2074 0.4646 0.4573
C20 C 1.0695(3) 0.3654(2) 0.4381(2)
H14 H 1.0069 0.3657 0.3902
C21 C 1.0760(3) 0.2584(2) 0.5330(2)
C22 C 0.9912(3) 0.1667(2) 0.5462(2)
H15 H 0.9299 0.1765 0.4950
C23 C 0.9932(3) 0.0587(2) 0.6339(2)
C24 C 0.9079(3) -0.0367(3) 0.6464(2)
H16 H 0.8460 -0.0278 0.5958
C25 C 0.9147(4) -0.1415(3) 0.7309(3)
H17 H 0.8575 -0.2033 0.7384
C26 C 1.0094(4) -0.1554(3) 0.8071(3)
H18 H 1.0154 -0.2278 0.8642
C27 C 1.0919(3) -0.0651(3) 0.7986(2)
H19 H 1.1517 -0.0755 0.8510
C28 C 1.0887(3) 0.0446(3) 0.7117(2)
C29 C 1.1736(3) 0.1405(3) 0.6983(2)
H20 H 1.2344 0.1331 0.7494
C30 C 1.1681(3) 0.2433(3) 0.6125(2)
H21 H 1.2255 0.3049 0.6055
C31 C 1.2396(3) 0.8774(2) 0.1688(2)
C32 C 1.2128(3) 0.9762(2) 0.0751(3)
C33 C 1.3387(3) 0.8919(2) 0.2348(2)
loop_
_geom_bond_atom_site_label_1
_geom_bond_atom_site_label_2
_geom_bond_site_symmetry_1
_geom_bond_site_symmetry_2
Cl1 C1 1_555 1_555
Cl2 C1 1_555 1_555
Cl3 C1 1_555 1_555
C1 H1 1_555 1_555
O1 C14 1_555 1_555
N1 C32 1_555 1_555
N2 C33 1_555 1_555
C2 H2 1_555 1_555
C3 C2 1_555 1_555
C4 C3 1_555 1_555
H3 C4 1_555 1_555
C5 C4 1_555 1_555
H4 C5 1_555 1_555
C6 C5 1_555 1_555
H5 C6 1_555 1_555
C7 C6 1_555 1_555
H6 C7 1_555 1_555
C8 C3 1_555 1_555
C9 C8 1_555 1_555
H7 C9 1_555 1_555
C10 C9 1_555 1_555
H8 C10 1_555 1_555
C11 C2 1_555 1_555
C12 C11 1_555 1_555
H9 C12 1_555 1_555
C13 C12 1_555 1_555
H10 C13 1_555 1_555
C14 C13 1_555 1_555
C15 C14 1_555 1_555
H11 C15 1_555 1_555
C16 C15 1_555 1_555
C17 C16 1_555 1_555
H12 C17 1_555 1_555
C18 O1 1_555 1_555
C19 C18 1_555 1_555
H13 C19 1_555 1_555
C20 C19 1_555 1_555
H14 C20 1_555 1_555
C21 C20 1_555 1_555
C22 C21 1_555 1_555
H15 C22 1_555 1_555
C23 C22 1_555 1_555
C24 C23 1_555 1_555
H16 C24 1_555 1_555
C25 C24 1_555 1_555
H17 C25 1_555 1_555
C26 C25 1_555 1_555
H18 C26 1_555 1_555
C27 C26 1_555 1_555
H19 C27 1_555 1_555
C28 C23 1_555 1_555
C29 C28 1_555 1_555
H20 C29 1_555 1_555
C30 C21 1_555 1_555
H21 C30 1_555 1_555
C31 C16 1_555 1_555
C32 C31 1_555 1_555
C33 C31 1_555 1_555
C7 C8 1_555 1_555
C10 C11 1_555 1_555
C17 C18 1_555 1_555
C27 C28 1_555 1_555
C29 C30 1_555 1_555

#END
