
#######################################################################
#
#                 Cambridge Crystallographic Data Centre
#                                CCDC 
#
#######################################################################
#
# If this CIF has been generated from an entry in the Cambridge 
# Structural Database, then it will include bibliographic, chemical, 
# crystal, experimental, refinement or atomic coordinate data resulting 
# from the CCDC's data processing and validation procedures.
#
#######################################################################

data_KALJIT
_chemical_formula_moiety         'C7 H10 N1 1+,C7 H7 O3 S1 1-'
_chemical_name_systematic        'phenylmethanaminium 4-methylbenzenesulfonate'
_symmetry_cell_setting           triclinic
_symmetry_space_group_name_H-M   'P -1'
_symmetry_Int_Tables_number      2
_space_group_name_Hall           '-P 1'
loop_
_symmetry_equiv_pos_site_id
_symmetry_equiv_pos_as_xyz
1 x,y,z
2 -x,-y,-z
_cell_length_a                   5.6416(5)
_cell_length_b                   7.3677(6)
_cell_length_c                   16.1213(12)
_cell_angle_alpha                90.124(2)
_cell_angle_beta                 89.4540(10)
_cell_angle_gamma                89.964(2)
_cell_volume                     670.06
_exptl_crystal_colour            colorless
_exptl_crystal_description       block
_cell_formula_units_Z            2
loop_
_atom_site_label
_atom_site_type_symbol
_atom_site_fract_x
_atom_site_fract_y
_atom_site_fract_z
S1 S 0.31957(11) 0.74863(8) 0.11662(3)
C1 C 0.3930(4) 0.7556(3) 0.22301(14)
O1 O 0.4244(3) 0.5831(2) 0.08414(10)
C2 C 0.6054(4) 0.8312(3) 0.24767(15)
H1 H 0.7093 0.8798 0.2085
O2 O 0.4296(3) 0.9079(2) 0.07972(11)
C3 C 0.2394(4) 0.6839(3) 0.28161(14)
H2 H 0.0960 0.6334 0.2654
C4 C 0.3003(5) 0.6877(4) 0.36417(15)
H3 H 0.1963 0.6393 0.4034
C5 C 0.6619(5) 0.8342(3) 0.33028(16)
H4 H 0.8044 0.8862 0.3464
C6 C 0.5128(5) 0.7620(3) 0.39010(15)
C7 C 0.5822(6) 0.7596(4) 0.47983(18)
H5 H 0.6674 0.6498 0.4914
H6 H 0.4423 0.7652 0.5141
H7 H 0.6812 0.8623 0.4914
O3 O 0.0643(3) 0.7503(3) 0.11204(11)
N1 N 0.8053(4) 0.7499(3) 0.95867(12)
H8 H 0.7242 0.8487 0.9446
H9 H 0.8278 0.7497 1.0132
H10 H 0.7240 0.6514 0.9443
C8 C 1.0259(4) 0.7391(3) 0.82230(15)
C9 C 0.8478(5) 0.8059(3) 0.69159(16)
H11 H 0.7229 0.8543 0.6616
C10 C 1.0389(5) 0.7314(4) 0.65079(16)
H12 H 1.0443 0.7301 0.5931
C11 C 0.8406(5) 0.8090(3) 0.77686(15)
H13 H 0.7098 0.8586 0.8042
C12 C 1.0373(5) 0.7498(4) 0.91528(15)
H14 H 1.1290 0.6475 0.9350
H15 H 1.1216 0.8595 0.9303
C13 C 1.2159(5) 0.6620(3) 0.78074(16)
H16 H 1.3402 0.6120 0.8105
C14 C 1.2222(5) 0.6589(4) 0.69532(17)
H17 H 1.3512 0.6074 0.6677
loop_
_geom_bond_atom_site_label_1
_geom_bond_atom_site_label_2
_geom_bond_site_symmetry_1
_geom_bond_site_symmetry_2
S1 C1 1_555 1_555
C1 C2 1_555 1_555
O1 S1 1_555 1_555
C2 H1 1_555 1_555
O2 S1 1_555 1_555
C3 C1 1_555 1_555
H2 C3 1_555 1_555
C4 C3 1_555 1_555
H3 C4 1_555 1_555
C5 C2 1_555 1_555
H4 C5 1_555 1_555
C6 C4 1_555 1_555
C7 C6 1_555 1_555
H5 C7 1_555 1_555
H6 C7 1_555 1_555
H7 C7 1_555 1_555
O3 S1 1_555 1_555
N1 H8 1_555 1_555
H9 N1 1_555 1_555
H10 N1 1_555 1_555
C8 C11 1_555 1_555
C9 H11 1_555 1_555
C10 C9 1_555 1_555
H12 C10 1_555 1_555
C11 C9 1_555 1_555
H13 C11 1_555 1_555
C12 N1 1_555 1_555
H14 C12 1_555 1_555
H15 C12 1_555 1_555
C13 C8 1_555 1_555
H16 C13 1_555 1_555
C14 C10 1_555 1_555
H17 C14 1_555 1_555
C5 C6 1_555 1_555
C8 C12 1_555 1_555
C13 C14 1_555 1_555

#END
