
#######################################################################
#
#                 Cambridge Crystallographic Data Centre
#                                CCDC 
#
#######################################################################
#
# If this CIF has been generated from an entry in the Cambridge 
# Structural Database, then it will include bibliographic, chemical, 
# crystal, experimental, refinement or atomic coordinate data resulting 
# from the CCDC's data processing and validation procedures.
#
#######################################################################

data_KALKAM
_chemical_formula_moiety         'C7 H10 N1 1+,C8 H7 O3 1-'
_chemical_name_systematic        'phenylmethanaminium hydroxy(phenyl)acetate'
_symmetry_cell_setting           triclinic
_symmetry_space_group_name_H-M   'P -1'
_symmetry_Int_Tables_number      2
_space_group_name_Hall           '-P 1'
loop_
_symmetry_equiv_pos_site_id
_symmetry_equiv_pos_as_xyz
1 x,y,z
2 -x,-y,-z
_cell_length_a                   6.0499(4)
_cell_length_b                   7.4999(5)
_cell_length_c                   15.0126(15)
_cell_angle_alpha                97.590(2)
_cell_angle_beta                 97.514(2)
_cell_angle_gamma                91.5650(10)
_cell_volume                     668.721
_exptl_crystal_colour            colorless
_exptl_crystal_description       block
_cell_formula_units_Z            2
loop_
_atom_site_label
_atom_site_type_symbol
_atom_site_fract_x
_atom_site_fract_y
_atom_site_fract_z
N1 N 0.2770(4) 0.0601(3) 0.07288(14)
H1 H 0.1566 0.1151 0.0886
H2 H 0.2456 0.0009 0.0170
H3 H 0.3876 0.1417 0.0744
C1 C 0.3453(6) -0.0675(4) 0.13665(19)
H4 H 0.4796 -0.1235 0.1202
H5 H 0.2291 -0.1617 0.1307
C2 C 0.3890(6) 0.0175(4) 0.23364(19)
C3 C 0.5850(6) 0.1127(4) 0.2668(2)
H6 H 0.6904 0.1272 0.2282
C4 C 0.6285(7) 0.1870(4) 0.3560(2)
H7 H 0.7619 0.2527 0.3772
C5 C 0.4778(8) 0.1650(5) 0.4136(2)
H8 H 0.5076 0.2147 0.4743
C6 C 0.2838(7) 0.0701(5) 0.3818(2)
H9 H 0.1809 0.0538 0.4213
C7 C 0.2361(6) -0.0029(4) 0.2917(2)
H10 H 0.1008 -0.0658 0.2706
O1 O 0.1400(3) 0.8214(3) 0.91080(12)
O2 O 0.4319(4) 0.6581(3) 0.94271(15)
O3 O 0.1785(4) 0.3584(3) 0.92945(14)
H11 H 0.3037 0.3899 0.9557
C8 C 0.2317(6) 0.6744(4) 0.91608(18)
C9 C 0.0862(5) 0.5015(4) 0.88554(18)
H12 H -0.0634 0.5216 0.9021
C10 C 0.0687(6) 0.4567(4) 0.78408(19)
C11 C 0.2373(6) 0.3699(4) 0.7449(2)
H13 H 0.3643 0.3426 0.7817
C12 C 0.2211(8) 0.3228(5) 0.6525(2)
H14 H 0.3362 0.2638 0.6273
C13 C 0.0376(9) 0.3624(5) 0.5983(2)
H15 H 0.0258 0.3291 0.5359
C14 C -0.1290(8) 0.4506(5) 0.6346(3)
H16 H -0.2527 0.4810 0.5969
C15 C -0.1155(6) 0.4957(4) 0.7282(2)
H17 H -0.2326 0.5527 0.7529
loop_
_geom_bond_atom_site_label_1
_geom_bond_atom_site_label_2
_geom_bond_site_symmetry_1
_geom_bond_site_symmetry_2
N1 H1 1_555 1_555
H2 N1 1_555 1_555
H3 N1 1_555 1_555
C1 N1 1_555 1_555
H4 C1 1_555 1_555
H5 C1 1_555 1_555
C2 C1 1_555 1_555
C3 C2 1_555 1_555
H6 C3 1_555 1_555
C4 C3 1_555 1_555
H7 C4 1_555 1_555
C5 C4 1_555 1_555
H8 C5 1_555 1_555
C6 C5 1_555 1_555
H9 C6 1_555 1_555
C7 C2 1_555 1_555
H10 C7 1_555 1_555
O1 C8 1_555 1_555
O2 C8 1_555 1_555
O3 H11 1_555 1_555
C8 C9 1_555 1_555
C9 O3 1_555 1_555
H12 C9 1_555 1_555
C10 C9 1_555 1_555
C11 C10 1_555 1_555
H13 C11 1_555 1_555
C12 C11 1_555 1_555
H14 C12 1_555 1_555
C13 C12 1_555 1_555
H15 C13 1_555 1_555
C14 C13 1_555 1_555
H16 C14 1_555 1_555
C15 C10 1_555 1_555
H17 C15 1_555 1_555
C6 C7 1_555 1_555
C14 C15 1_555 1_555

#END
