
#######################################################################
#
#                 Cambridge Crystallographic Data Centre
#                                CCDC 
#
#######################################################################
#
# If this CIF has been generated from an entry in the Cambridge 
# Structural Database, then it will include bibliographic, chemical, 
# crystal, experimental, refinement or atomic coordinate data resulting 
# from the CCDC's data processing and validation procedures.
#
#######################################################################

data_KALKUG
_chemical_formula_moiety         'C29 H34 Br2 O6'
_chemical_name_systematic        
1,7-bis(4-(4-bromobutoxy)-3-methoxyphenyl)-5-hydroxyhepta-1,4,6-trien-3-one
_symmetry_cell_setting           triclinic
_symmetry_space_group_name_H-M   'P -1'
_symmetry_Int_Tables_number      2
_space_group_name_Hall           '-P 1'
loop_
_symmetry_equiv_pos_site_id
_symmetry_equiv_pos_as_xyz
1 x,y,z
2 -x,-y,-z
_cell_length_a                   4.890(5)
_cell_length_b                   14.426(5)
_cell_length_c                   19.783(5)
_cell_angle_alpha                96.194(5)
_cell_angle_beta                 90.213(5)
_cell_angle_gamma                92.435(5)
_cell_volume                     1386.11
_exptl_crystal_description       block
_cell_formula_units_Z            2
loop_
_atom_site_label
_atom_site_type_symbol
_atom_site_fract_x
_atom_site_fract_y
_atom_site_fract_z
Br1 Br -0.73270(7) 0.45630(2) -0.33027(2)
Br2 Br 1.95192(8) -0.30070(3) 0.80809(2)
O1 O 0.1045(4) 0.34853(13) -0.08950(9)
O2 O 1.4759(4) -0.34639(13) 0.49996(10)
O3 O 0.4575(4) -0.07464(15) 0.15061(11)
O4 O 0.7065(5) -0.15666(15) 0.23245(11)
O5 O 1.8370(4) -0.21651(13) 0.54223(9)
O6 O 0.4932(5) 0.39093(14) -0.00005(10)
C1 C 1.1079(6) -0.1585(2) 0.33153(14)
H1 H 0.9748 -0.2064 0.3231
C2 C 1.6677(6) -0.1965(2) 0.49109(13)
C3 C 0.3810(6) 0.30190(19) -0.00174(14)
C4 C 1.6760(6) -0.1129(2) 0.46241(14)
H2 H 1.8027 -0.0655 0.4782
C5 C -0.1859(6) 0.4153(2) -0.16760(14)
H3 H -0.0221 0.4443 -0.1851
H4 H -0.2588 0.4586 -0.1319
C6 C 0.1710(6) 0.2791(2) -0.05109(13)
C7 C 1.3046(6) -0.1690(2) 0.38591(13)
C8 C 1.2946(6) -0.25339(19) 0.41582(13)
H5 H 1.1655 -0.3003 0.4006
C9 C 1.4740(6) -0.2674(2) 0.46752(13)
C10 C 1.0959(6) -0.0892(2) 0.29287(14)
H6 H 1.2309 -0.0415 0.2979
C11 C 0.8776(6) -0.0851(2) 0.24260(14)
C12 C 2.1818(6) -0.1843(2) 0.62717(14)
H7 H 2.3065 -0.1363 0.6494
H8 H 2.2906 -0.2336 0.6055
C13 C 0.6343(6) -0.0051(2) 0.16008(14)
C14 C 1.4963(6) -0.0996(2) 0.41023(14)
H9 H 1.5043 -0.0433 0.3913
C15 C -0.1148(6) 0.3260(2) -0.13873(14)
H10 H -0.2736 0.3000 -0.1170
H11 H -0.0568 0.2803 -0.1748
C16 C 2.0187(6) -0.1430(2) 0.57318(14)
H12 H 1.9151 -0.0915 0.5936
H13 H 2.1402 -0.1202 0.5394
C17 C 0.8508(6) -0.0079(2) 0.20676(14)
H14 H 0.9772 0.0422 0.2138
C18 C 0.3972(7) 0.0761(2) 0.07757(16)
H15 H 0.2801 0.0233 0.0733
C19 C 0.3291(6) 0.1480(2) 0.03480(15)
C20 C 0.4575(6) 0.2369(2) 0.04010(13)
H16 H 0.5960 0.2524 0.0722
C21 C 0.6036(6) 0.0748(2) 0.12212(14)
H17 H 0.7285 0.1254 0.1288
C22 C 0.6968(7) 0.4185(2) 0.05121(16)
H18 H 0.8513 0.3799 0.0438
H19 H 0.6214 0.4115 0.0952
H20 H 0.7541 0.4826 0.0490
C23 C 2.0004(6) -0.2237(2) 0.68058(14)
H21 H 1.8914 -0.1748 0.7027
H22 H 1.8768 -0.2725 0.6589
C24 C 0.1216(7) 0.1280(2) -0.01367(17)
H23 H 0.0315 0.0696 -0.0172
C25 C 0.0449(7) 0.1915(2) -0.05654(15)
H24 H -0.0916 0.1753 -0.0891
C26 C 1.2478(7) -0.4118(2) 0.48700(16)
H25 H 1.2504 -0.4385 0.4404
H26 H 1.0804 -0.3804 0.4957
H27 H 1.2599 -0.4605 0.5163
C27 C -0.3979(6) 0.3936(2) -0.22479(14)
H28 H -0.3242 0.3505 -0.2604
H29 H -0.5607 0.3641 -0.2073
C28 C -0.4726(6) 0.4817(2) -0.25383(15)
H30 H -0.3079 0.5126 -0.2692
H31 H -0.5528 0.5236 -0.2184
C29 C 2.1758(7) -0.2632(2) 0.73300(14)
H32 H 2.3142 -0.2165 0.7505
H33 H 2.2683 -0.3168 0.7117
H34 H 0.581(9) -0.143(4) 0.205(2)
loop_
_geom_bond_atom_site_label_1
_geom_bond_atom_site_label_2
_geom_bond_site_symmetry_1
_geom_bond_site_symmetry_2
Br1 C28 1_555 1_555
Br2 C29 1_555 1_555
O1 C6 1_555 1_555
O2 C9 1_555 1_555
O3 C13 1_555 1_555
O4 C11 1_555 1_555
O5 C2 1_555 1_555
O6 C3 1_555 1_555
C1 H1 1_555 1_555
C2 C4 1_555 1_555
C3 C6 1_555 1_555
C4 H2 1_555 1_555
C5 H3 1_555 1_555
H4 C5 1_555 1_555
C6 C25 1_555 1_555
C7 C1 1_555 1_555
C8 C7 1_555 1_555
H5 C8 1_555 1_555
C9 C2 1_555 1_555
C10 C1 1_555 1_555
H6 C10 1_555 1_555
C11 C10 1_555 1_555
C12 H7 1_555 1_555
H8 C12 1_555 1_555
C13 C17 1_555 1_555
C14 C4 1_555 1_555
H9 C14 1_555 1_555
C15 O1 1_555 1_555
H10 C15 1_555 1_555
H11 C15 1_555 1_555
C16 O5 1_555 1_555
H12 C16 1_555 1_555
H13 C16 1_555 1_555
C17 C11 1_555 1_555
H14 C17 1_555 1_555
C18 H15 1_555 1_555
C19 C18 1_555 1_555
C20 C3 1_555 1_555
H16 C20 1_555 1_555
C21 C13 1_555 1_555
H17 C21 1_555 1_555
C22 O6 1_555 1_555
H18 C22 1_555 1_555
H19 C22 1_555 1_555
H20 C22 1_555 1_555
C23 C12 1_555 1_555
H21 C23 1_555 1_555
H22 C23 1_555 1_555
C24 C19 1_555 1_555
H23 C24 1_555 1_555
C25 C24 1_555 1_555
H24 C25 1_555 1_555
C26 O2 1_555 1_555
H25 C26 1_555 1_555
H26 C26 1_555 1_555
H27 C26 1_555 1_555
C27 C5 1_555 1_555
H28 C27 1_555 1_555
H29 C27 1_555 1_555
C28 C27 1_555 1_555
H30 C28 1_555 1_555
H31 C28 1_555 1_555
C29 C23 1_555 1_555
H32 C29 1_555 1_555
H33 C29 1_555 1_555
H34 O4 1_555 1_555
C5 C15 1_555 1_555
C7 C14 1_555 1_555
C8 C9 1_555 1_555
C12 C16 1_555 1_555
C18 C21 1_555 1_555
C19 C20 1_555 1_555

#END
