
#######################################################################
#
#                 Cambridge Crystallographic Data Centre
#                                CCDC 
#
#######################################################################
#
# If this CIF has been generated from an entry in the Cambridge 
# Structural Database, then it will include bibliographic, chemical, 
# crystal, experimental, refinement or atomic coordinate data resulting 
# from the CCDC's data processing and validation procedures.
#
#######################################################################

data_KALKEQ
_chemical_formula_moiety         'C7 H10 N1 1+,C7 H5 Br1 O3,C7 H4 Br1 O3 1-'
_chemical_name_systematic        
'phenylmethanaminium 5-bromo-2-hydroxybenzoic acid 5-bromo-2-hydroxybenzoate'
_symmetry_cell_setting           triclinic
_symmetry_space_group_name_H-M   'P -1'
_symmetry_Int_Tables_number      2
_space_group_name_Hall           '-P 1'
loop_
_symmetry_equiv_pos_site_id
_symmetry_equiv_pos_as_xyz
1 x,y,z
2 -x,-y,-z
_cell_length_a                   4.6374(3)
_cell_length_b                   13.9282(9)
_cell_length_c                   17.0681(13)
_cell_angle_alpha                79.0940(10)
_cell_angle_beta                 88.744(2)
_cell_angle_gamma                84.7700(10)
_cell_volume                     1078.01
_exptl_crystal_colour            colorless
_exptl_crystal_description       block
_cell_formula_units_Z            2
loop_
_atom_site_label
_atom_site_type_symbol
_atom_site_fract_x
_atom_site_fract_y
_atom_site_fract_z
Br1 Br 1.0666(3) 0.95875(8) 0.17320(7)
O1 O 1.3613(13) 0.5762(4) 0.1552(3)
O2 O 1.1002(11) 0.5414(4) 0.0604(3)
O3 O 0.7490(11) 0.6676(4) -0.0205(3)
H1 H 0.8361 0.6136 -0.0050
C1 C 1.1731(17) 0.6010(6) 0.1019(4)
C2 C 1.0330(16) 0.7034(5) 0.0849(4)
C3 C 0.8297(17) 0.7318(6) 0.0232(4)
C4 C 0.709(2) 0.8271(6) 0.0065(5)
H2 H 0.5756 0.8463 -0.0347
C5 C 0.783(2) 0.8939(7) 0.0502(6)
H3 H 0.7041 0.9588 0.0380
C6 C 0.9747(19) 0.8646(6) 0.1123(5)
C7 C 1.1024(16) 0.7725(6) 0.1278(4)
H4 H 1.2395 0.7551 0.1681
Br2 Br 0.8532(3) 0.93065(8) 0.41861(6)
O4 O 0.5994(13) 0.6606(4) 0.2576(3)
H5 H 0.5335 0.6291 0.2273
O5 O 0.8709(13) 0.5210(5) 0.2965(4)
O6 O 1.2297(14) 0.5082(5) 0.4135(4)
H6 H 1.1460 0.4880 0.3788
C8 C 0.7977(18) 0.6054(6) 0.3021(4)
C9 C 0.9305(17) 0.6545(6) 0.3593(4)
C10 C 1.1353(19) 0.6042(7) 0.4123(5)
C11 C 1.2571(19) 0.6505(8) 0.4664(5)
H7 H 1.3945 0.6158 0.5024
C12 C 1.177(2) 0.7465(9) 0.4673(5)
H8 H 1.2616 0.7782 0.5031
C13 C 0.974(2) 0.7955(6) 0.4157(5)
C14 C 0.8496(17) 0.7525(6) 0.3609(4)
H9 H 0.7130 0.7883 0.3253
N1 N 0.6668(14) 0.4079(5) 0.1221(4)
H10 H 0.5494 0.3755 0.0981
H11 H 0.7928 0.4355 0.0867
H12 H 0.5630 0.4542 0.1425
C15 C 0.8267(18) 0.3381(7) 0.1873(5)
H13 H 0.9597 0.2932 0.1642
H14 H 0.9396 0.3745 0.2168
C16 C 0.6276(17) 0.2811(6) 0.2430(4)
C17 C 0.4956(17) 0.3185(6) 0.3040(5)
H15 H 0.5275 0.3819 0.3095
C18 C 0.317(2) 0.2662(8) 0.3578(5)
H16 H 0.2344 0.2938 0.3994
C19 C 0.262(2) 0.1756(9) 0.3505(6)
H17 H 0.1360 0.1416 0.3864
C20 C 0.389(2) 0.1317(8) 0.2905(6)
H18 H 0.3539 0.0681 0.2865
C21 C 0.572(2) 0.1852(7) 0.2357(5)
H19 H 0.6565 0.1574 0.1944
loop_
_geom_bond_atom_site_label_1
_geom_bond_atom_site_label_2
_geom_bond_site_symmetry_1
_geom_bond_site_symmetry_2
Br1 C6 1_555 1_555
O1 C1 1_555 1_555
O2 C1 1_555 1_555
O3 H1 1_555 1_555
C1 C2 1_555 1_555
C2 C3 1_555 1_555
C3 O3 1_555 1_555
C4 C3 1_555 1_555
H2 C4 1_555 1_555
C5 C4 1_555 1_555
H3 C5 1_555 1_555
C6 C5 1_555 1_555
C7 C2 1_555 1_555
H4 C7 1_555 1_555
Br2 C13 1_555 1_555
O4 H5 1_555 1_555
O5 C8 1_555 1_555
O6 H6 1_555 1_555
C8 O4 1_555 1_555
C9 C8 1_555 1_555
C10 O6 1_555 1_555
C11 C10 1_555 1_555
H7 C11 1_555 1_555
C12 C11 1_555 1_555
H8 C12 1_555 1_555
C13 C12 1_555 1_555
C14 C9 1_555 1_555
H9 C14 1_555 1_555
N1 H10 1_555 1_555
H11 N1 1_555 1_555
H12 N1 1_555 1_555
C15 N1 1_555 1_555
H13 C15 1_555 1_555
H14 C15 1_555 1_555
C16 C15 1_555 1_555
C17 C16 1_555 1_555
H15 C17 1_555 1_555
C18 C17 1_555 1_555
H16 C18 1_555 1_555
C19 C18 1_555 1_555
H17 C19 1_555 1_555
C20 C19 1_555 1_555
H18 C20 1_555 1_555
C21 C16 1_555 1_555
H19 C21 1_555 1_555
C6 C7 1_555 1_555
C9 C10 1_555 1_555
C13 C14 1_555 1_555
C20 C21 1_555 1_555

#END
