
#######################################################################
#
#                 Cambridge Crystallographic Data Centre
#                                CCDC 
#
#######################################################################
#
# If this CIF has been generated from an entry in the Cambridge 
# Structural Database, then it will include bibliographic, chemical, 
# crystal, experimental, refinement or atomic coordinate data resulting 
# from the CCDC's data processing and validation procedures.
#
#######################################################################

data_KALPAQ
_chemical_formula_moiety         'C21 H22 N2 O3'
_chemical_name_systematic        
'Ethyl 2-((1-oxo-1,2,3,4-tetrahydronaphthalen-2-yl)hydrazono)-3-phenylpropanoate'
_symmetry_cell_setting           orthorhombic
_symmetry_space_group_name_H-M   'P 21 21 21'
_symmetry_Int_Tables_number      19
_space_group_name_Hall           'P 2ac 2ab'
loop_
_symmetry_equiv_pos_site_id
_symmetry_equiv_pos_as_xyz
1 x,y,z
2 1/2-x,-y,1/2+z
3 -x,1/2+y,1/2-z
4 1/2+x,1/2-y,-z
_cell_length_a                   5.2114(10)
_cell_length_b                   18.831(4)
_cell_length_c                   19.186(4)
_cell_angle_alpha                90
_cell_angle_beta                 90
_cell_angle_gamma                90
_cell_volume                     1882.83
_exptl_crystal_colour            colorless
_exptl_crystal_description       block
_cell_formula_units_Z            4
loop_
_atom_site_label
_atom_site_type_symbol
_atom_site_fract_x
_atom_site_fract_y
_atom_site_fract_z
O1 O 0.1612(2) 0.87842(6) 0.24199(6)
O2 O 0.2673(2) 0.88954(6) 0.35476(6)
O3 O -0.6173(2) 1.15306(6) 0.25892(6)
N1 N -0.1635(2) 0.98365(7) 0.25360(6)
N2 N -0.3603(2) 1.03052(7) 0.25645(6)
H1 H -0.3829 1.0579 0.2938
C1 C 0.3347(6) 0.79531(13) 0.16318(11)
H2 H 0.4750 0.7619 0.1542
H3 H 0.3318 0.8316 0.1266
H4 H 0.1711 0.7697 0.1634
C2 C 0.3745(4) 0.82992(9) 0.23214(10)
H5 H 0.3776 0.7939 0.2697
H6 H 0.5392 0.8561 0.2327
C3 C 0.1330(3) 0.90582(8) 0.30529(8)
C4 C -0.0805(3) 0.95720(8) 0.31136(8)
C5 C -0.1894(3) 0.97177(9) 0.38213(8)
H7 H -0.1196 0.9359 0.4148
H8 H -0.3774 0.9644 0.3798
C6 C -0.1407(3) 1.04477(8) 0.41293(8)
C7 C -0.2916(4) 1.06827(10) 0.46786(10)
H9 H -0.4300 1.0396 0.4836
C8 C -0.2441(4) 1.13268(10) 0.50011(11)
H10 H -0.3477 1.1475 0.5381
C9 C -0.0477(4) 1.17498(10) 0.47723(10)
H11 H -0.0155 1.2194 0.4990
C10 C 0.1013(4) 1.15299(10) 0.42292(11)
H12 H 0.2374 1.1823 0.4069
C11 C 0.0560(4) 1.08794(9) 0.39070(9)
H13 H 0.1618 1.0732 0.3530
C12 C -0.4236(3) 1.06281(8) 0.18993(8)
H14 H -0.2619 1.0822 0.1693
C13 C -0.6057(3) 1.12422(8) 0.20191(8)
C14 C -0.7644(3) 1.14737(8) 0.14192(8)
C15 C -0.9270(3) 1.20610(8) 0.14932(9)
H15 H -0.9305 1.2314 0.1922
C16 C -1.0821(4) 1.22763(9) 0.09500(9)
H16 H -1.1934 1.2672 0.1004
C17 C -1.0737(3) 1.19093(9) 0.03250(9)
H17 H -1.1795 1.2056 -0.0052
C18 C -0.9131(3) 1.13316(8) 0.02438(8)
H18 H -0.9086 1.1089 -0.0190
C19 C -0.7577(3) 1.10989(7) 0.07880(8)
C20 C -0.5869(3) 1.04609(8) 0.06998(8)
H19 H -0.4221 1.0611 0.0490
H20 H -0.6695 1.0120 0.0377
C21 C -0.5346(3) 1.00945(8) 0.13911(8)
H21 H -0.6961 0.9896 0.1580
H22 H -0.4120 0.9699 0.1321
loop_
_geom_bond_atom_site_label_1
_geom_bond_atom_site_label_2
_geom_bond_site_symmetry_1
_geom_bond_site_symmetry_2
O1 C2 1_555 1_555
O2 C3 1_555 1_555
O3 C13 1_555 1_555
N1 N2 1_555 1_555
N2 H1 1_555 1_555
C1 H2 1_555 1_555
H3 C1 1_555 1_555
H4 C1 1_555 1_555
C2 C1 1_555 1_555
H5 C2 1_555 1_555
H6 C2 1_555 1_555
C3 O1 1_555 1_555
C4 N1 1_555 1_555
C5 C4 1_555 1_555
H7 C5 1_555 1_555
H8 C5 1_555 1_555
C6 C5 1_555 1_555
C7 C6 1_555 1_555
H9 C7 1_555 1_555
C8 C7 1_555 1_555
H10 C8 1_555 1_555
C9 C8 1_555 1_555
H11 C9 1_555 1_555
C10 C9 1_555 1_555
H12 C10 1_555 1_555
C11 C6 1_555 1_555
H13 C11 1_555 1_555
C12 N2 1_555 1_555
H14 C12 1_555 1_555
C13 C12 1_555 1_555
C14 C13 1_555 1_555
C15 C14 1_555 1_555
H15 C15 1_555 1_555
C16 C15 1_555 1_555
H16 C16 1_555 1_555
C17 C16 1_555 1_555
H17 C17 1_555 1_555
C18 C17 1_555 1_555
H18 C18 1_555 1_555
C19 C14 1_555 1_555
C20 C19 1_555 1_555
H19 C20 1_555 1_555
H20 C20 1_555 1_555
C21 C12 1_555 1_555
H21 C21 1_555 1_555
H22 C21 1_555 1_555
C3 C4 1_555 1_555
C10 C11 1_555 1_555
C18 C19 1_555 1_555
C20 C21 1_555 1_555

#END
