
#######################################################################
#
#                 Cambridge Crystallographic Data Centre
#                                CCDC 
#
#######################################################################
#
# If this CIF has been generated from an entry in the Cambridge 
# Structural Database, then it will include bibliographic, chemical, 
# crystal, experimental, refinement or atomic coordinate data resulting 
# from the CCDC's data processing and validation procedures.
#
#######################################################################

data_KALPIY
_chemical_formula_moiety         'C14 H11 N1 O2'
_chemical_name_systematic        
2-Oxo-6-(2-phenylvinyl)-3-oxabicyclo[3.1.0]hexane-1-carbonitrile
_symmetry_cell_setting           orthorhombic
_symmetry_space_group_name_H-M   'P 21 21 21'
_symmetry_Int_Tables_number      19
_space_group_name_Hall           'P 2ac 2ab'
loop_
_symmetry_equiv_pos_site_id
_symmetry_equiv_pos_as_xyz
1 x,y,z
2 1/2+x,1/2-y,-z
3 -x,1/2+y,1/2-z
4 1/2-x,-y,1/2+z
_cell_length_a                   5.8667(2)
_cell_length_b                   8.8242(2)
_cell_length_c                   21.4253(5)
_cell_angle_alpha                90
_cell_angle_beta                 90
_cell_angle_gamma                90
_cell_volume                     1109.16
_exptl_crystal_colour            colorless
_exptl_crystal_description       needle
_cell_formula_units_Z            4
loop_
_atom_site_label
_atom_site_type_symbol
_atom_site_fract_x
_atom_site_fract_y
_atom_site_fract_z
O1 O 0.3658(2) 0.56360(13) 1.06092(5)
O2 O 0.0199(2) 0.61463(13) 1.02200(5)
N1 N 0.5270(3) 0.24618(17) 0.94684(7)
C1 C 0.4043(3) 0.34642(18) 0.95159(8)
C2 C 0.2573(3) 0.47540(17) 0.95801(7)
C3 C 0.2323(3) 0.59359(18) 0.90407(7)
H1 H 0.2228 0.7015 0.9181
C4 C 0.3657(3) 0.56970(18) 0.84666(7)
H2 H 0.3386 0.4823 0.8219
C5 C 0.5234(3) 0.66894(19) 0.82919(7)
H3 H 0.5422 0.7548 0.8554
C6 C 0.6726(3) 0.66181(19) 0.77402(7)
C7 C 0.8740(3) 0.7454(2) 0.77420(8)
H4 H 0.9086 0.8080 0.8090
C8 C 1.0245(3) 0.7388(2) 0.72452(8)
H5 H 1.1620 0.7956 0.7257
C9 C 0.9749(3) 0.6495(2) 0.67314(8)
H6 H 1.0787 0.6437 0.6392
C10 C 0.2295(3) 0.54947(17) 1.01981(8)
C11 C -0.1232(3) 0.5626(2) 0.97069(8)
H7 H -0.2106 0.6481 0.9528
H8 H -0.2318 0.4845 0.9854
C12 C 0.0357(3) 0.49743(19) 0.92298(8)
H9 H -0.0198 0.4162 0.8942
C13 C 0.6215(3) 0.57390(19) 0.72165(8)
H10 H 0.4834 0.5178 0.7203
C14 C 0.7715(3) 0.56815(19) 0.67165(8)
H11 H 0.7352 0.5083 0.6361
loop_
_geom_bond_atom_site_label_1
_geom_bond_atom_site_label_2
_geom_bond_site_symmetry_1
_geom_bond_site_symmetry_2
O1 C10 1_555 1_555
O2 C10 1_555 1_555
N1 C1 1_555 1_555
C1 C2 1_555 1_555
C2 C3 1_555 1_555
C3 H1 1_555 1_555
C4 C3 1_555 1_555
H2 C4 1_555 1_555
C5 C4 1_555 1_555
H3 C5 1_555 1_555
C6 C5 1_555 1_555
C7 C6 1_555 1_555
H4 C7 1_555 1_555
C8 C7 1_555 1_555
H5 C8 1_555 1_555
C9 C8 1_555 1_555
H6 C9 1_555 1_555
C10 C2 1_555 1_555
C11 O2 1_555 1_555
H7 C11 1_555 1_555
H8 C11 1_555 1_555
C12 C2 1_555 1_555
H9 C12 1_555 1_555
C13 C6 1_555 1_555
H10 C13 1_555 1_555
C14 C9 1_555 1_555
H11 C14 1_555 1_555
C3 C12 1_555 1_555
C11 C12 1_555 1_555
C13 C14 1_555 1_555

#END
