
#######################################################################
#
#                 Cambridge Crystallographic Data Centre
#                                CCDC 
#
#######################################################################
#
# If this CIF has been generated from an entry in the Cambridge 
# Structural Database, then it will include bibliographic, chemical, 
# crystal, experimental, refinement or atomic coordinate data resulting 
# from the CCDC's data processing and validation procedures.
#
#######################################################################

data_KALPOE
_chemical_formula_moiety         'C11 H13 N1 O1'
_chemical_name_systematic        2-Methyl-2-phenylcyclopropanecarboxamide
_symmetry_cell_setting           monoclinic
_symmetry_space_group_name_H-M   'P 21'
_symmetry_Int_Tables_number      4
_space_group_name_Hall           'P 2yb'
loop_
_symmetry_equiv_pos_site_id
_symmetry_equiv_pos_as_xyz
1 x,y,z
2 -x,1/2+y,-z
_cell_length_a                   7.5048(2)
_cell_length_b                   5.1061(2)
_cell_length_c                   12.4279(4)
_cell_angle_alpha                90
_cell_angle_beta                 101.030(2)
_cell_angle_gamma                90
_cell_volume                     467.443
_exptl_crystal_colour            colorless
_exptl_crystal_description       plate
_cell_formula_units_Z            2
loop_
_atom_site_label
_atom_site_type_symbol
_atom_site_fract_x
_atom_site_fract_y
_atom_site_fract_z
C1 C 0.72698(17) 0.5898(3) 0.92861(10)
N1 N 0.81662(15) 0.8119(2) 0.95679(9)
H1 H 0.9337 0.8080 0.9842
H2 H 0.7588 0.9626 0.9480
O1 O 0.80168(12) 0.3721(2) 0.93927(8)
C2 C 0.52824(17) 0.6189(3) 0.88273(10)
H3 H 0.4611 0.7430 0.9229
C3 C 0.42269(18) 0.3861(3) 0.83291(10)
H4 H 0.2970 0.3660 0.8454
H5 H 0.4895 0.2195 0.8310
C4 C 0.45821(17) 0.6010(3) 0.75737(10)
C5 C 0.59720(19) 0.5463(3) 0.68648(11)
H6 H 0.5366 0.4698 0.6167
H7 H 0.6883 0.4233 0.7244
H8 H 0.6567 0.7103 0.6725
C6 C 0.30609(17) 0.7858(3) 0.71211(10)
C7 C 0.15996(18) 0.8249(3) 0.76557(11)
H9 H 0.1537 0.7266 0.8296
C8 C 0.02455(18) 1.0041(3) 0.72674(11)
H10 H -0.0729 1.0281 0.7646
C9 C 0.0299(2) 1.1488(3) 0.63312(12)
H11 H -0.0629 1.2723 0.6068
C10 C 0.1719(2) 1.1113(3) 0.57848(11)
H12 H 0.1766 1.2089 0.5140
C11 C 0.30809(19) 0.9308(3) 0.61766(11)
H13 H 0.4044 0.9062 0.5790
loop_
_geom_bond_atom_site_label_1
_geom_bond_atom_site_label_2
_geom_bond_site_symmetry_1
_geom_bond_site_symmetry_2
C1 N1 1_555 1_555
N1 H1 1_555 1_555
H2 N1 1_555 1_555
O1 C1 1_555 1_555
C2 C1 1_555 1_555
H3 C2 1_555 1_555
C3 C2 1_555 1_555
H4 C3 1_555 1_555
H5 C3 1_555 1_555
C4 C2 1_555 1_555
C5 C4 1_555 1_555
H6 C5 1_555 1_555
H7 C5 1_555 1_555
H8 C5 1_555 1_555
C6 C4 1_555 1_555
C7 C6 1_555 1_555
H9 C7 1_555 1_555
C8 C7 1_555 1_555
H10 C8 1_555 1_555
C9 C8 1_555 1_555
H11 C9 1_555 1_555
C10 C9 1_555 1_555
H12 C10 1_555 1_555
C11 C6 1_555 1_555
H13 C11 1_555 1_555
C3 C4 1_555 1_555
C10 C11 1_555 1_555

#END
