
#######################################################################
#
#                 Cambridge Crystallographic Data Centre
#                                CCDC 
#
#######################################################################
#
# If this CIF has been generated from an entry in the Cambridge 
# Structural Database, then it will include bibliographic, chemical, 
# crystal, experimental, refinement or atomic coordinate data resulting 
# from the CCDC's data processing and validation procedures.
#
#######################################################################

data_KALTIC
_chemical_formula_moiety         'C14 H20 N2 O3 S1'
_chemical_name_systematic        
N,3,3-Trimethyl-N-(methylsulfonyl)-2-oxo-N'-phenylbutanimidamide
_symmetry_cell_setting           triclinic
_symmetry_space_group_name_H-M   'P -1'
_symmetry_Int_Tables_number      2
_space_group_name_Hall           '-P 1'
loop_
_symmetry_equiv_pos_site_id
_symmetry_equiv_pos_as_xyz
1 x,y,z
2 -x,-y,-z
_cell_length_a                   6.8079(2)
_cell_length_b                   10.7683(3)
_cell_length_c                   11.1116(3)
_cell_angle_alpha                102.6380(10)
_cell_angle_beta                 100.0450(10)
_cell_angle_gamma                94.1240(10)
_cell_volume                     777.512
_exptl_crystal_colour            colorless
_cell_formula_units_Z            2
loop_
_atom_site_label
_atom_site_type_symbol
_atom_site_fract_x
_atom_site_fract_y
_atom_site_fract_z
S1 S 0.32191(6) 0.41992(4) 0.14130(4)
O1 O 0.1798(2) 0.43451(11) 0.22206(13)
O2 O 0.28392(19) 0.46163(12) 0.02757(12)
C1 C 0.4354(3) 0.21759(17) -0.00749(16)
H1 H 0.5294 0.1591 0.0120
H2 H 0.5038 0.2885 -0.0287
H3 H 0.3319 0.1742 -0.0775
C2 C 0.29413(19) 0.17837(13) 0.17310(13)
O3 O 0.40599(16) 0.27272(11) 0.38698(10)
N1 N 0.3444(2) 0.26511(12) 0.10294(12)
N2 N 0.29879(19) 0.06080(11) 0.12438(11)
C3 C 0.2765(2) -0.03665(13) 0.18989(13)
C4 C 0.4150(2) -0.04184(15) 0.29558(15)
H4 H 0.5212 0.0228 0.3286
C5 C 0.3950(3) -0.14371(16) 0.35201(16)
H5 H 0.4871 -0.1464 0.4235
C6 C 0.2407(3) -0.24029(16) 0.30328(17)
H6 H 0.2268 -0.3076 0.3423
C7 C 0.1066(3) -0.23730(16) 0.19653(18)
H7 H 0.0031 -0.3036 0.1627
C8 C 0.1240(3) -0.13667(15) 0.13881(15)
H8 H 0.0337 -0.1360 0.0659
C9 C 0.2584(2) 0.23017(12) 0.30743(13)
C10 C 0.0476(2) 0.21565(14) 0.33807(13)
C11 C -0.1161(2) 0.18530(18) 0.21985(16)
H9 H -0.2454 0.1827 0.2430
H10 H -0.1025 0.1037 0.1680
H11 H -0.1034 0.2504 0.1740
C12 C 0.0341(3) 0.10846(17) 0.40884(17)
H12 H -0.0920 0.1052 0.4362
H13 H 0.1420 0.1255 0.4806
H14 H 0.0438 0.0278 0.3539
C13 C 0.0189(3) 0.34105(17) 0.42716(18)
H15 H 0.0253 0.4099 0.3853
H16 H 0.1231 0.3591 0.5010
H17 H -0.1095 0.3324 0.4508
C14 C 0.5584(3) 0.49140(19) 0.2270(2)
H18 H 0.6579 0.4706 0.1766
H19 H 0.5892 0.4602 0.3019
H20 H 0.5580 0.5827 0.2495
loop_
_geom_bond_atom_site_label_1
_geom_bond_atom_site_label_2
_geom_bond_site_symmetry_1
_geom_bond_site_symmetry_2
S1 O1 1_555 1_555
O2 S1 1_555 1_555
C1 H1 1_555 1_555
H2 C1 1_555 1_555
H3 C1 1_555 1_555
C2 N1 1_555 1_555
O3 C9 1_555 1_555
N1 S1 1_555 1_555
N2 C2 1_555 1_555
C3 N2 1_555 1_555
C4 C3 1_555 1_555
H4 C4 1_555 1_555
C5 C4 1_555 1_555
H5 C5 1_555 1_555
C6 C5 1_555 1_555
H6 C6 1_555 1_555
C7 C6 1_555 1_555
H7 C7 1_555 1_555
C8 C3 1_555 1_555
H8 C8 1_555 1_555
C9 C2 1_555 1_555
C10 C9 1_555 1_555
C11 C10 1_555 1_555
H9 C11 1_555 1_555
H10 C11 1_555 1_555
H11 C11 1_555 1_555
C12 C10 1_555 1_555
H12 C12 1_555 1_555
H13 C12 1_555 1_555
H14 C12 1_555 1_555
C13 C10 1_555 1_555
H15 C13 1_555 1_555
H16 C13 1_555 1_555
H17 C13 1_555 1_555
C14 S1 1_555 1_555
H18 C14 1_555 1_555
H19 C14 1_555 1_555
H20 C14 1_555 1_555
C1 N1 1_555 1_555
C7 C8 1_555 1_555

#END
