
#######################################################################
#
#                 Cambridge Crystallographic Data Centre
#                                CCDC 
#
#######################################################################
#
# If this CIF has been generated from an entry in the Cambridge 
# Structural Database, then it will include bibliographic, chemical, 
# crystal, experimental, refinement or atomic coordinate data resulting 
# from the CCDC's data processing and validation procedures.
#
#######################################################################

data_KAMHUD
_chemical_name_common            
'2,3-(4,5-bis((4-diphenylaminophenyl)vinyl)benzo)-1,4,7,10,13-pentaoxacyclopentadeca-2-ene toluene solvate'
_chemical_formula_moiety         'C54 H50 N2 O5,0.5(C7 H8)'
_chemical_name_systematic        
"4,4'-(2,3,5,6,8,9,11,12-Octahydro-1,4,7,10,13-benzopentaoxacyclopentadecine-15,16-diyldiethene-2,1-diyl)bis(N,N-diphenylaniline) toluene solvate"
_symmetry_cell_setting           triclinic
_symmetry_space_group_name_H-M   'P -1'
_symmetry_Int_Tables_number      2
_space_group_name_Hall           '-P 1'
loop_
_symmetry_equiv_pos_site_id
_symmetry_equiv_pos_as_xyz
1 x,y,z
2 -x,-y,-z
_cell_length_a                   13.0034(4)
_cell_length_b                   14.4871(5)
_cell_length_c                   15.1303(5)
_cell_angle_alpha                113.429(2)
_cell_angle_beta                 103.637(2)
_cell_angle_gamma                91.994(2)
_cell_volume                     2515
_exptl_crystal_colour            'green yellow'
_exptl_crystal_description       block
_cell_formula_units_Z            2
loop_
_atom_site_label
_atom_site_type_symbol
_atom_site_fract_x
_atom_site_fract_y
_atom_site_fract_z
O1 O 0.3909(2) 0.4571(3) 0.0675(2)
N1 N -0.1663(3) 0.6882(3) -0.4335(3)
C1 C 0.3032(3) 0.5032(4) 0.0808(3)
C2 C 0.1330(3) 0.6112(3) 0.1260(3)
C3 C 0.1466(3) 0.5764(3) 0.0284(3)
O2 O 0.3586(3) 0.5216(4) 0.2485(3)
C4 C 0.0772(3) 0.6012(4) -0.0489(3)
H1 H 0.0366 0.6529 -0.0265
N2 N -0.2884(3) 0.9595(3) 0.3556(3)
C5 C -0.0659(4) 0.6619(4) -0.1969(3)
H2 H -0.0744 0.6899 -0.1325
C6 C -0.0442(3) 0.7867(3) 0.2685(3)
C7 C -0.1107(3) 0.6551(3) -0.3628(3)
C8 C 0.2322(3) 0.5226(4) 0.0095(3)
H3 H 0.2415 0.4988 -0.0545
C9 C 0.0659(3) 0.5586(3) -0.1464(3)
H4 H 0.1022 0.5037 -0.1702
C10 C -0.0355(3) 0.8504(3) 0.3694(3)
H5 H 0.0255 0.8547 0.4183
C11 C 0.2029(3) 0.5872(4) 0.1963(3)
H6 H 0.1919 0.6064 0.2594
C12 C 0.0022(3) 0.5895(3) -0.2194(3)
C13 C 0.0454(3) 0.6676(3) 0.1517(3)
H7 H -0.0139 0.6587 0.0992
C14 C -0.2087(3) 0.6226(4) -0.5346(3)
C15 C 0.0426(3) 0.7300(3) 0.2423(3)
H8 H 0.1019 0.7386 0.2947
C16 C -0.2162(3) 0.8408(4) 0.2276(3)
H9 H -0.2774 0.8372 0.1792
C17 C -0.1210(3) 0.6936(4) -0.2657(3)
H10 H -0.1662 0.7420 -0.2474
C18 C -0.2057(3) 0.9027(3) 0.3270(3)
C19 C 0.2869(3) 0.5366(4) 0.1760(3)
C20 C -0.0441(4) 0.5819(4) -0.3858(4)
H11 H -0.0352 0.5537 -0.4501
C21 C -0.1370(3) 0.7840(4) 0.1991(3)
H12 H -0.1461 0.7428 0.1317
C22 C -0.2088(4) 0.6549(4) -0.6090(3)
H13 H -0.1780 0.7206 -0.5924
C23 C -0.1746(4) 0.7947(4) -0.4009(3)
C24 C -0.3961(3) 0.9090(4) 0.3146(3)
C25 C -0.2707(4) 0.8248(4) -0.4332(4)
H14 H -0.3302 0.7767 -0.4749
C26 C -0.2659(4) 1.0667(4) 0.4085(3)
C27 C 0.0091(4) 0.5501(4) -0.3160(3)
H15 H 0.0518 0.4994 -0.3351
C28 C -0.1143(4) 0.9061(4) 0.3973(3)
H16 H -0.1062 0.9469 0.4646
C29 C -0.0893(4) 0.8665(4) -0.3394(4)
H17 H -0.0241 0.8468 -0.3181
C30 C -0.1846(4) 1.1219(4) 0.3992(4)
H18 H -0.1432 1.0885 0.3570
C31 C -0.2534(4) 0.5229(4) -0.5631(4)
H19 H -0.2541 0.4988 -0.5148
C32 C 0.3935(4) 0.3923(5) -0.0294(4)
H20 H 0.4119 0.4321 -0.0635
H21 H 0.3236 0.3527 -0.0672
C33 C -0.3261(4) 1.1182(4) 0.4730(4)
H22 H -0.3804 1.0822 0.4820
C34 C -0.4196(4) 0.8167(4) 0.3167(4)
H23 H -0.3653 0.7881 0.3445
C35 C -0.4760(4) 0.9495(4) 0.2729(4)
H24 H -0.4613 1.0114 0.2702
C36 C -0.2769(6) 0.9274(5) -0.4027(5)
H25 H -0.3409 0.9482 -0.4255
C37 C -0.3050(5) 1.2219(5) 0.5232(4)
H26 H -0.3456 1.2560 0.5659
C38 C 0.4734(5) 0.3237(7) -0.0237(5)
H27 H 0.4835 0.2856 -0.0895
H28 H 0.5415 0.3627 0.0211
C39 C -0.1635(5) 1.2248(5) 0.4506(5)
H29 H -0.1067 1.2605 0.4445
C40 C -0.2537(5) 0.5912(6) -0.7062(4)
H30 H -0.2544 0.6148 -0.7552
C41 C -0.5222(5) 0.7664(5) 0.2784(4)
H31 H -0.5373 0.7043 0.2807
C42 C -0.2246(6) 1.2765(4) 0.5113(4)
H32 H -0.2120 1.3471 0.5439
C43 C -0.2967(4) 0.4597(5) -0.6635(5)
H33 H -0.3254 0.3928 -0.6824
C44 C -0.2976(5) 0.4945(6) -0.7343(5)
H34 H -0.3281 0.4524 -0.8016
C45 C -0.0986(6) 0.9678(5) -0.3082(5)
H35 H -0.0401 1.0162 -0.2644
O3 O 0.4370(5) 0.2595(5) 0.0107(5)
C46 C -0.1915(7) 0.9981(5) -0.3403(5)
H36 H -0.1968 1.0670 -0.3198
C47 C 0.3567(9) 0.4630(13) 0.2759(14)
O4 O 0.3901(5) 0.3481(7) 0.3398(6)
C48 C -0.5794(5) 0.8980(6) 0.2345(5)
H37 H -0.6341 0.9261 0.2066
C49 C -0.6019(5) 0.8074(6) 0.2371(5)
H38 H -0.6715 0.7732 0.2106
C50 C 0.4159(7) 0.4505(8) 0.3618(6)
H39 H 0.4921 0.4676 0.3730
H40 H 0.3956 0.4935 0.4210
C51 C 0.4812(13) 0.1510(11) 0.1099(19)
H41 H 0.4054 0.1259 0.0890
H42 H 0.5214 0.0969 0.1136
O5 O 0.5061(7) 0.2286(7) 0.1939(8)
C52 C 0.4735(12) 0.2130(14) 0.2731(15)
H43 H 0.5199 0.1704 0.2946
H44 H 0.4012 0.1767 0.2463
C53 C 0.4770(10) 0.3070(15) 0.3601(10)
H45 H 0.4799 0.2928 0.4180
H46 H 0.5404 0.3538 0.3750
C54 C 0.5149(10) 0.1958(11) 0.0290(9)
H47 H 0.5860 0.2347 0.0584
H48 H 0.5144 0.1394 -0.0334
C55 C -0.1753(14) 1.1232(18) -0.0124(17)
H49 H -0.1716 1.1556 -0.0540
C56 C -0.1917(11) 1.0303(10) 0.1085(9)
H50 H -0.2006 0.9985 0.1493
C57 C -0.2057(9) 1.1370(12) 0.1381(12)
H51 H -0.2193 1.1747 0.1992
C58 C -0.1672(13) 0.9797(11) 0.0265(14)
C59 C -0.1565(12) 1.0212(17) -0.0455(10)
H52 H -0.1394 0.9849 -0.1051
C60 C -0.147(2) 0.8778(19) 0.0046(18)
H53 H -0.1556 0.8602 0.0575
H54 H -0.0755 0.8722 -0.0014
H55 H -0.1969 0.8324 -0.0573
C61 C -0.1986(14) 1.1787(13) 0.076(2)
H56 H -0.2095 1.2459 0.0927
loop_
_geom_bond_atom_site_label_1
_geom_bond_atom_site_label_2
_geom_bond_site_symmetry_1
_geom_bond_site_symmetry_2
O1 C1 1_555 1_555
N1 C7 1_555 1_555
C1 C8 1_555 1_555
C2 C3 1_555 1_555
C3 C4 1_555 1_555
O2 C19 1_555 1_555
C4 H1 1_555 1_555
N2 C18 1_555 1_555
C5 H2 1_555 1_555
C6 C10 1_555 1_555
C7 C17 1_555 1_555
C8 C3 1_555 1_555
H3 C8 1_555 1_555
C9 C4 1_555 1_555
H4 C9 1_555 1_555
C10 H5 1_555 1_555
C11 C2 1_555 1_555
H6 C11 1_555 1_555
C12 C5 1_555 1_555
C13 C2 1_555 1_555
H7 C13 1_555 1_555
C14 N1 1_555 1_555
C15 C6 1_555 1_555
H8 C15 1_555 1_555
C16 H9 1_555 1_555
C17 C5 1_555 1_555
H10 C17 1_555 1_555
C18 C16 1_555 1_555
C19 C1 1_555 1_555
C20 C7 1_555 1_555
H11 C20 1_555 1_555
C21 C6 1_555 1_555
H12 C21 1_555 1_555
C22 C14 1_555 1_555
H13 C22 1_555 1_555
C23 N1 1_555 1_555
C24 N2 1_555 1_555
C25 C23 1_555 1_555
H14 C25 1_555 1_555
C26 N2 1_555 1_555
C27 C12 1_555 1_555
H15 C27 1_555 1_555
C28 C10 1_555 1_555
H16 C28 1_555 1_555
C29 C23 1_555 1_555
H17 C29 1_555 1_555
C30 C26 1_555 1_555
H18 C30 1_555 1_555
C31 C14 1_555 1_555
H19 C31 1_555 1_555
C32 O1 1_555 1_555
H20 C32 1_555 1_555
H21 C32 1_555 1_555
C33 C26 1_555 1_555
H22 C33 1_555 1_555
C34 C24 1_555 1_555
H23 C34 1_555 1_555
C35 C24 1_555 1_555
H24 C35 1_555 1_555
C36 C25 1_555 1_555
H25 C36 1_555 1_555
C37 C33 1_555 1_555
H26 C37 1_555 1_555
C38 C32 1_555 1_555
H27 C38 1_555 1_555
H28 C38 1_555 1_555
C39 C30 1_555 1_555
H29 C39 1_555 1_555
C40 C22 1_555 1_555
H30 C40 1_555 1_555
C41 C34 1_555 1_555
H31 C41 1_555 1_555
C42 C37 1_555 1_555
H32 C42 1_555 1_555
C43 C31 1_555 1_555
H33 C43 1_555 1_555
C44 C40 1_555 1_555
H34 C44 1_555 1_555
C45 C29 1_555 1_555
H35 C45 1_555 1_555
O3 C38 1_555 1_555
C46 C36 1_555 1_555
H36 C46 1_555 1_555
C47 O2 1_555 1_555
O4 C50 1_555 1_555
C48 C35 1_555 1_555
H37 C48 1_555 1_555
C49 C41 1_555 1_555
H38 C49 1_555 1_555
C50 C47 1_555 1_555
H39 C50 1_555 1_555
H40 C50 1_555 1_555
C51 H41 1_555 1_555
H42 C51 1_555 1_555
O5 C51 1_555 1_555
C52 O5 1_555 1_555
H43 C52 1_555 1_555
H44 C52 1_555 1_555
C53 O4 1_555 1_555
H45 C53 1_555 1_555
H46 C53 1_555 1_555
C54 O3 1_555 1_555
H47 C54 1_555 1_555
H48 C54 1_555 1_555
C55 H49 1_555 1_555
C56 H50 1_555 1_555
C57 C56 1_555 1_555
H51 C57 1_555 1_555
C58 C56 1_555 1_555
C59 C55 1_555 1_555
H52 C59 1_555 1_555
C60 C58 1_555 1_555
H53 C60 1_555 1_555
H54 C60 1_555 1_555
H55 C60 1_555 1_555
C61 C55 1_555 1_555
H56 C61 1_555 1_555
C9 C12 1_555 1_555
C11 C19 1_555 1_555
C13 C15 1_555 1_555
C16 C21 1_555 1_555
C18 C28 1_555 1_555
C20 C27 1_555 1_555
C39 C42 1_555 1_555
C43 C44 1_555 1_555
C45 C46 1_555 1_555
C48 C49 1_555 1_555
C51 C54 1_555 1_555
C52 C53 1_555 1_555
C57 C61 1_555 1_555
C58 C59 1_555 1_555

#END
