
#######################################################################
#
#                 Cambridge Crystallographic Data Centre
#                                CCDC 
#
#######################################################################
#
# If this CIF has been generated from an entry in the Cambridge 
# Structural Database, then it will include bibliographic, chemical, 
# crystal, experimental, refinement or atomic coordinate data resulting 
# from the CCDC's data processing and validation procedures.
#
#######################################################################

data_KAMJOZ
_chemical_name_common            isatine-3-(N$4!-benzylthiosemicarbazone)
_chemical_formula_moiety         'C15 H12 N4 O1 S1'
_chemical_name_systematic        
2-(2-Oxo-1,2-dihydro-3H-indol-3-ylidene)-N-phenylhydrazinecarbothioamide
_symmetry_cell_setting           monoclinic
_symmetry_space_group_name_H-M   'P 21/c'
_symmetry_Int_Tables_number      14
_space_group_name_Hall           '-P 2ybc'
loop_
_symmetry_equiv_pos_site_id
_symmetry_equiv_pos_as_xyz
1 x,y,z
2 -x,1/2+y,1/2-z
3 -x,-y,-z
4 x,1/2-y,1/2+z
_cell_length_a                   6.3227(2)
_cell_length_b                   15.7973(7)
_cell_length_c                   14.4572(6)
_cell_angle_alpha                90
_cell_angle_beta                 93.9330(10)
_cell_angle_gamma                90
_cell_volume                     1440.61
_exptl_crystal_colour            yellow
_chemical_melting_point          '510 K'
_cell_formula_units_Z            4
_chemical_properties_physical    'stable at room conditions'
loop_
_atom_site_label
_atom_site_type_symbol
_atom_site_fract_x
_atom_site_fract_y
_atom_site_fract_z
C1 C 1.5900(2) 0.42700(11) 0.34455(13)
C2 C 1.7467(3) 0.45478(12) 0.42163(15)
C3 C 1.8695(3) 0.49295(11) 0.28243(14)
C4 C 1.9967(3) 0.52386(14) 0.21676(18)
H1 H 2.1261 0.5495 0.2334
C5 C 1.9240(4) 0.51511(16) 0.12538(18)
H2 H 2.0050 0.5367 0.0795
C6 C 1.7333(3) 0.47508(15) 0.09939(16)
H3 H 1.6904 0.4693 0.0369
C7 C 1.6070(3) 0.44384(13) 0.16590(15)
H4 H 1.4792 0.4171 0.1489
C8 C 1.6749(2) 0.45330(11) 0.25846(13)
C9 C 1.1934(3) 0.30989(13) 0.44795(13)
C10 C 0.8906(2) 0.24991(11) 0.34566(13)
C11 C 0.8270(3) 0.24676(12) 0.25223(15)
H5 H 0.9125 0.2705 0.2092
C12 C 0.6377(3) 0.20878(14) 0.22212(18)
H6 H 0.5960 0.2071 0.1592
C13 C 0.5111(3) 0.17334(14) 0.2856(2)
H7 H 0.3830 0.1481 0.2657
C14 C 0.5746(3) 0.17544(13) 0.37796(19)
H8 H 0.4891 0.1507 0.4203
C15 C 0.7637(3) 0.21361(13) 0.40994(15)
H9 H 0.8047 0.2149 0.4729
N1 N 1.4165(2) 0.38503(9) 0.35226(11)
N2 N 1.3669(2) 0.36138(11) 0.43719(12)
N3 N 1.9062(2) 0.49316(11) 0.37925(13)
N4 N 1.0834(2) 0.29332(10) 0.36803(12)
O1 O 1.7324(2) 0.44457(9) 0.50537(10)
S1 S 1.15224(9) 0.27810(6) 0.55400(4)
H10 H 1.444(3) 0.3762(13) 0.4833(17)
H11 H 2.004(3) 0.5122(15) 0.4114(15)
H12 H 1.138(3) 0.3166(12) 0.3245(14)
loop_
_geom_bond_atom_site_label_1
_geom_bond_atom_site_label_2
_geom_bond_site_symmetry_1
_geom_bond_site_symmetry_2
C1 C2 1_555 1_555
C2 N3 1_555 1_555
C3 C4 1_555 1_555
C4 H1 1_555 1_555
C5 C4 1_555 1_555
H2 C5 1_555 1_555
C6 C5 1_555 1_555
H3 C6 1_555 1_555
C7 C6 1_555 1_555
H4 C7 1_555 1_555
C8 C1 1_555 1_555
C9 N2 1_555 1_555
C10 C11 1_555 1_555
C11 H5 1_555 1_555
C12 C11 1_555 1_555
H6 C12 1_555 1_555
C13 C12 1_555 1_555
H7 C13 1_555 1_555
C14 C13 1_555 1_555
H8 C14 1_555 1_555
C15 C10 1_555 1_555
H9 C15 1_555 1_555
N1 C1 1_555 1_555
N2 N1 1_555 1_555
N3 C3 1_555 1_555
N4 C9 1_555 1_555
O1 C2 1_555 1_555
S1 C9 1_555 1_555
H10 N2 1_555 1_555
H11 N3 1_555 1_555
H12 N4 1_555 1_555
C3 C8 1_555 1_555
C7 C8 1_555 1_555
C10 N4 1_555 1_555
C14 C15 1_555 1_555

#END
