
#######################################################################
#
#                 Cambridge Crystallographic Data Centre
#                                CCDC 
#
#######################################################################
#
# If this CIF has been generated from an entry in the Cambridge 
# Structural Database, then it will include bibliographic, chemical, 
# crystal, experimental, refinement or atomic coordinate data resulting 
# from the CCDC's data processing and validation procedures.
#
#######################################################################

data_KAMKAM
_chemical_formula_moiety         'C28 H26 N2 O4'
_chemical_name_systematic        
4,4'-(2,3,6,7-Tetramethoxy-9,10-dihydroanthracene-9,10-diyl)dipyridine
_symmetry_cell_setting           orthorhombic
_symmetry_space_group_name_H-M   'P n a 21'
_symmetry_Int_Tables_number      33
_space_group_name_Hall           'P 2c -2n'
loop_
_symmetry_equiv_pos_site_id
_symmetry_equiv_pos_as_xyz
1 x,y,z
2 -x,-y,1/2+z
3 1/2-x,1/2+y,1/2+z
4 1/2+x,1/2-y,z
_cell_length_a                   13.730(3)
_cell_length_b                   18.270(4)
_cell_length_c                   9.1410(18)
_cell_angle_alpha                90
_cell_angle_beta                 90
_cell_angle_gamma                90
_cell_volume                     2292.99
_exptl_crystal_colour            colorless
_exptl_crystal_description       block
_cell_formula_units_Z            4
loop_
_atom_site_label
_atom_site_type_symbol
_atom_site_fract_x
_atom_site_fract_y
_atom_site_fract_z
O1 O -0.07270(17) 0.23297(13) 0.7295(3)
O2 O 0.06963(16) 0.19907(12) 0.5591(3)
O3 O -0.29965(17) -0.25246(11) 0.6920(3)
O4 O -0.16369(18) -0.28619(11) 0.5150(3)
N1 N -0.2447(3) 0.02721(17) -0.0060(3)
N2 N -0.4852(2) 0.07566(15) 0.3046(4)
C1 C -0.1470(4) 0.2674(3) 0.7805(8)
H1 H -0.1258 0.3114 0.8283
H2 H -0.1805 0.2368 0.8495
H3 H -0.1903 0.2797 0.7017
C2 C 0.1369(3) 0.1931(2) 0.4461(5)
H4 H 0.1860 0.2301 0.4571
H5 H 0.1043 0.1994 0.3540
H6 H 0.1667 0.1456 0.4492
C3 C -0.0815(2) 0.16920(16) 0.6551(3)
C4 C -0.1599(2) 0.12372(15) 0.6675(3)
H7 H -0.2103 0.1361 0.7307
C5 C -0.1656(2) 0.05938(14) 0.5875(3)
C6 C -0.2536(2) 0.01149(13) 0.5989(3)
H8 H -0.2789 0.0163 0.6987
C7 C -0.2261(2) -0.06811(14) 0.5768(3)
C8 C -0.2764(2) -0.12299(15) 0.6490(4)
H9 H -0.3263 -0.1107 0.7134
C9 C -0.2537(2) -0.19479(15) 0.6269(3)
C10 C -0.3821(3) -0.2383(2) 0.7760(5)
H10 H -0.4065 -0.2834 0.8157
H11 H -0.4312 -0.2161 0.7159
H12 H -0.3655 -0.2057 0.8545
C11 C -0.0931(3) -0.30957(17) 0.4159(5)
H13 H -0.0904 -0.3621 0.4160
H14 H -0.0309 -0.2902 0.4438
H15 H -0.1096 -0.2925 0.3197
C12 C -0.1786(2) -0.21300(15) 0.5319(3)
C13 C -0.1274(2) -0.15912(14) 0.4624(3)
H16 H -0.0763 -0.1716 0.4006
C14 C -0.1511(2) -0.08552(14) 0.4834(3)
C15 C -0.0985(2) -0.02608(14) 0.4006(3)
H17 H -0.0325 -0.0434 0.3790
C16 C -0.0904(2) 0.04191(14) 0.4934(3)
C17 C -0.0101(2) 0.08748(15) 0.4837(3)
H18 H 0.0412 0.0750 0.4221
C18 C -0.0053(2) 0.15039(15) 0.5635(4)
C19 C -0.33444(19) 0.03481(14) 0.4949(3)
C20 C -0.4215(2) -0.00292(17) 0.4852(4)
H19 H -0.4319 -0.0436 0.5443
C21 C -0.4918(2) 0.01864(18) 0.3906(5)
H20 H -0.5486 -0.0090 0.3865
C22 C -0.4012(2) 0.11239(17) 0.3113(4)
H21 H -0.3931 0.1527 0.2502
C23 C -0.3263(2) 0.09397(17) 0.4032(4)
H22 H -0.2696 0.1217 0.4034
C24 C -0.1492(2) -0.00890(13) 0.2553(3)
C25 C -0.1195(2) 0.04882(16) 0.1696(3)
H23 H -0.0662 0.0770 0.1974
C26 C -0.1686(3) 0.06475(18) 0.0436(4)
H24 H -0.1473 0.1045 -0.0112
C27 C -0.2704(3) -0.02813(18) 0.0747(4)
H25 H -0.3227 -0.0563 0.0429
C28 C -0.2260(2) -0.04813(16) 0.2038(3)
H26 H -0.2485 -0.0885 0.2557
loop_
_geom_bond_atom_site_label_1
_geom_bond_atom_site_label_2
_geom_bond_site_symmetry_1
_geom_bond_site_symmetry_2
O1 C1 1_555 1_555
O2 C2 1_555 1_555
O3 C9 1_555 1_555
O4 C11 1_555 1_555
N1 C26 1_555 1_555
N2 C21 1_555 1_555
C1 H1 1_555 1_555
H2 C1 1_555 1_555
H3 C1 1_555 1_555
C2 H4 1_555 1_555
H5 C2 1_555 1_555
H6 C2 1_555 1_555
C3 O1 1_555 1_555
C4 C3 1_555 1_555
H7 C4 1_555 1_555
C5 C4 1_555 1_555
C6 C5 1_555 1_555
H8 C6 1_555 1_555
C7 C6 1_555 1_555
C8 C7 1_555 1_555
H9 C8 1_555 1_555
C9 C8 1_555 1_555
C10 O3 1_555 1_555
H10 C10 1_555 1_555
H11 C10 1_555 1_555
H12 C10 1_555 1_555
C11 H13 1_555 1_555
H14 C11 1_555 1_555
H15 C11 1_555 1_555
C12 O4 1_555 1_555
C13 C12 1_555 1_555
H16 C13 1_555 1_555
C14 C7 1_555 1_555
C15 C14 1_555 1_555
H17 C15 1_555 1_555
C16 C5 1_555 1_555
C17 C16 1_555 1_555
H18 C17 1_555 1_555
C18 O2 1_555 1_555
C19 C6 1_555 1_555
C20 C19 1_555 1_555
H19 C20 1_555 1_555
C21 C20 1_555 1_555
H20 C21 1_555 1_555
C22 N2 1_555 1_555
H21 C22 1_555 1_555
C23 C19 1_555 1_555
H22 C23 1_555 1_555
C24 C15 1_555 1_555
C25 C24 1_555 1_555
H23 C25 1_555 1_555
C26 C25 1_555 1_555
H24 C26 1_555 1_555
C27 N1 1_555 1_555
H25 C27 1_555 1_555
C28 C24 1_555 1_555
H26 C28 1_555 1_555
C3 C18 1_555 1_555
C9 C12 1_555 1_555
C13 C14 1_555 1_555
C15 C16 1_555 1_555
C17 C18 1_555 1_555
C22 C23 1_555 1_555
C27 C28 1_555 1_555

#END
