
#######################################################################
#
#                 Cambridge Crystallographic Data Centre
#                                CCDC 
#
#######################################################################
#
# If this CIF has been generated from an entry in the Cambridge 
# Structural Database, then it will include bibliographic, chemical, 
# crystal, experimental, refinement or atomic coordinate data resulting 
# from the CCDC's data processing and validation procedures.
#
#######################################################################

data_KAMNER
_chemical_formula_moiety         'C20 H22 O7'
_chemical_name_systematic        Palmarin
_symmetry_cell_setting           monoclinic
_symmetry_space_group_name_H-M   'P 21'
_symmetry_Int_Tables_number      4
_space_group_name_Hall           'P 2yb'
loop_
_symmetry_equiv_pos_site_id
_symmetry_equiv_pos_as_xyz
1 x,y,z
2 -x,1/2+y,-z
_cell_length_a                   7.807(1)
_cell_length_b                   9.148(1)
_cell_length_c                   12.513(1)
_cell_angle_alpha                90
_cell_angle_beta                 107.45(1)
_cell_angle_gamma                90
_cell_volume                     852.532
_cell_formula_units_Z            2
loop_
_atom_site_label
_atom_site_type_symbol
_atom_site_fract_x
_atom_site_fract_y
_atom_site_fract_z
C1 C -0.2052(4) -0.2501(6) -0.6571(2)
H1 H -0.0797(4) -0.2417(6) -0.6765(2)
C2 C -0.3015(5) -0.1038(5) -0.6676(2)
H2 H -0.2649(5) -0.0627(6) -0.7387(2)
C3 C -0.4644(4) -0.1172(6) -0.6333(2)
H3 H -0.6053(4) -0.0914(6) -0.6675(2)
C4 C -0.4853(4) -0.2696(5) -0.5944(2)
C5 C -0.5071(4) -0.3764(5) -0.6964(2)
C6 C -0.5191(4) -0.5343(5) -0.6579(2)
H4 H -0.4074(4) -0.5537(5) -0.5839(2)
H5 H -0.6435(4) -0.5465(5) -0.6378(2)
C7 C -0.5140(4) -0.6503(6) -0.7460(2)
H6 H -0.6502(4) -0.6768(6) -0.7940(2)
H7 H -0.4482(4) -0.7469(6) -0.7033(2)
C8 C -0.4132(4) -0.5974(5) -0.8260(2)
H8 H -0.5022(4) -0.5267(5) -0.8871(2)
H9 H 0.2024(4) -0.6756(6) -1.0229(2)
C9 C -0.2546(4) -0.4965 -0.7701(2)
C10 C -0.3364(4) -0.3545(6) -0.7387(2)
H10 H -0.3780(4) -0.3028(6) -0.8200(2)
C11 C -0.1683(4) -0.4592(5) -0.8627(2)
H11 H -0.0569(4) -0.3859(5) -0.8284(2)
H12 H -0.2674(4) -0.4058(5) -0.9307(2)
C12 C -0.1002(4) -0.5933(5) -0.9081(2)
H13 H -0.0160(4) -0.6268(5) -0.8409(2)
C13 C -0.0497(4) -0.5619(5) -1.0124(2)
C14 C -0.1475(4) -0.4790(6) -1.1081(2)
H14 H -0.2737(4) -0.4232(6) -1.1198(2)
C15 C -0.0506(4) -0.4846(6) -1.1802(2)
H15 H -0.0890(4) -0.4333(6) -1.2617(2)
C16 C 0.0994(4) -0.6098(6) -1.0335(2)
C17 C -0.3707(4) -0.7229(6) -0.8925(2)
C18 C -0.3108(4) -0.3091(5) -0.5061(2)
C19 C -0.6788(4) -0.3364(6) -0.7877(2)
H16 H -0.7102(4) -0.4149(6) -0.8552(2)
H17 H -0.7886(4) -0.3307(6) -0.7520(2)
H18 H -0.6584(4) -0.2302(6) -0.8196(2)
C20 C -0.1155(4) -0.5722(6) -0.6713(2)
H19 H -0.1708(4) -0.5896(6) -0.6029(2)
H20 H -0.0709(4) -0.6753(6) -0.6955(2)
H21 H -0.0030(4) -0.4980(6) -0.6450(2)
O1 O 0.1021(3) -0.5632(5) -1.1372(2)
O2 O -0.2350(3) -0.7107(5) -0.9376(2)
O3 O -0.4623(3) -0.8309(5) -0.9146(2)
O4 O -0.6342(3) -0.2740(5) -0.5523(2)
H22 H -0.6239(49) -0.3449(49) -0.5136(27)
O5 O -0.2968(3) -0.3467(5) -0.4116(2)
O6 O -0.1661(3) -0.3029(5) -0.5435(1)
O7 O -0.3081(3) -0.0366(5) -0.5644(2)
loop_
_geom_bond_atom_site_label_1
_geom_bond_atom_site_label_2
_geom_bond_site_symmetry_1
_geom_bond_site_symmetry_2
C1 H1 1_555 1_555
C2 C1 1_555 1_555
H2 C2 1_555 1_555
C3 C2 1_555 1_555
H3 C3 1_555 1_555
C4 C3 1_555 1_555
C5 C4 1_555 1_555
C6 C5 1_555 1_555
H4 C6 1_555 1_555
H5 C6 1_555 1_555
C7 C6 1_555 1_555
H6 C7 1_555 1_555
H7 C7 1_555 1_555
C8 C7 1_555 1_555
H8 C8 1_555 1_555
H9 C16 1_555 1_555
C9 C8 1_555 1_555
C10 C1 1_555 1_555
H10 C10 1_555 1_555
C11 C9 1_555 1_555
H11 C11 1_555 1_555
H12 C11 1_555 1_555
C12 C11 1_555 1_555
H13 C12 1_555 1_555
C13 C12 1_555 1_555
C14 C13 1_555 1_555
H14 C14 1_555 1_555
C15 C14 1_555 1_555
H15 C15 1_555 1_555
C16 C13 1_555 1_555
C17 C8 1_555 1_555
C18 C4 1_555 1_555
C19 C5 1_555 1_555
H16 C19 1_555 1_555
H17 C19 1_555 1_555
H18 C19 1_555 1_555
C20 C9 1_555 1_555
H19 C20 1_555 1_555
H20 C20 1_555 1_555
H21 C20 1_555 1_555
O1 C15 1_555 1_555
O2 C12 1_555 1_555
O3 C17 1_555 1_555
O4 C4 1_555 1_555
H22 O4 1_555 1_555
O5 C18 1_555 1_555
O6 C1 1_555 1_555
O7 C2 1_555 1_555
C3 O7 1_555 1_555
C5 C10 1_555 1_555
C9 C10 1_555 1_555
C16 O1 1_555 1_555
C17 O2 1_555 1_555
C18 O6 1_555 1_555

#END
