
#######################################################################
#
#                 Cambridge Crystallographic Data Centre
#                                CCDC 
#
#######################################################################
#
# If this CIF has been generated from an entry in the Cambridge 
# Structural Database, then it will include bibliographic, chemical, 
# crystal, experimental, refinement or atomic coordinate data resulting 
# from the CCDC's data processing and validation procedures.
#
#######################################################################

data_KAMNUI
_chemical_formula_moiety         'C22 H18 N8 S2'
_chemical_name_systematic        
5,5'-((p-Phenylenedimethylene)dithio)bis(1-phenyl-1H-1,2,3,4-tetrazole)
_symmetry_cell_setting           monoclinic
_symmetry_space_group_name_H-M   'P 21/c'
_symmetry_Int_Tables_number      14
_space_group_name_Hall           '-P 2ybc'
loop_
_symmetry_equiv_pos_site_id
_symmetry_equiv_pos_as_xyz
1 x,y,z
2 -x,1/2+y,1/2-z
3 -x,-y,-z
4 x,1/2-y,1/2+z
_cell_length_a                   10.114(15)
_cell_length_b                   10.537(15)
_cell_length_c                   20.92(3)
_cell_angle_alpha                90
_cell_angle_beta                 95.56(3)
_cell_angle_gamma                90
_cell_volume                     2218.98
_exptl_crystal_colour            colorless
_exptl_crystal_description       prism
_chemical_melting_point          '460 K'
_cell_formula_units_Z            4
_exptl_crystal_recrystallization_method acetonitrile
loop_
_atom_site_label
_atom_site_type_symbol
_atom_site_fract_x
_atom_site_fract_y
_atom_site_fract_z
S1 S 0.36561(8) -0.21748(7) 0.34149(3)
S2 S 0.17576(9) 0.40769(7) 0.40125(3)
N1 N 0.4101(2) -0.44831(19) 0.29066(10)
N2 N 0.4754(3) -0.5569(2) 0.30717(13)
N3 N 0.5343(3) -0.5390(2) 0.36313(13)
N4 N 0.5101(3) -0.4213(2) 0.38557(12)
N5 N 0.0351(2) 0.62323(19) 0.40452(9)
N6 N 0.0143(3) 0.7203(2) 0.44403(12)
N7 N 0.0872(3) 0.6982(2) 0.49629(12)
N8 N 0.1558(2) 0.5893(2) 0.49292(10)
C1 C 0.3268(3) -0.3271(3) 0.19743(12)
H1 H 0.3807 -0.2594 0.2118
C2 C 0.2451(3) -0.3170(3) 0.14182(13)
H2 H 0.2421 -0.2414 0.1188
C3 C 0.1683(3) -0.4159(3) 0.11987(15)
H3 H 0.1124 -0.4082 0.0821
C4 C 0.1733(4) -0.5268(4) 0.15357(17)
H4 H 0.1221 -0.5953 0.1379
C5 C 0.2524(4) -0.5389(3) 0.21013(15)
H5 H 0.2542 -0.6143 0.2333
C6 C 0.3288(3) -0.4378(2) 0.23193(12)
C7 C 0.4322(3) -0.3674(2) 0.33977(12)
C8 C 0.4143(3) -0.1758(2) 0.42370(12)
H6 H 0.3697 -0.2302 0.4523
H7 H 0.5094 -0.1861 0.4333
C9 C 0.3759(3) -0.0404(2) 0.43266(11)
C10 C 0.2616(3) -0.0089(3) 0.45894(14)
H8 H 0.2041 -0.0726 0.4698
C11 C 0.2309(3) 0.1154(3) 0.46945(14)
H9 H 0.1528 0.1352 0.4874
C12 C 0.3133(3) 0.2108(2) 0.45405(12)
C13 C 0.4268(3) 0.1797(3) 0.42624(12)
H10 H 0.4830 0.2435 0.4144
C14 C 0.4575(3) 0.0553(3) 0.41586(12)
H11 H 0.5347 0.0355 0.3972
C15 C 0.2823(3) 0.3464(3) 0.46830(13)
H12 H 0.3636 0.3956 0.4743
H13 H 0.2380 0.3517 0.5073
C16 C 0.1212(3) 0.5444(2) 0.43531(12)
C17 C -0.0320(2) 0.6150(2) 0.34185(12)
C18 C 0.0091(3) 0.6881(3) 0.29366(13)
H14 H 0.0812 0.7426 0.3015
C19 C -0.0581(3) 0.6799(4) 0.23336(14)
H15 H -0.0310 0.7291 0.2001
C20 C -0.1634(4) 0.6006(4) 0.22205(16)
H16 H -0.2085 0.5951 0.1812
C21 C -0.2023(5) 0.5295(4) 0.27093(17)
H17 H -0.2745 0.4751 0.2632
C22 C -0.1373(4) 0.5362(4) 0.33142(15)
H18 H -0.1651 0.4874 0.3647
loop_
_geom_bond_atom_site_label_1
_geom_bond_atom_site_label_2
_geom_bond_site_symmetry_1
_geom_bond_site_symmetry_2
S1 C7 1_555 1_555
S2 C15 1_555 1_555
N1 N2 1_555 1_555
N2 N3 1_555 1_555
N3 N4 1_555 1_555
N4 C7 1_555 1_555
N5 N6 1_555 1_555
N6 N7 1_555 1_555
N7 N8 1_555 1_555
N8 C16 1_555 1_555
C1 H1 1_555 1_555
C2 C1 1_555 1_555
H2 C2 1_555 1_555
C3 C2 1_555 1_555
H3 C3 1_555 1_555
C4 C3 1_555 1_555
H4 C4 1_555 1_555
C5 C4 1_555 1_555
H5 C5 1_555 1_555
C6 N1 1_555 1_555
C7 N1 1_555 1_555
C8 S1 1_555 1_555
H6 C8 1_555 1_555
H7 C8 1_555 1_555
C9 C8 1_555 1_555
C10 C9 1_555 1_555
H8 C10 1_555 1_555
C11 C10 1_555 1_555
H9 C11 1_555 1_555
C12 C11 1_555 1_555
C13 C12 1_555 1_555
H10 C13 1_555 1_555
C14 C9 1_555 1_555
H11 C14 1_555 1_555
C15 C12 1_555 1_555
H12 C15 1_555 1_555
H13 C15 1_555 1_555
C16 S2 1_555 1_555
C17 N5 1_555 1_555
C18 C17 1_555 1_555
H14 C18 1_555 1_555
C19 C18 1_555 1_555
H15 C19 1_555 1_555
C20 C19 1_555 1_555
H16 C20 1_555 1_555
C21 C20 1_555 1_555
H17 C21 1_555 1_555
C22 C17 1_555 1_555
H18 C22 1_555 1_555
N5 C16 1_555 1_555
C1 C6 1_555 1_555
C5 C6 1_555 1_555
C13 C14 1_555 1_555
C21 C22 1_555 1_555

#END
