
#######################################################################
#
#                 Cambridge Crystallographic Data Centre
#                                CCDC 
#
#######################################################################
#
# If this CIF has been generated from an entry in the Cambridge 
# Structural Database, then it will include bibliographic, chemical, 
# crystal, experimental, refinement or atomic coordinate data resulting 
# from the CCDC's data processing and validation procedures.
#
#######################################################################

data_KAMPIY
_chemical_formula_moiety         'C10 H10 N2 2+,2(C6 H2 N3 O7 1-)'
_chemical_name_systematic        "4,4'-Bipyridinium dipicrate"
_symmetry_cell_setting           triclinic
_symmetry_space_group_name_H-M   'P -1'
_symmetry_Int_Tables_number      2
_space_group_name_Hall           '-P 1'
loop_
_symmetry_equiv_pos_site_id
_symmetry_equiv_pos_as_xyz
1 x,y,z
2 -x,-y,-z
_cell_length_a                   5.369(2)
_cell_length_b                   10.456(4)
_cell_length_c                   11.357(5)
_cell_angle_alpha                107.554(5)
_cell_angle_beta                 96.246(5)
_cell_angle_gamma                94.581(6)
_cell_volume                     599.979
_exptl_crystal_colour            yellow
_exptl_crystal_description       plate
_cell_formula_units_Z            1
_exptl_crystal_recrystallization_method ethanol/water
loop_
_atom_site_label
_atom_site_type_symbol
_atom_site_fract_x
_atom_site_fract_y
_atom_site_fract_z
O1 O 0.7875(2) 0.48828(12) 0.15930(12)
O2 O 1.0460(2) 0.34029(13) 0.28055(14)
O3 O 1.3976(3) 0.46385(14) 0.36808(14)
O4 O 1.2652(3) 0.88538(15) 0.67590(15)
O5 O 0.9242(3) 0.97444(16) 0.64916(15)
O6 O 0.4322(4) 0.82386(17) 0.24860(19)
O7 O 0.3722(2) 0.61400(15) 0.14871(14)
N2 N 1.1708(3) 0.45034(16) 0.33304(14)
N3 N 1.0637(4) 0.88802(16) 0.61532(16)
N4 N 0.4910(3) 0.71065(18) 0.22933(16)
C6 C 0.8366(3) 0.57423(17) 0.26503(17)
C7 C 1.0411(3) 0.57090(17) 0.35767(17)
C8 C 1.1204(3) 0.67116(17) 0.46682(17)
H6 H 1.2610 0.6654 0.5197
C9 C 0.9878(3) 0.78201(17) 0.49766(17)
C10 C 0.7814(3) 0.79183(18) 0.41901(18)
H7 H 0.6915 0.8658 0.4416
C11 C 0.7096(3) 0.69283(17) 0.30812(17)
N1 N 0.3878(3) 0.30463(15) 0.07251(14)
H1 H 0.4854 0.3789 0.0889
C1 C 0.1712(4) 0.28545(19) -0.00335(18)
H2 H 0.1238 0.3536 -0.0350
C2 C 0.0188(3) 0.16581(18) -0.03467(17)
H3 H -0.1290 0.1517 -0.0902
C3 C 0.0824(3) 0.06478(16) 0.01564(16)
C4 C 0.3072(3) 0.09145(17) 0.09729(17)
H4 H 0.3560 0.0274 0.1341
C5 C 0.4564(3) 0.21178(18) 0.12343(18)
H5 H 0.6072 0.2286 0.1773
N1A N -0.3878(3) -0.30463(15) -0.07251(14)
H1A H -0.4854 -0.3789 -0.0889
C1A C -0.1712(4) -0.28545(19) 0.00335(18)
H2A H -0.1238 -0.3536 0.0350
C2A C -0.0188(3) -0.16581(18) 0.03467(17)
H3A H 0.1290 -0.1517 0.0902
C3A C -0.0824(3) -0.06478(16) -0.01564(16)
C4A C -0.3072(3) -0.09145(17) -0.09729(17)
H4A H -0.3560 -0.0274 -0.1341
C5A C -0.4564(3) -0.21178(18) -0.12343(18)
H5A H -0.6072 -0.2286 -0.1773
loop_
_geom_bond_atom_site_label_1
_geom_bond_atom_site_label_2
_geom_bond_site_symmetry_1
_geom_bond_site_symmetry_2
O1 C6 1_555 1_555
O2 N2 1_555 1_555
O3 N2 1_555 1_555
O4 N3 1_555 1_555
O5 N3 1_555 1_555
O6 N4 1_555 1_555
O7 N4 1_555 1_555
N1 H1 1_555 1_555
N2 C7 1_555 1_555
N3 C9 1_555 1_555
N4 C11 1_555 1_555
C1 N1 1_555 1_555
H2 C1 1_555 1_555
C2 C1 1_555 1_555
H3 C2 1_555 1_555
C3 C2 1_555 1_555
C4 C3 1_555 1_555
H4 C4 1_555 1_555
C5 N1 1_555 1_555
H5 C5 1_555 1_555
C6 C7 1_555 1_555
C7 C8 1_555 1_555
C8 H6 1_555 1_555
C9 C8 1_555 1_555
C10 C9 1_555 1_555
H7 C10 1_555 1_555
C11 C6 1_555 1_555
N1A H1A 1_555 1_555
C1A N1A 1_555 1_555
H2A C1A 1_555 1_555
C2A C1A 1_555 1_555
H3A C2A 1_555 1_555
C3A C3 1_555 1_555
C4A C3A 1_555 1_555
H4A C4A 1_555 1_555
C5A N1A 1_555 1_555
H5A C5A 1_555 1_555
C4 C5 1_555 1_555
C10 C11 1_555 1_555
C2A C3A 1_555 1_555
C4A C5A 1_555 1_555

#END
