
#######################################################################
#
#                 Cambridge Crystallographic Data Centre
#                                CCDC 
#
#######################################################################
#
# If this CIF has been generated from an entry in the Cambridge 
# Structural Database, then it will include bibliographic, chemical, 
# crystal, experimental, refinement or atomic coordinate data resulting 
# from the CCDC's data processing and validation procedures.
#
#######################################################################

data_KAMQUN
_chemical_formula_moiety         'C15 H10 O5,C6 H6 N2 O1,0.5(C1 H4 O1)'
_chemical_name_systematic        
'pyridine-4-carboxamide 5,6,7-trihydroxy-2-phenyl-4H-1-benzopyran-4-one methanol solvate'
_symmetry_cell_setting           orthorhombic
_symmetry_space_group_name_H-M   'P n a 21'
_symmetry_Int_Tables_number      33
_space_group_name_Hall           'P 2c -2n'
loop_
_symmetry_equiv_pos_site_id
_symmetry_equiv_pos_as_xyz
1 x,y,z
2 -x,-y,1/2+z
3 1/2-x,1/2+y,1/2+z
4 1/2+x,1/2-y,z
_cell_length_a                   30.007(3)
_cell_length_b                   16.7630(17)
_cell_length_c                   3.7377(5)
_cell_angle_alpha                90
_cell_angle_beta                 90
_cell_angle_gamma                90
_cell_volume                     1880.09
_exptl_crystal_description       needle
_cell_formula_units_Z            4
loop_
_atom_site_label
_atom_site_type_symbol
_atom_site_fract_x
_atom_site_fract_y
_atom_site_fract_z
N1 N 0.69981(19) 0.9148(4) 0.8035(19)
O1 O 0.53443(15) 0.9084(3) 0.6974(16)
N2 N 0.54949(18) 1.0275(3) 0.441(2)
H1 H 0.5211 1.0386 0.4080
H2 H 0.5701 1.0616 0.3729
C1 C 0.6867(2) 0.9837(4) 0.661(2)
H3 H 0.7089 1.0226 0.6108
C2 C 0.6429(2) 1.0021(4) 0.581(2)
H4 H 0.6354 1.0521 0.4776
C3 C 0.6100(2) 0.9455(4) 0.658(2)
C4 C 0.6231(2) 0.8738(4) 0.808(2)
H5 H 0.6018 0.8339 0.8655
C5 C 0.6686(2) 0.8612(5) 0.875(3)
H6 H 0.6774 0.8117 0.9757
C6 C 0.5613(2) 0.9591(4) 0.595(2)
C7 C 0.4096(2) 0.3174(4) 0.789(2)
H7 H 0.3849 0.2857 0.8595
O2 O 0.56530(14) 0.3576(3) 0.6594(16)
O3 O 0.68555(16) 0.1796(3) 0.942(2)
H8 H 0.6646 0.1546 1.0402
O4 O 0.74474(16) 0.2906(3) 0.688(2)
H9 H 0.7587 0.3333 0.7222
O5 O 0.71343(16) 0.4337(3) 0.4352(18)
H10 H 0.7286 0.4147 0.2668
C8 C 0.6395(2) 0.3958(4) 0.550(2)
H11 H 0.6292 0.4457 0.4629
O6 O 0.60407(15) 0.1446(3) 1.0834(15)
C9 C 0.4026(2) 0.3928(4) 0.653(2)
H12 H 0.3732 0.4128 0.6317
C10 C 0.4519(2) 0.2876(4) 0.825(2)
H13 H 0.4563 0.2353 0.9164
C11 C 0.4885(2) 0.3338(4) 0.727(2)
C12 C 0.6102(2) 0.3387(4) 0.676(2)
C13 C 0.6843(2) 0.3778(4) 0.555(2)
C14 C 0.4384(2) 0.4394(5) 0.547(2)
H14 H 0.4335 0.4909 0.4485
C15 C 0.4810(2) 0.4101(4) 0.587(2)
H15 H 0.5057 0.4421 0.5183
C16 C 0.5343(2) 0.3033(4) 0.773(2)
C17 C 0.6236(2) 0.2654(4) 0.810(2)
C18 C 0.6702(2) 0.2501(4) 0.813(2)
C19 C 0.6992(2) 0.3059(4) 0.692(3)
C20 C 0.5458(2) 0.2321(4) 0.911(2)
H16 H 0.5233 0.1962 0.9877
C21 C 0.5921(2) 0.2096(4) 0.943(2)
O7 O 0.7195(4) 0.6123(8) 0.662(5)
H17 H 0.7028 0.5722 0.6515
C22 C 0.7098(4) 0.6666(9) 0.354(6)
H18 H 0.7271 0.6497 0.1450
H19 H 0.7179 0.7214 0.4177
H20 H 0.6779 0.6643 0.2968
loop_
_geom_bond_atom_site_label_1
_geom_bond_atom_site_label_2
_geom_bond_site_symmetry_1
_geom_bond_site_symmetry_2
N1 C1 1_555 1_555
O1 C6 1_555 1_555
N2 H1 1_555 1_555
H2 N2 1_555 1_555
C1 H3 1_555 1_555
C2 C1 1_555 1_555
H4 C2 1_555 1_555
C3 C2 1_555 1_555
C4 C3 1_555 1_555
H5 C4 1_555 1_555
C5 N1 1_555 1_555
H6 C5 1_555 1_555
C6 N2 1_555 1_555
C7 H7 1_555 1_555
O2 C12 1_555 1_555
O3 H8 1_555 1_555
O4 H9 1_555 1_555
O5 H10 1_555 1_555
C8 H11 1_555 1_555
O6 C21 1_555 1_555
C9 C7 1_555 1_555
H12 C9 1_555 1_555
C10 C7 1_555 1_555
H13 C10 1_555 1_555
C11 C10 1_555 1_555
C12 C8 1_555 1_555
C13 O5 1_555 1_555
C14 C9 1_555 1_555
H14 C14 1_555 1_555
C15 C11 1_555 1_555
H15 C15 1_555 1_555
C16 O2 1_555 1_555
C17 C12 1_555 1_555
C18 O3 1_555 1_555
C19 O4 1_555 1_555
C20 C16 1_555 1_555
H16 C20 1_555 1_555
C21 C17 1_555 1_555
O7 H17 1_555 1_555
C22 O7 1_555 1_555
H18 C22 1_555 1_555
H19 C22 1_555 1_555
H20 C22 1_555 1_555
C3 C6 1_555 1_555
C4 C5 1_555 1_555
C8 C13 1_555 1_555
C11 C16 1_555 1_555
C13 C19 1_555 1_555
C14 C15 1_555 1_555
C17 C18 1_555 1_555
C18 C19 1_555 1_555
C20 C21 1_555 1_555

#END
