
#######################################################################
#
#                 Cambridge Crystallographic Data Centre
#                                CCDC 
#
#######################################################################
#
# If this CIF has been generated from an entry in the Cambridge 
# Structural Database, then it will include bibliographic, chemical, 
# crystal, experimental, refinement or atomic coordinate data resulting 
# from the CCDC's data processing and validation procedures.
#
#######################################################################

data_KAMRIB
_chemical_formula_moiety         'C15 H20 N2 O5'
_chemical_name_systematic        
'3-((N-(t-Butoxycarbonyl)-\b-alanyl)amino)benzoic acid'
_symmetry_cell_setting           triclinic
_symmetry_space_group_name_H-M   'P -1'
_symmetry_Int_Tables_number      2
_space_group_name_Hall           '-P 1'
loop_
_symmetry_equiv_pos_site_id
_symmetry_equiv_pos_as_xyz
1 x,y,z
2 -x,-y,-z
_cell_length_a                   10.7982(17)
_cell_length_b                   13.490(2)
_cell_length_c                   17.694(3)
_cell_angle_alpha                82.535(3)
_cell_angle_beta                 82.003(3)
_cell_angle_gamma                75.588(3)
_cell_volume                     2459.83
_exptl_crystal_colour            colorless
_exptl_crystal_description       plate
_cell_formula_units_Z            6
loop_
_atom_site_label
_atom_site_type_symbol
_atom_site_fract_x
_atom_site_fract_y
_atom_site_fract_z
C1 C 1.1937(5) -0.1751(4) 0.9197(3)
C2 C 1.1939(5) -0.0792(4) 0.8685(3)
C3 C 1.2654(5) -0.0792(4) 0.7962(3)
H1 H 1.3168 -0.1417 0.7787
C4 C 1.2606(5) 0.0130(4) 0.7505(3)
H2 H 1.3115 0.0130 0.7022
C5 C 1.1839(5) 0.1051(4) 0.7734(3)
H3 H 1.1820 0.1674 0.7412
C6 C 1.1098(5) 0.1048(4) 0.8441(3)
C7 C 1.1170(5) 0.0129(4) 0.8914(3)
H4 H 1.0681 0.0134 0.9404
C8 C 0.9965(5) 0.2906(4) 0.8360(3)
C9 C 0.8916(5) 0.3672(4) 0.8777(3)
H5 H 0.8207 0.3344 0.9005
H6 H 0.8565 0.4263 0.8412
C10 C 0.9466(5) 0.4048(4) 0.9412(3)
H7 H 0.9489 0.3538 0.9869
H8 H 1.0361 0.4098 0.9233
C11 C 0.7677(5) 0.5168(4) 1.0148(3)
C12 C 0.6121(5) 0.6575(4) 1.0787(3)
C13 C 0.4929(5) 0.6428(4) 1.0500(3)
H9 H 0.4816 0.6822 0.9998
H10 H 0.4175 0.6670 1.0864
H11 H 0.5023 0.5697 1.0451
C14 C 0.6268(6) 0.6098(5) 1.1598(3)
H12 H 0.6256 0.5370 1.1632
H13 H 0.5557 0.6454 1.1945
H14 H 0.7087 0.6161 1.1742
C15 C 0.6122(6) 0.7710(4) 1.0723(4)
H15 H 0.6937 0.7785 1.0865
H16 H 0.5407 0.8066 1.1068
H17 H 0.6023 0.8010 1.0193
O1 O 1.1343(4) -0.1779(3) 0.9824(2)
O2 O 1.2665(3) -0.2593(3) 0.8897(2)
H18 H 1.2629 -0.3112 0.9209
O3 O 1.0558(4) 0.3148(3) 0.7756(2)
O4 O 0.7178(3) 0.4487(3) 1.0486(2)
O5 O 0.7256(3) 0.6181(3) 1.0254(2)
N1 N 1.0217(4) 0.1931(3) 0.8706(2)
H19 H 0.9773 0.1834 0.9154
N2 N 0.8710(4) 0.5047(3) 0.9627(2)
H20 H 0.8948 0.5601 0.9402
C16 C 1.1901(5) -0.1853(4) 0.5769(3)
C17 C 1.1815(5) -0.0871(4) 0.5256(3)
C18 C 1.2249(4) -0.0865(4) 0.4477(3)
H21 H 1.2588 -0.1493 0.4252
C19 C 1.2181(5) 0.0063(4) 0.4038(3)
H22 H 1.2491 0.0070 0.3508
C20 C 1.1675(5) 0.0981(4) 0.4349(3)
H23 H 1.1634 0.1614 0.4036
C21 C 1.1218(5) 0.0975(4) 0.5132(3)
C22 C 1.1301(5) 0.0053(4) 0.5580(3)
H24 H 1.1006 0.0045 0.6111
C23 C 1.0574(5) 0.2871(4) 0.5218(3)
C24 C 1.0073(5) 0.3649(4) 0.5803(3)
H25 H 1.0199 0.3298 0.6323
H26 H 1.0577 0.4183 0.5706
C25 C 0.8689(5) 0.4149(4) 0.5771(3)
H27 H 0.8523 0.4334 0.5228
H28 H 0.8167 0.3655 0.6001
C26 C 0.7472(5) 0.5141(4) 0.6824(3)
C27 C 0.6122(4) 0.6544(4) 0.7546(3)
C28 C 0.6179(6) 0.6003(5) 0.8349(3)
H29 H 0.6159 0.5282 0.8341
H30 H 0.5438 0.6341 0.8687
H31 H 0.6976 0.6036 0.8540
C29 C 0.6244(6) 0.7644(5) 0.7538(4)
H32 H 0.7066 0.7639 0.7715
H33 H 0.5535 0.8016 0.7879
H34 H 0.6210 0.7985 0.7015
C30 C 0.4930(5) 0.6506(5) 0.7211(3)
H35 H 0.4935 0.6863 0.6692
H36 H 0.4167 0.6843 0.7533
H37 H 0.4911 0.5787 0.7189
O6 O 1.1516(4) -0.1875(3) 0.6457(2)
O7 O 1.2405(4) -0.2685(3) 0.5417(2)
H38 H 1.2431 -0.3207 0.5735
O8 O 1.0863(4) 0.3139(3) 0.4542(2)
O9 O 0.6999(3) 0.4461(3) 0.7174(2)
O10 O 0.7277(3) 0.6096(3) 0.7038(2)
N3 N 1.0684(4) 0.1875(3) 0.5512(2)
H39 H 1.0389 0.1775 0.5998
N4 N 0.8290(4) 0.5071(3) 0.6176(2)
H40 H 0.8599 0.5608 0.5987
C31 C -0.1796(5) 1.1756(4) 0.7505(3)
C32 C -0.1781(5) 1.0773(4) 0.8011(3)
C33 C -0.2494(5) 1.0757(4) 0.8730(3)
H41 H -0.3027 1.1373 0.8908
C34 C -0.2413(5) 0.9832(4) 0.9179(3)
H42 H -0.2890 0.9816 0.9672
C35 C -0.1649(5) 0.8927(4) 0.8924(3)
H43 H -0.1615 0.8295 0.9237
C36 C -0.0932(5) 0.8944(4) 0.8210(3)
C37 C -0.0993(4) 0.9876(4) 0.7755(3)
H44 H -0.0494 0.9895 0.7269
C38 C 0.0110(5) 0.7069(4) 0.8226(3)
C39 C 0.1122(5) 0.6293(4) 0.7797(3)
H45 H 0.1475 0.5701 0.8160
H46 H 0.1836 0.6611 0.7561
C40 C 0.0561(5) 0.5913(4) 0.7170(3)
H47 H -0.0331 0.5864 0.7355
H48 H 0.0530 0.6422 0.6712
C41 C 0.2374(5) 0.4775(4) 0.6477(3)
C42 C 0.4064(5) 0.3369(4) 0.5918(3)
C43 C 0.3915(5) 0.3756(5) 0.5092(3)
H49 H 0.3170 0.3568 0.4942
H50 H 0.4692 0.3446 0.4769
H51 H 0.3785 0.4506 0.5027
C44 C 0.4162(5) 0.2224(4) 0.6047(4)
H52 H 0.4179 0.1997 0.6595
H53 H 0.4954 0.1863 0.5761
H54 H 0.3418 0.2071 0.5868
C45 C 0.5181(5) 0.3643(5) 0.6196(3)
H55 H 0.5077 0.4391 0.6120
H56 H 0.5985 0.3309 0.5907
H57 H 0.5207 0.3409 0.6743
O11 O -0.2656(3) 1.2548(3) 0.7790(2)
H58 H -0.2638 1.3085 0.7494
O12 O -0.1131(3) 1.1820(3) 0.6911(2)
O13 O -0.0521(4) 0.6801(3) 0.8809(2)
O14 O 0.2853(3) 0.5464(3) 0.6128(2)
O15 O 0.2861(3) 0.3765(3) 0.6411(2)
N5 N -0.0071(4) 0.8063(3) 0.7917(2)
H59 H 0.0400 0.8175 0.7481
N6 N 0.1303(4) 0.4921(3) 0.6952(2)
H60 H 0.1019 0.4376 0.7150
loop_
_geom_bond_atom_site_label_1
_geom_bond_atom_site_label_2
_geom_bond_site_symmetry_1
_geom_bond_site_symmetry_2
C1 C2 1_555 1_555
C2 C3 1_555 1_555
C3 H1 1_555 1_555
C4 C3 1_555 1_555
H2 C4 1_555 1_555
C5 C4 1_555 1_555
H3 C5 1_555 1_555
C6 C5 1_555 1_555
C7 C2 1_555 1_555
H4 C7 1_555 1_555
C8 C9 1_555 1_555
C9 H5 1_555 1_555
H6 C9 1_555 1_555
C10 C9 1_555 1_555
H7 C10 1_555 1_555
H8 C10 1_555 1_555
C11 O4 1_555 1_555
C12 C13 1_555 1_555
C13 H9 1_555 1_555
H10 C13 1_555 1_555
H11 C13 1_555 1_555
C14 C12 1_555 1_555
H12 C14 1_555 1_555
H13 C14 1_555 1_555
H14 C14 1_555 1_555
C15 C12 1_555 1_555
H15 C15 1_555 1_555
H16 C15 1_555 1_555
H17 C15 1_555 1_555
O1 C1 1_555 1_555
O2 C1 1_555 1_555
H18 O2 1_555 1_555
O3 C8 1_555 1_555
O5 C11 1_555 1_555
N1 C6 1_555 1_555
H19 N1 1_555 1_555
N2 C10 1_555 1_555
H20 N2 1_555 1_555
C16 C17 1_555 1_555
C17 C18 1_555 1_555
C18 H21 1_555 1_555
C19 C18 1_555 1_555
H22 C19 1_555 1_555
C20 C19 1_555 1_555
H23 C20 1_555 1_555
C21 C20 1_555 1_555
C22 C17 1_555 1_555
H24 C22 1_555 1_555
C23 C24 1_555 1_555
C24 H25 1_555 1_555
H26 C24 1_555 1_555
C25 C24 1_555 1_555
H27 C25 1_555 1_555
H28 C25 1_555 1_555
C26 O9 1_555 1_555
C27 C28 1_555 1_555
C28 H29 1_555 1_555
H30 C28 1_555 1_555
H31 C28 1_555 1_555
C29 C27 1_555 1_555
H32 C29 1_555 1_555
H33 C29 1_555 1_555
H34 C29 1_555 1_555
C30 C27 1_555 1_555
H35 C30 1_555 1_555
H36 C30 1_555 1_555
H37 C30 1_555 1_555
O6 C16 1_555 1_555
O7 C16 1_555 1_555
H38 O7 1_555 1_555
O8 C23 1_555 1_555
O10 C26 1_555 1_555
N3 C21 1_555 1_555
H39 N3 1_555 1_555
N4 C25 1_555 1_555
H40 N4 1_555 1_555
C31 C32 1_555 1_555
C32 C33 1_555 1_555
C33 H41 1_555 1_555
C34 C33 1_555 1_555
H42 C34 1_555 1_555
C35 C34 1_555 1_555
H43 C35 1_555 1_555
C36 C35 1_555 1_555
C37 C32 1_555 1_555
H44 C37 1_555 1_555
C38 C39 1_555 1_555
C39 H45 1_555 1_555
H46 C39 1_555 1_555
C40 C39 1_555 1_555
H47 C40 1_555 1_555
H48 C40 1_555 1_555
C41 O14 1_555 1_555
C42 C43 1_555 1_555
C43 H49 1_555 1_555
H50 C43 1_555 1_555
H51 C43 1_555 1_555
C44 C42 1_555 1_555
H52 C44 1_555 1_555
H53 C44 1_555 1_555
H54 C44 1_555 1_555
C45 C42 1_555 1_555
H55 C45 1_555 1_555
H56 C45 1_555 1_555
H57 C45 1_555 1_555
O11 C31 1_555 1_555
H58 O11 1_555 1_555
O12 C31 1_555 1_555
O13 C38 1_555 1_555
O15 C41 1_555 1_555
N5 C36 1_555 1_555
H59 N5 1_555 1_555
N6 C40 1_555 1_555
H60 N6 1_555 1_555
C6 C7 1_555 1_555
C8 N1 1_555 1_555
C11 N2 1_555 1_555
C12 O5 1_555 1_555
C21 C22 1_555 1_555
C23 N3 1_555 1_555
C26 N4 1_555 1_555
C27 O10 1_555 1_555
C36 C37 1_555 1_555
C38 N5 1_555 1_555
C41 N6 1_555 1_555
C42 O15 1_555 1_555

#END
