
#######################################################################
#
#                 Cambridge Crystallographic Data Centre
#                                CCDC 
#
#######################################################################
#
# If this CIF has been generated from an entry in the Cambridge 
# Structural Database, then it will include bibliographic, chemical, 
# crystal, experimental, refinement or atomic coordinate data resulting 
# from the CCDC's data processing and validation procedures.
#
#######################################################################

data_KAMRAS
_chemical_formula_moiety         'C8 H8 O7'
_chemical_name_systematic        '(2R,3R)-Diacetyltartaric acid anhydride'
_symmetry_cell_setting           orthorhombic
_symmetry_space_group_name_H-M   'P 21 21 21'
_symmetry_Int_Tables_number      19
_space_group_name_Hall           'P 2ac 2ab'
loop_
_symmetry_equiv_pos_site_id
_symmetry_equiv_pos_as_xyz
1 x,y,z
2 1/2-x,-y,1/2+z
3 -x,1/2+y,1/2-z
4 1/2+x,1/2-y,-z
_cell_length_a                   5.4066(7)
_cell_length_b                   10.3363(14)
_cell_length_c                   17.434(2)
_cell_angle_alpha                90
_cell_angle_beta                 90
_cell_angle_gamma                90
_cell_volume                     974.286
_exptl_crystal_colour            colorless
_exptl_crystal_description       prism
_chemical_melting_point          '406-408 K'
_cell_formula_units_Z            4
loop_
_atom_site_label
_atom_site_type_symbol
_atom_site_fract_x
_atom_site_fract_y
_atom_site_fract_z
O1 O 0.6062(3) -0.19971(13) 0.44941(7)
O2 O 0.6246(3) -0.12213(15) 0.56866(8)
O3 O 0.5147(4) -0.22752(15) 0.32533(8)
O4 O 0.1911(3) 0.02240(13) 0.52584(7)
O5 O 0.4057(4) 0.1954(2) 0.56278(13)
O6 O 0.2393(3) 0.00738(18) 0.33866(8)
O7 O -0.1623(3) 0.01502(18) 0.36609(11)
C1 C 0.5482(4) -0.11109(17) 0.50583(11)
C2 C 0.3795(4) -0.00895(18) 0.47285(10)
H1 H 0.4737 0.0684 0.4587
C3 C 0.2776(4) -0.0747(2) 0.40252(10)
H2 H 0.1226 -0.1186 0.4155
C4 C 0.4723(4) -0.17373(19) 0.38319(10)
C5 C 0.2270(5) 0.1290(3) 0.56967(13)
C6 C 0.0202(5) 0.1457(3) 0.62428(14)
H3 H 0.0479 0.2217 0.6547
H4 H 0.0103 0.0713 0.6572
H5 H -0.1319 0.1548 0.5964
C7 C 0.0024(4) 0.0454(2) 0.32547(12)
C8 C -0.0104(7) 0.1298(3) 0.25641(15)
H6 H -0.1802 0.1424 0.2422
H7 H 0.0769 0.0895 0.2148
H8 H 0.0638 0.2120 0.2677
loop_
_geom_bond_atom_site_label_1
_geom_bond_atom_site_label_2
_geom_bond_site_symmetry_1
_geom_bond_site_symmetry_2
O1 C1 1_555 1_555
O2 C1 1_555 1_555
O3 C4 1_555 1_555
O4 C2 1_555 1_555
O5 C5 1_555 1_555
O6 C3 1_555 1_555
O7 C7 1_555 1_555
C1 C2 1_555 1_555
C2 H1 1_555 1_555
C3 C2 1_555 1_555
H2 C3 1_555 1_555
C4 O1 1_555 1_555
C5 O4 1_555 1_555
C6 C5 1_555 1_555
H3 C6 1_555 1_555
H4 C6 1_555 1_555
H5 C6 1_555 1_555
C7 O6 1_555 1_555
C8 C7 1_555 1_555
H6 C8 1_555 1_555
H7 C8 1_555 1_555
H8 C8 1_555 1_555
C3 C4 1_555 1_555

#END
