
#######################################################################
#
#                 Cambridge Crystallographic Data Centre
#                                CCDC 
#
#######################################################################
#
# If this CIF has been generated from an entry in the Cambridge 
# Structural Database, then it will include bibliographic, chemical, 
# crystal, experimental, refinement or atomic coordinate data resulting 
# from the CCDC's data processing and validation procedures.
#
#######################################################################

data_KAMREX
_chemical_formula_moiety         'C22 H41 N3 O6'
_chemical_name_systematic        
'Methyl N-(t-butoxycarbonyl)isoleucyl-2-methylalanylisoleucinate'
_symmetry_cell_setting           orthorhombic
_symmetry_space_group_name_H-M   'P 21 21 21'
_symmetry_Int_Tables_number      19
_space_group_name_Hall           'P 2ac 2ab'
loop_
_symmetry_equiv_pos_site_id
_symmetry_equiv_pos_as_xyz
1 x,y,z
2 1/2-x,-y,1/2+z
3 -x,1/2+y,1/2-z
4 1/2+x,1/2-y,-z
_cell_length_a                   9.2700(2)
_cell_length_b                   12.0462(3)
_cell_length_c                   23.2439(5)
_cell_angle_alpha                90
_cell_angle_beta                 90
_cell_angle_gamma                90
_cell_volume                     2595.61
_exptl_crystal_colour            colorless
_exptl_crystal_description       block
_cell_formula_units_Z            4
loop_
_atom_site_label
_atom_site_type_symbol
_atom_site_fract_x
_atom_site_fract_y
_atom_site_fract_z
C1 C 0.1217(4) 0.3870(6) 0.51521(16)
H1 H 0.2136 0.3610 0.4993
H2 H 0.1011 0.3470 0.5510
H3 H 0.1280 0.4667 0.5232
C2 C -0.0055(5) 0.2451(3) 0.4532(2)
H4 H -0.0796 0.2378 0.4234
H5 H -0.0304 0.1980 0.4861
H6 H 0.0881 0.2221 0.4376
C3 C -0.1426(4) 0.4048(4) 0.49696(16)
H7 H -0.1369 0.4837 0.5068
H8 H -0.1659 0.3617 0.5315
H9 H -0.2180 0.3935 0.4680
C4 C 0.0033(4) 0.3660(3) 0.47272(14)
C5 C 0.1317(3) 0.42502(18) 0.38620(10)
C6 C 0.2026(2) 0.48613(17) 0.29012(9)
H10 H 0.2831 0.4334 0.2987
C7 C 0.1208(2) 0.44150(17) 0.23673(10)
H11 H 0.1922 0.4346 0.2047
C8 C 0.0637(3) 0.3252(2) 0.24980(12)
H12 H -0.0022 0.3286 0.2827
H13 H 0.1446 0.2759 0.2589
H14 H 0.0119 0.2966 0.2162
C9 C 0.0020(3) 0.5211(2) 0.21659(10)
H15 H -0.0735 0.5253 0.2466
H16 H 0.0437 0.5962 0.2120
C10 C -0.0674(3) 0.4864(2) 0.16020(12)
H17 H 0.0077 0.4752 0.1311
H18 H -0.1337 0.5447 0.1473
H19 H -0.1209 0.4171 0.1658
C11 C 0.2696(2) 0.60009(18) 0.27769(9)
C12 C 0.4537(2) 0.69691(18) 0.21900(9)
C13 C 0.3526(3) 0.7701(2) 0.18363(11)
H20 H 0.3168 0.7281 0.1505
H21 H 0.4050 0.8357 0.1701
H22 H 0.2710 0.7934 0.2076
C14 C 0.5818(3) 0.6590(2) 0.18275(11)
H23 H 0.6442 0.6108 0.2059
H24 H 0.6367 0.7239 0.1699
H25 H 0.5468 0.6178 0.1492
C15 C 0.5134(2) 0.76407(17) 0.27057(9)
C16 C 0.6333(2) 0.74569(18) 0.36476(9)
H26 H 0.6401 0.8282 0.3608
C17 C 0.7848(2) 0.69925(18) 0.37098(9)
C18 C 1.0088(3) 0.7223(2) 0.41845(11)
H27 H 1.0075 0.6493 0.4370
H28 H 1.0583 0.7756 0.4434
H29 H 1.0598 0.7172 0.3816
C19 C 0.5432(3) 0.7189(3) 0.41890(11)
H30 H 0.6028 0.7387 0.4533
C20 C 0.4102(3) 0.7915(4) 0.41971(15)
H31 H 0.4391 0.8697 0.4186
H32 H 0.3552 0.7772 0.4549
H33 H 0.3502 0.7745 0.3861
C21 C 0.5098(5) 0.5900(4) 0.42212(16)
H34 H 0.4333 0.5732 0.3937
H35 H 0.5976 0.5496 0.4099
C22 C 0.4648(6) 0.5456(4) 0.4776(2)
H36 H 0.5455 0.5494 0.5047
H37 H 0.4347 0.4681 0.4729
H38 H 0.3838 0.5893 0.4924
N1 N 0.1115(2) 0.49159(15) 0.34038(8)
H39 H 0.0404 0.5400 0.3411
N2 N 0.3809(2) 0.59688(14) 0.23988(8)
H40 H 0.4107 0.5319 0.2274
N3 N 0.5680(2) 0.70165(15) 0.31325(8)
H41 H 0.5636 0.6290 0.3095
O1 O 0.01946(19) 0.43780(13) 0.42279(7)
O2 O 0.2340(2) 0.36351(15) 0.39322(8)
O3 O 0.22664(17) 0.68590(12) 0.29963(7)
O4 O 0.51677(18) 0.86594(12) 0.27062(7)
O5 O 0.82957(18) 0.61876(13) 0.34609(7)
O6 O 0.86129(18) 0.75936(13) 0.40848(7)
loop_
_geom_bond_atom_site_label_1
_geom_bond_atom_site_label_2
_geom_bond_site_symmetry_1
_geom_bond_site_symmetry_2
C1 H1 1_555 1_555
H2 C1 1_555 1_555
H3 C1 1_555 1_555
C2 H4 1_555 1_555
H5 C2 1_555 1_555
H6 C2 1_555 1_555
C3 H7 1_555 1_555
H8 C3 1_555 1_555
H9 C3 1_555 1_555
C4 C1 1_555 1_555
C5 N1 1_555 1_555
C6 H10 1_555 1_555
C7 C6 1_555 1_555
H11 C7 1_555 1_555
C8 C7 1_555 1_555
H12 C8 1_555 1_555
H13 C8 1_555 1_555
H14 C8 1_555 1_555
C9 C7 1_555 1_555
H15 C9 1_555 1_555
H16 C9 1_555 1_555
C10 C9 1_555 1_555
H17 C10 1_555 1_555
H18 C10 1_555 1_555
H19 C10 1_555 1_555
C11 C6 1_555 1_555
C12 C13 1_555 1_555
C13 H20 1_555 1_555
H21 C13 1_555 1_555
H22 C13 1_555 1_555
C14 C12 1_555 1_555
H23 C14 1_555 1_555
H24 C14 1_555 1_555
H25 C14 1_555 1_555
C15 C12 1_555 1_555
C16 H26 1_555 1_555
C17 C16 1_555 1_555
C18 H27 1_555 1_555
H28 C18 1_555 1_555
H29 C18 1_555 1_555
C19 C16 1_555 1_555
H30 C19 1_555 1_555
C20 C19 1_555 1_555
H31 C20 1_555 1_555
H32 C20 1_555 1_555
H33 C20 1_555 1_555
C21 C19 1_555 1_555
H34 C21 1_555 1_555
H35 C21 1_555 1_555
C22 C21 1_555 1_555
H36 C22 1_555 1_555
H37 C22 1_555 1_555
H38 C22 1_555 1_555
N1 C6 1_555 1_555
H39 N1 1_555 1_555
N2 C11 1_555 1_555
H40 N2 1_555 1_555
N3 C15 1_555 1_555
H41 N3 1_555 1_555
O1 C4 1_555 1_555
O2 C5 1_555 1_555
O3 C11 1_555 1_555
O4 C15 1_555 1_555
O5 C17 1_555 1_555
O6 C17 1_555 1_555
C2 C4 1_555 1_555
C3 C4 1_555 1_555
C5 O1 1_555 1_555
C12 N2 1_555 1_555
C16 N3 1_555 1_555
C18 O6 1_555 1_555

#END
