
#######################################################################
#
#                 Cambridge Crystallographic Data Centre
#                                CCDC 
#
#######################################################################
#
# If this CIF has been generated from an entry in the Cambridge 
# Structural Database, then it will include bibliographic, chemical, 
# crystal, experimental, refinement or atomic coordinate data resulting 
# from the CCDC's data processing and validation procedures.
#
#######################################################################

data_KAMVEB
_chemical_formula_moiety         'C14 H13 Br1 O2 S2'
_chemical_name_systematic        
(3-Bromo-2-(2-thienyl)tetrahydro-2H-pyran-2-yl)(2-thienyl)methanone
_symmetry_cell_setting           monoclinic
_symmetry_space_group_name_H-M   'P 21'
_symmetry_Int_Tables_number      4
_space_group_name_Hall           'P 2yb'
loop_
_symmetry_equiv_pos_site_id
_symmetry_equiv_pos_as_xyz
1 x,y,z
2 -x,1/2+y,-z
_cell_length_a                   6.660(2)
_cell_length_b                   13.081(5)
_cell_length_c                   8.454(3)
_cell_angle_alpha                90
_cell_angle_beta                 96.275(4)
_cell_angle_gamma                90
_cell_volume                     732.095
_exptl_crystal_colour            colorless
_exptl_crystal_description       block
_cell_formula_units_Z            2
loop_
_atom_site_label
_atom_site_type_symbol
_atom_site_fract_x
_atom_site_fract_y
_atom_site_fract_z
Br1 Br 1.02403(15) 0.66021(9) 0.65026(11)
C1 C 0.9804(13) 0.6416(6) 0.8766(10)
H1 H 1.1027 0.6117 0.9332
C2 C 0.9484(15) 0.7473(7) 0.9458(13)
H2 H 1.0546 0.7929 0.9193
H3 H 0.9562 0.7427 1.0608
C3 C 0.7426(16) 0.7910(8) 0.8802(15)
H4 H 0.7144 0.8516 0.9401
H5 H 0.7461 0.8108 0.7700
C4 C 0.5766(18) 0.7136(7) 0.8910(15)
H6 H 0.5557 0.7043 1.0019
H7 H 0.4521 0.7399 0.8356
C5 C 0.8043(15) 0.5685(7) 0.8899(11)
C6 C 0.8317(13) 0.4691(6) 0.8058(10)
C7 C 0.6647(13) 0.4081(6) 0.7309(9)
C8 C 0.4404(10) 0.4332(6) 0.7071(9)
H8 H 0.3739 0.4921 0.7343
C9 C 0.3528(17) 0.3353(8) 0.6260(14)
H9 H 0.2148 0.3271 0.5981
C10 C 0.4828(17) 0.2639(8) 0.5982(13)
H10 H 0.4431 0.2032 0.5466
C11 C 0.7920(16) 0.5381(6) 1.0641(11)
C12 C 0.5921(12) 0.5065(6) 1.1249(7)
H11 H 0.4615 0.5082 1.0732
C13 C 0.666(3) 0.4719(12) 1.2913(15)
H12 H 0.5780 0.4471 1.3608
C14 C 0.862(3) 0.4790(9) 1.3319(14)
H13 H 0.9219 0.4591 1.4316
O1 O 0.6202(9) 0.6163(4) 0.8245(7)
O2 O 1.0042(9) 0.4350(5) 0.8080(9)
S1 S 0.7218(5) 0.2888(2) 0.6609(4)
S2 S 0.9903(7) 0.5244(3) 1.1986(5)
loop_
_geom_bond_atom_site_label_1
_geom_bond_atom_site_label_2
_geom_bond_site_symmetry_1
_geom_bond_site_symmetry_2
Br1 C1 1_555 1_555
C1 H1 1_555 1_555
C2 C1 1_555 1_555
H2 C2 1_555 1_555
H3 C2 1_555 1_555
C3 C2 1_555 1_555
H4 C3 1_555 1_555
H5 C3 1_555 1_555
C4 C3 1_555 1_555
H6 C4 1_555 1_555
H7 C4 1_555 1_555
C5 C1 1_555 1_555
C6 C5 1_555 1_555
C7 C6 1_555 1_555
C8 C7 1_555 1_555
H8 C8 1_555 1_555
C9 C8 1_555 1_555
H9 C9 1_555 1_555
C10 C9 1_555 1_555
H10 C10 1_555 1_555
C11 C5 1_555 1_555
C12 C11 1_555 1_555
H11 C12 1_555 1_555
C13 C12 1_555 1_555
H12 C13 1_555 1_555
C14 C13 1_555 1_555
H13 C14 1_555 1_555
O1 C4 1_555 1_555
O2 C6 1_555 1_555
S1 C7 1_555 1_555
S2 C11 1_555 1_555
C5 O1 1_555 1_555
C10 S1 1_555 1_555
C14 S2 1_555 1_555

#END
