
#######################################################################
#
#                 Cambridge Crystallographic Data Centre
#                                CCDC 
#
#######################################################################
#
# If this CIF has been generated from an entry in the Cambridge 
# Structural Database, then it will include bibliographic, chemical, 
# crystal, experimental, refinement or atomic coordinate data resulting 
# from the CCDC's data processing and validation procedures.
#
#######################################################################

data_KAMVIF
_chemical_formula_moiety         'C18 H17 Cl1 O2'
_chemical_name_systematic        
(3-Chloro-2-phenyltetrahydro-2H-pyran-2-yl)(phenyl)methanone
_symmetry_cell_setting           orthorhombic
_symmetry_space_group_name_H-M   'P 21 21 21'
_symmetry_Int_Tables_number      19
_space_group_name_Hall           'P 2ac 2ab'
loop_
_symmetry_equiv_pos_site_id
_symmetry_equiv_pos_as_xyz
1 x,y,z
2 1/2-x,-y,1/2+z
3 -x,1/2+y,1/2-z
4 1/2+x,1/2-y,-z
_cell_length_a                   8.420(6)
_cell_length_b                   12.337(8)
_cell_length_c                   14.455(9)
_cell_angle_alpha                90
_cell_angle_beta                 90
_cell_angle_gamma                90
_cell_volume                     1501.55
_exptl_crystal_colour            colorless
_exptl_crystal_description       block
_cell_formula_units_Z            4
loop_
_atom_site_label
_atom_site_type_symbol
_atom_site_fract_x
_atom_site_fract_y
_atom_site_fract_z
C1 C 0.2500(4) 0.8891(3) 0.77998(18)
H1 H 0.3448 0.9333 0.7740
H2 H 0.2831 0.8156 0.7939
C2 C 0.1516(5) 0.9313(3) 0.8585(2)
H3 H 0.2160 0.9361 0.9140
H4 H 0.0642 0.8821 0.8706
C3 C 0.0881(4) 1.0413(3) 0.8339(2)
H5 H 0.1751 1.0929 0.8322
H6 H 0.0141 1.0647 0.8813
C4 C 0.0046(3) 1.0409(2) 0.7409(2)
H7 H -0.0247 1.1152 0.7240
C5 C 0.1110(4) 0.9927(2) 0.66537(18)
C6 C 0.0152(3) 0.9835(2) 0.5745(2)
C7 C 0.0397(3) 0.8975(2) 0.50268(18)
C8 C -0.0375(4) 0.9128(3) 0.4194(2)
H8 H -0.1016 0.9735 0.4118
C9 C -0.0224(4) 0.8412(3) 0.3480(2)
H9 H -0.0745 0.8537 0.2923
C10 C 0.0701(4) 0.7508(3) 0.3589(2)
H10 H 0.0809 0.7015 0.3106
C11 C 0.1461(4) 0.7332(3) 0.4405(2)
H11 H 0.2087 0.6717 0.4477
C12 C 0.1316(4) 0.8060(3) 0.5132(2)
H12 H 0.1837 0.7930 0.5689
C13 C 0.2483(4) 1.0679(2) 0.63845(18)
C14 C 0.3925(4) 1.0249(3) 0.61184(19)
H13 H 0.4076 0.9503 0.6144
C15 C 0.5145(4) 1.0900(4) 0.5816(2)
H14 H 0.6110 1.0594 0.5644
C16 C 0.4939(6) 1.2001(4) 0.5768(2)
H15 H 0.5765 1.2446 0.5572
C17 C 0.3522(6) 1.2433(3) 0.6011(2)
H16 H 0.3374 1.3178 0.5966
C18 C 0.2296(4) 1.1792(3) 0.6322(2)
H17 H 0.1336 1.2108 0.6491
Cl1 Cl -0.17292(10) 0.95896(8) 0.75057(7)
O1 O -0.0779(3) 1.05641(18) 0.55874(14)
O2 O 0.1654(3) 0.88977(15) 0.69342(12)
loop_
_geom_bond_atom_site_label_1
_geom_bond_atom_site_label_2
_geom_bond_site_symmetry_1
_geom_bond_site_symmetry_2
C1 H1 1_555 1_555
H2 C1 1_555 1_555
C2 C1 1_555 1_555
H3 C2 1_555 1_555
H4 C2 1_555 1_555
C3 C2 1_555 1_555
H5 C3 1_555 1_555
H6 C3 1_555 1_555
C4 C3 1_555 1_555
H7 C4 1_555 1_555
C5 C4 1_555 1_555
C6 C5 1_555 1_555
C7 C6 1_555 1_555
C8 C7 1_555 1_555
H8 C8 1_555 1_555
C9 C8 1_555 1_555
H9 C9 1_555 1_555
C10 C9 1_555 1_555
H10 C10 1_555 1_555
C11 C10 1_555 1_555
H11 C11 1_555 1_555
C12 C7 1_555 1_555
H12 C12 1_555 1_555
C13 C5 1_555 1_555
C14 C13 1_555 1_555
H13 C14 1_555 1_555
C15 C14 1_555 1_555
H14 C15 1_555 1_555
C16 C15 1_555 1_555
H15 C16 1_555 1_555
C17 C16 1_555 1_555
H16 C17 1_555 1_555
C18 C13 1_555 1_555
H17 C18 1_555 1_555
Cl1 C4 1_555 1_555
O1 C6 1_555 1_555
O2 C1 1_555 1_555
C5 O2 1_555 1_555
C11 C12 1_555 1_555
C17 C18 1_555 1_555

#END
