
#######################################################################
#
#                 Cambridge Crystallographic Data Centre
#                                CCDC 
#
#######################################################################
#
# If this CIF has been generated from an entry in the Cambridge 
# Structural Database, then it will include bibliographic, chemical, 
# crystal, experimental, refinement or atomic coordinate data resulting 
# from the CCDC's data processing and validation procedures.
#
#######################################################################

data_KANDOS
_chemical_formula_moiety         'C21 H22 N4 O6'
_chemical_name_systematic        
'cis-4-(Benzoyloxy)-3-methylcycloheptanone (2,4-dinitrophenyl)hydrazone'
_symmetry_cell_setting           triclinic
_symmetry_space_group_name_H-M   'P -1'
_symmetry_Int_Tables_number      2
_space_group_name_Hall           '-P 1'
loop_
_symmetry_equiv_pos_site_id
_symmetry_equiv_pos_as_xyz
1 x,y,z
2 -x,-y,-z
_cell_length_a                   10.096(2)
_cell_length_b                   18.566(4)
_cell_length_c                   5.754(1)
_cell_angle_alpha                96.83(2)
_cell_angle_beta                 103.46(1)
_cell_angle_gamma                78.35(2)
_cell_volume                     1024.38
_exptl_crystal_colour            orange-yellow
_chemical_melting_point          274-275deg.C
_cell_formula_units_Z            2
loop_
_atom_site_label
_atom_site_type_symbol
_atom_site_fract_x
_atom_site_fract_y
_atom_site_fract_z
O1 O -0.2598(2) 0.4986(1) 1.2941(4)
O2 O -0.3290(3) 0.5169(1) 1.6333(4)
O3 O -0.0807(2) 0.0683(1) 0.1168(4)
O4 O -0.1714(2) 0.1445(1) 0.3730(4)
O5 O 0.4912(2) -0.0656(1) 0.6634(4)
O6 O 0.3596(2) -0.0802(1) 0.3162(4)
N1 N 0.0082(2) 0.2157(1) 1.0110(4)
N2 N -0.0213(2) 0.1761(1) 0.7914(4)
N3 N -0.0732(2) 0.1000(1) 0.3160(4)
N4 N 0.3825(2) -0.0490(1) 0.5161(4)
C1 C -0.0957(3) 0.2587(1) 1.0755(5)
C2 C -0.0617(3) 0.3032(2) 1.3105(5)
C3 C -0.0927(3) 0.3870(2) 1.2945(5)
C4 C -0.2448(3) 0.4187(2) 1.2880(5)
C5 C -0.3496(3) 0.3955(2) 1.0745(6)
C6 C -0.3532(3) 0.3131(2) 1.0472(6)
C7 C -0.2419(3) 0.2649(2) 0.9321(5)
C8 C -0.0402(3) 0.4095(2) 1.0927(6)
C9 C -0.3040(3) 0.5406(2) 1.4683(5)
C10 C -0.3170(3) 0.6200(2) 1.4404(5)
C11 C -0.3806(3) 0.6711(2) 1.5936(6)
C12 C -0.3960(3) 0.7453(2) 1.5742(6)
C13 C -0.3451(3) 0.7695(2) 1.4010(6)
C14 C -0.2798(3) 0.7200(2) 1.2498(5)
C15 C -0.2670(3) 0.6451(2) 1.2652(5)
C16 C 0.0755(3) 0.1227(1) 0.7218(5)
C17 C 0.0560(2) 0.0844(1) 0.4921(4)
C18 C 0.1565(3) 0.0290(1) 0.4230(5)
C19 C 0.2785(3) 0.0106(1) 0.5851(5)
C20 C 0.3030(3) 0.0472(2) 0.8126(5)
C21 C 0.2047(3) 0.1018(1) 0.8776(5)
H1 H 0.035(3) 0.287(2) 1.379(5)
H2 H -0.116(3) 0.291(2) 1.428(5)
H3 H -0.044(3) 0.411(1) 1.457(5)
H4 H -0.266(3) 0.409(1) 1.445(5)
H5 H -0.439(2) 0.425(1) 1.099(5)
H6 H -0.335(3) 0.408(1) 0.923(5)
H7 H -0.343(3) 0.298(2) 1.221(5)
H8 H -0.443(3) 0.308(2) 0.939(5)
H9 H -0.249(2) 0.285(1) 0.774(5)
H10 H -0.261(2) 0.213(1) 0.900(4)
H11 H 0.057(3) 0.390(2) 1.118(7)
H12 H -0.083(3) 0.389(2) 0.914(6)
H13 H -0.050(3) 0.466(2) 1.105(6)
H14 H -0.419(3) 0.654(2) 1.712(5)
H15 H -0.442(3) 0.780(2) 1.670(5)
H16 H -0.352(2) 0.820(1) 1.397(5)
H17 H -0.249(3) 0.735(2) 1.121(5)
H18 H -0.223(3) 0.607(1) 1.155(5)
H19 H 0.145(3) 0.003(1) 0.264(5)
H20 H 0.389(2) 0.033(1) 0.922(4)
H21 H 0.223(2) 0.126(1) 1.024(4)
H22 H -0.100(2) 0.186(1) 0.698(4)
loop_
_geom_bond_atom_site_label_1
_geom_bond_atom_site_label_2
_geom_bond_site_symmetry_1
_geom_bond_site_symmetry_2
O1 C4 1_555 1_555
O2 C9 1_555 1_555
O3 N3 1_555 1_555
O4 N3 1_555 1_555
O5 N4 1_555 1_555
O6 N4 1_555 1_555
N1 N2 1_555 1_555
N2 C16 1_555 1_555
N3 C17 1_555 1_555
N4 C19 1_555 1_555
C1 N1 1_555 1_555
C2 C1 1_555 1_555
C3 C2 1_555 1_555
C4 C3 1_555 1_555
C5 C4 1_555 1_555
C6 C5 1_555 1_555
C7 C1 1_555 1_555
C8 C3 1_555 1_555
C9 O1 1_555 1_555
C10 C9 1_555 1_555
C11 C10 1_555 1_555
C12 C11 1_555 1_555
C13 C12 1_555 1_555
C14 C13 1_555 1_555
C15 C10 1_555 1_555
C16 C17 1_555 1_555
C17 C18 1_555 1_555
C18 C19 1_555 1_555
C19 C20 1_555 1_555
C20 C21 1_555 1_555
C21 C16 1_555 1_555
H1 C2 1_555 1_555
H2 C2 1_555 1_555
H3 C3 1_555 1_555
H4 C4 1_555 1_555
H5 C5 1_555 1_555
H6 C5 1_555 1_555
H7 C6 1_555 1_555
H8 C6 1_555 1_555
H9 C7 1_555 1_555
H10 C7 1_555 1_555
H11 C8 1_555 1_555
H12 C8 1_555 1_555
H13 C8 1_555 1_555
H14 C11 1_555 1_555
H15 C12 1_555 1_555
H16 C13 1_555 1_555
H17 C14 1_555 1_555
H18 C15 1_555 1_555
H19 C18 1_555 1_555
H20 C20 1_555 1_555
H21 C21 1_555 1_555
H22 N2 1_555 1_555
C6 C7 1_555 1_555
C14 C15 1_555 1_555

#END
