
#######################################################################
#
#                 Cambridge Crystallographic Data Centre
#                                CCDC 
#
#######################################################################
#
# If this CIF has been generated from an entry in the Cambridge 
# Structural Database, then it will include bibliographic, chemical, 
# crystal, experimental, refinement or atomic coordinate data resulting 
# from the CCDC's data processing and validation procedures.
#
#######################################################################

data_KANGUE
_chemical_formula_moiety         'C14 H15 N1 O4'
_chemical_name_systematic        
'ethyl 5-(4-ethoxyphenyl)-1,3-oxazole-2-carboxylate'
_symmetry_cell_setting           orthorhombic
_symmetry_space_group_name_H-M   'P n m a'
_symmetry_Int_Tables_number      62
_space_group_name_Hall           '-P 2ac 2n'
loop_
_symmetry_equiv_pos_site_id
_symmetry_equiv_pos_as_xyz
1 x,y,z
2 1/2-x,-y,1/2+z
3 1/2+x,1/2-y,1/2-z
4 -x,1/2+y,-z
5 -x,-y,-z
6 1/2+x,y,1/2-z
7 1/2-x,1/2+y,1/2+z
8 x,1/2-y,z
_cell_length_a                   14.388(3)
_cell_length_b                   6.6658(13)
_cell_length_c                   14.112(3)
_cell_angle_alpha                90
_cell_angle_beta                 90
_cell_angle_gamma                90
_cell_volume                     1353.45
_exptl_crystal_colour            colorless
_exptl_crystal_description       block
_cell_formula_units_Z            4
loop_
_atom_site_label
_atom_site_type_symbol
_atom_site_fract_x
_atom_site_fract_y
_atom_site_fract_z
O1 O 0.79144(14) 0.7500 0.38498(15)
O2 O 0.38732(11) 0.7500 0.56548(11)
O3 O 0.21090(14) 0.7500 0.52067(15)
O4 O 0.16479(15) 0.7500 0.67208(17)
N1 N 0.35957(16) 0.7500 0.72020(15)
C1 C 0.8785(3) 0.7500 0.2417(4)
C2 C 0.7833(3) 0.7500 0.2833(2)
H1 H 0.7495 0.8680 0.2625
C3 C 0.71048(18) 0.7500 0.43543(18)
C4 C 0.62331(18) 0.7500 0.39504(17)
H2 H 0.6165 0.7500 0.3295
C5 C 0.54575(17) 0.7500 0.45360(16)
H3 H 0.4869 0.7500 0.4264
C6 C 0.55373(15) 0.7500 0.55086(15)
C7 C 0.64251(16) 0.7500 0.59036(17)
H4 H 0.6495 0.7500 0.6559
C8 C 0.71946(18) 0.7500 0.5333(2)
H5 H 0.7784 0.7500 0.5605
C9 C 0.47173(14) 0.7500 0.60963(15)
C10 C 0.45398(18) 0.7500 0.70503(17)
H6 H 0.4990 0.7500 0.7524
C11 C 0.32406(16) 0.7500 0.63625(17)
C12 C 0.22490(17) 0.7500 0.6128(2)
C13 C 0.1135(3) 0.8038(11) 0.4929(4)
C14 C 0.0973(5) 0.6731(16) 0.4137(6)
H1G H 0.7495 0.6320 0.2625
C13G C 0.1135(3) 0.6962(11) 0.4929(4)
C14G C 0.0973(5) 0.8269(16) 0.4137(6)
H7? H 0.7495 0.8680 0.2625
H8? H 0.9142 0.8571 0.2690
H9? H 0.9083 0.6242 0.2549
H10? H 0.8744 0.7687 0.1744
H11? H 0.0701 0.7774 0.5440
H12? H 0.1089 0.9437 0.4745
H13? H 0.0346 0.6898 0.3917
H14? H 0.1067 0.5364 0.4329
H15? H 0.1398 0.7056 0.3635
loop_
_geom_bond_atom_site_label_1
_geom_bond_atom_site_label_2
_geom_bond_site_symmetry_1
_geom_bond_site_symmetry_2
O1 C2 1_555 1_555
O2 C9 1_555 1_555
O3 C12 1_555 1_555
O4 C12 1_555 1_555
N1 C10 1_555 1_555
C1 C2 1_555 1_555
C2 H1 1_555 1_555
C3 O1 1_555 1_555
C4 C3 1_555 1_555
H2 C4 1_555 1_555
C5 C4 1_555 1_555
H3 C5 1_555 1_555
C6 C5 1_555 1_555
C7 C6 1_555 1_555
H4 C7 1_555 1_555
C8 C3 1_555 1_555
H5 C8 1_555 1_555
C9 C6 1_555 1_555
C10 C9 1_555 1_555
H6 C10 1_555 1_555
C11 O2 1_555 1_555
C12 C11 1_555 1_555
C13 O3 1_555 1_555
C14 C13 1_555 1_555
H1G C2 1_555 1_555
C13G O3 1_555 1_555
C14G C13 1_555 1_555
N1 C11 1_555 1_555
C7 C8 1_555 1_555
C13 C13G 1_555 1_555
C14 C13G 1_555 1_555
C14 C14G 1_555 1_555
C13G C14G 1_555 1_555

#END
