
#######################################################################
#
#                 Cambridge Crystallographic Data Centre
#                                CCDC 
#
#######################################################################
#
# If this CIF has been generated from an entry in the Cambridge 
# Structural Database, then it will include bibliographic, chemical, 
# crystal, experimental, refinement or atomic coordinate data resulting 
# from the CCDC's data processing and validation procedures.
#
#######################################################################

data_KANGAK
_chemical_formula_moiety         'C15 H21 N2 O2 1+,Cl1 1-'
_chemical_name_systematic        
'(3aS,7aS)-benzyl hexahydro-1H-pyrrolo[2,3-c]pyridin-1-ium-6(2H)-carboxylate chloride'
_symmetry_cell_setting           monoclinic
_symmetry_space_group_name_H-M   'P 21'
_symmetry_Int_Tables_number      4
_space_group_name_Hall           'P 2yb'
loop_
_symmetry_equiv_pos_site_id
_symmetry_equiv_pos_as_xyz
1 x,y,z
2 -x,1/2+y,-z
_cell_length_a                   10.7699(4)
_cell_length_b                   6.9541(2)
_cell_length_c                   11.6126(4)
_cell_angle_alpha                90
_cell_angle_beta                 116.662(2)
_cell_angle_gamma                90
_cell_volume                     777.247
_exptl_crystal_colour            colorless
_exptl_crystal_description       rod
_cell_formula_units_Z            2
loop_
_atom_site_label
_atom_site_type_symbol
_atom_site_fract_x
_atom_site_fract_y
_atom_site_fract_z
Cl1 Cl 0.09900(9) 0.74900(10) 0.64911(5)
N1 N -0.0085(2) -0.1701(3) 0.35933(18)
H1 H -0.011(3) -0.030(3) 0.355(3)
H2 H 0.008(3) -0.206(5) 0.441(2)
N2 N 0.22384(19) 0.0623(3) 0.33349(18)
O1 O 0.2751(2) 0.3799(3) 0.3414(2)
O2 O 0.32348(19) 0.2126(3) 0.52280(18)
C1 C -0.1396(2) -0.2514(5) 0.2547(3)
H3 H -0.2090 -0.1514 0.2168
H4 H -0.1770 -0.3510 0.2887
C2 C -0.0994(3) -0.3349(5) 0.1543(3)
H5 H -0.0948 -0.4741 0.1596
H6 H -0.1662 -0.2979 0.0680
C3 C 0.0427(2) -0.2498(4) 0.1877(2)
H7 H 0.0956 -0.3367 0.1598
C4 C 0.1086(2) -0.2422(4) 0.33448(19)
H8 H 0.1309 -0.3738 0.3676
C5 C 0.2382(2) -0.1212(4) 0.3992(2)
H9 H 0.2572 -0.0978 0.4879
H10 H 0.3164 -0.1912 0.3997
C6 C 0.1750(2) 0.0514(4) 0.1937(2)
H11 H 0.2419 -0.0185 0.1753
H12 H 0.1661 0.1800 0.1585
C7 C 0.0363(2) -0.0492(4) 0.1315(2)
H13 H 0.0065 -0.0599 0.0396
H14 H -0.0321 0.0273 0.1439
C8 C 0.2741(2) 0.2297(4) 0.3940(2)
C9 C 0.3775(3) 0.3857(4) 0.5957(3)
H15 H 0.3017 0.4655 0.5917
H16 H 0.4293 0.4580 0.5602
C10 C 0.4710(2) 0.3320(4) 0.7332(2)
C11 C 0.4873(3) 0.4604(5) 0.8301(3)
H17 H 0.4366 0.5742 0.8099
C12 C 0.5789(3) 0.4197(7) 0.9569(3)
H18 H 0.5890 0.5065 1.0215
C13 C 0.6539(3) 0.2545(7) 0.9880(3)
H19 H 0.7161 0.2292 1.0732
C14 C 0.6375(3) 0.1234(6) 0.8921(3)
H20 H 0.6881 0.0095 0.9131
C15 C 0.5457(3) 0.1625(5) 0.7649(3)
H21 H 0.5343 0.0743 0.7007
loop_
_geom_bond_atom_site_label_1
_geom_bond_atom_site_label_2
_geom_bond_site_symmetry_1
_geom_bond_site_symmetry_2
N1 H1 1_555 1_555
H2 N1 1_555 1_555
N2 C5 1_555 1_555
O1 C8 1_555 1_555
O2 C8 1_555 1_555
C1 N1 1_555 1_555
H3 C1 1_555 1_555
H4 C1 1_555 1_555
C2 C1 1_555 1_555
H5 C2 1_555 1_555
H6 C2 1_555 1_555
C3 C2 1_555 1_555
H7 C3 1_555 1_555
C4 N1 1_555 1_555
H8 C4 1_555 1_555
C5 C4 1_555 1_555
H9 C5 1_555 1_555
H10 C5 1_555 1_555
C6 N2 1_555 1_555
H11 C6 1_555 1_555
H12 C6 1_555 1_555
C7 C3 1_555 1_555
H13 C7 1_555 1_555
H14 C7 1_555 1_555
C8 N2 1_555 1_555
C9 O2 1_555 1_555
H15 C9 1_555 1_555
H16 C9 1_555 1_555
C10 C9 1_555 1_555
C11 C10 1_555 1_555
H17 C11 1_555 1_555
C12 C11 1_555 1_555
H18 C12 1_555 1_555
C13 C12 1_555 1_555
H19 C13 1_555 1_555
C14 C13 1_555 1_555
H20 C14 1_555 1_555
C15 C10 1_555 1_555
H21 C15 1_555 1_555
C3 C4 1_555 1_555
C6 C7 1_555 1_555
C14 C15 1_555 1_555

#END
