
#######################################################################
#
#                 Cambridge Crystallographic Data Centre
#                                CCDC 
#
#######################################################################
#
# If this CIF has been generated from an entry in the Cambridge 
# Structural Database, then it will include bibliographic, chemical, 
# crystal, experimental, refinement or atomic coordinate data resulting 
# from the CCDC's data processing and validation procedures.
#
#######################################################################

data_KANKOZ
_chemical_formula_moiety         'C27 H28 O5 S4'
_chemical_name_systematic        
2-(9-Oxo-9,10-dihydroanthracen-10-ylidene)-4,5-(3,6,9,12-tetraoxatetradecane-1,14-disulfanyl)-1,3-dithiole
_symmetry_cell_setting           orthorhombic
_symmetry_space_group_name_H-M   'P 21 21 21'
_symmetry_Int_Tables_number      19
_space_group_name_Hall           'P 2ac 2ab'
loop_
_symmetry_equiv_pos_site_id
_symmetry_equiv_pos_as_xyz
1 x,y,z
2 1/2-x,-y,1/2+z
3 -x,1/2+y,1/2-z
4 1/2+x,1/2-y,-z
_cell_length_a                   7.600(1)
_cell_length_b                   18.395(1)
_cell_length_c                   18.566(4)
_cell_angle_alpha                90
_cell_angle_beta                 90
_cell_angle_gamma                90
_cell_volume                     2595.56
_exptl_crystal_colour            orange
_exptl_crystal_description       prism
_cell_formula_units_Z            4
loop_
_atom_site_label
_atom_site_type_symbol
_atom_site_fract_x
_atom_site_fract_y
_atom_site_fract_z
S1 S 0.52878(12) 0.63646(4) 0.39408(5)
S2 S 0.53024(12) 0.59961(4) 0.54704(5)
S3 S 0.35885(12) 0.49800(4) 0.34688(5)
S4 S 0.33913(12) 0.45630(4) 0.52408(5)
O1 O 0.4199(3) 0.94303(12) 0.5497(2)
O2 O 0.7865(3) 0.37052(13) 0.3581(2)
O3 O 1.0032(3) 0.32211(13) 0.4773(2)
O4 O 0.9010(4) 0.28806(15) 0.6230(2)
O5 O 0.6896(5) 0.4254(2) 0.6818(2)
C1 C 0.6772(5) 0.7853(2) 0.3746(2)
H1 H 0.7277(49) 0.7398(20) 0.3584(23)
C2 C 0.6721(5) 0.8401(2) 0.3235(2)
H2 H 0.7129(46) 0.8316(17) 0.2800(22)
C3 C 0.5994(5) 0.9076(2) 0.3394(2)
H3 H 0.5893(54) 0.9453(21) 0.3045(23)
C4 C 0.5392(5) 0.9204(2) 0.4081(2)
H4 H 0.4976(52) 0.9656(20) 0.4208(21)
C5 C 0.5377(5) 0.8555(2) 0.6649(2)
H5 H 0.4942(47) 0.9005(18) 0.6731(19)
C6 C 0.5931(5) 0.8101(2) 0.7200(2)
H6 H 0.5838(49) 0.8251(18) 0.7691(21)
C7 C 0.6675(5) 0.7430(2) 0.7026(2)
H7 H 0.7031(45) 0.7124(17) 0.7388(19)
C8 C 0.6776(5) 0.7202(2) 0.6317(2)
H8 H 0.7397(45) 0.6767(18) 0.6218(19)
C9 C 0.6075(4) 0.7390(2) 0.4995(2)
C10 C 0.4959(4) 0.8855(2) 0.5355(2)
C11 C 0.6135(4) 0.7965(2) 0.4445(2)
C12 C 0.5481(4) 0.8666(2) 0.4614(2)
C13 C 0.5487(4) 0.8338(2) 0.5932(2)
C14 C 0.6133(4) 0.7635(2) 0.5753(2)
C15 C 0.5672(4) 0.6682(2) 0.4818(2)
C16 C 0.4373(4) 0.5520(2) 0.4185(2)
C17 C 0.4377(4) 0.53533(15) 0.4884(2)
C18 C 0.5025(5) 0.4188(2) 0.3542(2)
H9 H 0.4891(47) 0.3994(17) 0.4021(20)
H10 H 0.4512(42) 0.3823(15) 0.3168(17)
C19 C 0.6929(5) 0.4356(2) 0.3399(3)
H11 H 0.7130(56) 0.4526(22) 0.2866(26)
H12 H 0.7310(44) 0.4762(17) 0.3723(20)
C20 C 0.9727(5) 0.3819(2) 0.3646(3)
H13 H 0.9934(46) 0.4254(18) 0.3907(19)
H14 H 1.0232(56) 0.3880(19) 0.3143(24)
C21 C 1.0515(6) 0.3183(2) 0.4036(3)
H15 H 1.0135(49) 0.2713(18) 0.3830(20)
H16 H 1.1810(64) 0.3213(22) 0.4021(26)
C22 C 1.0821(6) 0.2667(2) 0.5201(3)
H17 H 1.2051(68) 0.2607(24) 0.5078(28)
H18 H 1.0100(63) 0.2155(23) 0.5055(23)
C23 C 1.0735(5) 0.2870(2) 0.5966(3)
H19 H 1.1441(5) 0.2521(2) 0.6251(3)
H20 H 1.1263(5) 0.3358(2) 0.6028(3)
C24 C 0.8884(7) 0.3198(2) 0.6930(3)
H21 H 0.9975(7) 0.3082(2) 0.7198(3)
H22 H 0.7891(7) 0.2968(2) 0.7190(3)
C26 C 0.8635(6) 0.4013(2) 0.6936(3)
H23 H 0.9030(6) 0.4202(2) 0.7408(3)
H24 H 0.9407(6) 0.4227(2) 0.6563(3)
C27 C 0.6311(6) 0.4236(2) 0.6095(2)
H25 H 0.6394(6) 0.3737(2) 0.5899(2)
H26 H 0.7032(6) 0.4563(2) 0.5792(2)
C28 C 0.4430(6) 0.4490(2) 0.6112(2)
H27 H 0.4350(42) 0.4970(17) 0.6374(18)
H28 H 0.3667(53) 0.4133(21) 0.6383(23)
O6? O 1.0818(31) 0.3486(10) 0.6310(13)
O7? O 0.7101(44) 0.3809(21) 0.6615(22)
C25? C 1.0176(45) 0.3534(20) 0.7019(18)
loop_
_geom_bond_atom_site_label_1
_geom_bond_atom_site_label_2
_geom_bond_site_symmetry_1
_geom_bond_site_symmetry_2
S1 C15 1_555 1_555
S2 C15 1_555 1_555
S3 C16 1_555 1_555
S4 C17 1_555 1_555
O1 C10 1_555 1_555
O2 C19 1_555 1_555
O3 C21 1_555 1_555
O4 C23 1_555 1_555
O5 C26 1_555 1_555
C1 H1 1_555 1_555
C2 C1 1_555 1_555
H2 C2 1_555 1_555
C3 C2 1_555 1_555
H3 C3 1_555 1_555
C4 C3 1_555 1_555
H4 C4 1_555 1_555
C5 H5 1_555 1_555
C6 C5 1_555 1_555
H6 C6 1_555 1_555
C7 C6 1_555 1_555
H7 C7 1_555 1_555
C8 C7 1_555 1_555
H8 C8 1_555 1_555
C9 C11 1_555 1_555
C10 C12 1_555 1_555
C11 C1 1_555 1_555
C12 C4 1_555 1_555
C13 C5 1_555 1_555
C14 C8 1_555 1_555
C15 C9 1_555 1_555
C16 S1 1_555 1_555
C17 S2 1_555 1_555
C18 S3 1_555 1_555
H9 C18 1_555 1_555
H10 C18 1_555 1_555
C19 C18 1_555 1_555
H11 C19 1_555 1_555
H12 C19 1_555 1_555
C20 O2 1_555 1_555
H13 C20 1_555 1_555
H14 C20 1_555 1_555
C21 C20 1_555 1_555
H15 C21 1_555 1_555
H16 C21 1_555 1_555
C22 O3 1_555 1_555
H17 C22 1_555 1_555
H18 C22 1_555 1_555
C23 C22 1_555 1_555
H19 C23 1_555 1_555
H20 C23 1_555 1_555
C24 O4 1_555 1_555
H21 C24 1_555 1_555
H22 C24 1_555 1_555
C26 C24 1_555 1_555
H23 C26 1_555 1_555
H24 C26 1_555 1_555
C27 O5 1_555 1_555
H25 C27 1_555 1_555
H26 C27 1_555 1_555
C28 S4 1_555 1_555
H27 C28 1_555 1_555
H28 C28 1_555 1_555
C9 C14 1_555 1_555
C10 C13 1_555 1_555
C11 C12 1_555 1_555
C13 C14 1_555 1_555
C16 C17 1_555 1_555
C27 C28 1_555 1_555

#END
