
#######################################################################
#
#                 Cambridge Crystallographic Data Centre
#                                CCDC 
#
#######################################################################
#
# If this CIF has been generated from an entry in the Cambridge 
# Structural Database, then it will include bibliographic, chemical, 
# crystal, experimental, refinement or atomic coordinate data resulting 
# from the CCDC's data processing and validation procedures.
#
#######################################################################

data_KANLAP
_chemical_formula_moiety         'C19 H13 Cl1 O2'
_chemical_name_systematic        6-chloro-1-(4-methylbenzoyl)-2-naphthaldehyde
_symmetry_cell_setting           monoclinic
_symmetry_space_group_name_H-M   'P 21/c'
_symmetry_Int_Tables_number      14
_space_group_name_Hall           '-P 2ybc'
loop_
_symmetry_equiv_pos_site_id
_symmetry_equiv_pos_as_xyz
1 x,y,z
2 -x,1/2+y,1/2-z
3 -x,-y,-z
4 x,1/2-y,1/2+z
_cell_length_a                   9.8188(9)
_cell_length_b                   12.2691(11)
_cell_length_c                   13.2128(12)
_cell_angle_alpha                90
_cell_angle_beta                 108.004(2)
_cell_angle_gamma                90
_cell_volume                     1513.78
_exptl_crystal_colour            white
_exptl_crystal_description       block
_cell_formula_units_Z            4
loop_
_atom_site_label
_atom_site_type_symbol
_atom_site_fract_x
_atom_site_fract_y
_atom_site_fract_z
Cl1 Cl 0.11251(10) 0.67441(7) 1.11747(8)
O1 O 0.5153(2) 0.17132(18) 0.82867(16)
O2 O 0.51030(19) 0.19962(13) 1.06028(14)
C1 C 0.5029(3) 0.2654(3) 0.8039(2)
H1 H 0.5420 0.2880 0.7516
C2 C 0.4305(3) 0.3487(2) 0.84947(18)
C3 C 0.3777(2) 0.32369(18) 0.93246(18)
C4 C 0.3102(2) 0.40555(18) 0.97563(18)
C5 C 0.2566(3) 0.3858(2) 1.0617(2)
H2 H 0.2622 0.3159 1.0900
C6 C 0.1970(3) 0.4669(2) 1.1037(2)
H3 H 0.1636 0.4528 1.1610
C7 C 0.1860(3) 0.5716(2) 1.0606(2)
C8 C 0.2346(3) 0.5954(2) 0.9782(2)
H4 H 0.2261 0.6659 0.9512
C9 C 0.2983(3) 0.51290(19) 0.93290(19)
C10 C 0.3544(3) 0.5357(2) 0.8487(2)
H5 H 0.3477 0.6057 0.8206
C11 C 0.4178(3) 0.4555(2) 0.8088(2)
H6 H 0.4539 0.4715 0.7531
C12 C 0.4020(3) 0.21286(18) 0.98532(19)
C13 C 0.2903(3) 0.12811(18) 0.95062(18)
C14 C 0.1611(3) 0.1474(2) 0.8729(2)
H7 H 0.1443 0.2150 0.8394
C15 C 0.0569(3) 0.0680(2) 0.8443(2)
H8 H -0.0297 0.0832 0.7926
C16 C 0.0791(3) -0.0338(2) 0.8912(2)
C17 C 0.2083(3) -0.0530(2) 0.9682(2)
H9 H 0.2250 -0.1209 1.0010
C18 C 0.3132(3) 0.02566(19) 0.9980(2)
H10 H 0.3996 0.0102 1.0498
C19 C -0.0345(3) -0.1208(2) 0.8606(3)
H11 H -0.0939 -0.1163 0.9061
H12 H 0.0102 -0.1912 0.8682
H13 H -0.0921 -0.1104 0.7879
loop_
_geom_bond_atom_site_label_1
_geom_bond_atom_site_label_2
_geom_bond_site_symmetry_1
_geom_bond_site_symmetry_2
Cl1 C7 1_555 1_555
O1 C1 1_555 1_555
O2 C12 1_555 1_555
C1 H1 1_555 1_555
C2 C1 1_555 1_555
C3 C2 1_555 1_555
C4 C3 1_555 1_555
C5 C4 1_555 1_555
H2 C5 1_555 1_555
C6 C5 1_555 1_555
H3 C6 1_555 1_555
C7 C6 1_555 1_555
C8 C7 1_555 1_555
H4 C8 1_555 1_555
C9 C4 1_555 1_555
C10 C9 1_555 1_555
H5 C10 1_555 1_555
C11 C2 1_555 1_555
H6 C11 1_555 1_555
C12 C3 1_555 1_555
C13 C12 1_555 1_555
C14 C13 1_555 1_555
H7 C14 1_555 1_555
C15 C14 1_555 1_555
H8 C15 1_555 1_555
C16 C15 1_555 1_555
C17 C16 1_555 1_555
H9 C17 1_555 1_555
C18 C13 1_555 1_555
H10 C18 1_555 1_555
C19 C16 1_555 1_555
H11 C19 1_555 1_555
H12 C19 1_555 1_555
H13 C19 1_555 1_555
C8 C9 1_555 1_555
C10 C11 1_555 1_555
C17 C18 1_555 1_555

#END
