
#######################################################################
#
#                 Cambridge Crystallographic Data Centre
#                                CCDC 
#
#######################################################################
#
# If this CIF has been generated from an entry in the Cambridge 
# Structural Database, then it will include bibliographic, chemical, 
# crystal, experimental, refinement or atomic coordinate data resulting 
# from the CCDC's data processing and validation procedures.
#
#######################################################################

data_KANLIX
_chemical_formula_moiety         'C33 H31 N3 O1'
_chemical_name_systematic        
1-(4-t-butylphenyl)-2-(3-methyl-1-(4-methylphenyl)-1H-pyrazol-5-yl)-1,2-dihydro-3H-benzo[e]isoindol-3-one
_symmetry_cell_setting           triclinic
_symmetry_space_group_name_H-M   'P -1'
_symmetry_Int_Tables_number      2
_space_group_name_Hall           '-P 1'
loop_
_symmetry_equiv_pos_site_id
_symmetry_equiv_pos_as_xyz
1 x,y,z
2 -x,-y,-z
_cell_length_a                   10.3789(9)
_cell_length_b                   11.1013(9)
_cell_length_c                   14.0006(12)
_cell_angle_alpha                95.6210(10)
_cell_angle_beta                 103.538(2)
_cell_angle_gamma                117.117(3)
_cell_volume                     1356.33
_exptl_crystal_colour            white
_exptl_crystal_description       block
_cell_formula_units_Z            2
loop_
_atom_site_label
_atom_site_type_symbol
_atom_site_fract_x
_atom_site_fract_y
_atom_site_fract_z
N1 N 0.4624(2) 0.1917(2) 0.14188(14)
N2 N 0.3269(2) -0.0077(2) 0.20747(15)
N3 N 0.2201(2) -0.1449(2) 0.17441(17)
O1 O 0.6886(2) 0.18803(18) 0.16526(13)
C1 C 0.6166(3) 0.2498(3) 0.15675(18)
C2 C 0.6715(3) 0.3994(3) 0.16088(18)
C3 C 0.5521(3) 0.4244(3) 0.14383(17)
C4 C 0.4054(3) 0.2914(2) 0.12895(18)
H1 H 0.3377 0.2656 0.0596
C5 C 0.8226(3) 0.5066(3) 0.18075(19)
H2 H 0.9029 0.4879 0.1916
C6 C 0.8476(4) 0.6388(3) 0.1835(2)
H3 H 0.9469 0.7113 0.1982
C7 C 0.7259(4) 0.6685(3) 0.16469(19)
C8 C 0.5739(3) 0.5596(3) 0.14252(17)
C9 C 0.4551(4) 0.5910(3) 0.12220(18)
H4 H 0.3546 0.5201 0.1064
C10 C 0.4867(4) 0.7259(4) 0.1256(2)
H5 H 0.4072 0.7457 0.1117
C11 C 0.6356(5) 0.8328(3) 0.1495(2)
H6 H 0.6554 0.9239 0.1534
C12 C 0.7527(4) 0.8062(3) 0.1672(2)
H7 H 0.8517 0.8788 0.1813
C13 C 0.3624(3) 0.0491(3) 0.1288(2)
C14 C 0.2766(3) -0.0534(3) 0.0437(2)
H8 H 0.2761 -0.0462 -0.0220
C15 C 0.1886(3) -0.1724(3) 0.0741(2)
C16 C 0.0787(3) -0.3170(3) 0.0115(2)
H9 H 0.0891 -0.3827 0.0478
H10 H 0.0999 -0.3285 -0.0509
H11 H -0.0235 -0.3325 -0.0026
C17 C 0.3864(3) 0.0555(3) 0.3136(2)
C18 C 0.5411(3) 0.1354(3) 0.3610(2)
H12 H 0.6089 0.1485 0.3246
C19 C 0.5947(4) 0.1961(3) 0.4632(2)
H13 H 0.6993 0.2510 0.4948
C20 C 0.4983(4) 0.1777(3) 0.5195(2)
C21 C 0.3445(4) 0.0942(3) 0.4706(2)
H14 H 0.2771 0.0788 0.5076
C22 C 0.2866(3) 0.0324(3) 0.3683(2)
H15 H 0.1821 -0.0238 0.3370
C23 C 0.5565(4) 0.2448(3) 0.6312(2)
H16 H 0.6436 0.2365 0.6632
H17 H 0.4777 0.1990 0.6609
H18 H 0.5850 0.3415 0.6404
C24 C 0.3215(3) 0.2954(2) 0.20269(18)
C25 C 0.1651(3) 0.2241(3) 0.17380(19)
H19 H 0.1098 0.1743 0.1072
C26 C 0.0881(3) 0.2252(3) 0.2426(2)
H20 H -0.0180 0.1768 0.2207
C27 C 0.1652(3) 0.2965(3) 0.3430(2)
C28 C 0.3226(3) 0.3667(3) 0.37057(19)
H21 H 0.3789 0.4152 0.4374
C29 C 0.3986(3) 0.3669(3) 0.30185(19)
H22 H 0.5047 0.4166 0.3232
C30 C 0.0774(3) 0.2961(3) 0.4171(2)
C31 C -0.0050(3) 0.3784(3) 0.3867(2)
H23 H -0.0769 0.3331 0.3200
H24 H 0.0683 0.4713 0.3875
H25 H -0.0580 0.3821 0.4337
C32 C -0.0404(4) 0.1477(3) 0.4118(3)
H26 H -0.1154 0.1080 0.3460
H27 H -0.0892 0.1483 0.4621
H28 H 0.0090 0.0932 0.4240
C33 C 0.1837(4) 0.3664(3) 0.5263(2)
H29 H 0.1248 0.3666 0.5699
H30 H 0.2572 0.4605 0.5300
H31 H 0.2355 0.3160 0.5474
loop_
_geom_bond_atom_site_label_1
_geom_bond_atom_site_label_2
_geom_bond_site_symmetry_1
_geom_bond_site_symmetry_2
N1 C1 1_555 1_555
N2 N3 1_555 1_555
N3 C15 1_555 1_555
O1 C1 1_555 1_555
C1 C2 1_555 1_555
C2 C3 1_555 1_555
C3 C4 1_555 1_555
C4 N1 1_555 1_555
H1 C4 1_555 1_555
C5 C2 1_555 1_555
H2 C5 1_555 1_555
C6 C5 1_555 1_555
H3 C6 1_555 1_555
C7 C6 1_555 1_555
C8 C3 1_555 1_555
C9 C8 1_555 1_555
H4 C9 1_555 1_555
C10 C9 1_555 1_555
H5 C10 1_555 1_555
C11 C10 1_555 1_555
H6 C11 1_555 1_555
C12 C7 1_555 1_555
H7 C12 1_555 1_555
C13 N1 1_555 1_555
C14 C13 1_555 1_555
H8 C14 1_555 1_555
C15 C14 1_555 1_555
C16 C15 1_555 1_555
H9 C16 1_555 1_555
H10 C16 1_555 1_555
H11 C16 1_555 1_555
C17 N2 1_555 1_555
C18 C17 1_555 1_555
H12 C18 1_555 1_555
C19 C18 1_555 1_555
H13 C19 1_555 1_555
C20 C19 1_555 1_555
C21 C20 1_555 1_555
H14 C21 1_555 1_555
C22 C17 1_555 1_555
H15 C22 1_555 1_555
C23 C20 1_555 1_555
H16 C23 1_555 1_555
H17 C23 1_555 1_555
H18 C23 1_555 1_555
C24 C4 1_555 1_555
C25 C24 1_555 1_555
H19 C25 1_555 1_555
C26 C25 1_555 1_555
H20 C26 1_555 1_555
C27 C26 1_555 1_555
C28 C27 1_555 1_555
H21 C28 1_555 1_555
C29 C24 1_555 1_555
H22 C29 1_555 1_555
C30 C27 1_555 1_555
C31 C30 1_555 1_555
H23 C31 1_555 1_555
H24 C31 1_555 1_555
H25 C31 1_555 1_555
C32 C30 1_555 1_555
H26 C32 1_555 1_555
H27 C32 1_555 1_555
H28 C32 1_555 1_555
C33 C30 1_555 1_555
H29 C33 1_555 1_555
H30 C33 1_555 1_555
H31 C33 1_555 1_555
N2 C13 1_555 1_555
C7 C8 1_555 1_555
C11 C12 1_555 1_555
C21 C22 1_555 1_555
C28 C29 1_555 1_555

#END
