
#######################################################################
#
#                 Cambridge Crystallographic Data Centre
#                                CCDC 
#
#######################################################################
#
# If this CIF has been generated from an entry in the Cambridge 
# Structural Database, then it will include bibliographic, chemical, 
# crystal, experimental, refinement or atomic coordinate data resulting 
# from the CCDC's data processing and validation procedures.
#
#######################################################################

data_KANPIA
_chemical_formula_moiety         'C48 H48 N4 O2 2+,2(Br1 1-),0.5(H2 O1)'
_chemical_name_systematic        
"1,1'-((2,2'-Dimethoxy-1,1'-binaphthalene-3,3'-diyl)bis(methylene))bis(3-mesityl-1H-imidazol-3-ium) dibromide hemihydrate"
_symmetry_cell_setting           orthorhombic
_symmetry_space_group_name_H-M   'P 21 21 21'
_symmetry_Int_Tables_number      19
_space_group_name_Hall           'P 2ac 2ab'
loop_
_symmetry_equiv_pos_site_id
_symmetry_equiv_pos_as_xyz
1 x,y,z
2 1/2-x,-y,1/2+z
3 -x,1/2+y,1/2-z
4 1/2+x,1/2-y,-z
_cell_length_a                   10.9972(14)
_cell_length_b                   26.954(2)
_cell_length_c                   30.5027(17)
_cell_angle_alpha                90
_cell_angle_beta                 90
_cell_angle_gamma                90
_cell_volume                     9041.57
_exptl_crystal_colour            colorless
_chemical_melting_point          258-259deg.C
_cell_formula_units_Z            8
_exptl_crystal_recrystallization_method methanol/dichloromethane
loop_
_atom_site_label
_atom_site_type_symbol
_atom_site_fract_x
_atom_site_fract_y
_atom_site_fract_z
Br1 Br 0.09039(5) 0.182578(17) 0.606474(16)
Br2 Br -0.01711(5) 0.370747(18) 0.626725(15)
Br3 Br 0.03274(5) 0.40053(2) 0.083421(17)
Br4 Br 0.58680(5) 0.779557(19) 0.652987(17)
C1 C 0.4552(5) 0.30319(17) 0.54814(15)
C2 C 0.5685(4) 0.30335(17) 0.56731(15)
C3 C 0.6243(4) 0.34689(18) 0.58487(16)
H1 H 0.7017 0.3463 0.5972
C4 C 0.5554(4) 0.39036(18) 0.58245(16)
C5 C 0.4374(4) 0.38925(18) 0.56578(14)
H2 H 0.3919 0.4183 0.5652
C6 C 0.3855(5) 0.34506(17) 0.54975(16)
C7 C 0.6432(5) 0.2552(2) 0.57102(17)
H3 H 0.6023 0.2325 0.5902
H4 H 0.7222 0.2627 0.5827
H5 H 0.6517 0.2405 0.5425
C8 C 0.6194(4) 0.43680(17) 0.59762(14)
H6 H 0.6209 0.4606 0.5742
H7 H 0.7011 0.4288 0.6061
H8 H 0.5768 0.4506 0.6222
C9 C 0.2517(5) 0.34077(18) 0.53528(16)
H9 H 0.2465 0.3202 0.5097
H10 H 0.2205 0.3732 0.5286
H11 H 0.2047 0.3263 0.5585
C10 C 0.3581(4) 0.22040(17) 0.54529(15)
H12 H 0.3268 0.2179 0.5735
C11 C 0.4515(5) 0.24912(17) 0.48474(14)
H13 H 0.4918 0.2703 0.4656
C12 C 0.4157(5) 0.20165(17) 0.47625(14)
H14 H 0.4296 0.1839 0.4506
C13 C 0.3103(5) 0.13408(18) 0.52014(17)
H15 H 0.2594 0.1242 0.4957
H16 H 0.2610 0.1333 0.5465
C14 C 0.4123(5) 0.09858(17) 0.52465(15)
C15 C 0.4631(5) 0.07418(16) 0.48847(14)
H17 H 0.4264 0.0766 0.4611
C16 C 0.5725(4) 0.04522(16) 0.49386(14)
C17 C 0.6280(4) 0.02454(17) 0.45639(15)
H18 H 0.5947 0.0311 0.4290
C18 C 0.7253(4) -0.00383(17) 0.45896(15)
H19 H 0.7571 -0.0192 0.4342
C19 C 0.7794(5) -0.01020(18) 0.50024(16)
H20 H 0.8518 -0.0279 0.5019
C20 C 0.7312(5) 0.00829(16) 0.53808(16)
H21 H 0.7667 0.0023 0.5652
C21 C 0.6224(4) 0.03752(15) 0.53364(14)
C22 C 0.5694(4) 0.06187(16) 0.57204(13)
C23 C 0.4656(4) 0.09121(16) 0.56561(14)
C24 C 0.6194(5) 0.05476(16) 0.61664(15)
C25 C 0.6065(4) 0.00802(15) 0.63926(13)
C26 C 0.5448(4) -0.03273(15) 0.62062(15)
H22 H 0.5109 -0.0297 0.5928
C27 C 0.5340(4) -0.07699(17) 0.64294(15)
H23 H 0.4986 -0.1046 0.6298
C28 C 0.5792(4) -0.07903(17) 0.68708(15)
H24 H 0.5648 -0.1078 0.7031
C29 C 0.6399(4) -0.04281(18) 0.70636(16)
H25 H 0.6731 -0.0466 0.7342
C30 C 0.6520(4) 0.00296(16) 0.68209(15)
C31 C 0.7112(4) 0.04520(16) 0.70104(15)
H26 H 0.7432 0.0424 0.7292
C32 C 0.7221(5) 0.08799(18) 0.68009(16)
C33 C 0.6795(4) 0.09286(16) 0.63906(14)
C34 C 0.3437(4) 0.08771(16) 0.63074(15)
H27 H 0.3202 0.0570 0.6173
H28 H 0.2723 0.1059 0.6390
H29 H 0.3917 0.0811 0.6564
C35 C 0.7618(5) 0.14120(19) 0.57935(19)
H30 H 0.8432 0.1298 0.5847
H31 H 0.7643 0.1748 0.5688
H32 H 0.7241 0.1204 0.5577
C36 C 0.7890(5) 0.1323(2) 0.70169(16)
H33 H 0.8340 0.1207 0.7270
H34 H 0.8467 0.1462 0.6810
C37 C 0.6699(4) 0.21259(17) 0.69143(14)
H35 H 0.7009 0.2218 0.6643
C38 C 0.6263(5) 0.16522(18) 0.75367(16)
H36 H 0.6227 0.1397 0.7741
C39 C 0.5561(5) 0.2099(2) 0.75196(17)
H37 H 0.4992 0.2194 0.7729
C40 C 0.5248(4) 0.28153(17) 0.70089(14)
C41 C 0.5801(5) 0.32771(18) 0.70900(14)
C42 C 0.5126(4) 0.36951(17) 0.69872(13)
H38 H 0.5457 0.4004 0.7053
C43 C 0.3972(4) 0.36814(16) 0.67897(13)
C44 C 0.3535(4) 0.31909(18) 0.67010(17)
H39 H 0.2775 0.3154 0.6571
C45 C 0.4163(5) 0.27929(17) 0.67953(13)
C46 C 0.3597(5) 0.22591(18) 0.66969(16)
H40 H 0.2726 0.2278 0.6712
H41 H 0.3888 0.2026 0.6910
H42 H 0.3837 0.2153 0.6409
C47 C 0.7024(5) 0.33010(19) 0.72914(16)
H43 H 0.7561 0.3485 0.7104
H44 H 0.7334 0.2971 0.7330
H45 H 0.6971 0.3463 0.7571
C48 C 0.3255(5) 0.41261(19) 0.66961(17)
H46 H 0.2764 0.4207 0.6946
H47 H 0.2740 0.4066 0.6448
H48 H 0.3791 0.4398 0.6633
N1 N 0.4166(4) 0.25975(13) 0.52728(12)
N2 N 0.3549(3) 0.18490(15) 0.51291(13)
N3 N 0.7057(4) 0.16973(16) 0.71489(14)
N4 N 0.5857(4) 0.23797(15) 0.71357(13)
O1 O 0.4139(3) 0.11645(12) 0.60016(10)
O2 O 0.6957(3) 0.13932(11) 0.61779(10)
C49 C 0.0198(4) 0.69315(17) 0.54039(13)
C50 C -0.0789(4) 0.69697(18) 0.56867(14)
C51 C -0.1355(6) 0.6543(2) 0.5842(2)
H49 H -0.2015 0.6569 0.6031
C52 C -0.0934(5) 0.60790(19) 0.57147(15)
C53 C 0.0053(6) 0.6041(2) 0.54318(16)
H50 H 0.0334 0.5730 0.5347
C54 C 0.0619(5) 0.64671(17) 0.52765(15)
C55 C -0.1298(5) 0.7498(2) 0.57938(17)
H51 H -0.0736 0.7670 0.5980
H52 H -0.2067 0.7467 0.5940
H53 H -0.1404 0.7681 0.5526
C56 C -0.1666(4) 0.5607(2) 0.58839(15)
H54 H -0.2010 0.5435 0.5638
H55 H -0.2305 0.5712 0.6077
H56 H -0.1124 0.5390 0.6039
C57 C 0.1709(4) 0.64181(17) 0.49874(15)
H57 H 0.1760 0.6701 0.4797
H58 H 0.1638 0.6122 0.4814
H59 H 0.2428 0.6400 0.5165
C58 C 0.1663(5) 0.76139(16) 0.54524(17)
H60 H 0.2074 0.7505 0.5701
C59 C 0.0326(5) 0.7661(2) 0.48888(16)
H61 H -0.0299 0.7579 0.4697
C60 C 0.1029(4) 0.80605(17) 0.48737(15)
H62 H 0.0976 0.8319 0.4672
C61 C 0.2736(5) 0.84241(19) 0.53485(17)
H63 H 0.3152 0.8540 0.5087
H64 H 0.3344 0.8294 0.5548
C62 C 0.2106(4) 0.88512(17) 0.55602(15)
C63 C 0.1963(4) 0.92732(17) 0.53508(15)
H65 H 0.2272 0.9303 0.5068
C64 C 0.1339(5) 0.96952(19) 0.55441(17)
C65 C 0.1179(4) 1.01575(17) 0.53194(15)
H66 H 0.1454 1.0197 0.5033
C66 C 0.0621(4) 1.05350(19) 0.55306(15)
H67 H 0.0555 1.0839 0.5389
C67 C 0.0144(5) 1.04879(17) 0.59497(16)
H68 H -0.0296 1.0745 0.6076
C68 C 0.0340(4) 1.00444(15) 0.61770(15)
H69 H 0.0076 1.0016 0.6466
C69 C 0.0930(5) 0.96413(17) 0.59759(15)
C70 C 0.1103(4) 0.91871(16) 0.62091(14)
C71 C 0.1697(4) 0.88008(16) 0.59887(14)
C72 C 0.0665(4) 0.91273(14) 0.66597(13)
C73 C 0.1251(4) 0.93831(15) 0.70146(14)
C74 C 0.2320(4) 0.96514(16) 0.69408(15)
H70 H 0.2627 0.9687 0.6658
C75 C 0.2909(5) 0.98602(15) 0.72908(15)
H71 H 0.3612 1.0044 0.7241
C76 C 0.2476(4) 0.98054(17) 0.77356(15)
H72 H 0.2887 0.9955 0.7967
C77 C 0.1413(5) 0.95200(17) 0.78134(15)
H73 H 0.1115 0.9474 0.8096
C78 C 0.0817(4) 0.93054(14) 0.74435(14)
C79 C -0.0212(5) 0.90158(17) 0.75148(15)
H74 H -0.0532 0.8994 0.7796
C80 C -0.0764(4) 0.87616(17) 0.71791(14)
C81 C -0.0326(4) 0.88213(15) 0.67491(14)
C82 C 0.2614(5) 0.8327(2) 0.65530(17)
H75 H 0.3442 0.8269 0.6468
H76 H 0.2345 0.8062 0.6740
H77 H 0.2559 0.8636 0.6708
C83 C -0.1576(5) 0.88034(17) 0.61120(17)
H78 H -0.1925 0.9097 0.6237
H79 H -0.2214 0.8591 0.6008
H80 H -0.1056 0.8893 0.5872
C84 C -0.1786(4) 0.84024(17) 0.72739(16)
H81 H -0.2268 0.8527 0.7517
H82 H -0.2312 0.8380 0.7019
C85 C -0.1284(4) 0.75280(18) 0.71170(15)
H83 H -0.1612 0.7507 0.6837
C86 C -0.0722(4) 0.78164(17) 0.77664(15)
H84 H -0.0616 0.8029 0.8003
C87 C -0.0292(5) 0.73312(17) 0.77305(15)
H85 H 0.0157 0.7158 0.7938
C88 C -0.0275(5) 0.66954(17) 0.71523(14)
C89 C -0.0744(5) 0.62491(17) 0.73056(17)
C90 C -0.0272(5) 0.58022(19) 0.71549(17)
H86 H -0.0585 0.5504 0.7257
C91 C 0.0670(4) 0.58017(18) 0.68509(16)
C92 C 0.1139(5) 0.62480(18) 0.66976(15)
H87 H 0.1769 0.6248 0.6494
C93 C 0.0667(4) 0.66949(18) 0.68483(14)
C94 C 0.1247(4) 0.71764(18) 0.67125(15)
H88 H 0.2014 0.7110 0.6574
H89 H 0.1373 0.7380 0.6966
H90 H 0.0723 0.7346 0.6510
C95 C -0.1737(4) 0.62349(17) 0.76593(16)
H91 H -0.1461 0.6409 0.7915
H92 H -0.1910 0.5896 0.7735
H93 H -0.2461 0.6390 0.7549
C96 C 0.1166(4) 0.53340(19) 0.66824(17)
H94 H 0.0982 0.5305 0.6376
H95 H 0.0808 0.5061 0.6838
H96 H 0.2031 0.5330 0.6723
N5 N 0.0719(4) 0.73858(15) 0.52534(14)
N6 N 0.1886(4) 0.80192(15) 0.52264(14)
N7 N -0.1338(4) 0.79194(14) 0.73804(13)
N8 N -0.0659(4) 0.71608(14) 0.73298(12)
O3 O 0.1892(3) 0.83449(11) 0.61860(9)
O4 O -0.0892(3) 0.85521(12) 0.64333(10)
O5 O 0.8793(7) 0.2572(3) 0.6394(3)
H97 H 0.9052 0.2829 0.6526
H98 H 0.9329 0.2470 0.6215
O6 O 0.6419(10) 0.6658(4) 0.6710(4)
H99 H 0.6385 0.6354 0.6784
H100 H 0.7057 0.6790 0.6816
O7 O 0.5919(10) 0.0724(4) 0.8139(3)
H101 H 0.5390 0.0665 0.8335
H102 H 0.5838 0.0517 0.7930
loop_
_geom_bond_atom_site_label_1
_geom_bond_atom_site_label_2
_geom_bond_site_symmetry_1
_geom_bond_site_symmetry_2
C1 C2 1_555 1_555
C2 C3 1_555 1_555
C3 H1 1_555 1_555
C4 C3 1_555 1_555
C5 C4 1_555 1_555
H2 C5 1_555 1_555
C6 C1 1_555 1_555
C7 C2 1_555 1_555
H3 C7 1_555 1_555
H4 C7 1_555 1_555
H5 C7 1_555 1_555
C8 C4 1_555 1_555
H6 C8 1_555 1_555
H7 C8 1_555 1_555
H8 C8 1_555 1_555
C9 C6 1_555 1_555
H9 C9 1_555 1_555
H10 C9 1_555 1_555
H11 C9 1_555 1_555
C10 H12 1_555 1_555
C11 H13 1_555 1_555
C12 C11 1_555 1_555
H14 C12 1_555 1_555
C13 H15 1_555 1_555
H16 C13 1_555 1_555
C14 C13 1_555 1_555
C15 C14 1_555 1_555
H17 C15 1_555 1_555
C16 C15 1_555 1_555
C17 C16 1_555 1_555
H18 C17 1_555 1_555
C18 C17 1_555 1_555
H19 C18 1_555 1_555
C19 C18 1_555 1_555
H20 C19 1_555 1_555
C20 C19 1_555 1_555
H21 C20 1_555 1_555
C21 C16 1_555 1_555
C22 C21 1_555 1_555
C23 C14 1_555 1_555
C24 C22 1_555 1_555
C25 C24 1_555 1_555
C26 C25 1_555 1_555
H22 C26 1_555 1_555
C27 C26 1_555 1_555
H23 C27 1_555 1_555
C28 C27 1_555 1_555
H24 C28 1_555 1_555
C29 C28 1_555 1_555
H25 C29 1_555 1_555
C30 C25 1_555 1_555
C31 C30 1_555 1_555
H26 C31 1_555 1_555
C32 C31 1_555 1_555
C33 C24 1_555 1_555
C34 H27 1_555 1_555
H28 C34 1_555 1_555
H29 C34 1_555 1_555
C35 H30 1_555 1_555
H31 C35 1_555 1_555
H32 C35 1_555 1_555
C36 C32 1_555 1_555
H33 C36 1_555 1_555
H34 C36 1_555 1_555
C37 H35 1_555 1_555
C38 H36 1_555 1_555
C39 C38 1_555 1_555
H37 C39 1_555 1_555
C40 C41 1_555 1_555
C41 C42 1_555 1_555
C42 H38 1_555 1_555
C43 C42 1_555 1_555
C44 C43 1_555 1_555
H39 C44 1_555 1_555
C45 C40 1_555 1_555
C46 C45 1_555 1_555
H40 C46 1_555 1_555
H41 C46 1_555 1_555
H42 C46 1_555 1_555
C47 C41 1_555 1_555
H43 C47 1_555 1_555
H44 C47 1_555 1_555
H45 C47 1_555 1_555
C48 C43 1_555 1_555
H46 C48 1_555 1_555
H47 C48 1_555 1_555
H48 C48 1_555 1_555
C49 C50 1_555 1_555
C50 C51 1_555 1_555
C51 H49 1_555 1_555
C52 C51 1_555 1_555
C53 C52 1_555 1_555
H50 C53 1_555 1_555
C54 C49 1_555 1_555
C55 C50 1_555 1_555
H51 C55 1_555 1_555
H52 C55 1_555 1_555
H53 C55 1_555 1_555
C56 C52 1_555 1_555
H54 C56 1_555 1_555
H55 C56 1_555 1_555
H56 C56 1_555 1_555
C57 C54 1_555 1_555
H57 C57 1_555 1_555
H58 C57 1_555 1_555
H59 C57 1_555 1_555
C58 H60 1_555 1_555
C59 H61 1_555 1_555
C60 C59 1_555 1_555
H62 C60 1_555 1_555
C61 H63 1_555 1_555
H64 C61 1_555 1_555
C62 C61 1_555 1_555
C63 C62 1_555 1_555
H65 C63 1_555 1_555
C64 C63 1_555 1_555
C65 C64 1_555 1_555
H66 C65 1_555 1_555
C66 C65 1_555 1_555
H67 C66 1_555 1_555
C67 C66 1_555 1_555
H68 C67 1_555 1_555
C68 C67 1_555 1_555
H69 C68 1_555 1_555
C69 C64 1_555 1_555
C70 C69 1_555 1_555
C71 C62 1_555 1_555
C72 C70 1_555 1_555
C73 C72 1_555 1_555
C74 C73 1_555 1_555
H70 C74 1_555 1_555
C75 C74 1_555 1_555
H71 C75 1_555 1_555
C76 C75 1_555 1_555
H72 C76 1_555 1_555
C77 C76 1_555 1_555
H73 C77 1_555 1_555
C78 C73 1_555 1_555
C79 C78 1_555 1_555
H74 C79 1_555 1_555
C80 C79 1_555 1_555
C81 C72 1_555 1_555
C82 H75 1_555 1_555
H76 C82 1_555 1_555
H77 C82 1_555 1_555
C83 H78 1_555 1_555
H79 C83 1_555 1_555
H80 C83 1_555 1_555
C84 C80 1_555 1_555
H81 C84 1_555 1_555
H82 C84 1_555 1_555
C85 H83 1_555 1_555
C86 H84 1_555 1_555
C87 C86 1_555 1_555
H85 C87 1_555 1_555
C88 C89 1_555 1_555
C89 C90 1_555 1_555
C90 H86 1_555 1_555
C91 C90 1_555 1_555
C92 C91 1_555 1_555
H87 C92 1_555 1_555
C93 C88 1_555 1_555
C94 C93 1_555 1_555
H88 C94 1_555 1_555
H89 C94 1_555 1_555
H90 C94 1_555 1_555
C95 C89 1_555 1_555
H91 C95 1_555 1_555
H92 C95 1_555 1_555
H93 C95 1_555 1_555
C96 C91 1_555 1_555
H94 C96 1_555 1_555
H95 C96 1_555 1_555
H96 C96 1_555 1_555
N1 C1 1_555 1_555
N2 C10 1_555 1_555
N3 C36 1_555 1_555
N4 C37 1_555 1_555
N5 C49 1_555 1_555
N6 C58 1_555 1_555
N7 C84 1_555 1_555
N8 C85 1_555 1_555
O1 C23 1_555 1_555
O2 C33 1_555 1_555
O3 C71 1_555 1_555
O4 C81 1_555 1_555
O5 H97 1_555 1_555
H98 O5 1_555 1_555
O6 H99 1_555 1_555
H100 O6 1_555 1_555
O7 H101 1_555 1_555
H102 O7 1_555 1_555
C5 C6 1_555 1_555
C10 N1 1_555 1_555
C11 N1 1_555 1_555
C12 N2 1_555 1_555
C13 N2 1_555 1_555
C20 C21 1_555 1_555
C22 C23 1_555 1_555
C29 C30 1_555 1_555
C32 C33 1_555 1_555
C34 O1 1_555 1_555
C35 O2 1_555 1_555
C37 N3 1_555 1_555
C38 N3 1_555 1_555
C39 N4 1_555 1_555
C40 N4 1_555 1_555
C44 C45 1_555 1_555
C53 C54 1_555 1_555
C58 N5 1_555 1_555
C59 N5 1_555 1_555
C60 N6 1_555 1_555
C61 N6 1_555 1_555
C68 C69 1_555 1_555
C70 C71 1_555 1_555
C77 C78 1_555 1_555
C80 C81 1_555 1_555
C82 O3 1_555 1_555
C83 O4 1_555 1_555
C85 N7 1_555 1_555
C86 N7 1_555 1_555
C87 N8 1_555 1_555
C88 N8 1_555 1_555
C92 C93 1_555 1_555

#END
