
#######################################################################
#
#                 Cambridge Crystallographic Data Centre
#                                CCDC 
#
#######################################################################
#
# If this CIF has been generated from an entry in the Cambridge 
# Structural Database, then it will include bibliographic, chemical, 
# crystal, experimental, refinement or atomic coordinate data resulting 
# from the CCDC's data processing and validation procedures.
#
#######################################################################

data_KANRIC
_chemical_formula_moiety         'C40 H42 O4 S4'
_chemical_name_systematic        
3,3'-(1,4-Phenylene)bis(1,5-bis(2,5-dimethyl-3-thienyl)pentane-1,5-dione)
_symmetry_cell_setting           orthorhombic
_symmetry_space_group_name_H-M   'P b c a'
_symmetry_Int_Tables_number      61
_space_group_name_Hall           '-P 2ac 2ab'
loop_
_symmetry_equiv_pos_site_id
_symmetry_equiv_pos_as_xyz
1 x,y,z
2 1/2-x,-y,1/2+z
3 -x,1/2+y,1/2-z
4 1/2+x,1/2-y,-z
5 -x,-y,-z
6 1/2+x,y,1/2-z
7 x,1/2-y,1/2+z
8 1/2-x,1/2+y,z
_cell_length_a                   15.640(3)
_cell_length_b                   10.139(2)
_cell_length_c                   23.730(5)
_cell_angle_alpha                90
_cell_angle_beta                 90
_cell_angle_gamma                90
_cell_volume                     3762.96
_exptl_crystal_colour            colorless
_exptl_crystal_description       block
_chemical_melting_point          180-182deg.C
_cell_formula_units_Z            4
loop_
_atom_site_label
_atom_site_type_symbol
_atom_site_fract_x
_atom_site_fract_y
_atom_site_fract_z
C1 C 0.54867(13) 0.1121(2) 0.49577(9)
H1 H 0.5809 0.1888 0.4928
C2 C 0.58987(13) -0.00720(19) 0.50420(8)
C3 C 0.53921(13) -0.1194(2) 0.50827(9)
H2 H 0.5650 -0.2010 0.5138
C4 C 0.68611(13) -0.0167(2) 0.50979(8)
H3 H 0.7023 -0.1094 0.5050
C5 C 0.71427(14) 0.0266(2) 0.56863(9)
H4 H 0.7761 0.0334 0.5694
H5 H 0.6912 0.1136 0.5762
C6 C 0.68587(14) -0.0666(2) 0.61484(9)
C7 C 0.66786(14) -0.0103(2) 0.67097(9)
C8 C 0.69310(15) 0.1183(3) 0.68894(10)
H6 H 0.7241 0.1759 0.6663
C9 C 0.66781(17) 0.1487(3) 0.74169(11)
C10 C 0.62192(16) -0.0764(3) 0.71148(10)
C11 C 0.5805(2) -0.2091(3) 0.70988(13)
H7 H 0.5525 -0.2210 0.6742
H8 H 0.5392 -0.2155 0.7397
H9 H 0.6232 -0.2762 0.7147
C12 C 0.6816(2) 0.2745(3) 0.77404(14)
H10 H 0.7276 0.2627 0.8003
H11 H 0.6303 0.2969 0.7941
H12 H 0.6957 0.3443 0.7483
C13 C 0.73323(13) 0.0638(2) 0.46508(9)
H13 H 0.6996 0.0635 0.4307
H14 H 0.7374 0.1545 0.4779
C14 C 0.82180(14) 0.0142(2) 0.45178(10)
C15 C 0.87950(13) 0.1009(2) 0.41938(9)
C16 C 0.85653(15) 0.2270(2) 0.39777(9)
H15 H 0.8023 0.2632 0.4021
C17 C 0.92074(17) 0.2894(2) 0.37032(10)
C18 C 0.96296(14) 0.0685(2) 0.40740(9)
C19 C 1.01249(16) -0.0550(3) 0.42015(12)
H16 H 1.0205 -0.0626 0.4601
H17 H 1.0672 -0.0510 0.4019
H18 H 0.9814 -0.1302 0.4066
C20 C 0.9210(2) 0.4244(3) 0.34491(14)
H19 H 0.8639 0.4478 0.3339
H20 H 0.9575 0.4252 0.3124
H21 H 0.9417 0.4868 0.3721
O1 O 0.84377(12) -0.09538(18) 0.46678(10)
O2 O 0.67882(13) -0.18443(17) 0.60552(7)
S1 S 1.01140(4) 0.19310(7) 0.37089(3)
S2 S 0.61106(5) 0.01995(8) 0.77036(3)
C1D C 0.45133(13) -0.1121(2) 0.50423(9)
H1D H 0.4191 -0.1888 0.5072
C2D C 0.41013(13) 0.00720(19) 0.49580(8)
C3D C 0.46079(13) 0.1194(2) 0.49173(9)
H2D H 0.4350 0.2010 0.4862
C4D C 0.31389(13) 0.0167(2) 0.49021(8)
H3D H 0.2977 0.1094 0.4950
C5D C 0.28573(14) -0.0266(2) 0.43137(9)
H4D H 0.2239 -0.0334 0.4306
H5D H 0.3088 -0.1136 0.4238
C6D C 0.31413(14) 0.0666(2) 0.38516(9)
C7D C 0.33214(14) 0.0103(2) 0.32903(9)
C8D C 0.30690(15) -0.1183(3) 0.31106(10)
H6D H 0.2759 -0.1759 0.3337
C9D C 0.33219(17) -0.1487(3) 0.25831(11)
C10D C 0.37808(16) 0.0764(3) 0.28852(10)
C11D C 0.4195(2) 0.2091(3) 0.29012(13)
H7D H 0.4475 0.2210 0.3258
H8D H 0.4608 0.2155 0.2603
H9D H 0.3768 0.2762 0.2853
C12D C 0.3184(2) -0.2745(3) 0.22596(14)
H10D H 0.2724 -0.2627 0.1997
H11D H 0.3697 -0.2969 0.2059
H12D H 0.3043 -0.3443 0.2517
C13D C 0.26677(13) -0.0638(2) 0.53492(9)
H13D H 0.3004 -0.0635 0.5693
H14D H 0.2626 -0.1545 0.5221
C14D C 0.17820(14) -0.0142(2) 0.54822(10)
C15D C 0.12050(13) -0.1009(2) 0.58062(9)
C16D C 0.14347(15) -0.2270(2) 0.60223(9)
H15D H 0.1977 -0.2632 0.5979
C17D C 0.07926(17) -0.2894(2) 0.62968(10)
C18D C 0.03704(14) -0.0685(2) 0.59260(9)
C19D C -0.01249(16) 0.0550(3) 0.57985(12)
H16D H -0.0205 0.0626 0.5399
H17D H -0.0672 0.0510 0.5981
H18D H 0.0186 0.1302 0.5934
C20D C 0.0790(2) -0.4244(3) 0.65509(14)
H19D H 0.1361 -0.4478 0.6661
H20D H 0.0425 -0.4252 0.6876
H21D H 0.0583 -0.4868 0.6279
O1D O 0.15623(12) 0.09538(18) 0.53322(10)
O2D O 0.32118(13) 0.18443(17) 0.39448(7)
S1D S -0.01140(4) -0.19310(7) 0.62911(3)
S2D S 0.38894(5) -0.01995(8) 0.22964(3)
loop_
_geom_bond_atom_site_label_1
_geom_bond_atom_site_label_2
_geom_bond_site_symmetry_1
_geom_bond_site_symmetry_2
C1 H1 1_555 1_555
C2 C1 1_555 1_555
C3 C2 1_555 1_555
H2 C3 1_555 1_555
C4 C2 1_555 1_555
H3 C4 1_555 1_555
C5 C4 1_555 1_555
H4 C5 1_555 1_555
H5 C5 1_555 1_555
C6 C5 1_555 1_555
C7 C6 1_555 1_555
C8 C7 1_555 1_555
H6 C8 1_555 1_555
C9 C8 1_555 1_555
C10 C7 1_555 1_555
C11 C10 1_555 1_555
H7 C11 1_555 1_555
H8 C11 1_555 1_555
H9 C11 1_555 1_555
C12 C9 1_555 1_555
H10 C12 1_555 1_555
H11 C12 1_555 1_555
H12 C12 1_555 1_555
C13 C4 1_555 1_555
H13 C13 1_555 1_555
H14 C13 1_555 1_555
C14 C13 1_555 1_555
C15 C14 1_555 1_555
C16 C15 1_555 1_555
H15 C16 1_555 1_555
C17 C16 1_555 1_555
C18 C15 1_555 1_555
C19 C18 1_555 1_555
H16 C19 1_555 1_555
H17 C19 1_555 1_555
H18 C19 1_555 1_555
C20 C17 1_555 1_555
H19 C20 1_555 1_555
H20 C20 1_555 1_555
H21 C20 1_555 1_555
O1 C14 1_555 1_555
O2 C6 1_555 1_555
S1 C17 1_555 1_555
S2 C9 1_555 1_555
C1D C3 1_555 1_555
H1D C1D 1_555 1_555
C2D C1D 1_555 1_555
C3D C1 1_555 1_555
H2D C3D 1_555 1_555
C4D C2D 1_555 1_555
H3D C4D 1_555 1_555
C5D C4D 1_555 1_555
H4D C5D 1_555 1_555
H5D C5D 1_555 1_555
C6D C5D 1_555 1_555
C7D C6D 1_555 1_555
C8D C7D 1_555 1_555
H6D C8D 1_555 1_555
C9D C8D 1_555 1_555
C10D C7D 1_555 1_555
C11D C10D 1_555 1_555
H7D C11D 1_555 1_555
H8D C11D 1_555 1_555
H9D C11D 1_555 1_555
C12D C9D 1_555 1_555
H10D C12D 1_555 1_555
H11D C12D 1_555 1_555
H12D C12D 1_555 1_555
C13D C4D 1_555 1_555
H13D C13D 1_555 1_555
H14D C13D 1_555 1_555
C14D C13D 1_555 1_555
C15D C14D 1_555 1_555
C16D C15D 1_555 1_555
H15D C16D 1_555 1_555
C17D C16D 1_555 1_555
C18D C15D 1_555 1_555
C19D C18D 1_555 1_555
H16D C19D 1_555 1_555
H17D C19D 1_555 1_555
H18D C19D 1_555 1_555
C20D C17D 1_555 1_555
H19D C20D 1_555 1_555
H20D C20D 1_555 1_555
H21D C20D 1_555 1_555
O1D C14D 1_555 1_555
O2D C6D 1_555 1_555
S1D C17D 1_555 1_555
S2D C9D 1_555 1_555
C10 S2 1_555 1_555
C18 S1 1_555 1_555
C2D C3D 1_555 1_555
C10D S2D 1_555 1_555
C18D S1D 1_555 1_555

#END
