
#######################################################################
#
#                 Cambridge Crystallographic Data Centre
#                                CCDC 
#
#######################################################################
#
# If this CIF has been generated from an entry in the Cambridge 
# Structural Database, then it will include bibliographic, chemical, 
# crystal, experimental, refinement or atomic coordinate data resulting 
# from the CCDC's data processing and validation procedures.
#
#######################################################################

data_KANVIE
_chemical_compound_source        'leaves of Abrus precatorius L.(Leguminosae)'
_chemical_formula_moiety         'C31 H46 O5'
_chemical_name_systematic        'Abrusogenin methyl ester'
_chemical_properties_biological  'sweetening activity'
_symmetry_cell_setting           monoclinic
_symmetry_space_group_name_H-M   'P 21'
_symmetry_Int_Tables_number      4
_space_group_name_Hall           'P 2yb'
loop_
_symmetry_equiv_pos_site_id
_symmetry_equiv_pos_as_xyz
1 x,y,z
2 -x,1/2+y,-z
_cell_length_a                   11.728(3)
_cell_length_b                   6.877(2)
_cell_length_c                   17.629(4)
_cell_angle_alpha                90
_cell_angle_beta                 75.68(39)
_cell_angle_gamma                90
_cell_volume                     1377.66
_exptl_crystal_colour            colorless
_cell_formula_units_Z            2
loop_
_atom_site_label
_atom_site_type_symbol
_atom_site_fract_x
_atom_site_fract_y
_atom_site_fract_z
O1 O -0.304(2) -0.357 -0.160(1)
O2 O -0.463(1) -0.552(2) -0.1051(8)
O3 O -0.2566(8) -0.860(2) -0.1069(4)
O4 O -0.1080(5) -0.524(1) -0.8311(3)
O5 O -0.0040(7) -0.305(2) -0.9078(4)
C1 C -0.1277(8) -0.827(2) -0.3181(6)
C2 C -0.1593(9) -0.918(2) -0.2377(5)
C3 C -0.232(1) -0.775(2) -0.1791(5)
C4 C -0.349 -0.715 -0.202
C5 C -0.3110(8) -0.632(1) -0.2824(5)
C6 C -0.4097(7) -0.541(2) -0.3106(5)
C7 C -0.3615(7) -0.451(2) -0.3911(5)
C8 C -0.3238(6) -0.613(1) -0.4516(4)
C9 C -0.2373(6) -0.756(1) -0.4271(5)
C10 C -0.2396(7) -0.769(2) -0.3420(5)
C11 C -0.1200(7) -0.784(2) -0.4844(5)
C12 C -0.1157(7) -0.782(2) -0.5739(5)
C13 C -0.2310(7) -0.711(2) -0.5895(5)
C14 C -0.2785(7) -0.537(1) -0.5353(4)
C15 C -0.3760(7) -0.465(2) -0.5709(5)
C16 C -0.3295(8) -0.486(2) -0.6579(5)
C17 C -0.2226(7) -0.620(1) -0.6685(5)
C18 C -0.1851(8) -0.378(1) -0.5405(5)
C19 C -0.2950(7) -0.924(1) -0.3792(5)
C20 C -0.2069(8) -0.760(2) -0.7440(5)
C21 C -0.0985(9) -0.892(2) -0.7560(6)
C22 C -0.2132(8) -0.637(2) -0.8118(5)
C23 C -0.2233(9) -0.751(2) -0.8851(6)
C24 C -0.215(1) -0.617(2) -0.9498(5)
C25 C -0.1511(8) -0.455(2) -0.9569(5)
C26 C -0.0844(8) -0.414(2) -0.8967(6)
C27 C -0.137(1) -0.312(2) -1.0221(6)
C28 C -0.3185(7) -0.885(2) -0.5761(5)
C29 C -0.362(1) -0.513(3) -0.1528(6)
C30 C -0.431(1) -0.888(2) -0.1957(8)
C31 C -0.485(2) -0.366(2) -0.0459(8)
loop_
_geom_bond_atom_site_label_1
_geom_bond_atom_site_label_2
_geom_bond_site_symmetry_1
_geom_bond_site_symmetry_2
O1 C29 1_555 1_555
O2 C29 1_555 1_555
O3 C3 1_555 1_555
O4 C22 1_555 1_555
O5 C26 1_555 1_555
C1 C2 1_555 1_555
C2 C3 1_555 1_555
C3 C4 1_555 1_555
C4 C5 1_555 1_555
C5 C6 1_555 1_555
C6 C7 1_555 1_555
C7 C8 1_555 1_555
C8 C9 1_555 1_555
C9 C10 1_555 1_555
C10 C1 1_555 1_555
C11 C9 1_555 1_555
C12 C11 1_555 1_555
C13 C12 1_555 1_555
C14 C8 1_555 1_555
C15 C14 1_555 1_555
C16 C15 1_555 1_555
C17 C13 1_555 1_555
C18 C14 1_555 1_555
C19 C9 1_555 1_555
C20 C17 1_555 1_555
C21 C20 1_555 1_555
C22 C20 1_555 1_555
C23 C22 1_555 1_555
C24 C23 1_555 1_555
C25 C24 1_555 1_555
C26 O4 1_555 1_555
C27 C25 1_555 1_555
C28 C13 1_555 1_555
C29 C4 1_555 1_555
C30 C4 1_555 1_555
C31 O2 1_555 1_555
C5 C10 1_555 1_555
C10 C19 1_555 1_555
C13 C14 1_555 1_555
C16 C17 1_555 1_555
C25 C26 1_555 1_555

#END
