
#######################################################################
#
#                 Cambridge Crystallographic Data Centre
#                                CCDC 
#
#######################################################################
#
# If this CIF has been generated from an entry in the Cambridge 
# Structural Database, then it will include bibliographic, chemical, 
# crystal, experimental, refinement or atomic coordinate data resulting 
# from the CCDC's data processing and validation procedures.
#
#######################################################################

data_KANXAY10
_chemical_formula_moiety         'C8 H23 B4 Si2 1-,C4 H8 Na1 O1 1+'
_chemical_name_systematic        
'2,3-bis(Trimethylsilyl)-2,3-dicarbahexaborane(5) tetrahydrofuran-sodium'
_symmetry_cell_setting           triclinic
_symmetry_space_group_name_H-M   'P -1'
_symmetry_Int_Tables_number      2
_space_group_name_Hall           '-P 1'
loop_
_symmetry_equiv_pos_site_id
_symmetry_equiv_pos_as_xyz
1 x,y,z
2 -x,-y,-z
_cell_length_a                   6.326(17)
_cell_length_b                   11.82(4)
_cell_length_c                   14.16(5)
_cell_angle_alpha                75.47(25)
_cell_angle_beta                 80.58(23)
_cell_angle_gamma                80.50(22)
_cell_volume                     1002.55
_exptl_crystal_colour            colorless
_cell_formula_units_Z            2
loop_
_atom_site_label
_atom_site_type_symbol
_atom_site_fract_x
_atom_site_fract_y
_atom_site_fract_z
Na1 Na -0.2328(3) 0.5320(2) 0.3810(1)
O1 O -0.1392(7) 0.3974(3) 0.2796(3)
C9 C -0.1533(15) 0.4232(9) 0.1780(5)
C10 C 0.0181(17) 0.3496(10) 0.1339(7)
C11 C 0.0955(22) 0.2580(8) 0.2120(7)
C12 C -0.0092(14) 0.2855(6) 0.3047(5)
H24 H -0.2923 0.4101 0.1672
H25 H -0.1338 0.5043 0.1503
H26 H 0.1319 0.3937 0.0976
H27 H -0.0405 0.3160 0.0903
H28 H 0.2492 0.2552 0.2079
H29 H 0.0622 0.1832 0.2078
H30 H 0.0971 0.2902 0.3444
H31 H -0.0986 0.2264 0.3403
Si1 Si -0.5521(2) 0.8577(1) 0.3710(1)
Si2 Si -0.5353(3) 0.7670(2) 0.1261(1)
C1 C -0.5849(7) 0.7126(4) 0.3469(3)
C2 C -0.5786(8) 0.6750(4) 0.2539(4)
B1 B -0.6680(10) 0.5572(6) 0.2721(5)
B2 B -0.7546(9) 0.5206(5) 0.4001(5)
B3 B -0.6793(9) 0.6257(5) 0.4379(4)
B4 B -0.8164(9) 0.6649(5) 0.3300(4)
C3 C -0.3781(10) 0.9565(5) 0.2768(5)
C4 C -0.4201(11) 0.8246(5) 0.4843(5)
C5 C -0.8261(9) 0.9437(5) 0.3900(5)
C6 C -0.7136(11) 0.9118(6) 0.1068(5)
C7 C -0.6003(11) 0.6889(7) 0.0376(4)
C8 C -0.2429(9) 0.7871(6) 0.0957(5)
H1 H -0.5895(90) 0.4849(49) 0.3454(39)
H2 H -0.7145(90) 0.5212(49) 0.2208(39)
H3 H -0.8759(90) 0.4561(48) 0.4284(39)
H4 H -0.7448(90) 0.6502(47) 0.5109(39)
H5 H -0.9644(94) 0.7172(48) 0.3154(38)
H6 H -0.4371 0.9777 0.2156
H7 H -0.2347 0.9156 0.2680
H8 H -0.3730 1.0266 0.2986
H9 H -0.5010 0.7742 0.5366
H10 H -0.4143 0.8968 0.5027
H11 H -0.2760 0.7858 0.4720
H12 H -0.9197 0.8958 0.4381
H13 H -0.8855 0.9676 0.3288
H14 H -0.8130 1.0122 0.4123
H15 H -0.6885 0.9568 0.1508
H16 H -0.8622 0.8982 0.1190
H17 H -0.6815 0.9546 0.0401
H18 H -0.5683 0.7343 -0.0282
H19 H -0.7508 0.6792 0.0502
H20 H -0.5146 0.6130 0.0451
H21 H -0.2050 0.8273 0.1403
H22 H -0.2182 0.8331 0.0296
H23 H -0.1557 0.7117 0.1011
loop_
_geom_bond_atom_site_label_1
_geom_bond_atom_site_label_2
_geom_bond_site_symmetry_1
_geom_bond_site_symmetry_2
Na1 O1 1_555 1_555
Si1 C1 1_555 1_555
Si2 C2 1_555 1_555
C1 C2 1_555 1_555
C2 B1 1_555 1_555
B1 B2 1_555 1_555
B2 B3 1_555 1_555
B3 C1 1_555 1_555
B4 C1 1_555 1_555
C3 Si1 1_555 1_555
C4 Si1 1_555 1_555
C5 Si1 1_555 1_555
C6 Si2 1_555 1_555
C7 Si2 1_555 1_555
C8 Si2 1_555 1_555
O1 C9 1_555 1_555
C9 C10 1_555 1_555
C10 C11 1_555 1_555
C11 C12 1_555 1_555
C12 O1 1_555 1_555
H1 B1 1_555 1_555
H2 B1 1_555 1_555
H3 B2 1_555 1_555
H4 B3 1_555 1_555
H5 B4 1_555 1_555
H6 C3 1_555 1_555
H7 C3 1_555 1_555
H8 C3 1_555 1_555
H9 C4 1_555 1_555
H10 C4 1_555 1_555
H11 C4 1_555 1_555
H12 C5 1_555 1_555
H13 C5 1_555 1_555
H14 C5 1_555 1_555
H15 C6 1_555 1_555
H16 C6 1_555 1_555
H17 C6 1_555 1_555
H18 C7 1_555 1_555
H19 C7 1_555 1_555
H20 C7 1_555 1_555
H21 C8 1_555 1_555
H22 C8 1_555 1_555
H23 C8 1_555 1_555
H24 C9 1_555 1_555
H25 C9 1_555 1_555
H26 C10 1_555 1_555
H27 C10 1_555 1_555
H28 C11 1_555 1_555
H29 C11 1_555 1_555
H30 C12 1_555 1_555
H31 C12 1_555 1_555
C2 B4 1_555 1_555
B1 B4 1_555 1_555
B2 B4 1_555 1_555
B2 H1 1_555 1_555
B3 B4 1_555 1_555

#END
