
#######################################################################
#
#                 Cambridge Crystallographic Data Centre
#                                CCDC 
#
#######################################################################
#
# If this CIF has been generated from an entry in the Cambridge 
# Structural Database, then it will include bibliographic, chemical, 
# crystal, experimental, refinement or atomic coordinate data resulting 
# from the CCDC's data processing and validation procedures.
#
#######################################################################

data_KANYUU
_chemical_formula_moiety         'C36 H24 N2'
_chemical_name_systematic        4,4'-Dicarbazole-1,1'-biphenyl
_symmetry_cell_setting           monoclinic
_symmetry_space_group_name_H-M   'P 21/c'
_symmetry_Int_Tables_number      14
_space_group_name_Hall           '-P 2ybc'
loop_
_symmetry_equiv_pos_site_id
_symmetry_equiv_pos_as_xyz
1 x,y,z
2 -x,1/2+y,1/2-z
3 -x,-y,-z
4 x,1/2-y,1/2+z
_cell_length_a                   8.0120(4)
_cell_length_b                   16.0080(7)
_cell_length_c                   10.2428(5)
_cell_angle_alpha                90
_cell_angle_beta                 110.19(1)
_cell_angle_gamma                90
_cell_volume                     1232.98
_exptl_crystal_colour            colorless
_exptl_crystal_description       plate
_chemical_melting_point          270-272deg.C
_cell_formula_units_Z            2
loop_
_atom_site_label
_atom_site_type_symbol
_atom_site_fract_x
_atom_site_fract_y
_atom_site_fract_z
N1 N 0.35426(17) 0.76949(8) 0.29325(13)
C1 C 0.05043(19) 0.96478(9) 0.04338(16)
C2 C 0.1247(2) 0.90153(10) -0.01294(17)
C3 C 0.2224(2) 0.83738(10) 0.06775(17)
C4 C 0.24832(19) 0.83333(9) 0.20860(16)
C5 C 0.1717(2) 0.89455(10) 0.26674(16)
C6 C 0.0759(2) 0.95883(10) 0.18490(16)
C7 C 0.3439(2) 0.68412(9) 0.25866(16)
C8 C 0.2171(2) 0.64172(10) 0.15056(17)
C9 C 0.2358(2) 0.55600(10) 0.14391(18)
C10 C 0.3746(3) 0.51315(12) 0.2431(2)
C11 C 0.4978(2) 0.55529(11) 0.35049(19)
C12 C 0.4837(2) 0.64133(10) 0.36043(17)
C13 C 0.5820(2) 0.70301(10) 0.46048(17)
C14 C 0.4990(2) 0.78076(10) 0.41637(16)
C15 C 0.5609(2) 0.85345(11) 0.49214(18)
C16 C 0.7047(2) 0.84613(13) 0.6154(2)
C17 C 0.7870(2) 0.76911(13) 0.6615(2)
C18 C 0.7266(2) 0.69816(12) 0.58436(19)
H1 H 0.116(2) 0.9046(10) -0.1116(17)
H2 H 0.2765(19) 0.7958(9) 0.0287(15)
H3 H 0.185(2) 0.8897(10) 0.3638(18)
H4 H 0.0226(19) 1.0009(9) 0.2285(15)
H5 H 0.118(2) 0.6711(9) 0.0823(15)
H6 H 0.144(2) 0.5221(10) 0.0669(17)
H7 H 0.380(2) 0.4541(11) 0.2325(18)
H8 H 0.593(2) 0.5253(10) 0.4198(18)
H9 H 0.498(2) 0.9074(10) 0.4597(17)
H10 H 0.751(2) 0.8975(12) 0.671(2)
H11 H 0.884(2) 0.7633(9) 0.7523(17)
H12 H 0.782(2) 0.6435(10) 0.6174(18)
N1B N -0.35426(17) 1.23051(8) -0.29325(13)
C1B C -0.05043(19) 1.03522(9) -0.04338(16)
C2B C -0.1247(2) 1.09847(10) 0.01294(17)
C3B C -0.2224(2) 1.16262(10) -0.06775(17)
C4B C -0.24832(19) 1.16667(9) -0.20860(16)
C5B C -0.1717(2) 1.10545(10) -0.26674(16)
C6B C -0.0759(2) 1.04117(10) -0.18490(16)
C7B C -0.3439(2) 1.31588(9) -0.25866(16)
C8B C -0.2171(2) 1.35828(10) -0.15056(17)
C9B C -0.2358(2) 1.44400(10) -0.14391(18)
C10B C -0.3746(3) 1.48685(12) -0.2431(2)
C11B C -0.4978(2) 1.44471(11) -0.35049(19)
C12B C -0.4837(2) 1.35867(10) -0.36043(17)
C13B C -0.5820(2) 1.29699(10) -0.46048(17)
C14B C -0.4990(2) 1.21924(10) -0.41637(16)
C15B C -0.5609(2) 1.14655(11) -0.49214(18)
C16B C -0.7047(2) 1.15387(13) -0.6154(2)
C17B C -0.7870(2) 1.23089(13) -0.6615(2)
C18B C -0.7266(2) 1.30184(12) -0.58436(19)
H1B H -0.116(2) 1.0954(10) 0.1116(17)
H2B H -0.2765(19) 1.2042(9) -0.0287(15)
H3B H -0.185(2) 1.1103(10) -0.3638(18)
H4B H -0.0226(19) 0.9991(9) -0.2285(15)
H5B H -0.118(2) 1.3289(9) -0.0823(15)
H6B H -0.144(2) 1.4779(10) -0.0669(17)
H7B H -0.380(2) 1.5459(11) -0.2325(18)
H8B H -0.593(2) 1.4747(10) -0.4198(18)
H9B H -0.498(2) 1.0926(10) -0.4597(17)
H10B H -0.751(2) 1.1025(12) -0.671(2)
H11B H -0.884(2) 1.2367(9) -0.7523(17)
H12B H -0.782(2) 1.3565(10) -0.6174(18)
loop_
_geom_bond_atom_site_label_1
_geom_bond_atom_site_label_2
_geom_bond_site_symmetry_1
_geom_bond_site_symmetry_2
N1 C4 1_555 1_555
C1 C2 1_555 1_555
C2 C3 1_555 1_555
C3 C4 1_555 1_555
C4 C5 1_555 1_555
C5 C6 1_555 1_555
C6 C1 1_555 1_555
C7 N1 1_555 1_555
C8 C7 1_555 1_555
C9 C8 1_555 1_555
C10 C9 1_555 1_555
C11 C10 1_555 1_555
C12 C7 1_555 1_555
C13 C12 1_555 1_555
C14 N1 1_555 1_555
C15 C14 1_555 1_555
C16 C15 1_555 1_555
C17 C16 1_555 1_555
C18 C13 1_555 1_555
H1 C2 1_555 1_555
H2 C3 1_555 1_555
H3 C5 1_555 1_555
H4 C6 1_555 1_555
H5 C8 1_555 1_555
H6 C9 1_555 1_555
H7 C10 1_555 1_555
H8 C11 1_555 1_555
H9 C15 1_555 1_555
H10 C16 1_555 1_555
H11 C17 1_555 1_555
H12 C18 1_555 1_555
N1B C4B 1_555 1_555
C1B C1 1_555 1_555
C2B C1B 1_555 1_555
C3B C2B 1_555 1_555
C4B C3B 1_555 1_555
C5B C4B 1_555 1_555
C6B C1B 1_555 1_555
C7B N1B 1_555 1_555
C8B C7B 1_555 1_555
C9B C8B 1_555 1_555
C10B C9B 1_555 1_555
C11B C10B 1_555 1_555
C12B C7B 1_555 1_555
C13B C12B 1_555 1_555
C14B N1B 1_555 1_555
C15B C14B 1_555 1_555
C16B C15B 1_555 1_555
C17B C16B 1_555 1_555
C18B C13B 1_555 1_555
H1B C2B 1_555 1_555
H2B C3B 1_555 1_555
H3B C5B 1_555 1_555
H4B C6B 1_555 1_555
H5B C8B 1_555 1_555
H6B C9B 1_555 1_555
H7B C10B 1_555 1_555
H8B C11B 1_555 1_555
H9B C15B 1_555 1_555
H10B C16B 1_555 1_555
H11B C17B 1_555 1_555
H12B C18B 1_555 1_555
C11 C12 1_555 1_555
C13 C14 1_555 1_555
C17 C18 1_555 1_555
C5B C6B 1_555 1_555
C11B C12B 1_555 1_555
C13B C14B 1_555 1_555
C17B C18B 1_555 1_555

#END
