
#######################################################################
#
#                 Cambridge Crystallographic Data Centre
#                                CCDC 
#
#######################################################################
#
# If this CIF has been generated from an entry in the Cambridge 
# Structural Database, then it will include bibliographic, chemical, 
# crystal, experimental, refinement or atomic coordinate data resulting 
# from the CCDC's data processing and validation procedures.
#
#######################################################################

data_KAPBEL
_chemical_formula_moiety         'C38 H37 N9'
_chemical_name_systematic        
6-{1,3-bis[2,6-bis(propan-2-yl)phenyl]-1H-imidazol-3-ium-2-yl}-2,3,7,8-tetracyano-4-imino-4H-pyrrolo[1,2-a]pyrimidin-1-ide
_symmetry_cell_setting           monoclinic
_symmetry_space_group_name_H-M   'P 21/n'
_symmetry_Int_Tables_number      14
_space_group_name_Hall           '-P 2yn'
loop_
_symmetry_equiv_pos_site_id
_symmetry_equiv_pos_as_xyz
1 x,y,z
2 1/2-x,1/2+y,1/2-z
3 -x,-y,-z
4 1/2+x,1/2-y,1/2+z
_cell_length_a                   11.612(2)
_cell_length_b                   16.500(3)
_cell_length_c                   18.140(4)
_cell_angle_alpha                90
_cell_angle_beta                 97.51(3)
_cell_angle_gamma                90
_cell_volume                     3445.77
_exptl_crystal_colour            red
_exptl_crystal_description       block
_cell_formula_units_Z            4
_exptl_crystal_recrystallization_method tetrahydrofuran/pentane
loop_
_atom_site_label
_atom_site_type_symbol
_atom_site_fract_x
_atom_site_fract_y
_atom_site_fract_z
C1 C 0.4286(4) 0.3089(3) 0.2951(3)
C2 C 0.2572(4) 0.3284(3) 0.2284(3)
H1 H 0.1775 0.3413 0.2151
C3 C 0.3297(4) 0.2971(3) 0.1831(3)
H2 H 0.3105 0.2848 0.1318
C4 C 0.2772(4) 0.3787(3) 0.3606(2)
C5 C 0.3270(4) 0.4533(3) 0.3827(3)
C6 C 0.2878(4) 0.4893(3) 0.4437(3)
H3 H 0.3197 0.5399 0.4611
C7 C 0.2024(5) 0.4529(4) 0.4801(3)
H4 H 0.1802 0.4772 0.5236
C8 C 0.1509(4) 0.3825(4) 0.4533(3)
H5 H 0.0899 0.3603 0.4771
C9 C 0.1851(4) 0.3422(3) 0.3920(3)
C10 C 0.4064(4) 0.5002(3) 0.3365(3)
H6 H 0.4552 0.4600 0.3133
C11 C 0.4874(4) 0.5591(3) 0.3824(3)
H7 H 0.5357 0.5871 0.3499
H8 H 0.4413 0.5990 0.4059
H9 H 0.5373 0.5292 0.4209
C12 C 0.3300(4) 0.5453(3) 0.2734(3)
H10 H 0.2785 0.5065 0.2445
H11 H 0.2833 0.5863 0.2948
H12 H 0.3798 0.5716 0.2409
C13 C 0.1182(4) 0.2691(3) 0.3609(3)
H13 H 0.1632 0.2422 0.3244
C14 C 0.1001(4) 0.2073(3) 0.4216(2)
H14 H 0.0563 0.1608 0.3991
H15 H 0.1758 0.1890 0.4462
H16 H 0.0567 0.2328 0.4583
C15 C -0.0004(4) 0.2968(3) 0.3190(3)
H17 H -0.0443 0.2493 0.2987
H18 H -0.0446 0.3252 0.3536
H19 H 0.0128 0.3333 0.2784
C16 C 0.5439(4) 0.2710(4) 0.1924(2)
C17 C 0.5869(4) 0.3355(3) 0.1540(2)
C18 C 0.6899(4) 0.3206(3) 0.1251(2)
H20 H 0.7224 0.3624 0.0983
C19 C 0.7464(4) 0.2472(4) 0.1339(3)
H21 H 0.8178 0.2395 0.1145
C20 C 0.6990(4) 0.1842(3) 0.1711(2)
H22 H 0.7369 0.1331 0.1755
C21 C 0.5954(4) 0.1955(3) 0.2023(2)
C22 C 0.5200(4) 0.4135(3) 0.1357(3)
H23 H 0.4611 0.4189 0.1709
C23 C 0.5959(4) 0.4893(3) 0.1430(2)
H24 H 0.5475 0.5372 0.1304
H25 H 0.6344 0.4940 0.1942
H26 H 0.6548 0.4853 0.1090
C24 C 0.4546(4) 0.4091(3) 0.0560(2)
H27 H 0.4116 0.4596 0.0445
H28 H 0.5105 0.4014 0.0206
H29 H 0.4001 0.3634 0.0524
C25 C 0.5441(4) 0.1259(3) 0.2413(3)
H30 H 0.4724 0.1459 0.2606
C26 C 0.6300(4) 0.0968(3) 0.3080(2)
H31 H 0.5955 0.0518 0.3326
H32 H 0.7021 0.0787 0.2905
H33 H 0.6470 0.1416 0.3433
C27 C 0.5094(4) 0.0562(3) 0.1874(2)
H34 H 0.4765 0.0120 0.2140
H35 H 0.4514 0.0753 0.1470
H36 H 0.5781 0.0367 0.1667
C28 C 0.5178(4) 0.2984(3) 0.3583(3)
C29 C 0.6224(4) 0.3360(3) 0.3790(3)
C30 C 0.6773(4) 0.3020(3) 0.4465(3)
C31 C 0.6027(4) 0.2445(3) 0.4682(3)
C32 C 0.5362(5) 0.1424(3) 0.5330(3)
C33 C 0.4402(4) 0.1303(3) 0.4804(3)
C34 C 0.4234(4) 0.1768(3) 0.4130(3)
C35 C 0.6714(4) 0.4015(4) 0.3417(3)
C36 C 0.7872(5) 0.3204(3) 0.4856(3)
C37 C 0.5499(4) 0.0909(4) 0.5982(3)
C38 C 0.3599(5) 0.0675(4) 0.4896(3)
N1 N 0.3206(4) 0.3378(2) 0.2975(2)
N2 N 0.4362(3) 0.2865(2) 0.2250(2)
N3 N 0.6197(3) 0.1974(3) 0.5301(2)
N4 N 0.5055(3) 0.2415(2) 0.4137(2)
N5 N 0.7158(4) 0.4555(3) 0.3174(2)
N6 N 0.8775(4) 0.3325(2) 0.5180(2)
N7 N 0.5632(4) 0.0507(3) 0.6505(2)
N8 N 0.2953(4) 0.0162(3) 0.4986(2)
N9 N 0.3495(4) 0.1701(2) 0.3540(2)
H37 H 0.302(4) 0.125(3) 0.362(2)
loop_
_geom_bond_atom_site_label_1
_geom_bond_atom_site_label_2
_geom_bond_site_symmetry_1
_geom_bond_site_symmetry_2
C1 C28 1_555 1_555
C2 H1 1_555 1_555
C3 C2 1_555 1_555
H2 C3 1_555 1_555
C4 C5 1_555 1_555
C5 C6 1_555 1_555
C6 H3 1_555 1_555
C7 C6 1_555 1_555
H4 C7 1_555 1_555
C8 C7 1_555 1_555
H5 C8 1_555 1_555
C9 C4 1_555 1_555
C10 C5 1_555 1_555
H6 C10 1_555 1_555
C11 C10 1_555 1_555
H7 C11 1_555 1_555
H8 C11 1_555 1_555
H9 C11 1_555 1_555
C12 C10 1_555 1_555
H10 C12 1_555 1_555
H11 C12 1_555 1_555
H12 C12 1_555 1_555
C13 C9 1_555 1_555
H13 C13 1_555 1_555
C14 C13 1_555 1_555
H14 C14 1_555 1_555
H15 C14 1_555 1_555
H16 C14 1_555 1_555
C15 C13 1_555 1_555
H17 C15 1_555 1_555
H18 C15 1_555 1_555
H19 C15 1_555 1_555
C16 C17 1_555 1_555
C17 C18 1_555 1_555
C18 H20 1_555 1_555
C19 C18 1_555 1_555
H21 C19 1_555 1_555
C20 C19 1_555 1_555
H22 C20 1_555 1_555
C21 C16 1_555 1_555
C22 C17 1_555 1_555
H23 C22 1_555 1_555
C23 C22 1_555 1_555
H24 C23 1_555 1_555
H25 C23 1_555 1_555
H26 C23 1_555 1_555
C24 C22 1_555 1_555
H27 C24 1_555 1_555
H28 C24 1_555 1_555
H29 C24 1_555 1_555
C25 C21 1_555 1_555
H30 C25 1_555 1_555
C26 C25 1_555 1_555
H31 C26 1_555 1_555
H32 C26 1_555 1_555
H33 C26 1_555 1_555
C27 C25 1_555 1_555
H34 C27 1_555 1_555
H35 C27 1_555 1_555
H36 C27 1_555 1_555
C28 C29 1_555 1_555
C29 C30 1_555 1_555
C30 C31 1_555 1_555
C31 N3 1_555 1_555
C32 C33 1_555 1_555
C33 C34 1_555 1_555
C34 N4 1_555 1_555
C35 C29 1_555 1_555
C36 C30 1_555 1_555
C37 C32 1_555 1_555
C38 C33 1_555 1_555
N1 C1 1_555 1_555
N2 C1 1_555 1_555
N3 C32 1_555 1_555
N4 C28 1_555 1_555
N5 C35 1_555 1_555
N6 C36 1_555 1_555
N7 C37 1_555 1_555
N8 C38 1_555 1_555
N9 C34 1_555 1_555
H37 N9 1_555 1_555
C2 N1 1_555 1_555
C3 N2 1_555 1_555
C4 N1 1_555 1_555
C8 C9 1_555 1_555
C16 N2 1_555 1_555
C20 C21 1_555 1_555
C31 N4 1_555 1_555

#END
