
#######################################################################
#
#                 Cambridge Crystallographic Data Centre
#                                CCDC 
#
#######################################################################
#
# If this CIF has been generated from an entry in the Cambridge 
# Structural Database, then it will include bibliographic, chemical, 
# crystal, experimental, refinement or atomic coordinate data resulting 
# from the CCDC's data processing and validation procedures.
#
#######################################################################

data_KAPCAH
_chemical_name_common            
(1-Benzylpyrrolidin-2-yl)(di-1-naphthyl)methanol
_chemical_formula_moiety         'C32 H29 N1 O1'
_chemical_name_systematic        
'[((S)-1-benzylpyrrolidin-2-yl)bis(naphthalen-1-yl)]methanol'
_symmetry_cell_setting           orthorhombic
_symmetry_space_group_name_H-M   'P 21 21 21'
_symmetry_Int_Tables_number      19
_space_group_name_Hall           'P 2ac 2ab'
loop_
_symmetry_equiv_pos_site_id
_symmetry_equiv_pos_as_xyz
1 x,y,z
2 1/2-x,-y,1/2+z
3 -x,1/2+y,1/2-z
4 1/2+x,1/2-y,-z
_cell_length_a                   12.726(3)
_cell_length_b                   13.004(3)
_cell_length_c                   14.943(4)
_cell_angle_alpha                90
_cell_angle_beta                 90
_cell_angle_gamma                90
_cell_volume                     2472.9
_exptl_crystal_colour            colorless
_exptl_crystal_description       prism
_chemical_melting_point          '415-417 K'
_cell_formula_units_Z            4
loop_
_atom_site_label
_atom_site_type_symbol
_atom_site_fract_x
_atom_site_fract_y
_atom_site_fract_z
N1 N 0.28155(17) 0.52433(15) 0.24026(16)
O1 O 0.21476(12) 0.39207(16) 0.11318(11)
H1 H 0.2725 0.4169 0.1244
C1 C 0.14943(18) 0.3975(2) 0.19146(17)
C2 C 0.1854(2) 0.3164(2) 0.26065(18)
C3 C 0.2767(2) 0.2631(2) 0.2451(2)
H2 H 0.3145 0.2760 0.1930
C4 C 0.3148(3) 0.1886(3) 0.3068(3)
H3 H 0.3772 0.1538 0.2954
C5 C 0.2595(4) 0.1690(3) 0.3820(3)
H4 H 0.2847 0.1202 0.4221
C6 C 0.1652(3) 0.2200(3) 0.4015(2)
C7 C 0.1079(4) 0.1964(3) 0.4809(3)
H5 H 0.1321 0.1452 0.5192
C8 C 0.0192(5) 0.2475(4) 0.5005(3)
H6 H -0.0180 0.2307 0.5521
C9 C -0.0169(3) 0.3236(3) 0.4460(2)
H7 H -0.0779 0.3590 0.4610
C10 C 0.0360(2) 0.3482(2) 0.36917(19)
H8 H 0.0102 0.4009 0.3332
C11 C 0.1279(2) 0.2968(2) 0.3428(2)
C12 C 0.0381(2) 0.3727(2) 0.15924(17)
C13 C -0.0445(2) 0.4377(2) 0.17783(18)
H9 H -0.0312 0.4993 0.2073
C14 C -0.1482(2) 0.4134(3) 0.1536(2)
H10 H -0.2023 0.4583 0.1686
C15 C -0.1708(2) 0.3264(3) 0.1091(2)
H11 H -0.2399 0.3114 0.0938
C16 C -0.0888(2) 0.2573(3) 0.08547(19)
C17 C -0.1114(3) 0.1682(3) 0.0358(2)
H12 H -0.1805 0.1555 0.0188
C18 C -0.0355(3) 0.1001(3) 0.0116(2)
H13 H -0.0522 0.0412 -0.0206
C19 C 0.0694(2) 0.1211(3) 0.0366(2)
H14 H 0.1225 0.0758 0.0201
C20 C 0.0934(2) 0.2065(2) 0.08453(17)
H15 H 0.1630 0.2177 0.1006
C21 C 0.0165(2) 0.2796(2) 0.11115(18)
C22 C 0.1668(2) 0.50880(19) 0.22776(18)
H16 H 0.1300 0.5177 0.2848
C23 C 0.1332(2) 0.5937(2) 0.1611(2)
H17 H 0.0955 0.5642 0.1109
H18 H 0.0884 0.6438 0.1903
C24 C 0.2361(2) 0.6441(3) 0.1294(3)
H19 H 0.2629 0.6109 0.0760
H20 H 0.2262 0.7168 0.1174
C25 C 0.3082(3) 0.6281(2) 0.2069(3)
H21 H 0.3811 0.6312 0.1880
H22 H 0.2964 0.6796 0.2528
C26 C 0.3233(2) 0.5068(2) 0.33100(19)
H23 H 0.2952 0.4427 0.3541
H24 H 0.2999 0.5618 0.3700
C27 C 0.4941(3) 0.4366(2) 0.2770(2)
H25 H 0.4566 0.3969 0.2363
C28 C 0.4412(2) 0.5021(2) 0.33255(19)
C29 C 0.4982(3) 0.5595(2) 0.3920(2)
H26 H 0.4637 0.6036 0.4312
C30 C 0.6065(3) 0.5527(3) 0.3943(2)
H27 H 0.6444 0.5932 0.4341
C31 C 0.6583(3) 0.4866(3) 0.3385(3)
H28 H 0.7312 0.4817 0.3404
C32 C 0.6022(3) 0.4283(2) 0.2803(2)
H29 H 0.6367 0.3826 0.2424
loop_
_geom_bond_atom_site_label_1
_geom_bond_atom_site_label_2
_geom_bond_site_symmetry_1
_geom_bond_site_symmetry_2
N1 C22 1_555 1_555
O1 H1 1_555 1_555
C1 O1 1_555 1_555
C2 C1 1_555 1_555
C3 C2 1_555 1_555
H2 C3 1_555 1_555
C4 C3 1_555 1_555
H3 C4 1_555 1_555
C5 C4 1_555 1_555
H4 C5 1_555 1_555
C6 C5 1_555 1_555
C7 C6 1_555 1_555
H5 C7 1_555 1_555
C8 C7 1_555 1_555
H6 C8 1_555 1_555
C9 C8 1_555 1_555
H7 C9 1_555 1_555
C10 C9 1_555 1_555
H8 C10 1_555 1_555
C11 C2 1_555 1_555
C12 C1 1_555 1_555
C13 C12 1_555 1_555
H9 C13 1_555 1_555
C14 C13 1_555 1_555
H10 C14 1_555 1_555
C15 C14 1_555 1_555
H11 C15 1_555 1_555
C16 C15 1_555 1_555
C17 C16 1_555 1_555
H12 C17 1_555 1_555
C18 C17 1_555 1_555
H13 C18 1_555 1_555
C19 C18 1_555 1_555
H14 C19 1_555 1_555
C20 C19 1_555 1_555
H15 C20 1_555 1_555
C21 C12 1_555 1_555
C22 C1 1_555 1_555
H16 C22 1_555 1_555
C23 C22 1_555 1_555
H17 C23 1_555 1_555
H18 C23 1_555 1_555
C24 C23 1_555 1_555
H19 C24 1_555 1_555
H20 C24 1_555 1_555
C25 N1 1_555 1_555
H21 C25 1_555 1_555
H22 C25 1_555 1_555
C26 N1 1_555 1_555
H23 C26 1_555 1_555
H24 C26 1_555 1_555
C27 H25 1_555 1_555
C28 C26 1_555 1_555
C29 C28 1_555 1_555
H26 C29 1_555 1_555
C30 C29 1_555 1_555
H27 C30 1_555 1_555
C31 C30 1_555 1_555
H28 C31 1_555 1_555
C32 C27 1_555 1_555
H29 C32 1_555 1_555
C6 C11 1_555 1_555
C10 C11 1_555 1_555
C16 C21 1_555 1_555
C20 C21 1_555 1_555
C24 C25 1_555 1_555
C27 C28 1_555 1_555
C31 C32 1_555 1_555

#END
