
#######################################################################
#
#                 Cambridge Crystallographic Data Centre
#                                CCDC 
#
#######################################################################
#
# If this CIF has been generated from an entry in the Cambridge 
# Structural Database, then it will include bibliographic, chemical, 
# crystal, experimental, refinement or atomic coordinate data resulting 
# from the CCDC's data processing and validation procedures.
#
#######################################################################

data_KAPFAL
_chemical_formula_moiety         'C9 H15 N1 O5 S1'
_chemical_name_systematic        
'3-(t-butoxycarbonyl)-1,3-thiazolidine-4-carboxylic acid 1-oxide'
_symmetry_cell_setting           monoclinic
_symmetry_space_group_name_H-M   'P 21'
_symmetry_Int_Tables_number      4
_space_group_name_Hall           'P 2yb'
loop_
_symmetry_equiv_pos_site_id
_symmetry_equiv_pos_as_xyz
1 x,y,z
2 -x,1/2+y,-z
_cell_length_a                   6.2179(3)
_cell_length_b                   10.0744(4)
_cell_length_c                   10.4155(5)
_cell_angle_alpha                90
_cell_angle_beta                 107.042(5)
_cell_angle_gamma                90
_cell_volume                     623.795
_exptl_crystal_colour            colorless
_exptl_crystal_description       plate
_cell_formula_units_Z            2
loop_
_atom_site_label
_atom_site_type_symbol
_atom_site_fract_x
_atom_site_fract_y
_atom_site_fract_z
S1 S -1.05263(12) -0.43365(8) -0.56584(8)
O1 O -0.3615(6) -0.6478(3) -0.4299(3)
H1 H -0.272(8) -0.703(5) -0.423(5)
O2 O -0.5345(6) -0.7479(3) -0.6182(4)
O3 O -0.9911(4) -0.2955(2) -0.5949(3)
O4 O -0.5423(4) -0.4816(3) -0.8015(2)
O5 O -0.9091(4) -0.4892(3) -0.9262(2)
N1 N -0.8156(4) -0.5309(3) -0.7082(2)
C1 C -1.0481(5) -0.5319(4) -0.7099(3)
H2 H -1.0990 -0.6217 -0.7021
H3 H -1.1431 -0.4927 -0.7921
C2 C -0.7922(6) -0.5136(4) -0.4751(3)
H4 H -0.715(5) -0.457(4) -0.402(3)
H5 H -0.840(7) -0.595(5) -0.454(4)
C3 C -0.6562(5) -0.5306(3) -0.5742(3)
H6 H -0.5562 -0.4539 -0.5663
C4 C -0.5135(5) -0.6561(3) -0.5463(3)
C5 C -0.7397(5) -0.4981(3) -0.8130(3)
C6 C -0.8669(8) -0.4701(4) -1.0581(3)
C7 C -0.7398(12) -0.5908(7) -1.0830(6)
H7 H -0.5949 -0.5941 -1.0170
H8 H -0.7208 -0.5852 -1.1710
H9 H -0.8229 -0.6696 -1.0766
C8 C -0.7443(11) -0.3437(6) -1.0605(6)
H10 H -0.8266 -0.2713 -1.0378
H11 H -0.7295 -0.3299 -1.1487
H12 H -0.5976 -0.3484 -0.9966
C9 C -1.1026(10) -0.4663(7) -1.1516(4)
H13 H -1.1779 -0.5480 -1.1447
H14 H -1.0976 -0.4549 -1.2422
H15 H -1.1828 -0.3935 -1.1277
loop_
_geom_bond_atom_site_label_1
_geom_bond_atom_site_label_2
_geom_bond_site_symmetry_1
_geom_bond_site_symmetry_2
S1 O3 1_555 1_555
O1 H1 1_555 1_555
O2 C4 1_555 1_555
O4 C5 1_555 1_555
O5 C5 1_555 1_555
N1 C1 1_555 1_555
C1 S1 1_555 1_555
H2 C1 1_555 1_555
H3 C1 1_555 1_555
C2 S1 1_555 1_555
H4 C2 1_555 1_555
H5 C2 1_555 1_555
C3 N1 1_555 1_555
H6 C3 1_555 1_555
C4 O1 1_555 1_555
C5 N1 1_555 1_555
C6 O5 1_555 1_555
C7 C6 1_555 1_555
H7 C7 1_555 1_555
H8 C7 1_555 1_555
H9 C7 1_555 1_555
C8 C6 1_555 1_555
H10 C8 1_555 1_555
H11 C8 1_555 1_555
H12 C8 1_555 1_555
C9 C6 1_555 1_555
H13 C9 1_555 1_555
H14 C9 1_555 1_555
H15 C9 1_555 1_555
C2 C3 1_555 1_555
C3 C4 1_555 1_555

#END
