
#######################################################################
#
#                 Cambridge Crystallographic Data Centre
#                                CCDC 
#
#######################################################################
#
# If this CIF has been generated from an entry in the Cambridge 
# Structural Database, then it will include bibliographic, chemical, 
# crystal, experimental, refinement or atomic coordinate data resulting 
# from the CCDC's data processing and validation procedures.
#
#######################################################################

data_KAPHOA
_chemical_formula_moiety         'C26 H26 Cl1 N1 O5 S1'
_chemical_name_systematic        
'Methyl 2-(4-chlorophenyl)-3-(4-(morpholin-4-ylsulfonyl)phenyl)-2-phenylpropanoate'
_symmetry_cell_setting           orthorhombic
_symmetry_space_group_name_H-M   'P b c a'
_symmetry_Int_Tables_number      61
_space_group_name_Hall           '-P 2ac 2ab'
loop_
_symmetry_equiv_pos_site_id
_symmetry_equiv_pos_as_xyz
1 x,y,z
2 1/2-x,-y,1/2+z
3 -x,1/2+y,1/2-z
4 1/2+x,1/2-y,-z
5 -x,-y,-z
6 1/2+x,y,1/2-z
7 x,1/2-y,1/2+z
8 1/2-x,1/2+y,z
_cell_length_a                   13.4805(6)
_cell_length_b                   18.6319(8)
_cell_length_c                   19.8561(9)
_cell_angle_alpha                90
_cell_angle_beta                 90
_cell_angle_gamma                90
_cell_volume                     4987.2
_exptl_crystal_colour            colorless
_exptl_crystal_description       block
_cell_formula_units_Z            8
loop_
_atom_site_label
_atom_site_type_symbol
_atom_site_fract_x
_atom_site_fract_y
_atom_site_fract_z
Cl1 Cl 0.25679(7) 0.10699(5) 0.58961(4)
S1 S 0.11155(5) 0.14562(4) -0.04106(4)
O1 O 0.07442(13) 0.21461(10) -0.05924(10)
O2 O 0.07188(13) 0.08316(10) -0.07212(9)
O3 O 0.43915(14) 0.14224(10) -0.04091(12)
O4 O 0.19427(16) -0.02646(11) 0.26555(11)
O5 O 0.35041(14) 0.01124(10) 0.26803(10)
N1 N 0.23161(15) 0.14656(10) -0.05704(11)
C1 C 0.10120(18) 0.13619(13) 0.04661(13)
C2 C 0.09606(18) 0.06736(14) 0.07492(14)
H1 H 0.0919 0.0270 0.0475
C3 C 0.09732(18) 0.06037(14) 0.14402(14)
H2 H 0.0916 0.0151 0.1633
C4 C 0.10709(18) 0.12030(14) 0.18535(14)
C5 C 0.10715(18) 0.18820(14) 0.15676(14)
H3 H 0.1082 0.2287 0.1842
C6 C 0.10567(18) 0.19572(14) 0.08751(14)
H4 H 0.1077 0.2413 0.0684
C7 C 0.11645(19) 0.11198(15) 0.26119(14)
H5 H 0.0760 0.0717 0.2755
H6 H 0.0903 0.1547 0.2827
C8 C 0.22402(17) 0.09989(14) 0.28570(13)
C9 C 0.2526(2) 0.02156(15) 0.27072(14)
C10 C 0.3848(3) -0.06182(17) 0.25972(17)
H7 H 0.4560 -0.0624 0.2586
H8 H 0.3593 -0.0810 0.2183
H9 H 0.3620 -0.0905 0.2968
C11 C 0.29049(18) 0.15619(14) 0.25281(14)
C12 C 0.2920(2) 0.22438(16) 0.27854(15)
H10 H 0.2571 0.2339 0.3179
C13 C 0.3438(3) 0.27969(19) 0.24781(19)
H11 H 0.3429 0.3253 0.2668
C14 C 0.3964(3) 0.2679(2) 0.1896(2)
H12 H 0.4322 0.3047 0.1694
C15 C 0.3946(2) 0.2003(2) 0.16191(17)
H13 H 0.4283 0.1919 0.1218
C16 C 0.3431(2) 0.14393(17) 0.19287(15)
H14 H 0.3438 0.0984 0.1737
C17 C 0.23063(17) 0.10333(13) 0.36339(13)
C18 C 0.32304(18) 0.10100(13) 0.39526(13)
H15 H 0.3802 0.0988 0.3691
C19 C 0.33159(19) 0.10191(13) 0.46430(13)
H16 H 0.3938 0.1002 0.4845
C20 C 0.24759(19) 0.10542(13) 0.50318(13)
C21 C 0.1546(2) 0.10855(14) 0.47369(14)
H17 H 0.0978 0.1114 0.5001
C22 C 0.14788(19) 0.10727(14) 0.40410(13)
H18 H 0.0855 0.1091 0.3842
C23 C 0.28553(19) 0.20702(15) -0.02664(17)
H19 H 0.2864 0.2019 0.0220
H20 H 0.2525 0.2518 -0.0376
C24 C 0.3899(2) 0.20823(16) -0.05317(18)
H21 H 0.3887 0.2175 -0.1012
H22 H 0.4264 0.2469 -0.0317
C25 C 0.3883(2) 0.08566(17) -0.0732(2)
H23 H 0.4242 0.0412 -0.0663
H24 H 0.3858 0.0949 -0.1212
C26 C 0.2834(2) 0.07779(15) -0.04613(16)
H25 H 0.2491 0.0394 -0.0695
H26 H 0.2851 0.0664 0.0015
loop_
_geom_bond_atom_site_label_1
_geom_bond_atom_site_label_2
_geom_bond_site_symmetry_1
_geom_bond_site_symmetry_2
Cl1 C20 1_555 1_555
S1 O1 1_555 1_555
O2 S1 1_555 1_555
O3 C24 1_555 1_555
O4 C9 1_555 1_555
O5 C9 1_555 1_555
N1 S1 1_555 1_555
C1 S1 1_555 1_555
C2 C1 1_555 1_555
H1 C2 1_555 1_555
C3 C2 1_555 1_555
H2 C3 1_555 1_555
C4 C3 1_555 1_555
C5 C4 1_555 1_555
H3 C5 1_555 1_555
C6 C1 1_555 1_555
H4 C6 1_555 1_555
C7 C4 1_555 1_555
H5 C7 1_555 1_555
H6 C7 1_555 1_555
C8 C7 1_555 1_555
C9 C8 1_555 1_555
C10 O5 1_555 1_555
H7 C10 1_555 1_555
H8 C10 1_555 1_555
H9 C10 1_555 1_555
C11 C8 1_555 1_555
C12 C11 1_555 1_555
H10 C12 1_555 1_555
C13 C12 1_555 1_555
H11 C13 1_555 1_555
C14 C13 1_555 1_555
H12 C14 1_555 1_555
C15 C14 1_555 1_555
H13 C15 1_555 1_555
C16 C11 1_555 1_555
H14 C16 1_555 1_555
C17 C8 1_555 1_555
C18 C17 1_555 1_555
H15 C18 1_555 1_555
C19 C18 1_555 1_555
H16 C19 1_555 1_555
C20 C19 1_555 1_555
C21 C20 1_555 1_555
H17 C21 1_555 1_555
C22 C17 1_555 1_555
H18 C22 1_555 1_555
C23 N1 1_555 1_555
H19 C23 1_555 1_555
H20 C23 1_555 1_555
C24 C23 1_555 1_555
H21 C24 1_555 1_555
H22 C24 1_555 1_555
C25 O3 1_555 1_555
H23 C25 1_555 1_555
H24 C25 1_555 1_555
C26 N1 1_555 1_555
H25 C26 1_555 1_555
H26 C26 1_555 1_555
C5 C6 1_555 1_555
C15 C16 1_555 1_555
C21 C22 1_555 1_555
C25 C26 1_555 1_555

#END
