
#######################################################################
#
#                 Cambridge Crystallographic Data Centre
#                                CCDC 
#
#######################################################################
#
# If this CIF has been generated from an entry in the Cambridge 
# Structural Database, then it will include bibliographic, chemical, 
# crystal, experimental, refinement or atomic coordinate data resulting 
# from the CCDC's data processing and validation procedures.
#
#######################################################################

data_KAPKAO
_chemical_formula_moiety         '0.5(C24 H44 N6 6+),C2 H6 N1 O6 P2 3-,7(H2 O1)'
_chemical_name_systematic        
'hemikis(3,6,9,16,19,22-Hexa-azatricyclo(22.2.2.2^11,14^)triaconta-1(26),11,13,24,27,29-hexaene) iminio-bis(methylphosphonate) heptahydrate'
_symmetry_cell_setting           monoclinic
_symmetry_space_group_name_H-M   'P 21/n'
_symmetry_Int_Tables_number      14
_space_group_name_Hall           '-P 2yn'
loop_
_symmetry_equiv_pos_site_id
_symmetry_equiv_pos_as_xyz
1 x,y,z
2 1/2-x,1/2+y,1/2-z
3 -x,-y,-z
4 1/2+x,1/2-y,1/2+z
_cell_length_a                   9.447(6)
_cell_length_b                   18.891(11)
_cell_length_c                   13.612(8)
_cell_angle_alpha                90
_cell_angle_beta                 90.388(9)
_cell_angle_gamma                90
_cell_volume                     2429.19
_exptl_crystal_colour            colorless
_exptl_crystal_description       needle
_cell_formula_units_Z            4
loop_
_atom_site_label
_atom_site_type_symbol
_atom_site_fract_x
_atom_site_fract_y
_atom_site_fract_z
P1 P 0.01141(3) 0.068684(15) 0.36144(2)
P2 P 0.44032(3) -0.100323(15) 0.37059(2)
O1 O 0.45339(9) -0.05437(5) 0.27908(6)
O2 O -0.09688(8) 0.00932(4) 0.37915(6)
O3 O -0.01063(9) 0.10430(4) 0.26250(6)
O4 O 0.02102(9) 0.11910(4) 0.44799(6)
O5 O 0.58342(9) -0.11013(5) 0.42132(6)
N3 N 0.19356(10) -0.03109(5) 0.43492(7)
O6 O 0.35852(9) -0.16817(5) 0.35076(7)
C2 C 0.34112(12) -0.05114(7) 0.46236(8)
C3 C 0.18239(12) 0.02410(6) 0.35637(8)
H22 H 0.1980(17) 0.0005(8) 0.2938(12)
H31 H 0.2567(18) 0.0575(9) 0.3668(12)
H36 H 0.3859(17) -0.0068(9) 0.4773(12)
H39 H 0.3338(17) -0.0804(9) 0.5198(12)
H40 H 0.1477(17) -0.0687(9) 0.4155(12)
H41 H 0.1532(19) -0.0167(9) 0.4890(13)
N1 N 0.74867(11) -0.20141(5) 0.51670(7)
N2 N 0.82946(11) -0.12918(5) 0.32578(7)
N4 N 0.29988(11) 0.00237(5) 0.77094(7)
C1 C 0.78488(12) -0.24071(6) 0.42445(8)
C4 C 0.42440(12) -0.11279(6) 0.77502(8)
C5 C 0.88803(12) -0.19888(6) 0.36269(8)
C6 C 0.45283(13) -0.19354(6) 0.63864(8)
C7 C 0.56577(13) -0.12318(6) 0.80041(9)
C8 C 0.36798(13) -0.14974(6) 0.69508(9)
C9 C 0.78627(13) -0.12918(6) 0.21962(8)
C10 C 0.33363(13) -0.06190(6) 0.83222(9)
C11 C 0.65042(12) -0.16825(6) 0.74502(9)
C12 C 0.68677(13) -0.24698(6) 0.59613(9)
C13 C 0.59546(12) -0.20262(6) 0.66247(8)
C14 C 0.78556(13) -0.05554(6) 0.17388(9)
H1 H 0.2483(17) -0.0833(8) 0.8484(11)
H2 H 0.8292(17) -0.2852(9) 0.4436(11)
H3 H 0.8555(17) -0.1569(8) 0.1841(12)
H4 H 0.3803(16) -0.0464(8) 0.8906(12)
H5 H 0.7447(17) -0.0590(8) 0.1115(12)
H6 H 0.6953(18) -0.1530(8) 0.2142(12)
H7 H 0.6325(16) -0.2816(8) 0.5651(11)
H8 H 0.6047(17) -0.0992(8) 0.8542(12)
H9 H 0.8840(18) -0.0372(9) 0.1690(12)
H10 H 0.6978(17) -0.2508(8) 0.3907(11)
H12 H 0.9148(16) -0.2259(8) 0.3082(12)
H13 H 0.7468(19) -0.1743(9) 0.7625(12)
H14 H 0.7596(18) -0.2685(9) 0.6301(12)
H15 H 0.4136(18) -0.2188(9) 0.5839(12)
H16 H 0.9689(17) -0.1887(8) 0.3995(11)
H17 H 0.2734(18) -0.1456(9) 0.6795(12)
H20 H 0.2488(18) -0.0089(9) 0.7218(13)
H29 H 0.8912(18) -0.0942(9) 0.3360(12)
H32 H 0.6825(18) -0.1692(9) 0.5005(12)
H33 H 0.383(2) 0.0218(9) 0.7508(13)
H35 H 0.745(2) -0.1182(9) 0.3616(13)
H37 H 0.8260(19) -0.1778(9) 0.5383(12)
N1B N 0.25133(11) 0.20141(5) 0.48330(7)
N2B N 0.17054(11) 0.12918(5) 0.67422(7)
N4B N 0.70012(11) -0.00237(5) 0.22906(7)
C1B C 0.21512(12) 0.24071(6) 0.57555(8)
C4B C 0.57560(12) 0.11279(6) 0.22498(8)
C5B C 0.11197(12) 0.19888(6) 0.63731(8)
C6B C 0.54717(13) 0.19354(6) 0.36136(8)
C7B C 0.43423(13) 0.12318(6) 0.19959(9)
C8B C 0.63202(13) 0.14974(6) 0.30492(9)
C9B C 0.21373(13) 0.12918(6) 0.78038(8)
C10B C 0.66637(13) 0.06190(6) 0.16778(9)
C11B C 0.34958(12) 0.16825(6) 0.25498(9)
C12B C 0.31323(13) 0.24698(6) 0.40387(9)
C13B C 0.40454(12) 0.20262(6) 0.33753(8)
C14B C 0.21444(13) 0.05554(6) 0.82612(9)
H1B H 0.7517(17) 0.0833(8) 0.1516(11)
H2B H 0.1708(17) 0.2852(9) 0.5564(11)
H3B H 0.1445(17) 0.1569(8) 0.8159(12)
H4B H 0.6197(16) 0.0464(8) 0.1094(12)
H5B H 0.2553(17) 0.0590(8) 0.8885(12)
H6B H 0.3047(18) 0.1530(8) 0.7858(12)
H7B H 0.3675(16) 0.2816(8) 0.4349(11)
H8B H 0.3953(17) 0.0992(8) 0.1458(12)
H9B H 0.1160(18) 0.0372(9) 0.8310(12)
H10B H 0.3022(17) 0.2508(8) 0.6093(11)
H12B H 0.0852(16) 0.2259(8) 0.6918(12)
H13B H 0.2532(19) 0.1743(9) 0.2375(12)
H14B H 0.2404(18) 0.2685(9) 0.3699(12)
H15B H 0.5864(18) 0.2188(9) 0.4161(12)
H16B H 0.0311(17) 0.1887(8) 0.6005(11)
H17B H 0.7266(18) 0.1456(9) 0.3205(12)
H20B H 0.7512(18) 0.0089(9) 0.2782(13)
H29B H 0.1088(18) 0.0942(9) 0.6640(12)
H32B H 0.3175(18) 0.1692(9) 0.4995(12)
H33B H 0.617(2) -0.0218(9) 0.2492(13)
H35B H 0.255(2) 0.1182(9) 0.6384(13)
H37B H 0.1740(19) 0.1778(9) 0.4617(12)
O7 O 0.88715(10) 0.12538(5) 0.74856(8)
H26 H 0.871(2) 0.1033(10) 0.8006(15)
H38 H 0.813(2) 0.1423(11) 0.7304(15)
O8 O 0.86316(11) 0.05110(6) 0.93428(8)
H11 H 0.913(2) 0.0663(12) 0.9765(17)
H19 H 0.876(2) 0.0063(13) 0.9313(17)
O9 O 0.46572(11) 0.25248(5) 0.76613(7)
H27 H 0.523(2) 0.2332(11) 0.7312(15)
H30 H 0.475(2) 0.2973(12) 0.7622(14)
O10 O 0.45079(11) 0.20186(6) 0.95684(8)
H24 H 0.488(2) 0.1629(13) 0.9516(16)
H42 H 0.452(2) 0.2233(13) 0.9000(19)
O11 O 0.19082(11) 0.21130(5) 0.03837(7)
H25 H 0.272(2) 0.2086(11) 0.0202(16)
H34 H 0.181(2) 0.2502(11) 0.0750(16)
O12 O 0.05636(11) 0.08923(6) 0.07613(7)
H18 H 0.035(2) 0.0939(11) 0.1360(18)
H23 H 0.099(2) 0.1256(13) 0.0595(17)
O13 O 0.57362(12) 0.07356(6) 0.91613(8)
H21 H 0.570(2) 0.0674(10) 0.8541(16)
H28 H 0.655(3) 0.0672(12) 0.9292(17)
loop_
_geom_bond_atom_site_label_1
_geom_bond_atom_site_label_2
_geom_bond_site_symmetry_1
_geom_bond_site_symmetry_2
P1 O2 1_555 1_555
P2 O1 1_555 1_555
O3 P1 1_555 1_555
O4 P1 1_555 1_555
O5 P2 1_555 1_555
N1 C1 1_555 1_555
N2 C5 1_555 1_555
N3 C2 1_555 1_555
O6 P2 1_555 1_555
N4 C10 1_555 1_555
C1 C5 1_555 1_555
C2 P2 1_555 1_555
C3 P1 1_555 1_555
C4 C7 1_555 1_555
C5 H12 1_555 1_555
C6 C8 1_555 1_555
C7 C11 1_555 1_555
C8 C4 1_555 1_555
C9 N2 1_555 1_555
C10 C4 1_555 1_555
C11 C13 1_555 1_555
C12 N1 1_555 1_555
C13 C6 1_555 1_555
C14 C9 1_555 1_555
O7 H26 1_555 1_555
O8 H11 1_555 1_555
O9 H27 1_555 1_555
O10 H24 1_555 1_555
O11 H25 1_555 1_555
O12 H18 1_555 1_555
O13 H21 1_555 1_555
H1 C10 1_555 1_555
H2 C1 1_555 1_555
H3 C9 1_555 1_555
H4 C10 1_555 1_555
H5 C14 1_555 1_555
H6 C9 1_555 1_555
H7 C12 1_555 1_555
H8 C7 1_555 1_555
H9 C14 1_555 1_555
H10 C1 1_555 1_555
H13 C11 1_555 1_555
H14 C12 1_555 1_555
H15 C6 1_555 1_555
H16 C5 1_555 1_555
H17 C8 1_555 1_555
H19 O8 1_555 1_555
H20 N4 1_555 1_555
H22 C3 1_555 1_555
H23 O12 1_555 1_555
H28 O13 1_555 1_555
H29 N2 1_555 1_555
H30 O9 1_555 1_555
H31 C3 1_555 1_555
H32 N1 1_555 1_555
H33 N4 1_555 1_555
H34 O11 1_555 1_555
H35 N2 1_555 1_555
H36 C2 1_555 1_555
H37 N1 1_555 1_555
H38 O7 1_555 1_555
H39 C2 1_555 1_555
H40 N3 1_555 1_555
H41 N3 1_555 1_555
H42 O10 1_555 1_555
N1B C1B 1_555 1_555
N2B C5B 1_555 1_555
N4B C14 1_555 1_555
C1B C5B 1_555 1_555
C4B C7B 1_555 1_555
C5B H12B 1_555 1_555
C6B C8B 1_555 1_555
C7B C11B 1_555 1_555
C8B C4B 1_555 1_555
C9B N2B 1_555 1_555
C10B N4B 1_555 1_555
C11B C13B 1_555 1_555
C12B N1B 1_555 1_555
C13B C6B 1_555 1_555
C14B N4 1_555 1_555
H1B C10B 1_555 1_555
H2B C1B 1_555 1_555
H3B C9B 1_555 1_555
H4B C10B 1_555 1_555
H5B C14B 1_555 1_555
H6B C9B 1_555 1_555
H7B C12B 1_555 1_555
H8B C7B 1_555 1_555
H9B C14B 1_555 1_555
H10B C1B 1_555 1_555
H13B C11B 1_555 1_555
H14B C12B 1_555 1_555
H15B C6B 1_555 1_555
H16B C5B 1_555 1_555
H17B C8B 1_555 1_555
H20B N4B 1_555 1_555
H29B N2B 1_555 1_555
H32B N1B 1_555 1_555
H33B N4B 1_555 1_555
H35B N2B 1_555 1_555
H37B N1B 1_555 1_555
N3 C3 1_555 1_555
C12 C13 1_555 1_555
C4B C10B 1_555 1_555
C9B C14B 1_555 1_555
C12B C13B 1_555 1_555

#END
