
#######################################################################
#
#                 Cambridge Crystallographic Data Centre
#                                CCDC 
#
#######################################################################
#
# If this CIF has been generated from an entry in the Cambridge 
# Structural Database, then it will include bibliographic, chemical, 
# crystal, experimental, refinement or atomic coordinate data resulting 
# from the CCDC's data processing and validation procedures.
#
#######################################################################

data_KAPPOJ
_chemical_formula_moiety         'C30 H18 N4 S1'
_chemical_name_systematic        
9,9'-(2,1,3-benzothiadiazole-5,6-diyl)bis(9H-carbazole)
_symmetry_cell_setting           triclinic
_symmetry_space_group_name_H-M   'P 1'
_symmetry_Int_Tables_number      1
_space_group_name_Hall           'P 1'
loop_
_symmetry_equiv_pos_site_id
_symmetry_equiv_pos_as_xyz
1 x,y,z
_cell_length_a                   8.3617(8)
_cell_length_b                   8.7261(8)
_cell_length_c                   8.8590(8)
_cell_angle_alpha                104.4510(10)
_cell_angle_beta                 94.1870(10)
_cell_angle_gamma                112.3440(10)
_cell_volume                     568.687
_exptl_crystal_colour            yellow
_exptl_crystal_description       prism
_cell_formula_units_Z            1
loop_
_atom_site_label
_atom_site_type_symbol
_atom_site_fract_x
_atom_site_fract_y
_atom_site_fract_z
S1 S 0.49611(6) 0.80527(6) 0.74131(5)
C1 C 0.4137(2) 0.5379(2) 0.53948(18)
N1 N 0.3503(2) 0.6086(2) 0.66070(19)
C2 C 0.5826(2) 0.6541(2) 0.52381(19)
N2 N 0.6439(2) 0.8122(2) 0.6326(2)
N3 N 0.3303(2) 0.15250(17) 0.20087(16)
C3 C 0.6718(2) 0.5973(2) 0.4072(2)
H1 H 0.785(4) 0.664(4) 0.401(3)
N4 N 0.6788(2) 0.36446(18) 0.19717(16)
C4 C 0.5900(2) 0.43122(18) 0.30775(17)
C5 C 0.4134(2) 0.31763(18) 0.31611(17)
C6 C 0.3278(2) 0.3680(2) 0.43058(19)
H2 H 0.211(4) 0.290(4) 0.436(3)
C7 C 0.2784(2) 0.1259(2) 0.03953(18)
C8 C 0.2783(2) 0.2470(2) -0.0369(2)
H3 H 0.321(4) 0.375(4) 0.027(3)
C9 C 0.2071(3) 0.1843(3) -0.1981(2)
H4 H 0.202(4) 0.269(4) -0.253(4)
C10 C 0.1359(3) 0.0071(3) -0.2787(2)
H5 H 0.069(5) -0.045(5) -0.399(4)
C11 C 0.1353(2) -0.1134(3) -0.2020(2)
H6 H 0.082(4) -0.240(4) -0.262(3)
C12 C 0.2081(2) -0.0541(2) -0.03998(18)
C13 C 0.2171(2) -0.1396(2) 0.0787(2)
C14 C 0.1645(3) -0.3138(2) 0.0737(3)
H7 H 0.118(5) -0.408(5) -0.025(4)
C15 C 0.1799(3) -0.3528(3) 0.2143(3)
H8 H 0.128(5) -0.475(5) 0.217(4)
C16 C 0.2484(3) -0.2215(3) 0.3593(3)
H9 H 0.254(5) -0.250(5) 0.458(4)
C17 C 0.3061(3) -0.0466(2) 0.3683(2)
H10 H 0.352(4) 0.048(4) 0.481(3)
C18 C 0.2894(2) -0.00871(19) 0.22618(19)
C19 C 0.7079(2) 0.3993(2) 0.05368(18)
C20 C 0.6842(2) 0.5257(2) -0.0026(2)
H11 H 0.648(4) 0.610(4) 0.064(4)
C21 C 0.7262(3) 0.5344(3) -0.1496(2)
H12 H 0.721(5) 0.626(5) -0.193(4)
C22 C 0.7865(3) 0.4180(3) -0.2394(2)
H13 H 0.813(4) 0.442(5) -0.341(4)
C23 C 0.8104(3) 0.2922(3) -0.1825(2)
H14 H 0.850(4) 0.216(4) -0.242(4)
C24 C 0.7734(2) 0.2838(2) -0.03248(19)
C25 C 0.7896(2) 0.17885(19) 0.06540(19)
C26 C 0.8553(2) 0.0510(2) 0.0500(2)
H15 H 0.897(4) 0.008(4) -0.050(4)
C27 C 0.8594(3) -0.0192(2) 0.1735(3)
H16 H 0.910(4) -0.105(4) 0.167(4)
C28 C 0.7977(3) 0.0342(3) 0.3117(3)
H17 H 0.797(4) -0.017(4) 0.397(4)
C29 C 0.7311(3) 0.1601(2) 0.3295(2)
H18 H 0.697(5) 0.206(5) 0.421(4)
C30 C 0.7290(2) 0.23084(19) 0.20523(19)
loop_
_geom_bond_atom_site_label_1
_geom_bond_atom_site_label_2
_geom_bond_site_symmetry_1
_geom_bond_site_symmetry_2
S1 N1 1_555 1_555
C1 N1 1_555 1_555
C2 C1 1_555 1_555
N2 S1 1_555 1_555
N3 C5 1_555 1_555
C3 C2 1_555 1_555
H1 C3 1_555 1_555
N4 C4 1_555 1_555
C4 C3 1_555 1_555
C5 C4 1_555 1_555
C6 C1 1_555 1_555
H2 C6 1_555 1_555
C7 N3 1_555 1_555
C8 C7 1_555 1_555
H3 C8 1_555 1_555
C9 C8 1_555 1_555
H4 C9 1_555 1_555
C10 C9 1_555 1_555
H5 C10 1_555 1_555
C11 C10 1_555 1_555
H6 C11 1_555 1_555
C12 C7 1_555 1_555
C13 C12 1_555 1_555
C14 C13 1_555 1_555
H7 C14 1_555 1_555
C15 C14 1_555 1_555
H8 C15 1_555 1_555
C16 C15 1_555 1_555
H9 C16 1_555 1_555
C17 C16 1_555 1_555
H10 C17 1_555 1_555
C18 N3 1_555 1_555
C19 N4 1_555 1_555
C20 C19 1_555 1_555
H11 C20 1_555 1_555
C21 C20 1_555 1_555
H12 C21 1_555 1_555
C22 C21 1_555 1_555
H13 C22 1_555 1_555
C23 C22 1_555 1_555
H14 C23 1_555 1_555
C24 C19 1_555 1_555
C25 C24 1_555 1_555
C26 C25 1_555 1_555
H15 C26 1_555 1_555
C27 C26 1_555 1_555
H16 C27 1_555 1_555
C28 C27 1_555 1_555
H17 C28 1_555 1_555
C29 C28 1_555 1_555
H18 C29 1_555 1_555
C30 N4 1_555 1_555
C2 N2 1_555 1_555
C5 C6 1_555 1_555
C11 C12 1_555 1_555
C13 C18 1_555 1_555
C17 C18 1_555 1_555
C23 C24 1_555 1_555
C25 C30 1_555 1_555
C29 C30 1_555 1_555

#END
