
#######################################################################
#
#                 Cambridge Crystallographic Data Centre
#                                CCDC 
#
#######################################################################
#
# If this CIF has been generated from an entry in the Cambridge 
# Structural Database, then it will include bibliographic, chemical, 
# crystal, experimental, refinement or atomic coordinate data resulting 
# from the CCDC's data processing and validation procedures.
#
#######################################################################

data_KAPTOL
_chemical_formula_moiety         'C100 H128 N8 O16,8(C1 H4 O1),1.5(H2 O1)'
_chemical_name_systematic        
'61,77,101,105-Tetramethoxy-4,15,21,32,38,49,86,97-octaoxa-55,57,81,83,102,104,106,108-octaazatridecacyclo(50.33.12.3^18,72^.3^35,66^.1^3,84^.1^16,20^.1^33,37^1^50,54^.1^58,62^.1^60,78^.1^64,68^.1^70,74^.1^76,80^) dodecahecta-1,3(98),16(112),17,19,33(111),34,36,50(110),51,53,58(109),59,61,64 (105),65,67,70(101),71,73,76(99),77,79,84-tetracosaene-56,82,103,107-tetraone methanol solvate sesquihydrate'
_symmetry_cell_setting           triclinic
_symmetry_space_group_name_H-M   'P -1'
_symmetry_Int_Tables_number      2
_space_group_name_Hall           '-P 1'
loop_
_symmetry_equiv_pos_site_id
_symmetry_equiv_pos_as_xyz
1 x,y,z
2 -x,-y,-z
_cell_length_a                   18.8106(15)
_cell_length_b                   23.1537(18)
_cell_length_c                   28.968(2)
_cell_angle_alpha                98.409(6)
_cell_angle_beta                 104.443(6)
_cell_angle_gamma                102.706(6)
_cell_volume                     11645.5
_exptl_crystal_colour            colorless
_exptl_crystal_description       block
_chemical_melting_point          'above 290 deg.C(dec.)'
_cell_formula_units_Z            4
_exptl_crystal_recrystallization_method tetrahydrofuran/methanol
loop_
_atom_site_label
_atom_site_type_symbol
_atom_site_fract_x
_atom_site_fract_y
_atom_site_fract_z
C1 C 0.5225(5) 0.6888(5) 0.9867(3)
H1 H 0.4923 0.6510 0.9921
H2 H 0.5031 0.7227 0.9987
C2 C 0.7425(5) 0.6167(4) 1.0814(3)
H3 H 0.6994 0.5835 1.0818
H4 H 0.7738 0.6348 1.1155
C3 C 0.7655(4) 0.5066(3) 0.9242(3)
H5 H 0.7246 0.4705 0.9227
H6 H 0.8038 0.4924 0.9110
C4 C 0.5403(4) 0.5754(3) 0.8298(3)
H7 H 0.5111 0.5369 0.8349
H8 H 0.5253 0.5748 0.7944
C5 C 0.5142(4) 0.6836(4) 0.9340(3)
C6 C 0.5214(4) 0.6326(4) 0.9051(3)
C7 C 0.5212(4) 0.6283(3) 0.8571(3)
C8 C 0.5087(4) 0.6768(3) 0.8352(3)
H9 H 0.5089 0.6755 0.8023
C9 C 0.4962(4) 0.7268(3) 0.8616(3)
C10 C 0.5008(4) 0.7312(4) 0.9101(3)
H10 H 0.4949 0.7668 0.9280
O1 O 0.5320(3) 0.5845(3) 0.9274(2)
C11 C 0.4605(6) 0.5440(5) 0.9231(5)
H11 H 0.4690 0.5109 0.9395
H12 H 0.4330 0.5274 0.8885
H13 H 0.4304 0.5660 0.9384
N1 N 0.4757(4) 0.7711(3) 0.8351(2)
H14 H 0.4553 0.7596 0.8033
C12 C 0.4860(5) 0.8313(4) 0.8566(3)
O2 O 0.5288(4) 0.8560(3) 0.8976(2)
N2 N 0.4433(4) 0.8581(3) 0.8263(2)
H15 H 0.4212 0.8372 0.7962
C13 C 0.7120(4) 0.6646(4) 1.0585(2)
C14 C 0.6342(5) 0.6586(4) 1.0404(3)
C15 C 0.6071(4) 0.7002(4) 1.0151(3)
C16 C 0.6583(5) 0.7497(4) 1.0116(3)
H16 H 0.6403 0.7783 0.9948
C17 C 0.7370(5) 0.7596(4) 1.0321(3)
C18 C 0.7628(4) 0.7149(4) 1.0538(3)
H17 H 0.8160 0.7193 1.0656
O3 O 0.5820(3) 0.6090(3) 1.04625(19)
C19 C 0.5548(5) 0.6251(5) 1.0872(3)
H18 H 0.5186 0.5896 1.0905
H19 H 0.5294 0.6573 1.0820
H20 H 0.5979 0.6395 1.1169
N3 N 0.7850(4) 0.8139(4) 1.0280(3)
H21 H 0.7660 0.8302 1.0037
C20 C 0.8577(5) 0.8445(5) 1.0570(3)
O4 O 0.8964(4) 0.8215(3) 1.0859(2)
N4 N 0.8789(4) 0.9005(4) 1.0502(3)
H22 H 0.8434 0.9128 1.0311
C21 C 0.8020(4) 0.5390(3) 0.9759(3)
C22 C 0.7588(4) 0.5593(3) 1.0045(3)
C23 C 0.7909(4) 0.5911(4) 1.0527(2)
C24 C 0.8684(5) 0.6005(4) 1.0735(3)
H23 H 0.8909 0.6210 1.1067
C25 C 0.9140(5) 0.5807(4) 1.0470(3)
C26 C 0.8809(4) 0.5495(4) 0.9989(3)
H24 H 0.9117 0.5349 0.9810
O5 O 0.6820(3) 0.5512(2) 0.98314(18)
C27 C 0.6351(5) 0.4959(4) 0.9896(3)
H25 H 0.5814 0.4923 0.9738
H26 H 0.6429 0.4971 1.0245
H27 H 0.6494 0.4610 0.9749
N5 N 0.9925(4) 0.5908(4) 1.0709(2)
H28 H 1.0048 0.5846 1.1008
C28 C 1.0509(4) 0.6093(3) 1.0514(3)
O6 O 1.0395(3) 0.6153(3) 1.0090(2)
N6 N 1.1198(4) 0.6184(3) 1.0830(2)
H29 H 1.1208 0.6147 1.1130
C29 C 0.6252(4) 0.5805(3) 0.8476(2)
C30 C 0.6543(4) 0.5389(3) 0.8721(3)
C31 C 0.7309(4) 0.5475(3) 0.8918(2)
C32 C 0.7803(4) 0.5973(3) 0.8851(2)
H30 H 0.8336 0.6038 0.8986
C33 C 0.7536(4) 0.6378(3) 0.8593(3)
C34 C 0.6771(4) 0.6304(3) 0.8419(3)
H31 H 0.6588 0.6594 0.8258
O7 O 0.6027(3) 0.4870(2) 0.8764(2)
C35 C 0.5863(5) 0.4374(4) 0.8362(3)
H32 H 0.5507 0.4022 0.8405
H33 H 0.6336 0.4271 0.8346
H34 H 0.5635 0.4489 0.8058
N7 N 0.8093(4) 0.6873(3) 0.8545(3)
H35 H 0.8568 0.6906 0.8707
C36 C 0.7982(4) 0.7299(3) 0.8282(3)
O8 O 0.7376(3) 0.7307(3) 0.8025(2)
N8 N 0.8655(4) 0.7731(3) 0.8351(3)
H36 H 0.9063 0.7692 0.8559
C37 C 0.5405(15) 1.053(2) 0.9836(14)
H37 H 0.5917 1.0533 0.9802
H38 H 0.5233 1.0216 1.0010
C38 C 0.534(3) 1.1167(17) 1.0045(14)
H39 H 0.4817 1.1205 0.9897
H40 H 0.5430 1.1229 1.0403
C39 C 0.5935(13) 1.1645(14) 0.9921(7)
H41 H 0.5659 1.1763 0.9627
H42 H 0.6094 1.2006 1.0191
C40 C 0.6636(14) 1.1545(8) 0.9832(6)
H43 H 0.6940 1.1441 1.0124
H44 H 0.6500 1.1194 0.9556
C41 C 0.7100(9) 1.2057(5) 0.9722(5)
H45 H 0.7271 1.2397 1.0010
H46 H 0.6781 1.2184 0.9449
C42 C 0.7785(7) 1.1950(4) 0.9588(4)
H47 H 0.7614 1.1616 0.9296
H48 H 0.8044 1.2319 0.9498
C43 C 0.8340(10) 1.1798(6) 0.9974(5)
H49 H 0.8082 1.1429 1.0064
H50 H 0.8511 1.2132 1.0266
C44 C 0.9041(12) 1.1691(9) 0.9835(6)
H51 H 0.9305 1.2062 0.9751
H52 H 0.8871 1.1360 0.9541
C45 C 0.9617(18) 1.1522(11) 1.0250(9)
H53 H 1.0109 1.1830 1.0322
H54 H 0.9440 1.1584 1.0544
C46 C 0.9752(9) 1.1067(5) 1.0224(4)
H55 H 0.9851 1.0971 0.9906
H56 H 0.9282 1.0763 1.0210
C47 C 0.4294(4) 0.9167(3) 0.8370(3)
C48 C 0.4632(6) 0.9559(4) 0.8813(4)
H57 H 0.4989 0.9460 0.9064
C49 C 0.4442(6) 1.0111(4) 0.8890(4)
O9 O 0.4772(5) 1.0510(3) 0.9319(3)
C50 C 0.3918(5) 1.0245(4) 0.8522(4)
H58 H 0.3783 1.0615 0.8576
C51 C 0.3594(5) 0.9850(4) 0.8083(4)
O10 O 0.3089(5) 1.0036(3) 0.7751(3)
C52 C 0.3775(5) 0.9291(4) 0.7999(3)
H59 H 0.3545 0.9010 0.7696
C53 C 1.2166(6) 1.0014(5) 1.1582(4)
H60 H 1.2168 1.0440 1.1690
H61 H 1.2502 0.9900 1.1855
C54 C 1.2455(8) 0.9971(9) 1.1191(6)
H62 H 1.2161 1.0129 1.0929
H63 H 1.2417 0.9542 1.1061
C55 C 1.3306(10) 1.0349(7) 1.1369(7)
H64 H 1.3522 1.0335 1.1090
H65 H 1.3337 1.0777 1.1497
C56 C 1.3760(7) 1.0108(5) 1.1758(5)
H66 H 1.3473 1.0067 1.2000
H67 H 1.4236 1.0433 1.1922
C57 C 1.3994(9) 0.9534(5) 1.1672(7)
H68 H 1.3542 0.9240 1.1433
H69 H 1.4380 0.9620 1.1496
C58 C 1.4276(13) 0.9212(7) 1.2008(7)
H70 H 1.3884 0.9065 1.2168
H71 H 1.4728 0.9485 1.2263
C59 C 1.4508(9) 0.8650(6) 1.1758(5)
H72 H 1.4066 0.8380 1.1494
H73 H 1.4925 0.8792 1.1616
C60 C 1.4752(9) 0.8333(8) 1.2129(5)
H74 H 1.4331 0.8210 1.2272
H75 H 1.5185 0.8616 1.2391
C61 C 1.5005(7) 0.7749(9) 1.1953(5)
H76 H 1.5534 0.7882 1.1936
H77 H 1.5011 0.7501 1.2204
C62 C 1.4505(8) 0.7339(8) 1.1454(5)
H78 H 1.4422 0.7573 1.1194
H79 H 1.4722 0.7006 1.1352
C63 C 0.9517(5) 0.9432(4) 1.0698(3)
C64 C 1.0127(5) 0.9329(4) 1.1017(3)
H80 H 1.0080 0.8963 1.1133
C65 C 1.0812(5) 0.9773(4) 1.1166(3)
O11 O 1.1413(4) 0.9637(3) 1.1474(2)
C66 C 1.0899(6) 1.0325(4) 1.1022(3)
H81 H 1.1373 1.0627 1.1136
C67 C 1.0257(6) 1.0420(4) 1.0702(3)
O12 O 1.0352(5) 1.0967(3) 1.0579(2)
C68 C 0.9576(6) 0.9984(5) 1.0544(3)
H82 H 0.9145 1.0054 1.0331
C69 C 1.2210(8) 0.5888(5) 0.9355(6)
H83 H 1.1835 0.6130 0.9309
H84 H 1.1951 0.5484 0.9394
C70 C 1.2496(9) 0.5819(5) 0.8922(7)
H85 H 1.2056 0.5626 0.8629
H86 H 1.2828 0.5540 0.8959
C71 C 1.2938(6) 0.6402(4) 0.8837(4)
H87 H 1.3406 0.6574 0.9114
H88 H 1.3097 0.6308 0.8539
C72 C 1.2506(6) 0.6878(4) 0.8778(4)
H89 H 1.2029 0.6705 0.8506
H90 H 1.2365 0.6988 0.9080
C73 C 1.2961(8) 0.7441(5) 0.8675(4)
H91 H 1.3491 0.7532 0.8887
H92 H 1.2974 0.7347 0.8333
C74 C 1.2702(16) 0.8002(8) 0.8744(6)
H93 H 1.2380 0.7940 0.8965
H94 H 1.3167 0.8325 0.8936
C75 C 1.2365(12) 0.8232(8) 0.8435(5)
H95 H 1.1931 0.7903 0.8213
H96 H 1.2714 0.8358 0.8241
C76 C 1.2042(8) 0.8772(6) 0.8557(4)
H97 H 1.1935 0.8765 0.8875
H98 H 1.2445 0.9149 0.8602
C77 C 1.1347(5) 0.8805(4) 0.8202(4)
H99 H 1.0957 0.8412 0.8123
H100 H 1.1466 0.8875 0.7897
C78 C 1.1024(5) 0.9304(4) 0.8388(4)
H101 H 1.0865 0.9212 0.8677
H102 H 1.1433 0.9688 0.8498
C79 C 1.1911(5) 0.6335(4) 1.0735(3)
C80 C 1.1976(5) 0.6180(3) 1.0274(4)
H103 H 1.1540 0.5986 1.0005
C81 C 1.2689(5) 0.6315(5) 1.0217(5)
O13 O 1.2838(4) 0.6186(4) 0.9787(4)
C82 C 1.3330(5) 0.6625(5) 1.0677(6)
H104 H 1.3841 0.6703 1.0663
C83 C 1.3198(8) 0.6793(5) 1.1109(4)
O14 O 1.3848(6) 0.7130(3) 1.1580(3)
C84 C 1.2517(6) 0.6630(5) 1.1144(5)
H105 H 1.2429 0.6712 1.1454
C85 C 0.7850(5) 0.9493(4) 0.7066(3)
H106 H 0.8257 0.9468 0.6910
H107 H 0.8012 0.9886 0.7302
C86 C 0.7125(5) 0.9450(4) 0.6688(3)
H108 H 0.6935 0.9033 0.6486
H109 H 0.7240 0.9728 0.6472
C87 C 0.6492(5) 0.9598(4) 0.6883(3)
H110 H 0.6638 1.0036 0.7029
H111 H 0.6438 0.9375 0.7144
C88 C 0.5717(5) 0.9435(4) 0.6489(3)
H112 H 0.5794 0.9591 0.6200
H113 H 0.5527 0.8988 0.6389
C89 C 0.5110(5) 0.9681(4) 0.6647(3)
H114 H 0.5053 0.9549 0.6949
H115 H 0.5275 1.0129 0.6722
C90 C 0.4346(6) 0.9464(4) 0.6256(3)
H116 H 0.4177 0.9017 0.6197
H117 H 0.4420 0.9571 0.5950
C91 C 0.3699(6) 0.9720(4) 0.6370(4)
H118 H 0.3855 1.0167 0.6414
H119 H 0.3239 0.9563 0.6085
C92 C 0.3495(5) 0.9565(4) 0.6820(4)
H120 H 0.3408 0.9123 0.6799
H121 H 0.3928 0.9775 0.7113
C93 C 0.2792(6) 0.9747(5) 0.6873(4)
H122 H 0.2358 0.9523 0.6584
H123 H 0.2873 1.0184 0.6873
C94 C 0.2579(6) 0.9629(5) 0.7332(4)
H124 H 0.2057 0.9669 0.7302
H125 H 0.2581 0.9209 0.7363
C95 C 0.8756(5) 0.8231(3) 0.8120(3)
C96 C 0.8179(4) 0.8398(3) 0.7823(3)
H126 H 0.7665 0.8176 0.7765
C97 C 0.8343(4) 0.8891(3) 0.7606(3)
O15 O 0.7732(3) 0.9013(2) 0.7313(2)
C98 C 0.9093(5) 0.9217(3) 0.7691(3)
H127 H 0.9209 0.9553 0.7543
C99 C 0.9676(4) 0.9046(3) 0.7996(3)
O16 O 1.0396(3) 0.9390(3) 0.8046(3)
C100 C 0.9529(4) 0.8553(3) 0.8204(3)
H128 H 0.9933 0.8431 0.8399
C101 C 0.6174(4) 0.2650(3) 0.7134(2)
H129 H 0.5661 0.2561 0.7182
H130 H 0.6553 0.2832 0.7457
C102 C 0.4932(4) 0.3795(3) 0.5921(2)
H131 H 0.4477 0.3620 0.6020
H132 H 0.5009 0.4239 0.5972
C103 C 0.4277(4) 0.1967(3) 0.4563(2)
H133 H 0.4161 0.1861 0.4204
H134 H 0.3811 0.1790 0.4650
C104 C 0.5423(4) 0.0800(3) 0.5784(3)
H135 H 0.5554 0.0413 0.5706
H136 H 0.4899 0.0704 0.5814
C105 C 0.6226(4) 0.3099(3) 0.6799(2)
C106 C 0.5589(4) 0.3277(3) 0.6571(2)
C107 C 0.5633(4) 0.3654(3) 0.6238(2)
C108 C 0.6325(4) 0.3875(3) 0.6161(2)
H137 H 0.6362 0.4145 0.5945
C109 C 0.6978(4) 0.3713(3) 0.6393(2)
C110 C 0.6919(4) 0.3320(3) 0.6708(2)
H138 H 0.7354 0.3199 0.6864
O17 O 0.4901(3) 0.3061(2) 0.66609(17)
C111 C 0.4799(5) 0.3466(4) 0.7050(3)
H139 H 0.4306 0.3299 0.7101
H140 H 0.4813 0.3862 0.6963
H141 H 0.5208 0.3515 0.7350
N9 N 0.7649(3) 0.3967(3) 0.6274(2)
H142 H 0.7595 0.4202 0.6062
C112 C 0.8359(4) 0.3902(3) 0.6439(3)
O18 O 0.8521(3) 0.3567(3) 0.6728(2)
N10 N 0.8865(4) 0.4233(3) 0.6262(3)
H143 H 0.8709 0.4502 0.6106
C113 C 0.4802(4) 0.3536(3) 0.5390(2)
C114 C 0.4543(3) 0.2912(3) 0.5209(2)
C115 C 0.4502(4) 0.2648(3) 0.4733(2)
C116 C 0.4695(4) 0.3036(3) 0.4424(2)
H144 H 0.4662 0.2870 0.4097
C117 C 0.4930(4) 0.3654(3) 0.4596(2)
C118 C 0.4986(4) 0.3916(3) 0.5081(2)
H145 H 0.5147 0.4343 0.5195
O19 O 0.4374(3) 0.2540(2) 0.55179(16)
C119 C 0.3601(4) 0.2436(4) 0.5532(3)
H146 H 0.3517 0.2174 0.5760
H147 H 0.3256 0.2240 0.5205
H148 H 0.3501 0.2824 0.5639
N11 N 0.5093(4) 0.4029(3) 0.4260(2)
H149 H 0.4771 0.3933 0.3965
C120 C 0.5706(4) 0.4524(3) 0.4362(3)
O20 O 0.6152(3) 0.4726(3) 0.4771(2)
N12 N 0.5737(4) 0.4752(3) 0.3960(2)
H150 H 0.5389 0.4556 0.3685
C121 C 0.4915(4) 0.1699(3) 0.4797(2)
C122 C 0.4843(4) 0.1321(3) 0.5124(2)
C123 C 0.5451(4) 0.1132(3) 0.5378(2)
C124 C 0.6137(4) 0.1282(3) 0.5256(2)
H151 H 0.6556 0.1145 0.5414
C125 C 0.6214(4) 0.1628(3) 0.4907(2)
C126 C 0.5614(4) 0.1851(3) 0.4693(2)
H152 H 0.5678 0.2111 0.4472
O21 O 0.4134(3) 0.1139(2) 0.52110(17)
C127 C 0.3724(5) 0.0534(4) 0.4942(4)
H153 H 0.3234 0.0419 0.5011
H154 H 0.4023 0.0252 0.5040
H155 H 0.3635 0.0519 0.4592
N13 N 0.6924(3) 0.1741(3) 0.4802(2)
H156 H 0.7311 0.1696 0.5025
C128 C 0.7080(4) 0.1911(3) 0.4402(2)
O22 O 0.6653(3) 0.2108(2) 0.41161(19)
N14 N 0.7758(3) 0.1831(3) 0.4356(2)
H157 H 0.8029 0.1700 0.4592
C129 C 0.5970(4) 0.1174(3) 0.6262(2)
C130 C 0.5818(4) 0.1689(3) 0.6499(2)
C131 C 0.6322(4) 0.2061(3) 0.6916(2)
C132 C 0.7000(4) 0.1925(3) 0.7126(2)
H158 H 0.7349 0.2182 0.7417
C133 C 0.7166(4) 0.1410(3) 0.6907(3)
C134 C 0.6666(4) 0.1048(3) 0.6484(3)
H159 H 0.6787 0.0703 0.6335
O23 O 0.5157(3) 0.1838(2) 0.62784(17)
C135 C 0.4520(5) 0.1594(4) 0.6442(3)
H160 H 0.4076 0.1715 0.6270
H161 H 0.4641 0.1748 0.6794
H162 H 0.4406 0.1151 0.6373
N15 N 0.7848(3) 0.1275(3) 0.7142(2)
H163 H 0.7989 0.1345 0.7463
C136 C 0.8310(4) 0.1041(3) 0.6904(3)
O24 O 0.8153(3) 0.0898(2) 0.64584(19)
N16 N 0.8950(3) 0.0995(3) 0.7219(2)
H164 H 0.8994 0.1108 0.7531
C137 C 1.1898(5) 0.5174(5) 0.5963(5)
H165 H 1.1678 0.4899 0.5638
H166 H 1.2261 0.4996 0.6168
C138 C 1.2302(13) 0.5752(13) 0.5911(12)
H167 H 1.2592 0.5678 0.5677
H168 H 1.2679 0.5959 0.6230
C139 C 1.1855(11) 0.6183(10) 0.5747(8)
H169 H 1.1542 0.6246 0.5969
H170 H 1.2216 0.6579 0.5778
C140 C 1.1400(9) 0.6006(7) 0.5292(6)
H171 H 1.1003 0.5637 0.5277
H172 H 1.1705 0.5886 0.5080
C141 C 1.0993(8) 0.6455(6) 0.5070(5)
H173 H 1.0754 0.6293 0.4716
H174 H 1.1372 0.6846 0.5114
C142 C 1.0367(7) 0.6560(6) 0.5319(4)
H175 H 1.0024 0.6162 0.5304
H176 H 1.0617 0.6756 0.5667
C143 C 0.9891(8) 0.6953(6) 0.5080(5)
H177 H 1.0238 0.7345 0.5084
H178 H 0.9630 0.6750 0.4734
C144 C 0.9305(7) 0.7077(5) 0.5322(5)
H179 H 0.9575 0.7296 0.5663
H180 H 0.8983 0.6682 0.5335
C145 C 0.8787(8) 0.7433(5) 0.5093(6)
H181 H 0.8478 0.7527 0.5311
H182 H 0.9103 0.7823 0.5067
C146 C 0.8282(7) 0.7129(5) 0.4618(5)
H183 H 0.8575 0.6992 0.4403
H184 H 0.8011 0.7408 0.4469
C147 C 0.9610(4) 0.4205(4) 0.6294(3)
C148 C 1.0101(5) 0.4708(3) 0.6232(3)
H185 H 0.9944 0.5068 0.6202
C149 C 1.0833(5) 0.4685(4) 0.6214(3)
O25 O 1.1291(3) 0.5216(2) 0.6183(3)
C150 C 1.1073(5) 0.4176(4) 0.6275(4)
H186 H 1.1574 0.4168 0.6271
C151 C 1.0582(5) 0.3672(4) 0.6342(4)
O26 O 1.0874(3) 0.3186(2) 0.6388(3)
C152 C 0.9842(5) 0.3673(4) 0.6353(4)
H187 H 0.9508 0.3328 0.6399
C153 C 0.6309(6) 0.5580(4) 0.2544(4)
H188 H 0.5768 0.5461 0.2539
H189 H 0.6503 0.5215 0.2541
C154 C 0.6379(8) 0.5840(7) 0.2100(4)
H190 H 0.6108 0.5516 0.1806
H191 H 0.6109 0.6162 0.2086
C155 C 0.7128(13) 0.6088(11) 0.2076(6)
H192 H 0.7096 0.6277 0.1789
H193 H 0.7411 0.6409 0.2371
C156 C 0.7527(12) 0.5653(9) 0.2042(6)
H194 H 0.7191 0.5262 0.2050
H195 H 0.7615 0.5608 0.1717
C157 C 0.8201(14) 0.5738(9) 0.2378(13)
H196 H 0.8118 0.5854 0.2699
H197 H 0.8547 0.6100 0.2331
C158 C 0.8692(12) 0.5230(8) 0.2437(8)
H198 H 0.8861 0.5141 0.2143
H199 H 0.9149 0.5388 0.2723
C159 C 0.8208(11) 0.4677(6) 0.2499(7)
H200 H 0.7784 0.4507 0.2194
H201 H 0.7982 0.4790 0.2761
C160 C 0.8573(10) 0.4192(6) 0.2617(6)
H202 H 0.9017 0.4369 0.2911
H203 H 0.8772 0.4062 0.2345
C161 C 0.8099(9) 0.3641(5) 0.2709(4)
H204 H 0.7665 0.3458 0.2412
H205 H 0.7886 0.3773 0.2974
C162 C 0.8470(8) 0.3149(5) 0.2846(4)
H206 H 0.8612 0.2955 0.2567
H207 H 0.8936 0.3322 0.3125
C163 C 0.6289(5) 0.5287(4) 0.3940(3)
C164 C 0.6230(5) 0.5349(4) 0.3448(3)
H208 H 0.5883 0.5059 0.3173
C165 C 0.6732(5) 0.5880(4) 0.3406(3)
O27 O 0.6733(4) 0.6019(3) 0.2961(2)
C166 C 0.7216(5) 0.6309(4) 0.3795(3)
H209 H 0.7519 0.6668 0.3745
C167 C 0.7265(5) 0.6222(4) 0.4262(3)
O28 O 0.7738(4) 0.6610(3) 0.4676(3)
C168 C 0.6782(4) 0.5707(3) 0.4330(3)
H210 H 0.6800 0.5652 0.4651
C169 C 1.0051(7) 0.1589(8) 0.3277(4)
H211 H 1.0253 0.2030 0.3309
H212 H 0.9759 0.1407 0.2931
C170 C 1.0687(9) 0.1311(12) 0.3429(5)
H213 H 1.0476 0.0866 0.3345
H214 H 1.1042 0.1414 0.3234
C171 C 1.1096(18) 0.148(3) 0.3912(8)
H215 H 1.0830 0.1208 0.4087
H216 H 1.1074 0.1894 0.4036
C172 C 1.1945(11) 0.1472(10) 0.4061(7)
H217 H 1.2263 0.1782 0.4356
H218 H 1.2180 0.1489 0.3791
C173 C 1.1718(14) 0.0836(8) 0.4159(7)
H219 H 1.2081 0.0608 0.4091
H220 H 1.1203 0.0615 0.3941
C174 C 1.1720(12) 0.0885(11) 0.4744(10)
H221 H 1.2208 0.1156 0.4963
H222 H 1.1300 0.1051 0.4801
C175 C 1.1628(13) 0.0319(10) 0.4832(6)
H223 H 1.2008 0.0127 0.4739
H224 H 1.1109 0.0059 0.4655
C176 C 1.1761(12) 0.0441(18) 0.5396(6)
H225 H 1.1980 0.0128 0.5531
H226 H 1.2129 0.0841 0.5550
C177 C 1.1094(6) 0.0430(6) 0.5504(3)
H227 H 1.0671 0.0128 0.5248
H228 H 1.0993 0.0832 0.5505
C178 C 1.1114(12) 0.0271(10) 0.5997(6)
H229 H 1.1552 0.0554 0.6255
H230 H 1.1166 -0.0146 0.5992
C179 C 0.8075(4) 0.1934(3) 0.3971(2)
C180 C 0.8663(5) 0.1678(4) 0.3939(3)
H231 H 0.8829 0.1445 0.4167
C181 C 0.9011(5) 0.1757(5) 0.3580(3)
O29 O 0.9577(5) 0.1482(6) 0.3579(3)
C182 C 0.8792(5) 0.2118(4) 0.3246(3)
H232 H 0.9038 0.2184 0.3002
C183 C 0.8207(5) 0.2371(4) 0.3289(3)
O30 O 0.7937(4) 0.2725(3) 0.2972(3)
C184 C 0.7837(5) 0.2277(3) 0.3637(3)
H233 H 0.7423 0.2445 0.3649
C185 C 1.1467(4) 0.0873(4) 0.8286(3)
H234 H 1.1199 0.0607 0.8463
H235 H 1.1261 0.1231 0.8276
C186 C 1.2318(5) 0.1072(4) 0.8545(3)
H236 H 1.2395 0.1179 0.8901
H237 H 1.2534 0.0727 0.8481
C187 C 1.2748(7) 0.1603(6) 0.8394(5)
H238 H 1.2653 0.1968 0.8565
H239 H 1.3295 0.1634 0.8532
C188 C 1.2641(9) 0.1655(7) 0.7903(7)
H240 H 1.2089 0.1512 0.7730
H241 H 1.2892 0.1380 0.7750
C189 C 1.2949(6) 0.2306(7) 0.7822(9)
H242 H 1.2614 0.2564 0.7886
H243 H 1.3469 0.2497 0.8044
C190 C 1.2956(8) 0.2233(7) 0.7290(9)
H244 H 1.3263 0.1948 0.7230
H245 H 1.3214 0.2630 0.7240
C191 C 1.2179(7) 0.2004(6) 0.6916(7)
H246 H 1.1921 0.1605 0.6963
H247 H 1.2249 0.1942 0.6586
C192 C 1.1656(7) 0.2430(4) 0.6938(5)
H248 H 1.1536 0.2456 0.7253
H249 H 1.1932 0.2841 0.6925
C193 C 1.0923(6) 0.2219(4) 0.6528(6)
H250 H 1.0621 0.1831 0.6567
H251 H 1.1046 0.2140 0.6216
C194 C 1.0435(5) 0.2665(4) 0.6498(5)
H252 H 0.9945 0.2489 0.6239
H253 H 1.0328 0.2774 0.6813
C195 C 0.9555(4) 0.0791(3) 0.7113(3)
C196 C 1.0131(4) 0.0765(3) 0.7524(3)
H254 H 1.0096 0.0870 0.7846
C197 C 1.0753(4) 0.0579(3) 0.7440(3)
O31 O 1.1353(3) 0.0555(2) 0.78056(19)
C198 C 1.0802(5) 0.0418(4) 0.6975(3)
H255 H 1.1224 0.0282 0.6925
C199 C 1.0243(6) 0.0454(6) 0.6586(3)
O32 O 1.0244(6) 0.0328(7) 0.6113(3)
C200 C 0.9605(5) 0.0639(4) 0.6650(3)
H256 H 0.9215 0.0658 0.6377
O33 O 0.7077(3) 0.4036(3) 0.5251(2)
C201 C 0.6773(6) 0.3395(4) 0.5073(4)
O34 O 0.7997(4) 0.1621(3) 0.5806(2)
C202 C 0.7971(8) 0.2209(5) 0.6054(4)
O35 O 0.6772(4) 0.8431(3) 0.9330(2)
C203 C 0.6986(8) 0.8039(6) 0.8981(5)
O36 O 0.9803(4) 0.7164(3) 0.8818(3)
C204 C 1.0438(12) 0.7113(9) 0.8706(9)
O37 O 0.0413(6) 0.6645(5) 0.2557(4)
C205 C 0.0850(12) 0.7187(10) 0.2529(7)
O38 O 0.7614(6) 0.9489(6) 0.9989(6)
C206 C 0.7170(14) 0.9784(10) 1.0202(9)
O39 O 0.9634(8) 0.7705(6) 0.1571(4)
C207 C 0.9136(11) 0.7526(7) 0.1885(6)
O40 O 0.8658(4) 0.1375(4) 0.5115(2)
C208 C 0.9403(7) 0.1326(6) 0.5256(5)
O41 O 0.9532(5) 0.6854(4) 0.9632(3)
C209 C 0.9015(8) 0.7048(6) 0.9889(4)
O42 O 0.4167(6) 0.7442(6) 0.6579(3)
C210 C 0.378(2) 0.6702(12) 0.6359(10)
O43 O 0.8349(7) 0.5266(5) 0.5972(5)
C211 C 0.860(3) 0.560(2) 0.574(3)
O44 O 0.8806(7) 0.1674(10) 0.8134(3)
C212 C 0.858(2) 0.1909(15) 0.8537(11)
O45 O -0.0210(12) 0.4644(11) 0.1484(6)
C213 C 0.0026(14) 0.4456(12) 0.1090(7)
O46 O 1.206(3) 0.577(2) 1.2044(17)
C214 C 1.1537(16) 0.5194(12) 1.2015(9)
O47 O 0.4445(15) 0.4126(14) 0.3142(6)
C215 C 0.391(3) 0.448(3) 0.300(3)
O48 O 0.3657(5) 0.7635(3) 0.7409(2)
O49 O 0.3171(9) 0.4672(6) 0.4173(7)
O50 O 1.0367(12) 0.5881(5) 1.1720(4)
O51? O 0.5746(13) 0.8050(12) 0.7226(17)
C216? C 0.5985(11) 0.715(2) 0.7406(9)
loop_
_geom_bond_atom_site_label_1
_geom_bond_atom_site_label_2
_geom_bond_site_symmetry_1
_geom_bond_site_symmetry_2
C1 H1 1_555 1_555
H2 C1 1_555 1_555
C2 H3 1_555 1_555
H4 C2 1_555 1_555
C3 H5 1_555 1_555
H6 C3 1_555 1_555
C4 H7 1_555 1_555
H8 C4 1_555 1_555
C5 C1 1_555 1_555
C6 C5 1_555 1_555
C7 C4 1_555 1_555
C8 C7 1_555 1_555
H9 C8 1_555 1_555
C9 C8 1_555 1_555
C10 C5 1_555 1_555
H10 C10 1_555 1_555
O1 C6 1_555 1_555
C11 O1 1_555 1_555
H11 C11 1_555 1_555
H12 C11 1_555 1_555
H13 C11 1_555 1_555
N1 C9 1_555 1_555
H14 N1 1_555 1_555
C12 N1 1_555 1_555
O2 C12 1_555 1_555
N2 C12 1_555 1_555
H15 N2 1_555 1_555
C13 C2 1_555 1_555
C14 C13 1_555 1_555
C15 C1 1_555 1_555
C16 C15 1_555 1_555
H16 C16 1_555 1_555
C17 C16 1_555 1_555
C18 C13 1_555 1_555
H17 C18 1_555 1_555
O3 C14 1_555 1_555
C19 O3 1_555 1_555
H18 C19 1_555 1_555
H19 C19 1_555 1_555
H20 C19 1_555 1_555
N3 C17 1_555 1_555
H21 N3 1_555 1_555
C20 N3 1_555 1_555
O4 C20 1_555 1_555
N4 C20 1_555 1_555
H22 N4 1_555 1_555
C21 C3 1_555 1_555
C22 C21 1_555 1_555
C23 C2 1_555 1_555
C24 C23 1_555 1_555
H23 C24 1_555 1_555
C25 C24 1_555 1_555
C26 C21 1_555 1_555
H24 C26 1_555 1_555
O5 C22 1_555 1_555
C27 O5 1_555 1_555
H25 C27 1_555 1_555
H26 C27 1_555 1_555
H27 C27 1_555 1_555
N5 C25 1_555 1_555
H28 N5 1_555 1_555
C28 N5 1_555 1_555
O6 C28 1_555 1_555
N6 C28 1_555 1_555
H29 N6 1_555 1_555
C29 C4 1_555 1_555
C30 C29 1_555 1_555
C31 C3 1_555 1_555
C32 C31 1_555 1_555
H30 C32 1_555 1_555
C33 C32 1_555 1_555
C34 C29 1_555 1_555
H31 C34 1_555 1_555
O7 C30 1_555 1_555
C35 O7 1_555 1_555
H32 C35 1_555 1_555
H33 C35 1_555 1_555
H34 C35 1_555 1_555
N7 C33 1_555 1_555
H35 N7 1_555 1_555
C36 N7 1_555 1_555
O8 C36 1_555 1_555
N8 C36 1_555 1_555
H36 N8 1_555 1_555
C37 H37 1_555 1_555
H38 C37 1_555 1_555
C38 C37 1_555 1_555
H39 C38 1_555 1_555
H40 C38 1_555 1_555
C39 C38 1_555 1_555
H41 C39 1_555 1_555
H42 C39 1_555 1_555
C40 C39 1_555 1_555
H43 C40 1_555 1_555
H44 C40 1_555 1_555
C41 C40 1_555 1_555
H45 C41 1_555 1_555
H46 C41 1_555 1_555
C42 C41 1_555 1_555
H47 C42 1_555 1_555
H48 C42 1_555 1_555
C43 C42 1_555 1_555
H49 C43 1_555 1_555
H50 C43 1_555 1_555
C44 C43 1_555 1_555
H51 C44 1_555 1_555
H52 C44 1_555 1_555
C45 C44 1_555 1_555
H53 C45 1_555 1_555
H54 C45 1_555 1_555
C46 C45 1_555 1_555
H55 C46 1_555 1_555
H56 C46 1_555 1_555
C47 N2 1_555 1_555
C48 C47 1_555 1_555
H57 C48 1_555 1_555
C49 C48 1_555 1_555
O9 C37 1_555 1_555
C50 C49 1_555 1_555
H58 C50 1_555 1_555
C51 C50 1_555 1_555
O10 C51 1_555 1_555
C52 C47 1_555 1_555
H59 C52 1_555 1_555
C53 H60 1_555 1_555
H61 C53 1_555 1_555
C54 C53 1_555 1_555
H62 C54 1_555 1_555
H63 C54 1_555 1_555
C55 C54 1_555 1_555
H64 C55 1_555 1_555
H65 C55 1_555 1_555
C56 C55 1_555 1_555
H66 C56 1_555 1_555
H67 C56 1_555 1_555
C57 C56 1_555 1_555
H68 C57 1_555 1_555
H69 C57 1_555 1_555
C58 C57 1_555 1_555
H70 C58 1_555 1_555
H71 C58 1_555 1_555
C59 C58 1_555 1_555
H72 C59 1_555 1_555
H73 C59 1_555 1_555
C60 C59 1_555 1_555
H74 C60 1_555 1_555
H75 C60 1_555 1_555
C61 C60 1_555 1_555
H76 C61 1_555 1_555
H77 C61 1_555 1_555
C62 C61 1_555 1_555
H78 C62 1_555 1_555
H79 C62 1_555 1_555
C63 N4 1_555 1_555
C64 C63 1_555 1_555
H80 C64 1_555 1_555
C65 C64 1_555 1_555
O11 C53 1_555 1_555
C66 C65 1_555 1_555
H81 C66 1_555 1_555
C67 C66 1_555 1_555
O12 C46 1_555 1_555
C68 C63 1_555 1_555
H82 C68 1_555 1_555
C69 H83 1_555 1_555
H84 C69 1_555 1_555
C70 C69 1_555 1_555
H85 C70 1_555 1_555
H86 C70 1_555 1_555
C71 C70 1_555 1_555
H87 C71 1_555 1_555
H88 C71 1_555 1_555
C72 C71 1_555 1_555
H89 C72 1_555 1_555
H90 C72 1_555 1_555
C73 C72 1_555 1_555
H91 C73 1_555 1_555
H92 C73 1_555 1_555
C74 C73 1_555 1_555
H93 C74 1_555 1_555
H94 C74 1_555 1_555
C75 C74 1_555 1_555
H95 C75 1_555 1_555
H96 C75 1_555 1_555
C76 C75 1_555 1_555
H97 C76 1_555 1_555
H98 C76 1_555 1_555
C77 C76 1_555 1_555
H99 C77 1_555 1_555
H100 C77 1_555 1_555
C78 C77 1_555 1_555
H101 C78 1_555 1_555
H102 C78 1_555 1_555
C79 N6 1_555 1_555
C80 C79 1_555 1_555
H103 C80 1_555 1_555
C81 C80 1_555 1_555
O13 C69 1_555 1_555
C82 C81 1_555 1_555
H104 C82 1_555 1_555
C83 C82 1_555 1_555
O14 C62 1_555 1_555
C84 C79 1_555 1_555
H105 C84 1_555 1_555
C85 H106 1_555 1_555
H107 C85 1_555 1_555
C86 C85 1_555 1_555
H108 C86 1_555 1_555
H109 C86 1_555 1_555
C87 C86 1_555 1_555
H110 C87 1_555 1_555
H111 C87 1_555 1_555
C88 C87 1_555 1_555
H112 C88 1_555 1_555
H113 C88 1_555 1_555
C89 C88 1_555 1_555
H114 C89 1_555 1_555
H115 C89 1_555 1_555
C90 C89 1_555 1_555
H116 C90 1_555 1_555
H117 C90 1_555 1_555
C91 C90 1_555 1_555
H118 C91 1_555 1_555
H119 C91 1_555 1_555
C92 C91 1_555 1_555
H120 C92 1_555 1_555
H121 C92 1_555 1_555
C93 C92 1_555 1_555
H122 C93 1_555 1_555
H123 C93 1_555 1_555
C94 O10 1_555 1_555
H124 C94 1_555 1_555
H125 C94 1_555 1_555
C95 N8 1_555 1_555
C96 C95 1_555 1_555
H126 C96 1_555 1_555
C97 C96 1_555 1_555
O15 C85 1_555 1_555
C98 C97 1_555 1_555
H127 C98 1_555 1_555
C99 C98 1_555 1_555
O16 C78 1_555 1_555
C100 C95 1_555 1_555
H128 C100 1_555 1_555
C101 H129 1_555 1_555
H130 C101 1_555 1_555
C102 H131 1_555 1_555
H132 C102 1_555 1_555
C103 H133 1_555 1_555
H134 C103 1_555 1_555
C104 H135 1_555 1_555
H136 C104 1_555 1_555
C105 C101 1_555 1_555
C106 C105 1_555 1_555
C107 C102 1_555 1_555
C108 C107 1_555 1_555
H137 C108 1_555 1_555
C109 C108 1_555 1_555
C110 C105 1_555 1_555
H138 C110 1_555 1_555
O17 C106 1_555 1_555
C111 O17 1_555 1_555
H139 C111 1_555 1_555
H140 C111 1_555 1_555
H141 C111 1_555 1_555
N9 C109 1_555 1_555
H142 N9 1_555 1_555
C112 N9 1_555 1_555
O18 C112 1_555 1_555
N10 C112 1_555 1_555
H143 N10 1_555 1_555
C113 C102 1_555 1_555
C114 C113 1_555 1_555
C115 C103 1_555 1_555
C116 C115 1_555 1_555
H144 C116 1_555 1_555
C117 C116 1_555 1_555
C118 C113 1_555 1_555
H145 C118 1_555 1_555
O19 C114 1_555 1_555
C119 O19 1_555 1_555
H146 C119 1_555 1_555
H147 C119 1_555 1_555
H148 C119 1_555 1_555
N11 C117 1_555 1_555
H149 N11 1_555 1_555
C120 N11 1_555 1_555
O20 C120 1_555 1_555
N12 C120 1_555 1_555
H150 N12 1_555 1_555
C121 C103 1_555 1_555
C122 C121 1_555 1_555
C123 C104 1_555 1_555
C124 C123 1_555 1_555
H151 C124 1_555 1_555
C125 C124 1_555 1_555
C126 C121 1_555 1_555
H152 C126 1_555 1_555
O21 C122 1_555 1_555
C127 O21 1_555 1_555
H153 C127 1_555 1_555
H154 C127 1_555 1_555
H155 C127 1_555 1_555
N13 C125 1_555 1_555
H156 N13 1_555 1_555
C128 N13 1_555 1_555
O22 C128 1_555 1_555
N14 C128 1_555 1_555
H157 N14 1_555 1_555
C129 C104 1_555 1_555
C130 C129 1_555 1_555
C131 C101 1_555 1_555
C132 C131 1_555 1_555
H158 C132 1_555 1_555
C133 C132 1_555 1_555
C134 C129 1_555 1_555
H159 C134 1_555 1_555
O23 C130 1_555 1_555
C135 O23 1_555 1_555
H160 C135 1_555 1_555
H161 C135 1_555 1_555
H162 C135 1_555 1_555
N15 C133 1_555 1_555
H163 N15 1_555 1_555
C136 N15 1_555 1_555
O24 C136 1_555 1_555
N16 C136 1_555 1_555
H164 N16 1_555 1_555
C137 H165 1_555 1_555
H166 C137 1_555 1_555
C138 C137 1_555 1_555
H167 C138 1_555 1_555
H168 C138 1_555 1_555
C139 C138 1_555 1_555
H169 C139 1_555 1_555
H170 C139 1_555 1_555
C140 C139 1_555 1_555
H171 C140 1_555 1_555
H172 C140 1_555 1_555
C141 C140 1_555 1_555
H173 C141 1_555 1_555
H174 C141 1_555 1_555
C142 C141 1_555 1_555
H175 C142 1_555 1_555
H176 C142 1_555 1_555
C143 C142 1_555 1_555
H177 C143 1_555 1_555
H178 C143 1_555 1_555
C144 C143 1_555 1_555
H179 C144 1_555 1_555
H180 C144 1_555 1_555
C145 C144 1_555 1_555
H181 C145 1_555 1_555
H182 C145 1_555 1_555
C146 C145 1_555 1_555
H183 C146 1_555 1_555
H184 C146 1_555 1_555
C147 N10 1_555 1_555
C148 C147 1_555 1_555
H185 C148 1_555 1_555
C149 C148 1_555 1_555
O25 C137 1_555 1_555
C150 C149 1_555 1_555
H186 C150 1_555 1_555
C151 C150 1_555 1_555
O26 C151 1_555 1_555
C152 C147 1_555 1_555
H187 C152 1_555 1_555
C153 H188 1_555 1_555
H189 C153 1_555 1_555
C154 C153 1_555 1_555
H190 C154 1_555 1_555
H191 C154 1_555 1_555
C155 C154 1_555 1_555
H192 C155 1_555 1_555
H193 C155 1_555 1_555
C156 C155 1_555 1_555
H194 C156 1_555 1_555
H195 C156 1_555 1_555
C157 C156 1_555 1_555
H196 C157 1_555 1_555
H197 C157 1_555 1_555
C158 C157 1_555 1_555
H198 C158 1_555 1_555
H199 C158 1_555 1_555
C159 C158 1_555 1_555
H200 C159 1_555 1_555
H201 C159 1_555 1_555
C160 C159 1_555 1_555
H202 C160 1_555 1_555
H203 C160 1_555 1_555
C161 C160 1_555 1_555
H204 C161 1_555 1_555
H205 C161 1_555 1_555
C162 C161 1_555 1_555
H206 C162 1_555 1_555
H207 C162 1_555 1_555
C163 N12 1_555 1_555
C164 C163 1_555 1_555
H208 C164 1_555 1_555
C165 C164 1_555 1_555
O27 C153 1_555 1_555
C166 C165 1_555 1_555
H209 C166 1_555 1_555
C167 C166 1_555 1_555
O28 C146 1_555 1_555
C168 C163 1_555 1_555
H210 C168 1_555 1_555
C169 H211 1_555 1_555
H212 C169 1_555 1_555
C170 C169 1_555 1_555
H213 C170 1_555 1_555
H214 C170 1_555 1_555
C171 C170 1_555 1_555
H215 C171 1_555 1_555
H216 C171 1_555 1_555
C172 C171 1_555 1_555
H217 C172 1_555 1_555
H218 C172 1_555 1_555
C173 C172 1_555 1_555
H219 C173 1_555 1_555
H220 C173 1_555 1_555
C174 C173 1_555 1_555
H221 C174 1_555 1_555
H222 C174 1_555 1_555
C175 C174 1_555 1_555
H223 C175 1_555 1_555
H224 C175 1_555 1_555
C176 C175 1_555 1_555
H225 C176 1_555 1_555
H226 C176 1_555 1_555
C177 C176 1_555 1_555
H227 C177 1_555 1_555
H228 C177 1_555 1_555
C178 C177 1_555 1_555
H229 C178 1_555 1_555
H230 C178 1_555 1_555
C179 N14 1_555 1_555
C180 C179 1_555 1_555
H231 C180 1_555 1_555
C181 C180 1_555 1_555
O29 C169 1_555 1_555
C182 C181 1_555 1_555
H232 C182 1_555 1_555
C183 C182 1_555 1_555
O30 C162 1_555 1_555
C184 C179 1_555 1_555
H233 C184 1_555 1_555
C185 H234 1_555 1_555
H235 C185 1_555 1_555
C186 C185 1_555 1_555
H236 C186 1_555 1_555
H237 C186 1_555 1_555
C187 C186 1_555 1_555
H238 C187 1_555 1_555
H239 C187 1_555 1_555
C188 C187 1_555 1_555
H240 C188 1_555 1_555
H241 C188 1_555 1_555
C189 C188 1_555 1_555
H242 C189 1_555 1_555
H243 C189 1_555 1_555
C190 C189 1_555 1_555
H244 C190 1_555 1_555
H245 C190 1_555 1_555
C191 C190 1_555 1_555
H246 C191 1_555 1_555
H247 C191 1_555 1_555
C192 C191 1_555 1_555
H248 C192 1_555 1_555
H249 C192 1_555 1_555
C193 C192 1_555 1_555
H250 C193 1_555 1_555
H251 C193 1_555 1_555
C194 O26 1_555 1_555
H252 C194 1_555 1_555
H253 C194 1_555 1_555
C195 N16 1_555 1_555
C196 C195 1_555 1_555
H254 C196 1_555 1_555
C197 C196 1_555 1_555
O31 C185 1_555 1_555
C198 C197 1_555 1_555
H255 C198 1_555 1_555
C199 C198 1_555 1_555
O32 C178 1_555 1_555
C200 C195 1_555 1_555
H256 C200 1_555 1_555
O33 C201 1_555 1_555
O34 C202 1_555 1_555
O35 C203 1_555 1_555
O36 C204 1_555 1_555
O37 C205 1_555 1_555
O38 C206 1_555 1_555
O39 C207 1_555 1_555
O40 C208 1_555 1_555
O41 C209 1_555 1_555
O42 C210 1_555 1_555
O43 C211 1_555 1_555
O44 C212 1_555 1_555
O45 C213 1_555 1_555
O46 C214 1_555 1_555
O47 C215 1_555 1_555
C6 C7 1_555 1_555
C9 C10 1_555 1_555
C14 C15 1_555 1_555
C17 C18 1_555 1_555
C22 C23 1_555 1_555
C25 C26 1_555 1_555
C30 C31 1_555 1_555
C33 C34 1_555 1_555
C49 O9 1_555 1_555
C51 C52 1_555 1_555
C65 O11 1_555 1_555
C67 O12 1_555 1_555
C67 C68 1_555 1_555
C81 O13 1_555 1_555
C83 O14 1_555 1_555
C83 C84 1_555 1_555
C93 C94 1_555 1_555
C97 O15 1_555 1_555
C99 O16 1_555 1_555
C99 C100 1_555 1_555
C106 C107 1_555 1_555
C109 C110 1_555 1_555
C114 C115 1_555 1_555
C117 C118 1_555 1_555
C122 C123 1_555 1_555
C125 C126 1_555 1_555
C130 C131 1_555 1_555
C133 C134 1_555 1_555
C149 O25 1_555 1_555
C151 C152 1_555 1_555
C165 O27 1_555 1_555
C167 O28 1_555 1_555
C167 C168 1_555 1_555
C181 O29 1_555 1_555
C183 O30 1_555 1_555
C183 C184 1_555 1_555
C193 C194 1_555 1_555
C197 O31 1_555 1_555
C199 O32 1_555 1_555
C199 C200 1_555 1_555

#END
