
#######################################################################
#
#                 Cambridge Crystallographic Data Centre
#                                CCDC 
#
#######################################################################
#
# If this CIF has been generated from an entry in the Cambridge 
# Structural Database, then it will include bibliographic, chemical, 
# crystal, experimental, refinement or atomic coordinate data resulting 
# from the CCDC's data processing and validation procedures.
#
#######################################################################

data_KAPVIJ
_chemical_formula_moiety         'C19 H15 Br1 N2 O5'
_chemical_name_systematic        
1-(2-bromo-3-(4-nitrophenyl)-3-oxo-1-phenylpropyl)pyrrolidine-2,5-dione
_symmetry_cell_setting           monoclinic
_symmetry_space_group_name_H-M   'P 21'
_symmetry_Int_Tables_number      4
_space_group_name_Hall           'P 2yb'
loop_
_symmetry_equiv_pos_site_id
_symmetry_equiv_pos_as_xyz
1 x,y,z
2 -x,1/2+y,-z
_cell_length_a                   11.2912(3)
_cell_length_b                   6.19457(16)
_cell_length_c                   13.4697(4)
_cell_angle_alpha                90
_cell_angle_beta                 96.023(3)
_cell_angle_gamma                90
_cell_volume                     936.926
_exptl_crystal_colour            colorless
_exptl_crystal_description       needle
_cell_formula_units_Z            2
loop_
_atom_site_label
_atom_site_type_symbol
_atom_site_fract_x
_atom_site_fract_y
_atom_site_fract_z
Br1 Br 0.93997(4) 0.12392(10) 0.92357(3)
O1 O 0.5706(3) -0.3844(10) 1.3093(2)
O2 O 0.5940(4) -0.6875(7) 1.2377(3)
O3 O 0.6449(3) 0.0573(5) 0.8480(3)
O4 O 0.7481(5) -0.4821(6) 0.7754(3)
O5 O 0.6962(3) 0.0798(5) 0.5611(3)
N1 N 0.5961(4) -0.4937(7) 1.2398(3)
N2 N 0.7393(3) -0.1745(5) 0.6832(3)
C1 C 0.6330(3) -0.3809(11) 1.1517(3)
C2 C 0.7076(4) -0.4835(8) 1.0934(4)
H1 H 0.7368 -0.6206 1.1101
C3 C 0.7387(3) -0.3794(11) 1.0093(3)
H2 H 0.7902 -0.4459 0.9692
C4 C 0.6935(4) -0.1761(7) 0.9844(3)
C5 C 0.6173(4) -0.0765(7) 1.0448(3)
H3 H 0.5858 0.0586 1.0274
C6 C 0.5879(4) -0.1764(8) 1.1303(4)
H4 H 0.5393 -0.1085 1.1723
C7 C 0.7175(4) -0.0621(6) 0.8910(3)
C8 C 0.8371(4) -0.0923(7) 0.8509(3)
H5 H 0.8677 -0.2380 0.8659
C9 C 0.8338(4) -0.0465(6) 0.7391(3)
H6 H 0.8127 0.1060 0.7291
C10 C 0.9515(4) -0.0818(8) 0.6964(4)
C11 C 1.0129(6) -0.2712(11) 0.7110(6)
H7 H 0.9846 -0.3795 0.7501
C12 C 1.1186(6) -0.3019(13) 0.6668(7)
H8 H 1.1617 -0.4291 0.6776
C13 C 1.1582(7) -0.142(2) 0.6072(7)
H9 H 1.2266 -0.1637 0.5756
C14 C 1.0978(8) 0.0462(17) 0.5944(6)
H10 H 1.1266 0.1552 0.5560
C15 C 0.9944(6) 0.0777(12) 0.6376(5)
H11 H 0.9529 0.2068 0.6274
C16 C 0.7045(4) -0.3820(11) 0.7047(3)
C17 C 0.6064(5) -0.4480(7) 0.6271(4)
H12 H 0.6288 -0.5763 0.5922
H13 H 0.5340 -0.4780 0.6575
C18 C 0.5886(5) -0.2614(8) 0.5568(4)
H14 H 0.6024 -0.3044 0.4898
H15 H 0.5082 -0.2053 0.5555
C19 C 0.6773(4) -0.0960(7) 0.5963(3)
loop_
_geom_bond_atom_site_label_1
_geom_bond_atom_site_label_2
_geom_bond_site_symmetry_1
_geom_bond_site_symmetry_2
Br1 C8 1_555 1_555
O1 N1 1_555 1_555
O2 N1 1_555 1_555
O3 C7 1_555 1_555
O4 C16 1_555 1_555
O5 C19 1_555 1_555
N1 C1 1_555 1_555
N2 C9 1_555 1_555
C1 C2 1_555 1_555
C2 H1 1_555 1_555
C3 C2 1_555 1_555
H2 C3 1_555 1_555
C4 C3 1_555 1_555
C5 C4 1_555 1_555
H3 C5 1_555 1_555
C6 C1 1_555 1_555
H4 C6 1_555 1_555
C7 C4 1_555 1_555
C8 C7 1_555 1_555
H5 C8 1_555 1_555
C9 C8 1_555 1_555
H6 C9 1_555 1_555
C10 C9 1_555 1_555
C11 C10 1_555 1_555
H7 C11 1_555 1_555
C12 C11 1_555 1_555
H8 C12 1_555 1_555
C13 C12 1_555 1_555
H9 C13 1_555 1_555
C14 C13 1_555 1_555
H10 C14 1_555 1_555
C15 C10 1_555 1_555
H11 C15 1_555 1_555
C16 N2 1_555 1_555
C17 C16 1_555 1_555
H12 C17 1_555 1_555
H13 C17 1_555 1_555
C18 C17 1_555 1_555
H14 C18 1_555 1_555
H15 C18 1_555 1_555
C19 N2 1_555 1_555
C5 C6 1_555 1_555
C14 C15 1_555 1_555
C18 C19 1_555 1_555

#END
