
#######################################################################
#
#                 Cambridge Crystallographic Data Centre
#                                CCDC 
#
#######################################################################
#
# If this CIF has been generated from an entry in the Cambridge 
# Structural Database, then it will include bibliographic, chemical, 
# crystal, experimental, refinement or atomic coordinate data resulting 
# from the CCDC's data processing and validation procedures.
#
#######################################################################

data_KAPZOS
_chemical_formula_moiety         'C21 H15 B1 N2 O2'
_chemical_name_systematic        
"10'-Phenyl-2H-spiro[1,3,2-benzodioxaborole-2,5'-dipyrrolo[1,2-c:2',1'-f][1,3,2]diazaborinine] unknown solvate"
_symmetry_cell_setting           tetragonal
_symmetry_space_group_name_H-M   'I 41/a'
_symmetry_Int_Tables_number      88
_space_group_name_Hall           '-I 4ad'
loop_
_symmetry_equiv_pos_site_id
_symmetry_equiv_pos_as_xyz
1 x,y,z
2 3/4-y,1/4+x,1/4+z
3 -x,1/2-y,z
4 1/4+y,1/4-x,1/4+z
5 1/2+x,1/2+y,1/2+z
6 1/4-y,3/4+x,3/4+z
7 1/2-x,-y,1/2+z
8 3/4+y,3/4-x,3/4+z
9 -x,-y,-z
10 1/4+y,3/4-x,3/4-z
11 x,1/2+y,-z
12 3/4-y,3/4+x,3/4-z
13 1/2-x,1/2-y,1/2-z
14 3/4+y,1/4-x,1/4-z
15 1/2+x,y,1/2-z
16 1/4-y,1/4+x,1/4-z
_cell_length_a                   25.1377(7)
_cell_length_b                   25.1377(7)
_cell_length_c                   27.1775(8)
_cell_angle_alpha                90
_cell_angle_beta                 90
_cell_angle_gamma                90
_cell_volume                     17173.6
_exptl_crystal_colour            yellow
_exptl_crystal_description       rod
_cell_formula_units_Z            32
loop_
_atom_site_label
_atom_site_type_symbol
_atom_site_fract_x
_atom_site_fract_y
_atom_site_fract_z
B1 B 0.85544(7) 0.55430(6) -0.08213(6)
N1 N 0.84450(5) 0.61502(5) -0.08299(4)
C1 C 0.82437(6) 0.64551(6) -0.04473(5)
C2 C 0.82370(7) 0.69877(6) -0.06065(6)
H1 H 0.8128 0.7287 -0.0418
C3 C 0.84159(8) 0.69968(7) -0.10843(6)
H2 H 0.8448 0.7301 -0.1290
C4 C 0.85404(7) 0.64761(6) -0.12083(6)
H3 H 0.8675 0.6366 -0.1519
N2 N 0.83946(5) 0.53656(5) -0.02908(4)
C5 C 0.81787(6) 0.56807(5) 0.00804(5)
C6 C 0.80674(6) 0.53463(6) 0.04789(5)
H4 H 0.7914 0.5452 0.0783
C7 C 0.82177(6) 0.48415(6) 0.03548(5)
H5 H 0.8193 0.4533 0.0556
C8 C 0.84150(6) 0.48663(6) -0.01258(5)
H6 H 0.8545 0.4571 -0.0308
C9 C 0.80980(6) 0.62254(6) 0.00025(5)
C10 C 0.78746(6) 0.65596(6) 0.03965(5)
C11 C 0.74342(6) 0.68914(6) 0.02981(5)
H7 H 0.7285 0.6904 -0.0023
C12 C 0.72223(7) 0.71958(6) 0.06700(5)
H8 H 0.6922 0.7414 0.0606
C13 C 0.74393(7) 0.71872(6) 0.11326(6)
H9 H 0.7290 0.7400 0.1386
C14 C 0.78732(7) 0.68707(6) 0.12312(6)
H10 H 0.8026 0.6870 0.1551
C15 C 0.80862(7) 0.65559(6) 0.08680(5)
H11 H 0.8381 0.6333 0.0940
O1 O 0.82267(4) 0.52579(4) -0.11906(3)
C16 C 0.85718(6) 0.49598(6) -0.14651(5)
C17 C 0.84549(6) 0.46320(6) -0.18511(5)
H12 H 0.8100 0.4587 -0.1964
C18 C 0.88807(6) 0.43640(6) -0.20747(5)
H13 H 0.8812 0.4127 -0.2339
C19 C 0.93978(6) 0.44380(6) -0.19183(5)
H14 H 0.9678 0.4250 -0.2075
C20 C 0.95141(6) 0.47885(6) -0.15305(5)
H15 H 0.9870 0.4847 -0.1426
C21 C 0.90942(6) 0.50455(6) -0.13071(5)
O2 O 0.91077(4) 0.54089(4) -0.09324(4)
B2 B 1.28700(7) 0.62172(6) 0.20706(6)
N3 N 1.23791(5) 0.65805(5) 0.20499(4)
C22 C 1.20374(6) 0.66404(6) 0.16527(5)
C23 C 1.16379(6) 0.70056(6) 0.17896(5)
H16 H 1.1350 0.7121 0.1590
C24 C 1.17411(6) 0.71645(6) 0.22665(5)
H17 H 1.1541 0.7412 0.2455
C25 C 1.21964(7) 0.68922(6) 0.24194(6)
H18 H 1.2354 0.6921 0.2736
N4 N 1.29340(5) 0.59951(5) 0.15476(4)
C26 C 1.25827(6) 0.60525(6) 0.11540(5)
C27 C 1.27633(6) 0.57387(6) 0.07607(5)
H19 H 1.2594 0.5699 0.0450
C28 C 1.32272(6) 0.54998(7) 0.09039(6)
H20 H 1.3444 0.5270 0.0712
C29 C 1.33205(6) 0.56629(6) 0.13962(5)
H21 H 1.3614 0.5553 0.1591
C30 C 1.21315(6) 0.63768(6) 0.12078(5)
C31 C 1.17528(6) 0.64363(6) 0.07944(5)
C32 C 1.12104(6) 0.63245(7) 0.08636(6)
H22 H 1.1085 0.6223 0.1180
C33 C 1.08574(7) 0.63609(8) 0.04755(6)
H23 H 1.0493 0.6274 0.0522
C34 C 1.10368(7) 0.65248(7) 0.00194(6)
H24 H 1.0794 0.6556 -0.0247
C35 C 1.15646(6) 0.66423(6) -0.00494(5)
H25 H 1.1683 0.6757 -0.0364
C36 C 1.19272(6) 0.65957(6) 0.03326(5)
H26 H 1.2293 0.6672 0.0279
O3 O 1.33603(4) 0.65129(4) 0.22243(4)
C37 C 1.35644(6) 0.62420(6) 0.26150(5)
C38 C 1.40261(6) 0.63447(7) 0.28674(6)
H27 H 1.4248 0.6637 0.2784
C39 C 1.41550(7) 0.59990(8) 0.32538(6)
H28 H 1.4479 0.6052 0.3427
C40 C 1.38315(7) 0.55875(8) 0.33909(6)
H29 H 1.3926 0.5371 0.3664
C41 C 1.33569(6) 0.54812(7) 0.31295(5)
H30 H 1.3131 0.5193 0.3215
C42 C 1.32402(6) 0.58162(6) 0.27453(5)
O4 O 1.28064(4) 0.57897(4) 0.24371(3)
loop_
_geom_bond_atom_site_label_1
_geom_bond_atom_site_label_2
_geom_bond_site_symmetry_1
_geom_bond_site_symmetry_2
B1 N1 1_555 1_555
N1 C1 1_555 1_555
C1 C2 1_555 1_555
C2 H1 1_555 1_555
C3 C2 1_555 1_555
H2 C3 1_555 1_555
C4 N1 1_555 1_555
H3 C4 1_555 1_555
N2 B1 1_555 1_555
C5 N2 1_555 1_555
C6 C5 1_555 1_555
H4 C6 1_555 1_555
C7 C6 1_555 1_555
H5 C7 1_555 1_555
C8 N2 1_555 1_555
H6 C8 1_555 1_555
C9 C1 1_555 1_555
C10 C9 1_555 1_555
C11 C10 1_555 1_555
H7 C11 1_555 1_555
C12 C11 1_555 1_555
H8 C12 1_555 1_555
C13 C12 1_555 1_555
H9 C13 1_555 1_555
C14 C13 1_555 1_555
H10 C14 1_555 1_555
C15 C10 1_555 1_555
H11 C15 1_555 1_555
O1 B1 1_555 1_555
C16 O1 1_555 1_555
C17 C16 1_555 1_555
H12 C17 1_555 1_555
C18 C17 1_555 1_555
H13 C18 1_555 1_555
C19 C18 1_555 1_555
H14 C19 1_555 1_555
C20 C19 1_555 1_555
H15 C20 1_555 1_555
C21 C16 1_555 1_555
O2 B1 1_555 1_555
B2 N3 1_555 1_555
N3 C22 1_555 1_555
C22 C23 1_555 1_555
C23 H16 1_555 1_555
C24 C23 1_555 1_555
H17 C24 1_555 1_555
C25 N3 1_555 1_555
H18 C25 1_555 1_555
N4 B2 1_555 1_555
C26 N4 1_555 1_555
C27 C26 1_555 1_555
H19 C27 1_555 1_555
C28 C27 1_555 1_555
H20 C28 1_555 1_555
C29 N4 1_555 1_555
H21 C29 1_555 1_555
C30 C22 1_555 1_555
C31 C30 1_555 1_555
C32 C31 1_555 1_555
H22 C32 1_555 1_555
C33 C32 1_555 1_555
H23 C33 1_555 1_555
C34 C33 1_555 1_555
H24 C34 1_555 1_555
C35 C34 1_555 1_555
H25 C35 1_555 1_555
C36 C31 1_555 1_555
H26 C36 1_555 1_555
O3 B2 1_555 1_555
C37 O3 1_555 1_555
C38 C37 1_555 1_555
H27 C38 1_555 1_555
C39 C38 1_555 1_555
H28 C39 1_555 1_555
C40 C39 1_555 1_555
H29 C40 1_555 1_555
C41 C40 1_555 1_555
H30 C41 1_555 1_555
C42 C37 1_555 1_555
O4 B2 1_555 1_555
C3 C4 1_555 1_555
C5 C9 1_555 1_555
C7 C8 1_555 1_555
C14 C15 1_555 1_555
C20 C21 1_555 1_555
C21 O2 1_555 1_555
C24 C25 1_555 1_555
C26 C30 1_555 1_555
C28 C29 1_555 1_555
C35 C36 1_555 1_555
C41 C42 1_555 1_555
C42 O4 1_555 1_555

#END
