
#######################################################################
#
#                 Cambridge Crystallographic Data Centre
#                                CCDC 
#
#######################################################################
#
# If this CIF has been generated from an entry in the Cambridge 
# Structural Database, then it will include bibliographic, chemical, 
# crystal, experimental, refinement or atomic coordinate data resulting 
# from the CCDC's data processing and validation procedures.
#
#######################################################################

data_KAPZAE01
_chemical_formula_moiety         'C14 H10 Br1 N3 O2'
_chemical_name_systematic        
(5-Bromo-2-oxo-3-(2-oxopropyl)-2,3-dihydro-1H-indol-3-yl)malononitrile
_symmetry_cell_setting           monoclinic
_symmetry_space_group_name_H-M   'P 21'
_symmetry_Int_Tables_number      4
_space_group_name_Hall           'P 2yb'
loop_
_symmetry_equiv_pos_site_id
_symmetry_equiv_pos_as_xyz
1 x,y,z
2 -x,1/2+y,-z
_cell_length_a                   8.682(6)
_cell_length_b                   8.006(5)
_cell_length_c                   9.807(6)
_cell_angle_alpha                90
_cell_angle_beta                 97.75(2)
_cell_angle_gamma                90
_cell_volume                     675.439
_exptl_crystal_colour            colorless
_exptl_crystal_description       block
_cell_formula_units_Z            2
loop_
_atom_site_label
_atom_site_type_symbol
_atom_site_fract_x
_atom_site_fract_y
_atom_site_fract_z
Br1 Br 0.62002(10) 0.43789(13) 1.12060(8)
O1 O 0.8188(6) 0.7559(7) 0.4272(5)
O2 O 0.6441(5) 0.9584(8) 0.6497(4)
N1 N 0.6353(8) 0.6035(8) 0.5258(7)
N2 N 1.2035(8) 0.7354(9) 0.5454(7)
N3 N 1.1159(6) 0.4643(10) 0.9076(6)
C1 C 0.7706(9) 0.6928(8) 0.5262(7)
C2 C 0.8537(7) 0.6925(7) 0.6740(6)
C3 C 0.7391(7) 0.6050(8) 0.7517(6)
C4 C 0.7415(8) 0.5772(9) 0.8913(7)
H1 H 0.8227 0.6162 0.9549
C5 C 0.6194(8) 0.4897(8) 0.9324(7)
C6 C 0.4963(7) 0.4382(12) 0.8404(7)
H2 H 0.4147 0.3813 0.8722
C7 C 0.4902(7) 0.4694(10) 0.6989(8)
H3 H 0.4069 0.4342 0.6357
C8 C 0.6142(7) 0.5549(8) 0.6586(7)
C9 C 1.0003(7) 0.5756(8) 0.6673(6)
H4 H 0.9649 0.4769 0.6129
C10 C 1.1164(9) 0.6618(9) 0.5959(8)
C11 C 1.0712(8) 0.5177(8) 0.8037(7)
C12 C 0.9011(7) 0.8665(7) 0.7274(6)
H5 H 0.9467 0.8576 0.8231
H6 H 0.9804 0.9093 0.6759
C13 C 0.7685(8) 0.9897(7) 0.7169(6)
C14 C 0.8066(11) 1.1536(10) 0.7862(9)
H7 H 0.7260 1.2327 0.7565
H8 H 0.9037 1.1939 0.7625
H9 H 0.8147 1.1394 0.8841
H10 H 0.583(7) 0.592(9) 0.465(6)
loop_
_geom_bond_atom_site_label_1
_geom_bond_atom_site_label_2
_geom_bond_site_symmetry_1
_geom_bond_site_symmetry_2
Br1 C5 1_555 1_555
O1 C1 1_555 1_555
O2 C13 1_555 1_555
N1 C1 1_555 1_555
N2 C10 1_555 1_555
N3 C11 1_555 1_555
C1 C2 1_555 1_555
C2 C3 1_555 1_555
C3 C4 1_555 1_555
C4 H1 1_555 1_555
C5 C4 1_555 1_555
C6 C5 1_555 1_555
H2 C6 1_555 1_555
C7 C6 1_555 1_555
H3 C7 1_555 1_555
C8 N1 1_555 1_555
C9 C2 1_555 1_555
H4 C9 1_555 1_555
C10 C9 1_555 1_555
C11 C9 1_555 1_555
C12 C2 1_555 1_555
H5 C12 1_555 1_555
H6 C12 1_555 1_555
C13 C12 1_555 1_555
C14 C13 1_555 1_555
H7 C14 1_555 1_555
H8 C14 1_555 1_555
H9 C14 1_555 1_555
H10 N1 1_555 1_555
C3 C8 1_555 1_555
C7 C8 1_555 1_555

#END
