
#######################################################################
#
#                 Cambridge Crystallographic Data Centre
#                                CCDC 
#
#######################################################################
#
# If this CIF has been generated from an entry in the Cambridge 
# Structural Database, then it will include bibliographic, chemical, 
# crystal, experimental, refinement or atomic coordinate data resulting 
# from the CCDC's data processing and validation procedures.
#
#######################################################################

data_KAQCOU
_chemical_formula_moiety         'C14 H20 O5 S2'
_chemical_name_systematic        
(+-)-11,14-Dimethyl-5-oxa-2,8-dithia(9)paracyclophane-2,2,8,8-tetroxide
_symmetry_cell_setting           orthorhombic
_symmetry_space_group_name_H-M   'P n a 21'
_symmetry_Int_Tables_number      33
_space_group_name_Hall           'P 2c -2n'
loop_
_symmetry_equiv_pos_site_id
_symmetry_equiv_pos_as_xyz
1 x,y,z
2 -x,-y,1/2+z
3 1/2+x,1/2-y,z
4 1/2-x,1/2+y,1/2+z
_cell_length_a                   8.606(1)
_cell_length_b                   11.342(2)
_cell_length_c                   15.717(1)
_cell_angle_alpha                90
_cell_angle_beta                 90
_cell_angle_gamma                90
_cell_volume                     1534.12
_exptl_crystal_colour            colorless
_exptl_crystal_description       prisms
_cell_formula_units_Z            4
loop_
_atom_site_label
_atom_site_type_symbol
_atom_site_fract_x
_atom_site_fract_y
_atom_site_fract_z
S1 S 0.17596(12) 0.40753(9) 0.36108(6)
S2 S 0.31906(14) 0.44664(11) -0.07355(7)
O1 O 0.0827(4) 0.4066(3) 0.4384(2)
O2 O 0.3250(3) 0.3483(3) 0.3652(2)
O3 O 0.2681(5) 0.4681(4) -0.1583(2)
O4 O 0.4583(4) 0.3768(3) -0.0612(2)
O5 O 0.1186(5) 0.3435(3) 0.1308(2)
C1 C 0.2096(6) 0.5582(4) 0.3338(3)
H1 H 0.1155(6) 0.6046(4) 0.3474(3)
H2 H 0.2959(6) 0.5889(4) 0.3690(3)
C2 C 0.0636(6) 0.3406(4) 0.2805(3)
H3 H -0.0014(6) 0.2786(4) 0.3070(3)
H4 H -0.0074(6) 0.4007(4) 0.2566(3)
C3 C 0.1546(7) 0.2853(4) 0.2075(3)
H5 H 0.2674(7) 0.2915(4) 0.2189(3)
H6 H 0.1277(7) 0.2007(4) 0.2026(3)
C4 C 0.2138(6) 0.3088(5) 0.0630(3)
H7 H 0.2040(6) 0.2228(5) 0.0538(3)
H8 H 0.3237(6) 0.3266(5) 0.0764(3)
C5 C 0.1655(6) 0.3743(5) -0.0170(3)
H9 H 0.0868(6) 0.4341(5) -0.0012(3)
H10 H 0.1149(6) 0.3176(5) -0.0560(3)
C6 C 0.3468(6) 0.5880(4) -0.0255(3)
H11 H 0.4536(6) 0.6152(4) -0.0382(3)
H12 H 0.2739(6) 0.6445(4) -0.0521(3)
C7 C 0.3232(5) 0.5909(4) 0.0699(3)
C8 C 0.4385(5) 0.5564(3) 0.1273(3)
C9 C 0.3981(6) 0.5482(4) 0.2125(3)
H13 H 0.4742(6) 0.5233(4) 0.2524(3)
C10 C 0.2491(5) 0.5754(4) 0.2414(3)
C11 C 0.1377(5) 0.6182(4) 0.1845(3)
C12 C 0.1780(5) 0.6235(4) 0.0997(3)
H14 H 0.1029(5) 0.6506(4) 0.0600(3)
C13 C 0.6029(6) 0.5323(5) 0.1003(3)
H15 H 0.6656(11) 0.5128(30) 0.1504(4)
H16 H 0.6458(15) 0.6024(11) 0.0725(20)
H17 H 0.6044(7) 0.4659(20) 0.0604(17)
C14 C -0.0219(6) 0.6571(5) 0.2129(4)
H18 H -0.0807(15) 0.6856(29) 0.1636(5)
H19 H -0.0119(6) 0.7207(22) 0.2548(17)
H20 H -0.0766(16) 0.5903(9) 0.2387(21)
loop_
_geom_bond_atom_site_label_1
_geom_bond_atom_site_label_2
_geom_bond_site_symmetry_1
_geom_bond_site_symmetry_2
S1 O1 1_555 1_555
S2 O3 1_555 1_555
O2 S1 1_555 1_555
O4 S2 1_555 1_555
O5 C3 1_555 1_555
C1 S1 1_555 1_555
H1 C1 1_555 1_555
H2 C1 1_555 1_555
C2 S1 1_555 1_555
H3 C2 1_555 1_555
H4 C2 1_555 1_555
C3 C2 1_555 1_555
H5 C3 1_555 1_555
H6 C3 1_555 1_555
C4 O5 1_555 1_555
H7 C4 1_555 1_555
H8 C4 1_555 1_555
C5 S2 1_555 1_555
H9 C5 1_555 1_555
H10 C5 1_555 1_555
C6 S2 1_555 1_555
H11 C6 1_555 1_555
H12 C6 1_555 1_555
C7 C6 1_555 1_555
C8 C7 1_555 1_555
C9 C8 1_555 1_555
H13 C9 1_555 1_555
C10 C1 1_555 1_555
C11 C10 1_555 1_555
C12 C7 1_555 1_555
H14 C12 1_555 1_555
C13 C8 1_555 1_555
H15 C13 1_555 1_555
H16 C13 1_555 1_555
H17 C13 1_555 1_555
C14 C11 1_555 1_555
H18 C14 1_555 1_555
H19 C14 1_555 1_555
H20 C14 1_555 1_555
C4 C5 1_555 1_555
C9 C10 1_555 1_555
C11 C12 1_555 1_555

#END
