
#######################################################################
#
#                 Cambridge Crystallographic Data Centre
#                                CCDC 
#
#######################################################################
#
# If this CIF has been generated from an entry in the Cambridge 
# Structural Database, then it will include bibliographic, chemical, 
# crystal, experimental, refinement or atomic coordinate data resulting 
# from the CCDC's data processing and validation procedures.
#
#######################################################################

data_KAQCOW
_chemical_formula_moiety         
'1.35(C14 H13 N1),C6 H6 O2,0.65(C13 H10 Cl1 N1)'
_chemical_name_systematic        
'4-(2-(4-methylphenyl)vinyl)pyridine 4-[2-(4-chlorophenyl)ethenyl]pyridine resorcinol solvate'
_symmetry_cell_setting           triclinic
_symmetry_space_group_name_H-M   'P -1'
_symmetry_Int_Tables_number      2
_space_group_name_Hall           '-P 1'
loop_
_symmetry_equiv_pos_site_id
_symmetry_equiv_pos_as_xyz
1 x,y,z
2 -x,-y,-z
_cell_length_a                   10.0708(11)
_cell_length_b                   10.4551(11)
_cell_length_c                   13.9967(15)
_cell_angle_alpha                105.885(5)
_cell_angle_beta                 99.037(5)
_cell_angle_gamma                92.659(5)
_cell_volume                     1393.65
_exptl_crystal_colour            colorless
_exptl_crystal_description       plate
_cell_formula_units_Z            2
loop_
_atom_site_label
_atom_site_type_symbol
_atom_site_fract_x
_atom_site_fract_y
_atom_site_fract_z
C14 C 0.1883(4) 0.4044(4) 0.0491(3)
C15 C 0.2341(4) 0.4335(3) 0.1498(3)
C16 C 0.1516(4) 0.4054(3) 0.2118(2)
C17 C 0.0222(4) 0.3465(3) 0.1655(2)
C18 C -0.0155(4) 0.3200(3) 0.0625(3)
C19 C 0.2061(4) 0.4399(3) 0.3211(2)
C20 C 0.1520(4) 0.4133(3) 0.3876(3)
C21 C 0.2054(3) 0.4486(2) 0.4982(2)
C22 C 0.3290(3) 0.5208(2) 0.5451(2)
C23 C 0.3730(3) 0.5506(2) 0.6487(2)
C24 C 0.2924(3) 0.5076(2) 0.7082(2)
C25 C 0.1707(3) 0.4364(2) 0.6607(2)
C26 C 0.1291(3) 0.4081(3) 0.5588(2)
C27 C 0.3385(5) 0.5389(3) 0.8204(5)
H11 H 0.2472 0.4255 0.0096
H12 H 0.3217 0.4727 0.1768
H13 H -0.0383 0.3252 0.2039
H14 H -0.1023 0.2804 0.0329
H15 H 0.291 0.4872 0.3423
H16 H 0.0675 0.3653 0.366
H17 H 0.3836 0.55 0.506
H18 H 0.4561 0.5991 0.6781
H19 H 0.1151 0.4067 0.699
H20 H 0.0459 0.3596 0.5298
H21 H 0.2742 0.4965 0.8486
H22 H 0.3455 0.6338 0.8503
H23 H 0.425 0.5064 0.8337
N2 N 0.0661(3) 0.3481(3) 0.00291(19)
C29 C 0.8261(3) 0.0416(3) 0.20675(19)
C30 C 0.8700(2) -0.0825(3) 0.17028(18)
C31 C 0.9437(3) -0.1426(3) 0.23566(19)
C32 C 0.9721(4) -0.0777(4) 0.3375(2)
C33 C 0.9272(4) 0.0443(4) 0.3721(2)
C34 C 0.8541(3) 0.1075(3) 0.3091(2)
H27 H 0.8501 -0.1262 0.1015
H28 H 1.0214 -0.1168 0.382
H29 H 0.9464 0.0871 0.441
H30 H 0.8248 0.1911 0.3345
H31 H 0.7441 0.0554 0.0854
H32 H 0.9703 -0.2905 0.1414
O1 O 0.7548(2) 0.1035(2) 0.14360(14)
O2 O 0.9909(2) -0.2629(2) 0.20300(15)
C1 C 0.4147(3) 0.0879(3) 0.1078(2)
C2 C 0.4461(3) 0.1186(3) 0.2110(2)
C3 C 0.3452(3) 0.1102(2) 0.26680(19)
C4 C 0.2165(3) 0.0723(3) 0.2121(2)
C5 C 0.1949(3) 0.0406(3) 0.1093(2)
C6 C 0.3665(3) 0.1374(3) 0.3765(2)
C7 C 0.4805(3) 0.1547(3) 0.4366(2)
C8 C 0.5018(3) 0.17595(17) 0.54764(19)
C9 C 0.6316(3) 0.2063(2) 0.6016(2)
C10 C 0.6571(3) 0.23051(18) 0.7049(2)
C11 C 0.5540(3) 0.22510(12) 0.75717(19)
C12 C 0.4237(3) 0.19495(19) 0.7046(2)
C13 C 0.3990(3) 0.1708(2) 0.6010(2)
C28 C 0.5816(5) 0.2515(2) 0.8694(7)
H1 H 0.4841 0.0965 0.0726
H2 H 0.5349 0.145 0.2436
H3 H 0.1441 0.0683 0.2454
H4 H 0.107 0.013 0.0748
H5 H 0.2896 0.1428 0.4059
H6 H 0.5577 0.1539 0.4077
H7 H 0.7032 0.2105 0.5676
H8 H 0.7456 0.2508 0.7396
H9 H 0.3523 0.1908 0.7388
H10 H 0.3105 0.1506 0.5664
H24 H 0.5656 0.3418 0.9008
H25 H 0.674 0.2383 0.8909
H26 H 0.523 0.1912 0.8883
N1 N 0.2910(3) 0.0466(2) 0.05497(17)
Cl1? Cl 0.5871(2) 0.25607(15) 0.88814(17)
Cl2? Cl 0.3518(8) 0.5473(5) 0.8384(6)
loop_
_geom_bond_atom_site_label_1
_geom_bond_atom_site_label_2
_geom_bond_site_symmetry_1
_geom_bond_site_symmetry_2
C1 C2 1_555 1_555
C2 C3 1_555 1_555
C3 C4 1_555 1_555
C4 C5 1_555 1_555
C5 H4 1_555 1_555
C6 C3 1_555 1_555
C7 C6 1_555 1_555
C8 C7 1_555 1_555
C9 C8 1_555 1_555
C10 C9 1_555 1_555
C11 C10 1_555 1_555
C12 C11 1_555 1_555
C13 C8 1_555 1_555
C14 C15 1_555 1_555
C15 C16 1_555 1_555
C16 C17 1_555 1_555
C17 C18 1_555 1_555
C18 H14 1_555 1_555
C19 C16 1_555 1_555
C20 C19 1_555 1_555
C21 C20 1_555 1_555
C22 C21 1_555 1_555
C23 C22 1_555 1_555
C24 C23 1_555 1_555
C25 C24 1_555 1_555
C26 C21 1_555 1_555
C27 C24 1_555 1_555
C28 C11 1_555 1_555
C29 C30 1_555 1_555
C30 C31 1_555 1_555
C31 C32 1_555 1_555
C32 C33 1_555 1_555
C33 C34 1_555 1_555
C34 C29 1_555 1_555
H1 C1 1_555 1_555
H2 C2 1_555 1_555
H3 C4 1_555 1_555
H5 C6 1_555 1_555
H6 C7 1_555 1_555
H7 C9 1_555 1_555
H8 C10 1_555 1_555
H9 C12 1_555 1_555
H10 C13 1_555 1_555
H11 C14 1_555 1_555
H12 C15 1_555 1_555
H13 C17 1_555 1_555
H15 C19 1_555 1_555
H16 C20 1_555 1_555
H17 C22 1_555 1_555
H18 C23 1_555 1_555
H19 C25 1_555 1_555
H20 C26 1_555 1_555
H21 C27 1_555 1_555
H22 C27 1_555 1_555
H23 C27 1_555 1_555
H24 C28 1_555 1_555
H25 C28 1_555 1_555
H26 C28 1_555 1_555
H27 C30 1_555 1_555
H28 C32 1_555 1_555
H29 C33 1_555 1_555
H30 C34 1_555 1_555
H31 O1 1_555 1_555
H32 O2 1_555 1_555
N1 C1 1_555 1_555
N2 C14 1_555 1_555
O1 C29 1_555 1_555
O2 C31 1_555 1_555
C5 N1 1_555 1_555
C12 C13 1_555 1_555
C18 N2 1_555 1_555
C25 C26 1_555 1_555

#END
