
#######################################################################
#
#                 Cambridge Crystallographic Data Centre
#                                CCDC 
#
#######################################################################
#
# If this CIF has been generated from an entry in the Cambridge 
# Structural Database, then it will include bibliographic, chemical, 
# crystal, experimental, refinement or atomic coordinate data resulting 
# from the CCDC's data processing and validation procedures.
#
#######################################################################

data_KAQDIR
_chemical_formula_moiety         'C14 H13 N1'
_chemical_name_systematic        4-(2-(4-Methylphenyl)vinyl)pyridine
_symmetry_cell_setting           orthorhombic
_symmetry_space_group_name_H-M   'P 21 21 21'
_symmetry_Int_Tables_number      19
_space_group_name_Hall           'P 2ac 2ab'
loop_
_symmetry_equiv_pos_site_id
_symmetry_equiv_pos_as_xyz
1 x,y,z
2 1/2-x,-y,1/2+z
3 -x,1/2+y,1/2-z
4 1/2+x,1/2-y,-z
_cell_length_a                   6.0339(7)
_cell_length_b                   7.6092(9)
_cell_length_c                   23.135(3)
_cell_angle_alpha                90
_cell_angle_beta                 90
_cell_angle_gamma                90
_cell_volume                     1062.2
_exptl_crystal_colour            colorless
_exptl_crystal_description       plate
_cell_formula_units_Z            4
loop_
_atom_site_label
_atom_site_type_symbol
_atom_site_fract_x
_atom_site_fract_y
_atom_site_fract_z
C1 C 1.0410(4) 0.2885(3) 0.55524(9)
C2 C 0.8924(4) 0.2685(3) 0.59953(8)
C3 C 0.9415(3) 0.3313(3) 0.65472(8)
C4 C 1.1463(3) 0.4158(3) 0.66043(8)
C5 C 1.2841(4) 0.4316(3) 0.61321(8)
C6 C 0.7840(3) 0.3075(3) 0.70217(8)
C7 C 0.7968(3) 0.3801(2) 0.75438(8)
C8 C 0.6373(3) 0.3632(3) 0.80182(8)
C9 C 0.4319(3) 0.2799(3) 0.79575(8)
C10 C 0.2893(4) 0.2633(3) 0.84191(8)
C11 C 0.3445(3) 0.3251(3) 0.89668(8)
C12 C 0.5453(3) 0.4116(3) 0.90257(8)
C13 C 0.6893(4) 0.4310(3) 0.85627(8)
C14 C 0.1937(4) 0.2952(3) 0.94745(9)
H1 H 1.0018 0.2428 0.5184
H2 H 0.7549 0.2115 0.5926
H3 H 1.1903 0.4621 0.6968
H4 H 1.4209 0.4914 0.6184
H5 H 0.6607 0.233 0.695
H6 H 0.9235 0.4508 0.7617
H7 H 0.39 0.234 0.7592
H8 H 0.1497 0.2083 0.8362
H9 H 0.5852 0.4587 0.9391
H10 H 0.8255 0.4914 0.8617
H11 H 0.2596 0.3474 0.9822
H12 H 0.1736 0.1687 0.9534
H13 H 0.0497 0.35 0.9399
N1 N 1.2383(3) 0.3686(2) 0.56047(7)
H14? H 0.0623 0.23 0.9348
H15? H 0.1483 0.4087 0.9636
H16? H 0.2723 0.2274 0.9771
loop_
_geom_bond_atom_site_label_1
_geom_bond_atom_site_label_2
_geom_bond_site_symmetry_1
_geom_bond_site_symmetry_2
C1 C2 1_555 1_555
C2 C3 1_555 1_555
C3 C4 1_555 1_555
C4 C5 1_555 1_555
C5 H4 1_555 1_555
C6 C3 1_555 1_555
C7 C6 1_555 1_555
C8 C7 1_555 1_555
C9 C8 1_555 1_555
C10 C9 1_555 1_555
C11 C10 1_555 1_555
C12 C11 1_555 1_555
C13 C8 1_555 1_555
C14 C11 1_555 1_555
H1 C1 1_555 1_555
H2 C2 1_555 1_555
H3 C4 1_555 1_555
H5 C6 1_555 1_555
H6 C7 1_555 1_555
H7 C9 1_555 1_555
H8 C10 1_555 1_555
H9 C12 1_555 1_555
H10 C13 1_555 1_555
H11 C14 1_555 1_555
H12 C14 1_555 1_555
H13 C14 1_555 1_555
N1 C1 1_555 1_555
C5 N1 1_555 1_555
C12 C13 1_555 1_555

#END
