
#######################################################################
#
#                 Cambridge Crystallographic Data Centre
#                                CCDC 
#
#######################################################################
#
# If this CIF has been generated from an entry in the Cambridge 
# Structural Database, then it will include bibliographic, chemical, 
# crystal, experimental, refinement or atomic coordinate data resulting 
# from the CCDC's data processing and validation procedures.
#
#######################################################################

data_KAQRAY
_chemical_formula_moiety         'C22 H16 Cl1 N1'
_chemical_name_systematic        8-((4-chlorophenyl)(phenyl)methyl)quinoline
_symmetry_cell_setting           orthorhombic
_symmetry_space_group_name_H-M   'P 21 21 21'
_symmetry_Int_Tables_number      19
_space_group_name_Hall           'P 2ac 2ab'
loop_
_symmetry_equiv_pos_site_id
_symmetry_equiv_pos_as_xyz
1 x,y,z
2 1/2-x,-y,1/2+z
3 -x,1/2+y,1/2-z
4 1/2+x,1/2-y,-z
_cell_length_a                   6.0503(7)
_cell_length_b                   14.698(2)
_cell_length_c                   18.444(3)
_cell_angle_alpha                90
_cell_angle_beta                 90
_cell_angle_gamma                90
_cell_volume                     1640.18
_exptl_crystal_colour            colorless
_exptl_crystal_description       plate
_cell_formula_units_Z            4
loop_
_atom_site_label
_atom_site_type_symbol
_atom_site_fract_x
_atom_site_fract_y
_atom_site_fract_z
Cl1 Cl 0.0163(2) 0.21033(8) 0.05971(6)
N1 N 0.6584(7) 0.5932(3) 0.1430(2)
C1 C 0.7899(9) 0.6314(3) 0.0949(2)
H1 H 0.9106 0.5964 0.0773
C2 C 0.7644(8) 0.7210(3) 0.0675(2)
H2 H 0.8678 0.7458 0.0341
C3 C 0.5870(8) 0.7706(3) 0.0905(2)
H3 H 0.5648 0.8306 0.073
C4 C 0.4365(7) 0.7322(3) 0.1406(2)
C5 C 0.2468(8) 0.7791(3) 0.1649(2)
H4 H 0.2145 0.838 0.1465
C6 C 0.1099(8) 0.7401(3) 0.2147(2)
H5 H -0.0196 0.7712 0.2299
C7 C 0.1600(8) 0.6535(3) 0.2439(2)
H6 H 0.067 0.6286 0.2803
C8 C 0.3398(8) 0.6046(3) 0.2208(2)
C9 C 0.4803(8) 0.6430(3) 0.1669(2)
C10 C 0.3903(8) 0.5094(3) 0.2503(2)
H7 H 0.5543 0.5022 0.2466
C11 C 0.2914(8) 0.4343(3) 0.2024(2)
C12 C 0.4148(8) 0.3573(3) 0.1863(2)
H8 H 0.5586 0.3513 0.2064
C13 C 0.3337(8) 0.2889(3) 0.1416(2)
H9 H 0.4222 0.2375 0.1301
C14 C 0.1226(8) 0.2971(3) 0.1143(2)
C15 C -0.0068(9) 0.3718(3) 0.1296(2)
H10 H -0.1519 0.3766 0.1103
C16 C 0.0790(8) 0.4406(3) 0.1742(2)
H11 H -0.0093 0.4922 0.1852
C17 C 0.3363(8) 0.5022(3) 0.3307(2)
C18 C 0.4912(9) 0.5321(3) 0.3812(2)
H12 H 0.6316 0.5526 0.365
C19 C 0.4435(8) 0.5325(3) 0.4550(2)
H13 H 0.5504 0.5541 0.4887
C20 C 0.2414(8) 0.5017(3) 0.4795(2)
H14 H 0.2085 0.5022 0.5299
C21 C 0.0869(8) 0.4701(3) 0.4303(2)
H15 H -0.0515 0.4479 0.447
C22 C 0.1340(8) 0.4709(3) 0.3562(2)
H16 H 0.0262 0.4497 0.3228
loop_
_geom_bond_atom_site_label_1
_geom_bond_atom_site_label_2
_geom_bond_site_symmetry_1
_geom_bond_site_symmetry_2
Cl1 C14 1_555 1_555
N1 C1 1_555 1_555
C1 H1 1_555 1_555
C2 C1 1_555 1_555
H2 C2 1_555 1_555
C3 C2 1_555 1_555
H3 C3 1_555 1_555
C4 C3 1_555 1_555
C5 C4 1_555 1_555
H4 C5 1_555 1_555
C6 C5 1_555 1_555
H5 C6 1_555 1_555
C7 C6 1_555 1_555
H6 C7 1_555 1_555
C8 C7 1_555 1_555
C9 N1 1_555 1_555
C10 C8 1_555 1_555
H7 C10 1_555 1_555
C11 C10 1_555 1_555
C12 C11 1_555 1_555
H8 C12 1_555 1_555
C13 C12 1_555 1_555
H9 C13 1_555 1_555
C14 C13 1_555 1_555
C15 C14 1_555 1_555
H10 C15 1_555 1_555
C16 C11 1_555 1_555
H11 C16 1_555 1_555
C17 C10 1_555 1_555
C18 C17 1_555 1_555
H12 C18 1_555 1_555
C19 C18 1_555 1_555
H13 C19 1_555 1_555
C20 C19 1_555 1_555
H14 C20 1_555 1_555
C21 C20 1_555 1_555
H15 C21 1_555 1_555
C22 C17 1_555 1_555
H16 C22 1_555 1_555
C4 C9 1_555 1_555
C8 C9 1_555 1_555
C15 C16 1_555 1_555
C21 C22 1_555 1_555

#END
