
#######################################################################
#
#                 Cambridge Crystallographic Data Centre
#                                CCDC 
#
#######################################################################
#
# If this CIF has been generated from an entry in the Cambridge 
# Structural Database, then it will include bibliographic, chemical, 
# crystal, experimental, refinement or atomic coordinate data resulting 
# from the CCDC's data processing and validation procedures.
#
#######################################################################

data_KAQREB
_chemical_formula_moiety         'C22 H33 N1 O2'
_chemical_name_systematic        
1-(15-Hydroxy-4-methylatid-16-en-21-yl)ethanone
_symmetry_cell_setting           orthorhombic
_symmetry_space_group_name_H-M   'P b c a'
_symmetry_Int_Tables_number      61
_space_group_name_Hall           '-P 2ac 2ab'
loop_
_symmetry_equiv_pos_site_id
_symmetry_equiv_pos_as_xyz
1 x,y,z
2 1/2-x,-y,1/2+z
3 1/2+x,1/2-y,-z
4 -x,1/2+y,1/2-z
5 -x,-y,-z
6 1/2+x,y,1/2-z
7 1/2-x,1/2+y,z
8 x,1/2-y,1/2+z
_cell_length_a                   8.4693(8)
_cell_length_b                   19.713(3)
_cell_length_c                   22.265(2)
_cell_angle_alpha                90
_cell_angle_beta                 90
_cell_angle_gamma                90
_cell_volume                     3717.26
_cell_formula_units_Z            8
loop_
_atom_site_label
_atom_site_type_symbol
_atom_site_fract_x
_atom_site_fract_y
_atom_site_fract_z
O1 O 0.04908(18) 0.60878(7) 0.62087(9)
O2 O 0.22529(15) 0.19824(7) 0.67343(7)
N1 N -0.00235(17) 0.25705(7) 0.67587(7)
C1 C -0.0132(2) 0.30861(10) 0.54586(8)
H1 H -0.0561 0.3345 0.5126
H2 H 0.0956 0.2978 0.5361
C2 C -0.1059(2) 0.24227(10) 0.55122(9)
H3 H -0.0447 0.2100 0.5745
H4 H -0.1213 0.2233 0.5115
C3 C -0.2668(2) 0.25223(10) 0.58118(9)
H5 H -0.3091 0.2081 0.5918
H6 H -0.3383 0.2726 0.5523
C4 C -0.26380(19) 0.29688(9) 0.63801(8)
C5 C -0.18843(18) 0.36585(8) 0.62123(7)
H7 H -0.2438 0.3820 0.5853
C6 C -0.20386(19) 0.42196(9) 0.66841(8)
H8 H -0.3145 0.4283 0.6782
H9 H -0.1493 0.4082 0.7047
C7 C -0.1351(2) 0.48890(9) 0.64620(9)
H10 H -0.1458 0.5227 0.6776
H11 H -0.1956 0.5043 0.6118
C8 C 0.03853(19) 0.48363(8) 0.62835(7)
C9 C 0.06081(19) 0.42275(8) 0.58462(7)
H12 H 0.0043 0.4363 0.5481
C10 C -0.01463(18) 0.35380(8) 0.60249(7)
C11 C 0.2367(2) 0.41774(10) 0.56479(8)
H13 H 0.2786 0.3736 0.5756
H14 H 0.2440 0.4226 0.5215
C12 C 0.3334(2) 0.47337(10) 0.59543(9)
H15 H 0.4444 0.4703 0.5833
C13 C 0.3182(2) 0.46427(10) 0.66344(9)
H16 H 0.3928 0.4936 0.6838
H17 H 0.3421 0.4177 0.6742
C14 C 0.1491(2) 0.48194(9) 0.68316(8)
H18 H 0.1485 0.5258 0.7028
H19 H 0.1117 0.4484 0.7117
C15 C 0.0901(2) 0.54717(9) 0.59189(9)
H20 H 0.0335 0.5459 0.5535
C16 C 0.2658(2) 0.54147(10) 0.57789(9)
C17 C 0.3484(3) 0.59057(12) 0.55270(11)
H21 H 0.4552 0.5843 0.5447
H22 H 0.2998 0.6314 0.5429
C18 C -0.4348(2) 0.30455(11) 0.65962(10)
H23 H -0.4939 0.3301 0.6306
H24 H -0.4361 0.3279 0.6975
H25 H -0.4814 0.2605 0.6643
C19 C -0.1711(2) 0.26384(10) 0.68951(9)
H26 H -0.1836 0.2910 0.7255
H27 H -0.2148 0.2193 0.6976
C20 C 0.07552(19) 0.31864(9) 0.65413(8)
H28 H 0.1808 0.3071 0.6403
H29 H 0.0863 0.3503 0.6873
C21 C 0.0831(2) 0.20079(9) 0.68589(8)
C22 C 0.0032(3) 0.14008(11) 0.71308(11)
H30 H -0.0742 0.1228 0.6856
H31 H -0.0476 0.1531 0.7499
H32 H 0.0803 0.1056 0.7212
H33 H 0.134(4) 0.6304(18) 0.6372(15)
loop_
_geom_bond_atom_site_label_1
_geom_bond_atom_site_label_2
_geom_bond_site_symmetry_1
_geom_bond_site_symmetry_2
O1 C15 1_555 1_555
O2 C21 1_555 1_555
N1 C19 1_555 1_555
C1 H1 1_555 1_555
H2 C1 1_555 1_555
C2 C1 1_555 1_555
H3 C2 1_555 1_555
H4 C2 1_555 1_555
C3 C2 1_555 1_555
H5 C3 1_555 1_555
H6 C3 1_555 1_555
C4 C3 1_555 1_555
C5 C4 1_555 1_555
H7 C5 1_555 1_555
C6 C5 1_555 1_555
H8 C6 1_555 1_555
H9 C6 1_555 1_555
C7 C6 1_555 1_555
H10 C7 1_555 1_555
H11 C7 1_555 1_555
C8 C7 1_555 1_555
C9 C8 1_555 1_555
H12 C9 1_555 1_555
C10 C1 1_555 1_555
C11 C9 1_555 1_555
H13 C11 1_555 1_555
H14 C11 1_555 1_555
C12 C11 1_555 1_555
H15 C12 1_555 1_555
C13 C12 1_555 1_555
H16 C13 1_555 1_555
H17 C13 1_555 1_555
C14 C8 1_555 1_555
H18 C14 1_555 1_555
H19 C14 1_555 1_555
C15 C8 1_555 1_555
H20 C15 1_555 1_555
C16 C12 1_555 1_555
C17 C16 1_555 1_555
H21 C17 1_555 1_555
H22 C17 1_555 1_555
C18 C4 1_555 1_555
H23 C18 1_555 1_555
H24 C18 1_555 1_555
H25 C18 1_555 1_555
C19 C4 1_555 1_555
H26 C19 1_555 1_555
H27 C19 1_555 1_555
C20 N1 1_555 1_555
H28 C20 1_555 1_555
H29 C20 1_555 1_555
C21 N1 1_555 1_555
C22 C21 1_555 1_555
H30 C22 1_555 1_555
H31 C22 1_555 1_555
H32 C22 1_555 1_555
H33 O1 1_555 1_555
C5 C10 1_555 1_555
C9 C10 1_555 1_555
C10 C20 1_555 1_555
C13 C14 1_555 1_555
C15 C16 1_555 1_555

#END
