
#######################################################################
#
#                 Cambridge Crystallographic Data Centre
#                                CCDC 
#
#######################################################################
#
# If this CIF has been generated from an entry in the Cambridge 
# Structural Database, then it will include bibliographic, chemical, 
# crystal, experimental, refinement or atomic coordinate data resulting 
# from the CCDC's data processing and validation procedures.
#
#######################################################################

data_KAQRIF
_chemical_formula_moiety         'C16 H29 N3 O8'
_chemical_name_systematic        
'Di-t-butyl 1-(1-isopropoxy-2-nitro-1-oxopropan-2-yl)hydrazine-1,2-dicarboxylate'
_symmetry_cell_setting           triclinic
_symmetry_space_group_name_H-M   'P -1'
_symmetry_Int_Tables_number      2
_space_group_name_Hall           '-P 1'
loop_
_symmetry_equiv_pos_site_id
_symmetry_equiv_pos_as_xyz
1 x,y,z
2 -x,-y,-z
_cell_length_a                   9.2865(5)
_cell_length_b                   10.1783(5)
_cell_length_c                   12.8619(7)
_cell_angle_alpha                86.696(2)
_cell_angle_beta                 80.581(2)
_cell_angle_gamma                63.553(2)
_cell_volume                     1073.65
_exptl_crystal_colour            colorless
_exptl_crystal_description       block
_cell_formula_units_Z            2
loop_
_atom_site_label
_atom_site_type_symbol
_atom_site_fract_x
_atom_site_fract_y
_atom_site_fract_z
O1 O 1.0090(2) -0.14303(17) 0.37544(13)
O2 O 1.10101(17) 0.01244(18) 0.39854(11)
O3 O 1.08091(15) 0.06520(16) 0.17532(10)
O4 O 0.82029(15) 0.20487(14) 0.15275(9)
O5 O 0.62185(15) -0.07266(14) 0.26740(10)
O6 O 0.86262(15) -0.09333(15) 0.17600(10)
O7 O 0.35837(15) 0.17935(14) 0.48000(11)
O8 O 0.44635(14) 0.27440(13) 0.33391(10)
N1 N 1.00414(19) -0.0217(2) 0.36865(12)
N2 N 0.73545(17) 0.05723(16) 0.31993(11)
N3 N 0.62452(17) 0.08408(17) 0.41264(12)
H1 H 0.637(2) 0.006(2) 0.4476(16)
C1 C 0.9382(2) 0.1164(2) 0.20540(14)
C2 C 0.8617(2) 0.1011(2) 0.31876(14)
C3 C 0.7501(2) -0.0447(2) 0.24693(14)
C4 C 0.8049(2) 0.2423(2) 0.38076(15)
H2 H 0.7151 0.3213 0.3509
H3 H 0.8953 0.2684 0.3768
H4 H 0.7676 0.2287 0.4546
C5 C 0.8694(2) 0.2231(2) 0.04007(14)
H5 H 0.9720 0.1350 0.0128
C6 C 0.7342(3) 0.2327(3) -0.01412(17)
H6 H 0.7232 0.1412 -0.0042
H7 H 0.7588 0.2480 -0.0896
H8 H 0.6322 0.3150 0.0159
C7 C 0.8986(3) 0.3570(3) 0.02860(18)
H9 H 0.9896 0.3423 0.0648
H10 H 0.8005 0.4422 0.0599
H11 H 0.9250 0.3741 -0.0463
C8 C 0.6208(2) -0.1989(2) 0.21634(16)
C9 C 0.6230(3) -0.1748(3) 0.09862(18)
H12 H 0.7284 -0.1794 0.0665
H13 H 0.5359 -0.0783 0.0863
H14 H 0.6062 -0.2513 0.0671
C10 C 0.4605(3) -0.1936(3) 0.2691(2)
H15 H 0.4630 -0.2105 0.3447
H16 H 0.4426 -0.2699 0.2381
H17 H 0.3720 -0.0971 0.2586
C11 C 0.7631(3) -0.3375(2) 0.24373(18)
H18 H 0.8652 -0.3381 0.2082
H19 H 0.7544 -0.4233 0.2205
H20 H 0.7617 -0.3406 0.3202
C12 C 0.4644(2) 0.18050(19) 0.41197(14)
C13 C 0.2831(2) 0.3908(2) 0.32128(18)
C14 C 0.1786(3) 0.3209(4) 0.3005(3)
H21 H 0.2304 0.2570 0.2378
H22 H 0.0717 0.3974 0.2889
H23 H 0.1651 0.2626 0.3614
C15 C 0.2166(5) 0.4918(3) 0.4156(3)
H24 H 0.1918 0.4402 0.4774
H25 H 0.1170 0.5777 0.4027
H26 H 0.2975 0.5236 0.4284
C16 C 0.3204(3) 0.4690(3) 0.2258(2)
H27 H 0.3639 0.4022 0.1645
H28 H 0.4012 0.5014 0.2379
H29 H 0.2205 0.5544 0.2127
loop_
_geom_bond_atom_site_label_1
_geom_bond_atom_site_label_2
_geom_bond_site_symmetry_1
_geom_bond_site_symmetry_2
O1 N1 1_555 1_555
O2 N1 1_555 1_555
O3 C1 1_555 1_555
O4 C1 1_555 1_555
O5 C3 1_555 1_555
O6 C3 1_555 1_555
O7 C12 1_555 1_555
O8 C12 1_555 1_555
N1 C2 1_555 1_555
N2 N3 1_555 1_555
N3 H1 1_555 1_555
C1 C2 1_555 1_555
C2 N2 1_555 1_555
C3 N2 1_555 1_555
C4 C2 1_555 1_555
H2 C4 1_555 1_555
H3 C4 1_555 1_555
H4 C4 1_555 1_555
C5 O4 1_555 1_555
H5 C5 1_555 1_555
C6 C5 1_555 1_555
H6 C6 1_555 1_555
H7 C6 1_555 1_555
H8 C6 1_555 1_555
C7 C5 1_555 1_555
H9 C7 1_555 1_555
H10 C7 1_555 1_555
H11 C7 1_555 1_555
C8 O5 1_555 1_555
C9 C8 1_555 1_555
H12 C9 1_555 1_555
H13 C9 1_555 1_555
H14 C9 1_555 1_555
C10 C8 1_555 1_555
H15 C10 1_555 1_555
H16 C10 1_555 1_555
H17 C10 1_555 1_555
C11 C8 1_555 1_555
H18 C11 1_555 1_555
H19 C11 1_555 1_555
H20 C11 1_555 1_555
C12 N3 1_555 1_555
C13 O8 1_555 1_555
C14 C13 1_555 1_555
H21 C14 1_555 1_555
H22 C14 1_555 1_555
H23 C14 1_555 1_555
C15 C13 1_555 1_555
H24 C15 1_555 1_555
H25 C15 1_555 1_555
H26 C15 1_555 1_555
C16 C13 1_555 1_555
H27 C16 1_555 1_555
H28 C16 1_555 1_555
H29 C16 1_555 1_555

#END
