
#######################################################################
#
#                 Cambridge Crystallographic Data Centre
#                                CCDC 
#
#######################################################################
#
# If this CIF has been generated from an entry in the Cambridge 
# Structural Database, then it will include bibliographic, chemical, 
# crystal, experimental, refinement or atomic coordinate data resulting 
# from the CCDC's data processing and validation procedures.
#
#######################################################################

data_KAQSIH
_chemical_formula_moiety         'C26 H35 O5 P1'
_chemical_name_systematic        
6,8-di-t-butyl-2-(2-t-butyl-4-methoxyphenoxy)-2H,4H-1,3,2-benzodioxaphosphinin-4-one
_symmetry_cell_setting           monoclinic
_symmetry_space_group_name_H-M   'P 21/n'
_symmetry_Int_Tables_number      14
_space_group_name_Hall           '-P 2yn'
loop_
_symmetry_equiv_pos_site_id
_symmetry_equiv_pos_as_xyz
1 x,y,z
2 1/2-x,1/2+y,1/2-z
3 -x,-y,-z
4 1/2+x,1/2-y,1/2+z
_cell_length_a                   9.4338(3)
_cell_length_b                   11.4458(3)
_cell_length_c                   23.1231(7)
_cell_angle_alpha                90
_cell_angle_beta                 97.4269(8)
_cell_angle_gamma                90
_cell_volume                     2475.83
_exptl_crystal_colour            colorless
_exptl_crystal_description       prism
_cell_formula_units_Z            4
loop_
_atom_site_label
_atom_site_type_symbol
_atom_site_fract_x
_atom_site_fract_y
_atom_site_fract_z
C1 C 0.52650(11) 0.00995(9) 0.17873(5)
C2 C 0.41627(10) -0.04597(9) 0.13678(4)
C3 C 0.27030(11) -0.03245(8) 0.13968(4)
C4 C 0.16762(10) -0.09165(8) 0.10131(4)
C5 C 0.21978(10) -0.16148(9) 0.05917(4)
H1 H 0.1524 -0.2016 0.0322
C6 C 0.36513(11) -0.17600(9) 0.05426(4)
C7 C 0.46198(11) -0.11761(9) 0.09423(5)
H2 H 0.5615 -0.1266 0.0926
C8 C 0.00731(10) -0.08375(9) 0.10683(4)
C9 C -0.01807(12) -0.13372(10) 0.16626(5)
H3 H -0.1200 -0.1285 0.1704
H4 H 0.0374 -0.0888 0.1975
H5 H 0.0121 -0.2157 0.1688
C10 C -0.08347(12) -0.15447(11) 0.05964(5)
H6 H -0.0550 -0.2368 0.0628
H7 H -0.0690 -0.1246 0.0211
H8 H -0.1846 -0.1473 0.0648
C11 C -0.04622(12) 0.04315(10) 0.10143(6)
H9 H -0.0290 0.0750 0.0636
H10 H 0.0051 0.0902 0.1328
H11 H -0.1489 0.0451 0.1044
C12 C 0.42002(11) -0.24993(9) 0.00649(5)
C13 C 0.48995(14) -0.16758(11) -0.03395(5)
H12 H 0.5269 -0.2133 -0.0646
H13 H 0.5687 -0.1253 -0.0113
H14 H 0.4188 -0.1116 -0.0518
C14 C 0.53104(13) -0.33889(11) 0.03381(6)
H15 H 0.4858 -0.3926 0.0589
H16 H 0.6096 -0.2976 0.0571
H17 H 0.5684 -0.3832 0.0028
C15 C 0.30042(13) -0.31678(11) -0.03036(5)
H18 H 0.2535 -0.3692 -0.0052
H19 H 0.3408 -0.3627 -0.0600
H20 H 0.2303 -0.2613 -0.0495
C16 C 0.37640(11) 0.33797(9) 0.16355(4)
C17 C 0.28300(11) 0.43293(9) 0.15032(4)
C18 C 0.34235(12) 0.54314(9) 0.16128(5)
H21 H 0.2833 0.6098 0.1530
C19 C 0.48547(12) 0.55970(10) 0.18405(5)
C20 C 0.57609(12) 0.46500(10) 0.19415(5)
H22 H 0.6745 0.4756 0.2080
C21 C 0.51940(12) 0.35358(10) 0.18346(5)
H23 H 0.5801 0.2874 0.1900
C22 C 0.12637(11) 0.41694(9) 0.12393(5)
C23 C 0.12051(13) 0.34864(11) 0.06644(5)
H24 H 0.0207 0.3387 0.0493
H25 H 0.1647 0.2718 0.0741
H26 H 0.1724 0.3919 0.0392
C24 C 0.04153(12) 0.35368(10) 0.16692(6)
H27 H 0.0480 0.3981 0.2034
H28 H 0.0813 0.2754 0.1749
H29 H -0.0589 0.3473 0.1499
C25 C 0.05249(13) 0.53479(11) 0.10990(6)
H30 H 0.0510 0.5793 0.1460
H31 H -0.0457 0.5215 0.0915
H32 H 0.1050 0.5789 0.0832
C26 C 0.66843(15) 0.69419(12) 0.21879(8)
H33 H 0.6880 0.6532 0.2562
H34 H 0.6832 0.7782 0.2250
H35 H 0.7333 0.6655 0.1921
O1 O 0.32515(8) 0.22263(6) 0.15509(3)
O2 O 0.22517(8) 0.03729(6) 0.18286(3)
O3 O 0.47975(8) 0.08211(7) 0.21981(3)
O4 O 0.65260(9) -0.00548(8) 0.18047(4)
O5 O 0.52450(10) 0.67336(7) 0.19420(4)
P1 P 0.32009(3) 0.14359(2) 0.21358(2)
loop_
_geom_bond_atom_site_label_1
_geom_bond_atom_site_label_2
_geom_bond_site_symmetry_1
_geom_bond_site_symmetry_2
C1 C2 1_555 1_555
C2 C3 1_555 1_555
C3 C4 1_555 1_555
C4 C5 1_555 1_555
C5 H1 1_555 1_555
C6 C5 1_555 1_555
C7 C2 1_555 1_555
H2 C7 1_555 1_555
C8 C4 1_555 1_555
C9 C8 1_555 1_555
H3 C9 1_555 1_555
H4 C9 1_555 1_555
H5 C9 1_555 1_555
C10 C8 1_555 1_555
H6 C10 1_555 1_555
H7 C10 1_555 1_555
H8 C10 1_555 1_555
C11 C8 1_555 1_555
H9 C11 1_555 1_555
H10 C11 1_555 1_555
H11 C11 1_555 1_555
C12 C6 1_555 1_555
C13 C12 1_555 1_555
H12 C13 1_555 1_555
H13 C13 1_555 1_555
H14 C13 1_555 1_555
C14 C12 1_555 1_555
H15 C14 1_555 1_555
H16 C14 1_555 1_555
H17 C14 1_555 1_555
C15 C12 1_555 1_555
H18 C15 1_555 1_555
H19 C15 1_555 1_555
H20 C15 1_555 1_555
C16 C17 1_555 1_555
C17 C18 1_555 1_555
C18 H21 1_555 1_555
C19 C18 1_555 1_555
C20 C19 1_555 1_555
H22 C20 1_555 1_555
C21 C16 1_555 1_555
H23 C21 1_555 1_555
C22 C17 1_555 1_555
C23 C22 1_555 1_555
H24 C23 1_555 1_555
H25 C23 1_555 1_555
H26 C23 1_555 1_555
C24 C22 1_555 1_555
H27 C24 1_555 1_555
H28 C24 1_555 1_555
H29 C24 1_555 1_555
C25 C22 1_555 1_555
H30 C25 1_555 1_555
H31 C25 1_555 1_555
H32 C25 1_555 1_555
C26 H33 1_555 1_555
H34 C26 1_555 1_555
H35 C26 1_555 1_555
O1 C16 1_555 1_555
O2 C3 1_555 1_555
O3 C1 1_555 1_555
O4 C1 1_555 1_555
O5 C19 1_555 1_555
P1 O1 1_555 1_555
C6 C7 1_555 1_555
C20 C21 1_555 1_555
C26 O5 1_555 1_555
O2 P1 1_555 1_555
O3 P1 1_555 1_555

#END
