
#######################################################################
#
#                 Cambridge Crystallographic Data Centre
#                                CCDC 
#
#######################################################################
#
# If this CIF has been generated from an entry in the Cambridge 
# Structural Database, then it will include bibliographic, chemical, 
# crystal, experimental, refinement or atomic coordinate data resulting 
# from the CCDC's data processing and validation procedures.
#
#######################################################################

data_KAQWAB
_chemical_compound_source        'aerial parts of Delphinium trifoliolatum'
_chemical_formula_moiety         'C43 H45 N1 O13'
_chemical_name_systematic        'Trifoliolasine D'
_chemical_properties_biological  
'used in Chinese medicine for treatment of rheumatism and neuralgia'
_symmetry_cell_setting           orthorhombic
_symmetry_space_group_name_H-M   'P 21 21 21'
_symmetry_Int_Tables_number      19
_space_group_name_Hall           'P 2ac 2ab'
loop_
_symmetry_equiv_pos_site_id
_symmetry_equiv_pos_as_xyz
1 x,y,z
2 1/2-x,-y,1/2+z
3 -x,1/2+y,1/2-z
4 1/2+x,1/2-y,-z
_cell_length_a                   14.819(2)
_cell_length_b                   14.944(2)
_cell_length_c                   18.277(3)
_cell_angle_alpha                90
_cell_angle_beta                 90
_cell_angle_gamma                90
_cell_volume                     4047.54
_exptl_crystal_colour            colorless
_exptl_crystal_description       sheet
_chemical_melting_point          '238-240 deg.C'
_cell_formula_units_Z            4
_exptl_crystal_recrystallization_method acetone/cyclohexane
loop_
_atom_site_label
_atom_site_type_symbol
_atom_site_fract_x
_atom_site_fract_y
_atom_site_fract_z
O1 O 0.29214(12) 0.59433(11) 0.20763(9)
O2 O 0.14681(15) 0.63468(14) 0.20025(14)
O3 O 0.20744(12) 0.38195(11) 0.27889(10)
O4 O 0.08724(16) 0.33538(17) 0.21563(14)
O5 O 0.60039(12) 0.53429(11) 0.30275(10)
O6 O 0.71531(14) 0.44523(15) 0.33683(14)
O7 O 0.27474(12) 0.69744(11) 0.33762(10)
O8 O 0.31028(16) 0.84229(13) 0.33542(17)
O9 O 0.24444(12) 0.55833(12) 0.44555(10)
O10 O 0.23377(15) 0.43949(13) 0.52083(11)
O11 O 0.59729(13) 0.58775(12) 0.46935(10)
O12 O 0.69551(16) 0.69264(16) 0.43303(16)
O13 O 0.44987(13) 0.24390(12) 0.22916(11)
N1 N 0.41750(14) 0.37311(13) 0.34817(11)
C1 C 0.26978(17) 0.52775(15) 0.26344(14)
H1 H 0.2266 0.5523 0.2988
C2 C 0.22881(18) 0.44795(16) 0.22262(15)
H2 H 0.1732 0.4667 0.1981
C3 C 0.29402(18) 0.41003(17) 0.16658(14)
H3 H 0.2991 0.4526 0.1267
H4 H 0.2678 0.3558 0.1466
C4 C 0.38920(19) 0.38811(16) 0.19366(14)
C5 C 0.42687(16) 0.46044(15) 0.24789(14)
H5 H 0.4614 0.5050 0.2203
C6 C 0.48845(17) 0.41688(16) 0.30510(14)
H6 H 0.5298 0.3734 0.2830
C7 C 0.53854(17) 0.48659(16) 0.35045(15)
H7 H 0.5728 0.4566 0.3892
C8 C 0.47502(17) 0.55448(16) 0.38430(14)
C9 C 0.41064(17) 0.59569(15) 0.32603(13)
H8 H 0.4474 0.6178 0.2853
C10 C 0.35972(16) 0.50938(15) 0.29978(13)
C11 C 0.36518(18) 0.67686(16) 0.36325(14)
H9 H 0.4027 0.7292 0.3524
C12 C 0.36465(18) 0.66571(17) 0.44689(15)
H10 H 0.3241 0.7094 0.4697
C13 C 0.33819(18) 0.57042(17) 0.46847(16)
H11 H 0.3428 0.5635 0.5217
C14 C 0.40250(17) 0.50379(16) 0.43032(14)
H12 H 0.4316 0.4650 0.4666
C15 C 0.52543(19) 0.62812(17) 0.42629(15)
H13 H 0.5522 0.6698 0.3910
C16 C 0.4598(2) 0.67826(17) 0.47369(16)
C17 C 0.4818(3) 0.7259(3) 0.5318(2)
H14 H 0.5461(18) 0.7288(18) 0.5488(15)
H15 H 0.438(2) 0.752(2) 0.5588(17)
C18 C 0.45261(19) 0.38397(19) 0.12777(15)
H16 H 0.5127 0.3708 0.1441
H17 H 0.4522 0.4406 0.1029
H18 H 0.4327 0.3379 0.0949
C19 C 0.3878(2) 0.29586(17) 0.22918(15)
H19 H 0.3350 0.2784 0.2527
C20 C 0.35910(17) 0.44747(15) 0.36992(13)
H20 H 0.2982 0.4275 0.3829
C21 C 0.44586(19) 0.30799(16) 0.40342(14)
H21 H 0.4924 0.3337 0.4333
H22 H 0.4686 0.2553 0.3796
H23 H 0.3952 0.2923 0.4335
C22 C 0.2577(2) 0.71822(18) 0.13436(16)
H24 H 0.2079 0.7532 0.1167
H25 H 0.2891 0.6921 0.0937
H26 H 0.2983 0.7560 0.1613
C23 C 0.2235(2) 0.64603(19) 0.18307(17)
C24 C 0.1921(2) 0.2457(2) 0.37805(18)
H27 H 0.2428 0.2823 0.3792
C25 C 0.1821(2) 0.1788(2) 0.42971(18)
H28 H 0.2259 0.1709 0.4656
C26 C 0.1086(3) 0.1245(2) 0.4282(2)
H29 H 0.1015 0.0802 0.4635
C27 C 0.0450(3) 0.1352(3) 0.3748(2)
H30 H -0.0046 0.0972 0.3733
C28 C 0.0537(2) 0.2017(2) 0.3232(2)
H31 H 0.0100 0.2084 0.2871
C29 C 0.1275(2) 0.25849(19) 0.32487(17)
C30 C 0.1363(2) 0.3277(2) 0.26697(19)
C31 C 0.7382(2) 0.5586(2) 0.2461(2)
H32 H 0.7656 0.6087 0.2704
H33 H 0.6981 0.5799 0.2087
H34 H 0.7844 0.5222 0.2243
C32 C 0.6866(2) 0.5046(2) 0.3000(2)
C33 C 0.15877(19) 0.8001(2) 0.31079(16)
H35 H 0.1317 0.8364 0.3481
H36 H 0.1279 0.7437 0.3082
H37 H 0.1543 0.8301 0.2645
C34 C 0.2554(2) 0.7846(2) 0.32871(16)
C35 C 0.0706(2) 0.5390(3) 0.3983(2)
H38 H 0.1043 0.5880 0.3828
C36 C -0.0146(3) 0.5257(3) 0.3708(2)
H39 H -0.0386 0.5659 0.3372
C37 C -0.0643(3) 0.4532(3) 0.3930(3)
H40 H -0.1214 0.4435 0.3735
C38 C -0.0302(3) 0.3954(3) 0.4436(3)
H41 H -0.0650 0.3475 0.4597
C39 C 0.0558(2) 0.4077(2) 0.4711(2)
H42 H 0.0796 0.3672 0.5046
C40 C 0.1065(2) 0.4805(2) 0.44847(18)
C41 C 0.2003(2) 0.4893(2) 0.47740(17)
C42 C 0.7497(2) 0.5692(2) 0.5027(2)
H43 H 0.7660 0.5191 0.4725
H44 H 0.7253 0.5479 0.5481
H45 H 0.8023 0.6049 0.5122
C43 C 0.6806(2) 0.6246(2) 0.4641(2)
loop_
_geom_bond_atom_site_label_1
_geom_bond_atom_site_label_2
_geom_bond_site_symmetry_1
_geom_bond_site_symmetry_2
O1 C1 1_555 1_555
O2 C23 1_555 1_555
O3 C2 1_555 1_555
O4 C30 1_555 1_555
O5 C7 1_555 1_555
O6 C32 1_555 1_555
O7 C11 1_555 1_555
O8 C34 1_555 1_555
O9 C13 1_555 1_555
O10 C41 1_555 1_555
O11 C15 1_555 1_555
O12 C43 1_555 1_555
O13 C19 1_555 1_555
N1 C6 1_555 1_555
C1 H1 1_555 1_555
C2 C1 1_555 1_555
H2 C2 1_555 1_555
C3 C2 1_555 1_555
H3 C3 1_555 1_555
H4 C3 1_555 1_555
C4 C3 1_555 1_555
C5 C4 1_555 1_555
H5 C5 1_555 1_555
C6 C5 1_555 1_555
H6 C6 1_555 1_555
C7 C6 1_555 1_555
H7 C7 1_555 1_555
C8 C7 1_555 1_555
C9 C8 1_555 1_555
H8 C9 1_555 1_555
C10 C1 1_555 1_555
C11 C9 1_555 1_555
H9 C11 1_555 1_555
C12 C11 1_555 1_555
H10 C12 1_555 1_555
C13 C12 1_555 1_555
H11 C13 1_555 1_555
C14 C8 1_555 1_555
H12 C14 1_555 1_555
C15 C8 1_555 1_555
H13 C15 1_555 1_555
C16 C12 1_555 1_555
C17 C16 1_555 1_555
H14 C17 1_555 1_555
H15 C17 1_555 1_555
C18 C4 1_555 1_555
H16 C18 1_555 1_555
H17 C18 1_555 1_555
H18 C18 1_555 1_555
C19 C4 1_555 1_555
H19 C19 1_555 1_555
C20 N1 1_555 1_555
H20 C20 1_555 1_555
C21 N1 1_555 1_555
H21 C21 1_555 1_555
H22 C21 1_555 1_555
H23 C21 1_555 1_555
C22 H24 1_555 1_555
H25 C22 1_555 1_555
H26 C22 1_555 1_555
C23 O1 1_555 1_555
C24 H27 1_555 1_555
C25 C24 1_555 1_555
H28 C25 1_555 1_555
C26 C25 1_555 1_555
H29 C26 1_555 1_555
C27 C26 1_555 1_555
H30 C27 1_555 1_555
C28 C27 1_555 1_555
H31 C28 1_555 1_555
C29 C24 1_555 1_555
C30 O3 1_555 1_555
C31 H32 1_555 1_555
H33 C31 1_555 1_555
H34 C31 1_555 1_555
C32 O5 1_555 1_555
C33 H35 1_555 1_555
H36 C33 1_555 1_555
H37 C33 1_555 1_555
C34 O7 1_555 1_555
C35 H38 1_555 1_555
C36 C35 1_555 1_555
H39 C36 1_555 1_555
C37 C36 1_555 1_555
H40 C37 1_555 1_555
C38 C37 1_555 1_555
H41 C38 1_555 1_555
C39 C38 1_555 1_555
H42 C39 1_555 1_555
C40 C35 1_555 1_555
C41 O9 1_555 1_555
C42 H43 1_555 1_555
H44 C42 1_555 1_555
H45 C42 1_555 1_555
C43 O11 1_555 1_555
C5 C10 1_555 1_555
C9 C10 1_555 1_555
C10 C20 1_555 1_555
C13 C14 1_555 1_555
C14 C20 1_555 1_555
C15 C16 1_555 1_555
C22 C23 1_555 1_555
C28 C29 1_555 1_555
C29 C30 1_555 1_555
C31 C32 1_555 1_555
C33 C34 1_555 1_555
C39 C40 1_555 1_555
C40 C41 1_555 1_555
C42 C43 1_555 1_555

#END
