
#######################################################################
#
#                 Cambridge Crystallographic Data Centre
#                                CCDC 
#
#######################################################################
#
# If this CIF has been generated from an entry in the Cambridge 
# Structural Database, then it will include bibliographic, chemical, 
# crystal, experimental, refinement or atomic coordinate data resulting 
# from the CCDC's data processing and validation procedures.
#
#######################################################################

data_KARCIQ01
_chemical_formula_moiety         'C12 H10 N2,C10 F8'
_chemical_name_systematic        'octafluoronaphthalene trans-azobenzene'
_symmetry_cell_setting           triclinic
_symmetry_space_group_name_H-M   'P -1'
_symmetry_Int_Tables_number      2
_space_group_name_Hall           '-P 1'
loop_
_symmetry_equiv_pos_site_id
_symmetry_equiv_pos_as_xyz
1 x,y,z
2 -x,-y,-z
_cell_length_a                   6.492(1)
_cell_length_b                   7.066(1)
_cell_length_c                   10.522(1)
_cell_angle_alpha                93.65(1)
_cell_angle_beta                 104.97(1)
_cell_angle_gamma                101.15(1)
_cell_volume                     454.189
_exptl_crystal_colour            yellow-orange
_exptl_crystal_description       block
_chemical_melting_point          '402 K'
_cell_formula_units_Z            1
loop_
_atom_site_label
_atom_site_type_symbol
_atom_site_fract_x
_atom_site_fract_y
_atom_site_fract_z
F1 F 0.74060(15) 0.49938(15) 0.28957(9)
F2 F 0.35537(16) 0.29853(15) 0.13334(9)
F3 F 0.00690(15) 0.20630(15) 0.22817(9)
F4 F 0.03493(15) 0.30667(14) 0.48286(9)
C7 C 0.5701(3) 0.4603(2) 0.34123(16)
C8 C 0.3760(3) 0.3576(2) 0.26039(15)
C9 C 0.1947(3) 0.3096(2) 0.30963(16)
C10 C 0.2110(2) 0.3645(2) 0.43846(16)
C11 C 0.5931(2) 0.5249(2) 0.47507(15)
F1A F 0.25940(15) 0.50062(15) 0.71043(9)
F2A F 0.64463(16) 0.70147(15) 0.86666(9)
F3A F 0.99310(15) 0.79370(15) 0.77183(9)
F4A F 0.96507(15) 0.69333(14) 0.51714(9)
C7A C 0.4299(3) 0.5397(2) 0.65877(16)
C8A C 0.6240(3) 0.6424(2) 0.73961(15)
C9A C 0.8053(3) 0.6904(2) 0.69037(16)
C10A C 0.7890(2) 0.6355(2) 0.56154(16)
C11A C 0.4069(2) 0.4751(2) 0.52493(15)
N1 N 0.4048(2) 0.9634(2) 0.46496(13)
C1 C 0.3905(3) 0.8981(2) 0.33110(15)
C2 C 0.1831(3) 0.8076(2) 0.25293(16)
H1 H 0.0626 0.7921 0.2897
C3 C 0.1513(3) 0.7395(3) 0.12160(17)
H2 H 0.0092 0.6778 0.0682
C4 C 0.3271(3) 0.7620(3) 0.06811(17)
H3 H 0.3059 0.7144 -0.0219
C5 C 0.5347(3) 0.8539(3) 0.14577(17)
H4 H 0.6546 0.8695 0.1084
C6 C 0.5679(3) 0.9225(2) 0.27724(16)
H5 H 0.7098 0.9857 0.3302
N1A N 0.5952(2) 1.0366(2) 0.53504(13)
C1A C 0.6095(3) 1.1019(2) 0.66890(15)
C2A C 0.8169(3) 1.1924(2) 0.74707(16)
H1A H 0.9374 1.2079 0.7103
C3A C 0.8487(3) 1.2605(3) 0.87840(17)
H2A H 0.9908 1.3222 0.9318
C4A C 0.6729(3) 1.2380(3) 0.93189(17)
H3A H 0.6941 1.2856 1.0219
C5A C 0.4653(3) 1.1461(3) 0.85423(17)
H4A H 0.3454 1.1305 0.8916
C6A C 0.4321(3) 1.0775(2) 0.72276(16)
H5A H 0.2902 1.0143 0.6698
loop_
_geom_bond_atom_site_label_1
_geom_bond_atom_site_label_2
_geom_bond_site_symmetry_1
_geom_bond_site_symmetry_2
F1 C7 1_555 1_555
F2 C8 1_555 1_555
F3 C9 1_555 1_555
F4 C10 1_555 1_555
N1 C1 1_555 1_555
C1 C2 1_555 1_555
C2 H1 1_555 1_555
C3 C2 1_555 1_555
H2 C3 1_555 1_555
C4 C3 1_555 1_555
H3 C4 1_555 1_555
C5 C4 1_555 1_555
H4 C5 1_555 1_555
C6 C1 1_555 1_555
H5 C6 1_555 1_555
C7 C8 1_555 1_555
C8 C9 1_555 1_555
C9 C10 1_555 1_555
C10 C11A 1_555 1_555
C11 C7 1_555 1_555
F1A C7A 1_555 1_555
F2A C8A 1_555 1_555
F3A C9A 1_555 1_555
F4A C10A 1_555 1_555
N1A N1 1_555 1_555
C1A N1A 1_555 1_555
C2A C1A 1_555 1_555
H1A C2A 1_555 1_555
C3A C2A 1_555 1_555
H2A C3A 1_555 1_555
C4A C3A 1_555 1_555
H3A C4A 1_555 1_555
C5A C4A 1_555 1_555
H4A C5A 1_555 1_555
C6A C1A 1_555 1_555
H5A C6A 1_555 1_555
C7A C8A 1_555 1_555
C8A C9A 1_555 1_555
C9A C10A 1_555 1_555
C10A C11 1_555 1_555
C11A C11 1_555 1_555
C5 C6 1_555 1_555
C5A C6A 1_555 1_555
C7A C11A 1_555 1_555

#END
