
#######################################################################
#
#                 Cambridge Crystallographic Data Centre
#                                CCDC 
#
#######################################################################
#
# If this CIF has been generated from an entry in the Cambridge 
# Structural Database, then it will include bibliographic, chemical, 
# crystal, experimental, refinement or atomic coordinate data resulting 
# from the CCDC's data processing and validation procedures.
#
#######################################################################

data_KARJUK
_chemical_formula_moiety         
'C28 H20 O16 S4 4-,0.5(C22 H22 N4 4+),2(H3 O1 1+),0.5(H2 O1)'
_chemical_name_systematic        
"1,2-bis(4,4'-Bipyridinio)ethane dioxonium 25,26,27,28-tetrahydroxy-5,11,17,23-tetrasulfonatocalix(4)arene hemihydrate"
_symmetry_cell_setting           triclinic
_symmetry_space_group_name_H-M   'P -1'
_symmetry_Int_Tables_number      2
_space_group_name_Hall           '-P 1'
loop_
_symmetry_equiv_pos_site_id
_symmetry_equiv_pos_as_xyz
1 x,y,z
2 -x,-y,-z
_cell_length_a                   11.907(10)
_cell_length_b                   12.445(10)
_cell_length_c                   15.526(12)
_cell_angle_alpha                83.75(2)
_cell_angle_beta                 79.618(18)
_cell_angle_gamma                86.06(2)
_cell_volume                     2246.73
_exptl_crystal_colour            colorless
_exptl_crystal_description       block
_cell_formula_units_Z            2
loop_
_atom_site_label
_atom_site_type_symbol
_atom_site_fract_x
_atom_site_fract_y
_atom_site_fract_z
S1 S 0.53350(19) 0.69244(18) 0.24582(15)
S2 S -0.0052(2) 0.45542(18) 0.15694(14)
O1 O 0.3070(4) 0.3667(4) 0.5117(3)
H2 H 0.2382 0.3678 0.5109
O2 O 0.3887(4) 0.1595(4) 0.5243(3)
H3 H 0.3373 0.2059 0.5197
O3 O 0.1770(4) 0.1256(4) 0.5032(3)
H4 H 0.1258 0.1155 0.5458
O4 O 0.0834(4) 0.3267(5) 0.5175(3)
H5 H 0.1522 0.3235 0.5183
C1 C 0.1625(5) 0.5305(6) 0.4328(5)
H6 H 0.1351 0.6041 0.4176
H7 H 0.1429 0.5152 0.4962
C2 C 0.2914(6) 0.5224(5) 0.4063(4)
C3 C 0.3476(6) 0.5961(5) 0.3430(4)
H8 H 0.3053 0.6511 0.3161
C4 C 0.4667(6) 0.5899(5) 0.3184(4)
C5 C 0.5290(6) 0.5061(5) 0.3556(4)
H9 H 0.6080 0.5015 0.3383
C6 C 0.4763(5) 0.4269(5) 0.4192(4)
C7 C 0.3574(6) 0.4382(5) 0.4462(4)
C8 C 0.5451(6) 0.3302(5) 0.4551(4)
H10 H 0.6247 0.3478 0.4473
H11 H 0.5175 0.3152 0.5177
C9 C 0.5368(6) 0.2296(5) 0.4095(4)
C10 C 0.6109(6) 0.2119(6) 0.3331(5)
H12 H 0.6669 0.2611 0.3108
C11 C 0.6041(6) 0.1214(6) 0.2878(5)
C12 C 0.5195(6) 0.0475(6) 0.3236(5)
H13 H 0.5130 -0.0118 0.2935
C13 C 0.4470(5) 0.0599(5) 0.4006(5)
C14 C 0.4560(6) 0.1514(5) 0.4439(4)
C15 C 0.3611(6) -0.0246(5) 0.4387(5)
H14 H 0.3452 -0.0237 0.5022
H15 H 0.3959 -0.0953 0.4262
C16 C 0.2471(5) -0.0105(5) 0.4045(4)
C17 C 0.2243(6) -0.0744(5) 0.3430(4)
H16 H 0.2804 -0.1240 0.3196
C18 C 0.1194(6) -0.0659(5) 0.3154(4)
C19 C 0.0380(6) 0.0139(6) 0.3456(4)
H17 H -0.0308 0.0222 0.3246
C20 C 0.0578(5) 0.0806(5) 0.4060(4)
C21 C 0.1601(6) 0.0651(6) 0.4369(4)
C22 C -0.0287(5) 0.1716(6) 0.4368(4)
H18 H -0.1027 0.1583 0.4233
H19 H -0.0367 0.1716 0.5001
C23 C 0.0085(5) 0.2824(5) 0.3924(4)
C24 C -0.0152(6) 0.3146(6) 0.3094(5)
H20 H -0.0567 0.2706 0.2834
C25 C 0.0222(6) 0.4127(6) 0.2640(5)
C26 C 0.0794(6) 0.4809(6) 0.3069(5)
H21 H 0.1027 0.5470 0.2775
C27 C 0.1018(5) 0.4537(5) 0.3894(4)
C28 C 0.0652(5) 0.3526(6) 0.4318(4)
O5 O 0.5454(10) 0.7776(7) 0.3007(6)
O7 O 0.4596(9) 0.7282(11) 0.1854(7)
O9 O 0.6537(7) 0.6683(15) 0.2355(14)
S3 S 0.7044(2) 0.0998(2) 0.19356(19)
O11 O 0.7199(10) -0.0124(6) 0.1830(7)
O12 O 0.8109(9) 0.1394(12) 0.2083(10)
O13 O 0.6660(12) 0.1605(11) 0.1209(7)
S4 S 0.0888(2) -0.1567(2) 0.24570(19)
O17 O 0.1876(8) -0.1414(10) 0.1675(6)
O18 O 0.0941(10) -0.2611(6) 0.2808(7)
O19 O -0.0092(8) -0.1167(10) 0.2098(8)
O23 O -0.0725(6) 0.5546(6) 0.1628(4)
O24 O 0.1041(7) 0.4674(6) 0.1005(4)
O25 O -0.0631(6) 0.3701(6) 0.1324(4)
N1 N 0.0602(6) 0.1188(6) 0.0325(4)
N2 N 0.5088(9) 0.3751(8) 0.1357(8)
H1 H 0.5674 0.4010 0.1498
C29 C 0.0769(7) 0.1193(6) 0.1154(4)
H22 H 0.0277 0.0819 0.1602
C30 C 0.1614(7) 0.1714(7) 0.1367(5)
H23 H 0.1706 0.1682 0.1951
C31 C 0.2355(8) 0.2303(8) 0.0713(5)
C32 C 0.2110(11) 0.2393(13) -0.0133(6)
H24 H 0.2524 0.2844 -0.0578
C33 C 0.1248(11) 0.1806(13) -0.0312(6)
H25 H 0.1113 0.1842 -0.0886
C34 C 0.4167(10) 0.3603(11) 0.1980(9)
H26 H 0.4146 0.3811 0.2540
C35 C 0.3282(9) 0.3151(10) 0.1777(7)
H27 H 0.2646 0.3017 0.2212
C36 C 0.3280(7) 0.2870(8) 0.0928(6)
C37 C 0.4261(10) 0.3033(11) 0.0331(8)
H28 H 0.4330 0.2811 -0.0230
C38 C 0.5156(10) 0.3534(12) 0.0564(10)
H29 H 0.5798 0.3708 0.0147
C39 C -0.0266(8) 0.0545(8) 0.0117(5)
H30 H -0.0586 0.0913 -0.0374
H31 H -0.0879 0.0451 0.0619
N1A N -0.0602(6) -0.1188(6) -0.0325(4)
N2A N -0.5088(9) -0.3751(8) -0.1357(8)
H1A H -0.5674 -0.4010 -0.1498
C29A C -0.0769(7) -0.1193(6) -0.1154(4)
H22A H -0.0277 -0.0819 -0.1602
C30A C -0.1614(7) -0.1714(7) -0.1367(5)
H23A H -0.1706 -0.1682 -0.1951
C31A C -0.2355(8) -0.2303(8) -0.0713(5)
C32A C -0.2110(11) -0.2393(13) 0.0133(6)
H24A H -0.2524 -0.2844 0.0578
C33A C -0.1248(11) -0.1806(13) 0.0312(6)
H25A H -0.1113 -0.1842 0.0886
C34A C -0.4167(10) -0.3603(11) -0.1980(9)
H26A H -0.4146 -0.3811 -0.2540
C35A C -0.3282(9) -0.3151(10) -0.1777(7)
H27A H -0.2646 -0.3017 -0.2212
C36A C -0.3280(7) -0.2870(8) -0.0928(6)
C37A C -0.4261(10) -0.3033(11) -0.0331(8)
H28A H -0.4330 -0.2811 0.0230
C38A C -0.5156(10) -0.3534(12) -0.0564(10)
H29A H -0.5798 -0.3708 -0.0147
C39A C 0.0266(8) -0.0545(8) -0.0117(5)
H30A H 0.0586 -0.0913 0.0374
H31A H 0.0879 -0.0451 -0.0619
O26 O 0.7526(7) 0.8323(7) 0.3007(5)
O27 O 0.8736(9) 0.6739(8) 0.2980(6)
O30 O 0.919(2) 0.3071(19) 0.9806(14)
O31 O 0.424(2) 0.9478(19) 0.1310(13)
O32 O 0.736(3) 0.250(3) 0.944(2)
O6? O 0.6422(7) 0.6513(8) 0.2037(8)
O8? O 0.4934(17) 0.7951(8) 0.2659(12)
O10? O 0.4970(19) 0.6741(18) 0.1620(8)
O14? O 0.7974(9) 0.0383(11) 0.2249(8)
O15? O 0.6492(11) 0.0367(10) 0.1423(8)
O16? O 0.7342(11) 0.2003(7) 0.1483(7)
O20? O 0.1810(9) -0.2291(10) 0.2231(8)
O21? O 0.0053(12) -0.2276(11) 0.3148(7)
O22? O 0.0258(12) -0.1100(12) 0.1844(8)
O28? O 0.7017(10) 0.4328(11) 0.1787(10)
O29? O 0.6959(19) 0.483(2) 0.1249(17)
O33? O 0.854(4) 0.307(3) 0.984(2)
loop_
_geom_bond_atom_site_label_1
_geom_bond_atom_site_label_2
_geom_bond_site_symmetry_1
_geom_bond_site_symmetry_2
S1 C4 1_555 1_555
S2 C25 1_555 1_555
N1 C29 1_555 1_555
N2 H1 1_555 1_555
O1 H2 1_555 1_555
O2 H3 1_555 1_555
O3 H4 1_555 1_555
O4 H5 1_555 1_555
C1 H6 1_555 1_555
H7 C1 1_555 1_555
C2 C1 1_555 1_555
C3 C2 1_555 1_555
H8 C3 1_555 1_555
C4 C3 1_555 1_555
C5 C4 1_555 1_555
H9 C5 1_555 1_555
C6 C5 1_555 1_555
C7 O1 1_555 1_555
C8 C6 1_555 1_555
H10 C8 1_555 1_555
H11 C8 1_555 1_555
C9 C8 1_555 1_555
C10 C9 1_555 1_555
H12 C10 1_555 1_555
C11 C10 1_555 1_555
C12 C11 1_555 1_555
H13 C12 1_555 1_555
C13 C12 1_555 1_555
C14 O2 1_555 1_555
C15 C13 1_555 1_555
H14 C15 1_555 1_555
H15 C15 1_555 1_555
C16 C15 1_555 1_555
C17 C16 1_555 1_555
H16 C17 1_555 1_555
C18 C17 1_555 1_555
C19 C18 1_555 1_555
H17 C19 1_555 1_555
C20 C19 1_555 1_555
C21 O3 1_555 1_555
C22 C20 1_555 1_555
H18 C22 1_555 1_555
H19 C22 1_555 1_555
C23 C22 1_555 1_555
C24 C23 1_555 1_555
H20 C24 1_555 1_555
C25 C24 1_555 1_555
C26 C25 1_555 1_555
H21 C26 1_555 1_555
C27 C1 1_555 1_555
C28 O4 1_555 1_555
C29 H22 1_555 1_555
C30 C29 1_555 1_555
H23 C30 1_555 1_555
C31 C30 1_555 1_555
C32 C31 1_555 1_555
H24 C32 1_555 1_555
C33 N1 1_555 1_555
H25 C33 1_555 1_555
C34 N2 1_555 1_555
H26 C34 1_555 1_555
C35 C34 1_555 1_555
H27 C35 1_555 1_555
C36 C31 1_555 1_555
C37 C36 1_555 1_555
H28 C37 1_555 1_555
C38 N2 1_555 1_555
H29 C38 1_555 1_555
C39 N1 1_555 1_555
H30 C39 1_555 1_555
H31 C39 1_555 1_555
O5 S1 1_555 1_555
O7 S1 1_555 1_555
O9 S1 1_555 1_555
S3 C11 1_555 1_555
O11 S3 1_555 1_555
O12 S3 1_555 1_555
O13 S3 1_555 1_555
S4 C18 1_555 1_555
O17 S4 1_555 1_555
O18 S4 1_555 1_555
O19 S4 1_555 1_555
O23 S2 1_555 1_555
O24 S2 1_555 1_555
O25 S2 1_555 1_555
N1A C29A 1_555 1_555
N2A H1A 1_555 1_555
C29A H22A 1_555 1_555
C30A C29A 1_555 1_555
H23A C30A 1_555 1_555
C31A C30A 1_555 1_555
C32A C31A 1_555 1_555
H24A C32A 1_555 1_555
C33A N1A 1_555 1_555
H25A C33A 1_555 1_555
C34A N2A 1_555 1_555
H26A C34A 1_555 1_555
C35A C34A 1_555 1_555
H27A C35A 1_555 1_555
C36A C31A 1_555 1_555
C37A C36A 1_555 1_555
H28A C37A 1_555 1_555
C38A N2A 1_555 1_555
H29A C38A 1_555 1_555
C39A C39 1_555 1_555
H30A C39A 1_555 1_555
H31A C39A 1_555 1_555
C2 C7 1_555 1_555
C6 C7 1_555 1_555
C9 C14 1_555 1_555
C13 C14 1_555 1_555
C16 C21 1_555 1_555
C20 C21 1_555 1_555
C23 C28 1_555 1_555
C26 C27 1_555 1_555
C27 C28 1_555 1_555
C32 C33 1_555 1_555
C35 C36 1_555 1_555
C37 C38 1_555 1_555
N1A C39A 1_555 1_555
C32A C33A 1_555 1_555
C35A C36A 1_555 1_555
C37A C38A 1_555 1_555

#END
