
#######################################################################
#
#                 Cambridge Crystallographic Data Centre
#                                CCDC 
#
#######################################################################
#
# If this CIF has been generated from an entry in the Cambridge 
# Structural Database, then it will include bibliographic, chemical, 
# crystal, experimental, refinement or atomic coordinate data resulting 
# from the CCDC's data processing and validation procedures.
#
#######################################################################

data_KARJUL
_chemical_formula_moiety         'C34 H31 O2 P1'
_chemical_name_systematic        
'(3-(3,4-dihydronaphthalen-1(2H)-ylidene)-4-(4-methoxyphenyl)penta-1,4-dien-2-yl)(diphenyl)phosphine oxide'
_symmetry_cell_setting           monoclinic
_symmetry_space_group_name_H-M   'P 21/c'
_symmetry_Int_Tables_number      14
_space_group_name_Hall           '-P 2ybc'
loop_
_symmetry_equiv_pos_site_id
_symmetry_equiv_pos_as_xyz
1 x,y,z
2 -x,1/2+y,1/2-z
3 -x,-y,-z
4 x,1/2-y,1/2+z
_cell_length_a                   8.6522(5)
_cell_length_b                   13.8658(7)
_cell_length_c                   22.9827(13)
_cell_angle_alpha                90
_cell_angle_beta                 100.729(2)
_cell_angle_gamma                90
_cell_volume                     2709.03
_exptl_crystal_colour            colorless
_exptl_crystal_description       block
_cell_formula_units_Z            4
loop_
_atom_site_label
_atom_site_type_symbol
_atom_site_fract_x
_atom_site_fract_y
_atom_site_fract_z
C1 C 0.5682(2) 0.21559(15) 0.27881(8)
C2 C 0.7009(3) 0.16030(17) 0.30075(9)
H1 H 0.7159 0.1019 0.2827
C3 C 0.8105(3) 0.19070(19) 0.34874(10)
H2 H 0.8974 0.1522 0.3629
C4 C 0.7925(2) 0.27788(18) 0.37607(9)
C5 C 0.6665(2) 0.33587(17) 0.35363(9)
H3 H 0.6544 0.3955 0.3708
C6 C 0.5576(2) 0.30467(15) 0.30510(9)
H4 H 0.4742 0.3451 0.2897
C7 C 0.8692(3) 0.3700(2) 0.46483(11)
H5 H 0.8550 0.4318 0.4458
H6 H 0.9538 0.3736 0.4983
H7 H 0.7742 0.3517 0.4778
C8 C 0.4392(2) 0.17910(14) 0.23209(8)
C9 C 0.4071(3) 0.08609(17) 0.22395(11)
H8 H 0.4665 0.0405 0.2480
H9 H 0.3252 0.0664 0.1942
C10 C 0.3414(2) 0.25081(13) 0.19212(7)
C11 C 0.2001(2) 0.28159(14) 0.20053(8)
C12 C 0.1404(3) 0.25812(17) 0.25682(9)
H10 H 0.0499 0.2157 0.2478
H11 H 0.2218 0.2251 0.2844
C13 C 0.0952(4) 0.3486(2) 0.28433(12)
H12 H 0.0489 0.3311 0.3182
H13 H 0.1904 0.3847 0.2992
C14 C -0.0131(4) 0.4117(2) 0.24682(11)
H14 H 0.0057 0.4772 0.2613
H15 H -0.1192 0.3944 0.2509
C15 C -0.0045(3) 0.41041(16) 0.18168(9)
C16 C -0.1032(3) 0.46999(18) 0.14273(11)
H16 H -0.1665 0.5143 0.1577
C17 C -0.1096(3) 0.46512(17) 0.08262(11)
H17 H -0.1742 0.5069 0.0573
C18 C -0.0197(3) 0.39796(18) 0.06023(10)
H18 H -0.0254 0.3929 0.0195
C19 C 0.0786(2) 0.33824(16) 0.09792(9)
H19 H 0.1367 0.2918 0.0822
C20 C 0.0935(2) 0.34544(14) 0.15919(8)
C21 C 0.4185(2) 0.28389(13) 0.14238(7)
C22 C 0.4776(3) 0.37085(15) 0.14085(9)
H20 H 0.4725 0.4142 0.1713
H21 H 0.5247 0.3891 0.1093
C23 C 0.6057(2) 0.13066(13) 0.10008(7)
C24 C 0.7477(3) 0.17034(15) 0.12784(9)
H22 H 0.7499 0.2323 0.1435
C25 C 0.8855(3) 0.11853(17) 0.13237(10)
H23 H 0.9804 0.1458 0.1505
C26 C 0.8823(3) 0.0272(2) 0.11016(11)
H24 H 0.9752 -0.0078 0.1134
C27 C 0.7439(4) -0.01289(18) 0.08326(13)
H25 H 0.7428 -0.0753 0.0684
C28 C 0.6053(3) 0.03815(15) 0.07777(10)
H26 H 0.5114 0.0103 0.0590
C29 C 0.4333(2) 0.26328(13) 0.01761(7)
C30 C 0.5681(2) 0.31030(15) 0.00786(9)
H27 H 0.6590 0.3085 0.0367
C31 C 0.5683(3) 0.35949(17) -0.04417(9)
H28 H 0.6579 0.3926 -0.0498
C32 C 0.4357(3) 0.35954(17) -0.08788(9)
H29 H 0.4367 0.3914 -0.1234
C33 C 0.3027(3) 0.31293(16) -0.07926(9)
H30 H 0.2136 0.3131 -0.1090
C34 C 0.2997(2) 0.26560(14) -0.02660(8)
H31 H 0.2081 0.2352 -0.0207
O1 O 0.90583(19) 0.30016(14) 0.42411(7)
O2 O 0.28325(16) 0.13150(10) 0.07527(6)
P1 P 0.42250(6) 0.19571(3) 0.08391(2)
loop_
_geom_bond_atom_site_label_1
_geom_bond_atom_site_label_2
_geom_bond_site_symmetry_1
_geom_bond_site_symmetry_2
C1 C2 1_555 1_555
C2 H1 1_555 1_555
C3 C2 1_555 1_555
H2 C3 1_555 1_555
C4 C3 1_555 1_555
C5 C4 1_555 1_555
H3 C5 1_555 1_555
C6 C1 1_555 1_555
H4 C6 1_555 1_555
C7 H5 1_555 1_555
H6 C7 1_555 1_555
H7 C7 1_555 1_555
C8 C1 1_555 1_555
C9 C8 1_555 1_555
H8 C9 1_555 1_555
H9 C9 1_555 1_555
C10 C8 1_555 1_555
C11 C10 1_555 1_555
C12 C11 1_555 1_555
H10 C12 1_555 1_555
H11 C12 1_555 1_555
C13 C12 1_555 1_555
H12 C13 1_555 1_555
H13 C13 1_555 1_555
C14 C13 1_555 1_555
H14 C14 1_555 1_555
H15 C14 1_555 1_555
C15 C14 1_555 1_555
C16 C15 1_555 1_555
H16 C16 1_555 1_555
C17 C16 1_555 1_555
H17 C17 1_555 1_555
C18 C17 1_555 1_555
H18 C18 1_555 1_555
C19 C18 1_555 1_555
H19 C19 1_555 1_555
C20 C11 1_555 1_555
C21 C10 1_555 1_555
C22 C21 1_555 1_555
H20 C22 1_555 1_555
H21 C22 1_555 1_555
C23 C24 1_555 1_555
C24 H22 1_555 1_555
C25 C24 1_555 1_555
H23 C25 1_555 1_555
C26 C25 1_555 1_555
H24 C26 1_555 1_555
C27 C26 1_555 1_555
H25 C27 1_555 1_555
C28 C23 1_555 1_555
H26 C28 1_555 1_555
C29 C30 1_555 1_555
C30 H27 1_555 1_555
C31 C30 1_555 1_555
H28 C31 1_555 1_555
C32 C31 1_555 1_555
H29 C32 1_555 1_555
C33 C32 1_555 1_555
H30 C33 1_555 1_555
C34 C29 1_555 1_555
H31 C34 1_555 1_555
O1 C4 1_555 1_555
O2 P1 1_555 1_555
P1 C21 1_555 1_555
C5 C6 1_555 1_555
C7 O1 1_555 1_555
C15 C20 1_555 1_555
C19 C20 1_555 1_555
C23 P1 1_555 1_555
C27 C28 1_555 1_555
C29 P1 1_555 1_555
C33 C34 1_555 1_555

#END
