
#######################################################################
#
#                 Cambridge Crystallographic Data Centre
#                                CCDC 
#
#######################################################################
#
# If this CIF has been generated from an entry in the Cambridge 
# Structural Database, then it will include bibliographic, chemical, 
# crystal, experimental, refinement or atomic coordinate data resulting 
# from the CCDC's data processing and validation procedures.
#
#######################################################################

data_KARJOE
_chemical_formula_moiety         
'C28 H20 O16 S4 4-,C12 H14 N2 2+,2(H3 O1 1+),7.25(H2 O1)'
_chemical_name_systematic        
'1,2-bis(Pyridinio)ethane dioxonium 25,26,27,28-tetrahydroxy-5,11,17,23-tetrasulfonatocalix(4)arene hydrate'
_symmetry_cell_setting           triclinic
_symmetry_space_group_name_H-M   'P -1'
_symmetry_Int_Tables_number      2
_space_group_name_Hall           '-P 1'
loop_
_symmetry_equiv_pos_site_id
_symmetry_equiv_pos_as_xyz
1 x,y,z
2 -x,-y,-z
_cell_length_a                   11.540(2)
_cell_length_b                   12.794(2)
_cell_length_c                   18.316(3)
_cell_angle_alpha                83.256(3)
_cell_angle_beta                 77.630(3)
_cell_angle_gamma                69.731(3)
_cell_volume                     2475.12
_cell_formula_units_Z            2
loop_
_atom_site_label
_atom_site_type_symbol
_atom_site_fract_x
_atom_site_fract_y
_atom_site_fract_z
S1 S 0.26940(8) 1.13975(7) 0.09038(5)
S2 S 0.70727(10) 0.54606(9) 0.14048(6)
S3 S 0.25091(9) 0.38325(8) 0.44392(5)
S4 S -0.18128(11) 1.00857(8) 0.40746(6)
O1 O 0.0880(2) 0.7845(2) 0.02939(14)
H1 H 0.0322 0.7758 0.0632
O2 O 0.1653(3) 1.2433(2) 0.08873(19)
O3 O 0.3001(3) 1.1134(3) 0.16567(18)
O4 O 0.3802(3) 1.1350(3) 0.03374(18)
O5 O 0.2407(2) 0.5723(2) 0.04292(14)
H2 H 0.2071 0.6343 0.0245
O6 O 0.6698(4) 0.5706(4) 0.2185(2)
O7 O 0.7600(3) 0.6237(3) 0.0941(2)
O8 O 0.7912(3) 0.4304(3) 0.1316(2)
O9 O 0.0687(2) 0.5349(2) 0.15802(14)
H3 H 0.1261 0.5329 0.1224
O10 O 0.2913(4) 0.4673(3) 0.4664(2)
O11 O 0.3564(4) 0.2811(3) 0.42845(19)
O12 O 0.1460(3) 0.3639(4) 0.49500(18)
O13 O -0.0855(3) 0.7446(2) 0.14401(14)
H4 H -0.0655 0.6775 0.1549
O14 O -0.1677(6) 1.1129(3) 0.3804(2)
O15 O -0.3140(4) 1.0248(5) 0.4373(3)
O16 O -0.1056(5) 0.9490(4) 0.4608(2)
C1 C -0.0926(3) 0.9690(3) 0.11649(19)
H5 H -0.1435 1.0473 0.1182
H6 H -0.1221 0.9343 0.0833
C2 C 0.0445(3) 0.9586(3) 0.08566(17)
C3 C 0.0895(3) 1.0423(3) 0.09717(18)
H7 H 0.0346 1.1055 0.1217
C4 C 0.2149(3) 1.0325(3) 0.07256(19)
C5 C 0.2999(3) 0.9369(3) 0.03613(18)
H8 H 0.3843 0.9301 0.0208
C6 C 0.2574(3) 0.8528(3) 0.02311(17)
C7 C 0.1292(3) 0.8655(3) 0.04740(17)
C8 C 0.3499(3) 0.7482(3) -0.01603(18)
H9 H 0.3073 0.7233 -0.0472
H10 H 0.4187 0.7673 -0.0484
C9 C 0.4034(3) 0.6524(3) 0.03846(17)
C10 C 0.5151(3) 0.6435(3) 0.06177(19)
H11 H 0.5550 0.6959 0.0442
C11 C 0.5660(3) 0.5568(3) 0.11097(19)
C12 C 0.5072(3) 0.4778(3) 0.13869(18)
H12 H 0.5419 0.4208 0.1721
C13 C 0.3971(3) 0.4838(3) 0.11673(17)
C14 C 0.3470(3) 0.5711(3) 0.06621(17)
C15 C 0.3319(3) 0.3986(3) 0.14849(19)
H13 H 0.2865 0.3891 0.1123
H14 H 0.3947 0.3272 0.1572
C16 C 0.2408(3) 0.4349(3) 0.22140(19)
C17 C 0.2810(3) 0.3992(3) 0.2897(2)
H15 H 0.3629 0.3518 0.2901
C18 C 0.2004(3) 0.4334(3) 0.35711(19)
C19 C 0.0777(3) 0.5076(3) 0.35764(19)
H16 H 0.0250 0.5315 0.4029
C20 C 0.0346(3) 0.5456(3) 0.29051(19)
C21 C 0.1163(3) 0.5055(3) 0.22319(18)
C22 C -0.0993(3) 0.6256(3) 0.29126(19)
H17 H -0.1510 0.6161 0.3391
H18 H -0.1330 0.6057 0.2528
C23 C -0.1092(3) 0.7486(3) 0.27830(18)
C24 C -0.1311(3) 0.8128(3) 0.33964(19)
H19 H -0.1385 0.7804 0.3878
C25 C -0.1419(3) 0.9252(3) 0.3291(2)
C26 C -0.1301(3) 0.9752(3) 0.2576(2)
H20 H -0.1366 1.0501 0.2514
C27 C -0.1085(3) 0.9138(3) 0.19478(18)
C28 C -0.0994(3) 0.8012(3) 0.20625(18)
N1 N 0.2105(3) 0.7848(3) 0.38421(17)
N2 N 0.0541(3) 0.7158(3) 0.57672(17)
C29 C 0.1735(5) 0.8871(4) 0.3500(3)
H21 H 0.1310 0.9494 0.3784
C30 C 0.1984(7) 0.8991(5) 0.2738(3)
H22 H 0.1754 0.9698 0.2502
C31 C 0.2567(7) 0.8078(6) 0.2325(3)
H23 H 0.2720 0.8156 0.1805
C32 C 0.2929(6) 0.7044(5) 0.2671(3)
H24 H 0.3329 0.6414 0.2391
C33 C 0.2694(5) 0.6943(4) 0.3447(2)
H25 H 0.2947 0.6243 0.3690
C34 C 0.1834(5) 0.7759(4) 0.4672(2)
H26 H 0.1502 0.8499 0.4868
H27 H 0.2604 0.7354 0.4857
C35 C 0.0887(4) 0.7157(4) 0.4939(2)
H28 H 0.0143 0.7526 0.4721
H29 H 0.1246 0.6395 0.4780
C36 C 0.1377(4) 0.6482(4) 0.6183(2)
H30 H 0.2154 0.6020 0.5948
C37 C 0.1082(6) 0.6477(4) 0.6948(3)
H31 H 0.1659 0.6028 0.7236
C38 C -0.0099(6) 0.7156(5) 0.7289(3)
H32 H -0.0319 0.7162 0.7808
C39 C -0.0930(5) 0.7813(5) 0.6858(3)
H33 H -0.1725 0.8256 0.7083
C40 C -0.0594(4) 0.7820(4) 0.6092(2)
H34 H -0.1153 0.8283 0.5799
O17 O 0.9927(3) 0.4078(3) 0.0199(2)
O18 O 0.3545(5) 0.1317(4) 0.8885(3)
O19 O 0.5998(6) 0.2722(5) 0.3480(4)
O20 O 0.4994(6) 0.3724(8) 0.5436(4)
O21 O 0.3455(7) 0.0764(7) 0.4126(5)
O22 O 0.5527(7) 0.4913(6) 0.3467(4)
O23 O 0.5360(6) 0.0469(8) 0.1858(4)
O24 O 0.7480(12) 0.2349(6) 0.1963(6)
O25 O 0.5401(10) 0.9974(18) 0.3294(7)
O26 O 0.5595(17) 0.7881(11) 0.2566(11)
O27 O 0.569(3) 0.895(2) 0.4741(17)
O28? O 0.549(2) 0.758(2) 0.3313(15)
O29? O 0.479(3) 0.815(2) 0.398(2)
loop_
_geom_bond_atom_site_label_1
_geom_bond_atom_site_label_2
_geom_bond_site_symmetry_1
_geom_bond_site_symmetry_2
S1 O2 1_555 1_555
S2 O6 1_555 1_555
S3 O10 1_555 1_555
S4 O14 1_555 1_555
O1 H1 1_555 1_555
O3 S1 1_555 1_555
O4 S1 1_555 1_555
O5 H2 1_555 1_555
O7 S2 1_555 1_555
O8 S2 1_555 1_555
O9 H3 1_555 1_555
O11 S3 1_555 1_555
O12 S3 1_555 1_555
O13 H4 1_555 1_555
O15 S4 1_555 1_555
O16 S4 1_555 1_555
C1 H5 1_555 1_555
H6 C1 1_555 1_555
C2 C1 1_555 1_555
C3 C2 1_555 1_555
H7 C3 1_555 1_555
C4 S1 1_555 1_555
C5 C4 1_555 1_555
H8 C5 1_555 1_555
C6 C5 1_555 1_555
C7 O1 1_555 1_555
C8 C6 1_555 1_555
H9 C8 1_555 1_555
H10 C8 1_555 1_555
C9 C8 1_555 1_555
C10 C9 1_555 1_555
H11 C10 1_555 1_555
C11 S2 1_555 1_555
C12 C11 1_555 1_555
H12 C12 1_555 1_555
C13 C12 1_555 1_555
C14 O5 1_555 1_555
C15 C13 1_555 1_555
H13 C15 1_555 1_555
H14 C15 1_555 1_555
C16 C15 1_555 1_555
C17 C16 1_555 1_555
H15 C17 1_555 1_555
C18 S3 1_555 1_555
C19 C18 1_555 1_555
H16 C19 1_555 1_555
C20 C19 1_555 1_555
C21 O9 1_555 1_555
C22 C20 1_555 1_555
H17 C22 1_555 1_555
H18 C22 1_555 1_555
C23 C22 1_555 1_555
C24 C23 1_555 1_555
H19 C24 1_555 1_555
C25 S4 1_555 1_555
C26 C25 1_555 1_555
H20 C26 1_555 1_555
C27 C1 1_555 1_555
C28 O13 1_555 1_555
N1 C29 1_555 1_555
N2 C35 1_555 1_555
C29 H21 1_555 1_555
C30 C29 1_555 1_555
H22 C30 1_555 1_555
C31 C30 1_555 1_555
H23 C31 1_555 1_555
C32 C31 1_555 1_555
H24 C32 1_555 1_555
C33 N1 1_555 1_555
H25 C33 1_555 1_555
C34 N1 1_555 1_555
H26 C34 1_555 1_555
H27 C34 1_555 1_555
C35 C34 1_555 1_555
H28 C35 1_555 1_555
H29 C35 1_555 1_555
C36 N2 1_555 1_555
H30 C36 1_555 1_555
C37 C36 1_555 1_555
H31 C37 1_555 1_555
C38 C37 1_555 1_555
H32 C38 1_555 1_555
C39 C38 1_555 1_555
H33 C39 1_555 1_555
C40 N2 1_555 1_555
H34 C40 1_555 1_555
C2 C7 1_555 1_555
C3 C4 1_555 1_555
C6 C7 1_555 1_555
C9 C14 1_555 1_555
C10 C11 1_555 1_555
C13 C14 1_555 1_555
C16 C21 1_555 1_555
C17 C18 1_555 1_555
C20 C21 1_555 1_555
C23 C28 1_555 1_555
C24 C25 1_555 1_555
C26 C27 1_555 1_555
C27 C28 1_555 1_555
C32 C33 1_555 1_555
C39 C40 1_555 1_555

#END
