
#######################################################################
#
#                 Cambridge Crystallographic Data Centre
#                                CCDC 
#
#######################################################################
#
# If this CIF has been generated from an entry in the Cambridge 
# Structural Database, then it will include bibliographic, chemical, 
# crystal, experimental, refinement or atomic coordinate data resulting 
# from the CCDC's data processing and validation procedures.
#
#######################################################################

data_KARMEY
_chemical_formula_moiety         'C18 H20 Br1 Cl1 O4'
_chemical_name_systematic        
'diethyl 4-(bromomethyl)-3-(4-chlorophenyl)cyclopent-2-ene-1,1-dicarboxylate'
_symmetry_cell_setting           triclinic
_symmetry_space_group_name_H-M   'P -1'
_symmetry_Int_Tables_number      2
_space_group_name_Hall           '-P 1'
loop_
_symmetry_equiv_pos_site_id
_symmetry_equiv_pos_as_xyz
1 x,y,z
2 -x,-y,-z
_cell_length_a                   8.6779(5)
_cell_length_b                   9.0204(6)
_cell_length_c                   12.8020(6)
_cell_angle_alpha                92.405(5)
_cell_angle_beta                 96.467(5)
_cell_angle_gamma                113.588(6)
_cell_volume                     908.365
_exptl_crystal_colour            colorless
_exptl_crystal_description       block
_cell_formula_units_Z            2
loop_
_atom_site_label
_atom_site_type_symbol
_atom_site_fract_x
_atom_site_fract_y
_atom_site_fract_z
Br1 Br 0.31371(5) 0.77512(5) 0.40130(4)
Cl1 Cl 1.11249(14) 0.93754(13) 0.89086(7)
O1 O 0.6825(3) 0.5701(3) 0.08562(19)
O2 O 0.6242(4) 0.3037(3) 0.2427(2)
O3 O 0.4128(4) 0.3724(3) 0.2775(2)
O4 O 0.9374(3) 0.6332(4) 0.1816(2)
C1 C 0.9521(5) 0.9710(4) 0.7057(3)
H1 H 0.9593 1.0681 0.7383
C2 C 0.6143(5) 0.7110(4) 0.2757(3)
H2 H 0.6695 0.7994 0.2338
H3 H 0.4937 0.6617 0.2496
C3 C 0.8654(4) 0.7757(4) 0.5513(3)
C4 C 0.9332(5) 0.6819(4) 0.6093(3)
H4 H 0.9270 0.5849 0.5773
C5 C 0.7537(6) 0.5711(6) -0.0125(3)
H5 H 0.8697 0.6524 -0.0036
H6 H 0.6883 0.5995 -0.0684
C6 C 0.8055(4) 0.6192(4) 0.3744(3)
H7 H 0.8841 0.5745 0.3900
C7 C 0.5555(5) 0.4089(4) 0.2625(2)
C8 C 0.8764(5) 0.9190(4) 0.6018(3)
H8 H 0.8314 0.9825 0.5648
C9 C 0.6911(4) 0.5837(4) 0.2695(3)
C10 C 0.6447(4) 0.7740(4) 0.3932(3)
H9 H 0.6873 0.8928 0.4008
C11 C 0.7808(4) 0.7214(4) 0.4417(3)
C12 C 0.7886(5) 0.5987(4) 0.1752(3)
C13 C 1.0166(5) 0.8734(5) 0.7592(3)
C14 C 0.4066(8) 0.0671(6) 0.1360(4)
H10 H 0.3354 -0.0460 0.1371
H11 H 0.4786 0.0797 0.0823
H12 H 0.3371 0.1260 0.1210
C15 C 1.0086(5) 0.7301(5) 0.7127(3)
H13 H 1.0533 0.6669 0.7502
C16 C 0.5133(6) 0.1316(5) 0.2405(4)
H14 H 0.4404 0.1170 0.2948
H15 H 0.5819 0.0707 0.2560
C17 C 0.4901(5) 0.7000(5) 0.4493(3)
H16 H 0.5241 0.7286 0.5248
H17 H 0.4441 0.5826 0.4365
C18 C 0.7510(7) 0.4095(6) -0.0424(3)
H18 H 0.7982 0.4123 -0.1070
H19 H 0.6359 0.3293 -0.0522
H20 H 0.8170 0.3821 0.0125
loop_
_geom_bond_atom_site_label_1
_geom_bond_atom_site_label_2
_geom_bond_site_symmetry_1
_geom_bond_site_symmetry_2
Br1 C17 1_555 1_555
Cl1 C13 1_555 1_555
O1 C5 1_555 1_555
O2 C7 1_555 1_555
O3 C7 1_555 1_555
O4 C12 1_555 1_555
C1 H1 1_555 1_555
C2 H2 1_555 1_555
H3 C2 1_555 1_555
C3 C4 1_555 1_555
C4 H4 1_555 1_555
C5 H5 1_555 1_555
H6 C5 1_555 1_555
C6 H7 1_555 1_555
C7 C9 1_555 1_555
C8 C1 1_555 1_555
H8 C8 1_555 1_555
C9 C2 1_555 1_555
C10 C2 1_555 1_555
H9 C10 1_555 1_555
C11 C3 1_555 1_555
C12 O1 1_555 1_555
C13 C1 1_555 1_555
C14 H10 1_555 1_555
H11 C14 1_555 1_555
H12 C14 1_555 1_555
C15 C4 1_555 1_555
H13 C15 1_555 1_555
C16 O2 1_555 1_555
H14 C16 1_555 1_555
H15 C16 1_555 1_555
C17 C10 1_555 1_555
H16 C17 1_555 1_555
H17 C17 1_555 1_555
C18 C5 1_555 1_555
H18 C18 1_555 1_555
H19 C18 1_555 1_555
H20 C18 1_555 1_555
C3 C8 1_555 1_555
C6 C9 1_555 1_555
C6 C11 1_555 1_555
C9 C12 1_555 1_555
C10 C11 1_555 1_555
C13 C15 1_555 1_555
C14 C16 1_555 1_555

#END
