
#######################################################################
#
#                 Cambridge Crystallographic Data Centre
#                                CCDC 
#
#######################################################################
#
# If this CIF has been generated from an entry in the Cambridge 
# Structural Database, then it will include bibliographic, chemical, 
# crystal, experimental, refinement or atomic coordinate data resulting 
# from the CCDC's data processing and validation procedures.
#
#######################################################################

data_KARNUO
_chemical_formula_moiety         'C28 H25 Br1 N2 O4'
_chemical_name_systematic        
3-Benzyl-1-(4-bromobenzoyl)-3-(3-(3-nitrophenyl)prop-2-en-1-yl)piperidin-2-one
_symmetry_cell_setting           trigonal
_symmetry_space_group_name_H-M   'P 31 2 1'
_symmetry_Int_Tables_number      152
_space_group_name_Hall           'P 31 2"'
loop_
_symmetry_equiv_pos_site_id
_symmetry_equiv_pos_as_xyz
1 x,y,z
2 -y,x-y,1/3+z
3 -x+y,-x,2/3+z
4 x-y,-y,2/3-z
5 -x,-x+y,1/3-z
6 y,x,-z
_cell_length_a                   12.3361(4)
_cell_length_b                   12.3361(4)
_cell_length_c                   28.4542(11)
_cell_angle_alpha                90
_cell_angle_beta                 90
_cell_angle_gamma                120
_cell_volume                     3750.01
_exptl_crystal_colour            colorless
_exptl_crystal_description       block
_cell_formula_units_Z            6
loop_
_atom_site_label
_atom_site_type_symbol
_atom_site_fract_x
_atom_site_fract_y
_atom_site_fract_z
Br1 Br -0.23431(3) -0.56086(2) -0.053008(7)
O1 O 0.16946(13) 0.06610(13) -0.04081(4)
O2 O 0.05740(12) -0.09937(12) 0.07853(4)
O3 O 0.00841(14) 0.40901(15) 0.05689(4)
O4 O 0.03075(19) 0.57964(17) 0.08740(5)
N1 N 0.22168(15) 0.02639(15) 0.03132(4)
N2 N 0.0502(2) 0.4910(2) 0.08715(6)
C1 C -0.1158(2) -0.39131(19) -0.03831(6)
C2 C -0.0055(2) -0.3638(2) -0.01583(6)
H1 H 0.0123 -0.4283 -0.0082
C3 C 0.0781(2) -0.2407(2) -0.00472(5)
H2 H 0.1530 -0.2206 0.0116
C4 C 0.0539(2) -0.1456(2) -0.01715(5)
C5 C -0.05697(19) -0.17637(19) -0.04067(5)
H3 H -0.0732 -0.1119 -0.0500
C6 C -0.1428(2) -0.2988(2) -0.05048(6)
H4 H -0.2198 -0.3197 -0.0654
C7 C 0.14830(18) -0.0111(2) -0.01025(6)
C8 C 0.34203(19) 0.14398(19) 0.02772(6)
H5 H 0.3295 0.2159 0.0340
H6 H 0.3761 0.1532 -0.0045
C9 C 0.43310(18) 0.14282(19) 0.06282(6)
H7 H 0.5154 0.2202 0.0598
H8 H 0.4447 0.0702 0.0570
C10 C 0.38068(18) 0.13441(17) 0.11177(5)
H9 H 0.3736 0.2097 0.1177
H10 H 0.4398 0.1336 0.1351
C11 C 0.25280(16) 0.01814(17) 0.11857(5)
C12 C 0.16691(18) -0.02307(18) 0.07501(5)
C13 C 0.18186(19) 0.04119(18) 0.15877(5)
H11 H 0.1008 -0.0364 0.1639
H12 H 0.2313 0.0592 0.1881
C14 C 0.15755(16) 0.14628(18) 0.14955(6)
H13 H 0.1022 0.1372 0.1247
C15 C 0.20909(17) 0.25170(18) 0.17416(6)
H14 H 0.2629 0.2568 0.1990
C16 C 0.19415(18) 0.36038(18) 0.16817(6)
C17 C 0.24621(19) 0.45705(19) 0.20114(6)
H15 H 0.2897 0.4496 0.2274
C18 C 0.2362(2) 0.5626(2) 0.19668(7)
H16 H 0.2735 0.6273 0.2195
C19 C 0.1719(2) 0.57500(19) 0.15904(7)
H17 H 0.1634 0.6470 0.1556
C20 C 0.1207(2) 0.47867(18) 0.12667(6)
C21 C 0.13014(17) 0.37305(18) 0.12998(6)
H18 H 0.0938 0.3095 0.1067
C22 C 0.26388(18) -0.09924(17) 0.13068(5)
H19 H 0.1801 -0.1747 0.1278
H20 H 0.3192 -0.1065 0.1072
C23 C 0.31478(19) -0.09713(17) 0.17947(6)
C24 C 0.2328(2) -0.15051(18) 0.21707(6)
H21 H 0.1451 -0.1895 0.2121
C25 C 0.2795(2) -0.1466(2) 0.26183(6)
H22 H 0.2232 -0.1830 0.2874
C26 C 0.4053(3) -0.0913(2) 0.26951(7)
H23 H 0.4360 -0.0894 0.3003
C27 C 0.4878(2) -0.0383(2) 0.23278(7)
H24 H 0.5754 0.0009 0.2381
C28 C 0.4417(2) -0.0426(2) 0.18789(7)
H25 H 0.4986 -0.0073 0.1624
loop_
_geom_bond_atom_site_label_1
_geom_bond_atom_site_label_2
_geom_bond_site_symmetry_1
_geom_bond_site_symmetry_2
Br1 C1 1_555 1_555
O1 C7 1_555 1_555
O2 C12 1_555 1_555
O3 N2 1_555 1_555
O4 N2 1_555 1_555
N1 C7 1_555 1_555
N2 C20 1_555 1_555
C1 C2 1_555 1_555
C2 H1 1_555 1_555
C3 C2 1_555 1_555
H2 C3 1_555 1_555
C4 C3 1_555 1_555
C5 C4 1_555 1_555
H3 C5 1_555 1_555
C6 C1 1_555 1_555
H4 C6 1_555 1_555
C7 C4 1_555 1_555
C8 N1 1_555 1_555
H5 C8 1_555 1_555
H6 C8 1_555 1_555
C9 C8 1_555 1_555
H7 C9 1_555 1_555
H8 C9 1_555 1_555
C10 C9 1_555 1_555
H9 C10 1_555 1_555
H10 C10 1_555 1_555
C11 C10 1_555 1_555
C12 N1 1_555 1_555
C13 C11 1_555 1_555
H11 C13 1_555 1_555
H12 C13 1_555 1_555
C14 C13 1_555 1_555
H13 C14 1_555 1_555
C15 C14 1_555 1_555
H14 C15 1_555 1_555
C16 C15 1_555 1_555
C17 C16 1_555 1_555
H15 C17 1_555 1_555
C18 C17 1_555 1_555
H16 C18 1_555 1_555
C19 C18 1_555 1_555
H17 C19 1_555 1_555
C20 C19 1_555 1_555
C21 C16 1_555 1_555
H18 C21 1_555 1_555
C22 C11 1_555 1_555
H19 C22 1_555 1_555
H20 C22 1_555 1_555
C23 C22 1_555 1_555
C24 C23 1_555 1_555
H21 C24 1_555 1_555
C25 C24 1_555 1_555
H22 C25 1_555 1_555
C26 C25 1_555 1_555
H23 C26 1_555 1_555
C27 C26 1_555 1_555
H24 C27 1_555 1_555
C28 C23 1_555 1_555
H25 C28 1_555 1_555
C5 C6 1_555 1_555
C11 C12 1_555 1_555
C20 C21 1_555 1_555
C27 C28 1_555 1_555

#END
