
#######################################################################
#
#                 Cambridge Crystallographic Data Centre
#                                CCDC 
#
#######################################################################
#
# If this CIF has been generated from an entry in the Cambridge 
# Structural Database, then it will include bibliographic, chemical, 
# crystal, experimental, refinement or atomic coordinate data resulting 
# from the CCDC's data processing and validation procedures.
#
#######################################################################

data_KARQAX
_chemical_formula_moiety         'C34 H42 O9,H2 O1'
_chemical_name_systematic        
"2',7,11'-Trimethyl-7'-methylene-2,6'-dioxo-6-(3-oxobutyl)-4,7,8,8a-tetrahydro-3aH-spiro[cyclohepta[b]furan-3,13'-[5]oxatetracyclo[10.2.1.0^1,10^.0^4,8^]pentadec[10]ene]-4,15'-diyl diacetate monohydrate"
_symmetry_cell_setting           monoclinic
_symmetry_space_group_name_H-M   'P 21'
_symmetry_Int_Tables_number      4
_space_group_name_Hall           'P 2yb'
loop_
_symmetry_equiv_pos_site_id
_symmetry_equiv_pos_as_xyz
1 x,y,z
2 -x,1/2+y,-z
_cell_length_a                   10.9631(3)
_cell_length_b                   21.0687(5)
_cell_length_c                   14.2884(4)
_cell_angle_alpha                90
_cell_angle_beta                 94.4040(10)
_cell_angle_gamma                90
_cell_volume                     3290.57
_exptl_crystal_colour            colorless
_exptl_crystal_description       prismatic
_cell_formula_units_Z            4
loop_
_atom_site_label
_atom_site_type_symbol
_atom_site_fract_x
_atom_site_fract_y
_atom_site_fract_z
O1 O 0.63213(19) 0.75881(10) 1.19923(13)
O2 O 0.75858(17) 0.67666(10) 1.20578(11)
O3 O 1.1570(3) 0.45442(14) 0.8210(3)
O4 O 0.86116(15) 0.73821(8) 1.02929(11)
O5 O 0.8963(5) 0.78123(16) 0.89279(19)
O6 O 0.2275(3) 0.98946(13) 1.0256(2)
O7 O 0.2663(2) 0.90370(11) 0.94189(15)
O8 O 0.52429(16) 0.61419(10) 0.91432(12)
O9 O 0.3804(4) 0.5512(3) 0.8500(5)
C1 C 0.9925(2) 0.59261(12) 0.99263(18)
C2 C 1.0691(2) 0.54922(14) 0.9367(2)
H1 H 1.1545 0.5589 0.9533
H2 H 1.0552 0.5059 0.9564
C3 C 1.0476(2) 0.55193(14) 0.8314(2)
H3 H 1.0754 0.5927 0.8099
H4 H 0.9603 0.5491 0.8145
C4 C 1.1115(3) 0.50001(17) 0.7812(3)
C5 C 0.9268(2) 0.63883(13) 0.95007(16)
H5 H 0.9482 0.6482 0.8899
C6 C 0.8237(2) 0.67861(11) 0.98238(14)
H6 H 0.7729 0.6905 0.9257
C7 C 0.74011(19) 0.64424(11) 1.04534(14)
H7 H 0.7124 0.6049 1.0139
C8 C 0.7982(2) 0.62722(12) 1.14331(15)
H8 H 0.7652 0.5864 1.1624
C9 C 0.9359(2) 0.62485(14) 1.15688(16)
H9 H 0.9596 0.6159 1.2224
H10 H 0.9683 0.6663 1.1425
C10 C 0.9940(2) 0.57508(14) 1.09611(19)
H11 H 0.9482 0.5354 1.1009
C11 C 0.6259(2) 0.68216(11) 1.06979(14)
C12 C 0.6689(2) 0.71202(12) 1.16276(15)
C13 C 0.56390(19) 0.73018(11) 0.99994(15)
H12 H 0.6029 0.7300 0.9413
H13 H 0.5679 0.7728 1.0258
C14 C 1.1257(3) 0.5635(3) 1.1387(3)
H14 H 1.1736 0.6012 1.1319
H15 H 1.1612 0.5290 1.1065
H16 H 1.1241 0.5533 1.2040
C15 C 1.1148(6) 0.5077(3) 0.6784(4)
H17 H 1.1266 0.4671 0.6501
H18 H 1.1810 0.5354 0.6655
H19 H 1.0390 0.5257 0.6529
C16 C 0.8887(3) 0.78647(15) 0.9751(2)
C17 C 0.9114(4) 0.84604(17) 1.0308(3)
H20 H 0.9297 0.8801 0.9894
H21 H 0.9794 0.8397 1.0763
H22 H 0.8399 0.8565 1.0623
C18 C 0.4279(2) 0.70706(11) 0.98454(14)
C19 C 0.4491(2) 0.63504(12) 0.98651(16)
H23 H 0.3719 0.6115 0.9851
C20 C 0.5166(2) 0.63454(11) 1.08442(15)
H24 H 0.5405 0.5926 1.1093
C21 C 0.4224(2) 0.66960(11) 1.13653(16)
C22 C 0.3695(2) 0.71324(12) 1.07823(15)
C23 C 0.2819(2) 0.76410(13) 1.10300(16)
H25 H 0.2837 0.7677 1.1708
H26 H 0.1996 0.7519 1.0800
C24 C 0.3117(2) 0.82804(13) 1.06201(16)
H27 H 0.4006 0.8339 1.0704
C25 C 0.2728(2) 0.83487(14) 0.95714(18)
H28 H 0.1907 0.8169 0.9449
C26 C 0.3557(3) 0.80581(15) 0.88974(16)
H29 H 0.4376 0.8225 0.9032
H30 H 0.3279 0.8187 0.8265
C27 C 0.3614(2) 0.73324(14) 0.89342(16)
H31 H 0.4111 0.7204 0.8425
C28 C 0.2525(3) 0.88610(14) 1.10022(19)
C29 C 0.2463(3) 0.93420(16) 1.0228(2)
C30 C 0.2074(4) 0.89665(19) 1.1813(2)
H32 H 0.1698 0.9352 1.1924
H33 H 0.2130 0.8656 1.2276
C31 C 0.2363(3) 0.70274(19) 0.8716(2)
H34 H 0.1876 0.7084 0.9240
H35 H 0.2463 0.6582 0.8601
H36 H 0.1961 0.7224 0.8170
C32 C 0.4074(3) 0.65827(15) 1.23852(18)
H37 H 0.3364 0.6806 1.2564
H38 H 0.4785 0.6733 1.2752
H39 H 0.3975 0.6136 1.2492
C33 C 0.4816(4) 0.5706(2) 0.8524(3)
C34 C 0.5733(5) 0.5537(3) 0.7849(3)
H40 H 0.6111 0.5916 0.7637
H41 H 0.5333 0.5319 0.7321
H42 H 0.6346 0.5266 0.8153
O10 O 0.1625(2) 0.71211(10) 0.37304(14)
O11 O 0.28650(18) 0.79405(9) 0.36212(11)
O12 O 0.4538(3) 0.99138(17) 0.7576(2)
O13 O -0.2316(4) 0.49369(14) 0.5654(3)
O14 O -0.1798(2) 0.58569(12) 0.63614(16)
O15 O 0.40916(17) 0.74758(10) 0.54188(12)
O16 O 0.4456(7) 0.7005(2) 0.6769(2)
O17 O 0.07146(16) 0.87586(9) 0.62771(12)
O18 O -0.0378(4) 0.96387(19) 0.6259(4)
C35 C 0.5345(2) 0.89491(15) 0.5790(2)
C36 C 0.6213(3) 0.9403(2) 0.6352(3)
H43 H 0.7012 0.9362 0.6110
H44 H 0.5932 0.9832 0.6213
C37 C 0.6386(3) 0.9340(2) 0.7404(3)
H45 H 0.6435 0.8892 0.7559
H46 H 0.7164 0.9531 0.7615
C38 C 0.5407(3) 0.96356(16) 0.7946(3)
C39 C 0.4766(2) 0.84891(15) 0.62183(19)
H47 H 0.5051 0.8417 0.6839
C40 C 0.3720(2) 0.80647(12) 0.58586(16)
H48 H 0.3278 0.7944 0.6402
C41 C 0.2795(2) 0.83766(11) 0.51533(15)
H49 H 0.2543 0.8783 0.5411
C42 C 0.3266(2) 0.84948(12) 0.41865(16)
H50 H 0.2861 0.8873 0.3912
C43 C 0.4635(3) 0.85656(16) 0.41358(19)
H51 H 0.4803 0.8644 0.3489
H52 H 0.5029 0.8169 0.4329
C44 C 0.5192(3) 0.90999(17) 0.4746(2)
H53 H 0.4640 0.9465 0.4666
C45 C 0.1641(2) 0.79750(11) 0.48913(14)
C46 C 0.2013(2) 0.76184(12) 0.40386(16)
C47 C 0.10904(19) 0.75432(11) 0.56305(14)
H54 H 0.1543 0.7587 0.6238
H55 H 0.1109 0.7102 0.5440
C48 C 0.6408(4) 0.9290(4) 0.4349(3)
H56 H 0.6248 0.9451 0.3723
H57 H 0.6931 0.8925 0.4337
H58 H 0.6802 0.9612 0.4740
C49 C 0.5607(4) 0.9589(2) 0.8996(3)
H59 H 0.4836 0.9624 0.9268
H60 H 0.6138 0.9925 0.9227
H61 H 0.5975 0.9187 0.9163
C50 C 0.4338(3) 0.69735(18) 0.5943(2)
C51 C 0.4516(4) 0.6397(2) 0.5375(3)
H62 H 0.5117 0.6129 0.5698
H63 H 0.4790 0.6518 0.4778
H64 H 0.3755 0.6172 0.5279
C52 C -0.0249(2) 0.77750(11) 0.56748(14)
C53 C -0.0072(2) 0.84945(12) 0.55238(16)
H65 H -0.0857 0.8719 0.5445
C54 C 0.0513(2) 0.84262(11) 0.45970(15)
H66 H 0.0711 0.8824 0.4286
C55 C -0.0474(2) 0.80244(11) 0.40900(15)
C56 C -0.0925(2) 0.76349(11) 0.47107(14)
C57 C -0.1840(2) 0.71109(13) 0.45070(16)
H67 H -0.1896 0.7020 0.3840
H68 H -0.2639 0.7254 0.4668
C58 C -0.1509(2) 0.65036(12) 0.50471(17)
H69 H -0.0633 0.6425 0.5009
C59 C -0.1765(2) 0.65248(14) 0.60872(17)
H70 H -0.2578 0.6709 0.6139
C60 C -0.0861(3) 0.68749(15) 0.67439(16)
H71 H -0.0052 0.6701 0.6681
H72 H -0.1063 0.6800 0.7384
C61 C -0.0821(2) 0.75844(14) 0.65769(15)
H73 H -0.0277 0.7756 0.7091
C62 C -0.2190(3) 0.59094(15) 0.4751(2)
C63 C -0.2125(3) 0.54955(18) 0.5595(3)
C64 C -0.2826(4) 0.57650(19) 0.3959(3)
H74 H -0.3266 0.5387 0.3909
H75 H -0.2836 0.6041 0.3450
C65 C -0.2059(3) 0.7904(2) 0.6665(2)
H76 H -0.2421 0.7741 0.7206
H77 H -0.2587 0.7818 0.6112
H78 H -0.1944 0.8354 0.6731
C66 C -0.0751(3) 0.80595(15) 0.30445(17)
H79 H -0.1568 0.7910 0.2885
H80 H -0.0181 0.7800 0.2740
H81 H -0.0682 0.8491 0.2841
C67 C 0.0466(3) 0.93324(18) 0.6572(3)
C68 C 0.1377(4) 0.9533(2) 0.7353(3)
H82 H 0.1218 0.9310 0.7917
H83 H 0.1308 0.9982 0.7454
H84 H 0.2188 0.9435 0.7188
O19 O 0.5905(5) 0.8915(3) 0.1436(6)
H85 H 0.61(2) 0.859(5) 0.103(13)
H88 H 0.638(8) 0.921(4) 0.130(7)
O20 O 0.1469(8) 0.5846(4) 0.4539(6)
H86 H 0.098(11) 0.558(6) 0.416(8)
H87 H 0.203(3) 0.5748(18) 0.405(2)
loop_
_geom_bond_atom_site_label_1
_geom_bond_atom_site_label_2
_geom_bond_site_symmetry_1
_geom_bond_site_symmetry_2
O1 C12 1_555 1_555
O2 C8 1_555 1_555
O3 C4 1_555 1_555
O4 C6 1_555 1_555
O5 C16 1_555 1_555
O6 C29 1_555 1_555
O7 C25 1_555 1_555
O8 C19 1_555 1_555
O9 C33 1_555 1_555
O10 C46 1_555 1_555
O11 C42 1_555 1_555
O12 C38 1_555 1_555
O13 C63 1_555 1_555
O14 C59 1_555 1_555
O15 C40 1_555 1_555
O16 C50 1_555 1_555
O17 C53 1_555 1_555
O18 C67 1_555 1_555
O19 H85 1_555 1_555
O20 H86 1_555 1_555
C1 C2 1_555 1_555
C2 H1 1_555 1_555
H2 C2 1_555 1_555
C3 C2 1_555 1_555
H3 C3 1_555 1_555
H4 C3 1_555 1_555
C4 C3 1_555 1_555
C5 C1 1_555 1_555
H5 C5 1_555 1_555
C6 C5 1_555 1_555
H6 C6 1_555 1_555
C7 C6 1_555 1_555
H7 C7 1_555 1_555
C8 C7 1_555 1_555
H8 C8 1_555 1_555
C9 C8 1_555 1_555
H9 C9 1_555 1_555
H10 C9 1_555 1_555
C10 C1 1_555 1_555
H11 C10 1_555 1_555
C11 C7 1_555 1_555
C12 O2 1_555 1_555
C13 C11 1_555 1_555
H12 C13 1_555 1_555
H13 C13 1_555 1_555
C14 C10 1_555 1_555
H14 C14 1_555 1_555
H15 C14 1_555 1_555
H16 C14 1_555 1_555
C15 C4 1_555 1_555
H17 C15 1_555 1_555
H18 C15 1_555 1_555
H19 C15 1_555 1_555
C16 O4 1_555 1_555
C17 C16 1_555 1_555
H20 C17 1_555 1_555
H21 C17 1_555 1_555
H22 C17 1_555 1_555
C18 C13 1_555 1_555
C19 C18 1_555 1_555
H23 C19 1_555 1_555
C20 C11 1_555 1_555
H24 C20 1_555 1_555
C21 C20 1_555 1_555
C22 C18 1_555 1_555
C23 C22 1_555 1_555
H25 C23 1_555 1_555
H26 C23 1_555 1_555
C24 C23 1_555 1_555
H27 C24 1_555 1_555
C25 C24 1_555 1_555
H28 C25 1_555 1_555
C26 C25 1_555 1_555
H29 C26 1_555 1_555
H30 C26 1_555 1_555
C27 C18 1_555 1_555
H31 C27 1_555 1_555
C28 C24 1_555 1_555
C29 O7 1_555 1_555
C30 C28 1_555 1_555
H32 C30 1_555 1_555
H33 C30 1_555 1_555
C31 C27 1_555 1_555
H34 C31 1_555 1_555
H35 C31 1_555 1_555
H36 C31 1_555 1_555
C32 C21 1_555 1_555
H37 C32 1_555 1_555
H38 C32 1_555 1_555
H39 C32 1_555 1_555
C33 O8 1_555 1_555
C34 C33 1_555 1_555
H40 C34 1_555 1_555
H41 C34 1_555 1_555
H42 C34 1_555 1_555
C35 C36 1_555 1_555
C36 H43 1_555 1_555
H44 C36 1_555 1_555
C37 C36 1_555 1_555
H45 C37 1_555 1_555
H46 C37 1_555 1_555
C38 C37 1_555 1_555
C39 C35 1_555 1_555
H47 C39 1_555 1_555
C40 C39 1_555 1_555
H48 C40 1_555 1_555
C41 C40 1_555 1_555
H49 C41 1_555 1_555
C42 C41 1_555 1_555
H50 C42 1_555 1_555
C43 C42 1_555 1_555
H51 C43 1_555 1_555
H52 C43 1_555 1_555
C44 C35 1_555 1_555
H53 C44 1_555 1_555
C45 C41 1_555 1_555
C46 O11 1_555 1_555
C47 C45 1_555 1_555
H54 C47 1_555 1_555
H55 C47 1_555 1_555
C48 C44 1_555 1_555
H56 C48 1_555 1_555
H57 C48 1_555 1_555
H58 C48 1_555 1_555
C49 C38 1_555 1_555
H59 C49 1_555 1_555
H60 C49 1_555 1_555
H61 C49 1_555 1_555
C50 O15 1_555 1_555
C51 C50 1_555 1_555
H62 C51 1_555 1_555
H63 C51 1_555 1_555
H64 C51 1_555 1_555
C52 C47 1_555 1_555
C53 C52 1_555 1_555
H65 C53 1_555 1_555
C54 C45 1_555 1_555
H66 C54 1_555 1_555
C55 C54 1_555 1_555
C56 C52 1_555 1_555
C57 C56 1_555 1_555
H67 C57 1_555 1_555
H68 C57 1_555 1_555
C58 C57 1_555 1_555
H69 C58 1_555 1_555
C59 C58 1_555 1_555
H70 C59 1_555 1_555
C60 C59 1_555 1_555
H71 C60 1_555 1_555
H72 C60 1_555 1_555
C61 C52 1_555 1_555
H73 C61 1_555 1_555
C62 C58 1_555 1_555
C63 O14 1_555 1_555
C64 C62 1_555 1_555
H74 C64 1_555 1_555
H75 C64 1_555 1_555
C65 C61 1_555 1_555
H76 C65 1_555 1_555
H77 C65 1_555 1_555
H78 C65 1_555 1_555
C66 C55 1_555 1_555
H79 C66 1_555 1_555
H80 C66 1_555 1_555
H81 C66 1_555 1_555
C67 O17 1_555 1_555
C68 C67 1_555 1_555
H82 C68 1_555 1_555
H83 C68 1_555 1_555
H84 C68 1_555 1_555
H87 O20 1_555 1_555
H88 O19 1_555 1_555
C9 C10 1_555 1_555
C11 C12 1_555 1_555
C19 C20 1_555 1_555
C21 C22 1_555 1_555
C26 C27 1_555 1_555
C28 C29 1_555 1_555
C43 C44 1_555 1_555
C45 C46 1_555 1_555
C53 C54 1_555 1_555
C55 C56 1_555 1_555
C60 C61 1_555 1_555
C62 C63 1_555 1_555

#END
