
#######################################################################
#
#                 Cambridge Crystallographic Data Centre
#                                CCDC 
#
#######################################################################
#
# If this CIF has been generated from an entry in the Cambridge 
# Structural Database, then it will include bibliographic, chemical, 
# crystal, experimental, refinement or atomic coordinate data resulting 
# from the CCDC's data processing and validation procedures.
#
#######################################################################

data_KARSUT
_chemical_formula_moiety         'C22 H21 B1 F2 N2 O3'
_chemical_name_systematic        
5,5-Difluoro-10-(4-methoxyphenyl)-1,3,7,9-tetramethyl-5H-4\l^5^,5\l^5^-dipyrrolo[1,2-c:2',1'-f][1,3,2]diazaborinine-2,8-dicarbaldehyde
_symmetry_cell_setting           triclinic
_symmetry_space_group_name_H-M   'P -1'
_symmetry_Int_Tables_number      2
_space_group_name_Hall           '-P 1'
loop_
_symmetry_equiv_pos_site_id
_symmetry_equiv_pos_as_xyz
1 x,y,z
2 -x,-y,-z
_cell_length_a                   6.5685(5)
_cell_length_b                   8.8104(6)
_cell_length_c                   16.4780(10)
_cell_angle_alpha                81.7570(10)
_cell_angle_beta                 84.9650(10)
_cell_angle_gamma                85.8970(10)
_cell_volume                     938.424
_exptl_crystal_colour            red
_exptl_crystal_description       rod
_cell_formula_units_Z            2
loop_
_atom_site_label
_atom_site_type_symbol
_atom_site_fract_x
_atom_site_fract_y
_atom_site_fract_z
B1 B 0.7496(3) 0.30680(19) 0.61899(10)
F1 F 0.85822(15) 0.32170(11) 0.54279(6)
F2 F 0.63472(15) 0.44256(10) 0.62949(6)
N1 N 0.60637(19) 0.17222(14) 0.62734(7)
N2 N 0.89832(19) 0.26753(13) 0.68815(7)
C1 C 0.4168(3) 0.27466(17) 0.50469(10)
H1 H 0.4442 0.3757 0.5146
H2 H 0.2767 0.2737 0.4925
H3 H 0.5053 0.2471 0.4589
C2 C 0.4545(2) 0.16210(16) 0.57927(9)
C3 C 0.3454(2) 0.03048(16) 0.61083(9)
C4 C 0.4382(2) -0.04320(16) 0.68058(9)
C5 C 0.3699(2) -0.18856(17) 0.73087(10)
H4 H 0.2242 -0.1919 0.7305
H5 H 0.4054 -0.1918 0.7864
H6 H 0.4363 -0.2752 0.708
C6 C 0.6040(2) 0.04634(16) 0.69039(9)
C7 C 0.7478(2) 0.02927(16) 0.74963(9)
C8 C 0.8950(2) 0.13773(15) 0.74837(9)
C9 C 1.1247(2) 0.03083(17) 0.86972(10)
H7 H 1.2703 0.0304 0.872
H8 H 1.0877 -0.0703 0.8638
H9 H 1.0573 0.061 0.9195
C10 C 1.0607(2) 0.14186(16) 0.79789(9)
C11 C 1.1599(2) 0.27682(16) 0.76591(9)
C12 C 1.0551(2) 0.35098(16) 0.69834(9)
C13 C 1.1016(3) 0.49733(17) 0.64460(10)
H10 H 1.0272 0.5067 0.5963
H11 H 1.2458 0.4971 0.6287
H12 H 1.0618 0.5825 0.6741
C14 C 0.7471(2) -0.10863(16) 0.81269(9)
C15 C 0.8091(2) -0.25139(17) 0.78956(9)
H13 H 0.8499 -0.2587 0.7347
C16 C 0.8114(2) -0.38349(17) 0.84694(10)
H14 H 0.8544 -0.4782 0.8307
C17 C 0.7487(2) -0.37248(17) 0.92890(9)
C18 C 0.6833(2) -0.22923(18) 0.95266(9)
H15 H 0.6397 -0.222 1.0073
C19 C 0.6836(2) -0.09868(17) 0.89507(9)
H16 H 0.6413 -0.0038 0.9112
O1 O 0.74733(18) -0.49273(13) 0.99058(7)
C20 C 0.8110(3) -0.64054(18) 0.96809(11)
H17 H 0.7243 -0.6647 0.9283
H18 H 0.8012 -0.7165 1.016
H19 H 0.9501 -0.6397 0.9448
C21 C 0.1641(2) -0.00946(17) 0.57557(10)
H20 H 0.1266 0.051 0.5275
O2 O 1.44699(18) 0.26825(13) 0.84580(7)
C22 C 1.3424(2) 0.33405(17) 0.79270(9)
H21 H 1.3821 0.4294 0.7668
O3 O 0.05689(18) -0.11529(13) 0.60349(7)
loop_
_geom_bond_atom_site_label_1
_geom_bond_atom_site_label_2
_geom_bond_site_symmetry_1
_geom_bond_site_symmetry_2
B1 F1 1_555 1_555
F2 B1 1_555 1_555
N1 B1 1_555 1_555
N2 B1 1_555 1_555
C1 H1 1_555 1_555
H2 C1 1_555 1_555
H3 C1 1_555 1_555
C2 N1 1_555 1_555
C3 C2 1_555 1_555
C4 C3 1_555 1_555
C5 C4 1_555 1_555
H4 C5 1_555 1_555
H5 C5 1_555 1_555
H6 C5 1_555 1_555
C6 N1 1_555 1_555
C7 C6 1_555 1_555
C8 N2 1_555 1_555
C9 H7 1_555 1_555
H8 C9 1_555 1_555
H9 C9 1_555 1_555
C10 C8 1_555 1_555
C11 C10 1_555 1_555
C12 N2 1_555 1_555
C13 C12 1_555 1_555
H10 C13 1_555 1_555
H11 C13 1_555 1_555
H12 C13 1_555 1_555
C14 C7 1_555 1_555
C15 C14 1_555 1_555
H13 C15 1_555 1_555
C16 C15 1_555 1_555
H14 C16 1_555 1_555
C17 C16 1_555 1_555
C18 C17 1_555 1_555
H15 C18 1_555 1_555
C19 C14 1_555 1_555
H16 C19 1_555 1_555
O1 C17 1_555 1_555
C20 O1 1_555 1_555
H17 C20 1_555 1_555
H18 C20 1_555 1_555
H19 C20 1_555 1_555
C21 C3 1_555 1_555
H20 C21 1_555 1_555
O2 C22 1_555 1_555
C22 C11 1_555 1_555
H21 C22 1_555 1_555
O3 C21 1_555 1_555
C1 C2 1_555 1_555
C4 C6 1_555 1_555
C7 C8 1_555 1_555
C9 C10 1_555 1_555
C11 C12 1_555 1_555
C18 C19 1_555 1_555

#END
