
#######################################################################
#
#                 Cambridge Crystallographic Data Centre
#                                CCDC 
#
#######################################################################
#
# If this CIF has been generated from an entry in the Cambridge 
# Structural Database, then it will include bibliographic, chemical, 
# crystal, experimental, refinement or atomic coordinate data resulting 
# from the CCDC's data processing and validation procedures.
#
#######################################################################

data_KARSON
_chemical_formula_moiety         'C21 H20 B1 F2 I1 N2 O2'
_chemical_name_systematic        
5,5-Difluoro-8-iodo-10-(4-methoxyphenyl)-1,3,7,9-tetramethyl-5H-6\l^5^,5\l^5^-dipyrrolo[1,2-c:2',1'-f][1,3,2]diazaborinine-2-carbaldehyde
_symmetry_cell_setting           triclinic
_symmetry_space_group_name_H-M   'P -1'
_symmetry_Int_Tables_number      2
_space_group_name_Hall           '-P 1'
loop_
_symmetry_equiv_pos_site_id
_symmetry_equiv_pos_as_xyz
1 x,y,z
2 -x,-y,-z
_cell_length_a                   9.4100(18)
_cell_length_b                   10.603(2)
_cell_length_c                   11.494(2)
_cell_angle_alpha                66.655(2)
_cell_angle_beta                 83.633(3)
_cell_angle_gamma                69.026(2)
_cell_volume                     982.518
_exptl_crystal_colour            red
_exptl_crystal_description       plate
_cell_formula_units_Z            2
loop_
_atom_site_label
_atom_site_type_symbol
_atom_site_fract_x
_atom_site_fract_y
_atom_site_fract_z
B1 B -0.1656(4) 0.3862(4) 0.4867(3)
C1 C -0.3646(4) 0.6226(4) 0.5841(3)
H1 H -0.3396 0.7121 0.5422
H2 H -0.4462 0.6377 0.6432
H3 H -0.3985 0.5989 0.5201
C2 C -0.2276(3) 0.5001(3) 0.6547(3)
C3 C -0.1679(4) 0.4707(3) 0.7741(3)
C4 C -0.0379(3) 0.3464(3) 0.8052(3)
C5 C 0.0653(4) 0.2836(4) 0.9193(3)
H4 H 0.0278 0.3443 0.9696
H5 H 0.1683 0.2815 0.8922
H6 H 0.0674 0.1839 0.9708
C6 C -0.0213(3) 0.2983(3) 0.7026(3)
C7 C 0.0883(3) 0.1816(3) 0.6814(3)
C8 C 0.0868(3) 0.1622(3) 0.5671(3)
C9 C 0.3225(4) -0.0739(3) 0.5893(3)
H7 H 0.3411 -0.1485 0.5541
H8 H 0.3049 -0.1147 0.6802
H9 H 0.4113 -0.0428 0.5768
C10 C 0.1852(3) 0.0551(3) 0.5235(3)
C11 C 0.1299(3) 0.0922(3) 0.4016(3)
C12 C -0.0013(3) 0.2196(3) 0.3733(3)
C13 C -0.1008(4) 0.3024(4) 0.2552(3)
H10 H -0.2071 0.3386 0.2776
H11 H -0.0906 0.2375 0.2110
H12 H -0.0699 0.3852 0.1998
C14 C 0.2060(3) 0.0727(3) 0.7827(3)
C15 C 0.1679(4) -0.0350(4) 0.8830(3)
H13 H 0.0669 -0.0361 0.8877
C16 C 0.2767(4) -0.1418(4) 0.9773(3)
H14 H 0.2505 -0.2162 1.0452
C17 C 0.4230(3) -0.1385(3) 0.9711(3)
C18 C 0.4624(4) -0.0303(4) 0.8714(3)
H15 H 0.5630 -0.0284 0.8676
C19 C 0.3540(4) 0.0748(3) 0.7777(3)
H16 H 0.3806 0.1487 0.7095
C20 C 0.4995(4) -0.3369(4) 1.1720(3)
H17 H 0.4162 -0.2816 1.2110
H18 H 0.5883 -0.3923 1.2309
H19 H 0.4670 -0.4046 1.1525
F1 F -0.2988(2) 0.3525(2) 0.4943(2)
F2 F -0.1819(2) 0.5170(2) 0.38556(19)
I1 I -0.26987(3) 0.59216(3) 0.88239(2)
C21 C 0.1981(4) 0.0120(4) 0.3201(4)
H20 H 0.2874 -0.0713 0.3525
O1 O 0.1521(3) 0.0413(4) 0.2149(3)
N1 N -0.1391(3) 0.3976(3) 0.6121(2)
N2 N -0.0264(3) 0.2608(3) 0.4727(2)
O2 O 0.5389(3) -0.2380(3) 1.0579(2)
C22? C -0.198(3) 0.565(3) 0.848(3)
H21? H -0.1284 0.5415 0.9133
I2? I 0.2011(3) -0.0090(3) 0.2809(3)
O3? O -0.315(2) 0.675(2) 0.821(2)
loop_
_geom_bond_atom_site_label_1
_geom_bond_atom_site_label_2
_geom_bond_site_symmetry_1
_geom_bond_site_symmetry_2
B1 F1 1_555 1_555
C1 H1 1_555 1_555
H2 C1 1_555 1_555
H3 C1 1_555 1_555
C2 C1 1_555 1_555
C3 C2 1_555 1_555
C4 C3 1_555 1_555
C5 C4 1_555 1_555
H4 C5 1_555 1_555
H5 C5 1_555 1_555
H6 C5 1_555 1_555
C6 C4 1_555 1_555
C7 C6 1_555 1_555
C8 C7 1_555 1_555
C9 H7 1_555 1_555
H8 C9 1_555 1_555
H9 C9 1_555 1_555
C10 C8 1_555 1_555
C11 C10 1_555 1_555
C12 C11 1_555 1_555
C13 C12 1_555 1_555
H10 C13 1_555 1_555
H11 C13 1_555 1_555
H12 C13 1_555 1_555
C14 C7 1_555 1_555
C15 C14 1_555 1_555
H13 C15 1_555 1_555
C16 C15 1_555 1_555
H14 C16 1_555 1_555
C17 C16 1_555 1_555
C18 C17 1_555 1_555
H15 C18 1_555 1_555
C19 C14 1_555 1_555
H16 C19 1_555 1_555
C20 H17 1_555 1_555
H18 C20 1_555 1_555
H19 C20 1_555 1_555
F2 B1 1_555 1_555
I1 C3 1_555 1_555
C21 C11 1_555 1_555
H20 C21 1_555 1_555
O1 C21 1_555 1_555
N1 B1 1_555 1_555
N2 B1 1_555 1_555
O2 C17 1_555 1_555
C2 N1 1_555 1_555
C6 N1 1_555 1_555
C8 N2 1_555 1_555
C9 C10 1_555 1_555
C12 N2 1_555 1_555
C18 C19 1_555 1_555
C20 O2 1_555 1_555

#END
