
#######################################################################
#
#                 Cambridge Crystallographic Data Centre
#                                CCDC 
#
#######################################################################
#
# If this CIF has been generated from an entry in the Cambridge 
# Structural Database, then it will include bibliographic, chemical, 
# crystal, experimental, refinement or atomic coordinate data resulting 
# from the CCDC's data processing and validation procedures.
#
#######################################################################

data_KASBEN
_chemical_formula_moiety         'C45 H54 Mg1 N2 O1 Si1,0.3(C6 H6)'
_chemical_name_systematic        
"Benzyl-(4-t-butyl-6-(triphenylsilyl)-2-(((2-dimethylaminocyclohexyl)(methyl)amino)methyl)phenolato-N,N',O)-magnesium(ii) benzene solvate"
_symmetry_cell_setting           trigonal
_symmetry_space_group_name_H-M   'P -3'
_symmetry_Int_Tables_number      147
_space_group_name_Hall           '-P 3'
loop_
_symmetry_equiv_pos_site_id
_symmetry_equiv_pos_as_xyz
1 x,y,z
2 -y,x-y,z
3 -x+y,-x,z
4 -x,-y,-z
5 y,-x+y,-z
6 x-y,x,-z
_cell_length_a                   25.467(3)
_cell_length_b                   25.467(3)
_cell_length_c                   11.2793(15)
_cell_angle_alpha                90
_cell_angle_beta                 90
_cell_angle_gamma                120
_cell_volume                     6335.32
_exptl_crystal_colour            colorless
_exptl_crystal_description       rod
_cell_formula_units_Z            6
_chemical_properties_physical    air-sensitive
loop_
_atom_site_label
_atom_site_type_symbol
_atom_site_fract_x
_atom_site_fract_y
_atom_site_fract_z
Mg1 Mg 0.70007(9) 0.15522(9) 0.29644(17)
N1 N 0.7801(2) 0.2437(2) 0.2859(4)
N2 N 0.74806(19) 0.1433(2) 0.4411(4)
O1 O 0.70614(16) 0.09936(16) 0.1943(3)
Si1 Si 0.72242(7) 0.05737(7) -0.04367(14)
C1 C 0.6171(3) 0.1573(3) 0.3155(6)
H1 H 0.6220 0.1942 0.2760
H2 H 0.5844 0.1218 0.2736
C2 C 0.5978(3) 0.1568(4) 0.4394(7)
C3 C 0.5626(4) 0.1020(5) 0.5017(9)
H3 H 0.5471 0.0644 0.4615
C4 C 0.5502(4) 0.1030(5) 0.6243(9)
H4 H 0.5268 0.0662 0.6664
C5 C 0.5724(4) 0.1576(6) 0.6814(10)
H5 H 0.5637 0.1577 0.7632
C6 C 0.6063(4) 0.2115(5) 0.6253(8)
H6 H 0.6220 0.2489 0.6666
C7 C 0.6177(4) 0.2097(4) 0.5005(7)
H7 H 0.6399 0.2470 0.4590
C8 C 0.8138(3) 0.2441(3) 0.1768(5)
H8 H 0.7872 0.2341 0.1076
H9 H 0.8269 0.2141 0.1852
H10 H 0.8494 0.2845 0.1662
C9 C 0.7652(3) 0.2926(3) 0.2748(6)
H11 H 0.8028 0.3318 0.2694
H12 H 0.7421 0.2923 0.3444
H13 H 0.7409 0.2860 0.2031
C10 C 0.8164(3) 0.2523(3) 0.3981(5)
H14 H 0.7959 0.2628 0.4619
C11 C 0.8816(3) 0.3046(3) 0.3939(5)
H15 H 0.8819 0.3426 0.3747
H16 H 0.9038 0.2969 0.3304
C12 C 0.9137(3) 0.3118(3) 0.5125(6)
H17 H 0.9559 0.3459 0.5075
H18 H 0.8926 0.3211 0.5755
C13 C 0.9140(3) 0.2546(3) 0.5432(6)
H19 H 0.9338 0.2595 0.6212
H20 H 0.9378 0.2470 0.4832
C14 C 0.8495(2) 0.2003(3) 0.5477(5)
H21 H 0.8516 0.1629 0.5594
H22 H 0.8282 0.2048 0.6169
C15 C 0.8128(2) 0.1933(3) 0.4366(5)
H23 H 0.8322 0.1823 0.3717
C16 C 0.7174(3) 0.1432(3) 0.5548(5)
H24 H 0.7328 0.1290 0.6195
H25 H 0.6735 0.1161 0.5470
H26 H 0.7258 0.1843 0.5722
C17 C 0.7410(3) 0.0817(2) 0.4284(5)
H27 H 0.6974 0.0512 0.4363
H28 H 0.7625 0.0753 0.4950
C18 C 0.7564(2) 0.0538(2) 0.1008(5)
C19 C 0.7412(2) 0.0754(2) 0.2033(5)
C20 C 0.7638(2) 0.0694(2) 0.3138(5)
C21 C 0.8009(2) 0.0435(2) 0.3190(5)
H29 H 0.8151 0.0395 0.3945
C22 C 0.8183(2) 0.0229(2) 0.2184(5)
C23 C 0.7943(2) 0.0291(2) 0.1109(5)
H30 H 0.8046 0.0158 0.0405
C24 C 0.8574(2) -0.0071(2) 0.2232(5)
C25 C 0.8738(3) -0.0146(3) 0.3517(5)
H31 H 0.8994 0.0255 0.3870
H32 H 0.8957 -0.0371 0.3512
H33 H 0.8366 -0.0369 0.3984
C26 C 0.9157(3) 0.0294(3) 0.1514(5)
H34 H 0.9054 0.0339 0.0697
H35 H 0.9389 0.0082 0.1513
H36 H 0.9402 0.0696 0.1871
C27 C 0.8204(3) -0.0707(3) 0.1691(6)
H37 H 0.7825 -0.0939 0.2135
H38 H 0.8439 -0.0916 0.1731
H39 H 0.8111 -0.0673 0.0861
C28 C 0.7558(3) 0.1380(3) -0.0925(5)
C29 C 0.8188(3) 0.1752(3) -0.0928(5)
H40 H 0.8432 0.1587 -0.0679
C30 C 0.8469(3) 0.2356(3) -0.1283(5)
H41 H 0.8898 0.2603 -0.1254
C31 C 0.8111(4) 0.2592(3) -0.1682(6)
H42 H 0.8299 0.3000 -0.1946
C32 C 0.7493(4) 0.2243(3) -0.1697(6)
H43 H 0.7252 0.2408 -0.1963
C33 C 0.7218(3) 0.1639(3) -0.1318(5)
H44 H 0.6788 0.1398 -0.1328
C34 C 0.6374(3) 0.0147(3) -0.0450(6)
C35 C 0.6014(3) -0.0115(3) 0.0549(6)
H45 H 0.6203 -0.0044 0.1303
C36 C 0.5394(3) -0.0474(3) 0.0478(7)
H46 H 0.5165 -0.0648 0.1178
C37 C 0.5102(3) -0.0583(3) -0.0600(8)
H47 H 0.4674 -0.0834 -0.0645
C38 C 0.5436(3) -0.0323(3) -0.1616(7)
H48 H 0.5239 -0.0384 -0.2360
C39 C 0.6065(3) 0.0028(3) -0.1539(6)
H49 H 0.6292 0.0193 -0.2244
C40 C 0.7435(2) 0.0158(3) -0.1557(5)
C41 C 0.7807(3) 0.0434(3) -0.2542(5)
H50 H 0.7948 0.0851 -0.2696
C42 C 0.7973(2) 0.0113(3) -0.3296(5)
H51 H 0.8223 0.0310 -0.3963
C43 C 0.7781(3) -0.0483(3) -0.3088(5)
H52 H 0.7900 -0.0700 -0.3603
C44 C 0.7406(3) -0.0778(3) -0.2113(5)
H53 H 0.7269 -0.1194 -0.1964
C45 C 0.7239(2) -0.0457(3) -0.1376(5)
H54 H 0.6982 -0.0659 -0.0721
C46? C 0.669(3) 0.399(2) 0.0000
H55? H 0.6815 0.4415 0.0000
C47? C 0.610(2) 0.359(3) 0.0000
H56? H 0.5811 0.3722 0.0000
C48? C 0.593(2) 0.300(3) 0.0000
H57? H 0.5510 0.2707 0.0000
C49? C 0.634(3) 0.281(2) 0.0000
H58? H 0.6213 0.2389 0.0000
C50? C 0.693(2) 0.323(3) 0.0000
H59? H 0.7227 0.3108 0.0000
C51? C 0.7115(19) 0.382(3) 0.0000
H60? H 0.7535 0.4110 0.0000
loop_
_geom_bond_atom_site_label_1
_geom_bond_atom_site_label_2
_geom_bond_site_symmetry_1
_geom_bond_site_symmetry_2
Mg1 N1 1_555 1_555
N1 C8 1_555 1_555
N2 Mg1 1_555 1_555
O1 Mg1 1_555 1_555
Si1 C18 1_555 1_555
C1 Mg1 1_555 1_555
H1 C1 1_555 1_555
H2 C1 1_555 1_555
C2 C1 1_555 1_555
C3 C2 1_555 1_555
H3 C3 1_555 1_555
C4 C3 1_555 1_555
H4 C4 1_555 1_555
C5 C4 1_555 1_555
H5 C5 1_555 1_555
C6 C5 1_555 1_555
H6 C6 1_555 1_555
C7 C2 1_555 1_555
H7 C7 1_555 1_555
C8 H8 1_555 1_555
H9 C8 1_555 1_555
H10 C8 1_555 1_555
C9 N1 1_555 1_555
H11 C9 1_555 1_555
H12 C9 1_555 1_555
H13 C9 1_555 1_555
C10 N1 1_555 1_555
H14 C10 1_555 1_555
C11 C10 1_555 1_555
H15 C11 1_555 1_555
H16 C11 1_555 1_555
C12 C11 1_555 1_555
H17 C12 1_555 1_555
H18 C12 1_555 1_555
C13 C12 1_555 1_555
H19 C13 1_555 1_555
H20 C13 1_555 1_555
C14 C13 1_555 1_555
H21 C14 1_555 1_555
H22 C14 1_555 1_555
C15 N2 1_555 1_555
H23 C15 1_555 1_555
C16 N2 1_555 1_555
H24 C16 1_555 1_555
H25 C16 1_555 1_555
H26 C16 1_555 1_555
C17 N2 1_555 1_555
H27 C17 1_555 1_555
H28 C17 1_555 1_555
C18 C19 1_555 1_555
C19 O1 1_555 1_555
C20 C17 1_555 1_555
C21 C20 1_555 1_555
H29 C21 1_555 1_555
C22 C21 1_555 1_555
C23 C18 1_555 1_555
H30 C23 1_555 1_555
C24 C22 1_555 1_555
C25 C24 1_555 1_555
H31 C25 1_555 1_555
H32 C25 1_555 1_555
H33 C25 1_555 1_555
C26 C24 1_555 1_555
H34 C26 1_555 1_555
H35 C26 1_555 1_555
H36 C26 1_555 1_555
C27 C24 1_555 1_555
H37 C27 1_555 1_555
H38 C27 1_555 1_555
H39 C27 1_555 1_555
C28 Si1 1_555 1_555
C29 C28 1_555 1_555
H40 C29 1_555 1_555
C30 C29 1_555 1_555
H41 C30 1_555 1_555
C31 C30 1_555 1_555
H42 C31 1_555 1_555
C32 C31 1_555 1_555
H43 C32 1_555 1_555
C33 C28 1_555 1_555
H44 C33 1_555 1_555
C34 Si1 1_555 1_555
C35 C34 1_555 1_555
H45 C35 1_555 1_555
C36 C35 1_555 1_555
H46 C36 1_555 1_555
C37 C36 1_555 1_555
H47 C37 1_555 1_555
C38 C37 1_555 1_555
H48 C38 1_555 1_555
C39 C34 1_555 1_555
H49 C39 1_555 1_555
C40 Si1 1_555 1_555
C41 C40 1_555 1_555
H50 C41 1_555 1_555
C42 C41 1_555 1_555
H51 C42 1_555 1_555
C43 C42 1_555 1_555
H52 C43 1_555 1_555
C44 C43 1_555 1_555
H53 C44 1_555 1_555
C45 C40 1_555 1_555
H54 C45 1_555 1_555
C6 C7 1_555 1_555
C10 C15 1_555 1_555
C14 C15 1_555 1_555
C19 C20 1_555 1_555
C22 C23 1_555 1_555
C32 C33 1_555 1_555
C38 C39 1_555 1_555
C44 C45 1_555 1_555

#END
