
#######################################################################
#
#                 Cambridge Crystallographic Data Centre
#                                CCDC 
#
#######################################################################
#
# If this CIF has been generated from an entry in the Cambridge 
# Structural Database, then it will include bibliographic, chemical, 
# crystal, experimental, refinement or atomic coordinate data resulting 
# from the CCDC's data processing and validation procedures.
#
#######################################################################

data_KASDAM
_chemical_formula_moiety         'C29 H27 Br1 N2 O4'
_chemical_name_systematic        
"t-butyl 1'-benzyl-3-(4-bromobenzyl)-2',4-dioxo-1',2'-dihydro-1H-spiro[azetidine-2,3'-indole]-1-carboxylate"
_symmetry_cell_setting           orthorhombic
_symmetry_space_group_name_H-M   'P b c a'
_symmetry_Int_Tables_number      61
_space_group_name_Hall           '-P 2ac 2ab'
loop_
_symmetry_equiv_pos_site_id
_symmetry_equiv_pos_as_xyz
1 x,y,z
2 1/2-x,-y,1/2+z
3 -x,1/2+y,1/2-z
4 1/2+x,1/2-y,-z
5 -x,-y,-z
6 1/2+x,y,1/2-z
7 x,1/2-y,1/2+z
8 1/2-x,1/2+y,z
_cell_length_a                   11.8785(7)
_cell_length_b                   16.1043(11)
_cell_length_c                   27.3233(16)
_cell_angle_alpha                90
_cell_angle_beta                 90
_cell_angle_gamma                90
_cell_volume                     5226.81
_exptl_crystal_colour            colorless
_exptl_crystal_description       block
_cell_formula_units_Z            8
loop_
_atom_site_label
_atom_site_type_symbol
_atom_site_fract_x
_atom_site_fract_y
_atom_site_fract_z
Br1 Br 0.22483(3) 0.04957(2) 0.65579(2)
C1 C -0.0410(3) 0.06568(18) 0.94173(12)
C2 C 0.0153(3) 0.06512(18) 0.89080(12)
H1 H -0.0187 0.1095 0.8699
C3 C 0.1228(3) 0.10016(19) 0.91769(11)
C4 C 0.2321(3) 0.05372(19) 0.91847(11)
C5 C 0.2573(3) -0.0250(2) 0.93481(12)
H2 H 0.201 -0.0595 0.9488
C6 C 0.3687(3) -0.0525(2) 0.93022(14)
H3 H 0.3879 -0.1072 0.9401
C7 C 0.4507(3) -0.0008(2) 0.91141(14)
H4 H 0.5258 -0.0206 0.9088
C8 C 0.4258(3) 0.0803(2) 0.89611(13)
H5 H 0.4823 0.1161 0.8836
C9 C 0.3153(3) 0.10532(19) 0.90015(11)
C10 C 0.1571(3) 0.18729(19) 0.89941(11)
C11 C 0.0816(3) 0.13530(19) 1.00798(12)
C12 C 0.2455(3) 0.2050(2) 1.04558(12)
C13 C 0.2540(4) 0.1424(3) 1.08679(15)
H6 H 0.1799 0.135 1.1018
H7 H 0.3074 0.1626 1.1114
H8 H 0.2804 0.0892 1.0738
C14 C 0.3607(3) 0.2219(3) 1.02351(14)
H9 H 0.3919 0.1702 1.0103
H10 H 0.411 0.2437 1.0489
H11 H 0.3534 0.2627 0.9971
C15 C 0.1868(4) 0.2834(3) 1.05974(18)
H12 H 0.1802 0.3196 1.0311
H13 H 0.23 0.3117 1.0853
H14 H 0.1114 0.2702 1.0722
C16 C 0.0255(3) -0.01447(19) 0.86161(12)
H15 H 0.0725 -0.0547 0.8799
H16 H -0.0501 -0.0393 0.8572
C17 C 0.0778(3) 0.0021(2) 0.81212(11)
C18 C 0.0195(3) 0.0494(2) 0.77773(12)
H17 H -0.0518 0.0719 0.7863
C19 C 0.0622(3) 0.0645(2) 0.73165(12)
H18 H 0.0213 0.0969 0.7087
C20 C 0.1658(3) 0.03148(19) 0.71974(12)
C21 C 0.2271(3) -0.0149(2) 0.75297(13)
H19 H 0.2987 -0.0367 0.7443
C22 C 0.1827(3) -0.0292(2) 0.79915(13)
H20 H 0.2245 -0.0608 0.8222
C23 C 0.3348(3) 0.25653(19) 0.87414(12)
H21 H 0.402 0.2603 0.8955
H22 H 0.2889 0.307 0.8798
C24 C 0.3731(3) 0.25579(19) 0.82123(12)
C25 C 0.3018(3) 0.2297(2) 0.78373(13)
H23 H 0.2305 0.2065 0.7915
C26 C 0.3339(4) 0.2373(2) 0.73550(14)
H24 H 0.2839 0.2204 0.7103
C27 C 0.4383(4) 0.2693(2) 0.72356(15)
H25 H 0.4598 0.2747 0.6902
C28 C 0.5106(3) 0.2933(2) 0.76000(15)
H26 H 0.5828 0.3148 0.7519
C29 C 0.4785(3) 0.2863(2) 0.80881(14)
H27 H 0.5293 0.3026 0.8339
N1 N 0.0546(2) 0.10141(16) 0.96275(9)
N2 N 0.2691(2) 0.18400(15) 0.88867(10)
O1 O -0.13089(18) 0.04677(14) 0.95796(9)
O2 O 0.01923(18) 0.13587(13) 1.04285(8)
O3 O 0.18494(18) 0.16670(14) 1.00392(8)
O4 O 0.09467(19) 0.24636(14) 0.89446(9)
loop_
_geom_bond_atom_site_label_1
_geom_bond_atom_site_label_2
_geom_bond_site_symmetry_1
_geom_bond_site_symmetry_2
Br1 C20 1_555 1_555
C1 C2 1_555 1_555
C2 H1 1_555 1_555
C3 C2 1_555 1_555
C4 C3 1_555 1_555
C5 C4 1_555 1_555
H2 C5 1_555 1_555
C6 C5 1_555 1_555
H3 C6 1_555 1_555
C7 C6 1_555 1_555
H4 C7 1_555 1_555
C8 C7 1_555 1_555
H5 C8 1_555 1_555
C9 C4 1_555 1_555
C10 C3 1_555 1_555
C11 N1 1_555 1_555
C12 C13 1_555 1_555
C13 H6 1_555 1_555
H7 C13 1_555 1_555
H8 C13 1_555 1_555
C14 C12 1_555 1_555
H9 C14 1_555 1_555
H10 C14 1_555 1_555
H11 C14 1_555 1_555
C15 C12 1_555 1_555
H12 C15 1_555 1_555
H13 C15 1_555 1_555
H14 C15 1_555 1_555
C16 C2 1_555 1_555
H15 C16 1_555 1_555
H16 C16 1_555 1_555
C17 C16 1_555 1_555
C18 C17 1_555 1_555
H17 C18 1_555 1_555
C19 C18 1_555 1_555
H18 C19 1_555 1_555
C20 C19 1_555 1_555
C21 C20 1_555 1_555
H19 C21 1_555 1_555
C22 C17 1_555 1_555
H20 C22 1_555 1_555
C23 H21 1_555 1_555
H22 C23 1_555 1_555
C24 C23 1_555 1_555
C25 C24 1_555 1_555
H23 C25 1_555 1_555
C26 C25 1_555 1_555
H24 C26 1_555 1_555
C27 C26 1_555 1_555
H25 C27 1_555 1_555
C28 C27 1_555 1_555
H26 C28 1_555 1_555
C29 C24 1_555 1_555
H27 C29 1_555 1_555
N1 C1 1_555 1_555
N2 C9 1_555 1_555
O1 C1 1_555 1_555
O2 C11 1_555 1_555
O3 C11 1_555 1_555
O4 C10 1_555 1_555
C3 N1 1_555 1_555
C8 C9 1_555 1_555
C10 N2 1_555 1_555
C12 O3 1_555 1_555
C21 C22 1_555 1_555
C23 N2 1_555 1_555
C28 C29 1_555 1_555

#END
