
#######################################################################
#
#                 Cambridge Crystallographic Data Centre
#                                CCDC 
#
#######################################################################
#
# If this CIF has been generated from an entry in the Cambridge 
# Structural Database, then it will include bibliographic, chemical, 
# crystal, experimental, refinement or atomic coordinate data resulting 
# from the CCDC's data processing and validation procedures.
#
#######################################################################

data_KASDEO
_chemical_formula_moiety         'C12 H4 S5'
_chemical_name_systematic        Pentathienoacene
_symmetry_cell_setting           orthorhombic
_symmetry_space_group_name_H-M   'P n m a'
_symmetry_Int_Tables_number      62
_space_group_name_Hall           '-P 2ac 2n'
loop_
_symmetry_equiv_pos_site_id
_symmetry_equiv_pos_as_xyz
1 x,y,z
2 1/2-x,-y,1/2+z
3 -x,1/2+y,-z
4 1/2+x,1/2-y,1/2-z
5 -x,-y,-z
6 1/2+x,y,1/2-z
7 x,1/2-y,z
8 1/2-x,1/2+y,1/2+z
_cell_length_a                   11.171(4)
_cell_length_b                   25.098(9)
_cell_length_c                   3.8852(13)
_cell_angle_alpha                90
_cell_angle_beta                 90
_cell_angle_gamma                90
_cell_volume                     1089.29
_exptl_crystal_colour            colorless
_exptl_crystal_description       plate
_cell_formula_units_Z            4
loop_
_atom_site_label
_atom_site_type_symbol
_atom_site_fract_x
_atom_site_fract_y
_atom_site_fract_z
S1 S 0.7331(3) 0.7500 0.1987(9)
S2 S 1.03565(18) 0.67302(9) -0.2116(6)
S3 S 0.7378(2) 0.59376(9) 0.1873(7)
C1 C 0.8314(8) 0.7005(4) 0.067(3)
C2 C 0.9366(8) 0.7216(4) -0.073(3)
C3 C 0.8311(8) 0.6443(3) 0.061(2)
C4 C 0.9361(8) 0.6238(4) -0.080(2)
C5 C 0.9401(9) 0.5675(4) -0.088(3)
H1 H 1.0050 0.5472 -0.1764
C6 C 0.8390(9) 0.5464(4) 0.048(3)
H2 H 0.8251 0.5092 0.0655
S2F S 1.03565(18) 0.82698(9) -0.2116(6)
S3F S 0.7378(2) 0.90624(9) 0.1873(7)
C1F C 0.8314(8) 0.7995(4) 0.067(3)
C2F C 0.9366(8) 0.7784(4) -0.073(3)
C3F C 0.8311(8) 0.8557(3) 0.061(2)
C4F C 0.9361(8) 0.8762(4) -0.080(2)
C5F C 0.9401(9) 0.9325(4) -0.088(3)
H1F H 1.0050 0.9528 -0.1764
C6F C 0.8390(9) 0.9536(4) 0.048(3)
H2F H 0.8251 0.9908 0.0655
loop_
_geom_bond_atom_site_label_1
_geom_bond_atom_site_label_2
_geom_bond_site_symmetry_1
_geom_bond_site_symmetry_2
S1 C1 1_555 1_555
S2 C2 1_555 1_555
S3 C3 1_555 1_555
C1 C2 1_555 1_555
C2 C2F 1_555 1_555
C3 C1 1_555 1_555
C4 S2 1_555 1_555
C5 C4 1_555 1_555
H1 C5 1_555 1_555
C6 S3 1_555 1_555
H2 C6 1_555 1_555
S2F C2F 1_555 1_555
S3F C3F 1_555 1_555
C1F S1 1_555 1_555
C2F C1F 1_555 1_555
C3F C1F 1_555 1_555
C4F S2F 1_555 1_555
C5F C4F 1_555 1_555
H1F C5F 1_555 1_555
C6F S3F 1_555 1_555
H2F C6F 1_555 1_555
C3 C4 1_555 1_555
C5 C6 1_555 1_555
C3F C4F 1_555 1_555
C5F C6F 1_555 1_555

#END
