
#######################################################################
#
#                 Cambridge Crystallographic Data Centre
#                                CCDC 
#
#######################################################################
#
# If this CIF has been generated from an entry in the Cambridge 
# Structural Database, then it will include bibliographic, chemical, 
# crystal, experimental, refinement or atomic coordinate data resulting 
# from the CCDC's data processing and validation procedures.
#
#######################################################################

data_KASGIV01
_chemical_compound_source        
'root, stem bark, and leaf extracts of Erythrina schliebenii'
_chemical_name_common            6-hydroxy-2,3,4,4-tetramethoxychalcone
_chemical_formula_moiety         'C19 H20 O6'
_chemical_name_systematic        
1-(6-hydroxy-2,3,4-trimethoxyphenyl)-3-(4-methoxyphenyl)prop-2-en-1-one
_chemical_properties_biological  
'moderate antitubercular and cytotoxic activities'
_symmetry_cell_setting           monoclinic
_symmetry_space_group_name_H-M   'C c'
_symmetry_Int_Tables_number      9
_space_group_name_Hall           'C -2yc'
loop_
_symmetry_equiv_pos_site_id
_symmetry_equiv_pos_as_xyz
1 x,y,z
2 x,-y,1/2+z
3 1/2+x,1/2+y,z
4 1/2+x,1/2-y,1/2+z
_cell_length_a                   13.1824(2)
_cell_length_b                   15.15072(19)
_cell_length_c                   8.32489(11)
_cell_angle_alpha                90
_cell_angle_beta                 98.5002(13)
_cell_angle_gamma                90
_cell_volume                     1644.41
_exptl_crystal_colour            colorless
_exptl_crystal_description       plate
_cell_formula_units_Z            4
loop_
_atom_site_label
_atom_site_type_symbol
_atom_site_fract_x
_atom_site_fract_y
_atom_site_fract_z
O1 O 0.43169(10) 0.36118(8) 0.77507(14)
O2 O 0.56681(11) 0.25207(9) 0.94858(15)
O3 O 0.74234(11) 0.31491(8) 1.12122(16)
O4 O 0.66028(10) 0.60637(8) 0.93988(16)
H1 H 0.618934 0.633749 0.875194
O5 O 0.49996(10) 0.63307(9) 0.75073(14)
O6 O -0.10313(11) 0.59271(9) 0.30767(17)
C1 C 0.53960(14) 0.49000(13) 0.84997(19)
C2 C 0.52141(14) 0.39746(11) 0.85453(19)
C3 C 0.59025(14) 0.34046(12) 0.9423(2)
C4 C 0.68072(14) 0.37463(12) 1.0333(2)
C5 C 0.70187(14) 0.46381(13) 1.0302(2)
H2 H 0.761730 0.485944 1.089724
C6 C 0.63348(14) 0.52049(12) 0.9380(2)
C7 C 0.43311(17) 0.34649(13) 0.6050(2)
H3 H 0.446851 0.401146 0.554024
H4 H 0.367732 0.324039 0.555906
H5 H 0.485695 0.304473 0.591517
C8 C 0.62409(18) 0.19752(13) 0.8533(3)
H6 H 0.615517 0.218962 0.743596
H7 H 0.599634 0.137862 0.854148
H8 H 0.695431 0.199242 0.898352
C9 C 0.83472(16) 0.34836(12) 1.2166(2)
H9 H 0.878187 0.373540 1.145710
H10 H 0.870206 0.300958 1.277469
H11 H 0.817202 0.392828 1.289888
C10 C 0.46902(15) 0.55558(12) 0.7642(2)
C11 C 0.36141(15) 0.53615(12) 0.6995(2)
H12 H 0.328849 0.486535 0.733446
C12 C 0.31117(14) 0.59240(12) 0.5894(2)
H13 H 0.349622 0.639004 0.557612
C13 C 0.20467(15) 0.58903(11) 0.5146(2)
C14 C 0.16913(15) 0.65328(12) 0.3984(2)
H14 H 0.215127 0.694752 0.369201
C15 C 0.06730(15) 0.65683(12) 0.3254(2)
H15 H 0.045514 0.699951 0.248522
C16 C -0.00145(14) 0.59490(12) 0.3693(2)
C17 C 0.03224(16) 0.52936(13) 0.4837(2)
H16 H -0.013790 0.487548 0.511564
C18 C 0.13347(15) 0.52677(12) 0.5551(2)
H17 H 0.155012 0.483168 0.631134
C19 C -0.14348(18) 0.66689(14) 0.2138(3)
H18 H -0.113282 0.669737 0.115777
H19 H -0.127807 0.719956 0.275444
H20 H -0.216514 0.660887 0.186821
loop_
_geom_bond_atom_site_label_1
_geom_bond_atom_site_label_2
_geom_bond_site_symmetry_1
_geom_bond_site_symmetry_2
O1 C2 1_555 1_555
O2 C3 1_555 1_555
O3 C4 1_555 1_555
O4 H1 1_555 1_555
O5 C10 1_555 1_555
O6 C16 1_555 1_555
C1 C2 1_555 1_555
C2 C3 1_555 1_555
C3 C4 1_555 1_555
C4 C5 1_555 1_555
C5 H2 1_555 1_555
C6 O4 1_555 1_555
C7 O1 1_555 1_555
H3 C7 1_555 1_555
H4 C7 1_555 1_555
H5 C7 1_555 1_555
C8 O2 1_555 1_555
H6 C8 1_555 1_555
H7 C8 1_555 1_555
H8 C8 1_555 1_555
C9 O3 1_555 1_555
H9 C9 1_555 1_555
H10 C9 1_555 1_555
H11 C9 1_555 1_555
C10 C1 1_555 1_555
C11 C10 1_555 1_555
H12 C11 1_555 1_555
C12 C11 1_555 1_555
H13 C12 1_555 1_555
C13 C12 1_555 1_555
C14 C13 1_555 1_555
H14 C14 1_555 1_555
C15 C14 1_555 1_555
H15 C15 1_555 1_555
C16 C15 1_555 1_555
C17 C16 1_555 1_555
H16 C17 1_555 1_555
C18 C13 1_555 1_555
H17 C18 1_555 1_555
C19 O6 1_555 1_555
H18 C19 1_555 1_555
H19 C19 1_555 1_555
H20 C19 1_555 1_555
C1 C6 1_555 1_555
C5 C6 1_555 1_555
C17 C18 1_555 1_555

#END
