
#######################################################################
#
#                 Cambridge Crystallographic Data Centre
#                                CCDC 
#
#######################################################################
#
# If this CIF has been generated from an entry in the Cambridge 
# Structural Database, then it will include bibliographic, chemical, 
# crystal, experimental, refinement or atomic coordinate data resulting 
# from the CCDC's data processing and validation procedures.
#
#######################################################################

data_KASHIR01
_chemical_compound_source        
'Fritillaria imperialis L.(Liliaceae) and Fritillaria roylei'
_chemical_name_common            Sipeimine
_chemical_formula_moiety         'C27 H43 N1 O3'
_chemical_name_systematic        3\b,20\b-Dihydroxy-6-one-5\a-cevanine
_symmetry_cell_setting           monoclinic
_symmetry_space_group_name_H-M   'P 21'
_symmetry_Int_Tables_number      4
_space_group_name_Hall           'P 2yb'
loop_
_symmetry_equiv_pos_site_id
_symmetry_equiv_pos_as_xyz
1 x,y,z
2 -x,1/2+y,-z
_cell_length_a                   6.6185(5)
_cell_length_b                   12.3948(8)
_cell_length_c                   14.5069(10)
_cell_angle_alpha                90
_cell_angle_beta                 90.8220(10)
_cell_angle_gamma                90
_cell_volume                     1189.95
_exptl_crystal_colour            colorless
_exptl_crystal_description       prism
_cell_formula_units_Z            2
_exptl_crystal_recrystallization_method methanol/chloroform
loop_
_atom_site_label
_atom_site_type_symbol
_atom_site_fract_x
_atom_site_fract_y
_atom_site_fract_z
O1 O 0.6837(6) 0.7650(3) 0.78059(17)
H1 H 0.7191 0.8207 0.8067
O2 O 0.0921(5) 0.9253(2) 0.59128(19)
O3 O 0.1456(4) 0.40336(18) 0.09243(16)
H2 H 0.2577 0.4221 0.0751
N1 N 0.2739(3) 0.5855(2) 0.00561(14)
C1 C 0.6414(5) 0.6826(3) 0.53240(19)
H3 H 0.6618 0.6115 0.5063
H4 H 0.7309 0.7323 0.5014
C2 C 0.6965(5) 0.6798(4) 0.6355(2)
H5 H 0.6187 0.6235 0.6650
H6 H 0.8384 0.6616 0.6427
C3 C 0.6575(6) 0.7854(4) 0.6835(2)
H7 H 0.7572 0.8388 0.6639
C4 C 0.4469(6) 0.8279(3) 0.6636(2)
H8 H 0.4349 0.9002 0.6886
H9 H 0.3489 0.7824 0.6939
C5 C 0.3998(5) 0.8306(3) 0.5601(2)
H10 H 0.5064 0.8749 0.5332
C6 C 0.2024(6) 0.8869(3) 0.5342(2)
C7 C 0.1509(6) 0.8910(3) 0.4326(2)
H11 H 0.2422 0.9399 0.4017
H12 H 0.0141 0.9175 0.4236
C8 C 0.1696(4) 0.7782(2) 0.39169(19)
H13 H 0.0740 0.7328 0.4251
C9 C 0.3800(4) 0.7311(2) 0.41165(17)
H14 H 0.4784 0.7835 0.3890
C10 C 0.4213(4) 0.7175(2) 0.51475(18)
C11 C 0.3838(4) 0.6352(2) 0.34595(17)
H15 H 0.2967 0.5774 0.3668
H16 H 0.5199 0.6076 0.3387
C12 C 0.3029(4) 0.6862(2) 0.25628(17)
H17 H 0.4087 0.7353 0.2351
C13 C 0.2594(4) 0.6081(2) 0.17582(16)
H18 H 0.3503 0.5463 0.1839
C14 C 0.1264(4) 0.7587(2) 0.28844(19)
H19 H 0.1306 0.8277 0.2555
C15 C -0.0821(4) 0.7082(3) 0.2756(2)
H20 H -0.1025 0.6555 0.3240
H21 H -0.1838 0.7639 0.2822
C16 C -0.1116(5) 0.6539(3) 0.1835(2)
H22 H -0.0954 0.7063 0.1345
H23 H -0.2471 0.6245 0.1789
C17 C 0.0430(4) 0.5635(2) 0.17314(18)
H24 H 0.0293 0.5160 0.2267
C18 C 0.3075(4) 0.6586(3) 0.08329(18)
H25 H 0.2242 0.7223 0.0746
H26 H 0.4476 0.6816 0.0840
C19 C 0.2773(5) 0.6351(2) 0.5569(2)
H27 H 0.1406 0.6599 0.5495
H28 H 0.3085 0.6269 0.6214
H29 H 0.2924 0.5669 0.5264
C20 C 0.0089(5) 0.4937(2) 0.0870(2)
C21 C -0.2041(7) 0.4472(4) 0.0837(3)
H30 H -0.2108 0.3902 0.0389
H31 H -0.2984 0.5029 0.0668
H32 H -0.2374 0.4191 0.1432
C22 C 0.0597(4) 0.5548(3) -0.00137(19)
H33 H -0.0224 0.6205 -0.0045
C23 C 0.0190(5) 0.4881(3) -0.0879(2)
H34 H 0.0860 0.4188 -0.0817
H35 H -0.1250 0.4749 -0.0940
C24 C 0.0930(5) 0.5442(3) -0.17424(19)
H36 H 0.0708 0.4977 -0.2272
H37 H 0.0168 0.6101 -0.1841
C25 C 0.3144(6) 0.5704(3) -0.1651(2)
H38 H 0.3490 0.6163 -0.2176
C26 C 0.3466(6) 0.6372(3) -0.0786(2)
H39 H 0.4898 0.6520 -0.0712
H40 H 0.2778 0.7058 -0.0865
C27 C 0.4472(7) 0.4725(5) -0.1692(3)
H41 H 0.4263 0.4288 -0.1155
H42 H 0.5862 0.4945 -0.1711
H43 H 0.4142 0.4316 -0.2235
loop_
_geom_bond_atom_site_label_1
_geom_bond_atom_site_label_2
_geom_bond_site_symmetry_1
_geom_bond_site_symmetry_2
O1 H1 1_555 1_555
O2 C6 1_555 1_555
O3 H2 1_555 1_555
N1 C18 1_555 1_555
C1 H3 1_555 1_555
H4 C1 1_555 1_555
C2 C1 1_555 1_555
H5 C2 1_555 1_555
H6 C2 1_555 1_555
C3 O1 1_555 1_555
H7 C3 1_555 1_555
C4 C3 1_555 1_555
H8 C4 1_555 1_555
H9 C4 1_555 1_555
C5 C4 1_555 1_555
H10 C5 1_555 1_555
C6 C5 1_555 1_555
C7 C6 1_555 1_555
H11 C7 1_555 1_555
H12 C7 1_555 1_555
C8 C7 1_555 1_555
H13 C8 1_555 1_555
C9 C8 1_555 1_555
H14 C9 1_555 1_555
C10 C1 1_555 1_555
C11 C9 1_555 1_555
H15 C11 1_555 1_555
H16 C11 1_555 1_555
C12 C11 1_555 1_555
H17 C12 1_555 1_555
C13 C12 1_555 1_555
H18 C13 1_555 1_555
C14 C8 1_555 1_555
H19 C14 1_555 1_555
C15 C14 1_555 1_555
H20 C15 1_555 1_555
H21 C15 1_555 1_555
C16 C15 1_555 1_555
H22 C16 1_555 1_555
H23 C16 1_555 1_555
C17 C13 1_555 1_555
H24 C17 1_555 1_555
C18 C13 1_555 1_555
H25 C18 1_555 1_555
H26 C18 1_555 1_555
C19 C10 1_555 1_555
H27 C19 1_555 1_555
H28 C19 1_555 1_555
H29 C19 1_555 1_555
C20 O3 1_555 1_555
C21 C20 1_555 1_555
H30 C21 1_555 1_555
H31 C21 1_555 1_555
H32 C21 1_555 1_555
C22 N1 1_555 1_555
H33 C22 1_555 1_555
C23 C22 1_555 1_555
H34 C23 1_555 1_555
H35 C23 1_555 1_555
C24 C23 1_555 1_555
H36 C24 1_555 1_555
H37 C24 1_555 1_555
C25 C24 1_555 1_555
H38 C25 1_555 1_555
C26 N1 1_555 1_555
H39 C26 1_555 1_555
H40 C26 1_555 1_555
C27 C25 1_555 1_555
H41 C27 1_555 1_555
H42 C27 1_555 1_555
H43 C27 1_555 1_555
C2 C3 1_555 1_555
C5 C10 1_555 1_555
C9 C10 1_555 1_555
C12 C14 1_555 1_555
C16 C17 1_555 1_555
C17 C20 1_555 1_555
C20 C22 1_555 1_555
C25 C26 1_555 1_555

#END
