
#######################################################################
#
#                 Cambridge Crystallographic Data Centre
#                                CCDC 
#
#######################################################################
#
# If this CIF has been generated from an entry in the Cambridge 
# Structural Database, then it will include bibliographic, chemical, 
# crystal, experimental, refinement or atomic coordinate data resulting 
# from the CCDC's data processing and validation procedures.
#
#######################################################################

data_KASJAP
_chemical_formula_moiety         'C17 H19 Br1 O4'
_chemical_name_systematic        
'Perhydro-2-vinylpyrano(3,2-b)pyran-3-yl p-bromobenzoate'
_symmetry_cell_setting           monoclinic
_symmetry_space_group_name_H-M   'P 21'
_symmetry_Int_Tables_number      4
_space_group_name_Hall           'P 2yb'
loop_
_symmetry_equiv_pos_site_id
_symmetry_equiv_pos_as_xyz
1 x,y,z
2 -x,1/2+y,-z
_cell_length_a                   9.278(3)
_cell_length_b                   5.808(2)
_cell_length_c                   15.550(3)
_cell_angle_alpha                90
_cell_angle_beta                 93.41(2)
_cell_angle_gamma                90
_cell_volume                     836.453
_exptl_crystal_colour            colorless
_chemical_melting_point          94-96deg.C
_cell_formula_units_Z            2
loop_
_atom_site_label
_atom_site_type_symbol
_atom_site_fract_x
_atom_site_fract_y
_atom_site_fract_z
Br1 Br 0.16875(8) 0.5000 1.04979(5)
C1 C 0.2855(8) 0.360(2) 0.9653(4)
C2 C 0.2501(8) 0.148(2) 0.9332(5)
C3 C 0.3369(7) 0.054(1) 0.8726(5)
C4 C 0.4532(7) 0.179(1) 0.8443(4)
C5 C 0.4820(8) 0.394(1) 0.8780(5)
C6 C 0.4000(7) 0.490(2) 0.9398(4)
C7 C 0.5436(7) 0.072(1) 0.7792(4)
C8 C 0.7025(8) 0.162(1) 0.6689(4)
C9 C 0.6096(7) 0.119(1) 0.5876(5)
C10 C 0.7036(7) 0.114(1) 0.5105(5)
C11 C 0.7932(7) 0.333(1) 0.5092(4)
C12 C 0.8842(8) 0.337(2) 0.4315(5)
C13 C 0.7855(8) 0.298(2) 0.3507(5)
C14 C 0.6947(8) 0.084(1) 0.3594(4)
C15 C 0.8060(8) 0.368(2) 0.6605(4)
C16 C 0.919(1) 0.375(2) 0.7358(5)
C17 C 0.924(1) 0.496(4) 0.7937(6)
O1 O 0.5510(6) -0.131(1) 0.7662(3)
O2 O 0.6120(5) 0.232(1) 0.7371(3)
O3 O 0.8856(5) 0.341(1) 0.5853(3)
O4 O 0.6124(5) 0.0963(9) 0.4345(3)
H1 H 0.7602 0.0210 0.6775
H2 H 0.7701 -0.0151 0.5156
H3 H 0.7274 0.4635 0.5061
H4 H 0.7422 0.5090 0.6605
H5 H 0.1663 0.0651 0.9532
H6 H 0.3165 -0.0952 0.8488
H7 H 0.5610 0.4825 0.8582
H8 H 0.4208 0.6377 0.9630
H9 H 0.5371 0.2386 0.5804
H10 H 0.5554 -0.0252 0.5919
H11 H 0.9547 0.2154 0.4368
H12 H 0.9355 0.4800 0.4287
H13 H 0.8396 0.2934 0.3002
H14 H 0.7191 0.4289 0.3433
H15 H 0.7616 -0.0470 0.3627
H16 H 0.6346 0.0607 0.3071
H17 H 0.9971 0.2602 0.7354
H18 H 0.9958 0.4958 0.8403
H19 H 0.8447 0.6096 0.7991
loop_
_geom_bond_atom_site_label_1
_geom_bond_atom_site_label_2
_geom_bond_site_symmetry_1
_geom_bond_site_symmetry_2
Br1 C1 1_555 1_555
C1 C2 1_555 1_555
C2 C3 1_555 1_555
C3 C4 1_555 1_555
C4 C5 1_555 1_555
C5 C6 1_555 1_555
C6 C1 1_555 1_555
C7 C4 1_555 1_555
C8 C9 1_555 1_555
C9 C10 1_555 1_555
C10 C11 1_555 1_555
C11 C12 1_555 1_555
C12 C13 1_555 1_555
C13 C14 1_555 1_555
C14 O4 1_555 1_555
C15 C8 1_555 1_555
C16 C15 1_555 1_555
C17 C16 1_555 1_555
O1 C7 1_555 1_555
O2 C7 1_555 1_555
O3 C11 1_555 1_555
O4 C10 1_555 1_555
H1 C8 1_555 1_555
H2 C10 1_555 1_555
H3 C11 1_555 1_555
H4 C15 1_555 1_555
H5 C2 1_555 1_555
H6 C3 1_555 1_555
H7 C5 1_555 1_555
H8 C6 1_555 1_555
H9 C9 1_555 1_555
H10 C9 1_555 1_555
H11 C12 1_555 1_555
H12 C12 1_555 1_555
H13 C13 1_555 1_555
H14 C13 1_555 1_555
H15 C14 1_555 1_555
H16 C14 1_555 1_555
H17 C16 1_555 1_555
H18 C17 1_555 1_555
H19 C17 1_555 1_555
C8 O2 1_555 1_555
C15 O3 1_555 1_555

#END
