
#######################################################################
#
#                 Cambridge Crystallographic Data Centre
#                                CCDC 
#
#######################################################################
#
# If this CIF has been generated from an entry in the Cambridge 
# Structural Database, then it will include bibliographic, chemical, 
# crystal, experimental, refinement or atomic coordinate data resulting 
# from the CCDC's data processing and validation procedures.
#
#######################################################################

data_KASJET
_chemical_formula_moiety         'C17 H19 Br1 O4'
_chemical_name_systematic        
'6-endo-Perhydro-2-vinylpyrano(3,2-b)pyran-3-yl p-bromobenzoate'
_symmetry_cell_setting           triclinic
_symmetry_space_group_name_H-M   'P 1'
_symmetry_Int_Tables_number      1
_space_group_name_Hall           'P 1'
loop_
_symmetry_equiv_pos_site_id
_symmetry_equiv_pos_as_xyz
1 x,y,z
_cell_length_a                   6.332(2)
_cell_length_b                   7.973(1)
_cell_length_c                   8.839(1)
_cell_angle_alpha                76.49(1)
_cell_angle_beta                 71.31(2)
_cell_angle_gamma                85.28(2)
_cell_volume                     410.995
_cell_formula_units_Z            1
loop_
_atom_site_label
_atom_site_type_symbol
_atom_site_fract_x
_atom_site_fract_y
_atom_site_fract_z
Br1 Br 1.0000 1.0000 1.0000
C1 C 0.842(2) 0.796(1) 1.043(1)
C2 C 0.686(2) 0.793(1) 0.967(1)
C3 C 0.578(2) 0.637(1) 0.994(1)
C4 C 0.612(1) 0.495(1) 1.1087(9)
C5 C 0.766(2) 0.506(1) 1.189(1)
C6 C 0.882(2) 0.656(1) 1.157(1)
C7 C 0.490(2) 0.334(1) 1.135(1)
C8 C 0.139(1) 0.062(1) 1.370(1)
C9 C 0.394(1) 0.054(1) 1.309(1)
C10 C 0.484(1) -0.061(1) 1.437(1)
C11 C 0.376(1) -0.236(1) 1.4894(9)
C12 C 0.128(1) -0.217(1) 1.5469(9)
C13 C 0.014(1) -0.388(1) 1.598(1)
C14 C 0.107(2) -0.505(1) 1.725(1)
C15 C 0.361(1) -0.511(1) 1.664(1)
C16 C 0.046(2) 0.164(1) 1.502(1)
C17 C -0.155(1) 0.170(1) 1.590(1)
O1 O 0.495(1) 0.2214(7) 1.2752(6)
O2 O 0.403(1) 0.305(1) 1.0433(9)
O3 O 0.0542(8) -0.1096(7) 1.4174(6)
O4 O 0.4520(9) -0.3412(8) 1.6149(7)
H1 H 0.0828 0.1246 1.2769
H2 H 0.4310 0.0000 1.2106
H3 H 0.4065 -0.2855 1.3907
H4 H 0.0708 -0.1673 1.6419
H5 H 0.6450 0.8905 0.8912
H6 H 0.4533 0.6322 0.9415
H7 H 0.7817 0.4039 1.2667
H8 H 0.9702 0.6628 1.2178
H9 H 0.6372 -0.0739 1.3919
H10 H 0.4454 -0.0094 1.5261
H11 H -0.1553 -0.3792 1.6408
H12 H 0.0356 -0.4421 1.5050
H13 H 0.0442 -0.4644 1.8252
H14 H 0.0346 -0.6220 1.7528
H15 H 0.4104 -0.5785 1.7441
H16 H 0.3988 -0.5647 1.5689
H17 H 0.1434 0.2316 1.5136
H18 H -0.2568 0.0645 1.6375
H19 H -0.2404 0.2745 1.6134
loop_
_geom_bond_atom_site_label_1
_geom_bond_atom_site_label_2
_geom_bond_site_symmetry_1
_geom_bond_site_symmetry_2
Br1 C1 1_555 1_555
C1 C2 1_555 1_555
C2 C3 1_555 1_555
C3 C4 1_555 1_555
C4 C5 1_555 1_555
C5 C6 1_555 1_555
C6 C1 1_555 1_555
C7 C4 1_555 1_555
C8 C9 1_555 1_555
C9 C10 1_555 1_555
C10 C11 1_555 1_555
C11 C12 1_555 1_555
C12 C13 1_555 1_555
C13 C14 1_555 1_555
C14 C15 1_555 1_555
C15 O4 1_555 1_555
C16 C8 1_555 1_555
C17 C16 1_555 1_555
O1 C7 1_555 1_555
O2 C7 1_555 1_555
O3 C8 1_555 1_555
O4 C11 1_555 1_555
H1 C8 1_555 1_555
H2 C9 1_555 1_555
H3 C11 1_555 1_555
H4 C12 1_555 1_555
H5 C2 1_555 1_555
H6 C3 1_555 1_555
H7 C5 1_555 1_555
H8 C6 1_555 1_555
H9 C10 1_555 1_555
H10 C10 1_555 1_555
H11 C13 1_555 1_555
H12 C13 1_555 1_555
H13 C14 1_555 1_555
H14 C14 1_555 1_555
H15 C15 1_555 1_555
H16 C15 1_555 1_555
H17 C16 1_555 1_555
H18 C17 1_555 1_555
H19 C17 1_555 1_555
C9 O1 1_555 1_555
C12 O3 1_555 1_555

#END
