
#######################################################################
#
#                 Cambridge Crystallographic Data Centre
#                                CCDC 
#
#######################################################################
#
# If this CIF has been generated from an entry in the Cambridge 
# Structural Database, then it will include bibliographic, chemical, 
# crystal, experimental, refinement or atomic coordinate data resulting 
# from the CCDC's data processing and validation procedures.
#
#######################################################################

data_KASKUK10
_chemical_formula_moiety         'C23 H16 O5,0.5(C1 H4 O1)'
_chemical_name_systematic        'Ohioensin A methanol solvate'
_symmetry_cell_setting           triclinic
_symmetry_space_group_name_H-M   'P 1'
_symmetry_Int_Tables_number      1
_space_group_name_Hall           'P 1'
loop_
_symmetry_equiv_pos_site_id
_symmetry_equiv_pos_as_xyz
1 x,y,z
_cell_length_a                   8.685(3)
_cell_length_b                   10.753(5)
_cell_length_c                   11.685(4)
_cell_angle_alpha                115.31(3)
_cell_angle_beta                 95.02(3)
_cell_angle_gamma                105.84(3)
_cell_volume                     922.517
_exptl_crystal_colour            yellow
_chemical_melting_point          274-275deg.C
_cell_formula_units_Z            2
loop_
_atom_site_label
_atom_site_type_symbol
_atom_site_fract_x
_atom_site_fract_y
_atom_site_fract_z
C1 C 0.1636 0.5468 0.0000
C2 C 0.0389(7) 0.4184(6) -0.0704(5)
C3 C -0.0456(7) 0.3279(6) -0.0233(6)
C4 C -0.0070(7) 0.3660(6) 0.1090(5)
C5 C -0.0802(7) 0.2671(6) 0.1648(5)
C6 C -0.2320(7) 0.1502(6) 0.1056(5)
C7 C -0.2891(7) 0.0584(6) 0.1569(5)
C8 C -0.1986(7) 0.0787(6) 0.2701(6)
C9 C -0.0475(7) 0.1923(6) 0.3338(5)
C10 C 0.0104(6) 0.2882(6) 0.2823(5)
C11 C 0.1688(7) 0.4154(6) 0.3512(5)
O1 O 0.2052(5) 0.4425(4) 0.4830(3)
C12 C 0.3233(7) 0.5747(6) 0.5720(5)
C13 C 0.3917(7) 0.5801(7) 0.6882(6)
C14 C 0.5057(8) 0.7092(7) 0.7826(6)
C15 C 0.5532(8) 0.8317(7) 0.7634(6)
C16 C 0.4846(8) 0.8241(7) 0.6497(6)
C17 C 0.3663(7) 0.6949(6) 0.5503(5)
C18 C 0.2947(7) 0.6896(6) 0.4245(5)
C19 C 0.4283(7) 0.7144(6) 0.3526(5)
C20 C 0.3625(7) 0.7059(6) 0.2250(6)
C21 C 0.2079(7) 0.5892(6) 0.1446(5)
C22 C 0.1171(7) 0.5002(6) 0.1935(5)
C23 C 0.1491(7) 0.5464(5) 0.3380(5)
O2 O 0.2468(5) 0.6273(4) -0.0433(4)
O3 O -0.1650(5) 0.1987(4) -0.1059(3)
O4 O -0.2492(5) -0.0097(4) 0.3273(3)
O5 O 0.4430(5) 0.7894(4) 0.1868(4)
C24 C 0.3953(7) 0.1793(6) 1.2875(5)
C25 C 0.5228(7) 0.3088(6) 1.3724(5)
C26 C 0.5960(7) 0.4019(6) 1.3244(5)
C27 C 0.5418(7) 0.3730(6) 1.1932(5)
C28 C 0.6214(7) 0.4607(6) 1.1324(5)
C29 C 0.7441(7) 0.5989(6) 1.2004(5)
C30 C 0.8221(7) 0.6746(6) 1.1387(5)
C31 C 0.7754(7) 0.6143(6) 1.0054(5)
C32 C 0.6531(7) 0.4804(6) 0.9354(5)
C33 C 0.5760(6) 0.4042(6) 0.9962(5)
C34 C 0.4443(7) 0.2545(6) 0.9153(5)
O6 O 0.3730(5) 0.2502(4) 0.7980(3)
C35 C 0.2347(7) 0.1306(6) 0.7210(5)
C36 C 0.1957(8) 0.0981(7) 0.5904(5)
C37 C 0.0561(8) -0.0177(7) 0.5062(6)
C38 C -0.0455(8) -0.1012(6) 0.5523(6)
C39 C -0.0057(7) -0.0653(6) 0.6830(5)
C40 C 0.1330(7) 0.0506(6) 0.7699(5)
C41 C 0.1691(7) 0.0890(5) 0.9121(5)
C42 C 0.1922(7) -0.0375(6) 0.9327(5)
C43 C 0.2151(7) 0.0040(6) 1.0719(5)
C44 C 0.3341(7) 0.1451(6) 1.1621(5)
C45 C 0.4025(7) 0.2481(6) 1.1184(5)
C46 C 0.3179(6) 0.2313(5) 0.9906(5)
O7 O 0.3349(5) 0.0877(4) 1.3399(4)
O8 O 0.7203(5) 0.5282(4) 1.4064(4)
O9 O 0.8510(5) 0.6838(4) 0.9402(3)
O10 O 0.1392(5) -0.0835(4) 1.1100(4)
O11 O 0.8051(6) 0.5667(5) 1.6533(4)
C47 C 0.9595(9) 0.5524(9) 1.6622(7)
O12 O -0.2244(6) 0.1387(6) -0.3580(5)
C48 C -0.3470(11) 0.1773(9) -0.4078(7)
loop_
_geom_bond_atom_site_label_1
_geom_bond_atom_site_label_2
_geom_bond_site_symmetry_1
_geom_bond_site_symmetry_2
C1 C2 1_555 1_555
C2 C3 1_555 1_555
C3 C4 1_555 1_555
C4 C5 1_555 1_555
C5 C6 1_555 1_555
C6 C7 1_555 1_555
C7 C8 1_555 1_555
C8 C9 1_555 1_555
C9 C10 1_555 1_555
C10 C5 1_555 1_555
C11 C10 1_555 1_555
O1 C11 1_555 1_555
C12 O1 1_555 1_555
C13 C12 1_555 1_555
C14 C13 1_555 1_555
C15 C14 1_555 1_555
C16 C15 1_555 1_555
C17 C12 1_555 1_555
C18 C17 1_555 1_555
C19 C18 1_555 1_555
C20 C19 1_555 1_555
C21 C1 1_555 1_555
C22 C4 1_555 1_555
C23 C11 1_555 1_555
O2 C1 1_555 1_555
O3 C3 1_555 1_555
O4 C8 1_555 1_555
O5 C20 1_555 1_555
C24 C25 1_555 1_555
C25 C26 1_555 1_555
C26 C27 1_555 1_555
C27 C28 1_555 1_555
C28 C29 1_555 1_555
C29 C30 1_555 1_555
C30 C31 1_555 1_555
C31 C32 1_555 1_555
C32 C33 1_555 1_555
C33 C28 1_555 1_555
C34 C33 1_555 1_555
O6 C34 1_555 1_555
C35 O6 1_555 1_555
C36 C35 1_555 1_555
C37 C36 1_555 1_555
C38 C37 1_555 1_555
C39 C38 1_555 1_555
C40 C35 1_555 1_555
C41 C40 1_555 1_555
C42 C41 1_555 1_555
C43 C42 1_555 1_555
C44 C24 1_555 1_555
C45 C27 1_555 1_555
C46 C34 1_555 1_555
O7 C24 1_555 1_555
O8 C26 1_555 1_555
O9 C31 1_555 1_555
O10 C43 1_555 1_555
O11 C47 1_555 1_555
O12 C48 1_555 1_555
C16 C17 1_555 1_555
C18 C23 1_555 1_555
C20 C21 1_555 1_555
C21 C22 1_555 1_555
C22 C23 1_555 1_555
C39 C40 1_555 1_555
C41 C46 1_555 1_555
C43 C44 1_555 1_555
C44 C45 1_555 1_555
C45 C46 1_555 1_555

#END
