
#######################################################################
#
#                 Cambridge Crystallographic Data Centre
#                                CCDC 
#
#######################################################################
#
# If this CIF has been generated from an entry in the Cambridge 
# Structural Database, then it will include bibliographic, chemical, 
# crystal, experimental, refinement or atomic coordinate data resulting 
# from the CCDC's data processing and validation procedures.
#
#######################################################################

data_KASQEA
_chemical_formula_moiety         'C22 H27 N3 O3'
_chemical_name_systematic        
3-(N'-Acetyl-N'-methylamino)-N-methyl-2,5-bis(4-methylphenyl)-4-nitropyrrolidine
_symmetry_cell_setting           triclinic
_symmetry_space_group_name_H-M   'P -1'
_symmetry_Int_Tables_number      2
_space_group_name_Hall           '-P 1'
loop_
_symmetry_equiv_pos_site_id
_symmetry_equiv_pos_as_xyz
1 x,y,z
2 -x,-y,-z
_cell_length_a                   7.499(2)
_cell_length_b                   12.474(3)
_cell_length_c                   12.489(4)
_cell_angle_alpha                109.53(2)
_cell_angle_beta                 103.64(2)
_cell_angle_gamma                99.14(2)
_cell_volume                     1033.33
_exptl_crystal_colour            colorless
_exptl_crystal_description       prism
_chemical_melting_point          '114.1-114.5 deg.C'
_cell_formula_units_Z            2
_exptl_crystal_recrystallization_method ethanol
loop_
_atom_site_label
_atom_site_type_symbol
_atom_site_fract_x
_atom_site_fract_y
_atom_site_fract_z
C1 C 0.0275(4) 0.10875(16) 0.1672(2)
H1 H -0.044(3) 0.072(2) 0.209(2)
H2 H -0.048(3) 0.075(2) 0.078(2)
H3 H 0.152(3) 0.092(2) 0.180(2)
C2 C 0.1010(2) 0.30241(13) 0.14653(14)
C3 C 0.1835(2) 0.42973(13) 0.24205(14)
C4 C 0.1351(2) 0.42261(13) 0.35159(14)
C5 C 0.1418(2) 0.29706(13) 0.34140(14)
C6 C 0.2380(2) 0.25764(13) 0.08085(13)
C7 C 0.4180(3) 0.25395(17) 0.13959(16)
C8 C 0.5320(3) 0.20273(17) 0.07597(17)
C9 C 0.4711(3) 0.15459(14) -0.04738(15)
C10 C 0.2959(3) 0.16247(16) -0.10479(16)
C11 C 0.1807(3) 0.21333(15) -0.04239(15)
C12 C 0.5922(3) 0.09485(19) -0.1165(2)
H4 H 0.5177 0.0524 -0.1989
H5 H 0.6374 0.0410 -0.0839
H6 H 0.6984 0.1531 -0.1107
C13 C -0.0790(3) 0.5206(2) 0.1861(3)
H7 H -0.157(3) 0.448(2) 0.168(2)
H8 H -0.112(3) 0.555(2) 0.132(2)
H9 H -0.083(3) 0.572(2) 0.267(2)
C14 C 0.2263(3) 0.58762(17) 0.16455(19)
C15 C 0.4259(4) 0.5804(3) 0.1725(3)
H10 H 0.479(4) 0.635(3) 0.146(2)
H11 H 0.504(4) 0.597(3) 0.256(3)
H12 H 0.431(4) 0.500(3) 0.131(2)
C16 C 0.0491(3) 0.24919(14) 0.41641(14)
C17 C -0.1451(3) 0.22911(18) 0.39733(19)
C18 C -0.2289(4) 0.18051(19) 0.4638(2)
C19 C -0.1222(4) 0.15037(19) 0.55062(19)
C20 C 0.0701(5) 0.1709(3) 0.5679(2)
C21 C 0.1551(4) 0.2195(2) 0.50277(19)
C22 C -0.2161(5) 0.0972(3) 0.6223(3)
H13 H -0.1722 0.0294 0.6243
H14 H -0.3514 0.0740 0.5859
H15 H -0.1843 0.1543 0.7024
N1 N 0.03902(19) 0.23405(11) 0.21379(11)
N2 N 0.1191(2) 0.51844(12) 0.20256(13)
N3 N 0.2702(2) 0.51423(12) 0.46698(13)
O1 O 0.1588(3) 0.65398(15) 0.12358(18)
O2 O 0.40021(19) 0.58501(12) 0.46475(13)
O3 O 0.2425(2) 0.51296(12) 0.55925(11)
H16 H -0.016(2) 0.2992(15) 0.0848(15)
H17 H 0.316(2) 0.4483(14) 0.2601(14)
H18 H 0.012(2) 0.4339(14) 0.3528(14)
H19 H 0.280(3) 0.2944(15) 0.3623(15)
H20 H 0.468(3) 0.2858(17) 0.2260(18)
H21 H 0.654(3) 0.1958(19) 0.1200(19)
H22 H 0.249(3) 0.1339(19) -0.193(2)
H23 H 0.056(3) 0.2175(17) -0.0839(17)
H24 H -0.222(3) 0.2503(18) 0.3383(19)
H25 H -0.359(4) 0.170(2) 0.448(2)
H26 H 0.152(5) 0.143(3) 0.622(3)
H27 H 0.295(4) 0.231(3) 0.513(2)
loop_
_geom_bond_atom_site_label_1
_geom_bond_atom_site_label_2
_geom_bond_site_symmetry_1
_geom_bond_site_symmetry_2
C1 H1 1_555 1_555
H2 C1 1_555 1_555
H3 C1 1_555 1_555
C2 C3 1_555 1_555
C3 C4 1_555 1_555
C4 C5 1_555 1_555
C5 C16 1_555 1_555
C6 C2 1_555 1_555
C7 C6 1_555 1_555
C8 C7 1_555 1_555
C9 C8 1_555 1_555
C10 C9 1_555 1_555
C11 C6 1_555 1_555
C12 C9 1_555 1_555
H4 C12 1_555 1_555
H5 C12 1_555 1_555
H6 C12 1_555 1_555
C13 H7 1_555 1_555
H8 C13 1_555 1_555
H9 C13 1_555 1_555
C14 C15 1_555 1_555
C15 H10 1_555 1_555
H11 C15 1_555 1_555
H12 C15 1_555 1_555
C16 C17 1_555 1_555
C17 C18 1_555 1_555
C18 C19 1_555 1_555
C19 C20 1_555 1_555
C20 C21 1_555 1_555
C21 C16 1_555 1_555
C22 C19 1_555 1_555
H13 C22 1_555 1_555
H14 C22 1_555 1_555
H15 C22 1_555 1_555
N1 C1 1_555 1_555
N2 C3 1_555 1_555
N3 C4 1_555 1_555
O1 C14 1_555 1_555
O2 N3 1_555 1_555
O3 N3 1_555 1_555
H16 C2 1_555 1_555
H17 C3 1_555 1_555
H18 C4 1_555 1_555
H19 C5 1_555 1_555
H20 C7 1_555 1_555
H21 C8 1_555 1_555
H22 C10 1_555 1_555
H23 C11 1_555 1_555
H24 C17 1_555 1_555
H25 C18 1_555 1_555
H26 C20 1_555 1_555
H27 C21 1_555 1_555
C2 N1 1_555 1_555
C5 N1 1_555 1_555
C10 C11 1_555 1_555
C13 N2 1_555 1_555
C14 N2 1_555 1_555

#END
