
#######################################################################
#
#                 Cambridge Crystallographic Data Centre
#                                CCDC 
#
#######################################################################
#
# If this CIF has been generated from an entry in the Cambridge 
# Structural Database, then it will include bibliographic, chemical, 
# crystal, experimental, refinement or atomic coordinate data resulting 
# from the CCDC's data processing and validation procedures.
#
#######################################################################

data_KASVUY
_chemical_formula_moiety         'C14 H14 N2 O3'
_chemical_name_systematic        
'ethyl (E)-3-(3-methoxyquinoxalin-5-yl)acrylate'
_symmetry_cell_setting           monoclinic
_symmetry_space_group_name_H-M   'P 21/c'
_symmetry_Int_Tables_number      14
_space_group_name_Hall           '-P 2ybc'
loop_
_symmetry_equiv_pos_site_id
_symmetry_equiv_pos_as_xyz
1 x,y,z
2 -x,1/2+y,1/2-z
3 -x,-y,-z
4 x,1/2-y,1/2+z
_cell_length_a                   4.5660(3)
_cell_length_b                   26.0435(11)
_cell_length_c                   10.8149(5)
_cell_angle_alpha                90
_cell_angle_beta                 91.036(2)
_cell_angle_gamma                90
_cell_volume                     1285.84
_exptl_crystal_colour            colorless
_exptl_crystal_description       needle
_cell_formula_units_Z            4
_exptl_crystal_recrystallization_method methanol/hexane
loop_
_atom_site_label
_atom_site_type_symbol
_atom_site_fract_x
_atom_site_fract_y
_atom_site_fract_z
O1 O 0.9390(3) 0.60416(5) 0.13712(12)
O2 O -0.2599(3) 0.57980(5) 0.69039(13)
O3 O 0.6637(3) 0.55006(5) 0.24717(14)
N1 N 0.0688(3) 0.62716(6) 0.57762(13)
N2 N -0.0861(4) 0.71170(7) 0.72797(15)
C1 C 0.1152(4) 0.71699(7) 0.63569(17)
C2 C 0.6729(4) 0.63930(7) 0.29673(17)
H1 H 0.7612 0.6710 0.2754
C3 C 1.2273(5) 0.58222(9) -0.03581(19)
H2 H 1.2924 0.5542 -0.0892
H3 H 1.3983 0.5990 0.0025
H4 H 1.1165 0.6073 -0.0854
C4 C -0.1230(4) 0.62405(8) 0.66449(17)
C5 C -0.2026(5) 0.66662(8) 0.73959(18)
H5 H -0.3470 0.6617 0.8007
C6 C 0.5181(4) 0.73022(7) 0.44997(17)
H6 H 0.6549 0.7356 0.3861
C7 C 0.3985(4) 0.68180(7) 0.46445(16)
C8 C 0.2454(4) 0.76503(7) 0.61753(19)
H7 H 0.1953 0.7932 0.6689
C9 C 0.1909(4) 0.67484(7) 0.55993(16)
C10 C 1.0356(5) 0.56102(8) 0.06310(19)
H8 H 0.8649 0.5431 0.0255
H9 H 1.1467 0.5363 0.1153
C11 C 0.7516(4) 0.59295(7) 0.22834(17)
C12 C -0.1833(5) 0.53596(8) 0.6163(2)
H10 H -0.2197 0.5438 0.5287
H11 H -0.3027 0.5064 0.6402
H12 H 0.0244 0.5278 0.6296
C13 C 0.4819(4) 0.63821(7) 0.38748(16)
H13 H 0.3910 0.6062 0.4041
C14 C 0.4440(5) 0.77141(7) 0.52620(19)
H14 H 0.5326 0.8040 0.5143
loop_
_geom_bond_atom_site_label_1
_geom_bond_atom_site_label_2
_geom_bond_site_symmetry_1
_geom_bond_site_symmetry_2
O1 C10 1_555 1_555
O2 C4 1_555 1_555
O3 C11 1_555 1_555
N1 C4 1_555 1_555
N2 C1 1_555 1_555
C1 C8 1_555 1_555
C2 H1 1_555 1_555
C3 H2 1_555 1_555
H3 C3 1_555 1_555
H4 C3 1_555 1_555
C4 C5 1_555 1_555
C5 N2 1_555 1_555
H5 C5 1_555 1_555
C6 H6 1_555 1_555
C7 C6 1_555 1_555
C8 H7 1_555 1_555
C9 N1 1_555 1_555
C10 C3 1_555 1_555
H8 C10 1_555 1_555
H9 C10 1_555 1_555
C11 O1 1_555 1_555
C12 O2 1_555 1_555
H10 C12 1_555 1_555
H11 C12 1_555 1_555
H12 C12 1_555 1_555
C13 C2 1_555 1_555
H13 C13 1_555 1_555
C14 C6 1_555 1_555
H14 C14 1_555 1_555
C1 C9 1_555 1_555
C2 C11 1_555 1_555
C7 C9 1_555 1_555
C7 C13 1_555 1_555
C8 C14 1_555 1_555

#END
