
#######################################################################
#
#                 Cambridge Crystallographic Data Centre
#                                CCDC 
#
#######################################################################
#
# If this CIF has been generated from an entry in the Cambridge 
# Structural Database, then it will include bibliographic, chemical, 
# crystal, experimental, refinement or atomic coordinate data resulting 
# from the CCDC's data processing and validation procedures.
#
#######################################################################

data_KASVOS
_chemical_formula_moiety         'C13 H13 N1 O3'
_chemical_name_systematic        
'ethyl (E)-3-(2-methyl-1,3-benzoxazol-7-yl)acrylate'
_symmetry_cell_setting           monoclinic
_symmetry_space_group_name_H-M   'P 21/n'
_symmetry_Int_Tables_number      14
_space_group_name_Hall           '-P 2yn'
loop_
_symmetry_equiv_pos_site_id
_symmetry_equiv_pos_as_xyz
1 x,y,z
2 1/2-x,1/2+y,1/2-z
3 -x,-y,-z
4 1/2+x,1/2-y,1/2+z
_cell_length_a                   7.3728(16)
_cell_length_b                   21.871(4)
_cell_length_c                   7.9223(17)
_cell_angle_alpha                90
_cell_angle_beta                 116.594(5)
_cell_angle_gamma                90
_cell_volume                     1142.32
_exptl_crystal_colour            colorless
_exptl_crystal_description       needle
_cell_formula_units_Z            4
_exptl_crystal_recrystallization_method tetrahydrofuran/hexane
loop_
_atom_site_label
_atom_site_type_symbol
_atom_site_fract_x
_atom_site_fract_y
_atom_site_fract_z
O1 O 0.2209(2) 0.43212(6) 0.25884(17)
O2 O 0.3070(3) 0.57036(7) 0.8578(2)
O3 O 0.1372(2) 0.61118(6) 0.56853(18)
N1 N 0.2750(3) 0.34366(8) 0.1410(2)
C1 C 0.0635(4) 0.42510(11) -0.0823(3)
H1 H -0.0714 0.4341 -0.0928
H2 H 0.0505 0.3971 -0.1836
H3 H 0.1277 0.4631 -0.0932
C2 C 0.1895(3) 0.39644(10) 0.1025(3)
C3 C 0.3408(3) 0.39607(9) 0.4105(3)
C4 C 0.3761(3) 0.34155(10) 0.3399(3)
C5 C 0.4933(3) 0.29588(10) 0.4615(3)
H4 H 0.5188 0.2584 0.4157
C6 C 0.5714(3) 0.30775(10) 0.6534(3)
H5 H 0.6530 0.2777 0.7410
C7 C 0.5331(3) 0.36276(10) 0.7210(3)
H6 H 0.5897 0.3687 0.8536
C8 C 0.4156(3) 0.40936(9) 0.6023(3)
C9 C 0.3771(3) 0.46558(10) 0.6805(3)
H7 H 0.4397 0.4687 0.8142
C10 C 0.2646(3) 0.51284(9) 0.5857(3)
H8 H 0.1988 0.5121 0.4516
C11 C 0.2412(3) 0.56637(10) 0.6873(3)
C12 C 0.1220(3) 0.66857(9) 0.6537(3)
H9 H 0.2587 0.6853 0.7338
H10 H 0.0513 0.6623 0.7332
C13 C 0.0035(3) 0.71179(10) 0.4943(3)
H11 H 0.0690 0.7149 0.4108
H12 H -0.0005 0.7523 0.5455
H13 H -0.1351 0.6964 0.4226
loop_
_geom_bond_atom_site_label_1
_geom_bond_atom_site_label_2
_geom_bond_site_symmetry_1
_geom_bond_site_symmetry_2
O1 C2 1_555 1_555
O2 C11 1_555 1_555
O3 C11 1_555 1_555
N1 C2 1_555 1_555
C1 H1 1_555 1_555
H2 C1 1_555 1_555
H3 C1 1_555 1_555
C2 C1 1_555 1_555
C3 O1 1_555 1_555
C4 N1 1_555 1_555
C5 C4 1_555 1_555
H4 C5 1_555 1_555
C6 C5 1_555 1_555
H5 C6 1_555 1_555
C7 C6 1_555 1_555
H6 C7 1_555 1_555
C8 C3 1_555 1_555
C9 C8 1_555 1_555
H7 C9 1_555 1_555
C10 C9 1_555 1_555
H8 C10 1_555 1_555
C11 C10 1_555 1_555
C12 O3 1_555 1_555
H9 C12 1_555 1_555
H10 C12 1_555 1_555
C13 C12 1_555 1_555
H11 C13 1_555 1_555
H12 C13 1_555 1_555
H13 C13 1_555 1_555
C3 C4 1_555 1_555
C7 C8 1_555 1_555

#END
