
#######################################################################
#
#                 Cambridge Crystallographic Data Centre
#                                CCDC 
#
#######################################################################
#
# If this CIF has been generated from an entry in the Cambridge 
# Structural Database, then it will include bibliographic, chemical, 
# crystal, experimental, refinement or atomic coordinate data resulting 
# from the CCDC's data processing and validation procedures.
#
#######################################################################

data_KASVAB
_chemical_name_common            
(4R-(4alpha,5beta))-5-((1S*,2R*,3R*)-2-Hydroxy-1,3-dimethyl-4-pentenyl)-2,2,4-trimethyl-4-((2R*)-2-methyl-3-oxopentyl)-1,3-dioxolane
_chemical_formula_moiety         'C19 H34 O4'
_chemical_name_systematic        
1-(5-(2-Hydroxy-1,3-dimethyl-4-pentenyl)-2,2,4-trimethyl-1,3-dioxolan-4-yl)-2-methyl-3-pentanone
_symmetry_cell_setting           monoclinic
_symmetry_space_group_name_H-M   'P 21'
_symmetry_Int_Tables_number      4
_space_group_name_Hall           'P 2yb'
loop_
_symmetry_equiv_pos_site_id
_symmetry_equiv_pos_as_xyz
1 x,y,z
2 -x,1/2+y,-z
_cell_length_a                   11.409(3)
_cell_length_b                   7.889(2)
_cell_length_c                   11.690(3)
_cell_angle_alpha                90
_cell_angle_beta                 109.24(2)
_cell_angle_gamma                90
_cell_volume                     993.398
_exptl_crystal_colour            colorless
_cell_formula_units_Z            2
loop_
_atom_site_label
_atom_site_type_symbol
_atom_site_fract_x
_atom_site_fract_y
_atom_site_fract_z
C1 C 0.0515(6) -0.3786(3) 0.4754(6)
C2 C 0.1343(5) -0.3463(14) 0.4214(5)
C3 C 0.2266(5) -0.2054(13) 0.4527(5)
C4 C 0.2051(5) -0.0901(13) 0.3436(5)
C5 C 0.2952(5) 0.0616(13) 0.3638(5)
C6 C 0.2723(4) 0.1637(13) 0.2463(4)
C7 C 0.2968(5) 0.0748(13) 0.1369(5)
C8 C 0.1808(5) -0.0073(14) 0.0484(5)
C9 C 0.1844(5) -0.0165(13) -0.0822(4)
C10 C 0.1604(5) 0.1521(13) -0.1435(4)
C11 C 0.2477(6) 0.2096(15) -0.2082(6)
C12 C 0.2257(7) 0.382(2) -0.2633(8)
O1 O 0.0706(3) 0.2371(12) -0.1445(3)
C13 C 0.0859(8) -0.144(2) -0.1579(6)
O2 O 0.3285(3) 0.2202(12) 0.0769(3)
C14 C 0.4081(5) -0.0435(13) 0.1743(5)
O3 O 0.3564(3) 0.3017(12) 0.2692(3)
C15 C 0.2855(6) 0.1801(14) 0.4638(6)
O4 O 0.0841(3) -0.0181(12) 0.3048(3)
C16 C 0.3580(6) -0.280(2) 0.4963(7)
C17 C 0.2523(8) 0.4926(15) 0.1061(7)
C18 C 0.3542(5) 0.3616(13) 0.1546(5)
C19 C 0.4812(8) 0.434(2) 0.1689(8)
H1 H 0.049(5) -0.290(9) 0.540(5)
H2 H -0.002(6) -0.497(10) 0.440(5)
H3 H 0.139(8) -0.430(14) 0.358(8)
H4 H 0.216(4) -0.129(8) 0.518(5)
H5 H 0.217(4) -0.147(7) 0.283(4)
H6 H 0.369(4) 0.020(6) 0.385(4)
H7 H 0.191 0.210 0.217
H8 H 0.109(4) 0.073(7) 0.044(4)
H9 H 0.168(5) -0.120(9) 0.070(5)
H10 H 0.269(5) -0.028(8) -0.079(5)
H11 H 0.231(7) 0.157(11) -0.270(7)
H12 H 0.332(7) 0.220(10) -0.159(6)
H13 H 0.283(7) 0.414(12) -0.306(6)
H14 H 0.240(5) 0.457(9) -0.203(5)
H15 H 0.136(9) 0.36(2) -0.330(8)
H16 H 0.097(6) -0.257(10) -0.118(6)
H17 H 0.090(6) -0.120(11) -0.246(7)
H18 H 0.012(6) -0.112(10) -0.154(6)
H19 H 0.392(4) -0.158(8) 0.212(5)
H20 H 0.476(5) 0.034(8) 0.226(5)
H21 H 0.425(4) -0.097(7) 0.095(5)
H22 H 0.194(6) 0.246(10) 0.447(6)
H23 H 0.343(4) 0.287(7) 0.475(4)
H24 H 0.323(8) 0.117(13) 0.538(9)
H25 H 0.034(5) -0.100(9) 0.269(5)
H26 H 0.391(6) -0.308(10) 0.425(6)
H27 H 0.367(5) -0.349(9) 0.560(5)
H28 H 0.425(6) -0.153(11) 0.516(6)
H29 H 0.270(7) 0.603(12) 0.160(7)
H30 H 0.171(7) 0.440(11) 0.092(6)
H31 H 0.257(6) 0.545(10) 0.026(6)
H32 H 0.485(6) 0.465(10) 0.097(6)
H33 H 0.535(5) 0.350(8) 0.192(5)
H34 H 0.513(10) 0.54(2) 0.236(9)
loop_
_geom_bond_atom_site_label_1
_geom_bond_atom_site_label_2
_geom_bond_site_symmetry_1
_geom_bond_site_symmetry_2
C1 C2 1_555 1_555
C2 C3 1_555 1_555
C3 C4 1_555 1_555
C4 C5 1_555 1_555
C5 C6 1_555 1_555
C6 C7 1_555 1_555
C7 C8 1_555 1_555
C8 C9 1_555 1_555
C9 C10 1_555 1_555
C10 C11 1_555 1_555
C11 C12 1_555 1_555
C12 H13 1_555 1_555
O1 C10 1_555 1_555
C13 C9 1_555 1_555
O2 C7 1_555 1_555
C14 C7 1_555 1_555
O3 C6 1_555 1_555
C15 C5 1_555 1_555
O4 C4 1_555 1_555
C16 C3 1_555 1_555
C17 C18 1_555 1_555
C18 O2 1_555 1_555
C19 C18 1_555 1_555
H1 C1 1_555 1_555
H2 C1 1_555 1_555
H3 C2 1_555 1_555
H4 C3 1_555 1_555
H5 C4 1_555 1_555
H6 C5 1_555 1_555
H7 C6 1_555 1_555
H8 C8 1_555 1_555
H9 C8 1_555 1_555
H10 C9 1_555 1_555
H11 C11 1_555 1_555
H12 C11 1_555 1_555
H14 C12 1_555 1_555
H15 C12 1_555 1_555
H16 C13 1_555 1_555
H17 C13 1_555 1_555
H18 C13 1_555 1_555
H19 C14 1_555 1_555
H20 C14 1_555 1_555
H21 C14 1_555 1_555
H22 C15 1_555 1_555
H23 C15 1_555 1_555
H24 C15 1_555 1_555
H25 O4 1_555 1_555
H26 C16 1_555 1_555
H27 C16 1_555 1_555
H28 C16 1_555 1_555
H29 C17 1_555 1_555
H30 C17 1_555 1_555
H31 C17 1_555 1_555
H32 C19 1_555 1_555
H33 C19 1_555 1_555
H34 C19 1_555 1_555
O3 C18 1_555 1_555

#END
