
#######################################################################
#
#                 Cambridge Crystallographic Data Centre
#                                CCDC 
#
#######################################################################
#
# If this CIF has been generated from an entry in the Cambridge 
# Structural Database, then it will include bibliographic, chemical, 
# crystal, experimental, refinement or atomic coordinate data resulting 
# from the CCDC's data processing and validation procedures.
#
#######################################################################

data_KASYOT
_chemical_formula_moiety         
'C12 H9 N2 1+,C7 H4 N1 O4 1-,C7 H5 N1 O4,C12 H8 N2,C2 H6 O1,H2 O1'
_chemical_name_systematic        
'1,10-Phenanthrolinium 6-carboxypyridine-2-carboxylate 1,10-phenanthroline pyridine-2,6-dicarboxylic acid ethanol solvate monohydrate'
_symmetry_cell_setting           monoclinic
_symmetry_space_group_name_H-M   'P 21/c'
_symmetry_Int_Tables_number      14
_space_group_name_Hall           '-P 2ybc'
loop_
_symmetry_equiv_pos_site_id
_symmetry_equiv_pos_as_xyz
1 x,y,z
2 -x,1/2+y,1/2-z
3 -x,-y,-z
4 x,1/2-y,1/2+z
_cell_length_a                   20.802(7)
_cell_length_b                   7.861(3)
_cell_length_c                   24.488(6)
_cell_angle_alpha                90
_cell_angle_beta                 116.72(2)
_cell_angle_gamma                90
_cell_volume                     3576.78
_exptl_crystal_colour            colorless
_exptl_crystal_description       prism
_cell_formula_units_Z            4
loop_
_atom_site_label
_atom_site_type_symbol
_atom_site_fract_x
_atom_site_fract_y
_atom_site_fract_z
N1 N 0.31411(17) 0.9708(5) 0.43521(14)
O1 O 0.42160(16) 0.6114(4) 0.50427(14)
O2 O 0.44797(15) 0.8612(4) 0.47770(16)
H2 H 0.4878 0.8180 0.4889
O3 O 0.28155(16) 1.3022(4) 0.40165(14)
O4 O 0.16697(15) 1.2283(4) 0.34571(13)
H3 H 0.1626 1.3273 0.3341
C1 C 0.4037(2) 0.7489(6) 0.4815(2)
C2 C 0.3273(2) 0.8090(6) 0.45379(17)
C3 C 0.2740(2) 0.6941(6) 0.44728(18)
H6 H 0.2854 0.5820 0.4600
C4 C 0.2037(2) 0.7489(6) 0.42162(19)
H7 H 0.1671 0.6755 0.4184
C5 C 0.1885(2) 0.9122(6) 0.40099(17)
H8 H 0.1411 0.9506 0.3825
C6 C 0.2446(2) 1.0211(6) 0.40797(17)
C7 C 0.2322(2) 1.2013(6) 0.38507(19)
N2 N 0.00145(17) 0.6586(4) 0.15388(15)
O5 O 0.13427(14) 0.5049(4) 0.29544(12)
O6 O 0.07446(16) 0.3699(4) 0.20677(14)
O7 O -0.10034(15) 0.6392(5) 0.03873(13)
H4 H -0.0709 0.5718 0.0624
O8 O -0.12805(18) 0.9093(5) 0.03834(15)
C8 C -0.0903(3) 0.7904(7) 0.0649(2)
C9 C -0.0306(2) 0.8025(6) 0.12859(19)
C10 C -0.0115(2) 0.9592(6) 0.1570(2)
H9 H -0.0354 1.0575 0.1371
C11 C 0.0437(2) 0.9662(6) 0.2154(2)
H10 H 0.0587 1.0696 0.2357
C12 C 0.0761(2) 0.8168(6) 0.24278(19)
H11 H 0.1128 0.8176 0.2826
C13 C 0.0544(2) 0.6653(6) 0.21143(19)
C14 C 0.0893(2) 0.4982(6) 0.2383(2)
N3 N 0.44876(18) 0.1812(5) 0.26605(15)
H1 H 0.4715 0.2073 0.2453
N4 N 0.37995(19) 0.3238(5) 0.15210(17)
C15 C 0.4845(2) 0.1059(6) 0.3195(2)
H12 H 0.5332 0.0821 0.3340
C16 C 0.4493(3) 0.0625(6) 0.3539(2)
H13 H 0.4740 0.0077 0.3913
C17 C 0.3789(3) 0.1005(6) 0.3327(2)
H14 H 0.3554 0.0738 0.3561
C18 C 0.3407(2) 0.1797(6) 0.2759(2)
C19 C 0.3777(2) 0.2191(6) 0.2423(2)
C20 C 0.3419(2) 0.2974(6) 0.1833(2)
C21 C 0.2682(3) 0.3347(6) 0.1606(2)
C22 C 0.2347(3) 0.4080(7) 0.1022(2)
H15 H 0.1864 0.4387 0.0856
C23 C 0.2719(3) 0.4343(7) 0.0699(2)
H16 H 0.2497 0.4806 0.0308
C24 C 0.3439(3) 0.3904(7) 0.0965(2)
H17 H 0.3691 0.4089 0.0738
C25 C 0.2663(3) 0.2229(7) 0.2514(2)
H18 H 0.2412 0.2000 0.2739
C26 C 0.2325(3) 0.2962(7) 0.1964(2)
H19 H 0.1839 0.3227 0.1812
N5 N 0.44540(19) 0.6706(5) 0.27840(16)
N6 N 0.37732(18) 0.8185(5) 0.16442(16)
C27 C 0.4753(3) 0.5940(7) 0.3322(2)
H20 H 0.5244 0.5714 0.3493
C28 C 0.4385(3) 0.5452(6) 0.3648(2)
H21 H 0.4623 0.4899 0.4022
C29 C 0.3671(3) 0.5795(6) 0.3412(2)
H22 H 0.3412 0.5466 0.3620
C30 C 0.3329(2) 0.6643(6) 0.2854(2)
C31 C 0.3743(2) 0.7054(6) 0.25485(19)
C32 C 0.3391(2) 0.7870(6) 0.1956(2)
C33 C 0.2661(2) 0.8329(6) 0.1721(2)
C34 C 0.2338(3) 0.9150(6) 0.1161(2)
H23 H 0.1861 0.9498 0.1003
C35 C 0.2717(3) 0.9448(6) 0.0841(2)
H24 H 0.2506 0.9979 0.0461
C36 C 0.3428(3) 0.8934(6) 0.1100(2)
H25 H 0.3685 0.9124 0.0878
C37 C 0.2586(2) 0.7109(7) 0.2593(2)
H26 H 0.2318 0.6842 0.2800
C38 C 0.2272(3) 0.7921(7) 0.2058(2)
H27 H 0.1790 0.8227 0.1901
O9 O 0.02655(19) 0.8510(4) 0.41466(15)
H5 H -0.0035 0.8705 0.3795
C39 C -0.0069(3) 0.7685(8) 0.4466(2)
H28 H -0.0286 0.6625 0.4264
H29 H -0.0442 0.8403 0.4476
C40 C 0.0496(3) 0.7347(7) 0.5097(3)
H30 H 0.0284 0.6792 0.5326
H31 H 0.0708 0.8403 0.5291
H32 H 0.0860 0.6627 0.5081
O10 O 0.42593(17) 0.2480(4) 0.49538(17)
H33 H 0.419(2) 0.357(2) 0.492(2)
H34 H 0.3912(18) 0.208(5) 0.4647(15)
loop_
_geom_bond_atom_site_label_1
_geom_bond_atom_site_label_2
_geom_bond_site_symmetry_1
_geom_bond_site_symmetry_2
N1 C2 1_555 1_555
N2 C9 1_555 1_555
N3 H1 1_555 1_555
N4 C20 1_555 1_555
N5 C27 1_555 1_555
N6 C32 1_555 1_555
O1 C1 1_555 1_555
O2 H2 1_555 1_555
O3 C7 1_555 1_555
O4 H3 1_555 1_555
O5 C14 1_555 1_555
O6 C14 1_555 1_555
O7 H4 1_555 1_555
O8 C8 1_555 1_555
O9 H5 1_555 1_555
O10 H33 1_555 1_555
C1 O2 1_555 1_555
C2 C1 1_555 1_555
C3 C2 1_555 1_555
H6 C3 1_555 1_555
C4 C3 1_555 1_555
H7 C4 1_555 1_555
C5 C4 1_555 1_555
H8 C5 1_555 1_555
C6 N1 1_555 1_555
C7 O4 1_555 1_555
C8 O7 1_555 1_555
C9 C8 1_555 1_555
C10 C9 1_555 1_555
H9 C10 1_555 1_555
C11 C10 1_555 1_555
H10 C11 1_555 1_555
C12 C11 1_555 1_555
H11 C12 1_555 1_555
C13 N2 1_555 1_555
C14 C13 1_555 1_555
C15 N3 1_555 1_555
H12 C15 1_555 1_555
C16 C15 1_555 1_555
H13 C16 1_555 1_555
C17 C16 1_555 1_555
H14 C17 1_555 1_555
C18 C17 1_555 1_555
C19 N3 1_555 1_555
C20 C19 1_555 1_555
C21 C20 1_555 1_555
C22 C21 1_555 1_555
H15 C22 1_555 1_555
C23 C22 1_555 1_555
H16 C23 1_555 1_555
C24 N4 1_555 1_555
H17 C24 1_555 1_555
C25 C18 1_555 1_555
H18 C25 1_555 1_555
C26 C21 1_555 1_555
H19 C26 1_555 1_555
C27 H20 1_555 1_555
C28 C27 1_555 1_555
H21 C28 1_555 1_555
C29 C28 1_555 1_555
H22 C29 1_555 1_555
C30 C29 1_555 1_555
C31 N5 1_555 1_555
C32 C31 1_555 1_555
C33 C32 1_555 1_555
C34 C33 1_555 1_555
H23 C34 1_555 1_555
C35 C34 1_555 1_555
H24 C35 1_555 1_555
C36 N6 1_555 1_555
H25 C36 1_555 1_555
C37 C30 1_555 1_555
H26 C37 1_555 1_555
C38 C33 1_555 1_555
H27 C38 1_555 1_555
C39 O9 1_555 1_555
H28 C39 1_555 1_555
H29 C39 1_555 1_555
C40 C39 1_555 1_555
H30 C40 1_555 1_555
H31 C40 1_555 1_555
H32 C40 1_555 1_555
H34 O10 1_555 1_555
C5 C6 1_555 1_555
C6 C7 1_555 1_555
C12 C13 1_555 1_555
C18 C19 1_555 1_555
C23 C24 1_555 1_555
C25 C26 1_555 1_555
C30 C31 1_555 1_555
C35 C36 1_555 1_555
C37 C38 1_555 1_555

#END
