
#######################################################################
#
#                 Cambridge Crystallographic Data Centre
#                                CCDC 
#
#######################################################################
#
# If this CIF has been generated from an entry in the Cambridge 
# Structural Database, then it will include bibliographic, chemical, 
# crystal, experimental, refinement or atomic coordinate data resulting 
# from the CCDC's data processing and validation procedures.
#
#######################################################################

data_KATBOY
_chemical_formula_moiety         'C27 H31 F3 N4 O1,C3 H8 O1'
_chemical_name_systematic        
'(5S)-N-(1-Ethyl-1-(4-(trifluoromethyl)phenyl)propyl)-7,7-dimethyl-5-phenyl-4,5,6,7-tetrahydropyrazolo[1,5-a]pyrimidine-3-carboxamide isopropanol solvate'
_symmetry_cell_setting           orthorhombic
_symmetry_space_group_name_H-M   'P 21 21 21'
_symmetry_Int_Tables_number      19
_space_group_name_Hall           'P 2ac 2ab'
loop_
_symmetry_equiv_pos_site_id
_symmetry_equiv_pos_as_xyz
1 x,y,z
2 1/2-x,-y,1/2+z
3 1/2+x,1/2-y,-z
4 -x,1/2+y,1/2-z
_cell_length_a                   11.608(2)
_cell_length_b                   24.423(2)
_cell_length_c                   10.541(2)
_cell_angle_alpha                90
_cell_angle_beta                 90
_cell_angle_gamma                90
_cell_volume                     2988.4
_exptl_crystal_colour            colorless
_exptl_crystal_description       needle
_chemical_melting_point          '163-164 deg.C'
_cell_formula_units_Z            4
_exptl_crystal_recrystallization_method isopropanol
loop_
_atom_site_label
_atom_site_type_symbol
_atom_site_fract_x
_atom_site_fract_y
_atom_site_fract_z
N1 N 0.5651(3) 0.6135(1) 0.6308(4)
C1 C 0.6709(4) 0.6235(2) 0.5812(4)
C2 C 0.7679(3) 0.5901(2) 0.5694(4)
C3 C 0.8486(4) 0.6245(2) 0.5092(4)
N2 N 0.8089(3) 0.6742(1) 0.4847(4)
N3 N 0.6967(3) 0.6726(1) 0.5299(3)
C4 C 0.6217(4) 0.7214(2) 0.5277(5)
C5 C 0.5005(4) 0.7011(2) 0.5605(5)
C6 C 0.4946(4) 0.6602(2) 0.6694(5)
C7 C 0.3739(4) 0.6426(2) 0.7000(6)
C8 C 0.3091(5) 0.6134(2) 0.6158(6)
C9 C 0.1944(6) 0.6003(3) 0.6448(9)
C10 C 0.1486(7) 0.6163(3) 0.757(1)
C11 C 0.2121(7) 0.6455(3) 0.8418(8)
C12 C 0.3255(5) 0.6581(2) 0.8131(6)
C13 C 0.6651(5) 0.7623(2) 0.6249(5)
C14 C 0.6234(5) 0.7463(2) 0.3950(6)
C15 C 0.7740(4) 0.5352(2) 0.6205(4)
O1 O 0.6937(2) 0.5160(1) 0.6837(3)
N4 N 0.8714(3) 0.5067(1) 0.5987(3)
C16 C 0.8977(3) 0.4522(2) 0.6533(4)
C17 C 0.8914(4) 0.4537(2) 0.7979(4)
C18 C 0.9630(5) 0.4977(2) 0.8610(5)
C19 C 1.0211(4) 0.4392(2) 0.6068(5)
C20 C 1.0690(4) 0.3843(2) 0.6528(6)
C21 C 0.8151(4) 0.4094(2) 0.5965(5)
C22 C 0.7921(4) 0.4095(2) 0.4688(5)
C23 C 0.7262(4) 0.3695(2) 0.4132(5)
C24 C 0.6795(4) 0.3278(2) 0.4859(5)
C25 C 0.7004(5) 0.3275(2) 0.6123(5)
C26 C 0.7677(4) 0.3677(2) 0.6688(5)
C27 C 0.6103(7) 0.2837(2) 0.4269(7)
F1 F 0.5762(4) 0.2948(2) 0.3108(4)
F2 F 0.6720(3) 0.2379(1) 0.4137(4)
F3 F 0.5213(4) 0.2690(2) 0.4944(5)
H1 H 0.5723(5) 0.586(2) 0.674(2)
H2 H 0.9229 0.6134 0.4886
H3 H 0.4530 0.7324 0.5817
H4 H 0.4676 0.6841 0.4855
H5 H 0.5289 0.6769 0.7451
H6 H 0.3410 0.6021 0.5391
H7 H 0.1500 0.5806 0.5872
H8 H 0.0728 0.6072 0.7757
H9 H 0.1797 0.6568 0.9181
H10 H 0.3695 0.6775 0.8716
H11 H 0.7451 0.7697 0.6097
H12 H 0.6559 0.7473 0.7085
H13 H 0.6217 0.7956 0.6182
H14 H 0.5978 0.7195 0.3347
H15 H 0.7004 0.7575 0.3745
H16 H 0.5730 0.7774 0.3925
H17 H 0.9221 0.5212 0.5495
H18 H 0.8116 0.4588 0.8226
H19 H 0.9160 0.4184 0.8302
H20 H 0.9540 0.4953 0.9514
H21 H 0.9377 0.5331 0.8324
H22 H 1.0426 0.4927 0.8393
H23 H 1.0214 0.4394 0.5148
H24 H 1.0722 0.4682 0.6350
H25 H 1.1437 0.3784 0.6162
H26 H 1.0180 0.3554 0.6276
H27 H 1.0754 0.3848 0.7436
H28 H 0.8220 0.4374 0.4185
H29 H 0.7129 0.3704 0.3262
H30 H 0.6692 0.2998 0.6622
H31 H 0.7810 0.3667 0.7557
O2 O 0.5185(3) 0.4714(2) 0.8363(3)
C28 C 0.4260(5) 0.4660(3) 0.7476(7)
C29 C 0.4397(7) 0.4186(3) 0.6679(8)
C30 C 0.3187(6) 0.4724(4) 0.8168(9)
H32 H 0.5782 0.4785 0.7982
H33 H 0.4315 0.4978 0.6912
H34 H 0.5128 0.4204 0.6254
H35 H 0.3790 0.4177 0.6061
H36 H 0.4365 0.3861 0.7190
H37 H 0.3245 0.5033 0.8729
H38 H 0.3038 0.4399 0.8653
H39 H 0.2568 0.4784 0.7579
loop_
_geom_bond_atom_site_label_1
_geom_bond_atom_site_label_2
_geom_bond_site_symmetry_1
_geom_bond_site_symmetry_2
N1 C1 1_555 1_555
C1 C2 1_555 1_555
C2 C3 1_555 1_555
C3 N2 1_555 1_555
N2 N3 1_555 1_555
N3 C1 1_555 1_555
C4 N3 1_555 1_555
C5 C4 1_555 1_555
C6 N1 1_555 1_555
C7 C6 1_555 1_555
C8 C7 1_555 1_555
C9 C8 1_555 1_555
C10 C9 1_555 1_555
C11 C10 1_555 1_555
C12 C7 1_555 1_555
C13 C4 1_555 1_555
C14 C4 1_555 1_555
C15 C2 1_555 1_555
O1 C15 1_555 1_555
N4 C15 1_555 1_555
C16 N4 1_555 1_555
C17 C16 1_555 1_555
C18 C17 1_555 1_555
C19 C16 1_555 1_555
C20 C19 1_555 1_555
C21 C16 1_555 1_555
C22 C21 1_555 1_555
C23 C22 1_555 1_555
C24 C23 1_555 1_555
C25 C24 1_555 1_555
C26 C21 1_555 1_555
C27 C24 1_555 1_555
F1 C27 1_555 1_555
F2 C27 1_555 1_555
F3 C27 1_555 1_555
H1 N1 1_555 1_555
H2 C3 1_555 1_555
H3 C5 1_555 1_555
H4 C5 1_555 1_555
H5 C6 1_555 1_555
H6 C8 1_555 1_555
H7 C9 1_555 1_555
H8 C10 1_555 1_555
H9 C11 1_555 1_555
H10 C12 1_555 1_555
H11 C13 1_555 1_555
H12 C13 1_555 1_555
H13 C13 1_555 1_555
H14 C14 1_555 1_555
H15 C14 1_555 1_555
H16 C14 1_555 1_555
H17 N4 1_555 1_555
H18 C17 1_555 1_555
H19 C17 1_555 1_555
H20 C18 1_555 1_555
H21 C18 1_555 1_555
H22 C18 1_555 1_555
H23 C19 1_555 1_555
H24 C19 1_555 1_555
H25 C20 1_555 1_555
H26 C20 1_555 1_555
H27 C20 1_555 1_555
H28 C22 1_555 1_555
H29 C23 1_555 1_555
H30 C25 1_555 1_555
H31 C26 1_555 1_555
O2 C28 1_555 1_555
C28 C29 1_555 1_555
C29 H34 1_555 1_555
C30 C28 1_555 1_555
H32 O2 1_555 1_555
H33 C28 1_555 1_555
H35 C29 1_555 1_555
H36 C29 1_555 1_555
H37 C30 1_555 1_555
H38 C30 1_555 1_555
H39 C30 1_555 1_555
C5 C6 1_555 1_555
C11 C12 1_555 1_555
C25 C26 1_555 1_555

#END
