
#######################################################################
#
#                 Cambridge Crystallographic Data Centre
#                                CCDC 
#
#######################################################################
#
# If this CIF has been generated from an entry in the Cambridge 
# Structural Database, then it will include bibliographic, chemical, 
# crystal, experimental, refinement or atomic coordinate data resulting 
# from the CCDC's data processing and validation procedures.
#
#######################################################################

data_KATCIS
_chemical_formula_moiety         'C11 H10 N4 O3'
_chemical_name_systematic        
1-(4-Nitrophenyl)-3-(1H-1,2,4-triazol-1-yl)propan-1-one
_symmetry_cell_setting           monoclinic
_symmetry_space_group_name_H-M   'P 21/c'
_symmetry_Int_Tables_number      14
_space_group_name_Hall           '-P 2ybc'
loop_
_symmetry_equiv_pos_site_id
_symmetry_equiv_pos_as_xyz
1 x,y,z
2 -x,1/2+y,1/2-z
3 -x,-y,-z
4 x,1/2-y,1/2+z
_cell_length_a                   9.8529(7)
_cell_length_b                   5.4011(4)
_cell_length_c                   21.9132(14)
_cell_angle_alpha                90
_cell_angle_beta                 103.233(3)
_cell_angle_gamma                90
_cell_volume                     1135.18
_exptl_crystal_colour            colorless
_exptl_crystal_description       plate
_cell_formula_units_Z            4
_exptl_crystal_recrystallization_method 'ethyl acetate/petroleum ether'
loop_
_atom_site_label
_atom_site_type_symbol
_atom_site_fract_x
_atom_site_fract_y
_atom_site_fract_z
O1 O 0.89452(12) -0.2351(3) 0.02312(7)
O2 O 0.70365(13) -0.0889(3) 0.03977(6)
O3 O 0.52640(11) -1.0409(2) -0.19541(6)
N1 N 0.76753(13) -0.2293(3) 0.01285(6)
N2 N 0.12801(11) -0.9109(2) -0.30104(5)
N3 N 0.09999(13) -0.6937(3) -0.33185(7)
N4 N -0.09294(14) -0.9264(3) -0.34626(8)
C1 C 0.68188(14) -0.7488(3) -0.10050(7)
H1 H 0.7258 -0.8828 -0.1144
C2 C 0.75692(14) -0.5941(3) -0.05504(7)
H2 H 0.8514 -0.6207 -0.0385
C3 C 0.68863(14) -0.3993(3) -0.03473(6)
C4 C 0.54824(14) -0.3547(3) -0.05758(7)
H3 H 0.5043 -0.2239 -0.0423
C5 C 0.47466(13) -0.5088(3) -0.10371(6)
H4 H 0.3803 -0.4804 -0.1202
C6 C 0.54032(13) -0.7058(3) -0.12578(6)
C7 C 0.46646(13) -0.8693(3) -0.17789(6)
C8 C 0.31662(13) -0.8150(3) -0.20892(6)
H5 H 0.2584 -0.8475 -0.1796
H6 H 0.3070 -0.6414 -0.2205
C9 C 0.26867(14) -0.9722(3) -0.26654(7)
H7 H 0.3325 -0.9505 -0.2939
H8 H 0.2715 -1.1450 -0.2543
C10 C 0.01315(16) -1.0436(3) -0.31051(8)
H9 H 0.0076 -1.2009 -0.2940
C11 C -0.03301(16) -0.7159(3) -0.35809(8)
H10 H -0.0825 -0.5926 -0.3834
loop_
_geom_bond_atom_site_label_1
_geom_bond_atom_site_label_2
_geom_bond_site_symmetry_1
_geom_bond_site_symmetry_2
O1 N1 1_555 1_555
O2 N1 1_555 1_555
O3 C7 1_555 1_555
N1 C3 1_555 1_555
N2 N3 1_555 1_555
N3 C11 1_555 1_555
N4 C10 1_555 1_555
C1 H1 1_555 1_555
C2 C1 1_555 1_555
H2 C2 1_555 1_555
C3 C2 1_555 1_555
C4 C3 1_555 1_555
H3 C4 1_555 1_555
C5 C4 1_555 1_555
H4 C5 1_555 1_555
C6 C1 1_555 1_555
C7 C6 1_555 1_555
C8 C7 1_555 1_555
H5 C8 1_555 1_555
H6 C8 1_555 1_555
C9 N2 1_555 1_555
H7 C9 1_555 1_555
H8 C9 1_555 1_555
C10 N2 1_555 1_555
H9 C10 1_555 1_555
C11 N4 1_555 1_555
H10 C11 1_555 1_555
C5 C6 1_555 1_555
C8 C9 1_555 1_555

#END
