
#######################################################################
#
#                 Cambridge Crystallographic Data Centre
#                                CCDC 
#
#######################################################################
#
# If this CIF has been generated from an entry in the Cambridge 
# Structural Database, then it will include bibliographic, chemical, 
# crystal, experimental, refinement or atomic coordinate data resulting 
# from the CCDC's data processing and validation procedures.
#
#######################################################################

data_KATFOB
_chemical_formula_moiety         'C13 H8 I1 N1 O4'
_chemical_name_systematic        '4-Nitrophenyl 2-iodobenzoate'
_symmetry_cell_setting           monoclinic
_symmetry_space_group_name_H-M   'P 21/n'
_symmetry_Int_Tables_number      14
_space_group_name_Hall           '-P 2yn'
loop_
_symmetry_equiv_pos_site_id
_symmetry_equiv_pos_as_xyz
1 x,y,z
2 1/2-x,1/2+y,1/2-z
3 -x,-y,-z
4 1/2+x,1/2-y,1/2+z
_cell_length_a                   9.7231(4)
_cell_length_b                   11.7890(3)
_cell_length_c                   11.1187(4)
_cell_angle_alpha                90
_cell_angle_beta                 97.363(2)
_cell_angle_gamma                90
_cell_volume                     1263.98
_exptl_crystal_colour            colorless
_exptl_crystal_description       plate
_cell_formula_units_Z            4
_exptl_crystal_recrystallization_method ethanol
loop_
_atom_site_label
_atom_site_type_symbol
_atom_site_fract_x
_atom_site_fract_y
_atom_site_fract_z
I1 I 0.580705(19) 0.888948(14) 0.650830(16)
O1 O 0.62987(19) 0.51101(15) 0.59123(16)
O2 O 0.6392(2) 0.63226(16) 0.75041(17)
O3 O 0.3784(2) 0.06357(16) 0.7691(2)
O4 O 0.2579(2) 0.18618(17) 0.8565(2)
N1 N 0.3467(2) 0.1619(2) 0.7914(2)
C1 C 0.7462(3) 0.6829(2) 0.5758(2)
C2 C 0.7347(3) 0.8009(2) 0.5729(2)
C3 C 0.8224(3) 0.8659(2) 0.5107(3)
C4 C 0.9227(3) 0.8134(3) 0.4527(3)
C5 C 0.9341(3) 0.6962(3) 0.4530(3)
C6 C 0.8463(3) 0.6312(2) 0.5131(2)
C7 C 0.6661(3) 0.6105(2) 0.6508(2)
C8 C 0.5571(3) 0.4276(2) 0.6460(2)
C9 C 0.5994(3) 0.3177(2) 0.6297(2)
C10 C 0.5297(3) 0.2288(2) 0.6755(2)
C11 C 0.4191(3) 0.2544(2) 0.7381(2)
C12 C 0.3732(3) 0.3646(2) 0.7521(2)
C13 C 0.4434(3) 0.4527(2) 0.7041(2)
H1 H 0.8132 0.9461 0.5082
H2 H 0.9842 0.8579 0.4124
H3 H 1.0022 0.6605 0.4118
H4 H 0.8536 0.5509 0.5121
H5 H 0.6762 0.3032 0.5871
H6 H 0.5567 0.1524 0.6645
H7 H 0.2955 0.3793 0.7936
H8 H 0.4139 0.5290 0.7110
loop_
_geom_bond_atom_site_label_1
_geom_bond_atom_site_label_2
_geom_bond_site_symmetry_1
_geom_bond_site_symmetry_2
I1 C2 1_555 1_555
O1 C7 1_555 1_555
O2 C7 1_555 1_555
O3 N1 1_555 1_555
O4 N1 1_555 1_555
N1 C11 1_555 1_555
C1 C2 1_555 1_555
C2 C3 1_555 1_555
C3 C4 1_555 1_555
C4 C5 1_555 1_555
C5 C6 1_555 1_555
C6 C1 1_555 1_555
C7 C1 1_555 1_555
C8 O1 1_555 1_555
C9 C8 1_555 1_555
C10 C9 1_555 1_555
C11 C10 1_555 1_555
C12 C11 1_555 1_555
C13 C8 1_555 1_555
H1 C3 1_555 1_555
H2 C4 1_555 1_555
H3 C5 1_555 1_555
H4 C6 1_555 1_555
H5 C9 1_555 1_555
H6 C10 1_555 1_555
H7 C12 1_555 1_555
H8 C13 1_555 1_555
C12 C13 1_555 1_555

#END
