
#######################################################################
#
#                 Cambridge Crystallographic Data Centre
#                                CCDC 
#
#######################################################################
#
# If this CIF has been generated from an entry in the Cambridge 
# Structural Database, then it will include bibliographic, chemical, 
# crystal, experimental, refinement or atomic coordinate data resulting 
# from the CCDC's data processing and validation procedures.
#
#######################################################################

data_KATJAS
_chemical_formula_moiety         'C240 H240 N32,80(C1 H2 Cl2)'
_chemical_name_systematic        
'1,4,6,9,12,14,17,20,22,25,28,30,33,36,38,41,44,46,51,53,56,59,61,66,68,71,74,76,81,83,88,90-dotriacontaaza-2,8,10,16,18,24,26,32,34,40,42,48,49,55,57,63,64,70,72,78,79,85,86,92(1,4)-tetracosabenzena-5,13,21,29,37,45,52,60,67,75,82,89(1,2)-dodecacyclohexana-pentacyclo(31.15.15,15^9,41^.7^25,71^.7^17,56^)dononacontaphane-3,6,11,14,19,22,27,30,35,38,43,46,50,53,58,61,65,68,73,76,80,83,87,90-tetracosaene dichloromethane solvate'
_symmetry_cell_setting           cubic
_symmetry_space_group_name_H-M   'P 21 3'
_symmetry_Int_Tables_number      198
_space_group_name_Hall           'P 2ac 2ab 3'
loop_
_symmetry_equiv_pos_site_id
_symmetry_equiv_pos_as_xyz
1 x,y,z
2 1/2-x,-y,1/2+z
3 1/2+x,1/2-y,-z
4 z,x,y
5 -x,1/2+y,1/2-z
6 1/2-z,-x,1/2+y
7 1/2+z,1/2-x,-y
8 -z,1/2+x,1/2-y
9 y,z,x
10 1/2+y,1/2-z,-x
11 -y,1/2+z,1/2-x
12 1/2-y,-z,1/2+x
_cell_length_a                   47.2656(14)
_cell_length_b                   47.2656(14)
_cell_length_c                   47.2656(14)
_cell_angle_alpha                90
_cell_angle_beta                 90
_cell_angle_gamma                90
_cell_volume                     105593
_exptl_crystal_colour            'pale yellow'
_exptl_crystal_description       block
_cell_formula_units_Z            8
loop_
_atom_site_label
_atom_site_type_symbol
_atom_site_fract_x
_atom_site_fract_y
_atom_site_fract_z
N13 N 0.21472(4) 0.71472(4) 0.78528(4)
N14 N 0.20317(6) 0.71111(6) 0.56704(6)
N15 N 0.23065(6) 0.92711(6) 0.57641(6)
N16 N 0.44952(4) 0.94952(4) 0.55048(4)
N17 N 0.10070(6) 0.73691(6) 0.71188(5)
N18 N 0.09763(6) 0.73744(7) 0.64989(7)
N19 N 0.23304(7) 0.79047(5) 0.46045(5)
N20 N 0.23753(7) 0.85042(5) 0.46265(6)
N21 N 0.11499(7) 0.90772(9) 0.64707(6)
N22 N 0.29067(7) 0.60836(8) 0.59538(6)
N23 N 0.30153(5) 1.04523(6) 0.58454(6)
N24 N 0.36102(5) 1.04992(4) 0.57984(6)
C81 C 0.19298(5) 0.72461(7) 0.76853(5)
C82 C 0.17264(6) 0.70515(5) 0.75739(5)
C83 C 0.15087(6) 0.71500(8) 0.74189(6)
C84 C 0.14610(7) 0.74166(9) 0.73522(6)
C85 C 0.16580(8) 0.75957(6) 0.74499(6)
C86 C 0.18749(6) 0.75137(6) 0.76269(6)
H47 H 0.1990 0.7656 0.7710
C87 C 0.18107(7) 0.71325(9) 0.58673(7)
C88 C 0.16958(9) 0.68517(7) 0.59540(8)
H48 H 0.1773 0.6677 0.5892
C89 C 0.14465(8) 0.68717(9) 0.61483(7)
H49 H 0.1356 0.6707 0.6219
C90 C 0.13542(7) 0.71375(11) 0.62208(7)
C91 C 0.14597(9) 0.73834(8) 0.61434(7)
H50 H 0.1379 0.7560 0.6198
C92 C 0.17064(7) 0.73604(8) 0.59701(8)
H51 H 0.1803 0.7531 0.5927
C93 C 0.22440(8) 0.68728(7) 0.56911(11)
C94 C 0.23134(8) 0.67490(8) 0.54589(8)
H52 H 0.2235 0.6817 0.5287
C95 C 0.24985(10) 0.65196(9) 0.54472(9)
H53 H 0.2543 0.6421 0.5278
C96 C 0.26140(8) 0.64495(9) 0.57169(15)
C97 C 0.25253(11) 0.65960(10) 0.59512(9)
H54 H 0.2597 0.6549 0.6133
C98 C 0.23449(10) 0.67976(9) 0.59229(9)
H55 H 0.2285 0.6895 0.6088
C99 C 0.20499(9) 0.72855(6) 0.54313(7)
C100 C 0.18024(7) 0.73981(7) 0.53235(7)
H56 H 0.1623 0.7363 0.5408
C101 C 0.18353(8) 0.75764(6) 0.50690(7)
H57 H 0.1672 0.7638 0.4969
C102 C 0.20991(10) 0.76545(7) 0.49763(7)
C103 C 0.23188(7) 0.75576(6) 0.51075(8)
H58 H 0.2499 0.7618 0.5043
C104 C 0.23111(7) 0.73776(8) 0.53296(7)
H59 H 0.2482 0.7315 0.5415
C105 C 0.23716(10) 0.91063(6) 0.55163(8)
C106 C 0.26324(9) 0.90587(7) 0.54430(7)
H60 H 0.2779 0.9150 0.5546
C107 C 0.27095(7) 0.88765(7) 0.52166(9)
H61 H 0.2901 0.8827 0.5183
C108 C 0.24923(11) 0.87734(7) 0.50447(7)
C109 C 0.22287(9) 0.88175(7) 0.51299(8)
H62 H 0.2078 0.8735 0.5026
C110 C 0.21651(8) 0.89823(7) 0.53692(8)
H63 H 0.1974 0.9006 0.5426
C111 C 0.20597(9) 0.91976(9) 0.59394(6)
C112 C 0.20269(7) 0.89184(8) 0.60079(8)
H64 H 0.2160 0.8783 0.5941
C113 C 0.17939(9) 0.88294(7) 0.61792(7)
H65 H 0.1773 0.8638 0.6236
C114 C 0.16089(9) 0.90249(11) 0.62560(9)
C115 C 0.16405(8) 0.92861(10) 0.61903(7)
H66 H 0.1504 0.9418 0.6257
C116 C 0.18688(9) 0.93905(8) 0.60228(7)
H67 H 0.1885 0.9585 0.5973
C117 C 0.24519(8) 0.95160(7) 0.58176(8)
C118 C 0.25254(6) 0.95800(6) 0.61091(8)
H68 H 0.2475 0.9453 0.6256
C119 C 0.26661(6) 0.98204(8) 0.61704(6)
H69 H 0.2696 0.9871 0.6363
C120 C 0.27699(7) 0.99972(7) 0.59548(9)
C121 C 0.27046(7) 0.99276(7) 0.56804(7)
H70 H 0.2773 1.0044 0.5531
C122 C 0.25433(7) 0.96947(9) 0.56163(8)
H71 H 0.2495 0.9659 0.5425
C123 C 0.42885(6) 0.97127(6) 0.55186(8)
C124 C 0.41944(6) 0.98030(6) 0.57791(7)
H72 H 0.4266 0.9721 0.5948
C125 C 0.40008(7) 1.00076(7) 0.57901(7)
H73 H 0.3933 1.0060 0.5972
C126 C 0.38824(7) 1.01586(6) 0.55464(7)
C127 C 0.39924(7) 1.00551(7) 0.52962(7)
H74 H 0.3924 1.0138 0.5126
C128 C 0.41861(6) 0.98503(7) 0.52690(6)
H75 H 0.4254 0.9797 0.5088
C129 C 0.12134(8) 0.75203(6) 0.71935(6)
H76 H 0.1209 0.7715 0.7144
C130 C 0.10783(7) 0.71758(9) 0.64166(8)
H77 H 0.0988 0.7005 0.6471
C131 C 0.28265(9) 0.61845(8) 0.57213(10)
H78 H 0.2891 0.6104 0.5549
C132 C 0.21017(9) 0.78374(7) 0.47214(8)
H79 H 0.1928 0.7905 0.4646
C133 C 0.25609(10) 0.85857(8) 0.48007(8)
H80 H 0.2751 0.8525 0.4775
C134 C 0.13518(10) 0.89298(8) 0.64077(7)
H81 H 0.1344 0.8736 0.6461
C135 C 0.29388(7) 1.02738(7) 0.60203(7)
H82 H 0.2987 1.0308 0.6212
C136 C 0.36993(6) 1.04045(7) 0.55588(7)
H83 H 0.3645 1.0497 0.5389
C137 C 0.07735(6) 0.74926(6) 0.69339(8)
H84 H 0.0836 0.7689 0.6885
C138 C 0.07321(7) 0.73546(8) 0.66738(6)
H85 H 0.0696 0.7150 0.6713
C139 C 0.04947(6) 0.74631(8) 0.65221(7)
H86 H 0.0463 0.7341 0.6355
H87 H 0.0545 0.7654 0.6451
C140 C 0.02043(7) 0.74875(10) 0.66882(7)
H88 H 0.0059 0.7579 0.6568
H89 H 0.0136 0.7297 0.6743
C141 C 0.02608(6) 0.76665(9) 0.69525(8)
H90 H 0.0087 0.7677 0.7069
H91 H 0.0313 0.7861 0.6896
C142 C 0.05114(6) 0.75292(9) 0.71332(6)
H92 H 0.0560 0.7654 0.7294
H93 H 0.0452 0.7343 0.7209
C143 C 0.23270(9) 0.80909(7) 0.43539(6)
H94 H 0.2127 0.8147 0.4312
C144 C 0.24928(10) 0.83374(7) 0.43885(6)
H95 H 0.2694 0.8285 0.4429
C145 C 0.24771(10) 0.85365(7) 0.41073(8)
H96 H 0.2283 0.8612 0.4083
H97 H 0.2610 0.8698 0.4125
C146 C 0.25578(14) 0.83527(9) 0.38545(7)
H98 H 0.2520 0.8463 0.3681
H99 H 0.2764 0.8319 0.3863
C147 C 0.24225(14) 0.80843(9) 0.38237(6)
H100 H 0.2510 0.7981 0.3664
H101 H 0.2220 0.8114 0.3778
C148 C 0.24464(10) 0.79031(6) 0.40936(6)
H102 H 0.2646 0.7850 0.4128
H103 H 0.2334 0.7728 0.4073
C149 C 0.09166(8) 0.89264(8) 0.66300(8)
H104 H 0.0981 0.8728 0.6663
C150 C 0.30832(10) 0.58418(9) 0.59479(9)
H105 H 0.3118 0.5799 0.5744
C151 C 0.29349(7) 0.55884(11) 0.60662(8)
H106 H 0.2847 0.5635 0.6251
H107 H 0.2785 0.5524 0.5935
C152 C 0.31405(8) 0.53750(10) 0.61001(10)
H108 H 0.3045 0.5225 0.6211
H109 H 0.3168 0.5296 0.5908
C153 C 0.34139(9) 0.53946(12) 0.62161(11)
H110 H 0.3524 0.5222 0.6171
H111 H 0.3403 0.5413 0.6424
C154 C 0.06579(8) 0.89129(13) 0.64422(9)
H112 H 0.0704 0.8799 0.6272
H113 H 0.0611 0.9107 0.6378
C155 C 0.31533(7) 1.06958(7) 0.59437(7)
H114 H 0.3207 1.0648 0.6143
C156 C 0.34228(7) 1.07320(6) 0.58009(6)
H115 H 0.3371 1.0759 0.5598
C157 C 0.35725(6) 1.10096(6) 0.58818(6)
H116 H 0.3658 1.0985 0.6071
H117 H 0.3729 1.1042 0.5746
C158 C 0.33877(8) 1.12742(6) 0.58879(9)
H118 H 0.3497 1.1434 0.5967
H119 H 0.3331 1.1325 0.5693
C159 C 0.31265(7) 1.12226(6) 0.60664(10)
H120 H 0.2992 1.1381 0.6042
H121 H 0.3180 1.1213 0.6269
C160 C 0.29789(6) 1.09301(7) 0.59721(8)
H122 H 0.2831 1.0884 0.6113
H123 H 0.2883 1.0962 0.5789
N14G N 0.43296(6) 0.70317(6) 0.78889(6)
N14I N 0.21111(6) 0.93296(6) 0.79683(6)
N15G N 0.42359(6) 0.73065(6) 0.57289(6)
N15I N 0.42711(6) 0.92359(6) 0.76935(6)
N17G N 0.28812(5) 0.60070(6) 0.76309(6)
N17I N 0.23691(6) 0.78812(5) 0.89930(6)
N18G N 0.35011(7) 0.59763(6) 0.76256(7)
N18I N 0.23744(7) 0.85011(7) 0.90237(6)
N19G N 0.53955(5) 0.73304(7) 0.70953(5)
N19I N 0.29047(5) 1.03955(5) 0.76696(7)
N20G N 0.53735(6) 0.73753(7) 0.64958(5)
N20I N 0.35042(5) 1.03735(6) 0.76247(7)
N21G N 0.35293(6) 0.61499(7) 0.59228(9)
N21I N 0.40772(9) 0.85293(6) 0.88501(7)
N22I N 0.10836(8) 0.90462(6) 0.70933(7)
N22G N 0.40462(6) 0.79067(7) 0.89164(8)
N23G N 0.41546(6) 0.80153(5) 0.45477(6)
N23I N 0.54523(6) 0.91546(6) 0.69847(5)
N24G N 0.42016(6) 0.86102(5) 0.45008(4)
N24I N 0.54992(4) 0.92016(6) 0.63898(5)
C81G C 0.23147(5) 0.69298(5) 0.77539(7)
C81I C 0.22461(7) 0.73147(5) 0.80702(5)
C82G C 0.24261(5) 0.67264(6) 0.79485(5)
C82I C 0.20515(5) 0.74261(5) 0.82736(6)
C83G C 0.25811(6) 0.65087(6) 0.78500(8)
C83I C 0.21500(8) 0.75811(6) 0.84913(6)
C84G C 0.26478(6) 0.64610(7) 0.75834(9)
C84I C 0.24166(9) 0.76478(6) 0.85390(7)
C85I C 0.25957(6) 0.75501(6) 0.83420(8)
C85G C 0.25501(6) 0.66580(8) 0.74043(6)
C86I C 0.25137(6) 0.73731(6) 0.81251(6)
C86G C 0.23731(6) 0.68749(6) 0.74863(6)
H47I H 0.2656 0.7290 0.8010
H47G H 0.2290 0.6990 0.7344
C87G C 0.41327(7) 0.68107(7) 0.78675(9)
C87I C 0.21325(9) 0.91327(7) 0.81893(7)
C88G C 0.40460(8) 0.66958(9) 0.81483(7)
C88I C 0.18517(7) 0.90460(8) 0.83042(9)
H48G H 0.4108 0.6773 0.8323
H48I H 0.1677 0.9108 0.8227
C89G C 0.38517(7) 0.64465(8) 0.81283(9)
C89I C 0.18717(9) 0.88517(7) 0.85535(8)
H49G H 0.3781 0.6356 0.8293
H49I H 0.1707 0.8781 0.8644
C90G C 0.37792(7) 0.63542(7) 0.78625(11)
C90I C 0.21375(11) 0.87792(7) 0.86458(7)
C91G C 0.38566(7) 0.64597(9) 0.76166(8)
C91I C 0.23834(8) 0.88566(7) 0.85403(9)
H50G H 0.3802 0.6379 0.7440
H50I H 0.2560 0.8802 0.8621
C92G C 0.40299(8) 0.67064(7) 0.76396(8)
C92I C 0.23604(8) 0.90299(8) 0.82936(7)
H51G H 0.4073 0.6803 0.7469
H51I H 0.2531 0.9073 0.8197
C93I C 0.18728(7) 0.93089(11) 0.77560(8)
C93G C 0.43089(11) 0.72440(8) 0.81272(7)
C94I C 0.17490(8) 0.95411(8) 0.76866(8)
C94G C 0.45411(8) 0.73134(8) 0.82510(8)
H52I H 0.1817 0.9713 0.7765
H52G H 0.4713 0.7235 0.8183
C95I C 0.15196(9) 0.95528(9) 0.75015(10)
C95G C 0.45528(9) 0.74985(10) 0.84804(9)
H53I H 0.1421 0.9722 0.7457
H53G H 0.4722 0.7543 0.8579
C96I C 0.14495(9) 0.92831(15) 0.73860(8)
C96G C 0.42831(15) 0.76140(8) 0.85505(9)
C97I C 0.15960(10) 0.90488(9) 0.74747(11)
C97G C 0.40488(9) 0.75253(11) 0.84040(10)
H54I H 0.1549 0.8867 0.7403
H54G H 0.3867 0.7597 0.8451
C98I C 0.17976(9) 0.90771(9) 0.76551(10)
C98G C 0.40771(9) 0.73449(10) 0.82024(9)
H55I H 0.1895 0.8912 0.7715
H55G H 0.3912 0.7285 0.8105
C99G C 0.45687(7) 0.70499(9) 0.77145(6)
C99I C 0.22855(6) 0.95687(7) 0.79501(9)
C100G C 0.46765(7) 0.68024(7) 0.76019(7)
C100I C 0.23981(7) 0.96765(7) 0.81976(7)
H56I H 0.2363 0.9592 0.8377
H56G H 0.4592 0.6623 0.7637
C101G C 0.49310(7) 0.68353(8) 0.74236(6)
C101I C 0.25764(6) 0.99310(7) 0.81647(8)
H57I H 0.2638 1.0031 0.8328
H57G H 0.5031 0.6672 0.7362
C102G C 0.50237(7) 0.70991(10) 0.73455(7)
C102I C 0.26545(7) 1.00237(7) 0.79009(10)
C103I C 0.25576(6) 0.98925(8) 0.76812(7)
C103G C 0.48925(8) 0.73188(7) 0.74424(6)
H58I H 0.2618 0.9957 0.7501
H58G H 0.4957 0.7499 0.7382
C104I C 0.23776(8) 0.96704(7) 0.76889(7)
C104G C 0.46704(7) 0.73111(7) 0.76224(8)
H59I H 0.2315 0.9585 0.7518
H59G H 0.4585 0.7482 0.7685
C105G C 0.44837(8) 0.73716(10) 0.58937(6)
C105I C 0.41063(6) 0.94837(8) 0.76284(10)
C106G C 0.45570(7) 0.76324(9) 0.59413(7)
C106I C 0.40587(7) 0.95570(7) 0.73676(9)
H60G H 0.4454 0.7779 0.5850
H60I H 0.4150 0.9454 0.7221
C107G C 0.47834(9) 0.77095(7) 0.61235(7)
C107I C 0.38765(7) 0.97834(9) 0.72905(7)
H61G H 0.4817 0.7901 0.6173
H61I H 0.3827 0.9817 0.7099
C108G C 0.49553(7) 0.74923(11) 0.62266(7)
C108I C 0.37734(7) 0.99553(7) 0.75077(11)
C109G C 0.48701(8) 0.72287(9) 0.61825(7)
C109I C 0.38175(7) 0.98701(8) 0.77713(9)
H62G H 0.4974 0.7078 0.6265
H62I H 0.3735 0.9974 0.7922
C110G C 0.46308(8) 0.71651(8) 0.60177(7)
C110I C 0.39823(7) 0.96308(8) 0.78349(8)
H63G H 0.4574 0.6974 0.5994
H63I H 0.4006 0.9574 0.8026
C111G C 0.40606(6) 0.70597(9) 0.58024(9)
C111I C 0.41976(9) 0.90606(6) 0.79403(9)
C112G C 0.39921(8) 0.70269(7) 0.60816(8)
C112I C 0.39184(8) 0.89921(8) 0.79731(7)
H64I H 0.3783 0.9059 0.7840
H64G H 0.4059 0.7160 0.6217
C113G C 0.38208(7) 0.67939(9) 0.61706(7)
C113I C 0.38294(7) 0.88208(7) 0.82061(9)
H65I H 0.3638 0.8764 0.8227
H65G H 0.3764 0.6773 0.6362
C114G C 0.37440(9) 0.66089(9) 0.59751(11)
C114I C 0.40249(11) 0.87440(9) 0.83911(9)
C115I C 0.42861(10) 0.88097(7) 0.83595(8)
C115G C 0.38097(7) 0.66405(8) 0.57139(10)
H66I H 0.4418 0.8743 0.8496
H66G H 0.3743 0.6504 0.5582
C116I C 0.43905(8) 0.89772(7) 0.81312(9)
C116G C 0.39772(7) 0.68688(9) 0.56095(8)
H67I H 0.4585 0.9027 0.8115
H67G H 0.4027 0.6885 0.5415
C117G C 0.41824(8) 0.74519(8) 0.54840(7)
C117I C 0.45160(7) 0.91824(8) 0.75481(8)
C118G C 0.38909(8) 0.75254(6) 0.54200(6)
C118I C 0.45800(6) 0.88909(8) 0.74746(6)
H68G H 0.3744 0.7475 0.5547
H68I H 0.4453 0.8744 0.7525
C119G C 0.38296(6) 0.76661(6) 0.51796(8)
C119I C 0.48204(8) 0.88296(6) 0.73339(6)
H69G H 0.3637 0.7696 0.5129
H69I H 0.4871 0.8637 0.7304
C120G C 0.40452(9) 0.77699(7) 0.50028(7)
C120I C 0.49972(7) 0.90452(9) 0.72301(7)
C121G C 0.43196(7) 0.77046(7) 0.50724(7)
C121I C 0.49276(7) 0.93196(7) 0.72954(7)
H70G H 0.4469 0.7773 0.4956
H70I H 0.5044 0.9469 0.7227
C122G C 0.43837(8) 0.75433(7) 0.53053(9)
C122I C 0.46947(9) 0.93837(8) 0.74567(7)
H71G H 0.4575 0.7495 0.5341
H71I H 0.4659 0.9575 0.7505
C123G C 0.44814(8) 0.92885(6) 0.52873(6)
C123I C 0.47127(6) 0.94814(8) 0.57115(6)
C124G C 0.42209(7) 0.91944(6) 0.51970(6)
C124I C 0.48030(6) 0.92209(7) 0.58056(6)
H72G H 0.4052 0.9266 0.5279
H72I H 0.4721 0.9052 0.5734
C125G C 0.42099(7) 0.90008(7) 0.49924(7)
C125I C 0.50076(7) 0.92099(7) 0.59992(7)
H73G H 0.4028 0.8933 0.4940
H73I H 0.5060 0.9028 0.6067
C126G C 0.44536(7) 0.88824(7) 0.48414(6)
C126I C 0.51586(6) 0.94536(7) 0.61176(7)
C127G C 0.47038(7) 0.89924(7) 0.49449(7)
C127I C 0.50551(7) 0.97038(7) 0.60076(7)
H74G H 0.4874 0.8924 0.4862
H74I H 0.5138 0.9874 0.6076
C128G C 0.47310(6) 0.91861(6) 0.51497(7)
C128I C 0.48503(7) 0.97310(6) 0.58139(6)
H75G H 0.4912 0.9254 0.5203
H75I H 0.4797 0.9912 0.5746
C129G C 0.28065(6) 0.62134(8) 0.74797(6)
C129I C 0.25203(6) 0.78065(6) 0.87866(8)
H76I H 0.2715 0.7856 0.8791
H76G H 0.2856 0.6209 0.7285
C130G C 0.35834(8) 0.60783(7) 0.78242(9)
C130I C 0.21758(9) 0.85834(8) 0.89217(7)
H77I H 0.2005 0.8529 0.9012
H77G H 0.3529 0.5988 0.7995
C131I C 0.11845(8) 0.92787(10) 0.71735(9)
C131G C 0.42787(10) 0.78265(9) 0.88155(8)
H78G H 0.4451 0.7891 0.8896
H78I H 0.1104 0.9451 0.7109
C132G C 0.52786(8) 0.71017(9) 0.71626(7)
C132I C 0.28374(7) 1.02786(8) 0.78983(9)
H79I H 0.2905 1.0354 0.8072
H79G H 0.5354 0.6928 0.7095
C133G C 0.51993(8) 0.75609(10) 0.64143(8)
C133I C 0.35857(8) 1.01993(8) 0.74391(10)
H80I H 0.3525 1.0225 0.7249
H80G H 0.5225 0.7751 0.6475
C134G C 0.35923(7) 0.63518(10) 0.60702(8)
C134I C 0.39298(8) 0.85923(7) 0.86482(10)
H81I H 0.3736 0.8539 0.8656
H81G H 0.3539 0.6344 0.6264
C135G C 0.39797(7) 0.79388(7) 0.47262(7)
C135I C 0.52738(7) 0.89797(7) 0.70612(7)
H82G H 0.3788 0.7987 0.4692
H82I H 0.5308 0.8788 0.7013
C136G C 0.44412(7) 0.86993(6) 0.45955(7)
C136I C 0.54045(7) 0.94412(7) 0.63007(6)
H83G H 0.4611 0.8645 0.4503
H83I H 0.5497 0.9611 0.6355
C137G C 0.30661(8) 0.57735(6) 0.75074(6)
C137I C 0.24926(6) 0.80661(8) 0.92265(6)
H84I H 0.2689 0.8115 0.9164
H84G H 0.3115 0.5836 0.7311
C138G C 0.33262(6) 0.57321(7) 0.76454(8)
C138I C 0.23546(8) 0.83262(6) 0.92679(7)
H85I H 0.2150 0.8287 0.9304
H85G H 0.3287 0.5696 0.7850
C139I C 0.24631(8) 0.84779(7) 0.95053(6)
C139G C 0.34779(7) 0.54947(6) 0.75369(8)
H86I H 0.2341 0.8645 0.9537
H86G H 0.3645 0.5463 0.7659
H87I H 0.2654 0.8549 0.9455
H87G H 0.3549 0.5545 0.7346
C140I C 0.24875(10) 0.83118(7) 0.97957(7)
C140G C 0.33118(7) 0.52043(7) 0.75125(10)
H88I H 0.2579 0.8432 0.9941
H88G H 0.3432 0.5059 0.7421
H89I H 0.2297 0.8257 0.9864
H89G H 0.3257 0.5136 0.7703
C141I C 0.26665(9) 0.80475(8) 0.97392(6)
C141G C 0.30475(8) 0.52608(6) 0.73335(9)
H90I H 0.2677 0.7931 0.9913
H90G H 0.2931 0.5087 0.7323
H91I H 0.2861 0.8104 0.9687
H91G H 0.3104 0.5313 0.7139
C142I C 0.25292(9) 0.78668(6) 0.94886(6)
C142G C 0.28668(6) 0.55114(6) 0.74708(9)
H92I H 0.2654 0.7706 0.9440
H92G H 0.2706 0.5560 0.7346
H93I H 0.2343 0.7791 0.9548
H93G H 0.2791 0.5452 0.7657
C143G C 0.56461(6) 0.73270(9) 0.69091(7)
C143I C 0.30909(7) 1.06461(6) 0.76730(9)
H94I H 0.3147 1.0688 0.7873
H94G H 0.5688 0.7127 0.6853
C144G C 0.56115(6) 0.74928(10) 0.66626(7)
C144I C 0.33374(7) 1.06115(6) 0.75072(10)
H95I H 0.3285 1.0571 0.7306
H95G H 0.5571 0.7694 0.6715
C145I C 0.35365(7) 1.08927(8) 0.75229(10)
C145G C 0.58927(8) 0.74771(10) 0.64635(7)
H96I H 0.3612 1.0917 0.7717
H96G H 0.5917 0.7283 0.6388
H97I H 0.3698 1.0875 0.7390
H97G H 0.5875 0.7610 0.6302
C146I C 0.33527(9) 1.11455(7) 0.74422(14)
C146G C 0.61455(7) 0.75578(14) 0.66473(9)
H98I H 0.3463 1.1319 0.7480
H98G H 0.6319 0.7520 0.6537
H99I H 0.3319 1.1137 0.7236
H99G H 0.6137 0.7764 0.6681
C147I C 0.30843(9) 1.11763(6) 0.75775(14)
C147G C 0.61763(6) 0.74225(14) 0.69157(9)
H100I H 0.2981 1.1336 0.7490
H100G H 0.6336 0.7510 0.7019
H101I H 0.3114 1.1222 0.7780
H101G H 0.6222 0.7220 0.6886
C148I C 0.29031(6) 1.09064(6) 0.75536(10)
C148G C 0.59064(6) 0.74464(10) 0.70969(6)
H102I H 0.2850 1.0872 0.7354
H102G H 0.5872 0.7646 0.7150
H103I H 0.2728 1.0927 0.7666
H103G H 0.5927 0.7334 0.7272
C149G C 0.33700(8) 0.59166(8) 0.60736(8)
C149I C 0.39264(8) 0.83700(8) 0.90834(8)
H104I H 0.3728 0.8337 0.9019
H104G H 0.3337 0.5981 0.6272
C150I C 0.08418(9) 0.90521(9) 0.69168(10)
C150G C 0.40521(9) 0.80832(10) 0.91582(9)
H105G H 0.4256 0.8118 0.9201
H105I H 0.0799 0.9256 0.6882
C151G C 0.39338(8) 0.79349(7) 0.94116(11)
C151I C 0.05884(11) 0.89338(8) 0.70651(7)
H106G H 0.3749 0.7847 0.9365
H106I H 0.0635 0.8749 0.7153
H107G H 0.4065 0.7785 0.9476
H107I H 0.0524 0.9065 0.7215
C152G C 0.38999(10) 0.81405(8) 0.96250(10)
C152I C 0.03750(10) 0.88999(10) 0.68595(8)
H108G H 0.3789 0.8045 0.9775
H108I H 0.0225 0.8789 0.6955
H109G H 0.4092 0.8168 0.9704
H109I H 0.0296 0.9092 0.6832
C153G C 0.37839(11) 0.84139(9) 0.96054(12)
C153I C 0.03946(12) 0.87839(11) 0.65861(9)
H110G H 0.3829 0.8524 0.9778
H110I H 0.0222 0.8829 0.6476
H111G H 0.3576 0.8403 0.9587
H111I H 0.0413 0.8576 0.6597
C154I C 0.39129(13) 0.85578(9) 0.93421(8)
C154G C 0.35578(9) 0.56579(8) 0.60871(13)
H112I H 0.3799 0.8728 0.9296
H112G H 0.3728 0.5704 0.6201
H113I H 0.4107 0.8622 0.9389
H113G H 0.3622 0.5611 0.5893
C155G C 0.40563(7) 0.81533(7) 0.43042(7)
C155I C 0.56958(7) 0.90563(7) 0.68467(7)
H114G H 0.3857 0.8207 0.4352
H114I H 0.5648 0.8857 0.6793
C156G C 0.41991(6) 0.84228(7) 0.42680(6)
C156I C 0.57320(6) 0.91991(6) 0.65772(7)
H115G H 0.4402 0.8371 0.4241
H115I H 0.5759 0.9402 0.6629
C157G C 0.41182(6) 0.85725(6) 0.39904(6)
C157I C 0.60096(6) 0.91182(6) 0.64275(6)
H116G H 0.3929 0.8658 0.4015
H116I H 0.5985 0.8929 0.6342
H117G H 0.4254 0.8729 0.3958
H117I H 0.6042 0.9254 0.6271
C158G C 0.41121(9) 0.83877(8) 0.37258(6)
C158I C 0.62742(6) 0.91121(9) 0.66123(8)
H118G H 0.4033 0.8497 0.3566
H118I H 0.6434 0.9033 0.6503
H119G H 0.4307 0.8331 0.3675
H119I H 0.6325 0.9307 0.6669
C159G C 0.39336(10) 0.81265(7) 0.37774(6)
C159I C 0.62226(6) 0.89336(10) 0.68735(7)
H120G H 0.3958 0.7992 0.3619
H120I H 0.6381 0.8958 0.7008
H121G H 0.3731 0.8180 0.3787
H121I H 0.6213 0.8731 0.6820
C160G C 0.40279(8) 0.79789(6) 0.40699(7)
C160I C 0.59301(7) 0.90279(8) 0.70211(6)
H122G H 0.3887 0.7831 0.4116
H122I H 0.5884 0.8887 0.7169
H123G H 0.4211 0.7883 0.4038
H123I H 0.5962 0.9211 0.7117
N1 N 0.28478(4) 0.21522(4) 0.78478(4)
N2 N 0.28038(7) 0.21872(6) 0.57034(6)
N3 N 0.30587(7) 0.43568(6) 0.55769(6)
N4 N 0.09038(5) 0.40962(5) 0.59038(5)
N5 N 0.39389(6) 0.24314(6) 0.70783(5)
N6 N 0.39287(7) 0.24063(8) 0.64629(6)
N7 N 0.26747(5) 0.29306(5) 0.45750(6)
N8 N 0.27303(5) 0.35222(5) 0.45493(5)
N9 N 0.40636(8) 0.41776(9) 0.64845(9)
N10 N 0.21096(7) 0.10015(8) 0.58142(6)
N11 N 0.21648(6) 0.53635(6) 0.58736(6)
N12 N 0.15614(7) 0.52965(7) 0.59502(7)
C1 C 0.30893(5) 0.21598(8) 0.76692(5)
C2 C 0.32278(7) 0.19245(6) 0.75839(6)
H1 H 0.3156 0.1744 0.7635
C3 C 0.34744(7) 0.19411(7) 0.74226(8)
H2 H 0.3578 0.1774 0.7378
C4 C 0.35714(7) 0.22120(10) 0.73241(7)
C5 C 0.34284(7) 0.24321(6) 0.74043(6)
H3 H 0.3489 0.2614 0.7345
C6 C 0.32051(7) 0.24115(6) 0.75641(6)
H4 H 0.3112 0.2583 0.7614
C7 C 0.30373(7) 0.22653(8) 0.58786(6)
C8 C 0.30971(8) 0.25405(7) 0.59127(8)
H5 H 0.3002 0.2678 0.5801
C9 C 0.32924(11) 0.26249(8) 0.61067(8)
H6 H 0.3283 0.2811 0.6181
C10 C 0.35068(9) 0.24416(10) 0.61989(7)
C11 C 0.34532(8) 0.21541(9) 0.61493(7)
H7 H 0.3576 0.2015 0.6227
C12 C 0.32313(10) 0.20736(7) 0.59939(7)
H8 H 0.3204 0.1877 0.5960
C13 C 0.26416(6) 0.19267(7) 0.57704(8)
C14 C 0.25882(8) 0.18545(8) 0.60464(8)
H9 H 0.2661 0.1966 0.6197
C15 C 0.24275(9) 0.16173(11) 0.61022(8)
H10 H 0.2381 0.1579 0.6294
C16 C 0.23357(8) 0.14422(10) 0.59098(10)
C17 C 0.23968(6) 0.15140(7) 0.56393(8)
H11 H 0.2326 0.1392 0.5496
C18 C 0.25480(7) 0.17415(7) 0.55516(6)
H12 H 0.2589 0.1775 0.5358
C19 C 0.27375(9) 0.23472(6) 0.54575(7)
C20 C 0.24685(8) 0.24173(6) 0.54208(7)
H13 H 0.2329 0.2354 0.5551
C21 C 0.23922(7) 0.25836(6) 0.51919(8)
H14 H 0.2199 0.2633 0.5163
C22 C 0.25944(8) 0.26768(6) 0.50076(7)
C23 C 0.28621(7) 0.26013(5) 0.50426(6)
H15 H 0.2998 0.2656 0.4905
C24 C 0.29525(7) 0.24391(6) 0.52822(7)
H16 H 0.3146 0.2398 0.5318
C25 C 0.30355(8) 0.41548(6) 0.53543(6)
C26 C 0.32686(7) 0.40597(7) 0.52335(8)
H17 H 0.3448 0.4111 0.5308
C27 C 0.32520(6) 0.38947(7) 0.50105(7)
H18 H 0.3421 0.3843 0.4915
C28 C 0.29951(8) 0.37932(6) 0.49103(6)
C29 C 0.27554(6) 0.38806(5) 0.50465(8)
H19 H 0.2574 0.3819 0.4985
C30 C 0.27794(7) 0.40508(8) 0.52629(6)
H20 H 0.2613 0.4105 0.5361
C31 C 0.32956(8) 0.43628(10) 0.57626(10)
C32 C 0.33951(8) 0.46306(8) 0.58558(9)
C33 C 0.36327(11) 0.46164(11) 0.60403(11)
C34 C 0.37201(10) 0.43759(14) 0.61661(10)
C35 C 0.36075(8) 0.41126(11) 0.60671(9)
C36 C 0.33898(9) 0.41260(10) 0.58721(10)
C37 C 0.28381(7) 0.45967(8) 0.55821(11)
C38 C 0.27414(11) 0.47041(9) 0.53645(8)
C39 C 0.25419(8) 0.49296(8) 0.53770(7)
C40 C 0.24503(7) 0.50036(8) 0.56381(9)
C41 C 0.25366(7) 0.48866(7) 0.58704(7)
C42 C 0.27442(8) 0.46832(7) 0.58432(7)
C43 C 0.10692(6) 0.43449(7) 0.59589(9)
C44 C 0.11676(7) 0.45040(8) 0.57497(6)
C45 C 0.13119(6) 0.47575(7) 0.57932(6)
C46 C 0.13739(8) 0.48461(7) 0.60707(9)
C47 C 0.12634(7) 0.46593(11) 0.62758(7)
C48 C 0.11305(7) 0.44217(7) 0.62429(7)
C49 C 0.38389(6) 0.21972(8) 0.71507(6)
H21 H 0.3925 0.2023 0.7100
C50 C 0.37398(11) 0.25397(8) 0.63596(7)
H22 H 0.3747 0.2738 0.6389
C51 C 0.21772(8) 0.11768(10) 0.60037(8)
H23 H 0.2131 0.1145 0.6197
C52 C 0.25048(6) 0.28493(6) 0.47537(7)
H24 H 0.2311 0.2896 0.4732
C53 C 0.29652(7) 0.36030(6) 0.46427(7)
H25 H 0.3132 0.3546 0.4546
C54 C 0.39651(10) 0.43621(11) 0.63773(11)
C55 C 0.22509(7) 0.52491(9) 0.56541(7)
C56 C 0.15193(6) 0.51125(9) 0.61105(7)
H26 H 0.1592 0.5143 0.6296
C57 C 0.42041(7) 0.24071(7) 0.69115(8)
H27 H 0.4248 0.2202 0.6882
C58 C 0.41714(7) 0.25527(9) 0.66212(8)
H28 H 0.4120 0.2756 0.6652
C59 C 0.44498(9) 0.25398(14) 0.64500(9)
H29 H 0.4496 0.2341 0.6402
H30 H 0.4430 0.2648 0.6272
C60 C 0.46664(9) 0.26591(15) 0.66207(12)
H31 H 0.4613 0.2857 0.6665
H32 H 0.4842 0.2666 0.6507
C61 C 0.47323(7) 0.25097(13) 0.68978(9)
H33 H 0.4890 0.2602 0.6999
H34 H 0.4779 0.2308 0.6867
C62 C 0.44482(7) 0.25452(7) 0.70588(7)
H35 H 0.4468 0.2463 0.7250
H36 H 0.4408 0.2750 0.7081
C63 C 0.25753(6) 0.30952(6) 0.43237(6)
H37 H 0.2377 0.3153 0.4372
C64 C 0.27296(6) 0.33639(6) 0.42893(6)
H38 H 0.2931 0.3314 0.4248
C65 C 0.26260(6) 0.35296(5) 0.40454(6)
H39 H 0.2750 0.3696 0.4018
H40 H 0.2433 0.3600 0.4088
C66 C 0.26180(7) 0.33610(6) 0.37769(5)
H41 H 0.2811 0.3299 0.3726
H42 H 0.2544 0.3480 0.3621
C67 C 0.24251(8) 0.31011(7) 0.38186(6)
H43 H 0.2420 0.2986 0.3643
H44 H 0.2230 0.3162 0.3864
C68 C 0.25478(6) 0.29251(5) 0.40648(5)
H45 H 0.2422 0.2762 0.4102
H46 H 0.2736 0.2851 0.4010
C69 C 0.42995(9) 0.41748(13) 0.66886(9)
C70 C 0.19828(9) 0.07484(11) 0.59680(10)
C71 C 0.21632(8) 0.05050(10) 0.59060(8)
C72 C 0.19923(10) 0.02239(16) 0.60085(13)
C73 C 0.17428(11) 0.01512(15) 0.58593(12)
C74 C 0.45627(8) 0.40826(12) 0.65285(9)
C75 C 0.19696(8) 0.55853(7) 0.58733(8)
C76 C 0.17178(9) 0.55395(8) 0.60577(8)
C77 C 0.15058(6) 0.57968(7) 0.60321(8)
C78 C 0.16425(7) 0.60646(7) 0.61290(12)
C79 C 0.19277(9) 0.61186(6) 0.59225(9)
C80 C 0.21162(7) 0.58782(7) 0.59417(8)
N2F N 0.07034(6) 0.21962(7) 0.78128(6)
N2K N 0.28128(6) 0.42966(6) 0.78038(7)
N3F N 0.05769(6) 0.19413(7) 0.56432(6)
N3K N 0.06432(6) 0.44231(6) 0.80587(7)
N5F N 0.20783(5) 0.10611(6) 0.75686(6)
N5K N 0.25686(6) 0.29217(5) 0.89389(6)
N6F N 0.14629(6) 0.10713(7) 0.75937(8)
N6K N 0.25937(8) 0.35371(6) 0.89287(7)
N7F N -0.04250(6) 0.23253(5) 0.70694(5)
N7K N 0.20694(5) 0.54250(6) 0.76747(5)
N8F N -0.04507(5) 0.22697(5) 0.64778(5)
N8K N 0.14778(5) 0.54507(5) 0.77303(5)
N9F N 0.14845(9) 0.09364(8) 0.58224(9)
N9K N 0.08224(9) 0.35155(9) 0.90636(8)
N10K N 0.39985(8) 0.41858(6) 0.71096(7)
N10F N 0.08142(6) 0.28904(7) 0.89985(8)
N11F N 0.08736(6) 0.28352(6) 0.46365(6)
N11K N -0.03635(6) 0.41264(6) 0.71648(6)
N12F N 0.09502(7) 0.34386(7) 0.47035(7)
N12K N -0.02965(7) 0.40498(7) 0.65614(7)
C1F C 0.26692(5) 0.19107(5) 0.78402(8)
C1K C 0.28402(8) 0.23308(5) 0.80893(5)
C2F C 0.25839(6) 0.17722(7) 0.80755(6)
C2K C 0.30755(6) 0.24161(6) 0.82278(7)
H1K H 0.3256 0.2365 0.8156
H1F H 0.2635 0.1844 0.8256
C3F C 0.24226(8) 0.15256(7) 0.80589(7)
C3K C 0.30589(7) 0.25774(8) 0.84744(7)
H2K H 0.3226 0.2622 0.8578
H2F H 0.2378 0.1422 0.8226
C4F C 0.23241(7) 0.14286(7) 0.77880(10)
C4K C 0.27880(10) 0.26759(7) 0.85714(7)
C5K C 0.25679(6) 0.25957(6) 0.84284(7)
C5F C 0.24043(6) 0.15716(7) 0.75679(6)
H3K H 0.2386 0.2655 0.8489
H3F H 0.2345 0.1511 0.7386
C6K C 0.25885(6) 0.24359(6) 0.82051(7)
C6F C 0.25641(6) 0.17949(7) 0.75885(6)
H4K H 0.2417 0.2386 0.8112
H4F H 0.2614 0.1888 0.7417
C7F C 0.08786(6) 0.19627(7) 0.77347(8)
C7K C 0.27347(8) 0.41214(6) 0.80373(7)
C8F C 0.09127(8) 0.19029(8) 0.74595(7)
C8K C 0.24595(7) 0.40873(8) 0.80971(8)
H5F H 0.0801 0.1998 0.7322
H5K H 0.2322 0.4199 0.8002
C9F C 0.11067(8) 0.17076(11) 0.73751(8)
C9K C 0.23751(8) 0.38933(8) 0.82924(11)
H6F H 0.1181 0.1717 0.7189
H6K H 0.2189 0.3819 0.8283
C10F C 0.11989(7) 0.14932(9) 0.75584(10)
C10K C 0.25584(10) 0.38011(7) 0.85068(9)
C11F C 0.11493(7) 0.15468(8) 0.78459(9)
C11K C 0.28459(9) 0.38507(7) 0.84532(8)
H7F H 0.1227 0.1424 0.7985
H7K H 0.2985 0.3773 0.8576
C12F C 0.09939(7) 0.17687(10) 0.79264(7)
C12K C 0.29264(7) 0.40061(7) 0.82313(10)
H8F H 0.0960 0.1796 0.8123
H8K H 0.3123 0.4040 0.8204
C13K C 0.30733(7) 0.42296(8) 0.76416(6)
C13F C 0.07704(8) 0.23584(6) 0.80733(7)
C14K C 0.31455(8) 0.39536(8) 0.75882(8)
C14F C 0.10464(8) 0.24118(8) 0.81455(8)
H9K H 0.3034 0.3803 0.7661
H9F H 0.1197 0.2339 0.8034
C15K C 0.33827(11) 0.38978(8) 0.74275(9)
C15F C 0.11022(8) 0.25725(9) 0.83827(11)
H10K H 0.3421 0.3706 0.7381
H10F H 0.1294 0.2619 0.8421
C16K C 0.35578(10) 0.40902(10) 0.73357(8)
C16F C 0.09098(10) 0.26643(8) 0.85578(10)
C17K C 0.34860(7) 0.43607(8) 0.73968(6)
C17F C 0.06393(8) 0.26032(6) 0.84860(7)
H11K H 0.3608 0.4504 0.7326
H11F H 0.0496 0.2674 0.8608
C18K C 0.32585(7) 0.44484(6) 0.75480(7)
C18F C 0.05516(6) 0.24520(7) 0.82585(7)
H12K H 0.3225 0.4642 0.7589
H12F H 0.0358 0.2411 0.8225
C19F C 0.04575(7) 0.22625(9) 0.76528(6)
C19K C 0.26528(6) 0.45425(7) 0.77375(9)
C20F C 0.04208(7) 0.25315(8) 0.75827(6)
C20K C 0.25827(6) 0.45792(7) 0.74685(8)
H13K H 0.2646 0.4449 0.7329
H13F H 0.0551 0.2671 0.7646
C21F C 0.01919(8) 0.26078(7) 0.74164(6)
C21K C 0.24164(6) 0.48081(8) 0.73922(7)
H14K H 0.2367 0.4837 0.7199
H14F H 0.0163 0.2801 0.7367
C22F C 0.00076(7) 0.24056(8) 0.73232(6)
C22K C 0.23232(6) 0.49924(7) 0.75944(8)
C23K C 0.23987(5) 0.49574(6) 0.78621(7)
C23F C 0.00426(6) 0.21379(7) 0.73987(5)
H15K H 0.2344 0.5095 0.7998
H15F H -0.0095 0.2002 0.7344
C24K C 0.25609(6) 0.47178(7) 0.79525(7)
C24F C 0.02822(7) 0.20475(7) 0.75609(6)
H16K H 0.2602 0.4682 0.8146
H16F H 0.0318 0.1854 0.7602
C25F C 0.03543(6) 0.19645(8) 0.58452(6)
C25K C 0.08452(6) 0.46457(6) 0.80355(8)
C26F C 0.02335(8) 0.17314(7) 0.59403(7)
C26K C 0.09403(7) 0.47665(8) 0.82686(7)
H17F H 0.0308 0.1552 0.5889
H17K H 0.0889 0.4692 0.8448
C27F C 0.00105(7) 0.17480(6) 0.61053(7)
C27K C 0.11053(7) 0.49895(7) 0.82520(6)
H18F H -0.0085 0.1579 0.6157
H18K H 0.1157 0.5085 0.8421
C28F C -0.00897(6) 0.20049(8) 0.62068(6)
C28K C 0.12068(6) 0.50897(6) 0.79951(8)
C29F C 0.00465(8) 0.22446(6) 0.61194(5)
C29K C 0.11194(5) 0.49535(8) 0.77554(6)
H19F H -0.0015 0.2426 0.6181
H19K H 0.1181 0.5015 0.7574
C30F C 0.02629(6) 0.22206(7) 0.59492(8)
C30K C 0.09492(8) 0.47371(6) 0.77794(7)
H20F H 0.0361 0.2387 0.5895
H20K H 0.0895 0.4639 0.7613
C31F C 0.07626(10) 0.17044(8) 0.56372(10)
C31K C 0.06372(10) 0.42374(10) 0.82956(8)
C32F C 0.08558(9) 0.16049(8) 0.53694(8)
C32K C 0.03694(8) 0.41442(9) 0.83951(8)
C33F C 0.10403(11) 0.13673(11) 0.53836(11)
C33K C 0.03836(11) 0.39597(11) 0.86327(11)
C34F C 0.11661(10) 0.12799(10) 0.56241(14)
C34K C 0.06241(14) 0.38339(10) 0.87201(10)
C35K C 0.08874(11) 0.39329(9) 0.86075(8)
C35F C 0.10671(9) 0.13925(8) 0.58874(11)
C36K C 0.08740(10) 0.41279(10) 0.83898(9)
C36F C 0.08721(10) 0.16102(9) 0.58740(10)
C37F C 0.05821(11) 0.21619(7) 0.54033(8)
C37K C 0.04033(8) 0.44179(11) 0.78381(7)
C38F C 0.03645(8) 0.22586(11) 0.52959(9)
C38K C 0.02959(9) 0.46355(8) 0.77414(11)
C39F C 0.03770(7) 0.24581(8) 0.50704(8)
C39K C 0.00704(8) 0.46230(7) 0.75419(8)
C40F C 0.06381(9) 0.25497(7) 0.49964(8)
C40K C -0.00036(8) 0.43619(9) 0.74503(7)
C41F C 0.08704(7) 0.24634(7) 0.51134(7)
C41K C 0.01134(7) 0.41296(7) 0.75366(7)
C42F C 0.08432(7) 0.22558(8) 0.53168(7)
C42K C 0.03168(7) 0.41568(7) 0.77442(8)
C43F C 0.09589(9) 0.39308(6) 0.56551(7)
C43K C 0.06551(7) 0.40411(9) 0.60692(6)
C44F C 0.07497(6) 0.38324(7) 0.54960(8)
C44K C 0.04960(8) 0.42503(6) 0.61676(7)
C45F C 0.07932(6) 0.36881(6) 0.52425(7)
C45K C 0.02425(7) 0.42068(6) 0.63119(6)
C46F C 0.10707(9) 0.36261(8) 0.51539(7)
C46K C 0.01539(7) 0.39293(9) 0.63739(8)
C47F C 0.12758(7) 0.37366(7) 0.53407(11)
C47K C 0.03407(11) 0.37242(7) 0.62634(7)
C48F C 0.12429(7) 0.38695(7) 0.55783(7)
C48K C 0.05783(7) 0.37571(7) 0.61305(7)
C49F C 0.21507(6) 0.11611(6) 0.78028(8)
C49K C 0.28028(8) 0.28493(6) 0.88389(6)
H21K H 0.2977 0.2900 0.8925
H21F H 0.2100 0.1075 0.7977
C50F C 0.13596(7) 0.12602(11) 0.74603(8)
C50K C 0.24603(8) 0.36404(7) 0.87398(11)
H22K H 0.2262 0.3611 0.8747
H22F H 0.1389 0.1253 0.7262
C51K C 0.38232(10) 0.39963(8) 0.71772(8)
C51F C 0.10037(8) 0.28228(8) 0.88232(10)
H23F H 0.1197 0.2869 0.8855
H23K H 0.3855 0.3803 0.7131
C52F C -0.02463(7) 0.24952(6) 0.71507(6)
C52K C 0.21507(6) 0.52463(7) 0.75048(6)
H24K H 0.2104 0.5268 0.7311
H24F H -0.0268 0.2689 0.7104
C53F C -0.03573(7) 0.20348(7) 0.63970(6)
C53K C 0.13970(6) 0.53573(7) 0.79652(7)
H25K H 0.1454 0.5454 0.8132
H25F H -0.0454 0.1868 0.6454
C54F C 0.13773(11) 0.10349(10) 0.56379(11)
C54K C 0.06379(11) 0.36227(11) 0.89651(10)
C55F C 0.06541(7) 0.27491(7) 0.47509(9)
C55K C -0.02491(9) 0.43459(7) 0.72509(7)
C56F C 0.11105(7) 0.34807(6) 0.48875(9)
C56K C -0.01125(9) 0.38895(7) 0.65193(6)
H26F H 0.1296 0.3408 0.4857
H26K H -0.0143 0.3704 0.6592
C57F C 0.19115(8) 0.07959(7) 0.75929(7)
C57K C 0.25929(7) 0.30885(8) 0.92041(7)
H27K H 0.2798 0.3118 0.9248
H27F H 0.1882 0.0752 0.7798
C58F C 0.16212(8) 0.08286(7) 0.74473(9)
C58K C 0.24473(9) 0.33788(8) 0.91714(7)
H28K H 0.2244 0.3348 0.9120
H28F H 0.1652 0.0880 0.7244
C59K C 0.24602(14) 0.35500(9) 0.94498(9)
C59F C 0.14500(9) 0.05502(9) 0.74602(14)
H29K H 0.2659 0.3598 0.9496
H29F H 0.1402 0.0504 0.7659
H30K H 0.2352 0.3728 0.9430
H30F H 0.1272 0.0570 0.7352
C60K C 0.23409(15) 0.33793(12) 0.96664(9)
C60F C 0.16207(12) 0.03336(9) 0.73409(15)
H31K H 0.2143 0.3335 0.9613
H31F H 0.1665 0.0387 0.7143
H32K H 0.2334 0.3493 0.9842
H32F H 0.1507 0.0158 0.7334
C61K C 0.24903(13) 0.31022(9) 0.97323(7)
C61F C 0.18978(9) 0.02677(7) 0.74903(13)
H33K H 0.2398 0.3001 0.9890
H33F H 0.1999 0.0110 0.7398
H34K H 0.2692 0.3133 0.9779
H34F H 0.1867 0.0221 0.7692
C62K C 0.24548(7) 0.29412(7) 0.94482(7)
C62F C 0.20588(7) 0.05518(7) 0.74548(7)
H35K H 0.2537 0.2750 0.9468
H35F H 0.2250 0.0532 0.7537
H36K H 0.2250 0.2919 0.9408
H36F H 0.2081 0.0592 0.7250
C63F C -0.06763(6) 0.24247(6) 0.69048(6)
C63K C 0.19048(6) 0.56763(6) 0.75753(6)
H37K H 0.1847 0.5628 0.7377
H37F H -0.0628 0.2623 0.6847
C64F C -0.07107(6) 0.22704(6) 0.66361(6)
C64K C 0.16361(6) 0.57107(6) 0.77296(6)
H38K H 0.1686 0.5752 0.7931
H38F H -0.0752 0.2069 0.6686
C65K C 0.14704(5) 0.59546(6) 0.76260(6)
C65F C -0.09546(6) 0.23740(6) 0.64704(5)
H39K H 0.1304 0.5982 0.7750
H39F H -0.0982 0.2250 0.6304
H40K H 0.1400 0.5912 0.7433
H40F H -0.0912 0.2567 0.6400
C66K C 0.16390(6) 0.62231(5) 0.76180(7)
C66F C -0.12231(5) 0.23820(7) 0.66390(6)
H41K H 0.1701 0.6274 0.7811
H41F H -0.1274 0.2189 0.6701
H42K H 0.1520 0.6379 0.7544
H42F H -0.1379 0.2456 0.6520
C67K C 0.18989(7) 0.61814(6) 0.74251(8)
C67F C -0.11814(6) 0.25749(8) 0.68989(7)
H43K H 0.2014 0.6357 0.7420
H43F H -0.1357 0.2580 0.7014
H44K H 0.1838 0.6136 0.7230
H44F H -0.1136 0.2770 0.6838
C68K C 0.20749(5) 0.59352(5) 0.75478(6)
C68F C -0.09352(5) 0.24522(6) 0.70749(5)
H45K H 0.2238 0.5898 0.7422
H45F H -0.0898 0.2578 0.7238
H46K H 0.2149 0.5990 0.7736
H46F H -0.0990 0.2264 0.7149
C69F C 0.16886(9) 0.07005(9) 0.58252(13)
C69K C 0.08252(13) 0.33114(9) 0.92995(9)
C70K C 0.42516(11) 0.40320(10) 0.69828(9)
C70F C 0.09680(10) 0.30172(9) 0.92516(11)
C71F C 0.09060(8) 0.28368(8) 0.94950(10)
C71K C 0.44950(10) 0.40940(8) 0.71632(8)
C72F C 0.10085(13) 0.30077(10) 0.97761(16)
C72K C 0.47761(16) 0.39915(13) 0.69923(10)
C73F C 0.08593(12) 0.32572(11) 0.98488(15)
C73K C 0.48488(15) 0.41407(12) 0.67428(11)
C74K C 0.09174(12) 0.34715(9) 0.95627(8)
C74F C 0.15285(9) 0.04373(8) 0.59174(12)
C75F C 0.08733(8) 0.30304(8) 0.44147(7)
C75K C -0.05853(7) 0.41267(8) 0.69696(8)
C76F C 0.10577(8) 0.32822(9) 0.44605(8)
C76K C -0.05395(8) 0.39423(8) 0.67178(9)
C77F C 0.10321(8) 0.34942(6) 0.42032(7)
C77K C -0.07968(7) 0.39679(8) 0.65058(6)
C78F C 0.11290(12) 0.33575(7) 0.39354(7)
C78K C -0.10646(7) 0.38710(12) 0.66425(7)
C79F C 0.09225(9) 0.30723(9) 0.38814(6)
C79K C -0.11186(6) 0.40775(9) 0.69277(9)
C80F C 0.09417(8) 0.28838(7) 0.41218(7)
C80K C -0.08782(7) 0.40583(8) 0.71162(7)
loop_
_geom_bond_atom_site_label_1
_geom_bond_atom_site_label_2
_geom_bond_site_symmetry_1
_geom_bond_site_symmetry_2
N1 C1 1_555 1_555
N2 C7 1_555 1_555
N3 C25 1_555 1_555
N4 C43 1_555 1_555
N5 C49 1_555 1_555
N6 C50 1_555 1_555
N7 C52 1_555 1_555
N8 C53 1_555 1_555
N9 C54 1_555 1_555
N10 C51 1_555 1_555
N11 C55 1_555 1_555
N12 C56 1_555 1_555
N13 C81 1_555 1_555
N14 C87 1_555 1_555
N15 C105 1_555 1_555
N16 C123 1_555 1_555
N17 C129 1_555 1_555
N18 C130 1_555 1_555
N19 C132 1_555 1_555
N20 C133 1_555 1_555
N21 C134 1_555 1_555
N22 C131 1_555 1_555
N23 C135 1_555 1_555
N24 C136 1_555 1_555
C1 C2 1_555 1_555
C2 H1 1_555 1_555
C3 C2 1_555 1_555
H2 C3 1_555 1_555
C4 C3 1_555 1_555
C5 C4 1_555 1_555
H3 C5 1_555 1_555
C6 C1 1_555 1_555
H4 C6 1_555 1_555
C7 C8 1_555 1_555
C8 H5 1_555 1_555
C9 C8 1_555 1_555
H6 C9 1_555 1_555
C10 C9 1_555 1_555
C11 C10 1_555 1_555
H7 C11 1_555 1_555
C12 C7 1_555 1_555
H8 C12 1_555 1_555
C13 N2 1_555 1_555
C14 C13 1_555 1_555
H9 C14 1_555 1_555
C15 C14 1_555 1_555
H10 C15 1_555 1_555
C16 C15 1_555 1_555
C17 C16 1_555 1_555
H11 C17 1_555 1_555
C18 C13 1_555 1_555
H12 C18 1_555 1_555
C19 N2 1_555 1_555
C20 C19 1_555 1_555
H13 C20 1_555 1_555
C21 C20 1_555 1_555
H14 C21 1_555 1_555
C22 C21 1_555 1_555
C23 C22 1_555 1_555
H15 C23 1_555 1_555
C24 C19 1_555 1_555
H16 C24 1_555 1_555
C25 C26 1_555 1_555
C26 H17 1_555 1_555
C27 C26 1_555 1_555
H18 C27 1_555 1_555
C28 C27 1_555 1_555
C29 C28 1_555 1_555
H19 C29 1_555 1_555
C30 C25 1_555 1_555
H20 C30 1_555 1_555
C31 N3 1_555 1_555
C32 C31 1_555 1_555
C33 C32 1_555 1_555
C34 C33 1_555 1_555
C35 C34 1_555 1_555
C36 C31 1_555 1_555
C37 N3 1_555 1_555
C38 C37 1_555 1_555
C39 C38 1_555 1_555
C40 C39 1_555 1_555
C41 C40 1_555 1_555
C42 C37 1_555 1_555
C43 C44 1_555 1_555
C44 C45 1_555 1_555
C45 C46 1_555 1_555
C46 C47 1_555 1_555
C47 C48 1_555 1_555
C48 C43 1_555 1_555
C49 C4 1_555 1_555
H21 C49 1_555 1_555
C50 C10 1_555 1_555
H22 C50 1_555 1_555
C51 C16 1_555 1_555
H23 C51 1_555 1_555
C52 C22 1_555 1_555
H24 C52 1_555 1_555
C53 C28 1_555 1_555
H25 C53 1_555 1_555
C54 C34 1_555 1_555
C55 C40 1_555 1_555
C56 C46 1_555 1_555
H26 C56 1_555 1_555
C57 N5 1_555 1_555
H27 C57 1_555 1_555
C58 N6 1_555 1_555
H28 C58 1_555 1_555
C59 C58 1_555 1_555
H29 C59 1_555 1_555
H30 C59 1_555 1_555
C60 C59 1_555 1_555
H31 C60 1_555 1_555
H32 C60 1_555 1_555
C61 C60 1_555 1_555
H33 C61 1_555 1_555
H34 C61 1_555 1_555
C62 C57 1_555 1_555
H35 C62 1_555 1_555
H36 C62 1_555 1_555
C63 N7 1_555 1_555
H37 C63 1_555 1_555
C64 N8 1_555 1_555
H38 C64 1_555 1_555
C65 C64 1_555 1_555
H39 C65 1_555 1_555
H40 C65 1_555 1_555
C66 C65 1_555 1_555
H41 C66 1_555 1_555
H42 C66 1_555 1_555
C67 C66 1_555 1_555
H43 C67 1_555 1_555
H44 C67 1_555 1_555
C68 C63 1_555 1_555
H45 C68 1_555 1_555
H46 C68 1_555 1_555
C69 N9 1_555 1_555
C70 N10 1_555 1_555
C71 C70 1_555 1_555
C72 C71 1_555 1_555
C73 C72 1_555 1_555
C74 C69 1_555 1_555
C75 N11 1_555 1_555
C76 N12 1_555 1_555
C77 C76 1_555 1_555
C78 C77 1_555 1_555
C79 C78 1_555 1_555
C80 C75 1_555 1_555
C81 C82 1_555 1_555
C82 C83 1_555 1_555
C83 C84 1_555 1_555
C84 C85 1_555 1_555
C85 C86 1_555 1_555
C86 C81 1_555 1_555
H47 C86 1_555 1_555
C87 C88 1_555 1_555
C88 H48 1_555 1_555
C89 C88 1_555 1_555
H49 C89 1_555 1_555
C90 C89 1_555 1_555
C91 C90 1_555 1_555
H50 C91 1_555 1_555
C92 C87 1_555 1_555
H51 C92 1_555 1_555
C93 N14 1_555 1_555
C94 C93 1_555 1_555
H52 C94 1_555 1_555
C95 C94 1_555 1_555
H53 C95 1_555 1_555
C96 C95 1_555 1_555
C97 C96 1_555 1_555
H54 C97 1_555 1_555
C98 C93 1_555 1_555
H55 C98 1_555 1_555
C99 N14 1_555 1_555
C100 C99 1_555 1_555
H56 C100 1_555 1_555
C101 C100 1_555 1_555
H57 C101 1_555 1_555
C102 C101 1_555 1_555
C103 C102 1_555 1_555
H58 C103 1_555 1_555
C104 C99 1_555 1_555
H59 C104 1_555 1_555
C105 C106 1_555 1_555
C106 H60 1_555 1_555
C107 C106 1_555 1_555
H61 C107 1_555 1_555
C108 C107 1_555 1_555
C109 C108 1_555 1_555
H62 C109 1_555 1_555
C110 C105 1_555 1_555
H63 C110 1_555 1_555
C111 N15 1_555 1_555
C112 C111 1_555 1_555
H64 C112 1_555 1_555
C113 C112 1_555 1_555
H65 C113 1_555 1_555
C114 C113 1_555 1_555
C115 C114 1_555 1_555
H66 C115 1_555 1_555
C116 C111 1_555 1_555
H67 C116 1_555 1_555
C117 N15 1_555 1_555
C118 C117 1_555 1_555
H68 C118 1_555 1_555
C119 C118 1_555 1_555
H69 C119 1_555 1_555
C120 C119 1_555 1_555
C121 C120 1_555 1_555
H70 C121 1_555 1_555
C122 C117 1_555 1_555
H71 C122 1_555 1_555
C123 C124 1_555 1_555
C124 H72 1_555 1_555
C125 C124 1_555 1_555
H73 C125 1_555 1_555
C126 C125 1_555 1_555
C127 C126 1_555 1_555
H74 C127 1_555 1_555
C128 C123 1_555 1_555
H75 C128 1_555 1_555
C129 C84 1_555 1_555
H76 C129 1_555 1_555
C130 C90 1_555 1_555
H77 C130 1_555 1_555
C131 C96 1_555 1_555
H78 C131 1_555 1_555
C132 C102 1_555 1_555
H79 C132 1_555 1_555
C133 C108 1_555 1_555
H80 C133 1_555 1_555
C134 C114 1_555 1_555
H81 C134 1_555 1_555
C135 C120 1_555 1_555
H82 C135 1_555 1_555
C136 C126 1_555 1_555
H83 C136 1_555 1_555
C137 N17 1_555 1_555
H84 C137 1_555 1_555
C138 N18 1_555 1_555
H85 C138 1_555 1_555
C139 C138 1_555 1_555
H86 C139 1_555 1_555
H87 C139 1_555 1_555
C140 C139 1_555 1_555
H88 C140 1_555 1_555
H89 C140 1_555 1_555
C141 C140 1_555 1_555
H90 C141 1_555 1_555
H91 C141 1_555 1_555
C142 C137 1_555 1_555
H92 C142 1_555 1_555
H93 C142 1_555 1_555
C143 N19 1_555 1_555
H94 C143 1_555 1_555
C144 N20 1_555 1_555
H95 C144 1_555 1_555
C145 C144 1_555 1_555
H96 C145 1_555 1_555
H97 C145 1_555 1_555
C146 C145 1_555 1_555
H98 C146 1_555 1_555
H99 C146 1_555 1_555
C147 C146 1_555 1_555
H100 C147 1_555 1_555
H101 C147 1_555 1_555
C148 C143 1_555 1_555
H102 C148 1_555 1_555
H103 C148 1_555 1_555
C149 N21 1_555 1_555
H104 C149 1_555 1_555
C150 N22 1_555 1_555
H105 C150 1_555 1_555
C151 C150 1_555 1_555
H106 C151 1_555 1_555
H107 C151 1_555 1_555
C152 C151 1_555 1_555
H108 C152 1_555 1_555
H109 C152 1_555 1_555
C153 C152 1_555 1_555
H110 C153 1_555 1_555
H111 C153 1_555 1_555
C154 C149 1_555 1_555
H112 C154 1_555 1_555
H113 C154 1_555 1_555
C155 N23 1_555 1_555
H114 C155 1_555 1_555
C156 N24 1_555 1_555
H115 C156 1_555 1_555
C157 C156 1_555 1_555
H116 C157 1_555 1_555
H117 C157 1_555 1_555
C158 C157 1_555 1_555
H118 C158 1_555 1_555
H119 C158 1_555 1_555
C159 C158 1_555 1_555
H120 C159 1_555 1_555
H121 C159 1_555 1_555
C160 C155 1_555 1_555
H122 C160 1_555 1_555
H123 C160 1_555 1_555
N2F C7F 1_555 1_555
N2K C7K 1_555 1_555
N3F C25F 1_555 1_555
N3K C25K 1_555 1_555
N5F C49F 1_555 1_555
N5K C49K 1_555 1_555
N6F C50F 1_555 1_555
N6K C50K 1_555 1_555
N7F C52F 1_555 1_555
N7K C52K 1_555 1_555
N8F C53F 1_555 1_555
N8K C53K 1_555 1_555
N9F C54F 1_555 1_555
N9K C54K 1_555 1_555
N10K C51K 1_555 1_555
N10F C51F 1_555 1_555
N11F C55F 1_555 1_555
N11K C55K 1_555 1_555
N12F C56F 1_555 1_555
N12K C56K 1_555 1_555
N14G C87G 1_555 1_555
N14I C87I 1_555 1_555
N15G C105G 1_555 1_555
N15I C105I 1_555 1_555
N17G C129G 1_555 1_555
N17I C129I 1_555 1_555
N18G C130G 1_555 1_555
N18I C130I 1_555 1_555
N19G C132G 1_555 1_555
N19I C132I 1_555 1_555
N20G C133G 1_555 1_555
N20I C133I 1_555 1_555
N21G C134G 1_555 1_555
N21I C134I 1_555 1_555
N22I C131I 1_555 1_555
N22G C131G 1_555 1_555
N23G C135G 1_555 1_555
N23I C135I 1_555 1_555
N24G C136G 1_555 1_555
N24I C136I 1_555 1_555
C1F N1 1_555 1_555
C1K N1 1_555 1_555
C2F C1F 1_555 1_555
C2K C1K 1_555 1_555
H1K C2K 1_555 1_555
H1F C2F 1_555 1_555
C3F C2F 1_555 1_555
C3K C2K 1_555 1_555
H2K C3K 1_555 1_555
H2F C3F 1_555 1_555
C4F C3F 1_555 1_555
C4K C3K 1_555 1_555
C5K C4K 1_555 1_555
C5F C4F 1_555 1_555
H3K C5K 1_555 1_555
H3F C5F 1_555 1_555
C6K C1K 1_555 1_555
C6F C1F 1_555 1_555
H4K C6K 1_555 1_555
H4F C6F 1_555 1_555
C7F C8F 1_555 1_555
C7K C8K 1_555 1_555
C8F H5F 1_555 1_555
C8K H5K 1_555 1_555
C9F C8F 1_555 1_555
C9K C8K 1_555 1_555
H6F C9F 1_555 1_555
H6K C9K 1_555 1_555
C10F C9F 1_555 1_555
C10K C9K 1_555 1_555
C11F C10F 1_555 1_555
C11K C10K 1_555 1_555
H7F C11F 1_555 1_555
H7K C11K 1_555 1_555
C12F C7F 1_555 1_555
C12K C7K 1_555 1_555
H8F C12F 1_555 1_555
H8K C12K 1_555 1_555
C13K N2K 1_555 1_555
C13F N2F 1_555 1_555
C14K C13K 1_555 1_555
C14F C13F 1_555 1_555
H9K C14K 1_555 1_555
H9F C14F 1_555 1_555
C15K C14K 1_555 1_555
C15F C14F 1_555 1_555
H10K C15K 1_555 1_555
H10F C15F 1_555 1_555
C16K C15K 1_555 1_555
C16F C15F 1_555 1_555
C17K C16K 1_555 1_555
C17F C16F 1_555 1_555
H11K C17K 1_555 1_555
H11F C17F 1_555 1_555
C18K C13K 1_555 1_555
C18F C13F 1_555 1_555
H12K C18K 1_555 1_555
H12F C18F 1_555 1_555
C19F N2F 1_555 1_555
C19K N2K 1_555 1_555
C20F C19F 1_555 1_555
C20K C19K 1_555 1_555
H13K C20K 1_555 1_555
H13F C20F 1_555 1_555
C21F C20F 1_555 1_555
C21K C20K 1_555 1_555
H14K C21K 1_555 1_555
H14F C21F 1_555 1_555
C22F C21F 1_555 1_555
C22K C21K 1_555 1_555
C23K C22K 1_555 1_555
C23F C22F 1_555 1_555
H15K C23K 1_555 1_555
H15F C23F 1_555 1_555
C24K C19K 1_555 1_555
C24F C19F 1_555 1_555
H16K C24K 1_555 1_555
H16F C24F 1_555 1_555
C25F C26F 1_555 1_555
C25K C26K 1_555 1_555
C26F H17F 1_555 1_555
C26K H17K 1_555 1_555
C27F C26F 1_555 1_555
C27K C26K 1_555 1_555
H18F C27F 1_555 1_555
H18K C27K 1_555 1_555
C28F C27F 1_555 1_555
C28K C27K 1_555 1_555
C29F C28F 1_555 1_555
C29K C28K 1_555 1_555
H19F C29F 1_555 1_555
H19K C29K 1_555 1_555
C30F C25F 1_555 1_555
C30K C25K 1_555 1_555
H20F C30F 1_555 1_555
H20K C30K 1_555 1_555
C31F N3F 1_555 1_555
C31K N3K 1_555 1_555
C32F C31F 1_555 1_555
C32K C31K 1_555 1_555
C33F C32F 1_555 1_555
C33K C32K 1_555 1_555
C34F C33F 1_555 1_555
C34K C33K 1_555 1_555
C35K C34K 1_555 1_555
C35F C34F 1_555 1_555
C36K C31K 1_555 1_555
C36F C31F 1_555 1_555
C37F N3F 1_555 1_555
C37K N3K 1_555 1_555
C38F C37F 1_555 1_555
C38K C37K 1_555 1_555
C39F C38F 1_555 1_555
C39K C38K 1_555 1_555
C40F C39F 1_555 1_555
C40K C39K 1_555 1_555
C41F C40F 1_555 1_555
C41K C40K 1_555 1_555
C42F C37F 1_555 1_555
C42K C37K 1_555 1_555
C43F N4 1_555 1_555
C43K N4 1_555 1_555
C44F C43F 1_555 1_555
C44K C43K 1_555 1_555
C45F C44F 1_555 1_555
C45K C44K 1_555 1_555
C46F C45F 1_555 1_555
C46K C45K 1_555 1_555
C47F C46F 1_555 1_555
C47K C46K 1_555 1_555
C48F C43F 1_555 1_555
C48K C43K 1_555 1_555
C49F C4F 1_555 1_555
C49K C4K 1_555 1_555
H21K C49K 1_555 1_555
H21F C49F 1_555 1_555
C50F C10F 1_555 1_555
C50K C10K 1_555 1_555
H22K C50K 1_555 1_555
H22F C50F 1_555 1_555
C51K C16K 1_555 1_555
C51F C16F 1_555 1_555
H23F C51F 1_555 1_555
H23K C51K 1_555 1_555
C52F C22F 1_555 1_555
C52K C22K 1_555 1_555
H24K C52K 1_555 1_555
H24F C52F 1_555 1_555
C53F C28F 1_555 1_555
C53K C28K 1_555 1_555
H25K C53K 1_555 1_555
H25F C53F 1_555 1_555
C54F C34F 1_555 1_555
C54K C34K 1_555 1_555
C55F C40F 1_555 1_555
C55K C40K 1_555 1_555
C56F C46F 1_555 1_555
C56K C46K 1_555 1_555
H26F C56F 1_555 1_555
H26K C56K 1_555 1_555
C57F N5F 1_555 1_555
C57K N5K 1_555 1_555
H27K C57K 1_555 1_555
H27F C57F 1_555 1_555
C58F N6F 1_555 1_555
C58K N6K 1_555 1_555
H28K C58K 1_555 1_555
H28F C58F 1_555 1_555
C59K C58K 1_555 1_555
C59F C58F 1_555 1_555
H29K C59K 1_555 1_555
H29F C59F 1_555 1_555
H30K C59K 1_555 1_555
H30F C59F 1_555 1_555
C60K C59K 1_555 1_555
C60F C59F 1_555 1_555
H31K C60K 1_555 1_555
H31F C60F 1_555 1_555
H32K C60K 1_555 1_555
H32F C60F 1_555 1_555
C61K C60K 1_555 1_555
C61F C60F 1_555 1_555
H33K C61K 1_555 1_555
H33F C61F 1_555 1_555
H34K C61K 1_555 1_555
H34F C61F 1_555 1_555
C62K C57K 1_555 1_555
C62F C57F 1_555 1_555
H35K C62K 1_555 1_555
H35F C62F 1_555 1_555
H36K C62K 1_555 1_555
H36F C62F 1_555 1_555
C63F N7F 1_555 1_555
C63K N7K 1_555 1_555
H37K C63K 1_555 1_555
H37F C63F 1_555 1_555
C64F N8F 1_555 1_555
C64K N8K 1_555 1_555
H38K C64K 1_555 1_555
H38F C64F 1_555 1_555
C65K C64K 1_555 1_555
C65F C64F 1_555 1_555
H39K C65K 1_555 1_555
H39F C65F 1_555 1_555
H40K C65K 1_555 1_555
H40F C65F 1_555 1_555
C66K C65K 1_555 1_555
C66F C65F 1_555 1_555
H41K C66K 1_555 1_555
H41F C66F 1_555 1_555
H42K C66K 1_555 1_555
H42F C66F 1_555 1_555
C67K C66K 1_555 1_555
C67F C66F 1_555 1_555
H43K C67K 1_555 1_555
H43F C67F 1_555 1_555
H44K C67K 1_555 1_555
H44F C67F 1_555 1_555
C68K C63K 1_555 1_555
C68F C63F 1_555 1_555
H45K C68K 1_555 1_555
H45F C68F 1_555 1_555
H46K C68K 1_555 1_555
H46F C68F 1_555 1_555
C69F C70 1_555 1_555
C69K N9K 1_555 1_555
C70K C69 1_555 1_555
C70F N10F 1_555 1_555
C71F C70F 1_555 1_555
C71K C70K 1_555 1_555
C72F C71F 1_555 1_555
C72K C71K 1_555 1_555
C73F C72F 1_555 1_555
C73K C74 1_555 1_555
C74K C69K 1_555 1_555
C74F C73 1_555 1_555
C75F N11F 1_555 1_555
C75K N11K 1_555 1_555
C76F N12F 1_555 1_555
C76K N12K 1_555 1_555
C77F C76F 1_555 1_555
C77K C76K 1_555 1_555
C78F C77F 1_555 1_555
C78K C77K 1_555 1_555
C79F C78F 1_555 1_555
C79K C78K 1_555 1_555
C80F C75F 1_555 1_555
C80K C75K 1_555 1_555
C81G N13 1_555 1_555
C81I N13 1_555 1_555
C82G C81G 1_555 1_555
C82I C81I 1_555 1_555
C83G C82G 1_555 1_555
C83I C82I 1_555 1_555
C84G C83G 1_555 1_555
C84I C83I 1_555 1_555
C85I C84I 1_555 1_555
C85G C84G 1_555 1_555
C86I C81I 1_555 1_555
C86G C81G 1_555 1_555
H47I C86I 1_555 1_555
H47G C86G 1_555 1_555
C87G C88G 1_555 1_555
C87I C88I 1_555 1_555
C88G H48G 1_555 1_555
C88I H48I 1_555 1_555
C89G C88G 1_555 1_555
C89I C88I 1_555 1_555
H49G C89G 1_555 1_555
H49I C89I 1_555 1_555
C90G C89G 1_555 1_555
C90I C89I 1_555 1_555
C91G C90G 1_555 1_555
C91I C90I 1_555 1_555
H50G C91G 1_555 1_555
H50I C91I 1_555 1_555
C92G C87G 1_555 1_555
C92I C87I 1_555 1_555
H51G C92G 1_555 1_555
H51I C92I 1_555 1_555
C93I N14I 1_555 1_555
C93G N14G 1_555 1_555
C94I C93I 1_555 1_555
C94G C93G 1_555 1_555
H52I C94I 1_555 1_555
H52G C94G 1_555 1_555
C95I C94I 1_555 1_555
C95G C94G 1_555 1_555
H53I C95I 1_555 1_555
H53G C95G 1_555 1_555
C96I C95I 1_555 1_555
C96G C95G 1_555 1_555
C97I C96I 1_555 1_555
C97G C96G 1_555 1_555
H54I C97I 1_555 1_555
H54G C97G 1_555 1_555
C98I C93I 1_555 1_555
C98G C93G 1_555 1_555
H55I C98I 1_555 1_555
H55G C98G 1_555 1_555
C99G N14G 1_555 1_555
C99I N14I 1_555 1_555
C100G C99G 1_555 1_555
C100I C99I 1_555 1_555
H56I C100I 1_555 1_555
H56G C100G 1_555 1_555
C101G C100G 1_555 1_555
C101I C100I 1_555 1_555
H57I C101I 1_555 1_555
H57G C101G 1_555 1_555
C102G C101G 1_555 1_555
C102I C101I 1_555 1_555
C103I C102I 1_555 1_555
C103G C102G 1_555 1_555
H58I C103I 1_555 1_555
H58G C103G 1_555 1_555
C104I C99I 1_555 1_555
C104G C99G 1_555 1_555
H59I C104I 1_555 1_555
H59G C104G 1_555 1_555
C105G C106G 1_555 1_555
C105I C106I 1_555 1_555
C106G H60G 1_555 1_555
C106I H60I 1_555 1_555
C107G C106G 1_555 1_555
C107I C106I 1_555 1_555
H61G C107G 1_555 1_555
H61I C107I 1_555 1_555
C108G C107G 1_555 1_555
C108I C107I 1_555 1_555
C109G C108G 1_555 1_555
C109I C108I 1_555 1_555
H62G C109G 1_555 1_555
H62I C109I 1_555 1_555
C110G C105G 1_555 1_555
C110I C105I 1_555 1_555
H63G C110G 1_555 1_555
H63I C110I 1_555 1_555
C111G N15G 1_555 1_555
C111I N15I 1_555 1_555
C112G C111G 1_555 1_555
C112I C111I 1_555 1_555
H64I C112I 1_555 1_555
H64G C112G 1_555 1_555
C113G C112G 1_555 1_555
C113I C112I 1_555 1_555
H65I C113I 1_555 1_555
H65G C113G 1_555 1_555
C114G C113G 1_555 1_555
C114I C113I 1_555 1_555
C115I C114I 1_555 1_555
C115G C114G 1_555 1_555
H66I C115I 1_555 1_555
H66G C115G 1_555 1_555
C116I C111I 1_555 1_555
C116G C111G 1_555 1_555
H67I C116I 1_555 1_555
H67G C116G 1_555 1_555
C117G N15G 1_555 1_555
C117I N15I 1_555 1_555
C118G C117G 1_555 1_555
C118I C117I 1_555 1_555
H68G C118G 1_555 1_555
H68I C118I 1_555 1_555
C119G C118G 1_555 1_555
C119I C118I 1_555 1_555
H69G C119G 1_555 1_555
H69I C119I 1_555 1_555
C120G C119G 1_555 1_555
C120I C119I 1_555 1_555
C121G C120G 1_555 1_555
C121I C120I 1_555 1_555
H70G C121G 1_555 1_555
H70I C121I 1_555 1_555
C122G C117G 1_555 1_555
C122I C117I 1_555 1_555
H71G C122G 1_555 1_555
H71I C122I 1_555 1_555
C123G N16 1_555 1_555
C123I N16 1_555 1_555
C124G C123G 1_555 1_555
C124I C123I 1_555 1_555
H72G C124G 1_555 1_555
H72I C124I 1_555 1_555
C125G C124G 1_555 1_555
C125I C124I 1_555 1_555
H73G C125G 1_555 1_555
H73I C125I 1_555 1_555
C126G C125G 1_555 1_555
C126I C125I 1_555 1_555
C127G C126G 1_555 1_555
C127I C126I 1_555 1_555
H74G C127G 1_555 1_555
H74I C127I 1_555 1_555
C128G C123G 1_555 1_555
C128I C123I 1_555 1_555
H75G C128G 1_555 1_555
H75I C128I 1_555 1_555
C129G C84G 1_555 1_555
C129I C84I 1_555 1_555
H76I C129I 1_555 1_555
H76G C129G 1_555 1_555
C130G C90G 1_555 1_555
C130I C90I 1_555 1_555
H77I C130I 1_555 1_555
H77G C130G 1_555 1_555
C131I C96I 1_555 1_555
C131G C96G 1_555 1_555
H78G C131G 1_555 1_555
H78I C131I 1_555 1_555
C132G C102G 1_555 1_555
C132I C102I 1_555 1_555
H79I C132I 1_555 1_555
H79G C132G 1_555 1_555
C133G C108G 1_555 1_555
C133I C108I 1_555 1_555
H80I C133I 1_555 1_555
H80G C133G 1_555 1_555
C134G C114G 1_555 1_555
C134I C114I 1_555 1_555
H81I C134I 1_555 1_555
H81G C134G 1_555 1_555
C135G C120G 1_555 1_555
C135I C120I 1_555 1_555
H82G C135G 1_555 1_555
H82I C135I 1_555 1_555
C136G C126G 1_555 1_555
C136I C126I 1_555 1_555
H83G C136G 1_555 1_555
H83I C136I 1_555 1_555
C137G N17G 1_555 1_555
C137I N17I 1_555 1_555
H84I C137I 1_555 1_555
H84G C137G 1_555 1_555
C138G N18G 1_555 1_555
C138I N18I 1_555 1_555
H85I C138I 1_555 1_555
H85G C138G 1_555 1_555
C139I C138I 1_555 1_555
C139G C138G 1_555 1_555
H86I C139I 1_555 1_555
H86G C139G 1_555 1_555
H87I C139I 1_555 1_555
H87G C139G 1_555 1_555
C140I C139I 1_555 1_555
C140G C139G 1_555 1_555
H88I C140I 1_555 1_555
H88G C140G 1_555 1_555
H89I C140I 1_555 1_555
H89G C140G 1_555 1_555
C141I C140I 1_555 1_555
C141G C140G 1_555 1_555
H90I C141I 1_555 1_555
H90G C141G 1_555 1_555
H91I C141I 1_555 1_555
H91G C141G 1_555 1_555
C142I C137I 1_555 1_555
C142G C137G 1_555 1_555
H92I C142I 1_555 1_555
H92G C142G 1_555 1_555
H93I C142I 1_555 1_555
H93G C142G 1_555 1_555
C143G N19G 1_555 1_555
C143I N19I 1_555 1_555
H94I C143I 1_555 1_555
H94G C143G 1_555 1_555
C144G N20G 1_555 1_555
C144I N20I 1_555 1_555
H95I C144I 1_555 1_555
H95G C144G 1_555 1_555
C145I C144I 1_555 1_555
C145G C144G 1_555 1_555
H96I C145I 1_555 1_555
H96G C145G 1_555 1_555
H97I C145I 1_555 1_555
H97G C145G 1_555 1_555
C146I C145I 1_555 1_555
C146G C145G 1_555 1_555
H98I C146I 1_555 1_555
H98G C146G 1_555 1_555
H99I C146I 1_555 1_555
H99G C146G 1_555 1_555
C147I C146I 1_555 1_555
C147G C146G 1_555 1_555
H100I C147I 1_555 1_555
H100G C147G 1_555 1_555
H101I C147I 1_555 1_555
H101G C147G 1_555 1_555
C148I C143I 1_555 1_555
C148G C143G 1_555 1_555
H102I C148I 1_555 1_555
H102G C148G 1_555 1_555
H103I C148I 1_555 1_555
H103G C148G 1_555 1_555
C149G C150 1_555 1_555
C149I N21I 1_555 1_555
H104I C149I 1_555 1_555
H104G C149G 1_555 1_555
C150I C149 1_555 1_555
C150G N22G 1_555 1_555
H105G C150G 1_555 1_555
H105I C150I 1_555 1_555
C151G C150G 1_555 1_555
C151I C150I 1_555 1_555
H106G C151G 1_555 1_555
H106I C151I 1_555 1_555
H107G C151G 1_555 1_555
H107I C151I 1_555 1_555
C152G C151G 1_555 1_555
C152I C151I 1_555 1_555
H108G C152G 1_555 1_555
H108I C152I 1_555 1_555
H109G C152G 1_555 1_555
H109I C152I 1_555 1_555
C153G C152G 1_555 1_555
C153I C154 1_555 1_555
H110G C153G 1_555 1_555
H110I C153I 1_555 1_555
H111G C153G 1_555 1_555
H111I C153I 1_555 1_555
C154I C149I 1_555 1_555
C154G C153 1_555 1_555
H112I C154I 1_555 1_555
H112G C154G 1_555 1_555
H113I C154I 1_555 1_555
H113G C154G 1_555 1_555
C155G N23G 1_555 1_555
C155I N23I 1_555 1_555
H114G C155G 1_555 1_555
H114I C155I 1_555 1_555
C156G N24G 1_555 1_555
C156I N24I 1_555 1_555
H115G C156G 1_555 1_555
H115I C156I 1_555 1_555
C157G C156G 1_555 1_555
C157I C156I 1_555 1_555
H116G C157G 1_555 1_555
H116I C157I 1_555 1_555
H117G C157G 1_555 1_555
H117I C157I 1_555 1_555
C158G C157G 1_555 1_555
C158I C157I 1_555 1_555
H118G C158G 1_555 1_555
H118I C158I 1_555 1_555
H119G C158G 1_555 1_555
H119I C158I 1_555 1_555
C159G C158G 1_555 1_555
C159I C158I 1_555 1_555
H120G C159G 1_555 1_555
H120I C159I 1_555 1_555
H121G C159G 1_555 1_555
H121I C159I 1_555 1_555
C160G C155G 1_555 1_555
C160I C155I 1_555 1_555
H122G C160G 1_555 1_555
H122I C160I 1_555 1_555
H123G C160G 1_555 1_555
H123I C160I 1_555 1_555
C5 C6 1_555 1_555
C11 C12 1_555 1_555
C17 C18 1_555 1_555
C23 C24 1_555 1_555
C29 C30 1_555 1_555
C35 C36 1_555 1_555
C41 C42 1_555 1_555
C57 C58 1_555 1_555
C61 C62 1_555 1_555
C63 C64 1_555 1_555
C67 C68 1_555 1_555
C75 C76 1_555 1_555
C79 C80 1_555 1_555
C91 C92 1_555 1_555
C97 C98 1_555 1_555
C103 C104 1_555 1_555
C109 C110 1_555 1_555
C115 C116 1_555 1_555
C121 C122 1_555 1_555
C127 C128 1_555 1_555
C137 C138 1_555 1_555
C141 C142 1_555 1_555
C143 C144 1_555 1_555
C147 C148 1_555 1_555
C155 C156 1_555 1_555
C159 C160 1_555 1_555
N9F C69F 1_555 1_555
N10K C70K 1_555 1_555
N21G C149G 1_555 1_555
N22I C150I 1_555 1_555
C5K C6K 1_555 1_555
C5F C6F 1_555 1_555
C11F C12F 1_555 1_555
C11K C12K 1_555 1_555
C17K C18K 1_555 1_555
C17F C18F 1_555 1_555
C23K C24K 1_555 1_555
C23F C24F 1_555 1_555
C29F C30F 1_555 1_555
C29K C30K 1_555 1_555
C35K C36K 1_555 1_555
C35F C36F 1_555 1_555
C41F C42F 1_555 1_555
C41K C42K 1_555 1_555
C47F C48F 1_555 1_555
C47K C48K 1_555 1_555
C57F C58F 1_555 1_555
C57K C58K 1_555 1_555
C61K C62K 1_555 1_555
C61F C62F 1_555 1_555
C63F C64F 1_555 1_555
C63K C64K 1_555 1_555
C67K C68K 1_555 1_555
C67F C68F 1_555 1_555
C69F C74F 1_555 1_555
C69K C70F 1_555 1_555
C72K C73K 1_555 1_555
C73F C74K 1_555 1_555
C75F C76F 1_555 1_555
C75K C76K 1_555 1_555
C79F C80F 1_555 1_555
C79K C80K 1_555 1_555
C85I C86I 1_555 1_555
C85G C86G 1_555 1_555
C91G C92G 1_555 1_555
C91I C92I 1_555 1_555
C97I C98I 1_555 1_555
C97G C98G 1_555 1_555
C103I C104I 1_555 1_555
C103G C104G 1_555 1_555
C109G C110G 1_555 1_555
C109I C110I 1_555 1_555
C115I C116I 1_555 1_555
C115G C116G 1_555 1_555
C121G C122G 1_555 1_555
C121I C122I 1_555 1_555
C127G C128G 1_555 1_555
C127I C128I 1_555 1_555
C137G C138G 1_555 1_555
C137I C138I 1_555 1_555
C141I C142I 1_555 1_555
C141G C142G 1_555 1_555
C143G C144G 1_555 1_555
C143I C144I 1_555 1_555
C147I C148I 1_555 1_555
C147G C148G 1_555 1_555
C149G C154G 1_555 1_555
C149I C150G 1_555 1_555
C152I C153I 1_555 1_555
C153G C154I 1_555 1_555
C155G C156G 1_555 1_555
C155I C156I 1_555 1_555
C159G C160G 1_555 1_555
C159I C160I 1_555 1_555

#END
