
#######################################################################
#
#                 Cambridge Crystallographic Data Centre
#                                CCDC 
#
#######################################################################
#
# If this CIF has been generated from an entry in the Cambridge 
# Structural Database, then it will include bibliographic, chemical, 
# crystal, experimental, refinement or atomic coordinate data resulting 
# from the CCDC's data processing and validation procedures.
#
#######################################################################

data_KATJEW
_chemical_formula_moiety         'C240 H216 N32,75(C1 H2 Cl2)'
_chemical_name_systematic        
'1,4,6,9,12,14,17,20,22,25,28,30,33,36,38,41,44,46,51,53,56,59,61,66,68,71,74,76,81,83,88,90-dotriacontaaza-2,8,10,16,18,24,26,32,34,40,42,48,49,55,57,63,64,70,72,78,79,85,86,92(1,4)-tetracosabenzena-5,13,21,29,37,45,52,60,67,75,82,89(1,2)-dodecacyclohex-4-ena-pentacyclo(31.15.15,15^9,41^.7^25,71^.7^17,56^)dononacontaphane-3,6,11,14,19,22,27,30,35,38,43,46,50,53,58,61,65,68,73,76,80,83,87,90-tetracosaene dichloromethane solvate'
_symmetry_cell_setting           cubic
_symmetry_space_group_name_H-M   'P 21 3'
_symmetry_Int_Tables_number      198
_space_group_name_Hall           'P 2ac 2ab 3'
loop_
_symmetry_equiv_pos_site_id
_symmetry_equiv_pos_as_xyz
1 x,y,z
2 1/2-x,-y,1/2+z
3 -x,1/2+y,1/2-z
4 1/2+x,1/2-y,-z
5 z,x,y
6 1/2+z,1/2-x,-y
7 1/2-z,-x,1/2+y
8 -z,1/2+x,1/2-y
9 y,z,x
10 -y,1/2+z,1/2-x
11 1/2+y,1/2-z,-x
12 1/2-y,-z,1/2+x
_cell_length_a                   46.875(3)
_cell_length_b                   46.875(3)
_cell_length_c                   46.875(3)
_cell_angle_alpha                90
_cell_angle_beta                 90
_cell_angle_gamma                90
_cell_volume                     102997
_exptl_crystal_colour            'pale yellow'
_exptl_crystal_description       block
_cell_formula_units_Z            8
loop_
_atom_site_label
_atom_site_type_symbol
_atom_site_fract_x
_atom_site_fract_y
_atom_site_fract_z
N13 N 0.21851(5) 0.71851(5) 0.78149(5)
N14 N 0.20237(9) 0.70632(9) 0.56300(10)
N15 N 0.23575(8) 0.92520(9) 0.57816(8)
N16 N 0.45342(6) 0.95342(6) 0.54658(6)
N17 N 0.09954(10) 0.72857(10) 0.71062(8)
N18 N 0.09765(9) 0.72918(9) 0.64984(9)
N19 N 0.23626(9) 0.78811(8) 0.46000(8)
N20 N 0.24024(11) 0.85015(8) 0.46408(10)
N21 N 0.11639(11) 0.90537(10) 0.64737(9)
N22 N 0.10415(9) 0.90439(9) 0.70670(8)
N23 N 0.30162(7) 1.04593(9) 0.58314(10)
N24 N 0.36240(7) 1.05267(8) 0.57988(8)
C81 C 0.19408(9) 0.72704(12) 0.76445(7)
C82 C 0.17487(11) 0.70402(10) 0.75720(8)
H73 H 0.1786 0.6851 0.7635
C83 C 0.15185(10) 0.70982(10) 0.74151(8)
H74 H 0.1395 0.6946 0.7365
C84 C 0.14493(12) 0.73801(14) 0.73193(10)
C85 C 0.16446(12) 0.75741(9) 0.73959(9)
H75 H 0.1619 0.7763 0.7327
C86 C 0.18830(9) 0.75253(10) 0.75680(9)
H76 H 0.2000 0.7680 0.7627
C87 C 0.17876(12) 0.70492(15) 0.58425(13)
C88 C 0.16617(13) 0.68233(10) 0.59090(10)
H77 H 0.1735 0.6650 0.5833
C89 C 0.14325(12) 0.68061(11) 0.60778(11)
H78 H 0.1342 0.6628 0.6109
C90 C 0.13329(11) 0.70388(14) 0.62004(12)
C91 C 0.14786(11) 0.73015(11) 0.61409(10)
H79 H 0.1411 0.7477 0.6217
C92 C 0.17033(11) 0.72946(11) 0.59822(11)
H80 H 0.1814 0.7463 0.5961
C93 C 0.22377(10) 0.68409(11) 0.56677(12)
C94 C 0.23333(10) 0.67023(12) 0.54233(11)
H81 H 0.2280 0.6763 0.5237
C95 C 0.25008(11) 0.64819(11) 0.54654(12)
H82 H 0.2546 0.6373 0.5301
C96 C 0.26145(12) 0.63932(13) 0.57054(12)
C97 C 0.25212(10) 0.65238(11) 0.59258(10)
H83 H 0.2590 0.6461 0.6106
C98 C 0.23254(10) 0.67522(11) 0.59256(10)
H84 H 0.2260 0.6838 0.6097
C99 C 0.20285(13) 0.72454(11) 0.54149(11)
C100 C 0.17984(9) 0.73813(11) 0.53051(10)
H85 H 0.1616 0.7346 0.5387
C101 C 0.18176(10) 0.75643(9) 0.50845(11)
H86 H 0.1651 0.7642 0.4999
C102 C 0.20813(13) 0.76343(9) 0.49869(9)
C103 C 0.23145(10) 0.75299(10) 0.50734(9)
H87 H 0.2491 0.7577 0.4987
C104 C 0.22972(10) 0.73300(10) 0.53171(10)
H88 H 0.2466 0.7260 0.5406
C105 C 0.24183(13) 0.90856(9) 0.55309(10)
C106 C 0.26825(11) 0.90307(10) 0.54538(10)
H89 H 0.2836 0.9105 0.5564
C107 C 0.27400(10) 0.88708(10) 0.52226(12)
H90 H 0.2932 0.8833 0.5172
C108 C 0.25108(14) 0.87569(11) 0.50514(12)
C109 C 0.22507(12) 0.88127(10) 0.51457(11)
H91 H 0.2095 0.8742 0.5037
C110 C 0.21902(10) 0.89622(9) 0.53847(12)
H92 H 0.2000 0.8983 0.5451
C111 C 0.21047(10) 0.91632(12) 0.59696(8)
C112 C 0.20875(10) 0.88817(10) 0.60323(10)
H93 H 0.2230 0.8747 0.5979
C113 C 0.18461(12) 0.88090(9) 0.61799(10)
H94 H 0.1815 0.8615 0.6230
C114 C 0.16403(11) 0.90197(14) 0.62607(11)
C115 C 0.16913(11) 0.92784(12) 0.62005(10)
H95 H 0.1563 0.9422 0.6265
C116 C 0.19113(12) 0.93521(10) 0.60550(9)
H96 H 0.1937 0.9547 0.6007
C117 C 0.24971(10) 0.94989(11) 0.58497(11)
C118 C 0.25680(9) 0.95607(9) 0.61253(10)
H97 H 0.2522 0.9436 0.6278
C119 C 0.27129(9) 0.98198(13) 0.61695(10)
H98 H 0.2757 0.9870 0.6361
C120 C 0.27967(10) 1.00069(12) 0.59589(15)
C121 C 0.27456(8) 0.99212(10) 0.56847(11)
H99 H 0.2818 1.0030 0.5530
C122 C 0.25845(8) 0.96690(10) 0.56296(9)
H100 H 0.2538 0.9619 0.5439
C123 C 0.43291(8) 0.97300(8) 0.54851(10)
C124 C 0.42265(10) 0.98267(8) 0.57470(10)
H101 H 0.4301 0.9746 0.5917
C125 C 0.40120(9) 1.00442(10) 0.57683(9)
H102 H 0.3930 1.0093 0.5947
C126 C 0.39293(8) 1.01807(9) 0.55185(11)
C127 C 0.40247(9) 1.00756(9) 0.52578(9)
H103 H 0.3944 1.0151 0.5088
C128 C 0.42324(8) 0.98661(10) 0.52354(9)
H104 H 0.4308 0.9815 0.5054
C129 C 0.11998(13) 0.74276(11) 0.71732(10)
H105 H 0.1184 0.7619 0.7109
C130 C 0.10771(10) 0.70792(11) 0.64010(10)
H106 H 0.0984 0.6908 0.6456
C131 C 0.28449(12) 0.61515(9) 0.57236(11)
H107 H 0.2924 0.6083 0.5550
C132 C 0.21135(10) 0.78360(9) 0.46978(9)
H108 H 0.1950 0.7916 0.4608
C133 C 0.25941(13) 0.85744(14) 0.48123(12)
H109 H 0.2786 0.8514 0.4788
C134 C 0.13564(12) 0.89063(11) 0.64297(9)
H110 H 0.1350 0.8714 0.6493
C135 C 0.29600(9) 1.02702(12) 0.60326(12)
H111 H 0.3023 1.0302 0.6223
C136 C 0.37196(9) 1.04360(9) 0.55460(10)
H112 H 0.3658 1.0531 0.5378
C137 C 0.07542(11) 0.74132(11) 0.69526(10)
H113 H 0.0790 0.7619 0.6910
C138 C 0.07110(10) 0.72458(12) 0.66858(11)
H114 H 0.0675 0.7039 0.6725
C139 C 0.04656(10) 0.73840(12) 0.65093(9)
H115 H 0.0532 0.7568 0.6431
H116 H 0.0418 0.7258 0.6347
C140 C 0.02171(10) 0.74314(14) 0.66743(13)
H117 H 0.0038 0.7460 0.6584
C141 C 0.02369(10) 0.74348(14) 0.69614(12)
H118 H 0.0069 0.7481 0.7065
C142 C 0.04902(10) 0.73755(11) 0.71262(9)
H119 H 0.0482 0.7177 0.7198
H120 H 0.0497 0.7505 0.7293
C143 C 0.23262(12) 0.80732(11) 0.43509(9)
H121 H 0.2122 0.8126 0.4316
C144 C 0.25236(12) 0.83413(11) 0.44000(11)
H122 H 0.2723 0.8280 0.4444
C145 C 0.25172(11) 0.85259(10) 0.41232(10)
H123 H 0.2331 0.8623 0.4105
H124 H 0.2669 0.8673 0.4131
C146 C 0.25607(19) 0.83463(12) 0.38920(14)
H125 H 0.2653 0.8436 0.3735
C147 C 0.25022(14) 0.80872(15) 0.38486(11)
H126 H 0.2478 0.8020 0.3659
C148 C 0.24722(10) 0.78952(8) 0.40795(10)
H127 H 0.2661 0.7819 0.4136
H128 H 0.2348 0.7733 0.4024
C149 C 0.09289(11) 0.88855(10) 0.66006(10)
H129 H 0.0984 0.8684 0.6642
C150 C 0.08294(11) 0.90510(10) 0.68705(11)
H130 H 0.0786 0.9253 0.6819
C151 C 0.05569(8) 0.89107(10) 0.70194(11)
H131 H 0.0609 0.8730 0.7116
H132 H 0.0473 0.9042 0.7162
C152 C 0.03552(12) 0.88577(10) 0.67823(15)
H133 H 0.0165 0.8826 0.6844
C153 C 0.03865(12) 0.88447(11) 0.64929(14)
H134 H 0.0232 0.8798 0.6370
C154 C 0.06776(11) 0.89089(9) 0.63808(10)
H135 H 0.0677 0.9105 0.6302
H136 H 0.0717 0.8777 0.6221
C155 C 0.31743(12) 1.07199(10) 0.59488(11)
H137 H 0.3223 1.0691 0.6155
C156 C 0.34362(11) 1.07750(10) 0.57804(11)
H138 H 0.3384 1.0811 0.5577
C157 C 0.35841(8) 1.10087(9) 0.58885(10)
H139 H 0.3736 1.1063 0.5752
H140 H 0.3677 1.0954 0.6070
C158 C 0.33835(11) 1.12745(11) 0.59428(13)
H141 H 0.3458 1.1462 0.5958
C159 C 0.31183(12) 1.12234(10) 0.59647(12)
H142 H 0.3004 1.1382 0.6019
C160 C 0.29571(9) 1.09478(10) 0.59174(11)
H143 H 0.2804 1.0925 0.6061
H144 H 0.2871 1.0943 0.5724
N14G N 0.43700(10) 0.70237(9) 0.79368(9)
N14J N 0.20632(9) 0.93700(10) 0.79763(9)
N15G N 0.42184(8) 0.73575(8) 0.57480(9)
N15J N 0.42520(9) 0.92184(8) 0.76425(8)
N17G N 0.28938(8) 0.59954(10) 0.77143(10)
N17J N 0.22857(10) 0.78938(8) 0.90046(10)
N18G N 0.35016(9) 0.59765(9) 0.77082(9)
N18J N 0.22918(9) 0.85016(9) 0.90235(9)
N19G N 0.54000(8) 0.73626(9) 0.71189(8)
N19J N 0.28811(8) 1.04000(8) 0.76374(9)
N20G N 0.53592(10) 0.74024(11) 0.64985(8)
N20J N 0.35015(8) 1.03592(10) 0.75976(11)
N21G N 0.35263(9) 0.61639(11) 0.59463(10)
N21J N 0.40537(10) 0.85263(9) 0.88361(11)
N22G N 0.29330(8) 0.60415(9) 0.59561(9)
N22J N 0.40439(9) 0.79330(8) 0.89585(9)
N23G N 0.41686(10) 0.80162(7) 0.45407(9)
N23J N 0.54593(9) 0.91686(10) 0.69838(7)
N24G N 0.42012(8) 0.86240(7) 0.44733(8)
N24J N 0.55267(8) 0.92012(8) 0.63760(7)
C81G C 0.23555(7) 0.69408(9) 0.77296(12)
C81J C 0.22704(12) 0.73555(7) 0.80592(9)
C82G C 0.24280(8) 0.67487(11) 0.79598(10)
C82J C 0.20402(10) 0.74280(8) 0.82513(11)
H73G H 0.2365 0.6786 0.8149
H73J H 0.1851 0.7365 0.8214
C83G C 0.25849(8) 0.65185(10) 0.79018(10)
C83J C 0.20982(10) 0.75849(8) 0.84815(10)
H74G H 0.2635 0.6395 0.8054
H74J H 0.1946 0.7635 0.8605
C84G C 0.26807(10) 0.64493(12) 0.76199(14)
C84J C 0.23801(14) 0.76807(10) 0.85507(12)
C85G C 0.26041(9) 0.66446(12) 0.74259(9)
C85J C 0.25741(9) 0.76041(9) 0.83554(12)
H75G H 0.2673 0.6619 0.7237
H75J H 0.2763 0.7673 0.8381
C86G C 0.24320(9) 0.68830(9) 0.74747(10)
C86J C 0.25253(10) 0.74320(9) 0.81170(9)
H76G H 0.2373 0.7000 0.7320
H76J H 0.2680 0.7373 0.8000
C87G C 0.41575(13) 0.67876(12) 0.79508(15)
C87J C 0.20492(15) 0.91575(13) 0.82124(12)
C88G C 0.40910(10) 0.66617(13) 0.81767(10)
C88J C 0.18233(10) 0.90910(10) 0.83383(13)
H77G H 0.4167 0.6735 0.8350
H77J H 0.1650 0.9167 0.8265
C89G C 0.39222(11) 0.64325(12) 0.81939(11)
C89J C 0.18061(11) 0.89222(11) 0.85675(12)
H78G H 0.3891 0.6342 0.8372
H78J H 0.1628 0.8891 0.8658
C90G C 0.37996(12) 0.63329(11) 0.79612(14)
C90J C 0.20388(14) 0.87996(12) 0.86671(11)
C91G C 0.38591(10) 0.64786(11) 0.76985(11)
C91J C 0.23015(11) 0.88591(10) 0.85214(11)
H79G H 0.3783 0.6411 0.7523
H79J H 0.2477 0.8783 0.8589
C92G C 0.40178(11) 0.67033(11) 0.77054(11)
C92J C 0.22946(11) 0.90178(11) 0.82967(11)
H80G H 0.4039 0.6814 0.7537
H80J H 0.2463 0.9039 0.8186
C93G C 0.43323(12) 0.72377(10) 0.81591(11)
C93J C 0.18409(11) 0.93323(12) 0.77623(10)
C94G C 0.45767(11) 0.73333(10) 0.82977(12)
C94J C 0.17023(12) 0.95767(11) 0.76667(10)
H81G H 0.4763 0.7280 0.8237
H81J H 0.1763 0.9763 0.7720
C95G C 0.45346(12) 0.75008(11) 0.85181(11)
C95J C 0.14819(11) 0.95346(12) 0.74992(11)
H82G H 0.4699 0.7546 0.8627
H82J H 0.1373 0.9699 0.7454
C96G C 0.42946(12) 0.76145(12) 0.86068(13)
C96J C 0.13932(13) 0.92946(12) 0.73855(12)
C97G C 0.40742(10) 0.75212(10) 0.84762(11)
C97J C 0.15238(11) 0.90742(10) 0.74788(10)
H83G H 0.3894 0.7590 0.8539
H83J H 0.1461 0.8894 0.7410
C98G C 0.40744(10) 0.73254(10) 0.82478(11)
C98J C 0.17522(11) 0.90744(10) 0.76746(10)
H84G H 0.3903 0.7260 0.8162
H84J H 0.1838 0.8903 0.7740
C99G C 0.45851(11) 0.70285(13) 0.77546(11)
C99J C 0.22454(11) 0.95851(11) 0.79715(13)
C100G C 0.46949(10) 0.67984(9) 0.76187(11)
C100J C 0.23813(11) 0.96949(10) 0.82016(9)
H85G H 0.4613 0.6616 0.7654
H85J H 0.2346 0.9613 0.8384
C101G C 0.49155(11) 0.68176(10) 0.74357(9)
C101J C 0.25643(9) 0.99155(11) 0.81824(10)
H86G H 0.5001 0.6651 0.7358
H86J H 0.2642 1.0001 0.8349
C102G C 0.50131(9) 0.70813(13) 0.73657(9)
C102J C 0.26343(9) 1.00131(9) 0.79187(13)
C103G C 0.49266(9) 0.73145(10) 0.74701(10)
C103J C 0.25299(10) 0.99266(9) 0.76855(10)
H87G H 0.5013 0.7491 0.7423
H87J H 0.2577 1.0013 0.7509
C104G C 0.46829(10) 0.72972(10) 0.76700(10)
C104J C 0.23300(10) 0.96829(10) 0.77028(10)
H88G H 0.4594 0.7466 0.7740
H88J H 0.2260 0.9594 0.7534
C105G C 0.44691(10) 0.74183(13) 0.59144(9)
C105J C 0.40856(9) 0.94691(10) 0.75817(13)
C106G C 0.45462(10) 0.76825(11) 0.59693(10)
C106J C 0.40307(10) 0.95462(10) 0.73175(11)
H89G H 0.4436 0.7836 0.5895
H89J H 0.4105 0.9436 0.7164
C107G C 0.47774(12) 0.77400(10) 0.61292(10)
C107J C 0.38708(10) 0.97774(12) 0.72600(10)
H90G H 0.4828 0.7932 0.6167
H90J H 0.3833 0.9828 0.7068
C108G C 0.49486(12) 0.75108(14) 0.62431(11)
C108J C 0.37569(11) 0.99486(12) 0.74892(14)
C109G C 0.48543(11) 0.72507(12) 0.61873(10)
C109J C 0.38127(10) 0.98543(11) 0.77493(12)
H91G H 0.4963 0.7095 0.6258
H91J H 0.3742 0.9963 0.7905
C110G C 0.46153(12) 0.71902(10) 0.60378(9)
C110J C 0.39622(9) 0.96153(12) 0.78098(10)
H92G H 0.4549 0.7000 0.6017
H92J H 0.3983 0.9549 0.8000
C111G C 0.40304(8) 0.71047(10) 0.58368(12)
C111J C 0.41632(12) 0.90304(8) 0.78953(10)
C112G C 0.39677(10) 0.70875(10) 0.61183(10)
C112J C 0.38817(10) 0.89677(10) 0.79125(10)
H93G H 0.4021 0.7230 0.6253
H93J H 0.3747 0.9021 0.7770
C113G C 0.38201(10) 0.68461(12) 0.61910(9)
C113J C 0.38090(9) 0.88201(10) 0.81539(12)
H94G H 0.3770 0.6815 0.6385
H94J H 0.3615 0.8770 0.8185
C114G C 0.37393(11) 0.66403(11) 0.59803(14)
C114J C 0.40197(14) 0.87393(11) 0.83597(11)
C115G C 0.37995(10) 0.66913(11) 0.57216(12)
C115J C 0.42784(12) 0.87995(10) 0.83087(11)
H95G H 0.3735 0.6563 0.5578
H95J H 0.4422 0.8735 0.8437
C116G C 0.39450(9) 0.69113(12) 0.56479(10)
C116J C 0.43521(10) 0.89450(9) 0.80887(12)
H96G H 0.3993 0.6937 0.5453
H96J H 0.4547 0.8993 0.8063
C117G C 0.41503(11) 0.74971(10) 0.55011(11)
C117J C 0.44989(11) 0.91503(11) 0.75029(10)
C118G C 0.38747(10) 0.75680(9) 0.54393(9)
C118J C 0.45607(9) 0.88747(10) 0.74320(9)
H97G H 0.3722 0.7522 0.5564
H97J H 0.4436 0.8722 0.7478
C119G C 0.38305(10) 0.77129(9) 0.51802(13)
C119J C 0.48198(13) 0.88305(10) 0.72871(9)
H98G H 0.3639 0.7757 0.5130
H98J H 0.4870 0.8639 0.7243
C120G C 0.40411(15) 0.77967(10) 0.49931(12)
C120J C 0.50069(12) 0.90411(15) 0.72033(10)
C121G C 0.43153(11) 0.77456(8) 0.50788(10)
C121J C 0.49212(10) 0.93153(11) 0.72544(8)
H99G H 0.4470 0.7818 0.4970
H99J H 0.5030 0.9470 0.7182
C122G C 0.43704(9) 0.75845(8) 0.53310(10)
C122J C 0.46690(10) 0.93704(9) 0.74155(8)
H100G H 0.4561 0.7538 0.5381
H100J H 0.4619 0.9561 0.7462
C123G C 0.45149(10) 0.93291(8) 0.52700(8)
C123J C 0.47300(8) 0.95149(10) 0.56709(8)
C124G C 0.42530(10) 0.92265(10) 0.51733(8)
C124J C 0.48267(8) 0.92530(10) 0.57735(10)
H101G H 0.4083 0.9301 0.5254
H101J H 0.4746 0.9083 0.5699
C125G C 0.42317(9) 0.90120(9) 0.49558(10)
C125J C 0.50442(10) 0.92317(9) 0.59880(9)
H102G H 0.4053 0.8930 0.4907
H102J H 0.5093 0.9053 0.6070
C126G C 0.44815(11) 0.89293(8) 0.48193(9)
C126J C 0.51807(9) 0.94815(11) 0.60707(8)
C127G C 0.47422(9) 0.90247(9) 0.49244(9)
C127J C 0.50756(9) 0.97422(9) 0.59753(9)
H103G H 0.4912 0.8944 0.4849
H103J H 0.5151 0.9912 0.6056
C128G C 0.47646(9) 0.92324(8) 0.51339(10)
C128J C 0.48661(10) 0.97646(9) 0.57676(8)
H104G H 0.4946 0.9308 0.5185
H104J H 0.4815 0.9946 0.5692
C129G C 0.28268(10) 0.61998(13) 0.75724(11)
C129J C 0.24276(11) 0.78268(10) 0.88002(13)
H105G H 0.2891 0.6184 0.7381
H105J H 0.2619 0.7891 0.8816
C130G C 0.35990(10) 0.60771(10) 0.79208(11)
C130J C 0.20792(11) 0.85990(10) 0.89229(10)
H106G H 0.3544 0.5984 0.8092
H106J H 0.1908 0.8544 0.9016
C131G C 0.42764(11) 0.78449(12) 0.88485(9)
C131J C 0.11515(9) 0.92764(11) 0.71551(12)
H107G H 0.4450 0.7924 0.8917
H107J H 0.1083 0.9450 0.7076
C132G C 0.53022(9) 0.71135(10) 0.71640(9)
C132J C 0.28360(9) 1.03022(9) 0.78865(10)
H108G H 0.5392 0.6950 0.7084
H108J H 0.2916 1.0392 0.8050
C133G C 0.51877(12) 0.75941(13) 0.64256(14)
C133J C 0.35744(14) 1.01877(12) 0.74059(13)
H109G H 0.5212 0.7786 0.6486
H109J H 0.3514 1.0212 0.7214
C134G C 0.35703(9) 0.63564(12) 0.60937(11)
C134J C 0.39063(11) 0.85703(9) 0.86436(12)
H110G H 0.3507 0.6350 0.6286
H110J H 0.3714 0.8507 0.8650
C135G C 0.39674(12) 0.79600(9) 0.47298(12)
C135J C 0.52702(12) 0.89674(12) 0.70400(9)
H111G H 0.3777 0.8023 0.4698
H111J H 0.5302 0.8777 0.6977
C136G C 0.44540(10) 0.87196(9) 0.45640(9)
C136J C 0.54360(9) 0.94540(10) 0.62804(9)
H112G H 0.4622 0.8658 0.4469
H112J H 0.5531 0.9622 0.6342
C137G C 0.30474(10) 0.57542(11) 0.75868(11)
C137J C 0.24132(11) 0.80474(10) 0.92458(11)
H113G H 0.3090 0.5790 0.7381
H113J H 0.2619 0.8090 0.9210
C138G C 0.33142(11) 0.57110(10) 0.77542(12)
C138J C 0.22458(12) 0.83142(11) 0.92890(10)
H114G H 0.3275 0.5675 0.7961
H114J H 0.2039 0.8275 0.9325
C139G C 0.34907(9) 0.54656(10) 0.76160(12)
C139J C 0.23840(12) 0.84907(9) 0.95344(10)
H115G H 0.3569 0.5532 0.7432
H115J H 0.2568 0.8569 0.9468
H116G H 0.3653 0.5418 0.7742
H116J H 0.2258 0.8653 0.9582
C140G C 0.33257(13) 0.52171(10) 0.75686(14)
C140J C 0.24314(14) 0.83257(13) 0.97829(10)
H117G H 0.3416 0.5038 0.7540
H117J H 0.2460 0.8416 0.9962
C141G C 0.30386(12) 0.52369(10) 0.75652(14)
C141J C 0.24348(14) 0.80386(12) 0.97631(10)
H118G H 0.2935 0.5069 0.7519
H118J H 0.2481 0.7935 0.9931
C142G C 0.28738(9) 0.54902(10) 0.76245(11)
C142J C 0.23755(11) 0.78738(9) 0.95098(10)
H119G H 0.2802 0.5482 0.7823
H119J H 0.2177 0.7802 0.9518
H120G H 0.2707 0.5497 0.7495
H120J H 0.2505 0.7707 0.9503
C143G C 0.56491(9) 0.73262(12) 0.69268(11)
C143J C 0.30732(11) 1.06491(9) 0.76738(12)
H121G H 0.5684 0.7122 0.6874
H121J H 0.3126 1.0684 0.7878
C144G C 0.56000(11) 0.75236(12) 0.66587(11)
C144J C 0.33413(11) 1.06000(11) 0.74764(12)
H122G H 0.5556 0.7723 0.6720
H122J H 0.3280 1.0556 0.7277
C145G C 0.58768(10) 0.75172(11) 0.64741(10)
C145J C 0.35259(10) 1.08768(10) 0.74828(11)
H123G H 0.5895 0.7331 0.6377
H123J H 0.3623 1.0895 0.7669
H124G H 0.5869 0.7669 0.6327
H124J H 0.3673 1.0869 0.7331
C146G C 0.61080(14) 0.75607(19) 0.66537(12)
C146J C 0.33463(12) 1.11080(14) 0.74393(19)
H125G H 0.6265 0.7653 0.6564
H125J H 0.3436 1.1265 0.7347
C147G C 0.61514(11) 0.75022(14) 0.69128(15)
C147J C 0.30872(15) 1.11514(11) 0.74978(14)
H126G H 0.6341 0.7478 0.6980
H126J H 0.3020 1.1341 0.7522
C148G C 0.59205(10) 0.74722(10) 0.71048(8)
C148J C 0.28952(8) 1.09205(10) 0.75278(10)
H127G H 0.5864 0.7661 0.7181
H127J H 0.2819 1.0864 0.7339
H128G H 0.5976 0.7348 0.7267
H128J H 0.2733 1.0976 0.7652
C149G C 0.33994(10) 0.59289(11) 0.61145(10)
C149J C 0.38855(10) 0.83994(10) 0.90711(11)
H129G H 0.3358 0.5984 0.6316
H129J H 0.3684 0.8358 0.9016
C150G C 0.31295(11) 0.58294(11) 0.59490(10)
C150J C 0.40510(10) 0.81295(11) 0.91706(11)
H130G H 0.3181 0.5786 0.5747
H130J H 0.4253 0.8181 0.9214
C151G C 0.29806(11) 0.55569(8) 0.60893(10)
C151J C 0.39107(10) 0.79806(11) 0.94431(8)
H131G H 0.2884 0.5609 0.6270
H131J H 0.3730 0.7884 0.9391
H132G H 0.2838 0.5473 0.5958
H132J H 0.4042 0.7838 0.9527
C152G C 0.32177(15) 0.53552(12) 0.61423(10)
C152J C 0.38577(10) 0.82177(15) 0.96448(12)
H133G H 0.3156 0.5165 0.6174
H133J H 0.3826 0.8156 0.9835
C153G C 0.35071(14) 0.53865(12) 0.61553(11)
C153J C 0.38447(11) 0.85071(14) 0.96135(12)
H134G H 0.3630 0.5232 0.6202
H134J H 0.3798 0.8630 0.9768
C154G C 0.36192(10) 0.56776(11) 0.60911(9)
C154J C 0.39089(9) 0.86192(10) 0.93224(11)
H135G H 0.3698 0.5677 0.5895
H135J H 0.4105 0.8698 0.9323
H136G H 0.3779 0.5717 0.6223
H136J H 0.3777 0.8779 0.9283
C155G C 0.40512(11) 0.81743(12) 0.42801(10)
C155J C 0.57199(10) 0.90512(11) 0.68257(12)
H137G H 0.3845 0.8223 0.4309
H137J H 0.5691 0.8845 0.6777
C156G C 0.42196(11) 0.84362(11) 0.42250(10)
C156J C 0.57750(10) 0.92196(11) 0.65638(11)
H138G H 0.4423 0.8384 0.4189
H138J H 0.5811 0.9423 0.6616
C157G C 0.41115(10) 0.85841(8) 0.39913(9)
C157J C 0.60087(9) 0.91115(10) 0.64159(8)
H139G H 0.4248 0.8736 0.3937
H139J H 0.6063 0.9248 0.6264
H140G H 0.3930 0.8677 0.4046
H140J H 0.5954 0.8930 0.6323
C158G C 0.40572(13) 0.83835(11) 0.37255(11)
C158J C 0.62745(11) 0.90572(13) 0.66165(11)
H141G H 0.4042 0.8458 0.3538
H141J H 0.6462 0.9042 0.6542
C159G C 0.40353(12) 0.81183(12) 0.37766(10)
C159J C 0.62234(10) 0.90353(12) 0.68817(12)
H142G H 0.3981 0.8004 0.3618
H142J H 0.6382 0.8981 0.6996
C160G C 0.40826(11) 0.79571(9) 0.40522(10)
C160J C 0.59478(10) 0.90826(11) 0.70429(9)
H143G H 0.3939 0.7804 0.4075
H143J H 0.5925 0.8939 0.7196
H144G H 0.4276 0.7871 0.4057
H144J H 0.5943 0.9276 0.7129
N1 N 0.28644(7) 0.21356(7) 0.78644(7)
N2 N 0.27553(8) 0.22053(8) 0.57342(9)
N3 N 0.30958(9) 0.44029(9) 0.55412(8)
N4 N 0.09872(9) 0.40128(9) 0.59872(9)
N5 N 0.39575(8) 0.24032(8) 0.70685(8)
N6 N 0.39157(10) 0.24076(8) 0.64694(7)
N7 N 0.26835(9) 0.29379(7) 0.45637(9)
N8 N 0.27622(7) 0.35352(7) 0.45186(8)
N9 N 0.40845(7) 0.42157(8) 0.64744(8)
N10 N 0.40144(9) 0.42052(9) 0.71066(8)
N11 N 0.21896(9) 0.53650(8) 0.59070(9)
N12 N 0.16113(7) 0.52264(10) 0.60151(9)
C1 C 0.30971(9) 0.21468(14) 0.76907(9)
C2 C 0.32290(11) 0.18953(10) 0.75960(10)
H1 H 0.3153 0.1713 0.7640
C3 C 0.34780(10) 0.19251(10) 0.74339(10)
H2 H 0.3581 0.1756 0.7389
C4 C 0.35836(10) 0.21735(12) 0.73365(9)
C5 C 0.34548(10) 0.24199(9) 0.74208(9)
H3 H 0.3528 0.2601 0.7366
C6 C 0.32170(10) 0.23959(9) 0.75864(9)
H4 H 0.3123 0.2569 0.7636
C7 C 0.29959(11) 0.22820(11) 0.59080(9)
C8 C 0.30372(10) 0.25713(10) 0.59729(9)
H5 H 0.2913 0.2713 0.5900
C9 C 0.32709(13) 0.26455(10) 0.61516(11)
H6 H 0.3284 0.2838 0.6213
C10 C 0.34708(14) 0.24674(13) 0.62390(10)
C11 C 0.34166(10) 0.21761(11) 0.61744(9)
H7 H 0.3542 0.2030 0.6238
C12 C 0.31808(12) 0.21141(9) 0.60192(10)
H8 H 0.3148 0.1917 0.5988
C13 C 0.25960(8) 0.19268(11) 0.57705(14)
C14 C 0.25396(8) 0.18629(10) 0.60685(10)
H9 H 0.2594 0.1983 0.6222
C15 C 0.23929(9) 0.15980(12) 0.61028(10)
H10 H 0.2349 0.1537 0.6291
C16 C 0.23177(9) 0.14395(11) 0.58976(13)
C17 C 0.23695(8) 0.15255(10) 0.56290(10)
H11 H 0.2298 0.1409 0.5479
C18 C 0.25119(9) 0.17605(11) 0.55537(9)
H12 H 0.2551 0.1806 0.5360
C19 C 0.26972(12) 0.23754(9) 0.54901(11)
C20 C 0.24335(10) 0.24315(9) 0.54209(8)
H13 H 0.2283 0.2359 0.5535
C21 C 0.23674(9) 0.26024(9) 0.51734(11)
H14 H 0.2175 0.2642 0.5124
C22 C 0.25857(13) 0.27076(9) 0.50098(9)
C23 C 0.28456(10) 0.26327(9) 0.50922(11)
H15 H 0.2998 0.2692 0.4972
C24 C 0.29183(12) 0.24837(10) 0.53243(11)
H16 H 0.3112 0.2453 0.5374
C25 C 0.30780(12) 0.41741(10) 0.53328(9)
C26 C 0.33263(10) 0.40937(9) 0.51753(11)
H17 H 0.3507 0.4173 0.5221
C27 C 0.33001(10) 0.39005(10) 0.49578(9)
H18 H 0.3464 0.3833 0.4860
C28 C 0.30254(13) 0.38045(10) 0.48822(11)
C29 C 0.27970(10) 0.38705(9) 0.50196(10)
H19 H 0.2619 0.3793 0.4963
C30 C 0.28128(10) 0.40697(11) 0.52693(9)
H20 H 0.2649 0.4120 0.5377
C31 C 0.33460(10) 0.43787(14) 0.57390(9)
C32 C 0.34698(10) 0.46453(10) 0.58017(10)
H21 H 0.3401 0.4816 0.5716
C33 C 0.36871(11) 0.46503(11) 0.59851(10)
H22 H 0.3776 0.4827 0.6030
C34 C 0.37840(11) 0.44088(14) 0.61085(10)
C35 C 0.36623(11) 0.41469(10) 0.60376(9)
H23 H 0.3732 0.3975 0.6119
C36 C 0.34421(11) 0.41423(11) 0.58497(12)
H24 H 0.3357 0.3965 0.5798
C37 C 0.28825(13) 0.46139(11) 0.55676(13)
C38 C 0.27467(11) 0.47056(12) 0.53536(11)
H25 H 0.2790 0.4631 0.5170
C39 C 0.25325(10) 0.49149(12) 0.53777(11)
H26 H 0.2441 0.4981 0.5209
C40 C 0.24528(10) 0.50247(11) 0.56293(12)
C41 C 0.25981(10) 0.49007(9) 0.58629(9)
H27 H 0.2554 0.4959 0.6052
C42 C 0.27993(9) 0.46993(10) 0.58174(11)
H28 H 0.2886 0.4614 0.5980
C43 C 0.11639(8) 0.42489(11) 0.60450(13)
C44 C 0.12361(9) 0.44317(11) 0.58195(10)
H29 H 0.1184 0.4385 0.5629
C45 C 0.13854(10) 0.46832(10) 0.58757(10)
H30 H 0.1455 0.4796 0.5723
C46 C 0.14325(10) 0.47673(10) 0.61559(13)
C47 C 0.13531(10) 0.45901(12) 0.63702(10)
H31 H 0.1401 0.4639 0.6561
C48 C 0.12082(10) 0.43461(11) 0.63223(11)
H32 H 0.1136 0.4240 0.6479
C49 C 0.38478(10) 0.21922(10) 0.71495(10)
H33 H 0.3932 0.2017 0.7092
C50 C 0.36989(12) 0.25646(10) 0.63910(11)
H34 H 0.3700 0.2760 0.6444
C51 C 0.21696(9) 0.11698(12) 0.59647(9)
H35 H 0.2119 0.1138 0.6158
C52 C 0.25069(9) 0.28724(9) 0.47402(11)
H36 H 0.2314 0.2925 0.4710
C53 C 0.30010(10) 0.36072(9) 0.46168(9)
H37 H 0.3170 0.3540 0.4527
C54 C 0.40069(9) 0.44321(10) 0.63272(11)
H38 H 0.4095 0.4611 0.6360
C55 C 0.22469(10) 0.52746(10) 0.56671(11)
H39 H 0.2162 0.5361 0.5504
C56 C 0.15675(10) 0.50397(13) 0.61981(10)
H40 H 0.1630 0.5081 0.6386
C57 C 0.42121(10) 0.23723(9) 0.68878(10)
H41 H 0.4269 0.2169 0.6856
C58 C 0.41584(11) 0.25390(9) 0.66067(10)
H42 H 0.4123 0.2746 0.6645
C59 C 0.44174(10) 0.24979(12) 0.64137(11)
H43 H 0.4440 0.2293 0.6368
H44 H 0.4388 0.2602 0.6233
C60 C 0.46616(12) 0.25968(10) 0.65457(14)
H45 H 0.4814 0.2665 0.6430
C61 C 0.46937(10) 0.26015(11) 0.68300(14)
H46 H 0.4880 0.2634 0.6902
C62 C 0.44571(8) 0.25590(11) 0.70450(11)
H47 H 0.4379 0.2745 0.7107
H48 H 0.4530 0.2457 0.7215
C63 C 0.25921(9) 0.31070(10) 0.43026(9)
H49 H 0.2392 0.3172 0.4339
C64 C 0.27651(9) 0.33633(11) 0.42720(10)
H50 H 0.2966 0.3306 0.4231
C65 C 0.26564(9) 0.35496(8) 0.40260(9)
H51 H 0.2489 0.3661 0.4091
H52 H 0.2807 0.3686 0.3969
C66 C 0.25724(10) 0.33682(11) 0.37688(8)
H53 H 0.2537 0.3463 0.3593
C67 C 0.25439(12) 0.30660(11) 0.37744(9)
H54 H 0.2506 0.2963 0.3604
C68 C 0.25770(8) 0.29058(8) 0.40681(9)
H55 H 0.2412 0.2777 0.4097
H56 H 0.2752 0.2788 0.4065
C69 C 0.43243(10) 0.42447(10) 0.66779(10)
H57 H 0.4359 0.4451 0.6719
C70 C 0.42741(10) 0.40820(10) 0.69591(10)
H58 H 0.4253 0.3872 0.6926
C71 C 0.45120(9) 0.41447(8) 0.71563(8)
H59 H 0.4500 0.4015 0.7322
H60 H 0.4492 0.4342 0.7228
C72 C 0.48072(10) 0.41119(10) 0.70170(11)
H61 H 0.4972 0.4107 0.7136
C73 C 0.48406(10) 0.40894(9) 0.67293(12)
H62 H 0.5026 0.4062 0.6652
C74 C 0.46055(10) 0.41060(10) 0.65457(9)
H63 H 0.4559 0.3911 0.6480
H64 H 0.4662 0.4218 0.6376
C75 C 0.19713(11) 0.55736(10) 0.58998(10)
H65 H 0.1889 0.5583 0.5703
C76 C 0.17457(11) 0.55058(10) 0.61042(11)
H66 H 0.1827 0.5489 0.6301
C77 C 0.14876(10) 0.57363(10) 0.61008(10)
H67 H 0.1374 0.5717 0.5924
H68 H 0.1360 0.5707 0.6266
C78 C 0.16273(15) 0.60295(14) 0.61158(15)
H69 H 0.1515 0.6188 0.6172
C79 C 0.18785(16) 0.60686(13) 0.60586(18)
H70 H 0.1936 0.6263 0.6066
C80 C 0.20954(10) 0.58810(10) 0.59848(11)
H71 H 0.2228 0.5860 0.6148
H72 H 0.2204 0.5960 0.5822
N2E N 0.07342(9) 0.22447(8) 0.77947(8)
N2K N 0.27947(8) 0.42658(9) 0.77553(8)
N3E N 0.05412(8) 0.19042(9) 0.55971(9)
N3K N 0.05971(9) 0.44588(8) 0.80958(9)
N5E N 0.20685(8) 0.10425(8) 0.75968(8)
N5K N 0.25968(8) 0.29315(8) 0.89575(8)
N6E N 0.14694(7) 0.10843(10) 0.75924(8)
N6K N 0.25924(8) 0.35306(7) 0.89157(10)
N7E N -0.04363(9) 0.23165(9) 0.70621(7)
N7K N 0.20621(7) 0.54363(9) 0.76835(9)
N8E N -0.04814(8) 0.22378(7) 0.64648(7)
N8K N 0.14648(7) 0.54814(8) 0.77622(7)
N9E N 0.14744(8) 0.09155(7) 0.57843(8)
N9K N 0.07843(8) 0.35256(8) 0.90845(7)
N10E N 0.21066(8) 0.09856(9) 0.57948(9)
N10K N 0.07948(9) 0.28934(8) 0.90144(9)
N11E N 0.09070(9) 0.28104(9) 0.46350(8)
N11K N -0.03650(8) 0.40930(9) 0.71896(9)
N12E N 0.10151(9) 0.33887(7) 0.47736(10)
N12K N -0.02264(10) 0.39849(9) 0.66113(7)
C1E C 0.26907(9) 0.19029(9) 0.78532(14)
C1K C 0.28532(14) 0.23093(9) 0.80971(9)
C2E C 0.25960(10) 0.17710(11) 0.81047(10)
C2K C 0.31047(10) 0.24040(10) 0.82290(11)
H1E H 0.2640 0.1847 0.8287
H1K H 0.3287 0.2360 0.8153
C3E C 0.24339(10) 0.15220(10) 0.80749(10)
C3K C 0.30749(10) 0.25661(10) 0.84780(10)
H2E H 0.2389 0.1419 0.8244
H2K H 0.3244 0.2611 0.8581
C4E C 0.23365(9) 0.14164(10) 0.78265(12)
C4K C 0.28265(12) 0.26635(9) 0.85836(10)
C5E C 0.24208(9) 0.15452(10) 0.75801(9)
C5K C 0.25801(9) 0.25792(9) 0.84548(10)
H3E H 0.2366 0.1472 0.7399
H3K H 0.2399 0.2634 0.8528
C6E C 0.25864(9) 0.17830(10) 0.76041(9)
C6K C 0.26041(9) 0.24136(9) 0.82170(10)
H4E H 0.2636 0.1877 0.7431
H4K H 0.2431 0.2364 0.8123
C7E C 0.09080(9) 0.20041(11) 0.77180(11)
C7K C 0.27180(11) 0.40920(9) 0.79959(11)
C8E C 0.09729(9) 0.19628(10) 0.74287(10)
C8K C 0.24287(10) 0.40271(9) 0.80372(10)
H5E H 0.0900 0.2087 0.7287
H5K H 0.2287 0.4100 0.7913
C9E C 0.11516(11) 0.17291(13) 0.73545(10)
C9K C 0.23545(10) 0.38484(11) 0.82709(13)
H6E H 0.1213 0.1716 0.7162
H6K H 0.2162 0.3787 0.8284
C10E C 0.12390(10) 0.15292(14) 0.75326(13)
C10K C 0.25326(13) 0.37610(10) 0.84708(14)
C11E C 0.11744(9) 0.15834(10) 0.78239(11)
C11K C 0.28239(11) 0.38256(9) 0.84166(10)
H7E H 0.1238 0.1458 0.7970
H7K H 0.2970 0.3762 0.8542
C12E C 0.10192(10) 0.18192(12) 0.78859(9)
C12K C 0.28859(9) 0.39808(10) 0.81808(12)
H8E H 0.0988 0.1852 0.8083
H8K H 0.3083 0.4012 0.8148
C13E C 0.07705(14) 0.24040(8) 0.80732(11)
C13K C 0.30732(11) 0.42295(14) 0.75960(8)
C14E C 0.10685(10) 0.24604(8) 0.81371(10)
C14K C 0.31371(10) 0.39315(10) 0.75396(8)
H9E H 0.1222 0.2406 0.8017
H9K H 0.3017 0.3778 0.7594
C15E C 0.11028(10) 0.26071(9) 0.84020(12)
C15K C 0.34020(12) 0.38972(10) 0.73929(9)
H10E H 0.1291 0.2651 0.8463
H10K H 0.3463 0.3709 0.7349
C16E C 0.08976(13) 0.26823(9) 0.85605(11)
C16K C 0.35605(11) 0.41024(13) 0.73177(9)
C17E C 0.06290(10) 0.26305(8) 0.84745(10)
C17K C 0.34745(10) 0.43710(10) 0.73695(8)
H11E H 0.0479 0.2702 0.8591
H11K H 0.3591 0.4521 0.7298
C18E C 0.05537(9) 0.24881(9) 0.82395(11)
C18K C 0.32395(11) 0.44463(9) 0.75119(9)
H12E H 0.0360 0.2449 0.8194
H12K H 0.3194 0.4640 0.7551
C19E C 0.04901(11) 0.23028(12) 0.76246(9)
C19K C 0.26246(9) 0.45099(11) 0.76972(12)
C20E C 0.04209(8) 0.25665(10) 0.75685(9)
C20K C 0.25685(9) 0.45791(8) 0.74335(10)
H13E H 0.0535 0.2717 0.7641
H13K H 0.2641 0.4465 0.7283
C21E C 0.01734(11) 0.26326(9) 0.73976(9)
C21K C 0.23976(9) 0.48266(11) 0.73674(9)
H14E H 0.0124 0.2825 0.7358
H14K H 0.2358 0.4876 0.7175
C22E C 0.00098(9) 0.24143(13) 0.72924(9)
C22K C 0.22924(9) 0.49902(9) 0.75857(13)
C23E C 0.00922(11) 0.21544(10) 0.73673(9)
C23K C 0.23673(9) 0.49078(11) 0.78456(10)
H15E H -0.0028 0.2002 0.7308
H15K H 0.2308 0.5028 0.7998
C24E C 0.03243(11) 0.20817(12) 0.75163(10)
C24K C 0.25163(10) 0.46757(11) 0.79183(12)
H16E H 0.0374 0.1888 0.7547
H16K H 0.2547 0.4626 0.8112
C25E C 0.03328(9) 0.19220(12) 0.58259(10)
C25K C 0.08259(10) 0.46672(9) 0.80780(12)
C26E C 0.01753(11) 0.16737(10) 0.59063(9)
C26K C 0.09063(9) 0.48247(11) 0.83263(10)
H17E H 0.0221 0.1493 0.5827
H17K H 0.0827 0.4779 0.8507
C27E C -0.00422(9) 0.16999(10) 0.60995(10)
C27K C 0.10995(10) 0.50422(9) 0.83001(10)
H18E H -0.0140 0.1536 0.6167
H18K H 0.1167 0.5140 0.8464
C28E C -0.01178(11) 0.19746(13) 0.61955(10)
C28K C 0.11955(10) 0.51178(11) 0.80254(13)
C29E C 0.00196(10) 0.22030(10) 0.61295(9)
C29K C 0.11295(9) 0.49804(10) 0.77970(10)
H19E H -0.0037 0.2381 0.6207
H19K H 0.1207 0.5037 0.7619
C30E C 0.02693(9) 0.21872(10) 0.59303(11)
C30K C 0.09303(11) 0.47307(9) 0.78128(10)
H20E H 0.0377 0.2351 0.5880
H20K H 0.0880 0.4623 0.7649
C31E C 0.07390(9) 0.16540(10) 0.56213(14)
C31K C 0.06213(14) 0.42610(9) 0.83460(10)
C32E C 0.08017(10) 0.15302(10) 0.53547(10)
C32K C 0.03547(10) 0.41983(10) 0.84698(10)
H21E H 0.0716 0.1599 0.5184
H21K H 0.0184 0.4284 0.8401
C33E C 0.09851(10) 0.13129(11) 0.53497(11)
C33K C 0.03497(11) 0.40149(10) 0.86871(11)
H22E H 0.1030 0.1224 0.5173
H22K H 0.0173 0.3970 0.8776
C34E C 0.11085(10) 0.12160(11) 0.55912(14)
C34K C 0.05912(14) 0.38915(10) 0.87840(11)
C35E C 0.10376(9) 0.13377(11) 0.58531(10)
C35K C 0.08531(10) 0.39624(9) 0.86623(11)
H23E H 0.1119 0.1268 0.6025
H23K H 0.1025 0.3881 0.8732
C36E C 0.08497(12) 0.15579(11) 0.58577(11)
C36K C 0.08577(11) 0.41503(12) 0.84421(11)
H24E H 0.0798 0.1643 0.6035
H24K H 0.1035 0.4202 0.8357
C37E C 0.05676(13) 0.21175(13) 0.53861(11)
C37K C 0.03861(11) 0.44324(13) 0.78825(13)
C38E C 0.03536(11) 0.22533(11) 0.52944(12)
C38K C 0.02944(12) 0.46464(11) 0.77467(11)
H25E H 0.0170 0.2210 0.5369
H25K H 0.0369 0.4830 0.7790
C39E C 0.03777(11) 0.24675(10) 0.50851(12)
C39K C 0.00851(12) 0.46223(11) 0.75325(10)
H26E H 0.0209 0.2559 0.5019
H26K H 0.0019 0.4791 0.7441
C40E C 0.06293(12) 0.25472(10) 0.49753(11)
C40K C -0.00247(11) 0.43707(12) 0.74528(10)
C41E C 0.08629(9) 0.24019(10) 0.50993(9)
C41K C 0.00993(9) 0.41371(9) 0.75981(10)
H27E H 0.1052 0.2446 0.5041
H27K H 0.0041 0.3948 0.7554
C42E C 0.08174(11) 0.22007(9) 0.53007(10)
C42K C 0.03007(10) 0.41826(11) 0.77993(9)
H28E H 0.0980 0.2114 0.5386
H28K H 0.0386 0.4020 0.7886
C43E C 0.10450(13) 0.38361(8) 0.57511(11)
C43K C 0.07511(11) 0.39550(13) 0.61639(8)
C44E C 0.08195(10) 0.37639(9) 0.55683(11)
C44K C 0.05683(11) 0.41805(10) 0.62361(9)
H29E H 0.0629 0.3816 0.5615
H29K H 0.0615 0.4371 0.6184
C45E C 0.08757(10) 0.36146(10) 0.53168(10)
C45K C 0.03168(10) 0.41243(10) 0.63854(10)
H30E H 0.0723 0.3545 0.5204
H30K H 0.0204 0.4277 0.6455
C46E C 0.11559(13) 0.35675(10) 0.52327(10)
C46K C 0.02327(10) 0.38441(13) 0.64325(10)
C47E C 0.13702(10) 0.36469(10) 0.54099(12)
C47K C 0.04099(12) 0.36298(10) 0.63531(10)
H31E H 0.1561 0.3599 0.5361
H31K H 0.0361 0.3439 0.6401
C48E C 0.13223(11) 0.37918(10) 0.56539(11)
C48K C 0.06539(11) 0.36777(11) 0.62082(10)
H32E H 0.1479 0.3864 0.5760
H32K H 0.0760 0.3521 0.6136
C49E C 0.21495(10) 0.11522(10) 0.78078(10)
C49K C 0.28078(10) 0.28505(10) 0.88478(10)
H33E H 0.2092 0.1068 0.7983
H33K H 0.2983 0.2908 0.8932
C50E C 0.13910(11) 0.13011(12) 0.74354(10)
C50K C 0.24354(10) 0.36090(11) 0.86989(12)
H34E H 0.1444 0.1300 0.7240
H34K H 0.2240 0.3556 0.8700
C51E C 0.09647(9) 0.28304(9) 0.88302(12)
C51K C 0.38302(12) 0.40353(9) 0.71696(9)
H35E H 0.1158 0.2881 0.8862
H35K H 0.3862 0.3842 0.7119
C52E C -0.02598(11) 0.24931(9) 0.71276(9)
C52K C 0.21276(9) 0.52598(11) 0.75069(9)
H36E H -0.0290 0.2686 0.7075
H36K H 0.2075 0.5290 0.7314
C53E C -0.03832(9) 0.19990(10) 0.63928(9)
C53K C 0.13928(9) 0.53832(9) 0.80010(10)
H37E H -0.0473 0.1830 0.6460
H37K H 0.1460 0.5473 0.8170
C54E C 0.13272(11) 0.09931(9) 0.55679(10)
C54K C 0.05679(10) 0.36728(11) 0.90069(9)
H38E H 0.1360 0.0905 0.5389
H38K H 0.0389 0.3640 0.9095
C55E C 0.06671(11) 0.27531(10) 0.47254(10)
C55K C -0.02746(10) 0.43329(11) 0.72469(10)
H39E H 0.0504 0.2838 0.4639
H39K H -0.0361 0.4496 0.7162
C56E C 0.11981(10) 0.34325(10) 0.49603(13)
C56K C -0.00397(13) 0.38019(10) 0.65675(10)
H40E H 0.1386 0.3370 0.4919
H40K H -0.0081 0.3614 0.6630
C57E C 0.18878(10) 0.07879(10) 0.76277(9)
C57K C 0.26277(9) 0.31122(10) 0.92121(10)
H41E H 0.1856 0.0731 0.7831
H41K H 0.2831 0.3144 0.9269
C58E C 0.16067(10) 0.08416(11) 0.74610(9)
C58K C 0.24610(9) 0.33933(10) 0.91584(11)
H42E H 0.1645 0.0877 0.7254
H42K H 0.2254 0.3355 0.9123
C59E C 0.14137(11) 0.05826(10) 0.75021(12)
C59K C 0.25021(12) 0.35863(11) 0.94174(10)
H43E H 0.1368 0.0560 0.7707
H43K H 0.2707 0.3632 0.9440
H44E H 0.1233 0.0612 0.7398
H44K H 0.2398 0.3767 0.9388
C60E C 0.15457(14) 0.03384(12) 0.74032(10)
C60K C 0.24032(10) 0.34543(14) 0.96616(12)
H45E H 0.1430 0.0186 0.7335
H45K H 0.2335 0.3570 0.9814
C61E C 0.18300(14) 0.03063(10) 0.73985(11)
C61K C 0.23985(11) 0.31700(14) 0.96937(10)
H46E H 0.1902 0.0120 0.7366
H46K H 0.2366 0.3098 0.9880
C62E C 0.20450(11) 0.05429(8) 0.74410(11)
C62K C 0.24410(11) 0.29550(11) 0.94571(8)
H47E H 0.2107 0.0621 0.7255
H47K H 0.2255 0.2893 0.9379
H48E H 0.2215 0.0470 0.7543
H48K H 0.2543 0.2785 0.9530
C63E C -0.06974(9) 0.24079(9) 0.68930(10)
C63K C 0.18930(10) 0.56974(9) 0.75921(9)
H49E H -0.0661 0.2608 0.6828
H49K H 0.1828 0.5661 0.7392
C64E C -0.07280(10) 0.22349(9) 0.66367(11)
C64K C 0.16367(11) 0.57280(10) 0.77651(9)
H50E H -0.0769 0.2034 0.6694
H50K H 0.1694 0.5769 0.7966
C65E C -0.09740(9) 0.23436(9) 0.64504(8)
C65K C 0.14504(8) 0.59740(9) 0.76564(9)
H51E H -0.0909 0.2511 0.6339
H51K H 0.1339 0.5909 0.7489
H52E H -0.1031 0.2193 0.6314
H52K H 0.1314 0.6031 0.7807
C66E C -0.12312(8) 0.24276(10) 0.66318(11)
C66K C 0.16318(11) 0.62312(8) 0.75724(10)
H53E H -0.1407 0.2463 0.6537
H53K H 0.1537 0.6407 0.7537
C67E C -0.12256(9) 0.24561(12) 0.69340(11)
C67K C 0.19340(11) 0.62256(9) 0.75439(12)
H54E H -0.1396 0.2494 0.7037
H54K H 0.2037 0.6396 0.7506
C68E C -0.09319(9) 0.24230(8) 0.70942(8)
C68K C 0.20942(8) 0.59319(9) 0.75770(8)
H55E H -0.0903 0.2588 0.7223
H55K H 0.2223 0.5903 0.7412
H56E H -0.0935 0.2248 0.7212
H56K H 0.2212 0.5935 0.7752
C69E C 0.16779(10) 0.06757(10) 0.57553(10)
C69K C 0.07553(10) 0.33221(10) 0.93243(10)
H57E H 0.1719 0.0641 0.5549
H57K H 0.0549 0.3281 0.9359
C70E C 0.19591(10) 0.07259(10) 0.59180(10)
C70K C 0.09180(10) 0.30409(10) 0.92741(10)
H58E H 0.1926 0.0747 0.6128
H58K H 0.1128 0.3074 0.9253
C71E C 0.21563(8) 0.04880(9) 0.58553(8)
C71K C 0.08553(8) 0.28437(8) 0.95120(9)
H59E H 0.2322 0.0500 0.5985
H59K H 0.0985 0.2678 0.9500
H60E H 0.2228 0.0508 0.5658
H60K H 0.0658 0.2772 0.9492
C72E C 0.20170(11) 0.01928(10) 0.58881(10)
C72K C 0.08881(10) 0.29830(11) 0.98072(10)
H61E H 0.2136 0.0028 0.5893
H61K H 0.0893 0.2864 0.9972
C73E C 0.17293(12) 0.01594(10) 0.59106(9)
C73K C 0.09106(9) 0.32707(12) 0.98406(10)
H62E H 0.1652 -0.0026 0.5938
H62K H 0.0938 0.3348 1.0026
C74E C 0.15457(9) 0.03945(10) 0.58940(10)
C74K C 0.08940(10) 0.34543(9) 0.96055(10)
H63E H 0.1480 0.0441 0.6089
H63K H 0.1089 0.3520 0.9559
H64E H 0.1376 0.0338 0.5782
H64K H 0.0782 0.3624 0.9662
C75E C 0.08998(10) 0.30287(11) 0.44264(10)
C75K C -0.05736(10) 0.41002(10) 0.69713(11)
H65E H 0.0703 0.3111 0.4417
H65K H -0.0583 0.4297 0.6889
C76E C 0.11042(11) 0.32543(11) 0.44942(10)
C76K C -0.05058(10) 0.38958(11) 0.67457(11)
H66E H 0.1301 0.3173 0.4511
H66K H -0.0489 0.3699 0.6827
C77E C 0.11008(10) 0.35124(10) 0.42637(10)
C77K C -0.07363(10) 0.38992(10) 0.64876(10)
H67E H 0.0924 0.3626 0.4283
H67K H -0.0717 0.4076 0.6374
H68E H 0.1266 0.3640 0.4293
H68K H -0.0707 0.3734 0.6360
C78E C 0.11158(15) 0.33727(15) 0.39705(14)
C78K C -0.10295(14) 0.38842(15) 0.66273(15)
H69E H 0.1172 0.3485 0.3812
H69K H -0.1188 0.3828 0.6515
C79E C 0.10586(18) 0.31215(16) 0.39314(13)
C79K C -0.10686(13) 0.39414(18) 0.68785(16)
H70E H 0.1066 0.3064 0.3737
H70K H -0.1263 0.3934 0.6936
C80E C 0.09848(11) 0.29046(10) 0.41190(10)
C80K C -0.08810(10) 0.40152(11) 0.70954(10)
H71E H 0.1148 0.2772 0.4140
H71K H -0.0860 0.3852 0.7228
H72E H 0.0822 0.2796 0.4040
H72K H -0.0960 0.4178 0.7204
loop_
_geom_bond_atom_site_label_1
_geom_bond_atom_site_label_2
_geom_bond_site_symmetry_1
_geom_bond_site_symmetry_2
N1 C1 1_555 1_555
N2 C7 1_555 1_555
N3 C25 1_555 1_555
N4 C43 1_555 1_555
N5 C49 1_555 1_555
N6 C50 1_555 1_555
N7 C52 1_555 1_555
N8 C53 1_555 1_555
N9 C54 1_555 1_555
N10 C70 1_555 1_555
N11 C55 1_555 1_555
N12 C56 1_555 1_555
N13 C81 1_555 1_555
N14 C87 1_555 1_555
N15 C105 1_555 1_555
N16 C123 1_555 1_555
N17 C129 1_555 1_555
N18 C130 1_555 1_555
N19 C132 1_555 1_555
N20 C133 1_555 1_555
N21 C134 1_555 1_555
N22 C150 1_555 1_555
N23 C135 1_555 1_555
N24 C136 1_555 1_555
C1 C2 1_555 1_555
C2 H1 1_555 1_555
C3 C2 1_555 1_555
H2 C3 1_555 1_555
C4 C3 1_555 1_555
C5 C4 1_555 1_555
H3 C5 1_555 1_555
C6 C1 1_555 1_555
H4 C6 1_555 1_555
C7 C8 1_555 1_555
C8 H5 1_555 1_555
C9 C8 1_555 1_555
H6 C9 1_555 1_555
C10 C9 1_555 1_555
C11 C10 1_555 1_555
H7 C11 1_555 1_555
C12 C7 1_555 1_555
H8 C12 1_555 1_555
C13 N2 1_555 1_555
C14 C13 1_555 1_555
H9 C14 1_555 1_555
C15 C14 1_555 1_555
H10 C15 1_555 1_555
C16 C15 1_555 1_555
C17 C16 1_555 1_555
H11 C17 1_555 1_555
C18 C13 1_555 1_555
H12 C18 1_555 1_555
C19 N2 1_555 1_555
C20 C19 1_555 1_555
H13 C20 1_555 1_555
C21 C20 1_555 1_555
H14 C21 1_555 1_555
C22 C21 1_555 1_555
C23 C22 1_555 1_555
H15 C23 1_555 1_555
C24 C19 1_555 1_555
H16 C24 1_555 1_555
C25 C26 1_555 1_555
C26 H17 1_555 1_555
C27 C26 1_555 1_555
H18 C27 1_555 1_555
C28 C27 1_555 1_555
C29 C28 1_555 1_555
H19 C29 1_555 1_555
C30 C25 1_555 1_555
H20 C30 1_555 1_555
C31 N3 1_555 1_555
C32 C31 1_555 1_555
H21 C32 1_555 1_555
C33 C32 1_555 1_555
H22 C33 1_555 1_555
C34 C33 1_555 1_555
C35 C34 1_555 1_555
H23 C35 1_555 1_555
C36 C31 1_555 1_555
H24 C36 1_555 1_555
C37 N3 1_555 1_555
C38 C37 1_555 1_555
H25 C38 1_555 1_555
C39 C38 1_555 1_555
H26 C39 1_555 1_555
C40 C39 1_555 1_555
C41 C40 1_555 1_555
H27 C41 1_555 1_555
C42 C37 1_555 1_555
H28 C42 1_555 1_555
C43 C44 1_555 1_555
C44 H29 1_555 1_555
C45 C44 1_555 1_555
H30 C45 1_555 1_555
C46 C45 1_555 1_555
C47 C46 1_555 1_555
H31 C47 1_555 1_555
C48 C43 1_555 1_555
H32 C48 1_555 1_555
C49 C4 1_555 1_555
H33 C49 1_555 1_555
C50 C10 1_555 1_555
H34 C50 1_555 1_555
C51 C16 1_555 1_555
H35 C51 1_555 1_555
C52 C22 1_555 1_555
H36 C52 1_555 1_555
C53 C28 1_555 1_555
H37 C53 1_555 1_555
C54 C34 1_555 1_555
H38 C54 1_555 1_555
C55 C40 1_555 1_555
H39 C55 1_555 1_555
C56 C46 1_555 1_555
H40 C56 1_555 1_555
C57 N5 1_555 1_555
H41 C57 1_555 1_555
C58 N6 1_555 1_555
H42 C58 1_555 1_555
C59 C58 1_555 1_555
H43 C59 1_555 1_555
H44 C59 1_555 1_555
C60 C59 1_555 1_555
H45 C60 1_555 1_555
C61 C60 1_555 1_555
H46 C61 1_555 1_555
C62 C57 1_555 1_555
H47 C62 1_555 1_555
H48 C62 1_555 1_555
C63 N7 1_555 1_555
H49 C63 1_555 1_555
C64 N8 1_555 1_555
H50 C64 1_555 1_555
C65 C64 1_555 1_555
H51 C65 1_555 1_555
H52 C65 1_555 1_555
C66 C65 1_555 1_555
H53 C66 1_555 1_555
C67 C66 1_555 1_555
H54 C67 1_555 1_555
C68 C63 1_555 1_555
H55 C68 1_555 1_555
H56 C68 1_555 1_555
C69 N9 1_555 1_555
H57 C69 1_555 1_555
C70 C69 1_555 1_555
H58 C70 1_555 1_555
C71 C70 1_555 1_555
H59 C71 1_555 1_555
H60 C71 1_555 1_555
C72 C71 1_555 1_555
H61 C72 1_555 1_555
C73 C72 1_555 1_555
H62 C73 1_555 1_555
C74 C69 1_555 1_555
H63 C74 1_555 1_555
H64 C74 1_555 1_555
C75 N11 1_555 1_555
H65 C75 1_555 1_555
C76 N12 1_555 1_555
H66 C76 1_555 1_555
C77 C76 1_555 1_555
H67 C77 1_555 1_555
H68 C77 1_555 1_555
C78 C77 1_555 1_555
H69 C78 1_555 1_555
C79 C78 1_555 1_555
H70 C79 1_555 1_555
C80 C75 1_555 1_555
H71 C80 1_555 1_555
H72 C80 1_555 1_555
C81 C82 1_555 1_555
C82 H73 1_555 1_555
C83 C82 1_555 1_555
H74 C83 1_555 1_555
C84 C83 1_555 1_555
C85 C84 1_555 1_555
H75 C85 1_555 1_555
C86 C81 1_555 1_555
H76 C86 1_555 1_555
C87 C88 1_555 1_555
C88 H77 1_555 1_555
C89 C88 1_555 1_555
H78 C89 1_555 1_555
C90 C89 1_555 1_555
C91 C90 1_555 1_555
H79 C91 1_555 1_555
C92 C87 1_555 1_555
H80 C92 1_555 1_555
C93 N14 1_555 1_555
C94 C93 1_555 1_555
H81 C94 1_555 1_555
C95 C94 1_555 1_555
H82 C95 1_555 1_555
C96 C95 1_555 1_555
C97 C96 1_555 1_555
H83 C97 1_555 1_555
C98 C93 1_555 1_555
H84 C98 1_555 1_555
C99 N14 1_555 1_555
C100 C99 1_555 1_555
H85 C100 1_555 1_555
C101 C100 1_555 1_555
H86 C101 1_555 1_555
C102 C101 1_555 1_555
C103 C102 1_555 1_555
H87 C103 1_555 1_555
C104 C99 1_555 1_555
H88 C104 1_555 1_555
C105 C106 1_555 1_555
C106 H89 1_555 1_555
C107 C106 1_555 1_555
H90 C107 1_555 1_555
C108 C107 1_555 1_555
C109 C108 1_555 1_555
H91 C109 1_555 1_555
C110 C105 1_555 1_555
H92 C110 1_555 1_555
C111 N15 1_555 1_555
C112 C111 1_555 1_555
H93 C112 1_555 1_555
C113 C112 1_555 1_555
H94 C113 1_555 1_555
C114 C113 1_555 1_555
C115 C114 1_555 1_555
H95 C115 1_555 1_555
C116 C111 1_555 1_555
H96 C116 1_555 1_555
C117 N15 1_555 1_555
C118 C117 1_555 1_555
H97 C118 1_555 1_555
C119 C118 1_555 1_555
H98 C119 1_555 1_555
C120 C119 1_555 1_555
C121 C120 1_555 1_555
H99 C121 1_555 1_555
C122 C117 1_555 1_555
H100 C122 1_555 1_555
C123 C124 1_555 1_555
C124 H101 1_555 1_555
C125 C124 1_555 1_555
H102 C125 1_555 1_555
C126 C125 1_555 1_555
C127 C126 1_555 1_555
H103 C127 1_555 1_555
C128 C123 1_555 1_555
H104 C128 1_555 1_555
C129 C84 1_555 1_555
H105 C129 1_555 1_555
C130 C90 1_555 1_555
H106 C130 1_555 1_555
C131 C96 1_555 1_555
H107 C131 1_555 1_555
C132 C102 1_555 1_555
H108 C132 1_555 1_555
C133 C108 1_555 1_555
H109 C133 1_555 1_555
C134 C114 1_555 1_555
H110 C134 1_555 1_555
C135 C120 1_555 1_555
H111 C135 1_555 1_555
C136 C126 1_555 1_555
H112 C136 1_555 1_555
C137 N17 1_555 1_555
H113 C137 1_555 1_555
C138 N18 1_555 1_555
H114 C138 1_555 1_555
C139 C138 1_555 1_555
H115 C139 1_555 1_555
H116 C139 1_555 1_555
C140 C139 1_555 1_555
H117 C140 1_555 1_555
C141 C140 1_555 1_555
H118 C141 1_555 1_555
C142 C137 1_555 1_555
H119 C142 1_555 1_555
H120 C142 1_555 1_555
C143 N19 1_555 1_555
H121 C143 1_555 1_555
C144 N20 1_555 1_555
H122 C144 1_555 1_555
C145 C144 1_555 1_555
H123 C145 1_555 1_555
H124 C145 1_555 1_555
C146 C145 1_555 1_555
H125 C146 1_555 1_555
C147 C146 1_555 1_555
H126 C147 1_555 1_555
C148 C143 1_555 1_555
H127 C148 1_555 1_555
H128 C148 1_555 1_555
C149 N21 1_555 1_555
H129 C149 1_555 1_555
C150 C149 1_555 1_555
H130 C150 1_555 1_555
C151 C150 1_555 1_555
H131 C151 1_555 1_555
H132 C151 1_555 1_555
C152 C151 1_555 1_555
H133 C152 1_555 1_555
C153 C152 1_555 1_555
H134 C153 1_555 1_555
C154 C149 1_555 1_555
H135 C154 1_555 1_555
H136 C154 1_555 1_555
C155 N23 1_555 1_555
H137 C155 1_555 1_555
C156 N24 1_555 1_555
H138 C156 1_555 1_555
C157 C156 1_555 1_555
H139 C157 1_555 1_555
H140 C157 1_555 1_555
C158 C157 1_555 1_555
H141 C158 1_555 1_555
C159 C158 1_555 1_555
H142 C159 1_555 1_555
C160 C155 1_555 1_555
H143 C160 1_555 1_555
H144 C160 1_555 1_555
N2E C7E 1_555 1_555
N2K C7K 1_555 1_555
N3E C25E 1_555 1_555
N3K C25K 1_555 1_555
N5E C49E 1_555 1_555
N5K C49K 1_555 1_555
N6E C50E 1_555 1_555
N6K C50K 1_555 1_555
N7E C52E 1_555 1_555
N7K C52K 1_555 1_555
N8E C53E 1_555 1_555
N8K C53K 1_555 1_555
N9E C54E 1_555 1_555
N9K C54K 1_555 1_555
N10E C51 1_555 1_555
N10K C51E 1_555 1_555
N11E C55E 1_555 1_555
N11K C55K 1_555 1_555
N12E C56E 1_555 1_555
N12K C56K 1_555 1_555
N14G C87G 1_555 1_555
N14J C87J 1_555 1_555
N15G C105G 1_555 1_555
N15J C105J 1_555 1_555
N17G C129G 1_555 1_555
N17J C129J 1_555 1_555
N18G C130G 1_555 1_555
N18J C130J 1_555 1_555
N19G C132G 1_555 1_555
N19J C132J 1_555 1_555
N20G C133G 1_555 1_555
N20J C133J 1_555 1_555
N21G C134G 1_555 1_555
N21J C134J 1_555 1_555
N22G C131 1_555 1_555
N22J C131G 1_555 1_555
N23G C135G 1_555 1_555
N23J C135J 1_555 1_555
N24G C136G 1_555 1_555
N24J C136J 1_555 1_555
C1E N1 1_555 1_555
C1K N1 1_555 1_555
C2E C1E 1_555 1_555
C2K C1K 1_555 1_555
H1E C2E 1_555 1_555
H1K C2K 1_555 1_555
C3E C2E 1_555 1_555
C3K C2K 1_555 1_555
H2E C3E 1_555 1_555
H2K C3K 1_555 1_555
C4E C3E 1_555 1_555
C4K C3K 1_555 1_555
C5E C4E 1_555 1_555
C5K C4K 1_555 1_555
H3E C5E 1_555 1_555
H3K C5K 1_555 1_555
C6E C1E 1_555 1_555
C6K C1K 1_555 1_555
H4E C6E 1_555 1_555
H4K C6K 1_555 1_555
C7E C8E 1_555 1_555
C7K C8K 1_555 1_555
C8E H5E 1_555 1_555
C8K H5K 1_555 1_555
C9E C8E 1_555 1_555
C9K C8K 1_555 1_555
H6E C9E 1_555 1_555
H6K C9K 1_555 1_555
C10E C9E 1_555 1_555
C10K C9K 1_555 1_555
C11E C10E 1_555 1_555
C11K C10K 1_555 1_555
H7E C11E 1_555 1_555
H7K C11K 1_555 1_555
C12E C7E 1_555 1_555
C12K C7K 1_555 1_555
H8E C12E 1_555 1_555
H8K C12K 1_555 1_555
C13E N2E 1_555 1_555
C13K N2K 1_555 1_555
C14E C13E 1_555 1_555
C14K C13K 1_555 1_555
H9E C14E 1_555 1_555
H9K C14K 1_555 1_555
C15E C14E 1_555 1_555
C15K C14K 1_555 1_555
H10E C15E 1_555 1_555
H10K C15K 1_555 1_555
C16E C15E 1_555 1_555
C16K C15K 1_555 1_555
C17E C16E 1_555 1_555
C17K C16K 1_555 1_555
H11E C17E 1_555 1_555
H11K C17K 1_555 1_555
C18E C13E 1_555 1_555
C18K C13K 1_555 1_555
H12E C18E 1_555 1_555
H12K C18K 1_555 1_555
C19E N2E 1_555 1_555
C19K N2K 1_555 1_555
C20E C19E 1_555 1_555
C20K C19K 1_555 1_555
H13E C20E 1_555 1_555
H13K C20K 1_555 1_555
C21E C20E 1_555 1_555
C21K C20K 1_555 1_555
H14E C21E 1_555 1_555
H14K C21K 1_555 1_555
C22E C21E 1_555 1_555
C22K C21K 1_555 1_555
C23E C22E 1_555 1_555
C23K C22K 1_555 1_555
H15E C23E 1_555 1_555
H15K C23K 1_555 1_555
C24E C19E 1_555 1_555
C24K C19K 1_555 1_555
H16E C24E 1_555 1_555
H16K C24K 1_555 1_555
C25E C26E 1_555 1_555
C25K C26K 1_555 1_555
C26E H17E 1_555 1_555
C26K H17K 1_555 1_555
C27E C26E 1_555 1_555
C27K C26K 1_555 1_555
H18E C27E 1_555 1_555
H18K C27K 1_555 1_555
C28E C27E 1_555 1_555
C28K C27K 1_555 1_555
C29E C28E 1_555 1_555
C29K C28K 1_555 1_555
H19E C29E 1_555 1_555
H19K C29K 1_555 1_555
C30E C25E 1_555 1_555
C30K C25K 1_555 1_555
H20E C30E 1_555 1_555
H20K C30K 1_555 1_555
C31E N3E 1_555 1_555
C31K N3K 1_555 1_555
C32E C31E 1_555 1_555
C32K C31K 1_555 1_555
H21E C32E 1_555 1_555
H21K C32K 1_555 1_555
C33E C32E 1_555 1_555
C33K C32K 1_555 1_555
H22E C33E 1_555 1_555
H22K C33K 1_555 1_555
C34E C33E 1_555 1_555
C34K C33K 1_555 1_555
C35E C34E 1_555 1_555
C35K C34K 1_555 1_555
H23E C35E 1_555 1_555
H23K C35K 1_555 1_555
C36E C31E 1_555 1_555
C36K C31K 1_555 1_555
H24E C36E 1_555 1_555
H24K C36K 1_555 1_555
C37E N3E 1_555 1_555
C37K N3K 1_555 1_555
C38E C37E 1_555 1_555
C38K C37K 1_555 1_555
H25E C38E 1_555 1_555
H25K C38K 1_555 1_555
C39E C38E 1_555 1_555
C39K C38K 1_555 1_555
H26E C39E 1_555 1_555
H26K C39K 1_555 1_555
C40E C39E 1_555 1_555
C40K C39K 1_555 1_555
C41E C40E 1_555 1_555
C41K C40K 1_555 1_555
H27E C41E 1_555 1_555
H27K C41K 1_555 1_555
C42E C37E 1_555 1_555
C42K C37K 1_555 1_555
H28E C42E 1_555 1_555
H28K C42K 1_555 1_555
C43E N4 1_555 1_555
C43K N4 1_555 1_555
C44E C43E 1_555 1_555
C44K C43K 1_555 1_555
H29E C44E 1_555 1_555
H29K C44K 1_555 1_555
C45E C44E 1_555 1_555
C45K C44K 1_555 1_555
H30E C45E 1_555 1_555
H30K C45K 1_555 1_555
C46E C45E 1_555 1_555
C46K C45K 1_555 1_555
C47E C46E 1_555 1_555
C47K C46K 1_555 1_555
H31E C47E 1_555 1_555
H31K C47K 1_555 1_555
C48E C43E 1_555 1_555
C48K C43K 1_555 1_555
H32E C48E 1_555 1_555
H32K C48K 1_555 1_555
C49E C4E 1_555 1_555
C49K C4K 1_555 1_555
H33E C49E 1_555 1_555
H33K C49K 1_555 1_555
C50E C10E 1_555 1_555
C50K C10K 1_555 1_555
H34E C50E 1_555 1_555
H34K C50K 1_555 1_555
C51E C16E 1_555 1_555
C51K N10 1_555 1_555
H35E C51E 1_555 1_555
H35K C51K 1_555 1_555
C52E C22E 1_555 1_555
C52K C22K 1_555 1_555
H36E C52E 1_555 1_555
H36K C52K 1_555 1_555
C53E C28E 1_555 1_555
C53K C28K 1_555 1_555
H37E C53E 1_555 1_555
H37K C53K 1_555 1_555
C54E C34E 1_555 1_555
C54K C34K 1_555 1_555
H38E C54E 1_555 1_555
H38K C54K 1_555 1_555
C55E C40E 1_555 1_555
C55K C40K 1_555 1_555
H39E C55E 1_555 1_555
H39K C55K 1_555 1_555
C56E C46E 1_555 1_555
C56K C46K 1_555 1_555
H40E C56E 1_555 1_555
H40K C56K 1_555 1_555
C57E N5E 1_555 1_555
C57K N5K 1_555 1_555
H41E C57E 1_555 1_555
H41K C57K 1_555 1_555
C58E N6E 1_555 1_555
C58K N6K 1_555 1_555
H42E C58E 1_555 1_555
H42K C58K 1_555 1_555
C59E C58E 1_555 1_555
C59K C58K 1_555 1_555
H43E C59E 1_555 1_555
H43K C59K 1_555 1_555
H44E C59E 1_555 1_555
H44K C59K 1_555 1_555
C60E C59E 1_555 1_555
C60K C59K 1_555 1_555
H45E C60E 1_555 1_555
H45K C60K 1_555 1_555
C61E C60E 1_555 1_555
C61K C60K 1_555 1_555
H46E C61E 1_555 1_555
H46K C61K 1_555 1_555
C62E C57E 1_555 1_555
C62K C57K 1_555 1_555
H47E C62E 1_555 1_555
H47K C62K 1_555 1_555
H48E C62E 1_555 1_555
H48K C62K 1_555 1_555
C63E N7E 1_555 1_555
C63K N7K 1_555 1_555
H49E C63E 1_555 1_555
H49K C63K 1_555 1_555
C64E N8E 1_555 1_555
C64K N8K 1_555 1_555
H50E C64E 1_555 1_555
H50K C64K 1_555 1_555
C65E C64E 1_555 1_555
C65K C64K 1_555 1_555
H51E C65E 1_555 1_555
H51K C65K 1_555 1_555
H52E C65E 1_555 1_555
H52K C65K 1_555 1_555
C66E C65E 1_555 1_555
C66K C65K 1_555 1_555
H53E C66E 1_555 1_555
H53K C66K 1_555 1_555
C67E C66E 1_555 1_555
C67K C66K 1_555 1_555
H54E C67E 1_555 1_555
H54K C67K 1_555 1_555
C68E C63E 1_555 1_555
C68K C63K 1_555 1_555
H55E C68E 1_555 1_555
H55K C68K 1_555 1_555
H56E C68E 1_555 1_555
H56K C68K 1_555 1_555
C69E N9E 1_555 1_555
C69K N9K 1_555 1_555
H57E C69E 1_555 1_555
H57K C69K 1_555 1_555
C70E N10E 1_555 1_555
C70K N10K 1_555 1_555
H58E C70E 1_555 1_555
H58K C70K 1_555 1_555
C71E C70E 1_555 1_555
C71K C70K 1_555 1_555
H59E C71E 1_555 1_555
H59K C71K 1_555 1_555
H60E C71E 1_555 1_555
H60K C71K 1_555 1_555
C72E C71E 1_555 1_555
C72K C71K 1_555 1_555
H61E C72E 1_555 1_555
H61K C72K 1_555 1_555
C73E C72E 1_555 1_555
C73K C72K 1_555 1_555
H62E C73E 1_555 1_555
H62K C73K 1_555 1_555
C74E C69E 1_555 1_555
C74K C69K 1_555 1_555
H63E C74E 1_555 1_555
H63K C74K 1_555 1_555
H64E C74E 1_555 1_555
H64K C74K 1_555 1_555
C75E N11E 1_555 1_555
C75K N11K 1_555 1_555
H65E C75E 1_555 1_555
H65K C75K 1_555 1_555
C76E N12E 1_555 1_555
C76K N12K 1_555 1_555
H66E C76E 1_555 1_555
H66K C76K 1_555 1_555
C77E C76E 1_555 1_555
C77K C76K 1_555 1_555
H67E C77E 1_555 1_555
H67K C77K 1_555 1_555
H68E C77E 1_555 1_555
H68K C77K 1_555 1_555
C78E C77E 1_555 1_555
C78K C77K 1_555 1_555
H69E C78E 1_555 1_555
H69K C78K 1_555 1_555
C79E C78E 1_555 1_555
C79K C78K 1_555 1_555
H70E C79E 1_555 1_555
H70K C79K 1_555 1_555
C80E C75E 1_555 1_555
C80K C75K 1_555 1_555
H71E C80E 1_555 1_555
H71K C80K 1_555 1_555
H72E C80E 1_555 1_555
H72K C80K 1_555 1_555
C81G N13 1_555 1_555
C81J N13 1_555 1_555
C82G C81G 1_555 1_555
C82J C81J 1_555 1_555
H73G C82G 1_555 1_555
H73J C82J 1_555 1_555
C83G C82G 1_555 1_555
C83J C82J 1_555 1_555
H74G C83G 1_555 1_555
H74J C83J 1_555 1_555
C84G C83G 1_555 1_555
C84J C83J 1_555 1_555
C85G C84G 1_555 1_555
C85J C84J 1_555 1_555
H75G C85G 1_555 1_555
H75J C85J 1_555 1_555
C86G C81G 1_555 1_555
C86J C81J 1_555 1_555
H76G C86G 1_555 1_555
H76J C86J 1_555 1_555
C87G C88G 1_555 1_555
C87J C88J 1_555 1_555
C88G H77G 1_555 1_555
C88J H77J 1_555 1_555
C89G C88G 1_555 1_555
C89J C88J 1_555 1_555
H78G C89G 1_555 1_555
H78J C89J 1_555 1_555
C90G C89G 1_555 1_555
C90J C89J 1_555 1_555
C91G C90G 1_555 1_555
C91J C90J 1_555 1_555
H79G C91G 1_555 1_555
H79J C91J 1_555 1_555
C92G C87G 1_555 1_555
C92J C87J 1_555 1_555
H80G C92G 1_555 1_555
H80J C92J 1_555 1_555
C93G N14G 1_555 1_555
C93J N14J 1_555 1_555
C94G C93G 1_555 1_555
C94J C93J 1_555 1_555
H81G C94G 1_555 1_555
H81J C94J 1_555 1_555
C95G C94G 1_555 1_555
C95J C94J 1_555 1_555
H82G C95G 1_555 1_555
H82J C95J 1_555 1_555
C96G C95G 1_555 1_555
C96J C95J 1_555 1_555
C97G C96G 1_555 1_555
C97J C96J 1_555 1_555
H83G C97G 1_555 1_555
H83J C97J 1_555 1_555
C98G C93G 1_555 1_555
C98J C93J 1_555 1_555
H84G C98G 1_555 1_555
H84J C98J 1_555 1_555
C99G N14G 1_555 1_555
C99J N14J 1_555 1_555
C100G C99G 1_555 1_555
C100J C99J 1_555 1_555
H85G C100G 1_555 1_555
H85J C100J 1_555 1_555
C101G C100G 1_555 1_555
C101J C100J 1_555 1_555
H86G C101G 1_555 1_555
H86J C101J 1_555 1_555
C102G C101G 1_555 1_555
C102J C101J 1_555 1_555
C103G C102G 1_555 1_555
C103J C102J 1_555 1_555
H87G C103G 1_555 1_555
H87J C103J 1_555 1_555
C104G C99G 1_555 1_555
C104J C99J 1_555 1_555
H88G C104G 1_555 1_555
H88J C104J 1_555 1_555
C105G C106G 1_555 1_555
C105J C106J 1_555 1_555
C106G H89G 1_555 1_555
C106J H89J 1_555 1_555
C107G C106G 1_555 1_555
C107J C106J 1_555 1_555
H90G C107G 1_555 1_555
H90J C107J 1_555 1_555
C108G C107G 1_555 1_555
C108J C107J 1_555 1_555
C109G C108G 1_555 1_555
C109J C108J 1_555 1_555
H91G C109G 1_555 1_555
H91J C109J 1_555 1_555
C110G C105G 1_555 1_555
C110J C105J 1_555 1_555
H92G C110G 1_555 1_555
H92J C110J 1_555 1_555
C111G N15G 1_555 1_555
C111J N15J 1_555 1_555
C112G C111G 1_555 1_555
C112J C111J 1_555 1_555
H93G C112G 1_555 1_555
H93J C112J 1_555 1_555
C113G C112G 1_555 1_555
C113J C112J 1_555 1_555
H94G C113G 1_555 1_555
H94J C113J 1_555 1_555
C114G C113G 1_555 1_555
C114J C113J 1_555 1_555
C115G C114G 1_555 1_555
C115J C114J 1_555 1_555
H95G C115G 1_555 1_555
H95J C115J 1_555 1_555
C116G C111G 1_555 1_555
C116J C111J 1_555 1_555
H96G C116G 1_555 1_555
H96J C116J 1_555 1_555
C117G N15G 1_555 1_555
C117J N15J 1_555 1_555
C118G C117G 1_555 1_555
C118J C117J 1_555 1_555
H97G C118G 1_555 1_555
H97J C118J 1_555 1_555
C119G C118G 1_555 1_555
C119J C118J 1_555 1_555
H98G C119G 1_555 1_555
H98J C119J 1_555 1_555
C120G C119G 1_555 1_555
C120J C119J 1_555 1_555
C121G C120G 1_555 1_555
C121J C120J 1_555 1_555
H99G C121G 1_555 1_555
H99J C121J 1_555 1_555
C122G C117G 1_555 1_555
C122J C117J 1_555 1_555
H100G C122G 1_555 1_555
H100J C122J 1_555 1_555
C123G N16 1_555 1_555
C123J N16 1_555 1_555
C124G C123G 1_555 1_555
C124J C123J 1_555 1_555
H101G C124G 1_555 1_555
H101J C124J 1_555 1_555
C125G C124G 1_555 1_555
C125J C124J 1_555 1_555
H102G C125G 1_555 1_555
H102J C125J 1_555 1_555
C126G C125G 1_555 1_555
C126J C125J 1_555 1_555
C127G C126G 1_555 1_555
C127J C126J 1_555 1_555
H103G C127G 1_555 1_555
H103J C127J 1_555 1_555
C128G C123G 1_555 1_555
C128J C123J 1_555 1_555
H104G C128G 1_555 1_555
H104J C128J 1_555 1_555
C129G C84G 1_555 1_555
C129J C84J 1_555 1_555
H105G C129G 1_555 1_555
H105J C129J 1_555 1_555
C130G C90G 1_555 1_555
C130J C90J 1_555 1_555
H106G C130G 1_555 1_555
H106J C130J 1_555 1_555
C131G C96G 1_555 1_555
C131J N22 1_555 1_555
H107G C131G 1_555 1_555
H107J C131J 1_555 1_555
C132G C102G 1_555 1_555
C132J C102J 1_555 1_555
H108G C132G 1_555 1_555
H108J C132J 1_555 1_555
C133G C108G 1_555 1_555
C133J C108J 1_555 1_555
H109G C133G 1_555 1_555
H109J C133J 1_555 1_555
C134G C114G 1_555 1_555
C134J C114J 1_555 1_555
H110G C134G 1_555 1_555
H110J C134J 1_555 1_555
C135G C120G 1_555 1_555
C135J C120J 1_555 1_555
H111G C135G 1_555 1_555
H111J C135J 1_555 1_555
C136G C126G 1_555 1_555
C136J C126J 1_555 1_555
H112G C136G 1_555 1_555
H112J C136J 1_555 1_555
C137G N17G 1_555 1_555
C137J N17J 1_555 1_555
H113G C137G 1_555 1_555
H113J C137J 1_555 1_555
C138G N18G 1_555 1_555
C138J N18J 1_555 1_555
H114G C138G 1_555 1_555
H114J C138J 1_555 1_555
C139G C138G 1_555 1_555
C139J C138J 1_555 1_555
H115G C139G 1_555 1_555
H115J C139J 1_555 1_555
H116G C139G 1_555 1_555
H116J C139J 1_555 1_555
C140G C139G 1_555 1_555
C140J C139J 1_555 1_555
H117G C140G 1_555 1_555
H117J C140J 1_555 1_555
C141G C140G 1_555 1_555
C141J C140J 1_555 1_555
H118G C141G 1_555 1_555
H118J C141J 1_555 1_555
C142G C137G 1_555 1_555
C142J C137J 1_555 1_555
H119G C142G 1_555 1_555
H119J C142J 1_555 1_555
H120G C142G 1_555 1_555
H120J C142J 1_555 1_555
C143G N19G 1_555 1_555
C143J N19J 1_555 1_555
H121G C143G 1_555 1_555
H121J C143J 1_555 1_555
C144G N20G 1_555 1_555
C144J N20J 1_555 1_555
H122G C144G 1_555 1_555
H122J C144J 1_555 1_555
C145G C144G 1_555 1_555
C145J C144J 1_555 1_555
H123G C145G 1_555 1_555
H123J C145J 1_555 1_555
H124G C145G 1_555 1_555
H124J C145J 1_555 1_555
C146G C145G 1_555 1_555
C146J C145J 1_555 1_555
H125G C146G 1_555 1_555
H125J C146J 1_555 1_555
C147G C146G 1_555 1_555
C147J C146J 1_555 1_555
H126G C147G 1_555 1_555
H126J C147J 1_555 1_555
C148G C143G 1_555 1_555
C148J C143J 1_555 1_555
H127G C148G 1_555 1_555
H127J C148J 1_555 1_555
H128G C148G 1_555 1_555
H128J C148J 1_555 1_555
C149G N21G 1_555 1_555
C149J N21J 1_555 1_555
H129G C149G 1_555 1_555
H129J C149J 1_555 1_555
C150G N22G 1_555 1_555
C150J N22J 1_555 1_555
H130G C150G 1_555 1_555
H130J C150J 1_555 1_555
C151G C150G 1_555 1_555
C151J C150J 1_555 1_555
H131G C151G 1_555 1_555
H131J C151J 1_555 1_555
H132G C151G 1_555 1_555
H132J C151J 1_555 1_555
C152G C151G 1_555 1_555
C152J C151J 1_555 1_555
H133G C152G 1_555 1_555
H133J C152J 1_555 1_555
C153G C152G 1_555 1_555
C153J C152J 1_555 1_555
H134G C153G 1_555 1_555
H134J C153J 1_555 1_555
C154G C149G 1_555 1_555
C154J C149J 1_555 1_555
H135G C154G 1_555 1_555
H135J C154J 1_555 1_555
H136G C154G 1_555 1_555
H136J C154J 1_555 1_555
C155G N23G 1_555 1_555
C155J N23J 1_555 1_555
H137G C155G 1_555 1_555
H137J C155J 1_555 1_555
C156G N24G 1_555 1_555
C156J N24J 1_555 1_555
H138G C156G 1_555 1_555
H138J C156J 1_555 1_555
C157G C156G 1_555 1_555
C157J C156J 1_555 1_555
H139G C157G 1_555 1_555
H139J C157J 1_555 1_555
H140G C157G 1_555 1_555
H140J C157J 1_555 1_555
C158G C157G 1_555 1_555
C158J C157J 1_555 1_555
H141G C158G 1_555 1_555
H141J C158J 1_555 1_555
C159G C158G 1_555 1_555
C159J C158J 1_555 1_555
H142G C159G 1_555 1_555
H142J C159J 1_555 1_555
C160G C155G 1_555 1_555
C160J C155J 1_555 1_555
H143G C160G 1_555 1_555
H143J C160J 1_555 1_555
H144G C160G 1_555 1_555
H144J C160J 1_555 1_555
C5 C6 1_555 1_555
C11 C12 1_555 1_555
C17 C18 1_555 1_555
C23 C24 1_555 1_555
C29 C30 1_555 1_555
C35 C36 1_555 1_555
C41 C42 1_555 1_555
C47 C48 1_555 1_555
C57 C58 1_555 1_555
C61 C62 1_555 1_555
C63 C64 1_555 1_555
C67 C68 1_555 1_555
C73 C74 1_555 1_555
C75 C76 1_555 1_555
C79 C80 1_555 1_555
C85 C86 1_555 1_555
C91 C92 1_555 1_555
C97 C98 1_555 1_555
C103 C104 1_555 1_555
C109 C110 1_555 1_555
C115 C116 1_555 1_555
C121 C122 1_555 1_555
C127 C128 1_555 1_555
C137 C138 1_555 1_555
C141 C142 1_555 1_555
C143 C144 1_555 1_555
C147 C148 1_555 1_555
C153 C154 1_555 1_555
C155 C156 1_555 1_555
C159 C160 1_555 1_555
C5E C6E 1_555 1_555
C5K C6K 1_555 1_555
C11E C12E 1_555 1_555
C11K C12K 1_555 1_555
C16K C51K 1_555 1_555
C17E C18E 1_555 1_555
C17K C18K 1_555 1_555
C23E C24E 1_555 1_555
C23K C24K 1_555 1_555
C29E C30E 1_555 1_555
C29K C30K 1_555 1_555
C35E C36E 1_555 1_555
C35K C36K 1_555 1_555
C41E C42E 1_555 1_555
C41K C42K 1_555 1_555
C47E C48E 1_555 1_555
C47K C48K 1_555 1_555
C57E C58E 1_555 1_555
C57K C58K 1_555 1_555
C61E C62E 1_555 1_555
C61K C62K 1_555 1_555
C63E C64E 1_555 1_555
C63K C64K 1_555 1_555
C67E C68E 1_555 1_555
C67K C68K 1_555 1_555
C69E C70E 1_555 1_555
C69K C70K 1_555 1_555
C73E C74E 1_555 1_555
C73K C74K 1_555 1_555
C75E C76E 1_555 1_555
C75K C76K 1_555 1_555
C79E C80E 1_555 1_555
C79K C80K 1_555 1_555
C85G C86G 1_555 1_555
C85J C86J 1_555 1_555
C91G C92G 1_555 1_555
C91J C92J 1_555 1_555
C96J C131J 1_555 1_555
C97G C98G 1_555 1_555
C97J C98J 1_555 1_555
C103G C104G 1_555 1_555
C103J C104J 1_555 1_555
C109G C110G 1_555 1_555
C109J C110J 1_555 1_555
C115G C116G 1_555 1_555
C115J C116J 1_555 1_555
C121G C122G 1_555 1_555
C121J C122J 1_555 1_555
C127G C128G 1_555 1_555
C127J C128J 1_555 1_555
C137G C138G 1_555 1_555
C137J C138J 1_555 1_555
C141G C142G 1_555 1_555
C141J C142J 1_555 1_555
C143G C144G 1_555 1_555
C143J C144J 1_555 1_555
C147G C148G 1_555 1_555
C147J C148J 1_555 1_555
C149G C150G 1_555 1_555
C149J C150J 1_555 1_555
C153G C154G 1_555 1_555
C153J C154J 1_555 1_555
C155G C156G 1_555 1_555
C155J C156J 1_555 1_555
C159G C160G 1_555 1_555
C159J C160J 1_555 1_555

#END
