
#######################################################################
#
#                 Cambridge Crystallographic Data Centre
#                                CCDC 
#
#######################################################################
#
# If this CIF has been generated from an entry in the Cambridge 
# Structural Database, then it will include bibliographic, chemical, 
# crystal, experimental, refinement or atomic coordinate data resulting 
# from the CCDC's data processing and validation procedures.
#
#######################################################################

data_KATQON
_chemical_formula_moiety         'C29 H20 F1 N1'
_chemical_name_systematic        
11-Fluoro-6-(4-methylphenyl)-11-phenyl-11H-indeno[1,2-c]quinoline
_symmetry_cell_setting           monoclinic
_symmetry_space_group_name_H-M   'P 21/n'
_symmetry_Int_Tables_number      14
_space_group_name_Hall           '-P 2yn'
loop_
_symmetry_equiv_pos_site_id
_symmetry_equiv_pos_as_xyz
1 x,y,z
2 1/2-x,1/2+y,1/2-z
3 -x,-y,-z
4 1/2+x,1/2-y,1/2+z
_cell_length_a                   14.214(5)
_cell_length_b                   9.606(3)
_cell_length_c                   15.517(5)
_cell_angle_alpha                90
_cell_angle_beta                 91.426(6)
_cell_angle_gamma                90
_cell_volume                     2118.03
_exptl_crystal_colour            colorless
_exptl_crystal_description       needle
_cell_formula_units_Z            4
loop_
_atom_site_label
_atom_site_type_symbol
_atom_site_fract_x
_atom_site_fract_y
_atom_site_fract_z
F1 F 0.42777(11) 0.64597(18) 0.10143(9)
N1 N 0.32927(16) 0.6060(3) 0.40440(15)
C1 C 0.48694(18) 0.6125(3) 0.17317(15)
C2 C 0.57518(19) 0.7017(3) 0.16780(17)
C3 C 0.5954(3) 0.7759(4) 0.0946(2)
H1 H 0.5528 0.7769 0.0481
C4 C 0.6791(4) 0.8489(4) 0.0901(3)
H2 H 0.6927 0.8992 0.0407
C5 C 0.7414(3) 0.8472(5) 0.1580(4)
H3 H 0.7976 0.8961 0.1545
C6 C 0.7228(3) 0.7751(6) 0.2306(3)
H4 H 0.7659 0.7745 0.2767
C7 C 0.6389(2) 0.7023(4) 0.2355(2)
H5 H 0.6256 0.6532 0.2855
C8 C 0.50763(18) 0.4587(3) 0.17280(16)
C9 C 0.5500(2) 0.3825(3) 0.10902(18)
H6 H 0.5707 0.4258 0.0593
C10 C 0.5610(2) 0.2408(3) 0.12050(19)
H7 H 0.5882 0.1874 0.0778
C11 C 0.5317(2) 0.1786(3) 0.1952(2)
H8 H 0.5398 0.0832 0.2022
C12 C 0.4902(2) 0.2548(3) 0.26045(18)
H9 H 0.4714 0.2115 0.3108
C13 C 0.47755(18) 0.3957(3) 0.24875(16)
C14 C 0.43049(18) 0.5049(3) 0.30013(16)
C15 C 0.43165(17) 0.6285(3) 0.25482(16)
C16 C 0.38088(18) 0.7455(3) 0.28184(17)
C17 C 0.3768(2) 0.8744(3) 0.2387(2)
H10 H 0.4118 0.8882 0.1896
C18 C 0.3219(2) 0.9789(3) 0.2686(2)
H11 H 0.3196 1.0637 0.2397
C19 C 0.2687(2) 0.9600(4) 0.3428(2)
H12 H 0.2315 1.0323 0.3625
C20 C 0.2711(2) 0.8372(3) 0.3857(2)
H13 H 0.2351 0.8258 0.4345
C21 C 0.32761(19) 0.7265(3) 0.35714(18)
C22 C 0.38060(18) 0.4992(3) 0.37811(16)
C23 C 0.37953(19) 0.3748(3) 0.43542(16)
C24 C 0.2958(2) 0.3170(3) 0.45997(19)
H14 H 0.2392 0.3556 0.4403
C25 C 0.2950(2) 0.2025(4) 0.5134(2)
H15 H 0.2373 0.1650 0.5284
C26 C 0.3756(2) 0.1415(3) 0.54533(19)
C27 C 0.4596(2) 0.2016(3) 0.52181(19)
H16 H 0.5159 0.1644 0.5432
C28 C 0.4622(2) 0.3153(3) 0.46751(18)
H17 H 0.5199 0.3523 0.4523
C29 C 0.3735(3) 0.0156(4) 0.6022(2)
H18 H 0.3190 0.0193 0.6374
H19 H 0.4292 0.0135 0.6384
H20 H 0.3710 -0.0668 0.5672
loop_
_geom_bond_atom_site_label_1
_geom_bond_atom_site_label_2
_geom_bond_site_symmetry_1
_geom_bond_site_symmetry_2
F1 C1 1_555 1_555
N1 C21 1_555 1_555
C1 C2 1_555 1_555
C2 C3 1_555 1_555
C3 H1 1_555 1_555
C4 C3 1_555 1_555
H2 C4 1_555 1_555
C5 C4 1_555 1_555
H3 C5 1_555 1_555
C6 C5 1_555 1_555
H4 C6 1_555 1_555
C7 C2 1_555 1_555
H5 C7 1_555 1_555
C8 C1 1_555 1_555
C9 C8 1_555 1_555
H6 C9 1_555 1_555
C10 C9 1_555 1_555
H7 C10 1_555 1_555
C11 C10 1_555 1_555
H8 C11 1_555 1_555
C12 C11 1_555 1_555
H9 C12 1_555 1_555
C13 C8 1_555 1_555
C14 C13 1_555 1_555
C15 C1 1_555 1_555
C16 C15 1_555 1_555
C17 C16 1_555 1_555
H10 C17 1_555 1_555
C18 C17 1_555 1_555
H11 C18 1_555 1_555
C19 C18 1_555 1_555
H12 C19 1_555 1_555
C20 C19 1_555 1_555
H13 C20 1_555 1_555
C21 C16 1_555 1_555
C22 N1 1_555 1_555
C23 C22 1_555 1_555
C24 C23 1_555 1_555
H14 C24 1_555 1_555
C25 C24 1_555 1_555
H15 C25 1_555 1_555
C26 C25 1_555 1_555
C27 C26 1_555 1_555
H16 C27 1_555 1_555
C28 C23 1_555 1_555
H17 C28 1_555 1_555
C29 C26 1_555 1_555
H18 C29 1_555 1_555
H19 C29 1_555 1_555
H20 C29 1_555 1_555
C6 C7 1_555 1_555
C12 C13 1_555 1_555
C14 C15 1_555 1_555
C14 C22 1_555 1_555
C20 C21 1_555 1_555
C27 C28 1_555 1_555

#END
