
#######################################################################
#
#                 Cambridge Crystallographic Data Centre
#                                CCDC 
#
#######################################################################
#
# If this CIF has been generated from an entry in the Cambridge 
# Structural Database, then it will include bibliographic, chemical, 
# crystal, experimental, refinement or atomic coordinate data resulting 
# from the CCDC's data processing and validation procedures.
#
#######################################################################

data_KATRAA
_chemical_formula_moiety         'C33 H29 N1 O2 S1'
_chemical_name_systematic        
2-((4-Methylphenyl)sulfonyl)-6,6,7-triphenyl-2,6,7,7a-tetrahydro-1H-cyclopenta[c]pyridine
_symmetry_cell_setting           monoclinic
_symmetry_space_group_name_H-M   'P 21'
_symmetry_Int_Tables_number      4
_space_group_name_Hall           'P 2yb'
loop_
_symmetry_equiv_pos_site_id
_symmetry_equiv_pos_as_xyz
1 x,y,z
2 -x,1/2+y,-z
_cell_length_a                   10.0826(10)
_cell_length_b                   14.1675(8)
_cell_length_c                   10.2547(11)
_cell_angle_alpha                90
_cell_angle_beta                 114.729(3)
_cell_angle_gamma                90
_cell_volume                     1330.5
_exptl_crystal_colour            colorless
_exptl_crystal_description       prism
_cell_formula_units_Z            2
loop_
_atom_site_label
_atom_site_type_symbol
_atom_site_fract_x
_atom_site_fract_y
_atom_site_fract_z
S1 S 0.98369(6) 0.49787(5) -0.00568(7)
C1 C 1.4181(2) 0.33901(16) 0.4229(2)
H1 H 1.4844 0.3819 0.4043
C2 C 1.6501(2) 0.22948(17) 0.4932(2)
C3 C 1.4073(2) 0.37545(16) 0.5569(2)
C4 C 1.0779(2) 0.59199(18) -0.0393(3)
C5 C 1.2761(2) 0.33687(16) 0.2845(2)
H2 H 1.1981 0.3096 0.3060
C6 C 1.4215(2) 0.21234(18) 0.2704(2)
H3 H 1.4567 0.1637 0.2328
C7 C 1.3129(2) 0.26874(17) 0.1908(2)
C8 C 1.7150(2) 0.14002(19) 0.5158(3)
H4 H 1.6565 0.0865 0.4971
C9 C 1.5180(3) 0.45544(19) 0.7865(3)
H5 H 1.5972 0.4876 0.8542
C10 C 1.8647(3) 0.1300(2) 0.5655(3)
H6 H 1.9057 0.0699 0.5802
O1 O 0.93478(19) 0.52749(14) 0.1000(2)
O2 O 0.88226(19) 0.46153(14) -0.1409(2)
C11 C 1.5227(2) 0.42431(18) 0.6605(2)
H7 H 1.6055 0.4365 0.6449
N1 N 1.1054(2) 0.41357(15) 0.0679(2)
C12 C 1.4828(2) 0.23564(16) 0.4304(2)
C13 C 1.4229(2) 0.17033(17) 0.5130(3)
C14 C 1.2213(3) 0.7427(2) -0.0993(3)
C15 C 1.1265(3) 0.3425(2) -0.0169(2)
H8 H 1.0690 0.3429 -0.1153
C16 C 1.4931(3) 0.1664(2) 0.6623(3)
H9 H 1.5799 0.1994 0.7100
C17 C 1.9529(3) 0.2076(2) 0.5932(3)
H10 H 2.0536 0.2008 0.6275
C18 C 1.2374(3) 0.0678(2) 0.5251(4)
H11 H 1.1508 0.0344 0.4783
C19 C 1.2259(3) 0.27457(19) 0.0380(3)
H12 H 1.2393 0.2305 -0.0226
C20 C 1.2947(3) 0.11995(19) 0.4445(3)
H13 H 1.2465 0.1207 0.3448
C21 C 1.7418(2) 0.3062(2) 0.5198(3)
H14 H 1.7026 0.3668 0.5040
C22 C 1.2854(3) 0.3599(2) 0.5848(3)
H15 H 1.2053 0.3281 0.5177
C23 C 1.8916(3) 0.2944(2) 0.5700(3)
H16 H 1.9512 0.3473 0.5880
C24 C 1.1932(3) 0.7422(2) 0.0208(3)
H17 H 1.2229 0.7934 0.0831
C25 C 1.2252(3) 0.43092(18) 0.2106(2)
H18 H 1.1911 0.4707 0.2673
H19 H 1.3053 0.4629 0.2002
C26 C 1.1224(3) 0.6681(2) 0.0520(3)
H20 H 1.1049 0.6697 0.1341
C27 C 1.1783(4) 0.6651(3) -0.1891(3)
H21 H 1.1979 0.6632 -0.2700
C28 C 1.4357(4) 0.1139(2) 0.7412(4)
H22 H 1.4842 0.1117 0.8407
C29 C 1.3978(3) 0.4390(2) 0.8111(3)
H23 H 1.3941 0.4601 0.8955
C30 C 1.1063(4) 0.5901(2) -0.1604(3)
H24 H 1.0772 0.5385 -0.2222
C31 C 1.3067(4) 0.0653(2) 0.6714(4)
H25 H 1.2671 0.0309 0.7238
C32 C 1.2820(3) 0.3911(3) 0.7109(3)
H26 H 1.1999 0.3795 0.7280
C33 C 1.2961(5) 0.8253(3) -0.1336(4)
H27 H 1.3169 0.8730 -0.0612
H28 H 1.2333 0.8510 -0.2255
H29 H 1.3857 0.8045 -0.1360
loop_
_geom_bond_atom_site_label_1
_geom_bond_atom_site_label_2
_geom_bond_site_symmetry_1
_geom_bond_site_symmetry_2
S1 C4 1_555 1_555
C1 H1 1_555 1_555
C2 C8 1_555 1_555
C3 C1 1_555 1_555
C4 C26 1_555 1_555
C5 C1 1_555 1_555
H2 C5 1_555 1_555
C6 H3 1_555 1_555
C7 C5 1_555 1_555
C8 H4 1_555 1_555
C9 H5 1_555 1_555
C10 C8 1_555 1_555
H6 C10 1_555 1_555
O1 S1 1_555 1_555
O2 S1 1_555 1_555
C11 C3 1_555 1_555
H7 C11 1_555 1_555
N1 S1 1_555 1_555
C12 C1 1_555 1_555
C13 C12 1_555 1_555
C14 C24 1_555 1_555
C15 N1 1_555 1_555
H8 C15 1_555 1_555
C16 C13 1_555 1_555
H9 C16 1_555 1_555
C17 C10 1_555 1_555
H10 C17 1_555 1_555
C18 H11 1_555 1_555
C19 C7 1_555 1_555
H12 C19 1_555 1_555
C20 C13 1_555 1_555
H13 C20 1_555 1_555
C21 C2 1_555 1_555
H14 C21 1_555 1_555
C22 C3 1_555 1_555
H15 C22 1_555 1_555
C23 C17 1_555 1_555
H16 C23 1_555 1_555
C24 H17 1_555 1_555
C25 C5 1_555 1_555
H18 C25 1_555 1_555
H19 C25 1_555 1_555
C26 C24 1_555 1_555
H20 C26 1_555 1_555
C27 C14 1_555 1_555
H21 C27 1_555 1_555
C28 C16 1_555 1_555
H22 C28 1_555 1_555
C29 C9 1_555 1_555
H23 C29 1_555 1_555
C30 C4 1_555 1_555
H24 C30 1_555 1_555
C31 C18 1_555 1_555
H25 C31 1_555 1_555
C32 C22 1_555 1_555
H26 C32 1_555 1_555
C33 C14 1_555 1_555
H27 C33 1_555 1_555
H28 C33 1_555 1_555
H29 C33 1_555 1_555
C2 C12 1_555 1_555
C6 C7 1_555 1_555
C6 C12 1_555 1_555
C9 C11 1_555 1_555
N1 C25 1_555 1_555
C15 C19 1_555 1_555
C18 C20 1_555 1_555
C21 C23 1_555 1_555
C27 C30 1_555 1_555
C28 C31 1_555 1_555
C29 C32 1_555 1_555

#END
