
#######################################################################
#
#                 Cambridge Crystallographic Data Centre
#                                CCDC 
#
#######################################################################
#
# If this CIF has been generated from an entry in the Cambridge 
# Structural Database, then it will include bibliographic, chemical, 
# crystal, experimental, refinement or atomic coordinate data resulting 
# from the CCDC's data processing and validation procedures.
#
#######################################################################

data_KATVIK01
_chemical_formula_moiety         'C24 H32 O3'
_chemical_name_systematic        'Antheliolide A'
_symmetry_cell_setting           orthorhombic
_symmetry_space_group_name_H-M   'P 21 21 21'
_symmetry_Int_Tables_number      19
_space_group_name_Hall           'P 2ac 2ab'
loop_
_symmetry_equiv_pos_site_id
_symmetry_equiv_pos_as_xyz
1 x,y,z
2 1/2-x,-y,1/2+z
3 1/2+x,1/2-y,-z
4 -x,1/2+y,1/2-z
_cell_length_a                   8.4984(19)
_cell_length_b                   10.630(2)
_cell_length_c                   23.140(5)
_cell_angle_alpha                90
_cell_angle_beta                 90
_cell_angle_gamma                90
_cell_volume                     2090.42
_exptl_crystal_colour            colorless
_exptl_crystal_description       block
_cell_formula_units_Z            4
loop_
_atom_site_label
_atom_site_type_symbol
_atom_site_fract_x
_atom_site_fract_y
_atom_site_fract_z
O1 O 1.1647(3) 0.7635(2) 0.7521(1)
O2 O 0.8346(2) 0.5251(2) 0.8740(1)
O3 O 1.2737(3) 0.6890(2) 0.8302(1)
C1 C 0.9044(4) 0.6313(3) 0.6563(1)
C2 C 0.8889(3) 0.7059(2) 0.7141(1)
C3 C 1.0607(4) 0.7451(3) 0.7044(1)
C4 C 1.0858(3) 0.6262(3) 0.6671(1)
C5 C 1.2152(4) 0.6248(3) 0.6227(1)
C6 C 1.2093(5) 0.7105(3) 0.5703(1)
C7 C 1.1479(5) 0.6405(3) 0.5160(1)
C8 C 0.9845(4) 0.5986(3) 0.5280(1)
C9 C 0.9379(4) 0.4893(3) 0.5496(1)
C10 C 0.7836(4) 0.4844(3) 0.5807(1)
C11 C 0.8088(4) 0.5115(3) 0.6455(1)
C12 C 0.7521(4) 0.7997(3) 0.7191(1)
C13 C 0.6309(3) 0.7348(3) 0.7587(1)
C14 C 0.7422(3) 0.6810(2) 0.8047(1)
C15 C 0.8757(3) 0.6243(2) 0.7691(1)
C16 C 1.0143(3) 0.6162(2) 0.8092(1)
C17 C 1.1603(3) 0.6854(3) 0.7988(1)
C18 C 0.6896(3) 0.5867(3) 0.8497(1)
C19 C 0.9821(3) 0.5641(2) 0.8610(1)
C20 C 1.3382(5) 0.5508(4) 0.6315(2)
C21 C 1.0372(5) 0.3738(3) 0.5529(2)
C22 C 0.5897(4) 0.4807(3) 0.8266(2)
C23 C 0.6124(4) 0.6492(3) 0.9012(1)
C24 C 1.0923(4) 0.5350(3) 0.9092(1)
H1 H 0.8843 0.6908 0.6237
H2 H 1.0636 0.8211 0.6789
H3 H 1.1059 0.5547 0.6942
H4 H 1.3161 0.7436 0.5624
H5 H 1.1396 0.7829 0.5787
H6 H 1.1494 0.6973 0.4821
H7 H 1.2156 0.5670 0.5075
H8 H 0.9036 0.6572 0.5192
H9 H 0.7357 0.4003 0.5758
H10 H 0.7109 0.5476 0.5641
H11 H 0.7050 0.5197 0.6646
H12 H 0.8639 0.4392 0.6633
H13 H 0.7060 0.8171 0.6806
H14 H 0.7883 0.8799 0.7362
H15 H 0.5555 0.7958 0.7754
H16 H 0.5725 0.6677 0.7382
H17 H 0.7875 0.7543 0.8261
H18 H 0.8451 0.5371 0.7574
H19 H 1.3434 0.5001 0.6653
H20 H 1.4213 0.5484 0.6041
H21 H 1.1403 0.3907 0.5357
H22 H 0.9856 0.3052 0.5319
H23 H 1.0507 0.3496 0.5935
H24 H 0.6426 0.4422 0.7933
H25 H 0.4872 0.5138 0.8145
H26 H 0.5746 0.4174 0.8568
H27 H 0.5842 0.5851 0.9298
H28 H 0.5172 0.6934 0.8885
H29 H 0.6857 0.7095 0.9185
H30 H 1.1831 0.4886 0.8941
H31 H 1.0382 0.4837 0.9382
H32 H 1.1282 0.6136 0.9269
loop_
_geom_bond_atom_site_label_1
_geom_bond_atom_site_label_2
_geom_bond_site_symmetry_1
_geom_bond_site_symmetry_2
O1 C3 1_555 1_555
O2 C18 1_555 1_555
O3 C17 1_555 1_555
C1 C2 1_555 1_555
C2 C3 1_555 1_555
C3 C4 1_555 1_555
C4 C1 1_555 1_555
C5 C4 1_555 1_555
C6 C5 1_555 1_555
C7 C6 1_555 1_555
C8 C7 1_555 1_555
C9 C8 1_555 1_555
C10 C9 1_555 1_555
C11 C1 1_555 1_555
C12 C2 1_555 1_555
C13 C12 1_555 1_555
C14 C13 1_555 1_555
C15 C2 1_555 1_555
C16 C15 1_555 1_555
C17 O1 1_555 1_555
C18 C14 1_555 1_555
C19 O2 1_555 1_555
C20 C5 1_555 1_555
C21 C9 1_555 1_555
C22 C18 1_555 1_555
C23 C18 1_555 1_555
C24 C19 1_555 1_555
H1 C1 1_555 1_555
H2 C3 1_555 1_555
H3 C4 1_555 1_555
H4 C6 1_555 1_555
H5 C6 1_555 1_555
H6 C7 1_555 1_555
H7 C7 1_555 1_555
H8 C8 1_555 1_555
H9 C10 1_555 1_555
H10 C10 1_555 1_555
H11 C11 1_555 1_555
H12 C11 1_555 1_555
H13 C12 1_555 1_555
H14 C12 1_555 1_555
H15 C13 1_555 1_555
H16 C13 1_555 1_555
H17 C14 1_555 1_555
H18 C15 1_555 1_555
H19 C20 1_555 1_555
H20 C20 1_555 1_555
H21 C21 1_555 1_555
H22 C21 1_555 1_555
H23 C21 1_555 1_555
H24 C22 1_555 1_555
H25 C22 1_555 1_555
H26 C22 1_555 1_555
H27 C23 1_555 1_555
H28 C23 1_555 1_555
H29 C23 1_555 1_555
H30 C24 1_555 1_555
H31 C24 1_555 1_555
H32 C24 1_555 1_555
C10 C11 1_555 1_555
C14 C15 1_555 1_555
C16 C17 1_555 1_555
C16 C19 1_555 1_555

#END
