
#######################################################################
#
#                 Cambridge Crystallographic Data Centre
#                                CCDC 
#
#######################################################################
#
# If this CIF has been generated from an entry in the Cambridge 
# Structural Database, then it will include bibliographic, chemical, 
# crystal, experimental, refinement or atomic coordinate data resulting 
# from the CCDC's data processing and validation procedures.
#
#######################################################################

data_KATXAG
_chemical_name_common            pregnenolone
_chemical_formula_moiety         'C23 H35 N1 O4'
_chemical_name_systematic        
'(((3-Hydroxypregn-5-en-20-ylidene)amino)oxy)acetic acid'
_symmetry_cell_setting           monoclinic
_symmetry_space_group_name_H-M   'P 21'
_symmetry_Int_Tables_number      4
_space_group_name_Hall           'P 2yb'
loop_
_symmetry_equiv_pos_site_id
_symmetry_equiv_pos_as_xyz
1 x,y,z
2 -x,1/2+y,-z
_cell_length_a                   6.5950(11)
_cell_length_b                   11.3801(18)
_cell_length_c                   29.257(4)
_cell_angle_alpha                90
_cell_angle_beta                 96.209(5)
_cell_angle_gamma                90
_cell_volume                     2182.91
_exptl_crystal_colour            colorless
_exptl_crystal_description       block
_cell_formula_units_Z            4
loop_
_atom_site_label
_atom_site_type_symbol
_atom_site_fract_x
_atom_site_fract_y
_atom_site_fract_z
O1 O 0.6417(6) 0.0036(4) -0.21500(11)
H1 H 0.5312 0.0081 -0.2307
O2 O 0.2152(6) -0.1386(5) 0.21413(13)
O3 O 0.0431(7) -0.3523(5) 0.22756(18)
O4 O -0.1728(7) -0.2725(4) 0.27098(14)
H2 H -0.223(11) -0.351(8) 0.277(2)
N1 N 0.1634(7) -0.0698(4) 0.17400(13)
C1 C 0.6811(7) -0.0667(6) -0.08897(16)
H3 H 0.7514 0.0035 -0.0770
H4 H 0.7434 -0.1334 -0.0722
C2 C 0.7135(8) -0.0795(6) -0.13933(16)
H5 H 0.8585 -0.0795 -0.1423
H6 H 0.6577 -0.1540 -0.1508
C3 C 0.6130(8) 0.0185(5) -0.16755(15)
H7 H 0.6747 0.0932 -0.1567
C4 C 0.3870(7) 0.0216(5) -0.16215(15)
H8 H 0.3256 0.0888 -0.1787
H9 H 0.3228 -0.0488 -0.1757
C5 C 0.3471(7) 0.0296(4) -0.11243(15)
C6 C 0.2190(7) 0.1082(4) -0.09892(15)
H10 H 0.1583 0.1595 -0.1211
C7 C 0.1632(7) 0.1219(4) -0.05089(15)
H11 H 0.0161 0.1281 -0.0520
H12 H 0.2217 0.1944 -0.0380
C8 C 0.2362(6) 0.0202(3) -0.01930(13)
H13 H 0.1422 -0.0461 -0.0253
C9 C 0.4493(6) -0.0183(4) -0.02911(13)
H14 H 0.5344 0.0523 -0.0254
C10 C 0.4565(7) -0.0588(4) -0.07948(14)
C11 C 0.5448(7) -0.1062(4) 0.00663(15)
H15 H 0.6864 -0.1181 0.0016
H16 H 0.4754 -0.1811 0.0017
C12 C 0.5358(7) -0.0682(4) 0.05733(15)
H17 H 0.5876 -0.1312 0.0777
H18 H 0.6219 0.0001 0.0640
C13 C 0.3181(6) -0.0391(4) 0.06609(14)
C14 C 0.2399(6) 0.0559(3) 0.03084(14)
H19 H 0.3381 0.1206 0.0353
C15 C 0.0442(7) 0.1014(5) 0.04874(16)
H20 H -0.0727 0.0553 0.0364
H21 H 0.0205 0.1831 0.0403
C16 C 0.0818(8) 0.0879(5) 0.10143(16)
H22 H -0.0252 0.0411 0.1127
H23 H 0.0845 0.1643 0.1162
C17 C 0.2910(7) 0.0259(4) 0.11156(15)
H24 H 0.3940 0.0883 0.1147
C18 C 0.1841(8) -0.1490(4) 0.06285(17)
H25 H 0.2378 -0.2051 0.0855
H26 H 0.1827 -0.1829 0.0328
H27 H 0.0477 -0.1282 0.0682
C19 C 0.3496(8) -0.1790(4) -0.08875(17)
H28 H 0.2100 -0.1733 -0.0825
H29 H 0.4182 -0.2377 -0.0692
H30 H 0.3545 -0.2007 -0.1203
C20 C 0.3211(8) -0.0446(5) 0.15510(16)
C21 C 0.5303(9) -0.0820(8) 0.1739(2)
H31 H 0.5231 -0.1259 0.2017
H32 H 0.6143 -0.0139 0.1804
H33 H 0.5880 -0.1304 0.1518
C22 C 0.0453(10) -0.1436(6) 0.23945(19)
H34 H -0.0663 -0.0991 0.2235
H35 H 0.0804 -0.1079 0.2694
C23 C -0.0217(9) -0.2675(6) 0.24557(18)
O5 O 0.6822(5) 0.5100(3) 0.28032(10)
H36 H 0.5791 0.5068 0.2620
O6 O 0.6054(6) 0.6677(3) 0.72632(12)
O7 O 0.8295(6) 0.8446(4) 0.69411(14)
O8 O 1.0611(7) 0.8336(4) 0.75517(14)
H37 H 1.133(12) 0.884(9) 0.734(3)
N2 N 0.6713(7) 0.5922(4) 0.69213(13)
C24 C 0.4345(7) 0.5527(5) 0.38992(16)
H38 H 0.3731 0.4757 0.3918
H39 H 0.3365 0.6103 0.3983
C25 C 0.4752(8) 0.5747(5) 0.34041(16)
H40 H 0.3491 0.5670 0.3203
H41 H 0.5258 0.6541 0.3375
C26 C 0.6289(7) 0.4886(4) 0.32638(15)
H42 H 0.5735 0.4089 0.3279
C27 C 0.8226(7) 0.4966(5) 0.35801(15)
H43 H 0.8846 0.5728 0.3543
H44 H 0.9170 0.4371 0.3495
C28 C 0.7882(7) 0.4801(4) 0.40792(15)
C29 C 0.8969(7) 0.4029(4) 0.43395(15)
H45 H 0.9894 0.3566 0.4202
C30 C 0.8812(7) 0.3853(4) 0.48388(16)
H46 H 1.0174 0.3795 0.5000
H47 H 0.8115 0.3117 0.4881
C31 C 0.7673(6) 0.4842(4) 0.50497(14)
H48 H 0.8563 0.5533 0.5082
C32 C 0.5771(7) 0.5156(4) 0.47315(14)
H49 H 0.5004 0.4423 0.4677
C33 C 0.6253(7) 0.5590(4) 0.42489(15)
C34 C 0.4359(8) 0.6000(5) 0.49603(17)
H50 H 0.3057 0.6034 0.4772
H51 H 0.4949 0.6781 0.4965
C35 C 0.3970(7) 0.5671(5) 0.54545(16)
H52 H 0.3224 0.6300 0.5585
H53 H 0.3139 0.4967 0.5447
C36 C 0.5963(7) 0.5458(4) 0.57582(15)
C37 C 0.7101(7) 0.4512(4) 0.55199(14)
H54 H 0.6142 0.3856 0.5468
C38 C 0.8757(8) 0.4084(5) 0.58818(16)
H55 H 0.9972 0.4566 0.5885
H56 H 0.9113 0.3274 0.5826
C39 C 0.7807(9) 0.4201(5) 0.63347(17)
H57 H 0.8719 0.4628 0.6558
H58 H 0.7561 0.3430 0.6459
C40 C 0.5791(7) 0.4869(4) 0.62312(15)
H59 H 0.4704 0.4280 0.6185
C41 C 0.7181(9) 0.6609(4) 0.58334(17)
H60 H 0.7303 0.6974 0.5542
H61 H 0.8515 0.6440 0.5984
H62 H 0.6484 0.7131 0.6021
C42 C 0.7101(9) 0.6854(4) 0.42783(18)
H63 H 0.7388 0.7106 0.3979
H64 H 0.8332 0.6874 0.4486
H65 H 0.6110 0.7370 0.4389
C43 C 0.5272(8) 0.5668(5) 0.66151(17)
C44 C 0.3136(9) 0.6129(7) 0.6614(2)
H66 H 0.3053 0.6610 0.6881
H67 H 0.2204 0.5482 0.6619
H68 H 0.2786 0.6590 0.6342
C45 C 0.7802(10) 0.7083(5) 0.75350(17)
H69 H 0.8725 0.6429 0.7607
H70 H 0.7409 0.7388 0.7822
C46 C 0.8892(9) 0.8023(5) 0.73006(19)
loop_
_geom_bond_atom_site_label_1
_geom_bond_atom_site_label_2
_geom_bond_site_symmetry_1
_geom_bond_site_symmetry_2
O1 H1 1_555 1_555
O2 N1 1_555 1_555
O3 C23 1_555 1_555
O4 H2 1_555 1_555
N1 C20 1_555 1_555
C1 H3 1_555 1_555
H4 C1 1_555 1_555
C2 C1 1_555 1_555
H5 C2 1_555 1_555
H6 C2 1_555 1_555
C3 O1 1_555 1_555
H7 C3 1_555 1_555
C4 C3 1_555 1_555
H8 C4 1_555 1_555
H9 C4 1_555 1_555
C5 C4 1_555 1_555
C6 C5 1_555 1_555
H10 C6 1_555 1_555
C7 C6 1_555 1_555
H11 C7 1_555 1_555
H12 C7 1_555 1_555
C8 C7 1_555 1_555
H13 C8 1_555 1_555
C9 C8 1_555 1_555
H14 C9 1_555 1_555
C10 C1 1_555 1_555
C11 C9 1_555 1_555
H15 C11 1_555 1_555
H16 C11 1_555 1_555
C12 C11 1_555 1_555
H17 C12 1_555 1_555
H18 C12 1_555 1_555
C13 C12 1_555 1_555
C14 C8 1_555 1_555
H19 C14 1_555 1_555
C15 C14 1_555 1_555
H20 C15 1_555 1_555
H21 C15 1_555 1_555
C16 C15 1_555 1_555
H22 C16 1_555 1_555
H23 C16 1_555 1_555
C17 C13 1_555 1_555
H24 C17 1_555 1_555
C18 C13 1_555 1_555
H25 C18 1_555 1_555
H26 C18 1_555 1_555
H27 C18 1_555 1_555
C19 C10 1_555 1_555
H28 C19 1_555 1_555
H29 C19 1_555 1_555
H30 C19 1_555 1_555
C20 C17 1_555 1_555
C21 C20 1_555 1_555
H31 C21 1_555 1_555
H32 C21 1_555 1_555
H33 C21 1_555 1_555
C22 O2 1_555 1_555
H34 C22 1_555 1_555
H35 C22 1_555 1_555
C23 O4 1_555 1_555
O5 H36 1_555 1_555
O6 N2 1_555 1_555
O7 C46 1_555 1_555
O8 H37 1_555 1_555
N2 C43 1_555 1_555
C24 H38 1_555 1_555
H39 C24 1_555 1_555
C25 C24 1_555 1_555
H40 C25 1_555 1_555
H41 C25 1_555 1_555
C26 O5 1_555 1_555
H42 C26 1_555 1_555
C27 C26 1_555 1_555
H43 C27 1_555 1_555
H44 C27 1_555 1_555
C28 C27 1_555 1_555
C29 C28 1_555 1_555
H45 C29 1_555 1_555
C30 C29 1_555 1_555
H46 C30 1_555 1_555
H47 C30 1_555 1_555
C31 C30 1_555 1_555
H48 C31 1_555 1_555
C32 C31 1_555 1_555
H49 C32 1_555 1_555
C33 C24 1_555 1_555
C34 C32 1_555 1_555
H50 C34 1_555 1_555
H51 C34 1_555 1_555
C35 C34 1_555 1_555
H52 C35 1_555 1_555
H53 C35 1_555 1_555
C36 C35 1_555 1_555
C37 C31 1_555 1_555
H54 C37 1_555 1_555
C38 C37 1_555 1_555
H55 C38 1_555 1_555
H56 C38 1_555 1_555
C39 C38 1_555 1_555
H57 C39 1_555 1_555
H58 C39 1_555 1_555
C40 C36 1_555 1_555
H59 C40 1_555 1_555
C41 C36 1_555 1_555
H60 C41 1_555 1_555
H61 C41 1_555 1_555
H62 C41 1_555 1_555
C42 C33 1_555 1_555
H63 C42 1_555 1_555
H64 C42 1_555 1_555
H65 C42 1_555 1_555
C43 C40 1_555 1_555
C44 C43 1_555 1_555
H66 C44 1_555 1_555
H67 C44 1_555 1_555
H68 C44 1_555 1_555
C45 O6 1_555 1_555
H69 C45 1_555 1_555
H70 C45 1_555 1_555
C46 O8 1_555 1_555
C2 C3 1_555 1_555
C5 C10 1_555 1_555
C9 C10 1_555 1_555
C13 C14 1_555 1_555
C16 C17 1_555 1_555
C22 C23 1_555 1_555
C25 C26 1_555 1_555
C28 C33 1_555 1_555
C32 C33 1_555 1_555
C36 C37 1_555 1_555
C39 C40 1_555 1_555
C45 C46 1_555 1_555

#END
