
#######################################################################
#
#                 Cambridge Crystallographic Data Centre
#                                CCDC 
#
#######################################################################
#
# If this CIF has been generated from an entry in the Cambridge 
# Structural Database, then it will include bibliographic, chemical, 
# crystal, experimental, refinement or atomic coordinate data resulting 
# from the CCDC's data processing and validation procedures.
#
#######################################################################

data_KATYAH
_chemical_formula_moiety         'C31 H44 Cl1 N1 O1'
_chemical_name_systematic        
16-(4-chloro-benzylidene)-3\b-piperidino-5\a-androstan-17\b-ol
_symmetry_cell_setting           orthorhombic
_symmetry_space_group_name_H-M   'P 21 21 2'
_symmetry_Int_Tables_number      18
_space_group_name_Hall           'P 2 2ab'
loop_
_symmetry_equiv_pos_site_id
_symmetry_equiv_pos_as_xyz
1 x,y,z
2 -x,-y,z
3 1/2-x,1/2+y,-z
4 1/2+x,1/2-y,-z
_cell_length_a                   17.3234(15)
_cell_length_b                   22.989(2)
_cell_length_c                   7.1595(7)
_cell_angle_alpha                90
_cell_angle_beta                 90
_cell_angle_gamma                90
_cell_volume                     2851.25
_exptl_crystal_colour            colorless
_exptl_crystal_description       needle
_chemical_melting_point          '225-227 deg.C'
_cell_formula_units_Z            4
loop_
_atom_site_label
_atom_site_type_symbol
_atom_site_fract_x
_atom_site_fract_y
_atom_site_fract_z
C1 C 0.18134(16) 0.79390(10) 0.5166(4)
H1 H 0.1797 0.8001 0.3827
H2 H 0.2346 0.7974 0.5565
C2 C 0.15266(16) 0.73245(10) 0.5599(4)
H3 H 0.1004 0.7279 0.5134
H4 H 0.1852 0.7043 0.4969
C3 C 0.15401(14) 0.72106(10) 0.7684(4)
H5 H 0.2069 0.7293 0.8094
C4 C 0.10256(14) 0.76563(10) 0.8674(4)
H6 H 0.1038 0.7588 1.0011
H7 H 0.0497 0.7613 0.8251
C5 C 0.13093(15) 0.82744(10) 0.8251(3)
H8 H 0.1845 0.8293 0.8689
C6 C 0.08666(17) 0.87347(10) 0.9344(4)
H9 H 0.0868 0.8635 1.0661
H10 H 0.0335 0.8745 0.8921
C7 C 0.12365(19) 0.93345(11) 0.9071(4)
H11 H 0.0927 0.9624 0.9711
H12 H 0.1746 0.9334 0.9634
C8 C 0.13074(15) 0.95010(10) 0.7026(4)
H13 H 0.0786 0.9544 0.6510
C9 C 0.17295(15) 0.90177(10) 0.5919(4)
H14 H 0.2239 0.8978 0.6500
C10 C 0.13300(14) 0.84117(10) 0.6135(3)
C11 C 0.18806(17) 0.91931(11) 0.3871(4)
H15 H 0.2212 0.8903 0.3298
H16 H 0.1394 0.9192 0.3200
C12 C 0.22575(15) 0.97920(10) 0.3654(4)
H17 H 0.2778 0.9781 0.4153
H18 H 0.2289 0.9892 0.2340
C13 C 0.17898(15) 1.02537(10) 0.4686(4)
C14 C 0.17383(15) 1.00734(10) 0.6743(4)
H19 H 0.2270 1.0002 0.7150
C15 C 0.14728(16) 1.06236(10) 0.7777(4)
H20 H 0.0915 1.0636 0.7875
H21 H 0.1693 1.0640 0.9022
C16 C 0.17716(14) 1.11202(10) 0.6570(4)
C17 C 0.21806(14) 1.08474(10) 0.4899(4)
H22 H 0.2722 1.0783 0.5236
C18 C 0.10041(15) 1.03475(11) 0.3763(4)
H23 H 0.0744 0.9981 0.3644
H24 H 0.1076 1.0515 0.2547
H25 H 0.0699 1.0605 0.4517
C19 C 0.05148(15) 0.84203(11) 0.5282(4)
H26 H 0.0552 0.8461 0.3951
H27 H 0.0229 0.8742 0.5788
H28 H 0.0254 0.8063 0.5576
C20 C 0.06552(16) 0.63662(11) 0.7493(5)
H29 H 0.0583 0.6459 0.6183
H30 H 0.0244 0.6551 0.8195
C21 C 0.0615(2) 0.57141(12) 0.7762(6)
H31 H 0.1006 0.5528 0.6995
H32 H 0.0114 0.5574 0.7358
C22 C 0.0741(2) 0.55509(13) 0.9786(6)
H33 H 0.0315 0.5692 1.0538
H34 H 0.0763 0.5131 0.9908
C23 C 0.14890(18) 0.58153(12) 1.0470(5)
H35 H 0.1920 0.5633 0.9833
H36 H 0.1545 0.5743 1.1798
C24 C 0.15022(17) 0.64668(11) 1.0110(4)
H37 H 0.1092 0.6652 1.0815
H38 H 0.1990 0.6627 1.0530
C25 C 0.17076(14) 1.16927(10) 0.6787(4)
H39 H 0.1876 1.1906 0.5761
C26 C 0.14247(14) 1.20498(10) 0.8324(4)
C27 C 0.14314(16) 1.26539(12) 0.8142(5)
H40 H 0.1577 1.2815 0.7003
C28 C 0.12314(19) 1.30215(12) 0.9576(5)
H41 H 0.1247 1.3423 0.9411
C29 C 0.10089(17) 1.27890(14) 1.1250(5)
C30 C 0.09894(17) 1.22031(13) 1.1513(5)
H42 H 0.0843 1.2049 1.2661
C31 C 0.11899(16) 1.18385(12) 1.0057(4)
H43 H 0.1167 1.1438 1.0241
Cl1 Cl 0.07527(7) 1.32545(4) 1.30835(15)
N1 N 0.14008(11) 0.65894(8) 0.8123(3)
O1 O 0.21585(10) 1.11955(8) 0.3266(3)
H44 H 0.2600 1.1268 0.2928
loop_
_geom_bond_atom_site_label_1
_geom_bond_atom_site_label_2
_geom_bond_site_symmetry_1
_geom_bond_site_symmetry_2
C1 H1 1_555 1_555
H2 C1 1_555 1_555
C2 C1 1_555 1_555
H3 C2 1_555 1_555
H4 C2 1_555 1_555
C3 C2 1_555 1_555
H5 C3 1_555 1_555
C4 C3 1_555 1_555
H6 C4 1_555 1_555
H7 C4 1_555 1_555
C5 C4 1_555 1_555
H8 C5 1_555 1_555
C6 C5 1_555 1_555
H9 C6 1_555 1_555
H10 C6 1_555 1_555
C7 C6 1_555 1_555
H11 C7 1_555 1_555
H12 C7 1_555 1_555
C8 C7 1_555 1_555
H13 C8 1_555 1_555
C9 C8 1_555 1_555
H14 C9 1_555 1_555
C10 C1 1_555 1_555
C11 C9 1_555 1_555
H15 C11 1_555 1_555
H16 C11 1_555 1_555
C12 C11 1_555 1_555
H17 C12 1_555 1_555
H18 C12 1_555 1_555
C13 C12 1_555 1_555
C14 C8 1_555 1_555
H19 C14 1_555 1_555
C15 C14 1_555 1_555
H20 C15 1_555 1_555
H21 C15 1_555 1_555
C16 C15 1_555 1_555
C17 C13 1_555 1_555
H22 C17 1_555 1_555
C18 C13 1_555 1_555
H23 C18 1_555 1_555
H24 C18 1_555 1_555
H25 C18 1_555 1_555
C19 C10 1_555 1_555
H26 C19 1_555 1_555
H27 C19 1_555 1_555
H28 C19 1_555 1_555
C20 H29 1_555 1_555
H30 C20 1_555 1_555
C21 C20 1_555 1_555
H31 C21 1_555 1_555
H32 C21 1_555 1_555
C22 C21 1_555 1_555
H33 C22 1_555 1_555
H34 C22 1_555 1_555
C23 C22 1_555 1_555
H35 C23 1_555 1_555
H36 C23 1_555 1_555
C24 C23 1_555 1_555
H37 C24 1_555 1_555
H38 C24 1_555 1_555
C25 C16 1_555 1_555
H39 C25 1_555 1_555
C26 C25 1_555 1_555
C27 C26 1_555 1_555
H40 C27 1_555 1_555
C28 C27 1_555 1_555
H41 C28 1_555 1_555
C29 C28 1_555 1_555
C30 C29 1_555 1_555
H42 C30 1_555 1_555
C31 C26 1_555 1_555
H43 C31 1_555 1_555
Cl1 C29 1_555 1_555
N1 C3 1_555 1_555
O1 C17 1_555 1_555
H44 O1 1_555 1_555
C5 C10 1_555 1_555
C9 C10 1_555 1_555
C13 C14 1_555 1_555
C16 C17 1_555 1_555
C20 N1 1_555 1_555
C24 N1 1_555 1_555
C30 C31 1_555 1_555

#END
