
#######################################################################
#
#                 Cambridge Crystallographic Data Centre
#                                CCDC 
#
#######################################################################
#
# If this CIF has been generated from an entry in the Cambridge 
# Structural Database, then it will include bibliographic, chemical, 
# crystal, experimental, refinement or atomic coordinate data resulting 
# from the CCDC's data processing and validation procedures.
#
#######################################################################

data_KAVBUF
_chemical_formula_moiety         
'0.88(C14 H12 Te4 1+),0.12(C14 H12 Te4),0.88(Cl1 O4 1-)'
_chemical_name_systematic        
"2,3,6,7-Tetramethylnaphtho(1,8-cd:4,5-c'd')bis(1,2)ditellurole perchlorate"
_symmetry_cell_setting           tetragonal
_symmetry_space_group_name_H-M   'P 42/n c m'
_symmetry_Int_Tables_number      138
_space_group_name_Hall           '-P 4ac 2ac'
loop_
_symmetry_equiv_pos_site_id
_symmetry_equiv_pos_as_xyz
1 x,y,z
2 1/2+y,1/2+x,-z
3 1/2-y,x,1/2+z
4 y,1/2-x,1/2+z
5 1/2+x,-y,1/2-z
6 -x,1/2+y,1/2-z
7 -y,-x,-z
8 1/2-x,1/2-y,z
9 -x,-y,-z
10 1/2-y,1/2-x,z
11 1/2+y,-x,1/2-z
12 -y,1/2+x,1/2-z
13 1/2-x,y,1/2+z
14 x,1/2-y,1/2+z
15 y,x,z
16 1/2+x,1/2+y,-z
_cell_length_a                   20.660(2)
_cell_length_b                   20.660(2)
_cell_length_c                   4.019(2)
_cell_angle_alpha                90
_cell_angle_beta                 90
_cell_angle_gamma                90
_cell_volume                     1715.45
_exptl_crystal_colour            black
_exptl_crystal_description       stick
_cell_formula_units_Z            4
loop_
_atom_site_label
_atom_site_type_symbol
_atom_site_fract_x
_atom_site_fract_y
_atom_site_fract_z
Cl1 Cl 0.2500 0.7500 0.5000
Cl3 Cl 0.2500 0.2500 1.08(2)
Te1 Te 0.16316(6) 0.57528(7) 0.0893(4)
C1 C 0.0233(7) 0.5233 0.0000
C2 C 0.0845(8) 0.5073(8) 0.100(5)
C3 C 0.1001(8) 0.4471(9) 0.202(4)
C4 C 0.168(1) 0.4302(10) 0.312(5)
H1 H 0.1770 0.3853 0.3824
H2 H 0.2026 0.4379 0.1402
H3 H 0.1845 0.4563 0.5026
Te1A Te 0.07528(7) 0.66316(6) -0.0893(4)
Te1H Te -0.16316(6) 0.42472(7) -0.0893(4)
Te1I Te -0.07528(7) 0.33684(6) 0.0893(4)
C1H C -0.0233(7) 0.4767 0.0000
C2A C 0.0073(8) 0.5845(8) -0.100(5)
C2H C -0.0845(8) 0.4927(8) -0.100(5)
C2I C -0.0073(8) 0.4155(8) 0.100(5)
C3I C 0.0529(9) 0.3999(8) 0.202(4)
C3H C -0.1001(8) 0.5529(9) -0.202(4)
C3A C -0.0529(9) 0.6001(8) -0.202(4)
C4I C 0.0698(10) 0.332(1) 0.312(5)
C4H C -0.168(1) 0.5698(10) -0.312(5)
C4A C -0.0698(10) 0.668(1) -0.312(5)
H1I H 0.1147 0.3230 0.3824
H1H H -0.1770 0.6147 -0.3824
H1A H -0.1147 0.6770 -0.3824
H2I H 0.0621 0.2974 0.1402
H2H H -0.2026 0.5621 -0.1402
H2A H -0.0621 0.7026 -0.1402
H3I H 0.0437 0.3155 0.5026
H3H H -0.1845 0.5437 -0.5026
H3A H -0.0437 0.6845 -0.5026
Cl2? Cl 0.7500 0.2500 -0.2500
Cl4? Cl 0.2500 0.2500 -0.18(10)
loop_
_geom_bond_atom_site_label_1
_geom_bond_atom_site_label_2
_geom_bond_site_symmetry_1
_geom_bond_site_symmetry_2
Te1 C2 1_555 1_555
C1 C2 1_555 1_555
C2 C3 1_555 1_555
C3 C4 1_555 1_555
C4 H1 1_555 1_555
H2 C4 1_555 1_555
H3 C4 1_555 1_555
Te1A Te1 1_555 1_555
Te1H Te1I 1_555 1_555
Te1I C2I 1_555 1_555
C1H C1 1_555 1_555
C2A C1 1_555 1_555
C2H Te1H 1_555 1_555
C2I C1H 1_555 1_555
C3I C3 1_555 1_555
C3H C2H 1_555 1_555
C3A C2A 1_555 1_555
C4I C3I 1_555 1_555
C4H C3H 1_555 1_555
C4A C3A 1_555 1_555
H1I C4I 1_555 1_555
H1H C4H 1_555 1_555
H1A C4A 1_555 1_555
H2I C4I 1_555 1_555
H2H C4H 1_555 1_555
H2A C4A 1_555 1_555
H3I C4I 1_555 1_555
H3H C4H 1_555 1_555
H3A C4A 1_555 1_555
Te1A C2A 1_555 1_555
C1H C2H 1_555 1_555
C2I C3I 1_555 1_555
C3H C3A 1_555 1_555

#END
