
#######################################################################
#
#                 Cambridge Crystallographic Data Centre
#                                CCDC 
#
#######################################################################
#
# If this CIF has been generated from an entry in the Cambridge 
# Structural Database, then it will include bibliographic, chemical, 
# crystal, experimental, refinement or atomic coordinate data resulting 
# from the CCDC's data processing and validation procedures.
#
#######################################################################

data_KAVCAM
_chemical_formula_moiety         
'0.7(C14 H12 Te4 1+),0.3(C14 H12 Te4),0.7(As1 F6 1-)'
_chemical_name_systematic        
"2,3,6,7-Tetramethylnaphtho(1,8-cd:4,5-c'd')bis(1,2)ditellurole hexafluoroarsenate"
_symmetry_cell_setting           tetragonal
_symmetry_space_group_name_H-M   'P -4 21 m'
_symmetry_Int_Tables_number      113
_space_group_name_Hall           'P -4 2ab'
loop_
_symmetry_equiv_pos_site_id
_symmetry_equiv_pos_as_xyz
1 x,y,z
2 1/2-x,1/2+y,-z
3 -x,-y,z
4 1/2+x,1/2-y,-z
5 -y,x,-z
6 1/2+y,1/2+x,z
7 y,-x,-z
8 1/2-y,1/2-x,z
_cell_length_a                   18.373(2)
_cell_length_b                   18.373(2)
_cell_length_c                   5.3236(9)
_cell_angle_alpha                90
_cell_angle_beta                 90
_cell_angle_gamma                90
_cell_volume                     1797.07
_cell_formula_units_Z            2
loop_
_atom_site_label
_atom_site_type_symbol
_atom_site_fract_x
_atom_site_fract_y
_atom_site_fract_z
As1 As 0.0000 0.5000 0.237(3)
F1 F 0.064(2) 0.5641 0.243(9)
F2 F -0.043(2) 0.5426 -0.010(5)
F3 F -0.041(2) 0.5409 0.484(9)
F1B F -0.064(2) 0.4359 0.243(9)
F2B F 0.043(2) 0.4574 -0.010(5)
F3B F 0.041(2) 0.4591 0.484(9)
Te1 Te 0.58716(9) 0.35686(9) 0.4365(4)
Te2 Te 0.65350(9) 0.42332(8) 0.0548(4)
C1 C 0.597(2) 0.219(1) 0.758(4)
C2 C 0.666(1) 0.218(1) 0.593(5)
C3 C 0.671(1) 0.274(1) 0.408(5)
C4 C 0.729(1) 0.282(1) 0.257(4)
C5 C 0.739(1) 0.342(1) 0.082(4)
C6 C 0.793(1) 0.349(1) -0.084(6)
C7 C 0.797(2) 0.417(2) -0.252(4)
H1 H 0.5938 0.2639 0.8460
H2 H 0.5548 0.2137 0.6541
H3 H 0.5983 0.1800 0.8752
H4 H 0.8013 0.4592 -0.1493
H5 H 0.8385 0.4139 -0.3592
H6 H 0.7544 0.4203 -0.3509
Te1E Te 0.85686(9) 0.08716(9) 0.4365(4)
Te2E Te 0.92332(8) 0.15350(9) 0.0548(4)
C1E C 0.719(1) 0.097(2) 0.758(4)
C2E C 0.718(1) 0.166(1) 0.593(5)
C3E C 0.774(1) 0.171(1) 0.408(5)
C4E C 0.782(1) 0.229(1) 0.257(4)
C5E C 0.842(1) 0.239(1) 0.082(4)
C6E C 0.849(1) 0.293(1) -0.084(6)
C7E C 0.917(2) 0.297(2) -0.252(4)
H1E H 0.7639 0.0938 0.8460
H2E H 0.7137 0.0548 0.6541
H3E H 0.6800 0.0983 0.8752
H4E H 0.9592 0.3013 -0.1493
H5E H 0.9139 0.3385 -0.3592
H6E H 0.9203 0.2544 -0.3509
As2? As 1.0000 0.0000 1.0000
As3? As 1.0000 0.0000 1.185(4)
As4? As 1.0000 0.0000 0.5000
loop_
_geom_bond_atom_site_label_1
_geom_bond_atom_site_label_2
_geom_bond_site_symmetry_1
_geom_bond_site_symmetry_2
Te1 Te2 1_555 1_555
Te2 C5 1_555 1_555
As1 F1 1_555 1_555
F2 As1 1_555 1_555
F3 As1 1_555 1_555
C1 C2 1_555 1_555
C2 C3 1_555 1_555
C3 Te1 1_555 1_555
C4 C3 1_555 1_555
C5 C4 1_555 1_555
C6 C5 1_555 1_555
C7 C6 1_555 1_555
H1 C1 1_555 1_555
H2 C1 1_555 1_555
H3 C1 1_555 1_555
H4 C7 1_555 1_555
H5 C7 1_555 1_555
H6 C7 1_555 1_555
Te1E Te2E 1_555 1_555
Te2E C5E 1_555 1_555
F1B As1 1_555 1_555
F2B As1 1_555 1_555
F3B As1 1_555 1_555
C1E C2E 1_555 1_555
C2E C2 1_555 1_555
C3E Te1E 1_555 1_555
C4E C4 1_555 1_555
C5E C4E 1_555 1_555
C6E C6 1_555 1_555
C7E C6E 1_555 1_555
H1E C1E 1_555 1_555
H2E C1E 1_555 1_555
H3E C1E 1_555 1_555
H4E C7E 1_555 1_555
H5E C7E 1_555 1_555
H6E C7E 1_555 1_555
C2E C3E 1_555 1_555
C3E C4E 1_555 1_555
C5E C6E 1_555 1_555

#END
