
#######################################################################
#
#                 Cambridge Crystallographic Data Centre
#                                CCDC 
#
#######################################################################
#
# If this CIF has been generated from an entry in the Cambridge 
# Structural Database, then it will include bibliographic, chemical, 
# crystal, experimental, refinement or atomic coordinate data resulting 
# from the CCDC's data processing and validation procedures.
#
#######################################################################

data_KAVFUI
_chemical_formula_moiety         'C3 H2 N4 O4'
_chemical_name_systematic        1,4-Dinitroimidazole
_symmetry_cell_setting           orthorhombic
_symmetry_space_group_name_H-M   'P 21 21 21'
_symmetry_Int_Tables_number      19
_space_group_name_Hall           'P 2ac 2ab'
loop_
_symmetry_equiv_pos_site_id
_symmetry_equiv_pos_as_xyz
1 x,y,z
2 1/2+x,1/2-y,-z
3 -x,1/2+y,1/2-z
4 1/2-x,-y,1/2+z
_cell_length_a                   5.853(3)
_cell_length_b                   9.591(8)
_cell_length_c                   10.392(5)
_cell_angle_alpha                90
_cell_angle_beta                 90
_cell_angle_gamma                90
_cell_volume                     583.367
_chemical_melting_point          92deg.C
_cell_formula_units_Z            4
loop_
_atom_site_label
_atom_site_type_symbol
_atom_site_fract_x
_atom_site_fract_y
_atom_site_fract_z
N1 N -0.5842(3) 1.1151(2) 0.3542(2)
N2 N -0.7830(4) 1.1406(2) 0.2795(2)
O1 O -0.8100(4) 1.2607(2) 0.2457(2)
O2 O -0.8995(3) 1.0396(2) 0.2574(2)
C1 C -0.4100(4) 1.2086(2) 0.3741(2)
H1 H -0.4074(4) 1.3045(2) 0.3415(2)
N3 N -0.2490(3) 1.1517(2) 0.4425(2)
C2 C -0.3276(4) 1.0187(2) 0.4661(2)
N4 N -0.1967(3) 0.9217(2) 0.5419(2)
O3 O -0.2807(3) 0.8066(2) 0.5601(2)
O4 O -0.0075(3) 0.9596(2) 0.5810(2)
C3 C -0.5340(4) 0.9909(2) 0.4131(2)
H2 H -0.6238(4) 0.9047(2) 0.4161(2)
loop_
_geom_bond_atom_site_label_1
_geom_bond_atom_site_label_2
_geom_bond_site_symmetry_1
_geom_bond_site_symmetry_2
N1 N2 1_555 1_555
N2 O1 1_555 1_555
O2 N2 1_555 1_555
C1 N1 1_555 1_555
H1 C1 1_555 1_555
N3 C1 1_555 1_555
C2 N3 1_555 1_555
N4 C2 1_555 1_555
O3 N4 1_555 1_555
O4 N4 1_555 1_555
C3 N1 1_555 1_555
H2 C3 1_555 1_555
C2 C3 1_555 1_555

#END
