
#######################################################################
#
#                 Cambridge Crystallographic Data Centre
#                                CCDC 
#
#######################################################################
#
# If this CIF has been generated from an entry in the Cambridge 
# Structural Database, then it will include bibliographic, chemical, 
# crystal, experimental, refinement or atomic coordinate data resulting 
# from the CCDC's data processing and validation procedures.
#
#######################################################################

data_KAVLOL
_chemical_formula_moiety         'C34 H40 N2 O2'
_chemical_name_systematic        
4-benzoyl-1,3-bis(2,6-diisopropylphenyl)-1H-imidazol-3-ium-5-olate
_symmetry_cell_setting           triclinic
_symmetry_space_group_name_H-M   'P -1'
_symmetry_Int_Tables_number      2
_space_group_name_Hall           '-P 1'
loop_
_symmetry_equiv_pos_site_id
_symmetry_equiv_pos_as_xyz
1 x,y,z
2 -x,-y,-z
_cell_length_a                   11.537(18)
_cell_length_b                   11.605(18)
_cell_length_c                   11.950(19)
_cell_angle_alpha                74.12(2)
_cell_angle_beta                 87.37(2)
_cell_angle_gamma                82.09(2)
_cell_volume                     1524.19
_exptl_crystal_colour            colorless
_exptl_crystal_description       block
_cell_formula_units_Z            2
loop_
_atom_site_label
_atom_site_type_symbol
_atom_site_fract_x
_atom_site_fract_y
_atom_site_fract_z
O1 O 0.86703(16) 0.78747(17) 0.00926(16)
O2 O 0.60274(18) 0.5753(2) 0.21243(17)
N1 N 0.94478(18) 0.72481(17) 0.19775(18)
N2 N 0.80107(19) 0.64043(18) 0.30010(17)
C1 C 0.9076(3) 0.6663(2) 0.3034(3)
C2 C 0.8528(2) 0.7394(2) 0.1153(2)
C3 C 0.7600(2) 0.6860(2) 0.1832(2)
C4 C 1.0601(2) 0.7630(2) 0.1728(2)
C5 C 1.0826(3) 0.8676(2) 0.1968(2)
C6 C 1.1940(3) 0.9002(3) 0.1713(3)
H1 H 1.2121 0.9707 0.1854
C7 C 1.2788(3) 0.8291(3) 0.1251(3)
H2 H 1.3536 0.8513 0.1103
C8 C 1.2538(3) 0.7273(3) 0.1012(3)
H3 H 1.3120 0.6814 0.0696
C9 C 1.1431(3) 0.6897(2) 0.1229(2)
C10 C 0.9883(3) 0.9458(3) 0.2468(3)
H4 H 0.9390 0.8912 0.2987
C11 C 0.9099(3) 1.0285(3) 0.1496(3)
H5 H 0.9546 1.0859 0.0989
H6 H 0.8460 1.0706 0.1828
H7 H 0.8800 0.9809 0.1061
C12 C 1.0365(4) 1.0188(3) 0.3193(3)
H8 H 1.0937 0.9672 0.3726
H9 H 0.9736 1.0510 0.3620
H10 H 1.0723 1.0839 0.2686
C13 C 1.1165(3) 0.5773(3) 0.0945(3)
H11 H 1.0322 0.5745 0.1061
C14 C 1.1788(4) 0.4632(3) 0.1773(3)
H12 H 1.2619 0.4632 0.1686
H13 H 1.1574 0.3933 0.1593
H14 H 1.1562 0.4614 0.2560
C15 C 1.1442(3) 0.5803(3) -0.0324(3)
H15 H 1.0964 0.6472 -0.0823
H16 H 1.1283 0.5063 -0.0462
H17 H 1.2253 0.5893 -0.0484
C16 C 0.6544(2) 0.6553(2) 0.1500(2)
C17 C 0.6051(2) 0.7184(3) 0.0307(2)
C18 C 0.5490(2) 0.6530(3) -0.0249(3)
H18 H 0.5469 0.5713 0.0104
C19 C 0.4956(3) 0.7042(4) -0.1309(3)
H19 H 0.4618 0.6570 -0.1686
C20 C 0.4933(3) 0.8262(4) -0.1801(3)
H20 H 0.4545 0.8632 -0.2498
C21 C 0.5486(3) 0.8938(3) -0.1256(3)
H21 H 0.5475 0.9763 -0.1594
C22 C 0.6056(3) 0.8404(3) -0.0214(3)
H22 H 0.6443 0.8865 0.0136
C23 C 0.7386(2) 0.5825(3) 0.4053(2)
C24 C 0.6723(3) 0.6568(3) 0.4656(2)
C25 C 0.6177(3) 0.5986(3) 0.5687(3)
H23 H 0.5723 0.6449 0.6110
C26 C 0.6296(3) 0.4754(4) 0.6086(3)
H24 H 0.5923 0.4389 0.6773
C27 C 0.6969(3) 0.4047(3) 0.5470(3)
H25 H 0.7064 0.3211 0.5762
C28 C 0.7507(3) 0.4572(3) 0.4419(2)
C29 C 0.6588(3) 0.7931(3) 0.4241(3)
H26 H 0.6982 0.8156 0.3484
C30 C 0.5295(4) 0.8452(3) 0.4070(4)
H27 H 0.4952 0.8101 0.3546
H28 H 0.5230 0.9312 0.3750
H29 H 0.4893 0.8269 0.4806
C31 C 0.7151(4) 0.8485(3) 0.5061(3)
H30 H 0.6784 0.8271 0.5814
H31 H 0.7055 0.9348 0.4759
H32 H 0.7970 0.8184 0.5128
C32 C 0.8184(3) 0.3797(3) 0.3703(3)
H33 H 0.8291 0.4322 0.2920
C33 C 0.9405(3) 0.3268(3) 0.4203(3)
H34 H 0.9827 0.3913 0.4243
H35 H 0.9822 0.2820 0.3710
H36 H 0.9329 0.2742 0.4970
C34 C 0.7506(3) 0.2799(3) 0.3584(3)
H37 H 0.7484 0.2205 0.4321
H38 H 0.7886 0.2424 0.3017
H39 H 0.6723 0.3138 0.3340
H40 H 0.9464(18) 0.6536(17) 0.3719(18)
loop_
_geom_bond_atom_site_label_1
_geom_bond_atom_site_label_2
_geom_bond_site_symmetry_1
_geom_bond_site_symmetry_2
O1 C2 1_555 1_555
O2 C16 1_555 1_555
N1 C1 1_555 1_555
N2 C1 1_555 1_555
C1 H40 1_555 1_555
C2 N1 1_555 1_555
C3 N2 1_555 1_555
C4 N1 1_555 1_555
C5 C4 1_555 1_555
C6 C5 1_555 1_555
H1 C6 1_555 1_555
C7 C6 1_555 1_555
H2 C7 1_555 1_555
C8 C7 1_555 1_555
H3 C8 1_555 1_555
C9 C4 1_555 1_555
C10 C5 1_555 1_555
H4 C10 1_555 1_555
C11 C10 1_555 1_555
H5 C11 1_555 1_555
H6 C11 1_555 1_555
H7 C11 1_555 1_555
C12 C10 1_555 1_555
H8 C12 1_555 1_555
H9 C12 1_555 1_555
H10 C12 1_555 1_555
C13 C9 1_555 1_555
H11 C13 1_555 1_555
C14 C13 1_555 1_555
H12 C14 1_555 1_555
H13 C14 1_555 1_555
H14 C14 1_555 1_555
C15 C13 1_555 1_555
H15 C15 1_555 1_555
H16 C15 1_555 1_555
H17 C15 1_555 1_555
C16 C3 1_555 1_555
C17 C16 1_555 1_555
C18 C17 1_555 1_555
H18 C18 1_555 1_555
C19 C18 1_555 1_555
H19 C19 1_555 1_555
C20 C19 1_555 1_555
H20 C20 1_555 1_555
C21 C20 1_555 1_555
H21 C21 1_555 1_555
C22 C17 1_555 1_555
H22 C22 1_555 1_555
C23 N2 1_555 1_555
C24 C23 1_555 1_555
C25 C24 1_555 1_555
H23 C25 1_555 1_555
C26 C25 1_555 1_555
H24 C26 1_555 1_555
C27 C26 1_555 1_555
H25 C27 1_555 1_555
C28 C23 1_555 1_555
C29 C24 1_555 1_555
H26 C29 1_555 1_555
C30 C29 1_555 1_555
H27 C30 1_555 1_555
H28 C30 1_555 1_555
H29 C30 1_555 1_555
C31 C29 1_555 1_555
H30 C31 1_555 1_555
H31 C31 1_555 1_555
H32 C31 1_555 1_555
C32 C28 1_555 1_555
H33 C32 1_555 1_555
C33 C32 1_555 1_555
H34 C33 1_555 1_555
H35 C33 1_555 1_555
H36 C33 1_555 1_555
C34 C32 1_555 1_555
H37 C34 1_555 1_555
H38 C34 1_555 1_555
H39 C34 1_555 1_555
C2 C3 1_555 1_555
C8 C9 1_555 1_555
C21 C22 1_555 1_555
C27 C28 1_555 1_555

#END
