
#######################################################################
#
#                 Cambridge Crystallographic Data Centre
#                                CCDC 
#
#######################################################################
#
# If this CIF has been generated from an entry in the Cambridge 
# Structural Database, then it will include bibliographic, chemical, 
# crystal, experimental, refinement or atomic coordinate data resulting 
# from the CCDC's data processing and validation procedures.
#
#######################################################################

data_KAVPIJ
_chemical_formula_moiety         'C25 H25 Br1 Cl1 N1 O5'
_chemical_name_systematic        
'dimethyl 3-((4-bromobenzyl)carbamoyl)-2-(2-chlorophenyl)-4-vinylcyclopentane-1,1-dicarboxylate'
_symmetry_cell_setting           triclinic
_symmetry_space_group_name_H-M   'P 1'
_symmetry_Int_Tables_number      1
_space_group_name_Hall           'P 1'
loop_
_symmetry_equiv_pos_site_id
_symmetry_equiv_pos_as_xyz
1 x,y,z
_cell_length_a                   9.6339(19)
_cell_length_b                   11.781(2)
_cell_length_c                   13.001(3)
_cell_angle_alpha                103.90(3)
_cell_angle_beta                 107.58(3)
_cell_angle_gamma                102.61(3)
_cell_volume                     1296.26
_exptl_crystal_colour            colorless
_exptl_crystal_description       column
_cell_formula_units_Z            2
loop_
_atom_site_label
_atom_site_type_symbol
_atom_site_fract_x
_atom_site_fract_y
_atom_site_fract_z
Br1 Br 1.00307(10) 0.98569(7) 0.08496(7)
Cl1 Cl 0.3945(3) 0.88254(19) -0.4747(2)
O1 O 0.3952(3) 0.5280(3) -0.4725(3)
O2 O 0.7072(4) 0.7026(5) -0.7275(3)
O3 O 0.5267(5) 0.7133(6) -0.8734(4)
O4 O 0.2157(4) 0.7198(5) -0.8008(4)
O5 O 0.4413(4) 0.8685(4) -0.7178(4)
N1 N 0.6325(3) 0.5146(3) -0.4266(2)
H1 H 0.7082 0.5128 -0.4482
C1 C 0.5210(3) 0.5553(3) -0.6019(3)
H2 H 0.6206 0.5550 -0.6066
C2 C 0.4960(3) 0.6792(3) -0.6029(3)
H3 H 0.4034 0.6776 -0.5859
C3 C 0.4488(4) 0.6694(4) -0.7325(3)
C4 C 0.3550(7) 0.5328(5) -0.7939(4)
H4 H 0.2464 0.5237 -0.8216
H5 H 0.3812 0.5002 -0.8589
C5 C 0.3902(4) 0.4620(4) -0.7104(3)
H6 H 0.2999 0.4397 -0.6906
C6 C 0.5123(3) 0.5307(3) -0.4940(3)
C7 C 0.6444(4) 0.4994(4) -0.3163(3)
H7 H 0.6955 0.4384 -0.3052
H8 H 0.5421 0.4689 -0.3168
C8 C 0.7316(4) 0.6180(4) -0.2182(3)
C9 C 0.8386(5) 0.6203(5) -0.1174(4)
H9 H 0.8555 0.5472 -0.1104
C10 C 0.9207(6) 0.7292(6) -0.0269(4)
H10 H 0.9922 0.7299 0.0400
C11 C 0.8941(5) 0.8345(5) -0.0385(4)
C12 C 0.7908(7) 0.8371(5) -0.1355(4)
H11 H 0.7753 0.9108 -0.1416
C13 C 0.7101(6) 0.7286(5) -0.2239(4)
H12 H 0.6384 0.7296 -0.2899
C14 C 0.6205(4) 0.7913(3) -0.5121(3)
C15 C 0.5846(7) 0.8871(5) -0.4483(4)
C16 C 0.7001(11) 0.9889(5) -0.3618(5)
H13 H 0.6745 1.0517 -0.3205
C17 C 0.8497(11) 0.9962(6) -0.3379(6)
H14 H 0.9271 1.0645 -0.2815
C18 C 0.8845(7) 0.9039(6) -0.3963(5)
H15 H 0.9870 0.9087 -0.3788
C19 C 0.7726(5) 0.8013(4) -0.4820(4)
H16 H 0.8015 0.7384 -0.5197
C20 C 0.5799(5) 0.6988(5) -0.7734(4)
C21 C 0.6346(10) 0.7351(12) -0.9299(6)
H17 H 0.5832 0.7432 -1.0023
H18 H 0.6742 0.6670 -0.9418
H19 H 0.7177 0.8094 -0.8829
C22 C 0.3521(5) 0.7527(5) -0.7567(4)
C23 C 0.3685(13) 0.9589(9) -0.7373(12)
H20 H 0.4439 1.0391 -0.7041
H21 H 0.2931 0.9568 -0.7029
H22 H 0.3195 0.9416 -0.8180
C24 C 0.4218(11) 0.3478(7) -0.7547(7)
C25 C 0.355(3) 0.2520(13) -0.779(3)
H23 H 0.4047 0.1931 -0.7714
H24 H 0.2487 0.2287 -0.8061
Br2 Br 0.6204(2) 0.09864(19) -1.0480(3)
Cl2 Cl 0.71200(14) 0.21876(14) -0.48989(14)
O6 O 0.8994(3) 0.5468(3) -0.4802(2)
O7 O 0.8924(5) 0.3229(4) -0.2103(3)
O8 O 1.1106(6) 0.3401(5) -0.0748(3)
O9 O 1.3920(4) 0.4076(5) -0.1878(5)
O10 O 1.2061(5) 0.2301(4) -0.2454(4)
N2 N 1.0964(3) 0.5593(3) -0.5386(2)
H27 H 1.1900 0.5600 -0.5228
C27 C 1.1251(3) 0.5203(3) -0.3604(3)
H28 H 1.2254 0.5197 -0.3635
C28 C 1.0436(4) 0.3986(3) -0.3505(3)
H29 H 0.9410 0.4011 -0.3549
C29 C 1.1351(4) 0.4097(4) -0.2234(3)
C30 C 1.1991(6) 0.5518(4) -0.1593(3)
H30 H 1.1605 0.5727 -0.0988
H31 H 1.3103 0.5782 -0.1255
C31 C 1.1464(4) 0.6145(4) -0.2462(3)
H32 H 1.0454 0.6210 -0.2499
C32 C 1.0305(3) 0.5436(3) -0.4641(3)
C33 C 1.0162(4) 0.5751(4) -0.6444(3)
H33 H 1.0910 0.6178 -0.6695
H34 H 0.9540 0.6272 -0.6305
C34 C 0.9144(5) 0.4572(4) -0.7392(4)
C35 C 0.8173(11) 0.4616(7) -0.8391(6)
H35 H 0.8136 0.5374 -0.8470
C36 C 0.7250(14) 0.3545(9) -0.9278(8)
H36 H 0.6609 0.3573 -0.9962
C37 C 0.7301(10) 0.2431(8) -0.9127(7)
C38 C 0.8217(9) 0.2386(6) -0.8182(5)
H37 H 0.8250 0.1624 -0.8111
C39 C 0.9122(7) 0.3423(5) -0.7302(4)
H38 H 0.9741 0.3363 -0.6626
C40 C 1.0210(5) 0.2840(4) -0.4439(3)
C41 C 0.8804(6) 0.1958(4) -0.5067(4)
C42 C 0.8596(9) 0.0865(5) -0.5869(4)
H39 H 0.7633 0.0275 -0.6245
C43 C 0.9799(12) 0.0668(7) -0.6099(6)
H40 H 0.9677 -0.0073 -0.6627
C44 C 1.1212(12) 0.1544(8) -0.5565(7)
H41 H 1.2032 0.1411 -0.5756
C45 C 1.1427(7) 0.2640(5) -0.4734(5)
H42 H 1.2388 0.3235 -0.4377
C46 C 1.0273(6) 0.3504(4) -0.1722(3)
C47 C 1.0244(14) 0.2837(11) -0.0166(6)
H43 H 1.0940 0.2813 0.0529
H44 H 0.9619 0.2014 -0.0649
H45 H 0.9601 0.3310 0.0009
C48 C 1.2611(5) 0.3521(5) -0.2152(4)
C49 C 1.3141(13) 0.1617(11) -0.2540(14)
H46 H 1.2627 0.0753 -0.2745
H47 H 1.3979 0.1889 -0.1817
H48 H 1.3526 0.1759 -0.3113
C50 C 1.2505(7) 0.7405(5) -0.2189(5)
H49 H 1.3461 0.7462 -0.2236
C51 C 1.2211(17) 0.8417(10) -0.1895(13)
H50 H 1.1270 0.8406 -0.1837
H51 H 1.2938 0.9163 -0.1741
C26? C 0.459(5) 0.274(3) -0.752(4)
H25? H 0.3891 0.1960 -0.7749
H26? H 0.5639 0.2845 -0.7256
Br3? Br 0.5496(13) 0.0876(4) -1.0058(4)
loop_
_geom_bond_atom_site_label_1
_geom_bond_atom_site_label_2
_geom_bond_site_symmetry_1
_geom_bond_site_symmetry_2
Br1 C11 1_555 1_555
Cl1 C15 1_555 1_555
O1 C6 1_555 1_555
O2 C20 1_555 1_555
O3 C20 1_555 1_555
O4 C22 1_555 1_555
O5 C22 1_555 1_555
N1 H1 1_555 1_555
C1 H2 1_555 1_555
C2 C1 1_555 1_555
H3 C2 1_555 1_555
C3 C2 1_555 1_555
C4 C3 1_555 1_555
H4 C4 1_555 1_555
H5 C4 1_555 1_555
C5 C1 1_555 1_555
H6 C5 1_555 1_555
C6 N1 1_555 1_555
C7 N1 1_555 1_555
H7 C7 1_555 1_555
H8 C7 1_555 1_555
C8 C7 1_555 1_555
C9 C8 1_555 1_555
H9 C9 1_555 1_555
C10 C9 1_555 1_555
H10 C10 1_555 1_555
C11 C10 1_555 1_555
C12 C11 1_555 1_555
H11 C12 1_555 1_555
C13 C8 1_555 1_555
H12 C13 1_555 1_555
C14 C2 1_555 1_555
C15 C14 1_555 1_555
C16 C15 1_555 1_555
H13 C16 1_555 1_555
C17 C16 1_555 1_555
H14 C17 1_555 1_555
C18 C17 1_555 1_555
H15 C18 1_555 1_555
C19 C14 1_555 1_555
H16 C19 1_555 1_555
C20 C3 1_555 1_555
C21 O3 1_555 1_555
H17 C21 1_555 1_555
H18 C21 1_555 1_555
H19 C21 1_555 1_555
C22 C3 1_555 1_555
C23 O5 1_555 1_555
H20 C23 1_555 1_555
H21 C23 1_555 1_555
H22 C23 1_555 1_555
C24 C5 1_555 1_555
C25 C24 1_555 1_555
H23 C25 1_555 1_555
H24 C25 1_555 1_555
Br2 C37 1_555 1_555
Cl2 C41 1_555 1_555
O6 C32 1_555 1_555
O7 C46 1_555 1_555
O8 C46 1_555 1_555
O9 C48 1_555 1_555
O10 C48 1_555 1_555
N2 H27 1_555 1_555
C27 H28 1_555 1_555
C28 C27 1_555 1_555
H29 C28 1_555 1_555
C29 C28 1_555 1_555
C30 C29 1_555 1_555
H30 C30 1_555 1_555
H31 C30 1_555 1_555
C31 C27 1_555 1_555
H32 C31 1_555 1_555
C32 N2 1_555 1_555
C33 N2 1_555 1_555
H33 C33 1_555 1_555
H34 C33 1_555 1_555
C34 C33 1_555 1_555
C35 C34 1_555 1_555
H35 C35 1_555 1_555
C36 C35 1_555 1_555
H36 C36 1_555 1_555
C37 C36 1_555 1_555
C38 C37 1_555 1_555
H37 C38 1_555 1_555
C39 C34 1_555 1_555
H38 C39 1_555 1_555
C40 C28 1_555 1_555
C41 C40 1_555 1_555
C42 C41 1_555 1_555
H39 C42 1_555 1_555
C43 C42 1_555 1_555
H40 C43 1_555 1_555
C44 C43 1_555 1_555
H41 C44 1_555 1_555
C45 C40 1_555 1_555
H42 C45 1_555 1_555
C46 C29 1_555 1_555
C47 O8 1_555 1_555
H43 C47 1_555 1_555
H44 C47 1_555 1_555
H45 C47 1_555 1_555
C48 C29 1_555 1_555
C49 O10 1_555 1_555
H46 C49 1_555 1_555
H47 C49 1_555 1_555
H48 C49 1_555 1_555
C50 C31 1_555 1_555
H49 C50 1_555 1_555
C51 C50 1_555 1_555
H50 C51 1_555 1_555
H51 C51 1_555 1_555
C1 C6 1_555 1_555
C4 C5 1_555 1_555
C12 C13 1_555 1_555
C18 C19 1_555 1_555
C27 C32 1_555 1_555
C30 C31 1_555 1_555
C38 C39 1_555 1_555
C44 C45 1_555 1_555

#END
