
#######################################################################
#
#                 Cambridge Crystallographic Data Centre
#                                CCDC 
#
#######################################################################
#
# If this CIF has been generated from an entry in the Cambridge 
# Structural Database, then it will include bibliographic, chemical, 
# crystal, experimental, refinement or atomic coordinate data resulting 
# from the CCDC's data processing and validation procedures.
#
#######################################################################

data_KAVPOP
_chemical_formula_moiety         'C25 H25 Br1 Cl1 N1 O5'
_chemical_name_systematic        
'dimethyl 3-((4-bromobenzyl)carbamoyl)-2-(2-chlorophenyl)-4-vinylcyclopentane-1,1-dicarboxylate'
_symmetry_cell_setting           triclinic
_symmetry_space_group_name_H-M   'P 1'
_symmetry_Int_Tables_number      1
_space_group_name_Hall           'P 1'
loop_
_symmetry_equiv_pos_site_id
_symmetry_equiv_pos_as_xyz
1 x,y,z
_cell_length_a                   9.582
_cell_length_b                   11.863
_cell_length_c                   13.061
_cell_angle_alpha                103.71
_cell_angle_beta                 108.33
_cell_angle_gamma                102.90
_cell_volume                     1295.83
_exptl_crystal_colour            colorless
_exptl_crystal_description       column
_cell_formula_units_Z            2
loop_
_atom_site_label
_atom_site_type_symbol
_atom_site_fract_x
_atom_site_fract_y
_atom_site_fract_z
Br1 Br 0.86071(13) 0.81680(9) 0.92002(9)
Cl1 Cl 0.2708(4) 0.7097(2) 0.3577(3)
O1 O 0.0843(5) 0.5517(5) 0.0416(5)
O2 O 0.3125(6) 0.6993(4) 0.1137(5)
O3 O 0.5802(6) 0.5384(5) 0.1041(4)
O4 O 0.3872(6) 0.5353(6) -0.0453(4)
O5 O 0.2725(5) 0.3545(4) 0.3476(4)
N1 N 0.5129(5) 0.3473(4) 0.4094(3)
H1 H 0.5934 0.3468 0.3935
C1 C 0.4229(6) 0.3958(4) 0.2366(4)
H2 H 0.5322 0.4103 0.2478
C2 C 0.3823(6) 0.5143(4) 0.2340(4)
H3 H 0.2911 0.5065 0.2539
C3 C 0.3220(6) 0.5025(4) 0.1045(4)
C4 C 0.2244(7) 0.3656(5) 0.0499(4)
H4 H 0.1243 0.3524 0.0562
H5 H 0.2078 0.3363 -0.0303
C5 C 0.3182(7) 0.3000(5) 0.1161(5)
H6 H 0.3872 0.2794 0.0784
C6 C 0.2192(10) 0.1826(6) 0.1151(7)
H7 H 0.1367 0.1876 0.1369
C7 C 0.2327(19) 0.0815(9) 0.0895(15)
H8 H 0.3130 0.0704 0.0669
H9 H 0.1628 0.0151 0.0924
C8 C 0.3970(6) 0.3626(4) 0.3357(4)
C9 C 0.5155(7) 0.3311(5) 0.5160(5)
H10 H 0.5669 0.2713 0.5303
H11 H 0.4097 0.2991 0.5099
C10 C 0.5989(6) 0.4499(5) 0.6159(4)
C11 C 0.5762(9) 0.5580(6) 0.6063(5)
H12 H 0.5071 0.5580 0.5379
C12 C 0.6548(10) 0.6669(7) 0.6972(6)
H13 H 0.6379 0.7395 0.6903
C13 C 0.7562(8) 0.6662(6) 0.7959(5)
C14 C 0.7826(9) 0.5627(7) 0.8100(6)
H14 H 0.8522 0.5640 0.8788
C15 C 0.7023(8) 0.4537(7) 0.7182(5)
H15 H 0.7193 0.3816 0.7264
C16 C 0.5055(7) 0.6301(4) 0.3236(4)
C17 C 0.4657(10) 0.7222(6) 0.3855(6)
C18 C 0.5771(16) 0.8259(6) 0.4696(7)
H16 H 0.5474 0.8878 0.5066
C19 C 0.7310(16) 0.8381(7) 0.4991(7)
H17 H 0.8068 0.9060 0.5583
C20 C 0.7704(11) 0.7503(7) 0.4407(8)
H18 H 0.8750 0.7587 0.4589
C21 C 0.6596(8) 0.6474(6) 0.3539(6)
H19 H 0.6916 0.5884 0.3153
C22 C 0.4486(7) 0.5287(5) 0.0580(5)
C23 C 0.4913(13) 0.5602(11) -0.1028(8)
H20 H 0.4341 0.5626 -0.1767
H21 H 0.5381 0.4968 -0.1114
H22 H 0.5709 0.6378 -0.0583
C24 C 0.2244(7) 0.5850(5) 0.0802(5)
C25 C 0.2335(14) 0.7871(9) 0.0930(13)
H23 H 0.3086 0.8672 0.1200
H24 H 0.1646 0.7878 0.1328
H25 H 0.1748 0.7646 0.0125
Br2 Br 0.3881(8) -0.0775(3) -0.1665(3)
Cl2 Cl 0.5773(2) 0.06194(16) 0.34343(18)
O6 O 1.2774(8) 0.2667(6) 0.6593(6)
O7 O 1.1053(10) 0.0790(6) 0.6009(9)
O8 O 0.7631(9) 0.1474(5) 0.6190(6)
O9 O 0.9858(13) 0.1710(10) 0.7579(5)
O10 O 0.7900(5) 0.3831(4) 0.3648(4)
N2 N 0.9756(5) 0.3899(4) 0.2945(4)
H26 H 1.0689 0.3897 0.3057
C26 C 1.0202(5) 0.3430(4) 0.4693(4)
H27 H 1.1025 0.3208 0.4484
C27 C 0.9210(6) 0.2312(4) 0.4846(4)
H28 H 0.8210 0.2436 0.4774
C28 C 1.0072(8) 0.2444(5) 0.6119(4)
C29 C 1.0536(9) 0.3845(5) 0.6701(5)
H29 H 0.9676 0.4054 0.6842
H30 H 1.1414 0.4116 0.7426
C30 C 1.0968(7) 0.4457(5) 0.5889(5)
H31 H 1.2096 0.4676 0.6120
C31 C 1.0566(13) 0.5595(6) 0.5951(6)
H32 H 0.9514 0.5497 0.5748
C32 C 1.139(2) 0.6622(10) 0.6223(16)
H33 H 1.2457 0.6790 0.6437
H34 H 1.0967 0.7255 0.6221
C33 C 0.9191(5) 0.3749(4) 0.3735(4)
C34 C 0.8846(7) 0.4065(5) 0.1900(5)
H35 H 0.9549 0.4502 0.1623
H36 H 0.8230 0.4571 0.2077
C35 C 0.7783(8) 0.2888(6) 0.0967(5)
C36 C 0.7662(11) 0.1743(7) 0.1067(6)
H37 H 0.8258 0.1684 0.1756
C37 C 0.6710(14) 0.0709(8) 0.0203(8)
H38 H 0.6697 -0.0050 0.0286
C38 C 0.5832(19) 0.0770(10) -0.0722(10)
C39 C 0.595(3) 0.1888(13) -0.0926(12)
H39 H 0.5430 0.1916 -0.1648
C40 C 0.685(2) 0.2930(9) -0.0027(9)
H40 H 0.6813 0.3686 -0.0100
C41 C 0.8863(7) 0.1105(5) 0.3927(4)
C42 C 0.7381(7) 0.0280(5) 0.3294(5)
C43 C 0.7107(10) -0.0840(6) 0.2477(5)
H41 H 0.6100 -0.1385 0.2082
C44 C 0.8277(14) -0.1130(7) 0.2263(8)
H42 H 0.8100 -0.1898 0.1762
C45 C 0.9727(15) -0.0301(8) 0.2779(10)
H43 H 1.0516 -0.0460 0.2559
C46 C 1.0045(10) 0.0796(7) 0.3643(8)
H44 H 1.1061 0.1325 0.4032
C47 C 1.1465(13) 0.2025(7) 0.6295(7)
C48 C 1.235(2) 0.0307(14) 0.609(3)
H45 H 1.1969 -0.0572 0.5846
H46 H 1.3089 0.0619 0.6867
H47 H 1.2846 0.0557 0.5608
C49 C 0.9000(14) 0.1830(6) 0.6608(5)
C50 C 0.898(3) 0.1162(18) 0.8161(9)
H48 H 0.9678 0.1188 0.8884
H49 H 0.8381 0.0325 0.7700
H50 H 0.8291 0.1609 0.8283
Br3? Br 0.5046(3) -0.0643(2) -0.2206(2)
loop_
_geom_bond_atom_site_label_1
_geom_bond_atom_site_label_2
_geom_bond_site_symmetry_1
_geom_bond_site_symmetry_2
Br1 C13 1_555 1_555
Cl1 C17 1_555 1_555
O1 C24 1_555 1_555
O2 C24 1_555 1_555
O3 C22 1_555 1_555
O4 C22 1_555 1_555
O5 C8 1_555 1_555
N1 H1 1_555 1_555
C1 H2 1_555 1_555
C2 C1 1_555 1_555
H3 C2 1_555 1_555
C3 C2 1_555 1_555
C4 C3 1_555 1_555
H4 C4 1_555 1_555
H5 C4 1_555 1_555
C5 C1 1_555 1_555
H6 C5 1_555 1_555
C6 C5 1_555 1_555
H7 C6 1_555 1_555
C7 C6 1_555 1_555
H8 C7 1_555 1_555
H9 C7 1_555 1_555
C8 N1 1_555 1_555
C9 N1 1_555 1_555
H10 C9 1_555 1_555
H11 C9 1_555 1_555
C10 C9 1_555 1_555
C11 C10 1_555 1_555
H12 C11 1_555 1_555
C12 C11 1_555 1_555
H13 C12 1_555 1_555
C13 C12 1_555 1_555
C14 C13 1_555 1_555
H14 C14 1_555 1_555
C15 C10 1_555 1_555
H15 C15 1_555 1_555
C16 C2 1_555 1_555
C17 C16 1_555 1_555
C18 C17 1_555 1_555
H16 C18 1_555 1_555
C19 C18 1_555 1_555
H17 C19 1_555 1_555
C20 C19 1_555 1_555
H18 C20 1_555 1_555
C21 C16 1_555 1_555
H19 C21 1_555 1_555
C22 C3 1_555 1_555
C23 O4 1_555 1_555
H20 C23 1_555 1_555
H21 C23 1_555 1_555
H22 C23 1_555 1_555
C24 C3 1_555 1_555
C25 O2 1_555 1_555
H23 C25 1_555 1_555
H24 C25 1_555 1_555
H25 C25 1_555 1_555
Br2 C38 1_555 1_555
Cl2 C42 1_555 1_555
O6 C47 1_555 1_555
O7 C47 1_555 1_555
O8 C49 1_555 1_555
O9 C49 1_555 1_555
O10 C33 1_555 1_555
N2 H26 1_555 1_555
C26 H27 1_555 1_555
C27 C26 1_555 1_555
H28 C27 1_555 1_555
C28 C27 1_555 1_555
C29 C28 1_555 1_555
H29 C29 1_555 1_555
H30 C29 1_555 1_555
C30 C26 1_555 1_555
H31 C30 1_555 1_555
C31 C30 1_555 1_555
H32 C31 1_555 1_555
C32 C31 1_555 1_555
H33 C32 1_555 1_555
H34 C32 1_555 1_555
C33 N2 1_555 1_555
C34 N2 1_555 1_555
H35 C34 1_555 1_555
H36 C34 1_555 1_555
C35 C34 1_555 1_555
C36 C35 1_555 1_555
H37 C36 1_555 1_555
C37 C36 1_555 1_555
H38 C37 1_555 1_555
C38 C37 1_555 1_555
C39 C38 1_555 1_555
H39 C39 1_555 1_555
C40 C35 1_555 1_555
H40 C40 1_555 1_555
C41 C27 1_555 1_555
C42 C41 1_555 1_555
C43 C42 1_555 1_555
H41 C43 1_555 1_555
C44 C43 1_555 1_555
H42 C44 1_555 1_555
C45 C44 1_555 1_555
H43 C45 1_555 1_555
C46 C41 1_555 1_555
H44 C46 1_555 1_555
C47 C28 1_555 1_555
C48 O7 1_555 1_555
H45 C48 1_555 1_555
H46 C48 1_555 1_555
H47 C48 1_555 1_555
C49 C28 1_555 1_555
C50 O9 1_555 1_555
H48 C50 1_555 1_555
H49 C50 1_555 1_555
H50 C50 1_555 1_555
C1 C8 1_555 1_555
C4 C5 1_555 1_555
C14 C15 1_555 1_555
C20 C21 1_555 1_555
C26 C33 1_555 1_555
C29 C30 1_555 1_555
C39 C40 1_555 1_555
C45 C46 1_555 1_555

#END
