
#######################################################################
#
#                 Cambridge Crystallographic Data Centre
#                                CCDC 
#
#######################################################################
#
# If this CIF has been generated from an entry in the Cambridge 
# Structural Database, then it will include bibliographic, chemical, 
# crystal, experimental, refinement or atomic coordinate data resulting 
# from the CCDC's data processing and validation procedures.
#
#######################################################################

data_KAVREH
_chemical_formula_moiety         'C28 H22 O6'
_chemical_name_systematic        
3,3'-((4-isopropylphenyl)methylene)bis(4-hydroxy-2H-chromen-2-one)
_symmetry_cell_setting           orthorhombic
_symmetry_space_group_name_H-M   'P c a 21'
_symmetry_Int_Tables_number      29
_space_group_name_Hall           'P 2c -2ac'
loop_
_symmetry_equiv_pos_site_id
_symmetry_equiv_pos_as_xyz
1 x,y,z
2 -x,-y,1/2+z
3 1/2+x,-y,z
4 1/2-x,y,1/2+z
_cell_length_a                   20.5625(15)
_cell_length_b                   10.5042(5)
_cell_length_c                   20.7650(9)
_cell_angle_alpha                90
_cell_angle_beta                 90
_cell_angle_gamma                90
_cell_volume                     4485.09
_cell_formula_units_Z            8
loop_
_atom_site_label
_atom_site_type_symbol
_atom_site_fract_x
_atom_site_fract_y
_atom_site_fract_z
C1 C 0.1388(3) 0.6941(5) 0.3566(3)
H1 H 0.1299 0.7637 0.3264
C2 C 0.0723(3) 0.6493(5) 0.3775(3)
C3 C 0.0199(3) 0.6830(6) 0.3341(3)
C4 C 0.0588(3) 0.5756(5) 0.4280(3)
C5 C -0.00693(16) 0.5460(4) 0.4459(2)
C6 C -0.0556(2) 0.5911(4) 0.4054(2)
C7 C -0.1204(2) 0.5655(5) 0.4191(3)
H2 H -0.1530 0.5957 0.3920
C8 C -0.13663(18) 0.4949(5) 0.4734(3)
H3 H -0.1800 0.4777 0.4826
C9 C -0.0880(3) 0.4498(4) 0.5139(2)
H4 H -0.0989 0.4025 0.5502
C10 C -0.0231(2) 0.4753(4) 0.5002(2)
H5 H 0.0094 0.4452 0.5273
C11 C 0.2110(3) 0.4996(5) 0.3494(3)
C12 C 0.1740(3) 0.5952(5) 0.3166(2)
C13 C 0.1696(3) 0.5902(6) 0.2519(3)
C14 C 0.2082(3) 0.4992(6) 0.2157(3)
C15 C 0.2076(4) 0.4902(8) 0.1491(3)
H6 H 0.1807 0.5431 0.1250
C16 C 0.2466(5) 0.4035(8) 0.1187(4)
H7 H 0.2460 0.3980 0.0740
C17 C 0.2858(4) 0.3264(7) 0.1527(4)
H8 H 0.3128 0.2696 0.1311
C18 C 0.2867(3) 0.3299(6) 0.2181(3)
H9 H 0.3133 0.2749 0.2413
C19 C 0.2475(3) 0.4163(6) 0.2493(3)
C20 C 0.1793(3) 0.7557(5) 0.4102(3)
C21 C 0.1530(3) 0.8030(5) 0.4656(3)
H10 H 0.1085 0.7942 0.4727
C22 C 0.1904(3) 0.8635(5) 0.5114(3)
H11 H 0.1706 0.8957 0.5482
C23 C 0.2569(3) 0.8774(5) 0.5036(3)
C24 C 0.2827(3) 0.8317(6) 0.4480(3)
H12 H 0.3271 0.8409 0.4411
C25 C 0.2460(3) 0.7728(5) 0.4018(3)
H13 H 0.2658 0.7437 0.3643
C26 C 0.2992(4) 0.9365(7) 0.5557(4)
H14 H 0.3345 0.9790 0.5325
O1 O -0.0417(2) 0.6576(4) 0.3508(2)
O2 O 0.0270(2) 0.7332(4) 0.2814(2)
O3 O 0.10345(19) 0.5245(3) 0.46798(19)
H15 H 0.1460 0.5382 0.4604
O4 O 0.2479(2) 0.4182(3) 0.3148(2)
O5 O 0.21190(19) 0.4843(4) 0.4075(2)
O6 O 0.1309(2) 0.6629(5) 0.21675(19)
H16 H 0.1054 0.7207 0.2364
C27 C 0.2687(4) 1.0361(8) 0.5941(4)
H17 H 0.2994 1.0683 0.6248
H18 H 0.2317 1.0017 0.6163
H19 H 0.2548 1.1040 0.5664
C28 C 0.3297(8) 0.8442(9) 0.5942(7)
H20 H 0.3560 0.8855 0.6262
H21 H 0.3567 0.7911 0.5677
H22 H 0.2973 0.7929 0.6150
C29 C 0.0826(3) 1.1978(5) 0.4166(2)
H23 H 0.0887 1.2726 0.4442
C30 C 0.0189(3) 0.9945(6) 0.4308(3)
C31 C 0.0488(3) 1.1032(5) 0.4602(3)
C32 C 0.0501(3) 1.1137(7) 0.5254(3)
C33 C 0.0149(3) 1.0232(8) 0.5650(3)
C34 C 0.0101(5) 1.0347(10) 0.6324(4)
H24 H 0.0311 1.1003 0.6541
C35 C -0.0265(6) 0.9470(15) 0.6652(5)
H25 H -0.0293 0.9520 0.7098
C36 C -0.0589(6) 0.8522(12) 0.6333(6)
H26 H -0.0838 0.7953 0.6572
C37 C -0.0564(4) 0.8376(8) 0.5675(5)
H27 H -0.0783 0.7721 0.5466
C38 C -0.0189(4) 0.9271(8) 0.5340(4)
C39 C 0.2006(3) 1.2008(5) 0.4423(3)
C40 C 0.1504(3) 1.1610(4) 0.3985(3)
C41 C 0.1664(3) 1.0868(5) 0.3473(3)
C42 C 0.2344(3) 1.0688(5) 0.3315(3)
C43 C 0.2805(3) 1.1174(5) 0.3716(3)
C44 C 0.3469(3) 1.1045(6) 0.3608(4)
H28 H 0.3773 1.1390 0.3890
C45 C 0.3656(4) 1.0384(7) 0.3066(4)
H29 H 0.4096 1.0273 0.2979
C46 C 0.3208(4) 0.9895(7) 0.2658(4)
H30 H 0.3346 0.9462 0.2292
C47 C 0.2552(3) 1.0024(5) 0.2774(3)
H31 H 0.2250 0.9670 0.2493
C48 C 0.0406(3) 1.2478(4) 0.3611(3)
C49 C 0.0683(3) 1.3084(5) 0.3087(3)
H32 H 0.1133 1.3105 0.3046
C50 C 0.0298(3) 1.3663(5) 0.2621(3)
H33 H 0.0500 1.4072 0.2278
C51 C -0.0367(3) 1.3653(5) 0.2649(3)
C52 C -0.0637(3) 1.3069(6) 0.3180(3)
H34 H -0.1087 1.3059 0.3222
C53 C -0.0268(3) 1.2503(5) 0.3650(3)
H35 H -0.0473 1.2127 0.4001
C54 C -0.0799(4) 1.4245(7) 0.2144(3)
H36 H -0.1132 1.4723 0.2379
O7 O -0.0151(2) 0.9115(4) 0.4686(3)
O8 O 0.0216(2) 0.9668(4) 0.3745(2)
O9 O 0.0834(2) 1.2008(5) 0.5570(2)
H37 H 0.1059 1.2592 0.5345
O10 O 0.2635(2) 1.1804(4) 0.4272(2)
O11 O 0.1899(2) 1.2527(4) 0.49412(19)
O12 O 0.12513(19) 1.0289(3) 0.30832(17)
H38 H 0.0820 1.0361 0.3150
C55 C -0.0470(4) 1.5179(9) 0.1718(4)
H39 H -0.0779 1.5519 0.1417
H40 H -0.0126 1.4764 0.1487
H41 H -0.0294 1.5858 0.1973
C56 C -0.1153(6) 1.3268(9) 0.1761(6)
H42 H -0.1422 1.3682 0.1447
H43 H -0.1419 1.2765 0.2043
H44 H -0.0845 1.2727 0.1547
loop_
_geom_bond_atom_site_label_1
_geom_bond_atom_site_label_2
_geom_bond_site_symmetry_1
_geom_bond_site_symmetry_2
C1 H1 1_555 1_555
C2 C1 1_555 1_555
C3 C2 1_555 1_555
C4 C2 1_555 1_555
C5 C4 1_555 1_555
C6 C5 1_555 1_555
C7 C6 1_555 1_555
H2 C7 1_555 1_555
C8 C7 1_555 1_555
H3 C8 1_555 1_555
C9 C8 1_555 1_555
H4 C9 1_555 1_555
C10 C5 1_555 1_555
H5 C10 1_555 1_555
C11 C12 1_555 1_555
C12 C1 1_555 1_555
C13 C12 1_555 1_555
C14 C13 1_555 1_555
C15 C14 1_555 1_555
H6 C15 1_555 1_555
C16 C15 1_555 1_555
H7 C16 1_555 1_555
C17 C16 1_555 1_555
H8 C17 1_555 1_555
C18 C17 1_555 1_555
H9 C18 1_555 1_555
C19 C14 1_555 1_555
C20 C1 1_555 1_555
C21 C20 1_555 1_555
H10 C21 1_555 1_555
C22 C21 1_555 1_555
H11 C22 1_555 1_555
C23 C22 1_555 1_555
C24 C23 1_555 1_555
H12 C24 1_555 1_555
C25 C20 1_555 1_555
H13 C25 1_555 1_555
C26 C23 1_555 1_555
H14 C26 1_555 1_555
O1 C3 1_555 1_555
O2 C3 1_555 1_555
O3 C4 1_555 1_555
H15 O3 1_555 1_555
O4 C11 1_555 1_555
O5 C11 1_555 1_555
O6 C13 1_555 1_555
H16 O6 1_555 1_555
C27 C26 1_555 1_555
H17 C27 1_555 1_555
H18 C27 1_555 1_555
H19 C27 1_555 1_555
C28 C26 1_555 1_555
H20 C28 1_555 1_555
H21 C28 1_555 1_555
H22 C28 1_555 1_555
C29 H23 1_555 1_555
C30 C31 1_555 1_555
C31 C29 1_555 1_555
C32 C31 1_555 1_555
C33 C32 1_555 1_555
C34 C33 1_555 1_555
H24 C34 1_555 1_555
C35 C34 1_555 1_555
H25 C35 1_555 1_555
C36 C35 1_555 1_555
H26 C36 1_555 1_555
C37 C36 1_555 1_555
H27 C37 1_555 1_555
C38 C33 1_555 1_555
C39 C40 1_555 1_555
C40 C29 1_555 1_555
C41 C40 1_555 1_555
C42 C41 1_555 1_555
C43 C42 1_555 1_555
C44 C43 1_555 1_555
H28 C44 1_555 1_555
C45 C44 1_555 1_555
H29 C45 1_555 1_555
C46 C45 1_555 1_555
H30 C46 1_555 1_555
C47 C42 1_555 1_555
H31 C47 1_555 1_555
C48 C29 1_555 1_555
C49 C48 1_555 1_555
H32 C49 1_555 1_555
C50 C49 1_555 1_555
H33 C50 1_555 1_555
C51 C50 1_555 1_555
C52 C51 1_555 1_555
H34 C52 1_555 1_555
C53 C48 1_555 1_555
H35 C53 1_555 1_555
C54 C51 1_555 1_555
H36 C54 1_555 1_555
O7 C30 1_555 1_555
O8 C30 1_555 1_555
O9 C32 1_555 1_555
H37 O9 1_555 1_555
O10 C39 1_555 1_555
O11 C39 1_555 1_555
O12 C41 1_555 1_555
H38 O12 1_555 1_555
C55 C54 1_555 1_555
H39 C55 1_555 1_555
H40 C55 1_555 1_555
H41 C55 1_555 1_555
C56 C54 1_555 1_555
H42 C56 1_555 1_555
H43 C56 1_555 1_555
H44 C56 1_555 1_555
C6 O1 1_555 1_555
C9 C10 1_555 1_555
C18 C19 1_555 1_555
C19 O4 1_555 1_555
C24 C25 1_555 1_555
C37 C38 1_555 1_555
C38 O7 1_555 1_555
C43 O10 1_555 1_555
C46 C47 1_555 1_555
C52 C53 1_555 1_555

#END
