
#######################################################################
#
#                 Cambridge Crystallographic Data Centre
#                                CCDC 
#
#######################################################################
#
# If this CIF has been generated from an entry in the Cambridge 
# Structural Database, then it will include bibliographic, chemical, 
# crystal, experimental, refinement or atomic coordinate data resulting 
# from the CCDC's data processing and validation procedures.
#
#######################################################################

data_KAVRIL
_chemical_formula_moiety         'C17 H16 N2 O2 S1'
_chemical_name_systematic        
2-amino-4-(4-(methylsulfanyl)phenyl)-5-oxo-5,6,7,8-tetrahydro-4H-chromene-3-carbonitrile
_symmetry_cell_setting           monoclinic
_symmetry_space_group_name_H-M   'C 2/c'
_symmetry_Int_Tables_number      15
_space_group_name_Hall           '-C 2yn'
loop_
_symmetry_equiv_pos_site_id
_symmetry_equiv_pos_as_xyz
1 x,y,z
2 -x,y,1/2-z
3 1/2+x,1/2+y,z
4 1/2-x,1/2+y,1/2-z
5 -x,-y,-z
6 x,-y,1/2+z
7 1/2-x,1/2-y,-z
8 1/2+x,1/2-y,1/2+z
_cell_length_a                   23.3329(17)
_cell_length_b                   9.0247(4)
_cell_length_c                   16.4155(9)
_cell_angle_alpha                90
_cell_angle_beta                 111.021(7)
_cell_angle_gamma                90
_cell_volume                     3226.61
_exptl_crystal_colour            colorless
_exptl_crystal_description       prism
_cell_formula_units_Z            8
loop_
_atom_site_label
_atom_site_type_symbol
_atom_site_fract_x
_atom_site_fract_y
_atom_site_fract_z
S1 S 0.23971(5) 0.53111(13) 0.21179(8)
C1 C 0.43432(13) 0.1660(3) -0.02112(17)
C2 C 0.44624(12) 0.2286(3) 0.05816(16)
C3 C 0.42983(11) 0.1570(3) 0.13005(16)
H1 H 0.4671 0.1546 0.1825
C4 C 0.41061(12) -0.0013(3) 0.10487(17)
C5 C 0.40089(13) -0.0545(3) 0.02549(18)
C6 C 0.38095(16) -0.2081(3) -0.0049(2)
H2 H 0.4161 -0.2657 -0.0048
H3 H 0.3515 -0.2052 -0.0642
C7 C 0.35228(19) -0.2803(3) 0.0537(3)
H4 H 0.3466 -0.3851 0.0401
H5 H 0.3122 -0.2369 0.0430
C8 C 0.3916(2) -0.2614(3) 0.1488(2)
H6 H 0.3694 -0.2989 0.1843
H7 H 0.4286 -0.3203 0.1615
C9 C 0.40937(13) -0.1030(3) 0.1734(2)
C10 C 0.47286(13) 0.3714(3) 0.07457(17)
C11 C 0.38192(11) 0.2472(2) 0.15159(16)
C12 C 0.38979(13) 0.2829(3) 0.23659(18)
H8 H 0.4243 0.2478 0.2815
C13 C 0.34782(14) 0.3697(3) 0.2571(2)
H9 H 0.3550 0.3933 0.3150
C14 C 0.29557(13) 0.4212(3) 0.1924(2)
C15 C 0.28700(13) 0.3852(3) 0.1071(2)
H10 H 0.2520 0.4186 0.0625
C16 C 0.32923(13) 0.3008(3) 0.08656(18)
H11 H 0.3224 0.2793 0.0284
C17 C 0.2578(3) 0.5241(6) 0.3244(3)
H12 H 0.2287 0.5823 0.3397
H13 H 0.2983 0.5629 0.3534
H14 H 0.2562 0.4232 0.3420
N1 N 0.44296(13) 0.2232(2) -0.09085(15)
H15 H 0.4580 0.3108 -0.0884
H16 H 0.4335 0.1724 -0.1382
N2 N 0.49425(14) 0.4864(3) 0.09163(17)
O1 O 0.40932(10) 0.02698(19) -0.04000(11)
O2 O 0.42513(10) -0.0607(2) 0.24915(13)
loop_
_geom_bond_atom_site_label_1
_geom_bond_atom_site_label_2
_geom_bond_site_symmetry_1
_geom_bond_site_symmetry_2
S1 C14 1_555 1_555
C1 C2 1_555 1_555
C2 C3 1_555 1_555
C3 H1 1_555 1_555
C4 C3 1_555 1_555
C5 C4 1_555 1_555
C6 C5 1_555 1_555
H2 C6 1_555 1_555
H3 C6 1_555 1_555
C7 C6 1_555 1_555
H4 C7 1_555 1_555
H5 C7 1_555 1_555
C8 C7 1_555 1_555
H6 C8 1_555 1_555
H7 C8 1_555 1_555
C9 C4 1_555 1_555
C10 C2 1_555 1_555
C11 C3 1_555 1_555
C12 C11 1_555 1_555
H8 C12 1_555 1_555
C13 C12 1_555 1_555
H9 C13 1_555 1_555
C14 C13 1_555 1_555
C15 C14 1_555 1_555
H10 C15 1_555 1_555
C16 C11 1_555 1_555
H11 C16 1_555 1_555
C17 S1 1_555 1_555
H12 C17 1_555 1_555
H13 C17 1_555 1_555
H14 C17 1_555 1_555
N1 C1 1_555 1_555
H15 N1 1_555 1_555
H16 N1 1_555 1_555
N2 C10 1_555 1_555
O1 C1 1_555 1_555
O2 C9 1_555 1_555
C5 O1 1_555 1_555
C8 C9 1_555 1_555
C15 C16 1_555 1_555

#END
