
#######################################################################
#
#                 Cambridge Crystallographic Data Centre
#                                CCDC 
#
#######################################################################
#
# If this CIF has been generated from an entry in the Cambridge 
# Structural Database, then it will include bibliographic, chemical, 
# crystal, experimental, refinement or atomic coordinate data resulting 
# from the CCDC's data processing and validation procedures.
#
#######################################################################

data_KAVSAE
_chemical_formula_moiety         'C25 H24 N2 O3 S1'
_chemical_name_systematic        
'N-(3-(1,2-dimethyl-1H-indol-3-yl)-1-oxo-1-phenylpropan-2-yl)benzenesulfonamide unknown solvate'
_symmetry_cell_setting           triclinic
_symmetry_space_group_name_H-M   'P -1'
_symmetry_Int_Tables_number      2
_space_group_name_Hall           '-P 1'
loop_
_symmetry_equiv_pos_site_id
_symmetry_equiv_pos_as_xyz
1 x,y,z
2 -x,-y,-z
_cell_length_a                   8.513(2)
_cell_length_b                   10.454(2)
_cell_length_c                   15.288(4)
_cell_angle_alpha                107.098(8)
_cell_angle_beta                 99.831(8)
_cell_angle_gamma                102.064(7)
_cell_volume                     1231.84
_exptl_crystal_colour            yellow
_exptl_crystal_description       block
_cell_formula_units_Z            2
loop_
_atom_site_label
_atom_site_type_symbol
_atom_site_fract_x
_atom_site_fract_y
_atom_site_fract_z
S1 S 0.60833(10) 0.70327(8) 0.17237(6)
O1 O 0.6065(4) 0.8304(2) 0.2396(2)
O2 O 0.4917(3) 0.6473(2) 0.08283(17)
O3 O 0.7928(3) 0.4805(3) 0.29959(19)
N1 N 0.5791(4) 0.5894(3) 0.22309(19)
H1 H 0.5703 0.6146 0.2805
N2 N 0.2886(3) 0.4348(3) 0.40273(17)
C1 C 0.6819(6) 0.1989(4) 0.0743(4)
H2 H 0.5981 0.2236 0.0410
C2 C 0.7276(8) 0.0809(5) 0.0293(4)
H3 H 0.6745 0.0280 -0.0333
C3 C 0.8504(11) 0.0427(7) 0.0771(8)
H4 H 0.8780 -0.0385 0.0486
C4 C 0.9303(9) 0.1249(9) 0.1661(9)
H5 H 1.0188 0.1024 0.1970
C5 C 0.8867(6) 0.2421(6) 0.2142(5)
H6 H 0.9424 0.2943 0.2766
C6 C 0.7588(4) 0.2805(4) 0.1678(3)
C7 C 0.7155(4) 0.4042(4) 0.2191(3)
C8 C 0.5671(4) 0.4431(3) 0.1736(2)
H7 H 0.5696 0.4315 0.1080
C9 C 0.4010(4) 0.3489(3) 0.1737(2)
H8 H 0.3112 0.3695 0.1369
H9 H 0.3973 0.2527 0.1423
C10 C 0.3707(3) 0.3634(3) 0.2697(2)
C11 C 0.3009(3) 0.4576(3) 0.3198(2)
C12 C 0.3506(3) 0.3257(3) 0.4071(2)
C13 C 0.3632(4) 0.2643(4) 0.4761(2)
H10 H 0.3302 0.2984 0.5313
C14 C 0.4267(5) 0.1507(4) 0.4595(3)
H11 H 0.4367 0.1080 0.5049
C15 C 0.4762(4) 0.0978(4) 0.3769(3)
H12 H 0.5164 0.0200 0.3676
C16 C 0.4661(4) 0.1599(3) 0.3090(2)
H13 H 0.5004 0.1254 0.2543
C17 C 0.4024(3) 0.2775(3) 0.3240(2)
C18 C 0.8264(5) 0.6548(4) 0.0652(2)
H14 H 0.7342 0.5994 0.0163
C19 C 0.9829(7) 0.6706(5) 0.0508(4)
H15 H 0.9952 0.6264 -0.0090
C20 C 1.1164(6) 0.7465(6) 0.1189(6)
H16 H 1.2209 0.7537 0.1070
C21 C 1.1010(6) 0.8162(6) 0.2093(5)
H17 H 1.1946 0.8710 0.2574
C22 C 0.9439(5) 0.8023(4) 0.2260(3)
H18 H 0.9302 0.8465 0.2854
C23 C 0.8085(4) 0.7212(3) 0.1519(2)
C24 C 0.2381(4) 0.5697(4) 0.2962(3)
H19 H 0.2591 0.5732 0.2371
H20 H 0.2940 0.6576 0.3451
H21 H 0.1210 0.5501 0.2913
C25 C 0.2225(4) 0.5156(3) 0.4763(2)
H22 H 0.1846 0.5854 0.4566
H23 H 0.3081 0.5596 0.5339
H24 H 0.1316 0.4547 0.4864
loop_
_geom_bond_atom_site_label_1
_geom_bond_atom_site_label_2
_geom_bond_site_symmetry_1
_geom_bond_site_symmetry_2
S1 O1 1_555 1_555
O2 S1 1_555 1_555
O3 C7 1_555 1_555
N1 S1 1_555 1_555
H1 N1 1_555 1_555
N2 C11 1_555 1_555
C1 H2 1_555 1_555
C2 C1 1_555 1_555
H3 C2 1_555 1_555
C3 C2 1_555 1_555
H4 C3 1_555 1_555
C4 C3 1_555 1_555
H5 C4 1_555 1_555
C5 C4 1_555 1_555
H6 C5 1_555 1_555
C6 C1 1_555 1_555
C7 C6 1_555 1_555
C8 N1 1_555 1_555
H7 C8 1_555 1_555
C9 C8 1_555 1_555
H8 C9 1_555 1_555
H9 C9 1_555 1_555
C10 C9 1_555 1_555
C11 C10 1_555 1_555
C12 N2 1_555 1_555
C13 C12 1_555 1_555
H10 C13 1_555 1_555
C14 C13 1_555 1_555
H11 C14 1_555 1_555
C15 C14 1_555 1_555
H12 C15 1_555 1_555
C16 C15 1_555 1_555
H13 C16 1_555 1_555
C17 C10 1_555 1_555
C18 H14 1_555 1_555
C19 C18 1_555 1_555
H15 C19 1_555 1_555
C20 C19 1_555 1_555
H16 C20 1_555 1_555
C21 C20 1_555 1_555
H17 C21 1_555 1_555
C22 C21 1_555 1_555
H18 C22 1_555 1_555
C23 S1 1_555 1_555
C24 C11 1_555 1_555
H19 C24 1_555 1_555
H20 C24 1_555 1_555
H21 C24 1_555 1_555
C25 N2 1_555 1_555
H22 C25 1_555 1_555
H23 C25 1_555 1_555
H24 C25 1_555 1_555
C5 C6 1_555 1_555
C7 C8 1_555 1_555
C12 C17 1_555 1_555
C16 C17 1_555 1_555
C18 C23 1_555 1_555
C22 C23 1_555 1_555

#END
