
#######################################################################
#
#                 Cambridge Crystallographic Data Centre
#                                CCDC 
#
#######################################################################
#
# If this CIF has been generated from an entry in the Cambridge 
# Structural Database, then it will include bibliographic, chemical, 
# crystal, experimental, refinement or atomic coordinate data resulting 
# from the CCDC's data processing and validation procedures.
#
#######################################################################

data_KAVTAC
_chemical_formula_moiety         'C10 H13 N1 O6'
_chemical_name_systematic        
(3R,6R,7R,11S)-7-Acetoxymethyl-5,8,10-trioxa-1-azatricyclo(4.3.2.0^3,11^)undecan-4-one
_symmetry_cell_setting           monoclinic
_symmetry_space_group_name_H-M   'P 21'
_symmetry_Int_Tables_number      4
_space_group_name_Hall           'P 2yb'
loop_
_symmetry_equiv_pos_site_id
_symmetry_equiv_pos_as_xyz
1 x,y,z
2 -x,1/2+y,-z
_cell_length_a                   5.558(2)
_cell_length_b                   8.119(4)
_cell_length_c                   11.947(4)
_cell_angle_alpha                90
_cell_angle_beta                 98.19(2)
_cell_angle_gamma                90
_cell_volume                     533.615
_cell_formula_units_Z            2
loop_
_atom_site_label
_atom_site_type_symbol
_atom_site_fract_x
_atom_site_fract_y
_atom_site_fract_z
C1 C 0.6743(7) 0.9188(6) 0.3037(3)
O1 O 0.8225(5) 0.7740 0.2927(2)
C2 C 0.8373(8) 0.7438(6) 0.1829(4)
O2 O 0.9739(7) 0.6432(5) 0.1555(3)
C3 C 0.6521(8) 0.8443(6) 0.1072(3)
C4 C 0.7581(8) 0.9748(7) 0.0362(3)
N1 N 0.7212(6) 1.1351(5) 0.0881(3)
C5 C 0.9187(8) 1.1937(6) 0.1696(3)
O3 O 1.0055(4) 1.0827(4) 0.2582(2)
C6 C 0.8402(7) 1.0615(5) 0.3399(3)
C7 C 0.5205(7) 0.9435(6) 0.1868(3)
O4 O 0.5115(5) 1.1094(4) 0.1457(2)
C8 C 1.0061(7) 1.0343(6) 0.4516(3)
O5 O 0.8813(5) 0.9580(4) 0.5371(2)
C9 C 0.7069(7) 1.0491(5) 0.5764(3)
O6 O 0.6515(5) 1.1839(4) 0.5423(2)
C10 C 0.5975(8) 0.9573(7) 0.6648(3)
H1 H 0.571 0.907 0.360
H2 H 0.558 0.770 0.057
H3 H 0.678 0.972 -0.040
H4 H 0.927 0.955 0.037
H5 H 0.867 1.292 0.203
H6 H 1.051 1.218 0.130
H7 H 0.733 1.151 0.347
H8 H 0.357 0.914 0.192
H9 H 1.069 1.138 0.479
H10 H 1.136 0.965 0.438
H11 H 0.676 0.853 0.676
H12 H 0.429 0.941 0.641
H13 H 0.620 1.018 0.734
loop_
_geom_bond_atom_site_label_1
_geom_bond_atom_site_label_2
_geom_bond_site_symmetry_1
_geom_bond_site_symmetry_2
C1 O1 1_555 1_555
O1 C2 1_555 1_555
C2 O2 1_555 1_555
C3 C2 1_555 1_555
C4 C3 1_555 1_555
N1 C4 1_555 1_555
C5 N1 1_555 1_555
O3 C5 1_555 1_555
C6 C1 1_555 1_555
C7 C1 1_555 1_555
O4 N1 1_555 1_555
C8 C6 1_555 1_555
O5 C8 1_555 1_555
C9 O5 1_555 1_555
O6 C9 1_555 1_555
C10 C9 1_555 1_555
H1 C1 1_555 1_555
H2 C3 1_555 1_555
H3 C4 1_555 1_555
H4 C4 1_555 1_555
H5 C5 1_555 1_555
H6 C5 1_555 1_555
H7 C6 1_555 1_555
H8 C7 1_555 1_555
H9 C8 1_555 1_555
H10 C8 1_555 1_555
H11 C10 1_555 1_555
H12 C10 1_555 1_555
H13 C10 1_555 1_555
C3 C7 1_555 1_555
O3 C6 1_555 1_555
C7 O4 1_555 1_555

#END
