
#######################################################################
#
#                 Cambridge Crystallographic Data Centre
#                                CCDC 
#
#######################################################################
#
# If this CIF has been generated from an entry in the Cambridge 
# Structural Database, then it will include bibliographic, chemical, 
# crystal, experimental, refinement or atomic coordinate data resulting 
# from the CCDC's data processing and validation procedures.
#
#######################################################################

data_KAVVOT
_chemical_formula_moiety         'C10 H16 O5'
_chemical_name_systematic        
(-)-(3R,4R,5R)-4-(1-hydroxyisobutyl)-3-acetyloxybutyrolactone
_symmetry_cell_setting           monoclinic
_symmetry_space_group_name_H-M   'P 21'
_symmetry_Int_Tables_number      4
_space_group_name_Hall           'P 2yb'
loop_
_symmetry_equiv_pos_site_id
_symmetry_equiv_pos_as_xyz
1 x,y,z
2 -x,1/2+y,-z
_cell_length_a                   10.354(2)
_cell_length_b                   5.5668(11)
_cell_length_c                   10.558(2)
_cell_angle_alpha                90
_cell_angle_beta                 113.79(3)
_cell_angle_gamma                90
_cell_volume                     556.84
_exptl_crystal_colour            colorless
_exptl_crystal_description       prismatic
_chemical_melting_point          87-88deg.C
_cell_formula_units_Z            2
_exptl_crystal_recrystallization_method 'ethyl acetate'
loop_
_atom_site_label
_atom_site_type_symbol
_atom_site_fract_x
_atom_site_fract_y
_atom_site_fract_z
O1 O 0.02049(15) 0.2914(2) 0.28175(16)
O2 O 0.10056(18) 0.1141(3) 0.48886(18)
O3 O 0.29788(15) 0.4678(3) 0.28661(16)
O4 O 0.45638(19) 0.7550(4) 0.3913(2)
O5 O -0.04123(18) 0.8729(3) 0.10859(17)
C1 C 0.1065(2) 0.2816(4) 0.4194(2)
C2 C 0.2001(2) 0.4974(4) 0.4588(2)
H1 H 0.2959 0.4538 0.5195
H2 H 0.1655 0.6162 0.5047
C3 C 0.1935(2) 0.5917(4) 0.3218(2)
H3 H 0.2037 0.7667 0.3218
C4 C 0.0491(2) 0.5069(4) 0.2179(2)
H4 H 0.0546 0.4647 0.1302
C5 C -0.0666(2) 0.6933(4) 0.1925(2)
H5 H -0.0546 0.7653 0.2813
C6 C -0.2173(2) 0.5975(4) 0.1215(2)
H6 H -0.2298 0.4729 0.1812
C7 C -0.3215(3) 0.7993(6) 0.1091(3)
H7 H -0.3012 0.8657 0.1990
H8 H -0.4159 0.7366 0.0710
H9 H -0.3129 0.9225 0.0493
C8 C -0.2477(2) 0.4847(5) -0.0189(3)
H10 H -0.1809 0.3586 -0.0084
H11 H -0.2399 0.6049 -0.0806
H12 H -0.3415 0.4195 -0.0562
C9 C 0.4286(2) 0.5642(4) 0.3323(2)
C10 C 0.5266(3) 0.4074(6) 0.3002(3)
H13 H 0.6184 0.4802 0.3341
H14 H 0.4924 0.3862 0.2018
H15 H 0.5326 0.2540 0.3437
H16 H -0.030(4) 1.011(8) 0.153(4)
loop_
_geom_bond_atom_site_label_1
_geom_bond_atom_site_label_2
_geom_bond_site_symmetry_1
_geom_bond_site_symmetry_2
O1 C1 1_555 1_555
O2 C1 1_555 1_555
O3 C3 1_555 1_555
O4 C9 1_555 1_555
O5 C5 1_555 1_555
C1 C2 1_555 1_555
C2 H1 1_555 1_555
H2 C2 1_555 1_555
C3 C2 1_555 1_555
H3 C3 1_555 1_555
C4 O1 1_555 1_555
H4 C4 1_555 1_555
C5 C4 1_555 1_555
H5 C5 1_555 1_555
C6 C5 1_555 1_555
H6 C6 1_555 1_555
C7 C6 1_555 1_555
H7 C7 1_555 1_555
H8 C7 1_555 1_555
H9 C7 1_555 1_555
C8 C6 1_555 1_555
H10 C8 1_555 1_555
H11 C8 1_555 1_555
H12 C8 1_555 1_555
C9 O3 1_555 1_555
C10 C9 1_555 1_555
H13 C10 1_555 1_555
H14 C10 1_555 1_555
H15 C10 1_555 1_555
H16 O5 1_555 1_555
C3 C4 1_555 1_555

#END
