
#######################################################################
#
#                 Cambridge Crystallographic Data Centre
#                                CCDC 
#
#######################################################################
#
# If this CIF has been generated from an entry in the Cambridge 
# Structural Database, then it will include bibliographic, chemical, 
# crystal, experimental, refinement or atomic coordinate data resulting 
# from the CCDC's data processing and validation procedures.
#
#######################################################################

data_KAVWAI
_chemical_formula_moiety         'C24 H23 N1 O4 S1'
_chemical_name_systematic        
'1-{benzyl[(4-methylphenyl)sulfonyl]amino}-2-phenylethenyl acetate'
_symmetry_cell_setting           monoclinic
_symmetry_space_group_name_H-M   'C c'
_symmetry_Int_Tables_number      9
_space_group_name_Hall           'C -2yc'
loop_
_symmetry_equiv_pos_site_id
_symmetry_equiv_pos_as_xyz
1 x,y,z
2 x,-y,1/2+z
3 1/2+x,1/2+y,z
4 1/2+x,1/2-y,1/2+z
_cell_length_a                   14.537(3)
_cell_length_b                   13.978(3)
_cell_length_c                   12.168(2)
_cell_angle_alpha                90
_cell_angle_beta                 120.82(3)
_cell_angle_gamma                90
_cell_volume                     2123.35
_exptl_crystal_colour            colorless
_exptl_crystal_description       needle
_cell_formula_units_Z            4
loop_
_atom_site_label
_atom_site_type_symbol
_atom_site_fract_x
_atom_site_fract_y
_atom_site_fract_z
S1 S 0.41614(7) 0.77332(7) 0.59653(8)
O1 O 0.4405(2) 0.7668(2) 0.7261(3)
O2 O 0.3073(2) 0.7642(2) 0.4927(3)
O3 O 0.5021(2) 0.73432(19) 0.4049(2)
O4 O 0.3376(2) 0.7643(2) 0.2358(3)
N1 N 0.4841(2) 0.6856(2) 0.5784(3)
C1 C 0.6798(3) 0.5397(3) 0.6213(4)
H1 H 0.694498 0.583254 0.574487
C2 C 0.7060(4) 0.4439(4) 0.6236(5)
H2 H 0.736390 0.423067 0.576738
C3 C 0.6869(4) 0.3803(4) 0.6952(6)
H3 H 0.705177 0.316289 0.697764
C4 C 0.6406(4) 0.4111(4) 0.7633(6)
H4 H 0.627752 0.367796 0.812002
C5 C 0.6132(3) 0.5061(3) 0.7593(4)
H5 H 0.581818 0.526493 0.805253
C6 C 0.6319(3) 0.5709(3) 0.6881(4)
C7 C 0.5993(3) 0.6740(3) 0.6809(4)
H6 H 0.609257 0.693877 0.762666
H7 H 0.643936 0.714005 0.661911
C8 C 0.4617(3) 0.6650(3) 0.4533(3)
C9 C 0.4228(3) 0.5834(3) 0.3916(3)
H8 H 0.420108 0.578247 0.313821
C10 C 0.3831(3) 0.4997(3) 0.4280(4)
C11 C 0.3317(3) 0.5057(3) 0.4978(4)
H9 H 0.323715 0.564848 0.527010
C12 C 0.2923(4) 0.4238(3) 0.5239(4)
H10 H 0.258234 0.428325 0.570844
C13 C 0.3033(4) 0.3353(3) 0.4803(4)
H11 H 0.276314 0.280726 0.497677
C14 C 0.3544(3) 0.3282(3) 0.4112(4)
H12 H 0.362720 0.268909 0.382645
C15 C 0.3929(3) 0.4101(3) 0.3850(4)
H13 H 0.426295 0.405228 0.337344
C16 C 0.4318(4) 0.7794(3) 0.2928(4)
C17 C 0.4893(4) 0.8466(3) 0.2537(5)
H14 H 0.548104 0.875260 0.328457
H15 H 0.440926 0.895688 0.199939
H16 H 0.516019 0.812270 0.207429
C18 C 0.4681(3) 0.8825(3) 0.5793(3)
C19 C 0.5692(3) 0.9127(3) 0.6751(3)
H17 H 0.607625 0.877363 0.749961
C20 C 0.6118(3) 0.9955(3) 0.6578(4)
H18 H 0.679123 1.015748 0.722141
C21 C 0.5565(3) 1.0495(3) 0.5464(4)
C22 C 0.4548(3) 1.0197(3) 0.4536(4)
H19 H 0.415634 1.056123 0.379845
C23 C 0.4105(3) 0.9365(3) 0.4691(4)
H20 H 0.342416 0.917141 0.405805
C24 C 0.6048(4) 1.1386(3) 0.5284(4)
H21 H 0.563829 1.193183 0.526256
H22 H 0.604235 1.134572 0.449273
H23 H 0.677277 1.145139 0.598083
loop_
_geom_bond_atom_site_label_1
_geom_bond_atom_site_label_2
_geom_bond_site_symmetry_1
_geom_bond_site_symmetry_2
S1 O1 1_555 1_555
O2 S1 1_555 1_555
O3 C8 1_555 1_555
O4 C16 1_555 1_555
N1 S1 1_555 1_555
C1 H1 1_555 1_555
C2 C1 1_555 1_555
H2 C2 1_555 1_555
C3 C2 1_555 1_555
H3 C3 1_555 1_555
C4 C3 1_555 1_555
H4 C4 1_555 1_555
C5 C4 1_555 1_555
H5 C5 1_555 1_555
C6 C1 1_555 1_555
C7 N1 1_555 1_555
H6 C7 1_555 1_555
H7 C7 1_555 1_555
C8 N1 1_555 1_555
C9 C8 1_555 1_555
H8 C9 1_555 1_555
C10 C9 1_555 1_555
C11 C10 1_555 1_555
H9 C11 1_555 1_555
C12 C11 1_555 1_555
H10 C12 1_555 1_555
C13 C12 1_555 1_555
H11 C13 1_555 1_555
C14 C13 1_555 1_555
H12 C14 1_555 1_555
C15 C10 1_555 1_555
H13 C15 1_555 1_555
C16 O3 1_555 1_555
C17 C16 1_555 1_555
H14 C17 1_555 1_555
H15 C17 1_555 1_555
H16 C17 1_555 1_555
C18 S1 1_555 1_555
C19 C18 1_555 1_555
H17 C19 1_555 1_555
C20 C19 1_555 1_555
H18 C20 1_555 1_555
C21 C20 1_555 1_555
C22 C21 1_555 1_555
H19 C22 1_555 1_555
C23 C18 1_555 1_555
H20 C23 1_555 1_555
C24 C21 1_555 1_555
H21 C24 1_555 1_555
H22 C24 1_555 1_555
H23 C24 1_555 1_555
C5 C6 1_555 1_555
C6 C7 1_555 1_555
C14 C15 1_555 1_555
C22 C23 1_555 1_555

#END
