
#######################################################################
#
#                 Cambridge Crystallographic Data Centre
#                                CCDC 
#
#######################################################################
#
# If this CIF has been generated from an entry in the Cambridge 
# Structural Database, then it will include bibliographic, chemical, 
# crystal, experimental, refinement or atomic coordinate data resulting 
# from the CCDC's data processing and validation procedures.
#
#######################################################################

data_KAXGEW01
_chemical_formula_moiety         'C34 H26'
_chemical_name_systematic        trans,trans-2,5-Diphenyl-1,4-distyrylbenzene
_symmetry_cell_setting           triclinic
_symmetry_space_group_name_H-M   'P -1'
_symmetry_Int_Tables_number      2
_space_group_name_Hall           '-P 1'
loop_
_symmetry_equiv_pos_site_id
_symmetry_equiv_pos_as_xyz
1 x,y,z
2 -x,-y,-z
_cell_length_a                   6.6687(13)
_cell_length_b                   8.0335(16)
_cell_length_c                   11.706(2)
_cell_angle_alpha                80.01(3)
_cell_angle_beta                 83.27(3)
_cell_angle_gamma                83.93(3)
_cell_volume                     611.018
_exptl_crystal_colour            colorless
_exptl_crystal_description       block
_cell_formula_units_Z            1
_exptl_crystal_recrystallization_method acetone
_exptl_crystal_preparation       luminescent
loop_
_atom_site_label
_atom_site_type_symbol
_atom_site_fract_x
_atom_site_fract_y
_atom_site_fract_z
C1 C 0.3581(2) 0.39715(19) 0.55964(12)
C2 C 0.3634(2) 0.43482(18) 0.43800(12)
C3 C 0.2346(2) 0.35247(19) 0.37533(13)
C4 C 0.0735(2) 0.2705(2) 0.41960(13)
C5 C -0.0424(2) 0.17753(18) 0.35591(12)
C6 C 0.0352(3) 0.1271(2) 0.24990(14)
C7 C -0.0823(3) 0.0455(3) 0.19096(17)
C8 C -0.2755(3) 0.0116(2) 0.23488(17)
C9 C -0.3529(3) 0.0566(2) 0.34064(18)
C10 C -0.2366(2) 0.1379(2) 0.40055(15)
C11 C 0.4901(2) 0.45797(17) 0.62223(11)
C12 C 0.4759(2) 0.40326(18) 0.75135(11)
C13 C 0.2928(3) 0.4224(2) 0.81971(14)
C14 C 0.2782(3) 0.3625(3) 0.93867(15)
C15 C 0.4468(3) 0.2846(3) 0.99020(15)
C16 C 0.6270(3) 0.2650(3) 0.92421(15)
C17 C 0.6437(3) 0.3234(2) 0.80537(14)
H1 H 0.258(2) 0.316(2) 0.6034(13)
H2 H 0.287(2) 0.3547(19) 0.2919(13)
H3 H 0.023(3) 0.272(2) 0.4993(15)
H4 H 0.180(3) 0.145(2) 0.2209(15)
H5 H -0.016(3) 0.015(2) 0.1179(17)
H6 H -0.360(3) -0.045(3) 0.1922(16)
H7 H -0.484(3) 0.034(3) 0.3729(17)
H8 H -0.296(3) 0.172(2) 0.4751(15)
H9 H 0.176(2) 0.478(2) 0.7800(12)
H10 H 0.154(3) 0.379(3) 0.9828(18)
H11 H 0.436(3) 0.240(3) 1.0728(19)
H12 H 0.750(3) 0.210(3) 0.9626(16)
H13 H 0.763(3) 0.309(2) 0.7621(15)
C1A C 0.6419(2) 0.60285(19) 0.44036(12)
C2A C 0.6366(2) 0.56518(18) 0.56200(12)
C3A C 0.7654(2) 0.64753(19) 0.62467(13)
C4A C 0.9265(2) 0.7295(2) 0.58040(13)
C5A C 1.0424(2) 0.82247(18) 0.64409(12)
C6A C 0.9648(3) 0.8729(2) 0.75010(14)
C7A C 1.0823(3) 0.9545(3) 0.80904(17)
C8A C 1.2755(3) 0.9884(2) 0.76512(17)
C9A C 1.3529(3) 0.9434(2) 0.65936(18)
C10A C 1.2366(2) 0.8621(2) 0.59945(15)
C11A C 0.5099(2) 0.54203(17) 0.37777(11)
C12A C 0.5241(2) 0.59674(18) 0.24865(11)
C13A C 0.7072(3) 0.5776(2) 0.18029(14)
C14A C 0.7218(3) 0.6375(3) 0.06133(15)
C15A C 0.5532(3) 0.7154(3) 0.00980(15)
C16A C 0.3730(3) 0.7350(3) 0.07579(15)
C17A C 0.3563(3) 0.6766(2) 0.19463(14)
H1A H 0.742(2) 0.684(2) 0.3966(13)
H2A H 0.713(2) 0.6453(19) 0.7081(13)
H3A H 0.977(3) 0.728(2) 0.5007(15)
H4A H 0.820(3) 0.855(2) 0.7791(15)
H5A H 1.016(3) 0.985(2) 0.8821(17)
H6A H 1.360(3) 1.045(3) 0.8078(16)
H7A H 1.484(3) 0.966(3) 0.6271(17)
H8A H 1.296(3) 0.828(2) 0.5249(15)
H9A H 0.824(2) 0.522(2) 0.2200(12)
H10A H 0.846(3) 0.621(3) 0.0172(18)
H11A H 0.564(3) 0.760(3) -0.0728(19)
H12A H 0.250(3) 0.790(3) 0.0374(16)
H13A H 0.237(3) 0.691(2) 0.2379(15)
loop_
_geom_bond_atom_site_label_1
_geom_bond_atom_site_label_2
_geom_bond_site_symmetry_1
_geom_bond_site_symmetry_2
C1 C2 1_555 1_555
C2 C3 1_555 1_555
C3 C4 1_555 1_555
C4 C5 1_555 1_555
C5 C6 1_555 1_555
C6 C7 1_555 1_555
C7 C8 1_555 1_555
C8 C9 1_555 1_555
C9 C10 1_555 1_555
C10 C5 1_555 1_555
C11 C1 1_555 1_555
C12 C11 1_555 1_555
C13 C12 1_555 1_555
C14 C13 1_555 1_555
C15 C14 1_555 1_555
C16 C15 1_555 1_555
C17 C12 1_555 1_555
H1 C1 1_555 1_555
H2 C3 1_555 1_555
H3 C4 1_555 1_555
H4 C6 1_555 1_555
H5 C7 1_555 1_555
H6 C8 1_555 1_555
H7 C9 1_555 1_555
H8 C10 1_555 1_555
H9 C13 1_555 1_555
H10 C14 1_555 1_555
H11 C15 1_555 1_555
H12 C16 1_555 1_555
H13 C17 1_555 1_555
C1A C2A 1_555 1_555
C2A C11 1_555 1_555
C3A C2A 1_555 1_555
C4A C3A 1_555 1_555
C5A C4A 1_555 1_555
C6A C5A 1_555 1_555
C7A C6A 1_555 1_555
C8A C7A 1_555 1_555
C9A C8A 1_555 1_555
C10A C5A 1_555 1_555
C11A C2 1_555 1_555
C12A C11A 1_555 1_555
C13A C12A 1_555 1_555
C14A C13A 1_555 1_555
C15A C14A 1_555 1_555
C16A C15A 1_555 1_555
C17A C12A 1_555 1_555
H1A C1A 1_555 1_555
H2A C3A 1_555 1_555
H3A C4A 1_555 1_555
H4A C6A 1_555 1_555
H5A C7A 1_555 1_555
H6A C8A 1_555 1_555
H7A C9A 1_555 1_555
H8A C10A 1_555 1_555
H9A C13A 1_555 1_555
H10A C14A 1_555 1_555
H11A C15A 1_555 1_555
H12A C16A 1_555 1_555
H13A C17A 1_555 1_555
C16 C17 1_555 1_555
C1A C11A 1_555 1_555
C9A C10A 1_555 1_555
C16A C17A 1_555 1_555

#END
