
#######################################################################
#
#                 Cambridge Crystallographic Data Centre
#                                CCDC 
#
#######################################################################
#
# If this CIF has been generated from an entry in the Cambridge 
# Structural Database, then it will include bibliographic, chemical, 
# crystal, experimental, refinement or atomic coordinate data resulting 
# from the CCDC's data processing and validation procedures.
#
#######################################################################

data_KAXHUO
_chemical_formula_moiety         'C13 H14 N4 O1'
_chemical_name_systematic        1,3-bis(2-methylpyridin-3-yl)urea
_symmetry_cell_setting           monoclinic
_symmetry_space_group_name_H-M   'P 21/c'
_symmetry_Int_Tables_number      14
_space_group_name_Hall           '-P 2ybc'
loop_
_symmetry_equiv_pos_site_id
_symmetry_equiv_pos_as_xyz
1 x,y,z
2 -x,1/2+y,1/2-z
3 -x,-y,-z
4 x,1/2-y,1/2+z
_cell_length_a                   12.0896(2)
_cell_length_b                   4.59310(10)
_cell_length_c                   21.5276(5)
_cell_angle_alpha                90
_cell_angle_beta                 96.9200(10)
_cell_angle_gamma                90
_cell_volume                     1186.69
_exptl_crystal_colour            colorless
_exptl_crystal_description       prism
_cell_formula_units_Z            4
loop_
_atom_site_label
_atom_site_type_symbol
_atom_site_fract_x
_atom_site_fract_y
_atom_site_fract_z
O1 O 0.72862(8) 0.2927(2) 0.48997(5)
N1 N 0.59391(10) -0.0200(3) 0.69036(5)
N2 N 0.97536(10) 0.0283(3) 0.33288(6)
N3 N 0.78939(10) -0.1344(3) 0.45160(5)
H1 H 0.799 -0.3222 0.4583
N4 N 0.69658(9) -0.1367(3) 0.53828(5)
H2 H 0.7104 -0.3248 0.5395
C1 C 0.65435(11) -0.1167(3) 0.64586(6)
C2 C 0.93581(11) -0.0808(3) 0.38387(6)
C3 C 0.63345(11) -0.0190(3) 0.58380(6)
C4 C 0.82926(11) -0.0088(3) 0.39810(6)
C5 C 0.76328(12) 0.1776(3) 0.35913(7)
H3 H 0.69 0.2246 0.3676
C6 C 0.54942(11) 0.1825(3) 0.56810(7)
H4 H 0.5336 0.2501 0.5263
C7 C 0.48892(12) 0.2836(3) 0.61424(7)
H5 H 0.4315 0.4235 0.6048
C8 C 0.80537(13) 0.2948(3) 0.30763(7)
H6 H 0.7626 0.4273 0.2806
C9 C 0.51379(12) 0.1767(4) 0.67435(7)
H7 H 0.4719 0.2463 0.7059
C10 C 0.91135(13) 0.2137(4) 0.29650(7)
H8 H 0.9403 0.294 0.2611
C11 C 0.73696(11) 0.0243(3) 0.49291(6)
C12 C 0.74558(12) -0.3282(3) 0.66602(7)
H9 H 0.7438 -0.3786 0.7101
H10 H 0.8177 -0.24 0.6608
H11 H 0.7351 -0.5047 0.6404
C13 C 1.01030(12) -0.2853(4) 0.42366(7)
H12 H 0.9786 -0.4818 0.4204
H13 H 1.0169 -0.2209 0.4673
H14 H 1.0842 -0.287 0.4093
loop_
_geom_bond_atom_site_label_1
_geom_bond_atom_site_label_2
_geom_bond_site_symmetry_1
_geom_bond_site_symmetry_2
O1 C11 1_555 1_555
N1 C1 1_555 1_555
N2 C2 1_555 1_555
N3 H1 1_555 1_555
N4 H2 1_555 1_555
C1 C3 1_555 1_555
C2 C4 1_555 1_555
C3 N4 1_555 1_555
C4 N3 1_555 1_555
C5 C4 1_555 1_555
H3 C5 1_555 1_555
C6 C3 1_555 1_555
H4 C6 1_555 1_555
C7 C6 1_555 1_555
H5 C7 1_555 1_555
C8 C5 1_555 1_555
H6 C8 1_555 1_555
C9 N1 1_555 1_555
H7 C9 1_555 1_555
C10 N2 1_555 1_555
H8 C10 1_555 1_555
C11 N3 1_555 1_555
C12 C1 1_555 1_555
H9 C12 1_555 1_555
H10 C12 1_555 1_555
H11 C12 1_555 1_555
C13 C2 1_555 1_555
H12 C13 1_555 1_555
H13 C13 1_555 1_555
H14 C13 1_555 1_555
N4 C11 1_555 1_555
C7 C9 1_555 1_555
C8 C10 1_555 1_555

#END
