
#######################################################################
#
#                 Cambridge Crystallographic Data Centre
#                                CCDC 
#
#######################################################################
#
# If this CIF has been generated from an entry in the Cambridge 
# Structural Database, then it will include bibliographic, chemical, 
# crystal, experimental, refinement or atomic coordinate data resulting 
# from the CCDC's data processing and validation procedures.
#
#######################################################################

data_KAXJAW
_chemical_formula_moiety         'C13 H14 N4 O1,C3 H4 N2,H2 O1'
_chemical_name_systematic        
'1,3-bis(4-methylpyridin-3-yl)urea 1H-imidazole monohydrate'
_symmetry_cell_setting           monoclinic
_symmetry_space_group_name_H-M   'P 21/c'
_symmetry_Int_Tables_number      14
_space_group_name_Hall           '-P 2ybc'
loop_
_symmetry_equiv_pos_site_id
_symmetry_equiv_pos_as_xyz
1 x,y,z
2 -x,1/2+y,1/2-z
3 -x,-y,-z
4 x,1/2-y,1/2+z
_cell_length_a                   8.4693(4)
_cell_length_b                   13.3280(6)
_cell_length_c                   15.0145(8)
_cell_angle_alpha                90
_cell_angle_beta                 103.537(4)
_cell_angle_gamma                90
_cell_volume                     1647.74
_exptl_crystal_colour            colorless
_exptl_crystal_description       prism
_cell_formula_units_Z            4
loop_
_atom_site_label
_atom_site_type_symbol
_atom_site_fract_x
_atom_site_fract_y
_atom_site_fract_z
O1 O 0.1304(2) 0.07821(14) 0.39105(13)
N1 N -0.2569(3) -0.00547(18) 0.18655(16)
N2 N 0.4432(3) 0.21265(17) 0.60813(18)
N3 N 0.0474(3) -0.08527(16) 0.39382(16)
H1 H 0.0622 -0.1405 0.4269
N4 N 0.2450(3) -0.02414(16) 0.51218(16)
H2 H 0.2442 -0.0857 0.5332
C1 C 0.3411(3) 0.1474(2) 0.5547(2)
H4 H 0.2571 0.1732 0.5068
C2 C -0.1456(3) -0.0033(2) 0.26675(19)
H5 H -0.118 0.0597 0.2957
C3 C 0.3536(3) 0.0439(2) 0.56658(19)
C4 C -0.0686(3) -0.08898(19) 0.30962(19)
C5 C 0.4762(3) 0.0055(2) 0.63825(19)
C6 C -0.1124(3) -0.1825(2) 0.2689(2)
C7 C 0.5802(4) 0.0735(2) 0.6915(2)
H6 H 0.6657 0.0502 0.7398
C8 C -0.2256(3) -0.1832(2) 0.1857(2)
H7 H -0.2576 -0.2451 0.1555
C9 C -0.2924(3) -0.0945(2) 0.1463(2)
H8 H -0.3666 -0.0971 0.0881
C10 C 0.5607(4) 0.1750(2) 0.6749(2)
H9 H 0.6341 0.2201 0.7126
C11 C -0.0419(4) -0.2794(2) 0.3130(2)
H10 H -0.0839 -0.3357 0.2725
H11 H -0.0728 -0.288 0.3715
H12 H 0.0767 -0.2773 0.3238
C12 C 0.4933(4) -0.1050(2) 0.6569(2)
H13 H 0.5847 -0.1169 0.7094
H14 H 0.5132 -0.1394 0.6029
H15 H 0.3933 -0.1308 0.6706
C16 C 0.1395(3) -0.0035(2) 0.42897(19)
O2 O 0.4316(3) -0.57886(15) 0.59596(15)
H19 H 0.426(5) -0.6510(14) 0.599(3)
H20 H 0.534(3) -0.562(3) 0.633(2)
N5 N 0.1909(3) -0.24571(17) 0.53022(17)
N6 N 0.2366(3) -0.40725(17) 0.55636(16)
H3 H 0.2809 -0.467 0.5565
C13 C 0.2816(4) -0.3236(2) 0.5194(2)
H16 H 0.3682 -0.3205 0.4891
C14 C 0.1094(4) -0.3828(2) 0.5937(2)
H17 H 0.0516 -0.4264 0.6249
C15 C 0.0826(4) -0.2840(2) 0.5773(2)
H18 H 0.0006 -0.2461 0.5957
loop_
_geom_bond_atom_site_label_1
_geom_bond_atom_site_label_2
_geom_bond_site_symmetry_1
_geom_bond_site_symmetry_2
O1 C16 1_555 1_555
O2 H19 1_555 1_555
N1 C2 1_555 1_555
N2 C1 1_555 1_555
N3 H1 1_555 1_555
N4 H2 1_555 1_555
N5 C13 1_555 1_555
N6 H3 1_555 1_555
C1 H4 1_555 1_555
C2 H5 1_555 1_555
C3 N4 1_555 1_555
C4 N3 1_555 1_555
C5 C3 1_555 1_555
C6 C4 1_555 1_555
C7 C5 1_555 1_555
H6 C7 1_555 1_555
C8 C6 1_555 1_555
H7 C8 1_555 1_555
C9 N1 1_555 1_555
H8 C9 1_555 1_555
C10 N2 1_555 1_555
H9 C10 1_555 1_555
C11 C6 1_555 1_555
H10 C11 1_555 1_555
H11 C11 1_555 1_555
H12 C11 1_555 1_555
C12 C5 1_555 1_555
H13 C12 1_555 1_555
H14 C12 1_555 1_555
H15 C12 1_555 1_555
C13 N6 1_555 1_555
H16 C13 1_555 1_555
C14 N6 1_555 1_555
H17 C14 1_555 1_555
C15 N5 1_555 1_555
H18 C15 1_555 1_555
C16 N3 1_555 1_555
H20 O2 1_555 1_555
N4 C16 1_555 1_555
C1 C3 1_555 1_555
C2 C4 1_555 1_555
C7 C10 1_555 1_555
C8 C9 1_555 1_555
C14 C15 1_555 1_555

#END
