
#######################################################################
#
#                 Cambridge Crystallographic Data Centre
#                                CCDC 
#
#######################################################################
#
# If this CIF has been generated from an entry in the Cambridge 
# Structural Database, then it will include bibliographic, chemical, 
# crystal, experimental, refinement or atomic coordinate data resulting 
# from the CCDC's data processing and validation procedures.
#
#######################################################################

data_KAXKEZ
_chemical_formula_moiety         'C11 H14 O3 S2'
_chemical_name_systematic        
'(2R*,3S*,SR*)-2-Methyl-3-phenylsulfinyl-2,3,4,5-tetrahydrothiophene 1,1-dioxide'
_symmetry_cell_setting           monoclinic
_symmetry_space_group_name_H-M   'P 21/c'
_symmetry_Int_Tables_number      14
_space_group_name_Hall           '-P 2ybc'
loop_
_symmetry_equiv_pos_site_id
_symmetry_equiv_pos_as_xyz
1 x,y,z
2 -x,1/2+y,1/2-z
3 -x,-y,-z
4 x,1/2-y,1/2+z
_cell_length_a                   5.378(3)
_cell_length_b                   21.970(2)
_cell_length_c                   10.580(3)
_cell_angle_alpha                90
_cell_angle_beta                 103.3(2)
_cell_angle_gamma                90
_cell_volume                     1216.55
_exptl_crystal_colour            colorless
_chemical_melting_point          123-124deg.C
_cell_formula_units_Z            4
loop_
_atom_site_label
_atom_site_type_symbol
_atom_site_fract_x
_atom_site_fract_y
_atom_site_fract_z
S1 S 0.0638(4) 0.19121(9) 0.90130(19)
S2 S 0.4624(4) 0.06513(9) 1.17906(19)
C1 C 0.2597(16) 0.2342(3) 1.0268(7)
C2 C 0.3764(15) 0.1898(3) 1.1331(7)
C3 C 0.2591(12) 0.1268(3) 1.0999(6)
C4 C 0.2060(12) 0.1195(3) 0.9536(6)
C5 C 0.0423(15) 0.0680(3) 0.8931(7)
O1 O -0.1918(10) 0.1907(3) 0.9174(6)
O2 O 0.1011(10) 0.2078(2) 0.7768(5)
O3 O 0.7203(9) 0.0776(3) 1.1587(5)
C6 C 0.4685(13) 0.0846(3) 1.3449(6)
C7 C 0.6576(13) 0.1196(4) 1.4150(7)
C8 C 0.6635(15) 0.1309(4) 1.5435(8)
C9 C 0.4768(16) 0.1081(4) 1.5977(7)
C10 C 0.2903(14) 0.0728(4) 1.5280(8)
C11 C 0.2810(13) 0.0607(4) 1.3992(7)
loop_
_geom_bond_atom_site_label_1
_geom_bond_atom_site_label_2
_geom_bond_site_symmetry_1
_geom_bond_site_symmetry_2
S1 C1 1_555 1_555
S2 C3 1_555 1_555
C1 C2 1_555 1_555
C2 C3 1_555 1_555
C3 C4 1_555 1_555
C4 S1 1_555 1_555
C5 C4 1_555 1_555
O1 S1 1_555 1_555
O2 S1 1_555 1_555
O3 S2 1_555 1_555
C6 S2 1_555 1_555
C7 C6 1_555 1_555
C8 C7 1_555 1_555
C9 C8 1_555 1_555
C10 C9 1_555 1_555
C11 C6 1_555 1_555
C10 C11 1_555 1_555

#END
