
#######################################################################
#
#                 Cambridge Crystallographic Data Centre
#                                CCDC 
#
#######################################################################
#
# If this CIF has been generated from an entry in the Cambridge 
# Structural Database, then it will include bibliographic, chemical, 
# crystal, experimental, refinement or atomic coordinate data resulting 
# from the CCDC's data processing and validation procedures.
#
#######################################################################

data_KAXNIJ
_chemical_formula_moiety         'C22 H15 Cl1 N2 O1'
_chemical_name_systematic        
(3-chlorophenyl)(1,3-diphenyl-1H-pyrazol-4-yl)methanone
_symmetry_cell_setting           monoclinic
_symmetry_space_group_name_H-M   'P 21/c'
_symmetry_Int_Tables_number      14
_space_group_name_Hall           '-P 2ybc'
loop_
_symmetry_equiv_pos_site_id
_symmetry_equiv_pos_as_xyz
1 x,y,z
2 -x,1/2+y,1/2-z
3 -x,-y,-z
4 x,1/2-y,1/2+z
_cell_length_a                   9.1818(9)
_cell_length_b                   11.7411(12)
_cell_length_c                   16.5296(14)
_cell_angle_alpha                90
_cell_angle_beta                 91.510(8)
_cell_angle_gamma                90
_cell_volume                     1781.35
_exptl_crystal_colour            colorless
_exptl_crystal_description       block
_cell_formula_units_Z            4
loop_
_atom_site_label
_atom_site_type_symbol
_atom_site_fract_x
_atom_site_fract_y
_atom_site_fract_z
Cl1 Cl 0.94052(11) 0.35152(9) 0.24847(5)
O1 O 1.14654(19) 0.18666(14) -0.02310(9)
N1 N 1.2463(2) -0.18705(15) -0.01163(10)
N2 N 1.3148(2) -0.14409(16) -0.07744(10)
C1 C 1.3581(3) 0.0149(2) -0.21368(14)
H1 H 1.3065 -0.0495 -0.2304
C2 C 1.3675(2) 0.04318(19) -0.13216(12)
C3 C 1.4256(3) 0.0827(3) -0.26998(15)
H2 H 1.4192 0.0631 -0.3245
C4 C 1.5020(3) 0.1783(2) -0.24682(16)
H3 H 1.5466 0.2233 -0.2853
C5 C 1.5118(3) 0.2070(2) -0.16632(15)
H4 H 1.5635 0.2715 -0.1501
C6 C 1.4448(2) 0.1401(2) -0.10935(14)
H5 H 1.4517 0.1603 -0.0550
C7 C 1.3016(2) -0.03152(19) -0.07160(12)
C8 C 1.2262(2) -0.00139(19) -0.00037(12)
C9 C 1.1946(2) -0.10357(19) 0.03517(12)
H6 H 1.1458 -0.1134 0.0833
C10 C 1.1774(2) 0.11243(19) 0.02572(12)
C11 C 1.1648(2) 0.13471(18) 0.11450(12)
C12 C 1.0684(2) 0.2183(2) 0.13869(13)
H7 H 1.0099 0.2561 0.1005
C13 C 1.0598(3) 0.2448(2) 0.21937(14)
C14 C 1.1458(3) 0.1905(2) 0.27723(14)
H8 H 1.1393 0.2094 0.3317
C15 C 1.2410(3) 0.1080(2) 0.25277(13)
H9 H 1.2995 0.0708 0.2912
C16 C 1.2515(2) 0.0792(2) 0.17204(13)
H10 H 1.3162 0.0229 0.1564
C17 C 1.2407(3) -0.30780(19) 0.00103(13)
C18 C 1.3220(4) -0.3788(2) -0.04437(17)
H11 H 1.3817 -0.3493 -0.0838
C19 C 1.3157(5) -0.4953(3) -0.03175(19)
H12 H 1.3715 -0.5437 -0.0629
C20 C 1.2292(4) -0.5393(3) 0.0255(2)
H13 H 1.2242 -0.6177 0.0333
C21 C 1.1497(4) -0.4677(3) 0.0715(2)
H14 H 1.0918 -0.4972 0.1117
C22 C 1.1541(3) -0.3520(2) 0.0589(2)
H15 H 1.0978 -0.3038 0.0900
loop_
_geom_bond_atom_site_label_1
_geom_bond_atom_site_label_2
_geom_bond_site_symmetry_1
_geom_bond_site_symmetry_2
Cl1 C13 1_555 1_555
O1 C10 1_555 1_555
N1 N2 1_555 1_555
N2 C7 1_555 1_555
C1 H1 1_555 1_555
C2 C1 1_555 1_555
C3 C1 1_555 1_555
H2 C3 1_555 1_555
C4 C3 1_555 1_555
H3 C4 1_555 1_555
C5 C4 1_555 1_555
H4 C5 1_555 1_555
C6 C2 1_555 1_555
H5 C6 1_555 1_555
C7 C2 1_555 1_555
C8 C7 1_555 1_555
C9 N1 1_555 1_555
H6 C9 1_555 1_555
C10 C8 1_555 1_555
C11 C10 1_555 1_555
C12 C11 1_555 1_555
H7 C12 1_555 1_555
C13 C12 1_555 1_555
C14 C13 1_555 1_555
H8 C14 1_555 1_555
C15 C14 1_555 1_555
H9 C15 1_555 1_555
C16 C11 1_555 1_555
H10 C16 1_555 1_555
C17 N1 1_555 1_555
C18 C17 1_555 1_555
H11 C18 1_555 1_555
C19 C18 1_555 1_555
H12 C19 1_555 1_555
C20 C19 1_555 1_555
H13 C20 1_555 1_555
C21 C20 1_555 1_555
H14 C21 1_555 1_555
C22 C17 1_555 1_555
H15 C22 1_555 1_555
C5 C6 1_555 1_555
C8 C9 1_555 1_555
C15 C16 1_555 1_555
C21 C22 1_555 1_555

#END
