
#######################################################################
#
#                 Cambridge Crystallographic Data Centre
#                                CCDC 
#
#######################################################################
#
# If this CIF has been generated from an entry in the Cambridge 
# Structural Database, then it will include bibliographic, chemical, 
# crystal, experimental, refinement or atomic coordinate data resulting 
# from the CCDC's data processing and validation procedures.
#
#######################################################################

data_KAXQUY
_chemical_formula_moiety         'C19 H19 F3 O3'
_chemical_name_systematic        
2,10,10-trifluoro-1-hydroxy-1,6,6-trimethyl-1,6,7,8,9,10-hexahydrophenanthro[1,2-b]furan-11(2H)-one
_symmetry_cell_setting           monoclinic
_symmetry_space_group_name_H-M   'P 21/c'
_symmetry_Int_Tables_number      14
_space_group_name_Hall           '-P 2ybc'
loop_
_symmetry_equiv_pos_site_id
_symmetry_equiv_pos_as_xyz
1 x,y,z
2 -x,1/2+y,1/2-z
3 -x,-y,-z
4 x,1/2-y,1/2+z
_cell_length_a                   12.3744(2)
_cell_length_b                   17.1213(4)
_cell_length_c                   7.8002(2)
_cell_angle_alpha                90
_cell_angle_beta                 98.9870(10)
_cell_angle_gamma                90
_cell_volume                     1632.31
_exptl_crystal_colour            colorless
_exptl_crystal_description       block
_cell_formula_units_Z            4
_exptl_crystal_recrystallization_method 'dichloromethane/petroleum ether'
loop_
_atom_site_label
_atom_site_type_symbol
_atom_site_fract_x
_atom_site_fract_y
_atom_site_fract_z
F1 F 0.56102(9) 0.56756(7) 0.69860(14)
F2 F 0.51369(9) 0.69047(7) 0.68647(14)
F3 F 0.92591(9) 0.56022(7) 0.35077(16)
O1 O 0.90351(10) 0.74971(8) 0.52971(17)
H1 H 0.8520 0.7738 0.4692
O2 O 0.78225(10) 0.63533(8) 0.24605(16)
O3 O 0.72551(11) 0.67699(9) 0.81238(16)
C1 C 0.52362(14) 0.62637(10) 0.4206(2)
C2 C 0.57150(14) 0.63629(10) 0.6107(2)
C3 C 0.75972(14) 0.65301(11) 0.5266(2)
C4 C 0.41125(14) 0.61447(10) 0.3673(2)
C5 C 0.87982(14) 0.66806(11) 0.5257(2)
C6 C 0.71127(14) 0.63851(10) 0.3616(2)
C7 C 0.69452(15) 0.65883(10) 0.6609(2)
C8 C 0.59565(14) 0.62845(10) 0.2987(2)
C9 C 0.89019(14) 0.63642(11) 0.3437(2)
H2 H 0.9396 0.6704 0.2861
C10 C 0.37165(15) 0.61029(11) 0.1878(2)
C11 C 0.33491(15) 0.60249(13) 0.5000(3)
C12 C 0.55664(16) 0.62135(12) 0.1224(2)
H3 H 0.6055 0.6217 0.0398
C13 C 0.44522(16) 0.61372(13) 0.0698(2)
H4 H 0.4179 0.6107 -0.0508
C14 C 0.95972(16) 0.63017(12) 0.6696(3)
H5 H 1.0348 0.6422 0.6531
H6 H 0.9489 0.5735 0.6663
H7 H 0.9469 0.6504 0.7823
C15 C 0.24925(16) 0.60468(13) 0.1150(3)
C16 C 0.2260(2) 0.53497(16) -0.0035(4)
H8 H 0.2679 0.5396 -0.0998
H9 H 0.1477 0.5330 -0.0494
H10 H 0.2475 0.4871 0.0619
C17 C 0.2268(3) 0.5679(3) 0.4190(5)
C18 C 0.2149(3) 0.67819(17) 0.0109(5)
H11 H 0.2382 0.7243 0.0816
H12 H 0.1351 0.6788 -0.0217
H13 H 0.2492 0.6788 -0.0941
C19 C 0.1790(2) 0.6129(2) 0.2597(4)
H14? H 0.3613 0.5942 0.6196
C20? C 0.1900(5) 0.5589(4) 0.2545(7)
H15? H 0.1491 0.5120 0.2344
C21? C 0.2112(7) 0.6048(6) 0.4270(11)
H16? H 0.1569 0.6304 0.4800
H17? H 0.3531 0.6153 0.6195
H18? H 0.1934 0.5238 0.4628
H19? H 0.1135 0.6427 0.2497
loop_
_geom_bond_atom_site_label_1
_geom_bond_atom_site_label_2
_geom_bond_site_symmetry_1
_geom_bond_site_symmetry_2
F1 C2 1_555 1_555
F2 C2 1_555 1_555
F3 C9 1_555 1_555
O1 H1 1_555 1_555
O2 C6 1_555 1_555
O3 C7 1_555 1_555
C1 C2 1_555 1_555
C2 C7 1_555 1_555
C3 C5 1_555 1_555
C4 C1 1_555 1_555
C5 O1 1_555 1_555
C6 C3 1_555 1_555
C7 C3 1_555 1_555
C8 C1 1_555 1_555
C9 O2 1_555 1_555
H2 C9 1_555 1_555
C10 C4 1_555 1_555
C11 C4 1_555 1_555
C12 C8 1_555 1_555
H3 C12 1_555 1_555
C13 C10 1_555 1_555
H4 C13 1_555 1_555
C14 C5 1_555 1_555
H5 C14 1_555 1_555
H6 C14 1_555 1_555
H7 C14 1_555 1_555
C15 C10 1_555 1_555
C16 C15 1_555 1_555
H8 C16 1_555 1_555
H9 C16 1_555 1_555
H10 C16 1_555 1_555
C17 C11 1_555 1_555
C18 C15 1_555 1_555
H11 C18 1_555 1_555
H12 C18 1_555 1_555
H13 C18 1_555 1_555
C19 C15 1_555 1_555
C5 C9 1_555 1_555
C6 C8 1_555 1_555
C12 C13 1_555 1_555
C17 C19 1_555 1_555

#END
