
#######################################################################
#
#                 Cambridge Crystallographic Data Centre
#                                CCDC 
#
#######################################################################
#
# If this CIF has been generated from an entry in the Cambridge 
# Structural Database, then it will include bibliographic, chemical, 
# crystal, experimental, refinement or atomic coordinate data resulting 
# from the CCDC's data processing and validation procedures.
#
#######################################################################

data_KAXSIM
_chemical_formula_moiety         'C22 H26 O1 S2'
_chemical_name_systematic        
2-Ethyl-2-(2-(\a-hydroxybenzyl)-3-phenylcyclopropyl)-1,3-dithiane
_symmetry_cell_setting           orthorhombic
_symmetry_space_group_name_H-M   'P 21 21 21'
_symmetry_Int_Tables_number      19
_space_group_name_Hall           'P 2ac 2ab'
loop_
_symmetry_equiv_pos_site_id
_symmetry_equiv_pos_as_xyz
1 x,y,z
2 1/2-x,-y,1/2+z
3 -x,1/2+y,1/2-z
4 1/2+x,1/2-y,-z
_cell_length_a                   6.604(1)
_cell_length_b                   15.346(2)
_cell_length_c                   19.811(3)
_cell_angle_alpha                90
_cell_angle_beta                 90
_cell_angle_gamma                90
_cell_volume                     2007.75
_exptl_crystal_colour            white
_chemical_melting_point          120-121deg.C
_cell_formula_units_Z            4
loop_
_atom_site_label
_atom_site_type_symbol
_atom_site_fract_x
_atom_site_fract_y
_atom_site_fract_z
S1 S 0.65331(9) 0.21702(3) 0.39870(2)
S2 S 0.22328(8) 0.22854(4) 0.34798(4)
O1 O 0.3272(4) 0.41882(13) 0.40896(11)
C1 C 0.5278(4) 0.42819(13) 0.38442(11)
H1 H 0.6178 0.3910 0.4111
C2 C 0.5412(3) 0.40108(13) 0.31112(10)
H2 H 0.4827 0.4438 0.2799
C3 C 0.5279(3) 0.30854(12) 0.28604(10)
H3 H 0.4653 0.3064 0.2412
C4 C 0.7272(3) 0.35576(12) 0.28347(9)
H4 H 0.8221 0.3371 0.3187
C5 C 0.5904(4) 0.52278(14) 0.39413(10)
C6 C 0.4537(4) 0.58453(14) 0.41497(10)
H5 H 0.3203 0.5685 0.4235
C7 C 0.5126(5) 0.67066(16) 0.42341(12)
H6 H 0.4185 0.7119 0.4376
C8 C 0.7078(6) 0.69528(18) 0.41096(13)
H7 H 0.7470 0.7530 0.4165
C9 C 0.8451(5) 0.63416(18) 0.39026(13)
H8 H 0.9777 0.6507 0.3811
C10 C 0.7882(4) 0.54789(16) 0.38280(13)
H9 H 0.8839 0.5066 0.3701
C11 C 0.8292(3) 0.38101(11) 0.21891(9)
C12 C 1.0277(4) 0.40972(14) 0.22094(11)
H10 H 1.0932 0.4144 0.2623
C13 C 1.1299(4) 0.43151(15) 0.16285(12)
H11 H 1.2634 0.4506 0.1654
C14 C 1.0371(4) 0.42534(14) 0.10128(13)
H12 H 1.1067 0.4403 0.0622
C15 C 0.8411(5) 0.39701(14) 0.09779(11)
H13 H 0.7772 0.3924 0.0561
C16 C 0.7371(4) 0.37514(14) 0.15636(10)
H14 H 0.6036 0.3563 0.1535
C17 C 0.4913(3) 0.22397(13) 0.32429(9)
C18 C 0.5567(4) 0.11945(14) 0.43921(11)
H15 H 0.5776 0.0703 0.4092
H16 H 0.6343 0.1088 0.4800
C19 C 0.3345(5) 0.12417(16) 0.45747(13)
H17 H 0.2994 0.0728 0.4835
H18 H 0.3130 0.1746 0.4861
C20 C 0.1944(4) 0.13018(15) 0.39793(15)
H19 H 0.0559 0.1270 0.4140
H20 H 0.2173 0.0801 0.3690
C21 C 0.5272(4) 0.14619(14) 0.27608(10)
H21 H 0.4934 0.0928 0.2997
H22 H 0.4353 0.1515 0.2381
C22 C 0.7404(4) 0.13852(16) 0.24935(11)
H23 H 0.8326 0.1307 0.2863
H24 H 0.7752 0.1906 0.2252
H25 H 0.7492 0.0893 0.2196
H26 H 0.281(4) 0.3702(17) 0.4023(13)
loop_
_geom_bond_atom_site_label_1
_geom_bond_atom_site_label_2
_geom_bond_site_symmetry_1
_geom_bond_site_symmetry_2
S1 C17 1_555 1_555
S2 C17 1_555 1_555
O1 C1 1_555 1_555
C1 H1 1_555 1_555
C2 C1 1_555 1_555
H2 C2 1_555 1_555
C3 C2 1_555 1_555
H3 C3 1_555 1_555
C4 C2 1_555 1_555
H4 C4 1_555 1_555
C5 C1 1_555 1_555
C6 C5 1_555 1_555
H5 C6 1_555 1_555
C7 C6 1_555 1_555
H6 C7 1_555 1_555
C8 C7 1_555 1_555
H7 C8 1_555 1_555
C9 C8 1_555 1_555
H8 C9 1_555 1_555
C10 C5 1_555 1_555
H9 C10 1_555 1_555
C11 C4 1_555 1_555
C12 C11 1_555 1_555
H10 C12 1_555 1_555
C13 C12 1_555 1_555
H11 C13 1_555 1_555
C14 C13 1_555 1_555
H12 C14 1_555 1_555
C15 C14 1_555 1_555
H13 C15 1_555 1_555
C16 C11 1_555 1_555
H14 C16 1_555 1_555
C17 C3 1_555 1_555
C18 S1 1_555 1_555
H15 C18 1_555 1_555
H16 C18 1_555 1_555
C19 C18 1_555 1_555
H17 C19 1_555 1_555
H18 C19 1_555 1_555
C20 S2 1_555 1_555
H19 C20 1_555 1_555
H20 C20 1_555 1_555
C21 C17 1_555 1_555
H21 C21 1_555 1_555
H22 C21 1_555 1_555
C22 C21 1_555 1_555
H23 C22 1_555 1_555
H24 C22 1_555 1_555
H25 C22 1_555 1_555
H26 O1 1_555 1_555
C3 C4 1_555 1_555
C9 C10 1_555 1_555
C15 C16 1_555 1_555
C19 C20 1_555 1_555

#END
