
#######################################################################
#
#                 Cambridge Crystallographic Data Centre
#                                CCDC 
#
#######################################################################
#
# If this CIF has been generated from an entry in the Cambridge 
# Structural Database, then it will include bibliographic, chemical, 
# crystal, experimental, refinement or atomic coordinate data resulting 
# from the CCDC's data processing and validation procedures.
#
#######################################################################

data_KAXSOS
_chemical_formula_moiety         'C28 H20 N6 2+,2(C1 N1 S1 1-),2(H2 O1)'
_chemical_name_systematic        
"1,4-bis(4,4'-Bipyridinio)phthalazine dithiocyanate dihydrate"
_symmetry_cell_setting           triclinic
_symmetry_space_group_name_H-M   'P -1'
_symmetry_Int_Tables_number      2
_space_group_name_Hall           '-P 1'
loop_
_symmetry_equiv_pos_site_id
_symmetry_equiv_pos_as_xyz
1 x,y,z
2 -x,-y,-z
_cell_length_a                   11.8305(10)
_cell_length_b                   11.9174(10)
_cell_length_c                   12.2218(11)
_cell_angle_alpha                113.107(2)
_cell_angle_beta                 100.982(2)
_cell_angle_gamma                104.839(2)
_cell_volume                     1447.65
_exptl_crystal_colour            brown-yellow
_exptl_crystal_description       prism
_cell_formula_units_Z            2
loop_
_atom_site_label
_atom_site_type_symbol
_atom_site_fract_x
_atom_site_fract_y
_atom_site_fract_z
S1 S 0.42121(18) 0.32136(16) 0.05754(14)
C29 C 0.3156(6) 0.2223(6) 0.0771(5)
N7 N 0.2442(6) 0.1520(5) 0.0944(6)
S2 S 0.0360(2) 0.63696(19) 0.47982(17)
C30 C 0.0959(7) 0.7380(6) 0.4341(6)
N8 N 0.1374(7) 0.8077(6) 0.3957(7)
C1 C 1.1607(6) 0.5051(7) -0.1389(7)
H1 H 1.137(6) 0.486(6) -0.218(6)
C2 C 1.2722(7) 0.6498(8) 0.0594(8)
H2 H 1.334(6) 0.727(7) 0.109(6)
C3 C 1.1018(5) 0.4155(5) -0.1040(5)
H3 H 1.042(4) 0.339(5) -0.157(5)
C4 C 1.2189(6) 0.5679(6) 0.1049(6)
H4 H 1.256(5) 0.600(6) 0.199(6)
C5 C 1.1304(4) 0.4467(4) 0.0206(4)
C6 C 1.0663(4) 0.3557(4) 0.0637(4)
C7 C 0.9949(5) 0.2263(5) -0.0185(5)
H5 H 0.973(5) 0.186(5) -0.106(5)
C8 C 1.0739(5) 0.3978(5) 0.1881(5)
H6 H 1.124(5) 0.480(5) 0.246(5)
C9 C 0.9365(5) 0.1427(5) 0.0218(5)
H7 H 0.880(6) 0.048(7) -0.026(6)
C10 C 1.0161(5) 0.3134(5) 0.2267(5)
H8 H 1.015(4) 0.337(4) 0.306(4)
C11 C 0.8910(4) 0.0994(4) 0.1906(4)
C12 C 0.8080(4) -0.0561(4) 0.2803(4)
C13 C 0.7678(4) 0.0785(4) 0.1886(4)
C14 C 0.7223(4) -0.0067(4) 0.2382(4)
C15 C 0.6908(5) 0.1341(5) 0.1445(4)
H9 H 0.725(5) 0.187(5) 0.117(5)
C16 C 0.6021(4) -0.0307(5) 0.2449(5)
H10 H 0.572(4) -0.086(4) 0.276(4)
C17 C 0.5740(5) 0.1074(5) 0.1511(5)
H11 H 0.520(5) 0.147(5) 0.121(5)
C18 C 0.5295(5) 0.0239(5) 0.2004(5)
H12 H 0.446(6) 0.011(6) 0.208(6)
C19 C 0.6938(5) -0.2703(5) 0.2537(5)
H13 H 0.657(5) -0.283(5) 0.184(5)
C20 C 0.8227(4) -0.1076(5) 0.4543(4)
H14 H 0.879(4) -0.020(4) 0.497(4)
C21 C 0.6653(5) -0.3587(5) 0.2978(5)
H15 H 0.609(4) -0.435(5) 0.252(4)
C22 C 0.7952(5) -0.1927(4) 0.5019(5)
H16 H 0.834(5) -0.166(5) 0.582(5)
C23 C 0.7158(4) -0.3222(4) 0.4235(4)
C24 C 0.6860(4) -0.4170(4) 0.4737(4)
C25 C 0.6727(5) -0.5458(5) 0.4054(5)
H17 H 0.684(4) -0.578(4) 0.328(5)
C26 C 0.6690(5) -0.3799(5) 0.5897(4)
H18 H 0.682(4) -0.289(5) 0.643(5)
C27 C 0.6447(6) -0.6310(5) 0.4552(6)
H19 H 0.645(5) -0.720(6) 0.418(5)
C28 C 0.6375(5) -0.4721(5) 0.6299(5)
H20 H 0.625(5) -0.451(5) 0.705(5)
N1 N 1.2440(5) 0.6212(5) -0.0607(6)
N2 N 0.9487(3) 0.1880(3) 0.1445(3)
N3 N 0.9656(4) 0.0517(4) 0.2325(4)
N4 N 0.9210(4) -0.0326(4) 0.2785(4)
N5 N 0.7721(3) -0.1476(3) 0.3307(3)
N6 N 0.6241(4) -0.5970(4) 0.5650(4)
O1 O 0.3440(5) 0.9496(5) 0.3575(5)
H21 H 0.2900 0.9740 0.3020
H22 H 0.3816 1.0300 0.4445
O2 O 0.5007(4) -0.8246(4) 0.5853(5)
H23 H 0.5404 -0.7480 0.5848
H24 H 0.5647 -0.8469 0.6012
loop_
_geom_bond_atom_site_label_1
_geom_bond_atom_site_label_2
_geom_bond_site_symmetry_1
_geom_bond_site_symmetry_2
S1 C29 1_555 1_555
S2 C30 1_555 1_555
C1 H1 1_555 1_555
C2 H2 1_555 1_555
C3 C1 1_555 1_555
H3 C3 1_555 1_555
C4 C2 1_555 1_555
H4 C4 1_555 1_555
C5 C3 1_555 1_555
C6 C5 1_555 1_555
C7 C6 1_555 1_555
H5 C7 1_555 1_555
C8 C6 1_555 1_555
H6 C8 1_555 1_555
C9 C7 1_555 1_555
H7 C9 1_555 1_555
C10 C8 1_555 1_555
H8 C10 1_555 1_555
C11 C13 1_555 1_555
C12 C14 1_555 1_555
C13 C14 1_555 1_555
C14 C16 1_555 1_555
C15 C13 1_555 1_555
H9 C15 1_555 1_555
C16 H10 1_555 1_555
C17 C15 1_555 1_555
H11 C17 1_555 1_555
C18 C16 1_555 1_555
H12 C18 1_555 1_555
C19 H13 1_555 1_555
C20 H14 1_555 1_555
C21 C19 1_555 1_555
H15 C21 1_555 1_555
C22 C20 1_555 1_555
H16 C22 1_555 1_555
C23 C21 1_555 1_555
C24 C23 1_555 1_555
C25 C24 1_555 1_555
H17 C25 1_555 1_555
C26 C24 1_555 1_555
H18 C26 1_555 1_555
C27 C25 1_555 1_555
H19 C27 1_555 1_555
C28 C26 1_555 1_555
H20 C28 1_555 1_555
C29 N7 1_555 1_555
C30 N8 1_555 1_555
N1 C1 1_555 1_555
N2 C9 1_555 1_555
N3 C11 1_555 1_555
N4 C12 1_555 1_555
N5 C12 1_555 1_555
N6 C27 1_555 1_555
O1 H21 1_555 1_555
H22 O1 1_555 1_555
O2 H23 1_555 1_555
H24 O2 1_555 1_555
C2 N1 1_555 1_555
C4 C5 1_555 1_555
C10 N2 1_555 1_555
C11 N2 1_555 1_555
C17 C18 1_555 1_555
C19 N5 1_555 1_555
C20 N5 1_555 1_555
C22 C23 1_555 1_555
C28 N6 1_555 1_555
N3 N4 1_555 1_555

#END
