
#######################################################################
#
#                 Cambridge Crystallographic Data Centre
#                                CCDC 
#
#######################################################################
#
# If this CIF has been generated from an entry in the Cambridge 
# Structural Database, then it will include bibliographic, chemical, 
# crystal, experimental, refinement or atomic coordinate data resulting 
# from the CCDC's data processing and validation procedures.
#
#######################################################################

data_KAXWOY
_chemical_formula_moiety         'C20 H21 Br1 N2 O5'
_chemical_name_systematic        
'(R)-t-butyl 2-(4-bromophenyl)-2-(nitromethyl)-4-oxo-4-(pyridin-2-yl)butanoate'
_symmetry_cell_setting           orthorhombic
_symmetry_space_group_name_H-M   'P 21 21 21'
_symmetry_Int_Tables_number      19
_space_group_name_Hall           'P 2ac 2ab'
loop_
_symmetry_equiv_pos_site_id
_symmetry_equiv_pos_as_xyz
1 x,y,z
2 1/2-x,-y,1/2+z
3 1/2+x,1/2-y,-z
4 -x,1/2+y,1/2-z
_cell_length_a                   10.7863(3)
_cell_length_b                   11.9749(3)
_cell_length_c                   15.8854(4)
_cell_angle_alpha                90
_cell_angle_beta                 90
_cell_angle_gamma                90
_cell_volume                     2051.84
_exptl_crystal_colour            'colorless cristal'
_cell_formula_units_Z            4
_exptl_crystal_recrystallization_method Methanol
loop_
_atom_site_label
_atom_site_type_symbol
_atom_site_fract_x
_atom_site_fract_y
_atom_site_fract_z
Br1 Br 0.95431(3) 0.29692(2) -0.006767(17)
O1 O 0.54210(18) 0.43134(14) -0.40009(10)
O2 O 0.47552(16) 0.68670(14) -0.16325(10)
O3 O 0.27241(15) 0.55103(14) -0.26738(11)
O4 O 0.72477(18) 0.46890(17) -0.35057(12)
C1 C 0.6244(2) 0.4465(2) -0.16184(14)
C2 C 0.5550(2) 0.55874(18) -0.28970(13)
H1 H 0.4828 0.5962 -0.3159
H2 H 0.6163 0.6169 -0.2744
C3 C 0.1814(2) 0.3723(2) -0.25032(14)
N1 N 0.61164(19) 0.48005(16) -0.35139(12)
O5 O 0.39073(15) 0.54231(13) -0.09176(10)
C4 C 0.4565(2) 0.58898(18) -0.15257(13)
N2 N 0.20730(19) 0.26479(17) -0.23546(16)
C5 C 0.7443(2) 0.2876(2) -0.11409(15)
H3 H 0.7581 0.2092 -0.1130
C6 C -0.0108(2) 0.2271(2) -0.24689(19)
H4 H -0.0762 0.1741 -0.2442
C7 C 0.3225(2) 0.6110(2) -0.02916(15)
C8 C 0.8208(2) 0.3589(2) -0.06981(15)
C9 C 0.4133(3) 0.6841(2) 0.01971(15)
H5 H 0.4829 0.6385 0.0394
H6 H 0.3708 0.7173 0.0682
H7 H 0.4443 0.7436 -0.0171
C10 C 0.2647(3) 0.5228(2) 0.02684(17)
H8 H 0.2137 0.4725 -0.0074
H9 H 0.2127 0.5589 0.0695
H10 H 0.3303 0.4798 0.0547
C11 C 0.7056(2) 0.5161(2) -0.11820(15)
H11 H 0.6935 0.5946 -0.1204
C12 C 0.6464(2) 0.33202(19) -0.16044(15)
H12 H 0.5939 0.2835 -0.1915
C13 C -0.0351(2) 0.3388(2) -0.26302(17)
H13 H -0.1174 0.3640 -0.2726
C14 C 0.1112(2) 0.1948(2) -0.2347(2)
H14 H 0.1275 0.1179 -0.2253
C15 C 0.2887(2) 0.45269(19) -0.24992(13)
C16 C 0.5127(2) 0.49631(19) -0.20923(14)
C17 C 0.8038(2) 0.4736(2) -0.07160(16)
H15 H 0.8580 0.5219 -0.0417
C18 C 0.4136(2) 0.40631(18) -0.22605(15)
H16 H 0.4430 0.3570 -0.2719
H17 H 0.4041 0.3599 -0.1749
C19 C 0.2237(3) 0.6792(3) -0.07417(18)
H18 H 0.2634 0.7298 -0.1145
H19 H 0.1768 0.7228 -0.0328
H20 H 0.1673 0.6289 -0.1042
C20 C 0.0626(2) 0.4122(2) -0.26488(16)
H21 H 0.0491 0.4892 -0.2760
loop_
_geom_bond_atom_site_label_1
_geom_bond_atom_site_label_2
_geom_bond_site_symmetry_1
_geom_bond_site_symmetry_2
Br1 C8 1_555 1_555
O1 N1 1_555 1_555
O2 C4 1_555 1_555
O3 C15 1_555 1_555
O4 N1 1_555 1_555
C1 C11 1_555 1_555
C2 H1 1_555 1_555
H2 C2 1_555 1_555
C3 N2 1_555 1_555
N1 C2 1_555 1_555
O5 C4 1_555 1_555
C4 C16 1_555 1_555
N2 C14 1_555 1_555
C5 H3 1_555 1_555
C6 H4 1_555 1_555
C7 O5 1_555 1_555
C8 C5 1_555 1_555
C9 C7 1_555 1_555
H5 C9 1_555 1_555
H6 C9 1_555 1_555
H7 C9 1_555 1_555
C10 C7 1_555 1_555
H8 C10 1_555 1_555
H9 C10 1_555 1_555
H10 C10 1_555 1_555
C11 H11 1_555 1_555
C12 C1 1_555 1_555
H12 C12 1_555 1_555
C13 C6 1_555 1_555
H13 C13 1_555 1_555
C14 C6 1_555 1_555
H14 C14 1_555 1_555
C15 C3 1_555 1_555
C16 C1 1_555 1_555
C17 C8 1_555 1_555
H15 C17 1_555 1_555
C18 C15 1_555 1_555
H16 C18 1_555 1_555
H17 C18 1_555 1_555
C19 C7 1_555 1_555
H18 C19 1_555 1_555
H19 C19 1_555 1_555
H20 C19 1_555 1_555
C20 C3 1_555 1_555
H21 C20 1_555 1_555
C2 C16 1_555 1_555
C5 C12 1_555 1_555
C11 C17 1_555 1_555
C13 C20 1_555 1_555
C16 C18 1_555 1_555

#END
