
#######################################################################
#
#                 Cambridge Crystallographic Data Centre
#                                CCDC 
#
#######################################################################
#
# If this CIF has been generated from an entry in the Cambridge 
# Structural Database, then it will include bibliographic, chemical, 
# crystal, experimental, refinement or atomic coordinate data resulting 
# from the CCDC's data processing and validation procedures.
#
#######################################################################

data_KAXXEP
_chemical_compound_source        
'EtOAc extract of a marine-derived fungal isolate Penicillium sp. SF-5292'
_chemical_name_common            penicillospirone
_chemical_formula_moiety         'C13 H16 O5'
_chemical_name_systematic        
4,6-dihydroxy-3-methyl-10-(prop-1-en-1-yl)-2-oxaspiro[4.5]dec-8-ene-1,7-dione
_chemical_properties_biological  
'Inhibits the overproduction of nitric oxide (NO) and prostaglandin E2 (PGE2) in lipopolysaccharide (LPS)-stimulated RAW264.7 macrophages and BV2 microglia, and these inhibitory effects were correlated with the suppressive effect against overexpressions of inducible nitric oxide synthase (iNOS) and cyclooxygenase-2 (COX-2). Also inhibits the production of pro-inflammatory cytokines such as tumor necrosis factor-alpha (TNF-alpha), interleukin-1beta (IL-1beta), IL-6, and IL-12. Overall, the anti-inflammatory effect was suggested to be mediated through the negative regulation of NF- B pathway.'
_symmetry_cell_setting           monoclinic
_symmetry_space_group_name_H-M   'P 21'
_symmetry_Int_Tables_number      4
_space_group_name_Hall           'P 2yb'
loop_
_symmetry_equiv_pos_site_id
_symmetry_equiv_pos_as_xyz
1 x,y,z
2 -x,1/2+y,-z
_cell_length_a                   7.6359(3)
_cell_length_b                   9.0315(5)
_cell_length_c                   8.9358(6)
_cell_angle_alpha                90
_cell_angle_beta                 97.701(5)
_cell_angle_gamma                90
_cell_volume                     610.687
_cell_formula_units_Z            2
loop_
_atom_site_label
_atom_site_type_symbol
_atom_site_fract_x
_atom_site_fract_y
_atom_site_fract_z
O1 O 0.19236(13) 0.39827(12) 0.91944(11)
O2 O -0.02005(13) 0.63868(12) 1.10026(11)
H1 H -0.0767 0.7146 1.1092
O3 O 0.22226(14) 0.49948(13) 1.29050(11)
O4 O 0.15995(13) 0.88893(12) 0.75918(12)
H2 H 0.1064 0.9670 0.7649
O5 O 0.01315(13) 0.51960(12) 0.74608(12)
C1 C 0.4647(2) 0.57208(16) 1.16808(16)
H3 H 0.5496 0.5342 1.2426
C2 C 0.51401(19) 0.62517(17) 1.04132(16)
H4 H 0.6336 0.6196 1.0315
C3 C 0.39405(18) 0.69355(17) 0.91221(16)
H5 H 0.4135 0.8007 0.9186
C4 C -0.0378(2) 0.67280(17) 0.70230(17)
H6 H -0.1640 0.6854 0.7089
C5 C 0.15805(18) 0.67562(16) 1.08980(16)
H7 H 0.1792 0.7774 1.1258
C6 C 0.19448(18) 0.66724(15) 0.92319(16)
C7 C 0.06866(18) 0.77324(16) 0.82240(16)
H8 H -0.0138 0.8174 0.8848
C8 C 0.44334(18) 0.64418(18) 0.76124(16)
H9 H 0.4268 0.7108 0.6813
C9 C 0.2786(2) 0.57231(16) 1.19220(16)
C10 C -0.0074(3) 0.6973(2) 0.54066(18)
H10 H 0.1165 0.6896 0.5334
H11 H -0.0487 0.7941 0.5085
H12 H -0.0708 0.6239 0.4773
C11 C 0.13708(17) 0.51465(16) 0.86486(15)
C12 C 0.5539(2) 0.4592(2) 0.58743(18)
H13 H 0.5389 0.5388 0.5157
H14 H 0.4774 0.3786 0.5519
H15 H 0.6745 0.4262 0.5993
C13 C 0.50852(18) 0.51207(19) 0.73619(16)
H16 H 0.5276 0.4470 0.8174
loop_
_geom_bond_atom_site_label_1
_geom_bond_atom_site_label_2
_geom_bond_site_symmetry_1
_geom_bond_site_symmetry_2
O1 C11 1_555 1_555
O2 H1 1_555 1_555
O3 C9 1_555 1_555
O4 H2 1_555 1_555
O5 C4 1_555 1_555
C1 H3 1_555 1_555
C2 C1 1_555 1_555
H4 C2 1_555 1_555
C3 C2 1_555 1_555
H5 C3 1_555 1_555
C4 H6 1_555 1_555
C5 O2 1_555 1_555
H7 C5 1_555 1_555
C6 C3 1_555 1_555
C7 O4 1_555 1_555
H8 C7 1_555 1_555
C8 C3 1_555 1_555
H9 C8 1_555 1_555
C9 C1 1_555 1_555
C10 C4 1_555 1_555
H10 C10 1_555 1_555
H11 C10 1_555 1_555
H12 C10 1_555 1_555
C11 O5 1_555 1_555
C12 H13 1_555 1_555
H14 C12 1_555 1_555
H15 C12 1_555 1_555
C13 C8 1_555 1_555
H16 C13 1_555 1_555
C4 C7 1_555 1_555
C5 C6 1_555 1_555
C5 C9 1_555 1_555
C6 C7 1_555 1_555
C6 C11 1_555 1_555
C12 C13 1_555 1_555

#END
