
#######################################################################
#
#                 Cambridge Crystallographic Data Centre
#                                CCDC 
#
#######################################################################
#
# If this CIF has been generated from an entry in the Cambridge 
# Structural Database, then it will include bibliographic, chemical, 
# crystal, experimental, refinement or atomic coordinate data resulting 
# from the CCDC's data processing and validation procedures.
#
#######################################################################

data_KAYDAS
_chemical_formula_moiety         'C18 H14 I1 N1 O2'
_chemical_name_systematic        
3'-(2-iodophenyl)-2'H-spiro[indole-3,4'-oxan]-2'-one
_symmetry_cell_setting           orthorhombic
_symmetry_space_group_name_H-M   'P 21 21 21'
_symmetry_Int_Tables_number      19
_space_group_name_Hall           'P 2ac 2ab'
loop_
_symmetry_equiv_pos_site_id
_symmetry_equiv_pos_as_xyz
1 x,y,z
2 1/2-x,-y,1/2+z
3 -x,1/2+y,1/2-z
4 1/2+x,1/2-y,-z
_cell_length_a                   7.3516(2)
_cell_length_b                   13.8595(3)
_cell_length_c                   14.8108(3)
_cell_angle_alpha                90
_cell_angle_beta                 90
_cell_angle_gamma                90
_cell_volume                     1509.07
_exptl_crystal_colour            colorless
_exptl_crystal_description       block
_cell_formula_units_Z            4
loop_
_atom_site_label
_atom_site_type_symbol
_atom_site_fract_x
_atom_site_fract_y
_atom_site_fract_z
I1 I 0.60041(3) 0.81658(2) 0.39482(2)
O1 O 0.8328(3) 0.45791(17) 0.28174(16)
O2 O 0.6780(4) 0.54489(18) 0.18546(15)
N1 N 0.3922(5) 0.52837(19) 0.54602(16)
C1 C 0.6112(5) 0.5149(2) 0.42794(19)
C2 C 0.5283(5) 0.5693(2) 0.5076(2)
H1 H 0.5747 0.6296 0.5275
C3 C 0.3612(5) 0.4400(2) 0.4983(2)
C4 C 0.4822(4) 0.4295(2) 0.42570(19)
C5 C 0.4707(5) 0.3488(2) 0.3702(2)
H2 H 0.5497 0.3416 0.3199
C6 C 0.3402(4) 0.2784(2) 0.3901(2)
H3 H 0.3308 0.2228 0.3528
C7 C 0.2237(5) 0.2887(2) 0.4638(2)
H4 H 0.1374 0.2395 0.4767
C8 C 0.2320(5) 0.3706(2) 0.5192(2)
H5 H 0.1523 0.3782 0.5692
C9 C 0.6204(5) 0.5790(2) 0.34215(19)
H6 H 0.7047 0.6332 0.3573
C10 C 0.7083(4) 0.5257(2) 0.2635(2)
C11 C 0.8870(5) 0.4275(2) 0.3719(2)
H7 H 1.0214 0.4298 0.3757
H8 H 0.8498 0.3594 0.3802
C12 C 0.8099(5) 0.4860(2) 0.4484(2)
H9 H 0.8843 0.5448 0.4572
H10 H 0.8143 0.4477 0.5048
C13 C 0.4416(4) 0.6256(2) 0.3169(2)
C14 C 0.4030(5) 0.7220(2) 0.33938(18)
C15 C 0.2343(5) 0.7628(3) 0.3190(2)
H11 H 0.2088 0.8275 0.3360
C16 C 0.1038(5) 0.7089(3) 0.2739(2)
H12 H -0.0111 0.7367 0.2603
C17 C 0.1409(5) 0.6139(3) 0.2485(2)
H13 H 0.0531 0.5774 0.2161
C18 C 0.3080(5) 0.5731(2) 0.2711(2)
H14 H 0.3318 0.5080 0.2550
loop_
_geom_bond_atom_site_label_1
_geom_bond_atom_site_label_2
_geom_bond_site_symmetry_1
_geom_bond_site_symmetry_2
I1 C14 1_555 1_555
O1 C10 1_555 1_555
O2 C10 1_555 1_555
N1 C2 1_555 1_555
C1 C2 1_555 1_555
C2 H1 1_555 1_555
C3 N1 1_555 1_555
C4 C1 1_555 1_555
C5 C4 1_555 1_555
H2 C5 1_555 1_555
C6 C5 1_555 1_555
H3 C6 1_555 1_555
C7 C6 1_555 1_555
H4 C7 1_555 1_555
C8 C3 1_555 1_555
H5 C8 1_555 1_555
C9 C1 1_555 1_555
H6 C9 1_555 1_555
C10 C9 1_555 1_555
C11 O1 1_555 1_555
H7 C11 1_555 1_555
H8 C11 1_555 1_555
C12 C1 1_555 1_555
H9 C12 1_555 1_555
H10 C12 1_555 1_555
C13 C9 1_555 1_555
C14 C13 1_555 1_555
C15 C14 1_555 1_555
H11 C15 1_555 1_555
C16 C15 1_555 1_555
H12 C16 1_555 1_555
C17 C16 1_555 1_555
H13 C17 1_555 1_555
C18 C13 1_555 1_555
H14 C18 1_555 1_555
C3 C4 1_555 1_555
C7 C8 1_555 1_555
C11 C12 1_555 1_555
C17 C18 1_555 1_555

#END
