
#######################################################################
#
#                 Cambridge Crystallographic Data Centre
#                                CCDC 
#
#######################################################################
#
# If this CIF has been generated from an entry in the Cambridge 
# Structural Database, then it will include bibliographic, chemical, 
# crystal, experimental, refinement or atomic coordinate data resulting 
# from the CCDC's data processing and validation procedures.
#
#######################################################################

data_KAYFUN
_chemical_formula_moiety         'C11 H9 N3 O1,C7 H12 O4'
_chemical_name_systematic        'Pimelic acid N-(pyridin-2-yl)isonicotinamide'
_symmetry_cell_setting           monoclinic
_symmetry_space_group_name_H-M   'P 21/n'
_symmetry_Int_Tables_number      14
_space_group_name_Hall           '-P 2yn'
loop_
_symmetry_equiv_pos_site_id
_symmetry_equiv_pos_as_xyz
1 x,y,z
2 1/2-x,1/2+y,1/2-z
3 -x,-y,-z
4 1/2+x,1/2-y,1/2+z
_cell_length_a                   7.5855(12)
_cell_length_b                   21.675(3)
_cell_length_c                   11.1031(16)
_cell_angle_alpha                90
_cell_angle_beta                 96.050(9)
_cell_angle_gamma                90
_cell_volume                     1815.36
_exptl_crystal_colour            colorless
_exptl_crystal_description       plate
_cell_formula_units_Z            4
loop_
_atom_site_label
_atom_site_type_symbol
_atom_site_fract_x
_atom_site_fract_y
_atom_site_fract_z
N1 N 0.8999(3) 0.88509(10) 0.6488(2)
C1 C 0.8023(4) 0.83423(12) 0.6569(3)
H1 H 0.8517 0.8017 0.7034
C2 C 0.6338(4) 0.82722(11) 0.6006(2)
H2 H 0.5717 0.7907 0.6087
C3 C 0.5574(3) 0.87523(10) 0.5318(2)
C4 C 0.6580(3) 0.92780(11) 0.5225(2)
H3 H 0.6123 0.9610 0.4761
C5 C 0.8260(4) 0.93085(12) 0.5823(2)
H4 H 0.8911 0.9668 0.5757
C6 C 0.3723(3) 0.87592(11) 0.4714(2)
N2 N 0.2928(3) 0.81998(9) 0.44803(19)
H5 H 0.358(3) 0.7860(12) 0.464(2)
O1 O 0.2984(3) 0.92451(8) 0.44550(19)
N3 N 0.0744(3) 0.74967(9) 0.39559(19)
C7 C 0.1196(3) 0.80925(10) 0.3958(2)
C8 C 0.0038(3) 0.85413(11) 0.3476(2)
H6 H 0.0374 0.8954 0.3487
C9 C -0.1612(4) 0.83668(13) 0.2984(2)
H7 H -0.2411 0.8663 0.2657
C10 C -0.2099(4) 0.77551(13) 0.2968(3)
H8 H -0.3215 0.7628 0.2631
C11 C -0.0877(4) 0.73430(13) 0.3467(3)
H9 H -0.1193 0.6928 0.3466
C12 C 0.4185(3) 0.65321(11) 0.4930(2)
O2 O 0.2472(2) 0.64708(9) 0.4738(2)
H10 H 0.198(4) 0.6861(15) 0.452(3)
O3 O 0.4921(2) 0.70221(8) 0.48168(19)
C13 C 0.5120(3) 0.59443(11) 0.5281(2)
H11 H 0.5044 0.5678 0.4576
H12 H 0.4490 0.5742 0.5887
C14 C 0.7057(3) 0.60003(10) 0.5777(2)
H13 H 0.7728 0.6177 0.5164
H14 H 0.7167 0.6273 0.6474
C15 C 0.7799(3) 0.53714(11) 0.6143(2)
H15 H 0.7104 0.5201 0.6749
H16 H 0.7644 0.5103 0.5442
C16 C 0.9734(3) 0.53582(10) 0.6644(2)
H17 H 0.9902 0.5607 0.7373
H18 H 1.0448 0.5534 0.6056
C17 C 1.0343(3) 0.47023(11) 0.6936(2)
H19 H 0.9621 0.4536 0.7530
H20 H 1.0110 0.4456 0.6206
C18 C 1.2232(3) 0.46215(11) 0.7403(2)
O4 O 1.2672(2) 0.40343(8) 0.75542(18)
H21 H 1.408(4) 0.3973(13) 0.789(2)
O5 O 1.3281(2) 0.50354(8) 0.7624(2)
loop_
_geom_bond_atom_site_label_1
_geom_bond_atom_site_label_2
_geom_bond_site_symmetry_1
_geom_bond_site_symmetry_2
N1 C1 1_555 1_555
C1 H1 1_555 1_555
C2 C1 1_555 1_555
H2 C2 1_555 1_555
C3 C2 1_555 1_555
C4 C3 1_555 1_555
H3 C4 1_555 1_555
C5 N1 1_555 1_555
H4 C5 1_555 1_555
C6 C3 1_555 1_555
N2 C6 1_555 1_555
H5 N2 1_555 1_555
O1 C6 1_555 1_555
N3 C7 1_555 1_555
C7 N2 1_555 1_555
C8 C7 1_555 1_555
H6 C8 1_555 1_555
C9 C8 1_555 1_555
H7 C9 1_555 1_555
C10 C9 1_555 1_555
H8 C10 1_555 1_555
C11 N3 1_555 1_555
H9 C11 1_555 1_555
C12 O2 1_555 1_555
O2 H10 1_555 1_555
O3 C12 1_555 1_555
C13 C12 1_555 1_555
H11 C13 1_555 1_555
H12 C13 1_555 1_555
C14 C13 1_555 1_555
H13 C14 1_555 1_555
H14 C14 1_555 1_555
C15 C14 1_555 1_555
H15 C15 1_555 1_555
H16 C15 1_555 1_555
C16 C15 1_555 1_555
H17 C16 1_555 1_555
H18 C16 1_555 1_555
C17 C16 1_555 1_555
H19 C17 1_555 1_555
H20 C17 1_555 1_555
C18 C17 1_555 1_555
O4 C18 1_555 1_555
H21 O4 1_555 1_555
O5 C18 1_555 1_555
C4 C5 1_555 1_555
C10 C11 1_555 1_555

#END
