
#######################################################################
#
#                 Cambridge Crystallographic Data Centre
#                                CCDC 
#
#######################################################################
#
# If this CIF has been generated from an entry in the Cambridge 
# Structural Database, then it will include bibliographic, chemical, 
# crystal, experimental, refinement or atomic coordinate data resulting 
# from the CCDC's data processing and validation procedures.
#
#######################################################################

data_KAYFOH
_chemical_formula_moiety         'C11 H9 N3 O1,C5 H8 O4'
_chemical_name_systematic        'Glutaric acid N-(pyridin-2-yl)isonicotinamide'
_symmetry_cell_setting           triclinic
_symmetry_space_group_name_H-M   'P -1'
_symmetry_Int_Tables_number      2
_space_group_name_Hall           '-P 1'
loop_
_symmetry_equiv_pos_site_id
_symmetry_equiv_pos_as_xyz
1 x,y,z
2 -x,-y,-z
_cell_length_a                   5.1663(6)
_cell_length_b                   9.9211(10)
_cell_length_c                   15.8829(17)
_cell_angle_alpha                75.339(3)
_cell_angle_beta                 82.551(3)
_cell_angle_gamma                78.820(3)
_cell_volume                     769.843
_exptl_crystal_colour            colorless
_exptl_crystal_description       prism
_cell_formula_units_Z            2
loop_
_atom_site_label
_atom_site_type_symbol
_atom_site_fract_x
_atom_site_fract_y
_atom_site_fract_z
N1 N -0.01015(17) 0.45686(9) 0.41058(6)
C1 C 0.2331(2) 0.40144(10) 0.38439(7)
H1 H 0.3060 0.3093 0.4149
C2 C 0.3856(2) 0.47111(10) 0.31493(7)
H2 H 0.5587 0.4278 0.2982
C3 C 0.2792(2) 0.60613(10) 0.27028(6)
C4 C 0.0293(2) 0.66531(10) 0.29901(7)
H3 H -0.0471 0.7583 0.2708
C5 C -0.1087(2) 0.58808(11) 0.36916(7)
H4 H -0.2800 0.6299 0.3886
C6 C 0.4196(2) 0.69486(10) 0.19443(7)
N2 N 0.63910(18) 0.62939(9) 0.15431(6)
H5 H 0.701(3) 0.5419(15) 0.1728(10)
O1 O 0.33373(18) 0.82064(8) 0.17095(6)
N3 N 1.02540(18) 0.61185(9) 0.06576(6)
C7 C 0.7980(2) 0.69384(10) 0.08317(7)
C8 C 0.7276(2) 0.82994(11) 0.03241(7)
H6 H 0.5647 0.8871 0.0455
C9 C 0.9002(2) 0.87969(10) -0.03735(7)
H7 H 0.8563 0.9722 -0.0729
C10 C 1.1352(2) 0.79606(11) -0.05571(7)
H8 H 1.2564 0.8289 -0.1034
C11 C 1.1877(2) 0.66306(11) -0.00237(8)
H9 H 1.3490 0.6040 -0.0147
C12 C -0.1439(2) 0.16291(10) 0.56038(7)
O2 O -0.29352(15) 0.28481(8) 0.52676(6)
H10 H -0.182(3) 0.3440(16) 0.4869(11)
O3 O 0.08919(16) 0.13502(8) 0.53937(6)
C13 C -0.2992(2) 0.06675(10) 0.62753(7)
H11 H -0.4340 0.0402 0.5986
H12 H -0.3935 0.1187 0.6712
C14 C -0.1291(2) -0.06639(10) 0.67415(7)
H13 H -0.0517 -0.1249 0.6321
H14 H 0.0181 -0.0410 0.6979
C15 C -0.2909(2) -0.15037(10) 0.74775(7)
H15 H -0.3588 -0.0928 0.7910
H16 H -0.4455 -0.1685 0.7241
C16 C -0.1400(2) -0.28885(10) 0.79338(7)
O4 O -0.28284(16) -0.36047(8) 0.85794(5)
H17 H -0.168(3) -0.4395(16) 0.8770(10)
O5 O 0.09006(15) -0.33221(8) 0.77396(5)
loop_
_geom_bond_atom_site_label_1
_geom_bond_atom_site_label_2
_geom_bond_site_symmetry_1
_geom_bond_site_symmetry_2
N1 C1 1_555 1_555
C1 H1 1_555 1_555
C2 C1 1_555 1_555
H2 C2 1_555 1_555
C3 C2 1_555 1_555
C4 C3 1_555 1_555
H3 C4 1_555 1_555
C5 N1 1_555 1_555
H4 C5 1_555 1_555
C6 C3 1_555 1_555
N2 C6 1_555 1_555
H5 N2 1_555 1_555
O1 C6 1_555 1_555
N3 C7 1_555 1_555
C7 N2 1_555 1_555
C8 C7 1_555 1_555
H6 C8 1_555 1_555
C9 C8 1_555 1_555
H7 C9 1_555 1_555
C10 C9 1_555 1_555
H8 C10 1_555 1_555
C11 N3 1_555 1_555
H9 C11 1_555 1_555
C12 O2 1_555 1_555
O2 H10 1_555 1_555
O3 C12 1_555 1_555
C13 C12 1_555 1_555
H11 C13 1_555 1_555
H12 C13 1_555 1_555
C14 C13 1_555 1_555
H13 C14 1_555 1_555
H14 C14 1_555 1_555
C15 C14 1_555 1_555
H15 C15 1_555 1_555
H16 C15 1_555 1_555
C16 C15 1_555 1_555
O4 C16 1_555 1_555
H17 O4 1_555 1_555
O5 C16 1_555 1_555
C4 C5 1_555 1_555
C10 C11 1_555 1_555

#END
