
#######################################################################
#
#                 Cambridge Crystallographic Data Centre
#                                CCDC 
#
#######################################################################
#
# If this CIF has been generated from an entry in the Cambridge 
# Structural Database, then it will include bibliographic, chemical, 
# crystal, experimental, refinement or atomic coordinate data resulting 
# from the CCDC's data processing and validation procedures.
#
#######################################################################

data_KAYGEW
_chemical_compound_source        'roots of Stephania epigeae H.S.Lo'
_chemical_formula_moiety         'C20 H19 N1 O4'
_chemical_name_systematic        Dehydrodicentrine
_symmetry_cell_setting           monoclinic
_symmetry_space_group_name_H-M   'P 21/n'
_symmetry_Int_Tables_number      14
_space_group_name_Hall           '-P 2yn'
loop_
_symmetry_equiv_pos_site_id
_symmetry_equiv_pos_as_xyz
1 x,y,z
2 1/2-x,1/2+y,1/2-z
3 -x,-y,-z
4 1/2+x,1/2-y,1/2+z
_cell_length_a                   16.567(3)
_cell_length_b                   6.353(13)
_cell_length_c                   15.085(4)
_cell_angle_alpha                90
_cell_angle_beta                 93.74(2)
_cell_angle_gamma                90
_cell_volume                     1584.32
_exptl_crystal_colour            'light yellow'
_cell_formula_units_Z            4
loop_
_atom_site_label
_atom_site_type_symbol
_atom_site_fract_x
_atom_site_fract_y
_atom_site_fract_z
O1 O 1.0094(1) 0.7721(3) 0.9231(1)
O2 O 1.1313(1) 0.8854(4) 0.8737(2)
O3 O 0.6940(1) 0.1692(3) 0.9287(1)
O4 O 0.7530(1) 0.5085(3) 1.0001(1)
N1 N 1.0302(2) 0.0781(4) 0.6418(2)
C1 C 1.0316(2) 0.3586(4) 0.7523(2)
C2 C 1.0329(2) 0.6422(4) 0.8562(2)
C3 C 1.1047(2) 0.7097(5) 0.8274(2)
C4 C 1.1430(2) 0.6112(5) 0.7607(2)
C5 C 1.1051(2) 0.4361(5) 0.7222(2)
C6 C 1.1397(2) 0.3319(6) 0.6433(2)
C7 C 1.1146(2) 0.1101(6) 0.6345(2)
C8 C 0.9936(2) 0.1722(4) 0.7120(2)
C9 C 0.9229(2) 0.0994(4) 0.7420(2)
C10 C 0.8824(2) 0.2056(4) 0.8097(2)
C11 C 0.8069(2) 0.1298(4) 0.8354(2)
C12 C 0.7660(2) 0.2318(5) 0.8987(2)
C13 C 0.7993(2) 0.4168(5) 0.9388(2)
C14 C 0.8723(2) 0.4916(4) 0.9153(2)
C15 C 0.9157(2) 0.3878(4) 0.8504(2)
C16 C 0.9923(2) 0.4642(4) 0.8218(2)
C17 C 1.0690(2) 0.9355(5) 0.9310(2)
C18 C 0.9956(2) -0.1177(5) 0.6067(2)
C19 C 0.6545(2) -0.0057(5) 0.8848(2)
C20 C 0.7850(2) 0.6904(5) 1.0446(2)
loop_
_geom_bond_atom_site_label_1
_geom_bond_atom_site_label_2
_geom_bond_site_symmetry_1
_geom_bond_site_symmetry_2
O1 C2 1_555 1_555
O2 C3 1_555 1_555
O3 C12 1_555 1_555
O4 C13 1_555 1_555
N1 C7 1_555 1_555
C1 C5 1_555 1_555
C2 C3 1_555 1_555
C3 C4 1_555 1_555
C4 C5 1_555 1_555
C5 C6 1_555 1_555
C6 C7 1_555 1_555
C8 N1 1_555 1_555
C9 C8 1_555 1_555
C10 C9 1_555 1_555
C11 C10 1_555 1_555
C12 C11 1_555 1_555
C13 C12 1_555 1_555
C14 C13 1_555 1_555
C15 C10 1_555 1_555
C16 C1 1_555 1_555
C17 O1 1_555 1_555
C18 N1 1_555 1_555
C19 O3 1_555 1_555
C20 O4 1_555 1_555
O2 C17 1_555 1_555
C1 C8 1_555 1_555
C2 C16 1_555 1_555
C14 C15 1_555 1_555
C15 C16 1_555 1_555

#END
