
#######################################################################
#
#                 Cambridge Crystallographic Data Centre
#                                CCDC 
#
#######################################################################
#
# If this CIF has been generated from an entry in the Cambridge 
# Structural Database, then it will include bibliographic, chemical, 
# crystal, experimental, refinement or atomic coordinate data resulting 
# from the CCDC's data processing and validation procedures.
#
#######################################################################

data_KAYHID
_chemical_formula_moiety         'C11 H9 N3 O1,C3 H4 O4'
_chemical_name_systematic        'Malonic acid N-(pyridin-2-yl)nicotinamide'
_symmetry_cell_setting           monoclinic
_symmetry_space_group_name_H-M   'C 2/c'
_symmetry_Int_Tables_number      15
_space_group_name_Hall           '-C 2yn'
loop_
_symmetry_equiv_pos_site_id
_symmetry_equiv_pos_as_xyz
1 x,y,z
2 -x,y,1/2-z
3 1/2+x,1/2+y,z
4 1/2-x,1/2+y,1/2-z
5 -x,-y,-z
6 x,-y,1/2+z
7 1/2-x,1/2-y,-z
8 1/2+x,1/2-y,1/2+z
_cell_length_a                   31.2168(18)
_cell_length_b                   4.7940(3)
_cell_length_c                   22.7743(13)
_cell_angle_alpha                90
_cell_angle_beta                 128.375(2)
_cell_angle_gamma                90
_cell_volume                     2671.95
_exptl_crystal_colour            gold
_exptl_crystal_description       plate
_cell_formula_units_Z            8
loop_
_atom_site_label
_atom_site_type_symbol
_atom_site_fract_x
_atom_site_fract_y
_atom_site_fract_z
N1 N 0.55626(4) 0.6556(2) 0.44967(5)
C1 C 0.59445(4) 0.7663(2) 0.44750(6)
H1 H 0.6160 0.9152 0.4807
C2 C 0.60427(4) 0.6739(2) 0.39890(6)
C3 C 0.57150(5) 0.4632(3) 0.34894(6)
H2 H 0.5766 0.3967 0.3143
C4 C 0.53114(5) 0.3506(3) 0.35021(7)
H3 H 0.5078 0.2077 0.3160
C5 C 0.52532(4) 0.4491(2) 0.40195(6)
H4 H 0.4984 0.3673 0.4037
C6 C 0.65051(4) 0.8112(2) 0.40637(6)
N2 N 0.67080(4) 0.6714(2) 0.37619(5)
H5 H 0.6528(6) 0.511(3) 0.3497(8)
O1 O 0.66857(4) 1.03341(18) 0.43904(5)
N3 N 0.71929(4) 0.61357(19) 0.33188(5)
C7 C 0.71425(4) 0.7596(2) 0.37753(6)
C8 C 0.74987(4) 0.9746(2) 0.42214(6)
H6 H 0.7461 1.0736 0.4549
C9 C 0.79092(4) 1.0410(2) 0.41774(6)
H7 H 0.8155 1.1888 0.4472
C10 C 0.79623(4) 0.8922(2) 0.37039(6)
H8 H 0.8242 0.9353 0.3667
C11 C 0.75976(5) 0.6804(2) 0.32906(6)
H9 H 0.7633 0.5759 0.2968
C12 C 0.62301(4) 0.1183(2) 0.22380(6)
O2 O 0.66699(3) 0.21247(18) 0.23549(5)
H10 H 0.6831(6) 0.353(3) 0.2744(9)
O3 O 0.60707(4) 0.1987(2) 0.25786(5)
C13 C 0.59410(5) -0.1042(2) 0.16438(6)
H11 H 0.5573 -0.1354 0.1500
H12 H 0.6148 -0.2811 0.1850
C14 C 0.58850(4) -0.0247(2) 0.09565(6)
O4 O 0.55887(4) 0.20159(19) 0.06354(5)
H13 H 0.5572(6) 0.244(3) 0.0205(9)
O5 O 0.60936(4) -0.15322(19) 0.07364(6)
loop_
_geom_bond_atom_site_label_1
_geom_bond_atom_site_label_2
_geom_bond_site_symmetry_1
_geom_bond_site_symmetry_2
N1 C1 1_555 1_555
C1 H1 1_555 1_555
C2 C1 1_555 1_555
C3 C2 1_555 1_555
H2 C3 1_555 1_555
C4 C3 1_555 1_555
H3 C4 1_555 1_555
C5 N1 1_555 1_555
H4 C5 1_555 1_555
C6 C2 1_555 1_555
N2 C6 1_555 1_555
H5 N2 1_555 1_555
O1 C6 1_555 1_555
N3 C7 1_555 1_555
C7 N2 1_555 1_555
C8 C7 1_555 1_555
H6 C8 1_555 1_555
C9 C8 1_555 1_555
H7 C9 1_555 1_555
C10 C9 1_555 1_555
H8 C10 1_555 1_555
C11 N3 1_555 1_555
H9 C11 1_555 1_555
C12 O2 1_555 1_555
O2 H10 1_555 1_555
O3 C12 1_555 1_555
C13 C12 1_555 1_555
H11 C13 1_555 1_555
H12 C13 1_555 1_555
C14 C13 1_555 1_555
O4 C14 1_555 1_555
H13 O4 1_555 1_555
O5 C14 1_555 1_555
C4 C5 1_555 1_555
C10 C11 1_555 1_555

#END
