
#######################################################################
#
#                 Cambridge Crystallographic Data Centre
#                                CCDC 
#
#######################################################################
#
# If this CIF has been generated from an entry in the Cambridge 
# Structural Database, then it will include bibliographic, chemical, 
# crystal, experimental, refinement or atomic coordinate data resulting 
# from the CCDC's data processing and validation procedures.
#
#######################################################################

data_KAYTIQ
_chemical_name_common            '(+-)-12-epi-Flabelliformine N-oxide'
_chemical_formula_moiety         'C16 H25 N1 O3'
_chemical_name_systematic        
1-hydroxy-11-methyl-5-oxododecahydro-1H-1,9-ethano-5\l^5^-pyrido[2,1-j]quinolin-14-one
_symmetry_cell_setting           monoclinic
_symmetry_space_group_name_H-M   'P 21'
_symmetry_Int_Tables_number      4
_space_group_name_Hall           'P 2yb'
loop_
_symmetry_equiv_pos_site_id
_symmetry_equiv_pos_as_xyz
1 x,y,z
2 -x,1/2+y,-z
_cell_length_a                   7.6488(8)
_cell_length_b                   9.1105(5)
_cell_length_c                   10.2100(6)
_cell_angle_alpha                90
_cell_angle_beta                 100.967(7)
_cell_angle_gamma                90
_cell_volume                     698.484
_exptl_crystal_colour            colorless
_exptl_crystal_description       block
_chemical_melting_point          '470-473 K'
_cell_formula_units_Z            2
_exptl_crystal_recrystallization_method 
'Re-crystallisation from solvent: n-Hexane / AcOEt'
loop_
_atom_site_label
_atom_site_type_symbol
_atom_site_fract_x
_atom_site_fract_y
_atom_site_fract_z
O1 O -0.4641(3) -0.8506(3) -0.4851(2)
O2 O -0.6647(3) -0.9953(3) -0.3729(2)
H1 H -0.6333 -0.9466 -0.4319
O3 O -0.6786(4) -1.0989(3) -0.0882(2)
N1 N -0.3477(4) -0.8206(3) -0.3641(2)
C1 C -0.1669(5) -0.8020(4) -0.3984(3)
H2 H -0.0818 -0.7761 -0.3187
H3 H -0.1703 -0.7225 -0.4621
C2 C -0.1077(5) -0.9416(4) -0.4572(4)
H4 H 0.0123 -0.9287 -0.4733
H5 H -0.1852 -0.9610 -0.5423
C3 C -0.1115(5) -1.0725(4) -0.3652(3)
H6 H -0.0206 -1.0601 -0.2856
H7 H -0.0844 -1.1612 -0.4099
C4 C -0.2936(4) -1.0894(4) -0.3249(3)
H8 H -0.3811 -1.1112 -0.4059
C5 C -0.3530(4) -0.9489(4) -0.2643(3)
C6 C -0.5528(5) -0.9626(4) -0.2483(3)
C7 C -0.5804(4) -1.1009(4) -0.1686(3)
C8 C -0.4951(5) -1.2375(4) -0.2080(3)
H9 H -0.5641 -1.2734 -0.2915
H10 H -0.4976 -1.3122 -0.1407
C9 C -0.3017(5) -1.2143(4) -0.2247(3)
H11 H -0.2619 -1.3045 -0.2622
C10 C -0.1767(5) -1.1851(4) -0.0911(3)
H12 H -0.1872 -1.2648 -0.0301
H13 H -0.0548 -1.1831 -0.1050
C11 C -0.2179(5) -1.0409(4) -0.0285(3)
H14 H -0.3344 -1.0497 -0.0024
C12 C -0.2273(5) -0.9156(4) -0.1293(3)
H15 H -0.1085 -0.8964 -0.1456
H16 H -0.2683 -0.8275 -0.0912
C13 C -0.4055(6) -0.6797(4) -0.3096(4)
H17 H -0.4033 -0.6018 -0.3741
H18 H -0.3224 -0.6540 -0.2287
C14 C -0.5911(6) -0.6917(4) -0.2791(4)
H19 H -0.6179 -0.6023 -0.2352
H20 H -0.6760 -0.6999 -0.3624
C15 C -0.6147(5) -0.8215(4) -0.1914(3)
H21 H -0.7392 -0.8305 -0.1852
H22 H -0.5466 -0.8054 -0.1023
C16 C -0.0786(5) -1.0067(5) 0.0964(3)
H23 H -0.1093 -0.9168 0.1355
H24 H 0.0363 -0.9967 0.0725
H25 H -0.0753 -1.0852 0.1596
loop_
_geom_bond_atom_site_label_1
_geom_bond_atom_site_label_2
_geom_bond_site_symmetry_1
_geom_bond_site_symmetry_2
O1 N1 1_555 1_555
O2 H1 1_555 1_555
O3 C7 1_555 1_555
N1 C1 1_555 1_555
C1 H2 1_555 1_555
H3 C1 1_555 1_555
C2 C1 1_555 1_555
H4 C2 1_555 1_555
H5 C2 1_555 1_555
C3 C2 1_555 1_555
H6 C3 1_555 1_555
H7 C3 1_555 1_555
C4 C3 1_555 1_555
H8 C4 1_555 1_555
C5 N1 1_555 1_555
C6 O2 1_555 1_555
C7 C6 1_555 1_555
C8 C7 1_555 1_555
H9 C8 1_555 1_555
H10 C8 1_555 1_555
C9 C4 1_555 1_555
H11 C9 1_555 1_555
C10 C9 1_555 1_555
H12 C10 1_555 1_555
H13 C10 1_555 1_555
C11 C10 1_555 1_555
H14 C11 1_555 1_555
C12 C5 1_555 1_555
H15 C12 1_555 1_555
H16 C12 1_555 1_555
C13 N1 1_555 1_555
H17 C13 1_555 1_555
H18 C13 1_555 1_555
C14 C13 1_555 1_555
H19 C14 1_555 1_555
H20 C14 1_555 1_555
C15 C6 1_555 1_555
H21 C15 1_555 1_555
H22 C15 1_555 1_555
C16 C11 1_555 1_555
H23 C16 1_555 1_555
H24 C16 1_555 1_555
H25 C16 1_555 1_555
C4 C5 1_555 1_555
C5 C6 1_555 1_555
C8 C9 1_555 1_555
C11 C12 1_555 1_555
C14 C15 1_555 1_555

#END
