
#######################################################################
#
#                 Cambridge Crystallographic Data Centre
#                                CCDC 
#
#######################################################################
#
# If this CIF has been generated from an entry in the Cambridge 
# Structural Database, then it will include bibliographic, chemical, 
# crystal, experimental, refinement or atomic coordinate data resulting 
# from the CCDC's data processing and validation procedures.
#
#######################################################################

data_KAZDOH
_chemical_formula_moiety         'C17 H24 Cl1 N1 O3'
_chemical_name_systematic        
1-(3-chloropropyl)-10-methylhexahydro-4a,8-(epoxymethano)-5,8a-propanoquinoline-7,12(8H)-dione
_symmetry_cell_setting           monoclinic
_symmetry_space_group_name_H-M   'P 21/c'
_symmetry_Int_Tables_number      14
_space_group_name_Hall           '-P 2ybc'
loop_
_symmetry_equiv_pos_site_id
_symmetry_equiv_pos_as_xyz
1 x,y,z
2 -x,1/2+y,1/2-z
3 -x,-y,-z
4 x,1/2-y,1/2+z
_cell_length_a                   11.5513(3)
_cell_length_b                   13.8572(5)
_cell_length_c                   10.2194(3)
_cell_angle_alpha                90
_cell_angle_beta                 103.624(3)
_cell_angle_gamma                90
_cell_volume                     1589.78
_exptl_crystal_colour            'light colorless'
_exptl_crystal_description       block
_chemical_melting_point          '440-443 K'
_cell_formula_units_Z            4
_exptl_crystal_recrystallization_method 'petroleum ether / ethyl acetate'
loop_
_atom_site_label
_atom_site_type_symbol
_atom_site_fract_x
_atom_site_fract_y
_atom_site_fract_z
Cl1 Cl 0.93484(6) 0.09751(8) 0.83479(7)
O1 O 0.47641(14) -0.21098(13) 0.38136(16)
O2 O 0.55478(13) 0.01664(11) 0.15732(14)
O3 O 0.43233(15) 0.05603(13) 0.28920(17)
N1 N 0.75445(16) 0.03853(14) 0.37816(17)
C1 C 0.65913(18) -0.04737(16) 0.1681(2)
C2 C 0.70777(18) -0.05639(15) 0.32197(19)
C3 C 0.79849(19) -0.13875(16) 0.3605(2)
H1 H 0.8728 -0.1182 0.3407
H2 H 0.8135 -0.1486 0.4570
C4 C 0.7634(2) -0.23582(17) 0.2910(2)
H3 H 0.6996 -0.2638 0.3273
C5 C 0.7159(2) -0.22077(17) 0.1400(2)
H4 H 0.6867 -0.2818 0.0986
H5 H 0.7805 -0.1996 0.1011
C6 C 0.61538(19) -0.14626(16) 0.1083(2)
H6 H 0.5894 -0.1396 0.0103
C7 C 0.50873(19) -0.18204(17) 0.1617(2)
H7 H 0.4367 -0.1513 0.1106
H8 H 0.5000 -0.2511 0.1468
C8 C 0.52131(18) -0.16157(17) 0.3091(2)
C9 C 0.58591(18) -0.06789(16) 0.3598(2)
H9 H 0.5914 -0.0568 0.4558
C10 C 0.51529(19) 0.01014(17) 0.2712(2)
C11 C 0.8685(2) -0.3057(2) 0.3194(3)
H10 H 0.9300 -0.2816 0.2794
H11 H 0.8425 -0.3677 0.2818
H12 H 0.8989 -0.3118 0.4149
C12 C 0.7412(2) 0.00311(18) 0.0947(2)
H13 H 0.6989 0.0152 0.0023
H14 H 0.8085 -0.0384 0.0933
C13 C 0.7861(2) 0.09835(19) 0.1622(2)
H15 H 0.8452 0.1258 0.1196
H16 H 0.7205 0.1436 0.1520
C14 C 0.8408(2) 0.08170(18) 0.3104(2)
H17 H 0.9091 0.0393 0.3201
H18 H 0.8684 0.1427 0.3531
C15 C 0.8000(2) 0.03764(18) 0.5256(2)
H19 H 0.8835 0.0195 0.5472
H20 H 0.7569 -0.0103 0.5646
C16 C 0.7865(3) 0.1358(2) 0.5869(2)
H21 H 0.8496 0.1780 0.5730
H22 H 0.7111 0.1639 0.5405
C17 C 0.7912(2) 0.1308(2) 0.7358(2)
H23 H 0.7329 0.0842 0.7505
H24 H 0.7695 0.1932 0.7657
loop_
_geom_bond_atom_site_label_1
_geom_bond_atom_site_label_2
_geom_bond_site_symmetry_1
_geom_bond_site_symmetry_2
Cl1 C17 1_555 1_555
O1 C8 1_555 1_555
O2 C1 1_555 1_555
O3 C10 1_555 1_555
N1 C2 1_555 1_555
C1 C2 1_555 1_555
C2 C3 1_555 1_555
C3 H1 1_555 1_555
H2 C3 1_555 1_555
C4 C3 1_555 1_555
H3 C4 1_555 1_555
C5 C4 1_555 1_555
H4 C5 1_555 1_555
H5 C5 1_555 1_555
C6 C1 1_555 1_555
H6 C6 1_555 1_555
C7 C6 1_555 1_555
H7 C7 1_555 1_555
H8 C7 1_555 1_555
C8 C7 1_555 1_555
C9 C2 1_555 1_555
H9 C9 1_555 1_555
C10 O2 1_555 1_555
C11 C4 1_555 1_555
H10 C11 1_555 1_555
H11 C11 1_555 1_555
H12 C11 1_555 1_555
C12 C1 1_555 1_555
H13 C12 1_555 1_555
H14 C12 1_555 1_555
C13 C12 1_555 1_555
H15 C13 1_555 1_555
H16 C13 1_555 1_555
C14 N1 1_555 1_555
H17 C14 1_555 1_555
H18 C14 1_555 1_555
C15 N1 1_555 1_555
H19 C15 1_555 1_555
H20 C15 1_555 1_555
C16 C15 1_555 1_555
H21 C16 1_555 1_555
H22 C16 1_555 1_555
C17 C16 1_555 1_555
H23 C17 1_555 1_555
H24 C17 1_555 1_555
C5 C6 1_555 1_555
C8 C9 1_555 1_555
C9 C10 1_555 1_555
C13 C14 1_555 1_555

#END
