
#######################################################################
#
#                 Cambridge Crystallographic Data Centre
#                                CCDC 
#
#######################################################################
#
# If this CIF has been generated from an entry in the Cambridge 
# Structural Database, then it will include bibliographic, chemical, 
# crystal, experimental, refinement or atomic coordinate data resulting 
# from the CCDC's data processing and validation procedures.
#
#######################################################################

data_KAZDUN
_chemical_formula_moiety         'C16 H27 N1 O3'
_chemical_name_systematic        
4a-hydroxy-1-(3-hydroxypropyl)-10-methylhexahydro-1H-5,8a-propanoquinolin-7(8H)-one
_symmetry_cell_setting           monoclinic
_symmetry_space_group_name_H-M   'P 21/n'
_symmetry_Int_Tables_number      14
_space_group_name_Hall           '-P 2yn'
loop_
_symmetry_equiv_pos_site_id
_symmetry_equiv_pos_as_xyz
1 x,y,z
2 1/2-x,1/2+y,1/2-z
3 -x,-y,-z
4 1/2+x,1/2-y,1/2+z
_cell_length_a                   12.4770(9)
_cell_length_b                   8.3561(3)
_cell_length_c                   15.4163(8)
_cell_angle_alpha                90
_cell_angle_beta                 106.701(7)
_cell_angle_gamma                90
_cell_volume                     1539.49
_exptl_crystal_colour            'light colorless'
_exptl_crystal_description       block
_chemical_melting_point          '418-421 K'
_cell_formula_units_Z            4
_exptl_crystal_recrystallization_method 'dichloromethane / n-Hexane'
loop_
_atom_site_label
_atom_site_type_symbol
_atom_site_fract_x
_atom_site_fract_y
_atom_site_fract_z
O1 O 0.60309(13) 0.64706(17) 0.04056(11)
O2 O 0.32357(12) 0.82403(15) 0.23777(8)
H1 H 0.3244 0.7725 0.2832
O3 O 0.14693(14) 1.13784(18) 0.10418(10)
H2 H 0.1800 1.0519 0.1107
N1 N 0.24920(12) 0.88052(16) 0.04740(9)
C1 C 0.36621(15) 0.83405(19) 0.09688(11)
C2 C 0.43331(15) 0.98614(19) 0.13483(12)
H3 H 0.4364 1.0539 0.0845
H4 H 0.3937 1.0446 0.1705
C3 C 0.55233(16) 0.9545(2) 0.19349(13)
H5 H 0.5956 0.9154 0.1539
C4 C 0.55626(18) 0.8270(3) 0.26456(14)
H6 H 0.5295 0.8729 0.3123
H7 H 0.6334 0.7949 0.2913
C5 C 0.48643(18) 0.6779(2) 0.22736(13)
H8 H 0.4847 0.6107 0.2791
C6 C 0.36498(16) 0.7268(2) 0.17817(12)
C7 C 0.28658(18) 0.5850(2) 0.14999(15)
H9 H 0.3125 0.5166 0.1093
H10 H 0.2861 0.5227 0.2030
C8 C 0.16965(18) 0.6437(2) 0.10312(16)
H11 H 0.1200 0.5531 0.0834
H12 H 0.1418 0.7065 0.1450
C9 C 0.17155(17) 0.7445(2) 0.02268(14)
H13 H 0.1933 0.6782 -0.0211
H14 H 0.0968 0.7846 -0.0059
C10 C 0.42279(16) 0.7447(2) 0.03409(12)
H15 H 0.3695 0.6680 -0.0012
H16 H 0.4375 0.8219 -0.0081
C11 C 0.52935(18) 0.6576(2) 0.07734(15)
C12 C 0.53797(18) 0.5789(3) 0.16609(15)
H17 H 0.6163 0.5599 0.1973
H18 H 0.5008 0.4759 0.1550
C13 C 0.6063(2) 1.1094(3) 0.23709(16)
H19 H 0.6092 1.1846 0.1907
H20 H 0.6809 1.0877 0.2744
H21 H 0.5630 1.1536 0.2736
C14 C 0.23878(16) 0.9782(2) -0.03445(11)
H22 H 0.2289 0.9080 -0.0863
H23 H 0.3073 1.0383 -0.0271
C15 C 0.14099(18) 1.0933(2) -0.05235(13)
H24 H 0.1349 1.1505 -0.1083
H25 H 0.0724 1.0331 -0.0599
C16 C 0.15358(19) 1.2115(2) 0.02290(15)
H26 H 0.2252 1.2651 0.0341
H27 H 0.0953 1.2919 0.0046
loop_
_geom_bond_atom_site_label_1
_geom_bond_atom_site_label_2
_geom_bond_site_symmetry_1
_geom_bond_site_symmetry_2
O1 C11 1_555 1_555
O2 H1 1_555 1_555
O3 H2 1_555 1_555
N1 C1 1_555 1_555
C1 C2 1_555 1_555
C2 H3 1_555 1_555
H4 C2 1_555 1_555
C3 C2 1_555 1_555
H5 C3 1_555 1_555
C4 C3 1_555 1_555
H6 C4 1_555 1_555
H7 C4 1_555 1_555
C5 C4 1_555 1_555
H8 C5 1_555 1_555
C6 O2 1_555 1_555
C7 C6 1_555 1_555
H9 C7 1_555 1_555
H10 C7 1_555 1_555
C8 C7 1_555 1_555
H11 C8 1_555 1_555
H12 C8 1_555 1_555
C9 N1 1_555 1_555
H13 C9 1_555 1_555
H14 C9 1_555 1_555
C10 C1 1_555 1_555
H15 C10 1_555 1_555
H16 C10 1_555 1_555
C11 C10 1_555 1_555
C12 C5 1_555 1_555
H17 C12 1_555 1_555
H18 C12 1_555 1_555
C13 C3 1_555 1_555
H19 C13 1_555 1_555
H20 C13 1_555 1_555
H21 C13 1_555 1_555
C14 N1 1_555 1_555
H22 C14 1_555 1_555
H23 C14 1_555 1_555
C15 C14 1_555 1_555
H24 C15 1_555 1_555
H25 C15 1_555 1_555
C16 O3 1_555 1_555
H26 C16 1_555 1_555
H27 C16 1_555 1_555
C1 C6 1_555 1_555
C5 C6 1_555 1_555
C8 C9 1_555 1_555
C11 C12 1_555 1_555
C15 C16 1_555 1_555

#END
