
#######################################################################
#
#                 Cambridge Crystallographic Data Centre
#                                CCDC 
#
#######################################################################
#
# If this CIF has been generated from an entry in the Cambridge 
# Structural Database, then it will include bibliographic, chemical, 
# crystal, experimental, refinement or atomic coordinate data resulting 
# from the CCDC's data processing and validation procedures.
#
#######################################################################

data_KAZDIB
_chemical_formula_moiety         'C13 H24 O3,H2 O1'
_chemical_name_systematic        
'9-(3-hydroxypropyl)-7-methylbicyclo[3.3.1]nonane-3,9-diol monohydrate'
_symmetry_cell_setting           trigonal
_symmetry_space_group_name_H-M   'P -3'
_symmetry_Int_Tables_number      147
_space_group_name_Hall           '-P 3'
loop_
_symmetry_equiv_pos_site_id
_symmetry_equiv_pos_as_xyz
1 x,y,z
2 -y,x-y,z
3 -x+y,-x,z
4 -x,-y,-z
5 y,-x+y,-z
6 x-y,x,-z
_cell_length_a                   19.4673(6)
_cell_length_b                   19.4673(6)
_cell_length_c                   6.5368(3)
_cell_angle_alpha                90
_cell_angle_beta                 90
_cell_angle_gamma                120
_cell_volume                     2145.4
_exptl_crystal_colour            'light colorless'
_exptl_crystal_description       block
_chemical_melting_point          '446-449 K'
_cell_formula_units_Z            6
_exptl_crystal_recrystallization_method dichloromethane/methanol
loop_
_atom_site_label
_atom_site_type_symbol
_atom_site_fract_x
_atom_site_fract_y
_atom_site_fract_z
O1 O 0.07634(19) 0.4085(2) 0.3219(5)
H1 H 0.0371 0.3844 0.3947
O2 O 0.34237(17) 0.36917(19) 0.3446(4)
H2 H 0.3707 0.3861 0.2430
C1 C 0.1595(2) 0.3705(3) 0.5119(6)
H3 H 0.1847 0.4249 0.5598
H4 H 0.1199 0.3377 0.6124
C2 C 0.1769(3) 0.3994(3) 0.1307(6)
H5 H 0.2025 0.4568 0.1356
H6 H 0.1478 0.3821 0.0030
C3 C 0.1177(3) 0.3647(3) 0.3092(6)
H7 H 0.0795 0.3089 0.2805
C4 C 0.2418(3) 0.3755(3) 0.1312(6)
H8 H 0.2813 0.4078 0.0277
C5 C 0.2218(2) 0.3451(2) 0.5003(5)
H9 H 0.2481 0.3558 0.6338
O3 O 0.4401(3) 0.6271(3) 0.8101(10)
H10 H 0.4523 0.5967 0.8643
C6 C 0.1391(3) 0.1449(3) 0.1957(10)
H11 H 0.1886 0.1455 0.1848
H12 H 0.1103 0.1262 0.0696
H13 H 0.1083 0.1103 0.3052
C7 C 0.1875(3) 0.2559(3) 0.4532(6)
H14 H 0.2288 0.2428 0.4762
H15 H 0.1452 0.2255 0.5500
C8 C 0.2845(2) 0.3954(2) 0.3421(6)
C9 C 0.1552(3) 0.2297(3) 0.2398(7)
H16 H 0.1045 0.2288 0.2311
C10 C 0.4096(4) 0.5991(3) 0.6148(11)
H17 H 0.4532 0.6206 0.5181
H18 H 0.3746 0.6192 0.5777
C11 C 0.3277(3) 0.4845(3) 0.3848(7)
H19 H 0.3691 0.5108 0.2831
H20 H 0.2903 0.5032 0.3661
C12 C 0.2109(3) 0.2882(3) 0.0781(7)
H21 H 0.2559 0.2802 0.0605
H22 H 0.1830 0.2765 -0.0515
C13 C 0.3646(3) 0.5102(3) 0.5936(8)
H23 H 0.3233 0.4877 0.6967
H24 H 0.4004 0.4899 0.6171
O4 O 0.0376(2) 0.4567(2) -0.0365(6)
H25 H 0.05(2) 0.422(12) -0.09(2)
H26 H 0.028(8) 0.453(8) 0.093(4)
loop_
_geom_bond_atom_site_label_1
_geom_bond_atom_site_label_2
_geom_bond_site_symmetry_1
_geom_bond_site_symmetry_2
O1 H1 1_555 1_555
O2 H2 1_555 1_555
C1 H3 1_555 1_555
H4 C1 1_555 1_555
C2 H5 1_555 1_555
H6 C2 1_555 1_555
C3 O1 1_555 1_555
H7 C3 1_555 1_555
C4 C2 1_555 1_555
H8 C4 1_555 1_555
C5 C1 1_555 1_555
H9 C5 1_555 1_555
O3 H10 1_555 1_555
C6 H11 1_555 1_555
H12 C6 1_555 1_555
H13 C6 1_555 1_555
C7 C5 1_555 1_555
H14 C7 1_555 1_555
H15 C7 1_555 1_555
C8 O2 1_555 1_555
C9 C6 1_555 1_555
H16 C9 1_555 1_555
C10 O3 1_555 1_555
H17 C10 1_555 1_555
H18 C10 1_555 1_555
C11 C8 1_555 1_555
H19 C11 1_555 1_555
H20 C11 1_555 1_555
C12 C4 1_555 1_555
H21 C12 1_555 1_555
H22 C12 1_555 1_555
C13 C10 1_555 1_555
H23 C13 1_555 1_555
H24 C13 1_555 1_555
O4 H25 1_555 1_555
H26 O4 1_555 1_555
C1 C3 1_555 1_555
C2 C3 1_555 1_555
C4 C8 1_555 1_555
C5 C8 1_555 1_555
C7 C9 1_555 1_555
C9 C12 1_555 1_555
C11 C13 1_555 1_555

#END
