
#######################################################################
#
#                 Cambridge Crystallographic Data Centre
#                                CCDC 
#
#######################################################################
#
# If this CIF has been generated from an entry in the Cambridge 
# Structural Database, then it will include bibliographic, chemical, 
# crystal, experimental, refinement or atomic coordinate data resulting 
# from the CCDC's data processing and validation procedures.
#
#######################################################################

data_KAZDEV
_chemical_name_common            bis(12-Crown-4)stilbene
_chemical_formula_moiety         'C26 H32 O8'
_chemical_name_systematic        
12-((E)-2-(2,3,5,6,8,9-Hexahydro-1,4,7,10-tetraoxabenzocyclododecen-12-yl)-1-ethenyl)-2,3,5,6,8,9-hexahydro-1,4,7,10-tetraoxabenzocyclododecene
_symmetry_cell_setting           monoclinic
_symmetry_space_group_name_H-M   'P 21/c'
_symmetry_Int_Tables_number      14
_space_group_name_Hall           '-P 2ybc'
loop_
_symmetry_equiv_pos_site_id
_symmetry_equiv_pos_as_xyz
1 x,y,z
2 -x,1/2+y,1/2-z
3 -x,-y,-z
4 x,1/2-y,1/2+z
_cell_length_a                   10.0733(6)
_cell_length_b                   7.2364(4)
_cell_length_c                   16.1510(8)
_cell_angle_alpha                90
_cell_angle_beta                 97.464(2)
_cell_angle_gamma                90
_cell_volume                     1167.34
_chemical_melting_point          183-185deg.C
_cell_formula_units_Z            2
_exptl_crystal_recrystallization_method hexane/dichloromethane
loop_
_atom_site_label
_atom_site_type_symbol
_atom_site_fract_x
_atom_site_fract_y
_atom_site_fract_z
O1 O 0.76583(9) 0.08711(13) 0.18614(5)
O2 O 0.83042(8) -0.16821(12) 0.29788(5)
O3 O 0.80189(9) -0.43584(13) 0.16397(5)
O4 O 0.78065(10) -0.12552(13) 0.04044(6)
C1 C 0.48976(12) 0.06000(17) 0.46816(7)
C2 C 0.56266(11) 0.06584(16) 0.39549(7)
C3 C 0.52908(12) 0.20114(17) 0.33478(7)
C4 C 0.59487(13) 0.21360(17) 0.26428(8)
C5 C 0.69541(12) 0.08857(16) 0.25312(7)
C6 C 0.73018(11) -0.04950(16) 0.31334(7)
C7 C 0.66509(11) -0.06046(16) 0.38336(7)
C8 C 0.69535(14) 0.14330(18) 0.10711(7)
C9 C 0.77493(15) 0.07137(18) 0.04108(8)
C10 C 0.90126(14) -0.2001(2) 0.08430(9)
C11 C 0.88278(14) -0.40415(19) 0.09942(8)
C12 C 0.87550(13) -0.46309(17) 0.24464(7)
C13 C 0.80746(13) -0.36185(17) 0.30881(8)
H1 H 0.7135(17) -0.387(2) 0.3020(10)
H2 H 0.8472(16) -0.398(2) 0.3639(10)
H3 H 0.9692(15) -0.418(2) 0.2465(9)
H4 H 0.8769(16) -0.602(2) 0.2569(10)
H5 H 0.8375(16) -0.466(2) 0.0482(11)
H6 H 0.9727(17) -0.461(2) 0.1118(10)
H7 H 0.9241(17) -0.139(2) 0.1384(11)
H8 H 0.9740(18) -0.187(3) 0.0507(11)
H9 H 0.7304(16) 0.114(2) -0.0132(10)
H10 H 0.8651(16) 0.118(2) 0.0540(9)
H11 H 0.6883(15) 0.277(2) 0.1038(9)
H12 H 0.6026(16) 0.087(2) 0.0987(9)
H13 H 0.6901(17) -0.155(2) 0.4212(10)
H14 H 0.4605(16) 0.290(2) 0.3421(10)
H15 H 0.5682(17) 0.310(2) 0.2232(11)
H16 H 0.4221(18) 0.151(2) 0.4667(10)
O1B O 0.23417(9) -0.08711(13) 0.81386(5)
O2B O 0.16958(8) 0.16821(12) 0.70212(5)
O3B O 0.19811(9) 0.43584(13) 0.83603(5)
O4B O 0.21935(10) 0.12552(13) 0.95956(6)
C1B C 0.51024(12) -0.06000(17) 0.53184(7)
C2B C 0.43734(11) -0.06584(16) 0.60451(7)
C3B C 0.47092(12) -0.20114(17) 0.66522(7)
C4B C 0.40513(13) -0.21360(17) 0.73572(8)
C5B C 0.30459(12) -0.08857(16) 0.74688(7)
C6B C 0.26982(11) 0.04950(16) 0.68666(7)
C7B C 0.33491(11) 0.06046(16) 0.61664(7)
C8B C 0.30465(14) -0.14330(18) 0.89289(7)
C9B C 0.22507(15) -0.07137(18) 0.95892(8)
C10B C 0.09874(14) 0.2001(2) 0.91570(9)
C11B C 0.11722(14) 0.40415(19) 0.90058(8)
C12B C 0.12450(13) 0.46309(17) 0.75536(7)
C13B C 0.19254(13) 0.36185(17) 0.69119(8)
H1B H 0.2865(17) 0.387(2) 0.6980(10)
H2B H 0.1528(16) 0.398(2) 0.6361(10)
H3B H 0.0308(15) 0.418(2) 0.7535(9)
H4B H 0.1231(16) 0.602(2) 0.7431(10)
H5B H 0.1625(16) 0.466(2) 0.9518(11)
H6B H 0.0273(17) 0.461(2) 0.8882(10)
H7B H 0.0759(17) 0.139(2) 0.8616(11)
H8B H 0.0260(18) 0.187(3) 0.9493(11)
H9B H 0.2696(16) -0.114(2) 1.0132(10)
H10B H 0.1349(16) -0.118(2) 0.9460(9)
H11B H 0.3117(15) -0.277(2) 0.8962(9)
H12B H 0.3974(16) -0.087(2) 0.9013(9)
H13B H 0.3099(17) 0.155(2) 0.5788(10)
H14B H 0.5395(16) -0.290(2) 0.6579(10)
H15B H 0.4318(17) -0.310(2) 0.7768(11)
H16B H 0.5779(18) -0.151(2) 0.5333(10)
loop_
_geom_bond_atom_site_label_1
_geom_bond_atom_site_label_2
_geom_bond_site_symmetry_1
_geom_bond_site_symmetry_2
O1 C5 1_555 1_555
O2 C6 1_555 1_555
O3 C11 1_555 1_555
O4 C9 1_555 1_555
C1 C2 1_555 1_555
C2 C3 1_555 1_555
C3 C4 1_555 1_555
C4 C5 1_555 1_555
C5 C6 1_555 1_555
C6 C7 1_555 1_555
C7 C2 1_555 1_555
C8 O1 1_555 1_555
C9 C8 1_555 1_555
C10 O4 1_555 1_555
C11 C10 1_555 1_555
C12 O3 1_555 1_555
C13 O2 1_555 1_555
H1 C13 1_555 1_555
H2 C13 1_555 1_555
H3 C12 1_555 1_555
H4 C12 1_555 1_555
H5 C11 1_555 1_555
H6 C11 1_555 1_555
H7 C10 1_555 1_555
H8 C10 1_555 1_555
H9 C9 1_555 1_555
H10 C9 1_555 1_555
H11 C8 1_555 1_555
H12 C8 1_555 1_555
H13 C7 1_555 1_555
H14 C3 1_555 1_555
H15 C4 1_555 1_555
H16 C1 1_555 1_555
O1B C5B 1_555 1_555
O2B C6B 1_555 1_555
O3B C11B 1_555 1_555
O4B C9B 1_555 1_555
C1B C1 1_555 1_555
C2B C1B 1_555 1_555
C3B C2B 1_555 1_555
C4B C3B 1_555 1_555
C5B C4B 1_555 1_555
C6B C5B 1_555 1_555
C7B C2B 1_555 1_555
C8B O1B 1_555 1_555
C9B C8B 1_555 1_555
C10B O4B 1_555 1_555
C11B C10B 1_555 1_555
C12B O3B 1_555 1_555
C13B O2B 1_555 1_555
H1B C13B 1_555 1_555
H2B C13B 1_555 1_555
H3B C12B 1_555 1_555
H4B C12B 1_555 1_555
H5B C11B 1_555 1_555
H6B C11B 1_555 1_555
H7B C10B 1_555 1_555
H8B C10B 1_555 1_555
H9B C9B 1_555 1_555
H10B C9B 1_555 1_555
H11B C8B 1_555 1_555
H12B C8B 1_555 1_555
H13B C7B 1_555 1_555
H14B C3B 1_555 1_555
H15B C4B 1_555 1_555
H16B C1B 1_555 1_555
C12 C13 1_555 1_555
C6B C7B 1_555 1_555
C12B C13B 1_555 1_555

#END
