
#######################################################################
#
#                 Cambridge Crystallographic Data Centre
#                                CCDC 
#
#######################################################################
#
# If this CIF has been generated from an entry in the Cambridge 
# Structural Database, then it will include bibliographic, chemical, 
# crystal, experimental, refinement or atomic coordinate data resulting 
# from the CCDC's data processing and validation procedures.
#
#######################################################################

data_KAZFUP
_chemical_formula_moiety         'C48 H42 N3 O18 P3'
_chemical_name_systematic        
"hexamethyl 4,4',4'',4''',4'''',4'''''-[1,3,5,2,4,6-triazatriphosphinine-2,2,4,4,6,6-hexaylhexakis(oxy)]hexabenzoate"
_symmetry_cell_setting           triclinic
_symmetry_space_group_name_H-M   'P -1'
_symmetry_Int_Tables_number      2
_space_group_name_Hall           '-P 1'
loop_
_symmetry_equiv_pos_site_id
_symmetry_equiv_pos_as_xyz
1 x,y,z
2 -x,-y,-z
_cell_length_a                   11.4012(4)
_cell_length_b                   13.8443(5)
_cell_length_c                   17.0264(8)
_cell_angle_alpha                99.134(3)
_cell_angle_beta                 95.917(3)
_cell_angle_gamma                103.941(3)
_cell_volume                     2547.07
_exptl_crystal_colour            colorless
_cell_formula_units_Z            2
loop_
_atom_site_label
_atom_site_type_symbol
_atom_site_fract_x
_atom_site_fract_y
_atom_site_fract_z
C1 C 0.8359(3) 0.6168(2) 0.10677(19)
C2 C 0.8017(5) 0.6546(3) 0.1773(3)
H1 H 0.7986 0.7218 0.1886
C3 C 0.7718(5) 0.5920(4) 0.2314(3)
H2 H 0.7484 0.6174 0.2795
C4 C 0.7758(4) 0.4932(3) 0.2158(3)
C5 C 0.8101(6) 0.4568(3) 0.1449(3)
H3 H 0.8140 0.3898 0.1337
C6 C 0.8392(5) 0.5189(3) 0.0895(3)
H4 H 0.8607 0.4932 0.0408
C7 C 0.7458(6) 0.4277(5) 0.2764(4)
C8 C 0.7271(8) 0.2647(5) 0.3072(5)
H5 H 0.7212 0.1970 0.2802
H6 H 0.6515 0.2672 0.3266
H7 H 0.7923 0.2843 0.3517
C9 C 0.8940(3) 0.7251(2) -0.12018(17)
C10 C 0.8708(4) 0.6214(3) -0.1324(2)
H8 H 0.8485 0.5864 -0.0916
C11 C 0.8814(5) 0.5699(3) -0.2073(2)
H9 H 0.8652 0.4996 -0.2170
C12 C 0.9155(4) 0.6220(3) -0.2668(2)
C13 C 0.9382(4) 0.7255(3) -0.2527(2)
H10 H 0.9607 0.7607 -0.2933
C14 C 0.9282(4) 0.7780(3) -0.1791(2)
H11 H 0.9445 0.8484 -0.1695
C15 C 0.9305(7) 0.5705(4) -0.3476(3)
C16 C 0.9187(9) 0.4122(6) -0.4322(4)
H12 H 0.9199 0.4590 -0.4646
H13 H 0.8492 0.3557 -0.4450
H14 H 0.9920 0.3836 -0.4381
C17 C 0.8042(3) 0.9714(2) 0.26749(17)
C18 C 0.9268(3) 0.9832(3) 0.2737(2)
H15 H 0.9599 0.9525 0.2320
C19 C 1.0025(4) 1.0417(3) 0.3428(2)
H16 H 1.0867 1.0514 0.3473
C20 C 0.9508(4) 1.0853(3) 0.4051(2)
C21 C 0.8279(4) 1.0716(3) 0.3971(2)
H17 H 0.7940 1.1017 0.4387
C22 C 0.7527(4) 1.0146(3) 0.3292(2)
H18 H 0.6685 1.0052 0.3248
C23 C 1.0275(5) 1.1485(4) 0.4813(3)
C24 C 1.2295(7) 1.2371(7) 0.5482(4)
H19 H 1.3126 1.2378 0.5426
H20 H 1.2090 1.2113 0.5956
H21 H 1.2202 1.3048 0.5529
C25 C 0.7969(3) 1.0760(2) 0.04436(18)
C26 C 0.7774(3) 1.1707(2) 0.0538(2)
H22 H 0.7537 1.1983 0.1011
C27 C 0.7933(3) 1.2244(2) -0.0070(2)
H23 H 0.7801 1.2888 -0.0006
C28 C 0.8281(3) 1.1854(3) -0.0771(2)
C29 C 0.8469(3) 1.0887(3) -0.0863(2)
H24 H 0.8695 1.0609 -0.1340
C30 C 0.8322(3) 1.0334(2) -0.0248(2)
H25 H 0.8460 0.9693 -0.0305
C31 C 0.8456(4) 1.2499(3) -0.1411(3)
C32 C 0.8839(7) 1.2588(5) -0.2720(3)
H26 H 0.9126 1.2234 -0.3161
H27 H 0.9409 1.3236 -0.2518
H28 H 0.8056 1.2683 -0.2902
C33 C 0.5371(3) 0.8246(2) -0.12920(19)
C34 C 0.6005(4) 0.7933(3) -0.1888(2)
H29 H 0.6208 0.7318 -0.1920
C35 C 0.6331(4) 0.8545(3) -0.2430(2)
H30 H 0.6774 0.8350 -0.2827
C36 C 0.6008(3) 0.9452(2) -0.2394(2)
C37 C 0.5407(3) 0.9764(2) -0.1778(2)
H31 H 0.5207 1.0380 -0.1742
C38 C 0.5102(3) 0.9169(2) -0.1216(2)
H32 H 0.4718 0.9389 -0.0792
C39 C 0.6214(4) 1.0076(3) -0.3021(3)
C40 C 0.6989(7) 1.0189(6) -0.4250(4)
H33 H 0.6492 0.9724 -0.4710
H34 H 0.7827 1.0350 -0.4338
H35 H 0.6719 1.0798 -0.4168
C41 C 0.4629(3) 0.6495(2) 0.1052(2)
C42 C 0.4727(4) 0.7170(2) 0.1749(2)
H36 H 0.4812 0.7854 0.1743
C43 C 0.4698(4) 0.6821(3) 0.2460(3)
H37 H 0.4778 0.7277 0.2939
C44 C 0.4553(4) 0.5804(3) 0.2475(3)
C45 C 0.4436(5) 0.5145(3) 0.1758(3)
H38 H 0.4327 0.4458 0.1759
C46 C 0.4477(4) 0.5485(2) 0.1038(2)
H39 H 0.4402 0.5036 0.0556
C47 C 0.4519(6) 0.5466(4) 0.3263(3)
C48 C 0.4132(10) 0.4064(5) 0.3942(4)
H40 H 0.3850 0.3338 0.3812
H41 H 0.3574 0.4330 0.4242
H42 H 0.4928 0.4259 0.4258
N1 N 0.8413(2) 0.85679(17) 0.08693(14)
N2 N 0.6062(2) 0.86386(17) 0.05940(15)
N3 N 0.6736(2) 0.70238(16) -0.01228(15)
O1 O 0.87654(19) 0.67662(15) 0.05182(13)
O2 O 0.7203(6) 0.4592(4) 0.3418(3)
O3 O 0.7516(4) 0.3338(3) 0.2515(3)
O4 O 0.89006(19) 0.78510(14) -0.04713(12)
O5 O 0.9558(5) 0.6131(3) -0.4018(2)
O6 O 0.9121(7) 0.4724(3) -0.3521(2)
O7 O 0.72241(19) 0.91374(15) 0.20060(12)
O8 O 0.9856(4) 1.1792(3) 0.53921(19)
O9 O 1.1461(4) 1.1706(3) 0.4758(2)
O10 O 0.78245(19) 1.02854(13) 0.11051(12)
O11 O 0.8401(3) 1.3358(2) -0.1305(2)
O12 O 0.8724(3) 1.1990(3) -0.20758(19)
O13 O 0.49148(19) 0.75886(16) -0.07913(14)
O14 O 0.5805(3) 1.0779(3) -0.3076(2)
O15 O 0.6883(3) 0.9731(3) -0.35497(19)
O16 O 0.45734(19) 0.68050(16) 0.03086(14)
O17 O 0.4720(6) 0.6033(3) 0.3903(2)
O18 O 0.4200(4) 0.4473(3) 0.3187(2)
P1 P 0.81205(6) 0.75616(5) 0.02155(4)
P2 P 0.73803(6) 0.90996(5) 0.10884(4)
P3 P 0.56765(6) 0.75527(5) 0.00331(5)
loop_
_geom_bond_atom_site_label_1
_geom_bond_atom_site_label_2
_geom_bond_site_symmetry_1
_geom_bond_site_symmetry_2
C1 C2 1_555 1_555
C2 H1 1_555 1_555
C3 C2 1_555 1_555
H2 C3 1_555 1_555
C4 C3 1_555 1_555
C5 C4 1_555 1_555
H3 C5 1_555 1_555
C6 C1 1_555 1_555
H4 C6 1_555 1_555
C7 C4 1_555 1_555
C8 H5 1_555 1_555
H6 C8 1_555 1_555
H7 C8 1_555 1_555
C9 C10 1_555 1_555
C10 H8 1_555 1_555
C11 C10 1_555 1_555
H9 C11 1_555 1_555
C12 C11 1_555 1_555
C13 C12 1_555 1_555
H10 C13 1_555 1_555
C14 C9 1_555 1_555
H11 C14 1_555 1_555
C15 C12 1_555 1_555
C16 H12 1_555 1_555
H13 C16 1_555 1_555
H14 C16 1_555 1_555
C17 C18 1_555 1_555
C18 H15 1_555 1_555
C19 C18 1_555 1_555
H16 C19 1_555 1_555
C20 C19 1_555 1_555
C21 C20 1_555 1_555
H17 C21 1_555 1_555
C22 C17 1_555 1_555
H18 C22 1_555 1_555
C23 C20 1_555 1_555
C24 H19 1_555 1_555
H20 C24 1_555 1_555
H21 C24 1_555 1_555
C25 C26 1_555 1_555
C26 H22 1_555 1_555
C27 C26 1_555 1_555
H23 C27 1_555 1_555
C28 C27 1_555 1_555
C29 C28 1_555 1_555
H24 C29 1_555 1_555
C30 C25 1_555 1_555
H25 C30 1_555 1_555
C31 C28 1_555 1_555
C32 H26 1_555 1_555
H27 C32 1_555 1_555
H28 C32 1_555 1_555
C33 C34 1_555 1_555
C34 H29 1_555 1_555
C35 C34 1_555 1_555
H30 C35 1_555 1_555
C36 C35 1_555 1_555
C37 C36 1_555 1_555
H31 C37 1_555 1_555
C38 C33 1_555 1_555
H32 C38 1_555 1_555
C39 C36 1_555 1_555
C40 H33 1_555 1_555
H34 C40 1_555 1_555
H35 C40 1_555 1_555
C41 C42 1_555 1_555
C42 H36 1_555 1_555
C43 C42 1_555 1_555
H37 C43 1_555 1_555
C44 C43 1_555 1_555
C45 C44 1_555 1_555
H38 C45 1_555 1_555
C46 C41 1_555 1_555
H39 C46 1_555 1_555
C47 C44 1_555 1_555
C48 H40 1_555 1_555
H41 C48 1_555 1_555
H42 C48 1_555 1_555
N1 P1 1_555 1_555
N2 P2 1_555 1_555
N3 P1 1_555 1_555
O1 C1 1_555 1_555
O2 C7 1_555 1_555
O3 C7 1_555 1_555
O4 C9 1_555 1_555
O5 C15 1_555 1_555
O6 C15 1_555 1_555
O7 C17 1_555 1_555
O8 C23 1_555 1_555
O9 C23 1_555 1_555
O10 C25 1_555 1_555
O11 C31 1_555 1_555
O12 C31 1_555 1_555
O13 C33 1_555 1_555
O14 C39 1_555 1_555
O15 C39 1_555 1_555
O16 C41 1_555 1_555
O17 C47 1_555 1_555
O18 C47 1_555 1_555
P1 O1 1_555 1_555
P2 N1 1_555 1_555
P3 N2 1_555 1_555
C5 C6 1_555 1_555
C8 O3 1_555 1_555
C13 C14 1_555 1_555
C16 O6 1_555 1_555
C21 C22 1_555 1_555
C24 O9 1_555 1_555
C29 C30 1_555 1_555
C32 O12 1_555 1_555
C37 C38 1_555 1_555
C40 O15 1_555 1_555
C45 C46 1_555 1_555
C48 O18 1_555 1_555
N3 P3 1_555 1_555
O4 P1 1_555 1_555
O7 P2 1_555 1_555
O10 P2 1_555 1_555
O13 P3 1_555 1_555
O16 P3 1_555 1_555

#END
