
#######################################################################
#
#                 Cambridge Crystallographic Data Centre
#                                CCDC 
#
#######################################################################
#
# If this CIF has been generated from an entry in the Cambridge 
# Structural Database, then it will include bibliographic, chemical, 
# crystal, experimental, refinement or atomic coordinate data resulting 
# from the CCDC's data processing and validation procedures.
#
#######################################################################

data_KAZFAV
_chemical_name_common            (+-)-Lycodoline
_chemical_formula_moiety         'C16 H25 N1 O2'
_chemical_name_systematic        12-hydroxy-15-methyllycopodan-5-one
_symmetry_cell_setting           monoclinic
_symmetry_space_group_name_H-M   'P 21/n'
_symmetry_Int_Tables_number      14
_space_group_name_Hall           '-P 2yn'
loop_
_symmetry_equiv_pos_site_id
_symmetry_equiv_pos_as_xyz
1 x,y,z
2 1/2-x,1/2+y,1/2-z
3 -x,-y,-z
4 1/2+x,1/2-y,1/2+z
_cell_length_a                   10.8530(9)
_cell_length_b                   7.9767(5)
_cell_length_c                   16.4717(16)
_cell_angle_alpha                90
_cell_angle_beta                 107.414(10)
_cell_angle_gamma                90
_cell_volume                     1360.62
_exptl_crystal_colour            'dark yellow'
_exptl_crystal_description       block
_chemical_melting_point          '453-457 K'
_cell_formula_units_Z            4
_exptl_crystal_recrystallization_method dichloromethane
loop_
_atom_site_label
_atom_site_type_symbol
_atom_site_fract_x
_atom_site_fract_y
_atom_site_fract_z
O1 O 0.7270(2) 0.3485(3) 0.17046(18)
O2 O 0.2877(2) 0.3809(3) 0.26314(15)
H1 H 0.2624 0.2933 0.2788
N1 N 0.3269(2) 0.6350(3) 0.14946(17)
C1 C 0.5034(3) 0.5778(4) 0.2818(2)
H2 H 0.5481 0.6793 0.2743
H3 H 0.4424 0.6081 0.3119
C2 C 0.2313(3) 0.5702(5) 0.0716(2)
H4 H 0.2741 0.5513 0.0284
H5 H 0.1652 0.6545 0.0501
C3 C 0.1679(3) 0.4094(5) 0.0860(2)
H6 H 0.1105 0.3693 0.0324
H7 H 0.1167 0.4299 0.1243
C4 C 0.2695(3) 0.2775(4) 0.1240(2)
H8 H 0.3165 0.2507 0.0840
H9 H 0.2283 0.1760 0.1353
C5 C 0.3628(3) 0.3432(4) 0.2064(2)
C6 C 0.4275(3) 0.5096(4) 0.19309(19)
C7 C 0.5201(3) 0.4778(4) 0.1375(2)
H10 H 0.4639 0.4383 0.0825
C8 C 0.5807(3) 0.6367(4) 0.1176(2)
H11 H 0.6320 0.6112 0.0800
H12 H 0.6378 0.6832 0.1697
C9 C 0.4779(4) 0.7652(5) 0.0755(2)
H13 H 0.4301 0.7272 0.0189
H14 H 0.5187 0.8711 0.0700
C10 C 0.3850(3) 0.7902(4) 0.1286(2)
H15 H 0.4314 0.8456 0.1814
H16 H 0.3161 0.8645 0.0979
C11 C 0.6153(3) 0.3377(4) 0.1700(2)
C12 C 0.5594(3) 0.1822(4) 0.1966(2)
H17 H 0.6295 0.1113 0.2290
H18 H 0.5122 0.1207 0.1460
C13 C 0.4692(3) 0.2179(4) 0.2499(2)
H19 H 0.4277 0.1123 0.2572
C14 C 0.5453(3) 0.2821(5) 0.3383(2)
H20 H 0.4887 0.2843 0.3741
H21 H 0.6149 0.2044 0.3636
C15 C 0.6019(3) 0.4564(5) 0.3369(2)
H22 H 0.6736 0.4466 0.3125
C16 C 0.6559(4) 0.5252(6) 0.4271(2)
H23 H 0.6923 0.6343 0.4251
H24 H 0.7217 0.4512 0.4601
H25 H 0.5877 0.5335 0.4530
loop_
_geom_bond_atom_site_label_1
_geom_bond_atom_site_label_2
_geom_bond_site_symmetry_1
_geom_bond_site_symmetry_2
O1 C11 1_555 1_555
O2 H1 1_555 1_555
N1 C2 1_555 1_555
C1 H2 1_555 1_555
H3 C1 1_555 1_555
C2 H4 1_555 1_555
H5 C2 1_555 1_555
C3 C2 1_555 1_555
H6 C3 1_555 1_555
H7 C3 1_555 1_555
C4 C3 1_555 1_555
H8 C4 1_555 1_555
H9 C4 1_555 1_555
C5 O2 1_555 1_555
C6 N1 1_555 1_555
C7 C6 1_555 1_555
H10 C7 1_555 1_555
C8 C7 1_555 1_555
H11 C8 1_555 1_555
H12 C8 1_555 1_555
C9 C8 1_555 1_555
H13 C9 1_555 1_555
H14 C9 1_555 1_555
C10 N1 1_555 1_555
H15 C10 1_555 1_555
H16 C10 1_555 1_555
C11 C7 1_555 1_555
C12 C11 1_555 1_555
H17 C12 1_555 1_555
H18 C12 1_555 1_555
C13 C5 1_555 1_555
H19 C13 1_555 1_555
C14 C13 1_555 1_555
H20 C14 1_555 1_555
H21 C14 1_555 1_555
C15 C1 1_555 1_555
H22 C15 1_555 1_555
C16 C15 1_555 1_555
H23 C16 1_555 1_555
H24 C16 1_555 1_555
H25 C16 1_555 1_555
C1 C6 1_555 1_555
C4 C5 1_555 1_555
C5 C6 1_555 1_555
C9 C10 1_555 1_555
C12 C13 1_555 1_555
C14 C15 1_555 1_555

#END
