
#######################################################################
#
#                 Cambridge Crystallographic Data Centre
#                                CCDC 
#
#######################################################################
#
# If this CIF has been generated from an entry in the Cambridge 
# Structural Database, then it will include bibliographic, chemical, 
# crystal, experimental, refinement or atomic coordinate data resulting 
# from the CCDC's data processing and validation procedures.
#
#######################################################################

data_KAZFEZ
_chemical_name_common            'Lycojaponicumin D'
_chemical_formula_moiety         'C16 H23 N1 O3'
_chemical_name_systematic        
6a,10-dihydroxy-12-methyl-1,2,4,5,6,6a,7,8-octahydro-9H-7,10b-propanocyclohepta[hi]indolizin-9-one
_symmetry_cell_setting           triclinic
_symmetry_space_group_name_H-M   'P -1'
_symmetry_Int_Tables_number      2
_space_group_name_Hall           '-P 1'
loop_
_symmetry_equiv_pos_site_id
_symmetry_equiv_pos_as_xyz
1 x,y,z
2 -x,-y,-z
_cell_length_a                   8.499(3)
_cell_length_b                   9.1139(17)
_cell_length_c                   10.798(3)
_cell_angle_alpha                91.404(18)
_cell_angle_beta                 104.88(2)
_cell_angle_gamma                116.48(2)
_cell_volume                     714.148
_exptl_crystal_colour            'light colorless'
_exptl_crystal_description       block
_chemical_melting_point          '455-458 K'
_cell_formula_units_Z            2
_exptl_crystal_recrystallization_method 'dichloromethane/ acetone'
loop_
_atom_site_label
_atom_site_type_symbol
_atom_site_fract_x
_atom_site_fract_y
_atom_site_fract_z
O1 O 0.7013(3) 0.5507(3) -0.08339(19)
H1 H 0.6739 0.6113 -0.1291
O2 O 0.7489(4) 0.8454(3) -0.0415(2)
O3 O 1.0356(3) 0.7623(2) 0.48832(17)
H2 H 1.0234 0.6741 0.5121
N1 N 0.8803(3) 0.4425(2) 0.32866(19)
C1 C 0.9442(3) 0.6040(3) 0.2758(2)
C2 C 0.8372(3) 0.5491(3) 0.1328(2)
C3 C 0.7846(3) 0.6305(3) 0.0439(3)
C4 C 0.8037(4) 0.7989(4) 0.0593(3)
C5 C 0.8725(4) 0.9127(3) 0.1855(3)
H3 H 0.7640 0.9054 0.2046
H4 H 0.9381 1.0244 0.1680
C6 C 0.9953(4) 0.9008(3) 0.3124(3)
H5 H 0.9984 0.9773 0.3795
C7 C 0.9202(3) 0.7304(3) 0.3571(2)
C8 C 0.7213(4) 0.6631(3) 0.3582(3)
H6 H 0.7106 0.7432 0.4117
H7 H 0.6421 0.6453 0.2707
C9 C 0.6607(4) 0.5001(3) 0.4114(3)
H8 H 0.7318 0.5200 0.5018
H9 H 0.5317 0.4542 0.4069
C10 C 0.6881(3) 0.3780(3) 0.3341(3)
H10 H 0.6550 0.2773 0.3724
H11 H 0.6057 0.3493 0.2464
C11 C 0.8756(4) 0.3264(3) 0.2278(3)
H12 H 0.7932 0.2125 0.2320
H13 H 0.9977 0.3376 0.2392
C12 C 0.8055(4) 0.3748(3) 0.0969(3)
H14 H 0.8744 0.3724 0.0385
H15 H 0.6758 0.3002 0.0557
C13 C 1.1963(4) 0.9650(3) 0.3145(3)
H16 H 1.2358 1.0678 0.2790
H17 H 1.2728 0.9894 0.4039
C14 C 1.2256(3) 0.8420(3) 0.2376(3)
H18 H 1.1553 0.8256 0.1464
C15 C 1.1499(3) 0.6745(3) 0.2851(3)
H19 H 1.2204 0.6875 0.3746
H20 H 1.1654 0.5960 0.2335
C16 C 1.4272(4) 0.9054(3) 0.2448(3)
H21 H 1.5005 0.9315 0.3340
H22 H 1.4676 1.0034 0.2049
H23 H 1.4404 0.8213 0.2000
loop_
_geom_bond_atom_site_label_1
_geom_bond_atom_site_label_2
_geom_bond_site_symmetry_1
_geom_bond_site_symmetry_2
O1 H1 1_555 1_555
O2 C4 1_555 1_555
O3 H2 1_555 1_555
N1 C1 1_555 1_555
C1 C2 1_555 1_555
C2 C3 1_555 1_555
C3 O1 1_555 1_555
C4 C3 1_555 1_555
C5 C4 1_555 1_555
H3 C5 1_555 1_555
H4 C5 1_555 1_555
C6 C5 1_555 1_555
H5 C6 1_555 1_555
C7 O3 1_555 1_555
C8 C7 1_555 1_555
H6 C8 1_555 1_555
H7 C8 1_555 1_555
C9 C8 1_555 1_555
H8 C9 1_555 1_555
H9 C9 1_555 1_555
C10 N1 1_555 1_555
H10 C10 1_555 1_555
H11 C10 1_555 1_555
C11 N1 1_555 1_555
H12 C11 1_555 1_555
H13 C11 1_555 1_555
C12 C2 1_555 1_555
H14 C12 1_555 1_555
H15 C12 1_555 1_555
C13 C6 1_555 1_555
H16 C13 1_555 1_555
H17 C13 1_555 1_555
C14 C13 1_555 1_555
H18 C14 1_555 1_555
C15 C1 1_555 1_555
H19 C15 1_555 1_555
H20 C15 1_555 1_555
C16 C14 1_555 1_555
H21 C16 1_555 1_555
H22 C16 1_555 1_555
H23 C16 1_555 1_555
C1 C7 1_555 1_555
C6 C7 1_555 1_555
C9 C10 1_555 1_555
C11 C12 1_555 1_555
C14 C15 1_555 1_555

#END
