
#######################################################################
#
#                 Cambridge Crystallographic Data Centre
#                                CCDC 
#
#######################################################################
#
# If this CIF has been generated from an entry in the Cambridge 
# Structural Database, then it will include bibliographic, chemical, 
# crystal, experimental, refinement or atomic coordinate data resulting 
# from the CCDC's data processing and validation procedures.
#
#######################################################################

data_KAZMIH
_chemical_compound_source        'red algae Laurencia caespitosa Lamx'
_chemical_formula_moiety         'C15 H25 Br2 Cl1 O3'
_chemical_name_systematic        6-Hydroxycaespitol
_symmetry_cell_setting           orthorhombic
_symmetry_space_group_name_H-M   'P 21 21 21'
_symmetry_Int_Tables_number      19
_space_group_name_Hall           'P 2ac 2ab'
loop_
_symmetry_equiv_pos_site_id
_symmetry_equiv_pos_as_xyz
1 x,y,z
2 1/2+x,1/2-y,-z
3 -x,1/2+y,1/2-z
4 1/2-x,-y,1/2+z
_cell_length_a                   6.987(4)
_cell_length_b                   11.256(2)
_cell_length_c                   22.778(3)
_cell_angle_alpha                90
_cell_angle_beta                 90
_cell_angle_gamma                90
_cell_volume                     1791.39
_chemical_melting_point          152-153deg.C
_cell_formula_units_Z            4
loop_
_atom_site_label
_atom_site_type_symbol
_atom_site_fract_x
_atom_site_fract_y
_atom_site_fract_z
Br1 Br -0.23364(25) -0.09539(13) 0.11811(6)
Br2 Br -0.16892(22) 0.28914(13) -0.26005(5)
Cl1 Cl 0.3023(55) 0.37563(29) -0.25892(14)
O1 O 0.1126(12) 0.05198(63) -0.01333(28)
O2 O -0.2602(13) 0.17523(60) -0.03622(29)
O3 O 0.0698(12) 0.25395(61) -0.07283(28)
C1 C 0.0235(18) 0.2648(10) -0.19790(45)
C2 C 0.2186(18) 0.23983(96) -0.21979(43)
C3 C 0.3546(20) 0.2267(11) -0.16796(45)
C4 C 0.2834(19) 0.1243(10) -0.12647(48)
C5 C 0.0811(18) 0.1448(10) -0.10618(48)
C6 C -0.0539(19) 0.1633(10) -0.15911(45)
C7 C 0.0001(17) 0.04114(96) -0.06571(45)
C8 C -0.2084(17) 0.05388(93) -0.05204(43)
C9 C -0.2676(21) -0.0220(10) -0.00049(45)
C10 C -0.1507(18) 0.00149(94) 0.05060(43)
C11 C 0.0653(18) -0.0160(10) 0.04099(46)
C12 C 0.2366(23) 0.1387(11) -0.26580(54)
C13 C 0.0368(19) -0.0814(11) -0.09674(49)
C14 C 0.1358(22) -0.1462(11) 0.03352(51)
C15 C 0.1899(21) 0.0430(10) 0.08717(48)
H1 H 0.033 0.339 -0.173
H2 H 0.362 0.303 -0.145
H3 H 0.488 0.207 -0.183
H4 H 0.372 0.121 -0.092
H5 H 0.294 0.049 -0.149
H6 H -0.059 0.090 -0.184
H7 H -0.185 0.184 -0.145
H8 H -0.277 0.026 -0.089
H9 H -0.257 -0.107 -0.011
H10 H -0.406 -0.003 0.010
H11 H -0.167 0.090 0.061
H12 H 0.152 0.153 -0.302
H13 H 0.192 0.064 -0.246
H14 H 0.372 0.126 -0.281
H15 H 0.175 -0.090 -0.108
H16 H 0.001 -0.149 -0.070
H17 H -0.042 -0.090 -0.134
H18 H 0.279 -0.150 0.027
H19 H 0.105 -0.195 0.069
H20 H 0.072 -0.186 0.002
H21 H 0.329 0.038 0.077
H22 H 0.155 0.131 0.091
H23 H 0.158 -0.001 0.123
H24 H -0.412 0.214 -0.024
H25 H 0.128 0.244 -0.029
loop_
_geom_bond_atom_site_label_1
_geom_bond_atom_site_label_2
_geom_bond_site_symmetry_1
_geom_bond_site_symmetry_2
Br1 C10 1_555 1_555
Br2 C1 1_555 1_555
Cl1 C2 1_555 1_555
O1 C7 1_555 1_555
O2 C8 1_555 1_555
O3 C5 1_555 1_555
C1 C2 1_555 1_555
C2 C3 1_555 1_555
C3 C4 1_555 1_555
C4 C5 1_555 1_555
C5 C6 1_555 1_555
C6 C1 1_555 1_555
C7 C5 1_555 1_555
C8 C7 1_555 1_555
C9 C8 1_555 1_555
C10 C9 1_555 1_555
C11 O1 1_555 1_555
C12 C2 1_555 1_555
C13 C7 1_555 1_555
C14 C11 1_555 1_555
C15 C11 1_555 1_555
H1 C1 1_555 1_555
H2 C3 1_555 1_555
H3 C3 1_555 1_555
H4 C4 1_555 1_555
H5 C4 1_555 1_555
H6 C6 1_555 1_555
H7 C6 1_555 1_555
H8 C8 1_555 1_555
H9 C9 1_555 1_555
H10 C9 1_555 1_555
H11 C10 1_555 1_555
H12 C12 1_555 1_555
H13 C12 1_555 1_555
H14 C12 1_555 1_555
H15 C13 1_555 1_555
H16 C13 1_555 1_555
H17 C13 1_555 1_555
H18 C14 1_555 1_555
H19 C14 1_555 1_555
H20 C14 1_555 1_555
H21 C15 1_555 1_555
H22 C15 1_555 1_555
H23 C15 1_555 1_555
H24 O2 1_555 1_555
H25 O3 1_555 1_555
C10 C11 1_555 1_555

#END
