
#######################################################################
#
#                 Cambridge Crystallographic Data Centre
#                                CCDC 
#
#######################################################################
#
# If this CIF has been generated from an entry in the Cambridge 
# Structural Database, then it will include bibliographic, chemical, 
# crystal, experimental, refinement or atomic coordinate data resulting 
# from the CCDC's data processing and validation procedures.
#
#######################################################################

data_KAZMON
_chemical_compound_source        'red algae Laurencia caespitosa Lamx'
_chemical_formula_moiety         'C15 H24 Br1 Cl1 O3'
_chemical_name_systematic        
6-Bromo-1-chloro-4-(5,6-epoxy-3-hydroxy-6-methyl-2-oxoheptan-3-yl)-1-methylcyclohexane
_symmetry_cell_setting           monoclinic
_symmetry_space_group_name_H-M   'P 21'
_symmetry_Int_Tables_number      4
_space_group_name_Hall           'P 2yb'
loop_
_symmetry_equiv_pos_site_id
_symmetry_equiv_pos_as_xyz
1 x,y,z
2 -x,1/2+y,-z
_cell_length_a                   7.980(8)
_cell_length_b                   10.262(8)
_cell_length_c                   11.048(12)
_cell_angle_alpha                90
_cell_angle_beta                 110.4(1)
_cell_angle_gamma                90
_cell_volume                     847.986
_chemical_melting_point          112-114deg.C
_cell_formula_units_Z            2
loop_
_atom_site_label
_atom_site_type_symbol
_atom_site_fract_x
_atom_site_fract_y
_atom_site_fract_z
Br1 Br -0.05639(31) 0.00000 0.14124(25)
Cl1 Cl 0.19799(92) -0.1438(11) -0.01146(66)
O1 O 0.5675(17) 0.2592(20) 0.4470(13)
O2 O 0.6487(21) 0.6247(24) 0.4278(14)
O3 O 0.3093(22) 0.4139(22) 0.4417(16)
C1 C 0.1543(29) 0.0601(28) 0.1237(19)
C2 C 0.2946(29) -0.0161(45) 0.1270(21)
C3 C 0.4537(27) 0.0293(40) 0.1040(20)
C4 C 0.5429(29) 0.1376(37) 0.2081(21)
C5 C 0.4054(26) 0.2327(31) 0.2136(18)
C6 C 0.2436(31) 0.1757(32) 0.2285(21)
C7 C 0.4962(27) 0.3385(32) 0.3314(19)
C8 C 0.6404(27) 0.4054(30) 0.3070(19)
C9 C 0.7359(31) 0.5156(52) 0.4176(20)
C10 C 0.8151(29) 0.6237(38) 0.3993(20)
C11 C 0.3549(31) 0.4225(32) 0.3474(22)
C12 C 0.2593(34) 0.5264(44) 0.2390(24)
C13 C 0.3549(38) -0.1097(39) 0.2476(26)
C14 C 0.7940(39) 0.6892(41) 0.2682(28)
C15 C 0.9785(40) 0.6839(33) 0.5092(29)
H1 H 0.47040 0.22930 0.46370
H2 H 0.123 0.103 0.033
H3 H 0.414 0.070 0.015
H4 H 0.545 -0.038 0.109
H5 H 0.634 0.189 0.184
H6 H 0.600 0.099 0.294
H7 H 0.359 0.275 0.127
H8 H 0.273 0.136 0.315
H9 H 0.151 0.245 0.216
H10 H 0.590 0.456 0.225
H11 H 0.731 0.343 0.301
H12 H 0.792 0.432 0.474
H13 H 0.280 0.610 0.282
H14 H 0.131 0.501 0.209
H15 H 0.295 0.530 0.162
H16 H 0.446 -0.175 0.244
H17 H 0.249 -0.157 0.256
H18 H 0.407 -0.048 0.321
H19 H 0.764 0.776 0.273
H20 H 0.705 0.636 0.200
H21 H 0.913 0.681 0.251
H22 H 0.997 0.637 0.592
H23 H 0.947 0.777 0.519
H24 H 1.091 0.682 0.490
loop_
_geom_bond_atom_site_label_1
_geom_bond_atom_site_label_2
_geom_bond_site_symmetry_1
_geom_bond_site_symmetry_2
Br1 C1 1_555 1_555
Cl1 C2 1_555 1_555
O1 C7 1_555 1_555
O2 C9 1_555 1_555
O3 C11 1_555 1_555
C1 C2 1_555 1_555
C2 C3 1_555 1_555
C3 C4 1_555 1_555
C4 C5 1_555 1_555
C5 C6 1_555 1_555
C6 C1 1_555 1_555
C7 C5 1_555 1_555
C8 C7 1_555 1_555
C9 C8 1_555 1_555
C10 O2 1_555 1_555
C11 C7 1_555 1_555
C12 C11 1_555 1_555
C13 C2 1_555 1_555
C14 C10 1_555 1_555
C15 C10 1_555 1_555
H1 O1 1_555 1_555
H2 C1 1_555 1_555
H3 C3 1_555 1_555
H4 C3 1_555 1_555
H5 C4 1_555 1_555
H6 C4 1_555 1_555
H7 C5 1_555 1_555
H8 C6 1_555 1_555
H9 C6 1_555 1_555
H10 C8 1_555 1_555
H11 C8 1_555 1_555
H12 C9 1_555 1_555
H13 C12 1_555 1_555
H14 C12 1_555 1_555
H15 C12 1_555 1_555
H16 C13 1_555 1_555
H17 C13 1_555 1_555
H18 C13 1_555 1_555
H19 C14 1_555 1_555
H20 C14 1_555 1_555
H21 C14 1_555 1_555
H22 C15 1_555 1_555
H23 C15 1_555 1_555
H24 C15 1_555 1_555
C9 C10 1_555 1_555

#END
