
#######################################################################
#
#                 Cambridge Crystallographic Data Centre
#                                CCDC 
#
#######################################################################
#
# If this CIF has been generated from an entry in the Cambridge 
# Structural Database, then it will include bibliographic, chemical, 
# crystal, experimental, refinement or atomic coordinate data resulting 
# from the CCDC's data processing and validation procedures.
#
#######################################################################

data_KAZNUU
_chemical_compound_source        'essential oil of Cymbopogon distans'
_chemical_formula_moiety         'C15 H28 O2'
_chemical_name_systematic        
(2R-(2\a,4a\b,8\a,8a\a))-Decahydro-8a-hydroxy-\a,\a,4a,8-tetramethyl-2-naphylmethanol
_symmetry_cell_setting           trigonal
_symmetry_space_group_name_H-M   'P 32 2 1'
_symmetry_Int_Tables_number      154
_space_group_name_Hall           'P 32 2"'
loop_
_symmetry_equiv_pos_site_id
_symmetry_equiv_pos_as_xyz
1 x,y,z
2 -y,x-y,2/3+z
3 -x+y,-x,1/3+z
4 y,x,-z
5 x-y,-y,1/3-z
6 -x,-x+y,2/3-z
_cell_length_a                   10.990(3)
_cell_length_b                   10.990(3)
_cell_length_c                   20.415(5)
_cell_angle_alpha                90
_cell_angle_beta                 90
_cell_angle_gamma                120
_cell_volume                     2135.38
_chemical_melting_point          120-121deg.C
_cell_formula_units_Z            6
loop_
_atom_site_label
_atom_site_type_symbol
_atom_site_fract_x
_atom_site_fract_y
_atom_site_fract_z
C1 C 0.3219(2) 0.8629(2) 0.9419(1)
C2 C 0.3149(2) 0.9777(2) 0.9826(1)
C3 C 0.3669(3) 1.1126(3) 0.9416(1)
C4 C 0.3094(2) 1.0878(2) 0.8713(1)
C5 C 0.3298(2) 0.9789(2) 0.8331(1)
C6 C 0.2573(2) 0.9520(2) 0.7663(1)
C7 C 0.2663(3) 0.8386(2) 0.7271(1)
C8 C 0.2118(2) 0.7032(2) 0.7665(1)
C9 C 0.2723(2) 0.7231(2) 0.8361(1)
C10 C 0.2594(2) 0.8392(2) 0.8728(1)
C11 C 0.1755(2) 0.9334(3) 1.0206(1)
C12 C 0.2023(3) 1.0374(3) 1.0756(1)
C13 C 0.1104(3) 0.7851(3) 1.0489(1)
C14 C 0.4881(2) 1.0362(2) 0.8225(1)
C15 C 0.2027(2) 0.5829(2) 0.8719(1)
O1 O 0.0732(2) 0.9358(2) 0.9771(1)
O2 O 0.1110(1) 0.7901(1) 0.8804(1)
H1 H 0.2721 0.7759 0.9654
H2 H 0.4189 0.8887 0.9378
H3 H 0.3786 0.9966 1.0184
H4 H 0.4675 1.1591 0.9394
H5 H 0.3392 1.1722 0.9635
H6 H 0.3567 1.1755 0.8481
H7 H 0.2107 1.0559 0.8732
H8 H 0.3013 1.0378 0.7416
H9 H 0.1601 0.9229 0.7731
H10 H 0.2109 0.8192 0.6880
H11 H 0.3625 0.8722 0.7154
H12 H 0.1115 0.6603 0.7699
H13 H 0.2349 0.6417 0.7432
H14 H 0.3710 0.7549 0.8340
H15 H 0.2655 1.0329 1.1067
H16 H 0.1147 1.0119 1.0967
H17 H 0.2429 1.1312 1.0587
H18 H 0.1772 0.7725 1.0739
H19 H 0.0764 0.7193 1.0133
H20 H 0.0332 0.7696 1.0765
H21 H 0.5383 1.0609 0.8633
H22 H 0.5204 1.1188 0.7960
H23 H 0.5043 0.9689 0.7999
H24 H 0.2507 0.5908 0.9123
H25 H 0.2095 0.5163 0.8439
H26 H 0.1057 0.5515 0.8806
H27 H 0.0838(50) 0.9064(47) 0.9422(13)
H28 H 0.0611(38) 0.7601(44) 0.8481(14)
loop_
_geom_bond_atom_site_label_1
_geom_bond_atom_site_label_2
_geom_bond_site_symmetry_1
_geom_bond_site_symmetry_2
C1 C2 1_555 1_555
C2 C3 1_555 1_555
C3 C4 1_555 1_555
C4 C5 1_555 1_555
C5 C6 1_555 1_555
C6 C7 1_555 1_555
C7 C8 1_555 1_555
C8 C9 1_555 1_555
C9 C10 1_555 1_555
C10 C1 1_555 1_555
C11 C2 1_555 1_555
C12 C11 1_555 1_555
C13 C11 1_555 1_555
C14 C5 1_555 1_555
C15 C9 1_555 1_555
O1 C11 1_555 1_555
O2 C10 1_555 1_555
H1 C1 1_555 1_555
H2 C1 1_555 1_555
H3 C2 1_555 1_555
H4 C3 1_555 1_555
H5 C3 1_555 1_555
H6 C4 1_555 1_555
H7 C4 1_555 1_555
H8 C6 1_555 1_555
H9 C6 1_555 1_555
H10 C7 1_555 1_555
H11 C7 1_555 1_555
H12 C8 1_555 1_555
H13 C8 1_555 1_555
H14 C9 1_555 1_555
H15 C12 1_555 1_555
H16 C12 1_555 1_555
H17 C12 1_555 1_555
H18 C13 1_555 1_555
H19 C13 1_555 1_555
H20 C13 1_555 1_555
H21 C14 1_555 1_555
H22 C14 1_555 1_555
H23 C14 1_555 1_555
H24 C15 1_555 1_555
H25 C15 1_555 1_555
H26 C15 1_555 1_555
H27 O1 1_555 1_555
H28 O2 1_555 1_555
C5 C10 1_555 1_555

#END
