
#######################################################################
#
#                 Cambridge Crystallographic Data Centre
#                                CCDC 
#
#######################################################################
#
# If this CIF has been generated from an entry in the Cambridge 
# Structural Database, then it will include bibliographic, chemical, 
# crystal, experimental, refinement or atomic coordinate data resulting 
# from the CCDC's data processing and validation procedures.
#
#######################################################################

data_KAZNOR
_chemical_formula_moiety         'C25 H31 N1 O4 Si1'
_chemical_name_systematic        
'phenyl{2-[1-(trimethylsilyl)ethenyl]cyclohexyl}methyl 4-nitrobenzoate'
_symmetry_cell_setting           monoclinic
_symmetry_space_group_name_H-M   'P 21/c'
_symmetry_Int_Tables_number      14
_space_group_name_Hall           '-P 2ybc'
loop_
_symmetry_equiv_pos_site_id
_symmetry_equiv_pos_as_xyz
1 x,y,z
2 -x,1/2+y,1/2-z
3 -x,-y,-z
4 x,1/2-y,1/2+z
_cell_length_a                   7.3090(5)
_cell_length_b                   15.1112(11)
_cell_length_c                   21.9523(16)
_cell_angle_alpha                90
_cell_angle_beta                 90.131(3)
_cell_angle_gamma                90
_cell_volume                     2424.58
_exptl_crystal_colour            colorless
_exptl_crystal_description       prism
_cell_formula_units_Z            4
loop_
_atom_site_label
_atom_site_type_symbol
_atom_site_fract_x
_atom_site_fract_y
_atom_site_fract_z
C1 C 0.91840(15) 0.77229(7) 0.22710(5)
H1 H 1.0159 0.8126 0.2402
C2 C 0.82918(15) 0.73327(7) 0.28495(5)
H2 H 0.7332 0.6924 0.2715
C3 C 0.73501(16) 0.80711(8) 0.32198(5)
H3 H 0.6752 0.7812 0.3571
H4 H 0.8270 0.8482 0.3367
C4 C 0.59398(16) 0.85745(8) 0.28419(5)
H5 H 0.4972 0.8175 0.2716
H6 H 0.5398 0.9040 0.3087
C5 C 0.68415(16) 0.89776(8) 0.22821(5)
H7 H 0.7732 0.9417 0.2409
H8 H 0.5922 0.9272 0.2035
C6 C 0.77882(16) 0.82663(8) 0.19045(5)
H9 H 0.8408 0.8546 0.1565
H10 H 0.6869 0.7870 0.1739
C7 C 1.00622(15) 0.70016(7) 0.18727(5)
H11 H 1.0921 0.6654 0.2119
C8 C 1.10465(15) 0.73676(7) 0.13195(5)
C9 C 1.28151(15) 0.76973(8) 0.13817(5)
H12 H 1.3401 0.7665 0.1758
C10 C 1.37153(16) 0.80738(8) 0.08885(6)
H13 H 1.4893 0.8297 0.0937
C11 C 1.28604(17) 0.81177(8) 0.03243(5)
H14 H 1.3457 0.8373 -0.0006
C12 C 1.11118(17) 0.77782(8) 0.02561(5)
H15 H 1.0540 0.7798 -0.0122
C13 C 1.02085(16) 0.74081(8) 0.07499(5)
H16 H 0.9032 0.7185 0.0700
C14 C 0.90051(15) 0.56221(7) 0.14790(5)
C15 C 0.74098(15) 0.51688(7) 0.11863(5)
C16 C 0.57030(15) 0.55746(8) 0.11347(5)
H17 H 0.5523 0.6137 0.1296
C17 C 0.42723(16) 0.51424(8) 0.08433(5)
H18 H 0.3129 0.5407 0.0804
C18 C 0.45999(16) 0.43052(8) 0.06126(5)
C19 C 0.62764(16) 0.38863(8) 0.06567(5)
H19 H 0.6448 0.3323 0.0496
C20 C 0.76940(16) 0.43274(8) 0.09457(5)
H20 H 0.8837 0.4061 0.0979
C21 C 0.95841(16) 0.68110(8) 0.32640(5)
C22 C 1.12565(17) 0.71073(8) 0.33980(5)
H21 H 1.1660 0.7643 0.3238
H22 H 1.2019 0.6779 0.3651
C23 C 0.6601(2) 0.59547(10) 0.40570(8)
H23 H 0.5671 0.6208 0.3801
H24 H 0.6884 0.6358 0.4382
H25 H 0.6166 0.5407 0.4225
C24 C 1.0490(2) 0.52162(9) 0.40854(6)
H26 H 1.0063 0.4649 0.4222
H27 H 1.0732 0.5587 0.4432
H28 H 1.1593 0.5141 0.3855
C25 C 0.80887(18) 0.49900(8) 0.29534(6)
H29 H 0.9139 0.4900 0.2699
H30 H 0.7122 0.5251 0.2717
H31 H 0.7687 0.4432 0.3113
N1 N 0.30911(14) 0.38349(7) 0.03034(4)
O1 O 0.85599(10) 0.64361(5) 0.16728(3)
O2 O 1.05062(11) 0.52973(5) 0.15300(4)
O3 O 0.16568(12) 0.42341(7) 0.02162(4)
O4 O 0.33585(13) 0.30634(6) 0.01486(4)
Si1 Si 0.87069(5) 0.57438(2) 0.35964(2)
loop_
_geom_bond_atom_site_label_1
_geom_bond_atom_site_label_2
_geom_bond_site_symmetry_1
_geom_bond_site_symmetry_2
C1 H1 1_555 1_555
C2 C1 1_555 1_555
H2 C2 1_555 1_555
C3 C2 1_555 1_555
H3 C3 1_555 1_555
H4 C3 1_555 1_555
C4 C3 1_555 1_555
H5 C4 1_555 1_555
H6 C4 1_555 1_555
C5 C4 1_555 1_555
H7 C5 1_555 1_555
H8 C5 1_555 1_555
C6 C1 1_555 1_555
H9 C6 1_555 1_555
H10 C6 1_555 1_555
C7 C1 1_555 1_555
H11 C7 1_555 1_555
C8 C7 1_555 1_555
C9 C8 1_555 1_555
H12 C9 1_555 1_555
C10 C9 1_555 1_555
H13 C10 1_555 1_555
C11 C10 1_555 1_555
H14 C11 1_555 1_555
C12 C11 1_555 1_555
H15 C12 1_555 1_555
C13 C8 1_555 1_555
H16 C13 1_555 1_555
C14 C15 1_555 1_555
C15 C16 1_555 1_555
C16 H17 1_555 1_555
C17 C16 1_555 1_555
H18 C17 1_555 1_555
C18 C17 1_555 1_555
C19 C18 1_555 1_555
H19 C19 1_555 1_555
C20 C15 1_555 1_555
H20 C20 1_555 1_555
C21 C2 1_555 1_555
C22 C21 1_555 1_555
H21 C22 1_555 1_555
H22 C22 1_555 1_555
C23 H23 1_555 1_555
H24 C23 1_555 1_555
H25 C23 1_555 1_555
C24 H26 1_555 1_555
H27 C24 1_555 1_555
H28 C24 1_555 1_555
C25 H29 1_555 1_555
H30 C25 1_555 1_555
H31 C25 1_555 1_555
N1 C18 1_555 1_555
O1 C7 1_555 1_555
O2 C14 1_555 1_555
O3 N1 1_555 1_555
O4 N1 1_555 1_555
Si1 C21 1_555 1_555
C5 C6 1_555 1_555
C12 C13 1_555 1_555
C14 O1 1_555 1_555
C19 C20 1_555 1_555
C23 Si1 1_555 1_555
C24 Si1 1_555 1_555
C25 Si1 1_555 1_555

#END
