
#######################################################################
#
#                 Cambridge Crystallographic Data Centre
#                                CCDC 
#
#######################################################################
#
# If this CIF has been generated from an entry in the Cambridge 
# Structural Database, then it will include bibliographic, chemical, 
# crystal, experimental, refinement or atomic coordinate data resulting 
# from the CCDC's data processing and validation procedures.
#
#######################################################################

data_KAZPIK
_chemical_compound_source        'Formosan Corydalis genus'
_chemical_formula_moiety         'C23 H27 N1 O5'
_chemical_name_systematic        (+-)-Pallimamine
_symmetry_cell_setting           monoclinic
_symmetry_space_group_name_H-M   'P 21/c'
_symmetry_Int_Tables_number      14
_space_group_name_Hall           '-P 2ybc'
loop_
_symmetry_equiv_pos_site_id
_symmetry_equiv_pos_as_xyz
1 x,y,z
2 -x,1/2+y,1/2-z
3 -x,-y,-z
4 x,1/2-y,1/2+z
_cell_length_a                   8.172(1)
_cell_length_b                   28.775(4)
_cell_length_c                   8.737(3)
_cell_angle_alpha                90
_cell_angle_beta                 95.40
_cell_angle_gamma                90
_cell_volume                     2045.38
_exptl_crystal_colour            'pale yellow'
_chemical_melting_point          203-207deg.C
_cell_formula_units_Z            4
loop_
_atom_site_label
_atom_site_type_symbol
_atom_site_fract_x
_atom_site_fract_y
_atom_site_fract_z
C1 C 0.2953(2) 0.02060(5) 0.3268(2)
C2 C 0.2987(2) 0.06727(5) 0.2905(2)
C3 C 0.4328(2) 0.08551(5) 0.2217(2)
C4 C 0.5594(2) 0.05604(6) 0.1871(2)
C5 C 0.5537(2) 0.00905(5) 0.2224(2)
C6 C 0.6840(2) -0.02387(6) 0.1731(2)
C7 C 0.6840(2) -0.07005(6) 0.2559(2)
N1 N 0.5181(2) -0.08947(4) 0.2580(2)
C8 C 0.5330(2) -0.13471(6) 0.3345(2)
C9 C 0.3723(2) -0.15305(6) 0.3844(2)
C10 C 0.3677(2) -0.19879(6) 0.4336(2)
C11 C 0.2244(2) -0.21830(6) 0.4820(2)
C12 C 0.0850(2) -0.19025(7) 0.4842(2)
C13 C 0.0901(2) -0.14447(6) 0.4372(2)
C14 C 0.2315(2) -0.12503(6) 0.3871(2)
C15 C 0.2367(2) -0.07518(5) 0.3310(2)
C16 C 0.4171(2) -0.05887(5) 0.3453(2)
C17 C 0.4246(2) -0.00905(5) 0.2956(2)
C18 C 0.1507(2) -0.04274(6) 0.4357(2)
C19 C 0.1565(2) -0.07199(6) 0.1652(2)
O1 O 0.1569(1) 0.00526(4) 0.3890(1)
O2 O 0.1729(1) 0.09618(4) 0.3272(1)
C20 C 0.0494(3) 0.10265(9) 0.2043(3)
O3 O 0.4268(2) 0.13199(4) 0.1939(2)
C21 C 0.5655(3) 0.15261(7) 0.1326(3)
O4 O 0.5061(2) -0.22605(4) 0.4269(2)
C22 C 0.5969(3) -0.23410(8) 0.5726(3)
O5 O 0.2338(2) -0.26389(5) 0.5234(2)
C23 C 0.0889(3) -0.28548(8) 0.5654(3)
H1 H 0.653(2) 0.0679(6) 0.128(2)
H2 H 0.794(3) -0.0101(7) 0.193(2)
H3 H 0.670(2) -0.0301(6) 0.065(2)
H4 H 0.746(2) -0.0938(7) 0.203(2)
H5 H 0.738(2) -0.0650(6) 0.371(2)
H6 H 0.578(2) -0.1589(6) 0.260(2)
H7 H 0.618(3) -0.1312(7) 0.439(2)
H8 H -0.016(2) -0.2020(7) 0.524(2)
H9 H -0.007(2) -0.1237(7) 0.440(2)
H10 H 0.464(2) -0.0610(6) 0.464(2)
H11 H 0.206(2) -0.0462(6) 0.546(2)
H12 H 0.029(2) -0.0497(6) 0.435(2)
H13 H 0.154(2) -0.0411(6) 0.122(2)
H14 H 0.207(2) -0.0909(7) 0.096(2)
H15 H 0.050(3) -0.0858(8) 0.154(2)
H16 H -0.031(3) 0.1228(8) 0.244(3)
H17 H 0.097(4) 0.1147(9) 0.121(3)
H18 H -0.025(5) 0.0747(13) 0.183(4)
H19 H 0.539(3) 0.1858(7) 0.119(2)
H20 H 0.679(4) 0.1490(11) 0.207(4)
H21 H 0.584(3) 0.1377(8) 0.035(3)
H22 H 0.705(3) -0.2540(9) 0.558(3)
H23 H 0.629(4) -0.1985(10) 0.612(3)
H24 H 0.519(4) -0.2503(9) 0.642(3)
H25 H 0.119(4) -0.3170(9) 0.585(3)
H26 H 0.043(3) -0.2677(9) 0.655(3)
H27 H -0.010(3) -0.2846(8) 0.475(2)
loop_
_geom_bond_atom_site_label_1
_geom_bond_atom_site_label_2
_geom_bond_site_symmetry_1
_geom_bond_site_symmetry_2
C1 C2 1_555 1_555
C2 C3 1_555 1_555
C3 C4 1_555 1_555
C4 C5 1_555 1_555
C5 C6 1_555 1_555
C6 C7 1_555 1_555
C7 N1 1_555 1_555
N1 C8 1_555 1_555
C8 C9 1_555 1_555
C9 C10 1_555 1_555
C10 C11 1_555 1_555
C11 C12 1_555 1_555
C12 C13 1_555 1_555
C13 C14 1_555 1_555
C14 C9 1_555 1_555
C15 C14 1_555 1_555
C16 N1 1_555 1_555
C17 C1 1_555 1_555
C18 C15 1_555 1_555
C19 C15 1_555 1_555
O1 C1 1_555 1_555
O2 C2 1_555 1_555
C20 O2 1_555 1_555
O3 C3 1_555 1_555
C21 O3 1_555 1_555
O4 C10 1_555 1_555
C22 O4 1_555 1_555
O5 C11 1_555 1_555
C23 O5 1_555 1_555
H1 C4 1_555 1_555
H2 C6 1_555 1_555
H3 C6 1_555 1_555
H4 C7 1_555 1_555
H5 C7 1_555 1_555
H6 C8 1_555 1_555
H7 C8 1_555 1_555
H8 C12 1_555 1_555
H9 C13 1_555 1_555
H10 C16 1_555 1_555
H11 C18 1_555 1_555
H12 C18 1_555 1_555
H13 C19 1_555 1_555
H14 C19 1_555 1_555
H15 C19 1_555 1_555
H16 C20 1_555 1_555
H17 C20 1_555 1_555
H18 C20 1_555 1_555
H19 C21 1_555 1_555
H20 C21 1_555 1_555
H21 C21 1_555 1_555
H22 C22 1_555 1_555
H23 C22 1_555 1_555
H24 C22 1_555 1_555
H25 C23 1_555 1_555
H26 C23 1_555 1_555
H27 C23 1_555 1_555
C5 C17 1_555 1_555
C15 C16 1_555 1_555
C16 C17 1_555 1_555
C18 O1 1_555 1_555

#END
