
#######################################################################
#
#                 Cambridge Crystallographic Data Centre
#                                CCDC 
#
#######################################################################
#
# If this CIF has been generated from an entry in the Cambridge 
# Structural Database, then it will include bibliographic, chemical, 
# crystal, experimental, refinement or atomic coordinate data resulting 
# from the CCDC's data processing and validation procedures.
#
#######################################################################

data_KAZQAD
_chemical_formula_moiety         '2(C35 H69 N2 1+),2(C12 H4 N4 1-),C12 H4 N4'
_chemical_name_systematic        
'1,3-Di-hexadecanylimidazolium tris(tetracyanoquinodimethane)'
_symmetry_cell_setting           triclinic
_symmetry_space_group_name_H-M   'P -1'
_symmetry_Int_Tables_number      2
_space_group_name_Hall           '-P 1'
loop_
_symmetry_equiv_pos_site_id
_symmetry_equiv_pos_as_xyz
1 x,y,z
2 -x,-y,-z
_cell_length_a                   8.245(3)
_cell_length_b                   9.969(4)
_cell_length_c                   30.795(9)
_cell_angle_alpha                93.42(2)
_cell_angle_beta                 94.391(15)
_cell_angle_gamma                96.81(4)
_cell_volume                     2499.9
_exptl_crystal_colour            black
_exptl_crystal_description       prism
_cell_formula_units_Z            1
loop_
_atom_site_label
_atom_site_type_symbol
_atom_site_fract_x
_atom_site_fract_y
_atom_site_fract_z
C1 C 0.5377(6) 0.3441(5) 0.4650(2)
N1 N 0.3994(5) 0.3455(5) 0.4644(2)
C2 C 0.7794(5) 0.3749(4) 0.4251(2)
N2 N 0.8316(5) 0.3983(4) 0.39246(13)
C3 C 0.7122(5) 0.3456(4) 0.46547(15)
N3 N 0.9776(6) 0.1920(5) 0.68481(15)
C4 C 0.8102(5) 0.3239(4) 0.50228(15)
N4 N 1.4237(6) 0.3178(4) 0.6209(2)
C5 C 0.7408(5) 0.2977(4) 0.5426(2)
H1 H 0.6283(5) 0.2955(4) 0.5441(2)
C6 C 0.8366(5) 0.2764(4) 0.57837(15)
H2 H 0.7885(5) 0.2564(4) 0.60393(15)
C7 C 1.0118(5) 0.2839(4) 0.57782(14)
C8 C 1.0800(5) 0.3125(4) 0.53827(14)
H3 H 1.1931(5) 0.3195(4) 0.53721(14)
C9 C 0.9844(5) 0.3300(4) 0.50184(14)
H4 H 1.0327(5) 0.3463(4) 0.47604(14)
C10 C 1.1087(5) 0.2653(4) 0.61537(15)
C11 C 1.0380(6) 0.2260(5) 0.6543(2)
C12 C 1.2839(6) 0.2923(4) 0.6182(2)
N5 N 0.4720(5) -0.0023(4) 0.42529(14)
N6 N 0.8893(4) 0.0820(4) 0.35116(13)
C13 C 0.6128(6) 0.0106(4) 0.42592(14)
C14 C 0.8450(5) 0.0559(4) 0.38441(15)
C15 C 0.7871(5) 0.0249(4) 0.42553(14)
C16 C 0.8933(5) 0.0136(4) 0.46242(14)
C17 C 0.8316(5) -0.0129(4) 0.50326(14)
H5 H 0.7191(5) -0.0223(4) 0.50550(14)
C18 C 1.0659(5) 0.0246(4) 0.46098(14)
H6 H 1.1103(5) 0.0405(4) 0.43461(14)
C18A C 0.9341(5) -0.0246(4) 0.53902(14)
C16A C 1.1067(5) -0.0136(4) 0.53758(14)
C15A C 1.2129(5) -0.0249(4) 0.57447(14)
C13A C 1.3872(6) -0.0106(4) 0.57408(14)
N5A N 1.5280(5) 0.0023(4) 0.57471(14)
C14A C 1.1550(5) -0.0559(4) 0.61559(15)
N6A N 1.1107(4) -0.0820(4) 0.64884(13)
C17A C 1.1684(5) 0.0129(4) 0.49674(14)
H5A H 1.2809(5) 0.0223(4) 0.49450(14)
H6A H 0.8897(5) -0.0405(4) 0.56539(14)
N7 N 0.4113(4) 0.0962(4) 0.32440(12)
N8 N 0.2942(4) 0.2694(4) 0.34463(11)
C19 C 0.3051(10) 0.4898(9) -0.2766(2)
H7 H 0.3061(10) 0.5674(9) -0.2936(2)
H8 H 0.1999(10) 0.4361(9) -0.2814(2)
H9 H 0.3885(10) 0.4365(9) -0.2851(2)
C20 C 0.3363(8) 0.5340(7) -0.2308(2)
H10 H 0.2529(8) 0.5895(7) -0.2226(2)
H11 H 0.4416(8) 0.5899(7) -0.2262(2)
C21 C 0.3369(8) 0.4186(6) -0.2016(2)
H12 H 0.2341(8) 0.3599(6) -0.2079(2)
H13 H 0.4241(8) 0.3664(6) -0.2091(2)
C22 C 0.3588(7) 0.4567(6) -0.1536(2)
H14 H 0.4639(7) 0.5118(6) -0.1471(2)
H15 H 0.2745(7) 0.5122(6) -0.1463(2)
C23 C 0.3518(7) 0.3412(5) -0.1251(2)
H16 H 0.4362(7) 0.2860(5) -0.1325(2)
H17 H 0.2469(7) 0.2860(5) -0.1319(2)
C24 C 0.3726(7) 0.3759(6) -0.0769(2)
H18 H 0.2891(7) 0.4322(6) -0.0694(2)
H19 H 0.4782(7) 0.4301(6) -0.0699(2)
C25 C 0.3632(7) 0.2592(5) -0.0483(2)
H20 H 0.2570(7) 0.2058(5) -0.0549(2)
H21 H 0.4457(7) 0.2023(5) -0.0559(2)
C26 C 0.3861(7) 0.2939(5) -0.0002(2)
H22 H 0.3040(7) 0.3513(5) 0.0075(2)
H23 H 0.4925(7) 0.3468(5) 0.0065(2)
C27 C 0.3755(7) 0.1770(5) 0.0285(2)
H24 H 0.2690(7) 0.1241(5) 0.0218(2)
H25 H 0.4575(7) 0.1196(5) 0.0208(2)
C28 C 0.3982(7) 0.2110(5) 0.0762(2)
H26 H 0.3164(7) 0.2686(5) 0.0839(2)
H27 H 0.5048(7) 0.2636(5) 0.0829(2)
C29 C 0.3871(7) 0.0943(5) 0.1047(2)
H28 H 0.2798(7) 0.0426(5) 0.0983(2)
H29 H 0.4677(7) 0.0360(5) 0.0967(2)
C30 C 0.4125(7) 0.1280(5) 0.1530(2)
H30 H 0.5213(7) 0.1772(5) 0.1594(2)
H31 H 0.3345(7) 0.1889(5) 0.1608(2)
C31 C 0.3966(7) 0.0132(5) 0.1817(2)
H32 H 0.4717(7) -0.0495(5) 0.1731(2)
H33 H 0.2864(7) -0.0339(5) 0.1760(2)
C32 C 0.4280(7) 0.0466(5) 0.2297(2)
H34 H 0.5425(7) 0.0829(5) 0.2357(2)
H35 H 0.3637(7) 0.1185(5) 0.2375(2)
C33 C 0.3925(8) -0.0636(5) 0.2589(2)
H36 H 0.4461(8) -0.1395(5) 0.2485(2)
H37 H 0.2754(8) -0.0924(5) 0.2551(2)
C34 C 0.4398(7) -0.0385(5) 0.3074(2)
H38 H 0.3770(7) -0.1064(5) 0.3227(2)
H39 H 0.5549(7) -0.0485(5) 0.3132(2)
C35 C 0.5293(6) 0.2039(5) 0.3351(2)
H40 H 0.6414(6) 0.2025(5) 0.3338(2)
C36 C 0.4582(5) 0.3111(5) 0.3478(2)
H41 H 0.5101(5) 0.3972(5) 0.3569(2)
C37 C 0.2679(5) 0.1398(5) 0.33090(14)
H42 H 0.1660(5) 0.0877(5) 0.32651(14)
C38 C 0.1674(6) 0.3590(5) 0.3526(2)
H43 H 0.1836(6) 0.3978(5) 0.3825(2)
H44 H 0.0598(6) 0.3067(5) 0.3484(2)
C39 C 0.1768(6) 0.4725(5) 0.32128(15)
H45 H 0.0922(6) 0.5294(5) 0.32711(15)
H46 H 0.2819(6) 0.5280(5) 0.32737(15)
C40 C 0.1568(6) 0.4253(4) 0.27334(15)
H47 H 0.0503(6) 0.3722(4) 0.26677(15)
H48 H 0.2397(6) 0.3670(4) 0.26733(15)
C41 C 0.1712(6) 0.5420(5) 0.2437(2)
H49 H 0.0904(6) 0.6015(5) 0.2506(2)
H50 H 0.2787(6) 0.5935(5) 0.2500(2)
C42 C 0.1476(6) 0.5001(5) 0.1954(2)
H51 H 0.0405(6) 0.4479(5) 0.1890(2)
H52 H 0.2292(6) 0.4416(5) 0.1883(2)
C43 C 0.1607(6) 0.6182(5) 0.16638(15)
H53 H 0.0809(6) 0.6777(5) 0.17409(15)
H54 H 0.2686(6) 0.6691(5) 0.17248(15)
C44 C 0.1338(6) 0.5794(5) 0.11808(15)
H55 H 0.0258(6) 0.5287(5) 0.11187(15)
H56 H 0.2137(6) 0.5201(5) 0.11026(15)
C45 C 0.1473(6) 0.6984(5) 0.0898(2)
H57 H 0.0683(6) 0.7581(5) 0.0979(2)
H58 H 0.2557(6) 0.7486(5) 0.0959(2)
C46 C 0.1194(7) 0.6616(5) 0.0414(2)
H59 H 0.0106(7) 0.6121(5) 0.0352(2)
H60 H 0.1977(7) 0.6010(5) 0.0334(2)
C47 C 0.1345(7) 0.7807(5) 0.0125(2)
H61 H 0.0564(7) 0.8415(5) 0.0205(2)
H62 H 0.2434(7) 0.8300(5) 0.0185(2)
C48 C 0.1057(6) 0.7428(5) -0.0360(2)
H63 H -0.0034(6) 0.6938(5) -0.0420(2)
H64 H 0.1835(6) 0.6818(5) -0.0440(2)
C49 C 0.1213(7) 0.8612(5) -0.0646(2)
H65 H 0.0438(7) 0.9224(5) -0.0566(2)
H66 H 0.2305(7) 0.9101(5) -0.0587(2)
C50 C 0.0920(7) 0.8232(5) -0.1128(2)
H67 H -0.0174(7) 0.7748(5) -0.1187(2)
H68 H 0.1691(7) 0.7615(5) -0.1208(2)
C51 C 0.1085(7) 0.9412(5) -0.1418(2)
H69 H 0.0308(7) 1.0026(5) -0.1340(2)
H70 H 0.2176(7) 0.9900(5) -0.1358(2)
C52 C 0.0801(7) 0.9023(6) -0.1900(2)
H71 H -0.0296(7) 0.8547(6) -0.1961(2)
H72 H 0.1568(7) 0.8400(6) -0.1978(2)
C53 C 0.0991(8) 1.0210(6) -0.2187(2)
H73 H 0.0793(8) 0.9884(6) -0.2488(2)
H74 H 0.2084(8) 1.0674(6) -0.2135(2)
H75 H 0.0217(8) 1.0822(6) -0.2118(2)
loop_
_geom_bond_atom_site_label_1
_geom_bond_atom_site_label_2
_geom_bond_site_symmetry_1
_geom_bond_site_symmetry_2
C1 N1 1_555 1_555
C2 N2 1_555 1_555
C3 C1 1_555 1_555
N3 C11 1_555 1_555
C4 C3 1_555 1_555
N4 C12 1_555 1_555
C5 C4 1_555 1_555
H1 C5 1_555 1_555
N5 C13 1_555 1_555
C6 C5 1_555 1_555
H2 C6 1_555 1_555
N6 C14 1_555 1_555
C7 C6 1_555 1_555
N7 C34 1_555 1_555
C8 C7 1_555 1_555
H3 C8 1_555 1_555
N8 C36 1_555 1_555
C9 C4 1_555 1_555
H4 C9 1_555 1_555
C10 C7 1_555 1_555
C11 C10 1_555 1_555
C12 C10 1_555 1_555
C13 C15 1_555 1_555
C14 C15 1_555 1_555
C15 C16 1_555 1_555
C16 C17 1_555 1_555
C17 H5 1_555 1_555
C18 C16 1_555 1_555
H6 C18 1_555 1_555
C19 H7 1_555 1_555
H8 C19 1_555 1_555
H9 C19 1_555 1_555
C20 C19 1_555 1_555
H10 C20 1_555 1_555
H11 C20 1_555 1_555
C21 C20 1_555 1_555
H12 C21 1_555 1_555
H13 C21 1_555 1_555
C22 C21 1_555 1_555
H14 C22 1_555 1_555
H15 C22 1_555 1_555
C23 C22 1_555 1_555
H16 C23 1_555 1_555
H17 C23 1_555 1_555
C24 C23 1_555 1_555
H18 C24 1_555 1_555
H19 C24 1_555 1_555
C25 C24 1_555 1_555
H20 C25 1_555 1_555
H21 C25 1_555 1_555
C26 C25 1_555 1_555
H22 C26 1_555 1_555
H23 C26 1_555 1_555
C27 C26 1_555 1_555
H24 C27 1_555 1_555
H25 C27 1_555 1_555
C28 C27 1_555 1_555
H26 C28 1_555 1_555
H27 C28 1_555 1_555
C29 C28 1_555 1_555
H28 C29 1_555 1_555
H29 C29 1_555 1_555
C30 C29 1_555 1_555
H30 C30 1_555 1_555
H31 C30 1_555 1_555
C31 C30 1_555 1_555
H32 C31 1_555 1_555
H33 C31 1_555 1_555
C32 C31 1_555 1_555
H34 C32 1_555 1_555
H35 C32 1_555 1_555
C33 C32 1_555 1_555
H36 C33 1_555 1_555
H37 C33 1_555 1_555
C34 C33 1_555 1_555
H38 C34 1_555 1_555
H39 C34 1_555 1_555
C35 N7 1_555 1_555
H40 C35 1_555 1_555
C36 C35 1_555 1_555
H41 C36 1_555 1_555
C37 N7 1_555 1_555
H42 C37 1_555 1_555
C38 N8 1_555 1_555
H43 C38 1_555 1_555
H44 C38 1_555 1_555
C39 C38 1_555 1_555
H45 C39 1_555 1_555
H46 C39 1_555 1_555
C40 C39 1_555 1_555
H47 C40 1_555 1_555
H48 C40 1_555 1_555
C41 C40 1_555 1_555
H49 C41 1_555 1_555
H50 C41 1_555 1_555
C42 C41 1_555 1_555
H51 C42 1_555 1_555
H52 C42 1_555 1_555
C43 C42 1_555 1_555
H53 C43 1_555 1_555
H54 C43 1_555 1_555
C44 C43 1_555 1_555
H55 C44 1_555 1_555
H56 C44 1_555 1_555
C45 C44 1_555 1_555
H57 C45 1_555 1_555
H58 C45 1_555 1_555
C46 C45 1_555 1_555
H59 C46 1_555 1_555
H60 C46 1_555 1_555
C47 C46 1_555 1_555
H61 C47 1_555 1_555
H62 C47 1_555 1_555
C48 C47 1_555 1_555
H63 C48 1_555 1_555
H64 C48 1_555 1_555
C49 C48 1_555 1_555
H65 C49 1_555 1_555
H66 C49 1_555 1_555
C50 C49 1_555 1_555
H67 C50 1_555 1_555
H68 C50 1_555 1_555
C51 C50 1_555 1_555
H69 C51 1_555 1_555
H70 C51 1_555 1_555
C52 C51 1_555 1_555
H71 C52 1_555 1_555
H72 C52 1_555 1_555
C53 C52 1_555 1_555
H73 C53 1_555 1_555
H74 C53 1_555 1_555
H75 C53 1_555 1_555
C18A C17 1_555 1_555
C16A C18A 1_555 1_555
C15A C16A 1_555 1_555
C13A C15A 1_555 1_555
N5A C13A 1_555 1_555
C14A C15A 1_555 1_555
N6A C14A 1_555 1_555
C17A C18 1_555 1_555
H5A C17A 1_555 1_555
H6A C18A 1_555 1_555
C2 C3 1_555 1_555
C8 C9 1_555 1_555
N8 C37 1_555 1_555
C16A C17A 1_555 1_555

#END
