
#######################################################################
#
#                 Cambridge Crystallographic Data Centre
#                                CCDC 
#
#######################################################################
#
# If this CIF has been generated from an entry in the Cambridge 
# Structural Database, then it will include bibliographic, chemical, 
# crystal, experimental, refinement or atomic coordinate data resulting 
# from the CCDC's data processing and validation procedures.
#
#######################################################################

data_KAZROU
_chemical_formula_moiety         'C53 H40 N4 O1'
_chemical_name_systematic        
2-(3'-phenoxypropyl)-5,10,15,20-tetraphenyl-2-aza-21-carba-N-confusedporphyrin
_symmetry_cell_setting           triclinic
_symmetry_space_group_name_H-M   'P -1'
_symmetry_Int_Tables_number      2
_space_group_name_Hall           '-P 1'
loop_
_symmetry_equiv_pos_site_id
_symmetry_equiv_pos_as_xyz
1 x,y,z
2 -x,-y,-z
_cell_length_a                   10.3822(3)
_cell_length_b                   13.8621(4)
_cell_length_c                   14.2609(5)
_cell_angle_alpha                105.414(3)
_cell_angle_beta                 95.339(3)
_cell_angle_gamma                102.612(2)
_cell_volume                     1905.79
_exptl_crystal_colour            blue
_exptl_crystal_description       parallelepiped
_cell_formula_units_Z            2
loop_
_atom_site_label
_atom_site_type_symbol
_atom_site_fract_x
_atom_site_fract_y
_atom_site_fract_z
O1 O 0.44457(10) 0.02030(8) 0.15388(8)
N1 N 0.14965(12) 0.09814(9) 0.59540(8)
N2 N 0.10127(12) -0.07339(9) 0.68558(9)
H1 H 0.1274(18) -0.0700(15) 0.6290(14)
N3 N 0.22911(12) -0.19474(9) 0.54068(8)
N4 N 0.43449(11) -0.02721(9) 0.36533(8)
C1 C 0.16415(14) 0.16350(11) 0.53604(10)
C2 C 0.09410(14) 0.24383(11) 0.56929(11)
H2 H 0.0855 0.2966 0.5400
C3 C 0.04427(14) 0.22891(11) 0.64893(11)
H3 H -0.0055 0.2694 0.6877
C4 C 0.08148(14) 0.13802(11) 0.66453(10)
C5 C 0.04732(13) 0.09677(11) 0.74348(10)
C6 C 0.06108(13) 0.00180(11) 0.75209(10)
C7 C 0.03619(14) -0.03764(12) 0.83426(10)
H4 H 0.0092 -0.0022 0.8928
C8 C 0.05743(14) -0.13307(11) 0.81443(10)
H5 H 0.0475 -0.1762 0.8565
C9 C 0.09760(13) -0.15866(11) 0.71911(10)
C10 C 0.12912(14) -0.25029(11) 0.67219(10)
C11 C 0.18084(14) -0.26878(11) 0.58212(10)
C12 C 0.18733(16) -0.37018(12) 0.52266(11)
H6 H 0.1584 -0.4342 0.5365
C13 C 0.24221(15) -0.35532(12) 0.44453(11)
H7 H 0.2600 -0.4068 0.3921
C14 C 0.26920(14) -0.24523(11) 0.45553(10)
C15 C 0.32860(14) -0.19861(11) 0.38987(10)
C16 C 0.33444(14) -0.09275(11) 0.39631(10)
C17 C 0.24823(14) -0.03457(11) 0.43486(10)
H8 H 0.1717 -0.0585 0.4621
C18 C 0.29346(14) 0.06603(11) 0.42685(10)
C19 C 0.41087(14) 0.06666(11) 0.38478(10)
H9 H 0.4652 0.1250 0.3721
C20 C 0.24043(14) 0.15484(11) 0.46085(10)
C21 C -0.00595(14) 0.16063(11) 0.82461(10)
C22 C 0.07008(15) 0.25807(12) 0.88178(11)
H10 H 0.1536 0.2866 0.8652
C23 C 0.02544(16) 0.31391(12) 0.96247(11)
H11 H 0.0784 0.3802 1.0008
C24 C -0.09653(16) 0.27314(12) 0.98745(11)
H12 H -0.1257 0.3102 1.0441
C25 C -0.17521(16) 0.17823(12) 0.92933(11)
H13 H -0.2598 0.1509 0.9450
C26 C -0.13090(14) 0.12299(12) 0.84826(11)
H14 H -0.1864 0.0584 0.8081
C27 C 0.10309(16) -0.33646(11) 0.71807(10)
C28 C -0.02470(17) -0.37583(13) 0.73567(11)
H15 H -0.0951 -0.3465 0.7193
C29 C -0.0512(2) -0.45656(14) 0.77638(12)
H16 H -0.1389 -0.4820 0.7882
C30 C 0.0492(2) -0.49979(14) 0.79967(13)
H17 H 0.0310 -0.5554 0.8276
C31 C 0.1770(2) -0.46274(15) 0.78265(13)
H18 H 0.2463 -0.4932 0.7989
C32 C 0.20508(19) -0.38066(13) 0.74171(12)
H19 H 0.2930 -0.3553 0.7302
C33 C 0.37763(14) -0.26624(11) 0.30810(10)
C34 C 0.49529(16) -0.29591(13) 0.32472(12)
H20 H 0.5470 -0.2712 0.3888
C35 C 0.53802(18) -0.36056(14) 0.24956(12)
H21 H 0.6203 -0.3781 0.2615
C36 C 0.46127(18) -0.39992(13) 0.15690(12)
H22 H 0.4894 -0.4458 0.1054
C37 C 0.34330(17) -0.37214(13) 0.13949(11)
H23 H 0.2902 -0.3992 0.0759
C38 C 0.30240(15) -0.30513(12) 0.21429(10)
H24 H 0.2220 -0.2855 0.2014
C39 C 0.27975(14) 0.24074(11) 0.41669(10)
C40 C 0.29188(15) 0.22036(12) 0.31699(11)
H25 H 0.2670 0.1509 0.2756
C41 C 0.33966(17) 0.30001(13) 0.27768(12)
H26 H 0.3499 0.2844 0.2102
C42 C 0.37254(16) 0.40164(13) 0.33555(13)
H27 H 0.4053 0.4560 0.3083
C43 C 0.35724(15) 0.42352(12) 0.43370(12)
H28 H 0.3767 0.4934 0.4735
C44 C 0.31365(14) 0.34426(12) 0.47448(11)
H29 H 0.3067 0.3604 0.5426
C45 C 0.56204(14) -0.04572(12) 0.33711(10)
H30 H 0.5830 -0.1001 0.3645
H31 H 0.6337 0.0184 0.3682
C46 C 0.56515(15) -0.07824(12) 0.22729(10)
H32 H 0.6421 -0.1088 0.2158
H33 H 0.4828 -0.1330 0.1944
C47 C 0.57568(15) 0.00748(12) 0.17921(11)
H34 H 0.6331 0.0728 0.2251
H35 H 0.6170 -0.0099 0.1191
C48 C 0.43562(15) 0.09205(12) 0.10495(10)
C49 C 0.54438(16) 0.16307(13) 0.09316(12)
H36 H 0.6326 0.1636 0.1184
C50 C 0.52284(17) 0.23399(14) 0.04372(12)
H37 H 0.5973 0.2829 0.0354
C51 C 0.39570(17) 0.23437(14) 0.00682(12)
H38 H 0.3822 0.2834 -0.0262
C52 C 0.28810(17) 0.16242(13) 0.01860(12)
H39 H 0.2000 0.1618 -0.0069
C53 C 0.30730(16) 0.09137(13) 0.06703(11)
H40 H 0.2326 0.0420 0.0744
loop_
_geom_bond_atom_site_label_1
_geom_bond_atom_site_label_2
_geom_bond_site_symmetry_1
_geom_bond_site_symmetry_2
O1 C47 1_555 1_555
N1 C1 1_555 1_555
N2 H1 1_555 1_555
N3 C11 1_555 1_555
N4 C16 1_555 1_555
C1 C2 1_555 1_555
C2 H2 1_555 1_555
C3 C2 1_555 1_555
H3 C3 1_555 1_555
C4 N1 1_555 1_555
C5 C4 1_555 1_555
C6 N2 1_555 1_555
C7 C6 1_555 1_555
H4 C7 1_555 1_555
C8 C7 1_555 1_555
H5 C8 1_555 1_555
C9 N2 1_555 1_555
C10 C9 1_555 1_555
C11 C10 1_555 1_555
C12 C11 1_555 1_555
H6 C12 1_555 1_555
C13 C12 1_555 1_555
H7 C13 1_555 1_555
C14 N3 1_555 1_555
C15 C14 1_555 1_555
C16 C15 1_555 1_555
C17 C16 1_555 1_555
H8 C17 1_555 1_555
C18 C17 1_555 1_555
C19 N4 1_555 1_555
H9 C19 1_555 1_555
C20 C1 1_555 1_555
C21 C5 1_555 1_555
C22 C21 1_555 1_555
H10 C22 1_555 1_555
C23 C22 1_555 1_555
H11 C23 1_555 1_555
C24 C23 1_555 1_555
H12 C24 1_555 1_555
C25 C24 1_555 1_555
H13 C25 1_555 1_555
C26 C21 1_555 1_555
H14 C26 1_555 1_555
C27 C10 1_555 1_555
C28 C27 1_555 1_555
H15 C28 1_555 1_555
C29 C28 1_555 1_555
H16 C29 1_555 1_555
C30 C29 1_555 1_555
H17 C30 1_555 1_555
C31 C30 1_555 1_555
H18 C31 1_555 1_555
C32 C27 1_555 1_555
H19 C32 1_555 1_555
C33 C15 1_555 1_555
C34 C33 1_555 1_555
H20 C34 1_555 1_555
C35 C34 1_555 1_555
H21 C35 1_555 1_555
C36 C35 1_555 1_555
H22 C36 1_555 1_555
C37 C36 1_555 1_555
H23 C37 1_555 1_555
C38 C33 1_555 1_555
H24 C38 1_555 1_555
C39 C20 1_555 1_555
C40 C39 1_555 1_555
H25 C40 1_555 1_555
C41 C40 1_555 1_555
H26 C41 1_555 1_555
C42 C41 1_555 1_555
H27 C42 1_555 1_555
C43 C42 1_555 1_555
H28 C43 1_555 1_555
C44 C39 1_555 1_555
H29 C44 1_555 1_555
C45 N4 1_555 1_555
H30 C45 1_555 1_555
H31 C45 1_555 1_555
C46 C45 1_555 1_555
H32 C46 1_555 1_555
H33 C46 1_555 1_555
C47 C46 1_555 1_555
H34 C47 1_555 1_555
H35 C47 1_555 1_555
C48 O1 1_555 1_555
C49 C48 1_555 1_555
H36 C49 1_555 1_555
C50 C49 1_555 1_555
H37 C50 1_555 1_555
C51 C50 1_555 1_555
H38 C51 1_555 1_555
C52 C51 1_555 1_555
H39 C52 1_555 1_555
C53 C48 1_555 1_555
H40 C53 1_555 1_555
C3 C4 1_555 1_555
C5 C6 1_555 1_555
C8 C9 1_555 1_555
C13 C14 1_555 1_555
C18 C19 1_555 1_555
C18 C20 1_555 1_555
C25 C26 1_555 1_555
C31 C32 1_555 1_555
C37 C38 1_555 1_555
C43 C44 1_555 1_555
C52 C53 1_555 1_555

#END
