
#######################################################################
#
#                 Cambridge Crystallographic Data Centre
#                                CCDC 
#
#######################################################################
#
# If this CIF has been generated from an entry in the Cambridge 
# Structural Database, then it will include bibliographic, chemical, 
# crystal, experimental, refinement or atomic coordinate data resulting 
# from the CCDC's data processing and validation procedures.
#
#######################################################################

data_KAZRAH
_chemical_formula_moiety         'C17 H16 Br1 F1 O3'
_chemical_name_systematic        
'4-fluoro-3-hydroxy-3-phenylbutyl 4-bromobenzoate'
_symmetry_cell_setting           orthorhombic
_symmetry_space_group_name_H-M   'P 21 21 21'
_symmetry_Int_Tables_number      19
_space_group_name_Hall           'P 2ac 2ab'
loop_
_symmetry_equiv_pos_site_id
_symmetry_equiv_pos_as_xyz
1 x,y,z
2 1/2-x,-y,1/2+z
3 -x,1/2+y,1/2-z
4 1/2+x,1/2-y,-z
_cell_length_a                   5.7041(7)
_cell_length_b                   7.4617(9)
_cell_length_c                   35.703(5)
_cell_angle_alpha                90
_cell_angle_beta                 90
_cell_angle_gamma                90
_cell_volume                     1519.6
_exptl_crystal_colour            colorless
_exptl_crystal_description       plate
_cell_formula_units_Z            4
loop_
_atom_site_label
_atom_site_type_symbol
_atom_site_fract_x
_atom_site_fract_y
_atom_site_fract_z
Br1 Br -0.05989(10) 1.06568(6) 0.25531(2)
F1 F 0.5040(5) 0.1644(4) 0.48489(8)
O1 O -0.0513(7) 0.8610(5) 0.44250(9)
O2 O 0.2983(7) 0.7587(5) 0.42500(9)
O3 O 0.1807(7) 0.3422(6) 0.44148(10)
H1 H 0.165(12) 0.332(9) 0.4653(8)
C1 C -0.0111(7) 0.9883(5) 0.30534(11)
C2 C -0.1815(8) 1.0240(6) 0.33146(13)
H2 H -0.3221 1.0836 0.3245
C3 C -0.1442(7) 0.9713(6) 0.36830(13)
H3 H -0.2613 0.9933 0.3866
C4 C 0.0634(8) 0.8867(5) 0.37852(11)
C5 C 0.2310(7) 0.8491(6) 0.35157(12)
H4 H 0.3709 0.7883 0.3584
C6 C 0.1958(7) 0.8998(6) 0.31450(12)
H5 H 0.3103 0.8747 0.2959
C7 C 0.0941(8) 0.8367(6) 0.41879(12)
C8 C 0.3350(11) 0.6905(8) 0.46278(13)
H6 H 0.1832 0.6527 0.4737
H7 H 0.4014 0.7862 0.4788
C9 C 0.4998(9) 0.5341(6) 0.46160(12)
H8 H 0.5196 0.4886 0.4875
H9 H 0.6547 0.5777 0.4531
C10 C 0.4280(10) 0.3785(6) 0.43679(12)
C11 C 0.5557(11) 0.2087(6) 0.44745(12)
H10 H 0.5067 0.1097 0.4307
H11 H 0.7267 0.2262 0.4445
C12 C 0.4714(8) 0.4087(5) 0.39489(11)
C13 C 0.6811(8) 0.4826(6) 0.38144(12)
H12 H 0.8007 0.5164 0.3985
C14 C 0.7147(7) 0.5067(6) 0.34321(12)
H13 H 0.8570 0.5573 0.3343
C15 C 0.5423(8) 0.4573(5) 0.31817(11)
H14 H 0.5643 0.4760 0.2921
C16 C 0.3372(8) 0.3805(6) 0.33121(13)
H15 H 0.2195 0.3442 0.3140
C17 C 0.3028(7) 0.3562(6) 0.36914(13)
H16 H 0.1616 0.3027 0.3777
loop_
_geom_bond_atom_site_label_1
_geom_bond_atom_site_label_2
_geom_bond_site_symmetry_1
_geom_bond_site_symmetry_2
Br1 C1 1_555 1_555
F1 C11 1_555 1_555
O1 C7 1_555 1_555
O2 C7 1_555 1_555
O3 H1 1_555 1_555
C1 C2 1_555 1_555
C2 H2 1_555 1_555
C3 C2 1_555 1_555
H3 C3 1_555 1_555
C4 C3 1_555 1_555
C5 C4 1_555 1_555
H4 C5 1_555 1_555
C6 C1 1_555 1_555
H5 C6 1_555 1_555
C7 C4 1_555 1_555
C8 O2 1_555 1_555
H6 C8 1_555 1_555
H7 C8 1_555 1_555
C9 C8 1_555 1_555
H8 C9 1_555 1_555
H9 C9 1_555 1_555
C10 O3 1_555 1_555
C11 C10 1_555 1_555
H10 C11 1_555 1_555
H11 C11 1_555 1_555
C12 C10 1_555 1_555
C13 C12 1_555 1_555
H12 C13 1_555 1_555
C14 C13 1_555 1_555
H13 C14 1_555 1_555
C15 C14 1_555 1_555
H14 C15 1_555 1_555
C16 C15 1_555 1_555
H15 C16 1_555 1_555
C17 C12 1_555 1_555
H16 C17 1_555 1_555
C5 C6 1_555 1_555
C9 C10 1_555 1_555
C16 C17 1_555 1_555

#END
