
#######################################################################
#
#                 Cambridge Crystallographic Data Centre
#                                CCDC 
#
#######################################################################
#
# If this CIF has been generated from an entry in the Cambridge 
# Structural Database, then it will include bibliographic, chemical, 
# crystal, experimental, refinement or atomic coordinate data resulting 
# from the CCDC's data processing and validation procedures.
#
#######################################################################

data_KAZVIQ
_chemical_formula_moiety         'C20 H26 N2 O8'
_chemical_name_systematic        
'Diethyl E-4-cyano-5-cyanomethyl-2,6-bis(ethoxycarbonyl)-3-heptendioic acid'
_symmetry_cell_setting           monoclinic
_symmetry_space_group_name_H-M   'P 21/c'
_symmetry_Int_Tables_number      14
_space_group_name_Hall           '-P 2ybc'
loop_
_symmetry_equiv_pos_site_id
_symmetry_equiv_pos_as_xyz
1 x,y,z
2 -x,1/2+y,1/2-z
3 -x,-y,-z
4 x,1/2-y,1/2+z
_cell_length_a                   9.184(3)
_cell_length_b                   14.150(4)
_cell_length_c                   18.084(5)
_cell_angle_alpha                90
_cell_angle_beta                 98.51(4)
_cell_angle_gamma                90
_cell_volume                     2324.21
_exptl_crystal_colour            colorless
_chemical_melting_point          70-72deg.C
_cell_formula_units_Z            4
_exptl_crystal_recrystallization_method ethanol
loop_
_atom_site_label
_atom_site_type_symbol
_atom_site_fract_x
_atom_site_fract_y
_atom_site_fract_z
C1 C 0.5787(9) 0.7997(6) 0.8482(5)
H1 H 0.5195(9) 0.7978(6) 0.7985(5)
C2 C 0.4810(10) 0.8187(5) 0.9065(5)
H2 H 0.5228(10) 0.8125(5) 0.9563(5)
C3 C 0.3398(10) 0.8435(6) 0.8926(6)
C4 C 0.2443(9) 0.8616(6) 0.9527(5)
H3 H 0.3071(9) 0.8619(6) 1.0015(5)
C5 C 0.1301(9) 0.7806(6) 0.9517(5)
H4 H 0.0617(9) 0.7832(6) 0.9047(5)
C6 C 0.6906(11) 0.8805(8) 0.8522(6)
C7 C 0.6585(11) 0.7055(7) 0.8649(6)
C8 C 0.0416(10) 0.7904(7) 1.0187(6)
C9 C 0.2118(10) 0.6856(7) 0.9565(7)
C10 C 0.2672(11) 0.8467(7) 0.8153(7)
C11 C 0.1679(10) 0.9601(6) 0.9399(5)
H5 H 0.0986(10) 0.9591(6) 0.8939(5)
H6 H 0.1138(10) 0.9740(6) 0.9808(5)
C12 C 0.2822(11) 1.0358(7) 0.9353(6)
C13 C 0.7166(12) 1.0375(7) 0.8090(7)
H7 H 0.7576(12) 1.0521(7) 0.8603(7)
H8 H 0.7977(12) 1.0294(7) 0.7808(7)
C14 C 0.6304(12) 1.1118(7) 0.7795(7)
H9 H 0.6890(12) 1.1682(7) 0.7816(7)
H10 H 0.5510(12) 1.1208(7) 0.8078(7)
H11 H 0.5912(12) 1.0982(7) 0.7284(7)
C15 C 0.8289(10) 0.6036(7) 0.8173(6)
H12 H 0.8892(10) 0.5964(7) 0.8657(6)
H13 H 0.7609(10) 0.5509(7) 0.8096(6)
C16 C 0.9206(10) 0.6061(7) 0.7589(5)
H14 H 0.9754(10) 0.5482(7) 0.7594(5)
H15 H 0.9876(10) 0.6584(7) 0.7672(5)
H16 H 0.8598(10) 0.6132(7) 0.7113(5)
C17 C -0.1187(14) 0.7040(8) 1.0815(8)
H17 H -0.0772(14) 0.7474(8) 1.1206(8)
H18 H -0.2211(14) 0.7209(8) 1.0663(8)
C18 C -0.1100(12) 0.6137(9) 1.1086(7)
H19 H -0.1630(12) 0.6093(9) 1.1504(7)
H20 H -0.0087(12) 0.5974(9) 1.1243(7)
H21 H -0.1523(12) 0.5710(9) 1.0700(7)
C19 C 0.3814(11) 0.5936(6) 1.0379(6)
H22 H 0.4450(11) 0.5838(6) 1.0003(6)
H23 H 0.3154(11) 0.5400(6) 1.0375(6)
C20 C 0.4700(11) 0.6062(7) 1.1134(5)
H24 H 0.5280(11) 0.5505(7) 1.1264(5)
H25 H 0.4051(11) 0.6164(7) 1.1496(5)
H26 H 0.5339(11) 0.6598(7) 1.1126(5)
N1 N 0.2054(10) 0.8576(8) 0.7570(5)
N2 N 0.3692(10) 1.0885(6) 0.9273(5)
O1 O 0.6340(7) 0.9498(5) 0.8075(4)
O2 O 0.8041(8) 0.8852(5) 0.8925(4)
O3 O 0.7472(7) 0.6937(4) 0.8140(4)
O4 O 0.6418(8) 0.6525(5) 0.9119(4)
O5 O -0.0385(8) 0.7126(4) 1.0174(4)
O6 O 0.0465(7) 0.8544(5) 1.0612(4)
O7 O 0.2985(7) 0.6816(4) 1.0241(4)
O8 O 0.1982(8) 0.6296(5) 0.9094(4)
loop_
_geom_bond_atom_site_label_1
_geom_bond_atom_site_label_2
_geom_bond_site_symmetry_1
_geom_bond_site_symmetry_2
C1 H1 1_555 1_555
C2 C1 1_555 1_555
H2 C2 1_555 1_555
C3 C2 1_555 1_555
C4 C3 1_555 1_555
H3 C4 1_555 1_555
C5 C4 1_555 1_555
H4 C5 1_555 1_555
C6 C1 1_555 1_555
C7 C1 1_555 1_555
C8 C5 1_555 1_555
C9 C5 1_555 1_555
C10 C3 1_555 1_555
C11 C4 1_555 1_555
H5 C11 1_555 1_555
H6 C11 1_555 1_555
C12 C11 1_555 1_555
C13 H7 1_555 1_555
H8 C13 1_555 1_555
C14 C13 1_555 1_555
H9 C14 1_555 1_555
H10 C14 1_555 1_555
H11 C14 1_555 1_555
C15 H12 1_555 1_555
H13 C15 1_555 1_555
C16 C15 1_555 1_555
H14 C16 1_555 1_555
H15 C16 1_555 1_555
H16 C16 1_555 1_555
C17 H17 1_555 1_555
H18 C17 1_555 1_555
C18 C17 1_555 1_555
H19 C18 1_555 1_555
H20 C18 1_555 1_555
H21 C18 1_555 1_555
C19 H22 1_555 1_555
H23 C19 1_555 1_555
C20 C19 1_555 1_555
H24 C20 1_555 1_555
H25 C20 1_555 1_555
H26 C20 1_555 1_555
N1 C10 1_555 1_555
N2 C12 1_555 1_555
O1 C6 1_555 1_555
O2 C6 1_555 1_555
O3 C7 1_555 1_555
O4 C7 1_555 1_555
O5 C8 1_555 1_555
O6 C8 1_555 1_555
O7 C9 1_555 1_555
O8 C9 1_555 1_555
C13 O1 1_555 1_555
C15 O3 1_555 1_555
C17 O5 1_555 1_555
C19 O7 1_555 1_555

#END
