
#######################################################################
#
#                 Cambridge Crystallographic Data Centre
#                                CCDC 
#
#######################################################################
#
# If this CIF has been generated from an entry in the Cambridge 
# Structural Database, then it will include bibliographic, chemical, 
# crystal, experimental, refinement or atomic coordinate data resulting 
# from the CCDC's data processing and validation procedures.
#
#######################################################################

data_KAZXOB
_chemical_formula_moiety         
'2(C139 H135 F8 N23 O21),C33 H50 N2 O4,0.39(C6 H14),4.51(C1 H1 Cl3),0.97(H2 O1)'
_chemical_name_systematic        
'(3)-bis(t-butyl (8-fluoro-2-((8-fluoro-2-((8-fluoro-2-((8-fluoro-2-((8-fluoro-2-((8-fluoro-2-((8-fluoro-2-((8-fluoro-4-isobutoxy-2-((6-(6-((6-pivalamidopyridin-2-yl)carbamoyl)picolinamido)pyridin-2-yl)carbamoyl)quinolin-7-yl)carbamoyl)-4-isobutoxyquinolin-7-yl)carbamoyl)-4-isobutoxyquinolin-7-yl)carbamoyl)-4-isobutoxyquinolin-7-yl)carbamoyl)-4-isobutoxyquinolin-7-yl)carbamoyl)-4-isobutoxyquinolin-7-yl)carbamoyl)-4-isobutoxyquinolin-7-yl)carbamoyl)-4-isobutoxyquinolin-7-yl)carbamate)-(butyl (4,4-diphenylbutyl) undecane-1,11-diyldicarbamate)-pseudorotaxane foldaxane chloroform hexane solvate hydrate'
_symmetry_cell_setting           triclinic
_symmetry_space_group_name_H-M   'P -1'
_symmetry_Int_Tables_number      2
_space_group_name_Hall           '-P 1'
loop_
_symmetry_equiv_pos_site_id
_symmetry_equiv_pos_as_xyz
1 x,y,z
2 -x,-y,-z
_cell_length_a                   22.2888(16)
_cell_length_b                   22.9540(16)
_cell_length_c                   33.748(2)
_cell_angle_alpha                81.019(2)
_cell_angle_beta                 80.632(2)
_cell_angle_gamma                73.048(2)
_cell_volume                     16187.2
_exptl_crystal_colour            yellow
_exptl_crystal_description       prism
_cell_formula_units_Z            2
loop_
_atom_site_label
_atom_site_type_symbol
_atom_site_fract_x
_atom_site_fract_y
_atom_site_fract_z
C1 C 0.6779(8) 1.0203(7) 0.5032(4)
N1 N 0.7331(5) 0.9763(5) 0.4999(3)
H1 H 0.7307 0.9389 0.4989
O1 O 0.6747(5) 1.0729(5) 0.5007(3)
F1 F 0.6409(3) 0.8372(2) 0.60308(14)
N2 N 0.8372(5) 0.9292(4) 0.5007(2)
C2 C 0.8970(7) 0.9287(6) 0.4991(3)
C3 C 0.9161(7) 0.9825(7) 0.4945(4)
H2 H 0.9591 0.9815 0.4940
C4 C 0.8702(9) 1.0363(7) 0.4908(5)
H3 H 0.8816 1.0738 0.4868
C5 C 0.8077(8) 1.0378(6) 0.4927(4)
H4 H 0.7759 1.0757 0.4906
C6 C 0.7919(7) 0.9832(6) 0.4978(3)
O2 O 1.0318(4) 0.8921(5) 0.5013(3)
F2 F 0.7255(3) 0.9434(2) 0.67683(18)
N3 N 0.9393(5) 0.8702(5) 0.5019(3)
H5 H 0.9227 0.8392 0.5042
O3 O 1.0294(4) 0.5887(4) 0.4974(2)
F3 F 0.9306(3) 0.8080(2) 0.70838(18)
N4 N 1.0033(5) 0.7475(5) 0.5025(2)
C7 C 1.0357(6) 0.7886(7) 0.5028(3)
C8 C 1.1015(8) 0.7725(8) 0.5031(4)
H6 H 1.1231 0.8023 0.5041
C9 C 1.1337(6) 0.7104(9) 0.5017(4)
H7 H 1.1784 0.6974 0.5004
C10 C 1.1018(7) 0.6700(7) 0.5023(3)
H8 H 1.1241 0.6278 0.5028
C11 C 1.0365(6) 0.6873(7) 0.5021(3)
O4 O 0.6638(3) 0.6286(3) 0.5017(2)
F4 F 0.9012(3) 0.6161(2) 0.71231(16)
N5 N 0.9367(5) 0.6631(4) 0.5063(2)
H9 H 0.9213 0.7020 0.5100
O5 O 0.4526(4) 0.9959(3) 0.6423(2)
F5 F 0.6755(3) 0.6352(2) 0.76441(15)
N6 N 0.8327(5) 0.6641(4) 0.5128(2)
C12 C 0.8928(6) 0.6312(5) 0.5059(3)
C13 C 0.9090(6) 0.5690(5) 0.4982(3)
H10 H 0.9519 0.5461 0.4929
C14 C 0.8600(7) 0.5429(5) 0.4987(3)
H11 H 0.8690 0.5014 0.4937
C15 C 0.7988(6) 0.5770(5) 0.5064(3)
H12 H 0.7648 0.5596 0.5069
C16 C 0.7871(6) 0.6372(5) 0.5134(3)
O6 O 0.8173(4) 1.0816(3) 0.7260(2)
F6 F 0.6089(3) 0.7965(2) 0.85169(15)
C17 C 1.0024(7) 0.8554(8) 0.5015(4)
N7 N 0.7266(5) 0.6750(3) 0.5241(2)
H13 H 0.7252 0.7077 0.5352
O7 O 1.1506(5) 0.6851(4) 0.6981(2)
F7 F 0.7916(3) 0.7752(2) 0.90376(17)
O8 O 0.8712(4) 0.4230(3) 0.6856(2)
F8 F 0.8789(3) 0.5655(2) 0.90955(16)
N8 N 0.5459(4) 0.9207(3) 0.6385(2)
H14 H 0.5841 0.9095 0.6458
O9 O 0.4455(4) 0.6872(3) 0.7714(2)
O10 O 0.5506(3) 0.9873(3) 0.91345(19)
N9 N 0.7894(5) 0.9982(4) 0.7136(3)
H15 H 0.8046 0.9596 0.7091
O11 O 1.0091(4) 0.7645(3) 0.9190(2)
O12 O 0.9693(5) 0.3460(4) 0.9087(3)
C18 C 0.9991(7) 0.6419(6) 0.5018(3)
N10 N 1.0434(4) 0.7279(4) 0.7074(2)
H16 H 1.0078 0.7178 0.7092
O13 O 0.8649(5) 0.3761(3) 0.9033(2)
N11 N 0.8680(5) 0.5141(4) 0.7076(2)
H17 H 0.8415 0.5470 0.7171
N12 N 0.5489(5) 0.6721(4) 0.7788(2)
H18 H 0.5738 0.6865 0.7899
C19 C 0.6704(6) 0.6681(5) 0.5197(3)
N13 N 0.5888(4) 0.8906(3) 0.8932(2)
H19 H 0.6231 0.8595 0.8927
C20 C 0.5072(6) 0.9762(5) 0.6500(3)
C21 C 0.8326(7) 1.0264(6) 0.7204(3)
C22 C 1.0982(7) 0.6815(6) 0.7016(3)
N14 N 0.9123(5) 0.7537(4) 0.9144(2)
H20 H 0.8941 0.7261 0.9107
C23 C 0.8402(7) 0.4722(5) 0.6985(3)
N15 N 0.9145(5) 0.4468(4) 0.9009(2)
H21 H 0.8770 0.4712 0.8968
C24 C 0.4860(6) 0.7026(4) 0.7835(3)
C25 C 0.5942(6) 0.9417(5) 0.9079(3)
C26 C 0.9744(6) 0.7322(4) 0.9158(3)
C27 C 0.9209(7) 0.3854(5) 0.9047(3)
N16 N 0.6255(4) 0.7544(4) 0.5586(2)
C28 C 0.6142(5) 0.7146(5) 0.5377(3)
C29 C 0.5542(6) 0.7101(5) 0.5339(3)
H22 H 0.5502 0.6797 0.5191
C30 C 0.5005(6) 0.7499(5) 0.5517(3)
C31 C 0.5094(5) 0.7939(5) 0.5736(3)
C32 C 0.4601(5) 0.8383(4) 0.5924(3)
H23 H 0.4177 0.8396 0.5901
C33 C 0.4699(5) 0.8786(4) 0.6133(3)
H24 H 0.4348 0.9070 0.6261
C34 C 0.5317(5) 0.8797(4) 0.6165(3)
C35 C 0.5802(5) 0.8374(4) 0.5994(3)
C36 C 0.5725(5) 0.7939(4) 0.5765(3)
N17 N 0.5987(4) 0.9862(3) 0.6725(2)
C37 C 0.5380(5) 1.0087(4) 0.6700(3)
C38 C 0.4997(5) 1.0628(4) 0.6867(3)
H25 H 0.4556 1.0767 0.6849
C39 C 0.5286(6) 1.0941(5) 0.7055(3)
C40 C 0.5930(6) 1.0714(4) 0.7092(3)
C41 C 0.6265(7) 1.0980(5) 0.7287(3)
H26 H 0.6040 1.1339 0.7411
C42 C 0.6894(6) 1.0764(4) 0.7312(3)
H27 H 0.7097 1.0970 0.7449
C43 C 0.7248(6) 1.0225(5) 0.7131(3)
C44 C 0.6914(6) 0.9951(4) 0.6945(3)
C45 C 0.6266(6) 1.0168(4) 0.6919(3)
N18 N 0.9062(4) 0.9285(4) 0.7150(2)
C46 C 0.8992(5) 0.9860(5) 0.7186(3)
C47 C 0.9472(7) 1.0138(5) 0.7209(3)
H28 H 0.9377 1.0563 0.7233
C48 C 1.0069(8) 0.9777(7) 0.7196(4)
C49 C 1.0202(6) 0.9133(6) 0.7171(3)
C50 C 1.0814(6) 0.8712(6) 0.7179(4)
H29 H 1.1167 0.8850 0.7205
C51 C 1.0888(6) 0.8109(6) 0.7149(3)
H30 H 1.1296 0.7829 0.7156
C52 C 1.0380(6) 0.7888(6) 0.7108(3)
C53 C 0.9785(6) 0.8299(5) 0.7119(3)
C54 C 0.9675(6) 0.8922(5) 0.7151(3)
N19 N 1.0225(5) 0.6220(4) 0.7042(2)
C55 C 1.0831(7) 0.6227(6) 0.6979(3)
C56 C 1.1360(6) 0.5720(5) 0.6892(3)
H31 H 1.1782 0.5748 0.6850
C57 C 1.1208(7) 0.5174(5) 0.6873(3)
C58 C 1.0587(6) 0.5131(5) 0.6947(3)
C59 C 1.0416(7) 0.4589(5) 0.6936(3)
H32 H 1.0739 0.4223 0.6888
C60 C 0.9816(6) 0.4573(5) 0.6991(3)
H33 H 0.9723 0.4193 0.6998
C61 C 0.9301(6) 0.5124(5) 0.7042(3)
C62 C 0.9470(6) 0.5651(5) 0.7052(3)
C63 C 1.0087(6) 0.5678(5) 0.7014(3)
N20 N 0.7421(5) 0.5373(4) 0.7245(2)
C64 C 0.7690(6) 0.4884(5) 0.7058(3)
C65 C 0.7388(7) 0.4532(5) 0.6908(3)
H34 H 0.7624 0.4191 0.6769
C66 C 0.6755(8) 0.4684(5) 0.6964(4)
C67 C 0.6404(7) 0.5173(4) 0.7172(3)
C68 C 0.5759(7) 0.5364(5) 0.7248(3)
H35 H 0.5524 0.5137 0.7156
C69 C 0.5426(6) 0.5863(4) 0.7449(3)
H36 H 0.4977 0.5974 0.7496
C70 C 0.5780(6) 0.6212(4) 0.7585(3)
C71 C 0.6419(6) 0.6028(4) 0.7512(3)
C72 C 0.6766(6) 0.5520(4) 0.7312(3)
N21 N 0.5175(4) 0.7678(3) 0.8214(2)
C73 C 0.4710(6) 0.7565(4) 0.8070(3)
C74 C 0.4090(6) 0.7924(5) 0.8105(3)
H37 H 0.3778 0.7825 0.7987
C75 C 0.3934(6) 0.8424(5) 0.8314(3)
C76 C 0.4382(5) 0.8561(4) 0.8483(3)
C77 C 0.4285(5) 0.9063(4) 0.8708(3)
H38 H 0.3870 0.9328 0.8751
C78 C 0.4748(5) 0.9183(4) 0.8864(3)
H39 H 0.4653 0.9516 0.9020
C79 C 0.5381(5) 0.8811(4) 0.8794(3)
C80 C 0.5487(5) 0.8322(4) 0.8586(3)
C81 C 0.5012(5) 0.8171(4) 0.8421(3)
N22 N 0.7033(4) 0.8832(4) 0.9109(2)
C82 C 0.6611(6) 0.9355(5) 0.9155(3)
C83 C 0.6750(6) 0.9876(4) 0.9252(3)
H40 H 0.6424 1.0246 0.9284
C84 C 0.7343(6) 0.9843(5) 0.9298(3)
C85 C 0.7818(6) 0.9278(5) 0.9265(3)
C86 C 0.8461(6) 0.9170(5) 0.9304(3)
H41 H 0.8598 0.9504 0.9354
C87 C 0.8906(6) 0.8612(5) 0.9273(3)
H42 H 0.9331 0.8558 0.9316
C88 C 0.8712(6) 0.8118(5) 0.9176(3)
C89 C 0.8097(6) 0.8216(5) 0.9127(3)
C90 C 0.7634(5) 0.8785(5) 0.9161(3)
N23 N 0.9586(4) 0.6355(4) 0.9103(2)
C91 C 1.0017(6) 0.6652(4) 0.9101(3)
C92 C 1.0651(6) 0.6397(6) 0.9064(3)
H43 H 1.0926 0.6640 0.9076
C93 C 1.0897(5) 0.5788(6) 0.9011(3)
C94 C 1.0483(5) 0.5424(5) 0.9024(3)
C95 C 1.0681(5) 0.4783(5) 0.8995(3)
H44 H 1.1119 0.4575 0.8975
C96 C 1.0261(6) 0.4468(5) 0.8996(3)
H45 H 1.0409 0.4041 0.8974
C97 C 0.9611(6) 0.4749(5) 0.9029(3)
C98 C 0.9416(6) 0.5379(6) 0.9057(3)
C99 C 0.9822(5) 0.5731(5) 0.9059(3)
C100 C 0.4295(6) 0.7076(6) 0.5289(4)
H46 H 0.4502 0.6651 0.5397
H47 H 0.4458 0.7143 0.4999
O14 O 0.4411(4) 0.7512(3) 0.5512(2)
C101 C 0.3554(7) 0.7198(6) 0.5346(5)
H48 H 0.3396 0.7136 0.5641
O15 O 0.5004(3) 1.1461(3) 0.7213(2)
C102 C 0.3267(8) 0.7851(6) 0.5177(5)
H49 H 0.3441 0.8127 0.5289
H50 H 0.2807 0.7958 0.5249
H51 H 0.3367 0.7893 0.4882
O16 O 1.0585(5) 0.9975(4) 0.7196(3)
C103 C 0.3420(9) 0.6694(9) 0.5113(6)
H52 H 0.3491 0.6807 0.4821
H53 H 0.2981 0.6678 0.5192
H54 H 0.3706 0.6291 0.5186
O17 O 1.1654(4) 0.4644(3) 0.6768(2)
C104 C 0.4378(7) 1.1775(6) 0.7126(4)
H55 H 0.4070 1.1573 0.7292
H56 H 0.4344 1.1775 0.6837
O18 O 0.6389(5) 0.4385(3) 0.6837(3)
C105 C 0.4244(10) 1.2453(9) 0.7229(6)
H57 H 0.4283 1.2475 0.7517
O19 O 0.3345(4) 0.8819(3) 0.8348(2)
C106 C 0.4656(9) 1.2746(9) 0.6941(6)
H58 H 0.5098 1.2528 0.6971
H59 H 0.4574 1.3173 0.6992
H60 H 0.4574 1.2736 0.6666
O20 O 0.7550(4) 1.0303(3) 0.9375(2)
O21 O 1.1512(4) 0.5479(3) 0.8965(2)
C107 C 0.366(2) 1.275(2) 0.7124(15)
H61 H 0.3698 1.3033 0.6878
H62 H 0.3407 1.2980 0.7344
H63 H 0.3453 1.2450 0.7075
C108 C 1.0539(6) 1.0618(8) 0.7164(5)
H64 H 1.0340 1.0774 0.7425
H65 H 1.0264 1.0841 0.6955
C109 C 1.1179(6) 1.0739(7) 0.7055(4)
H66 H 1.1469 1.0477 0.7251
C110 C 1.1035(12) 1.1400(7) 0.7130(8)
H67 H 1.0692 1.1651 0.6977
H68 H 1.1414 1.1545 0.7042
H69 H 1.0906 1.1435 0.7419
C111 C 1.1472(9) 1.0608(9) 0.6631(4)
H70 H 1.1552 1.0170 0.6610
H71 H 1.1872 1.0720 0.6570
H72 H 1.1182 1.0848 0.6439
C112 C 1.2286(7) 0.4707(6) 0.6591(4)
H73 H 1.2515 0.4777 0.6799
H74 H 1.2253 0.5051 0.6371
C113 C 1.2627(7) 0.4090(7) 0.6423(4)
H75 H 1.2631 0.3740 0.6642
C114 C 1.3303(9) 0.4130(9) 0.6270(6)
H76 H 1.3288 0.4503 0.6081
H77 H 1.3536 0.3771 0.6131
H78 H 1.3517 0.4142 0.6499
C115 C 1.2323(6) 0.4011(6) 0.6074(4)
H79 H 1.1888 0.3995 0.6169
H80 H 1.2564 0.3629 0.5962
H81 H 1.2320 0.4358 0.5864
C116 C 0.6694(7) 0.3922(8) 0.6577(5)
H82 H 0.7000 0.3582 0.6718
H83 H 0.6925 0.4094 0.6333
C117 C 0.6183(8) 0.3693(8) 0.6463(6)
H84 H 0.5970 0.3486 0.6704
C118 C 0.5706(10) 0.4181(10) 0.6234(7)
H85 H 0.5437 0.4469 0.6419
H86 H 0.5444 0.3989 0.6120
H87 H 0.5929 0.4403 0.6015
C119 C 0.6515(14) 0.3252(11) 0.6157(7)
H88 H 0.6882 0.3375 0.6007
H89 H 0.6222 0.3257 0.5968
H90 H 0.6656 0.2837 0.6296
C120 C 0.2862(6) 0.8732(6) 0.8127(4)
H91 H 0.3034 0.8702 0.7839
H92 H 0.2756 0.8345 0.8241
C121 C 0.2297(7) 0.9241(6) 0.8157(4)
H93 H 0.2121 0.9286 0.8447
C122 C 0.1820(7) 0.9094(7) 0.7927(4)
H94 H 0.2039 0.8939 0.7672
H95 H 0.1482 0.9467 0.7869
H96 H 0.1639 0.8782 0.8094
C123 C 0.2472(7) 0.9839(6) 0.7942(4)
H97 H 0.2831 0.9886 0.8056
H98 H 0.2108 1.0196 0.7985
H99 H 0.2587 0.9808 0.7652
C124 C 0.7090(6) 1.0917(5) 0.9355(4)
H100 H 0.6714 1.0922 0.9557
H101 H 0.6953 1.1044 0.9083
C125 C 0.7471(7) 1.1347(6) 0.9452(4)
H102 H 0.7614 1.1221 0.9726
C126 C 0.8028(7) 1.1360(7) 0.9121(4)
H103 H 0.8326 1.0950 0.9123
H104 H 0.8241 1.1654 0.9171
H105 H 0.7871 1.1482 0.8857
C127 C 0.6961(8) 1.2019(8) 0.9426(5)
H106 H 0.6798 1.2109 0.9164
H107 H 0.7166 1.2330 0.9456
H108 H 0.6610 1.2021 0.9644
C128 C 1.1970(6) 0.5800(5) 0.8927(4)
H109 H 1.1944 0.5982 0.9178
H110 H 1.1903 0.6134 0.8701
C129 C 1.2591(7) 0.5356(7) 0.8848(5)
H111 H 1.2635 0.5060 0.9099
C130 C 1.2701(12) 0.5018(11) 0.8555(8)
H112 H 1.2404 0.4765 0.8602
H113 H 1.3135 0.4752 0.8544
H114 H 1.2646 0.5281 0.8298
C131 C 1.3108(8) 0.5652(7) 0.8821(5)
H115 H 1.3044 0.6008 0.8614
H116 H 1.3515 0.5358 0.8748
H117 H 1.3107 0.5786 0.9083
C132 C 0.6169(6) 0.9999(5) 0.5102(3)
C133 C 0.5921(11) 1.0049(11) 0.5520(7)
H118 H 0.6150 0.9691 0.5688
H119 H 0.5471 1.0066 0.5558
H120 H 0.5973 1.0423 0.5599
C134 C 0.6239(8) 0.9300(8) 0.5059(5)
H121 H 0.6417 0.9215 0.4782
H122 H 0.5823 0.9221 0.5120
H123 H 0.6521 0.9033 0.5248
C135 C 0.5728(9) 1.0361(10) 0.4800(5)
H124 H 0.5661 1.0800 0.4808
H125 H 0.5323 1.0261 0.4866
H126 H 0.5916 1.0256 0.4528
C136 C 0.8562(8) 0.3145(5) 0.9075(4)
C137 C 0.7861(7) 0.3289(6) 0.9019(4)
H127 H 0.7601 0.3540 0.9227
H128 H 0.7741 0.2905 0.9044
H129 H 0.7793 0.3513 0.8751
C138 C 0.8671(7) 0.2825(5) 0.9503(4)
H130 H 0.9061 0.2878 0.9573
H131 H 0.8710 0.2387 0.9512
H132 H 0.8313 0.3007 0.9697
C139 C 0.9003(7) 0.2787(6) 0.8744(4)
H133 H 0.8920 0.3013 0.8478
H134 H 0.8928 0.2383 0.8761
H135 H 0.9443 0.2736 0.8781
C140 C 0.6938(7) 0.4461(6) 0.9971(4)
N24 N 0.7207(5) 0.4909(5) 0.9950(3)
H136 H 0.6945 0.5278 0.9912
O22 O 0.7242(5) 0.3908(5) 1.0017(3)
F9 F 0.5845(3) 0.6396(2) 0.90350(16)
N25 N 0.7878(5) 0.5432(6) 0.9999(3)
C141 C 0.7833(6) 0.4915(8) 0.9976(3)
C142 C 0.8325(8) 0.4368(7) 0.9970(3)
H137 H 0.8258 0.3984 0.9951
C143 C 0.8903(7) 0.4434(8) 0.9996(3)
H138 H 0.9255 0.4081 0.9992
C144 C 0.9000(6) 0.4979(8) 1.0025(3)
H139 H 0.9407 0.5014 1.0049
C145 C 0.8461(7) 0.5495(7) 1.0020(3)
O23 O 0.9536(4) 0.5940(4) 1.0034(2)
F10 F 0.7828(3) 0.5284(3) 0.83412(17)
N26 N 0.8480(5) 0.6088(5) 1.0062(2)
H140 H 0.8115 0.6369 1.0088
O24 O 0.7479(4) 0.8838(4) 1.0279(3)
F11 F 0.9314(4) 0.6560(3) 0.81278(19)
N27 N 0.8299(5) 0.7299(5) 1.0138(2)
C146 C 0.8875(6) 0.6919(7) 1.0137(3)
C147 C 0.9380(7) 0.7092(9) 1.0216(4)
H141 H 0.9782 0.6802 1.0230
C148 C 0.9296(8) 0.7681(11) 1.0274(6)
H142 H 0.9647 0.7817 1.0306
C149 C 0.8681(7) 0.8100(7) 1.0286(5)
H143 H 0.8600 0.8510 1.0342
C150 C 0.8218(5) 0.7871(6) 1.0211(4)
O25 O 0.4169(3) 0.8625(3) 0.9869(2)
F12 F 0.7958(3) 0.8529(3) 0.80637(19)
N28 N 0.7096(4) 0.8109(4) 1.0116(2)
H144 H 0.7204 0.7727 1.0061
O26 O 0.5154(6) 0.4967(4) 0.8428(3)
F13 F 0.6169(3) 0.8444(2) 0.74247(15)
N29 N 0.6117(4) 0.8151(4) 0.9959(2)
C151 C 0.6455(5) 0.8434(5) 1.0106(3)
C152 C 0.6194(5) 0.9015(5) 1.0237(3)
H145 H 0.6448 0.9217 1.0334
C153 C 0.5561(6) 0.9284(5) 1.0222(3)
H146 H 0.5368 0.9677 1.0310
C154 C 0.5206(5) 0.8980(5) 1.0077(3)
H147 H 0.4765 0.9155 1.0072
C155 C 0.5505(5) 0.8413(4) 0.9939(3)
O27 O 0.9816(5) 0.3830(4) 0.8007(2)
F14 F 0.7052(3) 0.6848(2) 0.66007(15)
C156 C 0.9003(7) 0.6267(7) 1.0066(3)
N30 N 0.5209(4) 0.8074(4) 0.9769(2)
H148 H 0.5454 0.7737 0.9674
O28 O 1.0808(6) 0.7726(5) 0.8208(3)
F15 F 0.9296(3) 0.6878(3) 0.60856(17)
O29 O 0.6431(4) 1.0476(4) 0.8323(2)
F16 F 0.9193(4) 0.8810(4) 0.5989(2)
N31 N 0.5658(5) 0.5620(4) 0.8589(2)
H149 H 0.6035 0.5666 0.8593
O30 O 0.4240(4) 0.8169(3) 0.70508(19)
O31 O 0.7914(4) 0.4928(4) 0.5998(3)
N32 N 0.8970(8) 0.4682(5) 0.8031(3)
H150 H 0.8874 0.5078 0.8050
O32 O 1.1577(4) 0.6669(4) 0.6001(2)
O33 O 0.8868(6) 1.0949(5) 0.6126(4)
C157 C 0.7569(5) 0.8317(6) 1.0202(4)
N33 N 0.9996(5) 0.7340(6) 0.8115(3)
H151 H 0.9585 0.7457 0.8105
O34 O 0.7987(5) 1.0730(4) 0.6029(3)
N34 N 0.7031(5) 0.9571(4) 0.8095(3)
H152 H 0.7010 0.9247 0.7995
N35 N 0.5236(4) 0.8191(4) 0.7153(2)
H153 H 0.5638 0.7989 0.7108
C158 C 0.4587(6) 0.8205(5) 0.9731(3)
N36 N 0.7687(5) 0.5924(4) 0.6173(2)
H154 H 0.7867 0.6205 0.6203
C159 C 0.5640(9) 0.5116(6) 0.8436(4)
C160 C 0.9612(10) 0.4382(8) 0.8013(3)
N37 N 1.0487(5) 0.6900(6) 0.6021(3)
H155 H 1.0153 0.7220 0.6032
C161 C 1.0246(9) 0.7791(8) 0.8179(4)
C162 C 0.6468(7) 1.0013(5) 0.8164(3)
N38 N 0.8830(6) 0.9985(5) 0.6088(4)
H156 H 0.8563 0.9761 0.6119
C163 C 0.4819(7) 0.7958(4) 0.7013(3)
C164 C 0.8085(7) 0.5340(7) 0.6065(3)
C165 C 1.1033(5) 0.7029(6) 0.6021(3)
C166 C 0.8613(9) 1.0539(8) 0.6070(4)
N39 N 0.4917(4) 0.7323(3) 0.9350(2)
C167 C 0.4441(5) 0.7763(4) 0.9497(3)
C168 C 0.3811(5) 0.7879(5) 0.9432(3)
H157 H 0.3494 0.8203 0.9550
C169 C 0.3651(6) 0.7516(5) 0.9194(3)
C170 C 0.4139(6) 0.7025(5) 0.9049(3)
C171 C 0.4038(6) 0.6636(5) 0.8800(3)
H158 H 0.3626 0.6707 0.8729
C172 C 0.4488(7) 0.6182(6) 0.8662(3)
H159 H 0.4391 0.5914 0.8509
C173 C 0.5142(6) 0.6077(5) 0.8740(3)
C174 C 0.5251(6) 0.6468(5) 0.8969(3)
C175 C 0.4750(6) 0.6958(4) 0.9127(3)
N40 N 0.6763(7) 0.4929(4) 0.8310(3)
C176 C 0.6287(9) 0.4725(5) 0.8290(4)
C177 C 0.6317(10) 0.4187(7) 0.8131(5)
H160 H 0.5947 0.4065 0.8126
C178 C 0.6890(12) 0.3851(6) 0.7986(5)
C179 C 0.7421(11) 0.4036(6) 0.7985(4)
C180 C 0.8036(12) 0.3723(8) 0.7823(5)
H161 H 0.8088 0.3365 0.7697
C181 C 0.8527(11) 0.3900(7) 0.7837(4)
H162 H 0.8933 0.3674 0.7728
C182 C 0.8455(10) 0.4459(6) 0.8025(4)
C183 C 0.7876(10) 0.4767(5) 0.8173(3)
C184 C 0.7318(10) 0.4587(5) 0.8166(4)
N41 N 0.9789(6) 0.5360(6) 0.8036(3)
C185 C 1.0052(9) 0.4768(7) 0.7997(3)
C186 C 1.0686(10) 0.4489(8) 0.7946(4)
H163 H 1.0839 0.4063 0.7923
C187 C 1.1077(9) 0.4822(9) 0.7930(4)
C188 C 1.0864(10) 0.5488(9) 0.7970(4)
C189 C 1.1231(8) 0.5900(10) 0.7950(4)
H164 H 1.1678 0.5756 0.7896
C190 C 1.0971(8) 0.6483(8) 0.8003(3)
H165 H 1.1228 0.6747 0.8004
C191 C 1.0294(8) 0.6713(8) 0.8060(3)
C192 C 0.9928(9) 0.6317(8) 0.8075(3)
C193 C 1.0187(8) 0.5706(8) 0.8032(3)
N42 N 0.9170(6) 0.8418(5) 0.8163(3)
C194 C 0.9747(9) 0.8385(7) 0.8215(4)
C195 C 0.9941(7) 0.8894(8) 0.8304(4)
H166 H 1.0366 0.8853 0.8341
C196 C 0.9486(10) 0.9435(9) 0.8332(5)
C197 C 0.8850(8) 0.9518(7) 0.8282(4)
C198 C 0.8374(9) 1.0059(7) 0.8295(4)
H167 H 0.8468 1.0420 0.8338
C199 C 0.7779(8) 1.0082(6) 0.8250(4)
H168 H 0.7455 1.0454 0.8276
C200 C 0.7630(7) 0.9569(5) 0.8164(3)
C201 C 0.8118(7) 0.9024(6) 0.8132(3)
C202 C 0.8732(8) 0.8976(6) 0.8187(3)
N43 N 0.6039(4) 0.9408(4) 0.7842(2)
C203 C 0.5919(6) 0.9882(5) 0.8038(3)
C204 C 0.5328(7) 1.0293(5) 0.8135(3)
H169 H 0.5288 1.0628 0.8280
C205 C 0.4800(7) 1.0196(5) 0.8014(3)
C206 C 0.4903(6) 0.9710(5) 0.7783(3)
C207 C 0.4408(6) 0.9599(5) 0.7629(3)
H170 H 0.4000 0.9877 0.7668
C208 C 0.4483(5) 0.9112(5) 0.7429(3)
H171 H 0.4131 0.9041 0.7338
C209 C 0.5106(6) 0.8702(4) 0.7355(3)
C210 C 0.5595(6) 0.8827(4) 0.7495(3)
C211 C 0.5514(6) 0.9324(4) 0.7713(3)
N44 N 0.5750(5) 0.7236(3) 0.6742(2)
C212 C 0.5145(6) 0.7397(4) 0.6800(3)
C213 C 0.4770(6) 0.7103(5) 0.6671(3)
H172 H 0.4324 0.7248 0.6730
C214 C 0.5020(6) 0.6608(5) 0.6460(3)
C215 C 0.5686(7) 0.6419(5) 0.6372(3)
C216 C 0.6031(7) 0.5931(5) 0.6153(3)
H173 H 0.5803 0.5710 0.6049
C217 C 0.6669(7) 0.5757(5) 0.6079(3)
H174 H 0.6876 0.5428 0.5924
C218 C 0.7025(6) 0.6064(5) 0.6233(3)
C219 C 0.6705(6) 0.6548(5) 0.6445(3)
C220 C 0.6040(6) 0.6742(5) 0.6532(3)
N45 N 0.8927(5) 0.5842(6) 0.6056(2)
C221 C 0.8760(8) 0.5330(6) 0.6030(3)
C222 C 0.9216(7) 0.4770(5) 0.5993(3)
H175 H 0.9077 0.4420 0.5978
C223 C 0.9834(8) 0.4697(7) 0.5977(3)
C224 C 1.0037(7) 0.5235(7) 0.5970(3)
C225 C 1.0686(7) 0.5294(8) 0.5933(3)
H176 H 1.1016 0.4930 0.5894
C226 C 1.0864(6) 0.5791(7) 0.5949(3)
H177 H 1.1295 0.5791 0.5925
C227 C 1.0345(9) 0.6333(7) 0.6005(3)
C228 C 0.9744(7) 0.6322(8) 0.6033(3)
C229 C 0.9543(8) 0.5815(6) 0.6021(3)
N46 N 1.0365(5) 0.8061(5) 0.6035(3)
C230 C 1.0970(6) 0.7693(7) 0.6054(3)
C231 C 1.1471(7) 0.7904(7) 0.6108(4)
H178 H 1.1885 0.7636 0.6114
C232 C 1.1354(8) 0.8483(8) 0.6151(4)
C233 C 1.0768(8) 0.8916(7) 0.6109(4)
C234 C 1.0632(8) 0.9547(7) 0.6140(4)
H179 H 1.0959 0.9716 0.6177
C235 C 1.0014(8) 0.9930(7) 0.6116(5)
H180 H 0.9920 1.0357 0.6134
C236 C 0.9523(8) 0.9659(7) 0.6062(4)
C237 C 0.9652(8) 0.9070(8) 0.6020(4)
C238 C 1.0271(7) 0.8654(7) 0.6060(3)
C239 C 0.2551(6) 0.8034(6) 0.9276(4)
H181 H 0.2610 0.8449 0.9198
H182 H 0.2493 0.7954 0.9574
O35 O 0.3077(4) 0.7583(3) 0.9107(2)
C240 C 0.1989(6) 0.7978(6) 0.9102(5)
H183 H 0.2033 0.8051 0.8800
O36 O 0.7036(7) 0.3318(4) 0.7799(4)
C241 C 0.1427(10) 0.8430(11) 0.9301(8)
H184 H 0.1282 0.8239 0.9566
H185 H 0.1084 0.8549 0.9130
H186 H 0.1549 0.8794 0.9335
O37 O 1.1767(6) 0.4661(5) 0.7872(3)
C242 C 0.1856(9) 0.7372(6) 0.9268(5)
H187 H 0.2214 0.7036 0.9177
H188 H 0.1473 0.7350 0.9170
H189 H 0.1794 0.7336 0.9564
O38 O 0.9578(5) 0.9972(6) 0.8418(4)
C243 C 0.6493(14) 0.3087(10) 0.7852(9)
H190 H 0.6196 0.3339 0.7663
H191 H 0.6277 0.3136 0.8130
C244 C 0.6640(18) 0.2423(11) 0.7785(8)
H192 H 0.6275 0.2242 0.7816
C245 C 0.7232(16) 0.2035(16) 0.7984(10)
H193 H 0.7563 0.2250 0.7929
H194 H 0.7391 0.1639 0.7875
H195 H 0.7111 0.1968 0.8276
C246 C 0.7034(12) 0.2427(13) 0.7376(7)
H196 H 0.6758 0.2518 0.7163
H197 H 0.7339 0.2025 0.7353
H198 H 0.7260 0.2742 0.7346
O39 O 0.4213(4) 1.0546(3) 0.8093(2)
O40 O 0.4715(4) 0.6272(3) 0.6317(2)
O41 O 1.0320(3) 0.4177(4) 0.59692(19)
O42 O 1.1811(5) 0.8760(4) 0.6223(3)
C247 C 1.2026(9) 0.3999(9) 0.7842(6)
H199 H 1.1823 0.3760 0.8066
H200 H 1.1960 0.3899 0.7581
C248 C 1.2718(11) 0.3866(8) 0.7869(6)
H201 H 1.2881 0.3438 0.7795
C249 C 1.3070(10) 0.4211(10) 0.7540(6)
H202 H 1.3343 0.3926 0.7355
H203 H 1.3328 0.4399 0.7661
H204 H 1.2766 0.4532 0.7390
C250 C 1.270(3) 0.378(3) 0.8323(6)
H205 H 1.2262 0.3847 0.8447
H206 H 1.2886 0.4074 0.8406
H207 H 1.2943 0.3361 0.8413
C251 C 1.0166(11) 0.9955(9) 0.8514(6)
H208 H 1.0455 1.0001 0.8263
H209 H 1.0349 0.9555 0.8668
C252 C 1.0098(9) 1.0467(8) 0.8764(7)
H210 H 0.9866 1.0444 0.9043
C253 C 1.0767(9) 1.0519(16) 0.8717(13)
H211 H 1.1050 1.0155 0.8848
H212 H 1.0765 1.0883 0.8835
H213 H 1.0914 1.0567 0.8427
C254 C 0.9883(13) 1.1042(10) 0.8480(7)
H214 H 1.0042 1.0957 0.8201
H215 H 1.0046 1.1365 0.8544
H216 H 0.9420 1.1178 0.8511
C255 C 0.4095(6) 1.1015(6) 0.8381(4)
H217 H 0.4248 1.1369 0.8246
H218 H 0.4326 1.0834 0.8617
C256 C 0.3367(9) 1.1233(7) 0.8522(5)
H219 H 0.3223 1.0912 0.8719
C257 C 0.3296(9) 1.1800(7) 0.8720(5)
H220 H 0.3365 1.1682 0.9005
H221 H 0.2869 1.2074 0.8704
H222 H 0.3607 1.2012 0.8581
C258 C 0.3001(14) 1.1406(19) 0.8162(7)
H223 H 0.3297 1.1398 0.7913
H224 H 0.2714 1.1819 0.8174
H225 H 0.2756 1.1112 0.8166
C259 C 0.4030(6) 0.6421(6) 0.6418(4)
H226 H 0.3836 0.6831 0.6279
H227 H 0.3919 0.6437 0.6713
C260 C 0.3776(8) 0.5959(7) 0.6294(5)
H228 H 0.3909 0.5944 0.5997
C261 C 0.3058(8) 0.6148(8) 0.6359(5)
H229 H 0.2912 0.6171 0.6648
H230 H 0.2900 0.5845 0.6264
H231 H 0.2899 0.6551 0.6208
C262 C 0.4059(8) 0.5352(8) 0.6500(5)
H232 H 0.4520 0.5250 0.6436
H233 H 0.3902 0.5045 0.6408
H234 H 0.3945 0.5354 0.6792
C263 C 1.0116(6) 0.3628(6) 0.6021(4)
H235 H 0.9900 0.3618 0.5789
H236 H 0.9816 0.3616 0.6271
C264 C 1.0700(6) 0.3076(6) 0.6049(4)
H237 H 1.1010 0.3122 0.5804
C265 C 1.0503(7) 0.2506(6) 0.6037(4)
H238 H 1.0124 0.2507 0.6230
H239 H 1.0845 0.2144 0.6108
H240 H 1.0411 0.2497 0.5764
C266 C 1.1012(6) 0.3054(6) 0.6414(4)
H241 H 1.1239 0.3370 0.6368
H242 H 1.1311 0.2650 0.6463
H243 H 1.0690 0.3128 0.6649
C267 C 1.2432(7) 0.8370(7) 0.6291(4)
H244 H 1.2644 0.8183 0.6042
H245 H 1.2393 0.8036 0.6509
C268 C 1.2811(8) 0.8724(7) 0.6405(5)
H246 H 1.3245 0.8445 0.6431
C269 C 1.2880(8) 0.9285(7) 0.6065(5)
H247 H 1.3008 0.9135 0.5799
H248 H 1.3200 0.9463 0.6125
H249 H 1.2473 0.9599 0.6063
C270 C 1.2575(8) 0.9008(8) 0.6790(5)
H250 H 1.2196 0.9349 0.6753
H251 H 1.2903 0.9161 0.6865
H252 H 1.2471 0.8700 0.7005
C271 C 0.6252(7) 0.4605(6) 0.9923(4)
C272 C 0.5987(8) 0.4069(7) 1.0058(5)
H253 H 0.6212 0.3736 0.9895
H254 H 0.5537 0.4191 1.0026
H255 H 0.6039 0.3930 1.0344
C273 C 0.6170(7) 0.4897(7) 0.9515(4)
H256 H 0.6406 0.5207 0.9447
H257 H 0.5721 0.5094 0.9497
H258 H 0.6329 0.4588 0.9325
C274 C 0.5874(10) 0.5059(10) 1.0225(6)
H259 H 0.6149 0.5085 1.0416
H260 H 0.5518 0.4916 1.0373
H261 H 0.5715 0.5465 1.0078
C275 C 0.7562(8) 1.1318(7) 0.6022(4)
C276 C 0.7805(8) 1.1731(6) 0.5646(4)
H262 H 0.8218 1.1770 0.5682
H263 H 0.7503 1.2139 0.5623
H264 H 0.7843 1.1541 0.5399
C277 C 0.6920(8) 1.1296(7) 0.5972(5)
H265 H 0.6954 1.0966 0.5810
H266 H 0.6694 1.1689 0.5836
H267 H 0.6688 1.1218 0.6239
C278 C 0.7535(8) 1.1557(7) 0.6405(4)
H268 H 0.7506 1.1235 0.6630
H269 H 0.7162 1.1909 0.6437
H270 H 0.7917 1.1685 0.6405
N47 N 0.6601(5) 0.6694(4) 0.9593(3)
H271 H 0.6267 0.6593 0.9549
O43 O 0.6238(6) 0.6515(5) 1.0217(3)
N48 N 0.7638(5) 0.7973(4) 0.5556(3)
H272 H 0.7230 0.8048 0.5546
O44 O 0.7120(4) 0.6833(4) 1.0087(3)
O45 O 0.8589(4) 0.7879(3) 0.5172(2)
O46 O 0.7666(4) 0.8261(4) 0.4906(3)
C279 C 0.4363(11) 0.6525(12) 1.0881(9)
H273 H 0.4495 0.6087 1.0849
H274 H 0.3987 0.6728 1.0746
H275 H 0.4266 0.6577 1.1170
C280 C 0.4891(8) 0.6809(12) 1.0696(8)
H276 H 0.4732 0.7253 1.0722
H277 H 0.4957 0.6768 1.0403
C281 C 0.5536(8) 0.6593(14) 1.0839(8)
H278 H 0.5481 0.6775 1.1094
H279 H 0.5605 0.6147 1.0918
C282 C 0.6164(9) 0.6661(11) 1.0623(4)
H280 H 0.6184 0.7087 1.0620
H281 H 0.6511 0.6383 1.0767
C283 C 0.6705(6) 0.6691(6) 0.9973(5)
C284 C 0.7015(8) 0.6856(6) 0.9264(4)
H282 H 0.7327 0.7007 0.9367
H283 H 0.6771 0.7200 0.9088
C285 C 0.7360(5) 0.6357(5) 0.9018(3)
H284 H 0.7048 0.6198 0.8921
H285 H 0.7615 0.6019 0.9192
C286 C 0.7791(5) 0.6540(5) 0.8657(3)
H286 H 0.8060 0.6755 0.8749
H287 H 0.8074 0.6163 0.8550
C287 C 0.7461(5) 0.6947(5) 0.8315(3)
H288 H 0.7195 0.7334 0.8417
H289 H 0.7176 0.6741 0.8231
C288 C 0.7900(5) 0.7100(5) 0.7949(3)
H290 H 0.8185 0.6712 0.7860
H291 H 0.8165 0.7328 0.8031
C289 C 0.7582(6) 0.7476(5) 0.7589(4)
H292 H 0.7349 0.7232 0.7490
H293 H 0.7269 0.7848 0.7682
C290 C 0.8016(6) 0.7665(5) 0.7249(3)
H294 H 0.8381 0.7307 0.7198
H295 H 0.8178 0.7980 0.7333
C291 C 0.7742(5) 0.7921(5) 0.6857(3)
H296 H 0.7360 0.8263 0.6911
H297 H 0.7608 0.7597 0.6761
C292 C 0.8186(5) 0.8150(5) 0.6524(3)
H298 H 0.8590 0.7825 0.6491
H299 H 0.8279 0.8508 0.6605
C293 C 0.7930(5) 0.8334(4) 0.6122(3)
H300 H 0.7507 0.8629 0.6159
H301 H 0.8210 0.8544 0.5932
C294 C 0.7878(6) 0.7796(4) 0.5936(3)
H302 H 0.8301 0.7500 0.5899
H303 H 0.7596 0.7587 0.6124
C295 C 0.8021(8) 0.8026(5) 0.5218(5)
C296 C 0.8026(5) 0.8227(6) 0.4515(3)
H304 H 0.8279 0.7801 0.4483
H305 H 0.8315 0.8493 0.4475
C297 C 0.7545(5) 0.8446(6) 0.4219(3)
H306 H 0.7771 0.8421 0.3942
H307 H 0.7324 0.8883 0.4245
C298 C 0.7057(5) 0.8092(5) 0.4273(3)
H308 H 0.7270 0.7661 0.4226
H309 H 0.6844 0.8093 0.4554
C299 C 0.6571(5) 0.8368(6) 0.39839(18)
H310 H 0.6405 0.8812 0.4025
C300 C 0.5998(4) 0.8100(4) 0.4090(3)
C301 C 0.5402(4) 0.8495(3) 0.4042(3)
H311 H 0.5352 0.8922 0.3972
C302 C 0.4880(3) 0.8264(4) 0.4097(3)
H312 H 0.4472 0.8533 0.4064
C303 C 0.4953(4) 0.7639(5) 0.4200(3)
H313 H 0.4595 0.7481 0.4238
C304 C 0.5548(5) 0.7244(3) 0.4248(3)
H314 H 0.5598 0.6817 0.4319
C305 C 0.6071(4) 0.7475(3) 0.4193(3)
H315 H 0.6478 0.7206 0.4226
C306 C 0.6848(4) 0.8352(4) 0.35452(18)
C307 C 0.7191(5) 0.7795(3) 0.3409(2)
H316 H 0.7243 0.7428 0.3590
C308 C 0.7459(5) 0.7774(4) 0.3008(3)
H317 H 0.7693 0.7393 0.2915
C309 C 0.7383(4) 0.8312(5) 0.27428(18)
H318 H 0.7566 0.8298 0.2469
C310 C 0.7040(4) 0.8869(4) 0.2879(2)
H319 H 0.6989 0.9236 0.2698
C311 C 0.6772(4) 0.8889(3) 0.3280(3)
H320 H 0.6538 0.9270 0.3373
C312 C 0.7761(7) 0.9917(7) 1.0482(5)
H321 H 0.7790 0.9506 1.0405
Cl1 Cl 0.70026(19) 1.04148(18) 1.04176(12)
Cl2 Cl 0.8362(3) 1.0166(3) 1.02284(17)
Cl3 Cl 0.7808(5) 0.9851(5) 1.1008(3)
C313 C 0.4695(9) 0.4463(8) 0.7809(5)
H322 H 0.5063 0.4572 0.7881
Cl4 Cl 0.4462(4) 0.3921(4) 0.8188(3)
Cl5 Cl 0.4070(4) 0.5124(4) 0.7735(3)
Cl6 Cl 0.4884(3) 0.4176(3) 0.7372(2)
C314 C 0.6839(7) 0.4866(8) 0.4884(3)
H323 H 0.6923 0.5277 0.4845
Cl7 Cl 0.7168(6) 0.4497(6) 0.5325(3)
Cl8 Cl 0.7393(4) 0.4454(4) 0.4526(2)
Cl9 Cl 0.6107(8) 0.5009(7) 0.4746(5)
C315 C 0.5497(14) 0.1753(13) 0.8508(8)
H324 H 0.5737 0.1376 0.8379
Cl10 Cl 0.6062(7) 0.2080(7) 0.8638(4)
Cl11 Cl 0.5129(6) 0.2197(5) 0.8194(3)
Cl12 Cl 0.5091(6) 0.1519(6) 0.8964(4)
Cl13 Cl 0.3059(3) 0.7457(3) 0.72971(18)
Cl14 Cl 0.2924(4) 0.6239(4) 0.7567(2)
C316 C 0.3025(8) 0.6911(8) 0.7682(4)
H325 H 0.3455 0.6787 0.7773
Cl15 Cl 0.2507(3) 0.7143(3) 0.8112(2)
C317 C 0.8542(19) 0.2954(18) 0.6193(12)
H326 H 0.8926 0.2775 0.6017
H327 H 0.8448 0.3402 0.6151
H328 H 0.8187 0.2829 0.6130
C318 C 0.8635(16) 0.2748(15) 0.6596(10)
H329 H 0.8203 0.2856 0.6743
H330 H 0.8846 0.3036 0.6667
C319 C 0.8935(17) 0.2175(17) 0.6805(6)
H331 H 0.9351 0.2014 0.6648
H332 H 0.8680 0.1890 0.6797
C320 C 0.9047(11) 0.2137(12) 0.7239(6)
H333 H 0.9224 0.1704 0.7345
H334 H 0.8641 0.2301 0.7407
C321 C 0.9501(14) 0.2502(14) 0.7265(7)
H335 H 0.9291 0.2945 0.7205
H336 H 0.9872 0.2392 0.7058
C322 C 0.9721(19) 0.239(2) 0.7677(8)
H337 H 0.9361 0.2379 0.7886
H338 H 0.9904 0.2713 0.7711
H339 H 1.0042 0.1990 0.7702
C323 C 1.1015(7) 0.2708(9) 0.8414(3)
H340 H 1.0590 0.3014 0.8434
Cl16 Cl 1.1450(3) 0.2920(3) 0.8727(2)
Cl17 Cl 1.1285(4) 0.2707(3) 0.7898(3)
Cl18 Cl 1.0885(4) 0.2022(3) 0.8620(3)
O47 O 0.5320(10) 0.5354(10) 0.5346(6)
H341? H 0.3796 1.2676 0.7192
C324? C 0.436(2) 1.254(2) 0.7632(13)
H342? H 0.4129 1.2306 0.7841
H343? H 0.4206 1.2975 0.7669
H344? H 0.4811 1.2391 0.7655
H345? H 1.2598 0.5315 0.8556
C325? C 1.2809(17) 0.4740(16) 0.9004(11)
H346? H 1.2942 0.4716 0.9270
H347? H 1.3168 0.4532 0.8821
H348? H 1.2468 0.4541 0.9030
H349? H 1.2756 0.3999 0.8130
C326? C 1.2918(18) 0.3174(8) 0.7924(12)
H350? H 1.3061 0.3009 0.8189
H351? H 1.2545 0.3042 0.7901
H352? H 1.3256 0.3022 0.7711
O48? O 0.6546(10) 0.4760(9) 0.5260(6)
C327? C 0.2576(10) 0.6977(9) 0.7413(5)
H353? H 0.2283 0.7028 0.7207
Cl19? Cl 0.2198(7) 0.7284(6) 0.7861(4)
loop_
_geom_bond_atom_site_label_1
_geom_bond_atom_site_label_2
_geom_bond_site_symmetry_1
_geom_bond_site_symmetry_2
C1 N1 1_555 1_555
N1 H1 1_555 1_555
O1 C1 1_555 1_555
F1 C35 1_555 1_555
N2 C2 1_555 1_555
C2 C3 1_555 1_555
C3 H2 1_555 1_555
C4 C3 1_555 1_555
H3 C4 1_555 1_555
C5 C4 1_555 1_555
H4 C5 1_555 1_555
C6 N1 1_555 1_555
O2 C17 1_555 1_555
F2 C44 1_555 1_555
N3 C2 1_555 1_555
H5 N3 1_555 1_555
O3 C18 1_555 1_555
F3 C53 1_555 1_555
N4 C7 1_555 1_555
C7 C8 1_555 1_555
C8 H6 1_555 1_555
C9 C8 1_555 1_555
H7 C9 1_555 1_555
C10 C9 1_555 1_555
H8 C10 1_555 1_555
C11 N4 1_555 1_555
O4 C19 1_555 1_555
F4 C62 1_555 1_555
N5 H9 1_555 1_555
O5 C20 1_555 1_555
F5 C71 1_555 1_555
N6 C12 1_555 1_555
C12 N5 1_555 1_555
C13 C12 1_555 1_555
H10 C13 1_555 1_555
C14 C13 1_555 1_555
H11 C14 1_555 1_555
C15 C14 1_555 1_555
H12 C15 1_555 1_555
C16 N6 1_555 1_555
O6 C21 1_555 1_555
F6 C80 1_555 1_555
C17 N3 1_555 1_555
N7 C16 1_555 1_555
H13 N7 1_555 1_555
O7 C22 1_555 1_555
F7 C89 1_555 1_555
O8 C23 1_555 1_555
F8 C98 1_555 1_555
N8 H14 1_555 1_555
O9 C24 1_555 1_555
O10 C25 1_555 1_555
N9 H15 1_555 1_555
O11 C26 1_555 1_555
O12 C27 1_555 1_555
C18 C11 1_555 1_555
N10 H16 1_555 1_555
O13 C27 1_555 1_555
N11 H17 1_555 1_555
N12 H18 1_555 1_555
C19 N7 1_555 1_555
N13 H19 1_555 1_555
C20 N8 1_555 1_555
C21 N9 1_555 1_555
C22 N10 1_555 1_555
N14 H20 1_555 1_555
C23 N11 1_555 1_555
N15 H21 1_555 1_555
C24 N12 1_555 1_555
C25 N13 1_555 1_555
C26 N14 1_555 1_555
C27 N15 1_555 1_555
N16 C28 1_555 1_555
C28 C19 1_555 1_555
C29 C28 1_555 1_555
H22 C29 1_555 1_555
C30 C29 1_555 1_555
C31 C30 1_555 1_555
C32 C31 1_555 1_555
H23 C32 1_555 1_555
C33 C32 1_555 1_555
H24 C33 1_555 1_555
C34 N8 1_555 1_555
C35 C34 1_555 1_555
C36 N16 1_555 1_555
N17 C37 1_555 1_555
C37 C20 1_555 1_555
C38 C37 1_555 1_555
H25 C38 1_555 1_555
C39 C38 1_555 1_555
C40 C39 1_555 1_555
C41 C40 1_555 1_555
H26 C41 1_555 1_555
C42 C41 1_555 1_555
H27 C42 1_555 1_555
C43 N9 1_555 1_555
C44 C43 1_555 1_555
C45 N17 1_555 1_555
N18 C46 1_555 1_555
C46 C21 1_555 1_555
C47 C46 1_555 1_555
H28 C47 1_555 1_555
C48 C47 1_555 1_555
C49 C48 1_555 1_555
C50 C49 1_555 1_555
H29 C50 1_555 1_555
C51 C50 1_555 1_555
H30 C51 1_555 1_555
C52 N10 1_555 1_555
C53 C52 1_555 1_555
C54 N18 1_555 1_555
N19 C55 1_555 1_555
C55 C22 1_555 1_555
C56 C55 1_555 1_555
H31 C56 1_555 1_555
C57 C56 1_555 1_555
C58 C57 1_555 1_555
C59 C58 1_555 1_555
H32 C59 1_555 1_555
C60 C59 1_555 1_555
H33 C60 1_555 1_555
C61 N11 1_555 1_555
C62 C61 1_555 1_555
C63 N19 1_555 1_555
N20 C64 1_555 1_555
C64 C23 1_555 1_555
C65 C64 1_555 1_555
H34 C65 1_555 1_555
C66 C65 1_555 1_555
C67 C66 1_555 1_555
C68 C67 1_555 1_555
H35 C68 1_555 1_555
C69 C68 1_555 1_555
H36 C69 1_555 1_555
C70 N12 1_555 1_555
C71 C70 1_555 1_555
C72 N20 1_555 1_555
N21 C73 1_555 1_555
C73 C24 1_555 1_555
C74 C73 1_555 1_555
H37 C74 1_555 1_555
C75 C74 1_555 1_555
C76 C75 1_555 1_555
C77 C76 1_555 1_555
H38 C77 1_555 1_555
C78 C77 1_555 1_555
H39 C78 1_555 1_555
C79 N13 1_555 1_555
C80 C79 1_555 1_555
C81 N21 1_555 1_555
N22 C82 1_555 1_555
C82 C25 1_555 1_555
C83 C82 1_555 1_555
H40 C83 1_555 1_555
C84 C83 1_555 1_555
C85 C84 1_555 1_555
C86 C85 1_555 1_555
H41 C86 1_555 1_555
C87 C86 1_555 1_555
H42 C87 1_555 1_555
C88 N14 1_555 1_555
C89 C88 1_555 1_555
C90 N22 1_555 1_555
N23 C91 1_555 1_555
C91 C26 1_555 1_555
C92 C91 1_555 1_555
H43 C92 1_555 1_555
C93 C92 1_555 1_555
C94 C93 1_555 1_555
C95 C94 1_555 1_555
H44 C95 1_555 1_555
C96 C95 1_555 1_555
H45 C96 1_555 1_555
C97 N15 1_555 1_555
C98 C97 1_555 1_555
C99 N23 1_555 1_555
C100 H46 1_555 1_555
H47 C100 1_555 1_555
O14 C30 1_555 1_555
C101 C100 1_555 1_555
H48 C101 1_555 1_555
O15 C39 1_555 1_555
C102 C101 1_555 1_555
H49 C102 1_555 1_555
H50 C102 1_555 1_555
H51 C102 1_555 1_555
O16 C48 1_555 1_555
C103 C101 1_555 1_555
H52 C103 1_555 1_555
H53 C103 1_555 1_555
H54 C103 1_555 1_555
O17 C57 1_555 1_555
C104 O15 1_555 1_555
H55 C104 1_555 1_555
H56 C104 1_555 1_555
O18 C66 1_555 1_555
C105 C104 1_555 1_555
H57 C105 1_555 1_555
O19 C75 1_555 1_555
C106 C105 1_555 1_555
H58 C106 1_555 1_555
H59 C106 1_555 1_555
H60 C106 1_555 1_555
O20 C84 1_555 1_555
O21 C93 1_555 1_555
C107 C105 1_555 1_555
H61 C107 1_555 1_555
H62 C107 1_555 1_555
H63 C107 1_555 1_555
C108 O16 1_555 1_555
H64 C108 1_555 1_555
H65 C108 1_555 1_555
C109 C108 1_555 1_555
H66 C109 1_555 1_555
C110 C109 1_555 1_555
H67 C110 1_555 1_555
H68 C110 1_555 1_555
H69 C110 1_555 1_555
C111 C109 1_555 1_555
H70 C111 1_555 1_555
H71 C111 1_555 1_555
H72 C111 1_555 1_555
C112 O17 1_555 1_555
H73 C112 1_555 1_555
H74 C112 1_555 1_555
C113 C112 1_555 1_555
H75 C113 1_555 1_555
C114 C113 1_555 1_555
H76 C114 1_555 1_555
H77 C114 1_555 1_555
H78 C114 1_555 1_555
C115 C113 1_555 1_555
H79 C115 1_555 1_555
H80 C115 1_555 1_555
H81 C115 1_555 1_555
C116 O18 1_555 1_555
H82 C116 1_555 1_555
H83 C116 1_555 1_555
C117 C116 1_555 1_555
H84 C117 1_555 1_555
C118 C117 1_555 1_555
H85 C118 1_555 1_555
H86 C118 1_555 1_555
H87 C118 1_555 1_555
C119 C117 1_555 1_555
H88 C119 1_555 1_555
H89 C119 1_555 1_555
H90 C119 1_555 1_555
C120 O19 1_555 1_555
H91 C120 1_555 1_555
H92 C120 1_555 1_555
C121 C120 1_555 1_555
H93 C121 1_555 1_555
C122 C121 1_555 1_555
H94 C122 1_555 1_555
H95 C122 1_555 1_555
H96 C122 1_555 1_555
C123 C121 1_555 1_555
H97 C123 1_555 1_555
H98 C123 1_555 1_555
H99 C123 1_555 1_555
C124 O20 1_555 1_555
H100 C124 1_555 1_555
H101 C124 1_555 1_555
C125 C124 1_555 1_555
H102 C125 1_555 1_555
C126 C125 1_555 1_555
H103 C126 1_555 1_555
H104 C126 1_555 1_555
H105 C126 1_555 1_555
C127 C125 1_555 1_555
H106 C127 1_555 1_555
H107 C127 1_555 1_555
H108 C127 1_555 1_555
C128 O21 1_555 1_555
H109 C128 1_555 1_555
H110 C128 1_555 1_555
C129 C128 1_555 1_555
H111 C129 1_555 1_555
C130 C129 1_555 1_555
H112 C130 1_555 1_555
H113 C130 1_555 1_555
H114 C130 1_555 1_555
C131 C129 1_555 1_555
H115 C131 1_555 1_555
H116 C131 1_555 1_555
H117 C131 1_555 1_555
C132 C1 1_555 1_555
C133 C132 1_555 1_555
H118 C133 1_555 1_555
H119 C133 1_555 1_555
H120 C133 1_555 1_555
C134 C132 1_555 1_555
H121 C134 1_555 1_555
H122 C134 1_555 1_555
H123 C134 1_555 1_555
C135 C132 1_555 1_555
H124 C135 1_555 1_555
H125 C135 1_555 1_555
H126 C135 1_555 1_555
C136 O13 1_555 1_555
C137 C136 1_555 1_555
H127 C137 1_555 1_555
H128 C137 1_555 1_555
H129 C137 1_555 1_555
C138 C136 1_555 1_555
H130 C138 1_555 1_555
H131 C138 1_555 1_555
H132 C138 1_555 1_555
C139 C136 1_555 1_555
H133 C139 1_555 1_555
H134 C139 1_555 1_555
H135 C139 1_555 1_555
C140 N24 1_555 1_555
N24 H136 1_555 1_555
O22 C140 1_555 1_555
F9 C174 1_555 1_555
N25 C141 1_555 1_555
C141 N24 1_555 1_555
C142 C141 1_555 1_555
H137 C142 1_555 1_555
C143 C142 1_555 1_555
H138 C143 1_555 1_555
C144 C143 1_555 1_555
H139 C144 1_555 1_555
C145 N25 1_555 1_555
O23 C156 1_555 1_555
F10 C183 1_555 1_555
N26 C145 1_555 1_555
H140 N26 1_555 1_555
O24 C157 1_555 1_555
F11 C192 1_555 1_555
N27 C146 1_555 1_555
C146 C147 1_555 1_555
C147 H141 1_555 1_555
C148 C147 1_555 1_555
H142 C148 1_555 1_555
C149 C148 1_555 1_555
H143 C149 1_555 1_555
C150 N27 1_555 1_555
O25 C158 1_555 1_555
F12 C201 1_555 1_555
N28 H144 1_555 1_555
O26 C159 1_555 1_555
F13 C210 1_555 1_555
N29 C151 1_555 1_555
C151 N28 1_555 1_555
C152 C151 1_555 1_555
H145 C152 1_555 1_555
C153 C152 1_555 1_555
H146 C153 1_555 1_555
C154 C153 1_555 1_555
H147 C154 1_555 1_555
C155 N29 1_555 1_555
O27 C160 1_555 1_555
F14 C219 1_555 1_555
C156 N26 1_555 1_555
N30 C155 1_555 1_555
H148 N30 1_555 1_555
O28 C161 1_555 1_555
F15 C228 1_555 1_555
O29 C162 1_555 1_555
F16 C237 1_555 1_555
N31 H149 1_555 1_555
O30 C163 1_555 1_555
O31 C164 1_555 1_555
N32 H150 1_555 1_555
O32 C165 1_555 1_555
O33 C166 1_555 1_555
C157 C150 1_555 1_555
N33 H151 1_555 1_555
O34 C166 1_555 1_555
N34 H152 1_555 1_555
N35 H153 1_555 1_555
C158 N30 1_555 1_555
N36 H154 1_555 1_555
C159 N31 1_555 1_555
C160 N32 1_555 1_555
N37 H155 1_555 1_555
C161 N33 1_555 1_555
C162 N34 1_555 1_555
N38 H156 1_555 1_555
C163 N35 1_555 1_555
C164 N36 1_555 1_555
C165 N37 1_555 1_555
C166 N38 1_555 1_555
N39 C167 1_555 1_555
C167 C158 1_555 1_555
C168 C167 1_555 1_555
H157 C168 1_555 1_555
C169 C168 1_555 1_555
C170 C169 1_555 1_555
C171 C170 1_555 1_555
H158 C171 1_555 1_555
C172 C171 1_555 1_555
H159 C172 1_555 1_555
C173 N31 1_555 1_555
C174 C173 1_555 1_555
C175 N39 1_555 1_555
N40 C176 1_555 1_555
C176 C159 1_555 1_555
C177 C176 1_555 1_555
H160 C177 1_555 1_555
C178 C177 1_555 1_555
C179 C178 1_555 1_555
C180 C179 1_555 1_555
H161 C180 1_555 1_555
C181 C180 1_555 1_555
H162 C181 1_555 1_555
C182 N32 1_555 1_555
C183 C182 1_555 1_555
C184 N40 1_555 1_555
N41 C185 1_555 1_555
C185 C160 1_555 1_555
C186 C185 1_555 1_555
H163 C186 1_555 1_555
C187 C186 1_555 1_555
C188 C187 1_555 1_555
C189 C188 1_555 1_555
H164 C189 1_555 1_555
C190 C189 1_555 1_555
H165 C190 1_555 1_555
C191 N33 1_555 1_555
C192 C191 1_555 1_555
C193 N41 1_555 1_555
N42 C194 1_555 1_555
C194 C161 1_555 1_555
C195 C194 1_555 1_555
H166 C195 1_555 1_555
C196 C195 1_555 1_555
C197 C196 1_555 1_555
C198 C197 1_555 1_555
H167 C198 1_555 1_555
C199 C198 1_555 1_555
H168 C199 1_555 1_555
C200 N34 1_555 1_555
C201 C200 1_555 1_555
C202 N42 1_555 1_555
N43 C203 1_555 1_555
C203 C162 1_555 1_555
C204 C203 1_555 1_555
H169 C204 1_555 1_555
C205 C204 1_555 1_555
C206 C205 1_555 1_555
C207 C206 1_555 1_555
H170 C207 1_555 1_555
C208 C207 1_555 1_555
H171 C208 1_555 1_555
C209 N35 1_555 1_555
C210 C209 1_555 1_555
C211 N43 1_555 1_555
N44 C212 1_555 1_555
C212 C163 1_555 1_555
C213 C212 1_555 1_555
H172 C213 1_555 1_555
C214 C213 1_555 1_555
C215 C214 1_555 1_555
C216 C215 1_555 1_555
H173 C216 1_555 1_555
C217 C216 1_555 1_555
H174 C217 1_555 1_555
C218 N36 1_555 1_555
C219 C218 1_555 1_555
C220 N44 1_555 1_555
N45 C221 1_555 1_555
C221 C164 1_555 1_555
C222 C221 1_555 1_555
H175 C222 1_555 1_555
C223 C222 1_555 1_555
C224 C223 1_555 1_555
C225 C224 1_555 1_555
H176 C225 1_555 1_555
C226 C225 1_555 1_555
H177 C226 1_555 1_555
C227 N37 1_555 1_555
C228 C227 1_555 1_555
C229 N45 1_555 1_555
N46 C230 1_555 1_555
C230 C165 1_555 1_555
C231 C230 1_555 1_555
H178 C231 1_555 1_555
C232 C231 1_555 1_555
C233 C232 1_555 1_555
C234 C233 1_555 1_555
H179 C234 1_555 1_555
C235 C234 1_555 1_555
H180 C235 1_555 1_555
C236 N38 1_555 1_555
C237 C236 1_555 1_555
C238 N46 1_555 1_555
C239 H181 1_555 1_555
H182 C239 1_555 1_555
O35 C169 1_555 1_555
C240 C239 1_555 1_555
H183 C240 1_555 1_555
O36 C178 1_555 1_555
C241 C240 1_555 1_555
H184 C241 1_555 1_555
H185 C241 1_555 1_555
H186 C241 1_555 1_555
O37 C187 1_555 1_555
C242 C240 1_555 1_555
H187 C242 1_555 1_555
H188 C242 1_555 1_555
H189 C242 1_555 1_555
O38 C196 1_555 1_555
C243 O36 1_555 1_555
H190 C243 1_555 1_555
H191 C243 1_555 1_555
C244 C243 1_555 1_555
H192 C244 1_555 1_555
C245 C244 1_555 1_555
H193 C245 1_555 1_555
H194 C245 1_555 1_555
H195 C245 1_555 1_555
C246 C244 1_555 1_555
H196 C246 1_555 1_555
H197 C246 1_555 1_555
H198 C246 1_555 1_555
O39 C205 1_555 1_555
O40 C214 1_555 1_555
O41 C223 1_555 1_555
O42 C232 1_555 1_555
C247 O37 1_555 1_555
H199 C247 1_555 1_555
H200 C247 1_555 1_555
C248 C247 1_555 1_555
H201 C248 1_555 1_555
C249 C248 1_555 1_555
H202 C249 1_555 1_555
H203 C249 1_555 1_555
H204 C249 1_555 1_555
C250 C248 1_555 1_555
H205 C250 1_555 1_555
H206 C250 1_555 1_555
H207 C250 1_555 1_555
C251 O38 1_555 1_555
H208 C251 1_555 1_555
H209 C251 1_555 1_555
C252 C251 1_555 1_555
H210 C252 1_555 1_555
C253 C252 1_555 1_555
H211 C253 1_555 1_555
H212 C253 1_555 1_555
H213 C253 1_555 1_555
C254 C252 1_555 1_555
H214 C254 1_555 1_555
H215 C254 1_555 1_555
H216 C254 1_555 1_555
C255 O39 1_555 1_555
H217 C255 1_555 1_555
H218 C255 1_555 1_555
C256 C255 1_555 1_555
H219 C256 1_555 1_555
C257 C256 1_555 1_555
H220 C257 1_555 1_555
H221 C257 1_555 1_555
H222 C257 1_555 1_555
C258 C256 1_555 1_555
H223 C258 1_555 1_555
H224 C258 1_555 1_555
H225 C258 1_555 1_555
C259 O40 1_555 1_555
H226 C259 1_555 1_555
H227 C259 1_555 1_555
C260 C259 1_555 1_555
H228 C260 1_555 1_555
C261 C260 1_555 1_555
H229 C261 1_555 1_555
H230 C261 1_555 1_555
H231 C261 1_555 1_555
C262 C260 1_555 1_555
H232 C262 1_555 1_555
H233 C262 1_555 1_555
H234 C262 1_555 1_555
C263 O41 1_555 1_555
H235 C263 1_555 1_555
H236 C263 1_555 1_555
C264 C263 1_555 1_555
H237 C264 1_555 1_555
C265 C264 1_555 1_555
H238 C265 1_555 1_555
H239 C265 1_555 1_555
H240 C265 1_555 1_555
C266 C264 1_555 1_555
H241 C266 1_555 1_555
H242 C266 1_555 1_555
H243 C266 1_555 1_555
C267 O42 1_555 1_555
H244 C267 1_555 1_555
H245 C267 1_555 1_555
C268 C267 1_555 1_555
H246 C268 1_555 1_555
C269 C268 1_555 1_555
H247 C269 1_555 1_555
H248 C269 1_555 1_555
H249 C269 1_555 1_555
C270 C268 1_555 1_555
H250 C270 1_555 1_555
H251 C270 1_555 1_555
H252 C270 1_555 1_555
C271 C140 1_555 1_555
C272 C271 1_555 1_555
H253 C272 1_555 1_555
H254 C272 1_555 1_555
H255 C272 1_555 1_555
C273 C271 1_555 1_555
H256 C273 1_555 1_555
H257 C273 1_555 1_555
H258 C273 1_555 1_555
C274 C271 1_555 1_555
H259 C274 1_555 1_555
H260 C274 1_555 1_555
H261 C274 1_555 1_555
C275 O34 1_555 1_555
C276 C275 1_555 1_555
H262 C276 1_555 1_555
H263 C276 1_555 1_555
H264 C276 1_555 1_555
C277 C275 1_555 1_555
H265 C277 1_555 1_555
H266 C277 1_555 1_555
H267 C277 1_555 1_555
C278 C275 1_555 1_555
H268 C278 1_555 1_555
H269 C278 1_555 1_555
H270 C278 1_555 1_555
N47 H271 1_555 1_555
O43 C282 1_555 1_555
N48 H272 1_555 1_555
O44 C283 1_555 1_555
O45 C295 1_555 1_555
O46 C295 1_555 1_555
C279 H273 1_555 1_555
H274 C279 1_555 1_555
H275 C279 1_555 1_555
C280 C279 1_555 1_555
H276 C280 1_555 1_555
H277 C280 1_555 1_555
C281 C280 1_555 1_555
H278 C281 1_555 1_555
H279 C281 1_555 1_555
C282 C281 1_555 1_555
H280 C282 1_555 1_555
H281 C282 1_555 1_555
C283 N47 1_555 1_555
C284 N47 1_555 1_555
H282 C284 1_555 1_555
H283 C284 1_555 1_555
C285 C284 1_555 1_555
H284 C285 1_555 1_555
H285 C285 1_555 1_555
C286 C285 1_555 1_555
H286 C286 1_555 1_555
H287 C286 1_555 1_555
C287 C286 1_555 1_555
H288 C287 1_555 1_555
H289 C287 1_555 1_555
C288 C287 1_555 1_555
H290 C288 1_555 1_555
H291 C288 1_555 1_555
C289 C288 1_555 1_555
H292 C289 1_555 1_555
H293 C289 1_555 1_555
C290 C289 1_555 1_555
H294 C290 1_555 1_555
H295 C290 1_555 1_555
C291 C290 1_555 1_555
H296 C291 1_555 1_555
H297 C291 1_555 1_555
C292 C291 1_555 1_555
H298 C292 1_555 1_555
H299 C292 1_555 1_555
C293 C292 1_555 1_555
H300 C293 1_555 1_555
H301 C293 1_555 1_555
C294 N48 1_555 1_555
H302 C294 1_555 1_555
H303 C294 1_555 1_555
C295 N48 1_555 1_555
C296 O46 1_555 1_555
H304 C296 1_555 1_555
H305 C296 1_555 1_555
C297 C296 1_555 1_555
H306 C297 1_555 1_555
H307 C297 1_555 1_555
C298 C297 1_555 1_555
H308 C298 1_555 1_555
H309 C298 1_555 1_555
C299 C298 1_555 1_555
H310 C299 1_555 1_555
C300 C299 1_555 1_555
C301 C300 1_555 1_555
H311 C301 1_555 1_555
C302 C301 1_555 1_555
H312 C302 1_555 1_555
C303 C302 1_555 1_555
H313 C303 1_555 1_555
C304 C303 1_555 1_555
H314 C304 1_555 1_555
C305 C300 1_555 1_555
H315 C305 1_555 1_555
C306 C299 1_555 1_555
C307 C306 1_555 1_555
H316 C307 1_555 1_555
C308 C307 1_555 1_555
H317 C308 1_555 1_555
C309 C308 1_555 1_555
H318 C309 1_555 1_555
C310 C309 1_555 1_555
H319 C310 1_555 1_555
C311 C306 1_555 1_555
H320 C311 1_555 1_555
C312 H321 1_555 1_555
Cl1 C312 1_555 1_555
Cl2 C312 1_555 1_555
Cl3 C312 1_555 1_555
C313 H322 1_555 1_555
Cl4 C313 1_555 1_555
Cl5 C313 1_555 1_555
Cl6 C313 1_555 1_555
C314 H323 1_555 1_555
Cl7 C314 1_555 1_555
Cl8 C314 1_555 1_555
Cl9 C314 1_555 1_555
C315 H324 1_555 1_555
Cl10 C315 1_555 1_555
Cl11 C315 1_555 1_555
Cl12 C315 1_555 1_555
Cl13 C316 1_555 1_555
Cl14 C316 1_555 1_555
C316 H325 1_555 1_555
Cl15 C316 1_555 1_555
C317 H326 1_555 1_555
H327 C317 1_555 1_555
H328 C317 1_555 1_555
C318 C317 1_555 1_555
H329 C318 1_555 1_555
H330 C318 1_555 1_555
C319 C318 1_555 1_555
H331 C319 1_555 1_555
H332 C319 1_555 1_555
C320 C319 1_555 1_555
H333 C320 1_555 1_555
H334 C320 1_555 1_555
C321 C320 1_555 1_555
H335 C321 1_555 1_555
H336 C321 1_555 1_555
C322 C321 1_555 1_555
H337 C322 1_555 1_555
H338 C322 1_555 1_555
H339 C322 1_555 1_555
C323 H340 1_555 1_555
Cl16 C323 1_555 1_555
Cl17 C323 1_555 1_555
Cl18 C323 1_555 1_555
N2 C6 1_555 1_555
C5 C6 1_555 1_555
C7 C17 1_555 1_555
C10 C11 1_555 1_555
N5 C18 1_555 1_555
C15 C16 1_555 1_555
C31 C36 1_555 1_555
C33 C34 1_555 1_555
C35 C36 1_555 1_555
C40 C45 1_555 1_555
C42 C43 1_555 1_555
C44 C45 1_555 1_555
C49 C54 1_555 1_555
C51 C52 1_555 1_555
C53 C54 1_555 1_555
C58 C63 1_555 1_555
C60 C61 1_555 1_555
C62 C63 1_555 1_555
C67 C72 1_555 1_555
C69 C70 1_555 1_555
C71 C72 1_555 1_555
C76 C81 1_555 1_555
C78 C79 1_555 1_555
C80 C81 1_555 1_555
C85 C90 1_555 1_555
C87 C88 1_555 1_555
C89 C90 1_555 1_555
C94 C99 1_555 1_555
C96 C97 1_555 1_555
C98 C99 1_555 1_555
C100 O14 1_555 1_555
C144 C145 1_555 1_555
C146 C156 1_555 1_555
C149 C150 1_555 1_555
N28 C157 1_555 1_555
C154 C155 1_555 1_555
C170 C175 1_555 1_555
C172 C173 1_555 1_555
C174 C175 1_555 1_555
C179 C184 1_555 1_555
C181 C182 1_555 1_555
C183 C184 1_555 1_555
C188 C193 1_555 1_555
C190 C191 1_555 1_555
C192 C193 1_555 1_555
C197 C202 1_555 1_555
C199 C200 1_555 1_555
C201 C202 1_555 1_555
C206 C211 1_555 1_555
C208 C209 1_555 1_555
C210 C211 1_555 1_555
C215 C220 1_555 1_555
C217 C218 1_555 1_555
C219 C220 1_555 1_555
C224 C229 1_555 1_555
C226 C227 1_555 1_555
C228 C229 1_555 1_555
C233 C238 1_555 1_555
C235 C236 1_555 1_555
C237 C238 1_555 1_555
C239 O35 1_555 1_555
O43 C283 1_555 1_555
C293 C294 1_555 1_555
C304 C305 1_555 1_555
C310 C311 1_555 1_555

#END
