
#######################################################################
#
#                 Cambridge Crystallographic Data Centre
#                                CCDC 
#
#######################################################################
#
# If this CIF has been generated from an entry in the Cambridge 
# Structural Database, then it will include bibliographic, chemical, 
# crystal, experimental, refinement or atomic coordinate data resulting 
# from the CCDC's data processing and validation procedures.
#
#######################################################################

data_KAZXIV
_chemical_formula_moiety         
'2(C139 H135 F8 N23 O21),C30 H44 N2 O4,C6 H14,5.52(C6 H5 Cl1),2(H2 O1)'
_chemical_name_systematic        
'(3)-bis(t-butyl (8-fluoro-2-((8-fluoro-2-((8-fluoro-2-((8-fluoro-2-((8-fluoro-2-((8-fluoro-2-((8-fluoro-2-((8-fluoro-4-isobutoxy-2-((6-(6-((6-pivalamidopyridin-2-yl)carbamoyl)picolinamido)pyridin-2-yl)carbamoyl)quinolin-7-yl)carbamoyl)-4-isobutoxyquinolin-7-yl)carbamoyl)-4-isobutoxyquinolin-7-yl)carbamoyl)-4-isobutoxyquinolin-7-yl)carbamoyl)-4-isobutoxyquinolin-7-yl)carbamoyl)-4-isobutoxyquinolin-7-yl)carbamoyl)-4-isobutoxyquinolin-7-yl)carbamoyl)-4-isobutoxyquinolin-7-yl)carbamate)-(butyl (4,4-diphenylbutyl) octane-1,8-diyldicarbamate)-pseudorotaxane foldaxane chlorobenzene hexane solvate dihydrate'
_symmetry_cell_setting           triclinic
_symmetry_space_group_name_H-M   'P -1'
_symmetry_Int_Tables_number      2
_space_group_name_Hall           '-P 1'
loop_
_symmetry_equiv_pos_site_id
_symmetry_equiv_pos_as_xyz
1 x,y,z
2 -x,-y,-z
_cell_length_a                   20.6802(14)
_cell_length_b                   23.9248(17)
_cell_length_c                   36.653(3)
_cell_angle_alpha                91.789(2)
_cell_angle_beta                 98.467(2)
_cell_angle_gamma                108.197(2)
_cell_volume                     16982.5
_exptl_crystal_colour            yellow
_exptl_crystal_description       prism
_cell_formula_units_Z            2
loop_
_atom_site_label
_atom_site_type_symbol
_atom_site_fract_x
_atom_site_fract_y
_atom_site_fract_z
F1 F 0.0978(2) 0.27410(18) 0.72576(14)
F2 F 0.1910(2) 0.48228(18) 0.76681(13)
F3 F 0.2653(2) 0.19182(16) 0.77953(13)
F4 F 0.2898(2) 0.31043(17) 0.58938(13)
F5 F 0.4386(2) 0.45290(17) 0.67419(12)
F6 F 0.3501(2) 0.49346(18) 0.87933(14)
F7 F 0.2464(3) 0.3222(2) 0.93380(15)
F8 F 0.4825(2) 0.34736(18) 0.77578(13)
C1 C 0.7610(6) 0.3708(5) 0.5176(4)
N1 N 0.7425(5) 0.3464(3) 0.5501(3)
H1 H 0.7748 0.3380 0.5652
O1 O 0.7207(4) 0.3796(4) 0.4937(2)
C2 C 0.6767(6) 0.3336(4) 0.5616(3)
N2 N 0.6688(5) 0.2963(3) 0.5885(2)
O2 O 0.7139(5) 0.2600(3) 0.6577(2)
C3 C 0.6304(6) 0.3600(4) 0.5468(3)
H2 H 0.6378 0.3851 0.5272
N3 N 0.6027(5) 0.2429(3) 0.6281(2)
H3 H 0.5600 0.2216 0.6294
O3 O 0.4478(5) 0.0060(3) 0.6800(2)
C4 C 0.5715(7) 0.3470(4) 0.5630(3)
H4 H 0.5371 0.3641 0.5543
N4 N 0.5605(5) 0.1441(4) 0.6635(2)
O4 O 0.1162(4) 0.0478(3) 0.56222(19)
C5 C 0.5609(5) 0.3099(4) 0.5912(3)
H5 H 0.5207 0.3021 0.6024
N5 N 0.4197(5) 0.0785(3) 0.6483(2)
H6 H 0.4382 0.1147 0.6423
O5 O 0.2503(3) 0.4814(2) 0.53560(17)
C6 C 0.6110(6) 0.2848(4) 0.6024(3)
N6 N 0.3201(5) 0.0870(3) 0.6191(2)
O6 O 0.6486(3) 0.5973(3) 0.74330(17)
C7 C 0.6533(7) 0.2315(5) 0.6516(3)
N7 N 0.2243(4) 0.1067(3) 0.5894(2)
H7 H 0.2512 0.1438 0.5924
O7 O 0.5582(3) 0.2112(3) 0.85419(17)
C8 C 0.6264(7) 0.1768(4) 0.6719(3)
N8 N 0.1967(4) 0.2026(3) 0.56643(19)
O8 O 0.0589(3) 0.0167(3) 0.7600(2)
C9 C 0.6742(7) 0.1632(6) 0.6987(3)
H8 H 0.7211 0.1872 0.7048
N9 N 0.2727(3) 0.4111(3) 0.57229(19)
H9 H 0.3015 0.4070 0.5914
O9 O -0.0548(3) 0.3544(3) 0.6466(2)
C10 C 0.6458(9) 0.1094(6) 0.7161(3)
H10 H 0.6743 0.0974 0.7349
N10 N 0.3725(4) 0.4905(3) 0.6159(2)
O10 O 0.3244(4) 0.6932(3) 0.7830(2)
C11 C 0.5790(9) 0.0761(6) 0.7057(3)
H11 H 0.5620 0.0403 0.7168
N11 N 0.5475(4) 0.5223(3) 0.7216(2)
H12 H 0.5242 0.4860 0.7255
O11 O 0.5450(3) 0.4879(2) 0.97091(17)
C12 C 0.5351(8) 0.0922(5) 0.6797(3)
N12 N 0.5781(3) 0.4533(3) 0.77094(18)
O12 O 0.1397(5) 0.1471(5) 0.9917(3)
C13 C 0.4619(7) 0.0539(5) 0.6691(3)
N13 N 0.5025(3) 0.2668(3) 0.82077(17)
H13 H 0.4616 0.2649 0.8088
O13 O 0.0642(4) 0.1625(3) 0.9437(3)
C14 C 0.3494(7) 0.0512(4) 0.6356(3)
N14 N 0.3830(4) 0.1776(3) 0.81551(19)
C15 C 0.3151(7) -0.0078(4) 0.6409(3)
H14 H 0.3387 -0.0322 0.6528
N15 N 0.1426(4) 0.1082(3) 0.7681(2)
H15 H 0.1497 0.1452 0.7630
C16 C 0.2459(9) -0.0280(4) 0.6279(3)
H16 H 0.2207 -0.0676 0.6313
N16 N 0.0557(3) 0.1556(3) 0.7318(2)
C17 C 0.2106(6) 0.0070(3) 0.6100(3)
H17 H 0.1626 -0.0068 0.6006
N17 N 0.0209(3) 0.3323(3) 0.6900(2)
H18 H 0.0595 0.3490 0.7056
C18 C 0.2528(7) 0.0644(4) 0.6071(3)
N18 N 0.0875(4) 0.4475(3) 0.7068(2)
C19 C 0.1606(6) 0.0957(4) 0.5686(3)
N19 N 0.2710(4) 0.5941(3) 0.7846(2)
H19 H 0.2719 0.5648 0.7983
C20 C 0.2836(5) 0.4677(4) 0.5622(3)
N20 N 0.3651(4) 0.5932(3) 0.8429(2)
C21 C 0.6099(5) 0.5475(4) 0.7443(3)
N21 N 0.4417(4) 0.4796(3) 0.9336(2)
H20 H 0.3995 0.4550 0.9271
C22 C 0.5064(5) 0.2175(4) 0.8371(3)
N22 N 0.3837(4) 0.3757(3) 0.95703(19)
C23 C 0.0781(5) 0.0695(4) 0.7553(3)
N23 N 0.1746(5) 0.2162(4) 0.9506(3)
H21 H 0.1593 0.2314 0.9309
C24 C -0.0034(5) 0.3703(4) 0.6695(3)
C25 C 0.3217(5) 0.6464(4) 0.7958(3)
C26 C 0.4853(6) 0.4601(4) 0.9587(3)
C27 C 0.1277(8) 0.1735(6) 0.9655(5)
C28 C 0.1476(6) 0.1514(4) 0.5553(3)
C29 C 0.0856(5) 0.1440(4) 0.5320(3)
H22 H 0.0531 0.1057 0.5252
C30 C 0.0725(5) 0.1928(5) 0.5190(3)
C31 C 0.1224(5) 0.2499(4) 0.5299(2)
C32 C 0.1133(5) 0.3031(4) 0.5192(2)
H23 H 0.0726 0.3023 0.5031
C33 C 0.1620(5) 0.3557(4) 0.5316(2)
H24 H 0.1552 0.3910 0.5234
C34 C 0.2221(4) 0.3592(3) 0.5562(2)
C35 C 0.2303(4) 0.3069(4) 0.5660(2)
C36 C 0.1831(5) 0.2515(3) 0.5547(2)
C37 C 0.3429(4) 0.5118(3) 0.5872(2)
C38 C 0.3618(4) 0.5712(3) 0.5787(2)
H25 H 0.3381 0.5831 0.5577
C39 C 0.4152(5) 0.6109(4) 0.6016(3)
C40 C 0.4506(5) 0.5926(3) 0.6332(3)
C41 C 0.5062(5) 0.6293(4) 0.6585(3)
H26 H 0.5218 0.6704 0.6553
C42 C 0.5386(4) 0.6090(3) 0.6870(3)
H27 H 0.5764 0.6355 0.7034
C43 C 0.5165(4) 0.5478(4) 0.6929(2)
C44 C 0.4614(5) 0.5116(3) 0.6689(2)
C45 C 0.4269(4) 0.5309(3) 0.6386(2)
C46 C 0.6271(5) 0.5054(4) 0.7708(2)
C47 C 0.6924(4) 0.5238(4) 0.7928(2)
H28 H 0.7244 0.5618 0.7916
C48 C 0.7082(4) 0.4842(4) 0.8164(2)
C49 C 0.6584(4) 0.4290(4) 0.8190(2)
C50 C 0.6696(4) 0.3879(4) 0.8431(2)
H29 H 0.7125 0.3973 0.8593
C51 C 0.6206(4) 0.3343(4) 0.8439(2)
H30 H 0.6302 0.3067 0.8602
C52 C 0.5549(4) 0.3197(4) 0.8205(2)
C53 C 0.5450(4) 0.3611(4) 0.7977(2)
C54 C 0.5941(4) 0.4163(4) 0.7950(2)
C55 C 0.4385(5) 0.1675(4) 0.8328(2)
C56 C 0.4397(5) 0.1138(4) 0.8461(2)
H31 H 0.4819 0.1092 0.8575
C57 C 0.3808(5) 0.0688(4) 0.8425(2)
C58 C 0.3181(5) 0.0769(3) 0.8250(2)
C59 C 0.2528(5) 0.0315(4) 0.8198(3)
H32 H 0.2497 -0.0057 0.8291
C60 C 0.1948(5) 0.0403(3) 0.8019(3)
H33 H 0.1518 0.0095 0.7986
C61 C 0.1988(4) 0.0957(3) 0.7884(2)
C62 C 0.2628(5) 0.1394(3) 0.7941(2)
C63 C 0.3230(4) 0.1320(3) 0.8120(2)
C64 C 0.0305(4) 0.0983(3) 0.7338(3)
C65 C -0.0349(5) 0.0619(4) 0.7177(3)
H34 H -0.0480 0.0205 0.7198
C66 C -0.0793(5) 0.0858(4) 0.6994(3)
C67 C -0.0565(4) 0.1480(4) 0.6954(3)
C68 C -0.0978(5) 0.1774(4) 0.6751(3)
H35 H -0.1432 0.1555 0.6634
C69 C -0.0732(5) 0.2373(4) 0.6720(3)
H36 H -0.1014 0.2560 0.6578
C70 C -0.0058(4) 0.2712(3) 0.6900(3)
C71 C 0.0333(4) 0.2420(4) 0.7096(2)
C72 C 0.0118(5) 0.1811(3) 0.7130(3)
C73 C 0.0386(5) 0.4334(4) 0.6770(3)
C74 C 0.0253(4) 0.4731(4) 0.6530(3)
H37 H -0.0101 0.4600 0.6320
C75 C 0.0633(5) 0.5312(5) 0.6595(3)
C76 C 0.1146(5) 0.5506(3) 0.6919(3)
C77 C 0.1554(5) 0.6091(4) 0.7016(3)
H38 H 0.1480 0.6388 0.6865
C78 C 0.2051(6) 0.6247(4) 0.7316(4)
H39 H 0.2315 0.6651 0.7376
C79 C 0.2184(5) 0.5811(4) 0.7545(3)
C80 C 0.1770(5) 0.5231(3) 0.7449(3)
C81 C 0.1244(5) 0.5049(4) 0.7150(3)
C82 C 0.3749(5) 0.6431(4) 0.8272(3)
C83 C 0.4353(6) 0.6935(4) 0.8356(3)
H40 H 0.4397 0.7282 0.8230
C84 C 0.4860(5) 0.6899(3) 0.8622(3)
C85 C 0.4786(5) 0.6383(4) 0.8824(3)
C86 C 0.5283(5) 0.6321(4) 0.9104(3)
H41 H 0.5699 0.6641 0.9175
C87 C 0.5190(5) 0.5810(4) 0.9283(3)
H42 H 0.5536 0.5777 0.9475
C88 C 0.4557(5) 0.5328(3) 0.9174(3)
C89 C 0.4086(5) 0.5399(3) 0.8895(3)
C90 C 0.4158(5) 0.5908(3) 0.8705(3)
C91 C 0.4496(5) 0.3990(4) 0.9686(2)
C92 C 0.4917(5) 0.3707(4) 0.9894(3)
H43 H 0.5400 0.3896 0.9964
C93 C 0.4602(5) 0.3150(4) 0.9990(2)
C94 C 0.3881(5) 0.2881(4) 0.9891(2)
C95 C 0.3519(6) 0.2310(4) 0.9977(3)
H44 H 0.3764 0.2089 1.0117
C96 C 0.2814(6) 0.2063(4) 0.9863(3)
H45 H 0.2575 0.1684 0.9932
C97 C 0.2454(5) 0.2377(5) 0.9644(3)
C98 C 0.2808(5) 0.2931(4) 0.9550(3)
C99 C 0.3525(5) 0.3209(4) 0.9673(2)
C100 C -0.0351(6) 0.1353(6) 0.4841(3)
H46 H -0.0605 0.1221 0.5048
H47 H -0.0108 0.1068 0.4793
O14 O 0.0152(4) 0.1923(3) 0.4951(2)
C101 C -0.0840(10) 0.1343(8) 0.4516(5)
H48 H -0.1176 0.0937 0.4450
O15 O 0.4409(3) 0.6686(2) 0.59720(17)
C102 C -0.0576(9) 0.1601(8) 0.4185(5)
H49 H -0.0285 0.2012 0.4250
H50 H -0.0964 0.1587 0.3992
H51 H -0.0302 0.1376 0.4093
O16 O 0.7696(3) 0.4937(3) 0.83871(17)
C103 C -0.1192(10) 0.1758(8) 0.4607(5)
H52 H -0.1659 0.1539 0.4648
H53 H -0.1219 0.2008 0.4403
H54 H -0.0934 0.2006 0.4833
O17 O 0.3731(3) 0.0126(2) 0.85311(18)
C104 C 0.4141(6) 0.6889(4) 0.5629(3)
H55 H 0.3652 0.6858 0.5625
H56 H 0.4168 0.6640 0.5415
O18 O -0.1443(3) 0.0559(3) 0.6814(2)
C105 C 0.4560(6) 0.7518(5) 0.5603(3)
H57 H 0.4553 0.7756 0.5831
O19 O 0.0588(3) 0.5760(3) 0.6382(2)
C106 C 0.5289(8) 0.7564(6) 0.5586(5)
H58 H 0.5447 0.7332 0.5773
H59 H 0.5579 0.7978 0.5632
H60 H 0.5319 0.7411 0.5340
O20 O 0.5483(3) 0.7338(2) 0.87341(19)
C107 C 0.4225(7) 0.7749(5) 0.5268(3)
H61 H 0.4283 0.7557 0.5040
H62 H 0.4445 0.8177 0.5272
H63 H 0.3732 0.7663 0.5275
O21 O 0.4921(4) 0.2812(3) 1.01899(18)
C108 C 0.8276(5) 0.5448(5) 0.8340(3)
H64 H 0.8204 0.5817 0.8427
H65 H 0.8330 0.5467 0.8077
C109 C 0.8910(5) 0.5370(5) 0.8571(4)
H66 H 0.9303 0.5720 0.8552
C110 C 0.9061(7) 0.4829(6) 0.8418(4)
H67 H 0.8697 0.4469 0.8457
H68 H 0.9508 0.4819 0.8547
H69 H 0.9075 0.4851 0.8153
C111 C 0.8870(15) 0.5356(13) 0.8973(9)
H70 H 0.8821 0.5727 0.9066
H71 H 0.9293 0.5308 0.9108
H72 H 0.8471 0.5025 0.9011
C112 C 0.4380(6) 0.0025(5) 0.8670(3)
H73 H 0.4595 0.0254 0.8911
H74 H 0.4707 0.0144 0.8493
C113 C 0.4194(7) -0.0636(5) 0.8713(4)
H75 H 0.3850 -0.0751 0.8886
C114 C 0.3894(8) -0.0986(7) 0.8346(5)
H76 H 0.3451 -0.0932 0.8252
H77 H 0.3824 -0.1406 0.8376
H78 H 0.4213 -0.0850 0.8170
C115 C 0.4852(7) -0.0741(8) 0.8882(5)
H79 H 0.5225 -0.0535 0.8750
H80 H 0.4787 -0.1165 0.8862
H81 H 0.4972 -0.0591 0.9143
C116 C -0.1727(5) -0.0054(4) 0.6897(5)
H82 H -0.1555 -0.0086 0.7159
H83 H -0.1547 -0.0302 0.6744
C117 C -0.2535(12) -0.0315(11) 0.6829(6)
H84 H -0.2723 -0.0739 0.6878
C118 C -0.2693(14) -0.0190(12) 0.6431(7)
H85 H -0.2265 -0.0065 0.6327
H86 H -0.2904 0.0125 0.6419
H87 H -0.3014 -0.0548 0.6289
C119 C -0.2730(11) 0.0105(10) 0.7068(6)
H88 H -0.2335 0.0311 0.7259
H89 H -0.3118 -0.0118 0.7186
H90 H -0.2866 0.0393 0.6917
C120 C 0.0183(6) 0.5606(5) 0.6023(4)
H91 H -0.0307 0.5426 0.6049
H92 H 0.0324 0.5303 0.5895
C121 C 0.0240(8) 0.6109(7) 0.5787(4)
H93 H 0.0725 0.6235 0.5736
C122 C -0.0218(8) 0.5958(7) 0.5410(4)
H94 H -0.0101 0.5657 0.5270
H95 H -0.0146 0.6313 0.5275
H96 H -0.0702 0.5805 0.5442
C123 C 0.0184(9) 0.6608(7) 0.6007(5)
H97 H -0.0282 0.6509 0.6069
H98 H 0.0271 0.6956 0.5863
H99 H 0.0524 0.6695 0.6235
C124 C 0.5598(6) 0.7874(4) 0.8536(4)
H100 H 0.5246 0.8064 0.8568
H101 H 0.5571 0.7777 0.8268
C125 C 0.6313(7) 0.8282(6) 0.8699(4)
H102 H 0.6396 0.8666 0.8584
C126 C 0.6871(10) 0.8021(9) 0.8634(6)
H103 H 0.6722 0.7600 0.8675
H104 H 0.7298 0.8226 0.8805
H105 H 0.6954 0.8067 0.8378
C127 C 0.6380(8) 0.8397(7) 0.9111(4)
H106 H 0.6244 0.8020 0.9223
H107 H 0.6080 0.8625 0.9164
H108 H 0.6860 0.8620 0.9214
C128 C 0.5654(6) 0.3042(4) 1.0283(3)
H109 H 0.5781 0.3374 1.0477
H110 H 0.5850 0.3198 1.0062
C129 C 0.5958(10) 0.2584(9) 1.0421(5)
H111 H 0.6462 0.2757 1.0467
C130 C 0.5765(11) 0.2033(8) 1.0146(7)
H112 H 0.5263 0.1847 1.0099
H113 H 0.5984 0.1752 1.0251
H114 H 0.5926 0.2149 0.9912
C131 C 0.5716(12) 0.2444(10) 1.0776(6)
H115 H 0.6098 0.2622 1.0980
H116 H 0.5552 0.2015 1.0787
H117 H 0.5338 0.2602 1.0797
C132 C 0.8358(6) 0.3871(5) 0.5137(3)
C133 C 0.8421(12) 0.3324(10) 0.4939(7)
H118 H 0.8759 0.3197 0.5102
H119 H 0.7977 0.3007 0.4894
H120 H 0.8583 0.3419 0.4703
C134 C 0.8561(9) 0.4389(8) 0.4927(5)
H121 H 0.8149 0.4479 0.4814
H122 H 0.8806 0.4309 0.4733
H123 H 0.8865 0.4728 0.5093
C135 C 0.8875(10) 0.4013(10) 0.5487(5)
H124 H 0.8831 0.4344 0.5633
H125 H 0.8781 0.3663 0.5628
H126 H 0.9345 0.4114 0.5430
C136 C 0.0015(9) 0.1216(8) 0.9554(5)
C137 C -0.0029(11) 0.1472(9) 0.9928(5)
H127 H 0.0318 0.1400 1.0117
H128 H -0.0490 0.1285 0.9988
H129 H 0.0058 0.1898 0.9922
C138 C 0.0054(10) 0.0618(8) 0.9532(5)
H130 H 0.0242 0.0552 0.9311
H131 H -0.0409 0.0333 0.9520
H132 H 0.0356 0.0567 0.9753
C139 C -0.0536(8) 0.1265(7) 0.9234(4)
H133 H -0.0326 0.1584 0.9085
H134 H -0.0911 0.1350 0.9336
H135 H -0.0722 0.0891 0.9078
C140 C 0.1980(3) 0.6792(9) 0.8805(3)
N24 N 0.1626(6) 0.6260(6) 0.8542(4)
H136 H 0.1393 0.6298 0.8329
O22 O 0.2308(7) 0.6733(8) 0.9115(5)
F9 F 0.33146(19) 0.30654(16) 0.86524(12)
N25 N 0.1163(4) 0.5322(3) 0.8362(2)
C141 C 0.1652(4) 0.5737(3) 0.8620(2)
C142 C 0.2086(4) 0.5557(4) 0.8883(2)
H137 H 0.2420 0.5840 0.9060
C143 C 0.2032(4) 0.4964(4) 0.8888(2)
H138 H 0.2329 0.4841 0.9068
C144 C 0.1544(4) 0.4550(3) 0.8630(2)
H139 H 0.1508 0.4144 0.8633
C145 C 0.1110(4) 0.4729(3) 0.8367(2)
O23 O 0.0146(4) 0.4886(3) 0.7718(2)
F10 F 0.4069(2) 0.47166(16) 0.79566(12)
N26 N 0.0596(4) 0.4331(3) 0.8114(2)
H140 H 0.0561 0.3959 0.8142
O24 O -0.1505(3) 0.1844(3) 0.7644(2)
F11 F 0.2427(2) 0.42997(16) 0.68366(12)
N27 N -0.0428(4) 0.3343(4) 0.7768(2)
O25 O 0.1214(3) 0.0647(3) 0.8837(2)
F12 F 0.1765(2) 0.21869(17) 0.65990(14)
N28 N -0.0385(3) 0.2236(3) 0.7961(2)
H141 H -0.0050 0.2570 0.8031
O26 O 0.5765(3) 0.3839(2) 0.91828(16)
F13 F 0.3655(3) 0.16153(17) 0.71718(14)
N29 N 0.0370(3) 0.1808(3) 0.8264(2)
O27 O 0.4610(3) 0.6668(2) 0.74729(17)
F14 F 0.5629(2) 0.32561(19) 0.69720(14)
C146 C 0.0133(7) 0.4408(5) 0.7831(4)
N30 N 0.1229(3) 0.1492(3) 0.8555(2)
H142 H 0.1502 0.1845 0.8523
O28 O 0.0507(3) 0.3930(2) 0.58105(17)
F15 F 0.4934(2) 0.43242(16) 0.58903(12)
C147 C -0.0412(5) 0.3852(5) 0.7647(3)
N31 N 0.2607(3) 0.1956(3) 0.88036(19)
O29 O 0.0679(4) 0.0055(3) 0.6640(2)
F16 F 0.3134(2) 0.28433(17) 0.50596(15)
C148 C -0.0896(7) 0.3925(6) 0.7355(3)
H143 H -0.0865 0.4303 0.7270
N32 N 0.4685(3) 0.3574(2) 0.88394(17)
H144 H 0.4424 0.3707 0.8676
O30 O 0.5569(3) 0.1112(3) 0.78840(18)
C149 C -0.1416(6) 0.3427(7) 0.7199(3)
H145 H -0.1752 0.3454 0.7000
N33 N 0.5001(3) 0.4568(2) 0.85185(19)
O31 O 0.7449(3) 0.5175(3) 0.71490(18)
C150 C -0.1454(5) 0.2886(6) 0.7330(3)
H146 H -0.1823 0.2543 0.7229
N34 N 0.4254(3) 0.5677(2) 0.75880(19)
H147 H 0.3923 0.5340 0.7516
O32 O 0.4255(3) 0.5514(2) 0.49390(17)
C151 C -0.0941(5) 0.2850(5) 0.7614(3)
N35 N 0.3247(4) 0.5441(2) 0.7011(2)
O33 O 0.1092(5) 0.1399(3) 0.4323(3)
C152 C -0.0971(5) 0.2269(5) 0.7741(3)
N36 N 0.1426(3) 0.3933(3) 0.6250(2)
H148 H 0.1602 0.3694 0.6377
O34 O 0.1743(4) 0.0992(3) 0.4700(2)
C153 C -0.0273(5) 0.1717(4) 0.8085(3)
N37 N 0.0964(3) 0.2765(2) 0.62186(19)
C154 C -0.0779(5) 0.1162(5) 0.8027(4)
H149 H -0.1229 0.1109 0.7898
N38 N 0.1361(4) 0.1011(2) 0.6647(2)
H150 H 0.1785 0.1245 0.6724
C155 C -0.0594(6) 0.0691(5) 0.8167(4)
H151 H -0.0928 0.0310 0.8142
N39 N 0.2412(4) 0.0756(3) 0.7028(2)
C156 C 0.0074(5) 0.0774(4) 0.8342(3)
H152 H 0.0215 0.0453 0.8428
N40 N 0.4814(5) 0.1455(3) 0.7498(2)
H153 H 0.4794 0.1762 0.7376
C157 C 0.0529(5) 0.1351(4) 0.8385(3)
N41 N 0.5847(4) 0.2458(3) 0.7444(2)
C158 C 0.1526(3) 0.1157(4) 0.8756(3)
N42 N 0.6559(3) 0.4325(3) 0.69354(19)
H154 H 0.6190 0.4178 0.6765
C159 C 0.5330(5) 0.3945(3) 0.8959(2)
N43 N 0.6071(4) 0.4914(3) 0.6401(2)
C160 C 0.4218(5) 0.6161(4) 0.7395(3)
N44 N 0.4424(3) 0.4829(2) 0.53332(19)
H155 H 0.4268 0.4452 0.5372
C161 C 0.0830(5) 0.3674(3) 0.6015(3)
N45 N 0.3369(3) 0.3994(3) 0.49263(19)
C162 C 0.1221(5) 0.0435(4) 0.6734(3)
N46 N 0.2079(4) 0.1949(3) 0.4713(2)
H156 H 0.2395 0.1917 0.4892
C163 C 0.5442(6) 0.1497(4) 0.7700(3)
C164 C 0.6917(5) 0.4911(4) 0.6931(3)
C165 C 0.4086(4) 0.5010(3) 0.5039(3)
C166 C 0.1604(7) 0.1441(4) 0.4563(4)
C167 C 0.2296(3) 0.1408(3) 0.8883(2)
C168 C 0.2625(5) 0.1055(3) 0.9070(2)
H157 H 0.2368 0.0667 0.9117
C169 C 0.3332(5) 0.1269(3) 0.9189(2)
C170 C 0.3692(4) 0.1850(3) 0.9112(2)
C171 C 0.4405(4) 0.2110(3) 0.9217(2)
H158 H 0.4663 0.1892 0.9349
C172 C 0.4743(4) 0.2670(3) 0.9134(2)
H159 H 0.5229 0.2833 0.9208
C173 C 0.4377(4) 0.3006(3) 0.8942(2)
C174 C 0.3669(4) 0.2741(3) 0.8845(2)
C175 C 0.3305(4) 0.2170(3) 0.8915(2)
C176 C 0.5479(4) 0.4518(3) 0.8783(2)
C177 C 0.6113(4) 0.4965(3) 0.8912(2)
H160 H 0.6437 0.4904 0.9106
C178 C 0.6246(4) 0.5490(3) 0.8748(2)
C179 C 0.5768(4) 0.5565(3) 0.8452(2)
C180 C 0.5874(5) 0.6076(3) 0.8271(3)
H161 H 0.6292 0.6394 0.8341
C181 C 0.5384(4) 0.6133(3) 0.7991(3)
H162 H 0.5466 0.6487 0.7869
C182 C 0.4759(4) 0.5669(3) 0.7882(2)
C183 C 0.4659(4) 0.5165(3) 0.8059(2)
C184 C 0.5150(4) 0.5092(3) 0.8351(2)
C185 C 0.3619(4) 0.6005(3) 0.7078(2)
C186 C 0.3539(5) 0.6471(3) 0.6872(3)
H163 H 0.3832 0.6866 0.6938
C187 C 0.3008(5) 0.6326(3) 0.6567(3)
C188 C 0.2605(4) 0.5736(3) 0.6476(3)
C189 C 0.2080(5) 0.5543(3) 0.6165(3)
H164 H 0.1991 0.5829 0.6009
C190 C 0.1695(4) 0.4968(3) 0.6078(3)
H165 H 0.1359 0.4858 0.5859
C191 C 0.1795(4) 0.4530(3) 0.6315(3)
C192 C 0.2317(4) 0.4718(3) 0.6616(3)
C193 C 0.2729(4) 0.5303(3) 0.6706(3)
C194 C 0.0558(4) 0.3014(3) 0.6022(2)
C195 C -0.0107(5) 0.2705(4) 0.5840(2)
H166 H -0.0381 0.2909 0.5707
C196 C -0.0366(5) 0.2102(4) 0.5855(2)
C197 C 0.0050(5) 0.1811(3) 0.6048(2)
C198 C -0.0153(5) 0.1203(3) 0.6069(3)
H167 H -0.0592 0.0967 0.5941
C199 C 0.0257(5) 0.0932(4) 0.6269(3)
H168 H 0.0095 0.0517 0.6283
C200 C 0.0923(5) 0.1268(3) 0.6454(2)
C201 C 0.1128(4) 0.1866(3) 0.6428(2)
C202 C 0.0720(4) 0.2169(3) 0.6229(2)
C203 C 0.1837(5) 0.0322(4) 0.6957(3)
C204 C 0.1717(5) -0.0253(3) 0.7067(3)
H169 H 0.1276 -0.0545 0.7007
C205 C 0.2264(6) -0.0372(3) 0.7263(3)
C206 C 0.2929(5) 0.0067(3) 0.7341(3)
C207 C 0.3524(6) -0.0017(4) 0.7515(3)
H170 H 0.3499 -0.0396 0.7595
C208 C 0.4146(6) 0.0419(4) 0.7579(3)
H171 H 0.4541 0.0338 0.7703
C209 C 0.4210(5) 0.0985(3) 0.7465(3)
C210 C 0.3610(5) 0.1068(3) 0.7286(3)
C211 C 0.2977(5) 0.0636(3) 0.7213(3)
C212 C 0.5982(6) 0.2076(4) 0.7680(3)
C213 C 0.6620(6) 0.2182(5) 0.7923(3)
H172 H 0.6699 0.1894 0.8081
C214 C 0.7123(6) 0.2724(5) 0.7919(3)
C215 C 0.6996(5) 0.3126(4) 0.7679(3)
C216 C 0.7489(5) 0.3682(4) 0.7659(3)
H173 H 0.7924 0.3783 0.7816
C217 C 0.7364(4) 0.4075(4) 0.7425(3)
H174 H 0.7706 0.4447 0.7421
C218 C 0.6717(4) 0.3932(4) 0.7183(2)
C219 C 0.6243(4) 0.3401(4) 0.7200(3)
C220 C 0.6362(5) 0.2971(4) 0.7447(2)
C221 C 0.6623(5) 0.5229(4) 0.6644(3)
C222 C 0.6955(4) 0.5835(4) 0.6645(3)
H175 H 0.7347 0.6030 0.6827
C223 C 0.6706(5) 0.6148(4) 0.6379(3)
C224 C 0.6137(4) 0.5829(3) 0.6112(3)
C225 C 0.5854(5) 0.6105(3) 0.5816(3)
H176 H 0.6053 0.6517 0.5798
C226 C 0.5317(5) 0.5793(3) 0.5568(2)
H177 H 0.5140 0.5987 0.5374
C227 C 0.5001(4) 0.5185(3) 0.5582(2)
C228 C 0.5269(5) 0.4914(3) 0.5876(3)
C229 C 0.5834(4) 0.5215(3) 0.6138(2)
C230 C 0.3475(4) 0.4539(3) 0.4824(2)
C231 C 0.3072(5) 0.4711(4) 0.4545(3)
H178 H 0.3196 0.5109 0.4482
C232 C 0.2488(5) 0.4295(4) 0.4362(2)
C233 C 0.2333(4) 0.3702(4) 0.4448(3)
C234 C 0.1765(5) 0.3236(4) 0.4267(3)
H179 H 0.1448 0.3324 0.4081
C235 C 0.1650(5) 0.2676(5) 0.4342(3)
H180 H 0.1253 0.2377 0.4215
C236 C 0.2138(5) 0.2519(4) 0.4621(3)
C237 C 0.2669(5) 0.2977(4) 0.4796(3)
C238 C 0.2808(4) 0.3572(3) 0.4729(2)
C239 C 0.3365(5) 0.0370(3) 0.9453(3)
H181 H 0.3151 0.0118 0.9219
H182 H 0.3002 0.0356 0.9603
O35 O 0.3710(3) 0.0975(2) 0.93756(16)
C240 C 0.3931(6) 0.0157(4) 0.9667(4)
H183 H 0.4334 0.0241 0.9532
O36 O 0.6823(3) 0.5967(2) 0.88533(17)
C241 C 0.4151(8) 0.0507(6) 1.0044(5)
H184 H 0.4409 0.0918 1.0014
H185 H 0.4444 0.0335 1.0207
H186 H 0.3741 0.0492 1.0152
O37 O 0.2859(3) 0.6723(2) 0.63431(19)
C242 C 0.3638(7) -0.0503(4) 0.9698(4)
H187 H 0.3294 -0.0578 0.9863
H188 H 0.4011 -0.0655 0.9798
H189 H 0.3419 -0.0703 0.9452
O38 O -0.1000(3) 0.1753(2) 0.56970(18)
C243 C 0.7299(5) 0.5937(4) 0.9168(3)
H190 H 0.7552 0.5666 0.9108
H191 H 0.7052 0.5788 0.9375
O39 O 0.2249(4) -0.0905(2) 0.73873(19)
C244 C 0.7811(6) 0.6569(4) 0.9280(3)
H192 H 0.8174 0.6560 0.9490
O40 O 0.7723(4) 0.2889(3) 0.8142(2)
C245 C 0.8140(10) 0.6842(8) 0.8961(5)
H193 H 0.8364 0.6583 0.8858
H194 H 0.8484 0.7226 0.9048
H195 H 0.7785 0.6896 0.8769
O41 O 0.6939(3) 0.6730(2) 0.63585(18)
C246 C 0.7433(7) 0.6989(6) 0.9388(4)
H196 H 0.7118 0.7034 0.9172
H197 H 0.7770 0.7376 0.9479
H198 H 0.7169 0.6829 0.9584
O42 O 0.2023(3) 0.4413(3) 0.40946(17)
C247 C 0.3229(5) 0.7341(3) 0.6440(3)
H199 H 0.3721 0.7431 0.6416
H200 H 0.3201 0.7453 0.6698
C248 C 0.2876(6) 0.7681(5) 0.6166(4)
H201 H 0.2932 0.7570 0.5910
C249 C 0.3258(8) 0.8336(6) 0.6257(5)
H202 H 0.3278 0.8439 0.6520
H203 H 0.3015 0.8564 0.6108
H204 H 0.3728 0.8427 0.6202
C250 C 0.2119(7) 0.7511(9) 0.6181(6)
H205 H 0.1922 0.7080 0.6169
H206 H 0.1888 0.7659 0.5971
H207 H 0.2051 0.7684 0.6412
C251 C -0.1497(5) 0.2035(4) 0.5544(3)
H208 H -0.1385 0.2198 0.5308
H209 H -0.1492 0.2361 0.5719
C252 C -0.2208(5) 0.1558(4) 0.5479(3)
H210 H -0.2177 0.1225 0.5318
C253 C -0.2715(5) 0.1824(5) 0.5258(4)
H211 H -0.2754 0.2155 0.5408
H212 H -0.3169 0.1522 0.5194
H213 H -0.2544 0.1966 0.5031
C254 C -0.2421(6) 0.1309(6) 0.5838(3)
H214 H -0.2059 0.1168 0.5968
H215 H -0.2854 0.0980 0.5780
H216 H -0.2485 0.1618 0.5996
C255 C 0.1609(6) -0.1393(4) 0.7291(3)
H217 H 0.1477 -0.1468 0.7018
H218 H 0.1231 -0.1303 0.7392
C256 C 0.1741(6) -0.1924(5) 0.7458(4)
H219 H 0.1891 -0.1837 0.7731
C257 C 0.2303(8) -0.2040(8) 0.7287(5)
H220 H 0.2103 -0.2298 0.7059
H221 H 0.2556 -0.2233 0.7461
H222 H 0.2621 -0.1666 0.7231
C258 C 0.1088(7) -0.2449(6) 0.7378(5)
H223 H 0.0755 -0.2395 0.7530
H224 H 0.1196 -0.2809 0.7439
H225 H 0.0889 -0.2483 0.7116
C259 C 0.7842(8) 0.2470(7) 0.8400(4)
H226 H 0.7952 0.2152 0.8269
H227 H 0.7422 0.2289 0.8509
C260 C 0.8431(11) 0.2789(8) 0.8699(5)
H228 H 0.8872 0.2925 0.8596
C261 C 0.8454(12) 0.2319(10) 0.8972(7)
H229 H 0.7983 0.2103 0.9010
H230 H 0.8732 0.2511 0.9209
H231 H 0.8660 0.2043 0.8872
C262 C 0.8320(8) 0.3293(7) 0.8900(5)
H232 H 0.7897 0.3356 0.8778
H233 H 0.8714 0.3651 0.8898
H234 H 0.8278 0.3204 0.9156
C263 C 0.7445(6) 0.7087(4) 0.6651(4)
H235 H 0.7906 0.7072 0.6616
H236 H 0.7349 0.6923 0.6890
C264 C 0.7457(7) 0.7713(5) 0.6668(4)
H237 H 0.7801 0.7942 0.6885
C265 C 0.7660(9) 0.7960(8) 0.6320(4)
H238 H 0.7679 0.7644 0.6150
H239 H 0.8116 0.8263 0.6376
H240 H 0.7320 0.8138 0.6206
C266 C 0.6765(11) 0.7753(9) 0.6700(6)
H241 H 0.6411 0.7441 0.6534
H242 H 0.6743 0.8140 0.6630
H243 H 0.6686 0.7705 0.6956
C267 C 0.2208(5) 0.4990(4) 0.3959(3)
H244 H 0.2604 0.5046 0.3826
H245 H 0.2345 0.5296 0.4169
C268 C 0.1599(5) 0.5048(4) 0.3702(3)
H246 H 0.1235 0.5057 0.3852
C269 C 0.1827(5) 0.5631(4) 0.3533(3)
H247 H 0.2265 0.5883 0.3677
H248 H 0.1476 0.5826 0.3535
H249 H 0.1889 0.5562 0.3277
C270 C 0.1293(5) 0.4534(5) 0.3409(3)
H250 H 0.1650 0.4503 0.3268
H251 H 0.0913 0.4599 0.3241
H252 H 0.1119 0.4168 0.3528
C271 C 0.1921(7) 0.7376(8) 0.8682(5)
C272 C 0.2270(10) 0.7886(8) 0.8971(5)
H253 H 0.2033 0.7827 0.9187
H254 H 0.2753 0.7909 0.9048
H255 H 0.2252 0.8255 0.8868
C273 C 0.2277(13) 0.7460(11) 0.8352(7)
H256 H 0.2774 0.7545 0.8433
H257 H 0.2195 0.7791 0.8224
H258 H 0.2095 0.7100 0.8184
C274 C 0.1167(9) 0.7297(11) 0.8566(7)
H259 H 0.0937 0.7242 0.8784
H260 H 0.1118 0.7649 0.8450
H261 H 0.0956 0.6950 0.8388
C275 C 0.1356(8) 0.0375(5) 0.4540(4)
C276 C 0.1416(9) 0.0372(6) 0.4122(4)
H262 H 0.1196 0.0644 0.4005
H263 H 0.1187 -0.0027 0.4003
H264 H 0.1905 0.0499 0.4095
C277 C 0.0625(6) 0.0177(4) 0.4608(4)
H265 H 0.0621 0.0187 0.4876
H266 H 0.0389 -0.0226 0.4496
H267 H 0.0386 0.0442 0.4498
C278 C 0.1753(7) 0.0025(4) 0.4765(5)
H268 H 0.2192 0.0076 0.4677
H269 H 0.1478 -0.0395 0.4735
H270 H 0.1845 0.0168 0.5027
C279 C 0.4090(7) 0.1581(6) 0.5382(4)
H271 H 0.4151 0.1256 0.5520
H272 H 0.4540 0.1825 0.5339
N47 N 0.3744(4) 0.2354(3) 0.6120(2)
H273 H 0.3455 0.2497 0.5983
O43 O 0.3794(4) 0.1923(3) 0.5592(2)
N48 N 0.1814(4) 0.2980(3) 0.8472(2)
H274 H 0.2081 0.2898 0.8658
O44 O 0.4533(3) 0.1881(2) 0.61104(18)
O45 O 0.0816(3) 0.3190(3) 0.8303(2)
C280 C 0.4052(5) 0.2045(3) 0.5958(3)
O46 O 0.1115(3) 0.2925(3) 0.8877(2)
C281 C 0.3859(7) 0.2473(5) 0.6519(3)
H275 H 0.3672 0.2097 0.6631
H276 H 0.4362 0.2624 0.6609
C282 C 0.3552(6) 0.2890(4) 0.6646(3)
H277 H 0.3067 0.2774 0.6519
H278 H 0.3796 0.3281 0.6566
C283 C 0.3554(7) 0.2960(4) 0.7057(3)
H279 H 0.3354 0.2566 0.7145
H280 H 0.4038 0.3125 0.7186
C284 C 0.3166(5) 0.3345(4) 0.7158(3)
H281 H 0.2706 0.3214 0.7000
H282 H 0.3408 0.3752 0.7102
C285 C 0.3067(5) 0.3360(3) 0.7556(3)
H283 H 0.3524 0.3540 0.7713
H284 H 0.2881 0.2949 0.7622
C286 C 0.2592(5) 0.3694(4) 0.7652(3)
H285 H 0.2803 0.4114 0.7611
H286 H 0.2151 0.3541 0.7478
C287 C 0.2435(5) 0.3660(4) 0.8038(3)
H287 H 0.2163 0.3925 0.8078
H288 H 0.2872 0.3801 0.8216
C288 C 0.2035(5) 0.3039(4) 0.8112(3)
H289 H 0.1621 0.2889 0.7918
H290 H 0.2326 0.2784 0.8090
C289 C 0.1228(6) 0.3045(4) 0.8526(4)
C290 C 0.0450(7) 0.2914(6) 0.8953(4)
H291 H 0.0085 0.2557 0.8846
H292 H 0.0347 0.3249 0.8847
C291 C 0.3639(11) 0.1351(10) 0.5011(5)
H293 H 0.3611 0.1687 0.4866
H294 H 0.3166 0.1126 0.5050
C292 C 0.3941(18) 0.0929(16) 0.4783(10)
H295 H 0.4437 0.1131 0.4779
H296 H 0.3898 0.0561 0.4907
C293 C 0.353(2) 0.078(2) 0.4373(14)
H297 H 0.3116 0.0890 0.4354
H298 H 0.3406 0.0350 0.4308
H299 H 0.3828 0.0990 0.4202
C294 C 0.0504(13) 0.3018(9) 0.9364(4)
H300 H 0.0722 0.2753 0.9498
H301 H 0.0043 0.2956 0.9434
C295 C 0.0956(12) 0.3662(9) 0.9448(7)
H302 H 0.1381 0.3734 0.9338
H303 H 0.0704 0.3926 0.9344
C296 C 0.1133(12) 0.3776(10) 0.9863(7)
H304 H 0.1351 0.3469 0.9938
C297 C 0.1755(6) 0.4341(6) 0.9889(5)
C298 C 0.2389(7) 0.4385(5) 0.9786(3)
H305 H 0.2424 0.4095 0.9614
C299 C 0.2972(5) 0.4853(5) 0.9936(4)
H306 H 0.3406 0.4883 0.9866
C300 C 0.2922(6) 0.5277(5) 1.0189(4)
H307 H 0.3320 0.5597 1.0291
C301 C 0.2288(7) 0.5233(6) 1.0291(4)
H308 H 0.2253 0.5523 1.0464
C302 C 0.1705(6) 0.4765(7) 1.0141(5)
H309 H 0.1271 0.4735 1.0211
C303 C 0.0472(12) 0.3599(16) 1.0035(9)
C304 C 0.0257(15) 0.3178(13) 1.0283(9)
H310 H 0.0498 0.2903 1.0338
C305 C -0.0310(16) 0.3158(12) 1.0450(7)
H311 H -0.0456 0.2870 1.0619
C306 C -0.0662(12) 0.3559(15) 1.0369(8)
H312 H -0.1050 0.3546 1.0484
C307 C -0.0448(16) 0.3980(13) 1.0122(9)
H313 H -0.0689 0.4254 1.0067
C308 C 0.0119(17) 0.4000(12) 0.9955(7)
H314 H 0.0266 0.4287 0.9785
O47 O 0.0766(5) 0.6140(4) 0.7838(3)
H315 H 0.0522 0.5776 0.7805
O48 O 0.8120(4) 0.2987(3) 0.60827(18)
H316 H 0.7926 0.2961 0.6273
H317 H 0.8549 0.3108 0.6077
Cl1 Cl -0.0412(5) -0.2560(4) 0.6554(3)
C309 C -0.0458(10) -0.2016(8) 0.6832(5)
C310 C -0.0315(9) -0.1433(8) 0.6747(4)
H318 H -0.0173 -0.1321 0.6517
C311 C -0.0378(10) -0.1012(6) 0.6997(6)
H319 H -0.0280 -0.0613 0.6939
C312 C -0.0585(11) -0.1176(9) 0.7333(5)
H320 H -0.0628 -0.0888 0.7504
C313 C -0.0728(11) -0.1759(10) 0.7418(5)
H321 H -0.0870 -0.1871 0.7648
C314 C -0.0665(11) -0.2180(7) 0.7168(6)
H322 H -0.0763 -0.2579 0.7226
Cl2 Cl 0.1627(5) 0.8684(4) 0.9548(3)
C315 C 0.1755(6) 0.9255(4) 0.9766(4)
C316 C 0.1525(6) 0.9671(6) 0.9579(3)
H323 H 0.1327 0.9591 0.9325
C317 C 0.1584(6) 1.0205(5) 0.9764(4)
H324 H 0.1427 1.0490 0.9636
C318 C 0.1874(7) 1.0323(4) 1.0137(4)
H325 H 0.1915 1.0688 1.0264
C319 C 0.2104(6) 0.9907(6) 1.0324(3)
H326 H 0.2298 0.9984 1.0573
C320 C 0.2044(6) 0.9373(5) 1.0139(4)
H327 H 0.2201 0.9088 1.0267
Cl3 Cl 0.5495(3) 0.8438(3) 0.65665(17)
C321 C 0.5056(4) 0.8427(4) 0.6907(2)
C322 C 0.4809(4) 0.8895(3) 0.6963(2)
H328 H 0.4917 0.9221 0.6816
C323 C 0.4403(5) 0.8885(4) 0.7235(3)
H329 H 0.4234 0.9205 0.7273
C324 C 0.4244(4) 0.8408(4) 0.7450(2)
H330 H 0.3966 0.8401 0.7635
C325 C 0.4491(5) 0.7940(4) 0.7393(2)
H331 H 0.4382 0.7613 0.7540
C326 C 0.4897(5) 0.7949(3) 0.7122(3)
H332 H 0.5066 0.7629 0.7083
Cl4 Cl 0.6286(4) 0.1160(3) 0.9326(2)
C327 C 0.6718(6) 0.1895(3) 0.9496(4)
C328 C 0.7218(6) 0.2027(4) 0.9812(4)
H333 H 0.7362 0.1721 0.9921
C329 C 0.7508(5) 0.2605(5) 0.9967(3)
H334 H 0.7850 0.2695 1.0183
C330 C 0.7298(5) 0.3052(3) 0.9807(3)
H335 H 0.7496 0.3447 0.9913
C331 C 0.6798(5) 0.2920(4) 0.9491(3)
H336 H 0.6654 0.3226 0.9381
C332 C 0.6508(5) 0.2342(5) 0.9335(3)
H337 H 0.6166 0.2252 0.9119
Cl5 Cl -0.1570(5) -0.0989(5) 0.7794(3)
C333 C -0.2357(7) -0.1509(8) 0.7714(6)
C334 C -0.2927(10) -0.1312(6) 0.7672(5)
H338 H -0.2864 -0.0901 0.7689
C335 C -0.3589(8) -0.1718(8) 0.7604(6)
H339 H -0.3979 -0.1584 0.7575
C336 C -0.3681(8) -0.2319(8) 0.7578(5)
H340 H -0.4133 -0.2596 0.7532
C337 C -0.3111(11) -0.2516(6) 0.7621(6)
H341 H -0.3173 -0.2927 0.7603
C338 C -0.2448(9) -0.2110(9) 0.7689(6)
H342 H -0.2059 -0.2245 0.7718
C339 C 0.6566(5) 0.9998(4) 0.81806(18)
C340 C 0.6467(10) 1.0491(5) 0.8344(3)
H343 H 0.6050 1.0576 0.8271
C341 C 0.6979(13) 1.0859(5) 0.8614(3)
H344 H 0.6911 1.1196 0.8726
C342 C 0.7589(10) 1.0735(9) 0.8721(3)
H345 H 0.7939 1.0986 0.8906
C343 C 0.7688(6) 1.0242(12) 0.8558(4)
H346 H 0.8105 1.0157 0.8631
C344 C 0.7176(6) 0.9874(9) 0.8288(3)
H347 H 0.7244 0.9537 0.8176
Cl6 Cl 0.5923(5) 0.9535(4) 0.78410(18)
C345 C 0.1038(17) -0.1158(14) 0.8212(9)
H348 H 0.1415 -0.1208 0.8390
H349 H 0.1230 -0.0919 0.8018
H350 H 0.0732 -0.1545 0.8101
C346 C 0.0627(17) -0.0867(15) 0.8405(9)
H351 H 0.0395 -0.0672 0.8218
H352 H 0.0955 -0.0552 0.8584
C347 C 0.0086(17) -0.1241(14) 0.8609(10)
H353 H -0.0229 -0.1581 0.8442
H354 H 0.0310 -0.1396 0.8822
C348 C -0.0317(16) -0.0876(14) 0.8743(8)
H355 H -0.0254 -0.0561 0.8570
H356 H -0.0023 -0.0681 0.8980
C349 C -0.1039(14) -0.0957(15) 0.8824(8)
H357 H -0.1121 -0.0571 0.8839
H358 H -0.1389 -0.1220 0.8625
C350 C -0.1081(15) -0.1229(14) 0.9190(8)
H359 H -0.0980 -0.1602 0.9173
H360 H -0.1546 -0.1303 0.9249
H361 H -0.0743 -0.0957 0.9385
H362? H 0.2410 0.7617 0.6235
C351? C 0.2745(16) 0.7506(13) 0.5765(5)
H363? H 0.2498 0.7081 0.5721
H364? H 0.2464 0.7724 0.5635
H365? H 0.3185 0.7597 0.5673
H366? H 0.8848 0.5328 0.8830
C352? C 0.9511(15) 0.5848(13) 0.8558(8)
H367? H 0.9529 0.5945 0.8301
H368? H 0.9919 0.5739 0.8656
H369? H 0.9503 0.6191 0.8708
H370? H 0.6295 0.2626 1.0253
C353? C 0.5629(12) 0.1976(10) 1.0358(9)
H371? H 0.5478 0.1818 1.0586
H372? H 0.5950 0.1787 1.0282
H373? H 0.5227 0.1897 1.0162
C354? C 0.6446(12) 0.2856(11) 1.0780(6)
H374? H 0.6856 0.3157 1.0724
H375? H 0.6583 0.2548 1.0908
H376? H 0.6211 0.3038 1.0938
H377? H 0.4544 0.1613 0.5514
H378? H 0.4152 0.1752 0.5148
H379? H 0.0142 0.2512 0.8942
H380? H 0.0254 0.3109 0.8759
C355? C 0.053(4) 0.3259(17) 0.9317(7)
H381? H 0.0939 0.3227 0.9482
H382? H 0.0121 0.3077 0.9434
C356? C 0.061(3) 0.3904(15) 0.9285(15)
H383? H 0.0569 0.3938 0.9014
H384? H 0.1105 0.4103 0.9384
C357? C 0.027(3) 0.434(2) 0.9413(15)
H385? H -0.0111 0.4346 0.9219
H386? H 0.0607 0.4733 0.9463
H387? H 0.0081 0.4213 0.9639
C358? C 0.367(2) 0.0937(9) 0.5316(16)
H388? H 0.3184 0.0922 0.5248
H389? H 0.3709 0.0771 0.5559
C359? C 0.378(2) 0.050(3) 0.5041(15)
H390? H 0.3459 0.0105 0.5061
H391? H 0.3669 0.0615 0.4787
C360? C 0.451(2) 0.048(2) 0.5097(8)
H392? H 0.4773 0.0907 0.5134
C361? C 0.475(2) 0.029(2) 0.5471(9)
C362? C 0.4471(16) -0.026(2) 0.5602(12)
H393? H 0.4038 -0.0526 0.5478
C363? C 0.482(2) -0.0422(14) 0.5914(13)
H394? H 0.4624 -0.0801 0.6005
C364? C 0.544(2) -0.004(2) 0.6095(9)
H395? H 0.5684 -0.0149 0.6310
C365? C 0.5725(16) 0.0511(19) 0.5964(13)
H396? H 0.6159 0.0776 0.6088
C366? C 0.538(3) 0.0673(15) 0.5652(13)
H397? H 0.5573 0.1051 0.5561
C367? C 0.489(3) 0.0288(17) 0.4815(11)
C368? C 0.4494(16) 0.0055(16) 0.4472(15)
H398? H 0.3999 -0.0069 0.4443
C369? C 0.481(3) 0.0002(15) 0.4170(10)
H399? H 0.4539 -0.0159 0.3933
C370? C 0.553(3) 0.0182(17) 0.4212(11)
H400? H 0.5749 0.0145 0.4004
C371? C 0.5926(16) 0.0414(16) 0.4555(15)
H401? H 0.6420 0.0538 0.4584
C372? C 0.561(3) 0.0467(15) 0.4857(9)
H402? H 0.5881 0.0628 0.5094
Cl7? Cl -0.0708(4) -0.3048(4) 0.6769(2)
C373? C -0.0487(9) -0.2301(6) 0.6882(5)
C374? C -0.0525(12) -0.2054(9) 0.7223(5)
H403? H -0.0679 -0.2302 0.7412
C375? C -0.0339(12) -0.1445(10) 0.7289(5)
H404? H -0.0364 -0.1276 0.7522
C376? C -0.0114(10) -0.1082(6) 0.7013(6)
H405? H 0.0013 -0.0666 0.7057
C377? C -0.0076(10) -0.1329(7) 0.6671(5)
H406? H 0.0077 -0.1082 0.6483
C378? C -0.0263(9) -0.1939(7) 0.6606(4)
H407? H -0.0237 -0.2108 0.6373
Cl8? Cl 0.2371(8) 1.0012(7) 1.0705(5)
Cl9? Cl -0.2407(5) -0.2687(3) 0.8001(2)
C379? C -0.1735(5) -0.2954(3) 0.7934(2)
C380? C -0.1839(6) -0.3393(5) 0.7654(3)
H408? H -0.2276 -0.3548 0.7499
C381? C -0.1304(8) -0.3606(6) 0.7600(5)
H409? H -0.1375 -0.3906 0.7408
C382? C -0.0664(7) -0.3378(6) 0.7826(5)
H410? H -0.0298 -0.3524 0.7789
C383? C -0.0560(5) -0.2939(7) 0.8106(4)
H411? H -0.0123 -0.2784 0.8261
C384? C -0.1095(5) -0.2726(5) 0.8160(3)
H412? H -0.1024 -0.2426 0.8351
H413? H 0.1709 0.8897 0.9640
H414? H 0.4024 0.8041 0.5351
H415? H 0.3861 0.7421 0.5120
H416? H 0.4574 0.7935 0.5116
loop_
_geom_bond_atom_site_label_1
_geom_bond_atom_site_label_2
_geom_bond_site_symmetry_1
_geom_bond_site_symmetry_2
F1 C71 1_555 1_555
F2 C80 1_555 1_555
F3 C62 1_555 1_555
F4 C35 1_555 1_555
F5 C44 1_555 1_555
F6 C89 1_555 1_555
F7 C98 1_555 1_555
F8 C53 1_555 1_555
C1 N1 1_555 1_555
N1 H1 1_555 1_555
O1 C1 1_555 1_555
C2 N1 1_555 1_555
N2 C2 1_555 1_555
O2 C7 1_555 1_555
C3 C2 1_555 1_555
H2 C3 1_555 1_555
N3 H3 1_555 1_555
O3 C13 1_555 1_555
C4 C3 1_555 1_555
H4 C4 1_555 1_555
N4 C8 1_555 1_555
O4 C19 1_555 1_555
C5 C4 1_555 1_555
H5 C5 1_555 1_555
N5 H6 1_555 1_555
O5 C20 1_555 1_555
C6 N2 1_555 1_555
N6 C14 1_555 1_555
O6 C21 1_555 1_555
C7 N3 1_555 1_555
N7 H7 1_555 1_555
O7 C22 1_555 1_555
C8 C7 1_555 1_555
N8 C28 1_555 1_555
O8 C23 1_555 1_555
C9 C8 1_555 1_555
H8 C9 1_555 1_555
N9 H9 1_555 1_555
O9 C24 1_555 1_555
C10 C9 1_555 1_555
H10 C10 1_555 1_555
N10 C37 1_555 1_555
O10 C25 1_555 1_555
C11 C10 1_555 1_555
H11 C11 1_555 1_555
N11 H12 1_555 1_555
O11 C26 1_555 1_555
C12 N4 1_555 1_555
N12 C46 1_555 1_555
O12 C27 1_555 1_555
C13 N5 1_555 1_555
N13 H13 1_555 1_555
O13 C27 1_555 1_555
C14 N5 1_555 1_555
N14 C55 1_555 1_555
C15 C14 1_555 1_555
H14 C15 1_555 1_555
N15 H15 1_555 1_555
C16 C15 1_555 1_555
H16 C16 1_555 1_555
N16 C64 1_555 1_555
C17 C16 1_555 1_555
H17 C17 1_555 1_555
N17 H18 1_555 1_555
C18 N6 1_555 1_555
N18 C73 1_555 1_555
C19 N7 1_555 1_555
N19 H19 1_555 1_555
C20 N9 1_555 1_555
N20 C82 1_555 1_555
C21 N11 1_555 1_555
N21 H20 1_555 1_555
C22 N13 1_555 1_555
N22 C91 1_555 1_555
C23 N15 1_555 1_555
N23 H21 1_555 1_555
C24 N17 1_555 1_555
C25 N19 1_555 1_555
C26 N21 1_555 1_555
C27 N23 1_555 1_555
C28 C19 1_555 1_555
C29 C28 1_555 1_555
H22 C29 1_555 1_555
C30 C29 1_555 1_555
C31 C30 1_555 1_555
C32 C31 1_555 1_555
H23 C32 1_555 1_555
C33 C32 1_555 1_555
H24 C33 1_555 1_555
C34 N9 1_555 1_555
C35 C34 1_555 1_555
C36 N8 1_555 1_555
C37 C20 1_555 1_555
C38 C37 1_555 1_555
H25 C38 1_555 1_555
C39 C38 1_555 1_555
C40 C39 1_555 1_555
C41 C40 1_555 1_555
H26 C41 1_555 1_555
C42 C41 1_555 1_555
H27 C42 1_555 1_555
C43 N11 1_555 1_555
C44 C43 1_555 1_555
C45 N10 1_555 1_555
C46 C21 1_555 1_555
C47 C46 1_555 1_555
H28 C47 1_555 1_555
C48 C47 1_555 1_555
C49 C48 1_555 1_555
C50 C49 1_555 1_555
H29 C50 1_555 1_555
C51 C50 1_555 1_555
H30 C51 1_555 1_555
C52 N13 1_555 1_555
C53 C52 1_555 1_555
C54 N12 1_555 1_555
C55 C22 1_555 1_555
C56 C55 1_555 1_555
H31 C56 1_555 1_555
C57 C56 1_555 1_555
C58 C57 1_555 1_555
C59 C58 1_555 1_555
H32 C59 1_555 1_555
C60 C59 1_555 1_555
H33 C60 1_555 1_555
C61 N15 1_555 1_555
C62 C61 1_555 1_555
C63 N14 1_555 1_555
C64 C23 1_555 1_555
C65 C64 1_555 1_555
H34 C65 1_555 1_555
C66 C65 1_555 1_555
C67 C66 1_555 1_555
C68 C67 1_555 1_555
H35 C68 1_555 1_555
C69 C68 1_555 1_555
H36 C69 1_555 1_555
C70 N17 1_555 1_555
C71 C70 1_555 1_555
C72 N16 1_555 1_555
C73 C24 1_555 1_555
C74 C73 1_555 1_555
H37 C74 1_555 1_555
C75 C74 1_555 1_555
C76 C75 1_555 1_555
C77 C76 1_555 1_555
H38 C77 1_555 1_555
C78 C77 1_555 1_555
H39 C78 1_555 1_555
C79 N19 1_555 1_555
C80 C79 1_555 1_555
C81 N18 1_555 1_555
C82 C25 1_555 1_555
C83 C82 1_555 1_555
H40 C83 1_555 1_555
C84 C83 1_555 1_555
C85 C84 1_555 1_555
C86 C85 1_555 1_555
H41 C86 1_555 1_555
C87 C86 1_555 1_555
H42 C87 1_555 1_555
C88 N21 1_555 1_555
C89 C88 1_555 1_555
C90 N20 1_555 1_555
C91 C26 1_555 1_555
C92 C91 1_555 1_555
H43 C92 1_555 1_555
C93 C92 1_555 1_555
C94 C93 1_555 1_555
C95 C94 1_555 1_555
H44 C95 1_555 1_555
C96 C95 1_555 1_555
H45 C96 1_555 1_555
C97 N23 1_555 1_555
C98 C97 1_555 1_555
C99 N22 1_555 1_555
C100 H46 1_555 1_555
H47 C100 1_555 1_555
O14 C30 1_555 1_555
C101 C100 1_555 1_555
H48 C101 1_555 1_555
O15 C39 1_555 1_555
C102 C101 1_555 1_555
H49 C102 1_555 1_555
H50 C102 1_555 1_555
H51 C102 1_555 1_555
O16 C48 1_555 1_555
C103 C101 1_555 1_555
H52 C103 1_555 1_555
H53 C103 1_555 1_555
H54 C103 1_555 1_555
O17 C57 1_555 1_555
C104 O15 1_555 1_555
H55 C104 1_555 1_555
H56 C104 1_555 1_555
O18 C66 1_555 1_555
C105 C104 1_555 1_555
H57 C105 1_555 1_555
O19 C75 1_555 1_555
C106 C105 1_555 1_555
H58 C106 1_555 1_555
H59 C106 1_555 1_555
H60 C106 1_555 1_555
O20 C84 1_555 1_555
C107 C105 1_555 1_555
H61 C107 1_555 1_555
H62 C107 1_555 1_555
H63 C107 1_555 1_555
O21 C93 1_555 1_555
C108 O16 1_555 1_555
H64 C108 1_555 1_555
H65 C108 1_555 1_555
C109 C108 1_555 1_555
H66 C109 1_555 1_555
C110 C109 1_555 1_555
H67 C110 1_555 1_555
H68 C110 1_555 1_555
H69 C110 1_555 1_555
C111 C109 1_555 1_555
H70 C111 1_555 1_555
H71 C111 1_555 1_555
H72 C111 1_555 1_555
C112 O17 1_555 1_555
H73 C112 1_555 1_555
H74 C112 1_555 1_555
C113 C112 1_555 1_555
H75 C113 1_555 1_555
C114 C113 1_555 1_555
H76 C114 1_555 1_555
H77 C114 1_555 1_555
H78 C114 1_555 1_555
C115 C113 1_555 1_555
H79 C115 1_555 1_555
H80 C115 1_555 1_555
H81 C115 1_555 1_555
C116 O18 1_555 1_555
H82 C116 1_555 1_555
H83 C116 1_555 1_555
C117 C116 1_555 1_555
H84 C117 1_555 1_555
C118 C117 1_555 1_555
H85 C118 1_555 1_555
H86 C118 1_555 1_555
H87 C118 1_555 1_555
C119 C117 1_555 1_555
H88 C119 1_555 1_555
H89 C119 1_555 1_555
H90 C119 1_555 1_555
C120 O19 1_555 1_555
H91 C120 1_555 1_555
H92 C120 1_555 1_555
C121 C120 1_555 1_555
H93 C121 1_555 1_555
C122 C121 1_555 1_555
H94 C122 1_555 1_555
H95 C122 1_555 1_555
H96 C122 1_555 1_555
C123 C121 1_555 1_555
H97 C123 1_555 1_555
H98 C123 1_555 1_555
H99 C123 1_555 1_555
C124 O20 1_555 1_555
H100 C124 1_555 1_555
H101 C124 1_555 1_555
C125 C124 1_555 1_555
H102 C125 1_555 1_555
C126 C125 1_555 1_555
H103 C126 1_555 1_555
H104 C126 1_555 1_555
H105 C126 1_555 1_555
C127 C125 1_555 1_555
H106 C127 1_555 1_555
H107 C127 1_555 1_555
H108 C127 1_555 1_555
C128 O21 1_555 1_555
H109 C128 1_555 1_555
H110 C128 1_555 1_555
C129 C128 1_555 1_555
H111 C129 1_555 1_555
C130 C129 1_555 1_555
H112 C130 1_555 1_555
H113 C130 1_555 1_555
H114 C130 1_555 1_555
C131 C129 1_555 1_555
H115 C131 1_555 1_555
H116 C131 1_555 1_555
H117 C131 1_555 1_555
C132 C1 1_555 1_555
C133 C132 1_555 1_555
H118 C133 1_555 1_555
H119 C133 1_555 1_555
H120 C133 1_555 1_555
C134 C132 1_555 1_555
H121 C134 1_555 1_555
H122 C134 1_555 1_555
H123 C134 1_555 1_555
C135 C132 1_555 1_555
H124 C135 1_555 1_555
H125 C135 1_555 1_555
H126 C135 1_555 1_555
C136 O13 1_555 1_555
C137 C136 1_555 1_555
H127 C137 1_555 1_555
H128 C137 1_555 1_555
H129 C137 1_555 1_555
C138 C136 1_555 1_555
H130 C138 1_555 1_555
H131 C138 1_555 1_555
H132 C138 1_555 1_555
C139 C136 1_555 1_555
H133 C139 1_555 1_555
H134 C139 1_555 1_555
H135 C139 1_555 1_555
C140 N24 1_555 1_555
N24 H136 1_555 1_555
O22 C140 1_555 1_555
F9 C174 1_555 1_555
N25 C141 1_555 1_555
C141 N24 1_555 1_555
C142 C141 1_555 1_555
H137 C142 1_555 1_555
C143 C142 1_555 1_555
H138 C143 1_555 1_555
C144 C143 1_555 1_555
H139 C144 1_555 1_555
C145 N25 1_555 1_555
O23 C146 1_555 1_555
F10 C183 1_555 1_555
N26 C145 1_555 1_555
H140 N26 1_555 1_555
O24 C152 1_555 1_555
F11 C192 1_555 1_555
N27 C147 1_555 1_555
O25 C158 1_555 1_555
F12 C201 1_555 1_555
N28 H141 1_555 1_555
O26 C159 1_555 1_555
F13 C210 1_555 1_555
N29 C153 1_555 1_555
O27 C160 1_555 1_555
F14 C219 1_555 1_555
C146 N26 1_555 1_555
N30 H142 1_555 1_555
O28 C161 1_555 1_555
F15 C228 1_555 1_555
C147 C146 1_555 1_555
N31 C167 1_555 1_555
O29 C162 1_555 1_555
F16 C237 1_555 1_555
C148 C147 1_555 1_555
H143 C148 1_555 1_555
N32 H144 1_555 1_555
O30 C163 1_555 1_555
C149 C148 1_555 1_555
H145 C149 1_555 1_555
N33 C176 1_555 1_555
O31 C164 1_555 1_555
C150 C149 1_555 1_555
H146 C150 1_555 1_555
N34 H147 1_555 1_555
O32 C165 1_555 1_555
C151 N27 1_555 1_555
N35 C185 1_555 1_555
O33 C166 1_555 1_555
C152 N28 1_555 1_555
N36 H148 1_555 1_555
O34 C166 1_555 1_555
C153 N28 1_555 1_555
N37 C194 1_555 1_555
C154 C153 1_555 1_555
H149 C154 1_555 1_555
N38 H150 1_555 1_555
C155 C154 1_555 1_555
H151 C155 1_555 1_555
N39 C203 1_555 1_555
C156 C155 1_555 1_555
H152 C156 1_555 1_555
N40 H153 1_555 1_555
C157 N29 1_555 1_555
N41 C212 1_555 1_555
C158 N30 1_555 1_555
N42 H154 1_555 1_555
C159 N32 1_555 1_555
N43 C221 1_555 1_555
C160 N34 1_555 1_555
N44 H155 1_555 1_555
C161 N36 1_555 1_555
N45 C230 1_555 1_555
C162 N38 1_555 1_555
N46 H156 1_555 1_555
C163 N40 1_555 1_555
C164 N42 1_555 1_555
C165 N44 1_555 1_555
C166 N46 1_555 1_555
C167 C158 1_555 1_555
C168 C167 1_555 1_555
H157 C168 1_555 1_555
C169 C168 1_555 1_555
C170 C169 1_555 1_555
C171 C170 1_555 1_555
H158 C171 1_555 1_555
C172 C171 1_555 1_555
H159 C172 1_555 1_555
C173 N32 1_555 1_555
C174 C173 1_555 1_555
C175 N31 1_555 1_555
C176 C159 1_555 1_555
C177 C176 1_555 1_555
H160 C177 1_555 1_555
C178 C177 1_555 1_555
C179 C178 1_555 1_555
C180 C179 1_555 1_555
H161 C180 1_555 1_555
C181 C180 1_555 1_555
H162 C181 1_555 1_555
C182 N34 1_555 1_555
C183 C182 1_555 1_555
C184 N33 1_555 1_555
C185 C160 1_555 1_555
C186 C185 1_555 1_555
H163 C186 1_555 1_555
C187 C186 1_555 1_555
C188 C187 1_555 1_555
C189 C188 1_555 1_555
H164 C189 1_555 1_555
C190 C189 1_555 1_555
H165 C190 1_555 1_555
C191 N36 1_555 1_555
C192 C191 1_555 1_555
C193 N35 1_555 1_555
C194 C161 1_555 1_555
C195 C194 1_555 1_555
H166 C195 1_555 1_555
C196 C195 1_555 1_555
C197 C196 1_555 1_555
C198 C197 1_555 1_555
H167 C198 1_555 1_555
C199 C198 1_555 1_555
H168 C199 1_555 1_555
C200 N38 1_555 1_555
C201 C200 1_555 1_555
C202 N37 1_555 1_555
C203 C162 1_555 1_555
C204 C203 1_555 1_555
H169 C204 1_555 1_555
C205 C204 1_555 1_555
C206 C205 1_555 1_555
C207 C206 1_555 1_555
H170 C207 1_555 1_555
C208 C207 1_555 1_555
H171 C208 1_555 1_555
C209 N40 1_555 1_555
C210 C209 1_555 1_555
C211 N39 1_555 1_555
C212 C163 1_555 1_555
C213 C212 1_555 1_555
H172 C213 1_555 1_555
C214 C213 1_555 1_555
C215 C214 1_555 1_555
C216 C215 1_555 1_555
H173 C216 1_555 1_555
C217 C216 1_555 1_555
H174 C217 1_555 1_555
C218 N42 1_555 1_555
C219 C218 1_555 1_555
C220 N41 1_555 1_555
C221 C164 1_555 1_555
C222 C221 1_555 1_555
H175 C222 1_555 1_555
C223 C222 1_555 1_555
C224 C223 1_555 1_555
C225 C224 1_555 1_555
H176 C225 1_555 1_555
C226 C225 1_555 1_555
H177 C226 1_555 1_555
C227 N44 1_555 1_555
C228 C227 1_555 1_555
C229 N43 1_555 1_555
C230 C165 1_555 1_555
C231 C230 1_555 1_555
H178 C231 1_555 1_555
C232 C231 1_555 1_555
C233 C232 1_555 1_555
C234 C233 1_555 1_555
H179 C234 1_555 1_555
C235 C234 1_555 1_555
H180 C235 1_555 1_555
C236 N46 1_555 1_555
C237 C236 1_555 1_555
C238 N45 1_555 1_555
C239 H181 1_555 1_555
H182 C239 1_555 1_555
O35 C169 1_555 1_555
C240 C239 1_555 1_555
H183 C240 1_555 1_555
O36 C178 1_555 1_555
C241 C240 1_555 1_555
H184 C241 1_555 1_555
H185 C241 1_555 1_555
H186 C241 1_555 1_555
O37 C187 1_555 1_555
C242 C240 1_555 1_555
H187 C242 1_555 1_555
H188 C242 1_555 1_555
H189 C242 1_555 1_555
O38 C196 1_555 1_555
C243 O36 1_555 1_555
H190 C243 1_555 1_555
H191 C243 1_555 1_555
O39 C205 1_555 1_555
C244 C243 1_555 1_555
H192 C244 1_555 1_555
O40 C214 1_555 1_555
C245 C244 1_555 1_555
H193 C245 1_555 1_555
H194 C245 1_555 1_555
H195 C245 1_555 1_555
O41 C223 1_555 1_555
C246 C244 1_555 1_555
H196 C246 1_555 1_555
H197 C246 1_555 1_555
H198 C246 1_555 1_555
O42 C232 1_555 1_555
C247 O37 1_555 1_555
H199 C247 1_555 1_555
H200 C247 1_555 1_555
C248 C247 1_555 1_555
H201 C248 1_555 1_555
C249 C248 1_555 1_555
H202 C249 1_555 1_555
H203 C249 1_555 1_555
H204 C249 1_555 1_555
C250 C248 1_555 1_555
H205 C250 1_555 1_555
H206 C250 1_555 1_555
H207 C250 1_555 1_555
C251 O38 1_555 1_555
H208 C251 1_555 1_555
H209 C251 1_555 1_555
C252 C251 1_555 1_555
H210 C252 1_555 1_555
C253 C252 1_555 1_555
H211 C253 1_555 1_555
H212 C253 1_555 1_555
H213 C253 1_555 1_555
C254 C252 1_555 1_555
H214 C254 1_555 1_555
H215 C254 1_555 1_555
H216 C254 1_555 1_555
C255 O39 1_555 1_555
H217 C255 1_555 1_555
H218 C255 1_555 1_555
C256 C255 1_555 1_555
H219 C256 1_555 1_555
C257 C256 1_555 1_555
H220 C257 1_555 1_555
H221 C257 1_555 1_555
H222 C257 1_555 1_555
C258 C256 1_555 1_555
H223 C258 1_555 1_555
H224 C258 1_555 1_555
H225 C258 1_555 1_555
C259 O40 1_555 1_555
H226 C259 1_555 1_555
H227 C259 1_555 1_555
C260 C259 1_555 1_555
H228 C260 1_555 1_555
C261 C260 1_555 1_555
H229 C261 1_555 1_555
H230 C261 1_555 1_555
H231 C261 1_555 1_555
C262 C260 1_555 1_555
H232 C262 1_555 1_555
H233 C262 1_555 1_555
H234 C262 1_555 1_555
C263 O41 1_555 1_555
H235 C263 1_555 1_555
H236 C263 1_555 1_555
C264 C263 1_555 1_555
H237 C264 1_555 1_555
C265 C264 1_555 1_555
H238 C265 1_555 1_555
H239 C265 1_555 1_555
H240 C265 1_555 1_555
C266 C264 1_555 1_555
H241 C266 1_555 1_555
H242 C266 1_555 1_555
H243 C266 1_555 1_555
C267 O42 1_555 1_555
H244 C267 1_555 1_555
H245 C267 1_555 1_555
C268 C267 1_555 1_555
H246 C268 1_555 1_555
C269 C268 1_555 1_555
H247 C269 1_555 1_555
H248 C269 1_555 1_555
H249 C269 1_555 1_555
C270 C268 1_555 1_555
H250 C270 1_555 1_555
H251 C270 1_555 1_555
H252 C270 1_555 1_555
C271 C140 1_555 1_555
C272 C271 1_555 1_555
H253 C272 1_555 1_555
H254 C272 1_555 1_555
H255 C272 1_555 1_555
C273 C271 1_555 1_555
H256 C273 1_555 1_555
H257 C273 1_555 1_555
H258 C273 1_555 1_555
C274 C271 1_555 1_555
H259 C274 1_555 1_555
H260 C274 1_555 1_555
H261 C274 1_555 1_555
C275 O34 1_555 1_555
C276 C275 1_555 1_555
H262 C276 1_555 1_555
H263 C276 1_555 1_555
H264 C276 1_555 1_555
C277 C275 1_555 1_555
H265 C277 1_555 1_555
H266 C277 1_555 1_555
H267 C277 1_555 1_555
C278 C275 1_555 1_555
H268 C278 1_555 1_555
H269 C278 1_555 1_555
H270 C278 1_555 1_555
C279 H271 1_555 1_555
H272 C279 1_555 1_555
N47 H273 1_555 1_555
O43 C279 1_555 1_555
N48 H274 1_555 1_555
O44 C280 1_555 1_555
O45 C289 1_555 1_555
C280 N47 1_555 1_555
O46 C289 1_555 1_555
C281 N47 1_555 1_555
H275 C281 1_555 1_555
H276 C281 1_555 1_555
C282 C281 1_555 1_555
H277 C282 1_555 1_555
H278 C282 1_555 1_555
C283 C282 1_555 1_555
H279 C283 1_555 1_555
H280 C283 1_555 1_555
C284 C283 1_555 1_555
H281 C284 1_555 1_555
H282 C284 1_555 1_555
C285 C284 1_555 1_555
H283 C285 1_555 1_555
H284 C285 1_555 1_555
C286 C285 1_555 1_555
H285 C286 1_555 1_555
H286 C286 1_555 1_555
C287 C286 1_555 1_555
H287 C287 1_555 1_555
H288 C287 1_555 1_555
C288 N48 1_555 1_555
H289 C288 1_555 1_555
H290 C288 1_555 1_555
C289 N48 1_555 1_555
C290 O46 1_555 1_555
H291 C290 1_555 1_555
H292 C290 1_555 1_555
C291 C279 1_555 1_555
H293 C291 1_555 1_555
H294 C291 1_555 1_555
C292 C291 1_555 1_555
H295 C292 1_555 1_555
H296 C292 1_555 1_555
C293 C292 1_555 1_555
H297 C293 1_555 1_555
H298 C293 1_555 1_555
H299 C293 1_555 1_555
C294 C290 1_555 1_555
H300 C294 1_555 1_555
H301 C294 1_555 1_555
C295 C294 1_555 1_555
H302 C295 1_555 1_555
H303 C295 1_555 1_555
C296 C295 1_555 1_555
H304 C296 1_555 1_555
C297 C296 1_555 1_555
C298 C297 1_555 1_555
H305 C298 1_555 1_555
C299 C298 1_555 1_555
H306 C299 1_555 1_555
C300 C299 1_555 1_555
H307 C300 1_555 1_555
C301 C300 1_555 1_555
H308 C301 1_555 1_555
C302 C297 1_555 1_555
H309 C302 1_555 1_555
C303 C296 1_555 1_555
C304 C303 1_555 1_555
H310 C304 1_555 1_555
C305 C304 1_555 1_555
H311 C305 1_555 1_555
C306 C305 1_555 1_555
H312 C306 1_555 1_555
C307 C306 1_555 1_555
H313 C307 1_555 1_555
C308 C303 1_555 1_555
H314 C308 1_555 1_555
O47 H315 1_555 1_555
O48 H316 1_555 1_555
H317 O48 1_555 1_555
Cl1 C309 1_555 1_555
C309 C310 1_555 1_555
C310 H318 1_555 1_555
C311 C310 1_555 1_555
H319 C311 1_555 1_555
C312 C311 1_555 1_555
H320 C312 1_555 1_555
C313 C312 1_555 1_555
H321 C313 1_555 1_555
C314 C309 1_555 1_555
H322 C314 1_555 1_555
Cl2 C315 1_555 1_555
C315 C316 1_555 1_555
C316 H323 1_555 1_555
C317 C316 1_555 1_555
H324 C317 1_555 1_555
C318 C317 1_555 1_555
H325 C318 1_555 1_555
C319 C318 1_555 1_555
H326 C319 1_555 1_555
C320 C315 1_555 1_555
H327 C320 1_555 1_555
Cl3 C321 1_555 1_555
C321 C322 1_555 1_555
C322 H328 1_555 1_555
C323 C322 1_555 1_555
H329 C323 1_555 1_555
C324 C323 1_555 1_555
H330 C324 1_555 1_555
C325 C324 1_555 1_555
H331 C325 1_555 1_555
C326 C321 1_555 1_555
H332 C326 1_555 1_555
Cl4 C327 1_555 1_555
C327 C328 1_555 1_555
C328 H333 1_555 1_555
C329 C328 1_555 1_555
H334 C329 1_555 1_555
C330 C329 1_555 1_555
H335 C330 1_555 1_555
C331 C330 1_555 1_555
H336 C331 1_555 1_555
C332 C327 1_555 1_555
H337 C332 1_555 1_555
Cl5 C333 1_555 1_555
C333 C334 1_555 1_555
C334 H338 1_555 1_555
C335 C334 1_555 1_555
H339 C335 1_555 1_555
C336 C335 1_555 1_555
H340 C336 1_555 1_555
C337 C336 1_555 1_555
H341 C337 1_555 1_555
C338 C333 1_555 1_555
H342 C338 1_555 1_555
C339 C340 1_555 1_555
C340 H343 1_555 1_555
C341 C340 1_555 1_555
H344 C341 1_555 1_555
C342 C341 1_555 1_555
H345 C342 1_555 1_555
C343 C342 1_555 1_555
H346 C343 1_555 1_555
C344 C339 1_555 1_555
H347 C344 1_555 1_555
Cl6 C339 1_555 1_555
C345 H348 1_555 1_555
H349 C345 1_555 1_555
H350 C345 1_555 1_555
C346 C345 1_555 1_555
H351 C346 1_555 1_555
H352 C346 1_555 1_555
C347 C346 1_555 1_555
H353 C347 1_555 1_555
H354 C347 1_555 1_555
C348 C347 1_555 1_555
H355 C348 1_555 1_555
H356 C348 1_555 1_555
C349 C348 1_555 1_555
H357 C349 1_555 1_555
H358 C349 1_555 1_555
C350 C349 1_555 1_555
H359 C350 1_555 1_555
H360 C350 1_555 1_555
H361 C350 1_555 1_555
N3 C6 1_555 1_555
C5 C6 1_555 1_555
N7 C18 1_555 1_555
C11 C12 1_555 1_555
C12 C13 1_555 1_555
C17 C18 1_555 1_555
C31 C36 1_555 1_555
C33 C34 1_555 1_555
C35 C36 1_555 1_555
C40 C45 1_555 1_555
C42 C43 1_555 1_555
C44 C45 1_555 1_555
C49 C54 1_555 1_555
C51 C52 1_555 1_555
C53 C54 1_555 1_555
C58 C63 1_555 1_555
C60 C61 1_555 1_555
C62 C63 1_555 1_555
C67 C72 1_555 1_555
C69 C70 1_555 1_555
C71 C72 1_555 1_555
C76 C81 1_555 1_555
C78 C79 1_555 1_555
C80 C81 1_555 1_555
C85 C90 1_555 1_555
C87 C88 1_555 1_555
C89 C90 1_555 1_555
C94 C99 1_555 1_555
C96 C97 1_555 1_555
C98 C99 1_555 1_555
C100 O14 1_555 1_555
C144 C145 1_555 1_555
N30 C157 1_555 1_555
C150 C151 1_555 1_555
C151 C152 1_555 1_555
C156 C157 1_555 1_555
C170 C175 1_555 1_555
C172 C173 1_555 1_555
C174 C175 1_555 1_555
C179 C184 1_555 1_555
C181 C182 1_555 1_555
C183 C184 1_555 1_555
C188 C193 1_555 1_555
C190 C191 1_555 1_555
C192 C193 1_555 1_555
C197 C202 1_555 1_555
C199 C200 1_555 1_555
C201 C202 1_555 1_555
C206 C211 1_555 1_555
C208 C209 1_555 1_555
C210 C211 1_555 1_555
C215 C220 1_555 1_555
C217 C218 1_555 1_555
C219 C220 1_555 1_555
C224 C229 1_555 1_555
C226 C227 1_555 1_555
C228 C229 1_555 1_555
C233 C238 1_555 1_555
C235 C236 1_555 1_555
C237 C238 1_555 1_555
C239 O35 1_555 1_555
O43 C280 1_555 1_555
C287 C288 1_555 1_555
C301 C302 1_555 1_555
C307 C308 1_555 1_555
C313 C314 1_555 1_555
C319 C320 1_555 1_555
C325 C326 1_555 1_555
C331 C332 1_555 1_555
C337 C338 1_555 1_555
C343 C344 1_555 1_555

#END
