
#######################################################################
#
#                 Cambridge Crystallographic Data Centre
#                                CCDC 
#
#######################################################################
#
# If this CIF has been generated from an entry in the Cambridge 
# Structural Database, then it will include bibliographic, chemical, 
# crystal, experimental, refinement or atomic coordinate data resulting 
# from the CCDC's data processing and validation procedures.
#
#######################################################################

data_KEBBOL
_chemical_formula_moiety         'C32 H40 N1 P1'
_chemical_name_systematic        
3^2^-(dicyclohexylphosphanyl)-N,N-dimethyl[1^1^,2^1^:2^2^,3^1^-terphenyl]-2^3^-amine
_symmetry_cell_setting           monoclinic
_symmetry_space_group_name_H-M   'I 2/c'
_symmetry_Int_Tables_number      15
_space_group_name_Hall           '-I 2yc'
loop_
_symmetry_equiv_pos_site_id
_symmetry_equiv_pos_as_xyz
1 x,y,z
2 -x,y,1/2-z
3 1/2+x,1/2+y,1/2+z
4 1/2-x,1/2+y,-z
5 -x,-y,-z
6 x,-y,1/2+z
7 1/2-x,1/2-y,1/2-z
8 1/2+x,1/2-y,z
_cell_length_a                   20.51(2)
_cell_length_b                   9.322(9)
_cell_length_c                   28.99(2)
_cell_angle_alpha                90
_cell_angle_beta                 107.09(2)
_cell_angle_gamma                90
_cell_volume                     5297.98
_cell_formula_units_Z            8
loop_
_atom_site_label
_atom_site_type_symbol
_atom_site_fract_x
_atom_site_fract_y
_atom_site_fract_z
C1 C 0.2354(3) 1.3088(6) 0.02066(18)
H1 H 0.2476 1.3577 -0.0048
H2 H 0.2012 1.3629 0.0296
H3 H 0.2179 1.2154 0.0097
C2 C 0.3266(3) 1.4328(5) 0.07584(18)
H4 H 0.3612 1.4252 0.1064
H5 H 0.2925 1.5002 0.0785
H6 H 0.3469 1.4651 0.0517
C3 C 0.3553(2) 1.1709(4) 0.01281(14)
H7 H 0.3322 1.2268 -0.0135
C4 C 0.4013(2) 1.0692(4) 0.00775(15)
H8 H 0.4105 1.0591 -0.0216
C5 C 0.4332(2) 0.9837(4) 0.04536(15)
H9 H 0.4626 0.9124 0.0410
C6 C 0.42306(19) 1.0005(4) 0.09008(13)
C7 C 0.37754(18) 1.1060(4) 0.09574(12)
C8 C 0.4577(2) 0.8986(4) 0.12860(14)
C9 C 0.5036(2) 0.9404(5) 0.17150(16)
H10 H 0.5126 1.0375 0.1774
C10 C 0.5360(3) 0.8436(6) 0.20520(18)
H11 H 0.5657 0.8751 0.2342
C11 C 0.5255(3) 0.7003(6) 0.1971(2)
H12 H 0.5490 0.6339 0.2199
C12 C 0.4802(3) 0.6556(5) 0.1552(2)
H13 H 0.4717 0.5581 0.1497
C13 C 0.4470(2) 0.7534(4) 0.12092(18)
H14 H 0.4168 0.7213 0.0922
C14 C 0.36648(18) 1.1304(4) 0.14390(12)
C15 C 0.4099(2) 1.2240(4) 0.17560(14)
H15 H 0.4431 1.2721 0.1655
C16 C 0.4058(2) 1.2482(4) 0.22092(14)
H16 H 0.4355 1.3121 0.2414
C17 C 0.3574(2) 1.1771(4) 0.23604(13)
H17 H 0.3544 1.1914 0.2671
C18 C 0.3133(2) 1.0848(4) 0.20518(13)
H18 H 0.2807 1.0371 0.2159
C19 C 0.31587(18) 1.0603(3) 0.15860(12)
C20 C 0.24050(19) 0.8011(3) 0.15515(12)
H19 H 0.2262 0.8430 0.1816
C21 C 0.3067(2) 0.7184(4) 0.17615(15)
H20 H 0.3234 0.6850 0.1500
H21 H 0.3407 0.7823 0.1961
C22 C 0.2976(3) 0.5910(4) 0.20608(17)
H22 H 0.3404 0.5392 0.2172
H23 H 0.2860 0.6251 0.2343
C23 C 0.2433(3) 0.4914(4) 0.17842(17)
H24 H 0.2368 0.4153 0.1995
H25 H 0.2571 0.4480 0.1523
C24 C 0.1775(3) 0.5711(4) 0.1581(2)
H26 H 0.1614 0.6054 0.1845
H27 H 0.1434 0.5062 0.1387
C25 C 0.1859(2) 0.6976(4) 0.12730(15)
H28 H 0.1979 0.6625 0.0994
H29 H 0.1428 0.7482 0.1158
C26 C 0.1773(2) 1.0627(4) 0.10404(13)
H30 H 0.1935 1.1602 0.1010
C27 C 0.1405(2) 1.0718(4) 0.14224(15)
H31 H 0.1725 1.1018 0.1725
H32 H 0.1237 0.9774 0.1470
C28 C 0.0810(2) 1.1761(5) 0.12876(18)
H33 H 0.0572 1.1721 0.1531
H34 H 0.0985 1.2728 0.1286
C29 C 0.0316(2) 1.1443(5) 0.08022(17)
H35 H -0.0031 1.2185 0.0720
H36 H 0.0091 1.0535 0.0815
C30 C 0.0680(2) 1.1375(5) 0.04219(17)
H37 H 0.0863 1.2314 0.0386
H38 H 0.0358 1.1113 0.0115
C31 C 0.1257(2) 1.0288(4) 0.05527(14)
H39 H 0.1487 1.0285 0.0305
H40 H 0.1069 0.9338 0.0564
C32 C 0.34357(19) 1.1897(4) 0.05633(13)
N1 N 0.29547(19) 1.2942(4) 0.06223(12)
P1 P 0.25389(5) 0.94603(9) 0.11587(3)
loop_
_geom_bond_atom_site_label_1
_geom_bond_atom_site_label_2
_geom_bond_site_symmetry_1
_geom_bond_site_symmetry_2
C1 H1 1_555 1_555
H2 C1 1_555 1_555
H3 C1 1_555 1_555
C2 H4 1_555 1_555
H5 C2 1_555 1_555
H6 C2 1_555 1_555
C3 H7 1_555 1_555
C4 C3 1_555 1_555
H8 C4 1_555 1_555
C5 C4 1_555 1_555
H9 C5 1_555 1_555
C6 C5 1_555 1_555
C7 C6 1_555 1_555
C8 C6 1_555 1_555
C9 C8 1_555 1_555
H10 C9 1_555 1_555
C10 C9 1_555 1_555
H11 C10 1_555 1_555
C11 C10 1_555 1_555
H12 C11 1_555 1_555
C12 C11 1_555 1_555
H13 C12 1_555 1_555
C13 C8 1_555 1_555
H14 C13 1_555 1_555
C14 C7 1_555 1_555
C15 C14 1_555 1_555
H15 C15 1_555 1_555
C16 C15 1_555 1_555
H16 C16 1_555 1_555
C17 C16 1_555 1_555
H17 C17 1_555 1_555
C18 C17 1_555 1_555
H18 C18 1_555 1_555
C19 C14 1_555 1_555
C20 H19 1_555 1_555
C21 C20 1_555 1_555
H20 C21 1_555 1_555
H21 C21 1_555 1_555
C22 C21 1_555 1_555
H22 C22 1_555 1_555
H23 C22 1_555 1_555
C23 C22 1_555 1_555
H24 C23 1_555 1_555
H25 C23 1_555 1_555
C24 C23 1_555 1_555
H26 C24 1_555 1_555
H27 C24 1_555 1_555
C25 C20 1_555 1_555
H28 C25 1_555 1_555
H29 C25 1_555 1_555
C26 H30 1_555 1_555
C27 C26 1_555 1_555
H31 C27 1_555 1_555
H32 C27 1_555 1_555
C28 C27 1_555 1_555
H33 C28 1_555 1_555
H34 C28 1_555 1_555
C29 C28 1_555 1_555
H35 C29 1_555 1_555
H36 C29 1_555 1_555
C30 C29 1_555 1_555
H37 C30 1_555 1_555
H38 C30 1_555 1_555
C31 C26 1_555 1_555
H39 C31 1_555 1_555
H40 C31 1_555 1_555
C32 C3 1_555 1_555
N1 C1 1_555 1_555
P1 C19 1_555 1_555
C2 N1 1_555 1_555
C7 C32 1_555 1_555
C12 C13 1_555 1_555
C18 C19 1_555 1_555
C20 P1 1_555 1_555
C24 C25 1_555 1_555
C26 P1 1_555 1_555
C30 C31 1_555 1_555
C32 N1 1_555 1_555

#END
