
#######################################################################
#
#                 Cambridge Crystallographic Data Centre
#                                CCDC 
#
#######################################################################
#
# If this CIF has been generated from an entry in the Cambridge 
# Structural Database, then it will include bibliographic, chemical, 
# crystal, experimental, refinement or atomic coordinate data resulting 
# from the CCDC's data processing and validation procedures.
#
#######################################################################

data_KEBBUR
_chemical_formula_moiety         'C33 H38 N1 P1'
_chemical_name_systematic        
2-[2-(dicyclohexylphosphanyl)phenyl]-1-methyl-3-phenyl-1H-indole
_symmetry_cell_setting           triclinic
_symmetry_space_group_name_H-M   'P -1'
_symmetry_Int_Tables_number      2
_space_group_name_Hall           '-P 1'
loop_
_symmetry_equiv_pos_site_id
_symmetry_equiv_pos_as_xyz
1 x,y,z
2 -x,-y,-z
_cell_length_a                   10.4224(6)
_cell_length_b                   12.1359(7)
_cell_length_c                   12.2086(7)
_cell_angle_alpha                107.908(2)
_cell_angle_beta                 99.462(2)
_cell_angle_gamma                107.355(2)
_cell_volume                     1345.58
_cell_formula_units_Z            2
loop_
_atom_site_label
_atom_site_type_symbol
_atom_site_fract_x
_atom_site_fract_y
_atom_site_fract_z
C1 C 0.6325(2) 0.3844(2) 1.0002(2)
H1 H 0.7144 0.4549 1.0291
C2 C 0.5174(3) 0.3896(3) 1.0425(3)
H2 H 0.5231 0.4635 1.0997
C3 C 0.3955(3) 0.2865(3) 1.0005(3)
H3 H 0.3188 0.2907 1.0287
C4 C 0.3873(2) 0.1775(3) 0.9169(2)
H4 H 0.3050 0.1074 0.8889
C5 C 0.50045(19) 0.1708(2) 0.8737(2)
H5 H 0.4933 0.0964 0.8163
C6 C 0.62565(19) 0.27485(18) 0.91523(17)
C7 C 0.74710(17) 0.26286(16) 0.87191(16)
C8 C 0.79895(17) 0.16438(16) 0.86809(16)
C9 C 0.76124(19) 0.06220(17) 0.90362(17)
H6 H 0.6857 0.0458 0.9354
C10 C 0.8383(2) -0.01317(18) 0.89054(18)
H7 H 0.8136 -0.0813 0.9133
C11 C 0.9531(2) 0.01069(18) 0.84374(18)
H8 H 1.0034 -0.0416 0.8366
C12 C 0.99303(19) 0.11008(17) 0.80808(17)
H9 H 1.0688 0.1257 0.7765
C13 C 0.91456(18) 0.18655(16) 0.82153(16)
C14 C 0.83096(17) 0.33852(16) 0.82695(16)
C15 C 1.03631(19) 0.34199(19) 0.74092(19)
H10 H 1.1223 0.3334 0.7711
H11 H 1.0529 0.4285 0.7579
H12 H 1.0015 0.2961 0.6558
C16 C 0.82243(17) 0.44870(16) 0.80074(16)
C17 C 0.89375(18) 0.56866(17) 0.88715(17)
H13 H 0.9436 0.5796 0.9627
C18 C 0.89146(18) 0.67239(17) 0.86206(17)
H14 H 0.9405 0.7523 0.9199
C19 C 0.81527(19) 0.65518(17) 0.74988(17)
H15 H 0.8118 0.7239 0.7326
C20 C 0.74433(18) 0.53641(17) 0.66348(17)
H16 H 0.6938 0.5266 0.5886
C21 C 0.74667(17) 0.43063(16) 0.68579(16)
C22 C 0.47721(18) 0.23985(17) 0.58018(17)
H17 H 0.4834 0.2685 0.6659
C23 C 0.3878(2) 0.09956(18) 0.5287(2)
H18 H 0.3759 0.0657 0.4430
H19 H 0.4358 0.0571 0.5655
C24 C 0.2440(2) 0.0760(2) 0.5516(2)
H20 H 0.1877 -0.0125 0.5133
H21 H 0.2554 0.1006 0.6371
C25 C 0.1684(2) 0.1481(2) 0.5034(2)
H22 H 0.0808 0.1356 0.5243
H23 H 0.1469 0.1164 0.4166
C26 C 0.2574(2) 0.2870(2) 0.5546(2)
H24 H 0.2706 0.3205 0.6405
H25 H 0.2087 0.3298 0.5189
C27 C 0.40008(19) 0.31082(19) 0.52984(19)
H26 H 0.4559 0.3995 0.5664
H27 H 0.3874 0.2844 0.4440
C28 C 0.5972(2) 0.16952(18) 0.32327(16)
H28 H 0.6360 0.1097 0.3363
H29 H 0.4981 0.1375 0.3175
C29 C 0.6146(2) 0.1826(2) 0.20536(18)
H30 H 0.5724 0.1010 0.1409
H31 H 0.5657 0.2343 0.1873
C30 C 0.7683(2) 0.2405(2) 0.21152(18)
H32 H 0.8152 0.1843 0.2201
H33 H 0.7752 0.2529 0.1376
C31 C 0.8397(2) 0.36476(19) 0.31695(18)
H34 H 0.7986 0.4234 0.3042
H35 H 0.9383 0.3982 0.3219
C32 C 0.82446(19) 0.35068(18) 0.43462(17)
H36 H 0.8687 0.4318 0.4997
H37 H 0.8723 0.2975 0.4506
C33 C 0.67012(18) 0.29435(17) 0.43074(16)
H38 H 0.6236 0.3519 0.4228
N1 N 0.93394(14) 0.29366(14) 0.79830(13)
P1 P 0.66185(5) 0.26923(4) 0.57307(4)
loop_
_geom_bond_atom_site_label_1
_geom_bond_atom_site_label_2
_geom_bond_site_symmetry_1
_geom_bond_site_symmetry_2
C1 H1 1_555 1_555
C2 C1 1_555 1_555
H2 C2 1_555 1_555
C3 C2 1_555 1_555
H3 C3 1_555 1_555
C4 C3 1_555 1_555
H4 C4 1_555 1_555
C5 C4 1_555 1_555
H5 C5 1_555 1_555
C6 C1 1_555 1_555
C7 C6 1_555 1_555
C8 C7 1_555 1_555
C9 C8 1_555 1_555
H6 C9 1_555 1_555
C10 C9 1_555 1_555
H7 C10 1_555 1_555
C11 C10 1_555 1_555
H8 C11 1_555 1_555
C12 C11 1_555 1_555
H9 C12 1_555 1_555
C13 C8 1_555 1_555
C14 C7 1_555 1_555
C15 H10 1_555 1_555
H11 C15 1_555 1_555
H12 C15 1_555 1_555
C16 C14 1_555 1_555
C17 C16 1_555 1_555
H13 C17 1_555 1_555
C18 C17 1_555 1_555
H14 C18 1_555 1_555
C19 C18 1_555 1_555
H15 C19 1_555 1_555
C20 C19 1_555 1_555
H16 C20 1_555 1_555
C21 C16 1_555 1_555
C22 H17 1_555 1_555
C23 C22 1_555 1_555
H18 C23 1_555 1_555
H19 C23 1_555 1_555
C24 C23 1_555 1_555
H20 C24 1_555 1_555
H21 C24 1_555 1_555
C25 C24 1_555 1_555
H22 C25 1_555 1_555
H23 C25 1_555 1_555
C26 C25 1_555 1_555
H24 C26 1_555 1_555
H25 C26 1_555 1_555
C27 C22 1_555 1_555
H26 C27 1_555 1_555
H27 C27 1_555 1_555
C28 H28 1_555 1_555
H29 C28 1_555 1_555
C29 C28 1_555 1_555
H30 C29 1_555 1_555
H31 C29 1_555 1_555
C30 C29 1_555 1_555
H32 C30 1_555 1_555
H33 C30 1_555 1_555
C31 C30 1_555 1_555
H34 C31 1_555 1_555
H35 C31 1_555 1_555
C32 C31 1_555 1_555
H36 C32 1_555 1_555
H37 C32 1_555 1_555
C33 C28 1_555 1_555
H38 C33 1_555 1_555
N1 C13 1_555 1_555
P1 C21 1_555 1_555
C5 C6 1_555 1_555
C12 C13 1_555 1_555
C14 N1 1_555 1_555
C15 N1 1_555 1_555
C20 C21 1_555 1_555
C22 P1 1_555 1_555
C26 C27 1_555 1_555
C32 C33 1_555 1_555
C33 P1 1_555 1_555

#END
