
#######################################################################
#
#                 Cambridge Crystallographic Data Centre
#                                CCDC 
#
#######################################################################
#
# If this CIF has been generated from an entry in the Cambridge 
# Structural Database, then it will include bibliographic, chemical, 
# crystal, experimental, refinement or atomic coordinate data resulting 
# from the CCDC's data processing and validation procedures.
#
#######################################################################

data_KEBCOM
_chemical_formula_moiety         'C38 H26 F1 P1'
_chemical_name_systematic        
"[2'-(3-fluorophenyl)[1,1'-binaphthalen]-2-yl](diphenyl)phosphane"
_symmetry_cell_setting           orthorhombic
_symmetry_space_group_name_H-M   'P 21 21 21'
_symmetry_Int_Tables_number      19
_space_group_name_Hall           'P 2ac 2ab'
loop_
_symmetry_equiv_pos_site_id
_symmetry_equiv_pos_as_xyz
1 x,y,z
2 1/2-x,-y,1/2+z
3 -x,1/2+y,1/2-z
4 1/2+x,1/2-y,-z
_cell_length_a                   10.173(3)
_cell_length_b                   13.534(3)
_cell_length_c                   20.521(5)
_cell_angle_alpha                90
_cell_angle_beta                 90
_cell_angle_gamma                90
_cell_volume                     2825.36
_cell_formula_units_Z            4
loop_
_atom_site_label
_atom_site_type_symbol
_atom_site_fract_x
_atom_site_fract_y
_atom_site_fract_z
C1 C 0.4895(6) 0.2277(4) 0.5628(2)
H1 H 0.4007 0.2435 0.5601
C2 C 0.5503(6) 0.1863(4) 0.5113(3)
H2 H 0.5025 0.1727 0.4737
C3 C 0.6857(7) 0.1634(4) 0.5137(3)
H3 H 0.7262 0.1352 0.4776
C4 C 0.7552(7) 0.1815(4) 0.5668(3)
H4 H 0.8445 0.1669 0.5670
C5 C 0.6962(6) 0.2234(3) 0.6244(2)
C6 C 0.7659(5) 0.2381(4) 0.6817(3)
H5 H 0.8551 0.2232 0.6831
C7 C 0.7052(5) 0.2742(4) 0.7362(3)
H6 H 0.7531 0.2807 0.7746
C8 C 0.5704(5) 0.3020(3) 0.7354(2)
C9 C 0.4993(5) 0.2889(3) 0.6778(2)
C10 C 0.5606(5) 0.2477(3) 0.6221(2)
C11 C 0.5118(5) 0.3419(3) 0.7956(2)
C12 C 0.4519(6) 0.4334(4) 0.7984(2)
H7 H 0.4443 0.4711 0.7607
C13 C 0.4032(6) 0.4696(4) 0.8563(3)
H8 H 0.3648 0.5320 0.8572
C14 C 0.4103(6) 0.4152(4) 0.9129(3)
H9 H 0.3767 0.4390 0.9520
C15 C 0.4691(6) 0.3247(4) 0.9090(3)
C16 C 0.5212(6) 0.2870(4) 0.8524(2)
H10 H 0.5622 0.2256 0.8523
C17 C 0.1854(5) 0.4386(4) 0.6474(2)
C18 C 0.1515(6) 0.5303(4) 0.6188(3)
H11 H 0.0655 0.5532 0.6220
C19 C 0.2434(7) 0.5859(4) 0.5866(3)
H12 H 0.2185 0.6447 0.5667
C20 C 0.3739(6) 0.5547(4) 0.5833(3)
H13 H 0.4352 0.5919 0.5603
C21 C 0.4126(6) 0.4692(4) 0.6140(2)
H14 H 0.5008 0.4512 0.6137
C22 C 0.3204(5) 0.4084(3) 0.6457(2)
C23 C 0.3564(5) 0.3167(3) 0.6756(2)
C24 C 0.2607(5) 0.2566(4) 0.7019(2)
C25 C 0.1280(5) 0.2882(4) 0.7025(2)
H15 H 0.0640 0.2479 0.7209
C26 C 0.0926(5) 0.3769(4) 0.6764(3)
H16 H 0.0051 0.3966 0.6779
C27 C 0.2520(5) 0.0305(4) 0.8422(2)
H17 H 0.2813 -0.0234 0.8181
C28 C 0.2171(6) 0.0174(4) 0.9059(3)
H18 H 0.2210 -0.0452 0.9243
C29 C 0.1760(6) 0.0970(5) 0.9432(3)
H19 H 0.1535 0.0884 0.9867
C30 C 0.1689(6) 0.1882(4) 0.9150(3)
H20 H 0.1403 0.2418 0.9395
C31 C 0.2040(6) 0.2025(4) 0.8500(2)
H21 H 0.2002 0.2654 0.8318
C32 C 0.2446(5) 0.1228(4) 0.8123(2)
C33 C 0.0541(6) 0.0396(4) 0.7085(3)
H22 H 0.0319 0.0582 0.7507
C34 C -0.0363(7) -0.0099(4) 0.6702(3)
H23 H -0.1189 -0.0239 0.6872
C35 C -0.0080(8) -0.0380(5) 0.6094(3)
H24 H -0.0700 -0.0721 0.5848
C36 C 0.1143(9) -0.0162(7) 0.5831(4)
H25 H 0.1334 -0.0315 0.5399
C37 C 0.2089(8) 0.0294(6) 0.6231(3)
H26 H 0.2940 0.0377 0.6074
C38 C 0.1787(6) 0.0617(4) 0.6840(3)
F1 F 0.4752(4) 0.2686(3) 0.96373(13)
P1 P 0.30606(14) 0.13067(10) 0.72861(6)
loop_
_geom_bond_atom_site_label_1
_geom_bond_atom_site_label_2
_geom_bond_site_symmetry_1
_geom_bond_site_symmetry_2
C1 H1 1_555 1_555
C2 C1 1_555 1_555
H2 C2 1_555 1_555
C3 C2 1_555 1_555
H3 C3 1_555 1_555
C4 C3 1_555 1_555
H4 C4 1_555 1_555
C5 C4 1_555 1_555
C6 C5 1_555 1_555
H5 C6 1_555 1_555
C7 C6 1_555 1_555
H6 C7 1_555 1_555
C8 C7 1_555 1_555
C9 C8 1_555 1_555
C10 C1 1_555 1_555
C11 C8 1_555 1_555
C12 C11 1_555 1_555
H7 C12 1_555 1_555
C13 C12 1_555 1_555
H8 C13 1_555 1_555
C14 C13 1_555 1_555
H9 C14 1_555 1_555
C15 C14 1_555 1_555
C16 C11 1_555 1_555
H10 C16 1_555 1_555
C17 C18 1_555 1_555
C18 H11 1_555 1_555
C19 C18 1_555 1_555
H12 C19 1_555 1_555
C20 C19 1_555 1_555
H13 C20 1_555 1_555
C21 C20 1_555 1_555
H14 C21 1_555 1_555
C22 C17 1_555 1_555
C23 C9 1_555 1_555
C24 C23 1_555 1_555
C25 C24 1_555 1_555
H15 C25 1_555 1_555
C26 C17 1_555 1_555
H16 C26 1_555 1_555
C27 H17 1_555 1_555
C28 C27 1_555 1_555
H18 C28 1_555 1_555
C29 C28 1_555 1_555
H19 C29 1_555 1_555
C30 C29 1_555 1_555
H20 C30 1_555 1_555
C31 C30 1_555 1_555
H21 C31 1_555 1_555
C32 C27 1_555 1_555
C33 H22 1_555 1_555
C34 C33 1_555 1_555
H23 C34 1_555 1_555
C35 C34 1_555 1_555
H24 C35 1_555 1_555
C36 C35 1_555 1_555
H25 C36 1_555 1_555
C37 C36 1_555 1_555
H26 C37 1_555 1_555
C38 C33 1_555 1_555
F1 C15 1_555 1_555
P1 C24 1_555 1_555
C5 C10 1_555 1_555
C9 C10 1_555 1_555
C15 C16 1_555 1_555
C21 C22 1_555 1_555
C22 C23 1_555 1_555
C25 C26 1_555 1_555
C31 C32 1_555 1_555
C32 P1 1_555 1_555
C37 C38 1_555 1_555
C38 P1 1_555 1_555

#END
