
#######################################################################
#
#                 Cambridge Crystallographic Data Centre
#                                CCDC 
#
#######################################################################
#
# If this CIF has been generated from an entry in the Cambridge 
# Structural Database, then it will include bibliographic, chemical, 
# crystal, experimental, refinement or atomic coordinate data resulting 
# from the CCDC's data processing and validation procedures.
#
#######################################################################

data_KEBDIH
_chemical_formula_moiety         'C36 H23 F1'
_chemical_name_systematic        
9,9'-(2-fluoro-2-methyl-1H-indene-1,3(2H)-diylidene)bis(9H-fluorene)
_symmetry_cell_setting           orthorhombic
_symmetry_space_group_name_H-M   'P n m a'
_symmetry_Int_Tables_number      62
_space_group_name_Hall           '-P 2ac 2n'
loop_
_symmetry_equiv_pos_site_id
_symmetry_equiv_pos_as_xyz
1 x,y,z
2 1/2-x,-y,1/2+z
3 -x,1/2+y,-z
4 1/2+x,1/2-y,1/2-z
5 -x,-y,-z
6 1/2+x,y,1/2-z
7 x,1/2-y,z
8 1/2-x,1/2+y,1/2+z
_cell_length_a                   17.3351(5)
_cell_length_b                   25.9113(7)
_cell_length_c                   5.20880(10)
_cell_angle_alpha                90
_cell_angle_beta                 90
_cell_angle_gamma                90
_cell_volume                     2339.66
_exptl_crystal_colour            yellow
_exptl_crystal_description       needle
_cell_formula_units_Z            4
loop_
_atom_site_label
_atom_site_type_symbol
_atom_site_fract_x
_atom_site_fract_y
_atom_site_fract_z
C1 C 0.16449(6) 0.65785(4) 0.1997(2)
C2 C 0.03835(7) 0.64984(4) -0.0843(2)
H1 H 0.0466 0.6806 -0.1796
C3 C 0.19715(6) 0.70378(4) 0.1356(2)
C4 C 0.14020(6) 0.57981(4) 0.4196(2)
C5 C 0.07741(7) 0.58846(4) 0.2381(2)
C6 C 0.34578(7) 0.69562(5) 0.1713(2)
H2 H 0.3461 0.6590 0.1696
C7 C 0.27610(7) 0.72271(4) 0.1743(2)
C8 C 0.16352(10) 0.7500 -0.2775(3)
C9 C 0.25510(7) 0.62286(4) 0.5691(2)
H3 H 0.2910 0.6505 0.5617
C10 C 0.15571(9) 0.7500 0.0145(3)
C11 C 0.09015(6) 0.63543(4) 0.1076(2)
C12 C 0.26320(7) 0.58416(5) 0.7528(2)
H4 H 0.3053 0.5856 0.8694
C13 C -0.02548(7) 0.61895(5) -0.1353(3)
H5 H -0.0609 0.6291 -0.2649
C14 C 0.41455(7) 0.72299(5) 0.1709(2)
H6 H 0.4622 0.7049 0.1705
C15 C 0.19369(6) 0.62056(4) 0.3962(2)
C16 C 0.01369(7) 0.55775(5) 0.1864(3)
H7 H 0.0059 0.5264 0.2775
C17 C 0.14885(7) 0.54129(5) 0.6027(2)
H8 H 0.1127 0.5138 0.6134
C18 C -0.03839(7) 0.57340(5) 0.0000(3)
H9 H -0.0828 0.5531 -0.0353
C19 C 0.21103(7) 0.54348(5) 0.7696(2)
H10 H 0.2180 0.5173 0.8950
F1 F 0.07794(5) 0.7500 0.08441(18)
C1F C 0.16449(6) 0.84215(4) 0.1997(2)
C2F C 0.03835(7) 0.85016(4) -0.0843(2)
H1F H 0.0466 0.8194 -0.1796
C3F C 0.19715(6) 0.79622(4) 0.1356(2)
C4F C 0.14020(6) 0.92019(4) 0.4196(2)
C5F C 0.07741(7) 0.91154(4) 0.2381(2)
C6F C 0.34578(7) 0.80438(5) 0.1713(2)
H2F H 0.3461 0.8410 0.1696
C7F C 0.27610(7) 0.77729(4) 0.1743(2)
C9F C 0.25510(7) 0.87714(4) 0.5691(2)
H3F H 0.2910 0.8495 0.5617
C11F C 0.09015(6) 0.86457(4) 0.1076(2)
C12F C 0.26320(7) 0.91584(5) 0.7528(2)
H4F H 0.3053 0.9144 0.8694
C13F C -0.02548(7) 0.88105(5) -0.1353(3)
H5F H -0.0609 0.8709 -0.2649
C14F C 0.41455(7) 0.77701(5) 0.1709(2)
H6F H 0.4622 0.7951 0.1705
C15F C 0.19369(6) 0.87944(4) 0.3962(2)
C16F C 0.01369(7) 0.94225(5) 0.1864(3)
H7F H 0.0059 0.9736 0.2775
C17F C 0.14885(7) 0.95871(5) 0.6027(2)
H8F H 0.1127 0.9862 0.6134
C18F C -0.03839(7) 0.92660(5) 0.0000(3)
H9F H -0.0828 0.9469 -0.0353
C19F C 0.21103(7) 0.95652(5) 0.7696(2)
H10F H 0.2180 0.9827 0.8950
H11? H 0.1445 0.7172 -0.3461
H12? H 0.2179 0.7544 -0.3243
H13? H 0.1332 0.7785 -0.3494
loop_
_geom_bond_atom_site_label_1
_geom_bond_atom_site_label_2
_geom_bond_site_symmetry_1
_geom_bond_site_symmetry_2
C1 C3 1_555 1_555
C2 H1 1_555 1_555
C3 C7 1_555 1_555
C4 C5 1_555 1_555
C5 C11 1_555 1_555
C6 H2 1_555 1_555
C7 C6 1_555 1_555
C8 C10 1_555 1_555
C9 H3 1_555 1_555
C10 C3 1_555 1_555
C11 C1 1_555 1_555
C12 C9 1_555 1_555
H4 C12 1_555 1_555
C13 C2 1_555 1_555
H5 C13 1_555 1_555
C14 C6 1_555 1_555
H6 C14 1_555 1_555
C15 C1 1_555 1_555
C16 C5 1_555 1_555
H7 C16 1_555 1_555
C17 C4 1_555 1_555
H8 C17 1_555 1_555
C18 C13 1_555 1_555
H9 C18 1_555 1_555
C19 C12 1_555 1_555
H10 C19 1_555 1_555
F1 C10 1_555 1_555
C1F C3F 1_555 1_555
C2F H1F 1_555 1_555
C3F C10 1_555 1_555
C4F C5F 1_555 1_555
C5F C11F 1_555 1_555
C6F H2F 1_555 1_555
C7F C7 1_555 1_555
C9F H3F 1_555 1_555
C11F C1F 1_555 1_555
C12F C9F 1_555 1_555
H4F C12F 1_555 1_555
C13F C2F 1_555 1_555
H5F C13F 1_555 1_555
C14F C14 1_555 1_555
H6F C14F 1_555 1_555
C15F C1F 1_555 1_555
C16F C5F 1_555 1_555
H7F C16F 1_555 1_555
C17F C4F 1_555 1_555
H8F C17F 1_555 1_555
C18F C13F 1_555 1_555
H9F C18F 1_555 1_555
C19F C12F 1_555 1_555
H10F C19F 1_555 1_555
C2 C11 1_555 1_555
C4 C15 1_555 1_555
C9 C15 1_555 1_555
C16 C18 1_555 1_555
C17 C19 1_555 1_555
C2F C11F 1_555 1_555
C3F C7F 1_555 1_555
C4F C15F 1_555 1_555
C6F C7F 1_555 1_555
C6F C14F 1_555 1_555
C9F C15F 1_555 1_555
C16F C18F 1_555 1_555
C17F C19F 1_555 1_555

#END
