
#######################################################################
#
#                 Cambridge Crystallographic Data Centre
#                                CCDC 
#
#######################################################################
#
# If this CIF has been generated from an entry in the Cambridge 
# Structural Database, then it will include bibliographic, chemical, 
# crystal, experimental, refinement or atomic coordinate data resulting 
# from the CCDC's data processing and validation procedures.
#
#######################################################################

data_KEBDON
_chemical_formula_moiety         'C51 H46'
_chemical_name_systematic        
9,9'-(2-decyl-2-phenyl-1H-indene-1,3(2H)-diylidene)bis(9H-fluorene)
_symmetry_cell_setting           orthorhombic
_symmetry_space_group_name_H-M   'P 21 21 21'
_symmetry_Int_Tables_number      19
_space_group_name_Hall           'P 2ac 2ab'
loop_
_symmetry_equiv_pos_site_id
_symmetry_equiv_pos_as_xyz
1 x,y,z
2 1/2-x,-y,1/2+z
3 1/2+x,1/2-y,-z
4 -x,1/2+y,1/2-z
_cell_length_a                   9.5341(7)
_cell_length_b                   14.1606(11)
_cell_length_c                   29.111(2)
_cell_angle_alpha                90
_cell_angle_beta                 90
_cell_angle_gamma                90
_cell_volume                     3930.23
_exptl_crystal_colour            yellow
_exptl_crystal_description       needle
_cell_formula_units_Z            4
loop_
_atom_site_label
_atom_site_type_symbol
_atom_site_fract_x
_atom_site_fract_y
_atom_site_fract_z
C1 C 0.9861(5) 0.3663(3) 0.42264(15)
C2 C 0.9829(5) 0.2865(3) 0.39667(15)
C3 C 1.0883(5) 0.2410(3) 0.36653(16)
C4 C 1.2268(5) 0.2653(4) 0.35477(16)
H1 H 1.2640 0.3230 0.3640
C5 C 1.3071(6) 0.2030(4) 0.32939(17)
H2 H 1.3980 0.2201 0.3213
C6 C 1.2562(6) 0.1162(4) 0.31568(18)
H3 H 1.3128 0.0755 0.2988
C7 C 1.1190(6) 0.0895(4) 0.32729(17)
H4 H 1.0837 0.0311 0.3183
C8 C 1.0378(5) 0.1514(3) 0.35218(16)
C9 C 0.8940(5) 0.1405(3) 0.36905(16)
C10 C 0.7974(6) 0.0691(4) 0.36049(18)
H5 H 0.8229 0.0157 0.3439
C11 C 0.6636(6) 0.0793(4) 0.37717(19)
H6 H 0.5986 0.0312 0.3728
C12 C 0.6240(6) 0.1612(4) 0.40064(18)
H7 H 0.5318 0.1682 0.4105
C13 C 0.7211(5) 0.2321(3) 0.40932(17)
H8 H 0.6938 0.2869 0.4245
C14 C 0.8605(5) 0.2204(3) 0.39503(16)
C15 C 0.9037(5) 0.3808(3) 0.46407(15)
C16 C 0.8534(5) 0.3119(3) 0.49443(16)
H9 H 0.8606 0.2482 0.4870
C17 C 0.7929(5) 0.3391(3) 0.53545(16)
H10 H 0.7558 0.2938 0.5551
C18 C 0.7874(5) 0.4352(3) 0.54758(16)
H11 H 0.7478 0.4527 0.5755
C19 C 0.8400(5) 0.5037(3) 0.51869(15)
H12 H 0.8376 0.5670 0.5272
C20 C 0.8973(4) 0.4766(3) 0.47607(15)
C21 C 0.9784(5) 0.5323(3) 0.44321(15)
C22 C 0.9699(5) 0.6283(3) 0.43735(15)
C23 C 1.0730(5) 0.6957(3) 0.41741(16)
C24 C 1.2138(5) 0.6857(3) 0.40568(17)
H13 H 1.2576 0.6274 0.4086
C25 C 1.2884(6) 0.7627(3) 0.38968(18)
H14 H 1.3817 0.7554 0.3812
C26 C 1.2247(6) 0.8516(4) 0.38615(18)
H15 H 1.2751 0.9024 0.3745
C27 C 1.0875(5) 0.8640(3) 0.39988(17)
H16 H 1.0456 0.9232 0.3983
C28 C 1.0128(5) 0.7864(3) 0.41616(16)
C29 C 0.8708(5) 0.7810(3) 0.43428(17)
C30 C 0.7685(6) 0.8513(4) 0.43719(18)
H17 H 0.7885 0.9134 0.4291
C31 C 0.6358(6) 0.8258(4) 0.45256(18)
H18 H 0.5667 0.8717 0.4555
C32 C 0.6050(5) 0.7335(3) 0.46356(18)
H19 H 0.5146 0.7178 0.4729
C33 C 0.7074(5) 0.6628(3) 0.46097(16)
H20 H 0.6851 0.6004 0.4678
C34 C 0.8435(5) 0.6875(3) 0.44800(16)
C35 C 1.0667(5) 0.4609(3) 0.41389(16)
C36 C 1.2169(5) 0.4547(3) 0.43325(16)
C37 C 1.3349(5) 0.4635(3) 0.40546(17)
H21 H 1.3232 0.4743 0.3742
C38 C 1.4694(5) 0.4567(3) 0.42326(19)
H22 H 1.5466 0.4614 0.4039
C39 C 1.4886(5) 0.4429(3) 0.47012(18)
H23 H 1.5785 0.4382 0.4823
C40 C 1.3726(5) 0.4362(3) 0.49841(17)
H24 H 1.3850 0.4282 0.5299
C41 C 1.2391(5) 0.4412(3) 0.48060(16)
H25 H 1.1623 0.4355 0.5001
C42 C 1.0585(5) 0.4858(3) 0.36238(16)
H26 H 1.1098 0.5440 0.3571
H27 H 1.1042 0.4363 0.3449
C43 C 0.9077(6) 0.4980(4) 0.34460(19)
H28 H 0.8469 0.4535 0.3603
H29 H 0.8753 0.5612 0.3518
C44 C 0.8971(9) 0.4823(5) 0.2938(2)
H30 H 0.9786 0.5089 0.2786
H31 H 0.8142 0.5136 0.2819
C45 C 0.8883(11) 0.3736(6) 0.2839(3)
H32 H 0.9726 0.3440 0.2958
H33 H 0.8094 0.3480 0.3008
C46 C 0.8729(12) 0.3469(6) 0.2358(3)
H34 H 0.9544 0.3687 0.2189
H35 H 0.7912 0.3784 0.2232
C47 C 0.8572(12) 0.2407(7) 0.2290(4)
H36 H 0.9331 0.2095 0.2452
H37 H 0.8688 0.2270 0.1965
C48 C 0.7156(12) 0.1959(7) 0.2452(4)
H38 H 0.7132 0.1961 0.2785
H39 H 0.6389 0.2352 0.2345
C49 C 0.6916(13) 0.0942(7) 0.2282(4)
H40 H 0.6946 0.0947 0.1949
H41 H 0.7694 0.0558 0.2387
C50 C 0.5611(13) 0.0481(8) 0.2424(4)
H42 H 0.4834 0.0902 0.2357
H43 H 0.5637 0.0387 0.2754
C51 C 0.5333(14) -0.0462(8) 0.2195(4)
H44 H 0.4530 -0.0755 0.2334
H45 H 0.6136 -0.0864 0.2231
H46 H 0.5155 -0.0365 0.1873
loop_
_geom_bond_atom_site_label_1
_geom_bond_atom_site_label_2
_geom_bond_site_symmetry_1
_geom_bond_site_symmetry_2
C1 C2 1_555 1_555
C2 C3 1_555 1_555
C3 C4 1_555 1_555
C4 H1 1_555 1_555
C5 C4 1_555 1_555
H2 C5 1_555 1_555
C6 C5 1_555 1_555
H3 C6 1_555 1_555
C7 C6 1_555 1_555
H4 C7 1_555 1_555
C8 C3 1_555 1_555
C9 C8 1_555 1_555
C10 C9 1_555 1_555
H5 C10 1_555 1_555
C11 C10 1_555 1_555
H6 C11 1_555 1_555
C12 C11 1_555 1_555
H7 C12 1_555 1_555
C13 C12 1_555 1_555
H8 C13 1_555 1_555
C14 C2 1_555 1_555
C15 C1 1_555 1_555
C16 C15 1_555 1_555
H9 C16 1_555 1_555
C17 C16 1_555 1_555
H10 C17 1_555 1_555
C18 C17 1_555 1_555
H11 C18 1_555 1_555
C19 C18 1_555 1_555
H12 C19 1_555 1_555
C20 C15 1_555 1_555
C21 C20 1_555 1_555
C22 C21 1_555 1_555
C23 C22 1_555 1_555
C24 C23 1_555 1_555
H13 C24 1_555 1_555
C25 C24 1_555 1_555
H14 C25 1_555 1_555
C26 C25 1_555 1_555
H15 C26 1_555 1_555
C27 C26 1_555 1_555
H16 C27 1_555 1_555
C28 C23 1_555 1_555
C29 C28 1_555 1_555
C30 C29 1_555 1_555
H17 C30 1_555 1_555
C31 C30 1_555 1_555
H18 C31 1_555 1_555
C32 C31 1_555 1_555
H19 C32 1_555 1_555
C33 C32 1_555 1_555
H20 C33 1_555 1_555
C34 C22 1_555 1_555
C35 C1 1_555 1_555
C36 C35 1_555 1_555
C37 C36 1_555 1_555
H21 C37 1_555 1_555
C38 C37 1_555 1_555
H22 C38 1_555 1_555
C39 C38 1_555 1_555
H23 C39 1_555 1_555
C40 C39 1_555 1_555
H24 C40 1_555 1_555
C41 C36 1_555 1_555
H25 C41 1_555 1_555
C42 C35 1_555 1_555
H26 C42 1_555 1_555
H27 C42 1_555 1_555
C43 C42 1_555 1_555
H28 C43 1_555 1_555
H29 C43 1_555 1_555
C44 C43 1_555 1_555
H30 C44 1_555 1_555
H31 C44 1_555 1_555
C45 C44 1_555 1_555
H32 C45 1_555 1_555
H33 C45 1_555 1_555
C46 C45 1_555 1_555
H34 C46 1_555 1_555
H35 C46 1_555 1_555
C47 C46 1_555 1_555
H36 C47 1_555 1_555
H37 C47 1_555 1_555
C48 C47 1_555 1_555
H38 C48 1_555 1_555
H39 C48 1_555 1_555
C49 C48 1_555 1_555
H40 C49 1_555 1_555
H41 C49 1_555 1_555
C50 C49 1_555 1_555
H42 C50 1_555 1_555
H43 C50 1_555 1_555
C51 C50 1_555 1_555
H44 C51 1_555 1_555
H45 C51 1_555 1_555
H46 C51 1_555 1_555
C7 C8 1_555 1_555
C9 C14 1_555 1_555
C13 C14 1_555 1_555
C19 C20 1_555 1_555
C21 C35 1_555 1_555
C27 C28 1_555 1_555
C29 C34 1_555 1_555
C33 C34 1_555 1_555
C40 C41 1_555 1_555

#END
