
#######################################################################
#
#                 Cambridge Crystallographic Data Centre
#                                CCDC 
#
#######################################################################
#
# If this CIF has been generated from an entry in the Cambridge 
# Structural Database, then it will include bibliographic, chemical, 
# crystal, experimental, refinement or atomic coordinate data resulting 
# from the CCDC's data processing and validation procedures.
#
#######################################################################

data_KEBPIT
_chemical_formula_moiety         'C24 H21 F2 O3 P1'
_chemical_name_systematic        
'ethyl 4-(diphenylphosphoryl)-2,2-difluoro-4-phenylbut-3-enoate'
_symmetry_cell_setting           monoclinic
_symmetry_space_group_name_H-M   'C 2/c'
_symmetry_Int_Tables_number      15
_space_group_name_Hall           '-C 2yn'
loop_
_symmetry_equiv_pos_site_id
_symmetry_equiv_pos_as_xyz
1 x,y,z
2 -x,y,1/2-z
3 1/2+x,1/2+y,z
4 1/2-x,1/2+y,1/2-z
5 -x,-y,-z
6 x,-y,1/2+z
7 1/2-x,1/2-y,-z
8 1/2+x,1/2-y,1/2+z
_cell_length_a                   25.317(4)
_cell_length_b                   8.8649(15)
_cell_length_c                   22.042(4)
_cell_angle_alpha                90
_cell_angle_beta                 120.571(2)
_cell_angle_gamma                90
_cell_volume                     4259.32
_exptl_crystal_colour            'light yellow'
_exptl_crystal_description       block
_cell_formula_units_Z            8
loop_
_atom_site_label
_atom_site_type_symbol
_atom_site_fract_x
_atom_site_fract_y
_atom_site_fract_z
P1 P 0.06306(2) 0.72917(5) 0.12643(2)
O1 O 0.00594(6) 0.64155(17) 0.08994(7)
C1 C 0.10915(8) 0.6720(2) 0.21811(9)
F1 F 0.06839(6) 0.44652(18) 0.32108(7)
C2 C 0.17248(9) 0.7292(2) 0.26207(9)
C3 C 0.16310(9) 0.7875(2) 0.10843(10)
H1 H 0.17774(9) 0.8535(2) 0.14639(10)
C4 C 0.11011(8) 0.70579(19) 0.08807(9)
F2 F 0.14601(7) 0.38066(17) 0.31153(8)
C5 C 0.08341(9) 0.5723(2) 0.23916(9)
H2 H 0.04332(9) 0.5437(2) 0.20702(9)
C6 C 0.08949(9) 0.6057(2) 0.03246(9)
H3 H 0.05419(9) 0.5493(2) 0.01876(9)
O2 O 0.20523(8) 0.5629(2) 0.41718(8)
C7 C 0.19417(10) 0.7713(2) 0.07276(12)
H4 H 0.22950(10) 0.8273(2) 0.08619(12)
O3 O 0.12536(8) 0.7164(2) 0.37515(9)
C8 C 0.12117(11) 0.5894(2) -0.00264(11)
H5 H 0.10729(11) 0.5218(2) -0.03995(11)
C9 C 0.05108(9) 0.9285(2) 0.12783(10)
C10 C 0.11315(10) 0.5015(3) 0.31013(11)
C11 C 0.04256(11) 1.1779(2) 0.08124(13)
H6 H 0.04688(11) 1.2429(2) 0.05094(13)
C12 C 0.05696(9) 1.0267(2) 0.08335(10)
H7 H 0.07083(9) 0.9909(2) 0.05423(10)
C13 C 0.02221(15) 1.2311(3) 0.12320(14)
H8 H 0.01226(15) 1.3325(3) 0.12164(14)
C14 C 0.15488(11) 0.5971(3) 0.37442(11)
C15 C 0.22100(10) 0.6385(3) 0.27576(12)
H9 H 0.21369(10) 0.5409(3) 0.25785(12)
C16 C 0.17306(11) 0.6724(3) 0.01725(12)
H10 H 0.19409(11) 0.6618(3) -0.00693(12)
C17 C 0.18401(12) 0.8730(3) 0.28916(12)
H11 H 0.15189(12) 0.9378(3) 0.27997(12)
C18 C 0.28038(11) 0.6891(3) 0.31551(15)
H12 H 0.31269(11) 0.6264(3) 0.32329(15)
C19 C 0.0165(2) 1.1367(4) 0.16709(18)
H13 H 0.0026(2) 1.1740(4) 0.19594(18)
C20 C 0.24455(17) 0.9195(3) 0.33055(15)
H14 H 0.25288(17) 1.0157(3) 0.35017(15)
C21 C 0.29189(13) 0.8270(4) 0.34289(15)
H15 H 0.33216(13) 0.8602(4) 0.37040(15)
C22 C 0.1527(4) 0.8549(11) 0.4246(4)
H16 H 0.1967(4) 0.8610(11) 0.4437(4)
H17 H 0.1339(4) 0.9475(11) 0.3993(4)
C23 C 0.1397(4) 0.8323(10) 0.4793(4)
H18 H 0.0962(4) 0.823(6) 0.4594(4)
H19 H 0.160(2) 0.742(3) 0.5047(17)
H20 H 0.154(2) 0.917(3) 0.5109(16)
C24 C 0.03080(18) 0.9846(4) 0.17039(16)
H21 H 0.02667(18) 0.9211(4) 0.20131(16)
C25? C 0.1212(5) 0.9134(11) 0.4374(6)
H22? H 0.111(3) 0.973(5) 0.396(2)
H23? H 0.0845(15) 0.8709(12) 0.433(4)
H24? H 0.1407(14) 0.976(5) 0.478(2)
C26? C 0.1651(4) 0.7857(9) 0.4445(4)
H25? H 0.2031(4) 0.8236(9) 0.4496(4)
H26? H 0.1739(4) 0.7175(9) 0.4829(4)
loop_
_geom_bond_atom_site_label_1
_geom_bond_atom_site_label_2
_geom_bond_site_symmetry_1
_geom_bond_site_symmetry_2
P1 O1 1_555 1_555
C1 P1 1_555 1_555
F1 C10 1_555 1_555
C2 C1 1_555 1_555
C3 H1 1_555 1_555
C4 P1 1_555 1_555
F2 C10 1_555 1_555
C5 C1 1_555 1_555
H2 C5 1_555 1_555
C6 C4 1_555 1_555
H3 C6 1_555 1_555
O2 C14 1_555 1_555
C7 C3 1_555 1_555
H4 C7 1_555 1_555
O3 C14 1_555 1_555
C8 C6 1_555 1_555
H5 C8 1_555 1_555
C9 P1 1_555 1_555
C10 C5 1_555 1_555
C11 H6 1_555 1_555
C12 C9 1_555 1_555
H7 C12 1_555 1_555
C13 C11 1_555 1_555
H8 C13 1_555 1_555
C14 C10 1_555 1_555
C15 C2 1_555 1_555
H9 C15 1_555 1_555
C16 C7 1_555 1_555
H10 C16 1_555 1_555
C17 C2 1_555 1_555
H11 C17 1_555 1_555
C18 C15 1_555 1_555
H12 C18 1_555 1_555
C19 C13 1_555 1_555
H13 C19 1_555 1_555
C20 C17 1_555 1_555
H14 C20 1_555 1_555
C21 C18 1_555 1_555
H15 C21 1_555 1_555
C22 O3 1_555 1_555
H16 C22 1_555 1_555
H17 C22 1_555 1_555
C23 C22 1_555 1_555
H18 C23 1_555 1_555
H19 C23 1_555 1_555
H20 C23 1_555 1_555
C24 C9 1_555 1_555
H21 C24 1_555 1_555
C3 C4 1_555 1_555
C8 C16 1_555 1_555
C11 C12 1_555 1_555
C19 C24 1_555 1_555
C20 C21 1_555 1_555

#END
