
#######################################################################
#
#                 Cambridge Crystallographic Data Centre
#                                CCDC 
#
#######################################################################
#
# If this CIF has been generated from an entry in the Cambridge 
# Structural Database, then it will include bibliographic, chemical, 
# crystal, experimental, refinement or atomic coordinate data resulting 
# from the CCDC's data processing and validation procedures.
#
#######################################################################

data_KEBPOW
_chemical_formula_moiety         'C28 H19 O16 S4 5-,5(Rb1 1+),5(H2 O1)'
_chemical_name_systematic        
'Pentarubidium (25,26,27-trihydroxycalix(4)arene-28-oxide-5,11,17,23-tetrasulfonate) pentahydrate clathrate'
_symmetry_cell_setting           monoclinic
_symmetry_space_group_name_H-M   'P 21/n'
_symmetry_Int_Tables_number      14
_space_group_name_Hall           '-P 2yn'
loop_
_symmetry_equiv_pos_site_id
_symmetry_equiv_pos_as_xyz
1 x,y,z
2 1/2-x,1/2+y,1/2-z
3 -x,-y,-z
4 1/2+x,1/2-y,1/2+z
_cell_length_a                   11.603(5)
_cell_length_b                   28.607(8)
_cell_length_c                   12.512(5)
_cell_angle_alpha                90
_cell_angle_beta                 91.70(4)
_cell_angle_gamma                90
_cell_volume                     4151.24
_cell_formula_units_Z            4
loop_
_atom_site_label
_atom_site_type_symbol
_atom_site_fract_x
_atom_site_fract_y
_atom_site_fract_z
Rb1 Rb 1.2540(4) 0.1512(2) 1.3625(4)
Rb2 Rb 0.6652(5) -0.0501(2) 0.8395(4)
Rb3 Rb 0.2827(4) -0.0172(2) 0.8455(4)
Rb4 Rb 0.1135(6) -0.0481(3) 0.5547(7)
Rb6 Rb 0.058(2) -0.029(1) 1.160(3)
S1 S 0.548(1) 0.0601(6) 0.906(1)
S2 S 0.5856(9) 0.0947(5) 0.3419(9)
S3 S 1.184(1) 0.0821(5) 0.6050(9)
S4 S 1.003(1) 0.1077(5) 1.1905(9)
O1 O 0.604(2) 0.2609(8) 0.833(2)
O2 O 0.716(2) 0.247(1) 0.645(2)
O3 O 0.923(2) 0.2522(9) 0.707(2)
O4 O 0.854(2) 0.2565(9) 0.890(2)
O5 O 0.670(5) 0.038(2) 0.929(4)
O6 O 0.501(3) 0.039(1) 0.816(2)
O7 O 0.505(5) 0.053(2) 1.005(4)
O8 O 0.656(2) 0.054(1) 0.368(2)
O9 O 0.605(3) 0.111(1) 0.229(2)
O10 O 0.462(3) 0.084(1) 0.352(2)
O11 O 1.295(4) 0.099(2) 0.574(4)
O12 O 1.129(4) 0.062(2) 0.512(3)
O13 O 1.192(3) 0.057(1) 0.696(3)
O14 O 1.126(3) 0.102(1) 1.184(3)
O15 O 0.979(4) 0.123(2) 1.300(3)
O16 O 0.940(4) 0.069(2) 1.165(3)
C1 C 0.585(3) 0.215(1) 0.851(3)
C2 C 0.625(3) 0.195(1) 0.946(3)
C3 C 0.604(3) 0.150(1) 0.959(3)
C4 C 0.556(3) 0.120(2) 0.890(3)
C5 C 0.513(4) 0.143(2) 0.791(4)
C6 C 0.532(3) 0.189(1) 0.773(3)
C7 C 0.493(3) 0.206(1) 0.664(3)
C8 C 0.687(3) 0.213(1) 0.571(3)
C9 C 0.577(3) 0.191(1) 0.573(3)
C10 C 0.546(3) 0.157(1) 0.504(3)
C11 C 0.621(4) 0.139(2) 0.424(3)
C12 C 0.733(3) 0.161(1) 0.431(3)
C13 C 0.768(3) 0.193(1) 0.497(3)
C14 C 0.887(3) 0.217(1) 0.497(3)
C15 C 0.985(3) 0.213(1) 0.678(3)
C16 C 0.969(3) 0.193(1) 0.583(3)
C17 C 1.030(3) 0.151(1) 0.561(3)
C18 C 1.107(3) 0.133(1) 0.636(3)
C19 C 1.124(3) 0.155(1) 0.733(3)
C20 C 1.061(3) 0.196(1) 0.758(3)
C21 C 1.081(3) 0.217(1) 0.864(3)
C22 C 0.885(4) 0.223(2) 0.954(4)
C23 C 0.999(3) 0.201(1) 0.953(3)
C24 C 1.037(3) 0.169(1) 1.026(3)
C25 C 0.959(3) 0.149(1) 1.104(3)
C26 C 0.849(3) 0.172(1) 1.111(3)
C27 C 0.813(3) 0.203(1) 1.041(3)
C28 C 0.691(3) 0.223(1) 1.033(3)
O17 O 0.399(3) 0.155(1) 1.157(3)
O18 O 0.256(4) -0.083(2) 1.371(4)
O19 O 0.240(5) 0.017(2) 1.358(5)
O20 O 0.868(6) -0.047(3) 1.035(6)
O21 O 0.704(5) -0.127(2) 1.038(5)
Rb5? Rb 0.5040(8) -0.0268(4) 1.4247(7)
Rb7? Rb 0.131(3) -0.098(1) 1.138(3)
loop_
_geom_bond_atom_site_label_1
_geom_bond_atom_site_label_2
_geom_bond_site_symmetry_1
_geom_bond_site_symmetry_2
S1 O5 1_555 1_555
S2 O8 1_555 1_555
S3 O11 1_555 1_555
S4 O14 1_555 1_555
O1 C1 1_555 1_555
O2 C8 1_555 1_555
O3 C15 1_555 1_555
O4 C22 1_555 1_555
O6 S1 1_555 1_555
O7 S1 1_555 1_555
O9 S2 1_555 1_555
O10 S2 1_555 1_555
O12 S3 1_555 1_555
O13 S3 1_555 1_555
O15 S4 1_555 1_555
O16 S4 1_555 1_555
C1 C2 1_555 1_555
C2 C3 1_555 1_555
C3 C4 1_555 1_555
C4 S1 1_555 1_555
C5 C4 1_555 1_555
C6 C1 1_555 1_555
C7 C6 1_555 1_555
C8 C9 1_555 1_555
C9 C7 1_555 1_555
C10 C9 1_555 1_555
C11 S2 1_555 1_555
C12 C11 1_555 1_555
C13 C8 1_555 1_555
C14 C13 1_555 1_555
C15 C16 1_555 1_555
C16 C14 1_555 1_555
C17 C16 1_555 1_555
C18 S3 1_555 1_555
C19 C18 1_555 1_555
C20 C15 1_555 1_555
C21 C20 1_555 1_555
C22 C23 1_555 1_555
C23 C21 1_555 1_555
C24 C23 1_555 1_555
C25 S4 1_555 1_555
C26 C25 1_555 1_555
C27 C22 1_555 1_555
C28 C2 1_555 1_555
C5 C6 1_555 1_555
C10 C11 1_555 1_555
C12 C13 1_555 1_555
C17 C18 1_555 1_555
C19 C20 1_555 1_555
C24 C25 1_555 1_555
C26 C27 1_555 1_555
C27 C28 1_555 1_555

#END
