
#######################################################################
#
#                 Cambridge Crystallographic Data Centre
#                                CCDC 
#
#######################################################################
#
# If this CIF has been generated from an entry in the Cambridge 
# Structural Database, then it will include bibliographic, chemical, 
# crystal, experimental, refinement or atomic coordinate data resulting 
# from the CCDC's data processing and validation procedures.
#
#######################################################################

data_KEBROZ
_chemical_name_common            'Norfloxacin methanol solvate monohydrate'
_chemical_formula_moiety         'C16 H18 F1 N3 O3,C1 H4 O1,H2 O1'
_chemical_name_systematic        
'1-Ethyl-6-fluoro-1,4-dihydro-4-oxo-7-(1-piperazinyl)-3-quinoline carboxylic acid methanol solvate monohydrate'
_chemical_properties_biological  'antibacterial drug'
_symmetry_cell_setting           monoclinic
_symmetry_space_group_name_H-M   'P 21/c'
_symmetry_Int_Tables_number      14
_space_group_name_Hall           '-P 2ybc'
loop_
_symmetry_equiv_pos_site_id
_symmetry_equiv_pos_as_xyz
1 x,y,z
2 -x,1/2+y,1/2-z
3 -x,-y,-z
4 x,1/2-y,1/2+z
_cell_length_a                   7.8660(16)
_cell_length_b                   22.525(4)
_cell_length_c                   10.253(2)
_cell_angle_alpha                90
_cell_angle_beta                 108.31(3)
_cell_angle_gamma                90
_cell_volume                     1724.67
_cell_formula_units_Z            4
loop_
_atom_site_label
_atom_site_type_symbol
_atom_site_fract_x
_atom_site_fract_y
_atom_site_fract_z
F1 F -0.1846(4) 0.50865(11) 0.0877(2)
O1 O 0.4974(5) 0.34131(15) 0.7863(3)
O2 O 0.3147(5) 0.28483(14) 0.6291(3)
H1 H 0.3567 0.2537 0.6750
O3 O 0.0561(4) 0.34663(14) 0.4198(3)
N1 N 0.3433(4) 0.49497(14) 0.5876(3)
N2 N -0.0048(5) 0.61246(15) 0.1913(3)
N3 N -0.0391(5) 0.72248(16) 0.0457(3)
H2 H -0.0016 0.7539 0.0078
C1 C 0.3777(6) 0.33476(19) 0.6765(5)
C2 C 0.3036(6) 0.38947(18) 0.5955(4)
C3 C 0.1521(6) 0.38963(18) 0.4698(4)
C4 C 0.1180(6) 0.44797(17) 0.4001(4)
C5 C -0.0128(6) 0.45325(18) 0.2731(4)
H3 H -0.0763 0.4197 0.2323
C6 C -0.0504(6) 0.5064(2) 0.2066(4)
C7 C 0.0431(6) 0.55837(18) 0.2612(4)
C8 C 0.1749(6) 0.55394(17) 0.3888(4)
H4 H 0.2399 0.5875 0.4280
C9 C 0.2110(5) 0.49950(18) 0.4591(4)
C10 C 0.3821(6) 0.44161(18) 0.6451(4)
H5 H 0.4735 0.4401 0.7287
C11 C 0.4309(6) 0.55054(18) 0.6572(4)
H6 H 0.3389 0.5784 0.6582
H7 H 0.4995 0.5676 0.6040
C12 C 0.5523(7) 0.5418(2) 0.8014(4)
H8 H 0.6026 0.5793 0.8387
H9 H 0.6469 0.5150 0.8011
H10 H 0.4851 0.5256 0.8566
C13 C 0.0037(7) 0.61391(19) 0.0506(4)
H11 H -0.0397 0.5772 0.0048
H12 H 0.1259 0.6189 0.0532
C14 C -0.1089(7) 0.66631(19) -0.0256(5)
H13 H -0.1042 0.6677 -0.1180
H14 H -0.2314 0.6608 -0.0294
C15 C -0.0364(7) 0.71906(19) 0.1908(4)
H15 H -0.1573 0.7143 0.1917
H16 H 0.0099 0.7553 0.2378
C16 C 0.0684(7) 0.66735(18) 0.2651(4)
H17 H 0.1900 0.6718 0.2656
H18 H 0.0677 0.6655 0.3585
C17 C 0.5654(10) 0.8091(2) 0.1880(7)
H19 H 0.6756 0.7885 0.2312
H20 H 0.5899 0.8504 0.1792
H21 H 0.5088 0.7925 0.0986
O4 O 0.4361(18) 0.8023(4) 0.2793(11)
H22 H 0.4837 0.7821 0.3516
O5 O 0.2978(5) 0.72698(18) 0.0103(4)
H23 H 0.3607 0.7581 0.0150
H24 H 0.3448 0.7051 0.0799
O6? O 0.2721(14) 0.8235(3) 0.2672(8)
H25? H 0.2432 0.8121 0.3363
loop_
_geom_bond_atom_site_label_1
_geom_bond_atom_site_label_2
_geom_bond_site_symmetry_1
_geom_bond_site_symmetry_2
F1 C6 1_555 1_555
O1 C1 1_555 1_555
O2 H1 1_555 1_555
O3 C3 1_555 1_555
N1 C9 1_555 1_555
N2 C7 1_555 1_555
N3 H2 1_555 1_555
C1 O2 1_555 1_555
C2 C1 1_555 1_555
C3 C2 1_555 1_555
C4 C3 1_555 1_555
C5 C4 1_555 1_555
H3 C5 1_555 1_555
C6 C5 1_555 1_555
C7 C6 1_555 1_555
C8 C7 1_555 1_555
H4 C8 1_555 1_555
C9 C4 1_555 1_555
C10 N1 1_555 1_555
H5 C10 1_555 1_555
C11 N1 1_555 1_555
H6 C11 1_555 1_555
H7 C11 1_555 1_555
C12 C11 1_555 1_555
H8 C12 1_555 1_555
H9 C12 1_555 1_555
H10 C12 1_555 1_555
C13 N2 1_555 1_555
H11 C13 1_555 1_555
H12 C13 1_555 1_555
C14 N3 1_555 1_555
H13 C14 1_555 1_555
H14 C14 1_555 1_555
C15 N3 1_555 1_555
H15 C15 1_555 1_555
H16 C15 1_555 1_555
C16 N2 1_555 1_555
H17 C16 1_555 1_555
H18 C16 1_555 1_555
C17 H19 1_555 1_555
H20 C17 1_555 1_555
H21 C17 1_555 1_555
O4 C17 1_555 1_555
H22 O4 1_555 1_555
O5 H23 1_555 1_555
H24 O5 1_555 1_555
C2 C10 1_555 1_555
C8 C9 1_555 1_555
C13 C14 1_555 1_555
C15 C16 1_555 1_555

#END
