
#######################################################################
#
#                 Cambridge Crystallographic Data Centre
#                                CCDC 
#
#######################################################################
#
# If this CIF has been generated from an entry in the Cambridge 
# Structural Database, then it will include bibliographic, chemical, 
# crystal, experimental, refinement or atomic coordinate data resulting 
# from the CCDC's data processing and validation procedures.
#
#######################################################################

data_KEBSUG
_chemical_formula_moiety         'C22 H21 Cl2 N1 O2'
_chemical_name_systematic        
N-Cyclopropyl-9-(3,4-dichlorophenyl)-1,2,3,4,5,6,7,8,9,10-decahydroacridine-1,8-dione
_symmetry_cell_setting           orthorhombic
_symmetry_space_group_name_H-M   'P 21 21 21'
_symmetry_Int_Tables_number      19
_space_group_name_Hall           'P 2ac 2ab'
loop_
_symmetry_equiv_pos_site_id
_symmetry_equiv_pos_as_xyz
1 x,y,z
2 1/2+x,1/2-y,-z
3 -x,1/2+y,1/2-z
4 1/2-x,-y,1/2+z
_cell_length_a                   9.9103(5)
_cell_length_b                   13.3597(8)
_cell_length_c                   14.5633(8)
_cell_angle_alpha                90
_cell_angle_beta                 90
_cell_angle_gamma                90
_cell_volume                     1928.16
_exptl_crystal_colour            'light yellow'
_exptl_crystal_description       block
_chemical_melting_point          230-231deg.C
_cell_formula_units_Z            4
_exptl_crystal_recrystallization_method ethanol
loop_
_atom_site_label
_atom_site_type_symbol
_atom_site_fract_x
_atom_site_fract_y
_atom_site_fract_z
Cl1 Cl 0.62222(6) 0.33656(4) 0.80705(4)
Cl2 Cl 0.79690(5) 0.52701(5) 0.86226(4)
O1 O 0.15667(18) 0.68976(11) 0.98806(11)
O2 O 0.16254(16) 0.61507(12) 0.65154(10)
N1 N 0.09102(17) 0.36328(12) 0.87332(11)
C1 C 0.08879(19) 0.43239(14) 0.94483(13)
C2 C 0.12643(18) 0.52800(14) 0.92895(12)
C3 C 0.18815(18) 0.55720(13) 0.83699(12)
H1 H 0.1641 0.6285 0.8240
C4 C 0.12494(18) 0.49224(15) 0.76367(12)
C5 C 0.08390(19) 0.39856(15) 0.78295(13)
C6 C 0.1155(2) 0.60428(14) 1.00010(14)
C7 C 0.0582(2) 0.57376(17) 1.09240(15)
H2 H 0.0052 0.6303 1.1176
H3 H 0.1337 0.5605 1.1352
C8 C -0.0312(2) 0.48183(18) 1.08824(14)
H4 H -0.1168 0.4989 1.0570
H5 H -0.0530 0.4597 1.1514
C9 C 0.0381(2) 0.39684(16) 1.03682(14)
H6 H 0.1148 0.3715 1.0737
H7 H -0.0264 0.3411 1.0278
C10 C 0.1145(2) 0.53280(17) 0.67067(13)
C11 C 0.0471(3) 0.4693(2) 0.59849(15)
C12 C -0.0487(3) 0.3937(2) 0.6376(2)
H8 H -0.0813 0.3493 0.5879
H9 H -0.1277 0.4285 0.6643
C14 C 0.0209(2) 0.33043(18) 0.71239(15)
C15 C 0.34164(18) 0.54898(13) 0.84132(11)
C16 C 0.40679(19) 0.45823(14) 0.82505(12)
H12 H 0.3551 0.4008 0.8096
C17 C 0.5464(2) 0.45061(14) 0.83110(12)
C18 C 0.62255(19) 0.53404(16) 0.85493(13)
C19 C 0.5592(2) 0.62452(16) 0.87190(14)
H13 H 0.6110 0.6816 0.8884
C20 C 0.4198(2) 0.63177(14) 0.86481(14)
H14 H 0.3771 0.6942 0.8762
C21 C 0.0869(3) 0.25683(16) 0.89203(15)
H15 H -0.0043 0.2255 0.8977
C22 C 0.1960(3) 0.19397(18) 0.85054(19)
H16 H 0.2645 0.2280 0.8122
H17 H 0.1720 0.1255 0.8303
C23 C 0.1969(3) 0.21477(18) 0.95153(19)
H18 H 0.2658 0.2617 0.9754
H19 H 0.1733 0.1592 0.9935
H20 H 0.004(4) 0.515(2) 0.554(2)
H21 H 0.120(3) 0.441(2) 0.560(2)
H22 H -0.048(3) 0.287(2) 0.740(2)
H23 H 0.094(3) 0.290(3) 0.686(3)
C13? C 0.0583(12) 0.3575(9) 0.6152(6)
H10? H -0.0020 0.3217 0.5722
H11? H 0.1520 0.3356 0.6029
loop_
_geom_bond_atom_site_label_1
_geom_bond_atom_site_label_2
_geom_bond_site_symmetry_1
_geom_bond_site_symmetry_2
Cl1 C17 1_555 1_555
Cl2 C18 1_555 1_555
O1 C6 1_555 1_555
O2 C10 1_555 1_555
N1 C1 1_555 1_555
C1 C2 1_555 1_555
C2 C3 1_555 1_555
C3 H1 1_555 1_555
C4 C3 1_555 1_555
C5 N1 1_555 1_555
C6 C2 1_555 1_555
C7 C6 1_555 1_555
H2 C7 1_555 1_555
H3 C7 1_555 1_555
C8 C7 1_555 1_555
H4 C8 1_555 1_555
H5 C8 1_555 1_555
C9 C1 1_555 1_555
H6 C9 1_555 1_555
H7 C9 1_555 1_555
C10 C4 1_555 1_555
C11 C10 1_555 1_555
C12 C11 1_555 1_555
H8 C12 1_555 1_555
H9 C12 1_555 1_555
C14 C5 1_555 1_555
C15 C3 1_555 1_555
C16 C15 1_555 1_555
H12 C16 1_555 1_555
C17 C16 1_555 1_555
C18 C17 1_555 1_555
C19 C18 1_555 1_555
H13 C19 1_555 1_555
C20 C15 1_555 1_555
H14 C20 1_555 1_555
C21 N1 1_555 1_555
H15 C21 1_555 1_555
C22 C21 1_555 1_555
H16 C22 1_555 1_555
H17 C22 1_555 1_555
C23 C21 1_555 1_555
H18 C23 1_555 1_555
H19 C23 1_555 1_555
H20 C11 1_555 1_555
H21 C11 1_555 1_555
H22 C14 1_555 1_555
H23 C14 1_555 1_555
C4 C5 1_555 1_555
C8 C9 1_555 1_555
C12 C14 1_555 1_555
C19 C20 1_555 1_555
C22 C23 1_555 1_555

#END
