
#######################################################################
#
#                 Cambridge Crystallographic Data Centre
#                                CCDC 
#
#######################################################################
#
# If this CIF has been generated from an entry in the Cambridge 
# Structural Database, then it will include bibliographic, chemical, 
# crystal, experimental, refinement or atomic coordinate data resulting 
# from the CCDC's data processing and validation procedures.
#
#######################################################################

data_KEBZUP
_chemical_formula_moiety         'C40 H42 O8'
_chemical_name_systematic        
2^2^,2^5^-bis(2,4-dimethoxyphenyl)-1^2^,1^4^,3^2^,3^4^-tetramethoxy-2^3^,2^6^-dimethyl-1^1^,2^1^:2^4^,3^1^-terphenyl
_symmetry_cell_setting           monoclinic
_symmetry_space_group_name_H-M   'P 21/c'
_symmetry_Int_Tables_number      14
_space_group_name_Hall           '-P 2ybc'
loop_
_symmetry_equiv_pos_site_id
_symmetry_equiv_pos_as_xyz
1 x,y,z
2 -x,1/2+y,1/2-z
3 -x,-y,-z
4 x,1/2-y,1/2+z
_cell_length_a                   8.2972(7)
_cell_length_b                   15.0457(12)
_cell_length_c                   13.5966(11)
_cell_angle_alpha                90
_cell_angle_beta                 99.113(3)
_cell_angle_gamma                90
_cell_volume                     1675.94
_exptl_crystal_colour            colorless
_exptl_crystal_description       block
_cell_formula_units_Z            2
_exptl_crystal_recrystallization_method dichloromethane/hexanes
_exptl_crystal_preparation       
'The data crystal was mounted using oil (Paratone-N, Exxon) to a  0.3 mm cryo-loop (Hampton Research) with the (0 -4 -3) scattering  planes roughly normal to the spindle axis.'
loop_
_atom_site_label
_atom_site_type_symbol
_atom_site_fract_x
_atom_site_fract_y
_atom_site_fract_z
O1 O 0.55688(10) 0.46288(5) 0.23071(6)
O2 O 0.29093(10) 0.19974(5) 0.10026(6)
O3 O 0.08355(10) 0.44071(6) 0.37457(6)
O4 O -0.06287(10) 0.58549(6) 0.06292(6)
C1 C 0.46820(13) 0.43894(7) 0.42141(8)
C2 C 0.38821(13) 0.52137(7) 0.41528(8)
C3 C 0.41903(13) 0.58294(7) 0.49344(8)
C4 C 0.42727(13) 0.37351(7) 0.33824(8)
C5 C 0.46737(13) 0.38813(7) 0.24257(8)
C6 C 0.41953(13) 0.32872(8) 0.16553(8)
H1 H 0.4470 0.3397 0.1014
C7 C 0.33118(13) 0.25291(7) 0.18204(8)
C8 C 0.29089(14) 0.23596(7) 0.27581(8)
H2 H 0.2309 0.1843 0.2876
C9 C 0.34082(14) 0.29674(8) 0.35213(8)
H3 H 0.3145 0.2851 0.4164
C10 C 0.56136(15) 0.49071(8) 0.13075(9)
H4 H 0.6141 0.5490 0.1314
H5 H 0.4498 0.4947 0.0944
H6 H 0.6233 0.4474 0.0979
C11 C 0.20653(16) 0.11880(8) 0.11321(9)
H7 H 0.1880 0.0860 0.0502
H8 H 0.1014 0.1324 0.1339
H9 H 0.2723 0.0825 0.1644
C12 C 0.26804(14) 0.54278(7) 0.32392(8)
C13 C 0.11721(14) 0.49827(8) 0.30321(8)
C14 C 0.01052(14) 0.51426(8) 0.21561(9)
H10 H -0.0901 0.4831 0.2024
C15 C 0.05076(14) 0.57591(8) 0.14711(9)
C16 C 0.19655(15) 0.62276(8) 0.16687(9)
H11 H 0.2238 0.6659 0.1212
C17 C 0.30231(14) 0.60524(8) 0.25527(9)
H12 H 0.4018 0.6375 0.2689
C18 C -0.05082(16) 0.38162(9) 0.34865(11)
H13 H -0.0546 0.3395 0.4032
H14 H -0.0376 0.3489 0.2881
H15 H -0.1526 0.4158 0.3368
C19 C -0.01630(17) 0.63717(9) -0.01552(9)
H16 H -0.0996 0.6318 -0.0750
H17 H 0.0886 0.6157 -0.0306
H18 H -0.0058 0.6996 0.0050
C20 C 0.33047(14) 0.67093(8) 0.48594(8)
H19 H 0.2178 0.6623 0.4529
H20 H 0.3859 0.7127 0.4472
H21 H 0.3303 0.6950 0.5529
O1B O 0.44312(10) 0.53712(5) 0.76929(6)
O2B O 0.70907(10) 0.80026(5) 0.89974(6)
O3B O 0.91645(10) 0.55929(6) 0.62543(6)
O4B O 1.06287(10) 0.41451(6) 0.93708(6)
C1B C 0.53180(13) 0.56106(7) 0.57859(8)
C2B C 0.61179(13) 0.47863(7) 0.58472(8)
C3B C 0.58097(13) 0.41706(7) 0.50656(8)
C4B C 0.57273(13) 0.62649(7) 0.66176(8)
C5B C 0.53263(13) 0.61187(7) 0.75743(8)
C6B C 0.58047(13) 0.67128(8) 0.83447(8)
H1B H 0.5530 0.6603 0.8986
C7B C 0.66882(13) 0.74709(7) 0.81796(8)
C8B C 0.70911(14) 0.76404(7) 0.72419(8)
H2B H 0.7691 0.8157 0.7124
C9B C 0.65918(14) 0.70326(8) 0.64787(8)
H3B H 0.6855 0.7149 0.5836
C10B C 0.43864(15) 0.50929(8) 0.86925(9)
H4B H 0.3859 0.4510 0.8686
H5B H 0.5502 0.5053 0.9056
H6B H 0.3767 0.5526 0.9021
C11B C 0.79347(16) 0.88120(8) 0.88679(9)
H7B H 0.8120 0.9140 0.9498
H8B H 0.8986 0.8676 0.8661
H9B H 0.7277 0.9175 0.8356
C12B C 0.73196(14) 0.45722(7) 0.67608(8)
C13B C 0.88279(14) 0.50173(8) 0.69679(8)
C14B C 0.98948(14) 0.48574(8) 0.78439(9)
H10B H 1.0901 0.5169 0.7976
C15B C 0.94924(14) 0.42409(8) 0.85289(9)
C16B C 0.80345(15) 0.37724(8) 0.83313(9)
H11B H 0.7762 0.3341 0.8788
C17B C 0.69769(14) 0.39476(8) 0.74473(9)
H12B H 0.5982 0.3625 0.7311
C18B C 1.05082(16) 0.61838(9) 0.65135(11)
H13B H 1.0546 0.6605 0.5968
H14B H 1.0376 0.6511 0.7119
H15B H 1.1526 0.5842 0.6632
C19B C 1.01630(17) 0.36283(9) 1.01552(9)
H16B H 1.0996 0.3682 1.0750
H17B H 0.9114 0.3843 1.0306
H18B H 1.0058 0.3004 0.9950
C20B C 0.66953(14) 0.32907(8) 0.51406(8)
H19B H 0.7822 0.3377 0.5471
H20B H 0.6141 0.2873 0.5528
H21B H 0.6697 0.3050 0.4471
loop_
_geom_bond_atom_site_label_1
_geom_bond_atom_site_label_2
_geom_bond_site_symmetry_1
_geom_bond_site_symmetry_2
O1 C5 1_555 1_555
O2 C7 1_555 1_555
O3 C13 1_555 1_555
O4 C15 1_555 1_555
C1 C2 1_555 1_555
C2 C3 1_555 1_555
C3 C20 1_555 1_555
C4 C1 1_555 1_555
C5 C4 1_555 1_555
C6 C5 1_555 1_555
H1 C6 1_555 1_555
C7 C6 1_555 1_555
C8 C7 1_555 1_555
H2 C8 1_555 1_555
C9 C4 1_555 1_555
H3 C9 1_555 1_555
C10 O1 1_555 1_555
H4 C10 1_555 1_555
H5 C10 1_555 1_555
H6 C10 1_555 1_555
C11 O2 1_555 1_555
H7 C11 1_555 1_555
H8 C11 1_555 1_555
H9 C11 1_555 1_555
C12 C2 1_555 1_555
C13 C12 1_555 1_555
C14 C13 1_555 1_555
H10 C14 1_555 1_555
C15 C14 1_555 1_555
C16 C15 1_555 1_555
H11 C16 1_555 1_555
C17 C12 1_555 1_555
H12 C17 1_555 1_555
C18 O3 1_555 1_555
H13 C18 1_555 1_555
H14 C18 1_555 1_555
H15 C18 1_555 1_555
C19 O4 1_555 1_555
H16 C19 1_555 1_555
H17 C19 1_555 1_555
H18 C19 1_555 1_555
C20 H19 1_555 1_555
H20 C20 1_555 1_555
H21 C20 1_555 1_555
O1B C5B 1_555 1_555
O2B C7B 1_555 1_555
O3B C13B 1_555 1_555
O4B C15B 1_555 1_555
C1B C3 1_555 1_555
C2B C1B 1_555 1_555
C3B C1 1_555 1_555
C4B C1B 1_555 1_555
C5B C4B 1_555 1_555
C6B C5B 1_555 1_555
H1B C6B 1_555 1_555
C7B C6B 1_555 1_555
C8B C7B 1_555 1_555
H2B C8B 1_555 1_555
C9B C4B 1_555 1_555
H3B C9B 1_555 1_555
C10B O1B 1_555 1_555
H4B C10B 1_555 1_555
H5B C10B 1_555 1_555
H6B C10B 1_555 1_555
C11B O2B 1_555 1_555
H7B C11B 1_555 1_555
H8B C11B 1_555 1_555
H9B C11B 1_555 1_555
C12B C2B 1_555 1_555
C13B C12B 1_555 1_555
C14B C13B 1_555 1_555
H10B C14B 1_555 1_555
C15B C14B 1_555 1_555
C16B C15B 1_555 1_555
H11B C16B 1_555 1_555
C17B C12B 1_555 1_555
H12B C17B 1_555 1_555
C18B O3B 1_555 1_555
H13B C18B 1_555 1_555
H14B C18B 1_555 1_555
H15B C18B 1_555 1_555
C19B O4B 1_555 1_555
H16B C19B 1_555 1_555
H17B C19B 1_555 1_555
H18B C19B 1_555 1_555
C20B C3B 1_555 1_555
H19B C20B 1_555 1_555
H20B C20B 1_555 1_555
H21B C20B 1_555 1_555
C8 C9 1_555 1_555
C16 C17 1_555 1_555
C2B C3B 1_555 1_555
C8B C9B 1_555 1_555
C16B C17B 1_555 1_555

#END
