
#######################################################################
#
#                 Cambridge Crystallographic Data Centre
#                                CCDC 
#
#######################################################################
#
# If this CIF has been generated from an entry in the Cambridge 
# Structural Database, then it will include bibliographic, chemical, 
# crystal, experimental, refinement or atomic coordinate data resulting 
# from the CCDC's data processing and validation procedures.
#
#######################################################################

data_KECCOM
_chemical_formula_moiety         'C19 H23 N1 O4'
_chemical_name_systematic        
'(S)-1-((1R,2S,6R)-3,7,7-Trimethylbicyclo[4.1.0]hept-3-en-2-yl)ethyl 4-nitrobenzoate'
_symmetry_cell_setting           orthorhombic
_symmetry_space_group_name_H-M   'P 21 21 21'
_symmetry_Int_Tables_number      19
_space_group_name_Hall           'P 2ac 2ab'
loop_
_symmetry_equiv_pos_site_id
_symmetry_equiv_pos_as_xyz
1 x,y,z
2 1/2-x,-y,1/2+z
3 -x,1/2+y,1/2-z
4 1/2+x,1/2-y,-z
_cell_length_a                   7.434(3)
_cell_length_b                   11.929(5)
_cell_length_c                   20.102(8)
_cell_angle_alpha                90
_cell_angle_beta                 90
_cell_angle_gamma                90
_cell_volume                     1782.65
_exptl_crystal_colour            colorless
_exptl_crystal_description       rod
_cell_formula_units_Z            4
loop_
_atom_site_label
_atom_site_type_symbol
_atom_site_fract_x
_atom_site_fract_y
_atom_site_fract_z
N1 N 1.0458(8) 1.2083(3) 1.09839(18)
O1 O 0.3944(4) 0.9765(3) 0.93403(13)
O2 O 0.6354(3) 0.94351(18) 0.87133(11)
O3 O 0.9790(6) 1.2694(3) 1.13887(17)
O4 O 1.2048(7) 1.1871(4) 1.09190(19)
C1 C 0.9179(6) 1.1504(3) 1.05156(19)
C2 C 0.7405(8) 1.1505(3) 1.06730(18)
H1 H 0.7008 1.1876 1.1052
C3 C 0.6164(7) 1.0942(3) 1.02597(18)
H2 H 0.4949 1.0909 1.0369
C4 C 0.6817(5) 1.0438(3) 0.96836(16)
C5 C 0.8650(5) 1.0483(3) 0.95448(16)
H3 H 0.9086 1.0151 0.9159
C6 C 0.9825(6) 1.1011(3) 0.99707(17)
H4 H 1.1051 1.1024 0.9880
C7 C 0.5526(5) 0.9848(3) 0.92357(16)
C8 C 0.5373(4) 0.8761(2) 0.82363(15)
H5 H 0.4163 0.8619 0.8410
C9 C 0.6379(3) 0.7645(2) 0.81879(14)
H6 H 0.5821 0.7211 0.7829
C10 C 0.6144(4) 0.6992(2) 0.88196(14)
C11 C 0.7478(4) 0.6833(3) 0.92432(17)
H7 H 0.7202 0.6458 0.9636
C12 C 0.9388(5) 0.7194(4) 0.91537(17)
H8 H 1.0165 0.6556 0.9237
H9 H 0.9664 0.7760 0.9485
C13 C 0.9818(4) 0.7658(3) 0.84780(16)
H10 H 1.0768 0.8227 0.8473
C14 C 0.8334(4) 0.7852(3) 0.79932(15)
H11 H 0.8503 0.8524 0.7720
C15 C 0.5216(5) 0.9431(3) 0.76048(18)
H12 H 0.4557 1.0107 0.7691
H13 H 0.4594 0.8996 0.7275
H14 H 0.6396 0.9616 0.7445
C16 C 0.4289(5) 0.6554(3) 0.89526(19)
H15 H 0.4281 0.6155 0.9367
H16 H 0.3938 0.6058 0.8600
H17 H 0.3459 0.7170 0.8976
C17 C 0.9709(4) 0.6958(3) 0.78648(17)
C18 C 1.1046(5) 0.7214(4) 0.7316(2)
H18 H 1.1309 0.8002 0.7315
H19 H 1.0542 0.7003 0.6895
H20 H 1.2133 0.6799 0.7392
C19 C 0.9251(5) 0.5730(3) 0.7914(2)
H21 H 0.8405 0.5617 0.8268
H22 H 1.0325 0.5309 0.8003
H23 H 0.8733 0.5482 0.7502
loop_
_geom_bond_atom_site_label_1
_geom_bond_atom_site_label_2
_geom_bond_site_symmetry_1
_geom_bond_site_symmetry_2
N1 O3 1_555 1_555
O1 C7 1_555 1_555
O2 C7 1_555 1_555
O4 N1 1_555 1_555
C1 N1 1_555 1_555
C2 C1 1_555 1_555
H1 C2 1_555 1_555
C3 C2 1_555 1_555
H2 C3 1_555 1_555
C4 C3 1_555 1_555
C5 C4 1_555 1_555
H3 C5 1_555 1_555
C6 C1 1_555 1_555
H4 C6 1_555 1_555
C7 C4 1_555 1_555
C8 O2 1_555 1_555
H5 C8 1_555 1_555
C9 C8 1_555 1_555
H6 C9 1_555 1_555
C10 C9 1_555 1_555
C11 C10 1_555 1_555
H7 C11 1_555 1_555
C12 C11 1_555 1_555
H8 C12 1_555 1_555
H9 C12 1_555 1_555
C13 C12 1_555 1_555
H10 C13 1_555 1_555
C14 C9 1_555 1_555
H11 C14 1_555 1_555
C15 C8 1_555 1_555
H12 C15 1_555 1_555
H13 C15 1_555 1_555
H14 C15 1_555 1_555
C16 C10 1_555 1_555
H15 C16 1_555 1_555
H16 C16 1_555 1_555
H17 C16 1_555 1_555
C17 C13 1_555 1_555
C18 C17 1_555 1_555
H18 C18 1_555 1_555
H19 C18 1_555 1_555
H20 C18 1_555 1_555
C19 C17 1_555 1_555
H21 C19 1_555 1_555
H22 C19 1_555 1_555
H23 C19 1_555 1_555
C5 C6 1_555 1_555
C13 C14 1_555 1_555
C14 C17 1_555 1_555

#END
