
#######################################################################
#
#                 Cambridge Crystallographic Data Centre
#                                CCDC 
#
#######################################################################
#
# If this CIF has been generated from an entry in the Cambridge 
# Structural Database, then it will include bibliographic, chemical, 
# crystal, experimental, refinement or atomic coordinate data resulting 
# from the CCDC's data processing and validation procedures.
#
#######################################################################

data_KECCEC
_chemical_formula_moiety         'C19 H24 O2'
_chemical_name_systematic        
rac-(Z)-1-Phenyl-4,5,6,7,10,11,12,12a-octahydro-1H-benzo(c)oxecin-3(9H)-one
_symmetry_cell_setting           monoclinic
_symmetry_space_group_name_H-M   'P 21/c'
_symmetry_Int_Tables_number      14
_space_group_name_Hall           '-P 2ybc'
loop_
_symmetry_equiv_pos_site_id
_symmetry_equiv_pos_as_xyz
1 x,y,z
2 -x,1/2+y,1/2-z
3 -x,-y,-z
4 x,1/2-y,1/2+z
_cell_length_a                   7.523(14)
_cell_length_b                   21.35(4)
_cell_length_c                   9.745(17)
_cell_angle_alpha                90
_cell_angle_beta                 100.68(2)
_cell_angle_gamma                90
_cell_volume                     1538.09
_exptl_crystal_colour            colorless
_exptl_crystal_description       block
_cell_formula_units_Z            4
loop_
_atom_site_label
_atom_site_type_symbol
_atom_site_fract_x
_atom_site_fract_y
_atom_site_fract_z
O1 O 0.2104(2) 0.72904(6) 0.83826(15)
O2 O 0.24333(15) 0.62759(5) 0.88756(11)
C1 C 0.2399(2) 0.67696(8) 0.80437(19)
C2 C 0.2750(3) 0.65899(10) 0.66301(19)
H1 H 0.3387 0.6193 0.6701
H2 H 0.3525 0.6903 0.6321
C3 C 0.1039(3) 0.65333(12) 0.5561(2)
H3 H 0.1335 0.6618 0.4652
H4 H 0.0220 0.6861 0.5744
C4 C 0.0025(3) 0.59166(10) 0.5470(2)
H5 H 0.0827 0.5592 0.5247
H6 H -0.0982 0.5943 0.4691
C5 C -0.0716(3) 0.57027(10) 0.6745(2)
H7 H -0.1575 0.5366 0.6476
H8 H 0.0269 0.5540 0.7438
C6 C -0.1625(2) 0.62203(9) 0.73767(19)
H9 H -0.2488 0.6443 0.6759
C7 C -0.1377(2) 0.64072(8) 0.86949(17)
C8 C -0.0183(2) 0.60660(8) 0.98695(16)
H10 H -0.0080 0.5632 0.9568
C9 C 0.1731(2) 0.63450(7) 1.01627(16)
H11 H 0.1682 0.6789 1.0408
C10 C -0.2220(2) 0.70020(9) 0.90912(18)
H12 H -0.3162 0.7129 0.8323
H13 H -0.1307 0.7328 0.9230
C11 C -0.3029(3) 0.69473(11) 1.0402(2)
H14 H -0.3414 0.7358 1.0659
H15 H -0.4084 0.6678 1.0220
C12 C -0.1670(3) 0.66823(9) 1.15895(19)
H16 H -0.2219 0.6639 1.2410
H17 H -0.0648 0.6965 1.1815
C13 C -0.1030(2) 0.60516(9) 1.11841(18)
H18 H -0.2048 0.5765 1.1030
H19 H -0.0146 0.5890 1.1955
C14 C 0.3004(2) 0.60032(8) 1.12715(16)
C15 C 0.3674(2) 0.62840(9) 1.25324(18)
H20 H 0.3356 0.6695 1.2692
C16 C 0.4812(3) 0.59602(12) 1.3557(2)
H21 H 0.5240 0.6151 1.4412
C17 C 0.5318(3) 0.53616(12) 1.3331(2)
H22 H 0.6097 0.5146 1.4025
C18 C 0.4672(3) 0.50795(10) 1.2077(2)
H23 H 0.5020 0.4672 1.1914
C19 C 0.3515(3) 0.53957(8) 1.1062(2)
H24 H 0.3066 0.5198 1.0219
loop_
_geom_bond_atom_site_label_1
_geom_bond_atom_site_label_2
_geom_bond_site_symmetry_1
_geom_bond_site_symmetry_2
O1 C1 1_555 1_555
O2 C1 1_555 1_555
C1 C2 1_555 1_555
C2 H1 1_555 1_555
H2 C2 1_555 1_555
C3 C2 1_555 1_555
H3 C3 1_555 1_555
H4 C3 1_555 1_555
C4 C3 1_555 1_555
H5 C4 1_555 1_555
H6 C4 1_555 1_555
C5 C4 1_555 1_555
H7 C5 1_555 1_555
H8 C5 1_555 1_555
C6 C5 1_555 1_555
H9 C6 1_555 1_555
C7 C6 1_555 1_555
C8 C7 1_555 1_555
H10 C8 1_555 1_555
C9 O2 1_555 1_555
H11 C9 1_555 1_555
C10 C7 1_555 1_555
H12 C10 1_555 1_555
H13 C10 1_555 1_555
C11 C10 1_555 1_555
H14 C11 1_555 1_555
H15 C11 1_555 1_555
C12 C11 1_555 1_555
H16 C12 1_555 1_555
H17 C12 1_555 1_555
C13 C8 1_555 1_555
H18 C13 1_555 1_555
H19 C13 1_555 1_555
C14 C9 1_555 1_555
C15 C14 1_555 1_555
H20 C15 1_555 1_555
C16 C15 1_555 1_555
H21 C16 1_555 1_555
C17 C16 1_555 1_555
H22 C17 1_555 1_555
C18 C17 1_555 1_555
H23 C18 1_555 1_555
C19 C14 1_555 1_555
H24 C19 1_555 1_555
C8 C9 1_555 1_555
C12 C13 1_555 1_555
C18 C19 1_555 1_555

#END
