
#######################################################################
#
#                 Cambridge Crystallographic Data Centre
#                                CCDC 
#
#######################################################################
#
# If this CIF has been generated from an entry in the Cambridge 
# Structural Database, then it will include bibliographic, chemical, 
# crystal, experimental, refinement or atomic coordinate data resulting 
# from the CCDC's data processing and validation procedures.
#
#######################################################################

data_KECCIG
_chemical_formula_moiety         'C19 H25 N1 O4 S1'
_chemical_name_systematic        
'rac-syn-(E)-4-(2,4-Dimethylcyclohex-3-en-1-ylidene)pentan-2-yl 4-nitrobenzenesulfinate'
_symmetry_cell_setting           triclinic
_symmetry_space_group_name_H-M   'P -1'
_symmetry_Int_Tables_number      2
_space_group_name_Hall           '-P 1'
loop_
_symmetry_equiv_pos_site_id
_symmetry_equiv_pos_as_xyz
1 x,y,z
2 -x,-y,-z
_cell_length_a                   7.628(7)
_cell_length_b                   13.578(12)
_cell_length_c                   19.597(16)
_cell_angle_alpha                108.841(10)
_cell_angle_beta                 93.763(11)
_cell_angle_gamma                90.290(12)
_cell_volume                     1916.08
_exptl_crystal_colour            colorless
_exptl_crystal_description       block
_cell_formula_units_Z            4
loop_
_atom_site_label
_atom_site_type_symbol
_atom_site_fract_x
_atom_site_fract_y
_atom_site_fract_z
S1 S 0.84050(11) 0.99776(6) 0.36134(5)
N1 N 0.2053(4) 0.8136(3) 0.44374(15)
O1 O 0.8896(3) 0.90175(16) 0.29324(11)
O2 O 0.7700(4) 1.08214(17) 0.33771(14)
O3 O 0.0855(4) 0.8701(3) 0.46697(19)
O4 O 0.2070(5) 0.7199(2) 0.43641(18)
C1 C 0.6482(4) 0.9413(2) 0.38585(15)
C2 C 0.4947(4) 0.9962(2) 0.39418(17)
H1 H 0.4894 1.0601 0.3862
C3 C 0.3499(4) 0.9546(2) 0.41449(16)
H2 H 0.2455 0.9904 0.4214
C4 C 0.3624(4) 0.8595(2) 0.42438(15)
C5 C 0.5161(4) 0.8049(2) 0.41777(16)
H3 H 0.5207 0.7409 0.4256
C6 C 0.6609(4) 0.8472(2) 0.39940(16)
H4 H 0.7673 0.8134 0.3960
C7 C 0.7610(4) 0.8607(2) 0.23056(15)
H5 H 0.6445 0.8870 0.2443
C8 C 0.8166(5) 0.8994(3) 0.17113(19)
H6 H 0.8114 0.9740 0.1864
H7 H 0.7392 0.8700 0.1286
H8 H 0.9347 0.8790 0.1605
C9 C 0.7580(4) 0.7435(2) 0.21237(17)
H9 H 0.8762 0.7190 0.2034
H10 H 0.7229 0.7264 0.2540
C10 C 0.6361(4) 0.6860(2) 0.14758(16)
C11 C 0.7251(5) 0.6394(3) 0.07847(18)
H11 H 0.7667 0.5718 0.0762
H12 H 0.8225 0.6837 0.0773
H13 H 0.6428 0.6329 0.0379
C12 C 0.4631(4) 0.6760(2) 0.15162(15)
C13 C 0.3414(4) 0.6155(2) 0.08786(15)
H14 H 0.4123 0.5650 0.0539
C14 C 0.2018(4) 0.5549(2) 0.10959(17)
H15 H 0.1310 0.5081 0.0728
C15 C 0.1718(4) 0.5629(2) 0.17677(17)
C16 C 0.2716(4) 0.6393(2) 0.24003(16)
H16 H 0.3561 0.6025 0.2613
H17 H 0.1907 0.6724 0.2762
C17 C 0.3681(4) 0.7228(2) 0.21938(15)
H18 H 0.2844 0.7724 0.2117
H19 H 0.4522 0.7599 0.2587
C18 C 0.2579(5) 0.6860(3) 0.0477(2)
H20 H 0.1793 0.6451 0.0084
H21 H 0.3486 0.7174 0.0292
H22 H 0.1937 0.7394 0.0805
C19 C 0.0343(5) 0.4960(3) 0.1936(2)
H23 H -0.0546 0.5394 0.2196
H24 H 0.0879 0.4578 0.2226
H25 H -0.0182 0.4483 0.1493
S2 S 0.61285(11) 0.49666(6) 0.35829(5)
N2 N 1.2717(4) 0.3170(3) 0.44602(15)
O5 O 0.5395(3) 0.39952(16) 0.29050(11)
O6 O 0.6759(4) 0.58014(17) 0.33393(15)
O7 O 1.4004(4) 0.3738(3) 0.46854(19)
O8 O 1.2684(5) 0.2242(3) 0.43922(18)
C20 C 0.8116(4) 0.4411(2) 0.38414(15)
C21 C 0.8034(4) 0.3488(2) 0.39943(16)
H26 H 0.6958 0.3146 0.3964
C22 C 0.9537(4) 0.3084(2) 0.41895(16)
H27 H 0.9503 0.2453 0.4280
C23 C 1.1097(4) 0.3613(2) 0.42518(15)
C24 C 1.1212(4) 0.4553(3) 0.41349(17)
H28 H 1.2286 0.4911 0.4200
C25 C 0.9694(4) 0.4958(2) 0.39187(17)
H29 H 0.9734 0.5588 0.3827
C26 C 0.6466(4) 0.3572(2) 0.22774(15)
H30 H 0.7674 0.3852 0.2405
C27 C 0.5658(5) 0.3925(3) 0.16731(19)
H31 H 0.4446 0.3700 0.1575
H32 H 0.6277 0.3630 0.1246
H33 H 0.5738 0.4671 0.1814
C28 C 0.6454(4) 0.2413(2) 0.21237(16)
H34 H 0.5247 0.2151 0.2032
H35 H 0.6945 0.2268 0.2550
C29 C 0.7482(4) 0.1831(2) 0.14836(15)
C30 C 0.6352(4) 0.1311(3) 0.07978(18)
H36 H 0.7087 0.0960 0.0419
H37 H 0.5695 0.1828 0.0661
H38 H 0.5556 0.0816 0.0877
C31 C 0.9223(4) 0.1765(2) 0.15294(14)
C32 C 1.0253(4) 0.1156(2) 0.09057(15)
H39 H 0.9437 0.0640 0.0566
C33 C 1.1686(4) 0.0561(2) 0.11569(17)
H40 H 1.2269 0.0076 0.0801
C34 C 1.2184(4) 0.0669(2) 0.18336(17)
C35 C 1.1401(4) 0.1461(2) 0.24431(15)
H41 H 1.2331 0.1807 0.2804
H42 H 1.0612 0.1113 0.2666
C36 C 1.0396(4) 0.2270(2) 0.22089(15)
H43 H 0.9684 0.2659 0.2593
H44 H 1.1219 0.2755 0.2121
C37 C 1.0976(5) 0.1823(3) 0.04967(19)
H45 H 1.1694 0.2381 0.0824
H46 H 1.0021 0.2105 0.0282
H47 H 1.1672 0.1405 0.0125
C38 C 1.3553(5) 0.0002(3) 0.2036(2)
H48 H 1.3906 -0.0513 0.1607
H49 H 1.3074 -0.0336 0.2346
H50 H 1.4554 0.0430 0.2285
loop_
_geom_bond_atom_site_label_1
_geom_bond_atom_site_label_2
_geom_bond_site_symmetry_1
_geom_bond_site_symmetry_2
S1 O1 1_555 1_555
N1 O3 1_555 1_555
O1 C7 1_555 1_555
O2 S1 1_555 1_555
O4 N1 1_555 1_555
C1 S1 1_555 1_555
C2 C1 1_555 1_555
H1 C2 1_555 1_555
C3 C2 1_555 1_555
H2 C3 1_555 1_555
C4 N1 1_555 1_555
C5 C4 1_555 1_555
H3 C5 1_555 1_555
C6 C1 1_555 1_555
H4 C6 1_555 1_555
C7 H5 1_555 1_555
C8 C7 1_555 1_555
H6 C8 1_555 1_555
H7 C8 1_555 1_555
H8 C8 1_555 1_555
C9 C7 1_555 1_555
H9 C9 1_555 1_555
H10 C9 1_555 1_555
C10 C9 1_555 1_555
C11 C10 1_555 1_555
H11 C11 1_555 1_555
H12 C11 1_555 1_555
H13 C11 1_555 1_555
C12 C10 1_555 1_555
C13 C12 1_555 1_555
H14 C13 1_555 1_555
C14 C13 1_555 1_555
H15 C14 1_555 1_555
C15 C14 1_555 1_555
C16 C15 1_555 1_555
H16 C16 1_555 1_555
H17 C16 1_555 1_555
C17 C12 1_555 1_555
H18 C17 1_555 1_555
H19 C17 1_555 1_555
C18 C13 1_555 1_555
H20 C18 1_555 1_555
H21 C18 1_555 1_555
H22 C18 1_555 1_555
C19 C15 1_555 1_555
H23 C19 1_555 1_555
H24 C19 1_555 1_555
H25 C19 1_555 1_555
S2 O5 1_555 1_555
N2 O7 1_555 1_555
O5 C26 1_555 1_555
O6 S2 1_555 1_555
O8 N2 1_555 1_555
C20 S2 1_555 1_555
C21 C20 1_555 1_555
H26 C21 1_555 1_555
C22 C21 1_555 1_555
H27 C22 1_555 1_555
C23 N2 1_555 1_555
C24 C23 1_555 1_555
H28 C24 1_555 1_555
C25 C20 1_555 1_555
H29 C25 1_555 1_555
C26 H30 1_555 1_555
C27 C26 1_555 1_555
H31 C27 1_555 1_555
H32 C27 1_555 1_555
H33 C27 1_555 1_555
C28 C26 1_555 1_555
H34 C28 1_555 1_555
H35 C28 1_555 1_555
C29 C28 1_555 1_555
C30 C29 1_555 1_555
H36 C30 1_555 1_555
H37 C30 1_555 1_555
H38 C30 1_555 1_555
C31 C29 1_555 1_555
C32 C31 1_555 1_555
H39 C32 1_555 1_555
C33 C32 1_555 1_555
H40 C33 1_555 1_555
C34 C33 1_555 1_555
C35 C34 1_555 1_555
H41 C35 1_555 1_555
H42 C35 1_555 1_555
C36 C31 1_555 1_555
H43 C36 1_555 1_555
H44 C36 1_555 1_555
C37 C32 1_555 1_555
H45 C37 1_555 1_555
H46 C37 1_555 1_555
H47 C37 1_555 1_555
C38 C34 1_555 1_555
H48 C38 1_555 1_555
H49 C38 1_555 1_555
H50 C38 1_555 1_555
C3 C4 1_555 1_555
C5 C6 1_555 1_555
C16 C17 1_555 1_555
C22 C23 1_555 1_555
C24 C25 1_555 1_555
C35 C36 1_555 1_555

#END
