
#######################################################################
#
#                 Cambridge Crystallographic Data Centre
#                                CCDC 
#
#######################################################################
#
# If this CIF has been generated from an entry in the Cambridge 
# Structural Database, then it will include bibliographic, chemical, 
# crystal, experimental, refinement or atomic coordinate data resulting 
# from the CCDC's data processing and validation procedures.
#
#######################################################################

data_KECDUT
_chemical_name_common            
'18-Ethoxy-8,9-dimethoxy-6,11,16-triphenyl-19-oxa-28,29,30,31-tetra-azaheptacyclo[15.9.2.1$2,5!.1$7,10!.1$12,15!.0$20,27!.0$21,26!]hentriaconta-1,3,5,7(30),10,12,14,16,21,23,25,27-dodecaene methanol dichloromethane solvate'
_chemical_formula_moiety         'C48 H40 N4 O4,0.63(C1 H4 O1),0.37(C1 H2 Cl2)'
_chemical_name_systematic        
'meso-Tetraphenyl-bis(dimethoxymorpholino)bacteriochlorin methanol dichloromethane solvate'
_symmetry_cell_setting           triclinic
_symmetry_space_group_name_H-M   'P -1'
_symmetry_Int_Tables_number      2
_space_group_name_Hall           '-P 1'
loop_
_symmetry_equiv_pos_site_id
_symmetry_equiv_pos_as_xyz
1 x,y,z
2 -x,-y,-z
_cell_length_a                   10.827(2)
_cell_length_b                   13.444(3)
_cell_length_c                   14.202(3)
_cell_angle_alpha                85.112(4)
_cell_angle_beta                 73.656(3)
_cell_angle_gamma                87.819(3)
_cell_volume                     1976.25
_exptl_crystal_colour            red
_exptl_crystal_description       prism
_cell_formula_units_Z            2
loop_
_atom_site_label
_atom_site_type_symbol
_atom_site_fract_x
_atom_site_fract_y
_atom_site_fract_z
C49 C 0.389(3) 0.6989(11) 0.8871(11)
H39 H 0.3376 0.7568 0.8732
H40 H 0.4548 0.6835 0.8266
H41 H 0.4315 0.7141 0.9368
O1 O 0.3075(4) 0.6146(3) 0.9234(4)
H42 H 0.2330 0.6345 0.9522
C1 C 0.9175(2) 0.15596(16) 0.06787(16)
C2 C 1.0111(2) 0.22616(16) -0.00191(16)
H1 H 1.0990 0.2142 0.0069
C3 C 1.0100(2) 0.19945(17) -0.10128(16)
C4 C 1.0774(2) 0.24045(17) -0.19251(17)
H2 H 1.1245 0.3000 -0.1988
C5 C 1.0754(2) 0.19311(18) -0.27542(17)
H3 H 1.1190 0.2215 -0.3392
C6 C 1.0100(2) 0.10477(18) -0.26494(17)
H4 H 1.0119 0.0719 -0.3219
C7 C 0.9417(2) 0.06298(17) -0.17327(17)
H5 H 0.8986 0.0015 -0.1670
C8 C 0.9379(2) 0.11290(17) -0.09075(16)
C9 C 0.8748(2) 0.08760(16) 0.01464(16)
C10 C 0.7789(2) 0.01592(16) 0.04870(16)
C11 C 0.7043(2) -0.02640(18) -0.00484(17)
H6 H 0.7105 -0.0110 -0.0725
C12 C 0.6220(2) -0.09295(18) 0.05748(17)
H7 H 0.5614 -0.1321 0.0405
C13 C 0.6421(2) -0.09392(16) 0.15149(16)
C14 C 0.5822(2) -0.15473(16) 0.23543(16)
C15 C 0.5988(2) -0.14831(16) 0.32813(16)
C16 C 0.5363(2) -0.21827(16) 0.41631(17)
H8 H 0.4421 -0.2024 0.4393
C17 C 0.6022(2) -0.18983(16) 0.49323(16)
H9 H 0.5380 -0.1814 0.5583
C18 C 0.6635(2) -0.09140(16) 0.44694(16)
C19 C 0.7164(2) -0.03020(16) 0.49892(16)
C20 C 0.7724(2) 0.06400(16) 0.46536(16)
C21 C 0.8087(2) 0.13100(16) 0.52375(16)
H10 H 0.8071 0.1176 0.5908
C22 C 0.8464(2) 0.21786(17) 0.46842(16)
H11 H 0.8727 0.2760 0.4908
C23 C 0.8397(2) 0.20684(16) 0.37142(16)
C24 C 0.8835(2) 0.27594(16) 0.28966(16)
C25 C 0.9077(2) 0.25654(16) 0.19166(16)
C26 C 0.9765(2) 0.33862(17) 0.11580(16)
H12 H 0.9365 0.4045 0.1361
C27 C 0.4912(2) -0.22931(17) 0.22106(17)
C28 C 0.5332(3) -0.32390(19) 0.1925(2)
H13 H 0.6212 -0.3424 0.1825
C29 C 0.4479(3) -0.3915(2) 0.1784(2)
H14 H 0.4774 -0.4561 0.1590
C30 C 0.3194(3) -0.3648(2) 0.1927(2)
H15 H 0.2607 -0.4114 0.1838
C31 C 0.2768(3) -0.2708(2) 0.2198(2)
H16 H 0.1888 -0.2524 0.2291
C32 C 0.3629(2) -0.20316(19) 0.23345(18)
H17 H 0.3335 -0.1381 0.2515
C33 C 0.4404(3) -0.37682(19) 0.4342(2)
H18 H 0.4066 -0.3712 0.5052
H19 H 0.4604 -0.4470 0.4216
H20 H 0.3757 -0.3517 0.4014
C34 C 0.6627(3) -0.33043(19) 0.58258(19)
H21 H 0.6376 -0.2980 0.6445
H22 H 0.7339 -0.3776 0.5829
H23 H 0.5892 -0.3664 0.5755
C35 C 0.7123(2) -0.06569(16) 0.60243(16)
C36 C 0.5986(2) -0.06443(17) 0.67773(17)
H24 H 0.5223 -0.0376 0.6644
C37 C 0.5953(2) -0.10188(18) 0.77215(18)
H25 H 0.5172 -0.0993 0.8235
C38 C 0.7046(3) -0.14291(17) 0.79217(18)
H26 H 0.7012 -0.1711 0.8565
C39 C 0.8186(2) -0.14276(18) 0.71845(18)
H27 H 0.8947 -0.1693 0.7324
C40 C 0.8231(2) -0.10416(17) 0.62393(17)
H28 H 0.9024 -0.1040 0.5735
C41 C 0.9104(2) 0.37737(16) 0.31615(16)
C42 C 0.8138(2) 0.44956(17) 0.33209(17)
H29 H 0.7336 0.4361 0.3212
C43 C 0.8322(3) 0.54128(18) 0.36374(18)
H30 H 0.7651 0.5902 0.3744
C44 C 0.9480(3) 0.56104(18) 0.37961(19)
H31 H 0.9607 0.6234 0.4021
C45 C 1.0456(3) 0.49036(18) 0.36280(19)
H32 H 1.1259 0.5046 0.3730
C46 C 1.0278(2) 0.39873(18) 0.33117(18)
H33 H 1.0958 0.3505 0.3197
C47 C 1.1748(3) 0.4241(2) 0.0673(2)
H34 H 1.1367 0.4851 0.0991
H35 H 1.1719 0.4310 -0.0020
C48 C 1.3111(3) 0.4096(2) 0.0718(2)
H36 H 1.3124 0.4008 0.1407
H37 H 1.3613 0.4682 0.0393
H38 H 1.3485 0.3502 0.0382
N1 N 0.87288(17) 0.16997(13) 0.16405(13)
N2 N 0.73504(17) -0.02481(13) 0.14370(13)
H45 H 0.7627 -0.0088 0.1930
N3 N 0.66402(17) -0.07482(13) 0.35187(13)
N4 N 0.79378(17) 0.11182(13) 0.37296(13)
H46 H 0.7802 0.0858 0.3220
O2 O 0.96851(15) 0.32613(11) 0.01971(11)
O3 O 0.55411(15) -0.31976(11) 0.39708(12)
O4 O 0.70239(15) -0.25727(11) 0.50282(11)
O5 O 1.10474(15) 0.33745(12) 0.11850(12)
C50? C 0.396(5) 0.716(2) 0.853(2)
H43? H 0.4869 0.7288 0.8169
H44? H 0.3420 0.7655 0.8264
Cl1? Cl 0.37383(19) 0.73305(17) 0.97592(15)
Cl2? Cl 0.3571(2) 0.59692(16) 0.83244(19)
loop_
_geom_bond_atom_site_label_1
_geom_bond_atom_site_label_2
_geom_bond_site_symmetry_1
_geom_bond_site_symmetry_2
C1 C2 1_555 1_555
C2 H1 1_555 1_555
C3 C2 1_555 1_555
C4 C3 1_555 1_555
H2 C4 1_555 1_555
C5 C4 1_555 1_555
H3 C5 1_555 1_555
C6 C5 1_555 1_555
H4 C6 1_555 1_555
C7 C6 1_555 1_555
H5 C7 1_555 1_555
C8 C3 1_555 1_555
C9 C1 1_555 1_555
C10 C9 1_555 1_555
C11 C10 1_555 1_555
H6 C11 1_555 1_555
C12 C11 1_555 1_555
H7 C12 1_555 1_555
C13 C12 1_555 1_555
C14 C13 1_555 1_555
C15 C14 1_555 1_555
C16 C15 1_555 1_555
H8 C16 1_555 1_555
C17 C16 1_555 1_555
H9 C17 1_555 1_555
C18 C17 1_555 1_555
C19 C18 1_555 1_555
C20 C19 1_555 1_555
C21 C20 1_555 1_555
H10 C21 1_555 1_555
C22 C21 1_555 1_555
H11 C22 1_555 1_555
C23 C22 1_555 1_555
C24 C23 1_555 1_555
C25 C24 1_555 1_555
C26 C25 1_555 1_555
H12 C26 1_555 1_555
C27 C14 1_555 1_555
C28 C27 1_555 1_555
H13 C28 1_555 1_555
C29 C28 1_555 1_555
H14 C29 1_555 1_555
C30 C29 1_555 1_555
H15 C30 1_555 1_555
C31 C30 1_555 1_555
H16 C31 1_555 1_555
C32 C27 1_555 1_555
H17 C32 1_555 1_555
C33 H18 1_555 1_555
H19 C33 1_555 1_555
H20 C33 1_555 1_555
C34 H21 1_555 1_555
H22 C34 1_555 1_555
H23 C34 1_555 1_555
C35 C19 1_555 1_555
C36 C35 1_555 1_555
H24 C36 1_555 1_555
C37 C36 1_555 1_555
H25 C37 1_555 1_555
C38 C37 1_555 1_555
H26 C38 1_555 1_555
C39 C38 1_555 1_555
H27 C39 1_555 1_555
C40 C35 1_555 1_555
H28 C40 1_555 1_555
C41 C24 1_555 1_555
C42 C41 1_555 1_555
H29 C42 1_555 1_555
C43 C42 1_555 1_555
H30 C43 1_555 1_555
C44 C43 1_555 1_555
H31 C44 1_555 1_555
C45 C44 1_555 1_555
H32 C45 1_555 1_555
C46 C41 1_555 1_555
H33 C46 1_555 1_555
C47 H34 1_555 1_555
H35 C47 1_555 1_555
C48 C47 1_555 1_555
H36 C48 1_555 1_555
H37 C48 1_555 1_555
H38 C48 1_555 1_555
C49 H39 1_555 1_555
H40 C49 1_555 1_555
H41 C49 1_555 1_555
O1 C49 1_555 1_555
H42 O1 1_555 1_555
N1 C1 1_555 1_555
N2 C10 1_555 1_555
H45 N2 1_555 1_555
N3 C15 1_555 1_555
N4 C20 1_555 1_555
H46 N4 1_555 1_555
O2 C2 1_555 1_555
O3 C16 1_555 1_555
O4 C17 1_555 1_555
O5 C26 1_555 1_555
C7 C8 1_555 1_555
C8 C9 1_555 1_555
C13 N2 1_555 1_555
C18 N3 1_555 1_555
C23 N4 1_555 1_555
C25 N1 1_555 1_555
C26 O2 1_555 1_555
C31 C32 1_555 1_555
C33 O3 1_555 1_555
C34 O4 1_555 1_555
C39 C40 1_555 1_555
C45 C46 1_555 1_555
C47 O5 1_555 1_555

#END
