
#######################################################################
#
#                 Cambridge Crystallographic Data Centre
#                                CCDC 
#
#######################################################################
#
# If this CIF has been generated from an entry in the Cambridge 
# Structural Database, then it will include bibliographic, chemical, 
# crystal, experimental, refinement or atomic coordinate data resulting 
# from the CCDC's data processing and validation procedures.
#
#######################################################################

data_KECDAZ
_chemical_formula_moiety         'C18 H22 N2 O2 S1'
_chemical_name_systematic        
2,4-Dimethyl-1-((4-methylphenyl)sulfonyl)-2,3,4,5-tetrahydro-1H-1,5-benzodiazepine
_symmetry_cell_setting           orthorhombic
_symmetry_space_group_name_H-M   'P 21 21 21'
_symmetry_Int_Tables_number      19
_space_group_name_Hall           'P 2ac 2ab'
loop_
_symmetry_equiv_pos_site_id
_symmetry_equiv_pos_as_xyz
1 x,y,z
2 1/2-x,-y,1/2+z
3 -x,1/2+y,1/2-z
4 1/2+x,1/2-y,-z
_cell_length_a                   9.816(3)
_cell_length_b                   12.919(4)
_cell_length_c                   13.173(4)
_cell_angle_alpha                90
_cell_angle_beta                 90
_cell_angle_gamma                90
_cell_volume                     1670.51
_exptl_crystal_colour            yellow
_exptl_crystal_description       plate
_cell_formula_units_Z            4
loop_
_atom_site_label
_atom_site_type_symbol
_atom_site_fract_x
_atom_site_fract_y
_atom_site_fract_z
S1 S 0.97212(6) 0.54147(6) 0.24449(5)
O1 O 0.91931(19) 0.4684(2) 0.31657(14)
O2 O 1.08892(18) 0.60234(19) 0.27108(15)
N1 N 0.8504(2) 0.6224(2) 0.21614(16)
N2 N 0.7545(2) 0.6006(2) 0.00785(16)
H1 H 0.7805 0.5571 -0.0398
C1 C 1.0823(3) 0.3486(3) -0.0325(2)
C2 C 0.8829(3) 0.7301(3) 0.1846(2)
H2 H 0.9686 0.7506 0.2204
C3 C 0.9093(3) 0.7397(3) 0.0709(2)
H3 H 0.9360 0.8121 0.0564
H4 H 0.9880 0.6952 0.0536
C4 C 0.7920(3) 0.7113(3) 0.0013(2)
H5 H 0.7109 0.7540 0.0203
C5 C 0.6774(2) 0.5655(2) 0.09012(19)
C6 C 0.7191(2) 0.5776(2) 0.1909(2)
C7 C 0.6368(3) 0.5447(3) 0.27011(19)
H6 H 0.6638 0.5575 0.3382
C8 C 0.5149(3) 0.4933(3) 0.2508(2)
H7 H 0.4590 0.4703 0.3052
C9 C 0.4765(3) 0.4764(3) 0.1512(2)
H8 H 0.3949 0.4395 0.1372
C10 C 0.5548(2) 0.5121(3) 0.0725(2)
H9 H 0.5257 0.5005 0.0046
C11 C 0.7693(3) 0.8007(3) 0.2237(2)
H10 H 0.6824 0.7798 0.1933
H11 H 0.7895 0.8725 0.2051
H12 H 0.7633 0.7949 0.2977
C12 C 0.8291(3) 0.7342(3) -0.1098(2)
H13 H 0.9042 0.6890 -0.1309
H14 H 0.8572 0.8067 -0.1163
H15 H 0.7497 0.7214 -0.1531
C13 C 1.0133(2) 0.4677(2) 0.13568(18)
C14 C 0.9389(3) 0.3801(3) 0.1140(2)
H16 H 0.8650 0.3602 0.1563
C15 C 0.9729(3) 0.3213(3) 0.0301(2)
H17 H 0.9209 0.2613 0.0146
C16 C 1.1189(3) 0.2818(3) -0.1219(2)
H18 H 1.1468 0.2132 -0.0980
H19 H 1.1942 0.3138 -0.1594
H20 H 1.0397 0.2750 -0.1666
C17 C 1.1549(3) 0.4366(3) -0.0088(2)
H21 H 1.2297 0.4560 -0.0504
C18 C 1.1219(3) 0.4973(3) 0.0738(2)
H22 H 1.1723 0.5583 0.0883
loop_
_geom_bond_atom_site_label_1
_geom_bond_atom_site_label_2
_geom_bond_site_symmetry_1
_geom_bond_site_symmetry_2
S1 O1 1_555 1_555
O2 S1 1_555 1_555
N1 S1 1_555 1_555
N2 H1 1_555 1_555
C1 C15 1_555 1_555
C2 N1 1_555 1_555
H2 C2 1_555 1_555
C3 C2 1_555 1_555
H3 C3 1_555 1_555
H4 C3 1_555 1_555
C4 N2 1_555 1_555
H5 C4 1_555 1_555
C5 N2 1_555 1_555
C6 N1 1_555 1_555
C7 C6 1_555 1_555
H6 C7 1_555 1_555
C8 C7 1_555 1_555
H7 C8 1_555 1_555
C9 C8 1_555 1_555
H8 C9 1_555 1_555
C10 C5 1_555 1_555
H9 C10 1_555 1_555
C11 C2 1_555 1_555
H10 C11 1_555 1_555
H11 C11 1_555 1_555
H12 C11 1_555 1_555
C12 C4 1_555 1_555
H13 C12 1_555 1_555
H14 C12 1_555 1_555
H15 C12 1_555 1_555
C13 S1 1_555 1_555
C14 C13 1_555 1_555
H16 C14 1_555 1_555
C15 C14 1_555 1_555
H17 C15 1_555 1_555
C16 C1 1_555 1_555
H18 C16 1_555 1_555
H19 C16 1_555 1_555
H20 C16 1_555 1_555
C17 C1 1_555 1_555
H21 C17 1_555 1_555
C18 C13 1_555 1_555
H22 C18 1_555 1_555
C3 C4 1_555 1_555
C5 C6 1_555 1_555
C9 C10 1_555 1_555
C17 C18 1_555 1_555

#END
