
#######################################################################
#
#                 Cambridge Crystallographic Data Centre
#                                CCDC 
#
#######################################################################
#
# If this CIF has been generated from an entry in the Cambridge 
# Structural Database, then it will include bibliographic, chemical, 
# crystal, experimental, refinement or atomic coordinate data resulting 
# from the CCDC's data processing and validation procedures.
#
#######################################################################

data_KECFAC
_chemical_formula_moiety         'C16 H22 N2 O2 S1,0.5(C6 H6)'
_chemical_name_systematic        
'4-t-butyl-1-(pyridin-2-ylsulfonyl)cyclohexanecarbonitrile benzene solvate'
_symmetry_cell_setting           monoclinic
_symmetry_space_group_name_H-M   'P 21/n'
_symmetry_Int_Tables_number      14
_space_group_name_Hall           '-P 2yn'
loop_
_symmetry_equiv_pos_site_id
_symmetry_equiv_pos_as_xyz
1 x,y,z
2 1/2-x,1/2+y,1/2-z
3 -x,-y,-z
4 1/2+x,1/2-y,1/2+z
_cell_length_a                   14.4479(13)
_cell_length_b                   6.1574(5)
_cell_length_c                   21.1686(19)
_cell_angle_alpha                90
_cell_angle_beta                 105.062(2)
_cell_angle_gamma                90
_cell_volume                     1818.49
_exptl_crystal_colour            colorless
_exptl_crystal_description       Bar
_cell_formula_units_Z            4
_exptl_crystal_recrystallization_method benzene/pentane
loop_
_atom_site_label
_atom_site_type_symbol
_atom_site_fract_x
_atom_site_fract_y
_atom_site_fract_z
S1 S 0.03182(2) 0.34812(4) 0.37540(2)
O1 O -0.01833(6) 0.50450(14) 0.40473(4)
O2 O -0.01640(6) 0.15234(13) 0.34775(4)
N1 N 0.11642(7) 0.35841(15) 0.27882(5)
N2 N 0.25031(8) 0.01230(18) 0.39447(5)
C1 C 0.07445(8) 0.48593(18) 0.31436(5)
C2 C 0.06075(9) 0.70728(19) 0.30669(6)
H1 H 0.0298 0.7882 0.3335
C3 C 0.09434(9) 0.80646(19) 0.25779(6)
H2 H 0.0872 0.9585 0.2505
C4 C 0.13820(8) 0.67999(19) 0.22017(6)
H3 H 0.1618 0.7440 0.1866
C5 C 0.14745(8) 0.45760(19) 0.23195(6)
H4 H 0.1772 0.3722 0.2054
C6 C 0.19962(8) 0.12676(18) 0.41175(5)
C7 C 0.13800(7) 0.26857(17) 0.43963(5)
C8 C 0.19360(8) 0.46931(17) 0.47257(5)
H5 H 0.2219 0.5457 0.4409
H6 H 0.1490 0.5705 0.4860
C9 C 0.27351(8) 0.40317(18) 0.53270(5)
H7 H 0.3067 0.5352 0.5538
H8 H 0.3210 0.3126 0.5185
C10 C 0.23464(8) 0.27581(18) 0.58269(5)
H9 H 0.1865 0.3716 0.5953
C11 C 0.18005(8) 0.07537(18) 0.54925(5)
H10 H 0.2252 -0.0232 0.5354
H11 H 0.1528 -0.0038 0.5810
C12 C 0.09913(8) 0.13751(18) 0.48957(5)
H12 H 0.0509 0.2255 0.5038
H13 H 0.0672 0.0042 0.4684
C13 C 0.31228(8) 0.22137(19) 0.64682(5)
C14 C 0.36204(9) 0.4315(2) 0.67705(6)
H14 H 0.4022 0.4870 0.6498
H15 H 0.4021 0.4012 0.7211
H16 H 0.3135 0.5402 0.6795
C15 C 0.26351(9) 0.1195(2) 0.69623(6)
H17 H 0.2120 0.2151 0.7018
H18 H 0.3108 0.1007 0.7384
H19 H 0.2367 -0.0222 0.6800
C16 C 0.38826(9) 0.0638(2) 0.63514(6)
H20 H 0.3575 -0.0725 0.6171
H21 H 0.4356 0.0347 0.6767
H22 H 0.4203 0.1285 0.6042
C17 C 0.55866(9) 0.4601(2) 0.56190(6)
H23 H 0.5988 0.4327 0.6044
C18 C 0.51440(9) 0.6606(2) 0.54759(6)
H24 H 0.5244 0.7705 0.5802
C19 C 0.45545(9) 0.7006(2) 0.48559(6)
H25 H 0.4249 0.8376 0.4757
C17B C 0.44134(9) 0.5399(2) 0.43810(6)
H23B H 0.4012 0.5673 0.3956
C18B C 0.48560(9) 0.3394(2) 0.45241(6)
H24B H 0.4756 0.2295 0.4198
C19B C 0.54455(9) 0.2994(2) 0.51441(6)
H25B H 0.5751 0.1624 0.5243
loop_
_geom_bond_atom_site_label_1
_geom_bond_atom_site_label_2
_geom_bond_site_symmetry_1
_geom_bond_site_symmetry_2
S1 O1 1_555 1_555
O2 S1 1_555 1_555
N1 C1 1_555 1_555
N2 C6 1_555 1_555
C1 S1 1_555 1_555
C2 C1 1_555 1_555
H1 C2 1_555 1_555
C3 C2 1_555 1_555
H2 C3 1_555 1_555
C4 C3 1_555 1_555
H3 C4 1_555 1_555
C5 N1 1_555 1_555
H4 C5 1_555 1_555
C6 C7 1_555 1_555
C7 S1 1_555 1_555
C8 C7 1_555 1_555
H5 C8 1_555 1_555
H6 C8 1_555 1_555
C9 C8 1_555 1_555
H7 C9 1_555 1_555
H8 C9 1_555 1_555
C10 C9 1_555 1_555
H9 C10 1_555 1_555
C11 C10 1_555 1_555
H10 C11 1_555 1_555
H11 C11 1_555 1_555
C12 C7 1_555 1_555
H12 C12 1_555 1_555
H13 C12 1_555 1_555
C13 C10 1_555 1_555
C14 C13 1_555 1_555
H14 C14 1_555 1_555
H15 C14 1_555 1_555
H16 C14 1_555 1_555
C15 C13 1_555 1_555
H17 C15 1_555 1_555
H18 C15 1_555 1_555
H19 C15 1_555 1_555
C16 C13 1_555 1_555
H20 C16 1_555 1_555
H21 C16 1_555 1_555
H22 C16 1_555 1_555
C17 H23 1_555 1_555
C18 C17 1_555 1_555
H24 C18 1_555 1_555
C19 C18 1_555 1_555
H25 C19 1_555 1_555
C17B C19 1_555 1_555
H23B C17B 1_555 1_555
C18B C17B 1_555 1_555
H24B C18B 1_555 1_555
C19B C17 1_555 1_555
H25B C19B 1_555 1_555
C4 C5 1_555 1_555
C11 C12 1_555 1_555
C18B C19B 1_555 1_555

#END
