
#######################################################################
#
#                 Cambridge Crystallographic Data Centre
#                                CCDC 
#
#######################################################################
#
# If this CIF has been generated from an entry in the Cambridge 
# Structural Database, then it will include bibliographic, chemical, 
# crystal, experimental, refinement or atomic coordinate data resulting 
# from the CCDC's data processing and validation procedures.
#
#######################################################################

data_KECFAB
_chemical_name_common            
9,11,20,22-Tetramethoxy-2,7,13,18-tetraphenyl-10,21-dioxa-23,24,25,26-tetra-azapentacyclo[17.3.1.1$3,6!.1$8,12!.1$14,17!]hexacosa-1(23),2,4,6,8(25),12,14,16,18-nonaene
_chemical_formula_moiety         'C48 H42 N4 O6'
_chemical_name_systematic        
meso-Tetraphenyl-bis(dimethoxymorpholino)bacteriochlorin
_symmetry_cell_setting           tetragonal
_symmetry_space_group_name_H-M   'P 42 21 2'
_symmetry_Int_Tables_number      94
_space_group_name_Hall           'P 4n 2n'
loop_
_symmetry_equiv_pos_site_id
_symmetry_equiv_pos_as_xyz
1 x,y,z
2 -x,-y,z
3 1/2-y,1/2+x,1/2+z
4 1/2+y,1/2-x,1/2+z
5 1/2-x,1/2+y,1/2-z
6 1/2+x,1/2-y,1/2-z
7 y,x,-z
8 -y,-x,-z
_cell_length_a                   11.5911(13)
_cell_length_b                   11.5911(13)
_cell_length_c                   14.549(3)
_cell_angle_alpha                90
_cell_angle_beta                 90
_cell_angle_gamma                90
_cell_volume                     1954.71
_exptl_crystal_colour            black
_exptl_crystal_description       needle
_cell_formula_units_Z            2
loop_
_atom_site_label
_atom_site_type_symbol
_atom_site_fract_x
_atom_site_fract_y
_atom_site_fract_z
C1 C 0.4502(4) 0.4684(4) 1.2852(2)
H1 H 0.4091 0.4436 1.3381
C2 C 0.4187(3) 0.4459(3) 1.1920(2)
C3 C 0.3235(3) 0.3808(3) 1.1638(3)
C4 C 0.2993(3) 0.3442(3) 1.0741(3)
C5 C 0.2457(4) 0.3412(3) 1.2400(3)
C6 C 0.2750(4) 0.2446(4) 1.2900(3)
H2 H 0.3438 0.2038 1.2757
C7 C 0.2047(4) 0.2060(4) 1.3614(3)
H3 H 0.2267 0.1408 1.3968
C8 C 0.1034(4) 0.2628(4) 1.3803(3)
H4 H 0.0548 0.2362 1.4285
C9 C 0.0724(4) 0.3577(4) 1.3299(3)
H5 H 0.0021 0.3965 1.3431
C10 C 0.1432(4) 0.3976(4) 1.2594(3)
H6 H 0.1212 0.4634 1.2247
N1 N 0.5000 0.5000 1.1391(3)
H7 H 0.5000 0.5000 1.0786
N2 N 0.3660(3) 0.3660(3) 1.0000
C11 C 0.1956(18) 0.2658(12) 1.0657(12)
H8 H 0.1647 0.2461 1.1279
C12 C 0.2955(12) 0.1779(14) 0.9443(10)
H9 H 0.1504 0.2568 1.1131
O1 O 0.1164(8) 0.3378(9) 1.0175(7)
O2 O 0.2178(7) 0.1670(6) 1.0164(7)
O3 O 0.3914(8) 0.1058(8) 0.9612(7)
C13 C 0.0038(13) 0.2811(15) 1.0114(11)
H10 H -0.0367 0.2888 1.0701
H11 H 0.0147 0.1991 0.9972
H12 H -0.0419 0.3173 0.9626
C14 C 0.3577(12) -0.0134(8) 0.9589(8)
H13 H 0.3158 -0.0291 0.9018
H14 H -0.0302 0.3078 0.9884
H15 H 0.4266 -0.0623 0.9618
C1A C 0.5498(4) 0.5316(4) 1.2852(2)
C1F C 0.4684(4) 0.4502(4) 0.7148(2)
C1G C 0.5316(4) 0.5498(4) 0.7148(2)
H1A H 0.5909 0.5564 1.3381
H1F H 0.4436 0.4091 0.6619
H1G H 0.5564 0.5909 0.6619
C2A C 0.5813(3) 0.5541(3) 1.1920(2)
C2F C 0.4459(3) 0.4187(3) 0.8080(2)
C2G C 0.5541(3) 0.5813(3) 0.8080(2)
C3A C 0.6765(3) 0.6192(3) 1.1638(3)
C3F C 0.3808(3) 0.3235(3) 0.8362(3)
C3G C 0.6192(3) 0.6765(3) 0.8362(3)
C4A C 0.7007(3) 0.6558(3) 1.0741(3)
C4F C 0.3442(3) 0.2993(3) 0.9259(3)
C4G C 0.6558(3) 0.7007(3) 0.9259(3)
C5A C 0.7543(4) 0.6588(3) 1.2400(3)
C5F C 0.3412(3) 0.2457(4) 0.7600(3)
C5G C 0.6588(3) 0.7543(4) 0.7600(3)
C6A C 0.7250(4) 0.7554(4) 1.2900(3)
C6F C 0.2446(4) 0.2750(4) 0.7100(3)
C6G C 0.7554(4) 0.7250(4) 0.7100(3)
H2A H 0.6562 0.7962 1.2757
H2F H 0.2038 0.3438 0.7243
H2G H 0.7962 0.6562 0.7243
C7A C 0.7953(4) 0.7940(4) 1.3614(3)
C7F C 0.2060(4) 0.2047(4) 0.6386(3)
C7G C 0.7940(4) 0.7953(4) 0.6386(3)
H3A H 0.7733 0.8592 1.3968
H3F H 0.1408 0.2267 0.6032
H3G H 0.8592 0.7733 0.6032
C8A C 0.8966(4) 0.7372(4) 1.3803(3)
C8F C 0.2628(4) 0.1034(4) 0.6197(3)
C8G C 0.7372(4) 0.8966(4) 0.6197(3)
H4A H 0.9452 0.7638 1.4285
H4F H 0.2362 0.0548 0.5715
H4G H 0.7638 0.9452 0.5715
C9A C 0.9276(4) 0.6423(4) 1.3299(3)
C9F C 0.3577(4) 0.0724(4) 0.6701(3)
C9G C 0.6423(4) 0.9276(4) 0.6701(3)
H5A H 0.9979 0.6035 1.3431
H5F H 0.3965 0.0021 0.6569
H5G H 0.6035 0.9979 0.6569
C10A C 0.8568(4) 0.6024(4) 1.2594(3)
C10F C 0.3976(4) 0.1432(4) 0.7406(3)
C10G C 0.6024(4) 0.8568(4) 0.7406(3)
H6A H 0.8788 0.5366 1.2247
H6F H 0.4634 0.1212 0.7753
H6G H 0.5366 0.8788 0.7753
N1F N 0.5000 0.5000 0.8609(3)
H7F H 0.5000 0.5000 0.9214
N2A N 0.6340(3) 0.6340(3) 1.0000
C11A C 0.8044(18) 0.7342(12) 1.0657(12)
C11F C 0.2658(12) 0.1956(18) 0.9343(12)
C11G C 0.7342(12) 0.8044(18) 0.9343(12)
H8A H 0.8353 0.7539 1.1279
H8F H 0.2461 0.1647 0.8721
H8G H 0.7539 0.8353 0.8721
C12A C 0.7045(12) 0.8221(14) 0.9443(10)
C12F C 0.1779(14) 0.2955(12) 1.0557(10)
C12G C 0.8221(14) 0.7045(12) 1.0557(10)
H9A H 0.8496 0.7432 1.1131
H9F H 0.2568 0.1504 0.8869
H9G H 0.7432 0.8496 0.8869
O1A O 0.8836(8) 0.6622(9) 1.0175(7)
O1F O 0.3378(9) 0.1164(8) 0.9825(7)
O1G O 0.6622(9) 0.8836(8) 0.9825(7)
O2A O 0.7822(7) 0.8330(6) 1.0164(7)
O2F O 0.1670(6) 0.2178(7) 0.9836(7)
O2G O 0.8330(6) 0.7822(7) 0.9836(7)
O3A O 0.6086(8) 0.8942(8) 0.9612(7)
O3F O 0.1058(8) 0.3914(8) 1.0388(7)
O3G O 0.8942(8) 0.6086(8) 1.0388(7)
C13A C 0.9962(13) 0.7189(15) 1.0114(11)
C13F C 0.2811(15) 0.0038(13) 0.9886(11)
C13G C 0.7189(15) 0.9962(13) 0.9886(11)
H10A H 1.0367 0.7112 1.0701
H10F H 0.2888 -0.0367 0.9299
H10G H 0.7112 1.0367 0.9299
H11A H 0.9853 0.8009 0.9972
H11F H 0.1991 0.0147 1.0028
H11G H 0.8009 0.9853 1.0028
H12A H 1.0419 0.6827 0.9626
H12F H 0.3173 -0.0419 1.0374
H12G H 0.6827 1.0419 1.0374
C14A C 0.6423(12) 1.0134(8) 0.9589(8)
C14F C -0.0134(8) 0.3577(12) 1.0411(8)
C14G C 1.0134(8) 0.6423(12) 1.0411(8)
H13A H 0.6842 1.0291 0.9018
H13F H -0.0291 0.3158 1.0982
H13G H 1.0291 0.6842 1.0982
H14A H 1.0302 0.6922 0.9884
H14F H 0.3078 -0.0302 1.0116
H14G H 0.6922 1.0302 1.0116
H15A H 0.5734 1.0623 0.9618
H15F H -0.0623 0.4266 1.0382
H15G H 1.0623 0.5734 1.0382
loop_
_geom_bond_atom_site_label_1
_geom_bond_atom_site_label_2
_geom_bond_site_symmetry_1
_geom_bond_site_symmetry_2
C1 H1 1_555 1_555
C2 C1 1_555 1_555
C3 C2 1_555 1_555
C4 C3 1_555 1_555
C5 C3 1_555 1_555
C6 C5 1_555 1_555
H2 C6 1_555 1_555
C7 C6 1_555 1_555
H3 C7 1_555 1_555
C8 C7 1_555 1_555
H4 C8 1_555 1_555
C9 C8 1_555 1_555
H5 C9 1_555 1_555
C10 C5 1_555 1_555
H6 C10 1_555 1_555
N1 C2 1_555 1_555
H7 N1 1_555 1_555
N2 C4 1_555 1_555
C11 C4 1_555 1_555
H8 C11 1_555 1_555
C12 O2 1_555 1_555
H9 C11 1_555 1_555
O1 C11 1_555 1_555
O2 C11 1_555 1_555
O3 C12 1_555 1_555
C13 O1 1_555 1_555
H10 C13 1_555 1_555
H11 C13 1_555 1_555
H12 C13 1_555 1_555
C14 O3 1_555 1_555
H13 C14 1_555 1_555
H14 C13 1_555 1_555
H15 C14 1_555 1_555
C1A C1 1_555 1_555
C1F C1G 1_555 1_555
C1G H1G 1_555 1_555
H1A C1A 1_555 1_555
H1F C1F 1_555 1_555
C2A N1 1_555 1_555
C2F C1F 1_555 1_555
C2G C1G 1_555 1_555
C3A C2A 1_555 1_555
C3F C2F 1_555 1_555
C3G C2G 1_555 1_555
C4A C3A 1_555 1_555
C4F N2 1_555 1_555
C4G C3G 1_555 1_555
C5A C3A 1_555 1_555
C5F C3F 1_555 1_555
C5G C3G 1_555 1_555
C6A C5A 1_555 1_555
C6F C5F 1_555 1_555
C6G C5G 1_555 1_555
H2A C6A 1_555 1_555
H2F C6F 1_555 1_555
H2G C6G 1_555 1_555
C7A C6A 1_555 1_555
C7F C6F 1_555 1_555
C7G C6G 1_555 1_555
H3A C7A 1_555 1_555
H3F C7F 1_555 1_555
H3G C7G 1_555 1_555
C8A C7A 1_555 1_555
C8F C7F 1_555 1_555
C8G C7G 1_555 1_555
H4A C8A 1_555 1_555
H4F C8F 1_555 1_555
H4G C8G 1_555 1_555
C9A C8A 1_555 1_555
C9F C8F 1_555 1_555
C9G C8G 1_555 1_555
H5A C9A 1_555 1_555
H5F C9F 1_555 1_555
H5G C9G 1_555 1_555
C10A C5A 1_555 1_555
C10F C5F 1_555 1_555
C10G C5G 1_555 1_555
H6A C10A 1_555 1_555
H6F C10F 1_555 1_555
H6G C10G 1_555 1_555
N1F C2F 1_555 1_555
H7F N1F 1_555 1_555
N2A C4A 1_555 1_555
C11A C4A 1_555 1_555
C11F O2 1_555 1_555
C11G C4G 1_555 1_555
H8A C11A 1_555 1_555
H8F C12 1_555 1_555
H8G C11G 1_555 1_555
C12A C4G 1_555 1_555
C12F C4 1_555 1_555
C12G C4A 1_555 1_555
H9A C11A 1_555 1_555
H9F C12 1_555 1_555
H9G C11G 1_555 1_555
O1A C11A 1_555 1_555
O1F C12 1_555 1_555
O1G C11G 1_555 1_555
O2A C11A 1_555 1_555
O2F C11 1_555 1_555
O2G C11A 1_555 1_555
O3A C12A 1_555 1_555
O3F O1 1_555 1_555
O3G C12G 1_555 1_555
C13A O1A 1_555 1_555
C13F C14 1_555 1_555
C13G O1G 1_555 1_555
H10A C13A 1_555 1_555
H10F C14 1_555 1_555
H10G C13G 1_555 1_555
H11A C13A 1_555 1_555
H11F C13F 1_555 1_555
H11G C13G 1_555 1_555
H12A C13A 1_555 1_555
H12F C14 1_555 1_555
H12G C13G 1_555 1_555
C14A O3A 1_555 1_555
C14F C13 1_555 1_555
C14G O3G 1_555 1_555
H13A C14A 1_555 1_555
H13F C14F 1_555 1_555
H13G C14G 1_555 1_555
H14A C13A 1_555 1_555
H14F C14 1_555 1_555
H14G C13G 1_555 1_555
H15A C14A 1_555 1_555
H15F C14F 1_555 1_555
H15G C14G 1_555 1_555
C9 C10 1_555 1_555
H8 C12F 1_555 1_555
C12 C4F 1_555 1_555
C12 O2F 1_555 1_555
H9 C12F 1_555 1_555
O1 C12F 1_555 1_555
O1 O2F 1_555 1_555
O2 C12F 1_555 1_555
O2 O1F 1_555 1_555
O2 O2F 1_555 1_555
O3 O1F 1_555 1_555
H10 C14F 1_555 1_555
H12 C14F 1_555 1_555
H14 C14F 1_555 1_555
C1A C2A 1_555 1_555
C2G N1F 1_555 1_555
C3F C4F 1_555 1_555
C4F C11F 1_555 1_555
C4G N2A 1_555 1_555
C9A C10A 1_555 1_555
C9F C10F 1_555 1_555
C9G C10G 1_555 1_555
C11F H8F 1_555 1_555
C11F H9F 1_555 1_555
C11F O1F 1_555 1_555
C11F O2F 1_555 1_555
C11G O2A 1_555 1_555
C11G O2G 1_555 1_555
H8A C12G 1_555 1_555
H8G C12A 1_555 1_555
C12A H9G 1_555 1_555
C12A O1G 1_555 1_555
C12A O2A 1_555 1_555
C12A O2G 1_555 1_555
C12F O2F 1_555 1_555
C12F O3F 1_555 1_555
C12G H9A 1_555 1_555
C12G O1A 1_555 1_555
C12G O2A 1_555 1_555
C12G O2G 1_555 1_555
O1A O2G 1_555 1_555
O1A O3G 1_555 1_555
O1F C13F 1_555 1_555
O1G O2A 1_555 1_555
O1G O3A 1_555 1_555
O2A O2G 1_555 1_555
O3F C14F 1_555 1_555
C13A C14G 1_555 1_555
C13F H10F 1_555 1_555
C13F H12F 1_555 1_555
C13F H14F 1_555 1_555
C13G C14A 1_555 1_555
H10A C14G 1_555 1_555
H10G C14A 1_555 1_555
H12A C14G 1_555 1_555
H12G C14A 1_555 1_555
C14A H14G 1_555 1_555
C14G H14A 1_555 1_555

#END
