
#######################################################################
#
#                 Cambridge Crystallographic Data Centre
#                                CCDC 
#
#######################################################################
#
# If this CIF has been generated from an entry in the Cambridge 
# Structural Database, then it will include bibliographic, chemical, 
# crystal, experimental, refinement or atomic coordinate data resulting 
# from the CCDC's data processing and validation procedures.
#
#######################################################################

data_KECGUW
_chemical_formula_moiety         'C19 H18 Br1 N1 O4'
_chemical_name_systematic        
'Methyl 3-(4-bromophenyl)-7-methoxy-2,2a,3,8a-tetrahydro-8bH-1-oxa-4-azacyclopenta[cd]azulene-8b-carboxylate'
_symmetry_cell_setting           monoclinic
_symmetry_space_group_name_H-M   'P 21/c'
_symmetry_Int_Tables_number      14
_space_group_name_Hall           '-P 2ybc'
loop_
_symmetry_equiv_pos_site_id
_symmetry_equiv_pos_as_xyz
1 x,y,z
2 -x,1/2+y,1/2-z
3 -x,-y,-z
4 x,1/2-y,1/2+z
_cell_length_a                   10.8531(6)
_cell_length_b                   10.2060(5)
_cell_length_c                   15.7080(8)
_cell_angle_alpha                90
_cell_angle_beta                 96.8129(9)
_cell_angle_gamma                90
_cell_volume                     1727.64
_exptl_crystal_colour            colorless
_exptl_crystal_description       prism
_cell_formula_units_Z            4
loop_
_atom_site_label
_atom_site_type_symbol
_atom_site_fract_x
_atom_site_fract_y
_atom_site_fract_z
Br1 Br 0.914959(18) 0.15612(2) 0.619397(14)
C1 C 0.77064(16) 0.20823(18) 0.54681(11)
C2 C 0.75840(17) 0.33811(19) 0.52087(12)
H1 H 0.822(2) 0.398(2) 0.5375(15)
C3 C 0.65247(17) 0.37574(18) 0.46776(12)
H2 H 0.644(2) 0.464(2) 0.4506(14)
C4 C 0.55966(16) 0.28538(16) 0.44056(10)
C5 C 0.57560(16) 0.15561(17) 0.46712(11)
H3 H 0.515(2) 0.096(2) 0.4488(13)
C6 C 0.68073(17) 0.11600(18) 0.52053(12)
H4 H 0.693(2) 0.028(2) 0.5386(14)
C7 C 0.44283(15) 0.32874(17) 0.38509(11)
H5 H 0.4043(18) 0.397(2) 0.4160(13)
C8 C 0.45712(16) 0.37895(17) 0.29366(11)
H6 H 0.4746(19) 0.471(2) 0.2928(13)
C9 C 0.54845(17) 0.3008(2) 0.24408(12)
H7 H 0.601(2) 0.360(2) 0.2162(14)
H8 H 0.598(2) 0.243(2) 0.2790(14)
O1 O 0.47603(11) 0.22447(13) 0.17903(8)
C10 C 0.36736(15) 0.30278(17) 0.15486(11)
H9 H 0.3927(18) 0.381(2) 0.1279(13)
C11 C 0.33024(14) 0.34217(16) 0.24271(10)
C12 C 0.29358(15) 0.22795(16) 0.29691(11)
N1 N 0.35095(13) 0.22202(14) 0.37324(9)
C13 C 0.22936(16) 0.44622(17) 0.23758(10)
O2 O 0.13879(14) 0.44025(15) 0.27466(10)
O3 O 0.25105(12) 0.54330(13) 0.18459(9)
C14 C 0.15566(19) 0.6431(2) 0.17194(15)
H10 H 0.079(3) 0.607(3) 0.1461(18)
H11 H 0.187(2) 0.707(3) 0.1351(16)
H12 H 0.145(2) 0.679(3) 0.2251(18)
C15 C 0.27380(16) 0.23698(17) 0.09134(11)
H13 H 0.2826(19) 0.257(2) 0.0337(14)
C16 C 0.18000(15) 0.15834(17) 0.10739(11)
C17 C 0.14982(17) 0.10472(18) 0.18923(12)
H14 H 0.086(2) 0.043(2) 0.1824(14)
C18 C 0.19806(16) 0.13258(18) 0.26948(12)
H15 H 0.1690(19) 0.085(2) 0.3140(14)
O4 O 0.09402(12) 0.10943(12) 0.04419(8)
C19 C 0.0907(2) 0.1644(2) -0.03953(12)
H16 H 0.083(2) 0.259(3) -0.0391(15)
H17 H 0.019(2) 0.128(2) -0.0724(14)
H18 H 0.165(2) 0.143(2) -0.0644(14)
loop_
_geom_bond_atom_site_label_1
_geom_bond_atom_site_label_2
_geom_bond_site_symmetry_1
_geom_bond_site_symmetry_2
Br1 C1 1_555 1_555
C1 C2 1_555 1_555
C2 H1 1_555 1_555
C3 C2 1_555 1_555
H2 C3 1_555 1_555
C4 C3 1_555 1_555
C5 C4 1_555 1_555
H3 C5 1_555 1_555
C6 C1 1_555 1_555
H4 C6 1_555 1_555
C7 C4 1_555 1_555
H5 C7 1_555 1_555
C8 C7 1_555 1_555
H6 C8 1_555 1_555
C9 C8 1_555 1_555
H7 C9 1_555 1_555
H8 C9 1_555 1_555
O1 C9 1_555 1_555
C10 O1 1_555 1_555
H9 C10 1_555 1_555
C11 C8 1_555 1_555
C12 C11 1_555 1_555
N1 C7 1_555 1_555
C13 C11 1_555 1_555
O2 C13 1_555 1_555
O3 C13 1_555 1_555
C14 O3 1_555 1_555
H10 C14 1_555 1_555
H11 C14 1_555 1_555
H12 C14 1_555 1_555
C15 C10 1_555 1_555
H13 C15 1_555 1_555
C16 C15 1_555 1_555
C17 C16 1_555 1_555
H14 C17 1_555 1_555
C18 C12 1_555 1_555
H15 C18 1_555 1_555
O4 C16 1_555 1_555
C19 O4 1_555 1_555
H16 C19 1_555 1_555
H17 C19 1_555 1_555
H18 C19 1_555 1_555
C5 C6 1_555 1_555
C10 C11 1_555 1_555
C12 N1 1_555 1_555
C17 C18 1_555 1_555

#END
