
#######################################################################
#
#                 Cambridge Crystallographic Data Centre
#                                CCDC 
#
#######################################################################
#
# If this CIF has been generated from an entry in the Cambridge 
# Structural Database, then it will include bibliographic, chemical, 
# crystal, experimental, refinement or atomic coordinate data resulting 
# from the CCDC's data processing and validation procedures.
#
#######################################################################

data_KECJEI
_chemical_formula_moiety         'C18 H19 N5'
_chemical_name_systematic        
5-t-Butyl-10-phenyl-5,6-dihydrotetrazolo(5,1-f)-1,6-naphthyridine
_symmetry_cell_setting           monoclinic
_symmetry_space_group_name_H-M   'P 21/n'
_symmetry_Int_Tables_number      14
_space_group_name_Hall           '-P 2yn'
loop_
_symmetry_equiv_pos_site_id
_symmetry_equiv_pos_as_xyz
1 x,y,z
2 1/2-x,1/2+y,1/2-z
3 -x,-y,-z
4 1/2+x,1/2-y,1/2+z
_cell_length_a                   9.1730(18)
_cell_length_b                   9.4000(19)
_cell_length_c                   18.803(4)
_cell_angle_alpha                90
_cell_angle_beta                 93.32(3)
_cell_angle_gamma                90
_cell_volume                     1618.59
_exptl_crystal_colour            'pale yellow'
_exptl_crystal_description       needles
_chemical_melting_point          '448-449 K'
_cell_formula_units_Z            4
_exptl_crystal_recrystallization_method toluene
loop_
_atom_site_label
_atom_site_type_symbol
_atom_site_fract_x
_atom_site_fract_y
_atom_site_fract_z
N1 N 0.6962(2) 0.6006(2) 0.02616(11)
N2 N 0.6771(2) 0.4758(2) -0.00905(13)
N3 N 0.6631(3) 0.5082(2) -0.07618(14)
N4 N 0.6707(2) 0.6526(2) -0.08622(11)
N5 N 0.6455(2) 1.0042(2) 0.10286(11)
C1 C 0.6913(3) 0.7064(3) -0.02176(13)
C2 C 0.6965(2) 0.8550(2) 0.00319(13)
C3 C 0.7294(3) 0.9726(3) -0.03869(12)
C4 C 0.7119(3) 1.1055(3) -0.00750(14)
H1 H 0.7293 1.1877 -0.0332
C5 C 0.6693(3) 1.1154(3) 0.06070(15)
H2 H 0.6560 1.2059 0.0792
C6 C 0.6596(3) 0.8754(2) 0.07327(12)
C7 C 0.6257(3) 0.7505(3) 0.11972(13)
H3 H 0.5218 0.7309 0.1141
H4 H 0.6479 0.7765 0.1691
C8 C 0.7089(3) 0.6145(3) 0.10384(13)
H5 H 0.6544 0.5352 0.1233
C9 C 0.8678(3) 0.6018(3) 0.13486(14)
C10 C 0.8677(4) 0.6126(4) 0.21616(16)
H6 H 0.8006 0.5443 0.2336
H7 H 0.8384 0.7066 0.2293
H8 H 0.9641 0.5936 0.2366
C11 C 0.9685(3) 0.7154(3) 0.10748(17)
H9 H 0.9315 0.8079 0.1186
H10 H 0.9728 0.7062 0.0568
H11 H 1.0646 0.7039 0.1298
C12 C 0.9294(4) 0.4571(3) 0.1142(2)
H12 H 0.8668 0.3828 0.1297
H13 H 1.0254 0.4455 0.1365
H14 H 0.9345 0.4525 0.0634
C13 C 0.7876(3) 0.9643(3) -0.11070(13)
C14 C 0.9155(3) 0.8916(3) -0.12136(15)
H15 H 0.9610 0.8407 -0.0839
C15 C 0.9763(3) 0.8934(3) -0.18618(16)
H16 H 1.0626 0.8442 -0.1923
C16 C 0.9105(3) 0.9675(3) -0.24219(15)
H17 H 0.9515 0.9674 -0.2863
C17 C 0.7847(4) 1.0413(4) -0.23299(15)
H18 H 0.7404 1.0927 -0.2706
C18 C 0.7236(3) 1.0395(3) -0.16760(15)
H19 H 0.6378 1.0897 -0.1617
loop_
_geom_bond_atom_site_label_1
_geom_bond_atom_site_label_2
_geom_bond_site_symmetry_1
_geom_bond_site_symmetry_2
N1 N2 1_555 1_555
N2 N3 1_555 1_555
N3 N4 1_555 1_555
N4 C1 1_555 1_555
N5 C5 1_555 1_555
C1 N1 1_555 1_555
C2 C1 1_555 1_555
C3 C2 1_555 1_555
C4 C3 1_555 1_555
H1 C4 1_555 1_555
C5 C4 1_555 1_555
H2 C5 1_555 1_555
C6 N5 1_555 1_555
C7 C6 1_555 1_555
H3 C7 1_555 1_555
H4 C7 1_555 1_555
C8 N1 1_555 1_555
H5 C8 1_555 1_555
C9 C8 1_555 1_555
C10 C9 1_555 1_555
H6 C10 1_555 1_555
H7 C10 1_555 1_555
H8 C10 1_555 1_555
C11 C9 1_555 1_555
H9 C11 1_555 1_555
H10 C11 1_555 1_555
H11 C11 1_555 1_555
C12 C9 1_555 1_555
H12 C12 1_555 1_555
H13 C12 1_555 1_555
H14 C12 1_555 1_555
C13 C3 1_555 1_555
C14 C13 1_555 1_555
H15 C14 1_555 1_555
C15 C14 1_555 1_555
H16 C15 1_555 1_555
C16 C15 1_555 1_555
H17 C16 1_555 1_555
C17 C16 1_555 1_555
H18 C17 1_555 1_555
C18 C13 1_555 1_555
H19 C18 1_555 1_555
C2 C6 1_555 1_555
C7 C8 1_555 1_555
C17 C18 1_555 1_555

#END
