
#######################################################################
#
#                 Cambridge Crystallographic Data Centre
#                                CCDC 
#
#######################################################################
#
# If this CIF has been generated from an entry in the Cambridge 
# Structural Database, then it will include bibliographic, chemical, 
# crystal, experimental, refinement or atomic coordinate data resulting 
# from the CCDC's data processing and validation procedures.
#
#######################################################################

data_KECLAH
_chemical_formula_moiety         'C86 H50'
_chemical_name_systematic        
9,11,13,22,24,26-Hexaphenyltetrabenzo[de,rs,wx,k~1~l~1~]nonacene
_symmetry_cell_setting           monoclinic
_symmetry_space_group_name_H-M   'P 21/n'
_symmetry_Int_Tables_number      14
_space_group_name_Hall           '-P 2yn'
loop_
_symmetry_equiv_pos_site_id
_symmetry_equiv_pos_as_xyz
1 x,y,z
2 1/2-x,1/2+y,1/2-z
3 -x,-y,-z
4 1/2+x,1/2-y,1/2+z
_cell_length_a                   8.2047(4)
_cell_length_b                   21.3824(9)
_cell_length_c                   16.2708(8)
_cell_angle_alpha                90
_cell_angle_beta                 102.978(3)
_cell_angle_gamma                90
_cell_volume                     2781.57
_exptl_crystal_colour            black
_exptl_crystal_description       block
_cell_formula_units_Z            2
loop_
_atom_site_label
_atom_site_type_symbol
_atom_site_fract_x
_atom_site_fract_y
_atom_site_fract_z
C1 C 1.0351(2) 0.13515(9) 0.43324(11)
H1 H 0.9187 0.1399 0.4100
C2 C 1.1029(3) 0.15862(9) 0.51403(12)
H2 H 1.0324 0.1791 0.5446
C3 C 1.2701(3) 0.15224(9) 0.54930(12)
H3 H 1.3164 0.1703 0.6028
C4 C 1.3725(2) 0.11904(8) 0.50650(11)
C5 C 1.5458(2) 0.10898(9) 0.54442(12)
H4 H 1.5917 0.1260 0.5986
C6 C 1.6445(2) 0.07597(9) 0.50476(12)
H5 H 1.7594 0.0709 0.5310
C7 C 1.5801(2) 0.04814(8) 0.42366(12)
C8 C 1.6822(2) 0.01264(9) 0.38333(12)
H6 H 1.7962 0.0059 0.4101
C9 C 1.6181(2) -0.01249(8) 0.30508(12)
H7 H 1.6896 -0.0345 0.2766
C10 C 1.4491(2) -0.00596(8) 0.26717(12)
H8 H 1.4078 -0.0233 0.2127
C11 C 1.3387(2) 0.02537(8) 0.30696(11)
C12 C 1.4071(2) 0.05600(8) 0.38464(11)
C13 C 1.3034(2) 0.09368(8) 0.42523(11)
C14 C 1.1337(2) 0.10508(8) 0.38602(11)
C15 C 1.0633(2) 0.08037(8) 0.29999(11)
C16 C 1.1565(2) 0.03039(8) 0.26957(11)
C17 C 1.0732(2) -0.00907(8) 0.20610(11)
C18 C 1.1443(2) -0.06907(8) 0.18215(11)
C19 C 1.1769(2) -0.11781(8) 0.24028(11)
H9 H 1.1590 -0.1118 0.2954
C20 C 1.2354(2) -0.17526(8) 0.21846(12)
H10 H 1.2596 -0.2078 0.2591
C21 C 1.2582(2) -0.18499(9) 0.13787(13)
H11 H 1.2961 -0.2244 0.1227
C22 C 1.2255(2) -0.13686(9) 0.07908(12)
H12 H 1.2418 -0.1433 0.0237
C23 C 1.1692(2) -0.07933(8) 0.10125(11)
H13 H 1.1473 -0.0466 0.0608
C24 C 0.9054(2) 0.00538(8) 0.16097(10)
C25 C 0.8310(2) 0.06402(8) 0.17772(10)
C26 C 0.9122(2) 0.10039(8) 0.25032(11)
C27 C 0.8276(2) 0.16011(8) 0.26523(11)
C28 C 0.9081(2) 0.21713(8) 0.26169(11)
H14 H 1.0184 0.2176 0.2525
C29 C 0.8294(2) 0.27315(9) 0.27145(12)
H15 H 0.8856 0.3117 0.2685
C30 C 0.6696(2) 0.27300(9) 0.28546(13)
H16 H 0.6155 0.3114 0.2921
C31 C 0.5881(2) 0.21653(9) 0.28986(12)
H17 H 0.4788 0.2163 0.3003
C32 C 0.6656(2) 0.16072(8) 0.27904(11)
H18 H 0.6081 0.1224 0.2810
C33 C 0.6779(2) 0.08102(8) 0.12669(11)
H19 H 0.6330 0.1209 0.1348
C34 C 0.5861(2) 0.04161(8) 0.06323(10)
C35 C 0.6568(2) -0.01847(8) 0.04969(10)
C36 C 0.8149(2) -0.03447(8) 0.09980(11)
H20 H 0.8614 -0.0740 0.0914
C37 C 0.4292(2) 0.05919(8) 0.01381(11)
C38 C 0.3444(2) 0.11784(8) 0.03171(11)
C39 C 0.3573(2) 0.17378(9) -0.00957(13)
H21 H 0.4301 0.1767 -0.0473
C40 C 0.2639(3) 0.22567(9) 0.00401(13)
H22 H 0.2730 0.2637 -0.0248
C41 C 0.1589(3) 0.22212(9) 0.05873(13)
H23 H 0.0955 0.2575 0.0680
C42 C 0.1464(3) 0.16676(10) 0.10008(15)
H24 H 0.0732 0.1639 0.1377
C43 C 0.2398(3) 0.11522(9) 0.08721(13)
H25 H 0.2318 0.0776 0.1170
C1B C -0.0351(2) -0.13515(9) -0.43324(11)
H1B H 0.0813 -0.1399 -0.4100
C2B C -0.1029(3) -0.15862(9) -0.51403(12)
H2B H -0.0324 -0.1791 -0.5446
C3B C -0.2701(3) -0.15224(9) -0.54930(12)
H3B H -0.3164 -0.1703 -0.6028
C4B C -0.3725(2) -0.11904(8) -0.50650(11)
C5B C -0.5458(2) -0.10898(9) -0.54442(12)
H4B H -0.5917 -0.1260 -0.5986
C6B C -0.6445(2) -0.07597(9) -0.50476(12)
H5B H -0.7594 -0.0709 -0.5310
C7B C -0.5801(2) -0.04814(8) -0.42366(12)
C8B C -0.6822(2) -0.01264(9) -0.38333(12)
H6B H -0.7962 -0.0059 -0.4101
C9B C -0.6181(2) 0.01249(8) -0.30508(12)
H7B H -0.6896 0.0345 -0.2766
C10B C -0.4491(2) 0.00596(8) -0.26717(12)
H8B H -0.4078 0.0233 -0.2127
C11B C -0.3387(2) -0.02537(8) -0.30696(11)
C12B C -0.4071(2) -0.05600(8) -0.38464(11)
C13B C -0.3034(2) -0.09368(8) -0.42523(11)
C14B C -0.1337(2) -0.10508(8) -0.38602(11)
C15B C -0.0633(2) -0.08037(8) -0.29999(11)
C16B C -0.1565(2) -0.03039(8) -0.26957(11)
C17B C -0.0732(2) 0.00907(8) -0.20610(11)
C18B C -0.1443(2) 0.06907(8) -0.18215(11)
C19B C -0.1769(2) 0.11781(8) -0.24028(11)
H9B H -0.1590 0.1118 -0.2954
C20B C -0.2354(2) 0.17526(8) -0.21846(12)
H10B H -0.2596 0.2078 -0.2591
C21B C -0.2582(2) 0.18499(9) -0.13787(13)
H11B H -0.2961 0.2244 -0.1227
C22B C -0.2255(2) 0.13686(9) -0.07908(12)
H12B H -0.2418 0.1433 -0.0237
C23B C -0.1692(2) 0.07933(8) -0.10125(11)
H13B H -0.1473 0.0466 -0.0608
C24B C 0.0946(2) -0.00538(8) -0.16097(10)
C25B C 0.1690(2) -0.06402(8) -0.17772(10)
C26B C 0.0878(2) -0.10039(8) -0.25032(11)
C27B C 0.1724(2) -0.16011(8) -0.26523(11)
C28B C 0.0919(2) -0.21713(8) -0.26169(11)
H14B H -0.0184 -0.2176 -0.2525
C29B C 0.1706(2) -0.27315(9) -0.27145(12)
H15B H 0.1144 -0.3117 -0.2685
C30B C 0.3304(2) -0.27300(9) -0.28546(13)
H16B H 0.3845 -0.3114 -0.2921
C31B C 0.4119(2) -0.21653(9) -0.28986(12)
H17B H 0.5212 -0.2163 -0.3003
C32B C 0.3344(2) -0.16072(8) -0.27904(11)
H18B H 0.3919 -0.1224 -0.2810
C33B C 0.3221(2) -0.08102(8) -0.12669(11)
H19B H 0.3670 -0.1209 -0.1348
C34B C 0.4139(2) -0.04161(8) -0.06323(10)
C35B C 0.3432(2) 0.01847(8) -0.04969(10)
C36B C 0.1851(2) 0.03447(8) -0.09980(11)
H20B H 0.1386 0.0740 -0.0914
C37B C 0.5708(2) -0.05919(8) -0.01381(11)
C38B C 0.6556(2) -0.11784(8) -0.03171(11)
C39B C 0.6427(2) -0.17378(9) 0.00957(13)
H21B H 0.5699 -0.1767 0.0473
C40B C 0.7361(3) -0.22567(9) -0.00401(13)
H22B H 0.7270 -0.2637 0.0248
C41B C 0.8411(3) -0.22212(9) -0.05873(13)
H23B H 0.9045 -0.2575 -0.0680
C42B C 0.8536(3) -0.16676(10) -0.10008(15)
H24B H 0.9268 -0.1639 -0.1377
C43B C 0.7602(3) -0.11522(9) -0.08721(13)
H25B H 0.7682 -0.0776 -0.1170
loop_
_geom_bond_atom_site_label_1
_geom_bond_atom_site_label_2
_geom_bond_site_symmetry_1
_geom_bond_site_symmetry_2
C1 H1 1_555 1_555
C2 C1 1_555 1_555
H2 C2 1_555 1_555
C3 C2 1_555 1_555
H3 C3 1_555 1_555
C4 C3 1_555 1_555
C5 C4 1_555 1_555
H4 C5 1_555 1_555
C6 C5 1_555 1_555
H5 C6 1_555 1_555
C7 C6 1_555 1_555
C8 C7 1_555 1_555
H6 C8 1_555 1_555
C9 C8 1_555 1_555
H7 C9 1_555 1_555
C10 C9 1_555 1_555
H8 C10 1_555 1_555
C11 C10 1_555 1_555
C12 C7 1_555 1_555
C13 C4 1_555 1_555
C14 C1 1_555 1_555
C15 C14 1_555 1_555
C16 C11 1_555 1_555
C17 C16 1_555 1_555
C18 C17 1_555 1_555
C19 C18 1_555 1_555
H9 C19 1_555 1_555
C20 C19 1_555 1_555
H10 C20 1_555 1_555
C21 C20 1_555 1_555
H11 C21 1_555 1_555
C22 C21 1_555 1_555
H12 C22 1_555 1_555
C23 C18 1_555 1_555
H13 C23 1_555 1_555
C24 C17 1_555 1_555
C25 C24 1_555 1_555
C26 C15 1_555 1_555
C27 C26 1_555 1_555
C28 C27 1_555 1_555
H14 C28 1_555 1_555
C29 C28 1_555 1_555
H15 C29 1_555 1_555
C30 C29 1_555 1_555
H16 C30 1_555 1_555
C31 C30 1_555 1_555
H17 C31 1_555 1_555
C32 C27 1_555 1_555
H18 C32 1_555 1_555
C33 C25 1_555 1_555
H19 C33 1_555 1_555
C34 C33 1_555 1_555
C35 C34 1_555 1_555
C36 C24 1_555 1_555
H20 C36 1_555 1_555
C37 C34 1_555 1_555
C38 C37 1_555 1_555
C39 C38 1_555 1_555
H21 C39 1_555 1_555
C40 C39 1_555 1_555
H22 C40 1_555 1_555
C41 C40 1_555 1_555
H23 C41 1_555 1_555
C42 C41 1_555 1_555
H24 C42 1_555 1_555
C43 C38 1_555 1_555
H25 C43 1_555 1_555
C1B H1B 1_555 1_555
C2B C1B 1_555 1_555
H2B C2B 1_555 1_555
C3B C2B 1_555 1_555
H3B C3B 1_555 1_555
C4B C3B 1_555 1_555
C5B C4B 1_555 1_555
H4B C5B 1_555 1_555
C6B C5B 1_555 1_555
H5B C6B 1_555 1_555
C7B C6B 1_555 1_555
C8B C7B 1_555 1_555
H6B C8B 1_555 1_555
C9B C8B 1_555 1_555
H7B C9B 1_555 1_555
C10B C9B 1_555 1_555
H8B C10B 1_555 1_555
C11B C10B 1_555 1_555
C12B C7B 1_555 1_555
C13B C4B 1_555 1_555
C14B C1B 1_555 1_555
C15B C14B 1_555 1_555
C16B C11B 1_555 1_555
C17B C16B 1_555 1_555
C18B C17B 1_555 1_555
C19B C18B 1_555 1_555
H9B C19B 1_555 1_555
C20B C19B 1_555 1_555
H10B C20B 1_555 1_555
C21B C20B 1_555 1_555
H11B C21B 1_555 1_555
C22B C21B 1_555 1_555
H12B C22B 1_555 1_555
C23B C18B 1_555 1_555
H13B C23B 1_555 1_555
C24B C17B 1_555 1_555
C25B C24B 1_555 1_555
C26B C15B 1_555 1_555
C27B C26B 1_555 1_555
C28B C27B 1_555 1_555
H14B C28B 1_555 1_555
C29B C28B 1_555 1_555
H15B C29B 1_555 1_555
C30B C29B 1_555 1_555
H16B C30B 1_555 1_555
C31B C30B 1_555 1_555
H17B C31B 1_555 1_555
C32B C27B 1_555 1_555
H18B C32B 1_555 1_555
C33B C25B 1_555 1_555
H19B C33B 1_555 1_555
C34B C33B 1_555 1_555
C35B C37 1_555 1_555
C36B C24B 1_555 1_555
H20B C36B 1_555 1_555
C37B C35 1_555 1_555
C38B C37B 1_555 1_555
C39B C38B 1_555 1_555
H21B C39B 1_555 1_555
C40B C39B 1_555 1_555
H22B C40B 1_555 1_555
C41B C40B 1_555 1_555
H23B C41B 1_555 1_555
C42B C41B 1_555 1_555
H24B C42B 1_555 1_555
C43B C38B 1_555 1_555
H25B C43B 1_555 1_555
C11 C12 1_555 1_555
C12 C13 1_555 1_555
C13 C14 1_555 1_555
C15 C16 1_555 1_555
C22 C23 1_555 1_555
C25 C26 1_555 1_555
C31 C32 1_555 1_555
C35 C36 1_555 1_555
C42 C43 1_555 1_555
C11B C12B 1_555 1_555
C12B C13B 1_555 1_555
C13B C14B 1_555 1_555
C15B C16B 1_555 1_555
C22B C23B 1_555 1_555
C25B C26B 1_555 1_555
C31B C32B 1_555 1_555
C34B C35B 1_555 1_555
C34B C37B 1_555 1_555
C35B C36B 1_555 1_555
C42B C43B 1_555 1_555

#END
