
#######################################################################
#
#                 Cambridge Crystallographic Data Centre
#                                CCDC 
#
#######################################################################
#
# If this CIF has been generated from an entry in the Cambridge 
# Structural Database, then it will include bibliographic, chemical, 
# crystal, experimental, refinement or atomic coordinate data resulting 
# from the CCDC's data processing and validation procedures.
#
#######################################################################

data_KECLOV
_chemical_formula_moiety         'C76 H14 O4,C7 H8'
_chemical_name_systematic        
'Dioxo-(1,4-diphenylbut-2-ene-1,4-diyl)-dioxa-C62fulleroid toluene solvate'
_symmetry_cell_setting           monoclinic
_symmetry_space_group_name_H-M   'P 21/n'
_symmetry_Int_Tables_number      14
_space_group_name_Hall           '-P 2yn'
loop_
_symmetry_equiv_pos_site_id
_symmetry_equiv_pos_as_xyz
1 x,y,z
2 1/2-x,1/2+y,1/2-z
3 -x,-y,-z
4 1/2+x,1/2-y,1/2+z
_cell_length_a                   17.005(4)
_cell_length_b                   15.102(3)
_cell_length_c                   19.160(5)
_cell_angle_alpha                90
_cell_angle_beta                 114.948(3)
_cell_angle_gamma                90
_cell_volume                     4461.35
_exptl_crystal_colour            black
_exptl_crystal_description       block
_cell_formula_units_Z            4
loop_
_atom_site_label
_atom_site_type_symbol
_atom_site_fract_x
_atom_site_fract_y
_atom_site_fract_z
O1 O 0.3937(4) -0.0812(3) 0.5450(3)
O2 O 0.5233(3) -0.0215(3) 0.5891(2)
O3 O 0.4546(3) 0.1353(3) 0.5377(2)
O4 O 0.5249(3) -0.1547(3) 0.6784(2)
C1 C 0.4421(5) -0.0239(4) 0.5832(3)
C2 C 0.4151(4) 0.0477(4) 0.6235(3)
C3 C 0.4192(4) 0.1326(4) 0.5915(3)
C4 C 0.5430(5) 0.1330(4) 0.5880(3)
C5 C 0.5788(4) 0.0525(4) 0.6187(3)
C6 C 0.6570(4) 0.0451(4) 0.6824(4)
C7 C 0.6859(4) -0.0095(4) 0.7540(4)
C8 C 0.6321(4) -0.0633(4) 0.7767(4)
C9 C 0.5457(4) -0.1040(4) 0.7346(3)
C10 C 0.4897(3) -0.0947(3) 0.7820(3)
C11 C 0.4070(3) -0.0280(3) 0.7496(3)
C12 C 0.3965(3) 0.0413(4) 0.6869(3)
C13 C 0.3198(3) -0.0869(3) 0.7208(3)
H1 H 0.3208 -0.1274 0.6799
C14 C 0.3245(3) -0.1445(3) 0.7861(3)
H2 H 0.2795 -0.1449 0.8031
C15 C 0.3944(3) -0.1949(3) 0.8190(3)
H3 H 0.4024 -0.2312 0.8620
C16 C 0.4600(3) -0.1930(3) 0.7869(3)
H4 H 0.4298 -0.2144 0.7326
C17 C 0.5344(3) -0.2573(3) 0.8276(3)
C18 C 0.5532(3) -0.3223(3) 0.7847(3)
H5 H 0.5232 -0.3227 0.7301
C19 C 0.6164(4) -0.3866(4) 0.8222(4)
H6 H 0.6277 -0.4317 0.7931
C20 C 0.6620(4) -0.3849(4) 0.9005(4)
H7 H 0.7062 -0.4274 0.9255
C21 C 0.6435(4) -0.3207(4) 0.9437(4)
H8 H 0.6747 -0.3202 0.9981
C22 C 0.5801(4) -0.2578(3) 0.9079(3)
H9 H 0.5676 -0.2148 0.9379
C23 C 0.2362(3) -0.0339(3) 0.6847(3)
C24 C 0.1958(4) -0.0252(4) 0.6048(3)
H10 H 0.2222 -0.0501 0.5744
C25 C 0.1176(4) 0.0195(4) 0.5694(4)
H11 H 0.0899 0.0245 0.5149
C26 C 0.0802(4) 0.0570(4) 0.6147(4)
H12 H 0.0265 0.0875 0.5908
C27 C 0.1207(4) 0.0503(4) 0.6942(4)
H13 H 0.0958 0.0772 0.7250
C28 C 0.1978(3) 0.0039(3) 0.7283(3)
H14 H 0.2249 -0.0021 0.7827
C29 C 0.6437(3) -0.0614(3) 0.8539(3)
C30 C 0.7132(4) -0.0185(4) 0.9133(4)
C31 C 0.7699(3) 0.0314(4) 0.8919(3)
C32 C 0.7546(4) 0.0361(4) 0.8131(4)
C33 C 0.7692(4) 0.1173(5) 0.7841(4)
C34 C 0.7086(4) 0.1273(4) 0.7060(4)
C35 C 0.6711(4) 0.2068(5) 0.6739(4)
C36 C 0.5845(4) 0.2137(4) 0.6212(4)
C37 C 0.5439(4) 0.2888(4) 0.6395(3)
C38 C 0.6163(4) 0.3367(4) 0.7026(4)
C39 C 0.6925(4) 0.2868(4) 0.7226(3)
C40 C 0.7558(4) 0.2779(4) 0.7981(4)
C41 C 0.7952(4) 0.1948(5) 0.8302(4)
C42 C 0.8072(3) 0.1910(4) 0.9081(4)
C43 C 0.7965(4) 0.1102(5) 0.9402(4)
C44 C 0.7521(4) 0.1102(4) 0.9894(3)
C45 C 0.6998(4) 0.0266(4) 0.9724(3)
C46 C 0.6215(4) 0.0282(4) 0.9739(3)
C47 C 0.5501(4) -0.0218(4) 0.9150(3)
C48 C 0.5626(4) -0.0670(3) 0.8598(3)
C49 C 0.4120(3) 0.0346(3) 0.8177(3)
C50 C 0.4719(3) 0.0294(3) 0.8935(3)
C51 C 0.4952(4) 0.1099(4) 0.9412(3)
C52 C 0.4538(4) 0.1895(4) 0.9101(4)
C53 C 0.3931(3) 0.1970(4) 0.8313(3)
C54 C 0.3756(3) 0.1170(4) 0.7858(3)
C55 C 0.3673(3) 0.1230(3) 0.7099(3)
C56 C 0.3733(4) 0.2041(4) 0.6770(3)
C57 C 0.3936(3) 0.2840(3) 0.7230(3)
C58 C 0.4033(4) 0.2784(4) 0.8002(4)
C59 C 0.4702(4) 0.3253(3) 0.8585(4)
C60 C 0.5288(4) 0.3755(4) 0.8390(4)
C61 C 0.5181(3) 0.3815(3) 0.7620(3)
C62 C 0.4504(4) 0.3344(4) 0.7022(4)
C63 C 0.4653(4) 0.2912(4) 0.6421(3)
C64 C 0.4086(4) 0.2081(4) 0.6238(3)
C65 C 0.6027(4) 0.3805(4) 0.7597(4)
C66 C 0.6680(4) 0.3755(3) 0.8385(3)
C67 C 0.7417(4) 0.3262(4) 0.8603(4)
C68 C 0.7733(4) 0.2715(4) 0.9280(4)
C69 C 0.7303(4) 0.2700(4) 0.9724(3)
C70 C 0.6535(4) 0.3195(4) 0.9547(3)
C71 C 0.6194(4) 0.3728(4) 0.8872(4)
C72 C 0.7187(5) 0.1844(5) 1.0066(3)
C73 C 0.6351(4) 0.1864(5) 1.0059(3)
C74 C 0.5926(5) 0.2680(4) 0.9747(3)
C75 C 0.5048(4) 0.2730(4) 0.9277(3)
C76 C 0.5851(5) 0.1073(4) 0.9885(3)
C77 C 0.2297(4) 0.1619(4) 0.8883(4)
H15 H 0.2751 0.1171 0.9105
H16 H 0.2525 0.2199 0.9108
H17 H 0.2110 0.1644 0.8324
C78 C 0.1532(3) 0.1380(4) 0.9054(3)
C79 C 0.1191(3) 0.0537(3) 0.8924(3)
H18 H 0.1430 0.0098 0.8715
C80 C 0.0497(4) 0.0326(4) 0.9098(3)
H19 H 0.0272 -0.0260 0.9015
C81 C 0.0137(4) 0.0947(5) 0.9384(3)
H20 H -0.0330 0.0794 0.9509
C82 C 0.0452(4) 0.1804(4) 0.9494(3)
H21 H 0.0188 0.2244 0.9679
C83 C 0.1149(4) 0.2021(4) 0.9336(3)
H22 H 0.1368 0.2609 0.9418
loop_
_geom_bond_atom_site_label_1
_geom_bond_atom_site_label_2
_geom_bond_site_symmetry_1
_geom_bond_site_symmetry_2
O1 C1 1_555 1_555
O2 C1 1_555 1_555
O3 C3 1_555 1_555
O4 C9 1_555 1_555
C1 C2 1_555 1_555
C2 C3 1_555 1_555
C3 C64 1_555 1_555
C4 O3 1_555 1_555
C5 O2 1_555 1_555
C6 C5 1_555 1_555
C7 C6 1_555 1_555
C8 C7 1_555 1_555
C9 C8 1_555 1_555
C10 C9 1_555 1_555
C11 C10 1_555 1_555
C12 C2 1_555 1_555
C13 C11 1_555 1_555
H1 C13 1_555 1_555
C14 C13 1_555 1_555
H2 C14 1_555 1_555
C15 C14 1_555 1_555
H3 C15 1_555 1_555
C16 C10 1_555 1_555
H4 C16 1_555 1_555
C17 C16 1_555 1_555
C18 C17 1_555 1_555
H5 C18 1_555 1_555
C19 C18 1_555 1_555
H6 C19 1_555 1_555
C20 C19 1_555 1_555
H7 C20 1_555 1_555
C21 C20 1_555 1_555
H8 C21 1_555 1_555
C22 C17 1_555 1_555
H9 C22 1_555 1_555
C23 C13 1_555 1_555
C24 C23 1_555 1_555
H10 C24 1_555 1_555
C25 C24 1_555 1_555
H11 C25 1_555 1_555
C26 C25 1_555 1_555
H12 C26 1_555 1_555
C27 C26 1_555 1_555
H13 C27 1_555 1_555
C28 C23 1_555 1_555
H14 C28 1_555 1_555
C29 C8 1_555 1_555
C30 C29 1_555 1_555
C31 C30 1_555 1_555
C32 C7 1_555 1_555
C33 C32 1_555 1_555
C34 C6 1_555 1_555
C35 C34 1_555 1_555
C36 C4 1_555 1_555
C37 C36 1_555 1_555
C38 C37 1_555 1_555
C39 C35 1_555 1_555
C40 C39 1_555 1_555
C41 C33 1_555 1_555
C42 C41 1_555 1_555
C43 C31 1_555 1_555
C44 C43 1_555 1_555
C45 C30 1_555 1_555
C46 C45 1_555 1_555
C47 C46 1_555 1_555
C48 C10 1_555 1_555
C49 C11 1_555 1_555
C50 C47 1_555 1_555
C51 C50 1_555 1_555
C52 C51 1_555 1_555
C53 C52 1_555 1_555
C54 C49 1_555 1_555
C55 C12 1_555 1_555
C56 C55 1_555 1_555
C57 C56 1_555 1_555
C58 C53 1_555 1_555
C59 C58 1_555 1_555
C60 C59 1_555 1_555
C61 C60 1_555 1_555
C62 C57 1_555 1_555
C63 C37 1_555 1_555
C64 C56 1_555 1_555
C65 C38 1_555 1_555
C66 C65 1_555 1_555
C67 C40 1_555 1_555
C68 C42 1_555 1_555
C69 C68 1_555 1_555
C70 C69 1_555 1_555
C71 C60 1_555 1_555
C72 C44 1_555 1_555
C73 C72 1_555 1_555
C74 C70 1_555 1_555
C75 C52 1_555 1_555
C76 C46 1_555 1_555
C77 H15 1_555 1_555
H16 C77 1_555 1_555
H17 C77 1_555 1_555
C78 C77 1_555 1_555
C79 C78 1_555 1_555
H18 C79 1_555 1_555
C80 C79 1_555 1_555
H19 C80 1_555 1_555
C81 C80 1_555 1_555
H20 C81 1_555 1_555
C82 C81 1_555 1_555
H21 C82 1_555 1_555
C83 C78 1_555 1_555
H22 C83 1_555 1_555
C4 C5 1_555 1_555
C11 C12 1_555 1_555
C15 C16 1_555 1_555
C21 C22 1_555 1_555
C27 C28 1_555 1_555
C29 C48 1_555 1_555
C31 C32 1_555 1_555
C33 C34 1_555 1_555
C35 C36 1_555 1_555
C38 C39 1_555 1_555
C40 C41 1_555 1_555
C42 C43 1_555 1_555
C44 C45 1_555 1_555
C47 C48 1_555 1_555
C49 C50 1_555 1_555
C51 C76 1_555 1_555
C53 C54 1_555 1_555
C54 C55 1_555 1_555
C57 C58 1_555 1_555
C59 C75 1_555 1_555
C61 C62 1_555 1_555
C61 C65 1_555 1_555
C62 C63 1_555 1_555
C63 C64 1_555 1_555
C66 C67 1_555 1_555
C66 C71 1_555 1_555
C67 C68 1_555 1_555
C69 C72 1_555 1_555
C70 C71 1_555 1_555
C73 C74 1_555 1_555
C73 C76 1_555 1_555
C74 C75 1_555 1_555
C82 C83 1_555 1_555

#END
