
#######################################################################
#
#                 Cambridge Crystallographic Data Centre
#                                CCDC 
#
#######################################################################
#
# If this CIF has been generated from an entry in the Cambridge 
# Structural Database, then it will include bibliographic, chemical, 
# crystal, experimental, refinement or atomic coordinate data resulting 
# from the CCDC's data processing and validation procedures.
#
#######################################################################

data_KECXOI
_chemical_formula_moiety         'C30 H34 Br1 N1 O4'
_chemical_name_systematic        
'(S)-(4-bromophenyl)methyl 7-((4-methoxybenzene-1-carbonyl)amino)-4,4-dimethyl-3-phenylheptanoate'
_symmetry_cell_setting           monoclinic
_symmetry_space_group_name_H-M   'P 21'
_symmetry_Int_Tables_number      4
_space_group_name_Hall           'P 2yb'
loop_
_symmetry_equiv_pos_site_id
_symmetry_equiv_pos_as_xyz
1 x,y,z
2 -x,1/2+y,-z
_cell_length_a                   14.1916(9)
_cell_length_b                   5.8015(3)
_cell_length_c                   16.4573(7)
_cell_angle_alpha                90
_cell_angle_beta                 93.438(5)
_cell_angle_gamma                90
_cell_volume                     1352.53
_exptl_crystal_colour            colorless
_exptl_crystal_description       block
_cell_formula_units_Z            2
loop_
_atom_site_label
_atom_site_type_symbol
_atom_site_fract_x
_atom_site_fract_y
_atom_site_fract_z
N1 N 0.7134(9) 0.394(4) 0.5298(6)
H1 H 0.7424 0.5225 0.5449
Br1 Br 0.10972(13) 0.9009(4) -0.17792(8)
O1 O 0.1633(6) 0.2839(16) 0.2427(6)
O2 O 0.2349(5) 0.6152(13) 0.2187(5)
O3 O 0.7191(10) 0.002(2) 0.5309(6)
O4 O 1.1419(8) 0.189(2) 0.6458(7)
C1 C 0.2336(9) 0.396(2) 0.2449(6)
C2 C 0.3279(9) 0.311(2) 0.2768(7)
C3 C 0.4150(8) 0.387(2) 0.2309(5)
H2 H 0.4184 0.5590 0.2357
C4 C 0.5068(9) 0.2952(18) 0.2694(6)
C5 C 0.5134(10) 0.031(2) 0.2682(9)
H3 H 0.4615 -0.0344 0.2973
H4 H 0.5738 -0.0173 0.2947
H5 H 0.5091 -0.0230 0.2117
C6 C 0.5893(9) 0.390(3) 0.2217(6)
H6 H 0.5823 0.3372 0.1651
H7 H 0.6494 0.3345 0.2468
H8 H 0.5884 0.5591 0.2229
C7 C 0.5216(8) 0.382(3) 0.3591(6)
H9 H 0.5058 0.5486 0.3598
H10 H 0.4756 0.3018 0.3920
C8 C 0.6179(9) 0.352(3) 0.4004(7)
H11 H 0.6630 0.4543 0.3742
H12 H 0.6388 0.1910 0.3930
C9 C 0.6201(11) 0.407(4) 0.4914(8)
H13 H 0.5946 0.5636 0.4989
H14 H 0.5787 0.2967 0.5183
C10 C 0.7588(13) 0.188(3) 0.5435(7)
C11 C 0.8567(11) 0.200(3) 0.5752(7)
C12 C 0.9144(14) 0.010(3) 0.5610(8)
H15 H 0.8884 -0.1223 0.5338
C13 C 1.0065(12) 0.013(3) 0.5858(8)
H16 H 1.0436 -0.1186 0.5756
C14 C 1.0504(11) 0.200(3) 0.6257(8)
C15 C 0.9913(11) 0.388(3) 0.6421(6)
H17 H 1.0165 0.5175 0.6713
C16 C 0.8994(11) 0.385(3) 0.6165(6)
H18 H 0.8619 0.5155 0.6272
C17 C 1.1891(15) 0.376(5) 0.6841(15)
H19 H 1.2560 0.3382 0.6944
H20 H 1.1611 0.4095 0.7358
H21 H 1.1831 0.5121 0.6487
C18 C 0.3975(7) 0.3342(18) 0.1398(6)
C19 C 0.3560(8) 0.1315(18) 0.1112(7)
H22 H 0.3379 0.0179 0.1488
C20 C 0.3405(8) 0.092(2) 0.0281(8)
H23 H 0.3123 -0.0475 0.0089
C21 C 0.3666(10) 0.258(2) -0.0260(7)
H24 H 0.3566 0.2325 -0.0829
C22 C 0.4063(9) 0.458(2) 0.0015(7)
H25 H 0.4241 0.5713 -0.0362
C23 C 0.4209(9) 0.4978(19) 0.0838(7)
H26 H 0.4476 0.6401 0.1022
C24 C 0.1467(8) 0.717(2) 0.1918(8)
H27 H 0.1397 0.8669 0.2198
H28 H 0.0945 0.6157 0.2068
C25 C 0.1395(8) 0.7560(18) 0.1006(7)
C26 C 0.1699(9) 0.5979(19) 0.0462(8)
H29 H 0.2000 0.4612 0.0662
C27 C 0.1581(9) 0.631(2) -0.0363(8)
H30 H 0.1755 0.5156 -0.0737
C28 C 0.1197(9) 0.840(2) -0.0631(7)
C29 C 0.0875(9) 1.001(2) -0.0109(8)
H31 H 0.0582 1.1387 -0.0311
C30 C 0.0981(9) 0.9615(19) 0.0704(8)
H32 H 0.0774 1.0738 0.1073
H33? H 0.3343 0.2142 0.3234
loop_
_geom_bond_atom_site_label_1
_geom_bond_atom_site_label_2
_geom_bond_site_symmetry_1
_geom_bond_site_symmetry_2
N1 H1 1_555 1_555
Br1 C28 1_555 1_555
O1 C1 1_555 1_555
O2 C1 1_555 1_555
O3 C10 1_555 1_555
O4 C14 1_555 1_555
C1 C2 1_555 1_555
C2 C3 1_555 1_555
C3 H2 1_555 1_555
C4 C3 1_555 1_555
C5 C4 1_555 1_555
H3 C5 1_555 1_555
H4 C5 1_555 1_555
H5 C5 1_555 1_555
C6 C4 1_555 1_555
H6 C6 1_555 1_555
H7 C6 1_555 1_555
H8 C6 1_555 1_555
C7 C4 1_555 1_555
H9 C7 1_555 1_555
H10 C7 1_555 1_555
C8 C7 1_555 1_555
H11 C8 1_555 1_555
H12 C8 1_555 1_555
C9 N1 1_555 1_555
H13 C9 1_555 1_555
H14 C9 1_555 1_555
C10 N1 1_555 1_555
C11 C10 1_555 1_555
C12 C11 1_555 1_555
H15 C12 1_555 1_555
C13 C12 1_555 1_555
H16 C13 1_555 1_555
C14 C13 1_555 1_555
C15 C14 1_555 1_555
H17 C15 1_555 1_555
C16 C11 1_555 1_555
H18 C16 1_555 1_555
C17 O4 1_555 1_555
H19 C17 1_555 1_555
H20 C17 1_555 1_555
H21 C17 1_555 1_555
C18 C3 1_555 1_555
C19 C18 1_555 1_555
H22 C19 1_555 1_555
C20 C19 1_555 1_555
H23 C20 1_555 1_555
C21 C20 1_555 1_555
H24 C21 1_555 1_555
C22 C21 1_555 1_555
H25 C22 1_555 1_555
C23 C18 1_555 1_555
H26 C23 1_555 1_555
C24 O2 1_555 1_555
H27 C24 1_555 1_555
H28 C24 1_555 1_555
C25 C24 1_555 1_555
C26 C25 1_555 1_555
H29 C26 1_555 1_555
C27 C26 1_555 1_555
H30 C27 1_555 1_555
C28 C27 1_555 1_555
C29 C28 1_555 1_555
H31 C29 1_555 1_555
C30 C25 1_555 1_555
H32 C30 1_555 1_555
C8 C9 1_555 1_555
C15 C16 1_555 1_555
C22 C23 1_555 1_555
C29 C30 1_555 1_555

#END
