
#######################################################################
#
#                 Cambridge Crystallographic Data Centre
#                                CCDC 
#
#######################################################################
#
# If this CIF has been generated from an entry in the Cambridge 
# Structural Database, then it will include bibliographic, chemical, 
# crystal, experimental, refinement or atomic coordinate data resulting 
# from the CCDC's data processing and validation procedures.
#
#######################################################################

data_KECYAV
_chemical_formula_moiety         'C17 H14 O4'
_chemical_name_systematic        
(E,E)-4-hydroxy-6-methyl-3-(5-phenylpenta-2,4-dienoyl)-2H-pyran-2-one
_chemical_properties_biological  'antibacterial activity'
_symmetry_cell_setting           triclinic
_symmetry_space_group_name_H-M   'P -1'
_symmetry_Int_Tables_number      2
_space_group_name_Hall           '-P 1'
loop_
_symmetry_equiv_pos_site_id
_symmetry_equiv_pos_as_xyz
1 x,y,z
2 -x,-y,-z
_cell_length_a                   6.9865(17)
_cell_length_b                   8.511(2)
_cell_length_c                   11.9757(18)
_cell_angle_alpha                88.053(17)
_cell_angle_beta                 77.077(18)
_cell_angle_gamma                84.50(2)
_cell_volume                     690.811
_exptl_crystal_colour            colorless
_exptl_crystal_description       block
_chemical_melting_point          '168-172 deg.C'
_cell_formula_units_Z            2
loop_
_atom_site_label
_atom_site_type_symbol
_atom_site_fract_x
_atom_site_fract_y
_atom_site_fract_z
O1 O 0.4674(4) 0.6696(4) 0.7662(3)
O2 O 0.7735(4) 0.5650(4) 0.6474(3)
O3 O 0.2161(4) 0.2933(4) 0.6451(3)
C1 C -0.7891(7) 0.8657(6) 1.2083(4)
H1 H -0.9156 0.8801 1.2541
C2 C -0.6474(7) 0.9578(6) 1.2224(4)
H2 H -0.6777 1.0370 1.2768
C3 C -0.4576(7) 0.9333(5) 1.1553(4)
H3 H -0.3613 0.9961 1.1658
C4 C -0.4094(6) 0.8173(5) 1.0735(3)
C5 C -0.5549(6) 0.7284(6) 1.0584(4)
H4 H -0.5270 0.6517 1.0021
C6 C -0.7443(7) 0.7523(6) 1.1267(4)
H5 H -0.8413 0.6901 1.1165
C7 C -0.2067(6) 0.7950(6) 1.0049(4)
H6 H -0.1210 0.8650 1.0193
C8 C -0.1294(6) 0.6886(6) 0.9254(4)
H7 H -0.2119 0.6190 0.9067
C9 C 0.0750(6) 0.6741(6) 0.8660(3)
H8 H 0.1540 0.7471 0.8840
C10 C 0.1614(6) 0.5678(6) 0.7888(4)
H9 H 0.0868 0.4949 0.7663
C11 C 0.3733(6) 0.5626(5) 0.7377(3)
C12 C 0.4792(5) 0.4464(5) 0.6574(3)
C13 C 0.6840(6) 0.4528(6) 0.6157(4)
C14 C 0.7924(6) 0.3406(6) 0.5357(4)
H10 H 0.9268 0.3467 0.5075
C15 C 0.7037(6) 0.2273(6) 0.5008(4)
O4 O 0.5067(4) 0.2166(4) 0.5386(3)
C16 C 0.3879(6) 0.3216(6) 0.6189(4)
C17 C 0.7961(7) 0.1006(6) 0.4194(4)
H11 H 0.7822 -0.0001 0.4574
H12 H 0.9336 0.1144 0.3919
H13 H 0.7325 0.1053 0.3559
loop_
_geom_bond_atom_site_label_1
_geom_bond_atom_site_label_2
_geom_bond_site_symmetry_1
_geom_bond_site_symmetry_2
O1 C11 1_555 1_555
O2 C13 1_555 1_555
O3 C16 1_555 1_555
C1 H1 1_555 1_555
C2 C1 1_555 1_555
H2 C2 1_555 1_555
C3 C2 1_555 1_555
H3 C3 1_555 1_555
C4 C3 1_555 1_555
C5 C4 1_555 1_555
H4 C5 1_555 1_555
C6 C1 1_555 1_555
H5 C6 1_555 1_555
C7 C4 1_555 1_555
H6 C7 1_555 1_555
C8 C7 1_555 1_555
H7 C8 1_555 1_555
C9 C8 1_555 1_555
H8 C9 1_555 1_555
C10 C9 1_555 1_555
H9 C10 1_555 1_555
C11 C10 1_555 1_555
C12 C11 1_555 1_555
C13 C12 1_555 1_555
C14 C13 1_555 1_555
H10 C14 1_555 1_555
C15 C14 1_555 1_555
O4 C15 1_555 1_555
C16 C12 1_555 1_555
C17 C15 1_555 1_555
H11 C17 1_555 1_555
H12 C17 1_555 1_555
H13 C17 1_555 1_555
C5 C6 1_555 1_555
O4 C16 1_555 1_555

#END
