
#######################################################################
#
#                 Cambridge Crystallographic Data Centre
#                                CCDC 
#
#######################################################################
#
# If this CIF has been generated from an entry in the Cambridge 
# Structural Database, then it will include bibliographic, chemical, 
# crystal, experimental, refinement or atomic coordinate data resulting 
# from the CCDC's data processing and validation procedures.
#
#######################################################################

data_KEDCUU
_chemical_formula_moiety         'C2 N6 O5 2-,2(K1 1+)'
_chemical_name_systematic        
'di-potassium (1,2,5-oxadiazole-3,4-diyl)bis(nitroazanide)'
_symmetry_cell_setting           monoclinic
_symmetry_space_group_name_H-M   'C 2/c'
_symmetry_Int_Tables_number      15
_space_group_name_Hall           '-C 2yn'
loop_
_symmetry_equiv_pos_site_id
_symmetry_equiv_pos_as_xyz
1 x,y,z
2 -x,y,1/2-z
3 1/2+x,1/2+y,z
4 1/2-x,1/2+y,1/2-z
5 -x,-y,-z
6 x,-y,1/2+z
7 1/2-x,1/2-y,-z
8 1/2+x,1/2-y,1/2+z
_cell_length_a                   12.847(5)
_cell_length_b                   6.978(3)
_cell_length_c                   9.543(4)
_cell_angle_alpha                90
_cell_angle_beta                 109.075(7)
_cell_angle_gamma                90
_cell_volume                     808.521
_exptl_crystal_colour            yellow
_exptl_crystal_description       prismatic
_cell_formula_units_Z            4
loop_
_atom_site_label
_atom_site_type_symbol
_atom_site_fract_x
_atom_site_fract_y
_atom_site_fract_z
O1 O 0.31259(13) 1.0243(2) -0.09003(16)
O2 O 0.32708(12) 0.7162(2) -0.08556(16)
N1 N 0.35453(13) 0.8751(2) -0.02454(19)
N2 N 0.43715(14) 1.2246(2) 0.13054(17)
O3 O 0.5000 1.3381(3) 0.2500
N3 N 0.42804(14) 0.8735(2) 0.10904(19)
C1 C 0.46062(14) 1.0491(3) 0.17529(19)
O1A O 0.68741(13) 1.0243(2) 0.59003(16)
O2A O 0.67292(12) 0.7162(2) 0.58556(16)
N1A N 0.64547(13) 0.8751(2) 0.52454(19)
N2A N 0.56285(14) 1.2246(2) 0.36946(17)
N3A N 0.57196(14) 0.8735(2) 0.39096(19)
C1A C 0.53938(14) 1.0491(3) 0.32471(19)
K1 K 0.36019(4) 0.63206(6) 0.32580(5)
loop_
_geom_bond_atom_site_label_1
_geom_bond_atom_site_label_2
_geom_bond_site_symmetry_1
_geom_bond_site_symmetry_2
O1 N1 1_555 1_555
O2 N1 1_555 1_555
N1 N3 1_555 1_555
N2 O3 1_555 1_555
O3 N2A 1_555 1_555
N3 C1 1_555 1_555
C1 N2 1_555 1_555
O1A N1A 1_555 1_555
O2A N1A 1_555 1_555
N1A N3A 1_555 1_555
N2A C1A 1_555 1_555
N3A C1A 1_555 1_555
C1A C1 1_555 1_555

#END
