
#######################################################################
#
#                 Cambridge Crystallographic Data Centre
#                                CCDC 
#
#######################################################################
#
# If this CIF has been generated from an entry in the Cambridge 
# Structural Database, then it will include bibliographic, chemical, 
# crystal, experimental, refinement or atomic coordinate data resulting 
# from the CCDC's data processing and validation procedures.
#
#######################################################################

data_KEDCIH
_chemical_formula_moiety         'C20 H32 N2 O4 S1 Si2'
_chemical_name_systematic        
2-(bis(Trimethylsilyl)methyl)-1-(hydroxymethyl)-8-(methylsulfonyl)-1,2,3b,8-tetrahydropyrrolo[4',3':1,3]cyclopropa[1,2-b]indol-3(3aH)-one
_symmetry_cell_setting           monoclinic
_symmetry_space_group_name_H-M   'P 21/n'
_symmetry_Int_Tables_number      14
_space_group_name_Hall           '-P 2yn'
loop_
_symmetry_equiv_pos_site_id
_symmetry_equiv_pos_as_xyz
1 x,y,z
2 1/2-x,1/2+y,1/2-z
3 -x,-y,-z
4 1/2+x,1/2-y,1/2+z
_cell_length_a                   9.0478(9)
_cell_length_b                   18.6125(18)
_cell_length_c                   14.1521(14)
_cell_angle_alpha                90
_cell_angle_beta                 96.3590(10)
_cell_angle_gamma                90
_cell_volume                     2368.58
_exptl_crystal_colour            colorless
_exptl_crystal_description       prism
_chemical_melting_point          '179 deg.C'
_cell_formula_units_Z            4
loop_
_atom_site_label
_atom_site_type_symbol
_atom_site_fract_x
_atom_site_fract_y
_atom_site_fract_z
C1 C 0.45931(16) 0.06218(8) 0.67512(10)
C2 C 0.31918(17) 0.03984(9) 0.69304(11)
H1 H 0.2359 0.0709 0.6810
C3 C 0.30222(19) -0.02902(10) 0.72908(12)
H2 H 0.2068 -0.0450 0.7420
C4 C 0.4242(2) -0.07424(10) 0.74609(13)
H3 H 0.4105 -0.1215 0.7690
C5 C 0.56695(18) -0.05184(9) 0.73020(12)
H4 H 0.6504 -0.0828 0.7423
C6 C 0.58197(15) 0.01710(8) 0.69621(10)
C7 C 0.50680(16) 0.13126(8) 0.63557(11)
H5 H 0.4651 0.1777 0.6562
C8 C 0.67267(15) 0.12271(8) 0.63324(10)
C9 C 0.57195(16) 0.12613(8) 0.54053(10)
H6 H 0.5545 0.0828 0.4990
C10 C 0.60631(17) 0.19733(8) 0.49974(11)
C11 C 0.77174(16) 0.18854(8) 0.64203(10)
H7 H 0.8768 0.1740 0.6363
C12 C 0.7644(2) 0.22768(9) 0.73608(11)
H8 H 0.6670 0.2520 0.7356
H9 H 0.7742 0.1927 0.7890
C13 C 0.77606(18) 0.30119(8) 0.53419(11)
H10 H 0.8276 0.3183 0.5962
C14 C 0.7881(2) -0.04018(12) 0.54288(15)
H11 H 0.7564 -0.0066 0.4913
H12 H 0.7030 -0.0692 0.5572
H13 H 0.8659 -0.0718 0.5234
C15 C 0.8644(3) 0.24231(18) 0.3433(2)
H14 H 0.8222 0.1956 0.3578
H15 H 0.9475 0.2351 0.3054
H16 H 0.7877 0.2716 0.3072
C16 C 1.0124(2) 0.37809(12) 0.43097(17)
H17 H 1.0492 0.4015 0.4910
H18 H 0.9356 0.4081 0.3963
H19 H 1.0948 0.3715 0.3923
C17 C 1.0837(3) 0.23459(14) 0.5216(2)
H20 H 1.0448 0.1872 0.5364
H21 H 1.1206 0.2591 0.5808
H22 H 1.1652 0.2288 0.4821
C18 C 0.5734(3) 0.38459(11) 0.37008(14)
H23 H 0.6621 0.3940 0.3381
H24 H 0.5044 0.4251 0.3597
H25 H 0.5248 0.3407 0.3442
C19 C 0.7127(3) 0.46048(10) 0.54299(15)
H26 H 0.7989 0.4711 0.5091
H27 H 0.7445 0.4573 0.6113
H28 H 0.6389 0.4989 0.5311
C20 C 0.4652(2) 0.35440(12) 0.56648(16)
H29 H 0.4195 0.3087 0.5448
H30 H 0.3923 0.3932 0.5548
H31 H 0.4984 0.3515 0.6347
N1 N 0.71329(14) 0.23032(7) 0.55713(9)
N2 N 0.71636(13) 0.05447(7) 0.67882(9)
O1 O 0.54452(14) 0.22275(7) 0.42481(8)
O2 O 0.90401(13) -0.04167(7) 0.71836(10)
O3 O 0.96170(13) 0.06006(7) 0.61702(9)
O4 O 0.88005(18) 0.27889(7) 0.74983(9)
H32 H 0.8755 0.3003 0.8017
S1 S 0.85819(4) 0.00820(2) 0.64450(3)
Si1 Si 0.62853(5) 0.37305(3) 0.49991(3)
Si2 Si 0.93212(6) 0.28909(3) 0.45609(4)
loop_
_geom_bond_atom_site_label_1
_geom_bond_atom_site_label_2
_geom_bond_site_symmetry_1
_geom_bond_site_symmetry_2
C1 C2 1_555 1_555
C2 H1 1_555 1_555
C3 C2 1_555 1_555
H2 C3 1_555 1_555
C4 C3 1_555 1_555
H3 C4 1_555 1_555
C5 C4 1_555 1_555
H4 C5 1_555 1_555
C6 C1 1_555 1_555
C7 C1 1_555 1_555
H5 C7 1_555 1_555
C8 C7 1_555 1_555
C9 C7 1_555 1_555
H6 C9 1_555 1_555
C10 C9 1_555 1_555
C11 C8 1_555 1_555
H7 C11 1_555 1_555
C12 C11 1_555 1_555
H8 C12 1_555 1_555
H9 C12 1_555 1_555
C13 H10 1_555 1_555
C14 H11 1_555 1_555
H12 C14 1_555 1_555
H13 C14 1_555 1_555
C15 H14 1_555 1_555
H15 C15 1_555 1_555
H16 C15 1_555 1_555
C16 H17 1_555 1_555
H18 C16 1_555 1_555
H19 C16 1_555 1_555
C17 H20 1_555 1_555
H21 C17 1_555 1_555
H22 C17 1_555 1_555
C18 H23 1_555 1_555
H24 C18 1_555 1_555
H25 C18 1_555 1_555
C19 H26 1_555 1_555
H27 C19 1_555 1_555
H28 C19 1_555 1_555
C20 H29 1_555 1_555
H30 C20 1_555 1_555
H31 C20 1_555 1_555
N1 C10 1_555 1_555
N2 C6 1_555 1_555
O1 C10 1_555 1_555
O2 S1 1_555 1_555
O3 S1 1_555 1_555
O4 C12 1_555 1_555
H32 O4 1_555 1_555
S1 C14 1_555 1_555
Si1 C13 1_555 1_555
Si2 C13 1_555 1_555
C5 C6 1_555 1_555
C8 C9 1_555 1_555
C8 N2 1_555 1_555
C11 N1 1_555 1_555
C13 N1 1_555 1_555
C15 Si2 1_555 1_555
C16 Si2 1_555 1_555
C17 Si2 1_555 1_555
C18 Si1 1_555 1_555
C19 Si1 1_555 1_555
C20 Si1 1_555 1_555
N2 S1 1_555 1_555

#END
