
#######################################################################
#
#                 Cambridge Crystallographic Data Centre
#                                CCDC 
#
#######################################################################
#
# If this CIF has been generated from an entry in the Cambridge 
# Structural Database, then it will include bibliographic, chemical, 
# crystal, experimental, refinement or atomic coordinate data resulting 
# from the CCDC's data processing and validation procedures.
#
#######################################################################

data_KEDDII
_chemical_formula_moiety         'C22 H16 N2 O2 S1'
_chemical_name_systematic        
3-(1H-Indol-3-yl)-2-(4-methyl-5-(4-methylphenyl)-1,3-oxathiol-2-ylidene)-3-oxopropanenitrile
_symmetry_cell_setting           monoclinic
_symmetry_space_group_name_H-M   'P 21/n'
_symmetry_Int_Tables_number      14
_space_group_name_Hall           '-P 2yn'
loop_
_symmetry_equiv_pos_site_id
_symmetry_equiv_pos_as_xyz
1 x,y,z
2 1/2-x,1/2+y,1/2-z
3 -x,-y,-z
4 1/2+x,1/2-y,1/2+z
_cell_length_a                   9.1476(9)
_cell_length_b                   10.5282(11)
_cell_length_c                   19.4696(18)
_cell_angle_alpha                90
_cell_angle_beta                 103.1700(10)
_cell_angle_gamma                90
_cell_volume                     1825.76
_exptl_crystal_colour            'pale yellow'
_exptl_crystal_description       block
_cell_formula_units_Z            4
loop_
_atom_site_label
_atom_site_type_symbol
_atom_site_fract_x
_atom_site_fract_y
_atom_site_fract_z
S1 S 0.23227(7) 0.68590(6) 0.59831(3)
N1 N 0.5058(3) 0.2924(2) 0.53707(11)
N2 N 0.7953(2) 0.29617(17) 0.76079(10)
H1 H 0.8567 0.2340 0.7615
O1 O 0.23975(17) 0.52485(14) 0.50151(8)
O2 O 0.45592(18) 0.61667(14) 0.70014(8)
C1 C 0.3110(3) 0.5561(2) 0.56787(12)
C2 C 0.1174(3) 0.6040(2) 0.47331(13)
C3 C 0.0949(3) 0.6937(2) 0.51873(12)
C4 C -0.0273(3) 0.7916(2) 0.51326(14)
H2 H -0.0197 0.8525 0.4775
H3 H -0.0166 0.8341 0.5578
H4 H -0.1235 0.7507 0.5010
C5 C 0.0440(3) 0.5689(2) 0.40085(12)
C6 C -0.0781(3) 0.6376(2) 0.36179(14)
H5 H -0.1144 0.7073 0.3821
C7 C -0.1453(3) 0.6030(3) 0.29313(15)
H6 H -0.2259 0.6505 0.2684
C8 C -0.0963(3) 0.5000(3) 0.26028(14)
C9 C 0.0248(3) 0.4326(3) 0.29901(14)
H7 H 0.0605 0.3629 0.2785
C10 C 0.0943(3) 0.4661(2) 0.36749(13)
H8 H 0.1760 0.4191 0.3916
C11 C -0.1720(3) 0.4628(3) 0.18582(14)
H9 H -0.2709 0.4311 0.1849
H10 H -0.1142 0.3980 0.1696
H11 H -0.1792 0.5357 0.1556
C12 C 0.4712(3) 0.3768(2) 0.56709(13)
C13 C 0.4295(3) 0.4832(2) 0.60360(12)
C14 C 0.4992(3) 0.5164(2) 0.67615(12)
C15 C 0.6944(3) 0.3363(2) 0.70320(12)
H12 H 0.6808 0.3011 0.6584
C16 C 0.6136(3) 0.4385(2) 0.72096(11)
C17 C 0.6728(3) 0.4607(2) 0.79570(12)
C18 C 0.7857(3) 0.3697(2) 0.81860(12)
C19 C 0.8657(3) 0.3592(2) 0.88807(13)
H13 H 0.9374 0.2961 0.9021
C20 C 0.8343(3) 0.4461(3) 0.93497(13)
H14 H 0.8864 0.4424 0.9819
C21 C 0.7258(3) 0.5401(2) 0.91389(13)
H15 H 0.7089 0.5989 0.9468
C22 C 0.6427(3) 0.5476(2) 0.84511(13)
H16 H 0.5686 0.6091 0.8320
loop_
_geom_bond_atom_site_label_1
_geom_bond_atom_site_label_2
_geom_bond_site_symmetry_1
_geom_bond_site_symmetry_2
S1 C1 1_555 1_555
N1 C12 1_555 1_555
N2 H1 1_555 1_555
O1 C1 1_555 1_555
O2 C14 1_555 1_555
C1 C13 1_555 1_555
C2 O1 1_555 1_555
C3 S1 1_555 1_555
C4 C3 1_555 1_555
H2 C4 1_555 1_555
H3 C4 1_555 1_555
H4 C4 1_555 1_555
C5 C2 1_555 1_555
C6 C5 1_555 1_555
H5 C6 1_555 1_555
C7 C6 1_555 1_555
H6 C7 1_555 1_555
C8 C7 1_555 1_555
C9 C8 1_555 1_555
H7 C9 1_555 1_555
C10 C5 1_555 1_555
H8 C10 1_555 1_555
C11 C8 1_555 1_555
H9 C11 1_555 1_555
H10 C11 1_555 1_555
H11 C11 1_555 1_555
C12 C13 1_555 1_555
C13 C14 1_555 1_555
C14 C16 1_555 1_555
C15 N2 1_555 1_555
H12 C15 1_555 1_555
C16 C15 1_555 1_555
C17 C16 1_555 1_555
C18 N2 1_555 1_555
C19 C18 1_555 1_555
H13 C19 1_555 1_555
C20 C19 1_555 1_555
H14 C20 1_555 1_555
C21 C20 1_555 1_555
H15 C21 1_555 1_555
C22 C17 1_555 1_555
H16 C22 1_555 1_555
C2 C3 1_555 1_555
C9 C10 1_555 1_555
C17 C18 1_555 1_555
C21 C22 1_555 1_555

#END
