
#######################################################################
#
#                 Cambridge Crystallographic Data Centre
#                                CCDC 
#
#######################################################################
#
# If this CIF has been generated from an entry in the Cambridge 
# Structural Database, then it will include bibliographic, chemical, 
# crystal, experimental, refinement or atomic coordinate data resulting 
# from the CCDC's data processing and validation procedures.
#
#######################################################################

data_KEDDAB
_chemical_formula_moiety         'C6 N10 O8 2-,2(K1 1+)'
_chemical_name_systematic        
'di-potassium (1,4,2,5-dioxadiazine-3,6-diylbis(1,2,5-oxadiazole-4,3-diyl))bis(nitroazanide)'
_symmetry_cell_setting           triclinic
_symmetry_space_group_name_H-M   'P -1'
_symmetry_Int_Tables_number      2
_space_group_name_Hall           '-P 1'
loop_
_symmetry_equiv_pos_site_id
_symmetry_equiv_pos_as_xyz
1 x,y,z
2 -x,-y,-z
_cell_length_a                   4.7185(13)
_cell_length_b                   7.0406(19)
_cell_length_c                   10.669(3)
_cell_angle_alpha                80.070(5)
_cell_angle_beta                 80.533(5)
_cell_angle_gamma                72.663(4)
_cell_volume                     330.845
_exptl_crystal_colour            colorless
_exptl_crystal_description       prismatic
_cell_formula_units_Z            1
loop_
_atom_site_label
_atom_site_type_symbol
_atom_site_fract_x
_atom_site_fract_y
_atom_site_fract_z
K1 K 0.23480(12) 0.76323(7) 0.37605(5)
N1 N -0.0007(5) 0.4955(3) 0.2768(2)
N2 N -0.2561(5) 0.4633(3) 0.1206(2)
N3 N 0.1622(5) -0.0408(3) 0.1041(2)
N4 N 0.3557(4) 0.1608(3) 0.28134(18)
N5 N 0.4880(4) 0.1924(3) 0.37201(18)
O1 O -0.2329(4) 0.5879(3) 0.2005(2)
O2 O -0.1803(7) 0.1872(3) -0.0241(2)
O3 O 0.3939(5) 0.3441(3) 0.4293(2)
O4 O 0.7192(4) 0.0584(3) 0.40157(16)
C1 C 0.1168(5) 0.3160(3) 0.2418(2)
C2 C -0.0467(5) 0.2979(3) 0.1438(2)
C3 C -0.0107(6) 0.1317(4) 0.0720(2)
N1A N 0.0007(5) -0.4955(3) -0.2768(2)
N2A N 0.2561(5) -0.4633(3) -0.1206(2)
N3A N -0.1622(5) 0.0408(3) -0.1041(2)
N4A N -0.3557(4) -0.1608(3) -0.28134(18)
N5A N -0.4880(4) -0.1924(3) -0.37201(18)
O1A O 0.2329(4) -0.5879(3) -0.2005(2)
O2A O 0.1803(7) -0.1872(3) 0.0241(2)
O3A O -0.3939(5) -0.3441(3) -0.4293(2)
O4A O -0.7192(4) -0.0584(3) -0.40157(16)
C1A C -0.1168(5) -0.3160(3) -0.2418(2)
C2A C 0.0467(5) -0.2979(3) -0.1438(2)
C3A C 0.0107(6) -0.1317(4) -0.0720(2)
loop_
_geom_bond_atom_site_label_1
_geom_bond_atom_site_label_2
_geom_bond_site_symmetry_1
_geom_bond_site_symmetry_2
N1 O1 1_555 1_555
N2 O1 1_555 1_555
N3 C3 1_555 1_555
N4 N5 1_555 1_555
N5 O3 1_555 1_555
O2 C3 1_555 1_555
O4 N5 1_555 1_555
C1 N1 1_555 1_555
C2 N2 1_555 1_555
C3 C2 1_555 1_555
N1A O1A 1_555 1_555
N2A O1A 1_555 1_555
N3A O2 1_555 1_555
N4A N5A 1_555 1_555
N5A O3A 1_555 1_555
O2A N3 1_555 1_555
O4A N5A 1_555 1_555
C1A N1A 1_555 1_555
C2A N2A 1_555 1_555
C3A N3A 1_555 1_555
N4 C1 1_555 1_555
C1 C2 1_555 1_555
N4A C1A 1_555 1_555
O2A C3A 1_555 1_555
C1A C2A 1_555 1_555
C2A C3A 1_555 1_555

#END
