
#######################################################################
#
#                 Cambridge Crystallographic Data Centre
#                                CCDC 
#
#######################################################################
#
# If this CIF has been generated from an entry in the Cambridge 
# Structural Database, then it will include bibliographic, chemical, 
# crystal, experimental, refinement or atomic coordinate data resulting 
# from the CCDC's data processing and validation procedures.
#
#######################################################################

data_KEDDEF
_chemical_formula_moiety         'C3 N5 O4 1-,K1 1+'
_chemical_name_systematic        
'potassium 6-nitro-5-oxo-6H-pyrazolo[3,4-c][1,2,5]oxadiazol-6-ide'
_symmetry_cell_setting           orthorhombic
_symmetry_space_group_name_H-M   'P 21 21 21'
_symmetry_Int_Tables_number      19
_space_group_name_Hall           'P 2ac 2ab'
loop_
_symmetry_equiv_pos_site_id
_symmetry_equiv_pos_as_xyz
1 x,y,z
2 1/2-x,-y,1/2+z
3 -x,1/2+y,1/2-z
4 1/2+x,1/2-y,-z
_cell_length_a                   4.957(2)
_cell_length_b                   7.467(3)
_cell_length_c                   17.649(7)
_cell_angle_alpha                90
_cell_angle_beta                 90
_cell_angle_gamma                90
_cell_volume                     653.259
_exptl_crystal_colour            yellow
_exptl_crystal_description       prismatic
_cell_formula_units_Z            4
loop_
_atom_site_label
_atom_site_type_symbol
_atom_site_fract_x
_atom_site_fract_y
_atom_site_fract_z
K1 K 1.02263(12) -0.35501(7) 0.90196(3)
N1 N 0.8505(5) 0.2441(3) 0.76588(13)
N2 N 0.4979(6) 0.4052(3) 0.82322(12)
N3 N 0.7491(4) -0.0247(3) 0.84245(12)
N4 N 0.5477(4) -0.0349(2) 0.89271(10)
N5 N 0.1715(4) 0.1383(3) 0.94593(11)
O1 O 0.7157(4) 0.4092(3) 0.77084(11)
O2 O 0.5162(4) -0.1770(2) 0.93055(10)
O3 O 0.0962(4) 0.0158(2) 0.98787(10)
O4 O 0.0560(4) 0.2860(2) 0.94214(9)
C1 C 0.7206(5) 0.1458(4) 0.81491(13)
C2 C 0.5068(5) 0.2422(3) 0.84849(12)
C3 C 0.3912(5) 0.1189(3) 0.89867(12)
loop_
_geom_bond_atom_site_label_1
_geom_bond_atom_site_label_2
_geom_bond_site_symmetry_1
_geom_bond_site_symmetry_2
N1 O1 1_555 1_555
N2 O1 1_555 1_555
N3 N4 1_555 1_555
N4 O2 1_555 1_555
N5 O3 1_555 1_555
O4 N5 1_555 1_555
C1 N1 1_555 1_555
C2 N2 1_555 1_555
C3 N4 1_555 1_555
N3 C1 1_555 1_555
N5 C3 1_555 1_555
C1 C2 1_555 1_555
C2 C3 1_555 1_555

#END
