
#######################################################################
#
#                 Cambridge Crystallographic Data Centre
#                                CCDC 
#
#######################################################################
#
# If this CIF has been generated from an entry in the Cambridge 
# Structural Database, then it will include bibliographic, chemical, 
# crystal, experimental, refinement or atomic coordinate data resulting 
# from the CCDC's data processing and validation procedures.
#
#######################################################################

data_KEDDUU
_chemical_formula_moiety         'C20 H30 O4'
_chemical_name_systematic        'Rubesanolide C'
_symmetry_cell_setting           orthorhombic
_symmetry_space_group_name_H-M   'P 21 21 21'
_symmetry_Int_Tables_number      19
_space_group_name_Hall           'P 2ac 2ab'
loop_
_symmetry_equiv_pos_site_id
_symmetry_equiv_pos_as_xyz
1 x,y,z
2 1/2+x,1/2-y,-z
3 -x,1/2+y,1/2-z
4 1/2-x,-y,1/2+z
_cell_length_a                   6.62460(10)
_cell_length_b                   16.0121(2)
_cell_length_c                   16.5233(2)
_cell_angle_alpha                90
_cell_angle_beta                 90
_cell_angle_gamma                90
_cell_volume                     1752.69
_exptl_crystal_colour            colorless
_exptl_crystal_description       prism
_chemical_melting_point          '172-174 deg.C'
_cell_formula_units_Z            4
_exptl_crystal_recrystallization_method methanol
loop_
_atom_site_label
_atom_site_type_symbol
_atom_site_fract_x
_atom_site_fract_y
_atom_site_fract_z
O1 O 0.20225(17) 0.96190(6) 0.61600(6)
O2 O 0.3032(2) 1.09395(7) 0.62908(8)
O3 O 0.2904(2) 0.81264(6) 0.45049(6)
H1 H 0.2283 0.7690 0.4581
O4 O 0.62317(16) 0.84760(6) 0.52878(6)
H2 H 0.5491 0.8291 0.4933
C1 C 0.3910(3) 0.62336(11) 0.70293(11)
H3 H 0.3557 0.5751 0.7344
H4 H 0.5341 0.6324 0.7059
H5 H 0.3525 0.6146 0.6476
C2 C 0.2807(3) 0.69983(10) 0.73620(8)
H6 H 0.3292 0.7087 0.7916
C3 C 0.3415(2) 0.77598(9) 0.68706(8)
C4 C 0.5538(3) 0.80645(10) 0.70031(9)
H7 H 0.6467 0.7666 0.6764
H8 H 0.5803 0.8080 0.7580
C5 C 0.5965(2) 0.89225(10) 0.66508(9)
H9 H 0.7413 0.9012 0.6634
H10 H 0.5383 0.9345 0.7001
C6 C 0.5107(2) 0.90221(8) 0.58015(8)
C7 C 0.5083(2) 0.99468(8) 0.55056(8)
C8 C 0.7079(3) 1.03981(10) 0.56572(10)
H11 H 0.7228 1.0489 0.6235
H12 H 0.8176 1.0039 0.5484
C9 C 0.7276(3) 1.12337(11) 0.52264(12)
H13 H 0.6326 1.1628 0.5457
H14 H 0.8627 1.1453 0.5305
C10 C 0.6865(3) 1.11371(11) 0.43269(11)
H15 H 0.7859 1.0760 0.4098
H16 H 0.7031 1.1676 0.4067
C11 C 0.0561(3) 0.68387(12) 0.74130(11)
H17 H -0.0103 0.7327 0.7620
H18 H 0.0313 0.6375 0.7768
H19 H 0.0048 0.6712 0.6884
C12 C 0.2196(2) 0.81259(9) 0.63326(8)
H20 H 0.0886 0.7925 0.6280
C13 C 0.2830(2) 0.88408(9) 0.58112(8)
C14 C 0.3342(3) 1.02593(9) 0.60184(9)
C15 C 0.4459(2) 0.99581(8) 0.45932(9)
H21 H 0.5361 0.9560 0.4325
C16 C 0.4754(3) 1.08031(9) 0.41362(10)
C17 C 0.4632(4) 1.06358(12) 0.32261(11)
H22 H 0.5013 1.1130 0.2935
H23 H 0.3275 1.0484 0.3085
H24 H 0.5531 1.0188 0.3087
C18 C 0.3160(3) 1.14661(11) 0.43520(14)
H25 H 0.3485 1.1982 0.4087
H26 H 0.3145 1.1551 0.4927
H27 H 0.1854 1.1279 0.4177
C19 C 0.2327(3) 0.96017(10) 0.44880(10)
H28 H 0.1358 1.0016 0.4668
H29 H 0.2089 0.9503 0.3917
C20 C 0.1949(3) 0.87936(9) 0.49468(9)
H30 H 0.0494 0.8690 0.4977
loop_
_geom_bond_atom_site_label_1
_geom_bond_atom_site_label_2
_geom_bond_site_symmetry_1
_geom_bond_site_symmetry_2
O1 C13 1_555 1_555
O2 C14 1_555 1_555
O3 H1 1_555 1_555
O4 H2 1_555 1_555
C1 H3 1_555 1_555
H4 C1 1_555 1_555
H5 C1 1_555 1_555
C2 C1 1_555 1_555
H6 C2 1_555 1_555
C3 C2 1_555 1_555
C4 C3 1_555 1_555
H7 C4 1_555 1_555
H8 C4 1_555 1_555
C5 C4 1_555 1_555
H9 C5 1_555 1_555
H10 C5 1_555 1_555
C6 O4 1_555 1_555
C7 C6 1_555 1_555
C8 C7 1_555 1_555
H11 C8 1_555 1_555
H12 C8 1_555 1_555
C9 C8 1_555 1_555
H13 C9 1_555 1_555
H14 C9 1_555 1_555
C10 C9 1_555 1_555
H15 C10 1_555 1_555
H16 C10 1_555 1_555
C11 C2 1_555 1_555
H17 C11 1_555 1_555
H18 C11 1_555 1_555
H19 C11 1_555 1_555
C12 C3 1_555 1_555
H20 C12 1_555 1_555
C13 C6 1_555 1_555
C14 O1 1_555 1_555
C15 C7 1_555 1_555
H21 C15 1_555 1_555
C16 C10 1_555 1_555
C17 C16 1_555 1_555
H22 C17 1_555 1_555
H23 C17 1_555 1_555
H24 C17 1_555 1_555
C18 C16 1_555 1_555
H25 C18 1_555 1_555
H26 C18 1_555 1_555
H27 C18 1_555 1_555
C19 C15 1_555 1_555
H28 C19 1_555 1_555
H29 C19 1_555 1_555
C20 O3 1_555 1_555
H30 C20 1_555 1_555
C5 C6 1_555 1_555
C7 C14 1_555 1_555
C12 C13 1_555 1_555
C13 C20 1_555 1_555
C15 C16 1_555 1_555
C19 C20 1_555 1_555

#END
