
#######################################################################
#
#                 Cambridge Crystallographic Data Centre
#                                CCDC 
#
#######################################################################
#
# If this CIF has been generated from an entry in the Cambridge 
# Structural Database, then it will include bibliographic, chemical, 
# crystal, experimental, refinement or atomic coordinate data resulting 
# from the CCDC's data processing and validation procedures.
#
#######################################################################

data_KEDQOC
_chemical_formula_moiety         'C15 H22 B1 N1 O5 S1'
_chemical_name_systematic        
'(S)-4-((R)-1-(4,4,5,5-tetramethyl-1,3,2-dioxaborolan-2-yl)ethyl)-3,4-dihydro[1,2,3] benzoxathiazine 2,2-dioxide'
_symmetry_cell_setting           orthorhombic
_symmetry_space_group_name_H-M   'P 21 21 21'
_symmetry_Int_Tables_number      19
_space_group_name_Hall           'P 2ac 2ab'
loop_
_symmetry_equiv_pos_site_id
_symmetry_equiv_pos_as_xyz
1 x,y,z
2 1/2-x,-y,1/2+z
3 -x,1/2+y,1/2-z
4 1/2+x,1/2-y,-z
_cell_length_a                   9.3081(12)
_cell_length_b                   12.9894(16)
_cell_length_c                   14.3020(18)
_cell_angle_alpha                90
_cell_angle_beta                 90
_cell_angle_gamma                90
_cell_volume                     1729.21
_exptl_crystal_colour            colorless
_exptl_crystal_description       block
_cell_formula_units_Z            4
_exptl_crystal_recrystallization_method 
'Re-crystallisation from solvent: Hexane/diethyl ether'
loop_
_atom_site_label
_atom_site_type_symbol
_atom_site_fract_x
_atom_site_fract_y
_atom_site_fract_z
N1 N 0.88842(11) 0.53705(7) 0.38023(7)
H1 H 0.8848 0.5656 0.3245
O1 O 1.06633(10) 0.44170(9) 0.47434(7)
O2 O 1.00868(11) 0.38238(8) 0.31427(7)
O3 O 0.83839(11) 0.35713(7) 0.43669(7)
O4 O 0.47447(9) 0.69913(6) 0.36880(6)
O5 O 0.60171(8) 0.55855(6) 0.31897(6)
S1 S 0.96597(3) 0.42864(2) 0.400110(19)
B1 B 0.60065(13) 0.64632(9) 0.37298(8)
C1 C 0.74599(13) 0.40020(8) 0.50437(8)
C2 C 0.66461(16) 0.32812(9) 0.55263(9)
H2 H 0.6764 0.2567 0.5407
C3 C 0.56611(16) 0.36178(11) 0.61833(9)
H3 H 0.5082 0.3136 0.6511
C4 C 0.55234(15) 0.46693(10) 0.63615(9)
H4 H 0.4856 0.4905 0.6816
C5 C 0.63596(13) 0.53692(9) 0.58763(8)
H5 H 0.6264 0.6082 0.6013
C6 C 0.73409(11) 0.50616(8) 0.51902(7)
C7 C 0.82317(11) 0.58466(8) 0.46521(7)
H6 H 0.9025 0.6091 0.5067
C8 C 0.73492(12) 0.67910(8) 0.43347(8)
H7 H 0.6970 0.7128 0.4913
C9 C 0.82989(14) 0.75869(10) 0.38363(11)
H8 H 0.9117 0.7763 0.4237
H9 H 0.7735 0.8208 0.3708
H10 H 0.8650 0.7297 0.3246
C10 C 0.45227(12) 0.53917(8) 0.29130(7)
C11 C 0.39145(15) 0.46592(10) 0.36382(10)
H11 H 0.4535 0.4052 0.3687
H12 H 0.2947 0.4446 0.3451
H13 H 0.3869 0.5007 0.4246
C12 C 0.38648(13) 0.64929(9) 0.29601(8)
C13 C 0.40873(19) 0.71013(11) 0.20576(11)
H14 H 0.3814 0.7821 0.2159
H15 H 0.3490 0.6806 0.1561
H16 H 0.5100 0.7066 0.1874
C14 C 0.23049(13) 0.65247(12) 0.32657(12)
H17 H 0.2224 0.6265 0.3907
H18 H 0.1727 0.6094 0.2847
H19 H 0.1955 0.7236 0.3241
C15 C 0.45210(16) 0.49084(11) 0.19488(9)
H20 H 0.5099 0.5330 0.1523
H21 H 0.3533 0.4868 0.1715
H22 H 0.4930 0.4214 0.1984
loop_
_geom_bond_atom_site_label_1
_geom_bond_atom_site_label_2
_geom_bond_site_symmetry_1
_geom_bond_site_symmetry_2
N1 H1 1_555 1_555
O1 S1 1_555 1_555
O2 S1 1_555 1_555
O3 S1 1_555 1_555
O4 B1 1_555 1_555
O5 B1 1_555 1_555
S1 N1 1_555 1_555
B1 C8 1_555 1_555
C1 O3 1_555 1_555
C2 C1 1_555 1_555
H2 C2 1_555 1_555
C3 C2 1_555 1_555
H3 C3 1_555 1_555
C4 C3 1_555 1_555
H4 C4 1_555 1_555
C5 C4 1_555 1_555
H5 C5 1_555 1_555
C6 C1 1_555 1_555
C7 N1 1_555 1_555
H6 C7 1_555 1_555
C8 C7 1_555 1_555
H7 C8 1_555 1_555
C9 C8 1_555 1_555
H8 C9 1_555 1_555
H9 C9 1_555 1_555
H10 C9 1_555 1_555
C10 O5 1_555 1_555
C11 C10 1_555 1_555
H11 C11 1_555 1_555
H12 C11 1_555 1_555
H13 C11 1_555 1_555
C12 O4 1_555 1_555
C13 C12 1_555 1_555
H14 C13 1_555 1_555
H15 C13 1_555 1_555
H16 C13 1_555 1_555
C14 C12 1_555 1_555
H17 C14 1_555 1_555
H18 C14 1_555 1_555
H19 C14 1_555 1_555
C15 C10 1_555 1_555
H20 C15 1_555 1_555
H21 C15 1_555 1_555
H22 C15 1_555 1_555
C5 C6 1_555 1_555
C6 C7 1_555 1_555
C10 C12 1_555 1_555

#END
