
#######################################################################
#
#                 Cambridge Crystallographic Data Centre
#                                CCDC 
#
#######################################################################
#
# If this CIF has been generated from an entry in the Cambridge 
# Structural Database, then it will include bibliographic, chemical, 
# crystal, experimental, refinement or atomic coordinate data resulting 
# from the CCDC's data processing and validation procedures.
#
#######################################################################

data_KEDXUP
_chemical_formula_moiety         'C19 H13 N1 O5'
_chemical_name_systematic        
2-methyl-4-(4-nitrophenyl)-4H,5H-pyrano[3,2-c]chromen-5-one
_symmetry_cell_setting           orthorhombic
_symmetry_space_group_name_H-M   'P b c n'
_symmetry_Int_Tables_number      60
_space_group_name_Hall           '-P 2n 2ab'
loop_
_symmetry_equiv_pos_site_id
_symmetry_equiv_pos_as_xyz
1 x,y,z
2 1/2-x,1/2-y,1/2+z
3 1/2+x,1/2-y,-z
4 -x,y,1/2-z
5 -x,-y,-z
6 1/2+x,1/2+y,1/2-z
7 1/2-x,1/2+y,z
8 x,-y,1/2+z
_cell_length_a                   13.7944(4)
_cell_length_b                   7.4249(3)
_cell_length_c                   30.4072(12)
_cell_angle_alpha                90
_cell_angle_beta                 90
_cell_angle_gamma                90
_cell_volume                     3114.37
_exptl_crystal_colour            colorless
_exptl_crystal_description       prism
_cell_formula_units_Z            8
loop_
_atom_site_label
_atom_site_type_symbol
_atom_site_fract_x
_atom_site_fract_y
_atom_site_fract_z
O1 O 0.45320(12) 0.1250(2) 0.42210(5)
O2 O 0.73041(12) 0.2733(3) 0.45742(5)
C1 C 0.62055(17) 0.1504(3) 0.40292(7)
O3 O 0.78870(13) 0.1877(3) 0.39344(6)
C2 C 0.56090(17) 0.2368(3) 0.47565(7)
C3 C 0.54649(17) 0.1679(3) 0.43170(8)
C4 C 0.43568(18) 0.0389(4) 0.38187(8)
C5 C 0.62056(17) 0.2177(4) 0.32041(8)
C6 C 0.71724(18) 0.2012(4) 0.41595(8)
C7 C 0.60667(17) 0.0790(3) 0.35691(7)
H1 H 0.6522 -0.0205 0.3521
C8 C 0.50442(19) 0.0073(4) 0.35316(8)
H2 H 0.4894 -0.0637 0.3289
C9 C 0.48745(19) 0.2541(4) 0.50726(8)
H3 H 0.4247 0.2168 0.5008
C10 C 0.6747(2) 0.3654(4) 0.52717(8)
H4 H 0.7371 0.4039 0.5339
C11 C 0.5080(2) 0.3261(4) 0.54783(9)
H5 H 0.4593 0.3369 0.5688
C12 C 0.62781(18) 0.4618(5) 0.25218(9)
C13 C 0.65423(18) 0.2901(4) 0.48650(8)
C14 C 0.6133(2) 0.4009(4) 0.32819(9)
H6 H 0.6052 0.4419 0.3569
C15 C 0.6332(2) 0.1583(4) 0.27739(9)
H7 H 0.6401 0.0359 0.2717
C16 C 0.6011(2) 0.3825(4) 0.55752(9)
H8 H 0.6143 0.4326 0.5849
C17 C 0.33143(19) -0.0072(4) 0.37797(9)
H9 H 0.3115 -0.0743 0.4034
H10 H 0.3214 -0.0787 0.3521
H11 H 0.2939 0.1014 0.3759
N1 N 0.62880(19) 0.5926(6) 0.21534(10)
C18 C 0.6178(2) 0.5238(4) 0.29415(10)
H12 H 0.6141 0.6467 0.2997
C19 C 0.6356(2) 0.2816(5) 0.24278(9)
H13 H 0.6423 0.2425 0.2139
O4 O 0.6353(2) 0.5317(5) 0.17826(9)
O5 O 0.6201(3) 0.7520(5) 0.22474(10)
loop_
_geom_bond_atom_site_label_1
_geom_bond_atom_site_label_2
_geom_bond_site_symmetry_1
_geom_bond_site_symmetry_2
O1 C3 1_555 1_555
O2 C6 1_555 1_555
C1 C3 1_555 1_555
O3 C6 1_555 1_555
C2 C3 1_555 1_555
C4 O1 1_555 1_555
C5 C7 1_555 1_555
C6 C1 1_555 1_555
C7 C1 1_555 1_555
H1 C7 1_555 1_555
C8 C4 1_555 1_555
H2 C8 1_555 1_555
C9 C2 1_555 1_555
H3 C9 1_555 1_555
C10 H4 1_555 1_555
C11 C9 1_555 1_555
H5 C11 1_555 1_555
C12 N1 1_555 1_555
C13 O2 1_555 1_555
C14 C5 1_555 1_555
H6 C14 1_555 1_555
C15 C5 1_555 1_555
H7 C15 1_555 1_555
C16 C10 1_555 1_555
H8 C16 1_555 1_555
C17 C4 1_555 1_555
H9 C17 1_555 1_555
H10 C17 1_555 1_555
H11 C17 1_555 1_555
N1 O4 1_555 1_555
C18 C12 1_555 1_555
H12 C18 1_555 1_555
C19 C12 1_555 1_555
H13 C19 1_555 1_555
O5 N1 1_555 1_555
C2 C13 1_555 1_555
C7 C8 1_555 1_555
C10 C13 1_555 1_555
C11 C16 1_555 1_555
C14 C18 1_555 1_555
C15 C19 1_555 1_555

#END
