
#######################################################################
#
#                 Cambridge Crystallographic Data Centre
#                                CCDC 
#
#######################################################################
#
# If this CIF has been generated from an entry in the Cambridge 
# Structural Database, then it will include bibliographic, chemical, 
# crystal, experimental, refinement or atomic coordinate data resulting 
# from the CCDC's data processing and validation procedures.
#
#######################################################################

data_KEFFAF
_chemical_formula_moiety         'C17 H20 N3 O1 1+,H2 O1,Cl1 1-'
_chemical_name_systematic        
'1-(2-hydroxy-2-methylpropyl)-3-(pyridin-2-ylmethyl)-1H-3,1-benzimidazol-3-ium chloride monohydrate'
_symmetry_cell_setting           monoclinic
_symmetry_space_group_name_H-M   'P 21/n'
_symmetry_Int_Tables_number      14
_space_group_name_Hall           '-P 2yn'
loop_
_symmetry_equiv_pos_site_id
_symmetry_equiv_pos_as_xyz
1 x,y,z
2 1/2-x,1/2+y,1/2-z
3 -x,-y,-z
4 1/2+x,1/2-y,1/2+z
_cell_length_a                   10.4612(6)
_cell_length_b                   8.7357(5)
_cell_length_c                   18.4746(10)
_cell_angle_alpha                90
_cell_angle_beta                 100.2190(10)
_cell_angle_gamma                90
_cell_volume                     1661.54
_exptl_crystal_colour            white
_exptl_crystal_description       block
_cell_formula_units_Z            4
loop_
_atom_site_label
_atom_site_type_symbol
_atom_site_fract_x
_atom_site_fract_y
_atom_site_fract_z
Cl1 Cl 1.20401(4) 2.02184(5) 1.15044(2)
O1 O -0.13368(14) 0.75821(16) 0.72859(7)
H1 H -0.182(3) 0.687(3) 0.7159(14)
H2 H -0.163(3) 0.813(3) 0.7622(16)
O2 O 0.49099(12) 0.56971(14) 1.12780(7)
N1 N 0.15894(13) 0.72055(14) 0.98062(7)
N2 N 0.22818(13) 0.52637(15) 1.05103(7)
C1 C 0.38696(18) 1.0510(2) 0.82557(10)
H3 H 0.4470 1.0924 0.7978
C2 C 0.27352(19) 0.9851(2) 0.79103(10)
H4 H 0.2541 0.9792 0.7389
C3 C 0.18771(17) 0.9272(2) 0.83298(9)
H5 H 0.1083 0.8813 0.8103
C4 C 0.21971(16) 0.93751(17) 0.90808(9)
C5 C 0.12885(16) 0.87918(17) 0.95688(9)
H6 H 0.1355 0.9458 1.0007
H7 H 0.0384 0.8845 0.9298
C6 C 0.22318(16) 0.67825(18) 1.04622(8)
H8 H 0.2602 0.7467 1.0842
C7 C 0.28510(16) 0.43853(18) 1.11640(8)
H9 H 0.2452 0.3355 1.1134
H10 H 0.2641 0.4899 1.1606
C8 C 0.43258(16) 0.42142(19) 1.12511(9)
C9 C 0.47183(18) 0.3377(2) 1.06064(10)
H11 H 0.4396 0.3938 1.0151
H12 H 0.4345 0.2345 1.0573
H13 H 0.5667 0.3306 1.0678
C10 C 0.41242(19) 1.0563(2) 0.90136(11)
H14 H 0.4913 1.1019 0.9251
N3 N 0.33057(15) 0.99988(17) 0.94319(8)
C11 C 0.11943(15) 0.58961(17) 0.94024(8)
C12 C 0.04428(16) 0.57085(19) 0.87063(9)
H15 H 0.0140 0.6555 0.8401
C13 C 0.01654(16) 0.4214(2) 0.84885(9)
H16 H -0.0351 0.4027 0.8020
C14 C 0.06197(17) 0.29652(19) 0.89359(10)
H17 H 0.0409 0.1958 0.8760
C15 C 0.13648(16) 0.31562(18) 0.96250(9)
H18 H 0.1676 0.2310 0.9929
C16 C 0.16338(15) 0.46597(18) 0.98493(8)
C17 C 0.47623(18) 0.3338(2) 1.19628(9)
H19 H 0.5706 0.3194 1.2042
H20 H 0.4333 0.2338 1.1931
H21 H 0.4530 0.3919 1.2375
H22 H 0.464(2) 0.617(3) 1.1604(13)
loop_
_geom_bond_atom_site_label_1
_geom_bond_atom_site_label_2
_geom_bond_site_symmetry_1
_geom_bond_site_symmetry_2
O1 H1 1_555 1_555
H2 O1 1_555 1_555
O2 C8 1_555 1_555
N1 C5 1_555 1_555
N2 C6 1_555 1_555
C1 H3 1_555 1_555
C2 C1 1_555 1_555
H4 C2 1_555 1_555
C3 C2 1_555 1_555
H5 C3 1_555 1_555
C4 C3 1_555 1_555
C5 C4 1_555 1_555
H6 C5 1_555 1_555
H7 C5 1_555 1_555
C6 N1 1_555 1_555
H8 C6 1_555 1_555
C7 N2 1_555 1_555
H9 C7 1_555 1_555
H10 C7 1_555 1_555
C8 C7 1_555 1_555
C9 C8 1_555 1_555
H11 C9 1_555 1_555
H12 C9 1_555 1_555
H13 C9 1_555 1_555
C10 C1 1_555 1_555
H14 C10 1_555 1_555
N3 C4 1_555 1_555
C11 N1 1_555 1_555
C12 C11 1_555 1_555
H15 C12 1_555 1_555
C13 C12 1_555 1_555
H16 C13 1_555 1_555
C14 C13 1_555 1_555
H17 C14 1_555 1_555
C15 C14 1_555 1_555
H18 C15 1_555 1_555
C16 N2 1_555 1_555
C17 C8 1_555 1_555
H19 C17 1_555 1_555
H20 C17 1_555 1_555
H21 C17 1_555 1_555
H22 O2 1_555 1_555
C10 N3 1_555 1_555
C11 C16 1_555 1_555
C15 C16 1_555 1_555

#END
