
#######################################################################
#
#                 Cambridge Crystallographic Data Centre
#                                CCDC 
#
#######################################################################
#
# If this CIF has been generated from an entry in the Cambridge 
# Structural Database, then it will include bibliographic, chemical, 
# crystal, experimental, refinement or atomic coordinate data resulting 
# from the CCDC's data processing and validation procedures.
#
#######################################################################

data_KEFJUD
_chemical_formula_moiety         'C16 H13 N3 O4'
_chemical_name_systematic        
N-(2-(4,5-dihydro-1,3-oxazol-2-yl)-4-nitrophenyl)benzamide
_symmetry_cell_setting           triclinic
_symmetry_space_group_name_H-M   'P -1'
_symmetry_Int_Tables_number      2
_space_group_name_Hall           '-P 1'
loop_
_symmetry_equiv_pos_site_id
_symmetry_equiv_pos_as_xyz
1 x,y,z
2 -x,-y,-z
_cell_length_a                   7.262(3)
_cell_length_b                   9.019(4)
_cell_length_c                   11.642(5)
_cell_angle_alpha                81.404(5)
_cell_angle_beta                 84.393(6)
_cell_angle_gamma                71.800(5)
_cell_volume                     715.163
_cell_formula_units_Z            2
loop_
_atom_site_label
_atom_site_type_symbol
_atom_site_fract_x
_atom_site_fract_y
_atom_site_fract_z
C1 C 0.9017(3) 0.3765(2) 0.68044(16)
H1 H 0.9214 0.3399 0.6083
C2 C 0.9779(3) 0.2764(2) 0.77629(19)
H2 H 1.0500 0.1729 0.7684
C3 C 0.9486(3) 0.3277(3) 0.88501(19)
H3 H 0.9999 0.2593 0.9501
C4 C 0.8423(3) 0.4816(3) 0.89527(17)
H4 H 0.8215 0.5170 0.9679
C5 C 0.7668(3) 0.5831(2) 0.79970(16)
H5 H 0.6959 0.6868 0.8080
C6 C 0.7953(3) 0.5323(2) 0.68977(15)
C7 C 0.7067(3) 0.6498(2) 0.59028(15)
C8 C 0.6148(2) 0.66595(19) 0.38749(14)
C9 C 0.5201(3) 0.8282(2) 0.36971(16)
H6 H 0.5088 0.8886 0.4296
C10 C 0.4438(3) 0.8988(2) 0.26456(17)
H7 H 0.3809 1.0065 0.2533
C11 C 0.4612(3) 0.8091(2) 0.17603(15)
C12 C 0.5544(2) 0.6496(2) 0.18982(14)
H8 H 0.5655 0.5915 0.1285
C13 C 0.6315(2) 0.57614(19) 0.29499(14)
C14 C 0.7293(2) 0.40463(19) 0.30666(14)
C15 C 0.8364(4) 0.1712(2) 0.24038(19)
H9 H 0.9549 0.1329 0.1931
H10 H 0.7486 0.1125 0.2309
C16 C 0.8794(3) 0.1555(2) 0.36614(18)
H11 H 0.8188 0.0838 0.4136
H12 H 1.0182 0.1175 0.3758
N1 N 0.7960(2) 0.31639(17) 0.39787(13)
N2 N 0.3764(2) 0.8822(2) 0.06484(15)
N3 N 0.6918(2) 0.58820(16) 0.49282(12)
H13 H 0.7361 0.4874 0.4969
O1 O 0.6509(3) 0.79031(15) 0.59803(13)
O2 O 0.7468(2) 0.33845(15) 0.20808(11)
O3 O 0.4158(3) 0.80521(19) -0.01694(13)
O4 O 0.2689(3) 1.01776(19) 0.05938(15)
loop_
_geom_bond_atom_site_label_1
_geom_bond_atom_site_label_2
_geom_bond_site_symmetry_1
_geom_bond_site_symmetry_2
C1 H1 1_555 1_555
C2 C1 1_555 1_555
H2 C2 1_555 1_555
C3 C2 1_555 1_555
H3 C3 1_555 1_555
C4 C3 1_555 1_555
H4 C4 1_555 1_555
C5 C4 1_555 1_555
H5 C5 1_555 1_555
C6 C1 1_555 1_555
C7 C6 1_555 1_555
C8 C9 1_555 1_555
C9 H6 1_555 1_555
C10 C9 1_555 1_555
H7 C10 1_555 1_555
C11 C10 1_555 1_555
C12 C11 1_555 1_555
H8 C12 1_555 1_555
C13 C8 1_555 1_555
C14 C13 1_555 1_555
C15 H9 1_555 1_555
H10 C15 1_555 1_555
C16 C15 1_555 1_555
H11 C16 1_555 1_555
H12 C16 1_555 1_555
N1 C14 1_555 1_555
N2 C11 1_555 1_555
N3 C7 1_555 1_555
H13 N3 1_555 1_555
O1 C7 1_555 1_555
O2 C14 1_555 1_555
O3 N2 1_555 1_555
O4 N2 1_555 1_555
C5 C6 1_555 1_555
C8 N3 1_555 1_555
C12 C13 1_555 1_555
C15 O2 1_555 1_555
C16 N1 1_555 1_555

#END
