
#######################################################################
#
#                 Cambridge Crystallographic Data Centre
#                                CCDC 
#
#######################################################################
#
# If this CIF has been generated from an entry in the Cambridge 
# Structural Database, then it will include bibliographic, chemical, 
# crystal, experimental, refinement or atomic coordinate data resulting 
# from the CCDC's data processing and validation procedures.
#
#######################################################################

data_KEFKEO
_chemical_formula_moiety         'C38 H33 N1 O5 S2 Se1'
_chemical_name_systematic        
3-methyl-1-[(4-methylphenyl)sulfonyl]-3-{[(4-methylphenyl)sulfonyl]methyl}-4-[phenyl(phenylselanyl)methylidene]-3,4-dihydroquinolin-2(1H)-one
_symmetry_cell_setting           monoclinic
_symmetry_space_group_name_H-M   'P 21/n'
_symmetry_Int_Tables_number      14
_space_group_name_Hall           '-P 2yn'
loop_
_symmetry_equiv_pos_site_id
_symmetry_equiv_pos_as_xyz
1 x,y,z
2 1/2-x,1/2+y,1/2-z
3 -x,-y,-z
4 1/2+x,1/2-y,1/2+z
_cell_length_a                   17.6000(15)
_cell_length_b                   11.2291(9)
_cell_length_c                   18.2881(16)
_cell_angle_alpha                90
_cell_angle_beta                 105.063(2)
_cell_angle_gamma                90
_cell_volume                     3490.13
_exptl_crystal_colour            white
_exptl_crystal_description       block
_cell_formula_units_Z            4
loop_
_atom_site_label
_atom_site_type_symbol
_atom_site_fract_x
_atom_site_fract_y
_atom_site_fract_z
Se1 Se 0.723254(19) 0.79049(3) 0.525248(16)
N1 N 0.72457(12) 0.57145(18) 0.31447(11)
O1 O 0.84634(12) 0.49106(17) 0.34042(11)
O2 O 0.76609(14) 0.5787(2) 0.19045(11)
O3 O 0.68251(12) 0.7359(2) 0.22089(12)
O4 O 0.76022(13) 0.20394(19) 0.53171(12)
O5 O 0.66768(14) 0.36620(19) 0.53799(10)
S1 S 0.74648(5) 0.65612(8) 0.24469(4)
S2 S 0.69575(5) 0.27784(6) 0.49422(4)
C1 C 0.78682(17) 0.5051(2) 0.35921(14)
C2 C 0.77593(14) 0.4572(2) 0.43553(13)
C3 C 0.73900(14) 0.5635(2) 0.46640(13)
C4 C 0.65993(14) 0.5893(2) 0.41520(13)
C5 C 0.65350(15) 0.5902(2) 0.33744(14)
C6 C 0.58096(17) 0.6018(3) 0.28560(15)
H1 H 0.5773 0.6006 0.2339
C7 C 0.51479(18) 0.6150(3) 0.31083(17)
H2 H 0.4663 0.6257 0.2761
C8 C 0.51931(17) 0.6125(3) 0.38729(17)
H3 H 0.4739 0.6207 0.4039
C9 C 0.59107(15) 0.5981(2) 0.43894(15)
H4 H 0.5936 0.5942 0.4903
C10 C 0.83001(17) 0.7365(2) 0.29185(16)
C11 C 0.9022(2) 0.7108(3) 0.2796(2)
H5 H 0.9072 0.6502 0.2465
C12 C 0.9664(2) 0.7756(4) 0.3168(2)
H6 H 1.0151 0.7587 0.3082
C13 C 0.9609(2) 0.8649(4) 0.3663(2)
C14 C 0.8881(2) 0.8905(3) 0.3771(2)
H7 H 0.8832 0.9516 0.4099
C15 C 0.82238(19) 0.8269(3) 0.33996(18)
H8 H 0.7734 0.8450 0.3475
C16 C 1.0330(2) 0.9347(4) 0.4083(3)
H9 H 1.0543 0.8997 0.4572
H10 H 1.0183 1.0158 0.4143
H11 H 1.0718 0.9328 0.3799
C17 C 0.71852(16) 0.3496(2) 0.41551(12)
H12 H 0.7413 0.2912 0.3884
H13 H 0.6698 0.3771 0.3814
C18 C 0.61592(16) 0.1845(2) 0.45094(14)
C19 C 0.5403(2) 0.2267(3) 0.43725(18)
H14 H 0.5312 0.3062 0.4463
C20 C 0.47822(19) 0.1507(3) 0.41006(18)
H15 H 0.4272 0.1800 0.4009
C21 C 0.48941(18) 0.0325(3) 0.39605(15)
C22 C 0.56579(18) -0.0074(3) 0.40765(15)
H16 H 0.5749 -0.0862 0.3967
C23 C 0.62904(17) 0.0677(2) 0.43525(15)
H17 H 0.6802 0.0393 0.4432
C24 C 0.42078(19) -0.0521(3) 0.37166(18)
H18 H 0.4066 -0.0819 0.4155
H19 H 0.4353 -0.1174 0.3442
H20 H 0.3767 -0.0109 0.3397
C25 C 0.85666(15) 0.4126(2) 0.48062(15)
H21 H 0.8939 0.4767 0.4878
H22 H 0.8736 0.3492 0.4534
H23 H 0.8531 0.3838 0.5290
C26 C 0.77417(14) 0.6380(2) 0.52256(13)
C27 C 0.85100(15) 0.6247(2) 0.57870(13)
C28 C 0.91349(17) 0.6983(3) 0.57668(17)
H24 H 0.9072 0.7573 0.5399
C29 C 0.9853(2) 0.6844(4) 0.6293(2)
H25 H 1.0274 0.7330 0.6272
C30 C 0.9942(2) 0.5998(5) 0.6843(2)
H26 H 1.0425 0.5913 0.7197
C31 C 0.9333(2) 0.5278(4) 0.68780(17)
H27 H 0.9402 0.4700 0.7254
C32 C 0.86074(17) 0.5403(3) 0.63540(14)
H28 H 0.8188 0.4919 0.6385
C33 C 0.76132(14) 0.8386(2) 0.62859(14)
C34 C 0.78908(15) 0.9530(2) 0.64218(15)
H29 H 0.7934 1.0015 0.6022
C35 C 0.81064(16) 0.9958(3) 0.71604(17)
H30 H 0.8293 1.0734 0.7253
C36 C 0.80478(18) 0.9254(3) 0.77513(17)
H31 H 0.8193 0.9548 0.8243
C37 C 0.77758(19) 0.8115(3) 0.76169(17)
H32 H 0.7741 0.7630 0.8020
C38 C 0.75513(18) 0.7678(3) 0.68855(17)
H33 H 0.7358 0.6906 0.6797
loop_
_geom_bond_atom_site_label_1
_geom_bond_atom_site_label_2
_geom_bond_site_symmetry_1
_geom_bond_site_symmetry_2
Se1 C26 1_555 1_555
N1 S1 1_555 1_555
O1 C1 1_555 1_555
O2 S1 1_555 1_555
O3 S1 1_555 1_555
O4 S2 1_555 1_555
O5 S2 1_555 1_555
S1 C10 1_555 1_555
S2 C17 1_555 1_555
C1 N1 1_555 1_555
C2 C1 1_555 1_555
C3 C2 1_555 1_555
C4 C3 1_555 1_555
C5 N1 1_555 1_555
C6 C5 1_555 1_555
H1 C6 1_555 1_555
C7 C6 1_555 1_555
H2 C7 1_555 1_555
C8 C7 1_555 1_555
H3 C8 1_555 1_555
C9 C4 1_555 1_555
H4 C9 1_555 1_555
C10 C11 1_555 1_555
C11 H5 1_555 1_555
C12 C11 1_555 1_555
H6 C12 1_555 1_555
C13 C12 1_555 1_555
C14 C13 1_555 1_555
H7 C14 1_555 1_555
C15 C10 1_555 1_555
H8 C15 1_555 1_555
C16 C13 1_555 1_555
H9 C16 1_555 1_555
H10 C16 1_555 1_555
H11 C16 1_555 1_555
C17 C2 1_555 1_555
H12 C17 1_555 1_555
H13 C17 1_555 1_555
C18 S2 1_555 1_555
C19 C18 1_555 1_555
H14 C19 1_555 1_555
C20 C19 1_555 1_555
H15 C20 1_555 1_555
C21 C20 1_555 1_555
C22 C21 1_555 1_555
H16 C22 1_555 1_555
C23 C18 1_555 1_555
H17 C23 1_555 1_555
C24 C21 1_555 1_555
H18 C24 1_555 1_555
H19 C24 1_555 1_555
H20 C24 1_555 1_555
C25 C2 1_555 1_555
H21 C25 1_555 1_555
H22 C25 1_555 1_555
H23 C25 1_555 1_555
C26 C3 1_555 1_555
C27 C26 1_555 1_555
C28 C27 1_555 1_555
H24 C28 1_555 1_555
C29 C28 1_555 1_555
H25 C29 1_555 1_555
C30 C29 1_555 1_555
H26 C30 1_555 1_555
C31 C30 1_555 1_555
H27 C31 1_555 1_555
C32 C27 1_555 1_555
H28 C32 1_555 1_555
C33 Se1 1_555 1_555
C34 C33 1_555 1_555
H29 C34 1_555 1_555
C35 C34 1_555 1_555
H30 C35 1_555 1_555
C36 C35 1_555 1_555
H31 C36 1_555 1_555
C37 C36 1_555 1_555
H32 C37 1_555 1_555
C38 C33 1_555 1_555
H33 C38 1_555 1_555
C4 C5 1_555 1_555
C8 C9 1_555 1_555
C14 C15 1_555 1_555
C22 C23 1_555 1_555
C31 C32 1_555 1_555
C37 C38 1_555 1_555

#END
