
#######################################################################
#
#                 Cambridge Crystallographic Data Centre
#                                CCDC 
#
#######################################################################
#
# If this CIF has been generated from an entry in the Cambridge 
# Structural Database, then it will include bibliographic, chemical, 
# crystal, experimental, refinement or atomic coordinate data resulting 
# from the CCDC's data processing and validation procedures.
#
#######################################################################

data_KEFQEU
_chemical_formula_moiety         'C3 N9 O10 1-,H4 N1 O1 1+,H2 O1'
_chemical_name_systematic        
'hydroxyammonium 3-nitro-5-(nitroimino)-1-(trinitromethyl)-1,5-dihydro-1,2,4-triazol-4-ide monohydrate'
_symmetry_cell_setting           monoclinic
_symmetry_space_group_name_H-M   'P 21'
_symmetry_Int_Tables_number      4
_space_group_name_Hall           'P 2yb'
loop_
_symmetry_equiv_pos_site_id
_symmetry_equiv_pos_as_xyz
1 x,y,z
2 -x,1/2+y,-z
_cell_length_a                   7.8388(15)
_cell_length_b                   7.8730(15)
_cell_length_c                   10.987(2)
_cell_angle_alpha                90
_cell_angle_beta                 90.413(11)
_cell_angle_gamma                90
_cell_volume                     678.044
_exptl_crystal_colour            colorless
_exptl_crystal_description       block
_cell_formula_units_Z            2
loop_
_atom_site_label
_atom_site_type_symbol
_atom_site_fract_x
_atom_site_fract_y
_atom_site_fract_z
N1 N 1.3931(3) 1.1807(4) 1.1691(3)
N2 N 1.6407(4) 1.0790(4) 1.2565(3)
N3 N 1.7754(4) 1.4938(5) 1.3157(3)
O1 O 1.6058(4) 0.7889(5) 1.1287(3)
O2 O 1.3803(4) 0.8907(5) 1.0363(3)
N4 N 1.6017(4) 1.2381(5) 1.3008(3)
O3 O 1.2442(5) 1.6792(5) 1.2513(4)
N5 N 1.6273(5) 1.3725(5) 1.5037(3)
O4 O 1.7940(4) 1.4772(5) 1.2075(3)
N6 N 1.4084(4) 1.4579(5) 1.2797(3)
N7 N 1.4984(4) 0.8996(5) 1.1109(3)
N8 N 1.2830(4) 1.5325(5) 1.2161(3)
O5 O 1.2126(5) 1.4684(5) 1.1274(4)
O6 O 1.7171(5) 1.4520(5) 1.5739(3)
O7 O 1.8447(5) 1.1035(5) 1.4788(3)
O8 O 1.7994(5) 1.6208(5) 1.3761(3)
N9 N 1.8717(4) 1.2231(5) 1.4119(3)
O9 O 1.4876(5) 1.3189(6) 1.5206(3)
C1 C 1.4521(4) 1.2999(5) 1.2450(3)
O10 O 2.0054(4) 1.2682(6) 1.3674(4)
C2 C 1.5112(4) 1.0558(5) 1.1820(3)
C3 C 1.7112(4) 1.3289(5) 1.3798(3)
N10 N 1.0881(4) 2.1393(5) 1.0212(4)
H1 H 1.1687 2.1716 1.0701
H2 H 1.1370 2.1460 0.9417
O11 O 0.9383(12) 2.2366(12) 1.0144(11)
H3 H 0.8706 2.1912 0.9673
H4 H 1.037(11) 2.060(13) 1.077(8)
O13 O 0.9735(8) 1.8793(12) 1.1787(12)
H6 H 1.0598 1.8278 1.2080
H7 H 0.9046 1.9029 1.2356
O12? O 0.9495(12) 2.1793(17) 1.0824(11)
H5? H 0.9335 2.2821 1.0783
O14? O 0.988(3) 1.929(3) 1.248(3)
H8? H 0.9491 1.9946 1.3032
H9? H 1.0760 1.8782 1.2753
loop_
_geom_bond_atom_site_label_1
_geom_bond_atom_site_label_2
_geom_bond_site_symmetry_1
_geom_bond_site_symmetry_2
N1 C1 1_555 1_555
N2 N4 1_555 1_555
N3 O4 1_555 1_555
O1 N7 1_555 1_555
O2 N7 1_555 1_555
N4 C1 1_555 1_555
O3 N8 1_555 1_555
N5 O6 1_555 1_555
N6 N8 1_555 1_555
N7 C2 1_555 1_555
N8 O5 1_555 1_555
O7 N9 1_555 1_555
O8 N3 1_555 1_555
N9 O10 1_555 1_555
O9 N5 1_555 1_555
C1 N6 1_555 1_555
C2 N1 1_555 1_555
C3 N3 1_555 1_555
N10 H1 1_555 1_555
H2 N10 1_555 1_555
O11 N10 1_555 1_555
H3 O11 1_555 1_555
H4 N10 1_555 1_555
O13 H6 1_555 1_555
H7 O13 1_555 1_555
N2 C2 1_555 1_555
N4 C3 1_555 1_555
N5 C3 1_555 1_555
N9 C3 1_555 1_555

#END
