
#######################################################################
#
#                 Cambridge Crystallographic Data Centre
#                                CCDC 
#
#######################################################################
#
# If this CIF has been generated from an entry in the Cambridge 
# Structural Database, then it will include bibliographic, chemical, 
# crystal, experimental, refinement or atomic coordinate data resulting 
# from the CCDC's data processing and validation procedures.
#
#######################################################################

data_KEFQIX
_chemical_formula_moiety         'C100 H101 F7 N14 O16,C6 H14,6(C2 H4 Cl2)'
_chemical_name_systematic        
't-Butyl (3-(((8-((3-(((8-((3-(((8-((3-((t-butoxycarbonyl)amino)-2-fluorophenyl)carbamoyl)-4,6-bis(2-methylpropoxy)pyrido(3,2-g)quinolin-2-yl)carbonyl)amino)-2-fluorophenyl)carbamoyl)-10-fluoro-4,6-bis(2-methylpropoxy)pyrido(3,2-g)quinolin-2-yl)carbonyl)amino)-2-fluorophenyl)carbamoyl)-10-fluoro-4,6-bis(2-methylpropoxy)pyrido(3,2-g)quinolin-2-yl)carbonyl)amino)-2-fluorophenyl)carbamate 1,2-dichloroethane n-hexane solvate'
_symmetry_cell_setting           triclinic
_symmetry_space_group_name_H-M   'P -1'
_symmetry_Int_Tables_number      2
_space_group_name_Hall           '-P 1'
loop_
_symmetry_equiv_pos_site_id
_symmetry_equiv_pos_as_xyz
1 x,y,z
2 -x,-y,-z
_cell_length_a                   22.924(5)
_cell_length_b                   23.927(5)
_cell_length_c                   27.624(6)
_cell_angle_alpha                111.57(3)
_cell_angle_beta                 91.20(3)
_cell_angle_gamma                111.53(3)
_cell_volume                     12893.1
_exptl_crystal_colour            yellow
_exptl_crystal_description       block
_cell_formula_units_Z            4
loop_
_atom_site_label
_atom_site_type_symbol
_atom_site_fract_x
_atom_site_fract_y
_atom_site_fract_z
Cl1 Cl 0.79642(19) 0.0361(2) 0.09173(16)
C163 C 0.7857(6) 0.0907(6) 0.0643(5)
H183 H 0.8212 0.1068 0.0475
H184 H 0.7464 0.0691 0.0388
C217 C 0.7835(7) 0.1445(5) 0.1121(6)
H238 H 0.8178 0.1582 0.1406
H239 H 0.7432 0.1301 0.1239
Cl22 Cl 0.7918(3) 0.2082(2) 0.0941(2)
Cl2 Cl 0.28056(13) 0.15233(11) 0.42914(10)
Cl6 Cl 0.19517(13) -0.01341(12) 0.37897(11)
C99 C 0.2691(4) 0.0303(4) 0.3623(4)
H144 H 0.2910 0.0013 0.3489
H145 H 0.2598 0.0429 0.3344
C157 C 0.3110(5) 0.0892(5) 0.4081(4)
H176 H 0.3527 0.1067 0.3991
H177 H 0.3163 0.0771 0.4373
Cl3 Cl 0.35072(13) 0.98064(12) 0.19860(11)
Cl4 Cl 0.25627(19) 0.82957(17) 0.04426(12)
C58 C 0.3175(8) 0.8876(7) 0.1059(6)
H102 H 0.3269 0.8639 0.1248
H103 H 0.3567 0.9129 0.0975
C132 C 0.2894(6) 0.9276(6) 0.1354(5)
H161 H 0.2489 0.9023 0.1422
H162 H 0.2827 0.9539 0.1180
Cl5 Cl 0.2736(2) 0.43632(14) 0.29776(12)
Cl15 Cl 0.2185(4) 0.4096(3) 0.17566(19)
C211 C 0.2642(15) 0.3703(9) 0.2360(6)
H226 H 0.3071 0.3739 0.2316
H227 H 0.2437 0.3307 0.2421
C228 C 0.2385(12) 0.3586(10) 0.1943(9)
H257 H 0.1991 0.3203 0.1868
H258 H 0.2647 0.3440 0.1697
Cl7 Cl 0.39437(15) 0.63295(17) 0.39352(11)
Cl9 Cl 0.24645(17) 0.55327(13) 0.41385(13)
C47 C 0.2741(5) 0.6216(5) 0.3966(4)
H86 H 0.2380 0.6237 0.3794
H87 H 0.2935 0.6615 0.4286
C170 C 0.3203(5) 0.6188(5) 0.3614(4)
H188 H 0.3262 0.6513 0.3469
H189 H 0.3036 0.5759 0.3322
Cl8 Cl 0.16827(16) 0.24798(15) 0.04583(13)
Cl18 Cl 0.1670(5) 0.4064(2) 0.0076(3)
C97 C 0.1904(9) 0.3407(12) -0.0017(10)
H141 H 0.1729 0.3060 -0.0369
H142 H 0.2364 0.3556 0.0050
C212 C 0.1604(11) 0.3193(6) 0.0404(7)
H228 H 0.1153 0.3097 0.0338
H229 H 0.1788 0.3563 0.0744
Cl10 Cl 0.3625(3) 0.54021(17) 0.21482(19)
Cl11 Cl 0.5537(2) 0.6921(3) 0.27931(18)
C233 C 0.4248(7) 0.6050(9) 0.2610(7)
H267 H 0.4138 0.6428 0.2741
H268 H 0.4318 0.5942 0.2905
C234 C 0.4839(9) 0.6224(9) 0.2399(9)
H269 H 0.4742 0.6282 0.2082
H270 H 0.4948 0.5846 0.2289
Cl12 Cl 0.1491(2) 0.6821(2) 0.45275(18)
Cl17 Cl 0.1971(4) 0.7309(4) 0.5796(3)
C221 C 0.1226(9) 0.6291(12) 0.481(3)
H247 H 0.0862 0.6321 0.4978
H248 H 0.1120 0.5842 0.4569
C222 C 0.1762(10) 0.6530(7) 0.5181(7)
H249 H 0.2121 0.6596 0.4997
H250 H 0.1733 0.6186 0.5296
Cl13 Cl 0.0784(2) 0.32321(19) 0.27498(17)
Cl14 Cl 0.1057(3) 0.4289(2) 0.4446(2)
C215 C 0.1101(9) 0.3597(8) 0.3428(7)
H235 H 0.1117 0.3269 0.3548
H236 H 0.1529 0.3929 0.3497
C230 C 0.0649(18) 0.3921(12) 0.3726(8)
H262 H 0.0220 0.3594 0.3667
H263 H 0.0634 0.4257 0.3615
Cl16 Cl 0.6201(6) 0.6365(3) 0.1567(2)
C1 C 0.6021(10) 0.6434(8) 0.0961(7)
H1 H 0.5688 0.6033 0.0706
H2 H 0.5904 0.6801 0.1020
Cl19 Cl 0.6932(5) 0.7296(4) 0.0885(3)
C214 C 0.6728(15) 0.6563(7) 0.0783(9)
H233 H 0.7010 0.6500 0.1005
H234 H 0.6695 0.6290 0.0414
F1 F 0.3139(4) 0.7412(3) 0.0813(3)
F2 F 0.2224(2) 1.0053(2) 0.22072(17)
F3 F 0.2336(2) 0.8723(2) 0.30284(18)
F8 F 0.4262(2) 1.0341(2) 0.41141(19)
F9 F 0.41996(19) 1.11802(18) 0.18954(16)
O1 O 0.6836(6) 0.8649(5) 0.2161(3)
F11 F 0.4799(3) 0.9456(2) 0.16668(19)
F12 F 0.4387(2) 1.2308(2) 0.44239(16)
O4 O 0.0639(3) 1.1147(3) 0.1411(2)
O5 O 0.6933(3) 1.0830(3) 0.4878(2)
O6 O -0.0592(3) 0.9200(3) 0.1654(2)
O10 O 0.1113(6) 0.6472(5) -0.0050(5)
O11 O 0.1201(6) 0.5545(4) -0.0120(4)
O13 O 0.6678(3) 1.2844(3) 0.4759(2)
O15 O 0.7600(4) 1.0898(4) 0.2436(3)
O17 O 0.5413(3) 0.8628(3) 0.4458(2)
O22 O 0.0038(3) 0.7706(3) 0.2319(3)
O23 O 0.3954(3) 1.4250(3) 0.4713(2)
O24 O 0.2955(3) 0.7497(3) 0.3858(2)
O25 O 0.6517(3) 1.2315(3) 0.2136(2)
C2 C -0.1703(5) 0.8946(6) 0.1490(4)
H3 H -0.2124 0.8643 0.1500
C3 C 0.0569(8) 0.6170(7) -0.0468(6)
O26 O 0.3053(3) 1.3307(3) 0.4443(2)
N4 N 0.5588(4) 1.2463(3) 0.4585(3)
H5 H 0.5254 1.2106 0.4504
O27 O 0.3081(3) 1.2548(3) 0.1786(2)
N5 N 0.3980(4) 1.3246(3) 0.4494(3)
H6 H 0.3740 1.2834 0.4383
N6 N 0.2791(3) 0.8243(3) 0.3589(2)
H7 H 0.2989 0.8617 0.3574
N7 N 0.1110(3) 0.8322(3) 0.2626(3)
H8 H 0.1420 0.8662 0.2628
C4 C 0.2747(7) 1.4012(6) 0.5188(4)
H9 H 0.2723 1.3715 0.5353
H10 H 0.2437 1.4194 0.5292
H11 H 0.3166 1.4359 0.5297
C6 C -0.1598(6) 0.9656(5) 0.1883(5)
H16 H -0.1924 0.9770 0.1776
H17 H -0.1188 0.9962 0.1878
H18 H -0.1616 0.9671 0.2234
N9 N 0.1953(7) 0.6579(5) 0.0483(5)
H19 H 0.2045 0.6991 0.0585
N10 N 0.1101(3) 0.9135(3) 0.2205(3)
C11 C 0.2925(9) 0.6845(6) 0.0891(6)
C14 C 0.8087(6) 1.1536(6) 0.2687(6)
H32 H 0.7935 1.1820 0.2954
H33 H 0.8223 1.1723 0.2431
C16 C -0.0035(5) 1.1602(5) 0.1192(4)
H34 H -0.0274 1.1184 0.0891
N15 N 0.3968(3) 0.9115(3) 0.4042(2)
C17 C 0.1262(4) 0.7967(4) 0.2883(3)
N18 N 0.5742(3) 1.0656(3) 0.1951(2)
N20 N 0.2316(3) 1.1024(3) 0.1891(2)
N21 N 0.4004(7) 0.7285(4) 0.1391(4)
H43 H 0.4030 0.7663 0.1415
C24 C 0.7574(5) 1.1285(5) 0.5033(4)
H49 H 0.7617 1.1671 0.5342
H50 H 0.7711 1.1421 0.4749
C25 C 0.8649(6) 1.1466(7) 0.2948(7)
H51 H 0.8787 1.1178 0.2664
C26 C 0.0710(7) 0.5794(6) -0.1008(6)
H52 H 0.0862 0.5481 -0.0979
H53 H 0.1029 0.6099 -0.1112
H54 H 0.0327 0.5568 -0.1269
N22 N 0.5458(3) 1.1646(3) 0.2002(2)
H55 H 0.5208 1.1252 0.1950
C27 C 0.1907(4) 0.8200(4) 0.3098(3)
C29 C 0.5464(4) 1.3009(4) 0.4619(3)
C31 C -0.1209(4) 0.8728(5) 0.1647(4)
H59 H -0.1238 0.8717 0.1993
H60 H -0.1278 0.8292 0.1393
C33 C 0.7110(9) 0.8314(7) 0.2799(6)
H61 H 0.6675 0.8211 0.2873
C35 C 0.7988(5) 1.0963(5) 0.5161(5)
H65 H 0.7833 1.0825 0.5443
C36 C 0.7924(6) 1.0338(7) 0.4670(7)
H66 H 0.7484 1.0036 0.4557
H67 H 0.8171 1.0133 0.4763
H68 H 0.8076 1.0461 0.4387
C37 C 0.2139(4) 0.7926(4) 0.3374(3)
C38 C 0.0647(5) 1.1679(4) 0.1290(4)
H70 H 0.0836 1.1672 0.0978
H71 H 0.0897 1.2094 0.1583
C40 C 0.1798(4) 1.1600(5) 0.1603(3)
H72 H 0.1845 1.1952 0.1515
C41 C 0.0564(4) 1.0136(4) 0.1687(3)
H73 H 0.0189 1.0158 0.1579
N26 N 0.4979(5) 0.8412(4) 0.1683(3)
C43 C -0.0340(5) 1.1592(6) 0.1670(5)
H76 H -0.0773 1.1537 0.1600
H77 H -0.0108 1.1998 0.1970
H78 H -0.0331 1.1233 0.1745
C45 C 0.0370(8) 0.6673(7) -0.0518(7)
H80 H 0.0273 0.6907 -0.0187
H81 H -0.0001 0.6463 -0.0789
H82 H 0.0710 0.6975 -0.0609
N27 N 0.5465(3) 1.1305(3) 0.4465(3)
C48 C 0.5938(4) 0.7931(4) 0.4488(4)
H88 H 0.6064 0.8159 0.4874
N28 N 0.3474(3) 1.1831(3) 0.1891(2)
H89 H 0.3351 1.1458 0.1915
C49 C 0.1222(5) 1.1152(4) 0.1567(3)
C54 C 0.5836(5) 0.7206(4) 0.4323(4)
H94 H 0.6226 0.7186 0.4431
H95 H 0.5709 0.6978 0.3946
H96 H 0.5509 0.7004 0.4491
C55 C 0.5458(4) 1.2708(4) 0.2053(3)
H97 H 0.5899 1.2897 0.2091
C60 C 0.1144(4) 1.0599(4) 0.1703(3)
C61 C 0.2119(11) 0.5840(7) 0.0809(7)
H104 H 0.1692 0.5551 0.0703
C64 C 0.1075(4) 0.7127(4) 0.3213(3)
H106 H 0.0790 0.6752 0.3242
C66 C 0.1964(5) 1.3053(5) 0.4416(4)
H109 H 0.1884 1.2817 0.4039
H110 H 0.1635 1.3207 0.4517
H111 H 0.1969 1.2767 0.4584
C68 C 0.6463(5) 0.8266(5) 0.4232(5)
H112 H 0.6516 0.8713 0.4334
H113 H 0.6347 0.8039 0.3854
H114 H 0.6856 0.8256 0.4348
C71 C 0.4310(4) 0.8314(4) 0.4156(3)
H118 H 0.4194 0.7888 0.4132
C74 C 0.3157(4) 0.8030(4) 0.3825(3)
C76 C 0.1678(4) 1.0070(4) 0.2028(3)
C77 C 0.0537(4) 0.8186(4) 0.2380(4)
C78 C 0.5944(5) 1.3639(4) 0.4743(3)
H123 H 0.6374 1.3723 0.4804
C79 C 0.0842(4) 0.7422(4) 0.2945(3)
H124 H 0.0410 0.7251 0.2811
C80 C 0.2650(5) 1.4070(5) 0.4298(4)
H125 H 0.2550 1.3809 0.3924
H126 H 0.3074 1.4407 0.4388
H127 H 0.2351 1.4269 0.4396
O32 O 0.4599(7) 0.6777(4) 0.1548(3)
C81 C 0.1706(4) 0.7370(4) 0.3434(3)
H128 H 0.1844 0.7172 0.3619
C82 C -0.0041(6) 1.2158(5) 0.1049(5)
H129 H 0.0157 1.2149 0.0745
H130 H 0.0190 1.2571 0.1342
H131 H -0.0473 1.2103 0.0970
C83 C 0.1108(4) 0.9598(4) 0.2014(3)
C84 C 0.6475(4) 1.1028(5) 0.4738(3)
C89 C -0.1697(5) 0.8905(6) 0.0925(5)
H133 H -0.2021 0.9027 0.0828
H134 H -0.1779 0.8463 0.0688
H135 H -0.1288 0.9197 0.0906
C90 C 0.4836(4) 1.2932(4) 0.4543(3)
C104 C 0.3831(4) 0.8510(4) 0.4010(3)
C106 C 0.5886(4) 1.0144(4) 0.1967(3)
C108 C 0.6148(4) 1.2409(4) 0.4660(3)
C109 C 0.3679(5) 1.3654(4) 0.4562(3)
C112 C 0.5159(4) 1.2072(3) 0.2002(3)
C113 C 0.4503(4) 1.1811(3) 0.1944(3)
C119 C 0.1738(4) 1.0588(4) 0.1876(3)
C122 C 0.6093(4) 1.1788(4) 0.2074(3)
C124 C 0.0542(4) 0.9640(4) 0.1831(3)
C125 C 0.6228(10) 0.8546(7) 0.2013(5)
C126 C 0.6225(4) 1.1215(4) 0.2091(3)
C127 C 0.8658(5) 1.1428(7) 0.5353(6)
H153 H 0.8686 1.1808 0.5655
H154 H 0.8825 1.1559 0.5078
H155 H 0.8900 1.1222 0.5453
C133 C -0.0067(4) 0.8660(4) 0.1987(3)
H163 H -0.0447 0.8329 0.1978
C135 C 0.6587(5) 1.1636(4) 0.4764(3)
H165 H 0.6995 1.1969 0.4875
C136 C 0.8477(9) 1.1165(10) 0.3331(7)
H166 H 0.8152 1.0729 0.3154
H167 H 0.8320 1.1424 0.3607
H168 H 0.8846 1.1145 0.3481
C141 C 0.5694(4) 0.9884(4) 0.4551(3)
H169 H 0.6018 0.9779 0.4648
C144 C 0.5737(6) 1.4141(4) 0.4768(4)
H170 H 0.6042 1.4558 0.4838
C146 C 0.2337(4) 1.1521(4) 0.1780(3)
C147 C 0.4131(4) 1.2159(4) 0.1938(3)
C148 C 0.6883(5) 1.1351(5) 0.2252(4)
H171 H 0.7207 1.1763 0.2333
C149 C 0.0534(4) 0.8696(4) 0.2171(3)
C150 C 0.4450(4) 1.2806(4) 0.1996(3)
H172 H 0.4223 1.3058 0.1998
C153 C 0.6496(5) 1.0206(5) 0.2116(3)
C154 C 0.2995(4) 1.2022(4) 0.1812(3)
C155 C 0.4917(4) 0.8741(4) 0.4325(3)
C158 C 0.9200(6) 1.2152(7) 0.3177(6)
H178 H 0.9302 1.2304 0.2900
H179 H 0.9567 1.2129 0.3328
H180 H 0.9073 1.2452 0.3447
C159 C 0.4635(5) 1.3417(4) 0.4583(3)
C161 C 0.6052(4) 1.1745(4) 0.4612(3)
C162 C 0.5309(4) 0.7944(4) 0.4324(3)
H181 H 0.5160 0.7689 0.3947
H182 H 0.4990 0.7756 0.4509
C164 C 0.5844(4) 1.0515(4) 0.4585(3)
C165 C 0.5117(5) 1.4034(4) 0.4696(3)
H185 H 0.5007 1.4380 0.4722
C168 C 0.5758(10) 0.8000(9) 0.1895(4)
H187 H 0.5823 0.7651 0.1923
C172 C -0.0054(5) 0.9143(5) 0.1823(4)
C175 C 0.5108(5) 1.3072(4) 0.2051(3)
H191 H 0.5319 1.3503 0.2086
C178 C 0.2612(5) 1.3641(5) 0.4589(4)
C179 C 0.5086(4) 0.9408(4) 0.4379(3)
C180 C 0.7238(6) 0.7840(7) 0.2975(5)
H192 H 0.7251 0.7978 0.3350
H193 H 0.7639 0.7828 0.2893
H194 H 0.6904 0.7410 0.2794
C182 C 0.6964(12) 0.8182(8) 0.2312(6)
H197 H 0.6589 0.7772 0.2163
H198 H 0.7308 0.8103 0.2141
C183 C 0.5479(6) 0.8992(5) 0.1832(3)
C184 C 0.5400(5) 0.9541(5) 0.1825(3)
C185 C 0.7006(5) 1.0851(6) 0.2279(4)
C188 C 0.5356(4) 1.0693(4) 0.4434(3)
C189 C 0.2325(12) 0.6408(8) 0.0712(8)
C192 C 0.4576(4) 0.9563(4) 0.4221(3)
C194 C 0.6123(6) 0.9081(5) 0.1988(3)
C195 C 0.6605(6) 0.9685(6) 0.2128(4)
H205 H 0.7019 0.9745 0.2234
C197 C 0.4742(4) 1.0204(4) 0.4261(3)
C198 C 0.1436(11) 0.6157(9) 0.0100(7)
C200 C 0.5116(8) 0.7917(6) 0.1717(4)
C202 C 0.7396(7) 0.9022(7) 0.3213(5)
H207 H 0.7398 0.9023 0.3561
H208 H 0.7145 0.9250 0.3166
H209 H 0.7825 0.9239 0.3172
C203 C 0.3384(9) 0.6774(7) 0.1192(5)
C209 C 0.2515(15) 0.5711(8) 0.1044(9)
H222 H 0.2381 0.5303 0.1062
C216 C 0.3156(11) 0.6181(6) 0.1280(5)
H237 H 0.3418 0.6104 0.1485
C226 C 0.4542(11) 0.7274(7) 0.1544(5)
C232 C -0.0031(9) 0.5626(8) -0.0373(7)
H264 H 0.0094 0.5300 -0.0336
H265 H -0.0373 0.5421 -0.0669
H266 H -0.0170 0.5834 -0.0056
F4 F 0.1574(2) 0.9105(2) 0.07273(19)
F5 F 0.1632(2) 1.0718(2) 0.32542(19)
F6 F 0.2117(2) 0.7985(3) 0.1603(2)
F7 F 0.4488(2) 0.84545(19) 0.04335(17)
F10 F 0.3567(2) 0.99345(19) 0.05324(17)
O2 O 0.1502(3) 1.0894(3) 0.0290(2)
O3 O -0.0409(3) 0.5892(3) 0.1402(3)
F13 F 0.4046(2) 0.9332(2) 0.27592(19)
F14 F 0.3688(2) 1.1163(2) 0.30919(19)
O7 O -0.0667(3) 0.9527(3) 0.3072(3)
O8 O 0.5861(3) 1.2328(2) 0.0784(2)
O9 O 0.3998(4) 0.6335(3) 0.0055(2)
O12 O 0.1385(3) 0.5728(3) 0.2236(2)
N1 N 0.0872(3) 0.7531(3) 0.1208(3)
O14 O 0.3764(3) 0.7240(3) 0.2820(2)
O16 O 0.3844(3) 1.2572(2) 0.0677(2)
O18 O -0.0552(3) 0.7509(3) 0.0655(3)
O19 O -0.0044(3) 0.9125(4) 0.3390(3)
O20 O 0.4637(3) 1.3952(3) 0.3383(3)
O21 O 0.5062(4) 0.6600(3) 0.0194(3)
N2 N 0.2598(4) 0.7454(3) 0.2124(3)
N3 N 0.1657(3) 1.0076(3) 0.0455(3)
H4 H 0.1962 0.9973 0.0524
O28 O 0.6403(3) 1.0430(3) 0.0748(2)
N8 N 0.3793(4) 0.8107(4) 0.2624(3)
H12 H 0.3559 0.8225 0.2469
O29 O 0.6306(3) 1.3180(3) 0.3437(3)
C5 C 0.4051(7) 0.5406(5) 0.0222(4)
H13 H 0.4509 0.5588 0.0291
H14 H 0.3891 0.4935 0.0078
H15 H 0.3899 0.5558 0.0546
O30 O 0.2182(3) 1.2787(3) 0.3043(3)
O31 O 0.6253(3) 1.0969(4) 0.3344(2)
C8 C 0.1028(8) 0.4874(6) 0.2551(6)
H23 H 0.1200 0.4656 0.2718
N11 N 0.4642(4) 0.7375(3) 0.0336(3)
H24 H 0.4286 0.7417 0.0342
C9 C 0.0475(4) 0.9654(4) 0.0281(3)
H25 H 0.0474 0.9987 0.0184
N12 N 0.2054(4) 1.1814(3) 0.3097(3)
H26 H 0.2270 1.1600 0.3134
C10 C 0.6784(5) 1.3276(4) 0.0864(4)
H27 H 0.6571 1.3295 0.0563
C12 C 0.4064(7) 0.5421(5) -0.0690(4)
H28 H 0.4521 0.5588 -0.0619
H29 H 0.3935 0.5599 -0.0913
H30 H 0.3890 0.4951 -0.0867
N13 N 0.5421(3) 0.9624(3) 0.0646(2)
H31 H 0.5022 0.9547 0.0616
C13 C 0.1061(4) 0.9640(4) 0.0430(3)
C15 C 0.0261(5) 0.7296(4) 0.1039(3)
N14 N 0.0491(4) 0.8180(3) 0.0759(3)
H35 H 0.0870 0.8225 0.0858
N16 N 0.0429(3) 0.9994(3) 0.3207(3)
H36 H 0.0756 0.9935 0.3299
N17 N 0.2887(3) 1.0641(3) 0.0501(2)
N19 N 0.4863(3) 1.0410(3) 0.0645(2)
C18 C 0.1068(5) 0.7189(4) 0.1433(3)
C19 C 0.7519(5) 1.3509(5) 0.0860(5)
H37 H 0.7692 1.3956 0.0896
H38 H 0.7589 1.3235 0.0533
H39 H 0.7725 1.3479 0.1150
C20 C -0.0216(7) 0.8324(7) 0.3726(6)
H40 H -0.0027 0.8100 0.3456
H41 H -0.0505 0.8018 0.3848
H42 H 0.0112 0.8666 0.4017
C21 C 0.1971(4) 0.7158(4) 0.1909(3)
C22 C 0.6540(4) 1.2569(4) 0.0812(4)
H44 H 0.6642 1.2300 0.0495
H45 H 0.6739 1.2549 0.1116
C23 C -0.1069(8) 0.6126(8) 0.2319(6)
H46 H -0.1144 0.6451 0.2609
H47 H -0.0627 0.6200 0.2372
H48 H -0.1327 0.5697 0.2301
C28 C 0.1602(6) 0.5431(5) 0.2528(4)
H56 H 0.1813 0.5754 0.2883
H57 H 0.1904 0.5265 0.2354
N23 N 0.3289(4) 1.2113(3) 0.3150(3)
C30 C -0.0221(5) 0.6726(4) 0.1071(3)
H58 H -0.0650 0.6587 0.0940
C32 C 0.1724(4) 0.7443(4) 0.1643(3)
C34 C 0.7124(8) 1.4102(8) 0.3085(9)
H62 H 0.7372 1.4548 0.3136
H63 H 0.6684 1.4033 0.3082
H64 H 0.7167 1.3809 0.2754
N24 N 0.4924(4) 1.1334(4) 0.3183(3)
N25 N 0.5182(4) 1.0324(4) 0.3112(3)
H69 H 0.4820 1.0335 0.3040
C39 C 0.1849(4) 1.0653(4) 0.0387(3)
C44 C -0.0081(5) 0.9191(4) 0.0276(3)
H79 H -0.0458 0.9206 0.0163
C46 C 0.6666(5) 1.3725(4) 0.1388(4)
H83 H 0.6817 1.4165 0.1409
H84 H 0.6890 1.3719 0.1683
H85 H 0.6218 1.3567 0.1396
C50 C 0.0900(4) 0.6324(4) 0.1736(3)
H90 H 0.0622 0.5943 0.1762
C51 C 0.5031(7) 1.5068(6) 0.3482(7)
H91 H 0.4870 1.5405 0.3657
C53 C 0.1019(4) 0.9127(4) 0.0581(3)
C56 C 0.4427(5) 1.3960(4) 0.1358(4)
H98 H 0.4740 1.4387 0.1414
H99 H 0.4638 1.3681 0.1361
H100 H 0.4178 1.3999 0.1634
C57 C 0.7373(7) 1.3964(7) 0.3559(8)
H101 H 0.7817 1.4017 0.3549
C59 C 0.0655(4) 0.6624(4) 0.1484(3)
C62 C -0.0019(5) 0.6408(4) 0.1300(3)
C63 C 0.0308(5) 1.1319(4) 0.2872(4)
H105 H 0.0008 1.1463 0.2792
C65 C 0.4443(7) 1.4497(6) 0.3475(6)
H107 H 0.4296 1.4614 0.3810
H108 H 0.4101 1.4376 0.3195
C67 C 0.1518(5) 0.6568(4) 0.1941(3)
C69 C 0.2573(4) 1.0989(4) 0.0461(3)
C70 C 0.3126(8) 0.5366(4) -0.0287(5)
H115 H 0.2968 0.5493 0.0038
H116 H 0.2953 0.4895 -0.0461
H117 H 0.3001 0.5541 -0.0513
C72 C 0.2447(4) 0.6575(4) 0.2416(3)
H119 H 0.2633 0.6381 0.2572
C73 C -0.1053(5) 0.8128(6) 0.2976(6)
H120 H -0.0827 0.7918 0.2737
H121 H -0.1230 0.8341 0.2818
H122 H -0.1391 0.7805 0.3050
C75 C 0.2813(5) 0.7162(4) 0.2378(3)
C85 C 0.1408(4) 1.1499(4) 0.3043(3)
C86 C 0.0939(5) 1.1690(4) 0.2905(3)
H132 H 0.1057 1.2065 0.2837
C87 C -0.0597(7) 0.8636(7) 0.3490(6)
C88 C 0.5821(4) 1.0225(4) 0.0697(3)
C91 C -0.0118(5) 0.8684(4) 0.0434(4)
H136 H -0.0509 0.8378 0.0437
C92 C 0.1804(5) 0.6289(4) 0.2219(3)
C93 C 0.3492(4) 1.1939(3) 0.0594(3)
C94 C 0.3659(6) 1.4100(5) 0.0790(4)
H137 H 0.3974 1.4529 0.0855
H138 H 0.3391 1.4135 0.1052
H139 H 0.3405 1.3913 0.0445
C95 C 0.1195(4) 1.0937(4) 0.3128(3)
C96 C 0.2859(4) 1.1646(4) 0.0505(3)
H140 H 0.2610 1.1866 0.0471
C98 C 0.5807(5) 0.7999(4) 0.0561(3)
H143 H 0.5886 0.7636 0.0537
C100 C 0.0454(4) 0.8657(4) 0.0586(3)
C101 C 0.5473(4) 1.0660(3) 0.0693(3)
C102 C 0.0554(5) 1.0532(4) 0.3085(3)
C103 C 0.3879(4) 1.1582(3) 0.0623(3)
C105 C 0.3820(6) 0.5621(4) -0.0172(4)
C107 C 0.6989(5) 1.3294(5) 0.3488(5)
H146 H 0.7113 1.3220 0.3789
H147 H 0.7058 1.2989 0.3172
C110 C -0.1088(5) 0.5729(5) 0.1322(5)
H148 H -0.1218 0.5721 0.0982
H149 H -0.1314 0.5293 0.1312
C111 C 0.5515(5) 0.8946(6) 0.3176(3)
H150 H 0.5851 0.8865 0.3285
C114 C 0.5585(4) 0.9100(3) 0.0635(3)
C115 C 0.5557(4) 1.1703(4) 0.0743(3)
C116 C 0.5188(5) 0.7944(4) 0.0466(3)
C117 C 0.4610(7) 0.6740(4) 0.0196(3)
C118 C 0.3513(4) 1.2984(4) 0.0700(3)
H151 H 0.3254 1.2991 0.0973
H152 H 0.3234 1.2814 0.0364
C120 C 0.5101(4) 0.8508(4) 0.0518(3)
C121 C 0.3503(5) 0.7503(5) 0.2623(3)
C123 C 0.0016(5) 0.7669(4) 0.0789(4)
C128 C 0.5855(4) 1.1303(4) 0.0734(3)
H156 H 0.6294 1.1445 0.0754
C129 C -0.0906(6) 0.8998(7) 0.3916(6)
H157 H -0.0588 0.9307 0.4225
H158 H -0.1236 0.8686 0.4006
H159 H -0.1087 0.9228 0.3781
C130 C 0.0094(5) 1.0750(5) 0.2951(4)
H160 H -0.0340 1.0511 0.2918
C131 C 0.4882(4) 1.1470(4) 0.0698(3)
C134 C 0.3988(5) 1.3662(4) 0.0819(3)
H164 H 0.4256 1.3634 0.0546
C137 C 0.5529(5) 1.1457(5) 0.3260(3)
C138 C 0.3536(4) 1.0931(3) 0.0570(3)
C139 C 0.2402(5) 1.2404(5) 0.3101(4)
C140 C 0.4773(4) 1.1845(4) 0.3218(3)
C142 C 0.4550(4) 1.0806(3) 0.0636(3)
C143 C 0.4395(5) 1.2866(5) 0.3274(3)
C145 C -0.0151(5) 0.9545(5) 0.3199(4)
C151 C 0.6304(5) 0.8601(4) 0.0691(3)
H173 H 0.6717 0.8634 0.0760
C152 C 0.4540(4) 1.1851(3) 0.0693(3)
H174 H 0.4757 1.2284 0.0736
C156 C 0.6221(4) 0.9161(4) 0.0726(3)
H175 H 0.6567 0.9557 0.0805
C160 C 0.3896(4) 1.0563(3) 0.0578(3)
C166 C 0.5040(5) 1.2989(5) 0.3330(3)
H186 H 0.5341 1.3406 0.3390
C167 C 0.5891(5) 1.2579(5) 0.3373(3)
C169 C 0.3105(5) 1.2571(4) 0.3163(3)
C171 C 0.3536(5) 1.3221(4) 0.3241(3)
H190 H 0.3380 1.3532 0.3250
C173 C 0.4126(4) 1.1757(4) 0.3166(3)
C174 C 0.4162(5) 1.3375(5) 0.3300(3)
C176 C 0.4548(5) 0.9212(5) 0.2901(3)
C177 C 0.5701(5) 1.0899(5) 0.3252(3)
C186 C 0.3922(5) 1.2251(4) 0.3195(3)
C187 C 0.6039(5) 1.2064(5) 0.3353(3)
H199 H 0.6460 1.2112 0.3400
C190 C 0.7342(8) 1.4433(7) 0.4078(8)
H200 H 0.7588 1.4874 0.4117
H201 H 0.7511 1.4356 0.4357
H202 H 0.6906 1.4372 0.4096
C191 C 0.5235(5) 1.2498(5) 0.3296(3)
C196 C 0.4429(4) 0.8575(5) 0.2844(3)
C199 C 0.5161(5) 0.9729(5) 0.3070(3)
C201 C 0.4941(5) 0.8452(5) 0.2991(3)
H206 H 0.4882 0.8034 0.2961
C204 C 0.5545(6) 1.5294(5) 0.3940(5)
H210 H 0.5358 1.5288 0.4247
H211 H 0.5842 1.5732 0.4011
H212 H 0.5764 1.5006 0.3855
C205 C 0.0617(10) 0.5098(10) 0.2893(9)
H213 H 0.0260 0.4725 0.2889
H214 H 0.0466 0.5354 0.2768
H215 H 0.0852 0.5362 0.3248
C207 C 0.5639(5) 0.9578(5) 0.3212(3)
H219 H 0.6052 0.9900 0.3336
C210 C 0.0717(8) 0.4368(7) 0.1989(7)
H223 H 0.1035 0.4259 0.1803
H224 H 0.0521 0.4548 0.1809
H225 H 0.0399 0.3980 0.2001
C213 C 0.5087(11) 1.5171(15) 0.3094(11)
H230 H 0.4673 1.5022 0.2893
H231 H 0.5321 1.4940 0.2885
H232 H 0.5314 1.5633 0.3190
C224 C -0.2009(8) 0.5969(15) 0.1603(9)
H253 H -0.2126 0.6285 0.1865
H254 H -0.2227 0.5545 0.1610
H255 H -0.2127 0.5949 0.1259
C227 C -0.1269(10) 0.6179(8) 0.1724(7)
H256 H -0.1040 0.6627 0.1748
C7 C 0.6304(11) 0.5284(9) 0.2201(7)
H20 H 0.6104 0.4815 0.2019
H21 H 0.6518 0.5470 0.1967
H22 H 0.5987 0.5451 0.2316
C42 C 0.7570(17) 0.6235(17) 0.3440(13)
H74 H 0.7388 0.5935 0.3610
H75 H 0.7946 0.6176 0.3319
C181 C 0.6859(14) 0.5495(15) 0.2751(11)
H195 H 0.6657 0.5318 0.2998
H196 H 0.7195 0.5345 0.2646
C193 C 0.773(3) 0.6802(14) 0.3769(14)
H203 H 0.7863 0.7013 0.3527
H204 H 0.8128 0.6842 0.3937
C206 C 0.7683(10) 0.7375(11) 0.4202(10)
H216 H 0.8059 0.7764 0.4268
H217 H 0.7643 0.7295 0.4518
H218 H 0.7315 0.7436 0.4098
C218 C 0.704(2) 0.6041(14) 0.292(2)
H240 H 0.6710 0.6193 0.3028
H241 H 0.7247 0.6219 0.2675
C52 C 0.0088(9) 0.1791(11) 0.4564(10)
H92 H -0.0057 0.1812 0.4895
H93 H -0.0261 0.1450 0.4282
C208 C 0.0482(8) 0.0951(9) 0.4585(6)
H220 H 0.0173 0.0609 0.4274
H221 H 0.0267 0.0959 0.4884
C219 C 0.0587(10) 0.1581(10) 0.4538(8)
H242 H 0.0939 0.1926 0.4815
H243 H 0.0725 0.1551 0.4203
C220 C 0.1009(9) 0.0687(14) 0.4648(7)
H244 H 0.0810 0.0265 0.4662
H245 H 0.1311 0.0990 0.4968
H246 H 0.1225 0.0648 0.4351
C223 C 0.0191(10) 0.2414(14) 0.4528(11)
H251 H 0.0596 0.2732 0.4755
H252 H 0.0250 0.2355 0.4169
C229 C -0.0256(15) 0.2731(14) 0.4650(13)
H259 H -0.0109 0.3115 0.4573
H260 H -0.0285 0.2856 0.5018
H261 H -0.0669 0.2431 0.4439
C225 C 0.0582(15) 0.4889(15) 0.5933(13)
Cl20 Cl 0.126(3) 0.6139(16) 0.5851(18)
C231 C 0.0538(19) 0.5477(18) 0.582(2)
Cl21 Cl 0.074(2) 0.4296(15) 0.6087(16)
Cl23 Cl 0.8626(5) 1.4357(5) 0.2421(4)
Cl24 Cl 0.9081(7) 1.3139(6) 0.2354(5)
C235 C 0.8270(12) 1.3076(17) 0.2288(10)
C236 C 0.8065(16) 1.3522(11) 0.2148(15)
Cl25? Cl 0.8412(10) 1.3248(9) 0.2948(8)
loop_
_geom_bond_atom_site_label_1
_geom_bond_atom_site_label_2
_geom_bond_site_symmetry_1
_geom_bond_site_symmetry_2
Cl1 C163 1_555 1_555
Cl2 C157 1_555 1_555
Cl3 C132 1_555 1_555
Cl4 C58 1_555 1_555
Cl5 C211 1_555 1_555
Cl6 C99 1_555 1_555
Cl7 C170 1_555 1_555
Cl8 C212 1_555 1_555
Cl9 C47 1_555 1_555
Cl10 C233 1_555 1_555
Cl11 C234 1_555 1_555
Cl12 C221 1_555 1_555
Cl13 C215 1_555 1_555
Cl14 C230 1_555 1_555
Cl15 C228 1_555 1_555
Cl16 C1 1_555 1_555
F1 C11 1_555 1_555
F2 C76 1_555 1_555
F3 C27 1_555 1_555
F4 C53 1_555 1_555
F5 C95 1_555 1_555
F6 C32 1_555 1_555
F7 C120 1_555 1_555
C1 H1 1_555 1_555
H2 C1 1_555 1_555
F8 C197 1_555 1_555
F9 C113 1_555 1_555
O1 C125 1_555 1_555
F10 C160 1_555 1_555
O2 C39 1_555 1_555
F11 C184 1_555 1_555
F12 C90 1_555 1_555
O3 C62 1_555 1_555
O4 C38 1_555 1_555
O5 C24 1_555 1_555
Cl17 C222 1_555 1_555
F13 C176 1_555 1_555
O6 C31 1_555 1_555
F14 C173 1_555 1_555
O7 C145 1_555 1_555
O8 C22 1_555 1_555
O9 C105 1_555 1_555
O10 C3 1_555 1_555
O11 C198 1_555 1_555
O12 C28 1_555 1_555
N1 C15 1_555 1_555
O13 C108 1_555 1_555
O14 C121 1_555 1_555
Cl18 C97 1_555 1_555
O15 C14 1_555 1_555
Cl19 C214 1_555 1_555
O16 C93 1_555 1_555
O17 C155 1_555 1_555
O18 C123 1_555 1_555
O19 C87 1_555 1_555
O20 C65 1_555 1_555
O21 C117 1_555 1_555
O22 C77 1_555 1_555
O23 C109 1_555 1_555
O24 C74 1_555 1_555
O25 C122 1_555 1_555
N2 C21 1_555 1_555
C2 H3 1_555 1_555
C3 C26 1_555 1_555
O26 C109 1_555 1_555
N3 H4 1_555 1_555
N4 H5 1_555 1_555
O27 C154 1_555 1_555
O28 C88 1_555 1_555
N5 H6 1_555 1_555
N6 H7 1_555 1_555
N7 H8 1_555 1_555
C4 H9 1_555 1_555
H10 C4 1_555 1_555
H11 C4 1_555 1_555
N8 H12 1_555 1_555
O29 C107 1_555 1_555
C5 H13 1_555 1_555
H14 C5 1_555 1_555
H15 C5 1_555 1_555
C6 C2 1_555 1_555
H16 C6 1_555 1_555
H17 C6 1_555 1_555
H18 C6 1_555 1_555
O30 C139 1_555 1_555
N9 H19 1_555 1_555
O31 C177 1_555 1_555
N10 C83 1_555 1_555
C7 H20 1_555 1_555
H21 C7 1_555 1_555
H22 C7 1_555 1_555
C8 H23 1_555 1_555
N11 H24 1_555 1_555
C9 H25 1_555 1_555
N12 H26 1_555 1_555
C10 H27 1_555 1_555
C11 C189 1_555 1_555
C12 H28 1_555 1_555
H29 C12 1_555 1_555
H30 C12 1_555 1_555
N13 H31 1_555 1_555
C13 N3 1_555 1_555
C14 H32 1_555 1_555
H33 C14 1_555 1_555
C15 C30 1_555 1_555
C16 H34 1_555 1_555
N14 H35 1_555 1_555
N15 C104 1_555 1_555
C17 N7 1_555 1_555
N16 H36 1_555 1_555
N17 C69 1_555 1_555
N18 C106 1_555 1_555
N19 C101 1_555 1_555
C18 N1 1_555 1_555
C19 C10 1_555 1_555
H37 C19 1_555 1_555
H38 C19 1_555 1_555
H39 C19 1_555 1_555
N20 C119 1_555 1_555
C20 H40 1_555 1_555
H41 C20 1_555 1_555
H42 C20 1_555 1_555
C21 C32 1_555 1_555
N21 H43 1_555 1_555
C22 C10 1_555 1_555
H44 C22 1_555 1_555
H45 C22 1_555 1_555
C23 H46 1_555 1_555
H47 C23 1_555 1_555
H48 C23 1_555 1_555
C24 H49 1_555 1_555
H50 C24 1_555 1_555
C25 C14 1_555 1_555
H51 C25 1_555 1_555
C26 H52 1_555 1_555
H53 C26 1_555 1_555
H54 C26 1_555 1_555
N22 H55 1_555 1_555
C27 C17 1_555 1_555
C28 C8 1_555 1_555
H56 C28 1_555 1_555
H57 C28 1_555 1_555
C29 N4 1_555 1_555
N23 C169 1_555 1_555
C30 H58 1_555 1_555
C31 C2 1_555 1_555
H59 C31 1_555 1_555
H60 C31 1_555 1_555
C32 C18 1_555 1_555
C33 H61 1_555 1_555
C34 H62 1_555 1_555
H63 C34 1_555 1_555
H64 C34 1_555 1_555
C35 C24 1_555 1_555
H65 C35 1_555 1_555
C36 C35 1_555 1_555
H66 C36 1_555 1_555
H67 C36 1_555 1_555
H68 C36 1_555 1_555
N24 C137 1_555 1_555
N25 H69 1_555 1_555
C37 N6 1_555 1_555
C38 C16 1_555 1_555
H70 C38 1_555 1_555
H71 C38 1_555 1_555
C39 N3 1_555 1_555
C40 H72 1_555 1_555
C41 H73 1_555 1_555
N26 C183 1_555 1_555
C42 H74 1_555 1_555
H75 C42 1_555 1_555
C43 C16 1_555 1_555
H76 C43 1_555 1_555
H77 C43 1_555 1_555
H78 C43 1_555 1_555
C44 C9 1_555 1_555
H79 C44 1_555 1_555
C45 C3 1_555 1_555
H80 C45 1_555 1_555
H81 C45 1_555 1_555
H82 C45 1_555 1_555
N27 C161 1_555 1_555
C46 C10 1_555 1_555
H83 C46 1_555 1_555
H84 C46 1_555 1_555
H85 C46 1_555 1_555
C47 H86 1_555 1_555
H87 C47 1_555 1_555
C48 H88 1_555 1_555
N28 H89 1_555 1_555
C49 O4 1_555 1_555
C50 H90 1_555 1_555
C51 H91 1_555 1_555
C52 H92 1_555 1_555
H93 C52 1_555 1_555
C53 C13 1_555 1_555
C54 C48 1_555 1_555
H94 C54 1_555 1_555
H95 C54 1_555 1_555
H96 C54 1_555 1_555
C55 H97 1_555 1_555
C56 H98 1_555 1_555
H99 C56 1_555 1_555
H100 C56 1_555 1_555
C57 C34 1_555 1_555
H101 C57 1_555 1_555
C58 H102 1_555 1_555
H103 C58 1_555 1_555
C59 C18 1_555 1_555
C60 C41 1_555 1_555
C61 H104 1_555 1_555
C62 C30 1_555 1_555
C63 H105 1_555 1_555
C64 H106 1_555 1_555
C65 C51 1_555 1_555
H107 C65 1_555 1_555
H108 C65 1_555 1_555
C66 H109 1_555 1_555
H110 C66 1_555 1_555
H111 C66 1_555 1_555
C67 C21 1_555 1_555
C68 C48 1_555 1_555
H112 C68 1_555 1_555
H113 C68 1_555 1_555
H114 C68 1_555 1_555
C69 C39 1_555 1_555
C70 H115 1_555 1_555
H116 C70 1_555 1_555
H117 C70 1_555 1_555
C71 H118 1_555 1_555
C72 H119 1_555 1_555
C73 H120 1_555 1_555
H121 C73 1_555 1_555
H122 C73 1_555 1_555
C74 N6 1_555 1_555
C75 N2 1_555 1_555
C76 C83 1_555 1_555
C77 N7 1_555 1_555
C78 C29 1_555 1_555
H123 C78 1_555 1_555
C79 C17 1_555 1_555
H124 C79 1_555 1_555
C80 H125 1_555 1_555
H126 C80 1_555 1_555
H127 C80 1_555 1_555
O32 C226 1_555 1_555
C81 C37 1_555 1_555
H128 C81 1_555 1_555
C82 C16 1_555 1_555
H129 C82 1_555 1_555
H130 C82 1_555 1_555
H131 C82 1_555 1_555
C83 C124 1_555 1_555
C84 O5 1_555 1_555
C85 N12 1_555 1_555
C86 C63 1_555 1_555
H132 C86 1_555 1_555
C87 C20 1_555 1_555
C88 N13 1_555 1_555
C89 C2 1_555 1_555
H133 C89 1_555 1_555
H134 C89 1_555 1_555
H135 C89 1_555 1_555
C90 C29 1_555 1_555
C91 C44 1_555 1_555
H136 C91 1_555 1_555
C92 O12 1_555 1_555
C93 C96 1_555 1_555
C94 H137 1_555 1_555
H138 C94 1_555 1_555
H139 C94 1_555 1_555
C95 C85 1_555 1_555
C96 C69 1_555 1_555
H140 C96 1_555 1_555
C97 H141 1_555 1_555
H142 C97 1_555 1_555
C98 H143 1_555 1_555
C99 H144 1_555 1_555
H145 C99 1_555 1_555
C100 N14 1_555 1_555
C101 C88 1_555 1_555
C102 N16 1_555 1_555
C103 C93 1_555 1_555
C104 C71 1_555 1_555
C105 C5 1_555 1_555
C106 C153 1_555 1_555
C107 C57 1_555 1_555
H146 C107 1_555 1_555
H147 C107 1_555 1_555
C108 N4 1_555 1_555
C109 N5 1_555 1_555
C110 O3 1_555 1_555
H148 C110 1_555 1_555
H149 C110 1_555 1_555
C111 H150 1_555 1_555
C112 N22 1_555 1_555
C113 C112 1_555 1_555
C114 N13 1_555 1_555
C115 O8 1_555 1_555
C116 N11 1_555 1_555
C117 O9 1_555 1_555
C118 O16 1_555 1_555
H151 C118 1_555 1_555
H152 C118 1_555 1_555
C119 C60 1_555 1_555
C120 C114 1_555 1_555
C121 N8 1_555 1_555
C122 N22 1_555 1_555
C123 C15 1_555 1_555
C124 C41 1_555 1_555
C125 C168 1_555 1_555
C126 N18 1_555 1_555
C127 C35 1_555 1_555
H153 C127 1_555 1_555
H154 C127 1_555 1_555
H155 C127 1_555 1_555
C128 C101 1_555 1_555
H156 C128 1_555 1_555
C129 C87 1_555 1_555
H157 C129 1_555 1_555
H158 C129 1_555 1_555
H159 C129 1_555 1_555
C130 C63 1_555 1_555
H160 C130 1_555 1_555
C131 C115 1_555 1_555
C132 C58 1_555 1_555
H161 C132 1_555 1_555
H162 C132 1_555 1_555
C133 H163 1_555 1_555
C134 C56 1_555 1_555
H164 C134 1_555 1_555
C135 C84 1_555 1_555
H165 C135 1_555 1_555
C136 C25 1_555 1_555
H166 C136 1_555 1_555
H167 C136 1_555 1_555
H168 C136 1_555 1_555
C137 C177 1_555 1_555
C138 N17 1_555 1_555
C139 N12 1_555 1_555
C140 N24 1_555 1_555
C141 H169 1_555 1_555
C142 N19 1_555 1_555
C143 C166 1_555 1_555
C144 C78 1_555 1_555
H170 C144 1_555 1_555
C145 O19 1_555 1_555
C146 N20 1_555 1_555
C147 N28 1_555 1_555
C148 C126 1_555 1_555
H171 C148 1_555 1_555
C149 N10 1_555 1_555
C150 C147 1_555 1_555
H172 C150 1_555 1_555
C151 C98 1_555 1_555
H173 C151 1_555 1_555
C152 C103 1_555 1_555
H174 C152 1_555 1_555
C153 C185 1_555 1_555
C154 N28 1_555 1_555
C155 C71 1_555 1_555
C156 C114 1_555 1_555
H175 C156 1_555 1_555
C157 C99 1_555 1_555
H176 C157 1_555 1_555
H177 C157 1_555 1_555
C158 C25 1_555 1_555
H178 C158 1_555 1_555
H179 C158 1_555 1_555
H180 C158 1_555 1_555
C159 N5 1_555 1_555
C160 C138 1_555 1_555
C161 C108 1_555 1_555
C162 O17 1_555 1_555
H181 C162 1_555 1_555
H182 C162 1_555 1_555
C163 H183 1_555 1_555
H184 C163 1_555 1_555
C164 C84 1_555 1_555
C165 C144 1_555 1_555
H185 C165 1_555 1_555
C166 H186 1_555 1_555
C167 O29 1_555 1_555
C168 H187 1_555 1_555
C169 C139 1_555 1_555
C170 C47 1_555 1_555
H188 C170 1_555 1_555
H189 C170 1_555 1_555
C171 C169 1_555 1_555
H190 C171 1_555 1_555
C172 O6 1_555 1_555
C173 C140 1_555 1_555
C174 O20 1_555 1_555
C175 C55 1_555 1_555
H191 C175 1_555 1_555
C176 C196 1_555 1_555
C177 N25 1_555 1_555
C178 O26 1_555 1_555
C179 C141 1_555 1_555
C180 C33 1_555 1_555
H192 C180 1_555 1_555
H193 C180 1_555 1_555
H194 C180 1_555 1_555
C181 C7 1_555 1_555
H195 C181 1_555 1_555
H196 C181 1_555 1_555
C182 O1 1_555 1_555
H197 C182 1_555 1_555
H198 C182 1_555 1_555
C183 C184 1_555 1_555
C184 C106 1_555 1_555
C185 O15 1_555 1_555
C186 N23 1_555 1_555
C187 C137 1_555 1_555
H199 C187 1_555 1_555
C188 N27 1_555 1_555
C189 N9 1_555 1_555
C190 C57 1_555 1_555
H200 C190 1_555 1_555
H201 C190 1_555 1_555
H202 C190 1_555 1_555
C191 C140 1_555 1_555
C192 N15 1_555 1_555
C193 C42 1_555 1_555
H203 C193 1_555 1_555
H204 C193 1_555 1_555
C194 C125 1_555 1_555
C195 C153 1_555 1_555
H205 C195 1_555 1_555
C196 N8 1_555 1_555
C197 C188 1_555 1_555
C198 O10 1_555 1_555
C199 N25 1_555 1_555
C200 N26 1_555 1_555
C201 C111 1_555 1_555
H206 C201 1_555 1_555
C202 C33 1_555 1_555
H207 C202 1_555 1_555
H208 C202 1_555 1_555
H209 C202 1_555 1_555
C203 C11 1_555 1_555
C204 C51 1_555 1_555
H210 C204 1_555 1_555
H211 C204 1_555 1_555
H212 C204 1_555 1_555
C205 C8 1_555 1_555
H213 C205 1_555 1_555
H214 C205 1_555 1_555
H215 C205 1_555 1_555
C206 C193 1_555 1_555
H216 C206 1_555 1_555
H217 C206 1_555 1_555
H218 C206 1_555 1_555
C207 C111 1_555 1_555
H219 C207 1_555 1_555
C208 H220 1_555 1_555
H221 C208 1_555 1_555
C209 C61 1_555 1_555
H222 C209 1_555 1_555
C210 C8 1_555 1_555
H223 C210 1_555 1_555
H224 C210 1_555 1_555
H225 C210 1_555 1_555
C211 H226 1_555 1_555
H227 C211 1_555 1_555
C212 C97 1_555 1_555
H228 C212 1_555 1_555
H229 C212 1_555 1_555
C213 C51 1_555 1_555
H230 C213 1_555 1_555
H231 C213 1_555 1_555
H232 C213 1_555 1_555
C214 C1 1_555 1_555
H233 C214 1_555 1_555
H234 C214 1_555 1_555
C215 H235 1_555 1_555
H236 C215 1_555 1_555
C216 C203 1_555 1_555
H237 C216 1_555 1_555
C217 C163 1_555 1_555
H238 C217 1_555 1_555
H239 C217 1_555 1_555
C218 C42 1_555 1_555
H240 C218 1_555 1_555
H241 C218 1_555 1_555
C219 C52 1_555 1_555
H242 C219 1_555 1_555
H243 C219 1_555 1_555
C220 C208 1_555 1_555
H244 C220 1_555 1_555
H245 C220 1_555 1_555
H246 C220 1_555 1_555
C221 H247 1_555 1_555
H248 C221 1_555 1_555
C222 C221 1_555 1_555
H249 C222 1_555 1_555
H250 C222 1_555 1_555
C223 C52 1_555 1_555
H251 C223 1_555 1_555
H252 C223 1_555 1_555
C224 H253 1_555 1_555
H254 C224 1_555 1_555
H255 C224 1_555 1_555
C225 C231 1_555 1_555
C226 N21 1_555 1_555
C227 C23 1_555 1_555
H256 C227 1_555 1_555
C228 C211 1_555 1_555
H257 C228 1_555 1_555
H258 C228 1_555 1_555
C229 C223 1_555 1_555
H259 C229 1_555 1_555
H260 C229 1_555 1_555
H261 C229 1_555 1_555
Cl20 C231 1_555 1_555
C230 C215 1_555 1_555
H262 C230 1_555 1_555
H263 C230 1_555 1_555
Cl21 C225 1_555 1_555
C232 C3 1_555 1_555
H264 C232 1_555 1_555
H265 C232 1_555 1_555
H266 C232 1_555 1_555
Cl22 C217 1_555 1_555
C233 H267 1_555 1_555
H268 C233 1_555 1_555
C234 C233 1_555 1_555
H269 C234 1_555 1_555
H270 C234 1_555 1_555
Cl23 C236 1_555 1_555
Cl24 C235 1_555 1_555
C235 C236 1_555 1_555
C4 C178 1_555 1_555
N9 C198 1_555 1_555
N11 C117 1_555 1_555
C9 C13 1_555 1_555
C12 C105 1_555 1_555
N14 C123 1_555 1_555
N16 C145 1_555 1_555
N21 C203 1_555 1_555
C27 C37 1_555 1_555
C33 C182 1_555 1_555
C40 C49 1_555 1_555
C40 C146 1_555 1_555
C48 C162 1_555 1_555
C49 C60 1_555 1_555
C50 C59 1_555 1_555
C50 C67 1_555 1_555
C53 C100 1_555 1_555
C55 C112 1_555 1_555
C59 C62 1_555 1_555
C61 C189 1_555 1_555
C64 C79 1_555 1_555
C64 C81 1_555 1_555
C66 C178 1_555 1_555
C67 C92 1_555 1_555
C70 C105 1_555 1_555
C72 C75 1_555 1_555
C72 C92 1_555 1_555
C73 C87 1_555 1_555
C74 C104 1_555 1_555
C75 C121 1_555 1_555
C76 C119 1_555 1_555
C77 C149 1_555 1_555
C80 C178 1_555 1_555
C85 C86 1_555 1_555
C90 C159 1_555 1_555
C91 C100 1_555 1_555
C94 C134 1_555 1_555
C95 C102 1_555 1_555
C98 C116 1_555 1_555
C102 C130 1_555 1_555
C103 C138 1_555 1_555
C110 C227 1_555 1_555
C113 C147 1_555 1_555
C115 C128 1_555 1_555
C116 C120 1_555 1_555
C118 C134 1_555 1_555
C122 C126 1_555 1_555
C124 C172 1_555 1_555
C131 C142 1_555 1_555
C131 C152 1_555 1_555
C133 C149 1_555 1_555
C133 C172 1_555 1_555
C135 C161 1_555 1_555
C141 C164 1_555 1_555
C142 C160 1_555 1_555
C143 C174 1_555 1_555
C143 C186 1_555 1_555
C146 C154 1_555 1_555
C148 C185 1_555 1_555
C150 C175 1_555 1_555
C151 C156 1_555 1_555
C155 C179 1_555 1_555
C159 C165 1_555 1_555
C164 C188 1_555 1_555
C166 C191 1_555 1_555
C167 C187 1_555 1_555
C167 C191 1_555 1_555
C168 C200 1_555 1_555
C171 C174 1_555 1_555
C173 C186 1_555 1_555
C176 C199 1_555 1_555
C179 C192 1_555 1_555
C181 C218 1_555 1_555
C183 C194 1_555 1_555
C192 C197 1_555 1_555
C194 C195 1_555 1_555
C196 C201 1_555 1_555
C199 C207 1_555 1_555
C200 C226 1_555 1_555
C208 C219 1_555 1_555
C209 C216 1_555 1_555
C224 C227 1_555 1_555

#END
