
#######################################################################
#
#                 Cambridge Crystallographic Data Centre
#                                CCDC 
#
#######################################################################
#
# If this CIF has been generated from an entry in the Cambridge 
# Structural Database, then it will include bibliographic, chemical, 
# crystal, experimental, refinement or atomic coordinate data resulting 
# from the CCDC's data processing and validation procedures.
#
#######################################################################

data_KEFQOE
_chemical_formula_moiety         'C3 N9 O10 1-,H4 N1 1+,H2 O1'
_chemical_name_systematic        
'ammonium 3-nitro-5-(nitroimino)-1-(trinitromethyl)-1,5-dihydro-1,2,4-triazol-4-ide monohydrate'
_symmetry_cell_setting           monoclinic
_symmetry_space_group_name_H-M   'P 21'
_symmetry_Int_Tables_number      4
_space_group_name_Hall           'P 2yb'
loop_
_symmetry_equiv_pos_site_id
_symmetry_equiv_pos_as_xyz
1 x,y,z
2 -x,1/2+y,-z
_cell_length_a                   7.5643(7)
_cell_length_b                   8.0022(7)
_cell_length_c                   10.6515(10)
_cell_angle_alpha                90
_cell_angle_beta                 91.239(2)
_cell_angle_gamma                90
_cell_volume                     644.596
_exptl_crystal_colour            yellow
_exptl_crystal_description       block
_cell_formula_units_Z            2
loop_
_atom_site_label
_atom_site_type_symbol
_atom_site_fract_x
_atom_site_fract_y
_atom_site_fract_z
O1 O 0.2168(3) -0.5038(3) -0.1210(3)
O2 O 0.2391(3) -0.3113(3) -0.2612(3)
O3 O 0.3563(3) -1.0886(3) -0.0382(2)
O4 O 0.5889(3) -1.1902(3) -0.1271(3)
O5 O 0.8181(3) -0.5182(4) -0.1951(2)
O6 O 0.8008(3) -0.3722(3) -0.3658(3)
O7 O 0.7277(4) -0.5409(3) -0.5725(2)
O8 O 0.4872(3) -0.6696(4) -0.5231(2)
O9 O 0.8506(3) -0.8844(3) -0.4695(3)
O10 O 1.0192(3) -0.7247(4) -0.3545(3)
N1 N 0.3860(3) -0.7977(3) -0.1664(2)
N2 N 0.6394(3) -0.9042(3) -0.2492(2)
N3 N 0.6049(3) -0.7458(3) -0.2941(3)
N4 N 0.4117(3) -0.5256(3) -0.2780(3)
N5 N 0.2840(3) -0.4482(3) -0.2168(3)
N6 N 0.4819(4) -1.0800(3) -0.1094(3)
N7 N 0.7856(3) -0.4976(4) -0.3063(3)
N8 N 0.6334(4) -0.6181(3) -0.5025(2)
N9 N 0.8814(3) -0.7672(4) -0.4019(3)
C1 C 0.4525(4) -0.6816(4) -0.2407(3)
C2 C 0.5033(4) -0.9233(4) -0.1773(3)
C3 C 0.7183(4) -0.6594(4) -0.3726(3)
O11 O -0.0253(3) -0.0963(4) -0.1818(3)
H1 H 0.056(5) -0.147(6) -0.215(5)
H2 H -0.122(4) -0.114(7) -0.219(4)
N10 N 0.0483(5) 0.1877(4) -0.0397(4)
H3 H 0.153(4) 0.227(6) -0.059(5)
H4 H -0.001(6) 0.100(5) -0.073(4)
H5 H -0.014(6) 0.263(5) -0.081(4)
H6 H 0.071(6) 0.176(7) 0.037(3)
loop_
_geom_bond_atom_site_label_1
_geom_bond_atom_site_label_2
_geom_bond_site_symmetry_1
_geom_bond_site_symmetry_2
O1 N5 1_555 1_555
O2 N5 1_555 1_555
O3 N6 1_555 1_555
O4 N6 1_555 1_555
O5 N7 1_555 1_555
O6 N7 1_555 1_555
O7 N8 1_555 1_555
O8 N8 1_555 1_555
O9 N9 1_555 1_555
O10 N9 1_555 1_555
N1 C1 1_555 1_555
N2 N3 1_555 1_555
N3 C1 1_555 1_555
N4 N5 1_555 1_555
N6 C2 1_555 1_555
N7 C3 1_555 1_555
N8 C3 1_555 1_555
N9 C3 1_555 1_555
C1 N4 1_555 1_555
C2 N1 1_555 1_555
C3 N3 1_555 1_555
O11 H1 1_555 1_555
H2 O11 1_555 1_555
N10 H3 1_555 1_555
H4 N10 1_555 1_555
H5 N10 1_555 1_555
H6 N10 1_555 1_555
N2 C2 1_555 1_555

#END
