
#######################################################################
#
#                 Cambridge Crystallographic Data Centre
#                                CCDC 
#
#######################################################################
#
# If this CIF has been generated from an entry in the Cambridge 
# Structural Database, then it will include bibliographic, chemical, 
# crystal, experimental, refinement or atomic coordinate data resulting 
# from the CCDC's data processing and validation procedures.
#
#######################################################################

data_KEFQAQ
_chemical_formula_moiety         'C3 H1 N9 O10,2(H2 O1)'
_chemical_name_systematic        
'N,3-dinitro-1-(trinitromethyl)-1H-1,2,4-triazol-5-amine hydrate'
_symmetry_cell_setting           monoclinic
_symmetry_space_group_name_H-M   'P 21'
_symmetry_Int_Tables_number      4
_space_group_name_Hall           'P 2yb'
loop_
_symmetry_equiv_pos_site_id
_symmetry_equiv_pos_as_xyz
1 x,y,z
2 -x,1/2+y,-z
_cell_length_a                   7.4840(4)
_cell_length_b                   7.8907(4)
_cell_length_c                   10.2465(5)
_cell_angle_alpha                90
_cell_angle_beta                 93.122(3)
_cell_angle_gamma                90
_cell_volume                     604.199
_exptl_crystal_colour            colorless
_exptl_crystal_description       block
_cell_formula_units_Z            2
loop_
_atom_site_label
_atom_site_type_symbol
_atom_site_fract_x
_atom_site_fract_y
_atom_site_fract_z
O1 O 0.8689(4) 3.1580(4) 2.9608(3)
O2 O 0.7321(4) 3.9453(3) 2.7412(3)
O3 O 0.7361(4) 3.7504(4) 2.8916(3)
O4 O 1.1035(4) 3.0546(3) 2.8703(3)
O5 O 1.3084(4) 3.9004(4) 2.6386(3)
O6 O 1.2315(5) 3.7271(4) 2.4212(3)
O7 O 1.5427(4) 3.5615(4) 2.6353(3)
O8 O 1.3658(4) 3.3737(4) 2.5385(3)
O9 O 1.3328(4) 3.7486(4) 2.8163(3)
O10 O 0.9943(4) 3.5896(5) 2.4699(3)
N1 N 0.9961(4) 3.1672(4) 2.8901(3)
N2 N 0.8958(4) 3.4551(4) 2.8317(3)
N3 N 1.2966(4) 3.7711(4) 2.7000(3)
N4 N 0.7897(4) 3.8083(4) 2.7889(3)
N5 N 1.1204(4) 3.5144(4) 2.7094(3)
N6 N 1.1419(4) 3.6463(4) 2.4923(3)
N7 N 1.1572(4) 3.3537(4) 2.7544(3)
N8 N 0.9170(4) 3.7339(4) 2.7218(3)
H1 H 0.9658 3.7844 2.6585
N9 N 1.3987(4) 3.5018(4) 2.5988(3)
C1 C 0.9640(5) 3.5768(4) 2.7588(3)
C2 C 1.0190(5) 3.3288(4) 2.8237(3)
C3 C 1.2323(5) 3.6060(4) 2.6291(3)
O11 O 0.5742(4) 3.4277(3) 2.9129(3)
H2 H 0.5413 3.3252 2.9200
H3 H 0.6830 3.4307 2.8932
O12 O 0.4868(4) 3.1087(3) 2.8789(3)
H4 H 0.5637 3.0443 2.8462
H5 H 0.3888 3.1030 2.8331
loop_
_geom_bond_atom_site_label_1
_geom_bond_atom_site_label_2
_geom_bond_site_symmetry_1
_geom_bond_site_symmetry_2
O1 N1 1_555 1_555
O2 N4 1_555 1_555
O3 N4 1_555 1_555
O4 N1 1_555 1_555
O5 N3 1_555 1_555
O6 N6 1_555 1_555
O7 N9 1_555 1_555
O8 N9 1_555 1_555
O9 N3 1_555 1_555
O10 N6 1_555 1_555
N1 C2 1_555 1_555
N2 C1 1_555 1_555
N3 C3 1_555 1_555
N4 N8 1_555 1_555
N5 N7 1_555 1_555
N6 C3 1_555 1_555
N7 C2 1_555 1_555
N8 H1 1_555 1_555
N9 C3 1_555 1_555
C1 N5 1_555 1_555
C2 N2 1_555 1_555
C3 N5 1_555 1_555
O11 H2 1_555 1_555
H3 O11 1_555 1_555
O12 H4 1_555 1_555
H5 O12 1_555 1_555
N8 C1 1_555 1_555

#END
