
#######################################################################
#
#                 Cambridge Crystallographic Data Centre
#                                CCDC 
#
#######################################################################
#
# If this CIF has been generated from an entry in the Cambridge 
# Structural Database, then it will include bibliographic, chemical, 
# crystal, experimental, refinement or atomic coordinate data resulting 
# from the CCDC's data processing and validation procedures.
#
#######################################################################

data_KEFROF
_chemical_formula_moiety         'C3 N9 O10 1-,C2 H5 N4 1+'
_chemical_name_systematic        
'4-amino-4H-1,2,4-triazol-1-ium 3-nitro-5-(nitroimino)-1-(trinitromethyl)-1,5-dihydro-1,2,4-triazol-4-ide'
_symmetry_cell_setting           orthorhombic
_symmetry_space_group_name_H-M   'P c a 21'
_symmetry_Int_Tables_number      29
_space_group_name_Hall           'P 2c -2ac'
loop_
_symmetry_equiv_pos_site_id
_symmetry_equiv_pos_as_xyz
1 x,y,z
2 -x,-y,1/2+z
3 1/2+x,-y,z
4 1/2-x,y,1/2+z
_cell_length_a                   23.003(2)
_cell_length_b                   6.7490(7)
_cell_length_c                   19.422(2)
_cell_angle_alpha                90
_cell_angle_beta                 90
_cell_angle_gamma                90
_cell_volume                     3015.21
_exptl_crystal_colour            colorless
_exptl_crystal_description       block
_cell_formula_units_Z            8
loop_
_atom_site_label
_atom_site_type_symbol
_atom_site_fract_x
_atom_site_fract_y
_atom_site_fract_z
C1 C -0.3346(3) -0.6836(9) -0.3949(4)
C2 C -0.4066(3) -0.8443(9) -0.3624(4)
C3 C -0.3883(3) -0.5039(10) -0.4876(4)
N1 N -0.2387(3) -0.6228(9) -0.3790(4)
N2 N -0.2868(2) -0.5852(8) -0.4135(4)
N3 N -0.3501(2) -0.8194(8) -0.3488(3)
N4 N -0.4416(3) -0.9829(9) -0.3220(4)
N5 N -0.4311(2) -0.7468(8) -0.4114(3)
N6 N -0.3840(2) -0.6391(8) -0.4333(3)
N7 N -0.3561(3) -0.5775(13) -0.5524(4)
N8 N -0.3661(3) -0.2969(11) -0.4658(5)
N9 N -0.4522(3) -0.4781(11) -0.5088(4)
O1 O -0.2352(2) -0.7431(9) -0.3315(3)
O2 O -0.1950(2) -0.5238(9) -0.3963(4)
O3 O -0.4182(3) -1.0709(9) -0.2761(3)
O4 O -0.4927(3) -1.0016(11) -0.3368(4)
O5 O -0.3343(3) -0.7382(9) -0.5482(3)
O6 O -0.3593(4) -0.4750(14) -0.6019(5)
O7 O -0.3509(4) -0.1904(12) -0.5111(5)
O8 O -0.3695(4) -0.2640(10) -0.4057(5)
O9 O -0.4697(3) -0.5777(15) -0.5540(5)
O10 O -0.4791(3) -0.3617(10) -0.4739(4)
C4 C -0.5852(3) -0.1245(10) -0.6065(4)
C5 C -0.6574(3) -0.2824(9) -0.6406(4)
C6 C -0.6378(3) 0.0677(10) -0.5186(4)
N10 N -0.4871(3) -0.0855(10) -0.6183(4)
N11 N -0.5358(3) -0.0328(9) -0.5871(3)
N12 N -0.5998(2) -0.2620(7) -0.6516(3)
N13 N -0.6922(3) -0.4210(9) -0.6815(4)
N14 N -0.6820(2) -0.1748(8) -0.5933(3)
N15 N -0.6343(2) -0.0654(8) -0.5712(3)
N16 N -0.6127(3) -0.0156(14) -0.4510(4)
N17 N -0.6092(4) 0.2665(12) -0.5372(7)
N18 N -0.7030(3) 0.1151(11) -0.5034(4)
O11 O -0.4854(2) -0.2112(11) -0.6636(4)
O12 O -0.4431(2) -0.0004(10) -0.6004(4)
O13 O -0.6661(3) -0.5163(8) -0.7249(3)
O14 O -0.7428(3) -0.4334(10) -0.6689(4)
O15 O -0.6102(4) 0.3105(12) -0.5943(7)
O16 O -0.5875(5) 0.3508(17) -0.4884(7)
O17 O -0.5932(3) -0.1787(11) -0.4530(4)
O18 O -0.6202(4) 0.0780(17) -0.3989(5)
O19 O -0.7251(3) 0.0232(12) -0.4581(4)
O20 O -0.7243(3) 0.2396(11) -0.5398(4)
C7 C -0.3024(4) -0.1963(12) -0.7717(5)
H1 H -0.2909 -0.2551 -0.8128
C8 C -0.3000(3) -0.0334(10) -0.6777(4)
H2 H -0.2879 0.0430 -0.6405
N19 N -0.2091(3) -0.0425(10) -0.7373(4)
H3 H -0.1885 -0.1492 -0.7370
H4 H -0.2037 0.0193 -0.7755
N20 N -0.2678(3) -0.0894(9) -0.7306(3)
N21 N -0.3552(3) -0.2061(12) -0.7455(5)
N22 N -0.3507(3) -0.1037(11) -0.6873(4)
H5 H -0.383(2) -0.086(14) -0.663(4)
C9 C -0.0486(4) -0.6618(13) -0.2266(6)
H6 H -0.0350 -0.7046 -0.1841
C10 C -0.0501(4) -0.5153(12) -0.3227(5)
H7 H -0.0398 -0.4421 -0.3615
N23 N 0.0386(3) -0.4850(10) -0.2642(5)
H8 H 0.0617 -0.5847 -0.2690
H9 H 0.0460 -0.3985 -0.2957
N24 N -0.0181(3) -0.5519(9) -0.2704(4)
N25 N -0.1007(4) -0.7022(13) -0.2512(6)
N26 N -0.1005(3) -0.6018(12) -0.3109(5)
H10 H -0.1298 -0.5946 -0.3382
loop_
_geom_bond_atom_site_label_1
_geom_bond_atom_site_label_2
_geom_bond_site_symmetry_1
_geom_bond_site_symmetry_2
C1 N2 1_555 1_555
C2 N3 1_555 1_555
C3 N6 1_555 1_555
N1 N2 1_555 1_555
N3 C1 1_555 1_555
N4 C2 1_555 1_555
N5 C2 1_555 1_555
N6 C1 1_555 1_555
N7 C3 1_555 1_555
N8 C3 1_555 1_555
N9 C3 1_555 1_555
O1 N1 1_555 1_555
O2 N1 1_555 1_555
O3 N4 1_555 1_555
O4 N4 1_555 1_555
O5 N7 1_555 1_555
O6 N7 1_555 1_555
O7 N8 1_555 1_555
O8 N8 1_555 1_555
O9 N9 1_555 1_555
O10 N9 1_555 1_555
C4 N11 1_555 1_555
C5 N12 1_555 1_555
C6 N15 1_555 1_555
N10 N11 1_555 1_555
N12 C4 1_555 1_555
N13 C5 1_555 1_555
N14 C5 1_555 1_555
N15 C4 1_555 1_555
N16 C6 1_555 1_555
N17 C6 1_555 1_555
N18 C6 1_555 1_555
O11 N10 1_555 1_555
O12 N10 1_555 1_555
O13 N13 1_555 1_555
O14 N13 1_555 1_555
O15 N17 1_555 1_555
O16 N17 1_555 1_555
O17 N16 1_555 1_555
O18 N16 1_555 1_555
O19 N18 1_555 1_555
O20 N18 1_555 1_555
C7 H1 1_555 1_555
C8 H2 1_555 1_555
N19 H3 1_555 1_555
H4 N19 1_555 1_555
N20 C7 1_555 1_555
N21 C7 1_555 1_555
N22 C8 1_555 1_555
H5 N22 1_555 1_555
C9 H6 1_555 1_555
C10 H7 1_555 1_555
N23 H8 1_555 1_555
H9 N23 1_555 1_555
N24 C9 1_555 1_555
N25 C9 1_555 1_555
N26 C10 1_555 1_555
H10 N26 1_555 1_555
N5 N6 1_555 1_555
N14 N15 1_555 1_555
C8 N20 1_555 1_555
N19 N20 1_555 1_555
N21 N22 1_555 1_555
C10 N24 1_555 1_555
N23 N24 1_555 1_555
N25 N26 1_555 1_555

#END
