
#######################################################################
#
#                 Cambridge Crystallographic Data Centre
#                                CCDC 
#
#######################################################################
#
# If this CIF has been generated from an entry in the Cambridge 
# Structural Database, then it will include bibliographic, chemical, 
# crystal, experimental, refinement or atomic coordinate data resulting 
# from the CCDC's data processing and validation procedures.
#
#######################################################################

data_KEFVUO
_chemical_formula_moiety         'C33 H50 B1 N3'
_chemical_name_systematic        
4-[di(propan-2-yl)amino]-3-[2,6-di(propan-2-yl)phenyl]-5,5-dimethyl-9-(propan-2-yl)-4,5-dihydro-3H-imidazo[1,2-a][1,3]benzazaborinin-10-ium
_symmetry_cell_setting           monoclinic
_symmetry_space_group_name_H-M   'P 21/n'
_symmetry_Int_Tables_number      14
_space_group_name_Hall           '-P 2yn'
loop_
_symmetry_equiv_pos_site_id
_symmetry_equiv_pos_as_xyz
1 x,y,z
2 1/2-x,1/2+y,1/2-z
3 -x,-y,-z
4 1/2+x,1/2-y,1/2+z
_cell_length_a                   11.8042(6)
_cell_length_b                   17.7389(9)
_cell_length_c                   15.7116(8)
_cell_angle_alpha                90
_cell_angle_beta                 92.8560(10)
_cell_angle_gamma                90
_cell_volume                     3285.82
_exptl_crystal_colour            'pale yellow'
_exptl_crystal_description       plate
_cell_formula_units_Z            4
loop_
_atom_site_label
_atom_site_type_symbol
_atom_site_fract_x
_atom_site_fract_y
_atom_site_fract_z
B1 B 0.56718(14) 0.14576(9) 0.24519(11)
H1 H 0.4812(13) 0.1695(8) 0.2232(9)
N1 N 0.75837(9) 0.22156(6) 0.25919(7)
N2 N 0.62100(9) 0.29030(6) 0.29806(7)
N3 N 0.55096(11) 0.08520(7) 0.31075(9)
C1 C 0.64686(11) 0.21873(7) 0.27580(8)
C2 C 0.79914(13) 0.29444(8) 0.26603(11)
H2 H 0.8719 0.3107 0.2553
C3 C 0.71380(13) 0.33680(8) 0.29106(10)
H3 H 0.7163 0.3883 0.3019
C4 C 0.51454(11) 0.31917(7) 0.32643(9)
C5 C 0.43338(12) 0.34502(8) 0.26583(10)
C6 C 0.33607(14) 0.37748(9) 0.29637(13)
H4 H 0.2793 0.3944 0.2579
C7 C 0.32210(16) 0.38506(11) 0.38201(14)
H5 H 0.2568 0.4077 0.4008
C8 C 0.40320(16) 0.35967(10) 0.43985(12)
H6 H 0.3921 0.3652 0.4977
C9 C 0.50204(13) 0.32576(8) 0.41428(10)
C10 C 0.59234(16) 0.30030(10) 0.48028(10)
H7 H 0.6413 0.2639 0.4530
C11 C 0.5427(2) 0.26183(13) 0.55680(12)
H8 H 0.4975 0.2195 0.5377
H9 H 0.4961 0.2970 0.5857
H10 H 0.6032 0.2448 0.5952
C12 C 0.6661(2) 0.36695(13) 0.51085(14)
H11 H 0.6972 0.3912 0.4627
H12 H 0.7267 0.3491 0.5486
H13 H 0.6207 0.4023 0.5404
C13 C 0.45023(15) 0.34184(9) 0.17103(10)
H14 H 0.5165 0.3101 0.1623
C14 C 0.4756(2) 0.42043(12) 0.13718(13)
H15 H 0.4859 0.4177 0.0770
H16 H 0.5434 0.4396 0.1657
H17 H 0.4133 0.4534 0.1475
C15 C 0.3492(2) 0.30687(14) 0.12150(15)
H18 H 0.3353 0.2574 0.1433
H19 H 0.3652 0.3034 0.0623
H20 H 0.2833 0.3378 0.1276
C16 C 0.81980(12) 0.15698(7) 0.22965(9)
C17 C 0.75798(13) 0.10763(8) 0.17505(9)
C18 C 0.81884(15) 0.04760(8) 0.14283(10)
H21 H 0.7820 0.0138 0.1057
C19 C 0.93194(16) 0.03705(9) 0.16456(11)
H22 H 0.9712 -0.0021 0.1399
C20 C 0.98730(14) 0.08393(9) 0.22240(11)
H23 H 1.0632 0.0750 0.2379
C21 C 0.93171(12) 0.14495(8) 0.25859(10)
C22 C 0.99255(13) 0.18897(10) 0.33029(11)
H24 H 0.9375 0.2238 0.3535
C23 C 1.0339(2) 0.13628(13) 0.40263(13)
H25 H 0.9710 0.1076 0.4217
H26 H 1.0661 0.1656 0.4491
H27 H 1.0903 0.1027 0.3824
C24 C 1.09138(17) 0.23605(13) 0.30007(15)
H28 H 1.0646 0.2690 0.2549
H29 H 1.1487 0.2032 0.2796
H30 H 1.1229 0.2655 0.3467
C25 C 0.63216(14) 0.12035(9) 0.15620(10)
C26 C 0.62036(17) 0.18284(12) 0.08764(11)
H31 H 0.6576 0.1672 0.0377
H32 H 0.6546 0.2284 0.1094
H33 H 0.5415 0.1917 0.0733
C27 C 0.57337(18) 0.04952(12) 0.11886(14)
H34 H 0.6094 0.0345 0.0681
H35 H 0.4949 0.0604 0.1052
H36 H 0.5791 0.0095 0.1599
C28 C 0.64578(15) 0.04891(10) 0.35631(12)
H37 H 0.7132 0.0614 0.3251
C29 C 0.6380(2) -0.03720(12) 0.35691(18)
H38 H 0.6233 -0.0551 0.2998
H39 H 0.5775 -0.0526 0.3917
H40 H 0.7083 -0.0579 0.3796
C30 C 0.6696(2) 0.07659(13) 0.44690(15)
H41 H 0.6747 0.1306 0.4470
H42 H 0.7399 0.0556 0.4692
H43 H 0.6092 0.0611 0.4817
C31 C 0.43935(15) 0.07063(10) 0.34415(14)
H44 H 0.4501 0.0326 0.3891
C32 C 0.3568(2) 0.03784(18) 0.2770(2)
H45 H 0.3900 -0.0057 0.2519
H46 H 0.3401 0.0749 0.2336
H47 H 0.2880 0.0236 0.3029
C33 C 0.38571(17) 0.13860(13) 0.38396(16)
H48 H 0.4376 0.1597 0.4265
H49 H 0.3173 0.1236 0.4099
H50 H 0.3681 0.1756 0.3407
loop_
_geom_bond_atom_site_label_1
_geom_bond_atom_site_label_2
_geom_bond_site_symmetry_1
_geom_bond_site_symmetry_2
B1 H1 1_555 1_555
N1 C1 1_555 1_555
N2 C1 1_555 1_555
N3 B1 1_555 1_555
C1 B1 1_555 1_555
C2 N1 1_555 1_555
H2 C2 1_555 1_555
C3 N2 1_555 1_555
H3 C3 1_555 1_555
C4 N2 1_555 1_555
C5 C4 1_555 1_555
C6 C5 1_555 1_555
H4 C6 1_555 1_555
C7 C6 1_555 1_555
H5 C7 1_555 1_555
C8 C7 1_555 1_555
H6 C8 1_555 1_555
C9 C4 1_555 1_555
C10 C9 1_555 1_555
H7 C10 1_555 1_555
C11 C10 1_555 1_555
H8 C11 1_555 1_555
H9 C11 1_555 1_555
H10 C11 1_555 1_555
C12 C10 1_555 1_555
H11 C12 1_555 1_555
H12 C12 1_555 1_555
H13 C12 1_555 1_555
C13 C5 1_555 1_555
H14 C13 1_555 1_555
C14 C13 1_555 1_555
H15 C14 1_555 1_555
H16 C14 1_555 1_555
H17 C14 1_555 1_555
C15 C13 1_555 1_555
H18 C15 1_555 1_555
H19 C15 1_555 1_555
H20 C15 1_555 1_555
C16 N1 1_555 1_555
C17 C16 1_555 1_555
C18 C17 1_555 1_555
H21 C18 1_555 1_555
C19 C18 1_555 1_555
H22 C19 1_555 1_555
C20 C19 1_555 1_555
H23 C20 1_555 1_555
C21 C16 1_555 1_555
C22 C21 1_555 1_555
H24 C22 1_555 1_555
C23 C22 1_555 1_555
H25 C23 1_555 1_555
H26 C23 1_555 1_555
H27 C23 1_555 1_555
C24 C22 1_555 1_555
H28 C24 1_555 1_555
H29 C24 1_555 1_555
H30 C24 1_555 1_555
C25 B1 1_555 1_555
C26 C25 1_555 1_555
H31 C26 1_555 1_555
H32 C26 1_555 1_555
H33 C26 1_555 1_555
C27 C25 1_555 1_555
H34 C27 1_555 1_555
H35 C27 1_555 1_555
H36 C27 1_555 1_555
C28 N3 1_555 1_555
H37 C28 1_555 1_555
C29 C28 1_555 1_555
H38 C29 1_555 1_555
H39 C29 1_555 1_555
H40 C29 1_555 1_555
C30 C28 1_555 1_555
H41 C30 1_555 1_555
H42 C30 1_555 1_555
H43 C30 1_555 1_555
C31 N3 1_555 1_555
H44 C31 1_555 1_555
C32 C31 1_555 1_555
H45 C32 1_555 1_555
H46 C32 1_555 1_555
H47 C32 1_555 1_555
C33 C31 1_555 1_555
H48 C33 1_555 1_555
H49 C33 1_555 1_555
H50 C33 1_555 1_555
C2 C3 1_555 1_555
C8 C9 1_555 1_555
C17 C25 1_555 1_555
C20 C21 1_555 1_555

#END
