
#######################################################################
#
#                 Cambridge Crystallographic Data Centre
#                                CCDC 
#
#######################################################################
#
# If this CIF has been generated from an entry in the Cambridge 
# Structural Database, then it will include bibliographic, chemical, 
# crystal, experimental, refinement or atomic coordinate data resulting 
# from the CCDC's data processing and validation procedures.
#
#######################################################################

data_KEFZAZ
_chemical_formula_moiety         'C28 H26 Cl1 N1 O3 Se1'
_chemical_name_systematic        
'ethyl 1-benzyl-4-[(4-chlorophenyl)methyl]-2-methyl-5-oxo-4-(phenylselanyl)-4,5-dihydro-1H-pyrrole-3-carboxylate'
_symmetry_cell_setting           orthorhombic
_symmetry_space_group_name_H-M   'P 21 21 21'
_symmetry_Int_Tables_number      19
_space_group_name_Hall           'P 2ac 2ab'
loop_
_symmetry_equiv_pos_site_id
_symmetry_equiv_pos_as_xyz
1 x,y,z
2 1/2-x,-y,1/2+z
3 1/2+x,1/2-y,-z
4 -x,1/2+y,1/2-z
_cell_length_a                   8.269(5)
_cell_length_b                   16.049(5)
_cell_length_c                   18.529(5)
_cell_angle_alpha                90
_cell_angle_beta                 90
_cell_angle_gamma                90
_cell_volume                     2458.97
_exptl_crystal_colour            colorless
_exptl_crystal_description       rectangular
_cell_formula_units_Z            4
loop_
_atom_site_label
_atom_site_type_symbol
_atom_site_fract_x
_atom_site_fract_y
_atom_site_fract_z
Se1 Se 0.49315(5) 0.82934(2) 0.27355(2)
Cl1 Cl 0.11737(14) 1.27439(6) 0.48187(6)
O1 O 0.1275(4) 0.97867(18) 0.14972(14)
O2 O 0.3757(3) 1.01454(16) 0.18884(13)
O3 O 0.3171(3) 0.84812(16) 0.43701(15)
N1 N 0.1031(4) 0.8647(2) 0.35905(17)
C1 C 0.3800(5) 1.0572(2) 0.3798(2)
C2 C -0.1202(5) 0.8882(2) 0.4469(2)
C3 C -0.0844(5) 0.9720(2) 0.4500(2)
H1 H 0.0035 0.9927 0.4243
C4 C 0.1622(5) 0.6326(3) 0.2820(2)
H2 H 0.1255 0.5945 0.3161
C5 C -0.0186(5) 0.8262(2) 0.4042(2)
H3 H 0.0343 0.7886 0.4378
H4 H -0.0898 0.7932 0.3740
C6 C 0.2510(5) 1.1206(2) 0.4831(2)
H5 H 0.2184 1.1178 0.5311
C7 C -0.2522(5) 0.8583(3) 0.4855(2)
H6 H -0.2772 0.8018 0.4839
C8 C -0.3083(5) 0.9956(3) 0.5300(2)
H7 H -0.3698 1.0314 0.5584
C9 C 0.0772(5) 0.9026(2) 0.2918(2)
C10 C 0.2156(5) 0.9368(2) 0.2678(2)
C11 C 0.2767(5) 0.6916(2) 0.3014(2)
H8 H 0.3164 0.6934 0.3483
C12 C -0.1779(5) 1.0255(3) 0.4909(2)
H9 H -0.1529 1.0820 0.4922
C13 C 0.4039(5) 1.0549(2) 0.1199(2)
H10 H 0.3643 1.0193 0.0815
H11 H 0.5192 1.0623 0.1130
C14 C 0.2306(5) 0.9774(2) 0.1962(2)
C15 C 0.2719(5) 0.7448(3) 0.1804(2)
H12 H 0.3082 0.7829 0.1462
C16 C 0.3304(5) 1.0545(2) 0.4516(2)
H13 H 0.3514 1.0071 0.4789
C17 C 0.2205(5) 1.1909(2) 0.4427(2)
C18 C 0.3501(5) 0.9165(2) 0.3184(2)
C19 C 0.3211(6) 1.1386(3) 0.1151(2)
H14 H 0.3430 1.1632 0.0689
H15 H 0.3612 1.1744 0.1526
H16 H 0.2066 1.1314 0.1208
C20 C 0.2629(5) 0.8728(2) 0.3799(2)
C21 C -0.0872(5) 0.8973(3) 0.2593(2)
H17 H -0.1580 0.8679 0.2915
H18 H -0.0813 0.8682 0.2141
H19 H -0.1284 0.9525 0.2514
C22 C 0.1025(6) 0.6300(3) 0.2131(2)
H20 H 0.0243 0.5908 0.2009
C23 C -0.3460(5) 0.9112(3) 0.5260(2)
H21 H -0.4350 0.8906 0.5509
C24 C 0.4661(4) 0.9843(2) 0.3456(2)
H22 H 0.5393 0.9600 0.3807
H23 H 0.5306 1.0043 0.3054
C25 C 0.1580(6) 0.6854(3) 0.1613(2)
H24 H 0.1193 0.6828 0.1142
C26 C 0.3486(5) 1.1291(2) 0.3409(2)
H25 H 0.3812 1.1323 0.2929
C27 C 0.2698(5) 1.1962(3) 0.3717(2)
H26 H 0.2502 1.2442 0.3450
C28 C 0.3319(5) 0.7480(2) 0.2500(2)
loop_
_geom_bond_atom_site_label_1
_geom_bond_atom_site_label_2
_geom_bond_site_symmetry_1
_geom_bond_site_symmetry_2
Se1 C18 1_555 1_555
Cl1 C17 1_555 1_555
O1 C14 1_555 1_555
O2 C13 1_555 1_555
O3 C20 1_555 1_555
N1 C5 1_555 1_555
C1 C16 1_555 1_555
C2 C3 1_555 1_555
C3 H1 1_555 1_555
C4 H2 1_555 1_555
C5 C2 1_555 1_555
H3 C5 1_555 1_555
H4 C5 1_555 1_555
C6 H5 1_555 1_555
C7 C2 1_555 1_555
H6 C7 1_555 1_555
C8 H7 1_555 1_555
C9 N1 1_555 1_555
C10 C9 1_555 1_555
C11 C4 1_555 1_555
H8 C11 1_555 1_555
C12 C3 1_555 1_555
H9 C12 1_555 1_555
C13 H10 1_555 1_555
H11 C13 1_555 1_555
C14 O2 1_555 1_555
C15 H12 1_555 1_555
C16 C6 1_555 1_555
H13 C16 1_555 1_555
C17 C6 1_555 1_555
C18 C10 1_555 1_555
C19 C13 1_555 1_555
H14 C19 1_555 1_555
H15 C19 1_555 1_555
H16 C19 1_555 1_555
C20 N1 1_555 1_555
C21 C9 1_555 1_555
H17 C21 1_555 1_555
H18 C21 1_555 1_555
H19 C21 1_555 1_555
C22 C4 1_555 1_555
H20 C22 1_555 1_555
C23 C7 1_555 1_555
H21 C23 1_555 1_555
C24 C1 1_555 1_555
H22 C24 1_555 1_555
H23 C24 1_555 1_555
C25 C15 1_555 1_555
H24 C25 1_555 1_555
C26 C1 1_555 1_555
H25 C26 1_555 1_555
C27 C17 1_555 1_555
H26 C27 1_555 1_555
C28 Se1 1_555 1_555
C8 C12 1_555 1_555
C8 C23 1_555 1_555
C10 C14 1_555 1_555
C11 C28 1_555 1_555
C15 C28 1_555 1_555
C18 C20 1_555 1_555
C18 C24 1_555 1_555
C22 C25 1_555 1_555
C26 C27 1_555 1_555

#END
