
#######################################################################
#
#                 Cambridge Crystallographic Data Centre
#                                CCDC 
#
#######################################################################
#
# If this CIF has been generated from an entry in the Cambridge 
# Structural Database, then it will include bibliographic, chemical, 
# crystal, experimental, refinement or atomic coordinate data resulting 
# from the CCDC's data processing and validation procedures.
#
#######################################################################

data_KEGCIJ
_chemical_name_common            "(E)-4,4'-Diazastilbene 4,4'-oxydibenzoic acid"
_chemical_formula_moiety         'C14 H10 O5,C12 H10 N2'
_chemical_name_systematic        
"4-((E)-2-(pyridin-4-yl)vinyl)pyridine 4,4'-oxydibenzoic acid"
_symmetry_cell_setting           monoclinic
_symmetry_space_group_name_H-M   'C 2/c'
_symmetry_Int_Tables_number      15
_space_group_name_Hall           '-C 2yn'
loop_
_symmetry_equiv_pos_site_id
_symmetry_equiv_pos_as_xyz
1 x,y,z
2 1/2+x,1/2+y,z
3 -x,y,1/2-z
4 1/2-x,1/2+y,1/2-z
5 -x,-y,-z
6 1/2-x,1/2-y,-z
7 x,-y,1/2+z
8 1/2+x,1/2-y,1/2+z
_cell_length_a                   13.308(5)
_cell_length_b                   6.080(2)
_cell_length_c                   26.143(10)
_cell_angle_alpha                90
_cell_angle_beta                 92.603(7)
_cell_angle_gamma                90
_cell_volume                     2113.12
_exptl_crystal_colour            colorless
_exptl_crystal_description       Rod
_cell_formula_units_Z            4
loop_
_atom_site_label
_atom_site_type_symbol
_atom_site_fract_x
_atom_site_fract_y
_atom_site_fract_z
O1 O 0.8443(2) 0.6954(5) 0.85291(10)
H1 H 0.8936 0.7353 0.8705
O2 O 0.8615(2) 0.3973(5) 0.90075(10)
O3 O 0.5000 0.1053(5) 0.7500
C7 C 0.8212(2) 0.4933(6) 0.86497(13)
C8 C 0.7389(2) 0.3967(6) 0.83185(11)
C9 C 0.6947(2) 0.5074(5) 0.79020(11)
H7 H 0.7193 0.6443 0.7810
C10 C 0.6146(2) 0.4165(6) 0.76231(12)
H8 H 0.5858 0.4907 0.7342
C11 C 0.5777(2) 0.2149(5) 0.77638(11)
C12 C 0.6231(3) 0.0997(6) 0.81624(13)
H9 H 0.5994 -0.0388 0.8248
C13 C 0.7034(3) 0.1896(6) 0.84346(13)
H10 H 0.7345 0.1102 0.8701
O1B O 0.1557(2) 0.6954(5) 0.64709(10)
H1B H 0.1064 0.7353 0.6295
O2B O 0.1385(2) 0.3973(5) 0.59925(10)
C7B C 0.1788(2) 0.4933(6) 0.63503(13)
C8B C 0.2611(2) 0.3967(6) 0.66815(11)
C9B C 0.3053(2) 0.5074(5) 0.70980(11)
H7B H 0.2807 0.6443 0.7190
C10B C 0.3854(2) 0.4165(6) 0.73769(12)
H8B H 0.4142 0.4907 0.7658
C11B C 0.4223(2) 0.2149(5) 0.72362(11)
C12B C 0.3769(3) 0.0997(6) 0.68376(13)
H9B H 0.4006 -0.0388 0.6752
C13B C 0.2966(3) 0.1896(6) 0.65654(13)
H10B H 0.2655 0.1102 0.6299
N1 N 0.4931(2) 0.3587(5) 0.91063(11)
C1 C 0.5306(3) 0.5534(7) 0.89850(12)
H2 H 0.5041 0.6239 0.8693
C2 C 0.6062(2) 0.6555(6) 0.92681(12)
H3 H 0.6298 0.7919 0.9167
C3 C 0.6477(2) 0.5548(6) 0.97075(12)
C4 C 0.6087(2) 0.3502(6) 0.98273(12)
H4 H 0.6337 0.2747 1.0115
C5 C 0.5329(2) 0.2592(6) 0.95187(13)
H5 H 0.5085 0.1213 0.9604
C6 C 0.7263(2) 0.6572(5) 1.00387(13)
H6 H 0.7447 0.5820 1.0338
N1E N 1.0069(2) 1.1413(5) 1.08937(11)
C1E C 0.9694(3) 0.9466(7) 1.10150(12)
H2E H 0.9959 0.8761 1.1307
C2E C 0.8938(2) 0.8445(6) 1.07319(12)
H3E H 0.8702 0.7081 1.0833
C3E C 0.8523(2) 0.9452(6) 1.02925(12)
C4E C 0.8913(2) 1.1498(6) 1.01727(12)
H4E H 0.8663 1.2253 0.9885
C5E C 0.9671(2) 1.2408(6) 1.04813(13)
H5E H 0.9915 1.3787 1.0396
C6E C 0.7737(2) 0.8428(5) 0.99613(13)
H6E H 0.7553 0.9180 0.9662
loop_
_geom_bond_atom_site_label_1
_geom_bond_atom_site_label_2
_geom_bond_site_symmetry_1
_geom_bond_site_symmetry_2
O1 H1 1_555 1_555
O2 C7 1_555 1_555
O3 C11 1_555 1_555
N1 C1 1_555 1_555
C1 H2 1_555 1_555
C2 C1 1_555 1_555
H3 C2 1_555 1_555
C3 C2 1_555 1_555
C4 C3 1_555 1_555
H4 C4 1_555 1_555
C5 N1 1_555 1_555
H5 C5 1_555 1_555
C6 C3 1_555 1_555
H6 C6 1_555 1_555
C7 O1 1_555 1_555
C8 C7 1_555 1_555
C9 C8 1_555 1_555
H7 C9 1_555 1_555
C10 C9 1_555 1_555
H8 C10 1_555 1_555
C11 C10 1_555 1_555
C12 C11 1_555 1_555
H9 C12 1_555 1_555
C13 C8 1_555 1_555
H10 C13 1_555 1_555
O1B H1B 1_555 1_555
O2B C7B 1_555 1_555
N1E C1E 1_555 1_555
C1E H2E 1_555 1_555
C2E C1E 1_555 1_555
H3E C2E 1_555 1_555
C3E C2E 1_555 1_555
C4E C3E 1_555 1_555
H4E C4E 1_555 1_555
C5E N1E 1_555 1_555
H5E C5E 1_555 1_555
C6E C6 1_555 1_555
H6E C6E 1_555 1_555
C7B O1B 1_555 1_555
C8B C7B 1_555 1_555
C9B C8B 1_555 1_555
H7B C9B 1_555 1_555
C10B C9B 1_555 1_555
H8B C10B 1_555 1_555
C11B O3 1_555 1_555
C12B C11B 1_555 1_555
H9B C12B 1_555 1_555
C13B C8B 1_555 1_555
H10B C13B 1_555 1_555
C4 C5 1_555 1_555
C12 C13 1_555 1_555
C3E C6E 1_555 1_555
C4E C5E 1_555 1_555
C10B C11B 1_555 1_555
C12B C13B 1_555 1_555

#END
