
#######################################################################
#
#                 Cambridge Crystallographic Data Centre
#                                CCDC 
#
#######################################################################
#
# If this CIF has been generated from an entry in the Cambridge 
# Structural Database, then it will include bibliographic, chemical, 
# crystal, experimental, refinement or atomic coordinate data resulting 
# from the CCDC's data processing and validation procedures.
#
#######################################################################

data_KEGJAJ
_chemical_formula_moiety         'C52 H56 O6 P2,0.5(C6 H14)'
_chemical_name_systematic        
"6,6'-((3,3',5,5'-Tetra-t-butylbiphenyl-2,2'-diyl)bis(oxy))bisdibenzo[d,f][1,3,2]dioxaphosphepine hexane solvate"
_symmetry_cell_setting           orthorhombic
_symmetry_space_group_name_H-M   'P b c a'
_symmetry_Int_Tables_number      61
_space_group_name_Hall           '-P 2ac 2ab'
loop_
_symmetry_equiv_pos_site_id
_symmetry_equiv_pos_as_xyz
1 x,y,z
2 1/2-x,-y,1/2+z
3 -x,1/2+y,1/2-z
4 1/2+x,1/2-y,-z
5 -x,-y,-z
6 1/2+x,y,1/2-z
7 x,1/2-y,1/2+z
8 1/2-x,1/2+y,z
_cell_length_a                   11.8400(13)
_cell_length_b                   25.381(3)
_cell_length_c                   34.243(4)
_cell_angle_alpha                90
_cell_angle_beta                 90
_cell_angle_gamma                90
_cell_volume                     10290.4
_cell_formula_units_Z            8
loop_
_atom_site_label
_atom_site_type_symbol
_atom_site_fract_x
_atom_site_fract_y
_atom_site_fract_z
P1 P 0.67726(6) 0.34323(3) 0.52977(2)
P2 P 0.47647(7) 0.36031(3) 0.66494(2)
O1 O 0.54182(17) 0.34960(8) 0.52176(6)
O2 O 0.72495(17) 0.38588(8) 0.49830(6)
O3 O 0.67516(17) 0.37713(8) 0.57028(6)
O4 O 0.56814(18) 0.40835(8) 0.66165(6)
O5 O 0.36381(19) 0.39554(9) 0.67321(7)
O6 O 0.46652(17) 0.35018(8) 0.61833(6)
C1 C 0.5049(2) 0.33702(12) 0.48405(8)
C2 C 0.4511(2) 0.28902(12) 0.47812(9)
H1 H 0.4414 0.2650 0.4992
C3 C 0.4118(3) 0.27654(13) 0.44114(10)
H2 H 0.3752 0.2438 0.4367
C4 C 0.4258(3) 0.31189(14) 0.41067(10)
H3 H 0.3998 0.3032 0.3852
C5 C 0.4780(3) 0.36017(14) 0.41737(9)
H4 H 0.4863 0.3843 0.3964
C6 C 0.5184(2) 0.37376(12) 0.45420(9)
C7 C 0.5715(3) 0.42563(12) 0.46170(9)
C8 C 0.5241(3) 0.47160(13) 0.44608(10)
H5 H 0.4582 0.4691 0.4304
C9 C 0.5715(3) 0.52063(14) 0.45308(11)
H6 H 0.5376 0.5514 0.4426
C10 C 0.6684(3) 0.52442(14) 0.47547(10)
H7 H 0.7014 0.5579 0.4802
C11 C 0.7176(3) 0.47944(13) 0.49098(9)
H8 H 0.7847 0.4820 0.5061
C12 C 0.6685(3) 0.43096(12) 0.48431(9)
C13 C 0.7288(2) 0.35744(11) 0.60384(8)
C14 C 0.8142(2) 0.38730(11) 0.62178(9)
C15 C 0.8659(3) 0.36484(12) 0.65416(9)
H9 H 0.9259 0.3838 0.6661
C16 C 0.8362(2) 0.31657(12) 0.67033(9)
C17 C 0.7464(3) 0.28997(12) 0.65276(9)
H10 H 0.7219 0.2574 0.6635
C18 C 0.6917(2) 0.30980(11) 0.61990(8)
C19 C 0.5947(2) 0.27938(11) 0.60326(8)
C20 C 0.6134(2) 0.22897(11) 0.58861(8)
H11 H 0.6877 0.2148 0.5892
C21 C 0.5264(2) 0.19872(11) 0.57311(8)
C22 C 0.4188(3) 0.22099(12) 0.57266(9)
H12 H 0.3588 0.2009 0.5618
C23 C 0.3940(2) 0.27100(11) 0.58713(8)
C24 C 0.4849(2) 0.29924(11) 0.60314(8)
C25 C 0.5801(3) 0.43869(13) 0.69548(9)
C26 C 0.6709(3) 0.42919(15) 0.71980(10)
H13 H 0.7235 0.4021 0.7139
C27 C 0.6840(4) 0.45990(18) 0.75294(12)
H14 H 0.7460 0.4540 0.7700
C28 C 0.6072(4) 0.49897(18) 0.76119(12)
H15 H 0.6161 0.5197 0.7841
C29 C 0.5176(4) 0.50835(16) 0.73665(11)
H16 H 0.4652 0.5355 0.7428
C30 C 0.5025(3) 0.47850(13) 0.70277(10)
C31 C 0.4089(3) 0.48839(14) 0.67498(10)
C32 C 0.3801(3) 0.53942(15) 0.66312(12)
H17 H 0.4211 0.5686 0.6731
C33 C 0.2924(3) 0.54804(17) 0.63693(12)
H18 H 0.2747 0.5829 0.6288
C34 C 0.2318(3) 0.50654(17) 0.62287(12)
H19 H 0.1718 0.5127 0.6050
C35 C 0.2568(3) 0.45552(16) 0.63433(10)
H20 H 0.2134 0.4267 0.6249
C36 C 0.3456(3) 0.44707(13) 0.65965(9)
C37 C 0.8509(3) 0.44218(12) 0.60752(9)
C38 C 0.7485(3) 0.47826(12) 0.60053(10)
H21 H 0.7748 0.5137 0.5938
H22 H 0.7026 0.4799 0.6243
H23 H 0.7029 0.4642 0.5790
C39 C 0.9205(3) 0.43566(14) 0.57004(10)
H24 H 0.8741 0.4187 0.5500
H25 H 0.9868 0.4138 0.5755
H26 H 0.9449 0.4704 0.5607
C40 C 0.9257(3) 0.47036(14) 0.63799(11)
H27 H 0.9958 0.4504 0.6416
H28 H 0.8851 0.4726 0.6629
H29 H 0.9435 0.5060 0.6288
C41 C 0.8951(3) 0.29422(14) 0.70671(9)
C42 C 0.9913(3) 0.32936(17) 0.72115(11)
H30 H 1.0471 0.3338 0.7002
H31 H 1.0275 0.3129 0.7438
H32 H 0.9611 0.3639 0.7286
C43 C 0.9435(4) 0.24011(16) 0.69725(11)
H33 H 0.8827 0.2168 0.6884
H34 H 0.9786 0.2252 0.7207
H35 H 1.0004 0.2435 0.6766
C44 C 0.8083(3) 0.28934(16) 0.73996(10)
H36 H 0.7770 0.3242 0.7459
H37 H 0.8454 0.2751 0.7633
H38 H 0.7473 0.2656 0.7319
C45 C 0.5450(3) 0.14381(12) 0.55536(9)
C46 C 0.5194(3) 0.14649(14) 0.51163(10)
H39 H 0.4404 0.1569 0.5078
H40 H 0.5322 0.1118 0.4998
H41 H 0.5691 0.1725 0.4993
C47 C 0.6661(3) 0.12438(13) 0.56013(11)
H42 H 0.7178 0.1489 0.5471
H43 H 0.6735 0.0893 0.5484
H44 H 0.6849 0.1225 0.5880
C48 C 0.4641(3) 0.10379(13) 0.57446(12)
H45 H 0.4796 0.1018 0.6025
H46 H 0.4754 0.0690 0.5627
H47 H 0.3859 0.1151 0.5703
C49 C 0.2729(2) 0.29296(12) 0.58423(9)
C50 C 0.2737(3) 0.34694(12) 0.56341(10)
H48 H 0.3016 0.3426 0.5367
H49 H 0.3231 0.3713 0.5776
H50 H 0.1968 0.3612 0.5627
C51 C 0.1966(3) 0.25709(14) 0.56012(11)
H51 H 0.1215 0.2731 0.5578
H52 H 0.1900 0.2228 0.5730
H53 H 0.2291 0.2524 0.5340
C52 C 0.2199(3) 0.29753(15) 0.62504(10)
H54 H 0.1425 0.3108 0.6227
H55 H 0.2645 0.3219 0.6410
H56 H 0.2189 0.2628 0.6375
C53 C 0.2921(11) 0.1694(4) 0.6983(3)
H57 H 0.2855 0.1503 0.7231
H58 H 0.2537 0.1495 0.6776
H59 H 0.2571 0.2042 0.7009
C54 C 0.4242(12) 0.1762(4) 0.6872(2)
H60 H 0.4288 0.1804 0.6585
H61 H 0.4503 0.2097 0.6989
C55 C 0.5022(11) 0.1372(3) 0.6977(2)
H62 H 0.4732 0.1034 0.6873
H63 H 0.4998 0.1343 0.7266
C56 C 0.6205(9) 0.1405(3) 0.6867(2)
C57 C 0.6973(11) 0.0955(3) 0.6928(3)
C58 C 0.7997(9) 0.0981(3) 0.6797(3)
H64 H 0.6531 0.1709 0.7008
H66 H 0.7018 0.0891 0.7213
H67 H 0.6615 0.0641 0.6810
H68 H 0.7990 0.1120 0.6530
H69 H 0.8333 0.0628 0.6797
H70 H 0.8445 0.1214 0.6965
H65? H 0.6229 0.1493 0.6586
loop_
_geom_bond_atom_site_label_1
_geom_bond_atom_site_label_2
_geom_bond_site_symmetry_1
_geom_bond_site_symmetry_2
P1 O1 1_555 1_555
P2 O4 1_555 1_555
O1 C1 1_555 1_555
O2 P1 1_555 1_555
O3 P1 1_555 1_555
O4 C25 1_555 1_555
O5 P2 1_555 1_555
O6 P2 1_555 1_555
C1 C2 1_555 1_555
C2 H1 1_555 1_555
C3 C2 1_555 1_555
H2 C3 1_555 1_555
C4 C3 1_555 1_555
H3 C4 1_555 1_555
C5 C4 1_555 1_555
H4 C5 1_555 1_555
C6 C1 1_555 1_555
C7 C6 1_555 1_555
C8 C7 1_555 1_555
H5 C8 1_555 1_555
C9 C8 1_555 1_555
H6 C9 1_555 1_555
C10 C9 1_555 1_555
H7 C10 1_555 1_555
C11 C10 1_555 1_555
H8 C11 1_555 1_555
C12 O2 1_555 1_555
C13 O3 1_555 1_555
C14 C13 1_555 1_555
C15 C14 1_555 1_555
H9 C15 1_555 1_555
C16 C15 1_555 1_555
C17 C16 1_555 1_555
H10 C17 1_555 1_555
C18 C13 1_555 1_555
C19 C18 1_555 1_555
C20 C19 1_555 1_555
H11 C20 1_555 1_555
C21 C20 1_555 1_555
C22 C21 1_555 1_555
H12 C22 1_555 1_555
C23 C22 1_555 1_555
C24 O6 1_555 1_555
C25 C26 1_555 1_555
C26 H13 1_555 1_555
C27 C26 1_555 1_555
H14 C27 1_555 1_555
C28 C27 1_555 1_555
H15 C28 1_555 1_555
C29 C28 1_555 1_555
H16 C29 1_555 1_555
C30 C25 1_555 1_555
C31 C30 1_555 1_555
C32 C31 1_555 1_555
H17 C32 1_555 1_555
C33 C32 1_555 1_555
H18 C33 1_555 1_555
C34 C33 1_555 1_555
H19 C34 1_555 1_555
C35 C34 1_555 1_555
H20 C35 1_555 1_555
C36 O5 1_555 1_555
C37 C14 1_555 1_555
C38 C37 1_555 1_555
H21 C38 1_555 1_555
H22 C38 1_555 1_555
H23 C38 1_555 1_555
C39 C37 1_555 1_555
H24 C39 1_555 1_555
H25 C39 1_555 1_555
H26 C39 1_555 1_555
C40 C37 1_555 1_555
H27 C40 1_555 1_555
H28 C40 1_555 1_555
H29 C40 1_555 1_555
C41 C16 1_555 1_555
C42 C41 1_555 1_555
H30 C42 1_555 1_555
H31 C42 1_555 1_555
H32 C42 1_555 1_555
C43 C41 1_555 1_555
H33 C43 1_555 1_555
H34 C43 1_555 1_555
H35 C43 1_555 1_555
C44 C41 1_555 1_555
H36 C44 1_555 1_555
H37 C44 1_555 1_555
H38 C44 1_555 1_555
C45 C21 1_555 1_555
C46 C45 1_555 1_555
H39 C46 1_555 1_555
H40 C46 1_555 1_555
H41 C46 1_555 1_555
C47 C45 1_555 1_555
H42 C47 1_555 1_555
H43 C47 1_555 1_555
H44 C47 1_555 1_555
C48 C45 1_555 1_555
H45 C48 1_555 1_555
H46 C48 1_555 1_555
H47 C48 1_555 1_555
C49 C23 1_555 1_555
C50 C49 1_555 1_555
H48 C50 1_555 1_555
H49 C50 1_555 1_555
H50 C50 1_555 1_555
C51 C49 1_555 1_555
H51 C51 1_555 1_555
H52 C51 1_555 1_555
H53 C51 1_555 1_555
C52 C49 1_555 1_555
H54 C52 1_555 1_555
H55 C52 1_555 1_555
H56 C52 1_555 1_555
C53 H57 1_555 1_555
H58 C53 1_555 1_555
H59 C53 1_555 1_555
C54 C53 1_555 1_555
H60 C54 1_555 1_555
H61 C54 1_555 1_555
C55 C54 1_555 1_555
H62 C55 1_555 1_555
H63 C55 1_555 1_555
C56 C55 1_555 1_555
C57 C56 1_555 1_555
C58 C57 1_555 1_555
H64 C56 1_555 1_555
H66 C57 1_555 1_555
H67 C57 1_555 1_555
H68 C58 1_555 1_555
H69 C58 1_555 1_555
H70 C58 1_555 1_555
C5 C6 1_555 1_555
C7 C12 1_555 1_555
C11 C12 1_555 1_555
C17 C18 1_555 1_555
C19 C24 1_555 1_555
C23 C24 1_555 1_555
C29 C30 1_555 1_555
C31 C36 1_555 1_555
C35 C36 1_555 1_555

#END
