
#######################################################################
#
#                 Cambridge Crystallographic Data Centre
#                                CCDC 
#
#######################################################################
#
# If this CIF has been generated from an entry in the Cambridge 
# Structural Database, then it will include bibliographic, chemical, 
# crystal, experimental, refinement or atomic coordinate data resulting 
# from the CCDC's data processing and validation procedures.
#
#######################################################################

data_KEGJOX
_chemical_formula_moiety         'C17 H18 N2 O7'
_chemical_name_systematic        
'Ethyl 3-acetamido-6-methyl-4-(4-nitrophenyl)-2-oxo-3,4-dihydro-2H-pyran-5-carboxylate'
_symmetry_cell_setting           orthorhombic
_symmetry_space_group_name_H-M   'P b c a'
_symmetry_Int_Tables_number      61
_space_group_name_Hall           '-P 2ac 2ab'
loop_
_symmetry_equiv_pos_site_id
_symmetry_equiv_pos_as_xyz
1 x,y,z
2 1/2-x,-y,1/2+z
3 -x,1/2+y,1/2-z
4 1/2+x,1/2-y,-z
5 -x,-y,-z
6 1/2+x,y,1/2-z
7 x,1/2-y,1/2+z
8 1/2-x,1/2+y,z
_cell_length_a                   11.7781(16)
_cell_length_b                   9.5979(10)
_cell_length_c                   32.115(3)
_cell_angle_alpha                90
_cell_angle_beta                 90
_cell_angle_gamma                90
_cell_volume                     3630.44
_exptl_crystal_colour            colorless
_exptl_crystal_description       block
_cell_formula_units_Z            8
loop_
_atom_site_label
_atom_site_type_symbol
_atom_site_fract_x
_atom_site_fract_y
_atom_site_fract_z
N1 N 0.8229(2) 0.9425(3) 0.69429(10)
H1 H 0.8079 1.0300 0.6959
N2 N 0.8555(5) 1.1300(6) 0.50895(16)
O1 O 1.1265(2) 0.9915(3) 0.71082(8)
O2 O 0.9788(2) 1.1168(3) 0.72955(10)
O3 O 0.7579(2) 0.7258(3) 0.68906(10)
O4 O 1.0883(3) 0.6358(3) 0.61244(10)
O5 O 1.2659(3) 0.6948(4) 0.62708(12)
O6 O 0.9377(15) 1.2057(15) 0.4915(4)
O7 O 0.7699(5) 1.0986(7) 0.49220(16)
C1 C 1.0121(3) 1.0115(4) 0.71326(12)
C2 C 0.9395(3) 0.8960(4) 0.69707(12)
H2 H 0.9413 0.8220 0.7181
C3 C 0.9849(3) 0.8321(4) 0.65657(12)
H3 H 0.9513 0.7390 0.6543
C4 C 1.1115(3) 0.8117(4) 0.66052(13)
C5 C 1.1737(3) 0.8862(5) 0.68660(13)
C6 C 0.7382(3) 0.8516(4) 0.68923(13)
C7 C 0.6218(3) 0.9099(4) 0.68332(15)
H4 H 0.6006 0.9023 0.6546
H5 H 0.6212 1.0061 0.6915
H6 H 0.5689 0.8587 0.7001
C8 C 0.9513(3) 0.9110(4) 0.61759(12)
C9 C 1.0120(4) 1.0246(5) 0.60423(14)
H7 H 1.0748 1.0542 0.6194
C10 C 0.9814(4) 1.0948(5) 0.56898(16)
H8 H 1.0239 1.1708 0.5600
C11 C 0.8887(4) 1.0532(5) 0.54713(14)
C12 C 0.8266(4) 0.9421(6) 0.55933(16)
H9 H 0.7630 0.9146 0.5442
C13 C 0.8590(4) 0.8707(5) 0.59441(14)
H10 H 0.8173 0.7931 0.6027
C14 C 1.1654(4) 0.7102(5) 0.63262(14)
C15 C 1.1282(5) 0.5410(6) 0.58041(16)
H11 H 1.1719 0.4659 0.5927
H12 H 1.1760 0.5900 0.5606
C16 C 1.0266(6) 0.4855(6) 0.55951(19)
H13 H 0.9844 0.4288 0.5787
H14 H 1.0491 0.4302 0.5360
H15 H 0.9799 0.5613 0.5502
C17 C 1.2980(3) 0.8807(6) 0.69590(14)
H16 H 1.3180 0.7886 0.7049
H17 H 1.3156 0.9464 0.7175
H18 H 1.3401 0.9038 0.6712
O8? O 0.884(2) 1.243(2) 0.5055(6)
loop_
_geom_bond_atom_site_label_1
_geom_bond_atom_site_label_2
_geom_bond_site_symmetry_1
_geom_bond_site_symmetry_2
N1 H1 1_555 1_555
N2 O6 1_555 1_555
O1 C1 1_555 1_555
O2 C1 1_555 1_555
O3 C6 1_555 1_555
O4 C14 1_555 1_555
O5 C14 1_555 1_555
O7 N2 1_555 1_555
C1 C2 1_555 1_555
C2 N1 1_555 1_555
H2 C2 1_555 1_555
C3 C2 1_555 1_555
H3 C3 1_555 1_555
C4 C3 1_555 1_555
C5 O1 1_555 1_555
C6 N1 1_555 1_555
C7 C6 1_555 1_555
H4 C7 1_555 1_555
H5 C7 1_555 1_555
H6 C7 1_555 1_555
C8 C3 1_555 1_555
C9 C8 1_555 1_555
H7 C9 1_555 1_555
C10 C9 1_555 1_555
H8 C10 1_555 1_555
C11 N2 1_555 1_555
C12 C11 1_555 1_555
H9 C12 1_555 1_555
C13 C8 1_555 1_555
H10 C13 1_555 1_555
C14 C4 1_555 1_555
C15 O4 1_555 1_555
H11 C15 1_555 1_555
H12 C15 1_555 1_555
C16 C15 1_555 1_555
H13 C16 1_555 1_555
H14 C16 1_555 1_555
H15 C16 1_555 1_555
C17 C5 1_555 1_555
H16 C17 1_555 1_555
H17 C17 1_555 1_555
H18 C17 1_555 1_555
C4 C5 1_555 1_555
C10 C11 1_555 1_555
C12 C13 1_555 1_555

#END
