
#######################################################################
#
#                 Cambridge Crystallographic Data Centre
#                                CCDC 
#
#######################################################################
#
# If this CIF has been generated from an entry in the Cambridge 
# Structural Database, then it will include bibliographic, chemical, 
# crystal, experimental, refinement or atomic coordinate data resulting 
# from the CCDC's data processing and validation procedures.
#
#######################################################################

data_KEGLUG
_chemical_formula_moiety         'C33 H33 N1 O5 S2'
_chemical_name_systematic        
N-(3-(4-methylphenyl)-1-oxo-4-(tricyclo[3.3.1.1^3,7^]decan-2-ylidene)but-2-en-2-yl)-N-(phenylsulfonyl)benzenesulfonamide
_symmetry_cell_setting           monoclinic
_symmetry_space_group_name_H-M   'P 21/n'
_symmetry_Int_Tables_number      14
_space_group_name_Hall           '-P 2yn'
loop_
_symmetry_equiv_pos_site_id
_symmetry_equiv_pos_as_xyz
1 x,y,z
2 1/2-x,1/2+y,1/2-z
3 -x,-y,-z
4 1/2+x,1/2-y,1/2+z
_cell_length_a                   10.762
_cell_length_b                   25.036
_cell_length_c                   11.215
_cell_angle_alpha                90
_cell_angle_beta                 104.63
_cell_angle_gamma                90
_cell_volume                     2923.77
_exptl_crystal_colour            colorless
_exptl_crystal_description       block
_cell_formula_units_Z            4
loop_
_atom_site_label
_atom_site_type_symbol
_atom_site_fract_x
_atom_site_fract_y
_atom_site_fract_z
S1 S 0.20158(5) 0.03692(2) 0.34081(5)
S2 S 0.23668(5) 0.12507(2) 0.17702(5)
O1 O 0.13319(15) 0.01566(7) 0.22541(16)
N1 N 0.28077(16) 0.09129(7) 0.31076(15)
O2 O 0.29448(15) 0.00584(6) 0.42454(17)
O3 O 0.31743(19) 0.17086(7) 0.19775(17)
C1 C 0.40186(19) 0.13893(8) 0.4935(2)
O4 O 0.10106(16) 0.13055(8) 0.14898(17)
O5 O 0.51034(17) 0.04516(8) 0.29936(17)
C2 C 0.0886(2) 0.05992(8) 0.4177(2)
C3 C 0.52330(19) 0.14282(8) 0.5934(2)
C4 C 0.5634(2) 0.09955(10) 0.6705(2)
H1 H 0.5139 0.0686 0.6609
C5 C 0.7527(2) 0.14714(13) 0.7783(2)
C6 C 0.5994(2) 0.18813(10) 0.6098(2)
H2 H 0.5741 0.2175 0.5587
C7 C 0.2628(2) 0.20145(9) 0.5840(2)
C8 C 0.39959(18) 0.10374(8) 0.40042(19)
C9 C 0.2897(2) 0.17058(9) 0.4955(2)
H3 H 0.2248 0.1693 0.4229
C10 C 0.2752(2) 0.08630(10) 0.0611(2)
C11 C -0.0306(2) 0.07708(10) 0.3500(3)
H4 H -0.0489 0.0794 0.2646
C12 C 0.5129(2) 0.07556(10) 0.3834(2)
H5 H 0.5910 0.0814 0.4403
C13 C 0.1178(3) 0.05627(10) 0.5448(2)
H6 H 0.1979 0.0445 0.5897
C14 C -0.1217(3) 0.09061(11) 0.4119(3)
H7 H -0.2026 0.1018 0.3677
C15 C 0.6767(2) 0.10226(12) 0.7616(2)
H8 H 0.7022 0.0730 0.8130
C16 C 0.3418(2) 0.21381(11) 0.7112(2)
H9 H 0.4224 0.1936 0.7295
C17 C 0.1859(3) 0.05225(13) -0.0089(3)
H10 H 0.1050 0.0487 0.0059
C18 C 0.7132(2) 0.19002(13) 0.7018(3)
H11 H 0.7633 0.2208 0.7118
C19 C -0.0942(3) 0.08778(10) 0.5377(3)
H12 H -0.1560 0.0974 0.5785
C20 C 0.2446(3) 0.30576(11) 0.6859(3)
H13 H 0.2634 0.3441 0.6876
C21 C 0.1365(3) 0.23149(13) 0.5573(3)
H14 H 0.0841 0.2215 0.4755
C22 C 0.3688(3) 0.27490(13) 0.7143(3)
H15 H 0.4164 0.2836 0.6541
H16 H 0.4206 0.2849 0.7951
C23 C 0.0233(3) 0.07085(11) 0.6030(3)
H17 H 0.0408 0.0690 0.6885
C24 C 0.1726(3) 0.29286(12) 0.7850(3)
H18 H 0.2255 0.3021 0.8659
H19 H 0.0938 0.3135 0.7701
C25 C 0.1639(4) 0.29071(13) 0.5604(3)
H20 H 0.0839 0.3105 0.5425
H21 H 0.2090 0.2996 0.4984
C26 C 0.3955(3) 0.09251(13) 0.0403(3)
H22 H 0.4553 0.1159 0.0876
C27 C 0.1425(3) 0.23465(12) 0.7794(3)
H23 H 0.0945 0.2261 0.8404
C28 C 0.0629(3) 0.22025(14) 0.6526(4)
H24 H -0.0160 0.2408 0.6338
H25 H 0.0405 0.1827 0.6504
C29 C 0.4243(4) 0.0624(2) -0.0544(4)
H26 H 0.5044 0.0658 -0.0709
C30 C 0.2671(4) 0.20214(13) 0.8067(3)
H27 H 0.3193 0.2111 0.8881
H28 H 0.2470 0.1643 0.8057
C31 C 0.8795(3) 0.14748(19) 0.8769(3)
H29 H 0.9207 0.1815 0.8768
H30 H 0.9343 0.1198 0.8598
H31 H 0.8635 0.1414 0.9562
C32 C 0.3368(6) 0.0286(2) -0.1221(4)
H32 H 0.3577 0.0084 -0.1839
C33 C 0.2180(5) 0.02365(17) -0.1009(3)
H33 H 0.1582 0.0006 -0.1493
loop_
_geom_bond_atom_site_label_1
_geom_bond_atom_site_label_2
_geom_bond_site_symmetry_1
_geom_bond_site_symmetry_2
S1 O1 1_555 1_555
S2 N1 1_555 1_555
N1 S1 1_555 1_555
O2 S1 1_555 1_555
O3 S2 1_555 1_555
C1 C3 1_555 1_555
O4 S2 1_555 1_555
O5 C12 1_555 1_555
C2 S1 1_555 1_555
C3 C4 1_555 1_555
C4 H1 1_555 1_555
C5 C15 1_555 1_555
C6 C3 1_555 1_555
H2 C6 1_555 1_555
C7 C9 1_555 1_555
C8 N1 1_555 1_555
C9 C1 1_555 1_555
H3 C9 1_555 1_555
C10 S2 1_555 1_555
C11 C2 1_555 1_555
H4 C11 1_555 1_555
C12 C8 1_555 1_555
H5 C12 1_555 1_555
C13 C2 1_555 1_555
H6 C13 1_555 1_555
C14 C11 1_555 1_555
H7 C14 1_555 1_555
C15 C4 1_555 1_555
H8 C15 1_555 1_555
C16 C7 1_555 1_555
H9 C16 1_555 1_555
C17 C10 1_555 1_555
H10 C17 1_555 1_555
C18 C5 1_555 1_555
H11 C18 1_555 1_555
C19 C14 1_555 1_555
H12 C19 1_555 1_555
C20 H13 1_555 1_555
C21 C7 1_555 1_555
H14 C21 1_555 1_555
C22 C16 1_555 1_555
H15 C22 1_555 1_555
H16 C22 1_555 1_555
C23 C13 1_555 1_555
H17 C23 1_555 1_555
C24 C20 1_555 1_555
H18 C24 1_555 1_555
H19 C24 1_555 1_555
C25 C20 1_555 1_555
H20 C25 1_555 1_555
H21 C25 1_555 1_555
C26 C10 1_555 1_555
H22 C26 1_555 1_555
C27 C24 1_555 1_555
H23 C27 1_555 1_555
C28 C21 1_555 1_555
H24 C28 1_555 1_555
H25 C28 1_555 1_555
C29 C26 1_555 1_555
H26 C29 1_555 1_555
C30 C16 1_555 1_555
H27 C30 1_555 1_555
H28 C30 1_555 1_555
C31 C5 1_555 1_555
H29 C31 1_555 1_555
H30 C31 1_555 1_555
H31 C31 1_555 1_555
C32 C29 1_555 1_555
H32 C32 1_555 1_555
C33 C17 1_555 1_555
H33 C33 1_555 1_555
C1 C8 1_555 1_555
C6 C18 1_555 1_555
C19 C23 1_555 1_555
C20 C22 1_555 1_555
C21 C25 1_555 1_555
C27 C28 1_555 1_555
C27 C30 1_555 1_555
C32 C33 1_555 1_555

#END
