
#######################################################################
#
#                 Cambridge Crystallographic Data Centre
#                                CCDC 
#
#######################################################################
#
# If this CIF has been generated from an entry in the Cambridge 
# Structural Database, then it will include bibliographic, chemical, 
# crystal, experimental, refinement or atomic coordinate data resulting 
# from the CCDC's data processing and validation procedures.
#
#######################################################################

data_KEGNAN
_chemical_formula_moiety         'C44 H40 N8,C4 H10 O1'
_chemical_name_systematic        
"2,2'-(2,4-bis(bis(4-(dimethylamino)phenyl)methylene)-cyclobutane-1,3-diylidene)dimalononitrile ethoxyethane solvate"
_symmetry_cell_setting           triclinic
_symmetry_space_group_name_H-M   'P -1'
_symmetry_Int_Tables_number      2
_space_group_name_Hall           '-P 1'
loop_
_symmetry_equiv_pos_site_id
_symmetry_equiv_pos_as_xyz
1 x,y,z
2 -x,-y,-z
_cell_length_a                   11.181(7)
_cell_length_b                   14.125(8)
_cell_length_c                   14.868(8)
_cell_angle_alpha                104.40(3)
_cell_angle_beta                 108.25(2)
_cell_angle_gamma                97.07(3)
_cell_volume                     2107.78
_exptl_crystal_colour            black
_exptl_crystal_description       rod
_cell_formula_units_Z            2
loop_
_atom_site_label
_atom_site_type_symbol
_atom_site_fract_x
_atom_site_fract_y
_atom_site_fract_z
O1 O 0.7759(2) 0.44890(19) 0.71988(18)
C1 C 0.6028(4) 0.5041(5) 0.6204(4)
H1 H 0.621(5) 0.469(4) 0.561(4)
H2 H 0.525(5) 0.445(4) 0.626(3)
H3 H 0.589(6) 0.582(5) 0.620(4)
C2 C 0.7237(4) 0.5351(3) 0.7116(3)
H4 H 0.700(4) 0.573(3) 0.781(3)
H5 H 0.767(4) 0.597(3) 0.711(3)
C3 C 0.8694(6) 0.4748(5) 0.8163(4)
H6 H 0.8284 0.5027 0.8718
H7 H 0.9500 0.5317 0.8253
C4 C 0.9126(7) 0.3778(5) 0.8257(6)
H8 H 0.9373 0.3442 0.7621
H9 H 0.8351 0.3264 0.8287
H10 H 0.9959 0.3944 0.8928
N1 N 0.2663(2) 0.27055(17) 0.53140(17)
N2 N -0.09725(19) -0.14782(16) -0.03157(14)
N3 N -0.1358(2) 0.45941(15) 0.39557(15)
N4 N 0.3068(2) 0.17766(16) 0.78646(18)
C5 C 0.2139(2) 0.2167(2) 0.56104(18)
C6 C 0.1621(2) 0.14890(18) 0.60379(17)
C7 C 0.0624(2) 0.06695(17) 0.54683(17)
C8 C -0.0141(2) 0.02832(17) 0.43953(17)
C9 C -0.0389(2) 0.07036(17) 0.36118(17)
C10 C -0.0638(2) 0.00986(17) 0.25998(17)
C11 C -0.0093(2) -0.07423(18) 0.23995(18)
H11 H 0.045(3) -0.0937(19) 0.299(2)
C12 C -0.0217(2) -0.12721(19) 0.14573(18)
H12 H 0.022(2) -0.1800(19) 0.1385(17)
C13 C -0.0909(2) -0.09899(18) 0.06219(17)
C14 C -0.1510(2) -0.01765(18) 0.08086(18)
H13 H -0.201(2) 0.0042(18) 0.0254(19)
C15 C -0.1382(2) 0.03449(19) 0.17592(17)
H14 H -0.181(2) 0.0901(18) 0.1876(16)
C16 C -0.0418(4) -0.2351(3) -0.0501(2)
H15 H -0.045(3) -0.253(3) -0.120(3)
H16 H 0.046(4) -0.222(2) -0.005(3)
H17 H -0.087(4) -0.292(3) -0.029(3)
C17 C -0.1687(3) -0.1180(3) -0.1162(2)
H18 H -0.260(3) -0.1219(19) -0.1259(19)
H19 H -0.165(3) -0.164(2) -0.177(2)
H20 H -0.135(3) -0.043(3) -0.110(2)
C18 C -0.0444(2) 0.17587(17) 0.37994(16)
C19 C -0.0997(2) 0.22119(18) 0.44848(17)
H21 H -0.125(2) 0.1813(17) 0.4886(17)
C20 C -0.1280(2) 0.31393(19) 0.45509(18)
H22 H -0.168(2) 0.3370(18) 0.5012(19)
C21 C -0.1016(2) 0.36902(18) 0.39320(17)
C22 C -0.0391(2) 0.32720(19) 0.32868(19)
H23 H -0.017(2) 0.3635(17) 0.2873(17)
C23 C -0.0117(2) 0.23395(19) 0.32293(18)
H24 H 0.030(2) 0.2076(18) 0.2750(18)
C24 C -0.2103(3) 0.4965(2) 0.4560(2)
H25 H -0.166(3) 0.5026(19) 0.532(2)
H26 H -0.298(3) 0.453(2) 0.435(2)
H27 H -0.223(3) 0.563(3) 0.452(2)
C25 C -0.1160(3) 0.5113(2) 0.3262(2)
H28 H -0.146(3) 0.578(2) 0.343(2)
H29 H -0.164(3) 0.470(2) 0.253(2)
H30 H -0.021(3) 0.531(2) 0.333(2)
C26 C 0.2385(2) 0.16339(18) 0.7056(2)
N1A N -0.2663(2) -0.27055(17) 0.46860(17)
N2A N 0.09725(19) 0.14782(16) 1.03157(14)
N3A N 0.1358(2) -0.45941(15) 0.60443(15)
N4A N -0.3068(2) -0.17766(16) 0.21354(18)
C5A C -0.2139(2) -0.2167(2) 0.43896(18)
C6A C -0.1621(2) -0.14890(18) 0.39621(17)
C7A C -0.0624(2) -0.06695(17) 0.45317(17)
C8A C 0.0141(2) -0.02832(17) 0.56047(17)
C9A C 0.0389(2) -0.07036(17) 0.63882(17)
C10A C 0.0638(2) -0.00986(17) 0.74002(17)
C11A C 0.0093(2) 0.07423(18) 0.76005(18)
H11A H -0.045(3) 0.0937(19) 0.701(2)
C12A C 0.0217(2) 0.12721(19) 0.85427(18)
H12A H -0.022(2) 0.1800(19) 0.8615(17)
C13A C 0.0909(2) 0.09899(18) 0.93781(17)
C14A C 0.1510(2) 0.01765(18) 0.91914(18)
H13A H 0.201(2) -0.0042(18) 0.9746(19)
C15A C 0.1382(2) -0.03449(19) 0.82408(17)
H14A H 0.181(2) -0.0901(18) 0.8124(16)
C16A C 0.0418(4) 0.2351(3) 1.0501(2)
H15A H 0.045(3) 0.253(3) 1.120(3)
H16A H -0.046(4) 0.222(2) 1.005(3)
H17A H 0.087(4) 0.292(3) 1.029(3)
C17A C 0.1687(3) 0.1180(3) 1.1162(2)
H18A H 0.260(3) 0.1219(19) 1.1259(19)
H19A H 0.165(3) 0.164(2) 1.177(2)
H20A H 0.135(3) 0.043(3) 1.110(2)
C18A C 0.0444(2) -0.17587(17) 0.62006(16)
C19A C 0.0997(2) -0.22119(18) 0.55152(17)
H21A H 0.125(2) -0.1813(17) 0.5114(17)
C20A C 0.1280(2) -0.31393(19) 0.54491(18)
H22A H 0.168(2) -0.3370(18) 0.4988(19)
C21A C 0.1016(2) -0.36902(18) 0.60680(17)
C22A C 0.0391(2) -0.32720(19) 0.67132(19)
H23A H 0.017(2) -0.3635(17) 0.7127(17)
C23A C 0.0117(2) -0.23395(19) 0.67707(18)
H24A H -0.030(2) -0.2076(18) 0.7250(18)
C24A C 0.2103(3) -0.4965(2) 0.5440(2)
H25A H 0.166(3) -0.5026(19) 0.468(2)
H26A H 0.298(3) -0.453(2) 0.565(2)
H27A H 0.223(3) -0.563(3) 0.548(2)
C25A C 0.1160(3) -0.5113(2) 0.6738(2)
H28A H 0.146(3) -0.578(2) 0.657(2)
H29A H 0.164(3) -0.470(2) 0.747(2)
H30A H 0.021(3) -0.531(2) 0.667(2)
C26A C -0.2385(2) -0.16339(18) 0.2944(2)
N5 N 0.2439(2) -0.29161(17) -0.07539(16)
N6 N 0.61457(19) 0.10730(15) 0.53228(14)
N7 N 0.4178(2) 0.50814(16) 0.08545(16)
N8 N 0.2985(2) -0.08044(17) 0.19532(17)
C27 C 0.3087(2) -0.2153(2) -0.02187(18)
C28 C 0.3778(2) -0.11875(17) 0.04728(16)
C29 C 0.4565(2) -0.05139(17) 0.02536(16)
C30 C 0.5088(2) 0.05764(17) 0.06337(16)
C31 C 0.5148(2) 0.13767(17) 0.14364(16)
C32 C 0.5311(2) 0.12499(17) 0.24108(16)
C33 C 0.5962(2) 0.05330(18) 0.27235(17)
H31 H 0.626(2) 0.0063(18) 0.2245(18)
C34 C 0.6216(2) 0.04585(19) 0.36670(17)
H32 H 0.670(2) -0.0040(18) 0.3852(17)
C35 C 0.5833(2) 0.11091(18) 0.43679(17)
C36 C 0.5115(2) 0.18017(19) 0.40423(18)
H33 H 0.479(2) 0.2240(18) 0.4496(18)
C37 C 0.4877(2) 0.18638(19) 0.30957(17)
H34 H 0.432(2) 0.2359(17) 0.2875(16)
C38 C 0.6927(3) 0.0380(2) 0.5641(2)
H35 H 0.646(2) -0.036(2) 0.517(2)
H36 H 0.706(2) 0.0465(19) 0.633(2)
H37 H 0.778(3) 0.0496(18) 0.5547(18)
C39 C 0.5894(3) 0.1835(2) 0.6071(2)
H38 H 0.490(3) 0.1871(19) 0.5854(19)
H39 H 0.616(3) 0.167(2) 0.669(3)
H40 H 0.636(3) 0.257(2) 0.618(2)
C40 C 0.5001(2) 0.23451(17) 0.12826(16)
C41 C 0.5617(2) 0.32687(18) 0.20278(18)
H41 H 0.629(2) 0.3248(18) 0.268(2)
C42 C 0.5372(2) 0.41657(19) 0.18925(19)
H42 H 0.582(2) 0.480(2) 0.2457(19)
C43 C 0.4468(2) 0.41966(18) 0.09929(18)
C44 C 0.3878(2) 0.32743(18) 0.02324(19)
H43 H 0.327(3) 0.3265(19) -0.038(2)
C45 C 0.4141(2) 0.2390(2) 0.03749(18)
H44 H 0.373(2) 0.1775(19) -0.0150(18)
C46 C 0.4750(4) 0.6026(2) 0.1644(3)
H45 H 0.455(3) 0.658(2) 0.137(2)
H46 H 0.573(3) 0.614(2) 0.194(2)
H47 H 0.449(3) 0.606(2) 0.223(3)
C47 C 0.3156(3) 0.5065(3) -0.0050(3)
H48 H 0.229(3) 0.463(2) -0.013(2)
H49 H 0.336(3) 0.473(3) -0.071(3)
H50 H 0.305(3) 0.573(3) 0.000(2)
C48 C 0.3386(2) -0.09393(18) 0.13142(18)
N5A N 0.7561(2) 0.29161(17) 0.07539(16)
N6A N 0.38543(19) -0.10730(15) -0.53228(14)
N7A N 0.5822(2) -0.50814(16) -0.08545(16)
N8A N 0.7015(2) 0.08044(17) -0.19532(17)
C27A C 0.6913(2) 0.2153(2) 0.02187(18)
C28A C 0.6222(2) 0.11875(17) -0.04728(16)
C29A C 0.5435(2) 0.05139(17) -0.02536(16)
C30A C 0.4912(2) -0.05764(17) -0.06337(16)
C31A C 0.4852(2) -0.13767(17) -0.14364(16)
C32A C 0.4689(2) -0.12499(17) -0.24108(16)
C33A C 0.4038(2) -0.05330(18) -0.27235(17)
H31A H 0.374(2) -0.0063(18) -0.2245(18)
C34A C 0.3784(2) -0.04585(19) -0.36670(17)
H32A H 0.330(2) 0.0040(18) -0.3852(17)
C35A C 0.4167(2) -0.11091(18) -0.43679(17)
C36A C 0.4885(2) -0.18017(19) -0.40423(18)
H33A H 0.521(2) -0.2240(18) -0.4496(18)
C37A C 0.5123(2) -0.18638(19) -0.30957(17)
H34A H 0.568(2) -0.2359(17) -0.2875(16)
C38A C 0.3073(3) -0.0380(2) -0.5641(2)
H35A H 0.354(2) 0.036(2) -0.517(2)
H36A H 0.294(2) -0.0465(19) -0.633(2)
H37A H 0.222(3) -0.0496(18) -0.5547(18)
C39A C 0.4106(3) -0.1835(2) -0.6071(2)
H38A H 0.510(3) -0.1871(19) -0.5854(19)
H39A H 0.384(3) -0.167(2) -0.669(3)
H40A H 0.364(3) -0.257(2) -0.618(2)
C40A C 0.4999(2) -0.23451(17) -0.12826(16)
C41A C 0.4383(2) -0.32687(18) -0.20278(18)
H41A H 0.371(2) -0.3248(18) -0.268(2)
C42A C 0.4628(2) -0.41657(19) -0.18925(19)
H42A H 0.418(2) -0.480(2) -0.2457(19)
C43A C 0.5532(2) -0.41966(18) -0.09929(18)
C44A C 0.6122(2) -0.32743(18) -0.02324(19)
H43A H 0.673(3) -0.3265(19) 0.038(2)
C45A C 0.5859(2) -0.2390(2) -0.03749(18)
H44A H 0.627(2) -0.1775(19) 0.0150(18)
C46A C 0.5250(4) -0.6026(2) -0.1644(3)
H45A H 0.545(3) -0.658(2) -0.137(2)
H46A H 0.427(3) -0.614(2) -0.194(2)
H47A H 0.551(3) -0.606(2) -0.223(3)
C47A C 0.6844(3) -0.5065(3) 0.0050(3)
H48A H 0.771(3) -0.463(2) 0.013(2)
H49A H 0.664(3) -0.473(3) 0.071(3)
H50A H 0.695(3) -0.573(3) 0.000(2)
C48A C 0.6614(2) 0.09393(18) -0.13142(18)
C49? C 0.8915(13) 0.4452(11) 0.7958(10)
C50? C 0.9348(17) 0.3526(12) 0.7811(13)
H51? H 0.9685 0.5041 0.8028
H52? H 0.8759 0.4620 0.8656
H53? H 0.9157 0.3192 0.7029
H54? H 0.8841 0.3019 0.8074
H55? H 1.0372 0.3672 0.8220
loop_
_geom_bond_atom_site_label_1
_geom_bond_atom_site_label_2
_geom_bond_site_symmetry_1
_geom_bond_site_symmetry_2
O1 C2 1_555 1_555
C1 H1 1_555 1_555
H2 C1 1_555 1_555
H3 C1 1_555 1_555
C2 C1 1_555 1_555
H4 C2 1_555 1_555
H5 C2 1_555 1_555
C3 O1 1_555 1_555
H6 C3 1_555 1_555
H7 C3 1_555 1_555
C4 C3 1_555 1_555
H8 C4 1_555 1_555
H9 C4 1_555 1_555
H10 C4 1_555 1_555
N1 C5 1_555 1_555
N2 C13 1_555 1_555
N3 C21 1_555 1_555
N4 C26 1_555 1_555
C5 C6 1_555 1_555
C6 C7 1_555 1_555
C7 C8 1_555 1_555
C8 C9 1_555 1_555
C9 C10 1_555 1_555
C10 C11 1_555 1_555
C11 H11 1_555 1_555
C12 C11 1_555 1_555
H12 C12 1_555 1_555
C13 C12 1_555 1_555
C14 C13 1_555 1_555
H13 C14 1_555 1_555
C15 C10 1_555 1_555
H14 C15 1_555 1_555
C16 N2 1_555 1_555
H15 C16 1_555 1_555
H16 C16 1_555 1_555
H17 C16 1_555 1_555
C17 N2 1_555 1_555
H18 C17 1_555 1_555
H19 C17 1_555 1_555
H20 C17 1_555 1_555
C18 C9 1_555 1_555
C19 C18 1_555 1_555
H21 C19 1_555 1_555
C20 C19 1_555 1_555
H22 C20 1_555 1_555
C21 C20 1_555 1_555
C22 C21 1_555 1_555
H23 C22 1_555 1_555
C23 C18 1_555 1_555
H24 C23 1_555 1_555
C24 N3 1_555 1_555
H25 C24 1_555 1_555
H26 C24 1_555 1_555
H27 C24 1_555 1_555
C25 N3 1_555 1_555
H28 C25 1_555 1_555
H29 C25 1_555 1_555
H30 C25 1_555 1_555
C26 C6 1_555 1_555
N5 C27 1_555 1_555
N6 C35 1_555 1_555
N7 C43 1_555 1_555
N8 C48 1_555 1_555
C27 C28 1_555 1_555
C28 C29 1_555 1_555
C29 C30 1_555 1_555
C30 C31 1_555 1_555
C31 C32 1_555 1_555
C32 C33 1_555 1_555
C33 H31 1_555 1_555
C34 C33 1_555 1_555
H32 C34 1_555 1_555
C35 C34 1_555 1_555
C36 C35 1_555 1_555
H33 C36 1_555 1_555
C37 C32 1_555 1_555
H34 C37 1_555 1_555
C38 N6 1_555 1_555
H35 C38 1_555 1_555
H36 C38 1_555 1_555
H37 C38 1_555 1_555
C39 N6 1_555 1_555
H38 C39 1_555 1_555
H39 C39 1_555 1_555
H40 C39 1_555 1_555
C40 C31 1_555 1_555
C41 C40 1_555 1_555
H41 C41 1_555 1_555
C42 C41 1_555 1_555
H42 C42 1_555 1_555
C43 C42 1_555 1_555
C44 C43 1_555 1_555
H43 C44 1_555 1_555
C45 C40 1_555 1_555
H44 C45 1_555 1_555
C46 N7 1_555 1_555
H45 C46 1_555 1_555
H46 C46 1_555 1_555
H47 C46 1_555 1_555
C47 N7 1_555 1_555
H48 C47 1_555 1_555
H49 C47 1_555 1_555
H50 C47 1_555 1_555
C48 C28 1_555 1_555
N1A C5A 1_555 1_555
N2A C13A 1_555 1_555
N3A C21A 1_555 1_555
N4A C26A 1_555 1_555
C5A C6A 1_555 1_555
C6A C7A 1_555 1_555
C7A C8 1_555 1_555
C8A C7 1_555 1_555
C9A C8A 1_555 1_555
C10A C9A 1_555 1_555
C11A C10A 1_555 1_555
H11A C11A 1_555 1_555
C12A C11A 1_555 1_555
H12A C12A 1_555 1_555
C13A C12A 1_555 1_555
C14A C13A 1_555 1_555
H13A C14A 1_555 1_555
C15A C10A 1_555 1_555
H14A C15A 1_555 1_555
C16A N2A 1_555 1_555
H15A C16A 1_555 1_555
H16A C16A 1_555 1_555
H17A C16A 1_555 1_555
C17A N2A 1_555 1_555
H18A C17A 1_555 1_555
H19A C17A 1_555 1_555
H20A C17A 1_555 1_555
C18A C9A 1_555 1_555
C19A C18A 1_555 1_555
H21A C19A 1_555 1_555
C20A C19A 1_555 1_555
H22A C20A 1_555 1_555
C21A C20A 1_555 1_555
C22A C21A 1_555 1_555
H23A C22A 1_555 1_555
C23A C18A 1_555 1_555
H24A C23A 1_555 1_555
C24A N3A 1_555 1_555
H25A C24A 1_555 1_555
H26A C24A 1_555 1_555
H27A C24A 1_555 1_555
C25A N3A 1_555 1_555
H28A C25A 1_555 1_555
H29A C25A 1_555 1_555
H30A C25A 1_555 1_555
C26A C6A 1_555 1_555
N5A C27A 1_555 1_555
N6A C35A 1_555 1_555
N7A C43A 1_555 1_555
N8A C48A 1_555 1_555
C27A C28A 1_555 1_555
C28A C29A 1_555 1_555
C29A C30 1_555 1_555
C30A C29 1_555 1_555
C31A C30A 1_555 1_555
C32A C31A 1_555 1_555
C33A C32A 1_555 1_555
H31A C33A 1_555 1_555
C34A C33A 1_555 1_555
H32A C34A 1_555 1_555
C35A C34A 1_555 1_555
C36A C35A 1_555 1_555
H33A C36A 1_555 1_555
C37A C32A 1_555 1_555
H34A C37A 1_555 1_555
C38A N6A 1_555 1_555
H35A C38A 1_555 1_555
H36A C38A 1_555 1_555
H37A C38A 1_555 1_555
C39A N6A 1_555 1_555
H38A C39A 1_555 1_555
H39A C39A 1_555 1_555
H40A C39A 1_555 1_555
C40A C31A 1_555 1_555
C41A C40A 1_555 1_555
H41A C41A 1_555 1_555
C42A C41A 1_555 1_555
H42A C42A 1_555 1_555
C43A C42A 1_555 1_555
C44A C43A 1_555 1_555
H43A C44A 1_555 1_555
C45A C40A 1_555 1_555
H44A C45A 1_555 1_555
C46A N7A 1_555 1_555
H45A C46A 1_555 1_555
H46A C46A 1_555 1_555
H47A C46A 1_555 1_555
C47A N7A 1_555 1_555
H48A C47A 1_555 1_555
H49A C47A 1_555 1_555
H50A C47A 1_555 1_555
C48A C28A 1_555 1_555
C14 C15 1_555 1_555
C22 C23 1_555 1_555
C36 C37 1_555 1_555
C44 C45 1_555 1_555
C7A C8A 1_555 1_555
C14A C15A 1_555 1_555
C22A C23A 1_555 1_555
C29A C30A 1_555 1_555
C36A C37A 1_555 1_555
C44A C45A 1_555 1_555

#END
