
#######################################################################
#
#                 Cambridge Crystallographic Data Centre
#                                CCDC 
#
#######################################################################
#
# If this CIF has been generated from an entry in the Cambridge 
# Structural Database, then it will include bibliographic, chemical, 
# crystal, experimental, refinement or atomic coordinate data resulting 
# from the CCDC's data processing and validation procedures.
#
#######################################################################

data_KEGNER
_chemical_formula_moiety         'C28 H20 N8,C1 H2 Cl2'
_chemical_name_systematic        
'2-(Dicyanomethyl)-3-(bis(4-dimethylaminophenyl)methylidene)-but-1-ene-1,1,4,4-tetracarbonitrile dichloromethane solvate'
_symmetry_cell_setting           triclinic
_symmetry_space_group_name_H-M   'P -1'
_symmetry_Int_Tables_number      2
_space_group_name_Hall           '-P 1'
loop_
_symmetry_equiv_pos_site_id
_symmetry_equiv_pos_as_xyz
1 x,y,z
2 -x,-y,-z
_cell_length_a                   9.2631(13)
_cell_length_b                   9.8896(12)
_cell_length_c                   16.112(2)
_cell_angle_alpha                81.654(4)
_cell_angle_beta                 84.524(4)
_cell_angle_gamma                68.774(4)
_cell_volume                     1359.82
_exptl_crystal_colour            black
_exptl_crystal_description       plate
_cell_formula_units_Z            2
loop_
_atom_site_label
_atom_site_type_symbol
_atom_site_fract_x
_atom_site_fract_y
_atom_site_fract_z
Cl1 Cl -0.57224(11) 1.76587(9) 0.34496(5)
Cl2 Cl -0.63902(11) 1.87498(9) 0.50858(5)
C1 C -0.5801(4) 1.9070(3) 0.40199(19)
H1 H -0.478(4) 1.912(3) 0.4015(18)
H2 H -0.653(4) 1.993(4) 0.378(2)
N1 N -0.5496(3) 1.1469(3) 0.24917(15)
N2 N -0.2108(3) 0.9278(3) 0.05445(15)
N3 N -0.4179(3) 1.3974(3) 0.29994(15)
N4 N 0.0561(3) 1.1583(3) 0.37130(15)
N5 N 0.0411(3) 1.3237(3) 0.12960(16)
N6 N 0.4095(3) 0.9094(3) 0.13783(15)
N7 N -0.2340(3) 0.5884(2) 0.49576(13)
N8 N 0.3466(3) 0.4200(2) -0.00981(14)
C2 C 0.0132(3) 0.9808(3) 0.20200(15)
C3 C 0.0514(3) 0.8219(3) 0.21616(15)
C4 C -0.1480(3) 1.0767(3) 0.22508(15)
C5 C -0.2692(3) 1.0598(3) 0.18730(16)
C6 C -0.4250(3) 1.1103(3) 0.22085(16)
C7 C -0.2383(3) 0.9841(3) 0.11495(16)
C8 C -0.1679(3) 1.1765(3) 0.28250(16)
C9 C -0.3086(3) 1.2961(3) 0.29341(16)
C10 C -0.0435(3) 1.1671(3) 0.33151(16)
C11 C 0.1175(3) 1.0443(3) 0.16740(15)
C12 C 0.0728(3) 1.2003(3) 0.14746(17)
C13 C 0.2798(3) 0.9648(3) 0.15080(16)
C14 C -0.0204(3) 0.7633(3) 0.28892(15)
C15 C -0.0430(3) 0.8168(3) 0.36741(16)
H3 H -0.010(3) 0.895(3) 0.3746(17)
C16 C -0.1101(3) 0.7591(3) 0.43555(16)
H4 H -0.119(3) 0.790(3) 0.4855(18)
C17 C -0.1642(3) 0.6439(3) 0.42911(16)
C18 C -0.1452(3) 0.5916(3) 0.34997(17)
H5 H -0.183(3) 0.518(3) 0.3417(17)
C19 C -0.0733(3) 0.6475(3) 0.28292(17)
H6 H -0.065(4) 0.612(3) 0.2276(19)
C20 C -0.2579(4) 0.6447(4) 0.57649(17)
H7 H -0.160(4) 0.608(4) 0.605(2)
H8 H -0.335(4) 0.610(3) 0.609(2)
H9 H -0.306(4) 0.754(4) 0.571(2)
C21 C -0.2808(4) 0.4642(3) 0.4896(2)
H10 H -0.362(4) 0.491(3) 0.4448(19)
H11 H -0.193(4) 0.378(4) 0.478(2)
H12 H -0.328(4) 0.447(4) 0.542(2)
C22 C 0.1437(3) 0.7287(3) 0.15836(15)
C23 C 0.2236(3) 0.5782(3) 0.18607(17)
H13 H 0.228(3) 0.552(3) 0.2439(18)
C24 C 0.2957(3) 0.4789(3) 0.13228(17)
H14 H 0.348(4) 0.383(4) 0.1540(19)
C25 C 0.2910(3) 0.5191(3) 0.04367(16)
C26 C 0.2243(3) 0.6723(3) 0.01531(17)
H15 H 0.221(3) 0.701(3) -0.0405(18)
C27 C 0.1569(3) 0.7713(3) 0.06985(16)
H16 H 0.107(3) 0.876(3) 0.0481(17)
C28 C 0.4043(4) 0.2630(3) 0.0187(2)
H17 H 0.364(5) 0.240(4) 0.074(3)
H18 H 0.520(5) 0.227(4) 0.022(2)
H19 H 0.384(5) 0.216(4) -0.019(3)
C29 C 0.3467(4) 0.4590(4) -0.10128(18)
H20 H 0.249(4) 0.492(3) -0.1217(19)
H21 H 0.403(5) 0.381(4) -0.133(2)
H22 H 0.398(5) 0.537(5) -0.121(2)
loop_
_geom_bond_atom_site_label_1
_geom_bond_atom_site_label_2
_geom_bond_site_symmetry_1
_geom_bond_site_symmetry_2
Cl1 C1 1_555 1_555
Cl2 C1 1_555 1_555
C1 H1 1_555 1_555
H2 C1 1_555 1_555
N1 C6 1_555 1_555
N2 C7 1_555 1_555
N3 C9 1_555 1_555
N4 C10 1_555 1_555
N5 C12 1_555 1_555
N6 C13 1_555 1_555
N7 C17 1_555 1_555
N8 C25 1_555 1_555
C2 C3 1_555 1_555
C3 C14 1_555 1_555
C4 C2 1_555 1_555
C5 C4 1_555 1_555
C6 C5 1_555 1_555
C7 C5 1_555 1_555
C8 C4 1_555 1_555
C9 C8 1_555 1_555
C10 C8 1_555 1_555
C11 C2 1_555 1_555
C12 C11 1_555 1_555
C13 C11 1_555 1_555
C14 C15 1_555 1_555
C15 H3 1_555 1_555
C16 C15 1_555 1_555
H4 C16 1_555 1_555
C17 C16 1_555 1_555
C18 C17 1_555 1_555
H5 C18 1_555 1_555
C19 C14 1_555 1_555
H6 C19 1_555 1_555
C20 N7 1_555 1_555
H7 C20 1_555 1_555
H8 C20 1_555 1_555
H9 C20 1_555 1_555
C21 N7 1_555 1_555
H10 C21 1_555 1_555
H11 C21 1_555 1_555
H12 C21 1_555 1_555
C22 C3 1_555 1_555
C23 C22 1_555 1_555
H13 C23 1_555 1_555
C24 C23 1_555 1_555
H14 C24 1_555 1_555
C25 C24 1_555 1_555
C26 C25 1_555 1_555
H15 C26 1_555 1_555
C27 C22 1_555 1_555
H16 C27 1_555 1_555
C28 N8 1_555 1_555
H17 C28 1_555 1_555
H18 C28 1_555 1_555
H19 C28 1_555 1_555
C29 N8 1_555 1_555
H20 C29 1_555 1_555
H21 C29 1_555 1_555
H22 C29 1_555 1_555
C18 C19 1_555 1_555
C26 C27 1_555 1_555

#END
