
#######################################################################
#
#                 Cambridge Crystallographic Data Centre
#                                CCDC 
#
#######################################################################
#
# If this CIF has been generated from an entry in the Cambridge 
# Structural Database, then it will include bibliographic, chemical, 
# crystal, experimental, refinement or atomic coordinate data resulting 
# from the CCDC's data processing and validation procedures.
#
#######################################################################

data_KEGPIY
_chemical_name_common            'rhodomollein XXXI'
_chemical_formula_moiety         'C20 H30 O5'
_chemical_name_systematic        2,3-epoxygrayanotox-15-ene-5,6,10,14-tetrol
_chemical_properties_biological  
'tested for protein tyrosine phosphatase 1B inhibitory activity'
_symmetry_cell_setting           monoclinic
_symmetry_space_group_name_H-M   'P 21'
_symmetry_Int_Tables_number      4
_space_group_name_Hall           'P 2yb'
loop_
_symmetry_equiv_pos_site_id
_symmetry_equiv_pos_as_xyz
1 x,y,z
2 -x,1/2+y,-z
_cell_length_a                   7.8050(3)
_cell_length_b                   11.0195(4)
_cell_length_c                   21.5680(7)
_cell_angle_alpha                90
_cell_angle_beta                 93.9070(10)
_cell_angle_gamma                90
_cell_volume                     1850.69
_exptl_crystal_colour            colorless
_exptl_crystal_description       block
_cell_formula_units_Z            4
loop_
_atom_site_label
_atom_site_type_symbol
_atom_site_fract_x
_atom_site_fract_y
_atom_site_fract_z
C1 C 0.09086(16) 1.01164(12) 0.00084(6)
H1 H 0.1503 1.09 0.0023
C2 C -0.08034(18) 1.03377(14) -0.03554(6)
H2 H -0.1559 1.0992 -0.0232
C3 C -0.06042(19) 1.01016(15) -0.10087(7)
H3 H -0.1236 1.06 -0.1324
C4 C 0.12130(18) 0.97098(14) -0.11126(6)
C5 C 0.19103(17) 0.93005(13) -0.04340(6)
C6 C 0.38439(16) 0.94724(12) -0.03041(6)
H4 H 0.4115 1.0339 -0.0324
C7 C 0.45390(17) 0.89725(13) 0.03189(7)
H5 H 0.5778 0.8926 0.0311
H6 H 0.4122 0.8147 0.035
C8 C 0.41409(17) 0.96345(13) 0.09197(6)
C9 C 0.22961(17) 0.93987(13) 0.11244(6)
H7 H 0.2215 0.8515 0.1164
C10 C 0.06662(17) 0.97725(13) 0.06947(6)
C11 C 0.2143(2) 0.98884(17) 0.17906(7)
H8 H 0.0938 0.9928 0.1873
H9 H 0.2698 0.9322 0.2084
C12 C 0.2946(2) 1.11478(18) 0.18982(7)
H10 H 0.3045 1.132 0.234
H11 H 0.22 1.1756 0.1697
C13 C 0.47395(19) 1.12287(15) 0.16396(7)
H12 H 0.5323 1.1996 0.1746
C14 C 0.45387(18) 1.10056(13) 0.09375(6)
H13 H 0.3593 1.1482 0.0739
C15 C 0.54081(18) 0.92011(15) 0.14520(7)
H14 H 0.5844 0.8418 0.1493
C16 C 0.5797(2) 1.01279(17) 0.18524(7)
C17 C 0.6927(3) 1.0125(2) 0.24202(9)
H15 H 0.627 1.0307 0.2769
H16 H 0.7806 1.0726 0.2389
H17 H 0.7446 0.9339 0.2476
C18 C 0.1241(2) 0.87117(15) -0.16058(7)
H18 H 0.0635 0.8013 -0.147
H19 H 0.2408 0.8494 -0.1667
H20 H 0.0696 0.9002 -0.199
C19 C 0.2150(2) 1.08382(15) -0.13342(7)
H21 H 0.1542 1.1157 -0.17
H22 H 0.3295 1.0621 -0.1428
H23 H 0.2199 1.1442 -0.1013
C20 C -0.06172(18) 0.87431(15) 0.07521(7)
H24 H -0.081 0.8617 0.1182
H25 H -0.0168 0.8013 0.0582
H26 H -0.1682 0.8951 0.0528
O1 O -0.15398(12) 0.92309(10) -0.06492(5)
O2 O -0.00547(13) 1.08668(10) 0.09398(5)
H27 H -0.1106 1.0831 0.09
O3 O 0.61017(13) 1.11991(9) 0.06473(5)
H28 H 0.6317 1.1927 0.0644
O4 O 0.46666(12) 0.88467(10) -0.07894(5)
H29 H 0.5701 0.8985 -0.0757
O5 O 0.16057(12) 0.80419(9) -0.03403(5)
H30 H 0.0641 0.7866 -0.0487
C21 C 0.09373(16) 0.08941(12) 0.50425(6)
H31 H 0.1542 0.1674 0.5058
C22 C -0.07702(18) 0.11281(14) 0.46781(7)
H32 H -0.1521 0.1784 0.4803
C23 C -0.05752(19) 0.08944(15) 0.40237(7)
H33 H -0.1201 0.1398 0.371
C24 C 0.12514(18) 0.05014(14) 0.39231(6)
C25 C 0.19307(17) 0.00724(13) 0.46004(6)
C26 C 0.38661(16) 0.02274(13) 0.47308(6)
H34 H 0.4153 0.1092 0.4713
C27 C 0.45440(16) -0.02806(13) 0.53540(6)
H35 H 0.5783 -0.0339 0.5347
H36 H 0.4111 -0.1102 0.5382
C28 C 0.41569(17) 0.03774(13) 0.59552(6)
C29 C 0.23007(17) 0.01560(13) 0.61581(6)
H37 H 0.2202 -0.0728 0.6191
C30 C 0.06827(16) 0.05530(13) 0.57284(6)
C31 C 0.21517(19) 0.06302(16) 0.68306(7)
H38 H 0.0947 0.0676 0.6913
H39 H 0.2697 0.0052 0.712
C32 C 0.2975(2) 0.18821(17) 0.69482(7)
H40 H 0.3074 0.2043 0.7391
H41 H 0.2242 0.2501 0.6751
C33 C 0.47755(19) 0.19489(15) 0.66904(7)
H42 H 0.5375 0.2708 0.6801
C34 C 0.45689(17) 0.17460(13) 0.59862(6)
H43 H 0.3625 0.2231 0.5793
C35 C 0.54034(18) -0.00815(15) 0.64875(7)
H44 H 0.582 -0.0871 0.6526
C36 C 0.5808(2) 0.08384(18) 0.68952(7)
C37 C 0.6927(3) 0.0785(3) 0.74658(9)
H45 H 0.7319 -0.0033 0.7534
H46 H 0.6301 0.1043 0.781
H47 H 0.7897 0.1309 0.7428
C38 C 0.1269(2) -0.04933(16) 0.34267(7)
H48 H 0.0622 -0.118 0.3554
H49 H 0.2432 -0.0736 0.3376
H50 H 0.0764 -0.0187 0.304
C39 C 0.2204(2) 0.16236(15) 0.37117(7)
H51 H 0.1603 0.1957 0.3347
H52 H 0.3346 0.14 0.3618
H53 H 0.226 0.2219 0.4037
C40 C -0.06214(18) -0.04598(15) 0.57838(7)
H54 H -0.0794 -0.06 0.6214
H55 H -0.0202 -0.1188 0.5602
H56 H -0.1691 -0.023 0.5569
O6 O -0.15159(13) 0.00258(10) 0.43798(5)
O7 O -0.00091(13) 0.16522(10) 0.59761(5)
H57 H -0.1061 0.1618 0.595
O8 O 0.61305(13) 0.19508(10) 0.56954(5)
H58 H 0.6313 0.2682 0.5677
O9 O 0.46853(12) -0.04031(10) 0.42473(5)
H59 H 0.5715 -0.0247 0.4272
O10 O 0.16049(12) -0.11854(9) 0.46875(5)
H60 H 0.0639 -0.1352 0.4538
loop_
_geom_bond_atom_site_label_1
_geom_bond_atom_site_label_2
_geom_bond_site_symmetry_1
_geom_bond_site_symmetry_2
C1 H1 1_555 1_555
C2 C1 1_555 1_555
H2 C2 1_555 1_555
C3 C2 1_555 1_555
H3 C3 1_555 1_555
C4 C3 1_555 1_555
C5 C1 1_555 1_555
C6 C5 1_555 1_555
H4 C6 1_555 1_555
C7 C6 1_555 1_555
H5 C7 1_555 1_555
H6 C7 1_555 1_555
C8 C7 1_555 1_555
C9 C8 1_555 1_555
H7 C9 1_555 1_555
C10 C1 1_555 1_555
C11 C9 1_555 1_555
H8 C11 1_555 1_555
H9 C11 1_555 1_555
C12 C11 1_555 1_555
H10 C12 1_555 1_555
H11 C12 1_555 1_555
C13 C12 1_555 1_555
H12 C13 1_555 1_555
C14 C8 1_555 1_555
H13 C14 1_555 1_555
C15 C8 1_555 1_555
H14 C15 1_555 1_555
C16 C13 1_555 1_555
C17 C16 1_555 1_555
H15 C17 1_555 1_555
H16 C17 1_555 1_555
H17 C17 1_555 1_555
C18 C4 1_555 1_555
H18 C18 1_555 1_555
H19 C18 1_555 1_555
H20 C18 1_555 1_555
C19 C4 1_555 1_555
H21 C19 1_555 1_555
H22 C19 1_555 1_555
H23 C19 1_555 1_555
C20 C10 1_555 1_555
H24 C20 1_555 1_555
H25 C20 1_555 1_555
H26 C20 1_555 1_555
O1 C2 1_555 1_555
O2 C10 1_555 1_555
H27 O2 1_555 1_555
O3 C14 1_555 1_555
H28 O3 1_555 1_555
O4 C6 1_555 1_555
H29 O4 1_555 1_555
O5 C5 1_555 1_555
H30 O5 1_555 1_555
C21 H31 1_555 1_555
C22 C21 1_555 1_555
H32 C22 1_555 1_555
C23 C22 1_555 1_555
H33 C23 1_555 1_555
C24 C23 1_555 1_555
C25 C21 1_555 1_555
C26 C25 1_555 1_555
H34 C26 1_555 1_555
C27 C26 1_555 1_555
H35 C27 1_555 1_555
H36 C27 1_555 1_555
C28 C27 1_555 1_555
C29 C28 1_555 1_555
H37 C29 1_555 1_555
C30 C21 1_555 1_555
C31 C29 1_555 1_555
H38 C31 1_555 1_555
H39 C31 1_555 1_555
C32 C31 1_555 1_555
H40 C32 1_555 1_555
H41 C32 1_555 1_555
C33 C32 1_555 1_555
H42 C33 1_555 1_555
C34 C28 1_555 1_555
H43 C34 1_555 1_555
C35 C28 1_555 1_555
H44 C35 1_555 1_555
C36 C33 1_555 1_555
C37 C36 1_555 1_555
H45 C37 1_555 1_555
H46 C37 1_555 1_555
H47 C37 1_555 1_555
C38 C24 1_555 1_555
H48 C38 1_555 1_555
H49 C38 1_555 1_555
H50 C38 1_555 1_555
C39 C24 1_555 1_555
H51 C39 1_555 1_555
H52 C39 1_555 1_555
H53 C39 1_555 1_555
C40 C30 1_555 1_555
H54 C40 1_555 1_555
H55 C40 1_555 1_555
H56 C40 1_555 1_555
O6 C22 1_555 1_555
O7 C30 1_555 1_555
H57 O7 1_555 1_555
O8 C34 1_555 1_555
H58 O8 1_555 1_555
O9 C26 1_555 1_555
H59 O9 1_555 1_555
O10 C25 1_555 1_555
H60 O10 1_555 1_555
C3 O1 1_555 1_555
C4 C5 1_555 1_555
C9 C10 1_555 1_555
C13 C14 1_555 1_555
C15 C16 1_555 1_555
C23 O6 1_555 1_555
C24 C25 1_555 1_555
C29 C30 1_555 1_555
C33 C34 1_555 1_555
C35 C36 1_555 1_555

#END
