
#######################################################################
#
#                 Cambridge Crystallographic Data Centre
#                                CCDC 
#
#######################################################################
#
# If this CIF has been generated from an entry in the Cambridge 
# Structural Database, then it will include bibliographic, chemical, 
# crystal, experimental, refinement or atomic coordinate data resulting 
# from the CCDC's data processing and validation procedures.
#
#######################################################################

data_KEGPEU
_chemical_name_common            'rhodomollanol A hydrate'
_chemical_formula_moiety         'C20 H28 O5,2.5(H2 O1)'
_chemical_name_systematic        
"3,6,8,8-tetramethyl-1,3a,4,5,5a,6,6a,6b,7a,8,9,10-dodecahydro-8aH-1,6-epoxypentaleno[6a',1':6,7]azuleno[1,2-b]oxirene-4,8a,9-triol hydrate"
_chemical_properties_biological  
'tested for protein tyrosine phosphatase 1B inhibitory activity'
_symmetry_cell_setting           monoclinic
_symmetry_space_group_name_H-M   'C 2'
_symmetry_Int_Tables_number      5
_space_group_name_Hall           'C 2y'
loop_
_symmetry_equiv_pos_site_id
_symmetry_equiv_pos_as_xyz
1 x,y,z
2 -x,y,-z
3 1/2+x,1/2+y,z
4 1/2-x,1/2+y,-z
_cell_length_a                   39.283(5)
_cell_length_b                   7.0114(9)
_cell_length_c                   7.3524(9)
_cell_angle_alpha                90
_cell_angle_beta                 94.433(2)
_cell_angle_gamma                90
_cell_volume                     2019
_exptl_crystal_colour            colorless
_exptl_crystal_description       block
_cell_formula_units_Z            4
loop_
_atom_site_label
_atom_site_type_symbol
_atom_site_fract_x
_atom_site_fract_y
_atom_site_fract_z
C1 C 0.17626(6) 0.8245(4) 1.1009(3)
H1 H 0.1677 0.8850 1.2085
C2 C 0.21470(6) 0.8468(4) 1.1279(4)
H2 H 0.2247 0.9743 1.1447
C3 C 0.22861(7) 0.6904(5) 1.2361(4)
H3 H 0.2480 0.7136 1.3254
C4 C 0.20049(6) 0.5556(4) 1.2852(3)
C5 C 0.17113(6) 0.6050(4) 1.1321(3)
C6 C 0.13497(6) 0.5569(4) 1.1847(3)
H4 H 0.1298 0.6436 1.2834
C7 C 0.10361(6) 0.7661(3) 0.9262(3)
C8 C 0.13434(6) 0.8063(4) 0.8106(3)
H5 H 0.1459 0.6878 0.7809
C9 C 0.10637(6) 0.5784(4) 1.0322(3)
H6 H 0.1089 0.4765 0.9451
H7 H 0.0848 0.5578 1.0854
C10 C 0.15742(5) 0.9319(3) 0.9351(3)
C11 C 0.11805(6) 0.9029(4) 0.6382(3)
H8 H 0.1133 1.0364 0.6598
H9 H 0.1326 0.8926 0.5378
C12 C 0.08546(6) 0.7900(4) 0.6010(3)
H10 H 0.0912 0.6610 0.5625
C13 C 0.07100(6) 0.7789(4) 0.7906(3)
H11 H 0.0565 0.6661 0.8001
C14 C 0.10305(5) 0.9480(4) 1.0460(3)
H12 H 0.1035 0.9150 1.1757
C15 C 0.07060(6) 1.0479(4) 0.9838(3)
H13 H 0.0635 1.1612 1.0346
C16 C 0.05292(6) 0.9577(5) 0.8481(4)
C17 C 0.01880(7) 1.0176(6) 0.7615(5)
H14 H 0.0105 1.1247 0.8265
H15 H 0.0030 0.9136 0.7657
H16 H 0.0210 1.0528 0.6368
C18 C 0.21267(8) 0.3482(5) 1.2857(4)
H17 H 0.2194 0.3155 1.1670
H18 H 0.1944 0.2658 1.3163
H19 H 0.2318 0.3332 1.3742
C19 C 0.19140(8) 0.6083(5) 1.4787(4)
H20 H 0.2107 0.5841 1.5639
H21 H 0.1724 0.5327 1.5105
H22 H 0.1855 0.7410 1.4824
C20 C 0.18175(6) 1.0541(5) 0.8322(4)
H23 H 0.1689 1.1253 0.7387
H24 H 0.1978 0.9732 0.7776
H25 H 0.1938 1.1406 0.9156
O1 O 0.17594(4) 0.4953(3) 0.9734(2)
H26 H 0.1948 0.5185 0.9380
O2 O 0.13362(5) 0.3667(3) 1.2543(2)
H27 H 0.1349 0.2904 1.1705
O3 O 0.23390(5) 0.6973(3) 1.0439(3)
O4 O 0.06374(5) 0.8770(3) 0.4598(3)
H28 H 0.0499 0.7983 0.4168
O5 O 0.13283(4) 1.0613(3) 1.0084(2)
O6 O 0.07160(7) 0.2822(4) 0.4193(4)
H29 H 0.0670 0.1682 0.4240
H30 H 0.0859 0.2957 0.3447
O7 O 0.02312(6) 0.5561(4) 0.3649(4)
H31 H 0.0198 0.5558 0.2535
H32 H 0.0368 0.4723 0.3976
O8 O 0.0000 0.5104(12) 0.0000
H33? H 0.0059 0.5498 0.4212
loop_
_geom_bond_atom_site_label_1
_geom_bond_atom_site_label_2
_geom_bond_site_symmetry_1
_geom_bond_site_symmetry_2
C1 H1 1_555 1_555
C2 C1 1_555 1_555
H2 C2 1_555 1_555
C3 C2 1_555 1_555
H3 C3 1_555 1_555
C4 C3 1_555 1_555
C5 C1 1_555 1_555
C6 C5 1_555 1_555
H4 C6 1_555 1_555
C7 C8 1_555 1_555
C8 H5 1_555 1_555
C9 C6 1_555 1_555
H6 C9 1_555 1_555
H7 C9 1_555 1_555
C10 C1 1_555 1_555
C11 C8 1_555 1_555
H8 C11 1_555 1_555
H9 C11 1_555 1_555
C12 C11 1_555 1_555
H10 C12 1_555 1_555
C13 C7 1_555 1_555
H11 C13 1_555 1_555
C14 C7 1_555 1_555
H12 C14 1_555 1_555
C15 C14 1_555 1_555
H13 C15 1_555 1_555
C16 C13 1_555 1_555
C17 C16 1_555 1_555
H14 C17 1_555 1_555
H15 C17 1_555 1_555
H16 C17 1_555 1_555
C18 C4 1_555 1_555
H17 C18 1_555 1_555
H18 C18 1_555 1_555
H19 C18 1_555 1_555
C19 C4 1_555 1_555
H20 C19 1_555 1_555
H21 C19 1_555 1_555
H22 C19 1_555 1_555
C20 C10 1_555 1_555
H23 C20 1_555 1_555
H24 C20 1_555 1_555
H25 C20 1_555 1_555
O1 C5 1_555 1_555
H26 O1 1_555 1_555
O2 C6 1_555 1_555
H27 O2 1_555 1_555
O3 C2 1_555 1_555
O4 C12 1_555 1_555
H28 O4 1_555 1_555
O5 C10 1_555 1_555
O6 H29 1_555 1_555
H30 O6 1_555 1_555
O7 H31 1_555 1_555
H32 O7 1_555 1_555
C3 O3 1_555 1_555
C4 C5 1_555 1_555
C7 C9 1_555 1_555
C8 C10 1_555 1_555
C12 C13 1_555 1_555
C14 O5 1_555 1_555
C15 C16 1_555 1_555

#END
