
#######################################################################
#
#                 Cambridge Crystallographic Data Centre
#                                CCDC 
#
#######################################################################
#
# If this CIF has been generated from an entry in the Cambridge 
# Structural Database, then it will include bibliographic, chemical, 
# crystal, experimental, refinement or atomic coordinate data resulting 
# from the CCDC's data processing and validation procedures.
#
#######################################################################

data_KEGQIX
_chemical_name_common            
(1R,2R)-1-(1',8'-Naphthalimide)-2-aminocyclohexane
_chemical_formula_moiety         'C18 H18 N2 O2'
_chemical_name_systematic        
(1R,2R)-1-(1,3-Dioxo-1H-benzo(de)isoquinolin-2(3H)-yl)-2-aminocyclohexane
_symmetry_cell_setting           orthorhombic
_symmetry_space_group_name_H-M   'P 21 21 21'
_symmetry_Int_Tables_number      19
_space_group_name_Hall           'P 2ac 2ab'
loop_
_symmetry_equiv_pos_site_id
_symmetry_equiv_pos_as_xyz
1 x,y,z
2 1/2-x,-y,1/2+z
3 -x,1/2+y,1/2-z
4 1/2+x,1/2-y,-z
_cell_length_a                   7.2900(15)
_cell_length_b                   16.646(3)
_cell_length_c                   24.201(5)
_cell_angle_alpha                90
_cell_angle_beta                 90
_cell_angle_gamma                90
_cell_volume                     2936.78
_exptl_crystal_colour            colorless
_exptl_crystal_description       prismatic
_chemical_melting_point          '230-233 deg.C'
_cell_formula_units_Z            8
_exptl_crystal_recrystallization_method ethanol
loop_
_atom_site_label
_atom_site_type_symbol
_atom_site_fract_x
_atom_site_fract_y
_atom_site_fract_z
N1 N 0.9415(4) 0.8006(2) 0.86516(13)
N4 N 1.2237(6) 0.7150(3) 0.9249(2)
O1 O 0.9990(5) 0.7391(2) 0.78207(14)
O3 O 0.8689(4) 0.86451(17) 0.94514(12)
C1 C 1.0923(5) 1.0294(3) 0.73249(19)
H1 H 1.1137 1.0783 0.7151
C3 C 1.1174(6) 0.9595(3) 0.70383(19)
H3 H 1.1577 0.9615 0.6674
C5 C 1.0833(5) 0.8844(3) 0.72859(17)
H5 H 1.1005 0.8373 0.7086
C7 C 1.0242(5) 0.8813(3) 0.78276(16)
C9 C 1.0032(5) 0.9523(3) 0.81339(16)
C11 C 1.0345(5) 1.0285(3) 0.78807(18)
C13 C 1.0057(5) 1.0989(3) 0.81985(19)
H7 H 1.0254 1.1489 0.8038
C15 C 0.9503(5) 1.0946(3) 0.87295(19)
H9 H 0.9313 1.1416 0.8930
C17 C 0.9208(5) 1.0192(3) 0.89848(19)
H11 H 0.8834 1.0172 0.9352
C19 C 0.9468(5) 0.9485(3) 0.86965(17)
C21 C 0.9154(5) 0.8693(3) 0.89657(17)
C23 C 0.9886(5) 0.8016(3) 0.80840(17)
C25 C 0.9107(5) 0.7199(2) 0.88939(16)
H13 H 0.9449 0.6809 0.8609
C27 C 0.7056(5) 0.7053(3) 0.90222(19)
H15 H 0.6657 0.7414 0.9313
H16 H 0.6325 0.7160 0.8695
C29 C 0.6786(5) 0.6176(3) 0.9206(2)
H19 H 0.5509 0.6089 0.9302
H20 H 0.7090 0.5819 0.8903
C31 C 0.7982(5) 0.5980(3) 0.96988(19)
H23 H 0.7837 0.5418 0.9795
H24 H 0.7602 0.6300 1.0013
C33 C 0.9999(5) 0.6152(3) 0.95665(18)
H27 H 1.0741 0.6035 0.9889
H28 H 1.0397 0.5801 0.9270
C35 C 1.0299(5) 0.7015(2) 0.93967(17)
H31 H 0.9956 0.7371 0.9702
H33 H 1.287(7) 0.693(3) 0.950(2)
H35 H 1.246(8) 0.7628(16) 0.918(3)
N2 N 0.4378(4) 0.1963(2) 0.87533(13)
N3 N 0.7166(7) 0.2758(3) 0.9376(3)
O2 O 0.3816(4) 0.11698(18) 0.95036(12)
O4 O 0.5027(5) 0.2739(2) 0.80060(13)
C2 C 0.5141(6) -0.0900(3) 0.8045(2)
H2 H 0.5335 -0.1364 0.7838
C4 C 0.4602(6) -0.0959(3) 0.8580(2)
H4 H 0.4423 -0.1462 0.8738
C6 C 0.4310(5) -0.0259(3) 0.88989(19)
H6 H 0.3953 -0.0305 0.9267
C8 C 0.4552(5) 0.0490(3) 0.86683(17)
C10 C 0.5084(5) 0.0563(3) 0.81141(16)
C12 C 0.5410(5) -0.0138(3) 0.7801(2)
C14 C 0.5989(6) -0.0028(3) 0.7249(2)
H8 H 0.6205 -0.0478 0.7030
C16 C 0.6242(6) 0.0722(4) 0.7027(2)
H10 H 0.6659 0.0774 0.6666
C18 C 0.5874(6) 0.1411(3) 0.73421(19)
H12 H 0.6012 0.1918 0.7186
C20 C 0.5315(5) 0.1336(3) 0.78770(17)
C22 C 0.4910(5) 0.2066(3) 0.82085(18)
C24 C 0.4217(5) 0.1219(3) 0.90130(18)
C26 C 0.3951(5) 0.2686(2) 0.91005(18)
H14 H 0.3651 0.2479 0.9469
C28 C 0.2247(5) 0.3130(3) 0.8904(2)
H17 H 0.1224 0.2758 0.8884
H18 H 0.2459 0.3343 0.8536
C30 C 0.1773(7) 0.3814(3) 0.9296(2)
H21 H 0.1393 0.3592 0.9648
H22 H 0.0750 0.4116 0.9145
C32 C 0.3395(7) 0.4384(3) 0.9388(2)
H25 H 0.3693 0.4657 0.9045
H26 H 0.3067 0.4787 0.9660
C34 C 0.5047(7) 0.3910(3) 0.9588(2)
H29 H 0.4766 0.3670 0.9944
H30 H 0.6075 0.4273 0.9639
C36 C 0.5595(5) 0.3247(3) 0.91809(19)
H32 H 0.5911 0.3492 0.8825
H34 H 0.779(8) 0.305(4) 0.959(2)
H36 H 0.787(11) 0.284(5) 0.896(4)
loop_
_geom_bond_atom_site_label_1
_geom_bond_atom_site_label_2
_geom_bond_site_symmetry_1
_geom_bond_site_symmetry_2
N1 C21 1_555 1_555
N2 C22 1_555 1_555
N3 C36 1_555 1_555
N4 C35 1_555 1_555
O1 C23 1_555 1_555
O2 C24 1_555 1_555
O3 C21 1_555 1_555
O4 C22 1_555 1_555
C1 H1 1_555 1_555
C2 H2 1_555 1_555
C3 C1 1_555 1_555
H3 C3 1_555 1_555
C4 C2 1_555 1_555
H4 C4 1_555 1_555
C5 C3 1_555 1_555
H5 C5 1_555 1_555
C6 C4 1_555 1_555
H6 C6 1_555 1_555
C7 C5 1_555 1_555
C8 C6 1_555 1_555
C9 C7 1_555 1_555
C10 C8 1_555 1_555
C11 C1 1_555 1_555
C12 C2 1_555 1_555
C13 C11 1_555 1_555
H7 C13 1_555 1_555
C14 C12 1_555 1_555
H8 C14 1_555 1_555
C15 C13 1_555 1_555
H9 C15 1_555 1_555
C16 C14 1_555 1_555
H10 C16 1_555 1_555
C17 C15 1_555 1_555
H11 C17 1_555 1_555
C18 C16 1_555 1_555
H12 C18 1_555 1_555
C19 C9 1_555 1_555
C20 C10 1_555 1_555
C21 C19 1_555 1_555
C22 C20 1_555 1_555
C23 N1 1_555 1_555
C24 N2 1_555 1_555
C25 N1 1_555 1_555
H13 C25 1_555 1_555
C26 N2 1_555 1_555
H14 C26 1_555 1_555
C27 C25 1_555 1_555
H15 C27 1_555 1_555
H16 C27 1_555 1_555
C28 C26 1_555 1_555
H17 C28 1_555 1_555
H18 C28 1_555 1_555
C29 C27 1_555 1_555
H19 C29 1_555 1_555
H20 C29 1_555 1_555
C30 C28 1_555 1_555
H21 C30 1_555 1_555
H22 C30 1_555 1_555
C31 C29 1_555 1_555
H23 C31 1_555 1_555
H24 C31 1_555 1_555
C32 C30 1_555 1_555
H25 C32 1_555 1_555
H26 C32 1_555 1_555
C33 C31 1_555 1_555
H27 C33 1_555 1_555
H28 C33 1_555 1_555
C34 C32 1_555 1_555
H29 C34 1_555 1_555
H30 C34 1_555 1_555
C35 C25 1_555 1_555
H31 C35 1_555 1_555
C36 C26 1_555 1_555
H32 C36 1_555 1_555
H33 N4 1_555 1_555
H34 N3 1_555 1_555
H35 N4 1_555 1_555
H36 N3 1_555 1_555
C7 C23 1_555 1_555
C8 C24 1_555 1_555
C9 C11 1_555 1_555
C10 C12 1_555 1_555
C17 C19 1_555 1_555
C18 C20 1_555 1_555
C33 C35 1_555 1_555
C34 C36 1_555 1_555

#END
