
#######################################################################
#
#                 Cambridge Crystallographic Data Centre
#                                CCDC 
#
#######################################################################
#
# If this CIF has been generated from an entry in the Cambridge 
# Structural Database, then it will include bibliographic, chemical, 
# crystal, experimental, refinement or atomic coordinate data resulting 
# from the CCDC's data processing and validation procedures.
#
#######################################################################

data_KEGRAS
_chemical_formula_moiety         'C36 H28 B1 N1'
_chemical_name_systematic        
6-(pyren-2-yl)-6-(2,4,6-trimethylphenyl)-6H-pyrido[1,2-b][2,1]benzazaborole-5-ium-6-ide
_symmetry_cell_setting           monoclinic
_symmetry_space_group_name_H-M   'P 21/c'
_symmetry_Int_Tables_number      14
_space_group_name_Hall           '-P 2ybc'
loop_
_symmetry_equiv_pos_site_id
_symmetry_equiv_pos_as_xyz
1 x,y,z
2 -x,1/2+y,1/2-z
3 -x,-y,-z
4 x,1/2-y,1/2+z
_cell_length_a                   8.7223(2)
_cell_length_b                   12.0422(3)
_cell_length_c                   24.8833(6)
_cell_angle_alpha                90
_cell_angle_beta                 92.4013(11)
_cell_angle_gamma                90
_cell_volume                     2611.34
_exptl_crystal_colour            colorless
_exptl_crystal_description       block
_cell_formula_units_Z            4
loop_
_atom_site_label
_atom_site_type_symbol
_atom_site_fract_x
_atom_site_fract_y
_atom_site_fract_z
B1 B 0.36574(19) 0.34616(14) 0.18324(7)
N1 N 0.37442(14) 0.30546(10) 0.24635(5)
C1 C 0.26360(16) 0.45592(13) 0.19282(6)
C2 C 0.22519(18) 0.54724(14) 0.16043(7)
H1 H 0.2585 0.5499 0.1246
C3 C 0.1389(2) 0.63446(15) 0.17989(8)
H2 H 0.1146 0.6962 0.1573
C4 C 0.0877(2) 0.63229(16) 0.23194(8)
H3 H 0.0274 0.6917 0.2446
C5 C 0.1245(2) 0.54406(15) 0.26521(7)
H4 H 0.0900 0.5419 0.3009
C6 C 0.21332(17) 0.45803(13) 0.24562(6)
C7 C 0.27421(17) 0.36322(13) 0.27606(6)
C8 C 0.2428(2) 0.32960(15) 0.32776(6)
H5 H 0.1714 0.3696 0.3481
C9 C 0.3161(2) 0.23766(15) 0.34926(7)
H6 H 0.2950 0.2133 0.3845
C10 C 0.4208(2) 0.18077(15) 0.31923(7)
H7 H 0.4743 0.1184 0.3339
C11 C 0.44608(18) 0.21615(13) 0.26773(6)
H8 H 0.5161 0.1763 0.2468
C12 C 0.52560(16) 0.37717(12) 0.15499(6)
C13 C 0.52334(17) 0.38485(13) 0.09803(6)
C14 C 0.65189(17) 0.41993(14) 0.07164(6)
H9 H 0.6466 0.4236 0.0335
C15 C 0.78726(17) 0.44975(14) 0.09871(6)
C16 C 0.78997(17) 0.44546(13) 0.15454(6)
H10 H 0.8812 0.4663 0.1742
C17 C 0.66307(16) 0.41152(12) 0.18269(6)
C18 C 0.67805(19) 0.42001(15) 0.24329(6)
H11 H 0.7671 0.4662 0.2536
H12 H 0.6918 0.3456 0.2587
H13 H 0.5850 0.4538 0.2569
C19 C 0.38438(19) 0.35851(16) 0.06138(7)
H14 H 0.3945 0.3958 0.0267
H15 H 0.2912 0.3846 0.0781
H16 H 0.3778 0.2781 0.0557
C20 C 0.9235(2) 0.48558(18) 0.06791(7)
H17 H 0.8918 0.4972 0.0301
H18 H 1.0027 0.4279 0.0705
H19 H 0.9647 0.5550 0.0831
C21 C 0.27511(17) 0.24151(13) 0.15531(6)
C22 C 0.11685(17) 0.24211(13) 0.14390(6)
H20 H 0.0589 0.3049 0.1541
C23 C 0.04050(17) 0.15331(13) 0.11800(6)
C24 C -0.12022(19) 0.15703(15) 0.10326(7)
H21 H -0.1791 0.2198 0.1128
C25 C -0.1894(2) 0.07205(16) 0.07582(7)
H22 H -0.2954 0.0776 0.0657
C26 C -0.1069(2) -0.02551(15) 0.06171(6)
C27 C -0.1749(2) -0.11483(17) 0.03335(7)
H23 H -0.2803 -0.1110 0.0222
C28 C -0.0914(3) -0.20771(18) 0.02149(7)
H24 H -0.1402 -0.2674 0.0026
C29 C 0.0626(3) -0.21568(16) 0.03666(7)
H25 H 0.1182 -0.2808 0.0282
C30 C 0.1373(2) -0.12868(15) 0.06426(7)
C31 C 0.2977(2) -0.13200(15) 0.07942(7)
H26 H 0.3556 -0.1964 0.0716
C32 C 0.3680(2) -0.04537(15) 0.10465(7)
H27 H 0.4746 -0.0498 0.1138
C33 C 0.28500(18) 0.05333(13) 0.11792(6)
C34 C 0.35601(18) 0.14543(13) 0.14230(6)
H28 H 0.4634 0.1428 0.1504
C35 C 0.12512(18) 0.05754(13) 0.10476(6)
C36 C 0.0518(2) -0.03290(14) 0.07712(6)
loop_
_geom_bond_atom_site_label_1
_geom_bond_atom_site_label_2
_geom_bond_site_symmetry_1
_geom_bond_site_symmetry_2
B1 N1 1_555 1_555
N1 C7 1_555 1_555
C1 B1 1_555 1_555
C2 C1 1_555 1_555
H1 C2 1_555 1_555
C3 C2 1_555 1_555
H2 C3 1_555 1_555
C4 C3 1_555 1_555
H3 C4 1_555 1_555
C5 C4 1_555 1_555
H4 C5 1_555 1_555
C6 C1 1_555 1_555
C7 C6 1_555 1_555
C8 C7 1_555 1_555
H5 C8 1_555 1_555
C9 C8 1_555 1_555
H6 C9 1_555 1_555
C10 C9 1_555 1_555
H7 C10 1_555 1_555
C11 N1 1_555 1_555
H8 C11 1_555 1_555
C12 B1 1_555 1_555
C13 C12 1_555 1_555
C14 C13 1_555 1_555
H9 C14 1_555 1_555
C15 C14 1_555 1_555
C16 C15 1_555 1_555
H10 C16 1_555 1_555
C17 C12 1_555 1_555
C18 C17 1_555 1_555
H11 C18 1_555 1_555
H12 C18 1_555 1_555
H13 C18 1_555 1_555
C19 C13 1_555 1_555
H14 C19 1_555 1_555
H15 C19 1_555 1_555
H16 C19 1_555 1_555
C20 C15 1_555 1_555
H17 C20 1_555 1_555
H18 C20 1_555 1_555
H19 C20 1_555 1_555
C21 B1 1_555 1_555
C22 C21 1_555 1_555
H20 C22 1_555 1_555
C23 C22 1_555 1_555
C24 C23 1_555 1_555
H21 C24 1_555 1_555
C25 C24 1_555 1_555
H22 C25 1_555 1_555
C26 C25 1_555 1_555
C27 C26 1_555 1_555
H23 C27 1_555 1_555
C28 C27 1_555 1_555
H24 C28 1_555 1_555
C29 C28 1_555 1_555
H25 C29 1_555 1_555
C30 C29 1_555 1_555
C31 C30 1_555 1_555
H26 C31 1_555 1_555
C32 C31 1_555 1_555
H27 C32 1_555 1_555
C33 C32 1_555 1_555
C34 C21 1_555 1_555
H28 C34 1_555 1_555
C35 C23 1_555 1_555
C36 C26 1_555 1_555
C5 C6 1_555 1_555
C10 C11 1_555 1_555
C16 C17 1_555 1_555
C30 C36 1_555 1_555
C33 C34 1_555 1_555
C33 C35 1_555 1_555
C35 C36 1_555 1_555

#END
