
#######################################################################
#
#                 Cambridge Crystallographic Data Centre
#                                CCDC 
#
#######################################################################
#
# If this CIF has been generated from an entry in the Cambridge 
# Structural Database, then it will include bibliographic, chemical, 
# crystal, experimental, refinement or atomic coordinate data resulting 
# from the CCDC's data processing and validation procedures.
#
#######################################################################

data_KEGXOK
_chemical_formula_moiety         'C19 H22 B1 N1 O5'
_chemical_name_systematic        
't-Butyl 2,3,3a,4,5,6-hexahydro-2-oxo-5,6-phenylboronate-indole-1-carboxylate'
_symmetry_cell_setting           monoclinic
_symmetry_space_group_name_H-M   'P 21/c'
_symmetry_Int_Tables_number      14
_space_group_name_Hall           '-P 2ybc'
loop_
_symmetry_equiv_pos_site_id
_symmetry_equiv_pos_as_xyz
1 x,y,z
2 -x,1/2+y,1/2-z
3 -x,-y,-z
4 x,1/2-y,1/2+z
_cell_length_a                   15.9690(16)
_cell_length_b                   5.8520(6)
_cell_length_c                   21.143(2)
_cell_angle_alpha                90
_cell_angle_beta                 109.744(4)
_cell_angle_gamma                90
_cell_volume                     1859.67
_exptl_crystal_colour            colorless
_exptl_crystal_description       plate
_chemical_melting_point          139-141deg.C
_cell_formula_units_Z            4
loop_
_atom_site_label
_atom_site_type_symbol
_atom_site_fract_x
_atom_site_fract_y
_atom_site_fract_z
C1 C 0.0104(5) 0.8553(12) 0.4396(3)
C2 C 0.0879(4) 0.7063(10) 0.4787(3)
H1 H 0.0906 0.5671 0.4528
H2 H 0.0826 0.6603 0.5222
C3 C 0.1706(4) 0.8548(10) 0.4896(3)
H3 H 0.1850 0.9350 0.5337
C4 C 0.2553(4) 0.7391(10) 0.4862(3)
H4 H 0.2758 0.6227 0.5222
H5 H 0.2422 0.6609 0.4424
C5 C 0.3287(4) 0.9164(10) 0.4947(3)
H6 H 0.3496 0.9736 0.5421
B1 B 0.4035(5) 0.9107(13) 0.4194(4)
C6 C 0.2983(4) 1.1227(10) 0.4458(3)
H7 H 0.3237 1.2665 0.4704
C7 C 0.1984(4) 1.1518(11) 0.4120(3)
H8 H 0.1762 1.2556 0.3756
C8 C 0.1418(5) 1.0325(10) 0.4332(3)
C9 C -0.0058(5) 1.1876(12) 0.3583(3)
C10 C -0.1600(4) 1.2796(10) 0.2877(3)
C11 C -0.1488(4) 1.1824(11) 0.2241(3)
H9 H -0.0925 1.2363 0.2205
H10 H -0.1982 1.2332 0.1848
H11 H -0.1483 1.0151 0.2262
C12 C -0.1525(4) 1.5373(10) 0.2907(3)
H12 H -0.1515 1.5905 0.3349
H13 H -0.2037 1.6043 0.2557
H14 H -0.0975 1.5841 0.2835
C13 C -0.2474(4) 1.2004(11) 0.2946(3)
H15 H -0.2501 1.0331 0.2932
H16 H -0.2973 1.2631 0.2576
H17 H -0.2509 1.2541 0.3376
C14 C 0.4711(4) 0.8363(12) 0.3848(3)
C15 C 0.4888(4) 0.9859(11) 0.3385(3)
H18 H 0.4563 1.1244 0.3266
C16 C 0.5539(4) 0.9335(12) 0.3095(3)
H19 H 0.5668 1.0389 0.2798
C17 C 0.5993(4) 0.7269(13) 0.3244(3)
H20 H 0.6430 0.6907 0.3046
C18 C 0.5810(5) 0.5713(12) 0.3686(3)
H21 H 0.6114 0.4290 0.3781
C19 C 0.5178(5) 0.6272(11) 0.3987(3)
H22 H 0.5061 0.5224 0.4291
N1 N 0.0451(3) 1.0350(9) 0.4102(2)
O1 O -0.0676(3) 0.8283(7) 0.43473(18)
O2 O 0.0288(3) 1.3177(8) 0.3296(2)
O3 O -0.0930(3) 1.1708(6) 0.34806(17)
O4 O 0.4034(3) 0.8160(6) 0.4800(2)
O5 O 0.3399(3) 1.0780(7) 0.39452(18)
loop_
_geom_bond_atom_site_label_1
_geom_bond_atom_site_label_2
_geom_bond_site_symmetry_1
_geom_bond_site_symmetry_2
C1 C2 1_555 1_555
C2 H1 1_555 1_555
H2 C2 1_555 1_555
C3 C2 1_555 1_555
H3 C3 1_555 1_555
C4 C3 1_555 1_555
H4 C4 1_555 1_555
H5 C4 1_555 1_555
C5 C4 1_555 1_555
H6 C5 1_555 1_555
B1 C14 1_555 1_555
C6 C5 1_555 1_555
H7 C6 1_555 1_555
C7 C6 1_555 1_555
H8 C7 1_555 1_555
C8 C3 1_555 1_555
C9 N1 1_555 1_555
C10 C11 1_555 1_555
C11 H9 1_555 1_555
H10 C11 1_555 1_555
H11 C11 1_555 1_555
C12 C10 1_555 1_555
H12 C12 1_555 1_555
H13 C12 1_555 1_555
H14 C12 1_555 1_555
C13 C10 1_555 1_555
H15 C13 1_555 1_555
H16 C13 1_555 1_555
H17 C13 1_555 1_555
C14 C15 1_555 1_555
C15 H18 1_555 1_555
C16 C15 1_555 1_555
H19 C16 1_555 1_555
C17 C16 1_555 1_555
H20 C17 1_555 1_555
C18 C17 1_555 1_555
H21 C18 1_555 1_555
C19 C14 1_555 1_555
H22 C19 1_555 1_555
N1 C1 1_555 1_555
O1 C1 1_555 1_555
O2 C9 1_555 1_555
O3 C9 1_555 1_555
O4 C5 1_555 1_555
O5 B1 1_555 1_555
B1 O4 1_555 1_555
C6 O5 1_555 1_555
C7 C8 1_555 1_555
C8 N1 1_555 1_555
C10 O3 1_555 1_555
C18 C19 1_555 1_555

#END
