
#######################################################################
#
#                 Cambridge Crystallographic Data Centre
#                                CCDC 
#
#######################################################################
#
# If this CIF has been generated from an entry in the Cambridge 
# Structural Database, then it will include bibliographic, chemical, 
# crystal, experimental, refinement or atomic coordinate data resulting 
# from the CCDC's data processing and validation procedures.
#
#######################################################################

data_KEGXOJ
_chemical_formula_moiety         'C12 H24 Cl2 Mg1 O6,2(H1 Cl1)'
_chemical_name_systematic        
'(18-Crown-6-dichloro-magnesium) hydrogen chloride'
_symmetry_cell_setting           orthorhombic
_symmetry_space_group_name_H-M   'P b c a'
_symmetry_Int_Tables_number      61
_space_group_name_Hall           '-P 2ac 2ab'
loop_
_symmetry_equiv_pos_site_id
_symmetry_equiv_pos_as_xyz
1 x,y,z
2 1/2-x,-y,1/2+z
3 1/2+x,1/2-y,-z
4 -x,1/2+y,1/2-z
5 -x,-y,-z
6 1/2+x,y,1/2-z
7 1/2-x,1/2+y,z
8 x,1/2-y,1/2+z
_cell_length_a                   18.310(7)
_cell_length_b                   7.512(6)
_cell_length_c                   29.085(8)
_cell_angle_alpha                90
_cell_angle_beta                 90
_cell_angle_gamma                90
_cell_volume                     4000.49
_cell_formula_units_Z            8
loop_
_atom_site_label
_atom_site_type_symbol
_atom_site_fract_x
_atom_site_fract_y
_atom_site_fract_z
Mg1 Mg 0.5007(3) -0.1556(6) 0.6191(2)
Cl1 Cl 0.5353(2) 0.0340(5) 0.6842(1)
Cl2 Cl 0.4720(2) -0.3425(5) 0.5534(1)
O1 O 0.3961(5) -0.231(1) 0.6601(4)
O2 O 0.5240(6) -0.413(1) 0.6562(3)
O3 O 0.6214(5) -0.223(1) 0.6163(4)
O4 O 0.5599(6) 0.032(1) 0.5724(4)
O5 O 0.4192(5) 0.040(1) 0.5915(3)
O6 O 0.2813(6) 0.042(2) 0.6573(4)
C1 C 0.3986(9) -0.427(2) 0.6675(7)
C2 C 0.4705(9) -0.469(2) 0.6893(6)
C3 C 0.5976(8) -0.449(2) 0.6697(6)
C4 C 0.6429(9) -0.406(2) 0.6283(6)
C5 C 0.6636(9) -0.149(2) 0.5795(6)
C6 C 0.6368(9) 0.041(2) 0.5773(6)
C7 C 0.5251(9) 0.203(2) 0.5702(6)
C8 C 0.4467(9) 0.160(2) 0.5572(6)
C9 C 0.3435(8) 0.006(2) 0.5818(6)
C10 C 0.2921(9) 0.100(2) 0.6123(6)
C11 C 0.342(1) 0.043(2) 0.6865(6)
C12 C 0.3661(9) -0.136(2) 0.6999(6)
H1 H 0.3948 -0.489 0.6372
H2 H 0.3574 -0.466 0.6878
H3 H 0.4759 -0.598 0.6973
H4 H 0.4752 -0.396 0.7178
H5 H 0.6123 -0.367 0.6952
H6 H 0.6037 -0.575 0.6800
H7 H 0.6965 -0.415 0.6345
H8 H 0.6295 -0.490 0.6030
H9 H 0.7172 -0.158 0.5857
H10 H 0.6520 -0.210 0.5499
H11 H 0.6590 0.107 0.5510
H12 H 0.6497 0.102 0.6068
H13 H 0.5265 0.265 0.6006
H14 H 0.5490 0.280 0.5464
H15 H 0.4460 0.099 0.5267
H16 H 0.4163 0.271 0.5555
H17 H 0.3344 0.041 0.5492
H18 H 0.3344 -0.124 0.5855
H19 H 0.2432 0.095 0.5970
Cl3 Cl 0.3169(3) -0.4527(7) 0.5042(2)
H20 H 0.3841 -0.4348 0.5185
Cl4 Cl 0.7081(3) -0.0436(8) 0.7139(2)
H21 H 0.6315 -0.0208 0.7024
loop_
_geom_bond_atom_site_label_1
_geom_bond_atom_site_label_2
_geom_bond_site_symmetry_1
_geom_bond_site_symmetry_2
Mg1 Cl1 1_555 1_555
Cl2 Mg1 1_555 1_555
O1 Mg1 1_555 1_555
O2 Mg1 1_555 1_555
O3 Mg1 1_555 1_555
O4 Mg1 1_555 1_555
O5 Mg1 1_555 1_555
O6 C10 1_555 1_555
C1 O1 1_555 1_555
C2 O2 1_555 1_555
C3 O2 1_555 1_555
C4 O3 1_555 1_555
C5 O3 1_555 1_555
C6 O4 1_555 1_555
C7 O4 1_555 1_555
C8 O5 1_555 1_555
C9 O5 1_555 1_555
C10 C9 1_555 1_555
C11 O6 1_555 1_555
C12 O1 1_555 1_555
H1 C1 1_555 1_555
H2 C1 1_555 1_555
H3 C2 1_555 1_555
H4 C2 1_555 1_555
H5 C3 1_555 1_555
H6 C3 1_555 1_555
H7 C4 1_555 1_555
H8 C4 1_555 1_555
H9 C5 1_555 1_555
H10 C5 1_555 1_555
H11 C6 1_555 1_555
H12 C6 1_555 1_555
H13 C7 1_555 1_555
H14 C7 1_555 1_555
H15 C8 1_555 1_555
H16 C8 1_555 1_555
H17 C9 1_555 1_555
H18 C9 1_555 1_555
H19 C10 1_555 1_555
Cl3 H20 1_555 1_555
Cl4 H21 1_555 1_555
C1 C2 1_555 1_555
C3 C4 1_555 1_555
C5 C6 1_555 1_555
C7 C8 1_555 1_555
C11 C12 1_555 1_555

#END
