
#######################################################################
#
#                 Cambridge Crystallographic Data Centre
#                                CCDC 
#
#######################################################################
#
# If this CIF has been generated from an entry in the Cambridge 
# Structural Database, then it will include bibliographic, chemical, 
# crystal, experimental, refinement or atomic coordinate data resulting 
# from the CCDC's data processing and validation procedures.
#
#######################################################################

data_KEGXID
_chemical_formula_moiety         'C12 H24 K1 O6 1+,H1 Cl2 1-'
_chemical_name_systematic        '(18-Crown-6)-potassium hydrogen dichloride'
_symmetry_cell_setting           monoclinic
_symmetry_space_group_name_H-M   'P 21/c'
_symmetry_Int_Tables_number      14
_space_group_name_Hall           '-P 2ybc'
loop_
_symmetry_equiv_pos_site_id
_symmetry_equiv_pos_as_xyz
1 x,y,z
2 -x,1/2+y,1/2-z
3 -x,-y,-z
4 x,1/2-y,1/2+z
_cell_length_a                   8.325(2)
_cell_length_b                   14.094(4)
_cell_length_c                   7.893(4)
_cell_angle_alpha                90
_cell_angle_beta                 98.56(4)
_cell_angle_gamma                90
_cell_volume                     915.789
_exptl_crystal_colour            colorless
_cell_formula_units_Z            2
loop_
_atom_site_label
_atom_site_type_symbol
_atom_site_fract_x
_atom_site_fract_y
_atom_site_fract_z
K1 K 1.0000 0.0000 0.0000
O1 O 0.7775(2) 0.1492(1) -0.0973(2)
O2 O 1.0720(2) 0.1825(1) 0.1211(2)
O3 O 1.3171(2) 0.0444(1) 0.1573(2)
C1 C 0.8003 0.2257(2) 0.0222(3)
C2 C 0.9714(3) 0.2576(2) 0.0446(3)
C3 C 1.2378(3) 0.2059(2) 0.1552(3)
C4 C 1.3259(3) 0.1280(2) 0.2586(3)
C5 C 1.3952(3) -0.0334(2) 0.2487(4)
C6 C 0.6169(3) 0.1174(2) -0.1282(4)
H1 H 0.7259 0.2795 -0.0084
H2 H 0.7627 0.2016 0.1251
H3 H 0.9809 0.3116 0.1295
H4 H 1.0049 0.2720 -0.0677
H5 H 1.2821 0.2130 0.0448
H6 H 1.2519 0.2665 0.2208
H7 H 1.2749 0.1165 0.3634
H8 H 1.4424 0.1465 0.2928
H9 H 1.5121 -0.0180 0.2883
H10 H 1.3405 -0.0488 0.3495
H11 H 0.5792 0.1011 -0.0082
H12 H 0.5348 0.1674 -0.1677
O1B O 1.2225(2) -0.1492(1) 0.0973(2)
O2B O 0.9280(2) -0.1825(1) -0.1211(2)
O3B O 0.6829(2) -0.0444(1) -0.1573(2)
C6B C 1.3831(3) -0.1174(2) 0.1282(4)
C5B C 0.6048(3) 0.0334(2) -0.2487(4)
C1B C 1.1997 -0.2257(2) -0.0222(3)
C2B C 1.0286(3) -0.2576(2) -0.0446(3)
C3B C 0.7622(3) -0.2059(2) -0.1552(3)
C4B C 0.6741(3) -0.1280(2) -0.2586(3)
H11B H 1.4208 -0.1011 0.0082
H12B H 1.4652 -0.1674 0.1677
H9B H 0.4879 0.0180 -0.2883
H10B H 0.6595 0.0488 -0.3495
H1B H 1.2741 -0.2795 0.0084
H2B H 1.2373 -0.2016 -0.1251
H3B H 1.0191 -0.3116 -0.1295
H4B H 0.9951 -0.2720 0.0677
H5B H 0.7179 -0.2130 -0.0448
H6B H 0.7481 -0.2665 -0.2208
H7B H 0.7251 -0.1165 -0.3634
H8B H 0.5576 -0.1465 -0.2928
Cl1 Cl 0.8513(1) 0.00393(5) 0.3546(1)
H13 H 1.0000 0.0000 0.5000
Cl1B Cl 1.1487(1) -0.00393(5) 0.6454(1)
loop_
_geom_bond_atom_site_label_1
_geom_bond_atom_site_label_2
_geom_bond_site_symmetry_1
_geom_bond_site_symmetry_2
K1 O1 1_555 1_555
O1 C1 1_555 1_555
O2 K1 1_555 1_555
O3 K1 1_555 1_555
C1 C2 1_555 1_555
C2 O2 1_555 1_555
C3 O2 1_555 1_555
C4 O3 1_555 1_555
C5 O3 1_555 1_555
C6 O1 1_555 1_555
H1 C1 1_555 1_555
H2 C1 1_555 1_555
H3 C2 1_555 1_555
H4 C2 1_555 1_555
H5 C3 1_555 1_555
H6 C3 1_555 1_555
H7 C4 1_555 1_555
H8 C4 1_555 1_555
H9 C5 1_555 1_555
H10 C5 1_555 1_555
H11 C6 1_555 1_555
H12 C6 1_555 1_555
Cl1 H13 1_555 1_555
H13 Cl1B 1_555 1_555
O1B K1 1_555 1_555
O2B K1 1_555 1_555
O3B K1 1_555 1_555
C6B C5 1_555 1_555
C5B C6 1_555 1_555
C1B O1B 1_555 1_555
C2B O2B 1_555 1_555
C3B O2B 1_555 1_555
C4B O3B 1_555 1_555
H11B C6B 1_555 1_555
H12B C6B 1_555 1_555
H9B C5B 1_555 1_555
H10B C5B 1_555 1_555
H1B C1B 1_555 1_555
H2B C1B 1_555 1_555
H3B C2B 1_555 1_555
H4B C2B 1_555 1_555
H5B C3B 1_555 1_555
H6B C3B 1_555 1_555
H7B C4B 1_555 1_555
H8B C4B 1_555 1_555
C3 C4 1_555 1_555
O1B C6B 1_555 1_555
O3B C5B 1_555 1_555
C1B C2B 1_555 1_555
C3B C4B 1_555 1_555

#END
