
#######################################################################
#
#                 Cambridge Crystallographic Data Centre
#                                CCDC 
#
#######################################################################
#
# If this CIF has been generated from an entry in the Cambridge 
# Structural Database, then it will include bibliographic, chemical, 
# crystal, experimental, refinement or atomic coordinate data resulting 
# from the CCDC's data processing and validation procedures.
#
#######################################################################

data_KEHJEP
_chemical_name_common            
'hexakis(mu-tetrahydrogen 2,8,14,20-tetra-n-hexyl-4,5,6,10,11,12,16,17,18,22,23,24-dedecaoxidocalix(4)arene)-tetrakis(nitrato)-tetratetraconta-aqua-tetracosa-magnesium(ii) tetrakis(pyridinium) unknown solvate'
_chemical_formula_moiety         '4(C5 H6 N1 1+),C312 H472 Mg24 N4 O128 4-'
_chemical_name_systematic        
'hexakis(\m-tetrahydrogen C-hexylpyrogallol[4]arene)-tetrakis(nitrato)-tetratetraconta-aqua-tetracosa-magnesium(ii) tetrakis(pyridinium) unknown solvate'
_symmetry_cell_setting           triclinic
_symmetry_space_group_name_H-M   'P -1'
_symmetry_Int_Tables_number      2
_space_group_name_Hall           '-P 1'
loop_
_symmetry_equiv_pos_site_id
_symmetry_equiv_pos_as_xyz
1 x,y,z
2 -x,-y,-z
_cell_length_a                   24.1523(5)
_cell_length_b                   24.5736(6)
_cell_length_c                   24.9551(6)
_cell_angle_alpha                108.6740(10)
_cell_angle_beta                 108.7390(10)
_cell_angle_gamma                107.2470(10)
_cell_volume                     11898.5
_exptl_crystal_colour            green
_exptl_crystal_description       block
_cell_formula_units_Z            1
loop_
_atom_site_label
_atom_site_type_symbol
_atom_site_fract_x
_atom_site_fract_y
_atom_site_fract_z
Mg1 Mg 0.46444(8) 0.20734(8) 0.56291(8)
Mg2 Mg 0.40323(9) 0.76900(8) 0.49052(8)
Mg3 Mg 0.41933(8) 0.14211(8) 0.38740(8)
Mg4 Mg 0.58268(9) 0.64765(8) 0.30019(9)
Mg5 Mg 0.50666(9) 0.46967(8) 0.19522(9)
Mg6 Mg 0.13437(9) 0.40418(9) 0.33849(9)
Mg7 Mg 0.78224(9) 0.41519(9) 0.55525(9)
Mg8 Mg 0.32065(9) 0.28934(9) 0.15000(10)
Mg9 Mg 0.19081(9) 0.26801(9) 0.20312(10)
Mg10 Mg 0.18424(10) 0.46931(8) 0.51360(9)
Mg11 Mg 0.29252(9) 0.17617(9) 0.22119(10)
Mg12 Mg 0.68307(9) 0.55559(8) 0.31580(10)
O1 O 0.37545(17) 0.18470(16) 0.56245(16)
O2 O 0.35148(17) 0.26082(16) 0.63238(17)
O3 O 0.40805(17) 0.16342(17) 0.46748(17)
O4 O 0.42324(17) 0.12242(17) 0.30235(17)
O5 O 0.73764(18) 0.32721(17) 0.47775(18)
O6 O 0.15667(17) 0.38776(16) 0.52492(17)
O7 O 0.31860(17) 0.10136(17) 0.34382(17)
O8 O 0.48300(17) 0.74586(18) 0.33991(17)
O9 O 0.50728(18) 0.67037(17) 0.26932(17)
O10 O 0.64454(17) 0.23160(17) 0.45454(17)
O11 O 0.35804(18) 0.14029(17) 0.21678(18)
O12 O 0.22776(17) 0.37545(16) 0.61205(18)
O13 O 0.25446(18) 0.12384(18) 0.26041(19)
O14 O 0.12953(18) 0.23733(18) 0.2386(2)
O15 O 0.51708(17) 0.18331(18) 0.42362(17)
O16 O 0.14727(19) 0.40540(17) 0.42226(18)
O17 O 0.44495(17) 0.76353(17) 0.43165(17)
O18 O 0.22176(19) 0.62021(18) 0.38154(18)
O19 O 0.41200(18) 0.44777(17) 0.13935(19)
O20 O 0.31913(18) 0.71544(19) 0.40549(18)
O21 O 0.49072(18) 0.37662(17) 0.15233(18)
O22 O 0.1740(2) 0.49981(18) 0.36448(18)
O23 O 0.77817(18) 0.47042(16) 0.39152(18)
O24 O 0.39632(19) 0.28460(18) 0.13148(19)
O25 O 0.09770(19) 0.30660(17) 0.30679(18)
O26 O 0.34060(17) 0.37016(16) 0.66437(19)
O27 O 0.71341(19) 0.48493(17) 0.30190(19)
O28 O 0.59793(18) 0.48332(17) 0.24523(19)
O29 O 0.51472(17) 0.55902(17) 0.23272(19)
O30 O 0.31640(18) 0.35542(19) 0.11673(19)
O31 O 0.3316(2) 0.2258(2) 0.1815(2)
O32 O 0.15134(19) 0.3256(2) 0.1800(2)
O33 O 0.7801(2) 0.44592(17) 0.48924(18)
O34 O 0.1246(2) 0.39750(19) 0.25177(18)
O35 O 0.2479(2) 0.3001(2) 0.1654(2)
O36 O 0.2260(2) 0.2093(2) 0.2286(2)
O37 O 0.6114(2) 0.6638(2) 0.2330(2)
O38 O 0.4612(2) 0.1211(2) 0.5630(2)
O39 O 0.3986(2) 0.8527(2) 0.4922(2)
O40 O 0.0954(2) 0.4726(2) 0.5008(2)
O41 O 0.8734(2) 0.4150(2) 0.5707(3)
O42 O 0.4159(3) 0.0532(2) 0.3800(2)
O43 O 0.0389(2) 0.3937(3) 0.3115(3)
O44 O 0.2215(3) 0.1015(3) 0.1287(2)
C1 C 0.4870(2) 0.1419(2) 0.3129(3)
C2 C 0.2918(2) 0.2571(2) 0.6042(2)
C3 C 0.3449(2) 0.1403(2) 0.4529(2)
C4 C 0.2963(3) 0.1069(2) 0.3890(2)
C5 C 0.2870(2) 0.3152(2) 0.6212(3)
O45 O 0.1234(3) 0.1904(2) 0.1115(3)
C6 C 0.3260(2) 0.1499(2) 0.5014(2)
C7 C 0.5047(3) 0.1310(2) 0.2640(2)
C8 C 0.2268(2) 0.3164(2) 0.5936(3)
C9 C 0.7373(2) 0.3339(2) 0.4254(3)
C10 C 0.1275(2) 0.3343(2) 0.4674(3)
C11 C 0.6017(2) 0.1986(2) 0.3915(3)
O46 O 0.4165(3) 0.6832(2) 0.4902(3)
C12 C 0.1240(2) 0.3448(2) 0.4150(3)
C13 C 0.5344(3) 0.1737(2) 0.3762(2)
C14 C 0.2597(2) 0.1240(2) 0.4871(2)
O47 O 0.7091(3) 0.5740(3) 0.2485(3)
C15 C 0.4167(3) 0.7232(3) 0.3210(3)
C16 C 0.2302(2) 0.0816(2) 0.3730(2)
C17 C 0.3984(2) 0.7319(2) 0.3700(2)
C18 C 0.1374(2) 0.1912(2) 0.2537(3)
C19 C 0.6138(3) 0.3154(2) 0.1819(2)
H1 H 0.6172 0.2764 0.1670
C20 C 0.4371(3) 0.1461(2) 0.1751(2)
C21 C 0.6630(3) 0.4277(2) 0.2532(3)
C22 C 0.4108(3) 0.2391(2) 0.1430(2)
C23 C 0.0983(2) 0.1571(2) 0.2746(2)
C24 C 0.5487(3) 0.3719(2) 0.1756(2)
C25 C 0.2136(2) 0.0910(2) 0.4226(3)
H2 H 0.1686 0.0741 0.4122
C26 C 0.7359(2) 0.3564(2) 0.3208(3)
C27 C 0.6027(3) 0.4283(2) 0.2247(3)
C28 C 0.7160(2) 0.2819(2) 0.3665(3)
O48 O 0.6922(3) 0.4247(3) 0.5411(3)
C29 C 0.5535(3) 0.3145(2) 0.1530(2)
C30 C 0.3772(3) 0.2096(2) 0.1709(2)
C31 C 0.2025(2) 0.1314(2) 0.2654(2)
C32 C 0.2352(2) 0.1990(2) 0.5591(2)
C33 C 0.5705(3) 0.1541(2) 0.2803(3)
H3 H 0.5827 0.1469 0.2470
C34 C 0.4530(3) 0.6177(3) 0.2189(2)
C35 C 0.0966(2) 0.2924(2) 0.3554(3)
C36 C 0.1064(2) 0.2620(2) 0.5193(3)
H4 H 0.1093 0.3016 0.5506
C37 C 0.1014(2) 0.2718(2) 0.4607(3)
C38 C 0.6194(3) 0.1872(2) 0.3426(3)
C39 C 0.4043(3) 0.5030(2) 0.1514(2)
C40 C 0.2837(3) 0.6770(3) 0.2927(3)
C41 C 0.6697(3) 0.3706(2) 0.2316(3)
C42 C 0.4573(3) 0.5595(3) 0.2007(3)
C43 C 0.3702(3) 0.6930(3) 0.2582(2)
C44 C 0.3908(3) 0.1645(2) 0.1875(2)
C45 C 0.1698(3) 0.5092(3) 0.3139(3)
C46 C 0.3951(3) 0.6198(3) 0.1852(2)
C47 C 0.7587(3) 0.3967(3) 0.4328(3)
C48 C 0.0706(2) 0.2287(2) 0.3466(3)
O49 O 0.5238(4) 0.4775(3) 0.1187(3)
C49 C 0.3323(3) 0.7077(3) 0.3552(3)
C50 C 0.7577(3) 0.4075(2) 0.3803(3)
C51 C 0.1902(3) 0.1785(3) 0.2493(3)
C52 C 0.1636(2) 0.0971(2) 0.2847(2)
C53 C 0.1708(2) 0.2598(2) 0.5501(3)
C54 C 0.4560(3) 0.2206(2) 0.1299(2)
C55 C 0.1934(2) 0.5720(3) 0.3208(3)
C56 C 0.4686(3) 0.1747(2) 0.1467(2)
H5 H 0.5001 0.1626 0.1383
C57 C 0.3426(3) 0.5615(3) 0.1356(2)
H6 H 0.3028 0.5620 0.1134
C58 C 0.1617(3) 0.3931(3) 0.1268(2)
C59 C 0.7158(2) 0.2951(2) 0.3164(3)
H7 H 0.7011 0.2600 0.2764
C60 C 0.1866(2) 0.5819(3) 0.2676(3)
C61 C 0.1766(2) 0.2026(2) 0.5333(2)
H8 H 0.1385 0.1638 0.5026
C62 C 0.2407(3) 0.1364(2) 0.5401(3)
H9 H 0.2774 0.1420 0.5779
C63 C 0.3452(3) 0.5033(3) 0.1171(2)
C64 C 0.2315(3) 0.3396(3) 0.1439(3)
C65 C 0.2658(3) 0.3690(3) 0.1172(2)
C66 C 0.4511(3) 0.0965(2) 0.1942(2)
H10 H 0.4104 0.0684 0.1926
C67 C 0.0738(2) 0.2207(2) 0.4004(3)
H11 H 0.0564 0.1783 0.3955
C68 C 0.1792(3) 0.0788(2) 0.5244(3)
H12 H 0.1417 0.0719 0.4872
H13 H 0.1862 0.0398 0.5123
C69 C 0.1802(3) 0.3531(3) 0.1505(3)
C70 C 0.1133(2) 0.1116(2) 0.2891(2)
H14 H 0.0870 0.0884 0.3031
C71 C 0.3917(3) 0.6821(3) 0.2050(2)
H15 H 0.4371 0.7165 0.2242
C72 C 0.1792(3) 0.0483(2) 0.3035(3)
H16 H 0.2004 0.0319 0.2780
C73 C 0.7338(3) 0.3699(2) 0.2652(3)
H17 H 0.7688 0.4143 0.2837
C74 C 0.1964(3) 0.4199(3) 0.0992(2)
H18 H 0.1841 0.4470 0.0833
C75 C 0.0464(3) 0.2061(3) 0.5065(3)
H19 H 0.0066 0.2086 0.4820
H20 H 0.0448 0.1653 0.4800
C76 C 0.3049(3) 0.6708(3) 0.2445(3)
H21 H 0.2728 0.6505 0.2012
C77 C 0.1428(2) 0.4557(3) 0.2533(3)
O50 O 0.5533(4) 0.6197(3) 0.3666(3)
C78 C 0.4932(3) 0.2538(2) 0.1008(2)
H22 H 0.4639 0.2680 0.0765
C79 C 0.2126(3) 0.6507(3) 0.2763(3)
H23 H 0.2101 0.6771 0.3146
C80 C 0.1361(2) 0.4663(3) 0.2008(3)
C81 C 0.6919(3) 0.2143(3) 0.3599(3)
H24 H 0.7156 0.2181 0.4030
O51 O 0.2609(3) 0.2182(3) 0.0512(3)
O52 O 0.4698(3) 0.2965(3) 0.5581(3)
C82 C 0.0437(2) 0.1731(2) 0.2818(3)
H25 H 0.0285 0.1883 0.2497
C83 C 0.2474(3) 0.4091(3) 0.0939(2)
O53 O 0.3669(4) 0.2616(3) 0.3116(3)
C84 C 0.4672(3) 0.0525(2) 0.1481(3)
H26 H 0.5074 0.0790 0.1486
H27 H 0.4762 0.0221 0.1637
C85 C 0.1624(3) 0.0874(3) 0.5791(3)
H28 H 0.1502 0.1233 0.5880
H29 H 0.2013 0.0989 0.6178
C86 C 0.1071(3) 0.4078(3) 0.1358(3)
H30 H 0.0782 0.3703 0.1376
O54 O 0.4239(4) 0.2349(4) 0.3972(4)
C87 C 0.1583(3) 0.5290(3) 0.2092(3)
H31 H 0.1538 0.5357 0.1729
C88 C 0.7502(3) 0.3251(3) 0.2202(3)
H32 H 0.7907 0.3245 0.2462
H33 H 0.7146 0.2809 0.1985
O55 O 0.2684(3) 0.3471(3) 0.2926(3)
C89 C 0.3485(4) 0.6898(3) 0.1490(3)
H34 H 0.3064 0.6506 0.1220
H35 H 0.3392 0.7264 0.1664
C90 C 0.2867(3) 0.4397(3) 0.0651(2)
H36 H 0.3045 0.4102 0.0478
O56 O 0.4888(4) 0.4599(4) 0.2723(4)
C91 C -0.0162(3) 0.1138(3) 0.2661(3)
H37 H -0.0018 0.0949 0.2944
H38 H -0.0477 0.1280 0.2757
C92 C 0.4141(4) 0.0154(3) 0.0817(3)
H39 H 0.4088 0.0455 0.0642
H40 H 0.3727 -0.0071 0.0817
C93 C 0.1185(3) -0.0109(2) 0.2863(3)
H41 H 0.1330 -0.0388 0.3022
H42 H 0.0943 0.0036 0.3084
O57 O 0.2365(3) 0.4174(4) 0.3707(4)
C94 C 0.1699(3) 0.6579(3) 0.2207(3)
H43 H 0.1233 0.6351 0.2093
H44 H 0.1761 0.6386 0.1830
O58 O 0.3843(3) 0.3624(3) 0.2501(3)
O59 O 0.6466(4) 0.5313(4) 0.3775(3)
C95 C 0.7080(3) 0.1700(3) 0.3144(3)
H45 H 0.6836 0.1254 0.3059
H46 H 0.6919 0.1716 0.2734
C96 C 0.5054(3) 0.2088(3) 0.0521(3)
H47 H 0.5310 0.2341 0.0370
H48 H 0.5324 0.1915 0.0738
C97 C 0.0638(3) 0.4148(4) 0.0807(3)
H49 H 0.0891 0.4554 0.0817
H50 H 0.0519 0.3791 0.0399
C98 C 0.2446(4) 0.4472(3) 0.0090(3)
H51 H 0.2060 0.4055 -0.0220
H52 H 0.2287 0.4785 0.0253
C99 C 0.0465(4) 0.2059(3) 0.5672(4)
H53 H 0.0574 0.2496 0.5975
H54 H 0.0806 0.1941 0.5870
C100 C 0.1058(3) 0.0264(3) 0.5643(4)
H55 H 0.0711 0.0095 0.5206
H56 H 0.1217 -0.0063 0.5648
O60 O 0.1815(4) 0.1455(4) 0.0400(3)
N1 N 0.2164(5) 0.1747(4) 0.0205(4)
O61 O 0.6114(4) 0.5594(3) 0.1463(4)
C101 C 0.4274(5) -0.0339(4) 0.0383(4)
H57 H 0.4736 -0.0135 0.0475
H58 H 0.4213 -0.0699 0.0492
C102 C 0.0727(4) -0.0499(3) 0.2158(4)
H59 H 0.0961 -0.0657 0.1934
H60 H 0.0582 -0.0223 0.1993
C103 C 0.0775(4) 0.0347(3) 0.6075(4)
H61 H 0.0595 0.0658 0.6052
H62 H 0.1127 0.0539 0.6514
C104 C 0.0230(4) -0.0269(4) 0.5950(4)
H63 H -0.0096 -0.0491 0.5495
H64 H 0.0422 -0.0556 0.6029
N2 N 0.5525(6) 0.5082(5) 0.1064(4)
C105 C 0.4449(5) 0.1536(4) -0.0047(4)
H65 H 0.4243 0.1230 0.0090
H66 H 0.4136 0.1699 -0.0209
C106 C -0.0109(5) -0.0168(5) 0.6339(5)
H67 H -0.0445 -0.0582 0.6229
H68 H 0.0205 0.0040 0.6791
H69 H -0.0314 0.0106 0.6256
C107 C 0.4012(6) -0.1087(5) -0.0720(5)
H70 H 0.4486 -0.0888 -0.0590
H71 H 0.3914 -0.1464 -0.0637
C108 C -0.0194(5) 0.1590(5) 0.5549(5)
H72 H -0.0543 0.1657 0.5279
H73 H -0.0264 0.1147 0.5310
C109 C 0.0036(5) 0.4149(6) 0.0832(5)
H74 H 0.0161 0.4540 0.1214
H75 H -0.0176 0.3775 0.0889
C110 C 0.3858(6) -0.0599(4) -0.0301(4)
H76 H 0.3915 -0.0240 -0.0412
H77 H 0.3395 -0.0810 -0.0397
C111 C 0.3668(5) -0.1299(4) -0.1374(5)
H78 H 0.3793 -0.1606 -0.1605
H79 H 0.3198 -0.1509 -0.1512
H80 H 0.3771 -0.0932 -0.1465
C112 C -0.0504(5) 0.0627(4) 0.1981(5)
H81 H -0.0188 0.0493 0.1877
H82 H -0.0670 0.0806 0.1696
C113 C 0.0116(7) -0.1083(5) 0.2018(6)
H83 H 0.0261 -0.1360 0.2181
H84 H -0.0115 -0.0924 0.2247
C114 C 0.4566(6) 0.1183(7) -0.0580(5)
H85 H 0.4781 0.1491 -0.0709
H86 H 0.4871 0.1013 -0.0419
C115 C -0.1475(8) 0.4442(10) -0.0495(7)
H87 H -0.1847 0.4311 -0.0897
H88 H -0.1396 0.4849 -0.0171
H89 H -0.1086 0.4496 -0.0559
C116 C -0.0457(5) 0.4126(6) 0.0267(5)
H90 H -0.0587 0.3731 -0.0115
H91 H -0.0243 0.4496 0.0205
C117 C -0.1612(6) 0.3971(8) -0.0295(7)
H92 H -0.1700 0.3559 -0.0628
H93 H -0.2011 0.3911 -0.0240
C118 C 0.7739(6) 0.1841(6) 0.3358(8)
H94 H 0.7969 0.2265 0.3387
H95 H 0.7774 0.1521 0.3026
O62 O 0.1955(8) 0.1394(8) -0.0394(8)
C119 C 0.2800(7) 0.4686(7) -0.0237(6)
H96 H 0.2980 0.4385 -0.0377
H97 H 0.3173 0.5113 0.0070
C120 C -0.0247(7) 0.1661(6) 0.6137(7)
H98 H -0.0092 0.2119 0.6423
H99 H 0.0026 0.1497 0.6365
C121 C -0.1020(11) 0.1248(12) 0.5940(12)
H100 H -0.1301 0.1361 0.5653
H101 H -0.1155 0.0782 0.5715
C122 C 0.7594(7) 0.3431(7) 0.1709(6)
H102 H 0.7794 0.3904 0.1883
H103 H 0.7166 0.3248 0.1333
C123 C -0.1078(7) 0.4135(8) 0.0301(8)
H104 H -0.1235 0.3832 0.0461
H105 H -0.0961 0.4569 0.0616
C124 C -0.1093(11) 0.0022(11) 0.1857(12)
H106 H -0.1378 -0.0231 0.1392
H107 H -0.0913 -0.0249 0.2000
C125 C -0.0353(9) -0.1478(7) 0.1306(7)
H108 H -0.0143 -0.1687 0.1085
H109 H -0.0452 -0.1190 0.1131
C126 C 0.3205(12) 0.7616(11) 0.0972(12)
H110 H 0.2737 0.7508 0.0753
H111 H 0.3339 0.7692 0.1418
C127 C 0.4262(12) 0.0687(12) -0.2018(11)
H112 H 0.4313 0.0438 -0.2377
H113 H 0.3928 0.0826 -0.2171
H114 H 0.4678 0.1064 -0.1703
C128 C 0.2717(12) 0.5190(12) -0.1023(12)
H115 H 0.3071 0.5085 -0.1065
H116 H 0.2934 0.5619 -0.0651
C129 C 0.2374(9) 0.4734(11) -0.0834(7)
H117 H 0.2138 0.4301 -0.1203
H118 H 0.2041 0.4852 -0.0750
C130 C -0.1495(12) 0.0143(11) 0.2160(12)
H119 H -0.1746 0.0310 0.1915
H120 H -0.1178 0.0517 0.2580
C131 C 0.1293(11) 0.7272(12) 0.1821(12)
H121 H 0.1391 0.7232 0.1458
H122 H 0.1221 0.7659 0.1960
C132 C -0.1360(12) -0.2490(11) 0.0440(11)
H123 H -0.1774 -0.2831 0.0334
H124 H -0.1447 -0.2261 0.0191
H125 H -0.1079 -0.2679 0.0340
C133 C -0.1004(9) -0.2002(7) 0.1180(10)
H126 H -0.1281 -0.1805 0.1289
H127 H -0.0912 -0.2225 0.1440
C134 C 0.4061(12) 0.0290(12) -0.1724(11)
H128 H 0.4395 0.0143 -0.1581
H129 H 0.3646 -0.0094 -0.2049
O63 O 0.5425(8) 0.4888(8) 0.0431(9)
C135 C 0.7740(12) 0.1231(12) 0.3974(12)
H130 H 0.7770 0.1330 0.4402
H131 H 0.7277 0.1088 0.3683
C136 C 0.7863(13) 0.0688(12) 0.3786(12)
H132 H 0.8339 0.0854 0.4044
H133 H 0.7789 0.0573 0.3342
C137 C 0.7565(12) 0.0062(12) 0.3785(12)
H134 H 0.7757 -0.0213 0.3626
H135 H 0.7650 0.0136 0.4220
H136 H 0.7093 -0.0149 0.3508
C138 C -0.1092(12) 0.1404(12) 0.6529(11)
H137 H -0.1549 0.1163 0.6422
H138 H -0.0814 0.1288 0.6810
H139 H -0.0960 0.1865 0.6748
C139 C 0.8122(12) 0.1860(12) 0.4009(12)
H140 H 0.8566 0.1915 0.4077
H141 H 0.8161 0.2221 0.4366
C140 C 0.8046(12) 0.3168(13) 0.1508(12)
H142 H 0.8425 0.3522 0.1565
H143 H 0.7803 0.2847 0.1052
C141 C -0.2013(12) -0.0286(12) 0.2316(12)
H144 H -0.1838 -0.0134 0.2781
H145 H -0.2430 -0.0257 0.2154
C142 C -0.2116(12) -0.0950(12) 0.1997(12)
H146 H -0.2428 -0.1228 0.2079
H147 H -0.2289 -0.1094 0.1537
H148 H -0.1700 -0.0971 0.2161
C143 C 0.8949(12) 0.2823(13) 0.2192(12)
H149 H 0.9139 0.2816 0.1894
H150 H 0.9261 0.3206 0.2606
C144 C 0.8842(12) 0.2261(12) 0.2271(12)
H151 H 0.9257 0.2240 0.2440
H152 H 0.8658 0.2272 0.2570
H153 H 0.8536 0.1883 0.1859
C145 C 0.3410(12) 0.7083(11) 0.0568(11)
H154 H 0.3022 0.6675 0.0237
H155 H 0.3666 0.7259 0.0372
C146 C -0.0010(11) 0.6544(13) 0.1673(12)
H156 H -0.0083 0.6220 0.1830
H157 H 0.0116 0.6954 0.2034
C147 C -0.0650(11) 0.6384(12) 0.1219(12)
H158 H -0.0937 0.6373 0.1422
H159 H -0.0625 0.6707 0.1066
H160 H -0.0826 0.5962 0.0859
C148 C 0.3806(11) 0.7009(13) 0.1095(10)
H161 H 0.4228 0.7400 0.1367
H162 H 0.3899 0.6643 0.0922
C149 C 0.3967(11) 0.0644(11) -0.1150(10)
H163 H 0.3653 0.0813 -0.1292
H164 H 0.3766 0.0327 -0.1021
C150 C 0.1900(11) 0.7327(10) 0.2412(11)
H165 H 0.2326 0.7548 0.2429
H166 H 0.1914 0.7551 0.2827
C151 C 0.0641(10) 0.6628(11) 0.1610(12)
H167 H 0.0487 0.6366 0.1150
H168 H 0.0815 0.6396 0.1824
C152 C 0.3676(12) 0.8191(11) 0.0906(12)
H169 H 0.3696 0.8605 0.1160
H170 H 0.4124 0.8227 0.1057
C153 C 0.2400(12) 0.5279(13) -0.1603(12)
H171 H 0.2166 0.4864 -0.1994
H172 H 0.2737 0.5582 -0.1646
C154 C 0.1894(11) 0.5557(12) -0.1506(12)
H173 H 0.1684 0.5618 -0.1875
H174 H 0.1561 0.5252 -0.1466
H175 H 0.2130 0.5969 -0.1119
C155 C 0.8282(12) 0.2855(12) 0.1921(12)
H176 H 0.7949 0.2402 0.1681
H177 H 0.8223 0.3045 0.2301
C156 C 0.3372(18) 0.8013(18) 0.0188(15)
H178 H 0.3639 0.8347 0.0121
H179 H 0.3355 0.7601 -0.0056
H180 H 0.2929 0.7978 0.0045
O64 O 0.2765(3) 0.4668(4) 0.5229(4)
Mg1A Mg 0.53556(8) 0.79266(8) 0.43709(8)
Mg2A Mg 0.59677(9) 0.23100(8) 0.50948(8)
Mg3A Mg 0.58067(8) 0.85789(8) 0.61260(8)
Mg4A Mg 0.41732(9) 0.35235(8) 0.69981(9)
Mg5A Mg 0.49334(9) 0.53033(8) 0.80478(9)
Mg6A Mg 0.86563(9) 0.59582(9) 0.66151(9)
Mg7A Mg 0.21776(9) 0.58481(9) 0.44475(9)
Mg8A Mg 0.67935(9) 0.71066(9) 0.85000(10)
Mg9A Mg 0.80919(9) 0.73199(9) 0.79688(10)
Mg10A Mg 0.81576(10) 0.53069(8) 0.48640(9)
Mg11A Mg 0.70748(9) 0.82383(9) 0.77881(10)
Mg12A Mg 0.31693(9) 0.44441(8) 0.68420(10)
O1A O 0.62455(17) 0.81530(16) 0.43755(16)
O2A O 0.64852(17) 0.73918(16) 0.36762(17)
O3A O 0.59195(17) 0.83658(17) 0.53252(17)
O4A O 0.57676(17) 0.87758(17) 0.69765(17)
O5A O 0.26236(18) 0.67279(17) 0.52225(18)
O6A O 0.84333(17) 0.61224(16) 0.47508(17)
O7A O 0.68140(17) 0.89864(17) 0.65618(17)
O8A O 0.51700(17) 0.25414(18) 0.66009(17)
O9A O 0.49272(18) 0.32963(17) 0.73068(17)
O10A O 0.35546(17) 0.76840(17) 0.54546(17)
O11A O 0.64196(18) 0.85971(17) 0.78322(18)
O12A O 0.77224(17) 0.62455(16) 0.38795(18)
O13A O 0.74554(18) 0.87616(18) 0.73959(19)
O14A O 0.87047(18) 0.76267(18) 0.7614(2)
O15A O 0.48292(17) 0.81669(18) 0.57638(17)
O16A O 0.85273(19) 0.59460(17) 0.57774(18)
O17A O 0.55505(17) 0.23647(17) 0.56835(17)
O18A O 0.77824(19) 0.37979(18) 0.61846(18)
O19A O 0.58800(18) 0.55223(17) 0.86065(19)
O20A O 0.68087(18) 0.28456(19) 0.59451(18)
O21A O 0.50928(18) 0.62338(17) 0.84767(18)
O22A O 0.8260(2) 0.50019(18) 0.63552(18)
O23A O 0.22183(18) 0.52958(16) 0.60848(18)
O24A O 0.60368(19) 0.71540(18) 0.86852(19)
O25A O 0.90230(19) 0.69340(17) 0.69321(18)
O26A O 0.65940(17) 0.62984(16) 0.33563(19)
O27A O 0.28659(19) 0.51507(17) 0.69810(19)
O28A O 0.40207(18) 0.51668(17) 0.75477(19)
O29A O 0.48528(17) 0.44098(17) 0.76728(19)
O30A O 0.68360(18) 0.64458(19) 0.88327(19)
O31A O 0.6684(2) 0.7742(2) 0.8185(2)
O32A O 0.84866(19) 0.6744(2) 0.8200(2)
O33A O 0.2199(2) 0.55408(17) 0.51076(18)
O34A O 0.8754(2) 0.60250(19) 0.74823(18)
O35A O 0.7521(2) 0.6999(2) 0.8346(2)
O36A O 0.7740(2) 0.7907(2) 0.7714(2)
O37A O 0.3886(2) 0.3362(2) 0.7670(2)
O38A O 0.5388(2) 0.8789(2) 0.4370(2)
O39A O 0.6014(2) 0.1473(2) 0.5078(2)
O40A O 0.9046(2) 0.5274(2) 0.4992(2)
O41A O 0.1266(2) 0.5850(2) 0.4293(3)
O42A O 0.5841(3) 0.9468(2) 0.6200(2)
O43A O 0.9611(2) 0.6063(3) 0.6885(3)
O44A O 0.7785(3) 0.8985(3) 0.8713(2)
C1A C 0.5130(2) 0.8581(2) 0.6871(3)
C2A C 0.7082(2) 0.7429(2) 0.3958(2)
C3A C 0.6551(2) 0.8597(2) 0.5471(2)
C4A C 0.7037(3) 0.8931(2) 0.6110(2)
C5A C 0.7130(2) 0.6848(2) 0.3788(3)
O45A O 0.8766(3) 0.8096(2) 0.8885(3)
C6A C 0.6740(2) 0.8501(2) 0.4986(2)
C7A C 0.4953(3) 0.8690(2) 0.7360(2)
C8A C 0.7732(2) 0.6836(2) 0.4064(3)
C9A C 0.2627(2) 0.6661(2) 0.5746(3)
C10A C 0.8725(2) 0.6657(2) 0.5326(3)
C11A C 0.3983(2) 0.8014(2) 0.6085(3)
O46A O 0.5835(3) 0.3168(2) 0.5098(3)
C12A C 0.8760(2) 0.6552(2) 0.5850(3)
C13A C 0.4656(3) 0.8263(2) 0.6238(2)
C14A C 0.7403(2) 0.8760(2) 0.5129(2)
O47A O 0.2909(3) 0.4260(3) 0.7515(3)
C15A C 0.5833(3) 0.2768(3) 0.6790(3)
C16A C 0.7698(2) 0.9184(2) 0.6270(2)
C17A C 0.6016(2) 0.2681(2) 0.6300(2)
C18A C 0.8626(2) 0.8088(2) 0.7463(3)
C19A C 0.3862(3) 0.6846(2) 0.8181(2)
H1A H 0.3828 0.7236 0.8330
C20A C 0.5629(3) 0.8539(2) 0.8249(2)
C21A C 0.3370(3) 0.5723(2) 0.7468(3)
C22A C 0.5892(3) 0.7609(2) 0.8570(2)
C23A C 0.9017(2) 0.8429(2) 0.7254(2)
C24A C 0.4513(3) 0.6281(2) 0.8244(2)
C25A C 0.7864(2) 0.9090(2) 0.5774(3)
H2A H 0.8314 0.9259 0.5878
C26A C 0.2641(2) 0.6436(2) 0.6792(3)
C27A C 0.3973(3) 0.5717(2) 0.7753(3)
C28A C 0.2840(2) 0.7181(2) 0.6335(3)
O48A O 0.3078(3) 0.5753(3) 0.4589(3)
C29A C 0.4465(3) 0.6855(2) 0.8470(2)
C30A C 0.6228(3) 0.7904(2) 0.8291(2)
C31A C 0.7975(2) 0.8686(2) 0.7346(2)
C32A C 0.7648(2) 0.8010(2) 0.4409(2)
C33A C 0.4295(3) 0.8459(2) 0.7197(3)
H3A H 0.4173 0.8531 0.7530
C34A C 0.5470(3) 0.3823(3) 0.7811(2)
C35A C 0.9034(2) 0.7076(2) 0.6446(3)
C36A C 0.8936(2) 0.7380(2) 0.4807(3)
H4A H 0.8907 0.6984 0.4494
C37A C 0.8986(2) 0.7282(2) 0.5393(3)
C38A C 0.3806(3) 0.8128(2) 0.6574(3)
C39A C 0.5957(3) 0.4970(2) 0.8486(2)
C40A C 0.7163(3) 0.3230(3) 0.7073(3)
C41A C 0.3303(3) 0.6294(2) 0.7684(3)
C42A C 0.5427(3) 0.4405(3) 0.7993(3)
C43A C 0.6298(3) 0.3070(3) 0.7418(2)
C44A C 0.6092(3) 0.8355(2) 0.8125(2)
C45A C 0.8302(3) 0.4908(3) 0.6861(3)
C46A C 0.6049(3) 0.3802(3) 0.8148(2)
C47A C 0.2413(3) 0.6033(3) 0.5672(3)
C48A C 0.9294(2) 0.7713(2) 0.6534(3)
O49A O 0.4762(4) 0.5225(3) 0.8813(3)
C49A C 0.6677(3) 0.2923(3) 0.6448(3)
C50A C 0.2423(3) 0.5925(2) 0.6197(3)
C51A C 0.8098(3) 0.8215(3) 0.7507(3)
C52A C 0.8364(2) 0.9029(2) 0.7153(2)
C53A C 0.8292(2) 0.7402(2) 0.4499(3)
C54A C 0.5440(3) 0.7794(2) 0.8701(2)
C55A C 0.8066(2) 0.4280(3) 0.6792(3)
C56A C 0.5314(3) 0.8253(2) 0.8533(2)
H5A H 0.4999 0.8374 0.8617
C57A C 0.6574(3) 0.4385(3) 0.8644(2)
H6A H 0.6972 0.4380 0.8866
C58A C 0.8383(3) 0.6069(3) 0.8732(2)
C59A C 0.2842(2) 0.7049(2) 0.6836(3)
H7A H 0.2989 0.7400 0.7236
C60A C 0.8134(2) 0.4181(3) 0.7324(3)
C61A C 0.8234(2) 0.7974(2) 0.4667(2)
H8A H 0.8615 0.8362 0.4974
C62A C 0.7593(3) 0.8636(2) 0.4599(3)
H9A H 0.7226 0.8580 0.4221
C63A C 0.6548(3) 0.4967(3) 0.8829(2)
C64A C 0.7685(3) 0.6604(3) 0.8561(3)
C65A C 0.7342(3) 0.6310(3) 0.8828(2)
C66A C 0.5489(3) 0.9035(2) 0.8058(2)
H10A H 0.5896 0.9316 0.8074
C67A C 0.9262(2) 0.7793(2) 0.5996(3)
H11A H 0.9436 0.8217 0.6045
C68A C 0.8208(3) 0.9212(2) 0.4756(3)
H12A H 0.8583 0.9281 0.5128
H13A H 0.8138 0.9602 0.4877
C69A C 0.8198(3) 0.6469(3) 0.8495(3)
C70A C 0.8867(2) 0.8884(2) 0.7109(2)
H14A H 0.9130 0.9116 0.6969
C71A C 0.6083(3) 0.3179(3) 0.7950(2)
H15A H 0.5629 0.2835 0.7758
C72A C 0.8208(3) 0.9517(2) 0.6965(3)
H16A H 0.7996 0.9681 0.7220
C73A C 0.2662(3) 0.6301(2) 0.7348(3)
H17A H 0.2312 0.5857 0.7163
C74A C 0.8036(3) 0.5801(3) 0.9008(2)
H18A H 0.8159 0.5530 0.9167
C75A C 0.9536(3) 0.7939(3) 0.4935(3)
H19A H 0.9934 0.7914 0.5180
H20A H 0.9552 0.8347 0.5200
C76A C 0.6951(3) 0.3292(3) 0.7555(3)
H21A H 0.7272 0.3495 0.7988
C77A C 0.8572(2) 0.5443(3) 0.7467(3)
O50A O 0.4467(4) 0.3803(3) 0.6334(3)
C78A C 0.5068(3) 0.7462(2) 0.8992(2)
H22A H 0.5361 0.7320 0.9235
C79A C 0.7874(3) 0.3493(3) 0.7237(3)
H23A H 0.7899 0.3229 0.6854
C80A C 0.8639(2) 0.5337(3) 0.7992(3)
C81A C 0.3081(3) 0.7857(3) 0.6401(3)
H24A H 0.2844 0.7819 0.5970
O51A O 0.7391(3) 0.7818(3) 0.9488(3)
O52A O 0.5302(3) 0.7035(3) 0.4419(3)
C82A C 0.9563(2) 0.8269(2) 0.7182(3)
H25A H 0.9715 0.8117 0.7503
C83A C 0.7526(3) 0.5909(3) 0.9061(2)
O53A O 0.6331(4) 0.7384(3) 0.6884(3)
C84A C 0.5328(3) 0.9475(2) 0.8519(3)
H26A H 0.4926 0.9210 0.8514
H27A H 0.5238 0.9779 0.8363
C85A C 0.8376(3) 0.9126(3) 0.4209(3)
H28A H 0.8498 0.8767 0.4120
H29A H 0.7987 0.9011 0.3822
C86A C 0.8929(3) 0.5922(3) 0.8642(3)
H30A H 0.9218 0.6297 0.8624
O54A O 0.5761(4) 0.7651(4) 0.6028(4)
C87A C 0.8417(3) 0.4710(3) 0.7908(3)
H31A H 0.8462 0.4643 0.8271
C88A C 0.2498(3) 0.6749(3) 0.7798(3)
H32A H 0.2093 0.6755 0.7538
H33A H 0.2854 0.7191 0.8015
O55A O 0.7316(3) 0.6529(3) 0.7074(3)
C89A C 0.6515(4) 0.3102(3) 0.8510(3)
H34A H 0.6936 0.3494 0.8780
H35A H 0.6608 0.2736 0.8336
C90A C 0.7133(3) 0.5603(3) 0.9349(2)
H36A H 0.6955 0.5898 0.9522
O56A O 0.5112(4) 0.5401(4) 0.7277(4)
C91A C 1.0162(3) 0.8862(3) 0.7339(3)
H37A H 1.0018 0.9051 0.7056
H38A H 1.0477 0.8720 0.7243
C92A C 0.5859(4) 0.9846(3) 0.9183(3)
H39A H 0.5912 0.9545 0.9358
H40A H 0.6273 1.0071 0.9183
C93A C 0.8815(3) 1.0109(2) 0.7137(3)
H41A H 0.8670 1.0388 0.6978
H42A H 0.9057 0.9964 0.6916
O57A O 0.7635(3) 0.5826(4) 0.6293(4)
C94A C 0.8301(3) 0.3421(3) 0.7793(3)
H43A H 0.8767 0.3649 0.7907
H44A H 0.8239 0.3614 0.8170
O58A O 0.6157(3) 0.6376(3) 0.7499(3)
O59A O 0.3534(4) 0.4687(4) 0.6225(3)
C95A C 0.2920(3) 0.8300(3) 0.6856(3)
H45A H 0.3164 0.8746 0.6941
H46A H 0.3081 0.8284 0.7266
C96A C 0.4946(3) 0.7912(3) 0.9479(3)
H47A H 0.4690 0.7659 0.9630
H48A H 0.4676 0.8085 0.9262
C97A C 0.9362(3) 0.5852(4) 0.9193(3)
H49A H 0.9109 0.5446 0.9183
H50A H 0.9481 0.6209 0.9601
C98A C 0.7554(4) 0.5528(3) 0.9910(3)
H51A H 0.7940 0.5945 1.0220
H52A H 0.7713 0.5215 0.9747
C99A C 0.9535(4) 0.7941(3) 0.4328(4)
H53A H 0.9426 0.7504 0.4025
H54A H 0.9194 0.8059 0.4130
C100A C 0.8942(3) 0.9736(3) 0.4357(4)
H55A H 0.9289 0.9905 0.4794
H56A H 0.8783 1.0063 0.4352
O60A O 0.8185(4) 0.8545(4) 0.9600(3)
N1A N 0.7836(5) 0.8253(4) 0.9795(4)
O61A O 0.3886(4) 0.4406(3) 0.8537(4)
C101A C 0.5726(5) 1.0339(4) 0.9617(4)
H57A H 0.5264 1.0135 0.9525
H58A H 0.5787 1.0699 0.9508
C102A C 0.9273(4) 1.0499(3) 0.7842(4)
H59A H 0.9039 1.0657 0.8066
H60A H 0.9418 1.0223 0.8007
C103A C 0.9225(4) 0.9653(3) 0.3925(4)
H61A H 0.9405 0.9342 0.3948
H62A H 0.8873 0.9461 0.3486
C104A C 0.9770(4) 1.0269(4) 0.4050(4)
H63A H 1.0096 1.0491 0.4505
H64A H 0.9578 1.0556 0.3971
N2A N 0.4475(6) 0.4918(5) 0.8936(4)
C105A C 0.5551(5) 0.8464(4) 1.0047(4)
H65A H 0.5757 0.8770 0.9910
H66A H 0.5864 0.8301 1.0209
C106A C 1.0109(5) 1.0168(5) 0.3661(5)
H67A H 1.0445 1.0582 0.3771
H68A H 0.9795 0.9960 0.3209
H69A H 1.0314 0.9894 0.3744
C107A C 0.5988(6) 1.1087(5) 1.0720(5)
H70A H 0.5514 1.0888 1.0590
H71A H 0.6086 1.1464 1.0637
C108A C 1.0194(5) 0.8410(5) 0.4451(5)
H72A H 1.0543 0.8343 0.4721
H73A H 1.0264 0.8853 0.4690
C109A C 0.9964(5) 0.5851(6) 0.9168(5)
H74A H 0.9839 0.5460 0.8786
H75A H 1.0176 0.6225 0.9111
C110A C 0.6142(6) 1.0599(4) 1.0301(4)
H76A H 0.6085 1.0240 1.0412
H77A H 0.6605 1.0810 1.0397
C111A C 0.6332(5) 1.1299(4) 1.1374(5)
H78A H 0.6207 1.1606 1.1605
H79A H 0.6802 1.1509 1.1512
H80A H 0.6229 1.0932 1.1465
C112A C 1.0504(5) 0.9373(4) 0.8019(5)
H81A H 1.0188 0.9507 0.8123
H82A H 1.0670 0.9194 0.8304
C113A C 0.9884(7) 1.1083(5) 0.7982(6)
H83A H 0.9739 1.1360 0.7819
H84A H 1.0115 1.0924 0.7753
C114A C 0.5434(6) 0.8817(7) 1.0580(5)
H85A H 0.5219 0.8509 1.0709
H86A H 0.5129 0.8987 1.0419
C115A C 1.1475(8) 0.5558(10) 1.0495(7)
H87A H 1.1847 0.5689 1.0897
H88A H 1.1396 0.5151 1.0171
H89A H 1.1086 0.5504 1.0559
C116A C 1.0457(5) 0.5874(6) 0.9733(5)
H90A H 1.0587 0.6269 1.0115
H91A H 1.0243 0.5504 0.9795
C117A C 1.1612(6) 0.6029(8) 1.0295(7)
H92A H 1.1700 0.6441 1.0628
H93A H 1.2011 0.6089 1.0240
C118A C 0.2261(6) 0.8159(6) 0.6642(8)
H94A H 0.2031 0.7735 0.6613
H95A H 0.2226 0.8479 0.6974
O62A O 0.8045(8) 0.8606(8) 1.0394(8)
C119A C 0.7200(7) 0.5314(7) 1.0237(6)
H96A H 0.7020 0.5615 1.0377
H97A H 0.6827 0.4887 0.9930
C120A C 1.0247(7) 0.8339(6) 0.3863(7)
H98A H 1.0092 0.7881 0.3577
H99A H 0.9974 0.8503 0.3635
C121A C 1.1020(11) 0.8752(12) 0.4060(12)
H100A H 1.1301 0.8639 0.4347
H101A H 1.1155 0.9218 0.4285
C122A C 0.2406(7) 0.6569(7) 0.8291(6)
H102A H 0.2206 0.6096 0.8117
H103A H 0.2834 0.6752 0.8667
C123A C 1.1078(7) 0.5865(8) 0.9699(8)
H104A H 1.1235 0.6168 0.9539
H105A H 1.0961 0.5431 0.9384
C124A C 1.1093(11) 0.9978(11) 0.8143(12)
H106A H 1.1378 1.0231 0.8608
H107A H 1.0913 1.0249 0.8000
C125A C 1.0353(9) 1.1478(7) 0.8694(7)
H108A H 1.0143 1.1687 0.8915
H109A H 1.0452 1.1190 0.8869
C126A C 0.6795(12) 0.2384(11) 0.9028(12)
H110A H 0.7263 0.2492 0.9247
H111A H 0.6661 0.2308 0.8582
C127A C 0.5738(12) 0.9313(12) 1.2018(11)
H112A H 0.5687 0.9562 1.2377
H113A H 0.6072 0.9174 1.2171
H114A H 0.5322 0.8936 1.1703
C128A C 0.7283(12) 0.4810(12) 1.1023(12)
H115A H 0.6929 0.4915 1.1065
H116A H 0.7066 0.4381 1.0651
C129A C 0.7626(9) 0.5266(11) 1.0834(7)
H117A H 0.7862 0.5699 1.1203
H118A H 0.7959 0.5148 1.0750
C130A C 1.1495(12) 0.9857(11) 0.7840(12)
H119A H 1.1746 0.9690 0.8085
H120A H 1.1178 0.9483 0.7420
C131A C 0.8707(11) 0.2728(12) 0.8179(12)
H121A H 0.8609 0.2768 0.8542
H122A H 0.8779 0.2341 0.8040
C132A C 1.1360(12) 1.2490(11) 0.9560(11)
H123A H 1.1774 1.2831 0.9666
H124A H 1.1447 1.2261 0.9809
H125A H 1.1079 1.2679 0.9660
C133A C 1.1004(9) 1.2002(7) 0.8820(10)
H126A H 1.1281 1.1805 0.8711
H127A H 1.0912 1.2225 0.8560
C134A C 0.5939(12) 0.9710(12) 1.1724(11)
H128A H 0.5605 0.9857 1.1581
H129A H 0.6354 1.0094 1.2049
O63A O 0.4575(8) 0.5112(8) 0.9569(9)
C135A C 0.2260(12) 0.8769(12) 0.6026(12)
H130A H 0.2230 0.8670 0.5598
H131A H 0.2723 0.8912 0.6317
C136A C 0.2137(13) 0.9312(12) 0.6214(12)
H132A H 0.1661 0.9146 0.5956
H133A H 0.2211 0.9427 0.6658
C137A C 0.2435(12) 0.9938(12) 0.6215(12)
H134A H 0.2243 1.0213 0.6374
H135A H 0.2350 0.9864 0.5780
H136A H 0.2907 1.0149 0.6492
C138A C 1.1092(12) 0.8596(12) 0.3471(11)
H137A H 1.1549 0.8837 0.3578
H138A H 1.0814 0.8712 0.3190
H139A H 1.0960 0.8135 0.3252
C139A C 0.1878(12) 0.8140(12) 0.5991(12)
H140A H 0.1434 0.8085 0.5923
H141A H 0.1839 0.7779 0.5634
C140A C 0.1954(12) 0.6832(13) 0.8492(12)
H142A H 0.1575 0.6478 0.8435
H143A H 0.2197 0.7153 0.8948
C141A C 1.2013(12) 1.0286(12) 0.7684(12)
H144A H 1.1838 1.0134 0.7219
H145A H 1.2430 1.0257 0.7846
C142A C 1.2116(12) 1.0950(12) 0.8003(12)
H146A H 1.2428 1.1228 0.7921
H147A H 1.2289 1.1094 0.8463
H148A H 1.1700 1.0971 0.7839
C143A C 0.1051(12) 0.7177(13) 0.7808(12)
H149A H 0.0861 0.7184 0.8106
H150A H 0.0739 0.6794 0.7394
C144A C 0.1158(12) 0.7739(12) 0.7729(12)
H151A H 0.0743 0.7760 0.7560
H152A H 0.1342 0.7728 0.7430
H153A H 0.1464 0.8117 0.8141
C145A C 0.6590(12) 0.2917(11) 0.9432(11)
H154A H 0.6978 0.3325 0.9763
H155A H 0.6334 0.2741 0.9628
C146A C 1.0010(11) 0.3456(13) 0.8327(12)
H156A H 1.0083 0.3780 0.8170
H157A H 0.9884 0.3046 0.7966
C147A C 1.0650(11) 0.3616(12) 0.8781(12)
H158A H 1.0937 0.3627 0.8578
H159A H 1.0625 0.3293 0.8934
H160A H 1.0826 0.4038 0.9141
C148A C 0.6194(11) 0.2991(13) 0.8905(10)
H161A H 0.5772 0.2600 0.8633
H162A H 0.6101 0.3357 0.9078
C149A C 0.6033(11) 0.9356(11) 1.1150(10)
H163A H 0.6347 0.9187 1.1292
H164A H 0.6234 0.9673 1.1021
C150A C 0.8100(11) 0.2673(10) 0.7588(11)
H165A H 0.7674 0.2452 0.7571
H166A H 0.8086 0.2449 0.7173
C151A C 0.9359(10) 0.3372(11) 0.8390(12)
H167A H 0.9513 0.3634 0.8850
H168A H 0.9185 0.3604 0.8176
C152A C 0.6324(12) 0.1809(11) 0.9094(12)
H169A H 0.6304 0.1395 0.8840
H170A H 0.5876 0.1773 0.8943
C153A C 0.7600(12) 0.4721(13) 1.1603(12)
H171A H 0.7834 0.5136 1.1994
H172A H 0.7263 0.4418 1.1646
C154A C 0.8106(11) 0.4443(12) 1.1506(12)
H173A H 0.8316 0.4382 1.1875
H174A H 0.8439 0.4748 1.1466
H175A H 0.7870 0.4031 1.1119
C155A C 0.1718(12) 0.7145(12) 0.8079(12)
H176A H 0.2051 0.7598 0.8319
H177A H 0.1777 0.6955 0.7699
C156A C 0.6628(18) 0.1987(18) 0.9812(15)
H178A H 0.6361 0.1653 0.9879
H179A H 0.6645 0.2399 1.0056
H180A H 0.7071 0.2022 0.9955
O64A O 0.7235(3) 0.5332(4) 0.4771(4)
C157 C 0.3510(6) 0.3045(5) 0.0027(4)
H181 H 0.3529 0.2972 0.0382
C158 C 0.3884(5) 0.3618(5) 0.0126(4)
H182 H 0.4216 0.3919 0.0546
C159 C 0.3820(12) 0.3801(12) -0.0343(11)
H183 H 0.4094 0.4224 -0.0246
N3 N 0.3110(8) 0.2571(9) -0.0553(8)
H184 H 0.2913 0.2173 -0.0624
C160 C 0.3345(11) 0.3358(12) -0.0971(12)
H185 H 0.3259 0.3470 -0.1309
C161 C 0.3014(11) 0.2747(12) -0.1061(11)
H186 H 0.2704 0.2424 -0.1482
C162 C 0.8909(4) 0.3597(5) 0.4266(5)
H187 H 0.8583 0.3726 0.4109
C163 C 0.9660(4) 0.3190(5) 0.4101(5)
H188 H 0.9847 0.3027 0.3845
N4 N 0.9028(5) 0.3575(7) 0.4780(7)
C164 C 0.9232(6) 0.3440(8) 0.3909(8)
H189 H 0.9160 0.3503 0.3541
C165 C 0.9808(10) 0.3189(10) 0.4703(10)
H190 H 1.0126 0.3057 0.4876
C166 C 0.9476(6) 0.3386(7) 0.5034(8)
H191 H 0.9565 0.3387 0.5434
C167 C 0.4755(7) 0.6056(9) 0.0823(6)
H192 H 0.4661 0.5774 0.1003
C168 C 0.4637(11) 0.6254(12) -0.0081(11)
H193 H 0.4435 0.6107 -0.0528
C169 C 0.5482(12) 0.7102(11) 0.1027(12)
H194 H 0.5882 0.7480 0.1301
N5 N 0.4465(9) 0.5821(10) 0.0199(9)
H195 H 0.4175 0.5416 -0.0045
C170 C 0.5118(11) 0.6899(12) 0.0346(12)
H196 H 0.5203 0.7201 0.0187
C171 C 0.5196(12) 0.6699(11) 0.1233(11)
H197 H 0.5301 0.6864 0.1672
loop_
_geom_bond_atom_site_label_1
_geom_bond_atom_site_label_2
_geom_bond_site_symmetry_1
_geom_bond_site_symmetry_2
Mg1 O1 1_555 1_555
Mg2 O17 1_555 1_555
Mg3 O3 1_555 1_555
Mg4 O9 1_555 1_555
Mg5 O19 1_555 1_555
Mg6 O16 1_555 1_555
Mg7 O5 1_555 1_555
Mg8 O24 1_555 1_555
Mg9 O14 1_555 1_555
Mg10 O6 1_555 1_555
Mg11 O11 1_555 1_555
Mg12 O27 1_555 1_555
O1 C6 1_555 1_555
O2 C2 1_555 1_555
O3 Mg1 1_555 1_555
O4 Mg3 1_555 1_555
O5 C9 1_555 1_555
O6 C10 1_555 1_555
O7 Mg3 1_555 1_555
O8 C15 1_555 1_555
O9 C34 1_555 1_555
O10 C11 1_555 1_555
O11 C44 1_555 1_555
O12 C8 1_555 1_555
O13 Mg11 1_555 1_555
O14 C18 1_555 1_555
O15 Mg3 1_555 1_555
O16 Mg10 1_555 1_555
O17 C17 1_555 1_555
O18 C55 1_555 1_555
O19 C39 1_555 1_555
O20 Mg2 1_555 1_555
O21 Mg5 1_555 1_555
O22 Mg6 1_555 1_555
O23 C50 1_555 1_555
O24 C22 1_555 1_555
O25 Mg6 1_555 1_555
O26 C5 1_555 1_555
O27 C21 1_555 1_555
O28 Mg5 1_555 1_555
O29 Mg4 1_555 1_555
O30 Mg8 1_555 1_555
O31 Mg8 1_555 1_555
O32 Mg9 1_555 1_555
O33 Mg7 1_555 1_555
O34 Mg6 1_555 1_555
O35 Mg8 1_555 1_555
O36 Mg9 1_555 1_555
O37 Mg4 1_555 1_555
O38 Mg1 1_555 1_555
O39 Mg2 1_555 1_555
O40 Mg10 1_555 1_555
O41 Mg7 1_555 1_555
O42 Mg3 1_555 1_555
O43 Mg6 1_555 1_555
O44 Mg11 1_555 1_555
C1 O4 1_555 1_555
C2 C5 1_555 1_555
C3 O3 1_555 1_555
C4 O7 1_555 1_555
C5 C8 1_555 1_555
O45 Mg9 1_555 1_555
C6 C3 1_555 1_555
C7 C1 1_555 1_555
C8 C53 1_555 1_555
C9 C28 1_555 1_555
C10 C12 1_555 1_555
C11 C13 1_555 1_555
O46 Mg2 1_555 1_555
C12 O16 1_555 1_555
C13 O15 1_555 1_555
C14 C6 1_555 1_555
O47 Mg12 1_555 1_555
C15 C17 1_555 1_555
C16 C4 1_555 1_555
C17 C49 1_555 1_555
C18 C23 1_555 1_555
C19 H1 1_555 1_555
C20 C44 1_555 1_555
C21 C27 1_555 1_555
C22 C30 1_555 1_555
C23 C70 1_555 1_555
C24 O21 1_555 1_555
C25 C14 1_555 1_555
H2 C25 1_555 1_555
C26 C50 1_555 1_555
C27 O28 1_555 1_555
C28 C59 1_555 1_555
O48 Mg7 1_555 1_555
C29 C19 1_555 1_555
C30 O31 1_555 1_555
C31 O13 1_555 1_555
C32 C2 1_555 1_555
C33 C7 1_555 1_555
H3 C33 1_555 1_555
C34 C42 1_555 1_555
C35 O25 1_555 1_555
C36 H4 1_555 1_555
C37 C10 1_555 1_555
C38 C11 1_555 1_555
C39 C42 1_555 1_555
C40 C49 1_555 1_555
C41 C19 1_555 1_555
C42 O29 1_555 1_555
C43 C15 1_555 1_555
C44 C30 1_555 1_555
C45 O22 1_555 1_555
C46 C34 1_555 1_555
C47 O33 1_555 1_555
C48 C35 1_555 1_555
O49 Mg5 1_555 1_555
C49 O20 1_555 1_555
C50 C47 1_555 1_555
C51 O36 1_555 1_555
C52 C31 1_555 1_555
C53 C36 1_555 1_555
C54 C22 1_555 1_555
C55 C45 1_555 1_555
C56 C20 1_555 1_555
H5 C56 1_555 1_555
C57 C46 1_555 1_555
H6 C57 1_555 1_555
C58 C69 1_555 1_555
C59 C26 1_555 1_555
H7 C59 1_555 1_555
C60 C55 1_555 1_555
C61 C32 1_555 1_555
H8 C61 1_555 1_555
C62 C14 1_555 1_555
H9 C62 1_555 1_555
C63 C39 1_555 1_555
C64 O35 1_555 1_555
C65 O30 1_555 1_555
C66 C7 1_555 1_555
H10 C66 1_555 1_555
C67 C37 1_555 1_555
H11 C67 1_555 1_555
C68 C62 1_555 1_555
H12 C68 1_555 1_555
H13 C68 1_555 1_555
C69 O32 1_555 1_555
C70 C52 1_555 1_555
H14 C70 1_555 1_555
C71 C43 1_555 1_555
H15 C71 1_555 1_555
C72 C16 1_555 1_555
H16 C72 1_555 1_555
C73 C26 1_555 1_555
H17 C73 1_555 1_555
C74 C58 1_555 1_555
H18 C74 1_555 1_555
C75 C36 1_555 1_555
H19 C75 1_555 1_555
H20 C75 1_555 1_555
C76 C40 1_555 1_555
H21 C76 1_555 1_555
C77 O34 1_555 1_555
O50 Mg4 1_555 1_555
C78 C29 1_555 1_555
H22 C78 1_555 1_555
C79 C40 1_555 1_555
H23 C79 1_555 1_555
C80 C77 1_555 1_555
C81 C28 1_555 1_555
H24 C81 1_555 1_555
O51 Mg8 1_555 1_555
O52 Mg1 1_555 1_555
C82 C23 1_555 1_555
H25 C82 1_555 1_555
C83 C65 1_555 1_555
O53 Mg11 1_555 1_555
C84 C66 1_555 1_555
H26 C84 1_555 1_555
H27 C84 1_555 1_555
C85 C68 1_555 1_555
H28 C85 1_555 1_555
H29 C85 1_555 1_555
C86 C58 1_555 1_555
H30 C86 1_555 1_555
O54 Mg3 1_555 1_555
C87 C60 1_555 1_555
H31 C87 1_555 1_555
C88 C73 1_555 1_555
H32 C88 1_555 1_555
H33 C88 1_555 1_555
O55 Mg9 1_555 1_555
C89 C71 1_555 1_555
H34 C89 1_555 1_555
H35 C89 1_555 1_555
C90 C63 1_555 1_555
H36 C90 1_555 1_555
O56 Mg5 1_555 1_555
C91 C82 1_555 1_555
H37 C91 1_555 1_555
H38 C91 1_555 1_555
C92 C84 1_555 1_555
H39 C92 1_555 1_555
H40 C92 1_555 1_555
C93 C72 1_555 1_555
H41 C93 1_555 1_555
H42 C93 1_555 1_555
O57 Mg6 1_555 1_555
C94 C79 1_555 1_555
H43 C94 1_555 1_555
H44 C94 1_555 1_555
O58 Mg8 1_555 1_555
O59 Mg12 1_555 1_555
C95 C81 1_555 1_555
H45 C95 1_555 1_555
H46 C95 1_555 1_555
C96 C78 1_555 1_555
H47 C96 1_555 1_555
H48 C96 1_555 1_555
C97 C86 1_555 1_555
H49 C97 1_555 1_555
H50 C97 1_555 1_555
C98 C90 1_555 1_555
H51 C98 1_555 1_555
H52 C98 1_555 1_555
C99 C75 1_555 1_555
H53 C99 1_555 1_555
H54 C99 1_555 1_555
C100 C85 1_555 1_555
H55 C100 1_555 1_555
H56 C100 1_555 1_555
O60 N1 1_555 1_555
N1 O51 1_555 1_555
O61 N2 1_555 1_555
C101 C92 1_555 1_555
H57 C101 1_555 1_555
H58 C101 1_555 1_555
C102 C93 1_555 1_555
H59 C102 1_555 1_555
H60 C102 1_555 1_555
C103 C100 1_555 1_555
H61 C103 1_555 1_555
H62 C103 1_555 1_555
C104 C103 1_555 1_555
H63 C104 1_555 1_555
H64 C104 1_555 1_555
N2 O49 1_555 1_555
C105 C96 1_555 1_555
H65 C105 1_555 1_555
H66 C105 1_555 1_555
C106 C104 1_555 1_555
H67 C106 1_555 1_555
H68 C106 1_555 1_555
H69 C106 1_555 1_555
C107 H70 1_555 1_555
H71 C107 1_555 1_555
C108 C99 1_555 1_555
H72 C108 1_555 1_555
H73 C108 1_555 1_555
C109 C97 1_555 1_555
H74 C109 1_555 1_555
H75 C109 1_555 1_555
C110 C101 1_555 1_555
H76 C110 1_555 1_555
H77 C110 1_555 1_555
C111 C107 1_555 1_555
H78 C111 1_555 1_555
H79 C111 1_555 1_555
H80 C111 1_555 1_555
C112 C91 1_555 1_555
H81 C112 1_555 1_555
H82 C112 1_555 1_555
C113 C102 1_555 1_555
H83 C113 1_555 1_555
H84 C113 1_555 1_555
C114 C105 1_555 1_555
H85 C114 1_555 1_555
H86 C114 1_555 1_555
C115 H87 1_555 1_555
H88 C115 1_555 1_555
H89 C115 1_555 1_555
C116 C109 1_555 1_555
H90 C116 1_555 1_555
H91 C116 1_555 1_555
C117 C115 1_555 1_555
H92 C117 1_555 1_555
H93 C117 1_555 1_555
C118 C95 1_555 1_555
H94 C118 1_555 1_555
H95 C118 1_555 1_555
O62 N1 1_555 1_555
C119 C98 1_555 1_555
H96 C119 1_555 1_555
H97 C119 1_555 1_555
C120 C108 1_555 1_555
H98 C120 1_555 1_555
H99 C120 1_555 1_555
C121 C120 1_555 1_555
H100 C121 1_555 1_555
H101 C121 1_555 1_555
C122 C88 1_555 1_555
H102 C122 1_555 1_555
H103 C122 1_555 1_555
C123 C116 1_555 1_555
H104 C123 1_555 1_555
H105 C123 1_555 1_555
C124 C112 1_555 1_555
H106 C124 1_555 1_555
H107 C124 1_555 1_555
C125 C113 1_555 1_555
H108 C125 1_555 1_555
H109 C125 1_555 1_555
C126 H110 1_555 1_555
H111 C126 1_555 1_555
C127 H112 1_555 1_555
H113 C127 1_555 1_555
H114 C127 1_555 1_555
C128 H115 1_555 1_555
H116 C128 1_555 1_555
C129 C119 1_555 1_555
H117 C129 1_555 1_555
H118 C129 1_555 1_555
C130 C124 1_555 1_555
H119 C130 1_555 1_555
H120 C130 1_555 1_555
C131 H121 1_555 1_555
H122 C131 1_555 1_555
C132 H123 1_555 1_555
H124 C132 1_555 1_555
H125 C132 1_555 1_555
C133 C125 1_555 1_555
H126 C133 1_555 1_555
H127 C133 1_555 1_555
C134 C127 1_555 1_555
H128 C134 1_555 1_555
H129 C134 1_555 1_555
O63 N2 1_555 1_555
C135 H130 1_555 1_555
H131 C135 1_555 1_555
C136 C135 1_555 1_555
H132 C136 1_555 1_555
H133 C136 1_555 1_555
C137 C136 1_555 1_555
H134 C137 1_555 1_555
H135 C137 1_555 1_555
H136 C137 1_555 1_555
C138 C121 1_555 1_555
H137 C138 1_555 1_555
H138 C138 1_555 1_555
H139 C138 1_555 1_555
C139 C118 1_555 1_555
H140 C139 1_555 1_555
H141 C139 1_555 1_555
C140 C122 1_555 1_555
H142 C140 1_555 1_555
H143 C140 1_555 1_555
C141 C130 1_555 1_555
H144 C141 1_555 1_555
H145 C141 1_555 1_555
C142 C141 1_555 1_555
H146 C142 1_555 1_555
H147 C142 1_555 1_555
H148 C142 1_555 1_555
C143 H149 1_555 1_555
H150 C143 1_555 1_555
C144 C143 1_555 1_555
H151 C144 1_555 1_555
H152 C144 1_555 1_555
H153 C144 1_555 1_555
C145 C126 1_555 1_555
H154 C145 1_555 1_555
H155 C145 1_555 1_555
C146 H156 1_555 1_555
H157 C146 1_555 1_555
C147 C146 1_555 1_555
H158 C147 1_555 1_555
H159 C147 1_555 1_555
H160 C147 1_555 1_555
C148 C89 1_555 1_555
H161 C148 1_555 1_555
H162 C148 1_555 1_555
C149 C114 1_555 1_555
H163 C149 1_555 1_555
H164 C149 1_555 1_555
C150 C94 1_555 1_555
H165 C150 1_555 1_555
H166 C150 1_555 1_555
C151 C131 1_555 1_555
H167 C151 1_555 1_555
H168 C151 1_555 1_555
C152 C126 1_555 1_555
H169 C152 1_555 1_555
H170 C152 1_555 1_555
C153 C128 1_555 1_555
H171 C153 1_555 1_555
H172 C153 1_555 1_555
C154 C153 1_555 1_555
H173 C154 1_555 1_555
H174 C154 1_555 1_555
H175 C154 1_555 1_555
C155 C140 1_555 1_555
H176 C155 1_555 1_555
H177 C155 1_555 1_555
C156 C152 1_555 1_555
H178 C156 1_555 1_555
H179 C156 1_555 1_555
H180 C156 1_555 1_555
O64 Mg10 1_555 1_555
C157 H181 1_555 1_555
C158 C157 1_555 1_555
H182 C158 1_555 1_555
C159 C158 1_555 1_555
H183 C159 1_555 1_555
N3 C157 1_555 1_555
H184 N3 1_555 1_555
C160 C159 1_555 1_555
H185 C160 1_555 1_555
C161 N3 1_555 1_555
H186 C161 1_555 1_555
C162 H187 1_555 1_555
C163 H188 1_555 1_555
N4 C162 1_555 1_555
C164 C162 1_555 1_555
H189 C164 1_555 1_555
C165 C163 1_555 1_555
H190 C165 1_555 1_555
C166 N4 1_555 1_555
H191 C166 1_555 1_555
C167 H192 1_555 1_555
C168 H193 1_555 1_555
C169 H194 1_555 1_555
N5 C167 1_555 1_555
H195 N5 1_555 1_555
C170 C168 1_555 1_555
H196 C170 1_555 1_555
C171 C167 1_555 1_555
H197 C171 1_555 1_555
Mg1A O8 1_555 1_555
Mg2A O10 1_555 1_555
Mg3A O3A 1_555 1_555
Mg4A O2 1_555 1_555
Mg5A O19A 1_555 1_555
Mg6A O16A 1_555 1_555
Mg7A O18 1_555 1_555
Mg8A O24A 1_555 1_555
Mg9A O14A 1_555 1_555
Mg10A O23 1_555 1_555
Mg11A O11A 1_555 1_555
Mg12A O12 1_555 1_555
O1A Mg1A 1_555 1_555
O2A Mg4 1_555 1_555
O3A Mg1A 1_555 1_555
O4A Mg3A 1_555 1_555
O5A Mg7A 1_555 1_555
O6A Mg10A 1_555 1_555
O7A Mg3A 1_555 1_555
O8A Mg1 1_555 1_555
O9A Mg4A 1_555 1_555
O10A Mg2 1_555 1_555
O11A C44A 1_555 1_555
O12A Mg12 1_555 1_555
O13A Mg11A 1_555 1_555
O14A C18A 1_555 1_555
O15A Mg2 1_555 1_555
O16A Mg10A 1_555 1_555
O17A Mg1 1_555 1_555
O18A Mg7 1_555 1_555
O19A C39A 1_555 1_555
O20A Mg2A 1_555 1_555
O21A Mg5A 1_555 1_555
O22A Mg7 1_555 1_555
O23A Mg10 1_555 1_555
O24A C22A 1_555 1_555
O25A Mg6A 1_555 1_555
O26A Mg4 1_555 1_555
O27A Mg12A 1_555 1_555
O28A Mg5A 1_555 1_555
O29A Mg4A 1_555 1_555
O30A Mg8A 1_555 1_555
O31A Mg8A 1_555 1_555
O32A Mg9A 1_555 1_555
O33A Mg10 1_555 1_555
O34A Mg6A 1_555 1_555
O35A Mg8A 1_555 1_555
O36A Mg9A 1_555 1_555
O37A Mg4A 1_555 1_555
O38A Mg1A 1_555 1_555
O39A Mg2A 1_555 1_555
O40A Mg10A 1_555 1_555
O41A Mg7A 1_555 1_555
O42A Mg3A 1_555 1_555
O43A Mg6A 1_555 1_555
O44A Mg11A 1_555 1_555
C1A O4A 1_555 1_555
C2A O2A 1_555 1_555
C3A O3A 1_555 1_555
C4A O7A 1_555 1_555
C5A O26A 1_555 1_555
O45A Mg9A 1_555 1_555
C6A O1A 1_555 1_555
C7A C1A 1_555 1_555
C8A O12A 1_555 1_555
C9A O5A 1_555 1_555
C10A O6A 1_555 1_555
C11A O10A 1_555 1_555
O46A Mg2A 1_555 1_555
C12A O16A 1_555 1_555
C13A O15A 1_555 1_555
C14A C6A 1_555 1_555
O47A Mg12A 1_555 1_555
C15A O8A 1_555 1_555
C16A C4A 1_555 1_555
C17A O17A 1_555 1_555
C18A C23A 1_555 1_555
C19A H1A 1_555 1_555
C20A C44A 1_555 1_555
C21A O27A 1_555 1_555
C22A C30A 1_555 1_555
C23A C70A 1_555 1_555
C24A O21A 1_555 1_555
C25A C14A 1_555 1_555
H2A C25A 1_555 1_555
C26A C50A 1_555 1_555
C27A O28A 1_555 1_555
C28A C9A 1_555 1_555
O48A Mg7A 1_555 1_555
C29A C19A 1_555 1_555
C30A O31A 1_555 1_555
C31A O13A 1_555 1_555
C32A C2A 1_555 1_555
C33A C7A 1_555 1_555
H3A C33A 1_555 1_555
C34A O9A 1_555 1_555
C35A O25A 1_555 1_555
C36A H4A 1_555 1_555
C37A C10A 1_555 1_555
C38A C11A 1_555 1_555
C39A C42A 1_555 1_555
C40A C49A 1_555 1_555
C41A C19A 1_555 1_555
C42A O29A 1_555 1_555
C43A C15A 1_555 1_555
C44A C30A 1_555 1_555
C45A O22A 1_555 1_555
C46A C34A 1_555 1_555
C47A O33A 1_555 1_555
C48A C35A 1_555 1_555
O49A Mg5A 1_555 1_555
C49A O20A 1_555 1_555
C50A O23A 1_555 1_555
C51A O36A 1_555 1_555
C52A C31A 1_555 1_555
C53A C8A 1_555 1_555
C54A C22A 1_555 1_555
C55A O18A 1_555 1_555
C56A C20A 1_555 1_555
H5A C56A 1_555 1_555
C57A C46A 1_555 1_555
H6A C57A 1_555 1_555
C58A C69A 1_555 1_555
C59A C26A 1_555 1_555
H7A C59A 1_555 1_555
C60A C55A 1_555 1_555
C61A C32A 1_555 1_555
H8A C61A 1_555 1_555
C62A C14A 1_555 1_555
H9A C62A 1_555 1_555
C63A C39A 1_555 1_555
C64A O35A 1_555 1_555
C65A O30A 1_555 1_555
C66A C7A 1_555 1_555
H10A C66A 1_555 1_555
C67A C37A 1_555 1_555
H11A C67A 1_555 1_555
C68A C62A 1_555 1_555
H12A C68A 1_555 1_555
H13A C68A 1_555 1_555
C69A O32A 1_555 1_555
C70A C52A 1_555 1_555
H14A C70A 1_555 1_555
C71A C43A 1_555 1_555
H15A C71A 1_555 1_555
C72A C16A 1_555 1_555
H16A C72A 1_555 1_555
C73A C26A 1_555 1_555
H17A C73A 1_555 1_555
C74A C58A 1_555 1_555
H18A C74A 1_555 1_555
C75A C36A 1_555 1_555
H19A C75A 1_555 1_555
H20A C75A 1_555 1_555
C76A C40A 1_555 1_555
H21A C76A 1_555 1_555
C77A O34A 1_555 1_555
O50A Mg4A 1_555 1_555
C78A C29A 1_555 1_555
H22A C78A 1_555 1_555
C79A C40A 1_555 1_555
H23A C79A 1_555 1_555
C80A C77A 1_555 1_555
C81A C28A 1_555 1_555
H24A C81A 1_555 1_555
O51A Mg8A 1_555 1_555
O52A Mg1A 1_555 1_555
C82A C23A 1_555 1_555
H25A C82A 1_555 1_555
C83A C65A 1_555 1_555
O53A Mg11A 1_555 1_555
C84A C66A 1_555 1_555
H26A C84A 1_555 1_555
H27A C84A 1_555 1_555
C85A C68A 1_555 1_555
H28A C85A 1_555 1_555
H29A C85A 1_555 1_555
C86A C58A 1_555 1_555
H30A C86A 1_555 1_555
O54A Mg3A 1_555 1_555
C87A C60A 1_555 1_555
H31A C87A 1_555 1_555
C88A C73A 1_555 1_555
H32A C88A 1_555 1_555
H33A C88A 1_555 1_555
O55A Mg9A 1_555 1_555
C89A C71A 1_555 1_555
H34A C89A 1_555 1_555
H35A C89A 1_555 1_555
C90A C63A 1_555 1_555
H36A C90A 1_555 1_555
O56A Mg5A 1_555 1_555
C91A C82A 1_555 1_555
H37A C91A 1_555 1_555
H38A C91A 1_555 1_555
C92A C84A 1_555 1_555
H39A C92A 1_555 1_555
H40A C92A 1_555 1_555
C93A C72A 1_555 1_555
H41A C93A 1_555 1_555
H42A C93A 1_555 1_555
O57A Mg6A 1_555 1_555
C94A C79A 1_555 1_555
H43A C94A 1_555 1_555
H44A C94A 1_555 1_555
O58A Mg8A 1_555 1_555
O59A Mg12A 1_555 1_555
C95A C81A 1_555 1_555
H45A C95A 1_555 1_555
H46A C95A 1_555 1_555
C96A C78A 1_555 1_555
H47A C96A 1_555 1_555
H48A C96A 1_555 1_555
C97A C86A 1_555 1_555
H49A C97A 1_555 1_555
H50A C97A 1_555 1_555
C98A C90A 1_555 1_555
H51A C98A 1_555 1_555
H52A C98A 1_555 1_555
C99A C75A 1_555 1_555
H53A C99A 1_555 1_555
H54A C99A 1_555 1_555
C100A C85A 1_555 1_555
H55A C100A 1_555 1_555
H56A C100A 1_555 1_555
O60A N1A 1_555 1_555
N1A O51A 1_555 1_555
O61A N2A 1_555 1_555
C101A C92A 1_555 1_555
H57A C101A 1_555 1_555
H58A C101A 1_555 1_555
C102A C93A 1_555 1_555
H59A C102A 1_555 1_555
H60A C102A 1_555 1_555
C103A C100A 1_555 1_555
H61A C103A 1_555 1_555
H62A C103A 1_555 1_555
C104A C103A 1_555 1_555
H63A C104A 1_555 1_555
H64A C104A 1_555 1_555
N2A O49A 1_555 1_555
C105A C96A 1_555 1_555
H65A C105A 1_555 1_555
H66A C105A 1_555 1_555
C106A C104A 1_555 1_555
H67A C106A 1_555 1_555
H68A C106A 1_555 1_555
H69A C106A 1_555 1_555
C107A H70A 1_555 1_555
H71A C107A 1_555 1_555
C108A C99A 1_555 1_555
H72A C108A 1_555 1_555
H73A C108A 1_555 1_555
C109A C97A 1_555 1_555
H74A C109A 1_555 1_555
H75A C109A 1_555 1_555
C110A C101A 1_555 1_555
H76A C110A 1_555 1_555
H77A C110A 1_555 1_555
C111A C107A 1_555 1_555
H78A C111A 1_555 1_555
H79A C111A 1_555 1_555
H80A C111A 1_555 1_555
C112A C91A 1_555 1_555
H81A C112A 1_555 1_555
H82A C112A 1_555 1_555
C113A C102A 1_555 1_555
H83A C113A 1_555 1_555
H84A C113A 1_555 1_555
C114A C105A 1_555 1_555
H85A C114A 1_555 1_555
H86A C114A 1_555 1_555
C115A H87A 1_555 1_555
H88A C115A 1_555 1_555
H89A C115A 1_555 1_555
C116A C109A 1_555 1_555
H90A C116A 1_555 1_555
H91A C116A 1_555 1_555
C117A C115A 1_555 1_555
H92A C117A 1_555 1_555
H93A C117A 1_555 1_555
C118A C95A 1_555 1_555
H94A C118A 1_555 1_555
H95A C118A 1_555 1_555
O62A N1A 1_555 1_555
C119A C98A 1_555 1_555
H96A C119A 1_555 1_555
H97A C119A 1_555 1_555
C120A C108A 1_555 1_555
H98A C120A 1_555 1_555
H99A C120A 1_555 1_555
C121A C120A 1_555 1_555
H100A C121A 1_555 1_555
H101A C121A 1_555 1_555
C122A C88A 1_555 1_555
H102A C122A 1_555 1_555
H103A C122A 1_555 1_555
C123A C116A 1_555 1_555
H104A C123A 1_555 1_555
H105A C123A 1_555 1_555
C124A C112A 1_555 1_555
H106A C124A 1_555 1_555
H107A C124A 1_555 1_555
C125A C113A 1_555 1_555
H108A C125A 1_555 1_555
H109A C125A 1_555 1_555
C126A H110A 1_555 1_555
H111A C126A 1_555 1_555
C127A H112A 1_555 1_555
H113A C127A 1_555 1_555
H114A C127A 1_555 1_555
C128A H115A 1_555 1_555
H116A C128A 1_555 1_555
C129A C119A 1_555 1_555
H117A C129A 1_555 1_555
H118A C129A 1_555 1_555
C130A C124A 1_555 1_555
H119A C130A 1_555 1_555
H120A C130A 1_555 1_555
C131A H121A 1_555 1_555
H122A C131A 1_555 1_555
C132A H123A 1_555 1_555
H124A C132A 1_555 1_555
H125A C132A 1_555 1_555
C133A C125A 1_555 1_555
H126A C133A 1_555 1_555
H127A C133A 1_555 1_555
C134A C127A 1_555 1_555
H128A C134A 1_555 1_555
H129A C134A 1_555 1_555
O63A N2A 1_555 1_555
C135A H130A 1_555 1_555
H131A C135A 1_555 1_555
C136A C135A 1_555 1_555
H132A C136A 1_555 1_555
H133A C136A 1_555 1_555
C137A C136A 1_555 1_555
H134A C137A 1_555 1_555
H135A C137A 1_555 1_555
H136A C137A 1_555 1_555
C138A C121A 1_555 1_555
H137A C138A 1_555 1_555
H138A C138A 1_555 1_555
H139A C138A 1_555 1_555
C139A C118A 1_555 1_555
H140A C139A 1_555 1_555
H141A C139A 1_555 1_555
C140A C122A 1_555 1_555
H142A C140A 1_555 1_555
H143A C140A 1_555 1_555
C141A C130A 1_555 1_555
H144A C141A 1_555 1_555
H145A C141A 1_555 1_555
C142A C141A 1_555 1_555
H146A C142A 1_555 1_555
H147A C142A 1_555 1_555
H148A C142A 1_555 1_555
C143A H149A 1_555 1_555
H150A C143A 1_555 1_555
C144A C143A 1_555 1_555
H151A C144A 1_555 1_555
H152A C144A 1_555 1_555
H153A C144A 1_555 1_555
C145A C126A 1_555 1_555
H154A C145A 1_555 1_555
H155A C145A 1_555 1_555
C146A H156A 1_555 1_555
H157A C146A 1_555 1_555
C147A C146A 1_555 1_555
H158A C147A 1_555 1_555
H159A C147A 1_555 1_555
H160A C147A 1_555 1_555
C148A C89A 1_555 1_555
H161A C148A 1_555 1_555
H162A C148A 1_555 1_555
C149A C114A 1_555 1_555
H163A C149A 1_555 1_555
H164A C149A 1_555 1_555
C150A C94A 1_555 1_555
H165A C150A 1_555 1_555
H166A C150A 1_555 1_555
C151A C131A 1_555 1_555
H167A C151A 1_555 1_555
H168A C151A 1_555 1_555
C152A C126A 1_555 1_555
H169A C152A 1_555 1_555
H170A C152A 1_555 1_555
C153A C128A 1_555 1_555
H171A C153A 1_555 1_555
H172A C153A 1_555 1_555
C154A C153A 1_555 1_555
H173A C154A 1_555 1_555
H174A C154A 1_555 1_555
H175A C154A 1_555 1_555
C155A C140A 1_555 1_555
H176A C155A 1_555 1_555
H177A C155A 1_555 1_555
C156A C152A 1_555 1_555
H178A C156A 1_555 1_555
H179A C156A 1_555 1_555
H180A C156A 1_555 1_555
O64A Mg10A 1_555 1_555
Mg5 O29 1_555 1_555
Mg9 O35 1_555 1_555
Mg11 O31 1_555 1_555
Mg11 O36 1_555 1_555
Mg12 O28 1_555 1_555
Mg12 O26A 1_555 1_555
O15 Mg2A 1_555 1_555
O17 Mg1A 1_555 1_555
O22 Mg7A 1_555 1_555
O26 Mg4A 1_555 1_555
O26 Mg12A 1_555 1_555
O33 Mg10A 1_555 1_555
C1 C13 1_555 1_555
C3 C4 1_555 1_555
C9 C47 1_555 1_555
C12 C35 1_555 1_555
C16 C25 1_555 1_555
C18 C51 1_555 1_555
C20 C66 1_555 1_555
C21 C41 1_555 1_555
C24 C27 1_555 1_555
C24 C29 1_555 1_555
C31 C51 1_555 1_555
C32 C62 1_555 1_555
C33 C38 1_555 1_555
C36 C37 1_555 1_555
C38 C81 1_555 1_555
C41 C73 1_555 1_555
C43 C76 1_555 1_555
C45 C77 1_555 1_555
C46 C71 1_555 1_555
C48 C67 1_555 1_555
C48 C82 1_555 1_555
C52 C72 1_555 1_555
C53 C61 1_555 1_555
C54 C56 1_555 1_555
C54 C78 1_555 1_555
C57 C63 1_555 1_555
C60 C79 1_555 1_555
C64 C65 1_555 1_555
C64 C69 1_555 1_555
C74 C83 1_555 1_555
C80 C86 1_555 1_555
C80 C87 1_555 1_555
C83 C90 1_555 1_555
C107 C110 1_555 1_555
C117 C123 1_555 1_555
C128 C129 1_555 1_555
C131 C150 1_555 1_555
C132 C133 1_555 1_555
C134 C149 1_555 1_555
C135 C139 1_555 1_555
C143 C155 1_555 1_555
C145 C148 1_555 1_555
C146 C151 1_555 1_555
C160 C161 1_555 1_555
C163 C164 1_555 1_555
C165 C166 1_555 1_555
C168 N5 1_555 1_555
C169 C170 1_555 1_555
C169 C171 1_555 1_555
Mg2A O17A 1_555 1_555
Mg3A O15A 1_555 1_555
Mg5A O29A 1_555 1_555
Mg6A O22A 1_555 1_555
Mg7A O33A 1_555 1_555
Mg9A O35A 1_555 1_555
Mg11A O31A 1_555 1_555
Mg11A O36A 1_555 1_555
Mg12A O28A 1_555 1_555
C1A C13A 1_555 1_555
C2A C5A 1_555 1_555
C3A C4A 1_555 1_555
C3A C6A 1_555 1_555
C5A C8A 1_555 1_555
C9A C47A 1_555 1_555
C10A C12A 1_555 1_555
C11A C13A 1_555 1_555
C12A C35A 1_555 1_555
C15A C17A 1_555 1_555
C16A C25A 1_555 1_555
C17A C49A 1_555 1_555
C18A C51A 1_555 1_555
C20A C66A 1_555 1_555
C21A C27A 1_555 1_555
C21A C41A 1_555 1_555
C24A C27A 1_555 1_555
C24A C29A 1_555 1_555
C28A C59A 1_555 1_555
C31A C51A 1_555 1_555
C32A C62A 1_555 1_555
C33A C38A 1_555 1_555
C34A C42A 1_555 1_555
C36A C37A 1_555 1_555
C36A C53A 1_555 1_555
C38A C81A 1_555 1_555
C41A C73A 1_555 1_555
C43A C76A 1_555 1_555
C45A C55A 1_555 1_555
C45A C77A 1_555 1_555
C46A C71A 1_555 1_555
C47A C50A 1_555 1_555
C48A C67A 1_555 1_555
C48A C82A 1_555 1_555
C52A C72A 1_555 1_555
C53A C61A 1_555 1_555
C54A C56A 1_555 1_555
C54A C78A 1_555 1_555
C57A C63A 1_555 1_555
C60A C79A 1_555 1_555
C64A C65A 1_555 1_555
C64A C69A 1_555 1_555
C74A C83A 1_555 1_555
C80A C86A 1_555 1_555
C80A C87A 1_555 1_555
C83A C90A 1_555 1_555
C107A C110A 1_555 1_555
C117A C123A 1_555 1_555
C128A C129A 1_555 1_555
C131A C150A 1_555 1_555
C132A C133A 1_555 1_555
C134A C149A 1_555 1_555
C135A C139A 1_555 1_555
C143A C155A 1_555 1_555
C145A C148A 1_555 1_555
C146A C151A 1_555 1_555

#END
