
#######################################################################
#
#                 Cambridge Crystallographic Data Centre
#                                CCDC 
#
#######################################################################
#
# If this CIF has been generated from an entry in the Cambridge 
# Structural Database, then it will include bibliographic, chemical, 
# crystal, experimental, refinement or atomic coordinate data resulting 
# from the CCDC's data processing and validation procedures.
#
#######################################################################

data_KEHSAR
_chemical_formula_moiety         'C8 H22 B6'
_chemical_name_systematic        
bis(\m~2~-Hydrido)-(9-borabicyclo(3.3.1)non-9-yl)-nido-pentaborane(8)
_symmetry_cell_setting           triclinic
_symmetry_space_group_name_H-M   'P -1'
_symmetry_Int_Tables_number      2
_space_group_name_Hall           '-P 1'
loop_
_symmetry_equiv_pos_site_id
_symmetry_equiv_pos_as_xyz
1 x,y,z
2 -x,-y,-z
_cell_length_a                   9.427(2)
_cell_length_b                   10.380(2)
_cell_length_c                   12.525(2)
_cell_angle_alpha                87.34(2)
_cell_angle_beta                 80.73(2)
_cell_angle_gamma                89.86(2)
_cell_volume                     1208.27
_exptl_crystal_colour            colorless
_cell_formula_units_Z            4
loop_
_atom_site_label
_atom_site_type_symbol
_atom_site_fract_x
_atom_site_fract_y
_atom_site_fract_z
B1 B 0.3491(4) 0.6224(4) 0.4037(3)
B2 B 0.2132(4) 0.6229(3) 0.3324(3)
B3 B 0.2063(4) 0.7157(4) 0.4422(3)
B4 B 0.3814(4) 0.7816(4) 0.3899(3)
B5 B 0.3897(4) 0.6832(4) 0.2757(3)
B6 B 0.0483(3) 0.7252(3) 0.3630(3)
C1 C 0.0215(3) 0.8421(3) 0.2857(2)
C2 C -0.0595(3) 0.9448(3) 0.3568(3)
C3 C -0.1942(3) 0.8967(3) 0.4319(3)
C4 C -0.1762(3) 0.7680(3) 0.4916(2)
C5 C -0.0952(3) 0.6629(3) 0.4216(2)
C6 C -0.1774(3) 0.6152(3) 0.3348(3)
C7 C -0.1971(3) 0.7136(3) 0.2441(2)
C8 C -0.0619(3) 0.7914(3) 0.2002(2)
H1 H 0.3985(42) 0.5376(38) 0.4356(30)
H2 H 0.1438(41) 0.5399(38) 0.3205(29)
H3 H 0.1467(37) 0.7154(32) 0.5181(28)
H4 H 0.4526(39) 0.8412(34) 0.4204(28)
H5 H 0.4735(36) 0.6578(31) 0.2087(26)
H6 H 0.2687(37) 0.6929(31) 0.2432(26)
H7 H 0.2500(33) 0.8279(29) 0.3987(23)
H8 H 0.3931(30) 0.7982(28) 0.2833(23)
H9 H 0.1125 0.8766 0.2511
H10 H -0.0865 1.0134 0.3102
H11 H 0.0041 0.9804 0.4005
H12 H -0.2249 0.9600 0.4842
H13 H -0.2693 0.8876 0.3892
H14 H -0.2698 0.7344 0.5212
H15 H -0.1268 0.7832 0.5512
H16 H -0.0744 0.5913 0.4678
H17 H -0.2708 0.5866 0.3701
H18 H -0.1284 0.5418 0.3027
H19 H -0.2715 0.7723 0.2716
H20 H -0.2288 0.6699 0.1862
H21 H 0.0011 0.7385 0.1529
H22 H -0.0888 0.8638 0.1574
B7 B 0.1211(4) 1.1728(3) 0.1050(3)
B8 B 0.2911(4) 1.2222(3) 0.0523(3)
B9 B 0.2483(5) 1.1670(4) 0.1856(3)
B10 B 0.0999(4) 1.2767(4) 0.2083(3)
B11 B 0.1429(4) 1.3299(4) 0.0700(3)
B12 B 0.4428(3) 1.2231(3) 0.1361(3)
C9 C 0.5050(3) 1.3424(3) 0.1744(3)
C10 C 0.6216(4) 1.3925(4) 0.0825(4)
C11 C 0.7340(4) 1.2964(5) 0.0394(3)
C12 C 0.6754(8) 1.1636(7) 0.0212(6)
C13 C 0.5572(4) 1.1124(3) 0.1127(3)
C14 C 0.6145(5) 1.0779(4) 0.2206(3)
C15 C 0.6589(6) 1.1926(5) 0.2782(4)
C16 C 0.5624(5) 1.3071(4) 0.2808(3)
H23 H 0.0577(39) 1.1039(34) 0.0782(27)
H24 H 0.3625(33) 1.1967(29) -0.0223(25)
H25 H 0.2754(39) 1.0795(38) 0.2442(29)
H26 H 0.0096(34) 1.2970(29) 0.2764(25)
H27 H 0.0898(31) 1.3845(28) 0.0175(23)
H28 H 0.2812 1.3438 0.0467
H29 H 0.2183(31) 1.2654(27) 0.2472(22)
H30 H 0.1414(40) 1.3881(36) 0.1561(29)
H31 H 0.4306 1.4056 0.1879
H32 H 0.6690 1.4640 0.1079
H33 H 0.5759 1.4247 0.0235
H34 H 0.7999 1.2846 0.0900
H35 H 0.7873 1.3310 -0.0276
H36 H 0.7523 1.1023 0.0110
H37 H 0.6349 1.1704 -0.0443
H38 H 0.5109 1.0383 0.0904
H39 H 0.6950 1.0210 0.2063
H40 H 0.5403 1.0324 0.2693
H41 H 0.7519 1.2202 0.2413
H42 H 0.6694 1.1659 0.3509
H43 H 0.4815 1.2891 0.3365
H44 H 0.6122 1.3801 0.3014
C17? C 0.4730(25) 1.1308(24) 0.2234(23)
C18? C 0.5695(21) 1.0360(22) 0.1632(18)
C19? C 0.7110(18) 1.0824(16) 0.0904(14)
C20? C 0.6835(47) 1.2032(31) 0.0201(31)
C21? C 0.5927(20) 1.3111(22) 0.0731(14)
C22? C 0.6602(22) 1.3714(19) 0.1605(16)
C23? C 0.6709(27) 1.2962(24) 0.2606(18)
C24? C 0.5462(22) 1.1951(18) 0.3098(15)
H45? H 0.3874 1.0858 0.2571
H46? H 0.5136 0.9792 0.1280
H47? H 0.6053 0.9838 0.2183
H48? H 0.7274 1.0166 0.0385
H49? H 0.7943 1.0881 0.1251
H50? H 0.6483 1.1828 -0.0449
H51? H 0.7767 1.2414 -0.0025
H52? H 0.5688 1.3722 0.0189
H53? H 0.6130 1.4504 0.1818
H54? H 0.7570 1.3918 0.1272
H55? H 0.6891 1.3496 0.3176
H56? H 0.7533 1.2418 0.2445
H57? H 0.5803 1.1306 0.3568
H58? H 0.4757 1.2454 0.3537
loop_
_geom_bond_atom_site_label_1
_geom_bond_atom_site_label_2
_geom_bond_site_symmetry_1
_geom_bond_site_symmetry_2
B1 B2 1_555 1_555
B2 B3 1_555 1_555
B3 B1 1_555 1_555
B4 B1 1_555 1_555
B5 B1 1_555 1_555
B6 B2 1_555 1_555
C1 B6 1_555 1_555
C2 C1 1_555 1_555
C3 C2 1_555 1_555
C4 C3 1_555 1_555
C5 B6 1_555 1_555
C6 C5 1_555 1_555
C7 C6 1_555 1_555
C8 C1 1_555 1_555
B7 B8 1_555 1_555
B8 B9 1_555 1_555
B9 B7 1_555 1_555
B10 B7 1_555 1_555
B11 B7 1_555 1_555
B12 B8 1_555 1_555
C9 B12 1_555 1_555
C10 C9 1_555 1_555
C11 C10 1_555 1_555
C12 C11 1_555 1_555
C13 B12 1_555 1_555
C14 C13 1_555 1_555
C15 C14 1_555 1_555
C16 C9 1_555 1_555
H1 B1 1_555 1_555
H2 B2 1_555 1_555
H3 B3 1_555 1_555
H4 B4 1_555 1_555
H5 B5 1_555 1_555
H6 B2 1_555 1_555
H7 B3 1_555 1_555
H8 B4 1_555 1_555
H9 C1 1_555 1_555
H10 C2 1_555 1_555
H11 C2 1_555 1_555
H12 C3 1_555 1_555
H13 C3 1_555 1_555
H14 C4 1_555 1_555
H15 C4 1_555 1_555
H16 C5 1_555 1_555
H17 C6 1_555 1_555
H18 C6 1_555 1_555
H19 C7 1_555 1_555
H20 C7 1_555 1_555
H21 C8 1_555 1_555
H22 C8 1_555 1_555
H23 B7 1_555 1_555
H24 B8 1_555 1_555
H25 B9 1_555 1_555
H26 B10 1_555 1_555
H27 B11 1_555 1_555
H28 B8 1_555 1_555
H29 B9 1_555 1_555
H30 B10 1_555 1_555
H31 C9 1_555 1_555
H32 C10 1_555 1_555
H33 C10 1_555 1_555
H34 C11 1_555 1_555
H35 C11 1_555 1_555
H36 C12 1_555 1_555
H37 C12 1_555 1_555
H38 C13 1_555 1_555
H39 C14 1_555 1_555
H40 C14 1_555 1_555
H41 C15 1_555 1_555
H42 C15 1_555 1_555
H43 C16 1_555 1_555
H44 C16 1_555 1_555
B2 B5 1_555 1_555
B3 B4 1_555 1_555
B3 B6 1_555 1_555
B4 B5 1_555 1_555
B4 H7 1_555 1_555
B5 H6 1_555 1_555
B5 H8 1_555 1_555
C4 C5 1_555 1_555
C7 C8 1_555 1_555
B8 B11 1_555 1_555
B9 B10 1_555 1_555
B9 B12 1_555 1_555
B10 B11 1_555 1_555
B10 H29 1_555 1_555
B11 H28 1_555 1_555
B11 H30 1_555 1_555
C12 C13 1_555 1_555
C15 C16 1_555 1_555

#END
