
#######################################################################
#
#                 Cambridge Crystallographic Data Centre
#                                CCDC 
#
#######################################################################
#
# If this CIF has been generated from an entry in the Cambridge 
# Structural Database, then it will include bibliographic, chemical, 
# crystal, experimental, refinement or atomic coordinate data resulting 
# from the CCDC's data processing and validation procedures.
#
#######################################################################

data_KEHSEV
_chemical_formula_moiety         'C8 H22 B6'
_chemical_name_systematic        
tetrakis(\m~2~-Hydrido)-4,5-(cyclo-octa-1,5-diyl)hexaborane(8)
_symmetry_cell_setting           orthorhombic
_symmetry_space_group_name_H-M   'P 21 21 21'
_symmetry_Int_Tables_number      19
_space_group_name_Hall           'P 2ac 2ab'
loop_
_symmetry_equiv_pos_site_id
_symmetry_equiv_pos_as_xyz
1 x,y,z
2 1/2+x,1/2-y,-z
3 -x,1/2+y,1/2-z
4 1/2-x,-y,1/2+z
_cell_length_a                   9.077(3)
_cell_length_b                   11.585(3)
_cell_length_c                   22.352(6)
_cell_angle_alpha                90
_cell_angle_beta                 90
_cell_angle_gamma                90
_cell_volume                     2350.47
_exptl_crystal_colour            colorless
_cell_formula_units_Z            8
loop_
_atom_site_label
_atom_site_type_symbol
_atom_site_fract_x
_atom_site_fract_y
_atom_site_fract_z
B1 B 0.7497(3) 0.3656(3) 0.1103(1)
B2 B 0.5638(3) 0.3868(2) 0.0889(1)
B3 B 0.6541(3) 0.5047(2) 0.1222(1)
B4 B 0.8280(3) 0.5075(3) 0.1003(1)
B5 B 0.8625(3) 0.3970(3) 0.0486(1)
B6 B 0.6947(3) 0.3149(3) 0.0398(1)
C1 C 0.4140(3) 0.3376(2) 0.1147(1)
C2 C 0.4363(3) 0.2855(2) 0.1783(1)
C3 C 0.4411(3) 0.3713(2) 0.2304(1)
C4 C 0.5652(2) 0.4598(2) 0.2322(1)
C5 C 0.5712(2) 0.5508(2) 0.1806(1)
C6 C 0.4165(3) 0.6041(2) 0.1683(1)
C7 C 0.3221(3) 0.5558(2) 0.1165(1)
C8 C 0.2856(3) 0.4260(2) 0.1131(1)
H1 H 0.7805(27) 0.3105(21) 0.1458(10)
H2 H 0.5740(25) 0.4975(17) 0.0780(9)
H3 H 0.9231(25) 0.5418(21) 0.1212(11)
H4 H 0.8411(26) 0.5097(17) 0.0437(9)
H5 H 0.9689(24) 0.3637(23) 0.0325(10)
H6 H 0.7756(24) 0.3747(20) 0.0061(9)
H7 H 0.6873(29) 0.2278(19) 0.0241(11)
H8 H 0.5762(23) 0.3631(20) 0.0315(9)
H9 H 0.3846 0.2764 0.0883
H10 H 0.5278 0.2439 0.1782
H11 H 0.3566 0.2329 0.1857
H12 H 0.4471 0.3270 0.2666
H13 H 0.3500 0.4135 0.2297
H14 H 0.5566 0.5013 0.2692
H15 H 0.6565 0.4180 0.2316
H16 H 0.6319 0.6134 0.1942
H17 H 0.4313 0.6847 0.1604
H18 H 0.3599 0.5952 0.2042
H19 H 0.3727 0.5749 0.0801
H20 H 0.2297 0.5960 0.1178
H21 H 0.2223 0.4088 0.1464
H22 H 0.2330 0.4136 0.0764
B7 B 0.2810(3) 0.5528(3) -0.0593(1)
B8 B 0.3771(3) 0.6516(2) -0.1055(1)
B9 B 0.2930(3) 0.5282(3) -0.1390(1)
B10 B 0.1245(3) 0.5063(3) -0.1024(1)
B11 B 0.1014(3) 0.6102(3) -0.0499(1)
B12 B 0.2550(3) 0.7006(3) -0.0471(1)
C9 C 0.5487(3) 0.6714(2) -0.1152(1)
C10 C 0.6443(3) 0.5739(2) -0.0871(1)
C11 C 0.6605(3) 0.4626(2) -0.1237(1)
C12 C 0.5212(3) 0.3912(2) -0.1366(1)
C13 C 0.4014(3) 0.4490(2) -0.1765(1)
C14 C 0.4710(3) 0.5079(2) -0.2331(1)
C15 C 0.4979(3) 0.6391(2) -0.2322(1)
C16 C 0.5900(3) 0.6953(2) -0.1824(1)
H23 H 0.3364(25) 0.4986(20) -0.0268(10)
H24 H 0.3075(25) 0.6301(18) -0.1556(9)
H26 H 0.0686(28) 0.4215(19) -0.1006(11)
H27 H 0.0444(38) 0.6016(25) -0.0998(12)
H28 H 0.0320(26) 0.6079(22) -0.0101(10)
H29 H 0.1260(28) 0.7171(22) -0.0629(16)
H30 H 0.2794(28) 0.7538(21) -0.0096(10)
H31 H 0.3045(26) 0.7427(18) -0.0934(9)
H32 H 0.5723 0.7407 -0.0937
H33 H 0.6010 0.5538 -0.0494
H34 H 0.7413 0.6046 -0.0807
H35 H 0.7024 0.4836 -0.1616
H36 H 0.7277 0.4135 -0.1025
H37 H 0.5516 0.3213 -0.1561
H38 H 0.4764 0.3728 -0.0988
H39 H 0.3389 0.3895 -0.1921
H40 H 0.4066 0.4921 -0.2662
H41 H 0.5646 0.4716 -0.2399
H42 H 0.4026 0.6749 -0.2309
H43 H 0.5455 0.6579 -0.2693
H44 H 0.6898 0.6700 -0.1879
H45 H 0.5845 0.7773 -0.1883
H25? H 0.1551(26) 0.5356(32) -0.1556(12)
loop_
_geom_bond_atom_site_label_1
_geom_bond_atom_site_label_2
_geom_bond_site_symmetry_1
_geom_bond_site_symmetry_2
B1 B2 1_555 1_555
B2 B3 1_555 1_555
B3 B1 1_555 1_555
B4 B1 1_555 1_555
B5 B1 1_555 1_555
B6 B1 1_555 1_555
C1 B2 1_555 1_555
C2 C1 1_555 1_555
C3 C2 1_555 1_555
C4 C3 1_555 1_555
C5 B3 1_555 1_555
C6 C5 1_555 1_555
C7 C6 1_555 1_555
C8 C1 1_555 1_555
B7 B8 1_555 1_555
B8 B9 1_555 1_555
B9 B7 1_555 1_555
B10 B7 1_555 1_555
B11 B7 1_555 1_555
B12 B7 1_555 1_555
C9 B8 1_555 1_555
C10 C9 1_555 1_555
C11 C10 1_555 1_555
C12 C11 1_555 1_555
C13 B9 1_555 1_555
C14 C13 1_555 1_555
C15 C14 1_555 1_555
C16 C9 1_555 1_555
H1 B1 1_555 1_555
H2 B2 1_555 1_555
H3 B4 1_555 1_555
H4 B4 1_555 1_555
H5 B5 1_555 1_555
H6 B5 1_555 1_555
H7 B6 1_555 1_555
H8 B2 1_555 1_555
H9 C1 1_555 1_555
H10 C2 1_555 1_555
H11 C2 1_555 1_555
H12 C3 1_555 1_555
H13 C3 1_555 1_555
H14 C4 1_555 1_555
H15 C4 1_555 1_555
H16 C5 1_555 1_555
H17 C6 1_555 1_555
H18 C6 1_555 1_555
H19 C7 1_555 1_555
H20 C7 1_555 1_555
H21 C8 1_555 1_555
H22 C8 1_555 1_555
H23 B7 1_555 1_555
H24 B8 1_555 1_555
H26 B10 1_555 1_555
H27 B10 1_555 1_555
H28 B11 1_555 1_555
H29 B11 1_555 1_555
H30 B12 1_555 1_555
H31 B8 1_555 1_555
H32 C9 1_555 1_555
H33 C10 1_555 1_555
H34 C10 1_555 1_555
H35 C11 1_555 1_555
H36 C11 1_555 1_555
H37 C12 1_555 1_555
H38 C12 1_555 1_555
H39 C13 1_555 1_555
H40 C14 1_555 1_555
H41 C14 1_555 1_555
H42 C15 1_555 1_555
H43 C15 1_555 1_555
H44 C16 1_555 1_555
H45 C16 1_555 1_555
B2 B6 1_555 1_555
B3 B4 1_555 1_555
B3 H2 1_555 1_555
B4 B5 1_555 1_555
B5 B6 1_555 1_555
B5 H4 1_555 1_555
B6 H6 1_555 1_555
B6 H8 1_555 1_555
C4 C5 1_555 1_555
C7 C8 1_555 1_555
B8 B12 1_555 1_555
B9 B10 1_555 1_555
B9 H24 1_555 1_555
B10 B11 1_555 1_555
B11 B12 1_555 1_555
B11 H27 1_555 1_555
B12 H29 1_555 1_555
B12 H31 1_555 1_555
C12 C13 1_555 1_555
C15 C16 1_555 1_555

#END
