
#######################################################################
#
#                 Cambridge Crystallographic Data Centre
#                                CCDC 
#
#######################################################################
#
# If this CIF has been generated from an entry in the Cambridge 
# Structural Database, then it will include bibliographic, chemical, 
# crystal, experimental, refinement or atomic coordinate data resulting 
# from the CCDC's data processing and validation procedures.
#
#######################################################################

data_KEHXUR
_chemical_formula_moiety         'C29 H39 N3 O7,0.5(H2 O1)'
_chemical_name_systematic        
'N-t-Butoxycarbonyltyrosyl-valyl-phenylalanine methyl ester hemihydrate'
_symmetry_cell_setting           monoclinic
_symmetry_space_group_name_H-M   'P 2'
_symmetry_Int_Tables_number      3
_space_group_name_Hall           'P 2y'
loop_
_symmetry_equiv_pos_site_id
_symmetry_equiv_pos_as_xyz
1 x,y,z
2 -x,y,-z
_cell_length_a                   22.2063(12)
_cell_length_b                   4.9902(2)
_cell_length_c                   29.0502(12)
_cell_angle_alpha                90
_cell_angle_beta                 108.288(4)
_cell_angle_gamma                90
_cell_volume                     3056.57
_exptl_crystal_colour            white
_exptl_crystal_description       needle
_chemical_melting_point          '70-72 deg.C'
_cell_formula_units_Z            4
_exptl_crystal_recrystallization_method methanol/water
loop_
_atom_site_label
_atom_site_type_symbol
_atom_site_fract_x
_atom_site_fract_y
_atom_site_fract_z
C1 C 0.61493(19) 0.7907(9) 0.91984(13)
H1 H 0.6444 0.6661 0.9419
H2 H 0.5862 0.8664 0.9360
H3 H 0.6390 0.9355 0.9109
C2 C 0.66879(19) 0.5699(10) 0.84678(13)
O1 O 0.61962(12) 0.4619(6) 0.85833(9)
C3 C 0.57679(19) 0.6425(10) 0.87460(15)
C4 C 0.5322(2) 0.4479(10) 0.88631(18)
H4 H 0.5081 0.3527 0.8568
H5 H 0.5028 0.5454 0.8994
H6 H 0.5565 0.3187 0.9104
C5 C 0.5411(2) 0.8229(10) 0.83277(15)
H7 H 0.5691 0.9677 0.8292
H8 H 0.5040 0.8995 0.8394
H9 H 0.5272 0.7178 0.8028
O2 O 0.68224(13) 0.8060(6) 0.84847(9)
N1 N 0.70126(14) 0.3728(7) 0.83241(10)
H10 H 0.6848 0.2114 0.8260
C6 C 0.76240(18) 0.4288(9) 0.82775(13)
H11 H 0.7706 0.6259 0.8315
C7 C 0.81510(19) 0.2782(10) 0.86721(13)
H12 H 0.8073 0.0829 0.8634
H13 H 0.8567 0.3156 0.8627
C8 C 0.8172(2) 0.3617(10) 0.91791(14)
C9 C 0.8546(2) 0.5728(11) 0.94127(15)
H14 H 0.8796 0.6672 0.9255
C10 C 0.8560(2) 0.6495(11) 0.98780(15)
H15 H 0.8831 0.7906 1.0041
C11 C 0.8177(2) 0.5182(12) 1.00986(15)
C12 C 0.7798(2) 0.3126(12) 0.98694(16)
H16 H 0.7534 0.2235 1.0022
C13 C 0.7798(2) 0.2336(10) 0.94113(14)
H17 H 0.7537 0.0886 0.9255
O3 O 0.81926(18) 0.5840(9) 1.05677(10)
H18 H 0.8483 0.6957 1.0685
C14 C 0.76541(18) 0.3398(10) 0.77812(14)
O4 O 0.76218(15) 0.1030(6) 0.76626(9)
N2 N 0.77273(14) 0.5404(7) 0.74985(10)
H19 H 0.7734 0.7064 0.7602
C15 C 0.77968(16) 0.4912(9) 0.70200(12)
H20 H 0.7679 0.3010 0.6926
C16 C 0.73768(17) 0.6740(10) 0.66368(13)
H21 H 0.7503 0.8640 0.6727
C17 C 0.6689(2) 0.6379(13) 0.66121(16)
H22 H 0.6418 0.7500 0.6352
H23 H 0.6636 0.6909 0.6922
H24 H 0.6568 0.4495 0.6546
C18 C 0.74698(19) 0.6138(10) 0.61472(13)
H25 H 0.7907 0.6555 0.6164
H26 H 0.7177 0.7236 0.5895
H27 H 0.7385 0.4237 0.6069
C19 C 0.84971(18) 0.5305(8) 0.70762(12)
O5 O 0.87330(12) 0.7558(5) 0.71153(9)
N3 N 0.88416(14) 0.3115(7) 0.70893(10)
H28 H 0.8659 0.1530 0.7055
C20 C 0.95186(17) 0.3314(8) 0.71593(13)
H29 H 0.9704 0.1487 0.7247
C21 C 0.98284(17) 0.5147(9) 0.75843(13)
O6 O 1.02266(12) 0.6811(6) 0.75887(9)
O7 O 0.96312(12) 0.4615(6) 0.79641(9)
C22 C 0.9910(2) 0.6247(11) 0.83916(14)
H30 H 1.0372 0.6033 0.8498
H31 H 0.9745 0.5676 0.8651
H32 H 0.9802 0.8133 0.8314
C23 C 0.96697(18) 0.4191(9) 0.67027(13)
H33 H 0.9425 0.5835 0.6574
H34 H 1.0126 0.4650 0.6793
C24 C 0.95234(18) 0.2119(8) 0.63065(13)
C25 C 1.00038(19) 0.0935(10) 0.61755(14)
H35 H 1.0430 0.1415 0.6345
C26 C 0.9889(2) -0.0942(10) 0.58034(16)
H36 H 1.0232 -0.1715 0.5720
C27 C 0.9267(2) -0.1678(10) 0.55538(15)
H37 H 0.9179 -0.2932 0.5295
C28 C 0.8783(2) -0.0560(9) 0.56882(14)
H38 H 0.8358 -0.1104 0.5530
C29 C 0.89065(19) 0.1356(9) 0.60514(13)
H39 H 0.8562 0.2165 0.6128
O8 O 0.63072(13) 1.3272(6) 1.11520(8)
C30 C 0.6294(2) 1.1498(9) 1.07421(13)
C31 C 0.57181(19) 0.9695(10) 1.06306(14)
H40 H 0.5796 0.8261 1.0873
H41 H 0.5636 0.8909 1.0308
H42 H 0.5349 1.0746 1.0639
C32 C 0.6223(3) 1.3452(11) 1.03328(16)
H43 H 0.5814 1.4375 1.0261
H44 H 0.6241 1.2483 1.0044
H45 H 0.6567 1.4770 1.0427
C33 C 0.69081(19) 1.0000(11) 1.08433(15)
H46 H 0.7263 1.1242 1.0971
H47 H 0.6934 0.9193 1.0542
H48 H 0.6928 0.8588 1.1082
C34 C 0.63886(17) 1.2173(10) 1.15955(13)
O9 O 0.64586(13) 0.9812(6) 1.16853(9)
C35 C 0.66114(17) 1.3526(9) 1.24323(12)
H49 H 0.6673 1.1547 1.2477
N4 N 0.63732(13) 1.4126(7) 1.19143(10)
H50 H 0.6223 1.5725 1.1812
C36 C 0.61617(17) 1.4481(9) 1.27030(12)
N5 N 0.59689(14) 1.2560(7) 1.29429(10)
H51 H 0.6041 1.0879 1.2885
C37 C 0.56437(17) 1.3128(9) 1.32972(12)
H52 H 0.5583 1.5108 1.3313
C38 C 0.60779(18) 1.2149(10) 1.37880(14)
O10 O 0.60338(13) 1.6862(6) 1.27184(9)
C39 C 0.49962(17) 1.1742(10) 1.31683(12)
H53 H 0.5054 0.9789 1.3117
C40 C 0.47172(19) 1.2068(11) 1.35886(15)
H54 H 0.5002 1.1234 1.3882
H55 H 0.4301 1.1198 1.3503
H56 H 0.4671 1.3978 1.3649
C41 C 0.45483(19) 1.2924(10) 1.26996(14)
H57 H 0.4459 1.4801 1.2754
H58 H 0.4151 1.1905 1.2601
H59 H 0.4748 1.2825 1.2443
O11 O 0.61556(13) 0.9734(7) 1.38796(9)
N6 N 0.63616(15) 1.4029(7) 1.41038(10)
H60 H 0.6300 1.5725 1.4019
C42 C 0.6770(2) 1.3350(10) 1.45848(13)
H61 H 0.6977 1.1588 1.4568
C43 C 0.7293(2) 1.5466(10) 1.47833(13)
H62 H 0.7095 1.7253 1.4772
H63 H 0.7527 1.5055 1.5126
C44 C 0.7754(2) 1.5543(9) 1.44974(13)
C45 C 0.8255(2) 1.3796(11) 1.46030(17)
H64 H 0.8314 1.2554 1.4861
C46 C 0.8683(2) 1.3816(13) 1.4335(2)
H65 H 0.9035 1.2627 1.4417
C47 C 0.8593(3) 1.5550(15) 1.3954(2)
H66 H 0.8872 1.5535 1.3764
C48 C 0.8102(3) 1.7283(12) 1.38524(17)
H67 H 0.8044 1.8527 1.3595
C49 C 0.7680(2) 1.7284(10) 1.41171(15)
H68 H 0.7335 1.8507 1.4034
C50 C 0.6385(4) 1.3078(17) 1.4929(2)
O12 O 0.5922(2) 1.4518(12) 1.48839(14)
O13 O 0.6580(2) 1.1326(9) 1.52573(14)
C51 C 0.6037(5) 1.102(3) 1.5496(4)
H69 H 0.5674 1.2129 1.5321
H70 H 0.6194 1.1589 1.5836
H71 H 0.5905 0.9135 1.5481
C53 C 0.72557(17) 1.4949(9) 1.26648(12)
H75 H 0.7199 1.6900 1.2606
H76 H 0.7392 1.4657 1.3020
C54 C 0.77668(17) 1.3970(9) 1.24695(13)
C55 C 0.81722(18) 1.1906(9) 1.26997(13)
H77 H 0.8131 1.1157 1.2989
C56 C 0.86285(17) 1.0932(9) 1.25182(13)
H78 H 0.8908 0.9558 1.2686
C57 C 0.86796(17) 1.1945(9) 1.20948(13)
C58 C 0.82950(18) 1.4023(9) 1.18615(13)
H79 H 0.8340 1.4759 1.1573
C59 C 0.78427(17) 1.5027(9) 1.20518(13)
H80 H 0.7580 1.6468 1.1892
O14 O 0.91297(12) 1.1011(6) 1.18926(9)
H81 H 0.9259 0.9496 1.2008
O15 O 0.88142(18) 1.0477(8) 1.09086(10)
C52? C 0.5676(5) 1.407(3) 1.5259(4)
H72? H 0.5542 1.2192 1.5252
H73? H 0.5311 1.5244 1.5222
H74? H 0.6002 1.4440 1.5569
loop_
_geom_bond_atom_site_label_1
_geom_bond_atom_site_label_2
_geom_bond_site_symmetry_1
_geom_bond_site_symmetry_2
C1 H1 1_555 1_555
H2 C1 1_555 1_555
H3 C1 1_555 1_555
C2 O1 1_555 1_555
O1 C3 1_555 1_555
C3 C1 1_555 1_555
C4 C3 1_555 1_555
H4 C4 1_555 1_555
H5 C4 1_555 1_555
H6 C4 1_555 1_555
C5 C3 1_555 1_555
H7 C5 1_555 1_555
H8 C5 1_555 1_555
H9 C5 1_555 1_555
O2 C2 1_555 1_555
N1 C2 1_555 1_555
H10 N1 1_555 1_555
C6 N1 1_555 1_555
H11 C6 1_555 1_555
C7 C6 1_555 1_555
H12 C7 1_555 1_555
H13 C7 1_555 1_555
C8 C7 1_555 1_555
C9 C8 1_555 1_555
H14 C9 1_555 1_555
C10 C9 1_555 1_555
H15 C10 1_555 1_555
C11 C10 1_555 1_555
C12 C11 1_555 1_555
H16 C12 1_555 1_555
C13 C8 1_555 1_555
H17 C13 1_555 1_555
O3 C11 1_555 1_555
H18 O3 1_555 1_555
C14 C6 1_555 1_555
O4 C14 1_555 1_555
N2 C14 1_555 1_555
H19 N2 1_555 1_555
C15 N2 1_555 1_555
H20 C15 1_555 1_555
C16 C15 1_555 1_555
H21 C16 1_555 1_555
C17 C16 1_555 1_555
H22 C17 1_555 1_555
H23 C17 1_555 1_555
H24 C17 1_555 1_555
C18 C16 1_555 1_555
H25 C18 1_555 1_555
H26 C18 1_555 1_555
H27 C18 1_555 1_555
C19 C15 1_555 1_555
O5 C19 1_555 1_555
N3 C19 1_555 1_555
H28 N3 1_555 1_555
C20 N3 1_555 1_555
H29 C20 1_555 1_555
C21 C20 1_555 1_555
O6 C21 1_555 1_555
O7 C21 1_555 1_555
C22 O7 1_555 1_555
H30 C22 1_555 1_555
H31 C22 1_555 1_555
H32 C22 1_555 1_555
C23 C20 1_555 1_555
H33 C23 1_555 1_555
H34 C23 1_555 1_555
C24 C23 1_555 1_555
C25 C24 1_555 1_555
H35 C25 1_555 1_555
C26 C25 1_555 1_555
H36 C26 1_555 1_555
C27 C26 1_555 1_555
H37 C27 1_555 1_555
C28 C27 1_555 1_555
H38 C28 1_555 1_555
C29 C24 1_555 1_555
H39 C29 1_555 1_555
O8 C30 1_555 1_555
C30 C31 1_555 1_555
C31 H40 1_555 1_555
H41 C31 1_555 1_555
H42 C31 1_555 1_555
C32 C30 1_555 1_555
H43 C32 1_555 1_555
H44 C32 1_555 1_555
H45 C32 1_555 1_555
C33 C30 1_555 1_555
H46 C33 1_555 1_555
H47 C33 1_555 1_555
H48 C33 1_555 1_555
C34 O8 1_555 1_555
O9 C34 1_555 1_555
C35 H49 1_555 1_555
N4 C34 1_555 1_555
H50 N4 1_555 1_555
C36 C35 1_555 1_555
N5 C36 1_555 1_555
H51 N5 1_555 1_555
C37 N5 1_555 1_555
H52 C37 1_555 1_555
C38 C37 1_555 1_555
O10 C36 1_555 1_555
C39 C37 1_555 1_555
H53 C39 1_555 1_555
C40 C39 1_555 1_555
H54 C40 1_555 1_555
H55 C40 1_555 1_555
H56 C40 1_555 1_555
C41 C39 1_555 1_555
H57 C41 1_555 1_555
H58 C41 1_555 1_555
H59 C41 1_555 1_555
O11 C38 1_555 1_555
N6 C38 1_555 1_555
H60 N6 1_555 1_555
C42 N6 1_555 1_555
H61 C42 1_555 1_555
C43 C42 1_555 1_555
H62 C43 1_555 1_555
H63 C43 1_555 1_555
C44 C43 1_555 1_555
C45 C44 1_555 1_555
H64 C45 1_555 1_555
C46 C45 1_555 1_555
H65 C46 1_555 1_555
C47 C46 1_555 1_555
H66 C47 1_555 1_555
C48 C47 1_555 1_555
H67 C48 1_555 1_555
C49 C44 1_555 1_555
H68 C49 1_555 1_555
C50 C42 1_555 1_555
O12 C50 1_555 1_555
O13 C50 1_555 1_555
C51 O13 1_555 1_555
H69 C51 1_555 1_555
H70 C51 1_555 1_555
H71 C51 1_555 1_555
C53 C35 1_555 1_555
H75 C53 1_555 1_555
H76 C53 1_555 1_555
C54 C53 1_555 1_555
C55 C54 1_555 1_555
H77 C55 1_555 1_555
C56 C55 1_555 1_555
H78 C56 1_555 1_555
C57 C56 1_555 1_555
C58 C57 1_555 1_555
H79 C58 1_555 1_555
C59 C54 1_555 1_555
H80 C59 1_555 1_555
O14 C57 1_555 1_555
H81 O14 1_555 1_555
C12 C13 1_555 1_555
C28 C29 1_555 1_555
C35 N4 1_555 1_555
C48 C49 1_555 1_555
C58 C59 1_555 1_555

#END
