
#######################################################################
#
#                 Cambridge Crystallographic Data Centre
#                                CCDC 
#
#######################################################################
#
# If this CIF has been generated from an entry in the Cambridge 
# Structural Database, then it will include bibliographic, chemical, 
# crystal, experimental, refinement or atomic coordinate data resulting 
# from the CCDC's data processing and validation procedures.
#
#######################################################################

data_KEHXOL
_chemical_formula_moiety         'C26 H41 N3 O7'
_chemical_name_systematic        
'N-t-Butoxycarbonyltyrosyl-valyl-leucine methyl ester'
_symmetry_cell_setting           triclinic
_symmetry_space_group_name_H-M   'P 1'
_symmetry_Int_Tables_number      1
_space_group_name_Hall           'P 1'
loop_
_symmetry_equiv_pos_site_id
_symmetry_equiv_pos_as_xyz
1 x,y,z
_cell_length_a                   5.021(7)
_cell_length_b                   10.435(12)
_cell_length_c                   14.009(15)
_cell_angle_alpha                80.26(1)
_cell_angle_beta                 87.91(1)
_cell_angle_gamma                80.23(1)
_cell_volume                     712.895
_exptl_crystal_colour            white
_exptl_crystal_description       needle
_chemical_melting_point          '76-78 deg.C'
_cell_formula_units_Z            1
_exptl_crystal_recrystallization_method methanol/water
loop_
_atom_site_label
_atom_site_type_symbol
_atom_site_fract_x
_atom_site_fract_y
_atom_site_fract_z
O1 O -0.0898(5) -0.0064(3) 0.1029(2)
C1 C 0.1082(8) -0.0782(5) 0.0406(4)
C2 C 0.3094(13) -0.1760(5) 0.1041(5)
H1 H 0.4358 -0.1305 0.1288
H2 H 0.4045 -0.2389 0.0670
H3 H 0.2163 -0.2210 0.1572
C3 C 0.2397(11) 0.0195(6) -0.0306(3)
H4 H 0.1081 0.0962 -0.0521
H5 H 0.3087 -0.0206 -0.0852
H6 H 0.3852 0.0447 0.0006
C4 C -0.0683(13) -0.1447(12) -0.0131(9)
H7 H -0.1447 -0.2091 0.0318
H8 H 0.0383 -0.1873 -0.0607
H9 H -0.2109 -0.0800 -0.0447
C5 C -0.0119(7) 0.0787(3) 0.1539(2)
O2 O 0.2175(5) 0.1019(3) 0.15489(19)
N1 N -0.2212(6) 0.1331(3) 0.20447(19)
H10 H -0.3644 0.0976 0.2138
C6 C -0.2050(7) 0.2529(3) 0.2437(2)
H11 H -0.0159 0.2651 0.2442
C7 C -0.3729(8) 0.3748(4) 0.1806(3)
H12 H -0.5624 0.3660 0.1854
H13 H -0.3533 0.4535 0.2060
C8 C -0.2881(7) 0.3913(4) 0.0749(2)
C9 C -0.0942(9) 0.4663(4) 0.0376(3)
H14 H -0.0170 0.5114 0.0782
C10 C -0.0116(9) 0.4759(5) -0.0588(3)
H15 H 0.1172 0.5281 -0.0822
C11 C -0.1214(8) 0.4078(4) -0.1201(3)
C12 C -0.3164(9) 0.3331(4) -0.0843(3)
H16 H -0.3925 0.2876 -0.1250
C13 C -0.3993(8) 0.3253(4) 0.0110(3)
H17 H -0.5321 0.2752 0.0335
O3 O -0.0441(7) 0.4090(4) -0.2151(2)
H18 H 0.0573 0.4631 -0.2305
C14 C -0.3189(6) 0.2404(3) 0.3474(2)
O4 O -0.5582(5) 0.2303(3) 0.36350(18)
N2 N -0.1434(5) 0.2449(3) 0.41546(18)
H19 H 0.0219 0.2487 0.3987
C15 C -0.2196(7) 0.2437(3) 0.5180(2)
H20 H -0.4147 0.2440 0.5247
C16 C -0.0725(10) 0.1217(4) 0.5841(3)
H21 H 0.1225 0.1217 0.5773
C17 C -0.1329(15) -0.0046(5) 0.5556(4)
H22 H -0.3249 -0.0001 0.5521
H23 H -0.0594 -0.0785 0.6031
H24 H -0.0525 -0.0148 0.4935
C18 C -0.1531(17) 0.1272(6) 0.6905(4)
H25 H -0.3460 0.1359 0.6973
H26 H -0.0937 0.2015 0.7101
H27 H -0.0699 0.0476 0.7307
C19 C -0.1573(7) 0.3722(3) 0.5454(2)
O5 O 0.0759(5) 0.3922(3) 0.54614(19)
N3 N -0.3744(5) 0.4595(3) 0.56327(19)
H28 H -0.5323 0.4378 0.5639
C20 C -0.3488(7) 0.5905(3) 0.5816(3)
H29 H -0.1574 0.5992 0.5806
C21 C -0.5043(11) 0.7016(4) 0.5054(3)
H30 H -0.6687 0.6735 0.4888
H31 H -0.5570 0.7795 0.5354
C22 C -0.3527(15) 0.7401(6) 0.4129(4)
H32 H -0.1804 0.7615 0.4307
C23 C -0.516(2) 0.8668(7) 0.3567(5)
H33 H -0.4182 0.8965 0.2994
H34 H -0.5457 0.9339 0.3968
H35 H -0.6875 0.8490 0.3387
C24 C -0.292(3) 0.6354(8) 0.3536(5)
H36 H -0.4458 0.5921 0.3532
H37 H -0.1397 0.5725 0.3803
H38 H -0.2501 0.6731 0.2886
C25 C -0.4725(8) 0.6137(4) 0.6789(3)
O6 O -0.6515(7) 0.5621(3) 0.7194(2)
O7 O -0.3680(7) 0.7065(3) 0.7109(2)
C26 C -0.4916(16) 0.7496(6) 0.7982(4)
H39 H -0.6804 0.7823 0.7873
H40 H -0.4052 0.8184 0.8143
H41 H -0.4708 0.6766 0.8507
loop_
_geom_bond_atom_site_label_1
_geom_bond_atom_site_label_2
_geom_bond_site_symmetry_1
_geom_bond_site_symmetry_2
O1 C1 1_555 1_555
C1 C2 1_555 1_555
C2 H1 1_555 1_555
H2 C2 1_555 1_555
H3 C2 1_555 1_555
C3 C1 1_555 1_555
H4 C3 1_555 1_555
H5 C3 1_555 1_555
H6 C3 1_555 1_555
C4 C1 1_555 1_555
H7 C4 1_555 1_555
H8 C4 1_555 1_555
H9 C4 1_555 1_555
C5 O1 1_555 1_555
O2 C5 1_555 1_555
N1 C5 1_555 1_555
H10 N1 1_555 1_555
C6 N1 1_555 1_555
H11 C6 1_555 1_555
C7 C6 1_555 1_555
H12 C7 1_555 1_555
H13 C7 1_555 1_555
C8 C7 1_555 1_555
C9 C8 1_555 1_555
H14 C9 1_555 1_555
C10 C9 1_555 1_555
H15 C10 1_555 1_555
C11 C10 1_555 1_555
C12 C11 1_555 1_555
H16 C12 1_555 1_555
C13 C8 1_555 1_555
H17 C13 1_555 1_555
O3 C11 1_555 1_555
H18 O3 1_555 1_555
C14 C6 1_555 1_555
O4 C14 1_555 1_555
N2 C14 1_555 1_555
H19 N2 1_555 1_555
C15 N2 1_555 1_555
H20 C15 1_555 1_555
C16 C15 1_555 1_555
H21 C16 1_555 1_555
C17 C16 1_555 1_555
H22 C17 1_555 1_555
H23 C17 1_555 1_555
H24 C17 1_555 1_555
C18 C16 1_555 1_555
H25 C18 1_555 1_555
H26 C18 1_555 1_555
H27 C18 1_555 1_555
C19 C15 1_555 1_555
O5 C19 1_555 1_555
N3 C19 1_555 1_555
H28 N3 1_555 1_555
C20 N3 1_555 1_555
H29 C20 1_555 1_555
C21 C20 1_555 1_555
H30 C21 1_555 1_555
H31 C21 1_555 1_555
C22 C21 1_555 1_555
H32 C22 1_555 1_555
C23 C22 1_555 1_555
H33 C23 1_555 1_555
H34 C23 1_555 1_555
H35 C23 1_555 1_555
C24 C22 1_555 1_555
H36 C24 1_555 1_555
H37 C24 1_555 1_555
H38 C24 1_555 1_555
C25 C20 1_555 1_555
O6 C25 1_555 1_555
O7 C25 1_555 1_555
C26 O7 1_555 1_555
H39 C26 1_555 1_555
H40 C26 1_555 1_555
H41 C26 1_555 1_555
C12 C13 1_555 1_555

#END
