
#######################################################################
#
#                 Cambridge Crystallographic Data Centre
#                                CCDC 
#
#######################################################################
#
# If this CIF has been generated from an entry in the Cambridge 
# Structural Database, then it will include bibliographic, chemical, 
# crystal, experimental, refinement or atomic coordinate data resulting 
# from the CCDC's data processing and validation procedures.
#
#######################################################################

data_KEJDIP
_chemical_formula_moiety         'C10 H8 N2'
_chemical_name_systematic        1,2-diisocyano-4,5-dimethylbenzene
_symmetry_cell_setting           monoclinic
_symmetry_space_group_name_H-M   'C 2/c'
_symmetry_Int_Tables_number      15
_space_group_name_Hall           '-C 2yn'
loop_
_symmetry_equiv_pos_site_id
_symmetry_equiv_pos_as_xyz
1 x,y,z
2 -x,y,1/2-z
3 1/2+x,1/2+y,z
4 1/2-x,1/2+y,1/2-z
5 -x,-y,-z
6 x,-y,1/2+z
7 1/2-x,1/2-y,-z
8 1/2+x,1/2-y,1/2+z
_cell_length_a                   13.842(7)
_cell_length_b                   9.396(4)
_cell_length_c                   7.518(3)
_cell_angle_alpha                90
_cell_angle_beta                 119.209(9)
_cell_angle_gamma                90
_cell_volume                     853.457
_exptl_crystal_colour            orange
_exptl_crystal_description       plate
_cell_formula_units_Z            4
loop_
_atom_site_label
_atom_site_type_symbol
_atom_site_fract_x
_atom_site_fract_y
_atom_site_fract_z
C1 C 0.3903(2) 0.8057(2) 0.7339(3)
H1 H 0.318960 0.786321 0.720727
H2 H 0.381308 0.860759 0.619314
H3 H 0.434295 0.858085 0.857227
C2 C 0.44724(18) 0.6672(2) 0.7411(3)
C3 C 0.39547(17) 0.5385(2) 0.7306(3)
H4 H 0.325066 0.538113 0.717392
C4 C 0.44722(17) 0.4110(2) 0.7397(3)
C5 C 0.3527(2) 0.1732(2) 0.7202(4)
N1 N 0.39516(14) 0.28128(19) 0.7295(2)
C1A C 0.6097(2) 0.8057(2) 0.7661(3)
H1A H 0.681040 0.786321 0.779273
H2A H 0.618692 0.860759 0.880686
H3A H 0.565705 0.858085 0.642773
C2A C 0.55276(18) 0.6672(2) 0.7589(3)
C3A C 0.60453(17) 0.5385(2) 0.7694(3)
H4A H 0.674934 0.538113 0.782608
C4A C 0.55278(17) 0.4110(2) 0.7603(3)
C5A C 0.6473(2) 0.1732(2) 0.7798(4)
N1A N 0.60484(14) 0.28128(19) 0.7705(2)
loop_
_geom_bond_atom_site_label_1
_geom_bond_atom_site_label_2
_geom_bond_site_symmetry_1
_geom_bond_site_symmetry_2
C1 H1 1_555 1_555
H2 C1 1_555 1_555
H3 C1 1_555 1_555
C2 C1 1_555 1_555
C3 C2 1_555 1_555
H4 C3 1_555 1_555
C4 C3 1_555 1_555
C5 N1 1_555 1_555
N1 C4 1_555 1_555
C1A H1A 1_555 1_555
H2A C1A 1_555 1_555
H3A C1A 1_555 1_555
C2A C2 1_555 1_555
C3A C2A 1_555 1_555
H4A C3A 1_555 1_555
C4A C4 1_555 1_555
C5A N1A 1_555 1_555
N1A C4A 1_555 1_555
C1A C2A 1_555 1_555
C3A C4A 1_555 1_555

#END
