
#######################################################################
#
#                 Cambridge Crystallographic Data Centre
#                                CCDC 
#
#######################################################################
#
# If this CIF has been generated from an entry in the Cambridge 
# Structural Database, then it will include bibliographic, chemical, 
# crystal, experimental, refinement or atomic coordinate data resulting 
# from the CCDC's data processing and validation procedures.
#
#######################################################################

data_KEJFAJ
_chemical_formula_moiety         'C27 H27 Br1 N2 O4'
_chemical_name_systematic        
'benzyl [1-benzyl-6-bromo-3-(1-hydroxybutan-2-yl)-2-oxo-2,3-dihydro-1H-indol-3-yl]carbamate'
_symmetry_cell_setting           monoclinic
_symmetry_space_group_name_H-M   'P 21'
_symmetry_Int_Tables_number      4
_space_group_name_Hall           'P 2yb'
loop_
_symmetry_equiv_pos_site_id
_symmetry_equiv_pos_as_xyz
1 x,y,z
2 -x,1/2+y,-z
_cell_length_a                   11.588(2)
_cell_length_b                   8.9937(18)
_cell_length_c                   12.962(3)
_cell_angle_alpha                90
_cell_angle_beta                 109.504(3)
_cell_angle_gamma                90
_cell_volume                     1273.37
_exptl_crystal_colour            colorless
_exptl_crystal_description       block
_cell_formula_units_Z            2
loop_
_atom_site_label
_atom_site_type_symbol
_atom_site_fract_x
_atom_site_fract_y
_atom_site_fract_z
Br1 Br -0.12223(7) 0.04352(13) 0.72573(7)
O1 O 0.3666(5) 0.2654(6) 0.4905(4)
O2 O 0.4172(5) -0.2823(7) 0.5433(5)
H1 H 0.4802 -0.2817 0.5276
O3 O 0.1108(5) 0.0865(7) 0.3400(4)
O4 O 0.1907(5) -0.0859(6) 0.2568(4)
N1 N 0.2213(5) 0.2557(6) 0.5742(4)
N2 N 0.2792(5) -0.0456(7) 0.4325(5)
H2 H 0.3291 -0.1139 0.4275
C1 C 0.1921(6) 0.0044(7) 0.5820(5)
C2 C 0.1344(7) -0.1232(9) 0.6015(6)
H3 H 0.1588 -0.2164 0.5856
C3 C 0.0408(7) -0.1105(9) 0.6444(6)
H4 H 0.0008 -0.1945 0.6572
C4 C 0.0076(5) 0.0308(12) 0.6681(5)
C5 C 0.0611(7) 0.1586(9) 0.6485(6)
H5 H 0.0358 0.2516 0.6640
C6 C 0.1544(6) 0.1440(8) 0.6045(6)
C7 C 0.2975(5) 0.0255(9) 0.5379(5)
C8 C 0.2992(6) 0.1965(9) 0.5279(6)
C9 C 0.4231(6) -0.0264(8) 0.6181(5)
H6 H 0.4851 0.0013 0.5853
C10 C 0.4341(7) -0.1951(9) 0.6379(7)
H7 H 0.5146 -0.2163 0.6900
H8 H 0.3741 -0.2252 0.6710
C11 C 0.4584(6) 0.0522(13) 0.7311(5)
H9 H 0.4128 0.1444 0.7229
H10 H 0.4344 -0.0107 0.7813
C12 C 0.5910(7) 0.0854(16) 0.7793(7)
H11 H 0.6154 0.1487 0.7306
H12 H 0.6367 -0.0057 0.7902
H13 H 0.6066 0.1346 0.8484
C13 C 0.1857(8) -0.0061(9) 0.3429(7)
C14 C 0.0952(7) -0.0586(11) 0.1533(6)
H14 H 0.0297 -0.0021 0.1657
H15 H 0.0617 -0.1526 0.1199
C15 C 0.1452(6) 0.0265(13) 0.0774(6)
C16 C 0.1732(8) -0.0462(12) -0.0051(8)
H16 H 0.1590 -0.1477 -0.0157
C17 C 0.2230(8) 0.034(2) -0.0728(7)
H17 H 0.2417 -0.0156 -0.1283
C18 C 0.2440(10) 0.1785(18) -0.0587(9)
H18 H 0.2792 0.2297 -0.1030
C19 C 0.2138(12) 0.2531(14) 0.0213(11)
H19 H 0.2258 0.3552 0.0298
C20 C 0.1648(11) 0.1735(13) 0.0899(8)
H20 H 0.1455 0.2233 0.1449
C21 C 0.2097(6) 0.4160(8) 0.5878(6)
H21 H 0.1237 0.4404 0.5705
H22 H 0.2392 0.4680 0.5359
C22 C 0.2792(7) 0.4708(8) 0.7017(6)
C23 C 0.2208(7) 0.5350(11) 0.7660(6)
H23 H 0.1359 0.5439 0.7416
C24 C 0.2918(12) 0.5872(12) 0.8701(8)
H24 H 0.2535 0.6311 0.9150
C25 C 0.4158(12) 0.5743(15) 0.9058(8)
H25 H 0.4612 0.6091 0.9751
C26 C 0.4733(8) 0.5126(13) 0.8430(8)
H26 H 0.5582 0.5055 0.8684
C27 C 0.4071(7) 0.4592(9) 0.7405(7)
H27 H 0.4475 0.4154 0.6971
loop_
_geom_bond_atom_site_label_1
_geom_bond_atom_site_label_2
_geom_bond_site_symmetry_1
_geom_bond_site_symmetry_2
Br1 C4 1_555 1_555
O1 C8 1_555 1_555
O2 H1 1_555 1_555
O3 C13 1_555 1_555
O4 C13 1_555 1_555
N1 C6 1_555 1_555
N2 H2 1_555 1_555
C1 C2 1_555 1_555
C2 H3 1_555 1_555
C3 C2 1_555 1_555
H4 C3 1_555 1_555
C4 C3 1_555 1_555
C5 C4 1_555 1_555
H5 C5 1_555 1_555
C6 C1 1_555 1_555
C7 N2 1_555 1_555
C8 N1 1_555 1_555
C9 C7 1_555 1_555
H6 C9 1_555 1_555
C10 O2 1_555 1_555
H7 C10 1_555 1_555
H8 C10 1_555 1_555
C11 C9 1_555 1_555
H9 C11 1_555 1_555
H10 C11 1_555 1_555
C12 C11 1_555 1_555
H11 C12 1_555 1_555
H12 C12 1_555 1_555
H13 C12 1_555 1_555
C13 N2 1_555 1_555
C14 O4 1_555 1_555
H14 C14 1_555 1_555
H15 C14 1_555 1_555
C15 C14 1_555 1_555
C16 C15 1_555 1_555
H16 C16 1_555 1_555
C17 C16 1_555 1_555
H17 C17 1_555 1_555
C18 C17 1_555 1_555
H18 C18 1_555 1_555
C19 C18 1_555 1_555
H19 C19 1_555 1_555
C20 C15 1_555 1_555
H20 C20 1_555 1_555
C21 N1 1_555 1_555
H21 C21 1_555 1_555
H22 C21 1_555 1_555
C22 C21 1_555 1_555
C23 C22 1_555 1_555
H23 C23 1_555 1_555
C24 C23 1_555 1_555
H24 C24 1_555 1_555
C25 C24 1_555 1_555
H25 C25 1_555 1_555
C26 C25 1_555 1_555
H26 C26 1_555 1_555
C27 C22 1_555 1_555
H27 C27 1_555 1_555
C1 C7 1_555 1_555
C5 C6 1_555 1_555
C7 C8 1_555 1_555
C9 C10 1_555 1_555
C19 C20 1_555 1_555
C26 C27 1_555 1_555

#END
