
#######################################################################
#
#                 Cambridge Crystallographic Data Centre
#                                CCDC 
#
#######################################################################
#
# If this CIF has been generated from an entry in the Cambridge 
# Structural Database, then it will include bibliographic, chemical, 
# crystal, experimental, refinement or atomic coordinate data resulting 
# from the CCDC's data processing and validation procedures.
#
#######################################################################

data_KEJHEP
_chemical_formula_moiety         'C19 H28 N2 O7'
_chemical_name_systematic        
't-butyl 3-[(2,2-dimethyl-1,3-dioxolan-4-yl)(methoxy)methyl]-6-oxo-3a,6,7,7a-tetrahydro-4,7-methano[1,2]oxazolo[4,5-c]pyridine-5(4H)-carboxylate'
_symmetry_cell_setting           tetragonal
_symmetry_space_group_name_H-M   'P 43 21 2'
_symmetry_Int_Tables_number      96
_space_group_name_Hall           'P 4nw 2abw'
loop_
_symmetry_equiv_pos_site_id
_symmetry_equiv_pos_as_xyz
1 x,y,z
2 -x,-y,1/2+z
3 1/2-y,1/2+x,3/4+z
4 1/2+y,1/2-x,1/4+z
5 1/2-x,1/2+y,3/4-z
6 1/2+x,1/2-y,1/4-z
7 y,x,-z
8 -y,-x,1/2-z
_cell_length_a                   8.2526(2)
_cell_length_b                   8.2526(2)
_cell_length_c                   60.866(3)
_cell_angle_alpha                90
_cell_angle_beta                 90
_cell_angle_gamma                90
_cell_volume                     4145.3
_cell_formula_units_Z            8
loop_
_atom_site_label
_atom_site_type_symbol
_atom_site_fract_x
_atom_site_fract_y
_atom_site_fract_z
O1 O 0.6720(4) 0.0464(3) 0.18050(4)
O2 O 0.3948(4) 0.4757(4) 0.20120(4)
O3 O 0.8220(4) 0.5337(5) 0.21104(5)
O4 O 0.7174(5) 0.6372(7) 0.24257(5)
O5 O 0.7542(4) 0.5273(3) 0.10365(4)
O6 O 0.7392(4) 0.6705(4) 0.13531(5)
O7 O 0.7973(4) 0.1965(4) 0.10939(4)
N1 N 0.6316(4) 0.1481(4) 0.19844(5)
N2 N 0.7930(4) 0.4025(4) 0.13613(5)
C1 C 0.7986(5) 0.3957(5) 0.16041(6)
H1 H 0.8258 0.5002 0.1679
C2 C 0.6357(4) 0.3168(5) 0.16748(6)
H2 H 0.5399 0.3681 0.1602
C3 C 0.6620(5) 0.1394(5) 0.16013(6)
H3 H 0.5741 0.0998 0.1502
C4 C 0.8294(5) 0.1411(5) 0.14883(6)
H4 H 0.8812 0.0329 0.1465
C5 C 0.9213(5) 0.2584(6) 0.16371(7)
H5 H 1.0307 0.2854 0.1581
H6 H 0.9277 0.2209 0.1791
C6 C 0.6114(5) 0.2935(5) 0.19179(6)
C7 C 0.5527(5) 0.4212(5) 0.20745(6)
H7 H 0.5490 0.3760 0.2227
C8 C 0.6572(6) 0.5731(6) 0.20713(7)
H8 H 0.6458 0.6299 0.1927
C9 C 0.6116(9) 0.6876(7) 0.22596(8)
H9 H 0.6305 0.8022 0.2219
H10 H 0.4970 0.6735 0.2304
C10 C 0.8645(7) 0.5909(14) 0.23220(8)
C11 C 0.9265(10) 0.4326(17) 0.24436(11)
H11 H 0.8385 0.3530 0.2451
H12 H 0.9614 0.4604 0.2593
H13 H 1.0180 0.3864 0.2362
C12 C 0.9851(12) 0.7154(16) 0.23106(14)
H14 H 0.9412 0.8092 0.2232
H15 H 1.0805 0.6743 0.2232
H16 H 1.0162 0.7480 0.2460
C13 C 0.8065(4) 0.2442(5) 0.12831(6)
C14 C 0.7586(4) 0.5469(5) 0.12521(6)
C15 C 0.7493(5) 0.6720(5) 0.08890(6)
C16 C 0.8971(6) 0.7766(6) 0.09359(7)
H17 H 0.8871 0.8247 0.1082
H18 H 0.9044 0.8628 0.0826
H19 H 0.9949 0.7095 0.0930
C17 C 0.7608(7) 0.5955(6) 0.06630(7)
H20 H 0.6645 0.5289 0.0636
H21 H 0.8579 0.5274 0.0655
H22 H 0.7674 0.6809 0.0551
C18 C 0.5943(6) 0.7640(7) 0.09186(9)
H23 H 0.5023 0.6928 0.0886
H24 H 0.5927 0.8569 0.0818
H25 H 0.5865 0.8025 0.1071
C19 C 0.2764(5) 0.3523(6) 0.20113(7)
H26 H 0.1717 0.3982 0.1968
H27 H 0.2675 0.3056 0.2159
H28 H 0.3079 0.2676 0.1907
loop_
_geom_bond_atom_site_label_1
_geom_bond_atom_site_label_2
_geom_bond_site_symmetry_1
_geom_bond_site_symmetry_2
O1 N1 1_555 1_555
O2 C7 1_555 1_555
O3 C8 1_555 1_555
O4 C9 1_555 1_555
O5 C14 1_555 1_555
O6 C14 1_555 1_555
O7 C13 1_555 1_555
N1 C6 1_555 1_555
N2 C1 1_555 1_555
C1 H1 1_555 1_555
C2 C1 1_555 1_555
H2 C2 1_555 1_555
C3 O1 1_555 1_555
H3 C3 1_555 1_555
C4 C3 1_555 1_555
H4 C4 1_555 1_555
C5 C1 1_555 1_555
H5 C5 1_555 1_555
H6 C5 1_555 1_555
C6 C2 1_555 1_555
C7 C6 1_555 1_555
H7 C7 1_555 1_555
C8 C7 1_555 1_555
H8 C8 1_555 1_555
C9 C8 1_555 1_555
H9 C9 1_555 1_555
H10 C9 1_555 1_555
C10 O3 1_555 1_555
C11 C10 1_555 1_555
H11 C11 1_555 1_555
H12 C11 1_555 1_555
H13 C11 1_555 1_555
C12 C10 1_555 1_555
H14 C12 1_555 1_555
H15 C12 1_555 1_555
H16 C12 1_555 1_555
C13 N2 1_555 1_555
C14 N2 1_555 1_555
C15 O5 1_555 1_555
C16 C15 1_555 1_555
H17 C16 1_555 1_555
H18 C16 1_555 1_555
H19 C16 1_555 1_555
C17 C15 1_555 1_555
H20 C17 1_555 1_555
H21 C17 1_555 1_555
H22 C17 1_555 1_555
C18 C15 1_555 1_555
H23 C18 1_555 1_555
H24 C18 1_555 1_555
H25 C18 1_555 1_555
C19 O2 1_555 1_555
H26 C19 1_555 1_555
H27 C19 1_555 1_555
H28 C19 1_555 1_555
O4 C10 1_555 1_555
C2 C3 1_555 1_555
C4 C5 1_555 1_555
C4 C13 1_555 1_555

#END
