
#######################################################################
#
#                 Cambridge Crystallographic Data Centre
#                                CCDC 
#
#######################################################################
#
# If this CIF has been generated from an entry in the Cambridge 
# Structural Database, then it will include bibliographic, chemical, 
# crystal, experimental, refinement or atomic coordinate data resulting 
# from the CCDC's data processing and validation procedures.
#
#######################################################################

data_KEJQEY
_chemical_formula_moiety         'C14 H17 N1 O1'
_chemical_name_systematic        4-ethyl-3-propylisoquinolin-1(2H)-one
_symmetry_cell_setting           triclinic
_symmetry_space_group_name_H-M   'P -1'
_symmetry_Int_Tables_number      2
_space_group_name_Hall           '-P 1'
loop_
_symmetry_equiv_pos_site_id
_symmetry_equiv_pos_as_xyz
1 x,y,z
2 -x,-y,-z
_cell_length_a                   7.3589(13)
_cell_length_b                   9.0146(17)
_cell_length_c                   9.1003(18)
_cell_angle_alpha                85.641(11)
_cell_angle_beta                 78.241(11)
_cell_angle_gamma                84.629(13)
_cell_volume                     587.423
_exptl_crystal_colour            colorless
_exptl_crystal_description       plate
_cell_formula_units_Z            2
loop_
_atom_site_label
_atom_site_type_symbol
_atom_site_fract_x
_atom_site_fract_y
_atom_site_fract_z
O1 O 0.8909(2) 0.32910(16) 0.01286(17)
N1 N 0.7728(3) 0.54367(19) 0.12363(19)
H1 H 0.889(4) 0.582(3) 0.082(3)
C1 C 0.7562(3) 0.4026(2) 0.0878(2)
C2 C 0.5718(3) 0.3480(2) 0.1395(2)
C3 C 0.5438(3) 0.2022(2) 0.1102(2)
H2 H 0.6461 0.1386 0.0633
C4 C 0.3698(3) 0.1505(2) 0.1486(2)
H3 H 0.3515 0.0514 0.1294
C5 C 0.2197(3) 0.2451(2) 0.2162(2)
H4 H 0.0987 0.2103 0.2406
C6 C 0.2441(3) 0.3871(2) 0.2481(2)
H5 H 0.14 0.4488 0.2951
C7 C 0.4230(3) 0.4436(2) 0.2120(2)
C8 C 0.4545(3) 0.5934(2) 0.2437(2)
C9 C 0.2949(3) 0.6934(2) 0.3247(2)
H6 H 0.186 0.6902 0.277
H7 H 0.3309 0.7974 0.3124
C10 C 0.2376(3) 0.6503(3) 0.4929(2)
H8 H 0.2001 0.5479 0.5063
H9 H 0.133 0.7185 0.5379
H10 H 0.3431 0.6569 0.542
C11 C 0.6294(3) 0.6391(2) 0.1980(2)
C12 C 0.6910(3) 0.7891(2) 0.2216(2)
H11 H 0.5906 0.8671 0.2088
H12 H 0.8019 0.8101 0.1433
C13 C 0.7385(3) 0.7987(2) 0.3762(3)
H13 H 0.6276 0.7795 0.455
H14 H 0.8388 0.7209 0.3898
C14 C 0.8013(4) 0.9512(3) 0.3937(3)
H15 H 0.9113 0.9702 0.3158
H16 H 0.8323 0.9535 0.4931
H17 H 0.7007 1.0281 0.3833
loop_
_geom_bond_atom_site_label_1
_geom_bond_atom_site_label_2
_geom_bond_site_symmetry_1
_geom_bond_site_symmetry_2
O1 C1 1_555 1_555
N1 H1 1_555 1_555
C1 N1 1_555 1_555
C2 C1 1_555 1_555
C3 C2 1_555 1_555
H2 C3 1_555 1_555
C4 C3 1_555 1_555
H3 C4 1_555 1_555
C5 C4 1_555 1_555
H4 C5 1_555 1_555
C6 C5 1_555 1_555
H5 C6 1_555 1_555
C7 C2 1_555 1_555
C8 C7 1_555 1_555
C9 C8 1_555 1_555
H6 C9 1_555 1_555
H7 C9 1_555 1_555
C10 C9 1_555 1_555
H8 C10 1_555 1_555
H9 C10 1_555 1_555
H10 C10 1_555 1_555
C11 N1 1_555 1_555
C12 C11 1_555 1_555
H11 C12 1_555 1_555
H12 C12 1_555 1_555
C13 C12 1_555 1_555
H13 C13 1_555 1_555
H14 C13 1_555 1_555
C14 C13 1_555 1_555
H15 C14 1_555 1_555
H16 C14 1_555 1_555
H17 C14 1_555 1_555
C6 C7 1_555 1_555
C8 C11 1_555 1_555

#END
