
#######################################################################
#
#                 Cambridge Crystallographic Data Centre
#                                CCDC 
#
#######################################################################
#
# If this CIF has been generated from an entry in the Cambridge 
# Structural Database, then it will include bibliographic, chemical, 
# crystal, experimental, refinement or atomic coordinate data resulting 
# from the CCDC's data processing and validation procedures.
#
#######################################################################

data_KEJSIE
_chemical_formula_moiety         'C30 H30 S1'
_chemical_name_systematic        
2-[4-([1,1'-biphenyl]-4-yl)-2,6,6-trimethylhepta-1,4-dien-3-yl]-1-benzothiophene
_symmetry_cell_setting           monoclinic
_symmetry_space_group_name_H-M   'P 21'
_symmetry_Int_Tables_number      4
_space_group_name_Hall           'P 2yb'
loop_
_symmetry_equiv_pos_site_id
_symmetry_equiv_pos_as_xyz
1 x,y,z
2 -x,1/2+y,-z
_cell_length_a                   10.3431(3)
_cell_length_b                   11.3731(4)
_cell_length_c                   11.2407(3)
_cell_angle_alpha                90
_cell_angle_beta                 110.471(2)
_cell_angle_gamma                90
_cell_volume                     1238.78
_exptl_crystal_colour            colorless
_exptl_crystal_description       block
_cell_formula_units_Z            2
loop_
_atom_site_label
_atom_site_type_symbol
_atom_site_fract_x
_atom_site_fract_y
_atom_site_fract_z
S1 S 2.06772(9) -0.48179(9) 0.86903(9)
C1 C 1.8018(3) -0.2465(3) 0.6276(3)
C2 C 1.7089(3) -0.2192(3) 0.6992(3)
C3 C 1.5964(4) -0.2896(3) 0.6914(4)
H1 H 1.5780 -0.3564 0.6404
C4 C 1.5114(4) -0.2615(3) 0.7585(4)
H2 H 1.4371 -0.3104 0.7517
C5 C 1.5328(3) -0.1634(3) 0.8353(3)
C6 C 1.6482(3) -0.0951(3) 0.8451(4)
H3 H 1.6677 -0.0292 0.8974
C7 C 1.7336(4) -0.1233(3) 0.7792(3)
H4 H 1.8102 -0.0763 0.7888
C8 C 1.7705(4) -0.2415(4) 0.5026(3)
H5 H 1.8421 -0.2646 0.4757
C9 C 1.6394(4) -0.2050(4) 0.3945(4)
C10 C 1.5453(5) -0.3125(5) 0.3522(5)
H6 H 1.5157 -0.3374 0.4201
H7 H 1.5950 -0.3751 0.3302
H8 H 1.4662 -0.2922 0.2795
C11 C 1.5610(5) -0.1052(5) 0.4298(5)
H9 H 1.5325 -0.1298 0.4986
H10 H 1.4811 -0.0855 0.3577
H11 H 1.6198 -0.0376 0.4553
C12 C 1.6838(5) -0.1668(7) 0.2841(5)
H12 H 1.7327 -0.2300 0.2619
H13 H 1.7430 -0.0994 0.3088
H14 H 1.6037 -0.1472 0.2122
C13 C 2.0499(5) -0.7272(5) 0.8870(4)
H15 H 2.1249 -0.7284 0.9628
C14 C 1.9827(5) -0.8301(5) 0.8340(5)
H16 H 2.0139 -0.9018 0.8733
C15 C 1.2873(5) -0.1857(6) 1.0157(4)
H17 H 1.2417 -0.2436 1.0441
C16 C 2.0583(4) -0.2555(4) 0.6588(4)
C17 C 1.2706(5) -0.0695(6) 1.0417(4)
H18 H 1.2137 -0.0490 1.0868
C18 C 1.8699(6) -0.8267(5) 0.7232(5)
H19 H 1.8265 -0.8967 0.6886
C19 C 1.8201(5) -0.7233(5) 0.6628(4)
H20 H 1.7421 -0.7227 0.5896
C20 C 2.1229(4) -0.3347(6) 0.6141(5)
H21 H 2.1910 -0.3113 0.5828
H22 H 2.1002 -0.4138 0.6140
C21 C 1.8556(3) -0.5005(3) 0.6647(3)
H23 H 1.7818 -0.4822 0.5913
C22 C 1.8879(4) -0.6181(4) 0.7126(3)
C23 C 1.3376(4) 0.0139(6) 1.0011(4)
H24 H 1.3271 0.0925 1.0187
C24 C 1.3701(4) -0.2176(5) 0.9484(4)
H25 H 1.3788 -0.2964 0.9304
C25 C 1.4221(4) -0.0154(4) 0.9333(4)
H26 H 1.4665 0.0437 0.9052
C26 C 1.9469(3) -0.2896(3) 0.7117(3)
H27 H 1.9693 -0.2499 0.7938
C27 C 2.0895(5) -0.1273(5) 0.6617(5)
H28 H 2.1599 -0.1141 0.6257
H29 H 2.1213 -0.1000 0.7480
H30 H 2.0075 -0.0852 0.6134
C28 C 1.4413(3) -0.1314(4) 0.9071(3)
C29 C 1.9424(3) -0.4198(3) 0.7365(3)
C30 C 2.0026(4) -0.6231(4) 0.8246(3)
loop_
_geom_bond_atom_site_label_1
_geom_bond_atom_site_label_2
_geom_bond_site_symmetry_1
_geom_bond_site_symmetry_2
S1 C29 1_555 1_555
C1 C2 1_555 1_555
C2 C3 1_555 1_555
C3 H1 1_555 1_555
C4 C3 1_555 1_555
H2 C4 1_555 1_555
C5 C4 1_555 1_555
C6 C5 1_555 1_555
H3 C6 1_555 1_555
C7 C2 1_555 1_555
H4 C7 1_555 1_555
C8 C1 1_555 1_555
H5 C8 1_555 1_555
C9 C8 1_555 1_555
C10 C9 1_555 1_555
H6 C10 1_555 1_555
H7 C10 1_555 1_555
H8 C10 1_555 1_555
C11 C9 1_555 1_555
H9 C11 1_555 1_555
H10 C11 1_555 1_555
H11 C11 1_555 1_555
C12 C9 1_555 1_555
H12 C12 1_555 1_555
H13 C12 1_555 1_555
H14 C12 1_555 1_555
C13 H15 1_555 1_555
C14 C13 1_555 1_555
H16 C14 1_555 1_555
C15 H17 1_555 1_555
C16 C20 1_555 1_555
C17 C15 1_555 1_555
H18 C17 1_555 1_555
C18 C14 1_555 1_555
H19 C18 1_555 1_555
C19 C18 1_555 1_555
H20 C19 1_555 1_555
C20 H21 1_555 1_555
H22 C20 1_555 1_555
C21 H23 1_555 1_555
C22 C19 1_555 1_555
C23 C17 1_555 1_555
H24 C23 1_555 1_555
C24 C15 1_555 1_555
H25 C24 1_555 1_555
C25 C23 1_555 1_555
H26 C25 1_555 1_555
C26 C1 1_555 1_555
H27 C26 1_555 1_555
C27 C16 1_555 1_555
H28 C27 1_555 1_555
H29 C27 1_555 1_555
H30 C27 1_555 1_555
C28 C5 1_555 1_555
C29 C21 1_555 1_555
C30 S1 1_555 1_555
C6 C7 1_555 1_555
C13 C30 1_555 1_555
C16 C26 1_555 1_555
C21 C22 1_555 1_555
C22 C30 1_555 1_555
C24 C28 1_555 1_555
C25 C28 1_555 1_555
C26 C29 1_555 1_555

#END
