
#######################################################################
#
#                 Cambridge Crystallographic Data Centre
#                                CCDC 
#
#######################################################################
#
# If this CIF has been generated from an entry in the Cambridge 
# Structural Database, then it will include bibliographic, chemical, 
# crystal, experimental, refinement or atomic coordinate data resulting 
# from the CCDC's data processing and validation procedures.
#
#######################################################################

data_KEJXOP
_chemical_formula_moiety         'C20 H19 N3 O2'
_chemical_name_systematic        
1-benzyl-3-ethenyl-8-methoxy-2,3-dihydroimidazo[2,1-b]quinazolin-5(1H)-one
_symmetry_cell_setting           orthorhombic
_symmetry_space_group_name_H-M   'P 21 21 21'
_symmetry_Int_Tables_number      19
_space_group_name_Hall           'P 2ac 2ab'
loop_
_symmetry_equiv_pos_site_id
_symmetry_equiv_pos_as_xyz
1 x,y,z
2 1/2-x,-y,1/2+z
3 -x,1/2+y,1/2-z
4 1/2+x,1/2-y,-z
_cell_length_a                   5.54010(10)
_cell_length_b                   12.5895(3)
_cell_length_c                   24.1764(6)
_cell_angle_alpha                90
_cell_angle_beta                 90
_cell_angle_gamma                90
_cell_volume                     1686.23
_exptl_crystal_colour            colorless
_exptl_crystal_description       block
_cell_formula_units_Z            4
_exptl_crystal_recrystallization_method dichloromethane/Hexane
loop_
_atom_site_label
_atom_site_type_symbol
_atom_site_fract_x
_atom_site_fract_y
_atom_site_fract_z
O1 O 0.8451(4) 0.33346(16) 0.78728(8)
O2 O 0.0775(4) 0.18564(15) 0.60594(8)
N1 N 0.1660(4) 0.47124(15) 0.68642(8)
N2 N -0.1545(4) 0.52306(15) 0.62849(8)
N3 N -0.0148(4) 0.35979(15) 0.61824(8)
C1 C -0.1927(4) 0.71493(18) 0.61353(9)
C2 C 0.0097(4) 0.45322(18) 0.64748(9)
C3 C -0.3711(5) 0.7908(2) 0.61134(10)
H1 H -0.5051 0.7846 0.6343
C4 C 0.3185(5) 0.38675(18) 0.69831(9)
C5 C 0.1175(5) 0.26868(19) 0.63028(10)
C6 C 0.5011(5) 0.4041(2) 0.73745(10)
H2 H 0.5146 0.4697 0.7548
C7 C 0.3003(5) 0.28713(19) 0.67260(10)
C8 C -0.2058(5) 0.6248(2) 0.65414(10)
H3 H -0.0907 0.6372 0.6837
H4 H -0.3658 0.6228 0.6704
C9 C -0.3184(5) 0.4756(2) 0.58905(10)
H5 H -0.3348 0.5198 0.5564
H6 H -0.4766 0.4648 0.6053
C10 C -0.1991(5) 0.3686(2) 0.57460(10)
H7 H -0.3169 0.3110 0.5783
C11 C 0.6603(5) 0.3238(2) 0.75016(10)
C12 C 0.0043(5) 0.7257(2) 0.57822(11)
H8 H 0.1264 0.6751 0.5788
C13 C -0.3542(5) 0.8763(2) 0.57557(11)
H9 H -0.4761 0.9270 0.5746
C14 C 0.4640(6) 0.2069(2) 0.68667(12)
H10 H 0.4517 0.1407 0.6698
C15 C 0.6414(5) 0.2245(2) 0.72470(12)
H11 H 0.7493 0.1706 0.7337
C16 C 0.0205(5) 0.8104(2) 0.54256(12)
H12 H 0.1524 0.8164 0.5190
C17 C -0.0961(6) 0.3694(2) 0.51705(11)
H13 H -0.2063 0.3717 0.4881
C18 C -0.1571(6) 0.8859(2) 0.54163(12)
H14 H -0.1442 0.9438 0.5179
C19 C 0.8831(6) 0.4336(3) 0.81212(12)
H15 H 0.9080 0.4861 0.7839
H16 H 1.0228 0.4304 0.8356
H17 H 0.7444 0.4525 0.8338
C20 C 0.1301(7) 0.3671(2) 0.50375(13)
H18 H 0.2474 0.3648 0.5312
H19 H 0.1753 0.3679 0.4667
loop_
_geom_bond_atom_site_label_1
_geom_bond_atom_site_label_2
_geom_bond_site_symmetry_1
_geom_bond_site_symmetry_2
O1 C11 1_555 1_555
O2 C5 1_555 1_555
N1 C2 1_555 1_555
N2 C2 1_555 1_555
N3 C2 1_555 1_555
C1 C3 1_555 1_555
C3 H1 1_555 1_555
C4 N1 1_555 1_555
C5 N3 1_555 1_555
C6 C4 1_555 1_555
H2 C6 1_555 1_555
C7 C4 1_555 1_555
C8 N2 1_555 1_555
H3 C8 1_555 1_555
H4 C8 1_555 1_555
C9 N2 1_555 1_555
H5 C9 1_555 1_555
H6 C9 1_555 1_555
C10 N3 1_555 1_555
H7 C10 1_555 1_555
C11 C6 1_555 1_555
C12 C1 1_555 1_555
H8 C12 1_555 1_555
C13 C3 1_555 1_555
H9 C13 1_555 1_555
C14 C7 1_555 1_555
H10 C14 1_555 1_555
C15 C11 1_555 1_555
H11 C15 1_555 1_555
C16 C12 1_555 1_555
H12 C16 1_555 1_555
C17 C10 1_555 1_555
H13 C17 1_555 1_555
C18 C13 1_555 1_555
H14 C18 1_555 1_555
C19 O1 1_555 1_555
H15 C19 1_555 1_555
H16 C19 1_555 1_555
H17 C19 1_555 1_555
C20 C17 1_555 1_555
H18 C20 1_555 1_555
H19 C20 1_555 1_555
C1 C8 1_555 1_555
C5 C7 1_555 1_555
C9 C10 1_555 1_555
C14 C15 1_555 1_555
C16 C18 1_555 1_555

#END
