
#######################################################################
#
#                 Cambridge Crystallographic Data Centre
#                                CCDC 
#
#######################################################################
#
# If this CIF has been generated from an entry in the Cambridge 
# Structural Database, then it will include bibliographic, chemical, 
# crystal, experimental, refinement or atomic coordinate data resulting 
# from the CCDC's data processing and validation procedures.
#
#######################################################################

data_KEKCOT
_chemical_formula_moiety         'C16 H8 S5'
_chemical_name_systematic        
5,5'-bis(2-Thienyl)dithieno(3,2-b:2',3'-d)thiophene
_symmetry_cell_setting           orthorhombic
_symmetry_space_group_name_H-M   'P n m a'
_symmetry_Int_Tables_number      62
_space_group_name_Hall           '-P 2ac 2n'
loop_
_symmetry_equiv_pos_site_id
_symmetry_equiv_pos_as_xyz
1 x,y,z
2 1/2-x,-y,1/2+z
3 -x,1/2+y,-z
4 1/2+x,1/2-y,1/2-z
5 -x,-y,-z
6 1/2+x,y,1/2-z
7 x,1/2-y,z
8 1/2-x,1/2+y,1/2+z
_cell_length_a                   11.0652(10)
_cell_length_b                   32.943(5)
_cell_length_c                   3.9634(6)
_cell_angle_alpha                90
_cell_angle_beta                 90
_cell_angle_gamma                90
_cell_volume                     1444.74
_exptl_crystal_colour            yellow
_exptl_crystal_description       plate
_cell_formula_units_Z            4
loop_
_atom_site_label
_atom_site_type_symbol
_atom_site_fract_x
_atom_site_fract_y
_atom_site_fract_z
S1 S 0.5972(2) 0.7500 -0.2234(6)
S2 S 0.89896(14) 0.69033(4) 0.1748(4)
C1 C 0.8020(5) 0.72826(16) 0.0502(16)
C2 C 0.6973(5) 0.71250(17) -0.0918(16)
C3 C 0.6968(5) 0.66963(17) -0.1061(16)
H1 H 0.6338 0.6544 -0.1960
C4 C 0.7987(5) 0.65318(17) 0.0262(16)
C5 C 0.8341(5) 0.61046(17) 0.0530(16)
C6 C 0.9412(7) 0.5505(2) 0.162(2)
H2 H 1.0008 0.5325 0.2308
C7 C 0.8410(7) 0.5377(2) 0.018(2)
H3 H 0.8262 0.5103 -0.0221
S3 S 0.7461(2) 0.57268(7) -0.0816(7)
C8 C 0.9559(4) 0.59641(10) 0.2102(11)
H4 H 1.0187 0.6113 0.3050
S2F S 0.89896(14) 0.80967(4) 0.1748(4)
C1F C 0.8020(5) 0.77174(16) 0.0502(16)
C2F C 0.6973(5) 0.78750(17) -0.0918(16)
C3F C 0.6968(5) 0.83037(17) -0.1061(16)
H1F H 0.6338 0.8456 -0.1960
C4F C 0.7987(5) 0.84682(17) 0.0262(16)
C5F C 0.8341(5) 0.88954(17) 0.0530(16)
C6F C 0.9412(7) 0.9495(2) 0.162(2)
H2F H 1.0008 0.9675 0.2308
C7F C 0.8410(7) 0.9623(2) 0.018(2)
H3F H 0.8262 0.9897 -0.0221
S3F S 0.7461(2) 0.92732(7) -0.0816(7)
C8F C 0.9559(4) 0.90359(10) 0.2102(11)
H4F H 1.0187 0.8887 0.3050
C9? C 0.7461(2) 0.57268(7) -0.0816(7)
H5? H 0.6697 0.5721 -0.1793
S4? S 0.9559(4) 0.59641(10) 0.2102(11)
loop_
_geom_bond_atom_site_label_1
_geom_bond_atom_site_label_2
_geom_bond_site_symmetry_1
_geom_bond_site_symmetry_2
S1 C2 1_555 1_555
S2 C1 1_555 1_555
C1 C2 1_555 1_555
C2 C3 1_555 1_555
C3 H1 1_555 1_555
C4 S2 1_555 1_555
C5 C4 1_555 1_555
C6 H2 1_555 1_555
C7 C6 1_555 1_555
H3 C7 1_555 1_555
S3 C5 1_555 1_555
C8 C5 1_555 1_555
H4 C8 1_555 1_555
S2F C1F 1_555 1_555
C1F C1 1_555 1_555
C2F S1 1_555 1_555
C3F C2F 1_555 1_555
H1F C3F 1_555 1_555
C4F S2F 1_555 1_555
C5F C4F 1_555 1_555
C6F H2F 1_555 1_555
C7F C6F 1_555 1_555
H3F C7F 1_555 1_555
S3F C5F 1_555 1_555
C8F C5F 1_555 1_555
H4F C8F 1_555 1_555
C3 C4 1_555 1_555
C6 C8 1_555 1_555
C7 S3 1_555 1_555
C1F C2F 1_555 1_555
C3F C4F 1_555 1_555
C6F C8F 1_555 1_555
C7F S3F 1_555 1_555

#END
