
#######################################################################
#
#                 Cambridge Crystallographic Data Centre
#                                CCDC 
#
#######################################################################
#
# If this CIF has been generated from an entry in the Cambridge 
# Structural Database, then it will include bibliographic, chemical, 
# crystal, experimental, refinement or atomic coordinate data resulting 
# from the CCDC's data processing and validation procedures.
#
#######################################################################

data_KEKDIO
_chemical_formula_moiety         'C16 H11 N3 O2'
_chemical_name_systematic        3-(1-Benzotriazole)-4-methylcoumarin
_symmetry_cell_setting           orthorhombic
_symmetry_space_group_name_H-M   'P c a 21'
_symmetry_Int_Tables_number      29
_space_group_name_Hall           'P 2c -2ac'
loop_
_symmetry_equiv_pos_site_id
_symmetry_equiv_pos_as_xyz
1 x,y,z
2 -x,-y,1/2+z
3 1/2+x,-y,z
4 1/2-x,y,1/2+z
_cell_length_a                   18.303(3)
_cell_length_b                   5.4256(8)
_cell_length_c                   13.4928(19)
_cell_angle_alpha                90
_cell_angle_beta                 90
_cell_angle_gamma                90
_cell_volume                     1339.9
_chemical_melting_point          172-174deg.C
_cell_formula_units_Z            4
_exptl_crystal_recrystallization_method ethanol
loop_
_atom_site_label
_atom_site_type_symbol
_atom_site_fract_x
_atom_site_fract_y
_atom_site_fract_z
O1 O 0.81908(11) 0.3543(5) 0.60049(17)
O2 O 0.75639(15) 0.0800(5) 0.5165(2)
N1 N 0.63698(13) 0.1008(4) 0.64012(19)
N2 N 0.61852(15) -0.1054(5) 0.6926(2)
N3 N 0.55890(14) -0.1979(5) 0.6562(2)
C1 C 0.58667(14) 0.1392(5) 0.5669(2)
C2 C 0.53774(15) -0.0520(5) 0.5774(2)
C3 C 0.47816(18) -0.0728(6) 0.5130(3)
H1 H 0.4447 -0.2008 0.5192
C4 C 0.47095(19) 0.1014(6) 0.4407(3)
H2 H 0.4318 0.0923 0.3970
C5 C 0.52124(18) 0.2929(6) 0.4314(3)
H3 H 0.5146 0.4075 0.3809
C6 C 0.57972(17) 0.3197(6) 0.4929(3)
H4 H 0.6128 0.4488 0.4863
C7 C 0.75796(18) 0.2141(6) 0.5875(3)
C8 C 0.70089(14) 0.2379(5) 0.6609(2)
C9 C 0.70666(15) 0.3816(5) 0.7422(2)
C10 C 0.77262(14) 0.5280(5) 0.7522(2)
C11 C 0.78426(17) 0.6967(6) 0.8290(3)
H5 H 0.7497 0.7118 0.8792
C12 C 0.8458(2) 0.8398(6) 0.8314(3)
H6 H 0.8524 0.9523 0.8826
C13 C 0.8982(2) 0.8183(7) 0.7585(3)
H7 H 0.9396 0.9178 0.7603
C14 C 0.88945(19) 0.6506(7) 0.6832(3)
H8 H 0.9252 0.6310 0.6349
C15 C 0.82635(16) 0.5118(6) 0.6811(2)
C16 C 0.64841(17) 0.3937(6) 0.8184(2)
H9 H 0.6044 0.3216 0.7926
H10 H 0.6394 0.5627 0.8356
H11 H 0.6636 0.3046 0.8763
loop_
_geom_bond_atom_site_label_1
_geom_bond_atom_site_label_2
_geom_bond_site_symmetry_1
_geom_bond_site_symmetry_2
O1 C7 1_555 1_555
O2 C7 1_555 1_555
N1 N2 1_555 1_555
N2 N3 1_555 1_555
N3 C2 1_555 1_555
C1 N1 1_555 1_555
C2 C1 1_555 1_555
C3 C2 1_555 1_555
H1 C3 1_555 1_555
C4 C3 1_555 1_555
H2 C4 1_555 1_555
C5 C4 1_555 1_555
H3 C5 1_555 1_555
C6 C1 1_555 1_555
H4 C6 1_555 1_555
C7 C8 1_555 1_555
C8 N1 1_555 1_555
C9 C8 1_555 1_555
C10 C9 1_555 1_555
C11 C10 1_555 1_555
H5 C11 1_555 1_555
C12 C11 1_555 1_555
H6 C12 1_555 1_555
C13 C12 1_555 1_555
H7 C13 1_555 1_555
C14 C13 1_555 1_555
H8 C14 1_555 1_555
C15 O1 1_555 1_555
C16 C9 1_555 1_555
H9 C16 1_555 1_555
H10 C16 1_555 1_555
H11 C16 1_555 1_555
C5 C6 1_555 1_555
C10 C15 1_555 1_555
C14 C15 1_555 1_555

#END
