
#######################################################################
#
#                 Cambridge Crystallographic Data Centre
#                                CCDC 
#
#######################################################################
#
# If this CIF has been generated from an entry in the Cambridge 
# Structural Database, then it will include bibliographic, chemical, 
# crystal, experimental, refinement or atomic coordinate data resulting 
# from the CCDC's data processing and validation procedures.
#
#######################################################################

data_KEKGOZ
_chemical_formula_moiety         'C12 H18 O6'
_chemical_name_systematic        6-phenoxyhexane-1,2,3,4,5-pentol
_symmetry_cell_setting           orthorhombic
_symmetry_space_group_name_H-M   'P 21 21 21'
_symmetry_Int_Tables_number      19
_space_group_name_Hall           'P 2ac 2ab'
loop_
_symmetry_equiv_pos_site_id
_symmetry_equiv_pos_as_xyz
1 x,y,z
2 1/2-x,-y,1/2+z
3 -x,1/2+y,1/2-z
4 1/2+x,1/2-y,-z
_cell_length_a                   4.8340(6)
_cell_length_b                   5.4427(7)
_cell_length_c                   45.966(6)
_cell_angle_alpha                90
_cell_angle_beta                 90
_cell_angle_gamma                90
_cell_volume                     1209.37
_exptl_crystal_colour            colorless
_exptl_crystal_description       block
_cell_formula_units_Z            4
loop_
_atom_site_label
_atom_site_type_symbol
_atom_site_fract_x
_atom_site_fract_y
_atom_site_fract_z
C1 C 0.6804(5) 0.7193(4) 0.72926(4)
H1 H 0.5556 0.7788 0.7448
H2 H 0.7817 0.5749 0.7369
C2 C 0.5068(4) 0.6398(4) 0.70319(4)
H3 H 0.3728 0.5109 0.7096
C3 C 0.6837(4) 0.5359(3) 0.67843(4)
H4 H 0.8187 0.6643 0.6721
C4 C 0.5089(4) 0.4570(4) 0.65210(4)
H5 H 0.3970 0.6031 0.6461
C5 C 0.6795(4) 0.3795(4) 0.62559(4)
H6 H 0.8197 0.5096 0.6213
C6 C 0.5000(5) 0.3390(4) 0.59868(4)
H7 H 0.6185 0.3183 0.5813
H8 H 0.3871 0.1886 0.6011
C7 C 0.1578(4) 0.5541(4) 0.57086(4)
C8 C -0.0196(5) 0.7558(4) 0.56916(5)
H9 H -0.0181 0.8778 0.5839
C9 C -0.1991(5) 0.7763(4) 0.54554(5)
H10 H -0.3214 0.9126 0.5444
C10 C -0.2012(5) 0.5993(4) 0.52366(5)
H11 H -0.3228 0.6152 0.5075
C11 C -0.0238(5) 0.3992(4) 0.52563(4)
H12 H -0.0253 0.2777 0.5108
C12 C 0.1564(5) 0.3745(4) 0.54915(4)
H13 H 0.2769 0.2370 0.5504
O1 O 0.3247(4) 0.5472(3) 0.59515(3)
O2 O 0.8177(4) 0.1503(3) 0.62965(4)
H14 H 0.9733 0.1750 0.6372
O3 O 0.3158(3) 0.2664(3) 0.66003(3)
H15 H 0.4032 0.1414 0.6655
O4 O 0.8325(3) 0.3350(3) 0.69082(3)
H16 H 0.9778 0.3105 0.6812
O5 O 0.3554(3) 0.8443(3) 0.69190(3)
H17 H 0.2068 0.8601 0.7012
O6 O 0.8748(3) 0.9087(3) 0.72234(4)
H18 H 0.7956 1.0189 0.7126
loop_
_geom_bond_atom_site_label_1
_geom_bond_atom_site_label_2
_geom_bond_site_symmetry_1
_geom_bond_site_symmetry_2
C1 H1 1_555 1_555
H2 C1 1_555 1_555
C2 C1 1_555 1_555
H3 C2 1_555 1_555
C3 C2 1_555 1_555
H4 C3 1_555 1_555
C4 C3 1_555 1_555
H5 C4 1_555 1_555
C5 C4 1_555 1_555
H6 C5 1_555 1_555
C6 C5 1_555 1_555
H7 C6 1_555 1_555
H8 C6 1_555 1_555
C7 C8 1_555 1_555
C8 H9 1_555 1_555
C9 C8 1_555 1_555
H10 C9 1_555 1_555
C10 C9 1_555 1_555
H11 C10 1_555 1_555
C11 C10 1_555 1_555
H12 C11 1_555 1_555
C12 C7 1_555 1_555
H13 C12 1_555 1_555
O1 C6 1_555 1_555
O2 C5 1_555 1_555
H14 O2 1_555 1_555
O3 C4 1_555 1_555
H15 O3 1_555 1_555
O4 C3 1_555 1_555
H16 O4 1_555 1_555
O5 C2 1_555 1_555
H17 O5 1_555 1_555
O6 C1 1_555 1_555
H18 O6 1_555 1_555
C7 O1 1_555 1_555
C11 C12 1_555 1_555

#END
