
#######################################################################
#
#                 Cambridge Crystallographic Data Centre
#                                CCDC 
#
#######################################################################
#
# If this CIF has been generated from an entry in the Cambridge 
# Structural Database, then it will include bibliographic, chemical, 
# crystal, experimental, refinement or atomic coordinate data resulting 
# from the CCDC's data processing and validation procedures.
#
#######################################################################

data_KEKJIU01
_chemical_formula_moiety         'C26 H30 N2 O4'
_chemical_name_systematic        
2,7-dihexylbenzo[lmn][3,8]phenanthroline-1,3,6,8(2H,7H)-tetrone
_symmetry_cell_setting           triclinic
_symmetry_space_group_name_H-M   'P -1'
_symmetry_Int_Tables_number      2
_space_group_name_Hall           '-P 1'
loop_
_symmetry_equiv_pos_site_id
_symmetry_equiv_pos_as_xyz
1 x,y,z
2 -x,-y,-z
_cell_length_a                   4.8980(10)
_cell_length_b                   8.2840(17)
_cell_length_c                   14.524(3)
_cell_angle_alpha                96.33(3)
_cell_angle_beta                 98.10(3)
_cell_angle_gamma                93.59(3)
_cell_volume                     578.044
_exptl_crystal_colour            pink
_exptl_crystal_description       plate
_cell_formula_units_Z            1
_exptl_crystal_recrystallization_method hexane/chloroform
loop_
_atom_site_label
_atom_site_type_symbol
_atom_site_fract_x
_atom_site_fract_y
_atom_site_fract_z
O1 O -0.1697(6) 0.5449(3) 0.0893(2)
O2 O 0.5848(6) 0.8832(4) 0.2172(2)
N1 N 0.2082(7) 0.7134(4) 0.1534(2)
C1 C -0.0348(8) 0.6734(5) 0.0896(3)
C2 C -0.1164(7) 0.7922(4) 0.0248(3)
C3 C -0.3499(8) 0.7582(5) -0.0420(3)
H1 H -0.4546 0.6594 -0.0462
C4 C 0.0409(7) 0.9423(4) 0.0307(2)
C5 C 0.2811(7) 0.9812(4) 0.0986(3)
C6 C -0.4297(8) 0.8715(5) -0.1034(3)
H2 H -0.5863 0.8463 -0.1482
C7 C 0.3717(8) 0.8592(5) 0.1612(3)
C8 C 0.2914(9) 0.5932(5) 0.2182(3)
H3 H 0.4918 0.5993 0.2315
H4 H 0.2284 0.4846 0.1876
C9 C 0.1772(11) 0.6197(6) 0.3086(4)
H5 H -0.0219 0.6228 0.2948
H6 H 0.2526 0.7248 0.3415
C10 C 0.2413(15) 0.4895(8) 0.3722(5)
H7 H 0.4398 0.4815 0.3820
H8 H 0.1869 0.5238 0.4325
C11 C 0.107(2) 0.3297(11) 0.3376(7)
H9 H 0.1755 0.2863 0.2812
H10 H -0.0913 0.3352 0.3233
C12 C 0.187(5) 0.205(2) 0.4280(16)
H11 H 0.3724 0.2311 0.4618
H12 H 0.0536 0.2084 0.4716
C13 C 0.169(6) 0.101(3) 0.3870(19)
H13 H 0.0001 0.0928 0.3438
H14 H 0.1668 0.0122 0.4245
H15 H 0.3231 0.0954 0.3529
O1A O 0.1697(6) 1.4551(3) -0.0893(2)
O2A O -0.5848(6) 1.1168(4) -0.2172(2)
N1A N -0.2082(7) 1.2866(4) -0.1534(2)
C1A C 0.0348(8) 1.3266(5) -0.0896(3)
C2A C 0.1164(7) 1.2078(4) -0.0248(3)
C3A C 0.3499(8) 1.2418(5) 0.0420(3)
H1A H 0.4546 1.3406 0.0462
C4A C -0.0409(7) 1.0577(4) -0.0307(2)
C5A C -0.2811(7) 1.0188(4) -0.0986(3)
C6A C 0.4297(8) 1.1285(5) 0.1034(3)
H2A H 0.5863 1.1537 0.1482
C7A C -0.3717(8) 1.1408(5) -0.1612(3)
C8A C -0.2914(9) 1.4068(5) -0.2182(3)
H3A H -0.4918 1.4007 -0.2315
H4A H -0.2284 1.5154 -0.1876
C9A C -0.1772(11) 1.3803(6) -0.3086(4)
H5A H 0.0219 1.3772 -0.2948
H6A H -0.2526 1.2752 -0.3415
C10A C -0.2413(15) 1.5105(8) -0.3722(5)
H7A H -0.4398 1.5185 -0.3820
H8A H -0.1869 1.4762 -0.4325
C11A C -0.107(2) 1.6703(11) -0.3376(7)
H9A H -0.1755 1.7137 -0.2812
H10A H 0.0913 1.6648 -0.3233
C12A C -0.187(5) 1.795(2) -0.4280(16)
H11A H -0.3724 1.7689 -0.4618
H12A H -0.0536 1.7916 -0.4716
C13A C -0.169(6) 1.899(3) -0.3870(19)
H13A H -0.0001 1.9072 -0.3438
H14A H -0.1668 1.9878 -0.4245
H15A H -0.3231 1.9046 -0.3529
loop_
_geom_bond_atom_site_label_1
_geom_bond_atom_site_label_2
_geom_bond_site_symmetry_1
_geom_bond_site_symmetry_2
O1 C1 1_555 1_555
O2 C7 1_555 1_555
N1 C1 1_555 1_555
C1 C2 1_555 1_555
C2 C3 1_555 1_555
C3 H1 1_555 1_555
C4 C2 1_555 1_555
C5 C4 1_555 1_555
C6 C3 1_555 1_555
H2 C6 1_555 1_555
C7 N1 1_555 1_555
C8 N1 1_555 1_555
H3 C8 1_555 1_555
H4 C8 1_555 1_555
C9 C8 1_555 1_555
H5 C9 1_555 1_555
H6 C9 1_555 1_555
C10 C9 1_555 1_555
H7 C10 1_555 1_555
H8 C10 1_555 1_555
C11 C10 1_555 1_555
H9 C11 1_555 1_555
H10 C11 1_555 1_555
C12 C11 1_555 1_555
H11 C12 1_555 1_555
H12 C12 1_555 1_555
C13 C12 1_555 1_555
H13 C13 1_555 1_555
H14 C13 1_555 1_555
H15 C13 1_555 1_555
O1A C1A 1_555 1_555
O2A C7A 1_555 1_555
N1A C1A 1_555 1_555
C1A C2A 1_555 1_555
C2A C3A 1_555 1_555
C3A H1A 1_555 1_555
C4A C4 1_555 1_555
C5A C6 1_555 1_555
C6A C5 1_555 1_555
H2A C6A 1_555 1_555
C7A N1A 1_555 1_555
C8A N1A 1_555 1_555
H3A C8A 1_555 1_555
H4A C8A 1_555 1_555
C9A C8A 1_555 1_555
H5A C9A 1_555 1_555
H6A C9A 1_555 1_555
C10A C9A 1_555 1_555
H7A C10A 1_555 1_555
H8A C10A 1_555 1_555
C11A C10A 1_555 1_555
H9A C11A 1_555 1_555
H10A C11A 1_555 1_555
C12A C11A 1_555 1_555
H11A C12A 1_555 1_555
H12A C12A 1_555 1_555
C13A C12A 1_555 1_555
H13A C13A 1_555 1_555
H14A C13A 1_555 1_555
H15A C13A 1_555 1_555
C5 C7 1_555 1_555
C2A C4A 1_555 1_555
C3A C6A 1_555 1_555
C4A C5A 1_555 1_555
C5A C7A 1_555 1_555

#END
