
#######################################################################
#
#                 Cambridge Crystallographic Data Centre
#                                CCDC 
#
#######################################################################
#
# If this CIF has been generated from an entry in the Cambridge 
# Structural Database, then it will include bibliographic, chemical, 
# crystal, experimental, refinement or atomic coordinate data resulting 
# from the CCDC's data processing and validation procedures.
#
#######################################################################

data_KEKNEW
_chemical_formula_moiety         'C15 H15 N1 O2 S1'
_chemical_name_systematic        
2-[(4-methylphenyl)sulfonyl]-1-phenylethen-1-amine
_symmetry_cell_setting           monoclinic
_symmetry_space_group_name_H-M   'P 21/c'
_symmetry_Int_Tables_number      14
_space_group_name_Hall           '-P 2ybc'
loop_
_symmetry_equiv_pos_site_id
_symmetry_equiv_pos_as_xyz
1 x,y,z
2 -x,1/2+y,1/2-z
3 -x,-y,-z
4 x,1/2-y,1/2+z
_cell_length_a                   7.4955(18)
_cell_length_b                   15.611(4)
_cell_length_c                   11.388(3)
_cell_angle_alpha                90
_cell_angle_beta                 94.333(4)
_cell_angle_gamma                90
_cell_volume                     1328.73
_cell_formula_units_Z            4
loop_
_atom_site_label
_atom_site_type_symbol
_atom_site_fract_x
_atom_site_fract_y
_atom_site_fract_z
O1 O 0.5041(5) 0.2524(3) 0.3164(3)
O2 O 0.2276(5) 0.1992(3) 0.2080(3)
C1 C 0.5243(7) 0.1855(4) 0.1074(5)
C2 C 0.7067(7) 0.1833(3) 0.1137(4)
C3 C 0.3576(7) 0.3432(3) 0.1441(4)
N1 N 0.8192(7) 0.2206(3) 0.1983(4)
C4 C 0.2855(8) 0.3510(4) 0.0280(5)
C5 C 0.7920(7) 0.1378(3) 0.0188(5)
C6 C 0.9526(8) 0.0536(4) -0.1618(5)
C7 C 0.2487(8) 0.4324(4) -0.0178(5)
C8 C 0.7312(8) 0.0572(4) -0.0187(5)
C9 C 0.9370(8) 0.1761(4) -0.0324(5)
C10 C 0.2808(8) 0.5064(4) 0.0501(5)
C11 C 0.3599(8) 0.4963(4) 0.1656(5)
C12 C 0.8127(9) 0.0151(4) -0.1099(6)
C13 C 0.3974(8) 0.4157(4) 0.2124(5)
C14 C 0.2373(10) 0.5938(5) 0.0012(6)
C15 C 1.0153(9) 0.1341(4) -0.1224(6)
S1 S 0.40031(18) 0.24026(9) 0.20473(12)
loop_
_geom_bond_atom_site_label_1
_geom_bond_atom_site_label_2
_geom_bond_site_symmetry_1
_geom_bond_site_symmetry_2
O1 S1 1_555 1_555
O2 S1 1_555 1_555
C1 C2 1_555 1_555
C2 N1 1_555 1_555
C3 C4 1_555 1_555
C4 C7 1_555 1_555
C5 C2 1_555 1_555
C6 C12 1_555 1_555
C7 C10 1_555 1_555
C8 C5 1_555 1_555
C9 C5 1_555 1_555
C10 C11 1_555 1_555
C11 C13 1_555 1_555
C12 C8 1_555 1_555
C13 C3 1_555 1_555
C14 C10 1_555 1_555
C15 C6 1_555 1_555
S1 C1 1_555 1_555
C3 S1 1_555 1_555
C9 C15 1_555 1_555

#END
