
#######################################################################
#
#                 Cambridge Crystallographic Data Centre
#                                CCDC 
#
#######################################################################
#
# If this CIF has been generated from an entry in the Cambridge 
# Structural Database, then it will include bibliographic, chemical, 
# crystal, experimental, refinement or atomic coordinate data resulting 
# from the CCDC's data processing and validation procedures.
#
#######################################################################

data_KEKPEY
_chemical_formula_moiety         'C15 H8 Br1 F4 N1 O2 S1'
_chemical_name_systematic        
2-[4-(4-bromo-5-methylthiophen-2-yl)pyridin-1-ium-1-yl]-4,4,5,5-tetrafluoro-3-oxocyclopent-1-en-1-olate
_symmetry_cell_setting           triclinic
_symmetry_space_group_name_H-M   'P -1'
_symmetry_Int_Tables_number      2
_space_group_name_Hall           '-P 1'
loop_
_symmetry_equiv_pos_site_id
_symmetry_equiv_pos_as_xyz
1 x,y,z
2 -x,-y,-z
_cell_length_a                   6.0200(12)
_cell_length_b                   9.920(2)
_cell_length_c                   12.270(3)
_cell_angle_alpha                95.50(3)
_cell_angle_beta                 96.34(3)
_cell_angle_gamma                91.42(3)
_cell_volume                     724.447
_exptl_crystal_colour            yellow
_exptl_crystal_description       plate
_cell_formula_units_Z            2
loop_
_atom_site_label
_atom_site_type_symbol
_atom_site_fract_x
_atom_site_fract_y
_atom_site_fract_z
Br1 Br 1.30795(15) 0.99205(10) 0.37335(7)
S1 S 0.8502(4) 0.7781(2) 0.10964(17)
F1 F -0.5128(8) 0.2669(6) 0.1920(4)
F2 F -0.3943(9) 0.3193(6) 0.3980(4)
F3 F -0.1989(10) 0.1400(6) 0.3833(5)
F4 F -0.2409(10) 0.1295(6) 0.1737(5)
O1 O 0.0930(11) 0.3617(7) 0.4591(5)
O2 O -0.1809(11) 0.3936(7) 0.0864(5)
N1 N 0.1938(11) 0.5033(7) 0.2604(5)
C1 C 0.2516(14) 0.5271(9) 0.1594(6)
H1 H 0.1670 0.4874 0.0959
C2 C 0.5683(12) 0.6685(8) 0.2443(6)
C3 C 1.2344(14) 0.9410(10) 0.0973(7)
H2 H 1.2673 0.8746 0.0397
H3 H 1.3706 0.9721 0.1418
H4 H 1.1645 1.0162 0.0655
C4 C 0.0122(13) 0.4111(8) 0.2696(6)
C5 C -0.2930(13) 0.2523(9) 0.2209(6)
C6 C 0.5005(13) 0.6461(9) 0.3462(6)
H5 H 0.5816 0.6861 0.4106
C7 C -0.0161(13) 0.3499(9) 0.3677(6)
C8 C -0.1489(13) 0.3626(9) 0.1801(6)
C9 C 0.4336(14) 0.6091(9) 0.1512(7)
H6 H 0.4687 0.6259 0.0817
C10 C 0.7654(13) 0.7511(8) 0.2362(6)
C11 C 0.9081(13) 0.8178(9) 0.3203(7)
H7 H 0.8918 0.8161 0.3946
C12 C 0.3124(14) 0.5642(9) 0.3522(6)
H8 H 0.2677 0.5513 0.4207
C13 C -0.2300(13) 0.2607(9) 0.3452(7)
C14 C 1.0778(14) 0.8781(9) 0.1685(7)
C15 C 1.0836(14) 0.8896(9) 0.2800(7)
loop_
_geom_bond_atom_site_label_1
_geom_bond_atom_site_label_2
_geom_bond_site_symmetry_1
_geom_bond_site_symmetry_2
Br1 C15 1_555 1_555
S1 C10 1_555 1_555
F1 C5 1_555 1_555
F2 C13 1_555 1_555
F3 C13 1_555 1_555
F4 C5 1_555 1_555
O1 C7 1_555 1_555
O2 C8 1_555 1_555
N1 C1 1_555 1_555
C1 H1 1_555 1_555
C2 C6 1_555 1_555
C3 H2 1_555 1_555
H3 C3 1_555 1_555
H4 C3 1_555 1_555
C4 N1 1_555 1_555
C5 C8 1_555 1_555
C6 H5 1_555 1_555
C7 C4 1_555 1_555
C8 C4 1_555 1_555
C9 C1 1_555 1_555
H6 C9 1_555 1_555
C10 C2 1_555 1_555
C11 C10 1_555 1_555
H7 C11 1_555 1_555
C12 N1 1_555 1_555
H8 C12 1_555 1_555
C13 C5 1_555 1_555
C14 S1 1_555 1_555
C15 C11 1_555 1_555
C2 C9 1_555 1_555
C3 C14 1_555 1_555
C6 C12 1_555 1_555
C7 C13 1_555 1_555
C14 C15 1_555 1_555

#END
