
#######################################################################
#
#                 Cambridge Crystallographic Data Centre
#                                CCDC 
#
#######################################################################
#
# If this CIF has been generated from an entry in the Cambridge 
# Structural Database, then it will include bibliographic, chemical, 
# crystal, experimental, refinement or atomic coordinate data resulting 
# from the CCDC's data processing and validation procedures.
#
#######################################################################

data_KEKPAU
_chemical_formula_moiety         'C15 H8 F4 N2 O2'
_chemical_name_systematic        
4,4,5,5-tetrafluoro-3-oxo-2-[4-(pyridin-4-yl)pyridin-1-ium-1-yl]cyclopent-1-en-1-olate
_symmetry_cell_setting           triclinic
_symmetry_space_group_name_H-M   'P -1'
_symmetry_Int_Tables_number      2
_space_group_name_Hall           '-P 1'
loop_
_symmetry_equiv_pos_site_id
_symmetry_equiv_pos_as_xyz
1 x,y,z
2 -x,-y,-z
_cell_length_a                   6.0638(6)
_cell_length_b                   10.8458(9)
_cell_length_c                   11.1568(13)
_cell_angle_alpha                65.573(9)
_cell_angle_beta                 79.705(9)
_cell_angle_gamma                81.093(7)
_cell_volume                     654.625
_exptl_crystal_colour            yellow
_exptl_crystal_description       plate
_cell_formula_units_Z            2
loop_
_atom_site_label
_atom_site_type_symbol
_atom_site_fract_x
_atom_site_fract_y
_atom_site_fract_z
F1 F 0.0446(2) 0.14280(14) 0.59637(15)
N1 N -0.7177(3) 0.24563(17) 0.75246(17)
F2 F -0.1930(3) 0.09574(16) 0.50108(15)
O1 O -0.3132(3) 0.34867(16) 0.54688(17)
F3 F -0.0769(3) -0.04030(17) 0.82203(15)
F4 F -0.2300(3) -0.12219(15) 0.71323(19)
C1 C -0.9772(4) 0.4417(2) 0.6839(2)
H1 H -1.0133 0.5282 0.6214
C2 C -1.3514(4) 0.4580(2) 0.8194(2)
N2 N -1.7720(3) 0.5948(2) 0.8635(2)
O2 O -0.5679(3) -0.05499(17) 0.8923(2)
C3 C -1.0614(4) 0.2578(2) 0.8901(2)
H2 H -1.1553 0.2181 0.9688
C4 C -1.1284(4) 0.3858(2) 0.7967(2)
C5 C -0.3403(4) 0.2300(2) 0.6220(2)
C6 C -0.8580(4) 0.1901(2) 0.8666(2)
H3 H -0.8160 0.1052 0.9297
C7 C -0.5124(4) 0.1712(2) 0.7248(2)
C8 C -0.7751(4) 0.3721(2) 0.6626(2)
H4 H -0.6767 0.4118 0.5859
C9 C -1.7250(4) 0.4615(2) 0.9341(2)
H5 H -1.8357 0.4144 0.9993
C10 C -1.5204(4) 0.3900(2) 0.9151(2)
H6 H -1.4969 0.2974 0.9662
C11 C -1.6092(4) 0.6590(2) 0.7716(2)
H7 H -1.6385 0.7514 0.7216
C12 C -1.3977(4) 0.5970(2) 0.7451(2)
H8 H -1.2900 0.6469 0.6797
C13 C -0.1704(4) 0.1142(2) 0.6106(2)
C14 C -0.4631(4) 0.0295(2) 0.7968(2)
C15 C -0.2308(4) -0.0105(2) 0.7363(2)
loop_
_geom_bond_atom_site_label_1
_geom_bond_atom_site_label_2
_geom_bond_site_symmetry_1
_geom_bond_site_symmetry_2
F1 C13 1_555 1_555
N1 C6 1_555 1_555
F2 C13 1_555 1_555
O1 C5 1_555 1_555
F3 C15 1_555 1_555
F4 C15 1_555 1_555
C1 H1 1_555 1_555
C2 C4 1_555 1_555
N2 C9 1_555 1_555
O2 C14 1_555 1_555
C3 H2 1_555 1_555
C4 C1 1_555 1_555
C5 C7 1_555 1_555
C6 C3 1_555 1_555
H3 C6 1_555 1_555
C7 N1 1_555 1_555
C8 N1 1_555 1_555
H4 C8 1_555 1_555
C9 H5 1_555 1_555
C10 C2 1_555 1_555
H6 C10 1_555 1_555
C11 N2 1_555 1_555
H7 C11 1_555 1_555
C12 C2 1_555 1_555
H8 C12 1_555 1_555
C13 C5 1_555 1_555
C14 C7 1_555 1_555
C15 C13 1_555 1_555
C1 C8 1_555 1_555
C3 C4 1_555 1_555
C9 C10 1_555 1_555
C11 C12 1_555 1_555
C14 C15 1_555 1_555

#END
