
#######################################################################
#
#                 Cambridge Crystallographic Data Centre
#                                CCDC 
#
#######################################################################
#
# If this CIF has been generated from an entry in the Cambridge 
# Structural Database, then it will include bibliographic, chemical, 
# crystal, experimental, refinement or atomic coordinate data resulting 
# from the CCDC's data processing and validation procedures.
#
#######################################################################

data_KEKQAT
_chemical_formula_moiety         'C30 H27 Cl2 N3 O3,0.5(C4 H8 O2)'
_chemical_name_systematic        
"(R,R)/(S,S)-1'-(3'',3''-Dimethyl-1''-(4-chlorophenyl)azetidin-2''-one)-3,3,5'-trimethyl-1-(4-chlorophenyl)spiro(azetidine-4,3'-indoline)-2,2'-dione ethyl acetate solvate"
_symmetry_cell_setting           triclinic
_symmetry_space_group_name_H-M   'P -1'
_symmetry_Int_Tables_number      2
_space_group_name_Hall           '-P 1'
loop_
_symmetry_equiv_pos_site_id
_symmetry_equiv_pos_as_xyz
1 x,y,z
2 -x,-y,-z
_cell_length_a                   12.427(3)
_cell_length_b                   12.482(3)
_cell_length_c                   20.495(4)
_cell_angle_alpha                78.28(3)
_cell_angle_beta                 89.97(3)
_cell_angle_gamma                78.60(3)
_cell_volume                     3048.77
_exptl_crystal_colour            colorless
_exptl_crystal_description       block
_cell_formula_units_Z            4
loop_
_atom_site_label
_atom_site_type_symbol
_atom_site_fract_x
_atom_site_fract_y
_atom_site_fract_z
Cl1 Cl 0.79050(9) 0.21713(13) 0.40204(9)
Cl2 Cl -0.28912(9) 0.30953(11) 0.12302(7)
O1 O 0.14708(18) 0.48560(18) 0.27851(10)
O2 O 0.2734(2) 0.1599(2) 0.54189(12)
O3 O 0.2274(2) 0.4622(3) 0.05636(12)
N1 N 0.31762(19) 0.2696(2) 0.44291(11)
N2 N 0.23344(18) 0.31054(19) 0.33163(10)
N3 N 0.15799(19) 0.3810(2) 0.15684(11)
C1 C 0.4713(3) 0.3327(3) 0.38668(17)
H1 H 0.4228 0.3919 0.3602
C2 C 0.5816(3) 0.3201(3) 0.3769(2)
H2 H 0.6083 0.3709 0.3444
C3 C 0.6509(3) 0.2335(4) 0.4147(2)
C4 C 0.6140(3) 0.1609(4) 0.4641(2)
H3 H 0.6639 0.1038 0.4912
C5 C 0.5023(3) 0.1715(3) 0.47441(19)
H4 H 0.4765 0.1204 0.5071
C6 C 0.4311(2) 0.2587(3) 0.43539(15)
C7 C 0.2513(3) 0.2236(3) 0.48951(16)
C8 C 0.1470(2) 0.2863(3) 0.44889(14)
C9 C 0.2274(2) 0.3348(3) 0.39740(13)
H5 H 0.2214 0.4149 0.3953
C10 C 0.0784(3) 0.3732(3) 0.48151(17)
H6 H 0.0308 0.3386 0.5123
H7 H 0.0349 0.4303 0.4479
H8 H 0.1257 0.4059 0.5051
C11 C 0.0766(3) 0.2147(3) 0.42520(18)
H9 H 0.0310 0.1892 0.4605
H10 H 0.1229 0.1515 0.4127
H11 H 0.0311 0.2579 0.3874
C12 C 0.1961(2) 0.3929(3) 0.27696(14)
C13 C 0.2318(2) 0.3453(2) 0.21560(13)
C14 C 0.2665(2) 0.2247(2) 0.24368(13)
C15 C 0.2907(2) 0.1371(3) 0.21209(15)
H12 H 0.2838 0.1500 0.1658
C16 C 0.3249(3) 0.0307(3) 0.24791(17)
C17 C 0.3353(3) 0.0149(3) 0.31653(18)
H13 H 0.3605 -0.0571 0.3412
C18 C 0.3100(3) 0.1014(3) 0.34990(15)
H14 H 0.3180 0.0888 0.3961
C19 C 0.2724(2) 0.2072(2) 0.31239(13)
C20 C 0.3491(3) -0.0648(3) 0.2130(2)
H15 H 0.3377 -0.0372 0.1657
H16 H 0.3012 -0.1156 0.2279
H17 H 0.4241 -0.1031 0.2228
C21 C 0.2315(3) 0.4245(3) 0.11540(16)
C22 C 0.3184(2) 0.4056(3) 0.17108(14)
C23 C 0.3340(3) 0.5145(3) 0.18732(19)
H18 H 0.3867 0.5441 0.1584
H19 H 0.3601 0.5016 0.2329
H20 H 0.2651 0.5669 0.1810
C24 C 0.4257(3) 0.3340(3) 0.16237(16)
H21 H 0.4704 0.3783 0.1351
H22 H 0.4139 0.2752 0.1412
H23 H 0.4623 0.3023 0.2052
C25 C 0.0521(2) 0.3619(2) 0.14833(14)
C26 C 0.0002(3) 0.3107(3) 0.20155(16)
H24 H 0.0364 0.2866 0.2432
C27 C -0.1049(3) 0.2951(3) 0.19329(19)
H25 H -0.1402 0.2608 0.2292
C28 C -0.1561(3) 0.3300(3) 0.1329(2)
C29 C -0.1056(3) 0.3787(3) 0.0794(2)
H26 H -0.1417 0.4003 0.0377
C30 C -0.0019(3) 0.3959(3) 0.08701(17)
H27 H 0.0323 0.4306 0.0506
Cl3 Cl 1.16709(13) 0.7916(2) 0.05287(16)
Cl4 Cl 0.16396(9) 0.65496(10) 0.41134(7)
O4 O 0.64109(19) 0.52480(19) 0.21874(11)
O5 O 0.6102(2) 0.8487(3) -0.04743(13)
O6 O 0.7404(2) 0.5253(3) 0.43397(13)
N4 N 0.7071(2) 0.7471(2) 0.05004(12)
N5 N 0.6500(2) 0.7019(2) 0.16426(11)
N6 N 0.6257(2) 0.6223(2) 0.34197(11)
C31 C 0.8910(3) 0.6862(4) 0.0959(3)
H28 H 0.8675 0.6306 0.1266
C32 C 0.9995(4) 0.6965(5) 0.0976(4)
H29 H 1.0489 0.6486 0.1297
C33 C 1.0329(5) 0.7750(7) 0.0532(5)
C34 C 0.9624(5) 0.8448(6) 0.0045(4)
H30 H 0.9878 0.8973 -0.0275
C35 C 0.8523(4) 0.8364(4) 0.0030(2)
H31 H 0.8029 0.8843 -0.0292
C36 C 0.8186(3) 0.7571(4) 0.0494(2)
C37 C 0.6205(3) 0.7871(3) 0.00572(17)
C38 C 0.5468(3) 0.7216(3) 0.05061(15)
C39 C 0.6495(3) 0.6787(3) 0.09846(14)
H32 H 0.6783 0.5991 0.1001
C40 C 0.5159(3) 0.6305(4) 0.02055(18)
H33 H 0.4707 0.5909 0.0505
H34 H 0.5813 0.5796 0.0132
H35 H 0.4759 0.6630 -0.0212
C41 C 0.4477(3) 0.7912(4) 0.07544(18)
H36 H 0.4076 0.7429 0.1036
H37 H 0.4011 0.8346 0.0381
H38 H 0.4714 0.8402 0.1004
C42 C 0.6528(2) 0.6178(3) 0.21960(15)
C43 C 0.6760(2) 0.6635(2) 0.27978(13)
C44 C 0.6558(2) 0.7861(2) 0.25274(13)
C45 C 0.6474(2) 0.8735(3) 0.28422(15)
H39 H 0.6521 0.8601 0.3306
C46 C 0.6322(3) 0.9812(3) 0.24797(17)
C47 C 0.6283(3) 0.9976(3) 0.17941(17)
H40 H 0.6206 1.0700 0.1545
C48 C 0.6352(3) 0.9111(3) 0.14644(15)
H41 H 0.6313 0.9245 0.1001
C49 C 0.6481(2) 0.8046(2) 0.18361(13)
C50 C 0.6224(4) 1.0774(3) 0.2828(2)
H42 H 0.6115 1.1462 0.2503
H43 H 0.6885 1.0694 0.3091
H44 H 0.5610 1.0780 0.3112
C51 C 0.7228(3) 0.5740(3) 0.37672(16)
C52 C 0.7915(3) 0.6052(3) 0.31820(16)
C53 C 0.8674(3) 0.6823(3) 0.32731(18)
H45 H 0.9340 0.6392 0.3505
H46 H 0.8322 0.7350 0.3527
H47 H 0.8843 0.7216 0.2844
C54 C 0.8546(3) 0.5031(3) 0.2946(2)
H48 H 0.9225 0.4748 0.3203
H49 H 0.8697 0.5239 0.2483
H50 H 0.8112 0.4464 0.3004
C55 C 0.4348(3) 0.6566(3) 0.30940(15)
H51 H 0.4530 0.6686 0.2648
C56 C 0.3263(3) 0.6638(3) 0.32590(18)
H52 H 0.2714 0.6802 0.2925
C57 C 0.3000(3) 0.6469(3) 0.3907(2)
C58 C 0.3787(3) 0.6221(3) 0.44026(19)
H53 H 0.3596 0.6104 0.4847
C59 C 0.4863(3) 0.6145(3) 0.42427(16)
H54 H 0.5407 0.5974 0.4580
C60 C 0.5149(2) 0.6319(2) 0.35820(14)
O7 O 0.9966(17) -0.0537(13) 0.2875(6)
O8 O 1.0562(11) -0.0646(19) 0.2100(10)
C61 C 0.9952(8) -0.0515(6) 0.3892(5)
H55 H 1.0033 -0.0121 0.4240
H56 H 1.0485 -0.1203 0.3968
H57 H 0.9226 -0.0673 0.3893
C62 C 1.0124(11) 0.0185(14) 0.3236(5)
H58 H 0.9585 0.0879 0.3129
H59 H 1.0860 0.0338 0.3204
C63 C 0.9718(16) -0.0231(16) 0.2237(19)
C64 C 0.9209(10) -0.0294(13) 0.1687(7)
H60 H 0.9415 0.0222 0.1317
H61 H 0.8429 -0.0111 0.1733
H62 H 0.9411 -0.1039 0.1609
loop_
_geom_bond_atom_site_label_1
_geom_bond_atom_site_label_2
_geom_bond_site_symmetry_1
_geom_bond_site_symmetry_2
Cl1 C3 1_555 1_555
Cl2 C28 1_555 1_555
Cl3 C33 1_555 1_555
Cl4 C57 1_555 1_555
O1 C12 1_555 1_555
O2 C7 1_555 1_555
O3 C21 1_555 1_555
O4 C42 1_555 1_555
O5 C37 1_555 1_555
O6 C51 1_555 1_555
O7 C62 1_555 1_555
O8 C63 1_555 1_555
N1 C6 1_555 1_555
N2 C9 1_555 1_555
N3 C13 1_555 1_555
N4 C36 1_555 1_555
N5 C39 1_555 1_555
N6 C43 1_555 1_555
C1 H1 1_555 1_555
C2 C1 1_555 1_555
H2 C2 1_555 1_555
C3 C2 1_555 1_555
C4 C3 1_555 1_555
H3 C4 1_555 1_555
C5 C4 1_555 1_555
H4 C5 1_555 1_555
C6 C1 1_555 1_555
C7 N1 1_555 1_555
C8 C7 1_555 1_555
C9 N1 1_555 1_555
H5 C9 1_555 1_555
C10 C8 1_555 1_555
H6 C10 1_555 1_555
H7 C10 1_555 1_555
H8 C10 1_555 1_555
C11 C8 1_555 1_555
H9 C11 1_555 1_555
H10 C11 1_555 1_555
H11 C11 1_555 1_555
C12 N2 1_555 1_555
C13 C12 1_555 1_555
C14 C13 1_555 1_555
C15 C14 1_555 1_555
H12 C15 1_555 1_555
C16 C15 1_555 1_555
C17 C16 1_555 1_555
H13 C17 1_555 1_555
C18 C17 1_555 1_555
H14 C18 1_555 1_555
C19 N2 1_555 1_555
C20 C16 1_555 1_555
H15 C20 1_555 1_555
H16 C20 1_555 1_555
H17 C20 1_555 1_555
C21 N3 1_555 1_555
C22 C13 1_555 1_555
C23 C22 1_555 1_555
H18 C23 1_555 1_555
H19 C23 1_555 1_555
H20 C23 1_555 1_555
C24 C22 1_555 1_555
H21 C24 1_555 1_555
H22 C24 1_555 1_555
H23 C24 1_555 1_555
C25 N3 1_555 1_555
C26 C25 1_555 1_555
H24 C26 1_555 1_555
C27 C26 1_555 1_555
H25 C27 1_555 1_555
C28 C27 1_555 1_555
C29 C28 1_555 1_555
H26 C29 1_555 1_555
C30 C25 1_555 1_555
H27 C30 1_555 1_555
C31 H28 1_555 1_555
C32 C31 1_555 1_555
H29 C32 1_555 1_555
C33 C32 1_555 1_555
C34 C33 1_555 1_555
H30 C34 1_555 1_555
C35 C34 1_555 1_555
H31 C35 1_555 1_555
C36 C31 1_555 1_555
C37 N4 1_555 1_555
C38 C37 1_555 1_555
C39 N4 1_555 1_555
H32 C39 1_555 1_555
C40 C38 1_555 1_555
H33 C40 1_555 1_555
H34 C40 1_555 1_555
H35 C40 1_555 1_555
C41 C38 1_555 1_555
H36 C41 1_555 1_555
H37 C41 1_555 1_555
H38 C41 1_555 1_555
C42 N5 1_555 1_555
C43 C42 1_555 1_555
C44 C43 1_555 1_555
C45 C44 1_555 1_555
H39 C45 1_555 1_555
C46 C45 1_555 1_555
C47 C46 1_555 1_555
H40 C47 1_555 1_555
C48 C47 1_555 1_555
H41 C48 1_555 1_555
C49 N5 1_555 1_555
C50 C46 1_555 1_555
H42 C50 1_555 1_555
H43 C50 1_555 1_555
H44 C50 1_555 1_555
C51 N6 1_555 1_555
C52 C43 1_555 1_555
C53 C52 1_555 1_555
H45 C53 1_555 1_555
H46 C53 1_555 1_555
H47 C53 1_555 1_555
C54 C52 1_555 1_555
H48 C54 1_555 1_555
H49 C54 1_555 1_555
H50 C54 1_555 1_555
C55 H51 1_555 1_555
C56 C55 1_555 1_555
H52 C56 1_555 1_555
C57 C56 1_555 1_555
C58 C57 1_555 1_555
H53 C58 1_555 1_555
C59 C58 1_555 1_555
H54 C59 1_555 1_555
C60 N6 1_555 1_555
C61 H55 1_555 1_555
H56 C61 1_555 1_555
H57 C61 1_555 1_555
C62 C61 1_555 1_555
H58 C62 1_555 1_555
H59 C62 1_555 1_555
C63 O7 1_555 1_555
C64 C63 1_555 1_555
H60 C64 1_555 1_555
H61 C64 1_555 1_555
H62 C64 1_555 1_555
C5 C6 1_555 1_555
C8 C9 1_555 1_555
C14 C19 1_555 1_555
C18 C19 1_555 1_555
C21 C22 1_555 1_555
C29 C30 1_555 1_555
C35 C36 1_555 1_555
C38 C39 1_555 1_555
C44 C49 1_555 1_555
C48 C49 1_555 1_555
C51 C52 1_555 1_555
C55 C60 1_555 1_555
C59 C60 1_555 1_555

#END
