
#######################################################################
#
#                 Cambridge Crystallographic Data Centre
#                                CCDC 
#
#######################################################################
#
# If this CIF has been generated from an entry in the Cambridge 
# Structural Database, then it will include bibliographic, chemical, 
# crystal, experimental, refinement or atomic coordinate data resulting 
# from the CCDC's data processing and validation procedures.
#
#######################################################################

data_KEKQAS
_chemical_formula_moiety         'C11 H15 N2 1+,H1 Br1,H1 O1 1-'
_chemical_name_systematic        
'1,3-Diethylbenzimidazolium hydrogen bromide hydroxide'
_symmetry_cell_setting           monoclinic
_symmetry_space_group_name_H-M   'P 21/c'
_symmetry_Int_Tables_number      14
_space_group_name_Hall           '-P 2ybc'
loop_
_symmetry_equiv_pos_site_id
_symmetry_equiv_pos_as_xyz
1 x,y,z
2 -x,1/2+y,1/2-z
3 -x,-y,-z
4 x,1/2-y,1/2+z
_cell_length_a                   8.853(2)
_cell_length_b                   8.788(2)
_cell_length_c                   16.413(2)
_cell_angle_alpha                90
_cell_angle_beta                 102.15(2)
_cell_angle_gamma                90
_cell_volume                     1248.33
_exptl_crystal_colour            colorless
_cell_formula_units_Z            4
_exptl_crystal_recrystallization_method dichloromethane/hexane
loop_
_atom_site_label
_atom_site_type_symbol
_atom_site_fract_x
_atom_site_fract_y
_atom_site_fract_z
Br1 Br 0.1130(1) 0.1988(1) 0.6667(1)
H14 H 0.1342(91) 0.058(11) 0.6778(49)
N1 N 0.3811(6) 0.0186(6) 0.3379(3)
C1 C 0.3808(7) 0.1821(8) 0.4407(3)
N2 N 0.2309(6) 0.1414(6) 0.4036(3)
C2 C 0.4772(7) 0.1045(7) 0.3988(3)
C3 C 0.0858(8) 0.1922(11) 0.4271(5)
C4 C 0.2372(8) 0.0442(8) 0.3433(4)
C5 C 0.6930(8) 0.2063(10) 0.4900(5)
C6 C 0.6370(8) 0.1131(9) 0.4228(4)
C7 C 0.5978(8) 0.2859(10) 0.5324(4)
C8 C 0.4389(8) 0.2752(9) 0.5090(4)
C9 C 0.4298(11) -0.0859(9) 0.2775(5)
C10 C 0.4464(14) -0.0082(12) 0.1992(5)
C11 C 0.0503(13) 0.3546(13) 0.4043(7)
H1 H 0.3753(68) 0.3320(66) 0.5303(36)
H2 H 0.7881(88) 0.2153(97) 0.5080(48)
H3 H 0.488(11) -0.087(12) 0.1683(58)
H4 H 0.1021(68) 0.1734(74) 0.4770(41)
H5 H 0.3418(99) -0.183(10) 0.2732(52)
H6 H 0.1155(94) 0.4232(96) 0.4231(51)
H7 H 0.004(12) 0.380(12) 0.3306(68)
H8 H 0.1528(62) 0.0016(61) 0.3107(31)
H9 H 0.6445(67) 0.3484(70) 0.5757(38)
H10 H 0.7027(73) 0.0552(72) 0.3975(37)
H11 H 0.3594(89) 0.066(10) 0.1802(47)
H12 H -0.044(16) 0.446(17) 0.4110(80)
H13 H 0.5176(93) 0.084(11) 0.2132(50)
H15 H -0.015(12) 0.086(13) 0.3809(65)
H16 H 0.5176(76) -0.1413(72) 0.3038(39)
O1 O 0.1768(8) -0.3630(10) 0.2682(5)
H17 H 0.173(13) -0.452(11) 0.2691(69)
loop_
_geom_bond_atom_site_label_1
_geom_bond_atom_site_label_2
_geom_bond_site_symmetry_1
_geom_bond_site_symmetry_2
Br1 H14 1_555 1_555
N1 C2 1_555 1_555
C1 N2 1_555 1_555
N2 C3 1_555 1_555
C2 C1 1_555 1_555
C3 C11 1_555 1_555
C4 N1 1_555 1_555
C5 C6 1_555 1_555
C6 C2 1_555 1_555
C7 C5 1_555 1_555
C8 C1 1_555 1_555
C9 N1 1_555 1_555
C10 C9 1_555 1_555
C11 H6 1_555 1_555
O1 H17 1_555 1_555
H1 C8 1_555 1_555
H2 C5 1_555 1_555
H3 C10 1_555 1_555
H4 C3 1_555 1_555
H5 C9 1_555 1_555
H7 C11 1_555 1_555
H8 C4 1_555 1_555
H9 C7 1_555 1_555
H10 C6 1_555 1_555
H11 C10 1_555 1_555
H12 C11 1_555 1_555
H13 C10 1_555 1_555
H15 C3 1_555 1_555
H16 C9 1_555 1_555
N2 C4 1_555 1_555
C7 C8 1_555 1_555

#END
