
#######################################################################
#
#                 Cambridge Crystallographic Data Centre
#                                CCDC 
#
#######################################################################
#
# If this CIF has been generated from an entry in the Cambridge 
# Structural Database, then it will include bibliographic, chemical, 
# crystal, experimental, refinement or atomic coordinate data resulting 
# from the CCDC's data processing and validation procedures.
#
#######################################################################

data_KEKRIC
_chemical_formula_moiety         'C26 H24 N6 O10'
_chemical_name_systematic        
'Diethyl 2,10-dinitro-6,13-dioxo-5,7,12,13b,13c,14-hexahydro-5a,6a,12a,13a-tetra-azabenzo(5,6)azuleno(2,1,8-ija)benzo(f)azulene-13b,13c-dicarboxylate'
_symmetry_cell_setting           triclinic
_symmetry_space_group_name_H-M   'P -1'
_symmetry_Int_Tables_number      2
_space_group_name_Hall           '-P 1'
loop_
_symmetry_equiv_pos_site_id
_symmetry_equiv_pos_as_xyz
1 x,y,z
2 -x,-y,-z
_cell_length_a                   8.4288(16)
_cell_length_b                   11.561(2)
_cell_length_c                   13.722(3)
_cell_angle_alpha                94.820(3)
_cell_angle_beta                 98.701(3)
_cell_angle_gamma                90.263(4)
_cell_volume                     1316.88
_exptl_crystal_colour            colorless
_exptl_crystal_description       block
_cell_formula_units_Z            2
loop_
_atom_site_label
_atom_site_type_symbol
_atom_site_fract_x
_atom_site_fract_y
_atom_site_fract_z
C1 C 1.0886(3) 0.9573(2) 0.7386(2)
C2 C 1.2006(3) 0.9707(2) 0.6752(2)
H1 H 1.2922 0.9257 0.6807
C3 C 1.1782(4) 1.0491(2) 0.6043(2)
H2 H 1.2526 1.0566 0.5615
C4 C 1.0440(3) 1.1159(2) 0.5985(2)
C5 C 0.9312(3) 1.1070(2) 0.6621(2)
H3 H 0.8414 1.1538 0.6570
C6 C 0.9541(3) 1.0287(2) 0.73228(19)
C7 C 0.8329(3) 1.0200(2) 0.8028(2)
H4 H 0.8871 1.0374 0.8700
H5 H 0.7519 1.0784 0.7896
C8 C 1.1149(3) 0.8673(2) 0.8126(2)
H6 H 1.2140 0.8274 0.8052
H7 H 1.1275 0.9062 0.8788
C9 C 0.6369(3) 0.8756(2) 0.7150(2)
C10 C 0.9805(3) 0.6790(2) 0.74273(18)
C11 C 0.8322(3) 0.8073(2) 0.83492(19)
C12 C 0.8563(4) 0.8186(2) 0.9487(2)
C13 C 0.9272(5) 0.7140(3) 1.0897(2)
H8 H 1.0200 0.7615 1.1193
H9 H 0.8342 0.7450 1.1161
C14 C 0.9514(7) 0.5958(4) 1.1148(3)
H10 H 0.8607 0.5485 1.0841
H11 H 0.9630 0.5938 1.1853
H12 H 1.0467 0.5667 1.0916
C15 C 0.7218(3) 0.7024(2) 0.78302(19)
C16 C 0.6310(4) 0.6375(3) 0.8518(2)
C17 C 0.4556(7) 0.6701(6) 0.9723(4)
H13 H 0.5242 0.6272 1.0193
H14 H 0.3699 0.6185 0.9386
C18 C 0.3879(8) 0.7701(8) 1.0243(5)
H15 H 0.4637 0.7987 1.0806
H16 H 0.2905 0.7465 1.0459
H17 H 0.3653 0.8303 0.9803
C19 C 0.4978(3) 0.6941(3) 0.6375(2)
H18 H 0.4087 0.7429 0.6150
H19 H 0.4547 0.6278 0.6645
C20 C 0.7746(4) 0.5351(2) 0.6605(2)
H20 H 0.6920 0.4902 0.6832
H21 H 0.8631 0.4838 0.6521
C21 C 0.7077(3) 0.5758(2) 0.5612(2)
C22 C 0.7747(3) 0.5372(2) 0.4785(2)
H22 H 0.8571 0.4838 0.4848
C23 C 0.7224(3) 0.5761(2) 0.3870(2)
H23 H 0.7696 0.5508 0.3321
C24 C 0.5986(3) 0.6535(2) 0.3792(2)
C25 C 0.5228(3) 0.6902(2) 0.4590(2)
H24 H 0.4363 0.7399 0.4511
C26 C 0.5779(3) 0.6518(2) 0.55027(19)
N1 N 1.0134(3) 1.1959(2) 0.5205(2)
N2 N 0.7538(3) 0.90688(18) 0.79537(16)
N3 N 0.9843(3) 0.78137(18) 0.80198(16)
N4 N 0.6058(3) 0.75901(19) 0.71493(16)
N5 N 0.8312(3) 0.62826(18) 0.73708(16)
N6 N 0.5418(4) 0.6978(2) 0.2834(2)
O1 O 1.1006(3) 1.1912(2) 0.45675(18)
O2 O 0.9027(4) 1.2626(2) 0.5232(2)
O3 O 0.5701(2) 0.94030(18) 0.65782(16)
O4 O 1.0914(2) 0.63907(17) 0.70501(15)
O5 O 0.8403(3) 0.90523(19) 0.99864(16)
O6 O 0.9031(3) 0.71856(18) 0.98274(14)
O7 O 0.6350(4) 0.5354(2) 0.8580(2)
O8 O 0.5477(3) 0.7126(3) 0.90112(18)
O9 O 0.6280(4) 0.6862(3) 0.2203(2)
O10 O 0.4094(4) 0.7415(3) 0.27110(19)
loop_
_geom_bond_atom_site_label_1
_geom_bond_atom_site_label_2
_geom_bond_site_symmetry_1
_geom_bond_site_symmetry_2
C1 C2 1_555 1_555
C2 H1 1_555 1_555
C3 C2 1_555 1_555
H2 C3 1_555 1_555
C4 C3 1_555 1_555
C5 C4 1_555 1_555
H3 C5 1_555 1_555
C6 C1 1_555 1_555
C7 C6 1_555 1_555
H4 C7 1_555 1_555
H5 C7 1_555 1_555
C8 C1 1_555 1_555
H6 C8 1_555 1_555
H7 C8 1_555 1_555
C9 N2 1_555 1_555
C10 N3 1_555 1_555
C11 C12 1_555 1_555
C12 O5 1_555 1_555
C13 H8 1_555 1_555
H9 C13 1_555 1_555
C14 C13 1_555 1_555
H10 C14 1_555 1_555
H11 C14 1_555 1_555
H12 C14 1_555 1_555
C15 C11 1_555 1_555
C16 C15 1_555 1_555
C17 H13 1_555 1_555
H14 C17 1_555 1_555
C18 C17 1_555 1_555
H15 C18 1_555 1_555
H16 C18 1_555 1_555
H17 C18 1_555 1_555
C19 H18 1_555 1_555
H19 C19 1_555 1_555
C20 H20 1_555 1_555
H21 C20 1_555 1_555
C21 C20 1_555 1_555
C22 C21 1_555 1_555
H22 C22 1_555 1_555
C23 C22 1_555 1_555
H23 C23 1_555 1_555
C24 C23 1_555 1_555
C25 C24 1_555 1_555
H24 C25 1_555 1_555
C26 C19 1_555 1_555
N1 C4 1_555 1_555
N2 C7 1_555 1_555
N3 C8 1_555 1_555
N4 C9 1_555 1_555
N5 C10 1_555 1_555
N6 C24 1_555 1_555
O1 N1 1_555 1_555
O2 N1 1_555 1_555
O3 C9 1_555 1_555
O4 C10 1_555 1_555
O6 C12 1_555 1_555
O7 C16 1_555 1_555
O8 C16 1_555 1_555
O9 N6 1_555 1_555
O10 N6 1_555 1_555
C5 C6 1_555 1_555
C11 N2 1_555 1_555
C11 N3 1_555 1_555
C13 O6 1_555 1_555
C15 N4 1_555 1_555
C15 N5 1_555 1_555
C17 O8 1_555 1_555
C19 N4 1_555 1_555
C20 N5 1_555 1_555
C21 C26 1_555 1_555
C25 C26 1_555 1_555

#END
