
#######################################################################
#
#                 Cambridge Crystallographic Data Centre
#                                CCDC 
#
#######################################################################
#
# If this CIF has been generated from an entry in the Cambridge 
# Structural Database, then it will include bibliographic, chemical, 
# crystal, experimental, refinement or atomic coordinate data resulting 
# from the CCDC's data processing and validation procedures.
#
#######################################################################

data_KEKSEZ
_chemical_formula_moiety         'C30 H34 N4 O10,0.5(C2 H4 Cl2)'
_chemical_name_systematic        
'Diethyl 2,3,8,11-tetramethoxy-6,13-dioxo-5,7,12,13b,13c,14-hexahydro-5a,6a,12a,13a-tetra-azabenzo(5,6)azuleno(2,1,8-ija)benzo(f)azulene-13b,13c-dicarboxylate 1,2-dichloroethane solvate'
_symmetry_cell_setting           triclinic
_symmetry_space_group_name_H-M   'P -1'
_symmetry_Int_Tables_number      2
_space_group_name_Hall           '-P 1'
loop_
_symmetry_equiv_pos_site_id
_symmetry_equiv_pos_as_xyz
1 x,y,z
2 -x,-y,-z
_cell_length_a                   10.139(12)
_cell_length_b                   12.672(15)
_cell_length_c                   13.818(17)
_cell_angle_alpha                78.23(2)
_cell_angle_beta                 68.90(2)
_cell_angle_gamma                70.97(2)
_cell_volume                     1558.24
_exptl_crystal_colour            colorless
_exptl_crystal_description       block
_cell_formula_units_Z            2
loop_
_atom_site_label
_atom_site_type_symbol
_atom_site_fract_x
_atom_site_fract_y
_atom_site_fract_z
C1 C 1.3918(5) 0.4937(4) -0.2571(3)
H1 H 1.4061 0.4227 -0.2158
H2 H 1.4493 0.4836 -0.3287
H3 H 1.2897 0.5240 -0.2515
C2 C 1.6060(5) 0.7503(4) -0.1168(4)
H4 H 1.5239 0.8103 -0.0855
H5 H 1.6735 0.7806 -0.1758
H6 H 1.6550 0.7102 -0.0668
C3 C 1.3808(4) 0.5806(3) -0.1167(3)
C4 C 1.4448(3) 0.6374(3) -0.0783(3)
C5 C 1.2661(4) 0.5402(3) -0.0495(3)
H7 H 1.2209 0.5045 -0.0755
C6 C 1.3962(3) 0.6487(3) 0.0270(3)
H8 H 1.4397 0.6861 0.0528
C7 C 1.2829(3) 0.6049(3) 0.0952(3)
C8 C 1.2167(3) 0.5516(3) 0.0564(3)
C9 C 1.0954(4) 0.5017(3) 0.1255(3)
H9 H 1.0653 0.4679 0.0828
H10 H 1.1331 0.4424 0.1734
C10 C 1.2428(3) 0.6106(3) 0.2114(3)
H11 H 1.2673 0.5349 0.2449
H12 H 1.3020 0.6509 0.2223
C11 C 1.0396(4) 0.7752(3) 0.2783(3)
C12 C 0.8756(3) 0.6643(3) 0.1385(3)
C13 C 0.9695(3) 0.6171(3) 0.2777(2)
C14 C 0.9755(4) 0.5160(3) 0.3613(3)
C15 C 0.8583(6) 0.3827(4) 0.4649(4)
H13 H 0.9405 0.3200 0.4362
H14 H 0.8698 0.3988 0.5266
C16 C 0.7261(7) 0.3541(6) 0.4920(6)
H15 H 0.6447 0.4196 0.5102
H16 H 0.7201 0.2979 0.5504
H17 H 0.7231 0.3254 0.4339
C17 C 0.8301(3) 0.7224(3) 0.3001(2)
C18 C 0.6999(4) 0.7076(3) 0.3967(3)
C19 C 0.6116(5) 0.7026(4) 0.5813(3)
H18 H 0.6555 0.6757 0.6367
H19 H 0.5644 0.6482 0.5791
C20 C 0.5005(6) 0.8114(5) 0.6038(4)
H20 H 0.5456 0.8634 0.6121
H21 H 0.4227 0.8014 0.6668
H22 H 0.4610 0.8402 0.5471
C21 C 0.8062(4) 0.9243(3) 0.3088(3)
H23 H 0.8468 0.9644 0.3387
H24 H 0.7054 0.9302 0.3527
C22 C 0.6863(4) 0.8439(3) 0.1807(3)
H25 H 0.6014 0.8627 0.2421
H26 H 0.6525 0.8304 0.1281
C23 C 0.8056(4) 0.9810(3) 0.2015(3)
C24 C 0.7499(4) 0.9426(3) 0.1403(3)
C25 C 0.7513(4) 0.9965(3) 0.0414(3)
C26 C 0.8094(4) 1.0863(3) 0.0040(3)
H27 H 0.8125 1.1210 -0.0626
C27 C 0.8628(4) 1.1252(3) 0.0637(3)
H28 H 0.9005 1.1868 0.0374
C28 C 0.8615(4) 1.0743(3) 0.1624(3)
C29 C 0.9651(6) 1.2043(3) 0.1917(4)
H29 H 1.0476 1.1902 0.1293
H30 H 0.9952 1.2204 0.2442
H31 H 0.8886 1.2672 0.1771
C30 C 0.6805(5) 1.0149(4) -0.1092(3)
H32 H 0.6331 1.0930 -0.1002
H33 H 0.6236 0.9853 -0.1337
H34 H 0.7770 1.0066 -0.1592
N1 N 1.0878(3) 0.6651(2) 0.2614(2)
N2 N 0.9666(3) 0.5820(2) 0.1856(2)
N3 N 0.8895(3) 0.8068(2) 0.3108(2)
N4 N 0.7897(3) 0.7416(2) 0.2071(2)
O1 O 1.4369(3) 0.5687(2) -0.22070(19)
O2 O 1.5560(3) 0.6770(2) -0.14945(19)
O3 O 1.1177(3) 0.8344(2) 0.2678(2)
O4 O 0.8704(3) 0.6650(2) 0.05156(19)
O5 O 1.0781(3) 0.4739(3) 0.3908(3)
O6 O 0.8583(3) 0.4808(2) 0.3880(2)
O7 O 0.5911(3) 0.6957(3) 0.3919(2)
O8 O 0.7266(3) 0.7129(2) 0.48183(18)
O9 O 0.9119(3) 1.1086(2) 0.2278(2)
O10 O 0.6921(3) 0.9558(2) -0.0129(2)
C31 C 0.953(2) 0.001(2) 0.5415(15)
Cl1 Cl 0.8264(5) -0.0727(4) 0.5811(2)
C31A C 1.047(2) -0.001(2) 0.4585(15)
Cl1A Cl 1.1736(5) 0.0727(4) 0.4189(2)
C32? C 0.962(10) 0.054(15) 0.506(15)
Cl2? Cl 0.795(4) 0.030(3) 0.5703(17)
loop_
_geom_bond_atom_site_label_1
_geom_bond_atom_site_label_2
_geom_bond_site_symmetry_1
_geom_bond_site_symmetry_2
C1 H1 1_555 1_555
H2 C1 1_555 1_555
H3 C1 1_555 1_555
C2 H4 1_555 1_555
H5 C2 1_555 1_555
H6 C2 1_555 1_555
C3 C4 1_555 1_555
C4 C6 1_555 1_555
C5 C3 1_555 1_555
H7 C5 1_555 1_555
C6 H8 1_555 1_555
C7 C6 1_555 1_555
C8 C5 1_555 1_555
C9 C8 1_555 1_555
H9 C9 1_555 1_555
H10 C9 1_555 1_555
C10 C7 1_555 1_555
H11 C10 1_555 1_555
H12 C10 1_555 1_555
C11 N1 1_555 1_555
C12 N2 1_555 1_555
C13 C14 1_555 1_555
C14 O5 1_555 1_555
C15 H13 1_555 1_555
H14 C15 1_555 1_555
C16 C15 1_555 1_555
H15 C16 1_555 1_555
H16 C16 1_555 1_555
H17 C16 1_555 1_555
C17 C13 1_555 1_555
C18 C17 1_555 1_555
C19 H18 1_555 1_555
H19 C19 1_555 1_555
C20 C19 1_555 1_555
H20 C20 1_555 1_555
H21 C20 1_555 1_555
H22 C20 1_555 1_555
C21 H23 1_555 1_555
H24 C21 1_555 1_555
C22 H25 1_555 1_555
H26 C22 1_555 1_555
C23 C21 1_555 1_555
C24 C22 1_555 1_555
C25 C24 1_555 1_555
C26 C25 1_555 1_555
H27 C26 1_555 1_555
C27 C26 1_555 1_555
H28 C27 1_555 1_555
C28 C23 1_555 1_555
C29 H29 1_555 1_555
H30 C29 1_555 1_555
H31 C29 1_555 1_555
C30 H32 1_555 1_555
H33 C30 1_555 1_555
H34 C30 1_555 1_555
C31 Cl1 1_555 1_555
N1 C10 1_555 1_555
N2 C9 1_555 1_555
N3 C11 1_555 1_555
N4 C12 1_555 1_555
O1 C1 1_555 1_555
O2 C2 1_555 1_555
O3 C11 1_555 1_555
O4 C12 1_555 1_555
O6 C14 1_555 1_555
O7 C18 1_555 1_555
O8 C18 1_555 1_555
O9 C28 1_555 1_555
O10 C25 1_555 1_555
C31A C31 1_555 1_555
Cl1A C31A 1_555 1_555
C3 O1 1_555 1_555
C4 O2 1_555 1_555
C7 C8 1_555 1_555
C13 N1 1_555 1_555
C13 N2 1_555 1_555
C15 O6 1_555 1_555
C17 N3 1_555 1_555
C17 N4 1_555 1_555
C19 O8 1_555 1_555
C21 N3 1_555 1_555
C22 N4 1_555 1_555
C23 C24 1_555 1_555
C27 C28 1_555 1_555
C29 O9 1_555 1_555
C30 O10 1_555 1_555

#END
