
#######################################################################
#
#                 Cambridge Crystallographic Data Centre
#                                CCDC 
#
#######################################################################
#
# If this CIF has been generated from an entry in the Cambridge 
# Structural Database, then it will include bibliographic, chemical, 
# crystal, experimental, refinement or atomic coordinate data resulting 
# from the CCDC's data processing and validation procedures.
#
#######################################################################

data_KEKSAV
_chemical_formula_moiety         'C28 H28 N6 O12'
_chemical_name_systematic        
'Diethyl 1,8-dimethoxy-4,11-dinitro-6,13-dioxo-5,7,12,13b,13c,14-hexahydro-5a,6a,12a,13a-tetra-azabenzo(5,6)azuleno(2,1,8-ija)benzo(f)azulene-13b,13c-dicarboxylate'
_symmetry_cell_setting           monoclinic
_symmetry_space_group_name_H-M   'C 2/c'
_symmetry_Int_Tables_number      15
_space_group_name_Hall           '-C 2yn'
loop_
_symmetry_equiv_pos_site_id
_symmetry_equiv_pos_as_xyz
1 x,y,z
2 1/2+x,1/2+y,z
3 -x,y,1/2-z
4 1/2-x,1/2+y,1/2-z
5 -x,-y,-z
6 1/2-x,1/2-y,-z
7 x,-y,1/2+z
8 1/2+x,1/2-y,1/2+z
_cell_length_a                   12.9697(15)
_cell_length_b                   15.7345(18)
_cell_length_c                   28.299(3)
_cell_angle_alpha                90
_cell_angle_beta                 101.549(2)
_cell_angle_gamma                90
_cell_volume                     5658.1
_exptl_crystal_colour            colorless
_exptl_crystal_description       block
_cell_formula_units_Z            8
loop_
_atom_site_label
_atom_site_type_symbol
_atom_site_fract_x
_atom_site_fract_y
_atom_site_fract_z
C1 C 0.4180(3) 0.6747(3) 0.19122(15)
H1 H 0.3847 0.6860 0.1584
H2 H 0.4125 0.6153 0.1979
H3 H 0.4909 0.6906 0.1962
C2 C 0.3665(2) 0.8092(2) 0.21855(10)
C3 C 0.4253(2) 0.8525(3) 0.19027(11)
H4 H 0.4682 0.8229 0.1733
C4 C 0.4192(2) 0.9389(3) 0.18778(11)
H5 H 0.4612 0.9689 0.1705
C5 C 0.3508(2) 0.9818(2) 0.21082(10)
C6 C 0.2910(2) 0.94075(19) 0.23984(9)
C7 C 0.30273(19) 0.85317(19) 0.24508(9)
C8 C 0.2474(2) 0.80203(18) 0.27805(10)
H6 H 0.1727 0.8009 0.2643
H7 H 0.2729 0.7440 0.2791
C9 C 0.2126(2) 0.98947(19) 0.26293(9)
H8 H 0.2158 1.0490 0.2544
H9 H 0.1424 0.9692 0.2490
C10 C 0.33487(18) 0.80416(16) 0.36505(9)
C11 C 0.30422(19) 1.03124(17) 0.34487(9)
C12 C 0.20515(18) 0.90701(15) 0.33929(8)
C13 C 0.0863(2) 0.8877(2) 0.32988(9)
C14 C -0.0371(2) 0.7810(3) 0.34331(14)
H10 H -0.0744 0.7982 0.3116
H11 H -0.0322 0.7194 0.3436
C15 C -0.0958(3) 0.8076(3) 0.37870(18)
H12 H -0.0565 0.7946 0.4104
H13 H -0.1620 0.7782 0.3734
H14 H -0.1080 0.8677 0.3760
C16 C 0.25819(17) 0.92250(15) 0.39333(9)
C17 C 0.18177(19) 0.93393(17) 0.42800(10)
C18 C 0.0425(3) 1.0185(2) 0.44332(14)
H15 H 0.0128 0.9674 0.4544
H16 H 0.0776 1.0504 0.4712
C19 C -0.0400(3) 1.0695(3) 0.41443(18)
H17 H -0.0095 1.1185 0.4024
H18 H -0.0886 1.0874 0.4340
H19 H -0.0766 1.0363 0.3878
C20 C 0.40531(18) 0.84472(17) 0.44923(9)
H20 H 0.4237 0.7857 0.4564
H21 H 0.3773 0.8673 0.4760
C21 C 0.39634(19) 1.02943(17) 0.43079(9)
H22 H 0.3693 1.0242 0.4602
H23 H 0.4095 1.0892 0.4261
C22 C 0.49975(18) 0.98131(17) 0.43681(9)
C23 C 0.50492(19) 0.89353(17) 0.44582(9)
C24 C 0.6037(2) 0.85479(18) 0.45096(10)
C25 C 0.6927(2) 0.8982(2) 0.44654(11)
H24 H 0.7561 0.8695 0.4489
C26 C 0.6880(2) 0.9837(2) 0.43870(11)
H25 H 0.7486 1.0135 0.4361
C27 C 0.5921(2) 1.02693(19) 0.43448(9)
C28 C 0.6724(2) 1.1615(2) 0.42593(13)
H26 H 0.7264 1.1511 0.4539
H27 H 0.6541 1.2207 0.4245
H28 H 0.6977 1.1460 0.3975
N1 N 0.3405(3) 1.0732(2) 0.20094(12)
N2 N 0.26206(15) 0.83418(13) 0.32700(7)
N3 N 0.22778(15) 0.98322(13) 0.31543(7)
N4 N 0.32306(14) 0.84822(13) 0.40565(7)
N5 N 0.31692(14) 0.99954(13) 0.39062(7)
N6 N 0.61895(19) 0.76431(18) 0.46326(11)
O1 O 0.36703(17) 0.72304(15) 0.22288(8)
O2 O 0.4169(3) 1.1133(2) 0.20123(17)
O3 O 0.2523(3) 1.10070(19) 0.18778(11)
O4 O 0.39882(14) 0.74874(12) 0.36411(7)
O5 O 0.34960(15) 1.09155(13) 0.33220(7)
O6 O 0.02144(16) 0.93023(19) 0.30526(10)
O7 O 0.06955(14) 0.81737(13) 0.35234(7)
O8 O 0.18275(16) 0.89265(15) 0.46333(7)
O9 O 0.11701(16) 0.99624(14) 0.41309(8)
O10 O 0.58187(14) 1.11194(13) 0.42885(7)
O11 O 0.57387(19) 0.73494(16) 0.49400(10)
O12 O 0.68044(19) 0.72393(16) 0.44467(11)
loop_
_geom_bond_atom_site_label_1
_geom_bond_atom_site_label_2
_geom_bond_site_symmetry_1
_geom_bond_site_symmetry_2
C1 H1 1_555 1_555
H2 C1 1_555 1_555
H3 C1 1_555 1_555
C2 C3 1_555 1_555
C3 H4 1_555 1_555
C4 C3 1_555 1_555
H5 C4 1_555 1_555
C5 C4 1_555 1_555
C6 C5 1_555 1_555
C7 C2 1_555 1_555
C8 C7 1_555 1_555
H6 C8 1_555 1_555
H7 C8 1_555 1_555
C9 C6 1_555 1_555
H8 C9 1_555 1_555
H9 C9 1_555 1_555
C10 N2 1_555 1_555
C11 N3 1_555 1_555
C12 C13 1_555 1_555
C13 O6 1_555 1_555
C14 H10 1_555 1_555
H11 C14 1_555 1_555
C15 C14 1_555 1_555
H12 C15 1_555 1_555
H13 C15 1_555 1_555
H14 C15 1_555 1_555
C16 C12 1_555 1_555
C17 C16 1_555 1_555
C18 H15 1_555 1_555
H16 C18 1_555 1_555
C19 C18 1_555 1_555
H17 C19 1_555 1_555
H18 C19 1_555 1_555
H19 C19 1_555 1_555
C20 H20 1_555 1_555
H21 C20 1_555 1_555
C21 H22 1_555 1_555
H23 C21 1_555 1_555
C22 C21 1_555 1_555
C23 C20 1_555 1_555
C24 C23 1_555 1_555
C25 C24 1_555 1_555
H24 C25 1_555 1_555
C26 C25 1_555 1_555
H25 C26 1_555 1_555
C27 C22 1_555 1_555
C28 H26 1_555 1_555
H27 C28 1_555 1_555
H28 C28 1_555 1_555
N1 C5 1_555 1_555
N2 C8 1_555 1_555
N3 C9 1_555 1_555
N4 C10 1_555 1_555
N5 C11 1_555 1_555
N6 C24 1_555 1_555
O1 C1 1_555 1_555
O2 N1 1_555 1_555
O3 N1 1_555 1_555
O4 C10 1_555 1_555
O5 C11 1_555 1_555
O7 C13 1_555 1_555
O8 C17 1_555 1_555
O9 C17 1_555 1_555
O10 C27 1_555 1_555
O11 N6 1_555 1_555
O12 N6 1_555 1_555
C2 O1 1_555 1_555
C6 C7 1_555 1_555
C12 N2 1_555 1_555
C12 N3 1_555 1_555
C14 O7 1_555 1_555
C16 N4 1_555 1_555
C16 N5 1_555 1_555
C18 O9 1_555 1_555
C20 N4 1_555 1_555
C21 N5 1_555 1_555
C22 C23 1_555 1_555
C26 C27 1_555 1_555
C28 O10 1_555 1_555

#END
