
#######################################################################
#
#                 Cambridge Crystallographic Data Centre
#                                CCDC 
#
#######################################################################
#
# If this CIF has been generated from an entry in the Cambridge 
# Structural Database, then it will include bibliographic, chemical, 
# crystal, experimental, refinement or atomic coordinate data resulting 
# from the CCDC's data processing and validation procedures.
#
#######################################################################

data_KEKSID
_chemical_formula_moiety         'C30 H34 N4 O8,C1 H1 Cl3'
_chemical_name_systematic        
'Diethyl 1,4-dimethoxy-9,10-dimethyl-6,13-dioxo-5,7,12,13b,13c,14-hexahydro-5a,6a,12a,13a-tetra-azabenzo(5,6)azuleno(2,1,8-ija)benzo(f)azulene-13b,13c-dicarboxylate chloroform solvate'
_symmetry_cell_setting           triclinic
_symmetry_space_group_name_H-M   'P -1'
_symmetry_Int_Tables_number      2
_space_group_name_Hall           '-P 1'
loop_
_symmetry_equiv_pos_site_id
_symmetry_equiv_pos_as_xyz
1 x,y,z
2 -x,-y,-z
_cell_length_a                   9.6701(12)
_cell_length_b                   13.4476(16)
_cell_length_c                   13.6194(16)
_cell_angle_alpha                89.008(2)
_cell_angle_beta                 72.456(2)
_cell_angle_gamma                73.091(2)
_cell_volume                     1610.86
_exptl_crystal_colour            colorless
_exptl_crystal_description       block
_cell_formula_units_Z            2
loop_
_atom_site_label
_atom_site_type_symbol
_atom_site_fract_x
_atom_site_fract_y
_atom_site_fract_z
C1 C 0.0893(4) 1.0570(3) 0.5945(3)
H1 H 0.1475 1.0682 0.6369
H2 H 0.0084 1.0317 0.6351
H3 H 0.0473 1.1216 0.5680
C2 C 0.3115(3) 1.0027(2) 0.4462(2)
C3 C 0.3561(4) 1.0895(2) 0.4585(2)
H4 H 0.2989 1.1386 0.5139
C4 C 0.4841(4) 1.1032(2) 0.3894(2)
H5 H 0.5137 1.1613 0.3988
C5 C 0.5701(4) 1.0314(2) 0.3058(2)
C6 C 0.5296(3) 0.9417(2) 0.2923(2)
C7 C 0.3986(3) 0.9283(2) 0.3634(2)
C8 C 0.7419(5) 1.1330(3) 0.2463(3)
H6 H 0.6629 1.1944 0.2428
H7 H 0.8342 1.1306 0.1927
H8 H 0.7580 1.1346 0.3124
C9 C 0.3463(3) 0.8341(2) 0.3517(2)
H9 H 0.2557 0.8381 0.4090
H10 H 0.3188 0.8372 0.2886
C10 C 0.6231(4) 0.8645(2) 0.1998(2)
H11 H 0.5606 0.8650 0.1557
H12 H 0.7079 0.8881 0.1607
C11 C 0.4736(3) 0.6842(2) 0.4347(2)
C12 C 0.8147(3) 0.7225(2) 0.24930(19)
C13 C 0.5861(3) 0.6916(2) 0.2583(2)
C14 C 0.5366(4) 0.6591(2) 0.1685(2)
C15 C 0.3298(5) 0.6252(3) 0.1251(3)
H13 H 0.2240 0.6656 0.1391
H14 H 0.3856 0.6363 0.0558
C16 C 0.3424(5) 0.5152(3) 0.1332(3)
H15 H 0.4476 0.4753 0.1165
H16 H 0.2986 0.4932 0.0861
H17 H 0.2892 0.5044 0.2025
C17 C 0.6899(3) 0.5961(2) 0.2991(2)
C18 C 0.7181(4) 0.4896(2) 0.2415(2)
C19 C 0.8778(5) 0.3644(3) 0.1076(3)
H18 H 0.8955 0.3044 0.1479
H19 H 0.7894 0.3680 0.0863
C20 C 1.0084(6) 0.3530(4) 0.0179(3)
H20 H 0.9881 0.4104 -0.0238
H21 H 1.0295 0.2889 -0.0216
H22 H 1.0947 0.3520 0.0393
C21 C 0.6645(3) 0.5405(2) 0.4809(2)
H23 H 0.7284 0.4715 0.4502
H24 H 0.5833 0.5321 0.5397
C22 C 0.9380(3) 0.5767(2) 0.3365(2)
H25 H 1.0320 0.5923 0.3019
H26 H 0.9586 0.5017 0.3295
C23 C 0.7581(3) 0.5951(2) 0.5179(2)
C24 C 0.8890(3) 0.6117(2) 0.4496(2)
C25 C 0.9699(3) 0.6623(2) 0.4878(2)
H27 H 1.0587 0.6710 0.4430
C26 C 0.9237(3) 0.7006(2) 0.5908(2)
C27 C 0.7912(3) 0.6853(2) 0.6589(2)
C28 C 0.7127(3) 0.6318(2) 0.6200(2)
H28 H 0.6259 0.6205 0.6650
C29 C 0.7295(5) 0.7291(3) 0.7689(3)
H29 H 0.6405 0.7090 0.8032
H30 H 0.7033 0.8038 0.7712
H31 H 0.8050 0.7028 0.8029
C30 C 1.0110(4) 0.7609(3) 0.6267(3)
H32 H 1.0963 0.7647 0.5699
H33 H 1.0464 0.7263 0.6807
H34 H 0.9458 0.8300 0.6524
N1 N 0.4596(3) 0.73428(17) 0.34869(17)
N2 N 0.6829(3) 0.75675(17) 0.22373(17)
N3 N 0.5987(3) 0.59716(17) 0.40528(16)
N4 N 0.8253(3) 0.62589(17) 0.28546(16)
O1 O 0.1850(3) 0.98249(17) 0.51100(17)
O2 O 0.6980(3) 1.04234(16) 0.23281(16)
O3 O 0.3891(2) 0.70937(16) 0.52240(14)
O4 O 0.9096(2) 0.76837(16) 0.23802(15)
O5 O 0.6208(3) 0.6378(2) 0.08344(17)
O6 O 0.3925(3) 0.6588(2) 0.20062(17)
O7 O 0.6230(3) 0.44607(19) 0.25956(18)
O8 O 0.8501(3) 0.45970(16) 0.17052(16)
C31 C 0.2231(4) 0.9552(3) 0.0245(3)
H35 H 0.2011 0.9773 -0.0395
Cl1 Cl 0.2153(2) 1.06382(14) 0.09271(13)
Cl2 Cl 0.08676(13) 0.89803(9) 0.09297(9)
Cl3 Cl 0.40405(13) 0.86554(12) -0.00888(10)
loop_
_geom_bond_atom_site_label_1
_geom_bond_atom_site_label_2
_geom_bond_site_symmetry_1
_geom_bond_site_symmetry_2
C1 H1 1_555 1_555
H2 C1 1_555 1_555
H3 C1 1_555 1_555
C2 C3 1_555 1_555
C3 H4 1_555 1_555
C4 C3 1_555 1_555
H5 C4 1_555 1_555
C5 C4 1_555 1_555
C6 C5 1_555 1_555
C7 C2 1_555 1_555
C8 H6 1_555 1_555
H7 C8 1_555 1_555
H8 C8 1_555 1_555
C9 C7 1_555 1_555
H9 C9 1_555 1_555
H10 C9 1_555 1_555
C10 C6 1_555 1_555
H11 C10 1_555 1_555
H12 C10 1_555 1_555
C11 N1 1_555 1_555
C12 N2 1_555 1_555
C13 C14 1_555 1_555
C14 O5 1_555 1_555
C15 H13 1_555 1_555
H14 C15 1_555 1_555
C16 C15 1_555 1_555
H15 C16 1_555 1_555
H16 C16 1_555 1_555
H17 C16 1_555 1_555
C17 C13 1_555 1_555
C18 C17 1_555 1_555
C19 H18 1_555 1_555
H19 C19 1_555 1_555
C20 C19 1_555 1_555
H20 C20 1_555 1_555
H21 C20 1_555 1_555
H22 C20 1_555 1_555
C21 H23 1_555 1_555
H24 C21 1_555 1_555
C22 H25 1_555 1_555
H26 C22 1_555 1_555
C23 C21 1_555 1_555
C24 C22 1_555 1_555
C25 C24 1_555 1_555
H27 C25 1_555 1_555
C26 C25 1_555 1_555
C27 C26 1_555 1_555
C28 C23 1_555 1_555
H28 C28 1_555 1_555
C29 C27 1_555 1_555
H29 C29 1_555 1_555
H30 C29 1_555 1_555
H31 C29 1_555 1_555
C30 C26 1_555 1_555
H32 C30 1_555 1_555
H33 C30 1_555 1_555
H34 C30 1_555 1_555
C31 H35 1_555 1_555
Cl1 C31 1_555 1_555
Cl2 C31 1_555 1_555
Cl3 C31 1_555 1_555
N1 C9 1_555 1_555
N2 C10 1_555 1_555
N3 C11 1_555 1_555
N4 C12 1_555 1_555
O1 C1 1_555 1_555
O2 C5 1_555 1_555
O3 C11 1_555 1_555
O4 C12 1_555 1_555
O6 C14 1_555 1_555
O7 C18 1_555 1_555
O8 C18 1_555 1_555
C2 O1 1_555 1_555
C6 C7 1_555 1_555
C8 O2 1_555 1_555
C13 N1 1_555 1_555
C13 N2 1_555 1_555
C15 O6 1_555 1_555
C17 N3 1_555 1_555
C17 N4 1_555 1_555
C19 O8 1_555 1_555
C21 N3 1_555 1_555
C22 N4 1_555 1_555
C23 C24 1_555 1_555
C27 C28 1_555 1_555

#END
