
#######################################################################
#
#                 Cambridge Crystallographic Data Centre
#                                CCDC 
#
#######################################################################
#
# If this CIF has been generated from an entry in the Cambridge 
# Structural Database, then it will include bibliographic, chemical, 
# crystal, experimental, refinement or atomic coordinate data resulting 
# from the CCDC's data processing and validation procedures.
#
#######################################################################

data_KEKSUP
_chemical_formula_moiety         'C26 H26 N4 O6'
_chemical_name_systematic        
'Diethyl 6,13-dioxo-5,7,12,13b,13c,14-hexahydro-5a,6a,12a,13a-tetra-azabenzo(5,6)azuleno(2,1,8-ija)benzo(f)azulene-13b,13c-dicarboxylate'
_symmetry_cell_setting           monoclinic
_symmetry_space_group_name_H-M   'C 2/c'
_symmetry_Int_Tables_number      15
_space_group_name_Hall           '-C 2yn'
loop_
_symmetry_equiv_pos_site_id
_symmetry_equiv_pos_as_xyz
1 x,y,z
2 1/2+x,1/2+y,z
3 -x,y,1/2-z
4 1/2-x,1/2+y,1/2-z
5 -x,-y,-z
6 1/2-x,1/2-y,-z
7 x,-y,1/2+z
8 1/2+x,1/2-y,1/2+z
_cell_length_a                   15.698(3)
_cell_length_b                   9.7251(16)
_cell_length_c                   16.164(3)
_cell_angle_alpha                90
_cell_angle_beta                 108.106(3)
_cell_angle_gamma                90
_cell_volume                     2345.48
_exptl_crystal_colour            colorless
_exptl_crystal_description       block
_cell_formula_units_Z            4
loop_
_atom_site_label
_atom_site_type_symbol
_atom_site_fract_x
_atom_site_fract_y
_atom_site_fract_z
C1 C 0.74836(11) 0.95646(17) 0.14824(11)
H1 H 0.7214 0.9593 0.1919
C2 C 0.73496(12) 1.06456(17) 0.08924(12)
H2 H 0.6988 1.1384 0.0932
C3 C 0.77532(12) 1.06188(16) 0.02498(12)
H3 H 0.7658 1.1331 -0.0152
C4 C 0.83020(11) 0.95270(16) 0.02044(10)
H4 H 0.8587 0.9527 -0.0221
C5 C 0.84351(10) 0.84323(15) 0.07816(10)
C6 C 0.80137(10) 0.84425(16) 0.14304(10)
C7 C 0.80568(10) 0.72436(17) 0.20395(10)
H5 H 0.7742 0.7504 0.2446
H6 H 0.7733 0.6480 0.1698
C8 C 0.94227(10) 0.73360(15) 0.33306(10)
C9 C 0.95312(9) 0.60746(15) 0.21352(9)
C10 C 0.91821(10) 0.46303(16) 0.17948(10)
C11 C 0.95843(14) 0.2636(2) 0.11332(14)
H7 H 0.9390 0.2660 0.0502
H8 H 0.9110 0.2230 0.1319
C12 C 1.04159(17) 0.1805(2) 0.14606(15)
H9 H 1.0901 0.2272 0.1336
H10 H 1.0326 0.0923 0.1179
H11 H 1.0558 0.1681 0.2078
C13 C 0.90069(11) 0.72402(17) 0.06677(10)
H12 H 0.8624 0.6448 0.0464
H13 H 0.9277 0.7476 0.0222
N1 N 0.89502(8) 0.67553(13) 0.25426(8)
N2 N 0.97123(8) 0.68649(13) 0.14564(8)
O1 O 0.91227(8) 0.80837(12) 0.37726(7)
O2 O 0.84891(8) 0.41534(12) 0.18163(8)
O3 O 0.97739(8) 0.40331(12) 0.14817(8)
C1B C 1.25164(11) 0.95646(17) 0.35176(11)
H1B H 1.2786 0.9593 0.3081
C2B C 1.26504(12) 1.06456(17) 0.41076(12)
H2B H 1.3012 1.1384 0.4068
C3B C 1.22468(12) 1.06188(16) 0.47502(12)
H3B H 1.2342 1.1331 0.5152
C4B C 1.16980(11) 0.95270(16) 0.47956(10)
H4B H 1.1413 0.9527 0.5221
C5B C 1.15649(10) 0.84323(15) 0.42184(10)
C6B C 1.19863(10) 0.84425(16) 0.35696(10)
C7B C 1.19432(10) 0.72436(17) 0.29605(10)
H5B H 1.2258 0.7504 0.2554
H6B H 1.2267 0.6480 0.3302
C8B C 1.05773(10) 0.73360(15) 0.16694(10)
C9B C 1.04688(9) 0.60746(15) 0.28648(9)
C10B C 1.08179(10) 0.46303(16) 0.32052(10)
C11B C 1.04157(14) 0.2636(2) 0.38668(14)
H7B H 1.0610 0.2660 0.4498
H8B H 1.0890 0.2230 0.3681
C12B C 0.95841(17) 0.1805(2) 0.35394(15)
H9B H 0.9099 0.2272 0.3664
H10B H 0.9674 0.0923 0.3821
H11B H 0.9442 0.1681 0.2922
C13B C 1.09931(11) 0.72402(17) 0.43323(10)
H12B H 1.1376 0.6448 0.4536
H13B H 1.0723 0.7476 0.4778
N1B N 1.10498(8) 0.67553(13) 0.24574(8)
N2B N 1.02877(8) 0.68649(13) 0.35436(8)
O1B O 1.08773(8) 0.80837(12) 0.12274(7)
O2B O 1.15109(8) 0.41534(12) 0.31837(8)
O3B O 1.02261(8) 0.40331(12) 0.35183(8)
loop_
_geom_bond_atom_site_label_1
_geom_bond_atom_site_label_2
_geom_bond_site_symmetry_1
_geom_bond_site_symmetry_2
C1 H1 1_555 1_555
C2 C1 1_555 1_555
H2 C2 1_555 1_555
C3 C2 1_555 1_555
H3 C3 1_555 1_555
C4 C3 1_555 1_555
H4 C4 1_555 1_555
C5 C4 1_555 1_555
C6 C1 1_555 1_555
C7 C6 1_555 1_555
H5 C7 1_555 1_555
H6 C7 1_555 1_555
C8 N1 1_555 1_555
C9 C10 1_555 1_555
C10 O2 1_555 1_555
C11 H7 1_555 1_555
H8 C11 1_555 1_555
C12 C11 1_555 1_555
H9 C12 1_555 1_555
H10 C12 1_555 1_555
H11 C12 1_555 1_555
C13 C5 1_555 1_555
H12 C13 1_555 1_555
H13 C13 1_555 1_555
N1 C7 1_555 1_555
N2 C9 1_555 1_555
O1 C8 1_555 1_555
O3 C10 1_555 1_555
C1B H1B 1_555 1_555
C2B C1B 1_555 1_555
H2B C2B 1_555 1_555
C3B C2B 1_555 1_555
H3B C3B 1_555 1_555
C4B C3B 1_555 1_555
H4B C4B 1_555 1_555
C5B C4B 1_555 1_555
C6B C1B 1_555 1_555
C7B C6B 1_555 1_555
H5B C7B 1_555 1_555
H6B C7B 1_555 1_555
C8B N2 1_555 1_555
C9B C9 1_555 1_555
C10B C9B 1_555 1_555
C11B H7B 1_555 1_555
H8B C11B 1_555 1_555
C12B C11B 1_555 1_555
H9B C12B 1_555 1_555
H10B C12B 1_555 1_555
H11B C12B 1_555 1_555
C13B C5B 1_555 1_555
H12B C13B 1_555 1_555
H13B C13B 1_555 1_555
N1B C7B 1_555 1_555
N2B C8 1_555 1_555
O1B C8B 1_555 1_555
O2B C10B 1_555 1_555
O3B C10B 1_555 1_555
C5 C6 1_555 1_555
C9 N1 1_555 1_555
C11 O3 1_555 1_555
C13 N2 1_555 1_555
C5B C6B 1_555 1_555
C8B N1B 1_555 1_555
C9B N1B 1_555 1_555
C9B N2B 1_555 1_555
C11B O3B 1_555 1_555
C13B N2B 1_555 1_555

#END
