
#######################################################################
#
#                 Cambridge Crystallographic Data Centre
#                                CCDC 
#
#######################################################################
#
# If this CIF has been generated from an entry in the Cambridge 
# Structural Database, then it will include bibliographic, chemical, 
# crystal, experimental, refinement or atomic coordinate data resulting 
# from the CCDC's data processing and validation procedures.
#
#######################################################################

data_KEKVII
_chemical_formula_moiety         'C32 H14,0.22(C3 H6 O1),0.11(H2 O1)'
_chemical_name_systematic        
'4,5,11,12,17,18-hexaethynylpentacyclo[6.6.6.0^2,7^.0^9,14^.0^15,20^]icosa-2,4,6,9,11,13,15,17,19-nonaene acetone unknown solvate hydrate'
_symmetry_cell_setting           triclinic
_symmetry_space_group_name_H-M   'P 1'
_symmetry_Int_Tables_number      1
_space_group_name_Hall           'P 1'
loop_
_symmetry_equiv_pos_site_id
_symmetry_equiv_pos_as_xyz
1 x,y,z
_cell_length_a                   13.739(3)
_cell_length_b                   13.973(3)
_cell_length_c                   32.901(7)
_cell_angle_alpha                80.76(3)
_cell_angle_beta                 78.58(3)
_cell_angle_gamma                61.52(3)
_cell_volume                     5425.83
_exptl_crystal_colour            yellow
_exptl_crystal_description       block
_cell_formula_units_Z            9
loop_
_atom_site_label
_atom_site_type_symbol
_atom_site_fract_x
_atom_site_fract_y
_atom_site_fract_z
O1 O 0.4152(9) 0.1149(10) 0.5515(4)
C1 C 0.4391(16) 0.1535(11) 0.5166(4)
C2 C 0.5452(15) 0.1712(17) 0.5058(6)
H1 H 0.5966 0.1281 0.5261
H2 H 0.5235 0.2488 0.5065
H3 H 0.5825 0.1480 0.4779
C3 C 0.3610(16) 0.1888(16) 0.4820(5)
H4 H 0.2863 0.1993 0.4950
H5 H 0.3926 0.1316 0.4625
H6 H 0.3556 0.2572 0.4669
O2 O 0.9809(17) 1.0359(13) 0.5861(4)
C4 C 0.9564(14) 0.9983(14) 0.6185(6)
C5 C 0.8603(15) 0.9816(18) 0.6294(6)
H7 H 0.8318 0.9837 0.6040
H8 H 0.8027 1.0392 0.6467
H9 H 0.8801 0.9103 0.6449
C6 C 1.0250(14) 0.9662(12) 0.6525(5)
H10 H 1.0948 0.9703 0.6417
H11 H 1.0422 0.8912 0.6635
H12 H 0.9834 1.0157 0.6747
O3 O 0.291(3) 0.700(3) 0.1346(9)
C7 C 0.9567(15) 0.5594(13) 0.1448(5)
H13 H 1.0286 0.5540 0.1286
C8 C 0.7703(11) 0.5757(11) 0.1884(4)
H14 H 0.6978 0.5825 0.2047
C9 C 0.8639(18) 0.6433(15) 0.0781(6)
H15 H 0.9336 0.6323 0.0621
C10 C 0.8634(14) 0.6099(12) 0.1190(5)
C11 C 0.7617(13) 0.6221(12) 0.1433(4)
C12 C 0.6674(17) 0.6712(13) 0.1248(5)
H16 H 0.5986 0.6792 0.1407
C13 C 0.669(2) 0.7105(13) 0.0827(6)
C14 C 0.773(2) 0.6909(16) 0.0583(5)
C15 C 0.771(2) 0.735(2) 0.0175(6)
C16 C 0.789(3) 0.758(3) -0.0188(9)
H17 H 0.8038 0.7760 -0.0476
C17 C 0.5666(19) 0.7626(15) 0.0658(6)
C18 C 0.473(3) 0.821(3) 0.0506(9)
H18 H 0.4044 0.8628 0.0395
C19 C 1.0546(13) 0.3500(12) 0.1580(4)
H19 H 1.1227 0.3447 0.1422
C20 C 0.9675(12) 0.4456(13) 0.1647(5)
C21 C 0.8622(13) 0.4605(12) 0.1876(4)
C22 C 0.8518(12) 0.3677(12) 0.2058(4)
H20 H 0.7839 0.3730 0.2216
C23 C 0.9472(14) 0.2659(13) 0.1995(4)
C24 C 1.0442(16) 0.2601(14) 0.1741(6)
C25 C 1.1467(17) 0.1541(17) 0.1663(6)
C26 C 1.215(2) 0.072(2) 0.1563(7)
H21 H 1.2724 0.0030 0.1479
C27 C 0.9342(16) 0.1688(14) 0.2171(6)
C28 C 0.9259(17) 0.0920(16) 0.2320(8)
H22 H 0.9190 0.0287 0.2443
C29 C 0.9813(12) 0.6729(13) 0.1933(5)
H23 H 1.0499 0.6656 0.1774
C30 C 0.9192(12) 0.6260(11) 0.1827(4)
C31 C 0.8209(12) 0.6406(12) 0.2061(4)
C32 C 0.7761(11) 0.6951(11) 0.2397(4)
H24 H 0.7079 0.7005 0.2553
C33 C 0.8331(11) 0.7449(11) 0.2516(4)
C34 C 0.9317(12) 0.7338(11) 0.2306(4)
C35 C 0.9984(12) 0.7777(13) 0.2414(5)
C36 C 1.0499(13) 0.8169(14) 0.2520(6)
H25 H 1.0905 0.8478 0.2604
C37 C 0.7887(11) 0.7964(12) 0.2899(5)
C38 C 0.7465(13) 0.8393(15) 0.3229(5)
H26 H 0.7138 0.8725 0.3484
C39 C 0.7778(10) 0.4912(10) 0.3363(4)
H27 H 0.7522 0.5716 0.3347
C40 C 0.8389(10) 0.2812(11) 0.3395(3)
H28 H 0.8640 0.2010 0.3407
C41 C 0.6118(9) 0.5431(11) 0.2955(4)
H29 H 0.5925 0.6185 0.2937
C42 C 0.7067(10) 0.4610(10) 0.3151(4)
C43 C 0.7366(11) 0.3518(11) 0.3173(4)
C44 C 0.6796(10) 0.3121(12) 0.3014(4)
H30 H 0.7013 0.2362 0.3030
C45 C 0.5868(12) 0.3905(14) 0.2823(4)
C46 C 0.5507(9) 0.5063(12) 0.2795(4)
C47 C 0.4576(13) 0.5832(15) 0.2597(5)
C48 C 0.3750(16) 0.6510(16) 0.2432(6)
H31 H 0.3116 0.7031 0.2306
C49 C 0.5245(16) 0.3500(16) 0.2666(5)
C50 C 0.4645(19) 0.3193(19) 0.2556(6)
H32 H 0.4179 0.2954 0.2471
C51 C 0.9667(12) 0.4663(12) 0.2980(5)
H33 H 0.9435 0.5421 0.2982
C52 C 0.8938(10) 0.4291(11) 0.3160(4)
C53 C 0.9289(10) 0.3163(10) 0.3170(4)
C54 C 1.0365(11) 0.2442(11) 0.2991(4)
H34 H 1.0597 0.1681 0.3001
C55 C 1.1078(11) 0.2879(13) 0.2799(4)
C56 C 1.0734(11) 0.4020(12) 0.2792(5)
C57 C 1.1437(14) 0.4469(14) 0.2596(6)
C58 C 1.2062(19) 0.4825(18) 0.2477(11)
H35 H 1.2573 0.5116 0.2379
C59 C 1.2193(12) 0.2149(12) 0.2603(5)
C60 C 1.3061(15) 0.1542(16) 0.2442(6)
H36 H 1.3771 0.1046 0.2311
C61 C 0.7229(10) 0.4981(11) 0.4167(4)
H37 H 0.6910 0.5754 0.4157
C62 C 0.7715(11) 0.4415(11) 0.3801(3)
C63 C 0.8081(10) 0.3267(11) 0.3822(4)
C64 C 0.8062(10) 0.2677(11) 0.4208(4)
H38 H 0.8335 0.1909 0.4220
C65 C 0.7637(10) 0.3217(11) 0.4586(4)
C66 C 0.7241(11) 0.4340(11) 0.4550(4)
C67 C 0.6697(12) 0.4969(12) 0.4922(4)
C68 C 0.6158(13) 0.5477(12) 0.5218(5)
H39 H 0.5731 0.5880 0.5453
C69 C 0.7673(11) 0.2607(12) 0.4969(4)
C70 C 0.7724(13) 0.2115(12) 0.5306(5)
H40 H 0.7765 0.1727 0.5573
C71 C 0.2178(10) 0.6144(10) 0.4057(4)
H41 H 0.1460 0.6289 0.3970
C72 C 0.4084(10) 0.5772(10) 0.4288(4)
H42 H 0.4795 0.5621 0.4382
C73 C 0.3041(10) 0.4191(10) 0.3832(4)
H43 H 0.2369 0.4334 0.3739
C74 C 0.3100(9) 0.4983(10) 0.3999(4)
C75 C 0.4130(9) 0.4791(11) 0.4122(4)
C76 C 0.5067(10) 0.3783(10) 0.4091(4)
H44 H 0.5747 0.3653 0.4173
C77 C 0.4972(10) 0.2973(11) 0.3936(5)
C78 C 0.3966(10) 0.3166(10) 0.3795(4)
C79 C 0.3898(10) 0.2337(10) 0.3592(5)
C80 C 0.3826(11) 0.1689(12) 0.3419(4)
H45 H 0.3769 0.1173 0.3281
C81 C 0.5916(11) 0.1862(11) 0.3901(5)
C82 C 0.6678(16) 0.0997(16) 0.3907(6)
H46 H 0.7301 0.0291 0.3912
C83 C 0.2310(10) 0.7579(10) 0.3455(4)
H47 H 0.1639 0.7695 0.3368
C84 C 0.2900(10) 0.8162(11) 0.3244(4)
C85 C 0.3880(9) 0.7976(10) 0.3396(4)
C86 C 0.4276(10) 0.7222(10) 0.3735(4)
H48 H 0.4933 0.7116 0.3830
C87 C 0.3745(10) 0.6655(10) 0.3925(4)
C88 C 0.2730(9) 0.6839(10) 0.3788(4)
C89 C 0.2480(12) 0.8907(12) 0.2916(4)
C90 C 0.2068(12) 0.9576(13) 0.2629(5)
H49 H 0.1749 1.0094 0.2408
C91 C 0.4488(13) 0.8610(12) 0.3176(5)
C92 C 0.4936(13) 0.9087(14) 0.2988(5)
H50 H 0.5308 0.9482 0.2832
C93 C 0.1107(10) 0.6745(10) 0.4780(4)
H51 H 0.0452 0.6789 0.4706
C94 C 0.2044(11) 0.6413(11) 0.4516(4)
C95 C 0.3096(11) 0.6171(11) 0.4613(4)
C96 C 0.3072(11) 0.6407(10) 0.5023(4)
H52 H 0.3748 0.6256 0.5115
C97 C 0.2057(12) 0.6860(10) 0.5292(4)
C98 C 0.1097(12) 0.7025(11) 0.5161(5)
C99 C 0.0104(11) 0.7333(11) 0.5464(4)
C100 C -0.0744(15) 0.7590(13) 0.5711(5)
H53 H -0.1409 0.7792 0.5905
C101 C 0.2107(11) 0.7086(12) 0.5685(4)
C102 C 0.2219(13) 0.7220(13) 0.6040(6)
H54 H 0.2304 0.7321 0.6307
C103 C 0.1858(9) 0.0808(10) 0.4097(4)
H55 H 0.2154 0.0824 0.3794
C104 C 0.1062(10) 0.0799(9) 0.4875(4)
H56 H 0.0767 0.0791 0.5178
C105 C 0.0650(10) -0.0003(10) 0.3923(4)
H57 H 0.0911 0.0022 0.3633
C106 C 0.1038(10) 0.0339(10) 0.4199(4)
C107 C 0.0590(10) 0.0334(10) 0.4626(4)
C108 C -0.0164(10) -0.0072(10) 0.4766(4)
H58 H -0.0430 -0.0118 0.5054
C109 C -0.0529(10) -0.0415(11) 0.4480(5)
C110 C -0.0131(9) -0.0386(11) 0.4078(4)
C111 C -0.0465(10) -0.0800(12) 0.3766(5)
C112 C -0.0704(10) -0.1059(14) 0.3488(5)
H59 H -0.0895 -0.1266 0.3266
C113 C -0.1353(11) -0.0793(11) 0.4631(4)
C114 C -0.2129(13) -0.1043(13) 0.4756(5)
H60 H -0.2719 -0.1233 0.4852
C115 C 0.3877(10) -0.0469(10) 0.4225(4)
H61 H 0.4142 -0.0493 0.3935
C116 C 0.2756(10) 0.0137(10) 0.4363(3)
C117 C 0.2341(9) 0.0111(10) 0.4789(4)
C118 C 0.3057(10) -0.0462(10) 0.5069(4)
H62 H 0.2787 -0.0459 0.5358
C119 C 0.4215(10) -0.1065(10) 0.4928(4)
C120 C 0.4619(10) -0.1049(10) 0.4513(4)
C121 C 0.5749(10) -0.1661(10) 0.4382(4)
C122 C 0.6780(12) -0.2252(12) 0.4271(5)
H63 H 0.7555 -0.2696 0.4188
C123 C 0.4973(11) -0.1622(12) 0.5236(4)
C124 C 0.5606(12) -0.2035(11) 0.5487(4)
H64 H 0.6110 -0.2365 0.5686
C125 C 0.0941(10) 0.2974(11) 0.4035(4)
H65 H 0.1195 0.2999 0.3745
C126 C 0.1184(10) 0.1953(10) 0.4258(4)
C127 C 0.0786(10) 0.1954(10) 0.4677(4)
C128 C 0.0193(10) 0.2913(11) 0.4878(4)
H66 H -0.0045 0.2881 0.5169
C129 C -0.0053(10) 0.3910(11) 0.4660(4)
C130 C 0.0342(10) 0.3942(11) 0.4229(4)
C131 C 0.0068(12) 0.4967(13) 0.3984(5)
C132 C -0.0193(11) 0.5824(12) 0.3789(5)
H67 H -0.0402 0.6511 0.3634
C133 C -0.0629(12) 0.4878(12) 0.4861(4)
C134 C -0.1049(14) 0.5720(15) 0.5011(5)
H68 H -0.1387 0.6399 0.5133
C135 C 0.2910(10) 0.0726(10) 0.6466(4)
H69 H 0.3194 0.0758 0.6162
C136 C 0.2187(10) 0.0637(11) 0.7268(4)
H70 H 0.1897 0.0623 0.7571
C137 C 0.0917(10) 0.1943(10) 0.6277(4)
H71 H 0.1206 0.1956 0.5990
C138 C 0.1654(11) 0.1357(10) 0.6570(4)
C139 C 0.1268(10) 0.1323(10) 0.6997(4)
C140 C 0.0107(11) 0.1910(10) 0.7133(4)
H72 H -0.0167 0.1891 0.7422
C141 C -0.0643(10) 0.2521(10) 0.6844(4)
C142 C -0.0245(11) 0.2512(11) 0.6401(4)
C143 C -0.0993(11) 0.3061(10) 0.6111(4)
C144 C -0.1610(11) 0.3509(13) 0.5865(5)
H73 H -0.2111 0.3874 0.5666
C145 C -0.1844(12) 0.3183(12) 0.6982(4)
C146 C -0.2742(14) 0.3701(14) 0.7068(4)
H74 H -0.3520 0.4149 0.7143
C147 C 0.3769(9) -0.1371(10) 0.6459(4)
H75 H 0.4015 -0.1346 0.6168
C148 C 0.3183(9) -0.0420(11) 0.6662(4)
C149 C 0.2778(9) -0.0476(10) 0.7102(4)
C150 C 0.3030(10) -0.1444(10) 0.7335(4)
H76 H 0.2786 -0.1459 0.7626
C151 C 0.3658(10) -0.2419(11) 0.7135(4)
C152 C 0.3995(9) -0.2387(11) 0.6693(4)
C153 C 0.4619(11) -0.3428(11) 0.6499(4)
C154 C 0.5108(14) -0.4242(13) 0.6332(5)
H77 H 0.5505 -0.4902 0.6196
C155 C 0.3938(10) -0.3456(11) 0.7364(4)
C156 C 0.4176(13) -0.4323(14) 0.7557(5)
H78 H 0.4365 -0.5010 0.7709
C157 C 0.4127(10) 0.1563(10) 0.6581(4)
H79 H 0.4386 0.1583 0.6292
C158 C 0.3375(10) 0.1165(10) 0.6733(4)
C159 C 0.2998(9) 0.1102(10) 0.7161(4)
C160 C 0.3321(9) 0.1500(11) 0.7439(4)
H80 H 0.3017 0.1495 0.7725
C161 C 0.4090(11) 0.1908(10) 0.7306(4)
C162 C 0.4527(10) 0.1953(9) 0.6863(4)
C163 C 0.5362(11) 0.2286(11) 0.6714(5)
C164 C 0.6003(12) 0.2590(11) 0.6597(5)
H81 H 0.6542 0.2846 0.6499
C165 C 0.4427(11) 0.2278(11) 0.7592(5)
C166 C 0.4635(13) 0.2647(14) 0.7840(6)
H82 H 0.4804 0.2945 0.8041
C167 C -0.0074(10) 0.5720(11) 0.7069(4)
H83 H -0.0797 0.5866 0.6986
C168 C 0.1749(9) 0.5337(10) 0.7312(4)
H84 H 0.2462 0.5188 0.7404
C169 C -0.0331(10) 0.4261(11) 0.7634(4)
H85 H -0.1005 0.4393 0.7545
C170 C 0.0277(10) 0.4846(10) 0.7429(4)
C171 C 0.1237(10) 0.4663(10) 0.7553(4)
C172 C 0.1634(10) 0.3938(10) 0.7887(4)
H86 H 0.2284 0.3844 0.7983
C173 C 0.1082(10) 0.3346(10) 0.8084(4)
C174 C 0.0088(11) 0.3498(11) 0.7965(4)
C175 C -0.0482(10) 0.2945(10) 0.8177(4)
C176 C -0.1029(11) 0.2476(11) 0.8352(4)
H87 H -0.1453 0.2113 0.8487
C177 C 0.1514(11) 0.2565(11) 0.8444(4)
C178 C 0.1862(12) 0.1964(12) 0.8721(5)
H88 H 0.2152 0.1464 0.8950
C179 C 0.0903(11) 0.5034(11) 0.6344(4)
H89 H 0.0232 0.5106 0.6274
C180 C 0.0923(10) 0.5285(10) 0.6714(4)
C181 C 0.1887(10) 0.5139(10) 0.6863(4)
C182 C 0.2911(12) 0.4710(11) 0.6585(4)
H90 H 0.3598 0.4547 0.6671
C183 C 0.2877(9) 0.4532(11) 0.6173(4)
C184 C 0.1876(10) 0.4665(11) 0.6062(4)
C185 C 0.1865(13) 0.4391(12) 0.5648(5)
C186 C 0.1824(15) 0.4162(14) 0.5340(6)
H91 H 0.1791 0.3969 0.5080
C187 C 0.3960(14) 0.4119(12) 0.5892(5)
C188 C 0.4791(13) 0.3867(12) 0.5666(5)
H92 H 0.5472 0.3661 0.5481
C189 C -0.1044(10) 0.7756(11) 0.7258(4)
H93 H -0.1715 0.7915 0.7160
C190 C -0.0122(11) 0.6717(11) 0.7218(4)
C191 C 0.0850(9) 0.6515(10) 0.7348(4)
C192 C 0.0921(11) 0.7299(11) 0.7529(4)
H94 H 0.1601 0.7134 0.7621
C193 C 0.0000(11) 0.8339(11) 0.7581(4)
C194 C -0.0981(10) 0.8561(10) 0.7441(3)
C195 C -0.1921(13) 0.9588(13) 0.7460(4)
C196 C -0.2720(11) 1.0479(13) 0.7475(5)
H95 H -0.3349 1.1182 0.7486
C197 C 0.0060(12) 0.9137(13) 0.7756(4)
C198 C 0.0172(13) 0.9775(14) 0.7909(5)
H96 H 0.0263 1.0291 0.8032
C199 C 0.5563(11) 0.8648(10) 0.7952(4)
H97 H 0.5328 0.9447 0.7938
C200 C 0.6235(10) 0.6583(11) 0.7982(4)
H98 H 0.6462 0.5787 0.7987
C201 C 0.5913(10) 0.8815(10) 0.7152(4)
H99 H 0.5625 0.9585 0.7142
C202 C 0.5937(10) 0.8217(10) 0.7523(4)
C203 C 0.6302(9) 0.7112(10) 0.7542(4)
C204 C 0.6692(10) 0.6577(10) 0.7183(4)
H100 H 0.6910 0.5818 0.7201
C205 C 0.6778(9) 0.7113(10) 0.6795(4)
C206 C 0.6314(10) 0.8280(10) 0.6789(4)
C207 C 0.6314(11) 0.8888(11) 0.6391(4)
C208 C 0.6203(14) 0.9415(14) 0.6080(5)
H101 H 0.6111 0.9851 0.5823
C209 C 0.7302(10) 0.6576(10) 0.6430(4)
C210 C 0.7758(11) 0.6035(13) 0.6157(4)
H102 H 0.8136 0.5587 0.5931
C211 C 0.7213(12) 0.8316(12) 0.8339(4)
H103 H 0.6987 0.9077 0.8322
C212 C 0.6595(9) 0.7963(11) 0.8178(3)
C213 C 0.6963(10) 0.6796(11) 0.8194(4)
C214 C 0.7829(11) 0.6147(12) 0.8370(4)
H104 H 0.8075 0.5384 0.8378
C215 C 0.8444(13) 0.6505(13) 0.8552(4)
C216 C 0.8169(11) 0.7587(12) 0.8528(4)
C217 C 0.8810(11) 0.7951(13) 0.8688(4)
C218 C 0.9318(14) 0.8276(18) 0.8806(6)
H105 H 0.9740 0.8546 0.8905
C219 C 0.9388(11) 0.5700(14) 0.8764(5)
C220 C 1.0087(16) 0.5084(18) 0.8937(6)
H106 H 1.0680 0.4563 0.9083
C221 C 0.3644(10) 0.9024(11) 0.8365(4)
H107 H 0.3422 0.9782 0.8359
C222 C 0.4660(11) 0.8375(11) 0.8181(4)
C223 C 0.5018(11) 0.7243(11) 0.8188(4)
C224 C 0.4313(10) 0.6770(12) 0.8389(4)
H108 H 0.4557 0.6006 0.8402
C225 C 0.3211(11) 0.7513(12) 0.8569(4)
C226 C 0.2877(11) 0.8629(11) 0.8570(4)
C227 C 0.1837(12) 0.9319(13) 0.8768(4)
C228 C 0.0931(13) 0.9938(15) 0.8931(5)
H109 H 0.0215 1.0427 0.9060
C229 C 0.2450(12) 0.7075(15) 0.8742(6)
C230 C 0.1906(16) 0.6560(18) 0.8878(7)
H110 H 0.1491 0.6168 0.8981
C231 C 0.6256(13) 0.5715(12) 0.9481(4)
H111 H 0.6969 0.5652 0.9310
C232 C 0.4379(13) 0.5910(12) 0.9910(4)
H112 H 0.3665 0.5992 1.0086
C233 C 0.5390(14) 0.7832(12) 0.9308(5)
H113 H 0.6067 0.7753 0.9139
C234 C 0.5322(13) 0.6921(13) 0.9495(5)
C235 C 0.4368(15) 0.6975(13) 0.9728(4)
C236 C 0.3399(15) 0.8016(16) 0.9766(5)
H114 H 0.2710 0.8061 0.9910
C237 C 0.3468(15) 0.9005(14) 0.9584(5)
C238 C 0.4528(15) 0.8853(14) 0.9354(5)
C239 C 0.4654(15) 0.9784(14) 0.9173(6)
C240 C 0.484(2) 1.0501(18) 0.9017(7)
H115 H 0.4991 1.1086 0.8891
C241 C 0.2611(16) 1.0022(16) 0.9671(5)
C242 C 0.1756(17) 1.0846(17) 0.9758(6)
H116 H 0.1087 1.1492 0.9827
C243 C 0.6256(12) 0.4504(11) 0.8958(4)
H117 H 0.6970 0.4386 0.8813
C244 C 0.5790(12) 0.5131(11) 0.9316(4)
C245 C 0.4745(12) 0.5194(12) 0.9549(4)
C246 C 0.4254(13) 0.4695(11) 0.9417(4)
H118 H 0.3590 0.4727 0.9583
C247 C 0.4609(11) 0.4167(11) 0.9080(4)
C248 C 0.5647(11) 0.4057(10) 0.8821(4)
C249 C 0.6112(12) 0.3485(12) 0.8449(5)
C250 C 0.6534(13) 0.3095(15) 0.8141(5)
H119 H 0.6885 0.2770 0.7885
C251 C 0.4030(13) 0.3693(12) 0.8927(5)
C252 C 0.3446(14) 0.3394(13) 0.8845(5)
H120 H 0.2965 0.3148 0.8778
C253 C 0.7347(14) 0.4855(12) 1.0098(5)
H121 H 0.8033 0.4771 0.9935
C254 C 0.6392(15) 0.5320(12) 0.9920(4)
C255 C 0.5402(15) 0.5385(13) 1.0147(5)
C256 C 0.528(2) 0.5066(16) 1.0575(4)
H122 H 0.4580 0.5167 1.0734
C257 C 0.632(2) 0.4568(18) 1.0749(6)
C258 C 0.7316(16) 0.4503(14) 1.0520(5)
C259 C 0.829(2) 0.3948(19) 1.0710(6)
C260 C 0.909(2) 0.3471(17) 1.0831(7)
H123 H 0.9787 0.3060 1.0935
C261 C 0.620(2) 0.4250(17) 1.1200(6)
C262 C 0.616(2) 0.392(2) 1.1554(6)
H124 H 0.6131 0.3659 1.1839
C263 C 0.5159(16) 0.2624(14) 0.0672(5)
H125 H 0.5282 0.3187 0.0776
C264 C 0.4792(14) 0.1214(13) 0.0382(4)
H126 H 0.4680 0.0646 0.0277
C265 C 0.5530(17) 0.1580(13) 0.1353(5)
H127 H 0.5671 0.2109 0.1443
C266 C 0.5260(12) 0.1739(11) 0.0973(4)
C267 C 0.5047(13) 0.0963(13) 0.0836(5)
C268 C 0.5035(13) 0.0104(12) 0.1102(4)
H128 H 0.4815 -0.0373 0.1015
C269 C 0.5342(12) -0.0080(11) 0.1501(4)
C270 C 0.5618(12) 0.0657(11) 0.1633(4)
C271 C 0.6030(14) 0.0435(13) 0.2040(5)
C272 C 0.6275(16) 0.0639(18) 0.2375(9)
H129 H 0.6451 0.0786 0.2616
C273 C 0.5216(16) -0.0886(13) 0.1802(6)
C274 C 0.5011(14) -0.1474(18) 0.2042(5)
H130 H 0.4841 -0.1963 0.2242
C275 C 0.6723(12) 0.2467(12) 0.0056(4)
H131 H 0.6848 0.2996 0.0155
C276 C 0.5917(11) 0.2177(10) 0.0278(4)
C277 C 0.5706(12) 0.1428(12) 0.0132(4)
C278 C 0.6286(13) 0.0996(13) -0.0247(5)
H132 H 0.6122 0.0504 -0.0354
C279 C 0.7116(12) 0.1277(10) -0.0478(4)
C280 C 0.7351(11) 0.1980(11) -0.0312(4)
C281 C 0.8216(13) 0.2296(12) -0.0521(4)
C282 C 0.8843(15) 0.2594(19) -0.0637(8)
H133 H 0.9382 0.2849 -0.0736
C283 C 0.7616(12) 0.1002(12) -0.0910(4)
C284 C 0.7945(18) 0.0613(18) -0.1239(6)
H134 H 0.8206 0.0304 -0.1500
C285 C 0.3157(13) 0.4193(11) 0.0478(5)
H135 H 0.3247 0.4750 0.0572
C286 C 0.3966(10) 0.3111(12) 0.0519(4)
C287 C 0.3834(10) 0.2295(9) 0.0381(4)
C288 C 0.2892(13) 0.2562(13) 0.0202(4)
H136 H 0.2802 0.2005 0.0108
C289 C 0.2083(10) 0.3645(15) 0.0161(4)
C290 C 0.2215(12) 0.4460(10) 0.0299(5)
C291 C 0.134(2) 0.5483(17) 0.0100(9)
C292 C 0.094(3) 0.6473(18) -0.0022(12)
H137 H 0.0638 0.7226 -0.0115
C293 C 0.130(2) 0.359(3) -0.0062(9)
C294 C 0.057(3) 0.355(4) -0.0211(15)
H138 H 0.0009 0.3522 -0.0327
loop_
_geom_bond_atom_site_label_1
_geom_bond_atom_site_label_2
_geom_bond_site_symmetry_1
_geom_bond_site_symmetry_2
O1 C1 1_555 1_555
C1 C2 1_555 1_555
C2 H1 1_555 1_555
H2 C2 1_555 1_555
H3 C2 1_555 1_555
C3 C1 1_555 1_555
H4 C3 1_555 1_555
H5 C3 1_555 1_555
H6 C3 1_555 1_555
O2 C4 1_555 1_555
C4 C5 1_555 1_555
C5 H7 1_555 1_555
H8 C5 1_555 1_555
H9 C5 1_555 1_555
C6 C4 1_555 1_555
H10 C6 1_555 1_555
H11 C6 1_555 1_555
H12 C6 1_555 1_555
C7 H13 1_555 1_555
C8 H14 1_555 1_555
C9 H15 1_555 1_555
C10 C7 1_555 1_555
C11 C8 1_555 1_555
C12 C11 1_555 1_555
H16 C12 1_555 1_555
C13 C12 1_555 1_555
C14 C9 1_555 1_555
C15 C14 1_555 1_555
C16 C15 1_555 1_555
H17 C16 1_555 1_555
C17 C13 1_555 1_555
C18 C17 1_555 1_555
H18 C18 1_555 1_555
C19 H19 1_555 1_555
C20 C7 1_555 1_555
C21 C8 1_555 1_555
C22 C21 1_555 1_555
H20 C22 1_555 1_555
C23 C22 1_555 1_555
C24 C19 1_555 1_555
C25 C24 1_555 1_555
C26 C25 1_555 1_555
H21 C26 1_555 1_555
C27 C23 1_555 1_555
C28 C27 1_555 1_555
H22 C28 1_555 1_555
C29 H23 1_555 1_555
C30 C7 1_555 1_555
C31 C8 1_555 1_555
C32 C31 1_555 1_555
H24 C32 1_555 1_555
C33 C32 1_555 1_555
C34 C29 1_555 1_555
C35 C34 1_555 1_555
C36 C35 1_555 1_555
H25 C36 1_555 1_555
C37 C33 1_555 1_555
C38 C37 1_555 1_555
H26 C38 1_555 1_555
C39 H27 1_555 1_555
C40 H28 1_555 1_555
C41 H29 1_555 1_555
C42 C39 1_555 1_555
C43 C40 1_555 1_555
C44 C43 1_555 1_555
H30 C44 1_555 1_555
C45 C44 1_555 1_555
C46 C41 1_555 1_555
C47 C46 1_555 1_555
C48 C47 1_555 1_555
H31 C48 1_555 1_555
C49 C45 1_555 1_555
C50 C49 1_555 1_555
H32 C50 1_555 1_555
C51 H33 1_555 1_555
C52 C39 1_555 1_555
C53 C40 1_555 1_555
C54 C53 1_555 1_555
H34 C54 1_555 1_555
C55 C54 1_555 1_555
C56 C51 1_555 1_555
C57 C56 1_555 1_555
C58 C57 1_555 1_555
H35 C58 1_555 1_555
C59 C55 1_555 1_555
C60 C59 1_555 1_555
H36 C60 1_555 1_555
C61 H37 1_555 1_555
C62 C39 1_555 1_555
C63 C40 1_555 1_555
C64 C63 1_555 1_555
H38 C64 1_555 1_555
C65 C64 1_555 1_555
C66 C61 1_555 1_555
C67 C66 1_555 1_555
C68 C67 1_555 1_555
H39 C68 1_555 1_555
C69 C65 1_555 1_555
C70 C69 1_555 1_555
H40 C70 1_555 1_555
C71 H41 1_555 1_555
C72 H42 1_555 1_555
C73 H43 1_555 1_555
C74 C71 1_555 1_555
C75 C72 1_555 1_555
C76 C75 1_555 1_555
H44 C76 1_555 1_555
C77 C76 1_555 1_555
C78 C73 1_555 1_555
C79 C78 1_555 1_555
C80 C79 1_555 1_555
H45 C80 1_555 1_555
C81 C77 1_555 1_555
C82 C81 1_555 1_555
H46 C82 1_555 1_555
C83 H47 1_555 1_555
C84 C83 1_555 1_555
C85 C84 1_555 1_555
C86 C85 1_555 1_555
H48 C86 1_555 1_555
C87 C72 1_555 1_555
C88 C71 1_555 1_555
C89 C84 1_555 1_555
C90 C89 1_555 1_555
H49 C90 1_555 1_555
C91 C85 1_555 1_555
C92 C91 1_555 1_555
H50 C92 1_555 1_555
C93 H51 1_555 1_555
C94 C71 1_555 1_555
C95 C72 1_555 1_555
C96 C95 1_555 1_555
H52 C96 1_555 1_555
C97 C96 1_555 1_555
C98 C93 1_555 1_555
C99 C98 1_555 1_555
C100 C99 1_555 1_555
H53 C100 1_555 1_555
C101 C97 1_555 1_555
C102 C101 1_555 1_555
H54 C102 1_555 1_555
C103 H55 1_555 1_555
C104 H56 1_555 1_555
C105 H57 1_555 1_555
C106 C103 1_555 1_555
C107 C104 1_555 1_555
C108 C107 1_555 1_555
H58 C108 1_555 1_555
C109 C108 1_555 1_555
C110 C105 1_555 1_555
C111 C110 1_555 1_555
C112 C111 1_555 1_555
H59 C112 1_555 1_555
C113 C109 1_555 1_555
C114 C113 1_555 1_555
H60 C114 1_555 1_555
C115 H61 1_555 1_555
C116 C103 1_555 1_555
C117 C104 1_555 1_555
C118 C117 1_555 1_555
H62 C118 1_555 1_555
C119 C118 1_555 1_555
C120 C115 1_555 1_555
C121 C120 1_555 1_555
C122 C121 1_555 1_555
H63 C122 1_555 1_555
C123 C119 1_555 1_555
C124 C123 1_555 1_555
H64 C124 1_555 1_555
C125 H65 1_555 1_555
C126 C103 1_555 1_555
C127 C104 1_555 1_555
C128 C127 1_555 1_555
H66 C128 1_555 1_555
C129 C128 1_555 1_555
C130 C125 1_555 1_555
C131 C130 1_555 1_555
C132 C131 1_555 1_555
H67 C132 1_555 1_555
C133 C129 1_555 1_555
C134 C133 1_555 1_555
H68 C134 1_555 1_555
C135 H69 1_555 1_555
C136 H70 1_555 1_555
C137 H71 1_555 1_555
C138 C135 1_555 1_555
C139 C136 1_555 1_555
C140 C139 1_555 1_555
H72 C140 1_555 1_555
C141 C140 1_555 1_555
C142 C137 1_555 1_555
C143 C142 1_555 1_555
C144 C143 1_555 1_555
H73 C144 1_555 1_555
C145 C141 1_555 1_555
C146 C145 1_555 1_555
H74 C146 1_555 1_555
C147 H75 1_555 1_555
C148 C135 1_555 1_555
C149 C136 1_555 1_555
C150 C149 1_555 1_555
H76 C150 1_555 1_555
C151 C150 1_555 1_555
C152 C147 1_555 1_555
C153 C152 1_555 1_555
C154 C153 1_555 1_555
H77 C154 1_555 1_555
C155 C151 1_555 1_555
C156 C155 1_555 1_555
H78 C156 1_555 1_555
C157 H79 1_555 1_555
C158 C135 1_555 1_555
C159 C136 1_555 1_555
C160 C159 1_555 1_555
H80 C160 1_555 1_555
C161 C160 1_555 1_555
C162 C157 1_555 1_555
C163 C162 1_555 1_555
C164 C163 1_555 1_555
H81 C164 1_555 1_555
C165 C161 1_555 1_555
C166 C165 1_555 1_555
H82 C166 1_555 1_555
C167 H83 1_555 1_555
C168 H84 1_555 1_555
C169 H85 1_555 1_555
C170 C167 1_555 1_555
C171 C168 1_555 1_555
C172 C171 1_555 1_555
H86 C172 1_555 1_555
C173 C172 1_555 1_555
C174 C169 1_555 1_555
C175 C174 1_555 1_555
C176 C175 1_555 1_555
H87 C176 1_555 1_555
C177 C173 1_555 1_555
C178 C177 1_555 1_555
H88 C178 1_555 1_555
C179 H89 1_555 1_555
C180 C167 1_555 1_555
C181 C168 1_555 1_555
C182 C181 1_555 1_555
H90 C182 1_555 1_555
C183 C182 1_555 1_555
C184 C179 1_555 1_555
C185 C184 1_555 1_555
C186 C185 1_555 1_555
H91 C186 1_555 1_555
C187 C183 1_555 1_555
C188 C187 1_555 1_555
H92 C188 1_555 1_555
C189 H93 1_555 1_555
C190 C167 1_555 1_555
C191 C168 1_555 1_555
C192 C191 1_555 1_555
H94 C192 1_555 1_555
C193 C192 1_555 1_555
C194 C189 1_555 1_555
C195 C194 1_555 1_555
C196 C195 1_555 1_555
H95 C196 1_555 1_555
C197 C193 1_555 1_555
C198 C197 1_555 1_555
H96 C198 1_555 1_555
C199 H97 1_555 1_555
C200 H98 1_555 1_555
C201 H99 1_555 1_555
C202 C199 1_555 1_555
C203 C200 1_555 1_555
C204 C203 1_555 1_555
H100 C204 1_555 1_555
C205 C204 1_555 1_555
C206 C201 1_555 1_555
C207 C206 1_555 1_555
C208 C207 1_555 1_555
H101 C208 1_555 1_555
C209 C205 1_555 1_555
C210 C209 1_555 1_555
H102 C210 1_555 1_555
C211 H103 1_555 1_555
C212 C199 1_555 1_555
C213 C200 1_555 1_555
C214 C213 1_555 1_555
H104 C214 1_555 1_555
C215 C214 1_555 1_555
C216 C211 1_555 1_555
C217 C216 1_555 1_555
C218 C217 1_555 1_555
H105 C218 1_555 1_555
C219 C215 1_555 1_555
C220 C219 1_555 1_555
H106 C220 1_555 1_555
C221 H107 1_555 1_555
C222 C199 1_555 1_555
C223 C200 1_555 1_555
C224 C223 1_555 1_555
H108 C224 1_555 1_555
C225 C224 1_555 1_555
C226 C221 1_555 1_555
C227 C226 1_555 1_555
C228 C227 1_555 1_555
H109 C228 1_555 1_555
C229 C225 1_555 1_555
C230 C229 1_555 1_555
H110 C230 1_555 1_555
C231 H111 1_555 1_555
C232 H112 1_555 1_555
C233 H113 1_555 1_555
C234 C231 1_555 1_555
C235 C232 1_555 1_555
C236 C235 1_555 1_555
H114 C236 1_555 1_555
C237 C236 1_555 1_555
C238 C233 1_555 1_555
C239 C238 1_555 1_555
C240 C239 1_555 1_555
H115 C240 1_555 1_555
C241 C237 1_555 1_555
C242 C241 1_555 1_555
H116 C242 1_555 1_555
C243 H117 1_555 1_555
C244 C231 1_555 1_555
C245 C232 1_555 1_555
C246 C245 1_555 1_555
H118 C246 1_555 1_555
C247 C246 1_555 1_555
C248 C243 1_555 1_555
C249 C248 1_555 1_555
C250 C249 1_555 1_555
H119 C250 1_555 1_555
C251 C247 1_555 1_555
C252 C251 1_555 1_555
H120 C252 1_555 1_555
C253 H121 1_555 1_555
C254 C231 1_555 1_555
C255 C232 1_555 1_555
C256 C255 1_555 1_555
H122 C256 1_555 1_555
C257 C256 1_555 1_555
C258 C253 1_555 1_555
C259 C258 1_555 1_555
C260 C259 1_555 1_555
H123 C260 1_555 1_555
C261 C257 1_555 1_555
C262 C261 1_555 1_555
H124 C262 1_555 1_555
C263 H125 1_555 1_555
C264 H126 1_555 1_555
C265 H127 1_555 1_555
C266 C263 1_555 1_555
C267 C264 1_555 1_555
C268 C267 1_555 1_555
H128 C268 1_555 1_555
C269 C268 1_555 1_555
C270 C265 1_555 1_555
C271 C270 1_555 1_555
C272 C271 1_555 1_555
H129 C272 1_555 1_555
C273 C269 1_555 1_555
C274 C273 1_555 1_555
H130 C274 1_555 1_555
C275 H131 1_555 1_555
C276 C263 1_555 1_555
C277 C264 1_555 1_555
C278 C277 1_555 1_555
H132 C278 1_555 1_555
C279 C278 1_555 1_555
C280 C275 1_555 1_555
C281 C280 1_555 1_555
C282 C281 1_555 1_555
H133 C282 1_555 1_555
C283 C279 1_555 1_555
C284 C283 1_555 1_555
H134 C284 1_555 1_555
C285 H135 1_555 1_555
C286 C263 1_555 1_555
C287 C264 1_555 1_555
C288 C287 1_555 1_555
H136 C288 1_555 1_555
C289 C288 1_555 1_555
C290 C285 1_555 1_555
C291 C290 1_555 1_555
C292 C291 1_555 1_555
H137 C292 1_555 1_555
C293 C289 1_555 1_555
C294 C293 1_555 1_555
H138 C294 1_555 1_555
C9 C10 1_555 1_555
C10 C11 1_555 1_555
C13 C14 1_555 1_555
C19 C20 1_555 1_555
C20 C21 1_555 1_555
C23 C24 1_555 1_555
C29 C30 1_555 1_555
C30 C31 1_555 1_555
C33 C34 1_555 1_555
C41 C42 1_555 1_555
C42 C43 1_555 1_555
C45 C46 1_555 1_555
C51 C52 1_555 1_555
C52 C53 1_555 1_555
C55 C56 1_555 1_555
C61 C62 1_555 1_555
C62 C63 1_555 1_555
C65 C66 1_555 1_555
C73 C74 1_555 1_555
C74 C75 1_555 1_555
C77 C78 1_555 1_555
C83 C88 1_555 1_555
C86 C87 1_555 1_555
C87 C88 1_555 1_555
C93 C94 1_555 1_555
C94 C95 1_555 1_555
C97 C98 1_555 1_555
C105 C106 1_555 1_555
C106 C107 1_555 1_555
C109 C110 1_555 1_555
C115 C116 1_555 1_555
C116 C117 1_555 1_555
C119 C120 1_555 1_555
C125 C126 1_555 1_555
C126 C127 1_555 1_555
C129 C130 1_555 1_555
C137 C138 1_555 1_555
C138 C139 1_555 1_555
C141 C142 1_555 1_555
C147 C148 1_555 1_555
C148 C149 1_555 1_555
C151 C152 1_555 1_555
C157 C158 1_555 1_555
C158 C159 1_555 1_555
C161 C162 1_555 1_555
C169 C170 1_555 1_555
C170 C171 1_555 1_555
C173 C174 1_555 1_555
C179 C180 1_555 1_555
C180 C181 1_555 1_555
C183 C184 1_555 1_555
C189 C190 1_555 1_555
C190 C191 1_555 1_555
C193 C194 1_555 1_555
C201 C202 1_555 1_555
C202 C203 1_555 1_555
C205 C206 1_555 1_555
C211 C212 1_555 1_555
C212 C213 1_555 1_555
C215 C216 1_555 1_555
C221 C222 1_555 1_555
C222 C223 1_555 1_555
C225 C226 1_555 1_555
C233 C234 1_555 1_555
C234 C235 1_555 1_555
C237 C238 1_555 1_555
C243 C244 1_555 1_555
C244 C245 1_555 1_555
C247 C248 1_555 1_555
C253 C254 1_555 1_555
C254 C255 1_555 1_555
C257 C258 1_555 1_555
C265 C266 1_555 1_555
C266 C267 1_555 1_555
C269 C270 1_555 1_555
C275 C276 1_555 1_555
C276 C277 1_555 1_555
C279 C280 1_555 1_555
C285 C286 1_555 1_555
C286 C287 1_555 1_555
C289 C290 1_555 1_555

#END
