
#######################################################################
#
#                 Cambridge Crystallographic Data Centre
#                                CCDC 
#
#######################################################################
#
# If this CIF has been generated from an entry in the Cambridge 
# Structural Database, then it will include bibliographic, chemical, 
# crystal, experimental, refinement or atomic coordinate data resulting 
# from the CCDC's data processing and validation procedures.
#
#######################################################################

data_KEKXOO
_chemical_formula_moiety         'C26 H29 N1 O2'
_chemical_name_systematic        
(1R,2S,8S)-5,5-Dibenzyl-1,11,11-trimethyl-3-oxa-6-azatricyclo(6.2.1.0^2,7^)undec-6-en-4-one
_symmetry_cell_setting           monoclinic
_symmetry_space_group_name_H-M   'C 2'
_symmetry_Int_Tables_number      5
_space_group_name_Hall           'C 2y'
loop_
_symmetry_equiv_pos_site_id
_symmetry_equiv_pos_as_xyz
1 x,y,z
2 -x,y,-z
3 1/2+x,1/2+y,z
4 1/2-x,1/2+y,-z
_cell_length_a                   14.553(4)
_cell_length_b                   13.477(3)
_cell_length_c                   11.770(3)
_cell_angle_alpha                90
_cell_angle_beta                 108.896(5)
_cell_angle_gamma                90
_cell_volume                     2184.05
_chemical_melting_point          146-147deg.C
_cell_formula_units_Z            4
loop_
_atom_site_label
_atom_site_type_symbol
_atom_site_fract_x
_atom_site_fract_y
_atom_site_fract_z
O1 O 0.14016(15) 0.85483(17) 0.50200(16)
O2 O 0.22576(11) 0.89089(15) 0.38483(14)
N1 N 0.05899(14) 0.87829(18) 0.17611(16)
C1 C 0.31062(18) 0.9393(3) 0.2355(3)
C2 C 0.22139(18) 0.9484(2) 0.2794(2)
H1 H 0.2110 1.0184 0.2943
C3 C 0.13947(18) 0.8743(2) 0.4029(2)
C4 C 0.04558(17) 0.8764(2) 0.2943(2)
C5 C 0.13893(18) 0.9125(2) 0.1728(2)
C6 C 0.1787(2) 0.9089(2) 0.0702(2)
H2 H 0.1374 0.8752 -0.0021
C7 C 0.2096(3) 1.0153(3) 0.0504(3)
H3 H 0.2235 1.0202 -0.0246
H4 H 0.1590 1.0626 0.0493
C8 C 0.3017(3) 1.0343(3) 0.1582(3)
H5 H 0.2944 1.0928 0.2025
H6 H 0.3581 1.0425 0.1323
C9 C 0.2773(2) 0.8575(2) 0.1342(3)
C10 C 0.2688(3) 0.7543(3) 0.1824(4)
H7 H 0.2489 0.7081 0.1170
H8 H 0.2214 0.7553 0.2233
H9 H 0.3305 0.7346 0.2374
C11 C 0.3440(3) 0.8503(4) 0.0556(4)
H10 H 0.3200 0.7996 -0.0041
H11 H 0.4087 0.8339 0.1052
H12 H 0.3445 0.9128 0.0167
C12 C 0.4069(2) 0.9267(4) 0.3337(4)
H13 H 0.4171 0.9811 0.3890
H14 H 0.4582 0.9252 0.2990
H15 H 0.4067 0.8656 0.3755
C13 C -0.0113(2) 0.7797(2) 0.2989(3)
H16 H -0.0238 0.7771 0.3750
H17 H -0.0735 0.7818 0.2355
C14 C 0.0417(2) 0.6866(2) 0.2851(2)
C15 C 0.0998(3) 0.6345(2) 0.3833(3)
H18 H 0.1041 0.6551 0.4603
C16 C 0.1519(3) 0.5517(3) 0.3684(4)
H19 H 0.1915 0.5179 0.4352
C17 C 0.1449(3) 0.5199(3) 0.2550(4)
H20 H 0.1800 0.4648 0.2450
C18 C 0.0869(3) 0.5689(3) 0.1581(3)
H21 H 0.0819 0.5470 0.0813
C19 C 0.0353(2) 0.6510(2) 0.1723(3)
H22 H -0.0048 0.6833 0.1045
C20 C -0.0172(2) 0.9667(2) 0.3060(3)
H23 H -0.0768 0.9668 0.2381
H24 H -0.0348 0.9589 0.3782
C21 C 0.0328(2) 1.0656(2) 0.3111(3)
C22 C 0.0896(3) 1.1053(2) 0.4200(3)
H25 H 0.0921 1.0730 0.4907
C23 C 0.1426(3) 1.1913(3) 0.4262(4)
H26 H 0.1809 1.2160 0.5002
C24 C 0.1380(4) 1.2395(3) 0.3233(6)
H27 H 0.1743 1.2970 0.3270
C25 C 0.0810(3) 1.2046(3) 0.2143(5)
H28 H 0.0775 1.2392 0.1446
C26 C 0.0273(3) 1.1163(3) 0.2072(3)
H29 H -0.0114 1.0924 0.1330
loop_
_geom_bond_atom_site_label_1
_geom_bond_atom_site_label_2
_geom_bond_site_symmetry_1
_geom_bond_site_symmetry_2
O1 C3 1_555 1_555
O2 C2 1_555 1_555
N1 C4 1_555 1_555
C1 C2 1_555 1_555
C2 H1 1_555 1_555
C3 O2 1_555 1_555
C4 C3 1_555 1_555
C5 N1 1_555 1_555
C6 C5 1_555 1_555
H2 C6 1_555 1_555
C7 C6 1_555 1_555
H3 C7 1_555 1_555
H4 C7 1_555 1_555
C8 C1 1_555 1_555
H5 C8 1_555 1_555
H6 C8 1_555 1_555
C9 C1 1_555 1_555
C10 C9 1_555 1_555
H7 C10 1_555 1_555
H8 C10 1_555 1_555
H9 C10 1_555 1_555
C11 C9 1_555 1_555
H10 C11 1_555 1_555
H11 C11 1_555 1_555
H12 C11 1_555 1_555
C12 C1 1_555 1_555
H13 C12 1_555 1_555
H14 C12 1_555 1_555
H15 C12 1_555 1_555
C13 C4 1_555 1_555
H16 C13 1_555 1_555
H17 C13 1_555 1_555
C14 C13 1_555 1_555
C15 C14 1_555 1_555
H18 C15 1_555 1_555
C16 C15 1_555 1_555
H19 C16 1_555 1_555
C17 C16 1_555 1_555
H20 C17 1_555 1_555
C18 C17 1_555 1_555
H21 C18 1_555 1_555
C19 C14 1_555 1_555
H22 C19 1_555 1_555
C20 C4 1_555 1_555
H23 C20 1_555 1_555
H24 C20 1_555 1_555
C21 C20 1_555 1_555
C22 C21 1_555 1_555
H25 C22 1_555 1_555
C23 C22 1_555 1_555
H26 C23 1_555 1_555
C24 C23 1_555 1_555
H27 C24 1_555 1_555
C25 C24 1_555 1_555
H28 C25 1_555 1_555
C26 C21 1_555 1_555
H29 C26 1_555 1_555
C2 C5 1_555 1_555
C6 C9 1_555 1_555
C7 C8 1_555 1_555
C18 C19 1_555 1_555
C25 C26 1_555 1_555

#END
