
#######################################################################
#
#                 Cambridge Crystallographic Data Centre
#                                CCDC 
#
#######################################################################
#
# If this CIF has been generated from an entry in the Cambridge 
# Structural Database, then it will include bibliographic, chemical, 
# crystal, experimental, refinement or atomic coordinate data resulting 
# from the CCDC's data processing and validation procedures.
#
#######################################################################

data_KEKZEG
_chemical_formula_moiety         'C10 H19 Br2 N1 O1'
_chemical_name_systematic        cis-3,5-bis(Bromomethyl)-4-t-butylmorpholine
_symmetry_cell_setting           monoclinic
_symmetry_space_group_name_H-M   'P 21/c'
_symmetry_Int_Tables_number      14
_space_group_name_Hall           '-P 2ybc'
loop_
_symmetry_equiv_pos_site_id
_symmetry_equiv_pos_as_xyz
1 x,y,z
2 -x,1/2+y,1/2-z
3 -x,-y,-z
4 x,1/2-y,1/2+z
_cell_length_a                   15.0702(6)
_cell_length_b                   9.4707(4)
_cell_length_c                   17.8664(7)
_cell_angle_alpha                90
_cell_angle_beta                 91.5640(10)
_cell_angle_gamma                90
_cell_volume                     2549.04
_exptl_crystal_colour            colorless
_exptl_crystal_description       'irregular prism'
_chemical_melting_point          '58.4-59.2 deg.C'
_cell_formula_units_Z            8
loop_
_atom_site_label
_atom_site_type_symbol
_atom_site_fract_x
_atom_site_fract_y
_atom_site_fract_z
Br1 Br 0.112937(14) -0.15258(2) -0.169855(13)
Br2 Br 0.107855(13) 0.34987(2) 0.129502(10)
O1 O -0.04189(8) 0.14709(14) -0.05378(7)
N1 N 0.12116(10) 0.26719(15) -0.09864(8)
C1 C 0.08413(11) 0.14230(18) -0.13627(10)
H1 H 0.0975 0.1494 -0.1907
C2 C -0.01628(12) 0.1302(2) -0.12953(11)
H2 H -0.0457 0.2034 -0.1610
H3 H -0.0361 0.0366 -0.1481
C3 C -0.02066(12) 0.2870(2) -0.03016(11)
H4 H -0.0426 0.3021 0.0209
H5 H -0.0511 0.3553 -0.0640
C4 C 0.07940(11) 0.31418(19) -0.03017(9)
H6 H 0.0890 0.4183 -0.0255
C5 C 0.13206(12) 0.01225(18) -0.10465(11)
H7 H 0.1100 -0.0089 -0.0542
H8 H 0.1964 0.0321 -0.0996
C6 C 0.12702(12) 0.2429(2) 0.03679(10)
H9 H 0.1914 0.2372 0.0276
H10 H 0.1043 0.1455 0.0425
C7 C 0.17226(11) 0.36825(17) -0.14455(10)
C8 C 0.11151(12) 0.44219(19) -0.20254(10)
H11 H 0.0831 0.3714 -0.2353
H12 H 0.1467 0.5067 -0.2326
H13 H 0.0658 0.4957 -0.1768
C9 C 0.24633(12) 0.2880(2) -0.18370(11)
H14 H 0.2854 0.2429 -0.1460
H15 H 0.2808 0.3542 -0.2134
H16 H 0.2201 0.2156 -0.2167
C10 C 0.21780(12) 0.48004(19) -0.09487(10)
H17 H 0.2500 0.4336 -0.0533
H18 H 0.1730 0.5437 -0.0750
H19 H 0.2596 0.5343 -0.1246
Br3 Br 0.379191(13) 0.58977(2) 0.393269(10)
Br4 Br 0.393123(13) 0.261105(19) 0.037941(10)
O2 O 0.53350(8) 0.49402(14) 0.21011(7)
N2 N 0.37569(9) 0.63635(15) 0.16033(8)
C11 C 0.41123(11) 0.65200(18) 0.23735(9)
H20 H 0.4001 0.7512 0.2538
C12 C 0.51046(11) 0.62396(19) 0.24494(10)
H21 H 0.5432 0.7023 0.2215
H22 H 0.5283 0.6205 0.2987
C13 C 0.51681(11) 0.5080(2) 0.13151(10)
H23 H 0.5371 0.4216 0.1059
H24 H 0.5514 0.5887 0.1125
C14 C 0.41848(11) 0.53146(17) 0.11269(10)
H25 H 0.4135 0.5661 0.0599
C15 C 0.35738(12) 0.5535(2) 0.28640(9)
H26 H 0.3731 0.4544 0.2752
H27 H 0.2934 0.5663 0.2742
C16 C 0.36420(12) 0.39550(18) 0.11739(10)
H28 H 0.3002 0.4189 0.1134
H29 H 0.3758 0.3507 0.1668
C17 C 0.33582(11) 0.76236(18) 0.12249(9)
C18 C 0.40837(13) 0.86041(19) 0.09424(11)
H30 H 0.4466 0.8907 0.1365
H31 H 0.3809 0.9433 0.0703
H32 H 0.4441 0.8100 0.0578
C19 C 0.27749(14) 0.8432(2) 0.17710(11)
H33 H 0.3152 0.8883 0.2157
H34 H 0.2366 0.7773 0.2007
H35 H 0.2434 0.9156 0.1497
C20 C 0.27478(13) 0.7143(2) 0.05746(11)
H36 H 0.2311 0.6469 0.0759
H37 H 0.3102 0.6689 0.0191
H38 H 0.2439 0.7963 0.0358
loop_
_geom_bond_atom_site_label_1
_geom_bond_atom_site_label_2
_geom_bond_site_symmetry_1
_geom_bond_site_symmetry_2
Br1 C5 1_555 1_555
Br2 C6 1_555 1_555
O1 C2 1_555 1_555
N1 C1 1_555 1_555
C1 H1 1_555 1_555
C2 C1 1_555 1_555
H2 C2 1_555 1_555
H3 C2 1_555 1_555
C3 O1 1_555 1_555
H4 C3 1_555 1_555
H5 C3 1_555 1_555
C4 N1 1_555 1_555
H6 C4 1_555 1_555
C5 C1 1_555 1_555
H7 C5 1_555 1_555
H8 C5 1_555 1_555
C6 C4 1_555 1_555
H9 C6 1_555 1_555
H10 C6 1_555 1_555
C7 N1 1_555 1_555
C8 C7 1_555 1_555
H11 C8 1_555 1_555
H12 C8 1_555 1_555
H13 C8 1_555 1_555
C9 C7 1_555 1_555
H14 C9 1_555 1_555
H15 C9 1_555 1_555
H16 C9 1_555 1_555
C10 C7 1_555 1_555
H17 C10 1_555 1_555
H18 C10 1_555 1_555
H19 C10 1_555 1_555
Br3 C15 1_555 1_555
Br4 C16 1_555 1_555
O2 C12 1_555 1_555
N2 C11 1_555 1_555
C11 H20 1_555 1_555
C12 C11 1_555 1_555
H21 C12 1_555 1_555
H22 C12 1_555 1_555
C13 O2 1_555 1_555
H23 C13 1_555 1_555
H24 C13 1_555 1_555
C14 N2 1_555 1_555
H25 C14 1_555 1_555
C15 C11 1_555 1_555
H26 C15 1_555 1_555
H27 C15 1_555 1_555
C16 C14 1_555 1_555
H28 C16 1_555 1_555
H29 C16 1_555 1_555
C17 N2 1_555 1_555
C18 C17 1_555 1_555
H30 C18 1_555 1_555
H31 C18 1_555 1_555
H32 C18 1_555 1_555
C19 C17 1_555 1_555
H33 C19 1_555 1_555
H34 C19 1_555 1_555
H35 C19 1_555 1_555
C20 C17 1_555 1_555
H36 C20 1_555 1_555
H37 C20 1_555 1_555
H38 C20 1_555 1_555
C3 C4 1_555 1_555
C13 C14 1_555 1_555

#END
