
#######################################################################
#
#                 Cambridge Crystallographic Data Centre
#                                CCDC 
#
#######################################################################
#
# If this CIF has been generated from an entry in the Cambridge 
# Structural Database, then it will include bibliographic, chemical, 
# crystal, experimental, refinement or atomic coordinate data resulting 
# from the CCDC's data processing and validation procedures.
#
#######################################################################

data_KELBEJ
_chemical_formula_moiety         'C80 H46 O12,C1 Cl4'
_chemical_name_systematic        
'2,4,11,15,30-pentakis(t-Butylperoxy)-3,14-epoxy-1-hydroxy-1,2,3,4,11,14,15,30-octahydroC60fullerene carbon tetrachloride solvate'
_symmetry_cell_setting           monoclinic
_symmetry_space_group_name_H-M   'P 21/c'
_symmetry_Int_Tables_number      14
_space_group_name_Hall           '-P 2ybc'
loop_
_symmetry_equiv_pos_site_id
_symmetry_equiv_pos_as_xyz
1 x,y,z
2 -x,1/2+y,1/2-z
3 -x,-y,-z
4 x,1/2-y,1/2+z
_cell_length_a                   24.233(5)
_cell_length_b                   13.861(3)
_cell_length_c                   18.487(4)
_cell_angle_alpha                90
_cell_angle_beta                 107.50(3)
_cell_angle_gamma                90
_cell_volume                     5922.26
_exptl_crystal_description       block
_cell_formula_units_Z            4
_exptl_crystal_recrystallization_method 'carbon disulfide/ethanol'
loop_
_atom_site_label
_atom_site_type_symbol
_atom_site_fract_x
_atom_site_fract_y
_atom_site_fract_z
Cl1 Cl 0.35703(13) 0.3984(2) 0.04835(18)
Cl2 Cl 0.42182(16) 0.5528(3) 0.0077(2)
Cl3 Cl 0.39030(16) 0.5612(3) 0.1424(3)
Cl4 Cl 0.47609(19) 0.4310(3) 0.1315(3)
C81 C 0.4094(4) 0.4808(8) 0.0874(7)
O1 O 0.24484(15) 0.8976(3) -0.0581(2)
O2 O 0.29119(15) 1.2213(3) -0.0010(2)
H1 H 0.2916 1.1553 0.0436
O3 O 0.31994(14) 1.0419(3) -0.01737(19)
O4 O 0.30212(15) 1.0461(3) 0.0528(2)
O5 O 0.37270(15) 1.1048(3) -0.1536(2)
O6 O 0.39783(17) 1.1751(3) -0.1936(2)
O7 O 0.29791(16) 0.8411(3) -0.2519(2)
O8 O 0.35605(15) 0.8848(3) -0.2240(2)
O9 O 0.16717(15) 0.7651(3) -0.1464(2)
O10 O 0.21604(16) 0.7121(3) -0.1602(2)
O11 O 0.17331(14) 0.9825(3) 0.01446(18)
O12 O 0.11752(15) 0.9871(3) 0.02939(19)
C1 C 0.0740(2) 1.3020(4) -0.3845(3)
C2 C 0.0314(2) 1.2736(4) -0.3472(3)
C3 C 0.0070(2) 1.1807(5) -0.3797(3)
C4 C 0.0346(2) 1.1529(5) -0.4357(3)
C5 C 0.0758(3) 1.2270(5) -0.4397(3)
C6 C 0.1288(2) 1.2019(4) -0.4498(3)
C7 C 0.1805(3) 1.2486(4) -0.4073(3)
C8 C 0.1794(2) 1.3207(4) -0.3540(3)
C9 C 0.1244(2) 1.3479(4) -0.3434(3)
C10 C 0.1344(2) 1.3661(4) -0.2637(3)
C11 C 0.0938(2) 1.3403(4) -0.2296(3)
C12 C 0.0414(2) 1.2920(4) -0.2713(3)
C13 C 0.0266(2) 1.2204(4) -0.2234(3)
C14 C 0.0036(2) 1.1325(4) -0.2536(3)
C15 C -0.0065(2) 1.1140(5) -0.3337(3)
C16 C 0.0063(2) 1.0117(4) -0.3404(3)
C17 C 0.0337(2) 0.9858(4) -0.3944(3)
C18 C 0.0473(2) 1.0579(5) -0.4440(3)
C19 C 0.0804(2) 0.9147(4) -0.3748(3)
C20 C 0.1220(3) 0.9427(4) -0.4109(3)
C21 C 0.1014(2) 1.0289(4) -0.4537(3)
C22 C 0.1423(3) 1.1011(5) -0.4571(3)
C23 C 0.2030(2) 1.0873(4) -0.4187(3)
C24 C 0.2275(2) 1.1776(4) -0.3868(3)
C25 C 0.2689(2) 1.1810(4) -0.3166(3)
C26 C 0.2670(2) 1.2537(4) -0.2620(3)
C27 C 0.2227(2) 1.3241(4) -0.2809(3)
C28 C 0.1949(2) 1.3514(4) -0.2251(3)
C29 C 0.2126(2) 1.3075(4) -0.1552(3)
C30 C 0.1705(2) 1.2807(4) -0.1176(3)
C31 C 0.1122(2) 1.2971(4) -0.1540(3)
C32 C 0.0708(2) 1.2241(4) -0.1512(3)
C33 C 0.0905(2) 1.1382(4) -0.1108(3)
C34 C 0.0663(2) 1.0470(4) -0.1427(3)
C35 C 0.0230(2) 1.0446(4) -0.2120(3)
C36 C 0.0252(2) 0.9720(4) -0.2665(3)
C37 C 0.0705(2) 0.9042(4) -0.2471(3)
C38 C 0.0981(2) 0.8761(4) -0.3037(3)
C39 C 0.1581(2) 0.8590(4) -0.2638(3)
C40 C 0.1980(2) 0.8861(4) -0.2979(3)
C41 C 0.1808(2) 0.9303(4) -0.3735(3)
C42 C 0.2226(2) 1.0026(4) -0.3760(3)
C43 C 0.2672(2) 1.0064(4) -0.3055(3)
C44 C 0.2902(2) 1.0920(4) -0.2767(3)
C45 C 0.3109(2) 1.1131(4) -0.1893(3)
C46 C 0.2856(2) 1.2138(4) -0.1872(3)
C47 C 0.2584(2) 1.2390(4) -0.1343(3)
C48 C 0.2529(2) 1.1777(4) -0.0697(3)
C49 C 0.1908(2) 1.1938(4) -0.0756(3)
C50 C 0.1508(2) 1.1228(4) -0.0724(3)
C51 C 0.1642(2) 1.0168(4) -0.0622(3)
C52 C 0.1110(2) 0.9746(4) -0.1224(3)
C53 C 0.1127(2) 0.9071(4) -0.1739(3)
C54 C 0.1682(2) 0.8581(4) -0.1787(3)
C55 C 0.2196(2) 0.9179(4) -0.1379(3)
C56 C 0.2196(2) 0.9924(4) -0.0785(3)
C57 C 0.2676(2) 1.0682(4) -0.0772(3)
C58 C 0.2828(2) 1.0425(4) -0.1499(3)
C59 C 0.2602(2) 0.9578(4) -0.1791(3)
C60 C 0.2595(2) 0.9203(4) -0.2566(3)
C61 C 0.3483(2) 0.9969(5) 0.1123(3)
C62 C 0.3486(3) 0.8918(5) 0.0946(4)
H2 H 0.3114 0.8646 0.0906
H3 H 0.3777 0.8599 0.1344
H4 H 0.3570 0.8835 0.0474
C63 C 0.3281(3) 1.0174(5) 0.1808(3)
H5 H 0.3289 1.0857 0.1897
H6 H 0.3533 0.9857 0.2245
H7 H 0.2893 0.9939 0.1716
C64 C 0.4053(2) 1.0471(6) 0.1208(4)
H8 H 0.4020 1.1140 0.1324
H9 H 0.4149 1.0419 0.0742
H10 H 0.4351 1.0174 0.1610
C65 C 0.4449(3) 1.2226(5) -0.1375(4)
C66 C 0.4867(3) 1.1487(6) -0.0925(5)
H11 H 0.5012 1.1107 -0.1262
H12 H 0.4673 1.1075 -0.0662
H13 H 0.5183 1.1807 -0.0564
C67 C 0.4222(3) 1.2801(6) -0.0840(6)
H14 H 0.3953 1.3275 -0.1120
H15 H 0.4537 1.3118 -0.0476
H16 H 0.4030 1.2378 -0.0582
C68 C 0.4689(4) 1.2864(7) -0.1882(5)
H17 H 0.4822 1.2466 -0.2221
H18 H 0.5006 1.3239 -0.1573
H19 H 0.4390 1.3288 -0.2170
C69 C 0.3938(2) 0.8175(5) -0.1656(4)
C70 C 0.3944(3) 0.7227(5) -0.2014(4)
H20 H 0.3570 0.6931 -0.2116
H21 H 0.4230 0.6822 -0.1678
H22 H 0.4035 0.7310 -0.2480
C71 C 0.3715(3) 0.8155(5) -0.0977(4)
H23 H 0.3719 0.8797 -0.0780
H24 H 0.3957 0.7745 -0.0593
H25 H 0.3326 0.7911 -0.1127
C72 C 0.4503(3) 0.8674(6) -0.1484(4)
H26 H 0.4479 0.9287 -0.1253
H27 H 0.4600 0.8772 -0.1945
H28 H 0.4796 0.8287 -0.1142
C73 C 0.2252(2) 0.6285(4) -0.1109(3)
C74 C 0.2525(3) 0.6604(5) -0.0279(3)
H29 H 0.2875 0.6955 -0.0235
H30 H 0.2612 0.6045 0.0042
H31 H 0.2259 0.7010 -0.0127
C75 C 0.1700(2) 0.5714(4) -0.1219(4)
H32 H 0.1436 0.6080 -0.1031
H33 H 0.1788 0.5116 -0.0947
H34 H 0.1527 0.5584 -0.1749
C76 C 0.2691(3) 0.5735(4) -0.1394(4)
H35 H 0.3035 0.6117 -0.1314
H36 H 0.2528 0.5602 -0.1925
H37 H 0.2787 0.5138 -0.1121
C77 C 0.1109(2) 0.8962(4) 0.0664(3)
C78 C 0.1587(3) 0.8878(5) 0.1410(3)
H38 H 0.1577 0.9428 0.1721
H39 H 0.1955 0.8854 0.1314
H40 H 0.1534 0.8300 0.1667
C79 C 0.0533(3) 0.9103(5) 0.0806(4)
H41 H 0.0555 0.9646 0.1135
H42 H 0.0438 0.8534 0.1039
H43 H 0.0240 0.9218 0.0332
C80 C 0.1105(3) 0.8116(4) 0.0158(3)
H44 H 0.1478 0.8056 0.0080
H45 H 0.0816 0.8212 -0.0322
H46 H 0.1020 0.7539 0.0391
loop_
_geom_bond_atom_site_label_1
_geom_bond_atom_site_label_2
_geom_bond_site_symmetry_1
_geom_bond_site_symmetry_2
Cl1 C81 1_555 1_555
Cl2 C81 1_555 1_555
Cl3 C81 1_555 1_555
Cl4 C81 1_555 1_555
O1 C55 1_555 1_555
O2 H1 1_555 1_555
O3 O4 1_555 1_555
O4 C61 1_555 1_555
O5 O6 1_555 1_555
O6 C65 1_555 1_555
O7 O8 1_555 1_555
O8 C69 1_555 1_555
O9 O10 1_555 1_555
O10 C73 1_555 1_555
O11 O12 1_555 1_555
O12 C77 1_555 1_555
C1 C2 1_555 1_555
C2 C3 1_555 1_555
C3 C4 1_555 1_555
C4 C5 1_555 1_555
C5 C1 1_555 1_555
C6 C5 1_555 1_555
C7 C6 1_555 1_555
C8 C7 1_555 1_555
C9 C1 1_555 1_555
C10 C9 1_555 1_555
C11 C10 1_555 1_555
C12 C2 1_555 1_555
C13 C12 1_555 1_555
C14 C13 1_555 1_555
C15 C3 1_555 1_555
C16 C15 1_555 1_555
C17 C16 1_555 1_555
C18 C4 1_555 1_555
C19 C17 1_555 1_555
C20 C19 1_555 1_555
C21 C18 1_555 1_555
C22 C6 1_555 1_555
C23 C22 1_555 1_555
C24 C7 1_555 1_555
C25 C24 1_555 1_555
C26 C25 1_555 1_555
C27 C8 1_555 1_555
C28 C10 1_555 1_555
C29 C28 1_555 1_555
C30 C29 1_555 1_555
C31 C11 1_555 1_555
C32 C13 1_555 1_555
C33 C32 1_555 1_555
C34 C33 1_555 1_555
C35 C14 1_555 1_555
C36 C16 1_555 1_555
C37 C36 1_555 1_555
C38 C19 1_555 1_555
C39 C38 1_555 1_555
C40 C39 1_555 1_555
C41 C20 1_555 1_555
C42 C23 1_555 1_555
C43 C42 1_555 1_555
C44 C25 1_555 1_555
C45 O5 1_555 1_555
C46 C26 1_555 1_555
C47 C29 1_555 1_555
C48 O2 1_555 1_555
C49 C30 1_555 1_555
C50 C33 1_555 1_555
C51 O11 1_555 1_555
C52 C34 1_555 1_555
C53 C37 1_555 1_555
C54 O9 1_555 1_555
C55 C54 1_555 1_555
C56 O1 1_555 1_555
C57 O3 1_555 1_555
C58 C45 1_555 1_555
C59 C55 1_555 1_555
C60 O7 1_555 1_555
C61 C62 1_555 1_555
C62 H2 1_555 1_555
H3 C62 1_555 1_555
H4 C62 1_555 1_555
C63 C61 1_555 1_555
H5 C63 1_555 1_555
H6 C63 1_555 1_555
H7 C63 1_555 1_555
C64 C61 1_555 1_555
H8 C64 1_555 1_555
H9 C64 1_555 1_555
H10 C64 1_555 1_555
C65 C66 1_555 1_555
C66 H11 1_555 1_555
H12 C66 1_555 1_555
H13 C66 1_555 1_555
C67 C65 1_555 1_555
H14 C67 1_555 1_555
H15 C67 1_555 1_555
H16 C67 1_555 1_555
C68 C65 1_555 1_555
H17 C68 1_555 1_555
H18 C68 1_555 1_555
H19 C68 1_555 1_555
C69 C70 1_555 1_555
C70 H20 1_555 1_555
H21 C70 1_555 1_555
H22 C70 1_555 1_555
C71 C69 1_555 1_555
H23 C71 1_555 1_555
H24 C71 1_555 1_555
H25 C71 1_555 1_555
C72 C69 1_555 1_555
H26 C72 1_555 1_555
H27 C72 1_555 1_555
H28 C72 1_555 1_555
C73 C74 1_555 1_555
C74 H29 1_555 1_555
H30 C74 1_555 1_555
H31 C74 1_555 1_555
C75 C73 1_555 1_555
H32 C75 1_555 1_555
H33 C75 1_555 1_555
H34 C75 1_555 1_555
C76 C73 1_555 1_555
H35 C76 1_555 1_555
H36 C76 1_555 1_555
H37 C76 1_555 1_555
C77 C78 1_555 1_555
C78 H38 1_555 1_555
H39 C78 1_555 1_555
H40 C78 1_555 1_555
C79 C77 1_555 1_555
H41 C79 1_555 1_555
H42 C79 1_555 1_555
H43 C79 1_555 1_555
C80 C77 1_555 1_555
H44 C80 1_555 1_555
H45 C80 1_555 1_555
H46 C80 1_555 1_555
C8 C9 1_555 1_555
C11 C12 1_555 1_555
C14 C15 1_555 1_555
C17 C18 1_555 1_555
C20 C21 1_555 1_555
C21 C22 1_555 1_555
C23 C24 1_555 1_555
C26 C27 1_555 1_555
C27 C28 1_555 1_555
C30 C31 1_555 1_555
C31 C32 1_555 1_555
C34 C35 1_555 1_555
C35 C36 1_555 1_555
C37 C38 1_555 1_555
C39 C54 1_555 1_555
C40 C41 1_555 1_555
C40 C60 1_555 1_555
C41 C42 1_555 1_555
C43 C44 1_555 1_555
C43 C60 1_555 1_555
C44 C45 1_555 1_555
C45 C46 1_555 1_555
C46 C47 1_555 1_555
C47 C48 1_555 1_555
C48 C49 1_555 1_555
C48 C57 1_555 1_555
C49 C50 1_555 1_555
C50 C51 1_555 1_555
C51 C52 1_555 1_555
C51 C56 1_555 1_555
C52 C53 1_555 1_555
C53 C54 1_555 1_555
C55 C56 1_555 1_555
C56 C57 1_555 1_555
C57 C58 1_555 1_555
C58 C59 1_555 1_555
C59 C60 1_555 1_555

#END
