
#######################################################################
#
#                 Cambridge Crystallographic Data Centre
#                                CCDC 
#
#######################################################################
#
# If this CIF has been generated from an entry in the Cambridge 
# Structural Database, then it will include bibliographic, chemical, 
# crystal, experimental, refinement or atomic coordinate data resulting 
# from the CCDC's data processing and validation procedures.
#
#######################################################################

data_KEMBEK
_chemical_formula_moiety         'C4 H11 N4 1+,C7 H4 N1 O4 1-'
_chemical_name_systematic        
'1-(Isopropylideneamino)guanidinium 2-nitrobenzoate'
_symmetry_cell_setting           monoclinic
_symmetry_space_group_name_H-M   'P 21/n'
_symmetry_Int_Tables_number      14
_space_group_name_Hall           '-P 2yn'
loop_
_symmetry_equiv_pos_site_id
_symmetry_equiv_pos_as_xyz
1 x,y,z
2 1/2-x,1/2+y,1/2-z
3 -x,-y,-z
4 1/2+x,1/2-y,1/2+z
_cell_length_a                   7.8683(4)
_cell_length_b                   19.4979(12)
_cell_length_c                   9.1273(5)
_cell_angle_alpha                90
_cell_angle_beta                 98.968(3)
_cell_angle_gamma                90
_cell_volume                     1383.15
_exptl_crystal_colour            colorless
_exptl_crystal_description       'cut plate'
_chemical_melting_point          '449-451 K'
_cell_formula_units_Z            4
_exptl_crystal_recrystallization_method acetone
loop_
_atom_site_label
_atom_site_type_symbol
_atom_site_fract_x
_atom_site_fract_y
_atom_site_fract_z
C1 C 1.0366(2) 0.12430(11) 0.1802(2)
C2 C 1.0220(3) 0.05393(12) 0.1860(3)
C3 C 1.1579(3) 0.00965(13) 0.1781(3)
H1 H 1.1423 -0.0386 0.1829
C4 C 1.3158(3) 0.03669(12) 0.1632(3)
H2 H 1.4106 0.0072 0.1570
C5 C 1.3355(3) 0.10675(11) 0.1575(2)
H3 H 1.4446 0.1256 0.1479
C6 C 1.1981(2) 0.14973(11) 0.1655(2)
H4 H 1.2143 0.1979 0.1610
C7 C 0.8960(2) 0.17504(11) 0.1997(2)
O1 O 0.83577(17) 0.21158(8) 0.08948(16)
O2 O 0.85737(18) 0.17948(8) 0.32661(16)
N1 N 0.8540(2) 0.02249(11) 0.1982(3)
O3 O 0.8524(2) -0.03541(11) 0.2475(3)
O4 O 0.72454(19) 0.05567(9) 0.1554(2)
N2 N 0.5284(2) 0.28867(9) 0.12689(19)
H5 H 0.6238 0.2679 0.1127
H6 H 0.4663 0.3109 0.0534
C8 C 0.4785(2) 0.28645(10) 0.2581(2)
N3 N 0.5685(2) 0.25358(9) 0.37024(19)
H7 H 0.6643 0.2325 0.3585
H8 H 0.5329 0.2527 0.4570
N4 N 0.3308(2) 0.31656(9) 0.28102(19)
H9 H 0.3013 0.3178 0.3701
N5 N 0.2264(2) 0.34559(9) 0.16045(18)
C9 C 0.0769(3) 0.36564(10) 0.1821(2)
C10 C -0.0340(3) 0.39763(13) 0.0523(3)
H10 H 0.0295 0.3998 -0.0318
H11 H -0.0661 0.4441 0.0785
H12 H -0.1381 0.3700 0.0251
C11 C 0.0074(3) 0.35807(12) 0.3249(2)
H13 H -0.1044 0.3810 0.3166
H14 H 0.0876 0.3789 0.4055
H15 H -0.0063 0.3093 0.3460
loop_
_geom_bond_atom_site_label_1
_geom_bond_atom_site_label_2
_geom_bond_site_symmetry_1
_geom_bond_site_symmetry_2
C1 C2 1_555 1_555
C2 C3 1_555 1_555
C3 H1 1_555 1_555
C4 C3 1_555 1_555
H2 C4 1_555 1_555
C5 C4 1_555 1_555
H3 C5 1_555 1_555
C6 C1 1_555 1_555
H4 C6 1_555 1_555
C7 C1 1_555 1_555
O1 C7 1_555 1_555
O2 C7 1_555 1_555
N1 C2 1_555 1_555
O3 N1 1_555 1_555
O4 N1 1_555 1_555
N2 H5 1_555 1_555
H6 N2 1_555 1_555
C8 N2 1_555 1_555
N3 C8 1_555 1_555
H7 N3 1_555 1_555
H8 N3 1_555 1_555
N4 C8 1_555 1_555
H9 N4 1_555 1_555
N5 N4 1_555 1_555
C9 N5 1_555 1_555
C10 C9 1_555 1_555
H10 C10 1_555 1_555
H11 C10 1_555 1_555
H12 C10 1_555 1_555
C11 C9 1_555 1_555
H13 C11 1_555 1_555
H14 C11 1_555 1_555
H15 C11 1_555 1_555
C5 C6 1_555 1_555

#END
