
#######################################################################
#
#                 Cambridge Crystallographic Data Centre
#                                CCDC 
#
#######################################################################
#
# If this CIF has been generated from an entry in the Cambridge 
# Structural Database, then it will include bibliographic, chemical, 
# crystal, experimental, refinement or atomic coordinate data resulting 
# from the CCDC's data processing and validation procedures.
#
#######################################################################

data_KEMDIR02
_chemical_formula_moiety         'C46 H48 N2 O4 S2'
_chemical_name_systematic        
3,6-bis(5-(1-benzofuran-2-yl)-2-thienyl)-2,5-bis(2-ethylhexyl)-2,5-dihydropyrrolo[3,4-c]pyrrole-1,4-dione
_symmetry_cell_setting           triclinic
_symmetry_space_group_name_H-M   'P -1'
_symmetry_Int_Tables_number      2
_space_group_name_Hall           '-P 1'
loop_
_symmetry_equiv_pos_site_id
_symmetry_equiv_pos_as_xyz
1 x,y,z
2 -x,-y,-z
_cell_length_a                   9.9171(8)
_cell_length_b                   10.3036(10)
_cell_length_c                   11.0529(9)
_cell_angle_alpha                83.675(3)
_cell_angle_beta                 69.240(3)
_cell_angle_gamma                63.580(2)
_cell_volume                     944.251
_exptl_crystal_colour            'dark red'
_exptl_crystal_description       rod
_cell_formula_units_Z            1
loop_
_atom_site_label
_atom_site_type_symbol
_atom_site_fract_x
_atom_site_fract_y
_atom_site_fract_z
C1 C 0.9384(4) 0.5105(3) 0.6742(3)
C2 C 0.9230(4) 0.5217(3) 0.5475(3)
C3 C 0.8098(4) 0.5614(3) 0.4870(3)
C4 C 0.6392(4) 0.6131(3) 0.5508(3)
C5 C 0.5646(4) 0.6217(4) 0.6834(3)
H1 H 0.6198 0.5926 0.7417
C6 C 0.3970(4) 0.6787(4) 0.7217(4)
H2 H 0.3300 0.6908 0.8076
C7 C 0.3426(4) 0.7148(3) 0.6187(4)
C8 C 0.1799(4) 0.7717(4) 0.6220(4)
C9 C 0.0448(4) 0.8055(4) 0.7231(4)
H3 H 0.0354 0.8012 0.8100
C10 C -0.0831(4) 0.8494(4) 0.6737(4)
C11 C -0.2490(5) 0.8925(5) 0.7280(5)
H4 H -0.3017 0.8996 0.8171
C12 C -0.3312(5) 0.9247(4) 0.6381(7)
H5 H -0.4411 0.9530 0.6690
C13 C -0.2526(7) 0.9150(5) 0.5068(6)
H6 H -0.3112 0.9382 0.4515
C14 C -0.0936(6) 0.8730(4) 0.4555(5)
H7 H -0.0413 0.8670 0.3664
C15 C -0.0132(4) 0.8399(4) 0.5398(4)
C16 C 1.1663(4) 0.4443(4) 0.7533(3)
C17 C 1.2311(5) 0.2845(5) 0.8012(4)
C18 C 1.0945(5) 0.2372(5) 0.8580(4)
C19 C 1.1559(7) 0.0733(5) 0.8778(5)
N1 N 1.1073(3) 0.4561(3) 0.6463(3)
O1 O 0.8427(3) 0.5365(3) 0.7852(2)
O2 O 0.1525(3) 0.7900(3) 0.5079(3)
S1 S 0.49827(10) 0.67838(9) 0.47384(8)
C20 C 1.3041(5) 0.2801(6) 0.9046(5)
C21 C 1.4648(5) 0.2873(6) 0.8519(4)
C22 C 1.5407(6) 0.2607(6) 0.9573(5)
C23 C 1.7114(7) 0.2488(10) 0.8993(8)
C1A C 1.0616(4) 0.4895(3) 0.3258(3)
C2A C 1.0770(4) 0.4783(3) 0.4525(3)
C3A C 1.1902(4) 0.4386(3) 0.5130(3)
C4A C 1.3608(4) 0.3869(3) 0.4492(3)
C5A C 1.4354(4) 0.3783(4) 0.3166(3)
H1A H 1.3802 0.4074 0.2583
C6A C 1.6030(4) 0.3213(4) 0.2783(4)
H2A H 1.6700 0.3092 0.1924
C7A C 1.6574(4) 0.2852(3) 0.3813(4)
C8A C 1.8201(4) 0.2283(4) 0.3780(4)
C9A C 1.9552(4) 0.1945(4) 0.2769(4)
H3A H 1.9646 0.1988 0.1900
C10A C 2.0831(4) 0.1506(4) 0.3263(4)
C11A C 2.2490(5) 0.1075(5) 0.2720(5)
H4A H 2.3017 0.1004 0.1829
C12A C 2.3312(5) 0.0753(4) 0.3619(7)
H5A H 2.4411 0.0470 0.3310
C13A C 2.2526(7) 0.0850(5) 0.4932(6)
H6A H 2.3112 0.0618 0.5485
C14A C 2.0936(6) 0.1270(4) 0.5445(5)
H7A H 2.0413 0.1330 0.6336
C15A C 2.0132(4) 0.1601(4) 0.4602(4)
C16A C 0.8337(4) 0.5557(4) 0.2467(3)
C17A C 0.7689(5) 0.7155(5) 0.1988(4)
C18A C 0.9055(5) 0.7628(5) 0.1420(4)
C19A C 0.8441(7) 0.9267(5) 0.1222(5)
N1A N 0.8927(3) 0.5439(3) 0.3537(3)
O1A O 1.1573(3) 0.4635(3) 0.2148(2)
O2A O 1.8475(3) 0.2100(3) 0.4921(3)
S1A S 1.50173(10) 0.32162(9) 0.52616(8)
C20A C 0.6959(5) 0.7199(6) 0.0954(5)
C21A C 0.5352(5) 0.7127(6) 0.1481(4)
C22A C 0.4593(6) 0.7393(6) 0.0427(5)
C23A C 0.2886(7) 0.7512(10) 0.1007(8)
C24? C 1.2489(16) 0.3374(18) 0.9464(11)
C25? C 1.1652(15) 0.3344(11) 0.8552(11)
C26? C 1.2306(19) 0.1845(10) 0.7881(12)
C27? C 1.213(3) 0.0720(13) 0.8881(16)
C28? C 1.4293(16) 0.293(2) 0.8793(15)
C29? C 1.5055(18) 0.312(2) 0.9717(16)
C30? C 1.6862(19) 0.266(4) 0.907(3)
loop_
_geom_bond_atom_site_label_1
_geom_bond_atom_site_label_2
_geom_bond_site_symmetry_1
_geom_bond_site_symmetry_2
C1 C2 1_555 1_555
C2 C3 1_555 1_555
C3 C4 1_555 1_555
C4 C5 1_555 1_555
C5 H1 1_555 1_555
C6 C5 1_555 1_555
H2 C6 1_555 1_555
C7 C6 1_555 1_555
C8 C7 1_555 1_555
C9 C8 1_555 1_555
H3 C9 1_555 1_555
C10 C9 1_555 1_555
C11 C10 1_555 1_555
H4 C11 1_555 1_555
C12 C11 1_555 1_555
H5 C12 1_555 1_555
C13 C12 1_555 1_555
H6 C13 1_555 1_555
C14 C13 1_555 1_555
H7 C14 1_555 1_555
C15 C10 1_555 1_555
C16 C17 1_555 1_555
C17 C18 1_555 1_555
C18 C19 1_555 1_555
N1 C1 1_555 1_555
O1 C1 1_555 1_555
O2 C8 1_555 1_555
S1 C4 1_555 1_555
C20 C17 1_555 1_555
C21 C20 1_555 1_555
C22 C21 1_555 1_555
C23 C22 1_555 1_555
C1A C2A 1_555 1_555
C2A C2 1_555 1_555
C3A N1 1_555 1_555
C4A C3A 1_555 1_555
C5A C4A 1_555 1_555
H1A C5A 1_555 1_555
C6A C5A 1_555 1_555
H2A C6A 1_555 1_555
C7A C6A 1_555 1_555
C8A C7A 1_555 1_555
C9A C8A 1_555 1_555
H3A C9A 1_555 1_555
C10A C9A 1_555 1_555
C11A C10A 1_555 1_555
H4A C11A 1_555 1_555
C12A C11A 1_555 1_555
H5A C12A 1_555 1_555
C13A C12A 1_555 1_555
H6A C13A 1_555 1_555
C14A C13A 1_555 1_555
H7A C14A 1_555 1_555
C15A C10A 1_555 1_555
C16A C17A 1_555 1_555
C17A C18A 1_555 1_555
C18A C19A 1_555 1_555
N1A C3 1_555 1_555
O1A C1A 1_555 1_555
O2A C8A 1_555 1_555
S1A C4A 1_555 1_555
C20A C17A 1_555 1_555
C21A C20A 1_555 1_555
C22A C21A 1_555 1_555
C23A C22A 1_555 1_555
C7 S1 1_555 1_555
C14 C15 1_555 1_555
C15 O2 1_555 1_555
C16 N1 1_555 1_555
C1A N1A 1_555 1_555
C2A C3A 1_555 1_555
C7A S1A 1_555 1_555
C14A C15A 1_555 1_555
C15A O2A 1_555 1_555
C16A N1A 1_555 1_555

#END
