
#######################################################################
#
#                 Cambridge Crystallographic Data Centre
#                                CCDC 
#
#######################################################################
#
# If this CIF has been generated from an entry in the Cambridge 
# Structural Database, then it will include bibliographic, chemical, 
# crystal, experimental, refinement or atomic coordinate data resulting 
# from the CCDC's data processing and validation procedures.
#
#######################################################################

data_KEMDIR
_chemical_formula_moiety         'C46 H48 N2 O4 S2'
_chemical_name_systematic        
3,6-bis(5-(1-benzofuran-2-yl)-2-thienyl)-2,5-bis(2-ethylhexyl)-2,5-dihydropyrrolo[3,4-c]pyrrole-1,4-dione
_symmetry_cell_setting           monoclinic
_symmetry_space_group_name_H-M   'P 2/c'
_symmetry_Int_Tables_number      13
_space_group_name_Hall           '-P 2yc'
loop_
_symmetry_equiv_pos_site_id
_symmetry_equiv_pos_as_xyz
1 x,y,z
2 -x,y,1/2-z
3 -x,-y,-z
4 x,-y,1/2+z
_cell_length_a                   14.181(6)
_cell_length_b                   5.165(2)
_cell_length_c                   26.304(12)
_cell_angle_alpha                90
_cell_angle_beta                 91.393(6)
_cell_angle_gamma                90
_cell_volume                     1926.06
_exptl_crystal_colour            red
_exptl_crystal_description       needle
_cell_formula_units_Z            2
loop_
_atom_site_label
_atom_site_type_symbol
_atom_site_fract_x
_atom_site_fract_y
_atom_site_fract_z
C1 C 0.60603(17) -0.1908(4) 0.49605(8)
C2 C 0.56610(16) 0.1562(4) 0.54830(8)
C3 C 0.48954(15) 0.1045(4) 0.51629(7)
C4 C 0.57147(16) 0.3486(4) 0.58808(8)
C5 C 0.50302(17) 0.5361(4) 0.59587(8)
H1 H 0.4478 0.5534 0.5750
C6 C 0.52364(17) 0.6977(4) 0.63772(8)
H2 H 0.4839 0.8353 0.6479
C7 C 0.60712(16) 0.6362(4) 0.66233(8)
C8 C 0.65225(17) 0.7581(4) 0.70583(8)
C9 C 0.73621(19) 0.7225(5) 0.72926(9)
H3 H 0.7833 0.6019 0.7199
C10 C 0.74149(18) 0.9016(5) 0.77126(8)
C11 C 0.8075(2) 0.9597(5) 0.81005(10)
H4 H 0.8661 0.8707 0.8123
C12 C 0.7856(2) 1.1490(5) 0.84491(9)
H5 H 0.8299 1.1908 0.8713
C13 C 0.6997(2) 1.2799(5) 0.84201(9)
H6 H 0.6864 1.4088 0.8666
C14 C 0.63357(19) 1.2257(5) 0.80409(9)
H7 H 0.5749 1.3145 0.8019
C15 C 0.65680(17) 1.0366(4) 0.76965(8)
C16 C 0.73200(16) -0.0495(4) 0.55710(8)
H8 H 0.7533 -0.2290 0.5508
H9 H 0.7299 -0.0253 0.5944
C17 C 0.80609(15) 0.1382(4) 0.53591(8)
H10 H 0.7919 0.3172 0.5480
C18 C 0.90378(17) 0.0577(4) 0.55694(8)
H11 H 0.9134 -0.1272 0.5486
H12 H 0.9518 0.1580 0.5387
C19 C 0.92280(17) 0.0923(5) 0.61417(8)
H13 H 0.8713 0.0082 0.6328
H14 H 0.9822 0.0018 0.6236
C20 C 0.93059(18) 0.3735(5) 0.63133(8)
H15 H 0.8693 0.4609 0.6250
H16 H 0.9784 0.4627 0.6109
C21 C 0.95804(19) 0.3975(5) 0.68765(9)
H17 H 0.9119 0.3051 0.7080
H18 H 0.9591 0.5807 0.6974
H19 H 1.0207 0.3222 0.6937
C22 C 0.80308(17) 0.1368(4) 0.47736(8)
H20 H 0.8255 -0.0335 0.4653
H21 H 0.7368 0.1574 0.4653
C23 C 0.86273(17) 0.3496(4) 0.45357(9)
H22 H 0.8406 0.5193 0.4649
H23 H 0.8569 0.3390 0.4164
H24 H 0.9290 0.3268 0.4641
N1 N 0.63678(13) -0.0209(3) 0.53599(6)
O1 O 0.65583(11) -0.3662(3) 0.47984(5)
O2 O 0.60091(11) 0.9510(3) 0.72927(5)
S1 S 0.66152(4) 0.37525(11) 0.63386(2)
C1B C 0.39397(17) 0.1908(4) 0.50395(8)
C2B C 0.43390(16) -0.1562(4) 0.45170(8)
C3B C 0.51046(15) -0.1045(4) 0.48371(7)
C4B C 0.42853(16) -0.3486(4) 0.41192(8)
C5B C 0.49698(17) -0.5361(4) 0.40413(8)
H1B H 0.5522 -0.5534 0.4250
C6B C 0.47636(17) -0.6977(4) 0.36228(8)
H2B H 0.5161 -0.8353 0.3521
C7B C 0.39288(16) -0.6362(4) 0.33767(8)
C8B C 0.34775(17) -0.7581(4) 0.29417(8)
C9B C 0.26379(19) -0.7225(5) 0.27074(9)
H3B H 0.2167 -0.6019 0.2801
C10B C 0.25851(18) -0.9016(5) 0.22874(8)
C11B C 0.1925(2) -0.9597(5) 0.18995(10)
H4B H 0.1339 -0.8707 0.1877
C12B C 0.2144(2) -1.1490(5) 0.15509(9)
H5B H 0.1701 -1.1908 0.1287
C13B C 0.3003(2) -1.2799(5) 0.15799(9)
H6B H 0.3136 -1.4088 0.1334
C14B C 0.36643(19) -1.2257(5) 0.19591(9)
H7B H 0.4251 -1.3145 0.1981
C15B C 0.34320(17) -1.0366(4) 0.23035(8)
C16B C 0.26800(16) 0.0495(4) 0.44290(8)
H8B H 0.2467 0.2290 0.4492
H9B H 0.2701 0.0253 0.4056
C17B C 0.19391(15) -0.1382(4) 0.46409(8)
H10B H 0.2081 -0.3172 0.4520
C18B C 0.09622(17) -0.0577(4) 0.44306(8)
H11B H 0.0866 0.1272 0.4514
H12B H 0.0482 -0.1580 0.4613
C19B C 0.07720(17) -0.0923(5) 0.38583(8)
H13B H 0.1287 -0.0082 0.3672
H14B H 0.0178 -0.0018 0.3764
C20B C 0.06941(18) -0.3735(5) 0.36867(8)
H15B H 0.1307 -0.4609 0.3750
H16B H 0.0216 -0.4627 0.3891
C21B C 0.04196(19) -0.3975(5) 0.31235(9)
H17B H 0.0881 -0.3051 0.2920
H18B H 0.0409 -0.5807 0.3026
H19B H -0.0207 -0.3222 0.3063
C22B C 0.19692(17) -0.1368(4) 0.52264(8)
H20B H 0.1745 0.0335 0.5347
H21B H 0.2632 -0.1574 0.5347
C23B C 0.13727(17) -0.3496(4) 0.54643(9)
H22B H 0.1594 -0.5193 0.5351
H23B H 0.1431 -0.3390 0.5836
H24B H 0.0710 -0.3268 0.5359
N1B N 0.36322(13) 0.0209(3) 0.46401(6)
O1B O 0.34417(11) 0.3662(3) 0.52016(5)
O2B O 0.39909(11) -0.9510(3) 0.27073(5)
S1B S 0.33848(4) -0.37525(11) 0.36614(2)
loop_
_geom_bond_atom_site_label_1
_geom_bond_atom_site_label_2
_geom_bond_site_symmetry_1
_geom_bond_site_symmetry_2
C1 N1 1_555 1_555
C2 C3 1_555 1_555
C3 C1B 1_555 1_555
C4 C2 1_555 1_555
C5 C4 1_555 1_555
H1 C5 1_555 1_555
C6 C5 1_555 1_555
H2 C6 1_555 1_555
C7 C6 1_555 1_555
C8 C7 1_555 1_555
C9 C8 1_555 1_555
H3 C9 1_555 1_555
C10 C9 1_555 1_555
C11 C10 1_555 1_555
H4 C11 1_555 1_555
C12 C11 1_555 1_555
H5 C12 1_555 1_555
C13 C12 1_555 1_555
H6 C13 1_555 1_555
C14 C13 1_555 1_555
H7 C14 1_555 1_555
C15 C10 1_555 1_555
C16 H8 1_555 1_555
H9 C16 1_555 1_555
C17 C16 1_555 1_555
H10 C17 1_555 1_555
C18 C17 1_555 1_555
H11 C18 1_555 1_555
H12 C18 1_555 1_555
C19 C18 1_555 1_555
H13 C19 1_555 1_555
H14 C19 1_555 1_555
C20 C19 1_555 1_555
H15 C20 1_555 1_555
H16 C20 1_555 1_555
C21 C20 1_555 1_555
H17 C21 1_555 1_555
H18 C21 1_555 1_555
H19 C21 1_555 1_555
C22 C17 1_555 1_555
H20 C22 1_555 1_555
H21 C22 1_555 1_555
C23 C22 1_555 1_555
H22 C23 1_555 1_555
H23 C23 1_555 1_555
H24 C23 1_555 1_555
N1 C2 1_555 1_555
O1 C1 1_555 1_555
O2 C8 1_555 1_555
S1 C4 1_555 1_555
C1B N1B 1_555 1_555
C2B C3B 1_555 1_555
C3B C1 1_555 1_555
C4B C2B 1_555 1_555
C5B C4B 1_555 1_555
H1B C5B 1_555 1_555
C6B C5B 1_555 1_555
H2B C6B 1_555 1_555
C7B C6B 1_555 1_555
C8B C7B 1_555 1_555
C9B C8B 1_555 1_555
H3B C9B 1_555 1_555
C10B C9B 1_555 1_555
C11B C10B 1_555 1_555
H4B C11B 1_555 1_555
C12B C11B 1_555 1_555
H5B C12B 1_555 1_555
C13B C12B 1_555 1_555
H6B C13B 1_555 1_555
C14B C13B 1_555 1_555
H7B C14B 1_555 1_555
C15B C10B 1_555 1_555
C16B H8B 1_555 1_555
H9B C16B 1_555 1_555
C17B C16B 1_555 1_555
H10B C17B 1_555 1_555
C18B C17B 1_555 1_555
H11B C18B 1_555 1_555
H12B C18B 1_555 1_555
C19B C18B 1_555 1_555
H13B C19B 1_555 1_555
H14B C19B 1_555 1_555
C20B C19B 1_555 1_555
H15B C20B 1_555 1_555
H16B C20B 1_555 1_555
C21B C20B 1_555 1_555
H17B C21B 1_555 1_555
H18B C21B 1_555 1_555
H19B C21B 1_555 1_555
C22B C17B 1_555 1_555
H20B C22B 1_555 1_555
H21B C22B 1_555 1_555
C23B C22B 1_555 1_555
H22B C23B 1_555 1_555
H23B C23B 1_555 1_555
H24B C23B 1_555 1_555
N1B C2B 1_555 1_555
O1B C1B 1_555 1_555
O2B C8B 1_555 1_555
S1B C4B 1_555 1_555
C3 C3B 1_555 1_555
C7 S1 1_555 1_555
C14 C15 1_555 1_555
C15 O2 1_555 1_555
C16 N1 1_555 1_555
C7B S1B 1_555 1_555
C14B C15B 1_555 1_555
C15B O2B 1_555 1_555
C16B N1B 1_555 1_555

#END
