
#######################################################################
#
#                 Cambridge Crystallographic Data Centre
#                                CCDC 
#
#######################################################################
#
# If this CIF has been generated from an entry in the Cambridge 
# Structural Database, then it will include bibliographic, chemical, 
# crystal, experimental, refinement or atomic coordinate data resulting 
# from the CCDC's data processing and validation procedures.
#
#######################################################################

data_KEMPOK
_chemical_formula_moiety         'C16 H17 F3 O3 S1'
_chemical_name_systematic        
5-(phenylsulfonyl)-3-(2,2,2-trifluoroethyl)cyclooct-4-en-1-one
_symmetry_cell_setting           monoclinic
_symmetry_space_group_name_H-M   'P 21/c'
_symmetry_Int_Tables_number      14
_space_group_name_Hall           '-P 2ybc'
loop_
_symmetry_equiv_pos_site_id
_symmetry_equiv_pos_as_xyz
1 x,y,z
2 -x,1/2+y,1/2-z
3 -x,-y,-z
4 x,1/2-y,1/2+z
_cell_length_a                   10.0078(5)
_cell_length_b                   13.1827(7)
_cell_length_c                   11.9510(6)
_cell_angle_alpha                90
_cell_angle_beta                 96.6070(10)
_cell_angle_gamma                90
_cell_volume                     1566.22
_exptl_crystal_colour            colorless
_exptl_crystal_description       block
_cell_formula_units_Z            4
loop_
_atom_site_label
_atom_site_type_symbol
_atom_site_fract_x
_atom_site_fract_y
_atom_site_fract_z
S1 S 0.74341(3) 0.72961(2) 0.37617(3)
F1 F 0.11060(10) 0.80093(8) 0.46496(9)
F2 F 0.19292(11) 0.80230(8) 0.30655(8)
F3 F 0.32082(10) 0.83290(7) 0.45976(9)
O1 O 0.55733(11) 0.41049(8) 0.34251(9)
O2 O 0.75459(10) 0.72232(8) 0.49704(9)
O3 O 0.76630(11) 0.82605(8) 0.32521(10)
C1 C 0.85323(14) 0.64012(11) 0.32548(12)
C2 C 0.90795(15) 0.65925(12) 0.22576(12)
H1 H 0.8938 0.7226 0.1884
C3 C 0.98381(16) 0.58371(13) 0.18189(13)
H2 H 1.0220 0.5954 0.1139
C4 C 1.00391(15) 0.49165(12) 0.23685(14)
H3 H 1.0548 0.4401 0.2058
C5 C 0.95000(15) 0.47407(11) 0.33733(13)
H4 H 0.9655 0.4111 0.3753
C6 C 0.87373(14) 0.54830(11) 0.38195(12)
H5 H 0.8360 0.5366 0.4502
C7 C 0.58203(14) 0.68562(10) 0.31841(12)
C8 C 0.56257(15) 0.67420(11) 0.19168(12)
H6 H 0.6289 0.7177 0.1592
H7 H 0.4718 0.6992 0.1631
C9 C 0.57758(15) 0.56490(11) 0.14967(12)
H8 H 0.5816 0.5668 0.0673
H9 H 0.6643 0.5374 0.1851
C10 C 0.46479(15) 0.49185(11) 0.17383(12)
H10 H 0.3768 0.5233 0.1481
H11 H 0.4722 0.4288 0.1300
C11 C 0.46913(14) 0.46503(10) 0.29761(12)
C12 C 0.36181(14) 0.50808(11) 0.36331(12)
H12 H 0.3814 0.4882 0.4434
H13 H 0.2735 0.4789 0.3341
C13 C 0.35416(14) 0.62503(10) 0.35485(12)
H14 H 0.3262 0.6443 0.2747
C14 C 0.49285(14) 0.66719(10) 0.39031(12)
H15 H 0.5177 0.6813 0.4679
C15 C 0.24776(14) 0.66328(11) 0.42747(12)
H16 H 0.1633 0.6250 0.4072
H17 H 0.2789 0.6490 0.5076
C16 C 0.21877(16) 0.77422(12) 0.41446(14)
loop_
_geom_bond_atom_site_label_1
_geom_bond_atom_site_label_2
_geom_bond_site_symmetry_1
_geom_bond_site_symmetry_2
S1 O2 1_555 1_555
F1 C16 1_555 1_555
F2 C16 1_555 1_555
F3 C16 1_555 1_555
O1 C11 1_555 1_555
O3 S1 1_555 1_555
C1 S1 1_555 1_555
C2 C1 1_555 1_555
H1 C2 1_555 1_555
C3 C2 1_555 1_555
H2 C3 1_555 1_555
C4 C3 1_555 1_555
H3 C4 1_555 1_555
C5 C4 1_555 1_555
H4 C5 1_555 1_555
C6 C1 1_555 1_555
H5 C6 1_555 1_555
C7 S1 1_555 1_555
C8 C7 1_555 1_555
H6 C8 1_555 1_555
H7 C8 1_555 1_555
C9 C8 1_555 1_555
H8 C9 1_555 1_555
H9 C9 1_555 1_555
C10 C9 1_555 1_555
H10 C10 1_555 1_555
H11 C10 1_555 1_555
C11 C10 1_555 1_555
C12 C11 1_555 1_555
H12 C12 1_555 1_555
H13 C12 1_555 1_555
C13 C12 1_555 1_555
H14 C13 1_555 1_555
C14 C7 1_555 1_555
H15 C14 1_555 1_555
C15 C13 1_555 1_555
H16 C15 1_555 1_555
H17 C15 1_555 1_555
C16 C15 1_555 1_555
C5 C6 1_555 1_555
C13 C14 1_555 1_555

#END
