
#######################################################################
#
#                 Cambridge Crystallographic Data Centre
#                                CCDC 
#
#######################################################################
#
# If this CIF has been generated from an entry in the Cambridge 
# Structural Database, then it will include bibliographic, chemical, 
# crystal, experimental, refinement or atomic coordinate data resulting 
# from the CCDC's data processing and validation procedures.
#
#######################################################################

data_KEMXEI
_chemical_formula_moiety         'C20 H17 N1 O2 S2'
_chemical_name_systematic        
1-ethylidene-3-phenyl-2-[(thiophen-2-yl)sulfonyl]-2,3-dihydro-1H-isoindole
_symmetry_cell_setting           monoclinic
_symmetry_space_group_name_H-M   'P 21/n'
_symmetry_Int_Tables_number      14
_space_group_name_Hall           '-P 2yn'
loop_
_symmetry_equiv_pos_site_id
_symmetry_equiv_pos_as_xyz
1 x,y,z
2 1/2-x,1/2+y,1/2-z
3 -x,-y,-z
4 1/2+x,1/2-y,1/2+z
_cell_length_a                   6.0055(11)
_cell_length_b                   19.774(4)
_cell_length_c                   14.612(3)
_cell_angle_alpha                90
_cell_angle_beta                 95.394(2)
_cell_angle_gamma                90
_cell_volume                     1727.53
_exptl_crystal_colour            colorless
_exptl_crystal_description       block
_cell_formula_units_Z            4
loop_
_atom_site_label
_atom_site_type_symbol
_atom_site_fract_x
_atom_site_fract_y
_atom_site_fract_z
S1 S 0.44026(6) 0.70149(2) 0.21616(2)
S2 S 0.41922(7) 0.68308(2) 0.00812(3)
O1 O 0.66380(19) 0.72603(6) 0.21340(7)
O2 O 0.29822(19) 0.73234(5) 0.27734(7)
N1 N 0.4554(2) 0.62105(6) 0.24460(8)
C1 C 0.5632(2) 0.57191(7) 0.18940(9)
C2 C 0.4462(2) 0.50790(7) 0.20267(9)
C3 C 0.4932(3) 0.44218(8) 0.17476(11)
H1 H 0.6153 0.4337 0.1418
C4 C 0.3542(3) 0.38990(8) 0.19721(12)
H2 H 0.3828 0.3461 0.1784
C5 C 0.1733(3) 0.40193(8) 0.24728(11)
H3 H 0.0810 0.3663 0.2609
C6 C 0.1285(3) 0.46689(8) 0.27732(10)
H4 H 0.0089 0.4751 0.3119
C7 C 0.2667(2) 0.51903(7) 0.25436(9)
C8 C 0.2502(2) 0.59219(7) 0.28088(9)
H5 H 0.1164 0.6123 0.2481
C9 C 0.7292(2) 0.58661(8) 0.13783(10)
H6 H 0.7888 0.6300 0.1433
C10 C 0.8285(3) 0.53975(9) 0.07195(11)
H7 H 0.7116 0.5137 0.0394
H8 H 0.9329 0.5099 0.1053
H9 H 0.9046 0.5657 0.0289
C11 C 0.2453(2) 0.60264(7) 0.38307(9)
C12 C 0.4271(3) 0.58383(8) 0.44389(10)
H10 H 0.5543 0.5658 0.4215
C13 C 0.4190(3) 0.59192(8) 0.53780(11)
H11 H 0.5408 0.5794 0.5783
C14 C 0.2297(3) 0.61870(9) 0.57125(11)
H12 H 0.2253 0.6247 0.6342
C15 C 0.0477(3) 0.63649(9) 0.51157(12)
H13 H -0.0801 0.6537 0.5344
C16 C 0.0549(3) 0.62870(8) 0.41710(11)
H14 H -0.0678 0.6409 0.3769
C17 C 0.3017(3) 0.70691(7) 0.10603(10)
C18 C 0.0933(3) 0.73434(8) 0.08661(11)
H15 H 0.0047 0.7501 0.1310
C19 C 0.0286(3) 0.73591(9) -0.00942(11)
H16 H -0.1078 0.7527 -0.0352
C20 C 0.1881(3) 0.71008(9) -0.05931(11)
H17 H 0.1734 0.7074 -0.1231
loop_
_geom_bond_atom_site_label_1
_geom_bond_atom_site_label_2
_geom_bond_site_symmetry_1
_geom_bond_site_symmetry_2
S1 O1 1_555 1_555
S2 C17 1_555 1_555
O2 S1 1_555 1_555
N1 S1 1_555 1_555
C1 N1 1_555 1_555
C2 C1 1_555 1_555
C3 C2 1_555 1_555
H1 C3 1_555 1_555
C4 C3 1_555 1_555
H2 C4 1_555 1_555
C5 C4 1_555 1_555
H3 C5 1_555 1_555
C6 C5 1_555 1_555
H4 C6 1_555 1_555
C7 C2 1_555 1_555
C8 N1 1_555 1_555
H5 C8 1_555 1_555
C9 C1 1_555 1_555
H6 C9 1_555 1_555
C10 C9 1_555 1_555
H7 C10 1_555 1_555
H8 C10 1_555 1_555
H9 C10 1_555 1_555
C11 C8 1_555 1_555
C12 C11 1_555 1_555
H10 C12 1_555 1_555
C13 C12 1_555 1_555
H11 C13 1_555 1_555
C14 C13 1_555 1_555
H12 C14 1_555 1_555
C15 C14 1_555 1_555
H13 C15 1_555 1_555
C16 C11 1_555 1_555
H14 C16 1_555 1_555
C17 S1 1_555 1_555
C18 C17 1_555 1_555
H15 C18 1_555 1_555
C19 C18 1_555 1_555
H16 C19 1_555 1_555
C20 S2 1_555 1_555
H17 C20 1_555 1_555
C6 C7 1_555 1_555
C7 C8 1_555 1_555
C15 C16 1_555 1_555
C19 C20 1_555 1_555

#END
