
#######################################################################
#
#                 Cambridge Crystallographic Data Centre
#                                CCDC 
#
#######################################################################
#
# If this CIF has been generated from an entry in the Cambridge 
# Structural Database, then it will include bibliographic, chemical, 
# crystal, experimental, refinement or atomic coordinate data resulting 
# from the CCDC's data processing and validation procedures.
#
#######################################################################

data_KEMYEI
_chemical_formula_moiety         'C30 H62 N8 Sr1'
_chemical_name_systematic        
bis(pent-2-en-2-yl-4-ylidenebis(dimethylpropane-1,3-diaminato))-strontium
_symmetry_cell_setting           monoclinic
_symmetry_space_group_name_H-M   'C 2/c'
_symmetry_Int_Tables_number      15
_space_group_name_Hall           '-C 2yn'
loop_
_symmetry_equiv_pos_site_id
_symmetry_equiv_pos_as_xyz
1 x,y,z
2 -x,y,1/2-z
3 1/2+x,1/2+y,z
4 1/2-x,1/2+y,1/2-z
5 -x,-y,-z
6 x,-y,1/2+z
7 1/2-x,1/2-y,-z
8 1/2+x,1/2-y,1/2+z
_cell_length_a                   14.998(12)
_cell_length_b                   13.483(11)
_cell_length_c                   17.919(15)
_cell_angle_alpha                90
_cell_angle_beta                 107.523(18)
_cell_angle_gamma                90
_cell_volume                     3455.4
_exptl_crystal_colour            red
_exptl_crystal_description       cubic
_cell_formula_units_Z            4
loop_
_atom_site_label
_atom_site_type_symbol
_atom_site_fract_x
_atom_site_fract_y
_atom_site_fract_z
Sr1 Sr 0.0000 0.010858(19) 0.7500
N1 N 0.12684(14) 0.10163(13) 0.70641(12)
N2 N 0.06516(14) -0.10871(14) 0.67216(12)
N3 N 0.02253(15) 0.43412(15) 0.59643(14)
N4 N -0.13702(15) -0.01924(15) 0.61073(14)
C1 C 0.2764(2) 0.1324(2) 0.6800(2)
H1 H 0.2533 0.1797 0.6378
H2 H 0.3249 0.0920 0.6696
H3 H 0.3020 0.1676 0.7290
C2 C 0.19694(16) 0.06645(17) 0.68556(15)
C3 C 0.20552(18) -0.03252(18) 0.66442(16)
H4 H 0.2634 -0.0486 0.6573
C4 C 0.14176(17) -0.11097(16) 0.65224(15)
C5 C 0.1668(2) -0.20000(19) 0.61087(18)
H5 H 0.1603 -0.2601 0.6386
H6 H 0.2309 -0.1938 0.6099
H7 H 0.1252 -0.2031 0.5577
C6 C 0.12296(17) 0.20845(16) 0.71911(16)
H8 H 0.1869 0.2337 0.7408
H9 H 0.0900 0.2203 0.7579
C7 C 0.07487(17) 0.26554(16) 0.64591(15)
H10 H 0.0129 0.2370 0.6213
H11 H 0.1112 0.2599 0.6089
C8 C 0.06482(18) 0.37327(17) 0.66402(15)
H12 H 0.0270 0.3780 0.6999
H13 H 0.1269 0.4000 0.6911
C9 C 0.0296(3) 0.5377(2) 0.6197(2)
H14 H -0.0027 0.5478 0.6585
H15 H 0.0013 0.5788 0.5743
H16 H 0.0949 0.5555 0.6418
C10 C -0.0734(2) 0.4089(3) 0.5609(2)
H17 H -0.1063 0.4114 0.5999
H18 H -0.0776 0.3425 0.5393
H19 H -0.1015 0.4557 0.5194
C11 C -0.0035(2) -0.18608(19) 0.64716(18)
H20 H -0.0398 -0.1907 0.6843
H21 H 0.0285 -0.2496 0.6479
C12 C -0.0693(2) -0.1684(3) 0.5662(2)
H22 H -0.0376 -0.1874 0.5278
H23 H -0.1237 -0.2118 0.5583
C13 C -0.1030(2) -0.0631(3) 0.55018(17)
H24 H -0.0516 -0.0223 0.5441
H25 H -0.1534 -0.0613 0.5005
C14 C -0.2174(2) -0.0726(2) 0.6204(2)
H26 H -0.2376 -0.0414 0.6614
H27 H -0.2001 -0.1409 0.6346
H28 H -0.2681 -0.0709 0.5717
C15 C -0.1652(2) 0.0827(2) 0.5893(2)
H29 H -0.1120 0.1201 0.5844
H30 H -0.1879 0.1124 0.6294
H31 H -0.2146 0.0835 0.5397
N1A N -0.12684(14) 0.10163(13) 0.79359(12)
N2A N -0.06516(14) -0.10871(14) 0.82784(12)
N3A N -0.02253(15) 0.43412(15) 0.90357(14)
N4A N 0.13702(15) -0.01924(15) 0.88927(14)
C1A C -0.2764(2) 0.1324(2) 0.8200(2)
H1A H -0.2533 0.1797 0.8622
H2A H -0.3249 0.0920 0.8304
H3A H -0.3020 0.1676 0.7710
C2A C -0.19694(16) 0.06645(17) 0.81444(15)
C3A C -0.20552(18) -0.03252(18) 0.83558(16)
H4A H -0.2634 -0.0486 0.8427
C4A C -0.14176(17) -0.11097(16) 0.84776(15)
C5A C -0.1668(2) -0.20000(19) 0.88913(18)
H5A H -0.1603 -0.2601 0.8614
H6A H -0.2309 -0.1938 0.8901
H7A H -0.1252 -0.2031 0.9423
C6A C -0.12296(17) 0.20845(16) 0.78089(16)
H8A H -0.1869 0.2337 0.7592
H9A H -0.0900 0.2203 0.7421
C7A C -0.07487(17) 0.26554(16) 0.85409(15)
H10A H -0.0129 0.2370 0.8787
H11A H -0.1112 0.2599 0.8911
C8A C -0.06482(18) 0.37327(17) 0.83598(15)
H12A H -0.0270 0.3780 0.8001
H13A H -0.1269 0.4000 0.8089
C9A C -0.0296(3) 0.5377(2) 0.8803(2)
H14A H 0.0027 0.5478 0.8415
H15A H -0.0013 0.5788 0.9257
H16A H -0.0949 0.5555 0.8582
C10A C 0.0734(2) 0.4089(3) 0.9391(2)
H17A H 0.1063 0.4114 0.9001
H18A H 0.0776 0.3425 0.9607
H19A H 0.1015 0.4557 0.9806
C11A C 0.0035(2) -0.18608(19) 0.85284(18)
H20A H 0.0398 -0.1907 0.8157
H21A H -0.0285 -0.2496 0.8521
C12A C 0.0693(2) -0.1684(3) 0.9338(2)
H22A H 0.0376 -0.1874 0.9722
H23A H 0.1237 -0.2118 0.9417
C13A C 0.1030(2) -0.0631(3) 0.94982(17)
H24A H 0.0516 -0.0223 0.9559
H25A H 0.1534 -0.0613 0.9995
C14A C 0.2174(2) -0.0726(2) 0.8796(2)
H26A H 0.2376 -0.0414 0.8386
H27A H 0.2001 -0.1409 0.8654
H28A H 0.2681 -0.0709 0.9283
C15A C 0.1652(2) 0.0827(2) 0.9107(2)
H29A H 0.1120 0.1201 0.9156
H30A H 0.1879 0.1124 0.8706
H31A H 0.2146 0.0835 0.9603
loop_
_geom_bond_atom_site_label_1
_geom_bond_atom_site_label_2
_geom_bond_site_symmetry_1
_geom_bond_site_symmetry_2
Sr1 N1 1_555 1_555
N1 C2 1_555 1_555
N2 Sr1 1_555 1_555
N3 C8 1_555 1_555
N4 Sr1 1_555 1_555
C1 H1 1_555 1_555
H2 C1 1_555 1_555
H3 C1 1_555 1_555
C2 C1 1_555 1_555
C3 C2 1_555 1_555
H4 C3 1_555 1_555
C4 N2 1_555 1_555
C5 C4 1_555 1_555
H5 C5 1_555 1_555
H6 C5 1_555 1_555
H7 C5 1_555 1_555
C6 N1 1_555 1_555
H8 C6 1_555 1_555
H9 C6 1_555 1_555
C7 C6 1_555 1_555
H10 C7 1_555 1_555
H11 C7 1_555 1_555
C8 C7 1_555 1_555
H12 C8 1_555 1_555
H13 C8 1_555 1_555
C9 N3 1_555 1_555
H14 C9 1_555 1_555
H15 C9 1_555 1_555
H16 C9 1_555 1_555
C10 N3 1_555 1_555
H17 C10 1_555 1_555
H18 C10 1_555 1_555
H19 C10 1_555 1_555
C11 N2 1_555 1_555
H20 C11 1_555 1_555
H21 C11 1_555 1_555
C12 C11 1_555 1_555
H22 C12 1_555 1_555
H23 C12 1_555 1_555
C13 N4 1_555 1_555
H24 C13 1_555 1_555
H25 C13 1_555 1_555
C14 N4 1_555 1_555
H26 C14 1_555 1_555
H27 C14 1_555 1_555
H28 C14 1_555 1_555
C15 N4 1_555 1_555
H29 C15 1_555 1_555
H30 C15 1_555 1_555
H31 C15 1_555 1_555
N1A Sr1 1_555 1_555
N2A Sr1 1_555 1_555
N3A C8A 1_555 1_555
N4A Sr1 1_555 1_555
C1A H1A 1_555 1_555
H2A C1A 1_555 1_555
H3A C1A 1_555 1_555
C2A N1A 1_555 1_555
C3A C2A 1_555 1_555
H4A C3A 1_555 1_555
C4A N2A 1_555 1_555
C5A C4A 1_555 1_555
H5A C5A 1_555 1_555
H6A C5A 1_555 1_555
H7A C5A 1_555 1_555
C6A N1A 1_555 1_555
H8A C6A 1_555 1_555
H9A C6A 1_555 1_555
C7A C6A 1_555 1_555
H10A C7A 1_555 1_555
H11A C7A 1_555 1_555
C8A C7A 1_555 1_555
H12A C8A 1_555 1_555
H13A C8A 1_555 1_555
C9A N3A 1_555 1_555
H14A C9A 1_555 1_555
H15A C9A 1_555 1_555
H16A C9A 1_555 1_555
C10A N3A 1_555 1_555
H17A C10A 1_555 1_555
H18A C10A 1_555 1_555
H19A C10A 1_555 1_555
C11A N2A 1_555 1_555
H20A C11A 1_555 1_555
H21A C11A 1_555 1_555
C12A C11A 1_555 1_555
H22A C12A 1_555 1_555
H23A C12A 1_555 1_555
C13A N4A 1_555 1_555
H24A C13A 1_555 1_555
H25A C13A 1_555 1_555
C14A N4A 1_555 1_555
H26A C14A 1_555 1_555
H27A C14A 1_555 1_555
H28A C14A 1_555 1_555
C15A N4A 1_555 1_555
H29A C15A 1_555 1_555
H30A C15A 1_555 1_555
H31A C15A 1_555 1_555
C3 C4 1_555 1_555
C12 C13 1_555 1_555
C1A C2A 1_555 1_555
C3A C4A 1_555 1_555
C12A C13A 1_555 1_555

#END
