
#######################################################################
#
#                 Cambridge Crystallographic Data Centre
#                                CCDC 
#
#######################################################################
#
# If this CIF has been generated from an entry in the Cambridge 
# Structural Database, then it will include bibliographic, chemical, 
# crystal, experimental, refinement or atomic coordinate data resulting 
# from the CCDC's data processing and validation procedures.
#
#######################################################################

data_KEMZIM
_chemical_formula_moiety         'C48 H33 N7,C1 H1 Cl3'
_chemical_name_systematic        
"4,4'-bis(2,2':6',2''-terpyridinyl)triphenylamine chloroform solvate"
_symmetry_cell_setting           triclinic
_symmetry_space_group_name_H-M   'P -1'
_symmetry_Int_Tables_number      2
_space_group_name_Hall           '-P 1'
loop_
_symmetry_equiv_pos_site_id
_symmetry_equiv_pos_as_xyz
1 x,y,z
2 -x,-y,-z
_cell_length_a                   12.9078(10)
_cell_length_b                   13.573(2)
_cell_length_c                   13.602(2)
_cell_angle_alpha                90.432(6)
_cell_angle_beta                 109.097(7)
_cell_angle_gamma                115.196(6)
_cell_volume                     2007.37
_exptl_crystal_colour            orange
_exptl_crystal_description       prism
_chemical_melting_point          '290-291 deg.C(dec.)'
_cell_formula_units_Z            2
loop_
_atom_site_label
_atom_site_type_symbol
_atom_site_fract_x
_atom_site_fract_y
_atom_site_fract_z
Cl1 Cl 1.23190(4) -0.13996(4) 0.61304(4)
Cl2 Cl 1.42699(5) -0.00283(4) 0.80846(4)
Cl3 Cl 1.45205(6) -0.16703(6) 0.69561(5)
C20 C 1.34821(17) -0.13585(16) 0.72903(15)
H13 H 1.3096 -0.1919 0.7698
N1 N 0.63331(13) 0.59899(12) 0.42690(11)
N2 N 0.02788(13) 0.12814(13) -0.09462(11)
N3 N -0.07754(17) 0.33435(15) -0.09256(16)
N4 N 0.22176(16) -0.00787(14) -0.01747(14)
N5 N 1.18199(12) 0.41371(11) 0.78513(10)
N6 N 0.96560(13) 0.15329(12) 0.61221(11)
N7 N 1.34174(14) 0.70145(12) 0.89757(11)
C1 C 0.63599(14) 0.69774(13) 0.46727(13)
C2 C 0.66751(16) 0.72695(14) 0.57503(13)
H1 H 0.6881 0.6812 0.6222
C3 C 0.66905(17) 0.82252(15) 0.61392(15)
H2 H 0.6925 0.8428 0.6878
C4 C 0.63649(18) 0.88877(15) 0.54544(17)
H3 H 0.6361 0.9535 0.5720
C5 C 0.60463(17) 0.85948(15) 0.43802(16)
H4 H 0.5818 0.9042 0.3909
C6 C 0.60576(15) 0.76550(14) 0.39864(14)
H5 H 0.5860 0.7473 0.3251
C7 C 0.53426(14) 0.52704(13) 0.33605(12)
C8 C 0.41713(15) 0.52149(14) 0.30863(13)
H6 H 0.4044 0.5691 0.3497
C9 C 0.31977(15) 0.44690(14) 0.22201(13)
H7 H 0.2414 0.4452 0.2038
C10 C 0.33458(15) 0.37409(14) 0.16086(13)
C11 C 0.45241(15) 0.38165(14) 0.18783(13)
H8 H 0.4652 0.3335 0.1473
C12 C 0.55071(15) 0.45807(14) 0.27253(13)
H9 H 0.6304 0.4636 0.2876
C13 C 0.22996(15) 0.29074(14) 0.07124(13)
C14 C 0.13028(15) 0.30820(14) 0.01285(13)
H10 H 0.1296 0.3763 0.0279
C15 C 0.03146(15) 0.22519(15) -0.06790(13)
C16 C 0.12535(16) 0.11216(15) -0.03974(13)
C17 C 0.22652(15) 0.18977(14) 0.04337(13)
H11 H 0.2926 0.1742 0.0808
C18 C -0.07827(16) 0.24125(15) -0.12662(14)
C19 C -0.17662(18) 0.16188(19) -0.21020(16)
H12 H -0.1744 0.0969 -0.2333
C21 C -0.27861(19) 0.1802(2) -0.25914(18)
H14 H -0.3470 0.1280 -0.3168
C22 C -0.2789(2) 0.2750(2) -0.2229(2)
H15 H -0.3477 0.2889 -0.2541
C23 C -0.1768(2) 0.3492(2) -0.1401(2)
H16 H -0.1772 0.4147 -0.1155
C24 C 0.12009(17) 0.00345(15) -0.06937(14)
C25 C 0.01650(19) -0.07943(16) -0.14550(15)
H17 H -0.0531 -0.0680 -0.1814
C26 C 0.0162(2) -0.17910(17) -0.16833(17)
H18 H -0.0533 -0.2372 -0.2205
C27 C 0.1199(2) -0.19248(18) -0.11330(18)
H19 H 0.1221 -0.2604 -0.1260
C28 C 0.2188(2) -0.10535(19) -0.04040(19)
H20 H 0.2897 -0.1147 -0.0039
C29 C 0.72462(15) 0.56730(14) 0.48480(12)
C30 C 0.69386(15) 0.45707(14) 0.49595(13)
H21 H 0.6108 0.4023 0.4646
C31 C 0.78393(15) 0.42714(14) 0.55250(13)
H22 H 0.7618 0.3517 0.5583
C32 C 0.90695(15) 0.50653(14) 0.60116(12)
C33 C 0.93625(15) 0.61638(14) 0.58971(13)
H23 H 1.0190 0.6715 0.6222
C34 C 0.84705(15) 0.64686(14) 0.53178(13)
H24 H 0.8695 0.7219 0.5242
C35 C 1.00237(15) 0.47469(14) 0.66336(13)
C36 C 0.99051(15) 0.36872(14) 0.64271(13)
H25 H 0.9205 0.3150 0.5872
C37 C 1.08210(15) 0.34224(14) 0.70415(12)
C38 C 1.19381(15) 0.51592(14) 0.80510(12)
C39 C 1.10802(15) 0.54953(14) 0.74614(13)
H26 H 1.1211 0.6231 0.7620
C40 C 1.07306(15) 0.23069(14) 0.68185(12)
C41 C 1.17304(16) 0.20957(15) 0.73164(14)
H27 H 1.2483 0.2662 0.7797
C42 C 1.15990(17) 0.10389(15) 0.70931(15)
H28 H 1.2266 0.0873 0.7415
C43 C 1.04952(17) 0.02362(15) 0.64026(14)
H29 H 1.0378 -0.0496 0.6249
C44 C 0.95554(17) 0.05227(15) 0.59346(14)
H30 H 0.8796 -0.0033 0.5452
C45 C 1.30527(15) 0.59250(14) 0.89601(12)
C46 C 1.36902(15) 0.55093(14) 0.97402(13)
H31 H 1.3409 0.4735 0.9706
C47 C 1.47413(16) 0.62437(15) 1.05668(13)
H32 H 1.5179 0.5981 1.1116
C48 C 1.51373(17) 0.73689(15) 1.05731(14)
H33 H 1.5863 0.7894 1.1117
C49 C 1.44480(17) 0.77113(15) 0.97658(14)
H34 H 1.4723 0.8483 0.9775
loop_
_geom_bond_atom_site_label_1
_geom_bond_atom_site_label_2
_geom_bond_site_symmetry_1
_geom_bond_site_symmetry_2
Cl1 C20 1_555 1_555
Cl2 C20 1_555 1_555
Cl3 C20 1_555 1_555
N1 C1 1_555 1_555
N2 C15 1_555 1_555
N3 C18 1_555 1_555
N4 C24 1_555 1_555
N5 C37 1_555 1_555
N6 C40 1_555 1_555
N7 C45 1_555 1_555
C1 C2 1_555 1_555
C2 H1 1_555 1_555
C3 C2 1_555 1_555
H2 C3 1_555 1_555
C4 C3 1_555 1_555
H3 C4 1_555 1_555
C5 C4 1_555 1_555
H4 C5 1_555 1_555
C6 C1 1_555 1_555
H5 C6 1_555 1_555
C7 N1 1_555 1_555
C8 C7 1_555 1_555
H6 C8 1_555 1_555
C9 C8 1_555 1_555
H7 C9 1_555 1_555
C10 C9 1_555 1_555
C11 C10 1_555 1_555
H8 C11 1_555 1_555
C12 C7 1_555 1_555
H9 C12 1_555 1_555
C13 C10 1_555 1_555
C14 C13 1_555 1_555
H10 C14 1_555 1_555
C15 C14 1_555 1_555
C16 N2 1_555 1_555
C17 C13 1_555 1_555
H11 C17 1_555 1_555
C18 C15 1_555 1_555
C19 C18 1_555 1_555
H12 C19 1_555 1_555
C20 H13 1_555 1_555
C21 C19 1_555 1_555
H14 C21 1_555 1_555
C22 C21 1_555 1_555
H15 C22 1_555 1_555
C23 N3 1_555 1_555
H16 C23 1_555 1_555
C24 C16 1_555 1_555
C25 C24 1_555 1_555
H17 C25 1_555 1_555
C26 C25 1_555 1_555
H18 C26 1_555 1_555
C27 C26 1_555 1_555
H19 C27 1_555 1_555
C28 N4 1_555 1_555
H20 C28 1_555 1_555
C29 N1 1_555 1_555
C30 C29 1_555 1_555
H21 C30 1_555 1_555
C31 C30 1_555 1_555
H22 C31 1_555 1_555
C32 C31 1_555 1_555
C33 C32 1_555 1_555
H23 C33 1_555 1_555
C34 C29 1_555 1_555
H24 C34 1_555 1_555
C35 C32 1_555 1_555
C36 C35 1_555 1_555
H25 C36 1_555 1_555
C37 C36 1_555 1_555
C38 N5 1_555 1_555
C39 C35 1_555 1_555
H26 C39 1_555 1_555
C40 C37 1_555 1_555
C41 C40 1_555 1_555
H27 C41 1_555 1_555
C42 C41 1_555 1_555
H28 C42 1_555 1_555
C43 C42 1_555 1_555
H29 C43 1_555 1_555
C44 N6 1_555 1_555
H30 C44 1_555 1_555
C45 C38 1_555 1_555
C46 C45 1_555 1_555
H31 C46 1_555 1_555
C47 C46 1_555 1_555
H32 C47 1_555 1_555
C48 C47 1_555 1_555
H33 C48 1_555 1_555
C49 N7 1_555 1_555
H34 C49 1_555 1_555
C5 C6 1_555 1_555
C11 C12 1_555 1_555
C16 C17 1_555 1_555
C22 C23 1_555 1_555
C27 C28 1_555 1_555
C33 C34 1_555 1_555
C38 C39 1_555 1_555
C43 C44 1_555 1_555
C48 C49 1_555 1_555

#END
