
#######################################################################
#
#                 Cambridge Crystallographic Data Centre
#                                CCDC 
#
#######################################################################
#
# If this CIF has been generated from an entry in the Cambridge 
# Structural Database, then it will include bibliographic, chemical, 
# crystal, experimental, refinement or atomic coordinate data resulting 
# from the CCDC's data processing and validation procedures.
#
#######################################################################

data_KENCOW
_chemical_formula_moiety         'C18 H22 N2 O3'
_chemical_name_systematic        
1-(Ethoxymethyl)-6,7,8,9-tetrahydro-9-phenyl-1H-cyclohepta(d)pyrimidine-2,4(3H,5H)-dione
_symmetry_cell_setting           triclinic
_symmetry_space_group_name_H-M   'P -1'
_symmetry_Int_Tables_number      2
_space_group_name_Hall           '-P 1'
loop_
_symmetry_equiv_pos_site_id
_symmetry_equiv_pos_as_xyz
1 x,y,z
2 -x,-y,-z
_cell_length_a                   8.2013(12)
_cell_length_b                   10.5938(16)
_cell_length_c                   10.9160(17)
_cell_angle_alpha                114.849(3)
_cell_angle_beta                 101.576(3)
_cell_angle_gamma                99.321(3)
_cell_volume                     810.099
_exptl_crystal_colour            white
_exptl_crystal_description       tabular
_chemical_melting_point          '180-182 deg.C'
_cell_formula_units_Z            2
loop_
_atom_site_label
_atom_site_type_symbol
_atom_site_fract_x
_atom_site_fract_y
_atom_site_fract_z
C1 C 0.3447(2) 0.3855(2) 0.56134(19)
H1 H 0.3651 0.3888 0.4818
C2 C 0.4378(3) 0.4975(2) 0.6943(2)
H2 H 0.5197 0.5751 0.7031
C3 C 0.4106(3) 0.4954(2) 0.8130(2)
H3 H 0.4724 0.5716 0.9021
C4 C 0.2913(3) 0.3797(2) 0.7991(2)
H4 H 0.2730 0.3765 0.8792
C5 C 0.1983(2) 0.2680(2) 0.66635(19)
H5 H 0.1176 0.1902 0.6584
C6 C 0.2223(2) 0.26915(17) 0.54477(17)
C7 C 0.1126(2) 0.14353(17) 0.40082(17)
H6 H 0.1231 0.0559 0.4080
C8 C -0.0820(2) 0.13372(19) 0.3719(2)
H7 H -0.1421 0.0581 0.2760
H8 H -0.1242 0.1038 0.4352
C9 C -0.1310(3) 0.2699(2) 0.3888(2)
H9 H -0.1084 0.3339 0.4898
H10 H -0.2562 0.2447 0.3459
C10 C -0.0405(4) 0.3545(3) 0.3256(3)
H13 H -0.1019 0.4225 0.3168
H14 H 0.0765 0.4105 0.3893
C12 C -0.0272(5) 0.2535(4) 0.1817(4)
H17 H -0.0173 0.3059 0.1276
H18 H -0.1358 0.1757 0.1299
C14 C 0.1245(2) 0.18607(18) 0.18861(19)
C15 C 0.1824(2) 0.13557(16) 0.27978(16)
C16 C 0.3895(2) 0.04513(19) 0.15829(18)
C17 C 0.2000(3) 0.16554(18) 0.07365(19)
C18 C 0.3855(2) 0.0145(2) 0.36450(19)
H21 H 0.4980 0.0015 0.3568
H22 H 0.4019 0.0873 0.4604
C19 C 0.2819(4) -0.2401(3) 0.2177(3)
H23 H 0.4006 -0.2436 0.2240
H24 H 0.2345 -0.2322 0.1332
C20 C 0.1816(4) -0.3720(3) 0.2075(4)
H25 H 0.1846 -0.4538 0.1250
H26 H 0.0639 -0.3689 0.2004
H27 H 0.2300 -0.3808 0.2903
N1 N 0.3295(2) 0.09784(16) 0.06953(15)
H28 H 0.375(3) 0.078(2) -0.002(2)
N2 N 0.31617(18) 0.06776(15) 0.26579(14)
O1 O 0.1567(2) 0.20399(18) -0.01591(17)
O2 O 0.50140(18) -0.01890(18) 0.14269(15)
O3 O 0.27918(18) -0.11538(14) 0.34017(14)
H11? H -0.0476 0.3558 0.4679
H12? H -0.2454 0.2673 0.4041
C11? C -0.1341(13) 0.2673(10) 0.2442(10)
H15? H -0.1925 0.1697 0.1656
H16? H -0.1987 0.3316 0.2282
C13? C 0.0444(17) 0.3113(11) 0.2379(12)
H19? H 0.1160 0.3851 0.3317
H20? H 0.0429 0.3544 0.1747
loop_
_geom_bond_atom_site_label_1
_geom_bond_atom_site_label_2
_geom_bond_site_symmetry_1
_geom_bond_site_symmetry_2
C1 H1 1_555 1_555
C2 C1 1_555 1_555
H2 C2 1_555 1_555
C3 C2 1_555 1_555
H3 C3 1_555 1_555
C4 C3 1_555 1_555
H4 C4 1_555 1_555
C5 C4 1_555 1_555
H5 C5 1_555 1_555
C6 C1 1_555 1_555
C7 C6 1_555 1_555
H6 C7 1_555 1_555
C8 C7 1_555 1_555
H7 C8 1_555 1_555
H8 C8 1_555 1_555
C9 C8 1_555 1_555
H9 C9 1_555 1_555
H10 C9 1_555 1_555
C10 C9 1_555 1_555
H13 C10 1_555 1_555
H14 C10 1_555 1_555
C12 C10 1_555 1_555
H17 C12 1_555 1_555
H18 C12 1_555 1_555
C14 C12 1_555 1_555
C15 C7 1_555 1_555
C16 N1 1_555 1_555
C17 C14 1_555 1_555
C18 H21 1_555 1_555
H22 C18 1_555 1_555
C19 H23 1_555 1_555
H24 C19 1_555 1_555
C20 C19 1_555 1_555
H25 C20 1_555 1_555
H26 C20 1_555 1_555
H27 C20 1_555 1_555
N1 C17 1_555 1_555
H28 N1 1_555 1_555
N2 C15 1_555 1_555
O1 C17 1_555 1_555
O2 C16 1_555 1_555
O3 C18 1_555 1_555
C5 C6 1_555 1_555
C14 C15 1_555 1_555
C16 N2 1_555 1_555
C18 N2 1_555 1_555
C19 O3 1_555 1_555

#END
