
#######################################################################
#
#                 Cambridge Crystallographic Data Centre
#                                CCDC 
#
#######################################################################
#
# If this CIF has been generated from an entry in the Cambridge 
# Structural Database, then it will include bibliographic, chemical, 
# crystal, experimental, refinement or atomic coordinate data resulting 
# from the CCDC's data processing and validation procedures.
#
#######################################################################

data_KENCIQ
_chemical_formula_moiety         'C16 H10 N2 O1'
_chemical_name_systematic        2-(3-Indolyl)-3H-indol-3-one
_symmetry_cell_setting           orthorhombic
_symmetry_space_group_name_H-M   'P c a 21'
_symmetry_Int_Tables_number      29
_space_group_name_Hall           'P 2c -2ac'
loop_
_symmetry_equiv_pos_site_id
_symmetry_equiv_pos_as_xyz
1 x,y,z
2 -x,-y,1/2+z
3 1/2-x,y,1/2+z
4 1/2+x,-y,z
_cell_length_a                   24.445(5)
_cell_length_b                   4.319(2)
_cell_length_c                   11.087(3)
_cell_angle_alpha                90
_cell_angle_beta                 90
_cell_angle_gamma                90
_cell_volume                     1170.54
_exptl_crystal_colour            brown
_exptl_crystal_description       plate
_chemical_melting_point          '218-219 deg.C'
_cell_formula_units_Z            4
loop_
_atom_site_label
_atom_site_type_symbol
_atom_site_fract_x
_atom_site_fract_y
_atom_site_fract_z
O1 O -0.1422(1) 0.2442(9) 0.0411(3)
N1 N -0.1050(1) -0.2111(8) 0.2892(3)
N2 N 0.0291(1) 0.0313(8) 0.0060(3)
C1 C -0.0924(1) -0.0806(9) 0.1862(3)
C2 C -0.1411(2) 0.0926(10) 0.1325(3)
C3 C -0.1854(1) 0.0315(10) 0.2182(3)
C4 C -0.2391(2) 0.1137(10) 0.2206(4)
C5 C -0.2712(2) 0.0119(10) 0.3166(4)
C6 C -0.2485(2) -0.1662(9) 0.4057(4)
C7 C -0.1934(1) -0.2496(11) 0.4044(4)
C8 C -0.1622(1) -0.1488(9) 0.3091(3)
C9 C -0.0395(1) -0.0922(10) 0.1319(3)
C10 C -0.0246(2) 0.0786(10) 0.0300(4)
C11 C 0.0512(1) -0.1686(10) 0.0910(3)
C12 C 0.1043(2) -0.2746(10) 0.1017(4)
C13 C 0.1153(2) -0.4779(10) 0.1949(4)
C14 C 0.0742(2) -0.5718(9) 0.2739(3)
C15 C 0.0213(1) -0.4637(9) 0.2624(3)
C16 C 0.0093(1) -0.2546(10) 0.1711(3)
H1 H 0.0468 0.1127 -0.0531
H2 H -0.2541 0.2349 0.1596
H3 H -0.3080 0.0649 0.3202
H4 H -0.2705 -0.2335 0.4689
H5 H -0.1783 -0.3690 0.4658
H6 H -0.0479 0.2051 -0.0144
H7 H 0.1315 -0.2118 0.0485
H8 H 0.1506 -0.5531 0.2051
H9 H 0.0825 -0.7101 0.3355
H10 H -0.0059 -0.5299 0.3152
loop_
_geom_bond_atom_site_label_1
_geom_bond_atom_site_label_2
_geom_bond_site_symmetry_1
_geom_bond_site_symmetry_2
O1 C2 1_555 1_555
N1 C1 1_555 1_555
N2 C10 1_555 1_555
C1 C2 1_555 1_555
C2 C3 1_555 1_555
C3 C4 1_555 1_555
C4 C5 1_555 1_555
C5 C6 1_555 1_555
C6 C7 1_555 1_555
C7 C8 1_555 1_555
C8 N1 1_555 1_555
C9 C1 1_555 1_555
C10 C9 1_555 1_555
C11 N2 1_555 1_555
C12 C11 1_555 1_555
C13 C12 1_555 1_555
C14 C13 1_555 1_555
C15 C14 1_555 1_555
C16 C9 1_555 1_555
H1 N2 1_555 1_555
H2 C4 1_555 1_555
H3 C5 1_555 1_555
H4 C6 1_555 1_555
H5 C7 1_555 1_555
H6 C10 1_555 1_555
H7 C12 1_555 1_555
H8 C13 1_555 1_555
H9 C14 1_555 1_555
H10 C15 1_555 1_555
C3 C8 1_555 1_555
C11 C16 1_555 1_555
C15 C16 1_555 1_555

#END
