
#######################################################################
#
#                 Cambridge Crystallographic Data Centre
#                                CCDC 
#
#######################################################################
#
# If this CIF has been generated from an entry in the Cambridge 
# Structural Database, then it will include bibliographic, chemical, 
# crystal, experimental, refinement or atomic coordinate data resulting 
# from the CCDC's data processing and validation procedures.
#
#######################################################################

data_KENCEM
_chemical_formula_moiety         'C12 H13 N3 O3'
_chemical_name_systematic        4-Nitro-N-acetyltryptamine
_symmetry_cell_setting           monoclinic
_symmetry_space_group_name_H-M   'P 21/n'
_symmetry_Int_Tables_number      14
_space_group_name_Hall           '-P 2yn'
loop_
_symmetry_equiv_pos_site_id
_symmetry_equiv_pos_as_xyz
1 x,y,z
2 1/2-x,1/2+y,1/2-z
3 -x,-y,-z
4 1/2+x,1/2-y,1/2+z
_cell_length_a                   7.399(2)
_cell_length_b                   19.689(4)
_cell_length_c                   8.576(2)
_cell_angle_alpha                90
_cell_angle_beta                 108.374(4)
_cell_angle_gamma                90
_cell_volume                     1185.65
_exptl_crystal_colour            yellow
_exptl_crystal_description       plate
_chemical_melting_point          '132-133 deg.C'
_cell_formula_units_Z            4
loop_
_atom_site_label
_atom_site_type_symbol
_atom_site_fract_x
_atom_site_fract_y
_atom_site_fract_z
O1 O 0.6462(4) 0.1516(1) 0.2807(3)
O2 O 0.8048(4) 0.1648(1) 0.5373(3)
O3 O 0.4920(3) 0.4116(1) 0.3925(3)
N1 N 0.2728(5) 0.1436(2) 0.7746(4)
N2 N 0.6625(5) 0.1484(2) 0.4282(4)
N3 N 0.4541(5) 0.3467(2) 0.5950(4)
C1 C 0.4013(5) 0.1951(2) 0.8256(4)
C2 C 0.5159(5) 0.2001(2) 0.7273(4)
C3 C 0.4551(5) 0.1470(2) 0.6089(4)
C4 C 0.4983(5) 0.1220(2) 0.4715(4)
C5 C 0.3955(5) 0.0709(2) 0.3738(4)
C6 C 0.2451(5) 0.0404(2) 0.4110(4)
C7 C 0.1964(5) 0.0618(2) 0.5449(5)
C8 C 0.2989(5) 0.1133(2) 0.6388(4)
C9 C 0.6624(4) 0.2544(2) 0.7460(4)
C10 C 0.6181(4) 0.3044(2) 0.6039(4)
C11 C 0.4058(5) 0.3992(2) 0.4908(5)
C12 C 0.2404(4) 0.4423(2) 0.4999(4)
H1 H 0.1851(39) 0.1293(15) 0.8146(35)
H2 H 0.4103(50) 0.3428(19) 0.6656(39)
H3 H 0.4102 0.2231 0.9150
H4 H 0.4270 0.0568 0.2822
H5 H 0.1773 0.0054 0.3453
H6 H 0.0960 0.0417 0.5710
H7 H 0.7841 0.2331 0.7575
H8 H 0.6750 0.2793 0.8465
H9 H 0.7281 0.3332 0.6166
H10 H 0.5937 0.2795 0.5018
H11 H 0.1921 0.4247 0.5834
H12 H 0.1415 0.4414 0.3957
H13 H 0.2825 0.4883 0.5263
loop_
_geom_bond_atom_site_label_1
_geom_bond_atom_site_label_2
_geom_bond_site_symmetry_1
_geom_bond_site_symmetry_2
O1 N2 1_555 1_555
O2 N2 1_555 1_555
O3 C11 1_555 1_555
N1 C1 1_555 1_555
N2 C4 1_555 1_555
N3 C10 1_555 1_555
C1 C2 1_555 1_555
C2 C3 1_555 1_555
C3 C4 1_555 1_555
C4 C5 1_555 1_555
C5 C6 1_555 1_555
C6 C7 1_555 1_555
C7 C8 1_555 1_555
C8 N1 1_555 1_555
C9 C2 1_555 1_555
C10 C9 1_555 1_555
C11 N3 1_555 1_555
C12 C11 1_555 1_555
H1 N1 1_555 1_555
H2 N3 1_555 1_555
H3 C1 1_555 1_555
H4 C5 1_555 1_555
H5 C6 1_555 1_555
H6 C7 1_555 1_555
H7 C9 1_555 1_555
H8 C9 1_555 1_555
H9 C10 1_555 1_555
H10 C10 1_555 1_555
H11 C12 1_555 1_555
H12 C12 1_555 1_555
H13 C12 1_555 1_555
C3 C8 1_555 1_555

#END
