
#######################################################################
#
#                 Cambridge Crystallographic Data Centre
#                                CCDC 
#
#######################################################################
#
# If this CIF has been generated from an entry in the Cambridge 
# Structural Database, then it will include bibliographic, chemical, 
# crystal, experimental, refinement or atomic coordinate data resulting 
# from the CCDC's data processing and validation procedures.
#
#######################################################################

data_KENDEM
_chemical_formula_moiety         'C14 H4 O6'
_chemical_name_systematic        
'1,4,5,8-Naphthalene-tetracarboxylic dianhydride'
_symmetry_cell_setting           monoclinic
_symmetry_space_group_name_H-M   'P 21/c'
_symmetry_Int_Tables_number      14
_space_group_name_Hall           '-P 2ybc'
loop_
_symmetry_equiv_pos_site_id
_symmetry_equiv_pos_as_xyz
1 x,y,z
2 -x,1/2+y,1/2-z
3 -x,-y,-z
4 x,1/2-y,1/2+z
_cell_length_a                   7.867(2)
_cell_length_b                   5.305(1)
_cell_length_c                   12.574(2)
_cell_angle_alpha                90
_cell_angle_beta                 72.73(2)
_cell_angle_gamma                90
_cell_volume                     501.11
_exptl_crystal_colour            colorless
_cell_formula_units_Z            2
loop_
_atom_site_label
_atom_site_type_symbol
_atom_site_fract_x
_atom_site_fract_y
_atom_site_fract_z
O1 O 0.1721(3) -0.0002(5) 0.3954(2)
O2 O 0.4636(3) -0.0041(4) 0.3263(2)
O3 O 0.7530(3) 0.0055(5) 0.2480(2)
C1 C 0.3074(4) -0.0934(6) 0.3979(2)
C2 C 0.6311(4) -0.0930(6) 0.3145(2)
C3 C 0.3229(4) -0.3017(6) 0.4745(2)
C4 C 0.6480(4) -0.3092(5) 0.3867(2)
C5 C 0.1746(4) -0.3883(6) 0.5519(2)
C6 C 0.4921(4) -0.3981(5) 0.4642(2)
C7 C 0.8108(4) -0.4083(6) 0.3774(2)
H1 H 0.050(3) -0.321(5) 0.565(2)
H2 H 0.927(4) -0.347(7) 0.321(2)
C7B C 0.1892(4) -0.5917(6) 0.6226(2)
C6B C 0.5079(4) -0.6019(5) 0.5358(2)
C5B C 0.8254(4) -0.6117(6) 0.4481(2)
C4B C 0.3520(4) -0.6908(5) 0.6133(2)
H2B H 0.073(4) -0.653(7) 0.679(2)
C3B C 0.6771(4) -0.6983(6) 0.5255(2)
H1B H 0.950(3) -0.679(5) 0.435(2)
C2B C 0.3689(4) -0.9070(6) 0.6855(2)
C1B C 0.6926(4) -0.9066(6) 0.6021(2)
O2B O 0.5364(3) -0.9959(4) 0.6737(2)
O3B O 0.2470(3) -1.0055(5) 0.7520(2)
O1B O 0.8279(3) -0.9998(5) 0.6046(2)
loop_
_geom_bond_atom_site_label_1
_geom_bond_atom_site_label_2
_geom_bond_site_symmetry_1
_geom_bond_site_symmetry_2
O1 C1 1_555 1_555
O2 C1 1_555 1_555
O3 C2 1_555 1_555
C1 C3 1_555 1_555
C2 O2 1_555 1_555
C3 C5 1_555 1_555
C4 C2 1_555 1_555
C5 H1 1_555 1_555
C6 C3 1_555 1_555
C7 C4 1_555 1_555
H2 C7 1_555 1_555
C7B C5 1_555 1_555
C6B C6 1_555 1_555
C5B C7 1_555 1_555
C4B C7B 1_555 1_555
H2B C7B 1_555 1_555
C3B C6B 1_555 1_555
H1B C5B 1_555 1_555
C2B C4B 1_555 1_555
C1B C3B 1_555 1_555
O2B C2B 1_555 1_555
O3B C2B 1_555 1_555
O1B C1B 1_555 1_555
C4 C6 1_555 1_555
C6B C4B 1_555 1_555
C5B C3B 1_555 1_555
C1B O2B 1_555 1_555

#END
