
#######################################################################
#
#                 Cambridge Crystallographic Data Centre
#                                CCDC 
#
#######################################################################
#
# If this CIF has been generated from an entry in the Cambridge 
# Structural Database, then it will include bibliographic, chemical, 
# crystal, experimental, refinement or atomic coordinate data resulting 
# from the CCDC's data processing and validation procedures.
#
#######################################################################

data_KENFAM
_chemical_formula_moiety         'C26 H24 N4 O5'
_chemical_name_systematic        
"Diethyl 6'-amino-5'-cyano-1'-(4-methylphenyl)-2-oxo-1,2-dihydro-1'H-spiro[indole-3,4'-pyridine]-2',3'-dicarboxylate"
_symmetry_cell_setting           monoclinic
_symmetry_space_group_name_H-M   'P 21/c'
_symmetry_Int_Tables_number      14
_space_group_name_Hall           '-P 2ybc'
loop_
_symmetry_equiv_pos_site_id
_symmetry_equiv_pos_as_xyz
1 x,y,z
2 -x,1/2+y,1/2-z
3 -x,-y,-z
4 x,1/2-y,1/2+z
_cell_length_a                   12.5223(17)
_cell_length_b                   13.4920(18)
_cell_length_c                   17.2473(17)
_cell_angle_alpha                90
_cell_angle_beta                 123.857(7)
_cell_angle_gamma                90
_cell_volume                     2419.83
_cell_formula_units_Z            4
loop_
_atom_site_label
_atom_site_type_symbol
_atom_site_fract_x
_atom_site_fract_y
_atom_site_fract_z
C1 C 0.3504(2) 0.88400(15) 0.32946(15)
H1 H 0.3377 0.8817 0.3777
C2 C 0.2493(2) 0.90583(17) 0.23969(17)
H2 H 0.1679 0.9164 0.2275
C3 C 0.2670(2) 0.91232(18) 0.16753(16)
C4 C 0.1532(3) 0.9370(3) 0.07003(19)
H3 H 0.1080 0.8771 0.0388
H4 H 0.1831 0.9682 0.0355
H5 H 0.0963 0.9811 0.0740
C5 C 0.3886(2) 0.89703(19) 0.18738(16)
H6 H 0.4024 0.9035 0.1399
C6 C 0.4911(2) 0.87220(16) 0.27674(15)
H7 H 0.5721 0.8603 0.2888
C7 C 0.47068(18) 0.86553(13) 0.34713(13)
C8 C 0.67307(18) 0.89161(13) 0.50345(13)
C9 C 0.6696(2) 0.99485(15) 0.46640(13)
C10 C 0.7471(4) 1.0989(2) 0.3994(3)
H8 H 0.6609 1.1206 0.3514
H9 H 0.7833 1.1459 0.4505
C11 C 0.8237(5) 1.0953(3) 0.3627(3)
H10 H 0.9067 1.0685 0.4088
H11 H 0.8337 1.1610 0.3463
H12 H 0.7828 1.0540 0.3082
C12 C 0.76376(18) 0.86396(13) 0.59140(13)
C13 C 0.87237(18) 0.93066(14) 0.65256(13)
C14 C 1.0766(2) 0.93247(17) 0.80213(15)
H13 H 1.0582 0.9803 0.8352
H14 H 1.1163 0.9667 0.7749
C15 C 1.1635(2) 0.85280(19) 0.86709(19)
H15 H 1.1223 0.8189 0.8926
H16 H 1.2424 0.8818 0.9168
H17 H 1.1815 0.8065 0.8335
C16 C 0.75755(17) 0.76584(13) 0.63244(13)
C17 C 0.88047(19) 0.70106(14) 0.67122(14)
C18 C 0.8520(2) 0.71967(14) 0.79056(14)
C19 C 0.8734(3) 0.71704(18) 0.87814(16)
H18 H 0.9382 0.6779 0.9254
C20 C 0.7949(3) 0.7748(2) 0.89326(18)
H19 H 0.8082 0.7750 0.9520
C21 C 0.6973(3) 0.83186(18) 0.82280(19)
H20 H 0.6455 0.8696 0.8344
C22 C 0.6759(2) 0.83330(15) 0.73424(16)
H21 H 0.6099 0.8712 0.6865
C23 C 0.75452(19) 0.77746(13) 0.71909(13)
C24 C 0.64451(18) 0.70586(13) 0.55700(13)
C25 C 0.56251(18) 0.73611(13) 0.46727(13)
C26 C 0.6256(2) 0.61068(15) 0.58297(14)
N1 N 0.57204(15) 0.83110(11) 0.43963(11)
N2 N 0.46930(17) 0.67768(13) 0.39938(12)
H22 H 0.4597 0.6180 0.4121
H23 H 0.4197 0.7002 0.3435
N3 N 0.6111(2) 0.53492(15) 0.60566(14)
N4 N 0.92100(17) 0.67255(12) 0.75920(12)
H24 H 0.9818 0.6306 0.7917
O1 O 0.60415(16) 1.06018(11) 0.46528(11)
O2 O 0.74193(16) 0.99974(11) 0.43296(11)
O3 O 0.88344(14) 1.01617(10) 0.63602(10)
O4 O 0.95972(13) 0.88330(10) 0.73023(10)
O5 O 0.92678(15) 0.67578(12) 0.62827(11)
loop_
_geom_bond_atom_site_label_1
_geom_bond_atom_site_label_2
_geom_bond_site_symmetry_1
_geom_bond_site_symmetry_2
C1 H1 1_555 1_555
C2 C1 1_555 1_555
H2 C2 1_555 1_555
C3 C2 1_555 1_555
C4 C3 1_555 1_555
H3 C4 1_555 1_555
H4 C4 1_555 1_555
H5 C4 1_555 1_555
C5 C3 1_555 1_555
H6 C5 1_555 1_555
C6 C5 1_555 1_555
H7 C6 1_555 1_555
C7 C1 1_555 1_555
C8 C9 1_555 1_555
C9 O1 1_555 1_555
C10 H8 1_555 1_555
H9 C10 1_555 1_555
C11 C10 1_555 1_555
H10 C11 1_555 1_555
H11 C11 1_555 1_555
H12 C11 1_555 1_555
C12 C8 1_555 1_555
C13 C12 1_555 1_555
C14 H13 1_555 1_555
H14 C14 1_555 1_555
C15 C14 1_555 1_555
H15 C15 1_555 1_555
H16 C15 1_555 1_555
H17 C15 1_555 1_555
C16 C12 1_555 1_555
C17 C16 1_555 1_555
C18 C19 1_555 1_555
C19 H18 1_555 1_555
C20 C19 1_555 1_555
H19 C20 1_555 1_555
C21 C20 1_555 1_555
H20 C21 1_555 1_555
C22 C21 1_555 1_555
H21 C22 1_555 1_555
C23 C16 1_555 1_555
C24 C16 1_555 1_555
C25 C24 1_555 1_555
C26 C24 1_555 1_555
N1 C7 1_555 1_555
N2 C25 1_555 1_555
H22 N2 1_555 1_555
H23 N2 1_555 1_555
N3 C26 1_555 1_555
N4 C17 1_555 1_555
H24 N4 1_555 1_555
O2 C9 1_555 1_555
O3 C13 1_555 1_555
O4 C13 1_555 1_555
O5 C17 1_555 1_555
C6 C7 1_555 1_555
C8 N1 1_555 1_555
C10 O2 1_555 1_555
C14 O4 1_555 1_555
C18 C23 1_555 1_555
C18 N4 1_555 1_555
C22 C23 1_555 1_555
C25 N1 1_555 1_555

#END
