
#######################################################################
#
#                 Cambridge Crystallographic Data Centre
#                                CCDC 
#
#######################################################################
#
# If this CIF has been generated from an entry in the Cambridge 
# Structural Database, then it will include bibliographic, chemical, 
# crystal, experimental, refinement or atomic coordinate data resulting 
# from the CCDC's data processing and validation procedures.
#
#######################################################################

data_KENFIU
_chemical_formula_moiety         'C26 H18 Cl2 N2 O5'
_chemical_name_systematic        
'2-((5,6-Dichloro-2,3-dicyano-3-(2-(4-methylphenyl)-2-oxoethyl)-4-oxocyclohexa-1,5-dien-1-yl)oxy)ethyl benzoate'
_symmetry_cell_setting           triclinic
_symmetry_space_group_name_H-M   'P -1'
_symmetry_Int_Tables_number      2
_space_group_name_Hall           '-P 1'
loop_
_symmetry_equiv_pos_site_id
_symmetry_equiv_pos_as_xyz
1 x,y,z
2 -x,-y,-z
_cell_length_a                   9.4709(12)
_cell_length_b                   11.7864(14)
_cell_length_c                   12.0814(16)
_cell_angle_alpha                70.955(15)
_cell_angle_beta                 71.999(16)
_cell_angle_gamma                67.847(15)
_cell_volume                     1153.74
_exptl_crystal_colour            colorless
_exptl_crystal_description       prism
_cell_formula_units_Z            2
loop_
_atom_site_label
_atom_site_type_symbol
_atom_site_fract_x
_atom_site_fract_y
_atom_site_fract_z
Cl1 Cl 0.49726(4) 0.47697(3) 0.35610(3)
Cl2 Cl 0.21029(4) 0.38216(3) 0.51224(3)
O1 O 1.14086(12) 0.21496(10) 0.13667(9)
O2 O 0.95013(12) 0.38689(9) 0.18417(9)
O3 O 0.77733(11) 0.33897(9) 0.42078(8)
O4 O 0.30730(11) 0.14207(9) 0.68427(8)
O5 O 0.45681(12) 0.27639(8) 0.77849(8)
N1 N 0.96721(17) 0.04534(15) 0.64071(14)
N2 N 0.65360(15) -0.10743(12) 0.57743(11)
C1 C 0.80626(18) 0.41473(14) 0.00729(14)
H1 H 0.7495 0.4592 0.0683
C2 C 0.74022(18) 0.43225(14) -0.08654(15)
H2 H 0.6376 0.4881 -0.0893
C3 C 0.82253(19) 0.36903(15) -0.17648(15)
H3 H 0.7765 0.3813 -0.2408
C4 C 0.97239(19) 0.28771(14) -0.17260(14)
H4 H 1.0294 0.2447 -0.2347
C5 C 1.03877(18) 0.26903(14) -0.07916(13)
H5 H 1.1415 0.2131 -0.0769
C6 C 0.95580(17) 0.33199(13) 0.01238(13)
C7 C 1.02739(18) 0.30340(14) 0.11498(13)
C8 C 1.01004(19) 0.36660(15) 0.28760(14)
H6 H 0.9828 0.4483 0.3078
H7 H 1.1252 0.3316 0.2685
C9 C 0.94432(16) 0.27736(14) 0.39358(13)
H8 H 0.9670 0.1961 0.3740
H9 H 0.9900 0.2609 0.4628
C10 C 0.67767(16) 0.27530(12) 0.48923(11)
C11 C 0.51822(16) 0.34168(12) 0.46801(11)
C12 C 0.39664(16) 0.30070(12) 0.53242(11)
C13 C 0.41471(16) 0.18150(12) 0.62614(12)
C14 C 0.58271(16) 0.10157(12) 0.64367(11)
C15 C 0.70770(16) 0.16570(12) 0.57247(11)
C16 C 0.85539(18) 0.10134(14) 0.60588(13)
C17 C 0.62146(16) -0.01522(13) 0.60407(12)
C18 C 0.58097(16) 0.06072(12) 0.77953(11)
H10 H 0.5058 0.0126 0.8221
H11 H 0.6857 0.0050 0.7929
C19 C 0.53526(16) 0.17498(12) 0.82889(11)
C20 C 0.58106(16) 0.16036(12) 0.94047(11)
C21 C 0.72025(16) 0.07513(13) 0.97003(12)
H12 H 0.7858 0.0180 0.9213
C22 C 0.76367(17) 0.07315(13) 1.06996(12)
H13 H 0.8608 0.0167 1.0877
C23 C 0.66682(17) 0.15284(13) 1.14505(12)
C24 C 0.52533(17) 0.23395(13) 1.11754(12)
H14 H 0.4559 0.2859 1.1701
C25 C 0.48349(17) 0.24061(13) 1.01538(12)
H15 H 0.3884 0.2997 0.9960
C26 C 0.71365(18) 0.15118(14) 1.25370(13)
H16 H 0.7123 0.2360 1.2494
H17 H 0.8190 0.0924 1.2565
H18 H 0.6402 0.1240 1.3260
loop_
_geom_bond_atom_site_label_1
_geom_bond_atom_site_label_2
_geom_bond_site_symmetry_1
_geom_bond_site_symmetry_2
Cl1 C11 1_555 1_555
Cl2 C12 1_555 1_555
O1 C7 1_555 1_555
O2 C7 1_555 1_555
O3 C9 1_555 1_555
O4 C13 1_555 1_555
O5 C19 1_555 1_555
N1 C16 1_555 1_555
N2 C17 1_555 1_555
C1 H1 1_555 1_555
C2 C1 1_555 1_555
H2 C2 1_555 1_555
C3 C2 1_555 1_555
H3 C3 1_555 1_555
C4 C3 1_555 1_555
H4 C4 1_555 1_555
C5 C4 1_555 1_555
H5 C5 1_555 1_555
C6 C1 1_555 1_555
C7 C6 1_555 1_555
C8 O2 1_555 1_555
H6 C8 1_555 1_555
H7 C8 1_555 1_555
C9 C8 1_555 1_555
H8 C9 1_555 1_555
H9 C9 1_555 1_555
C10 O3 1_555 1_555
C11 C10 1_555 1_555
C12 C11 1_555 1_555
C13 C12 1_555 1_555
C14 C13 1_555 1_555
C15 C10 1_555 1_555
C16 C15 1_555 1_555
C17 C14 1_555 1_555
C18 C14 1_555 1_555
H10 C18 1_555 1_555
H11 C18 1_555 1_555
C19 C18 1_555 1_555
C20 C19 1_555 1_555
C21 C20 1_555 1_555
H12 C21 1_555 1_555
C22 C21 1_555 1_555
H13 C22 1_555 1_555
C23 C22 1_555 1_555
C24 C23 1_555 1_555
H14 C24 1_555 1_555
C25 C20 1_555 1_555
H15 C25 1_555 1_555
C26 C23 1_555 1_555
H16 C26 1_555 1_555
H17 C26 1_555 1_555
H18 C26 1_555 1_555
C5 C6 1_555 1_555
C14 C15 1_555 1_555
C24 C25 1_555 1_555

#END
