
#######################################################################
#
#                 Cambridge Crystallographic Data Centre
#                                CCDC 
#
#######################################################################
#
# If this CIF has been generated from an entry in the Cambridge 
# Structural Database, then it will include bibliographic, chemical, 
# crystal, experimental, refinement or atomic coordinate data resulting 
# from the CCDC's data processing and validation procedures.
#
#######################################################################

data_KENNIB
_chemical_formula_moiety         'C20 H28 N2 P1 1+,Cl1 1-'
_chemical_name_systematic        
'1-(2-(diphenylphosphino)isopropyl)-4-methylpiperazin-4-ium chloride'
_symmetry_cell_setting           orthorhombic
_symmetry_space_group_name_H-M   'F d d 2'
_symmetry_Int_Tables_number      43
_space_group_name_Hall           'F 2 -2d'
loop_
_symmetry_equiv_pos_site_id
_symmetry_equiv_pos_as_xyz
1 x,y,z
2 -x,-y,z
3 1/4+x,1/4-y,1/4+z
4 1/4-x,1/4+y,1/4+z
5 x,1/2+y,1/2+z
6 -x,1/2-y,1/2+z
7 1/4+x,3/4-y,3/4+z
8 1/4-x,3/4+y,3/4+z
9 1/2+x,y,1/2+z
10 1/2-x,-y,1/2+z
11 3/4+x,1/4-y,3/4+z
12 3/4-x,1/4+y,3/4+z
13 1/2+x,1/2+y,z
14 1/2-x,1/2-y,z
15 3/4+x,3/4-y,1/4+z
16 3/4-x,3/4+y,1/4+z
_cell_length_a                   20.016(2)
_cell_length_b                   68.506(9)
_cell_length_c                   5.9460(7)
_cell_angle_alpha                90
_cell_angle_beta                 90
_cell_angle_gamma                90
_cell_volume                     8153.25
_exptl_crystal_colour            colorless
_exptl_crystal_description       needle
_cell_formula_units_Z            16
_exptl_crystal_recrystallization_method 'chloroform/diethyl ether'
loop_
_atom_site_label
_atom_site_type_symbol
_atom_site_fract_x
_atom_site_fract_y
_atom_site_fract_z
Cl1 Cl 0.61434(5) 0.620541(18) -0.29445(18)
P1 P 0.41564(7) 0.54703(2) 0.4178(2)
N1 N 0.50797(16) 0.57498(5) 0.1692(7)
N2 N 0.49337(16) 0.61371(6) -0.0067(6)
H1 H 0.5248(19) 0.6141(5) -0.097(7)
C1 C 0.55400(19) 0.59064(6) 0.2341(8)
H2 H 0.5932 0.5906 0.1326
H3 H 0.5700 0.5884 0.3894
C2 C 0.51995(19) 0.61006(6) 0.2207(8)
H4 H 0.4829 0.6104 0.3308
H5 H 0.5520 0.6205 0.2607
C3 C 0.44712(19) 0.59741(7) -0.0763(8)
H6 H 0.4076 0.5971 0.0236
H7 H 0.4316 0.5995 -0.2325
C4 C 0.4842(2) 0.57834(7) -0.0581(9)
H8 H 0.4543 0.5675 -0.1038
H9 H 0.5227 0.5786 -0.1627
C5 C 0.5376(2) 0.55566(7) 0.2129(11)
H10 H 0.5562 0.5561 0.3688
C6 C 0.4818(2) 0.54017(7) 0.2148(12)
H11 H 0.5008 0.5273 0.2563
H12 H 0.4623 0.5391 0.0623
C7 C 0.4635(2) 0.63321(7) -0.0338(10)
H13 H 0.4984 0.6432 -0.0217
H14 H 0.4299 0.6353 0.0840
H15 H 0.4420 0.6342 -0.1818
C8 C 0.5936(3) 0.54965(10) 0.0600(15)
H16 H 0.6295 0.5594 0.0666
H17 H 0.5771 0.5486 -0.0948
H18 H 0.6108 0.5369 0.1089
C9 C 0.3832(3) 0.52234(8) 0.4838(11)
C10 C 0.3214(3) 0.51507(10) 0.4262(17)
H19 H 0.2914 0.5230 0.3428
C11 C 0.3031(4) 0.49612(11) 0.487(2)
H20 H 0.2617 0.4911 0.4353
C12 C 0.3419(3) 0.48504(11) 0.6149(16)
H21 H 0.3302 0.4719 0.6491
C13 C 0.3967(5) 0.49306(11) 0.693(2)
H22 H 0.4240 0.4859 0.7945
C14 C 0.4167(4) 0.51121(9) 0.6295(16)
H23 H 0.4562 0.5164 0.6943
C15 C 0.3487(2) 0.55682(7) 0.2455(9)
C16 C 0.3277(3) 0.54882(8) 0.0426(10)
H24 H 0.3511 0.5380 -0.0177
C17 C 0.2738(3) 0.55614(9) -0.0752(12)
H25 H 0.2606 0.5502 -0.2128
C18 C 0.2394(3) 0.57162(9) 0.0047(13)
H26 H 0.2021 0.5764 -0.0769
C19 C 0.2584(3) 0.58047(9) 0.2032(14)
H27 H 0.2341 0.5914 0.2577
C20 C 0.3138(3) 0.57338(8) 0.3228(10)
H28 H 0.3276 0.5797 0.4571
loop_
_geom_bond_atom_site_label_1
_geom_bond_atom_site_label_2
_geom_bond_site_symmetry_1
_geom_bond_site_symmetry_2
P1 C6 1_555 1_555
N1 C1 1_555 1_555
N2 H1 1_555 1_555
C1 H2 1_555 1_555
H3 C1 1_555 1_555
C2 N2 1_555 1_555
H4 C2 1_555 1_555
H5 C2 1_555 1_555
C3 N2 1_555 1_555
H6 C3 1_555 1_555
H7 C3 1_555 1_555
C4 N1 1_555 1_555
H8 C4 1_555 1_555
H9 C4 1_555 1_555
C5 N1 1_555 1_555
H10 C5 1_555 1_555
C6 C5 1_555 1_555
H11 C6 1_555 1_555
H12 C6 1_555 1_555
C7 N2 1_555 1_555
H13 C7 1_555 1_555
H14 C7 1_555 1_555
H15 C7 1_555 1_555
C8 C5 1_555 1_555
H16 C8 1_555 1_555
H17 C8 1_555 1_555
H18 C8 1_555 1_555
C9 P1 1_555 1_555
C10 C9 1_555 1_555
H19 C10 1_555 1_555
C11 C10 1_555 1_555
H20 C11 1_555 1_555
C12 C11 1_555 1_555
H21 C12 1_555 1_555
C13 C12 1_555 1_555
H22 C13 1_555 1_555
C14 C9 1_555 1_555
H23 C14 1_555 1_555
C15 P1 1_555 1_555
C16 C15 1_555 1_555
H24 C16 1_555 1_555
C17 C16 1_555 1_555
H25 C17 1_555 1_555
C18 C17 1_555 1_555
H26 C18 1_555 1_555
C19 C18 1_555 1_555
H27 C19 1_555 1_555
C20 C15 1_555 1_555
H28 C20 1_555 1_555
C1 C2 1_555 1_555
C3 C4 1_555 1_555
C13 C14 1_555 1_555
C19 C20 1_555 1_555

#END
