
#######################################################################
#
#                 Cambridge Crystallographic Data Centre
#                                CCDC 
#
#######################################################################
#
# If this CIF has been generated from an entry in the Cambridge 
# Structural Database, then it will include bibliographic, chemical, 
# crystal, experimental, refinement or atomic coordinate data resulting 
# from the CCDC's data processing and validation procedures.
#
#######################################################################

data_KENNEY
_chemical_formula_moiety         'C43 H42 Br2 S1'
_chemical_name_systematic        
"2-(7,12-Dibromo-5,5,10,10,15,15-hexaethyl-10,15-dihydro-5H-diindeno[1,2-a:1',2'-c]fluoren-2-yl)thiophene unknown solvate"
_symmetry_cell_setting           monoclinic
_symmetry_space_group_name_H-M   'P 21/c'
_symmetry_Int_Tables_number      14
_space_group_name_Hall           '-P 2ybc'
loop_
_symmetry_equiv_pos_site_id
_symmetry_equiv_pos_as_xyz
1 x,y,z
2 -x,1/2+y,1/2-z
3 -x,-y,-z
4 x,1/2-y,1/2+z
_cell_length_a                   14.2224(13)
_cell_length_b                   20.942(2)
_cell_length_c                   20.113(2)
_cell_angle_alpha                90
_cell_angle_beta                 135.001(2)
_cell_angle_gamma                90
_cell_volume                     4235.9
_exptl_crystal_colour            colorless
_exptl_crystal_description       block
_cell_formula_units_Z            4
loop_
_atom_site_label
_atom_site_type_symbol
_atom_site_fract_x
_atom_site_fract_y
_atom_site_fract_z
Br1 Br 1.62874(7) 0.75932(4) 0.93446(4)
Br2 Br 0.99068(7) 0.99820(3) 0.11770(4)
S1 S 0.5333(10) 0.4776(4) 0.1078(5)
C1 C 0.9164(5) 0.7434(2) 0.3225(3)
C2 C 0.9615(5) 0.7092(2) 0.4017(3)
C3 C 1.0801(5) 0.7270(2) 0.4926(3)
C4 C 1.1545(5) 0.7795(2) 0.5059(3)
C5 C 1.1090(5) 0.8138(2) 0.4282(3)
C6 C 0.9884(5) 0.7963(2) 0.3362(3)
C7 C 0.7900(5) 0.7128(2) 0.2310(3)
C8 C 0.7715(5) 0.6566(2) 0.2675(3)
C9 C 0.8667(5) 0.6559(2) 0.3664(3)
C10 C 0.8550(5) 0.6086(2) 0.4088(3)
H1 H 0.9134 0.6078 0.4739
C11 C 0.7558(5) 0.5623(2) 0.3538(3)
H2 H 0.7488 0.5312 0.3831
C12 C 0.6671(5) 0.5614(2) 0.2565(3)
C13 C 0.6757(5) 0.6096(2) 0.2142(3)
H3 H 0.6164 0.6105 0.1491
C14 C 0.5647(5) 0.5075(2) 0.1977(4)
C15 C 0.494(4) 0.4742(16) 0.210(2)
H4 H 0.5019 0.4818 0.2594
C16 C 0.4102(8) 0.4291(4) 0.1422(6)
H5 H 0.3496 0.4050 0.1362
C17 C 0.4292(8) 0.4249(3) 0.0852(6)
H6 H 0.3869 0.3947 0.0376
C18 C 1.1531(5) 0.6945(2) 0.5871(3)
C19 C 1.2757(5) 0.7358(2) 0.6546(3)
C20 C 1.2769(5) 0.7852(2) 0.6084(3)
C21 C 1.3835(5) 0.8275(3) 0.6631(3)
H7 H 1.3856 0.8615 0.6345
C22 C 1.4867(6) 0.8197(3) 0.7595(4)
H8 H 1.5577 0.8481 0.7952
C23 C 1.4838(5) 0.7698(3) 0.8022(3)
C24 C 1.3791(5) 0.7276(3) 0.7511(3)
H9 H 1.3777 0.6942 0.7807
C25 C 1.1736(5) 0.8702(2) 0.4247(3)
C26 C 1.0717(5) 0.8829(2) 0.3192(3)
C27 C 0.9653(5) 0.8408(2) 0.2684(3)
C28 C 0.8623(5) 0.8485(2) 0.1708(3)
H10 H 0.7887 0.8217 0.1354
C29 C 0.8697(5) 0.8960(2) 0.1265(3)
H11 H 0.8014 0.9011 0.0616
C30 C 0.9787(5) 0.9354(2) 0.1792(3)
C31 C 1.0803(5) 0.9298(2) 0.2752(3)
H12 H 1.1534 0.9570 0.3099
C32 C 0.6645(5) 0.7563(3) 0.1742(4)
H13 H 0.6639 0.7859 0.1368
H14 H 0.5858 0.7298 0.1312
C33 C 0.6558(7) 0.7936(4) 0.2327(5)
H15 H 0.6682 0.7655 0.2762
H16 H 0.5699 0.8134 0.1928
H17 H 0.7235 0.8259 0.2669
C34 C 0.8073(6) 0.6890(3) 0.1680(4)
H18 H 0.7253 0.6687 0.1129
H19 H 0.8220 0.7256 0.1466
C35 C 0.9207(7) 0.6422(3) 0.2149(5)
H20 H 1.0030 0.6623 0.2683
H21 H 0.9245 0.6295 0.1710
H22 H 0.9064 0.6054 0.2352
C36 C 1.0740(6) 0.6977(3) 0.6130(4)
H23 H 0.9943 0.6720 0.5684
H24 H 1.1272 0.6789 0.6747
C37 C 1.0343(7) 0.7636(4) 0.6141(5)
H25 H 1.1126 0.7887 0.6612
H26 H 0.9825 0.7613 0.6281
H27 H 0.9825 0.7831 0.5536
C38 C 1.1950(5) 0.6256(2) 0.5911(3)
H28 H 1.2475 0.6089 0.6539
H29 H 1.1155 0.5995 0.5478
C39 C 1.2746(6) 0.6186(3) 0.5671(4)
H30 H 1.2209 0.6316 0.5032
H31 H 1.3007 0.5749 0.5747
H32 H 1.3524 0.6451 0.6084
C40 C 1.1864(6) 0.9313(3) 0.4745(4)
H33 H 1.2557 0.9244 0.5420
H34 H 1.2142 0.9664 0.4603
C41 C 1.0599(8) 0.9502(4) 0.4469(6)
H35 H 0.9874 0.9506 0.3796
H36 H 1.0704 0.9920 0.4710
H37 H 1.0416 0.9200 0.4725
C42 C 1.3079(5) 0.8525(3) 0.4598(4)
H38 H 1.3396 0.8890 0.4506
H39 H 1.3716 0.8443 0.5268
C43 C 1.3049(6) 0.7958(4) 0.4132(5)
H40 H 1.2844 0.7582 0.4282
H41 H 1.3901 0.7908 0.4350
H42 H 1.2381 0.8020 0.3463
Cl1? Cl 0.319(4) 0.6261(15) 0.376(3)
Cl2? Cl 0.230(2) 0.5679(16) 0.2166(18)
Cl3? Cl 0.501(2) 0.5490(16) 0.3968(16)
O1? O 0.343(5) 0.4684(12) 0.322(4)
C44? C 0.367(11) 0.599(6) 0.324(8)
H43? H 0.3949 0.6360 0.3123
C45? C 0.266(7) 0.517(3) 0.251(6)
H44? H 0.1827 0.4989 0.1932
H45? H 0.3144 0.5335 0.2370
C46? C 0.238(7) 0.571(4) 0.287(5)
H46? H 0.2324 0.6122 0.2628
H47? H 0.1568 0.5631 0.2714
C47? C 0.362(9) 0.566(4) 0.394(6)
H48? H 0.3369 0.5596 0.4275
H49? H 0.4159 0.6043 0.4176
C48? C 0.437(7) 0.507(3) 0.404(4)
H50? H 0.5076 0.5209 0.4097
H51? H 0.4767 0.4834 0.4603
C49? C 0.550(12) 0.465(5) 0.134(6)
C50? C 0.355(7) 0.540(5) 0.326(6)
C51? C 0.468(8) 0.582(4) 0.411(5)
C52? C 0.411(7) 0.605(4) 0.450(4)
C53? C 0.271(6) 0.573(3) 0.379(4)
H52? H 0.6059 0.4631 0.1254
H53? H 0.3097 0.5637 0.2686
H54? H 0.3935 0.5021 0.3251
H55? H 0.5483 0.5567 0.4581
H56? H 0.4877 0.6174 0.3922
H57? H 0.4045 0.6508 0.4480
H58? H 0.4643 0.5898 0.5135
H59? H 0.2509 0.5573 0.4139
H60? H 0.2044 0.6047 0.3351
O2? O 0.261(8) 0.521(4) 0.329(5)
S2? S 0.484(6) 0.485(2) 0.222(3)
loop_
_geom_bond_atom_site_label_1
_geom_bond_atom_site_label_2
_geom_bond_site_symmetry_1
_geom_bond_site_symmetry_2
Br1 C23 1_555 1_555
Br2 C30 1_555 1_555
S1 C14 1_555 1_555
C1 C2 1_555 1_555
C2 C3 1_555 1_555
C3 C4 1_555 1_555
C4 C5 1_555 1_555
C5 C6 1_555 1_555
C6 C1 1_555 1_555
C7 C1 1_555 1_555
C8 C7 1_555 1_555
C9 C2 1_555 1_555
C10 C9 1_555 1_555
H1 C10 1_555 1_555
C11 C10 1_555 1_555
H2 C11 1_555 1_555
C12 C11 1_555 1_555
C13 C8 1_555 1_555
H3 C13 1_555 1_555
C14 C12 1_555 1_555
C15 C14 1_555 1_555
H4 C15 1_555 1_555
C16 C15 1_555 1_555
H5 C16 1_555 1_555
C17 S1 1_555 1_555
H6 C17 1_555 1_555
C18 C3 1_555 1_555
C19 C18 1_555 1_555
C20 C4 1_555 1_555
C21 C20 1_555 1_555
H7 C21 1_555 1_555
C22 C21 1_555 1_555
H8 C22 1_555 1_555
C23 C22 1_555 1_555
C24 C19 1_555 1_555
H9 C24 1_555 1_555
C25 C5 1_555 1_555
C26 C25 1_555 1_555
C27 C6 1_555 1_555
C28 C27 1_555 1_555
H10 C28 1_555 1_555
C29 C28 1_555 1_555
H11 C29 1_555 1_555
C30 C29 1_555 1_555
C31 C26 1_555 1_555
H12 C31 1_555 1_555
C32 C7 1_555 1_555
H13 C32 1_555 1_555
H14 C32 1_555 1_555
C33 C32 1_555 1_555
H15 C33 1_555 1_555
H16 C33 1_555 1_555
H17 C33 1_555 1_555
C34 C7 1_555 1_555
H18 C34 1_555 1_555
H19 C34 1_555 1_555
C35 C34 1_555 1_555
H20 C35 1_555 1_555
H21 C35 1_555 1_555
H22 C35 1_555 1_555
C36 C18 1_555 1_555
H23 C36 1_555 1_555
H24 C36 1_555 1_555
C37 C36 1_555 1_555
H25 C37 1_555 1_555
H26 C37 1_555 1_555
H27 C37 1_555 1_555
C38 C18 1_555 1_555
H28 C38 1_555 1_555
H29 C38 1_555 1_555
C39 C38 1_555 1_555
H30 C39 1_555 1_555
H31 C39 1_555 1_555
H32 C39 1_555 1_555
C40 C25 1_555 1_555
H33 C40 1_555 1_555
H34 C40 1_555 1_555
C41 C40 1_555 1_555
H35 C41 1_555 1_555
H36 C41 1_555 1_555
H37 C41 1_555 1_555
C42 C25 1_555 1_555
H38 C42 1_555 1_555
H39 C42 1_555 1_555
C43 C42 1_555 1_555
H40 C43 1_555 1_555
H41 C43 1_555 1_555
H42 C43 1_555 1_555
C8 C9 1_555 1_555
C12 C13 1_555 1_555
C16 C17 1_555 1_555
C19 C20 1_555 1_555
C23 C24 1_555 1_555
C26 C27 1_555 1_555
C30 C31 1_555 1_555

#END
