
#######################################################################
#
#                 Cambridge Crystallographic Data Centre
#                                CCDC 
#
#######################################################################
#
# If this CIF has been generated from an entry in the Cambridge 
# Structural Database, then it will include bibliographic, chemical, 
# crystal, experimental, refinement or atomic coordinate data resulting 
# from the CCDC's data processing and validation procedures.
#
#######################################################################

data_KENPIF
_chemical_formula_moiety         'C24 H17 F2 N1 O3'
_chemical_name_systematic        
'(2-ethyl-3-oxo-2,3-dihydro-1H-isoindol-1-ylidene)(4-fluorophenyl)methyl 4-fluorobenzoate'
_symmetry_cell_setting           monoclinic
_symmetry_space_group_name_H-M   'C 2/c'
_symmetry_Int_Tables_number      15
_space_group_name_Hall           '-C 2yn'
loop_
_symmetry_equiv_pos_site_id
_symmetry_equiv_pos_as_xyz
1 x,y,z
2 -x,y,1/2-z
3 1/2+x,1/2+y,z
4 1/2-x,1/2+y,1/2-z
5 -x,-y,-z
6 x,-y,1/2+z
7 1/2-x,1/2-y,-z
8 1/2+x,1/2-y,1/2+z
_cell_length_a                   28.401(6)
_cell_length_b                   8.9015(17)
_cell_length_c                   18.249(4)
_cell_angle_alpha                90
_cell_angle_beta                 114.764(4)
_cell_angle_gamma                90
_cell_volume                     4189.3
_exptl_crystal_colour            colorless
_exptl_crystal_description       Prism
_cell_formula_units_Z            8
loop_
_atom_site_label
_atom_site_type_symbol
_atom_site_fract_x
_atom_site_fract_y
_atom_site_fract_z
F1 F 0.09873(4) 0.31022(12) 0.63856(5)
F2 F 0.00241(4) 0.25873(17) -0.00752(6)
O1 O 0.31487(4) -0.18658(11) 0.40118(6)
O2 O 0.14927(3) 0.11353(10) 0.34888(5)
O3 O 0.08405(3) -0.04300(11) 0.33836(6)
N1 N 0.24138(4) -0.06344(12) 0.39450(6)
C1 C 0.28916(5) -0.13120(14) 0.43415(8)
C2 C 0.30246(5) -0.11728(14) 0.52082(7)
C3 C 0.34751(5) -0.16376(15) 0.58521(8)
H1 H 0.3735 -0.2188 0.5767
C4 C 0.35324(5) -0.12681(15) 0.66247(8)
H2 H 0.3833 -0.1582 0.7080
C5 C 0.31509(5) -0.04386(15) 0.67345(8)
H3 H 0.3200 -0.0179 0.7267
C6 C 0.26985(5) 0.00223(15) 0.60848(7)
H4 H 0.2442 0.0589 0.6169
C7 C 0.26338(5) -0.03720(13) 0.53086(7)
C8 C 0.22261(5) -0.00342(13) 0.44919(7)
C9 C 0.17764(5) 0.07007(14) 0.42976(7)
C10 C 0.15604(4) 0.12902(14) 0.48501(7)
C11 C 0.14182(5) 0.28016(15) 0.47890(8)
H5 H 0.1457 0.3415 0.4392
C12 C 0.12213(6) 0.34200(17) 0.53007(9)
H6 H 0.1127 0.4451 0.5263
C13 C 0.11664(5) 0.24953(18) 0.58654(8)
C14 C 0.12794(5) 0.09820(17) 0.59205(8)
H7 H 0.1225 0.0369 0.6304
C15 C 0.14746(5) 0.03719(15) 0.54039(7)
H8 H 0.1550 -0.0671 0.5427
C16 C 0.10108(5) 0.05065(14) 0.30897(7)
C17 C 0.07524(5) 0.11109(15) 0.22580(7)
C18 C 0.09665(5) 0.22735(17) 0.19864(9)
H9 H 0.1283 0.2724 0.2345
C19 C 0.07221(6) 0.2776(2) 0.11983(10)
H10 H 0.0868 0.3560 0.1006
C20 C 0.02608(6) 0.2107(2) 0.07003(9)
C21 C 0.00366(6) 0.0963(2) 0.09477(9)
H11 H -0.0283 0.0532 0.0587
C22 C 0.02863(5) 0.04542(18) 0.17343(8)
H12 H 0.0140 -0.0342 0.1918
C23 C 0.22035(5) -0.04496(15) 0.30672(7)
H13 H 0.1822 -0.0570 0.2833
H14 H 0.2346 -0.1243 0.2838
C24 C 0.23358(5) 0.10813(16) 0.28363(8)
H15 H 0.2195 0.1869 0.3062
H16 H 0.2185 0.1173 0.2247
H17 H 0.2713 0.1189 0.3051
loop_
_geom_bond_atom_site_label_1
_geom_bond_atom_site_label_2
_geom_bond_site_symmetry_1
_geom_bond_site_symmetry_2
F1 C13 1_555 1_555
F2 C20 1_555 1_555
O1 C1 1_555 1_555
O2 C9 1_555 1_555
O3 C16 1_555 1_555
N1 C1 1_555 1_555
C1 C2 1_555 1_555
C2 C3 1_555 1_555
C3 H1 1_555 1_555
C4 C3 1_555 1_555
H2 C4 1_555 1_555
C5 C4 1_555 1_555
H3 C5 1_555 1_555
C6 C5 1_555 1_555
H4 C6 1_555 1_555
C7 C2 1_555 1_555
C8 N1 1_555 1_555
C9 C8 1_555 1_555
C10 C9 1_555 1_555
C11 C10 1_555 1_555
H5 C11 1_555 1_555
C12 C11 1_555 1_555
H6 C12 1_555 1_555
C13 C12 1_555 1_555
C14 C13 1_555 1_555
H7 C14 1_555 1_555
C15 C10 1_555 1_555
H8 C15 1_555 1_555
C16 O2 1_555 1_555
C17 C16 1_555 1_555
C18 C17 1_555 1_555
H9 C18 1_555 1_555
C19 C18 1_555 1_555
H10 C19 1_555 1_555
C20 C19 1_555 1_555
C21 C20 1_555 1_555
H11 C21 1_555 1_555
C22 C17 1_555 1_555
H12 C22 1_555 1_555
C23 N1 1_555 1_555
H13 C23 1_555 1_555
H14 C23 1_555 1_555
C24 C23 1_555 1_555
H15 C24 1_555 1_555
H16 C24 1_555 1_555
H17 C24 1_555 1_555
C6 C7 1_555 1_555
C7 C8 1_555 1_555
C14 C15 1_555 1_555
C21 C22 1_555 1_555

#END
