
#######################################################################
#
#                 Cambridge Crystallographic Data Centre
#                                CCDC 
#
#######################################################################
#
# If this CIF has been generated from an entry in the Cambridge 
# Structural Database, then it will include bibliographic, chemical, 
# crystal, experimental, refinement or atomic coordinate data resulting 
# from the CCDC's data processing and validation procedures.
#
#######################################################################

data_KENQAY
_chemical_formula_moiety         'C24 H27 N1 O2'
_chemical_name_systematic        
2-cyclohexyl-3-(2-phenyloxolan-2-yl)-2,3-dihydro-1H-isoindol-1-one
_symmetry_cell_setting           monoclinic
_symmetry_space_group_name_H-M   'C 2/c'
_symmetry_Int_Tables_number      15
_space_group_name_Hall           '-C 2yn'
loop_
_symmetry_equiv_pos_site_id
_symmetry_equiv_pos_as_xyz
1 x,y,z
2 -x,y,1/2-z
3 1/2+x,1/2+y,z
4 1/2-x,1/2+y,1/2-z
5 -x,-y,-z
6 x,-y,1/2+z
7 1/2-x,1/2-y,-z
8 1/2+x,1/2-y,1/2+z
_cell_length_a                   41.076(8)
_cell_length_b                   9.1984(16)
_cell_length_c                   10.5616(19)
_cell_angle_alpha                90
_cell_angle_beta                 102.864(5)
_cell_angle_gamma                90
_cell_volume                     3890.37
_exptl_crystal_colour            colorless
_exptl_crystal_description       Prism
_cell_formula_units_Z            8
loop_
_atom_site_label
_atom_site_type_symbol
_atom_site_fract_x
_atom_site_fract_y
_atom_site_fract_z
O1 O 0.14095(3) 0.10095(10) 1.24981(8)
N1 N 0.14135(3) 0.14074(11) 1.03339(9)
C1 C 0.12683(3) 0.12894(12) 1.13700(11)
C2 C 0.09046(3) 0.14751(12) 1.08663(12)
C3 C 0.06497(4) 0.13374(14) 1.15236(14)
H1 H 0.0698 0.1194 1.2437
C4 C 0.03228(4) 0.14136(15) 1.08134(15)
H2 H 0.0143 0.1323 1.1241
C5 C 0.02572(4) 0.16226(14) 0.94793(15)
H3 H 0.0032 0.1673 0.9005
C6 C 0.05135(3) 0.17592(13) 0.88220(13)
H4 H 0.0466 0.1903 0.7909
C7 C 0.08418(3) 0.16798(12) 0.95364(12)
C8 C 0.11703(3) 0.17230(12) 0.91174(11)
H5 H 0.1175 0.0924 0.8480
C9 C 0.17495(3) 0.08490(13) 1.03329(11)
H6 H 0.1784 0.0951 0.9429
C10 C 0.17740(3) -0.07731(13) 1.06722(12)
H7 H 0.1733 -0.0917 1.1552
H8 H 0.1601 -0.1315 1.0047
C11 C 0.21185(3) -0.13645(14) 1.06291(14)
H9 H 0.2133 -0.2401 1.0888
H10 H 0.2152 -0.1300 0.9731
C12 C 0.23921(3) -0.05078(14) 1.15394(15)
H11 H 0.2614 -0.0885 1.1475
H12 H 0.2370 -0.0633 1.2447
C13 C 0.23672(3) 0.11068(15) 1.11839(15)
H13 H 0.2542 0.1652 1.1799
H14 H 0.2407 0.1236 1.0301
C14 C 0.20242(3) 0.17232(14) 1.12266(13)
H15 H 0.1992 0.1683 1.2127
H16 H 0.2011 0.2753 1.0948
O2 O 0.15523(3) 0.30741(18) 0.81901(13)
C15 C 0.12313(6) 0.32026(18) 0.85006(18)
C16 C 0.09655(4) 0.3431(2) 0.72312(14)
C17 C 0.09461(4) 0.23740(15) 0.62763(14)
H17 H 0.1102 0.1596 0.6398
C18 C 0.06983(4) 0.24551(12) 0.51429(11)
H18 H 0.0685 0.1733 0.4490
C19 C 0.04698(4) 0.35927(15) 0.49645(13)
H19 H 0.0300 0.3648 0.4190
C20 C 0.04892(4) 0.46492(15) 0.59193(17)
H20 H 0.0333 0.5427 0.5797
C21 C 0.07371(5) 0.45681(18) 0.70527(16)
H21 H 0.0750 0.5290 0.7705
C22 C 0.12694(5) 0.4466(2) 0.94507(18)
H22 H 0.1372 0.4145 1.0346
H23 H 0.1051 0.4927 0.9442
C23 C 0.15003(6) 0.5503(2) 0.8932(2)
H24 H 0.1370 0.6215 0.8319
H25 H 0.1649 0.6034 0.9650
C24 C 0.16977(5) 0.4506(2) 0.82503(19)
H26 H 0.1691 0.4869 0.7362
H27 H 0.1934 0.4472 0.8732
H28? H 0.1178 0.0969 0.8443
O3? O 0.1583(4) 0.3585(17) 0.8279(15)
C25? C 0.1235(5) 0.3286(13) 0.8622(16)
C26? C 0.0977(5) 0.332(2) 0.7298(14)
C27? C 0.1033(4) 0.2390(19) 0.6331(16)
H29? H 0.1214 0.1720 0.6513
C28? C 0.0826(4) 0.2442(16) 0.5097(13)
H30? H 0.0864 0.1807 0.4436
C29? C 0.0562(4) 0.342(2) 0.4831(14)
H31? H 0.0420 0.3458 0.3987
C30? C 0.0505(5) 0.435(2) 0.580(2)
H32? H 0.0325 0.5021 0.5615
C31? C 0.0713(6) 0.430(2) 0.7031(19)
H33? H 0.0674 0.4934 0.7692
C32? C 0.1178(5) 0.453(3) 0.9527(16)
H34? H 0.0941 0.4831 0.9332
H35? H 0.1244 0.4232 1.0449
C33? C 0.1377(6) 0.564(2) 0.927(2)
H36? H 0.1532 0.5931 1.0090
H37? H 0.1235 0.6489 0.8944
C34? C 0.1574(5) 0.525(2) 0.831(2)
H38? H 0.1803 0.5647 0.8571
H39? H 0.1467 0.5639 0.7444
loop_
_geom_bond_atom_site_label_1
_geom_bond_atom_site_label_2
_geom_bond_site_symmetry_1
_geom_bond_site_symmetry_2
O1 C1 1_555 1_555
N1 C1 1_555 1_555
C1 C2 1_555 1_555
C2 C3 1_555 1_555
C3 H1 1_555 1_555
C4 C3 1_555 1_555
H2 C4 1_555 1_555
C5 C4 1_555 1_555
H3 C5 1_555 1_555
C6 C5 1_555 1_555
H4 C6 1_555 1_555
C7 C2 1_555 1_555
C8 N1 1_555 1_555
H5 C8 1_555 1_555
C9 N1 1_555 1_555
H6 C9 1_555 1_555
C10 C9 1_555 1_555
H7 C10 1_555 1_555
H8 C10 1_555 1_555
C11 C10 1_555 1_555
H9 C11 1_555 1_555
H10 C11 1_555 1_555
C12 C11 1_555 1_555
H11 C12 1_555 1_555
H12 C12 1_555 1_555
C13 C12 1_555 1_555
H13 C13 1_555 1_555
H14 C13 1_555 1_555
C14 C9 1_555 1_555
H15 C14 1_555 1_555
H16 C14 1_555 1_555
O2 C15 1_555 1_555
C15 C8 1_555 1_555
C16 C15 1_555 1_555
C17 C16 1_555 1_555
H17 C17 1_555 1_555
C18 C17 1_555 1_555
H18 C18 1_555 1_555
C19 C18 1_555 1_555
H19 C19 1_555 1_555
C20 C19 1_555 1_555
H20 C20 1_555 1_555
C21 C16 1_555 1_555
H21 C21 1_555 1_555
C22 C15 1_555 1_555
H22 C22 1_555 1_555
H23 C22 1_555 1_555
C23 C22 1_555 1_555
H24 C23 1_555 1_555
H25 C23 1_555 1_555
C24 O2 1_555 1_555
H26 C24 1_555 1_555
H27 C24 1_555 1_555
C6 C7 1_555 1_555
C7 C8 1_555 1_555
C13 C14 1_555 1_555
C20 C21 1_555 1_555
C23 C24 1_555 1_555

#END
