
#######################################################################
#
#                 Cambridge Crystallographic Data Centre
#                                CCDC 
#
#######################################################################
#
# If this CIF has been generated from an entry in the Cambridge 
# Structural Database, then it will include bibliographic, chemical, 
# crystal, experimental, refinement or atomic coordinate data resulting 
# from the CCDC's data processing and validation procedures.
#
#######################################################################

data_KENSAA
_chemical_formula_moiety         'C19 H19 Cl2 N1 O3 S1'
_chemical_name_systematic        
N-[2-(benzenecarbonyl)-5,7-dichloro-2,3-dihydro-1-benzofuran-3-yl]-2-methylpropane-2-sulfinamide
_symmetry_cell_setting           orthorhombic
_symmetry_space_group_name_H-M   'P 21 21 21'
_symmetry_Int_Tables_number      19
_space_group_name_Hall           'P 2ac 2ab'
loop_
_symmetry_equiv_pos_site_id
_symmetry_equiv_pos_as_xyz
1 x,y,z
2 1/2-x,-y,1/2+z
3 -x,1/2+y,1/2-z
4 1/2+x,1/2-y,-z
_cell_length_a                   8.4226(17)
_cell_length_b                   14.002(3)
_cell_length_c                   16.760(3)
_cell_angle_alpha                90
_cell_angle_beta                 90
_cell_angle_gamma                90
_cell_volume                     1976.56
_exptl_crystal_colour            colorless
_exptl_crystal_description       prism
_cell_formula_units_Z            4
loop_
_atom_site_label
_atom_site_type_symbol
_atom_site_fract_x
_atom_site_fract_y
_atom_site_fract_z
Cl1 Cl 1.24932(10) 0.68333(6) -0.30351(4)
Cl2 Cl 0.91362(9) 0.95827(5) -0.15138(5)
S1 S 0.99321(8) 0.45987(5) -0.01493(4)
O1 O 0.9129(2) 0.81028(13) -0.01768(12)
O2 O 1.1285(2) 0.84292(14) 0.09444(14)
O3 O 1.0365(3) 0.43309(16) -0.09778(15)
N1 N 0.9089(3) 0.56751(14) -0.01116(14)
C1 C 0.9904(3) 0.78732(18) -0.08682(16)
C2 C 1.0028(3) 0.84720(18) -0.15243(18)
C3 C 1.0832(3) 0.8141(2) -0.21953(18)
H1 H 1.0945 0.8538 -0.2652
C4 C 1.1468(3) 0.7225(2) -0.21920(18)
C5 C 1.1314(3) 0.6613(2) -0.15438(17)
H2 H 1.1731 0.5983 -0.1556
C6 C 1.0527(3) 0.69608(19) -0.08801(16)
C7 C 1.0170(3) 0.64868(17) -0.00873(16)
H3 H 1.1187 0.6291 0.0173
C8 C 0.9423(3) 0.73396(18) 0.03838(16)
H4 H 0.8396 0.7132 0.0628
C9 C 1.0535(3) 0.76990(19) 0.10374(17)
C10 C 1.0716(3) 0.70919(19) 0.17604(16)
C11 C 0.9848(4) 0.6248(2) 0.18663(16)
H5 H 0.9087 0.6061 0.1478
C12 C 1.0095(4) 0.5687(2) 0.25339(18)
H6 H 0.9504 0.5115 0.2605
C13 C 1.1207(4) 0.5960(2) 0.30978(19)
H7 H 1.1381 0.5573 0.3555
C14 C 1.2066(4) 0.6794(2) 0.29994(18)
H8 H 1.2832 0.6975 0.3387
C15 C 1.1816(3) 0.7366(2) 0.23386(17)
H9 H 1.2392 0.7944 0.2279
C16 C 0.8141(3) 0.38986(18) 0.00938(18)
C17 C 0.6833(4) 0.4107(2) -0.0501(2)
H10 H 0.7237 0.4016 -0.1044
H11 H 0.6474 0.4768 -0.0436
H12 H 0.5941 0.3671 -0.0408
C18 C 0.8703(4) 0.28617(18) 0.0028(2)
H13 H 0.7828 0.2431 0.0168
H14 H 0.9593 0.2757 0.0394
H15 H 0.9047 0.2733 -0.0520
C19 C 0.7680(4) 0.4129(2) 0.09515(19)
H16 H 0.7282 0.4785 0.0981
H17 H 0.8613 0.4062 0.1297
H18 H 0.6850 0.3686 0.1128
H19 H 0.826(3) 0.577(2) -0.0437(15)
loop_
_geom_bond_atom_site_label_1
_geom_bond_atom_site_label_2
_geom_bond_site_symmetry_1
_geom_bond_site_symmetry_2
Cl1 C4 1_555 1_555
Cl2 C2 1_555 1_555
S1 O3 1_555 1_555
O1 C1 1_555 1_555
O2 C9 1_555 1_555
N1 S1 1_555 1_555
C1 C2 1_555 1_555
C2 C3 1_555 1_555
C3 H1 1_555 1_555
C4 C3 1_555 1_555
C5 C4 1_555 1_555
H2 C5 1_555 1_555
C6 C1 1_555 1_555
C7 N1 1_555 1_555
H3 C7 1_555 1_555
C8 O1 1_555 1_555
H4 C8 1_555 1_555
C9 C8 1_555 1_555
C10 C9 1_555 1_555
C11 C10 1_555 1_555
H5 C11 1_555 1_555
C12 C11 1_555 1_555
H6 C12 1_555 1_555
C13 C12 1_555 1_555
H7 C13 1_555 1_555
C14 C13 1_555 1_555
H8 C14 1_555 1_555
C15 C10 1_555 1_555
H9 C15 1_555 1_555
C16 S1 1_555 1_555
C17 C16 1_555 1_555
H10 C17 1_555 1_555
H11 C17 1_555 1_555
H12 C17 1_555 1_555
C18 C16 1_555 1_555
H13 C18 1_555 1_555
H14 C18 1_555 1_555
H15 C18 1_555 1_555
C19 C16 1_555 1_555
H16 C19 1_555 1_555
H17 C19 1_555 1_555
H18 C19 1_555 1_555
H19 N1 1_555 1_555
C5 C6 1_555 1_555
C6 C7 1_555 1_555
C7 C8 1_555 1_555
C14 C15 1_555 1_555

#END
