
#######################################################################
#
#                 Cambridge Crystallographic Data Centre
#                                CCDC 
#
#######################################################################
#
# If this CIF has been generated from an entry in the Cambridge 
# Structural Database, then it will include bibliographic, chemical, 
# crystal, experimental, refinement or atomic coordinate data resulting 
# from the CCDC's data processing and validation procedures.
#
#######################################################################

data_KENVEE
_chemical_formula_moiety         'C46 H40'
_chemical_name_systematic        
1,8-bis(4-((4-t-Butylphenyl)ethynyl)phenyl)naphthalene
_symmetry_cell_setting           triclinic
_symmetry_space_group_name_H-M   'P -1'
_symmetry_Int_Tables_number      2
_space_group_name_Hall           '-P 1'
loop_
_symmetry_equiv_pos_site_id
_symmetry_equiv_pos_as_xyz
1 x,y,z
2 -x,-y,-z
_cell_length_a                   9.743(6)
_cell_length_b                   12.314(5)
_cell_length_c                   14.717(7)
_cell_angle_alpha                88.46(4)
_cell_angle_beta                 87.22(4)
_cell_angle_gamma                81.61(4)
_cell_volume                     1744.37
_chemical_melting_point          289-290deg.C
_cell_formula_units_Z            2
loop_
_atom_site_label
_atom_site_type_symbol
_atom_site_fract_x
_atom_site_fract_y
_atom_site_fract_z
C1 C 0.2651(7) 0.2871(6) -0.0407(4)
C2 C 0.5048(7) 0.3150(6) -0.0328(4)
C3 C 0.4322(9) 0.1469(5) 0.0307(5)
C4 C 0.3875(5) 0.2688(4) 0.0193(3)
C5 C 0.3526(5) 0.3282(4) 0.1097(3)
C6 C 0.3366(6) 0.2720(4) 0.1918(3)
C7 C 0.3051(6) 0.3286(4) 0.2731(3)
C8 C 0.2939(5) 0.4406(4) 0.2744(3)
C9 C 0.3071(5) 0.4964(4) 0.1930(3)
C10 C 0.3349(5) 0.4412(3) 0.1127(3)
C11 C 0.2699(5) 0.4975(4) 0.3596(3)
C12 C 0.2555(6) 0.5470(4) 0.4282(3)
C13 C 0.2410(6) 0.6108(4) 0.5102(3)
C14 C 0.1160(6) 0.6343(4) 0.5597(3)
C15 C 0.1050(6) 0.6981(4) 0.6357(3)
C16 C 0.2187(5) 0.7409(4) 0.6659(3)
C17 C 0.3438(5) 0.7177(4) 0.6160(3)
C18 C 0.3567(6) 0.6529(4) 0.5407(3)
C19 C 0.2091(5) 0.8150(4) 0.7451(3)
C20 C 0.2321(6) 0.9198(4) 0.7235(4)
C21 C 0.2187(7) 1.0033(5) 0.7902(5)
C22 C 0.1818(6) 0.9802(5) 0.8756(4)
C23 C 0.1575(5) 0.8722(4) 0.9023(4)
C24 C 0.1736(5) 0.7854(4) 0.8376(3)
C25 C 0.1544(5) 0.6779(4) 0.8704(3)
C26 C 0.1126(5) 0.6625(5) 0.9602(3)
C27 C 0.0943(6) 0.7493(5) 1.0217(3)
C28 C 0.1169(5) 0.8505(5) 0.9940(4)
C29 C 0.1781(5) 0.5766(4) 0.8143(3)
C30 C 0.0692(5) 0.5189(4) 0.7997(3)
C31 C 0.0853(5) 0.4287(4) 0.7446(3)
C32 C 0.2146(5) 0.3921(4) 0.7023(3)
C33 C 0.3264(5) 0.4462(4) 0.7205(3)
C34 C 0.3068(5) 0.5364(4) 0.7755(3)
C35 C 0.2298(6) 0.3046(4) 0.6391(3)
C36 C 0.2400(6) 0.2365(4) 0.5818(3)
C37 C 0.2483(6) 0.1549(4) 0.5124(3)
C38 C 0.1333(6) 0.1185(4) 0.4828(4)
C39 C 0.1412(6) 0.0427(4) 0.4155(4)
C40 C 0.2656(5) -0.0004(4) 0.3728(3)
C41 C 0.3801(6) 0.0402(4) 0.4000(3)
C42 C 0.3729(6) 0.1165(4) 0.4676(3)
C43 C 0.2739(6) -0.0875(4) 0.2969(3)
C44 C 0.1416(10) -0.1553(8) 0.3037(7)
C45 C 0.3986(10) -0.1825(8) 0.3110(7)
C46 C 0.2853(14) -0.0380(9) 0.2026(7)
H1 H 0.1878 0.2590 -0.0104
H2 H 0.2891 0.2495 -0.0968
H3 H 0.2404 0.3643 -0.0531
H4 H 0.5859 0.3057 0.0027
H5 H 0.4768 0.3917 -0.0454
H6 H 0.5255 0.2770 -0.0890
H7 H 0.5103 0.1339 0.0689
H8 H 0.4580 0.1158 -0.0279
H9 H 0.3569 0.1134 0.0581
H10 H 0.3474 0.1933 0.1928
H11 H 0.2911 0.2883 0.3287
H12 H 0.2968 0.5752 0.1921
H13 H 0.3428 0.4827 0.0570
H14 H 0.0357 0.6056 0.5408
H15 H 0.0170 0.7134 0.6686
H16 H 0.4233 0.7476 0.6348
H17 H 0.4453 0.6362 0.5088
H18 H 0.2579 0.9376 0.6617
H19 H 0.2371 1.0758 0.7731
H20 H 0.1708 1.0370 0.9198
H21 H 0.0956 0.5909 0.9811
H22 H 0.0658 0.7366 1.0840
H23 H 0.1051 0.9090 1.0368
H24 H -0.0202 0.5430 0.8284
H25 H 0.0078 0.3908 0.7354
H26 H 0.4172 0.4204 0.6945
H27 H 0.3851 0.5722 0.7874
H28 H 0.0440 0.1468 0.5097
H29 H 0.0574 0.0183 0.3977
H30 H 0.4688 0.0145 0.3710
H31 H 0.4560 0.1432 0.4838
C47? C 0.2382(19) -0.1871(12) 0.3383(11)
C48? C 0.4273(12) -0.0975(12) 0.2507(10)
C49? C 0.1829(15) -0.0250(10) 0.2208(9)
loop_
_geom_bond_atom_site_label_1
_geom_bond_atom_site_label_2
_geom_bond_site_symmetry_1
_geom_bond_site_symmetry_2
C1 C4 1_555 1_555
C2 C4 1_555 1_555
C3 C4 1_555 1_555
C4 C5 1_555 1_555
C5 C6 1_555 1_555
C6 C7 1_555 1_555
C7 C8 1_555 1_555
C8 C9 1_555 1_555
C9 C10 1_555 1_555
C10 C5 1_555 1_555
C11 C8 1_555 1_555
C12 C11 1_555 1_555
C13 C12 1_555 1_555
C14 C13 1_555 1_555
C15 C14 1_555 1_555
C16 C15 1_555 1_555
C17 C16 1_555 1_555
C18 C13 1_555 1_555
C19 C16 1_555 1_555
C20 C19 1_555 1_555
C21 C20 1_555 1_555
C22 C21 1_555 1_555
C23 C22 1_555 1_555
C24 C19 1_555 1_555
C25 C24 1_555 1_555
C26 C25 1_555 1_555
C27 C26 1_555 1_555
C28 C23 1_555 1_555
C29 C25 1_555 1_555
C30 C29 1_555 1_555
C31 C30 1_555 1_555
C32 C31 1_555 1_555
C33 C32 1_555 1_555
C34 C29 1_555 1_555
C35 C32 1_555 1_555
C36 C35 1_555 1_555
C37 C36 1_555 1_555
C38 C37 1_555 1_555
C39 C38 1_555 1_555
C40 C39 1_555 1_555
C41 C40 1_555 1_555
C42 C37 1_555 1_555
C43 C40 1_555 1_555
C44 C43 1_555 1_555
C45 C43 1_555 1_555
C46 C43 1_555 1_555
H1 C1 1_555 1_555
H2 C1 1_555 1_555
H3 C1 1_555 1_555
H4 C2 1_555 1_555
H5 C2 1_555 1_555
H6 C2 1_555 1_555
H7 C3 1_555 1_555
H8 C3 1_555 1_555
H9 C3 1_555 1_555
H10 C6 1_555 1_555
H11 C7 1_555 1_555
H12 C9 1_555 1_555
H13 C10 1_555 1_555
H14 C14 1_555 1_555
H15 C15 1_555 1_555
H16 C17 1_555 1_555
H17 C18 1_555 1_555
H18 C20 1_555 1_555
H19 C21 1_555 1_555
H20 C22 1_555 1_555
H21 C26 1_555 1_555
H22 C27 1_555 1_555
H23 C28 1_555 1_555
H24 C30 1_555 1_555
H25 C31 1_555 1_555
H26 C33 1_555 1_555
H27 C34 1_555 1_555
H28 C38 1_555 1_555
H29 C39 1_555 1_555
H30 C41 1_555 1_555
H31 C42 1_555 1_555
C17 C18 1_555 1_555
C23 C24 1_555 1_555
C27 C28 1_555 1_555
C33 C34 1_555 1_555
C41 C42 1_555 1_555

#END
