
#######################################################################
#
#                 Cambridge Crystallographic Data Centre
#                                CCDC 
#
#######################################################################
#
# If this CIF has been generated from an entry in the Cambridge 
# Structural Database, then it will include bibliographic, chemical, 
# crystal, experimental, refinement or atomic coordinate data resulting 
# from the CCDC's data processing and validation procedures.
#
#######################################################################

data_KEPBUC
_chemical_formula_moiety         'C21 H26 O4'
_chemical_name_systematic        
'(+-)-(1S*,3S*)-3-Hydroxy-8,11,11-trimethyl-9-oxobicyclo(5.3.1)undec-7-en-1-yl benzoate'
_symmetry_cell_setting           monoclinic
_symmetry_space_group_name_H-M   'P 21/n'
_symmetry_Int_Tables_number      14
_space_group_name_Hall           '-P 2yn'
loop_
_symmetry_equiv_pos_site_id
_symmetry_equiv_pos_as_xyz
1 x,y,z
2 1/2-x,1/2+y,1/2-z
3 -x,-y,-z
4 1/2+x,1/2-y,1/2+z
_cell_length_a                   7.211(2)
_cell_length_b                   19.521(6)
_cell_length_c                   12.674(3)
_cell_angle_alpha                90
_cell_angle_beta                 95.04(2)
_cell_angle_gamma                90
_cell_volume                     1777.17
_exptl_crystal_colour            colorless
_cell_formula_units_Z            4
loop_
_atom_site_label
_atom_site_type_symbol
_atom_site_fract_x
_atom_site_fract_y
_atom_site_fract_z
C1 C 0.0662(2) 0.37956(8) 0.32601(12)
C2 C -0.1067(2) 0.34693(9) 0.36805(14)
C3 C -0.1219(3) 0.32260(10) 0.48321(15)
C4 C -0.0334(3) 0.25442(10) 0.5220(2)
C5 C 0.1608(3) 0.25314(11) 0.5809(2)
C6 C 0.3259(3) 0.26494(10) 0.5136(2)
C7 C 0.3020(2) 0.33259(9) 0.45776(13)
C8 C 0.3215(2) 0.39165(9) 0.51337(13)
C9 C 0.2462(2) 0.45502(9) 0.46563(13)
C10 C 0.1126(3) 0.45146(9) 0.36766(14)
C11 C 0.2423(2) 0.33440(9) 0.33830(13)
C12 C 0.2032(3) 0.26404(10) 0.2875(2)
C13 C 0.4022(3) 0.36617(11) 0.2814(2)
O1 O -0.0752(2) 0.37429(7) 0.56067(10)
C14 C 0.4002(4) 0.39782(13) 0.6264(2)
O2 O 0.2790(2) 0.51110(6) 0.50791(10)
O3 O 0.0243(2) 0.38443(6) 0.20953(9)
C15 C -0.1127(3) 0.42479(9) 0.16516(14)
O4 O -0.2159(2) 0.45927(7) 0.21243(10)
C16 C -0.1213(3) 0.42043(9) 0.04733(14)
C17 C 0.0295(4) 0.40064(10) -0.0052(2)
C18 C 0.0110(5) 0.39691(12) -0.1159(2)
C19 C -0.1555(5) 0.41165(12) -0.1716(2)
C20 C -0.3046(5) 0.43192(12) -0.1196(2)
C21 C -0.2887(4) 0.43702(11) -0.0100(2)
H1 H -0.140(2) 0.3086(8) 0.3208(12)
H2 H -0.202(3) 0.3805(9) 0.3547(13)
H3 H -0.262(3) 0.3120(9) 0.4827(14)
H4 H -0.051(3) 0.2225(10) 0.4591(15)
H5 H -0.112(3) 0.2358(9) 0.5720(15)
H6 H 0.174(3) 0.2087(10) 0.6167(13)
H7 H 0.162(3) 0.2870(10) 0.6405(15)
H8 H 0.444(3) 0.2654(9) 0.5604(15)
H9 H 0.331(3) 0.2267(9) 0.4623(14)
H10 H 0.164(3) 0.4780(8) 0.3130(13)
H11 H 0.005(3) 0.4758(9) 0.3821(14)
H12 H 0.154(3) 0.2699(8) 0.2134(14)
H13 H 0.316(3) 0.2351(10) 0.2887(15)
H14 H 0.111(3) 0.2352(10) 0.325(2)
H15 H 0.362(3) 0.3709(9) 0.2026(15)
H16 H 0.510(3) 0.3344(10) 0.291(2)
H17 H 0.448(3) 0.4126(9) 0.3121(14)
H18 H -0.137(3) 0.4099(12) 0.544(2)
H19 H 0.470(3) 0.3569(11) 0.652(2)
H20 H 0.482(4) 0.4379(13) 0.634(2)
H21 H 0.303(4) 0.4058(13) 0.668(2)
H22 H 0.144(3) 0.3887(9) 0.0331(15)
H23 H 0.115(4) 0.3834(12) -0.147(2)
H24 H -0.163(3) 0.4067(11) -0.246(2)
H25 H -0.412(4) 0.4434(12) -0.156(2)
H26 H -0.386(3) 0.4504(11) 0.029(2)
loop_
_geom_bond_atom_site_label_1
_geom_bond_atom_site_label_2
_geom_bond_site_symmetry_1
_geom_bond_site_symmetry_2
C1 C2 1_555 1_555
C2 C3 1_555 1_555
C3 C4 1_555 1_555
C4 C5 1_555 1_555
C5 C6 1_555 1_555
C6 C7 1_555 1_555
C7 C8 1_555 1_555
C8 C9 1_555 1_555
C9 C10 1_555 1_555
C10 C1 1_555 1_555
C11 C1 1_555 1_555
C12 C11 1_555 1_555
C13 C11 1_555 1_555
O1 C3 1_555 1_555
C14 C8 1_555 1_555
O2 C9 1_555 1_555
O3 C1 1_555 1_555
C15 O3 1_555 1_555
O4 C15 1_555 1_555
C16 C15 1_555 1_555
C17 C16 1_555 1_555
C18 C17 1_555 1_555
C19 C18 1_555 1_555
C20 C19 1_555 1_555
C21 C16 1_555 1_555
H1 C2 1_555 1_555
H2 C2 1_555 1_555
H3 C3 1_555 1_555
H4 C4 1_555 1_555
H5 C4 1_555 1_555
H6 C5 1_555 1_555
H7 C5 1_555 1_555
H8 C6 1_555 1_555
H9 C6 1_555 1_555
H10 C10 1_555 1_555
H11 C10 1_555 1_555
H12 C12 1_555 1_555
H13 C12 1_555 1_555
H14 C12 1_555 1_555
H15 C13 1_555 1_555
H16 C13 1_555 1_555
H17 C13 1_555 1_555
H18 O1 1_555 1_555
H19 C14 1_555 1_555
H20 C14 1_555 1_555
H21 C14 1_555 1_555
H22 C17 1_555 1_555
H23 C18 1_555 1_555
H24 C19 1_555 1_555
H25 C20 1_555 1_555
H26 C21 1_555 1_555
C7 C11 1_555 1_555
C20 C21 1_555 1_555

#END
