
#######################################################################
#
#                 Cambridge Crystallographic Data Centre
#                                CCDC 
#
#######################################################################
#
# If this CIF has been generated from an entry in the Cambridge 
# Structural Database, then it will include bibliographic, chemical, 
# crystal, experimental, refinement or atomic coordinate data resulting 
# from the CCDC's data processing and validation procedures.
#
#######################################################################

data_KEPCOX
_chemical_formula_moiety         'C28 H34 O2 S1'
_chemical_name_systematic        
(+-)-(1R*,4S*,6S*)-1-Benzyloxy-4,8,11,11-tetramethyl-6-phenylthiobicyclo(5.3.1)undec-7-en-3-one
_symmetry_cell_setting           triclinic
_symmetry_space_group_name_H-M   'P -1'
_symmetry_Int_Tables_number      2
_space_group_name_Hall           '-P 1'
loop_
_symmetry_equiv_pos_site_id
_symmetry_equiv_pos_as_xyz
1 x,y,z
2 -x,-y,-z
_cell_length_a                   8.9868(7)
_cell_length_b                   11.2933(11)
_cell_length_c                   12.3497(6)
_cell_angle_alpha                80.937(6)
_cell_angle_beta                 73.108(5)
_cell_angle_gamma                87.405(7)
_cell_volume                     1184.33
_exptl_crystal_colour            colorless
_cell_formula_units_Z            2
loop_
_atom_site_label
_atom_site_type_symbol
_atom_site_fract_x
_atom_site_fract_y
_atom_site_fract_z
C1 C 0.8332(2) 0.28208(13) 0.71469(14)
C2 C 0.9321(2) 0.3181(2) 0.5891(2)
C3 C 0.8446(2) 0.35388(15) 0.50058(15)
C4 C 0.8432(2) 0.2718(2) 0.4140(2)
C5 C 0.8265(2) 0.1372(2) 0.4571(2)
C6 C 0.6758(2) 0.10030(14) 0.55198(15)
C7 C 0.6532(2) 0.17218(13) 0.64942(14)
C8 C 0.5553(2) 0.26585(15) 0.65330(14)
C9 C 0.5585(2) 0.3640(2) 0.7228(2)
C10 C 0.7087(2) 0.3750(2) 0.7557(2)
C11 C 0.7554(2) 0.15724(13) 0.73147(14)
C12 C 0.6494(3) 0.1243(2) 0.8550(2)
C13 C 0.8805(2) 0.0588(2) 0.7156(2)
O1 O 0.79109(15) 0.45513(10) 0.48925(11)
C14 C 0.9947(3) 0.2939(2) 0.3160(2)
C15 C 0.4390(3) 0.2935(2) 0.5859(2)
S1 S 0.68684(6) -0.06396(4) 0.57536(4)
C16 C 0.5232(2) -0.1202(2) 0.68696(15)
C17 C 0.5246(3) -0.2437(2) 0.7226(2)
C18 C 0.4028(3) -0.2986(2) 0.8086(2)
C19 C 0.2779(3) -0.2324(2) 0.8610(2)
C20 C 0.2755(3) -0.1115(2) 0.8255(2)
C21 C 0.3967(2) -0.0543(2) 0.7388(2)
O2 O 0.93598(13) 0.26460(10) 0.78652(10)
C22 C 1.0105(2) 0.3662(2) 0.8017(2)
C23 C 1.1024(2) 0.3274(2) 0.88495(15)
C24 C 1.1591(2) 0.4118(2) 0.9322(2)
C25 C 1.2458(3) 0.3780(3) 1.0085(2)
C26 C 1.2757(3) 0.2595(3) 1.0378(2)
C27 C 1.2208(3) 0.1754(3) 0.9925(2)
C28 C 1.1348(3) 0.2089(2) 0.9160(2)
H1 H 1.010(2) 0.2537(15) 0.5649(13)
H2 H 0.992(2) 0.389(2) 0.5847(14)
H3 H 0.759(2) 0.3009(15) 0.3871(14)
H4 H 0.916(2) 0.1093(14) 0.4832(13)
H5 H 0.831(2) 0.096(2) 0.393(2)
H6 H 0.596(2) 0.1193(14) 0.5173(13)
H7 H 0.538(2) 0.441(2) 0.673(2)
H8 H 0.472(2) 0.356(2) 0.787(2)
H9 H 0.688(2) 0.366(2) 0.840(2)
H10 H 0.752(2) 0.454(2) 0.7249(15)
H11 H 0.559(2) 0.178(2) 0.874(2)
H12 H 0.612(2) 0.043(2) 0.8647(15)
H13 H 0.707(2) 0.127(2) 0.907(2)
H14 H 0.938(2) 0.056(2) 0.771(2)
H15 H 0.960(2) 0.067(2) 0.642(2)
H16 H 0.834(2) -0.020(2) 0.730(2)
H17 H 1.003(3) 0.376(2) 0.287(2)
H18 H 0.997(3) 0.242(2) 0.256(2)
H19 H 1.082(3) 0.276(2) 0.344(2)
H20 H 0.406(3) 0.228(2) 0.561(2)
H21 H 0.345(3) 0.335(2) 0.633(2)
H22 H 0.478(3) 0.355(2) 0.519(2)
H23 H 0.619(2) -0.291(2) 0.685(2)
H24 H 0.408(3) -0.380(2) 0.830(2)
H25 H 0.195(3) -0.273(2) 0.924(2)
H26 H 0.195(2) -0.068(2) 0.859(2)
H27 H 0.395(2) 0.030(2) 0.7182(15)
H28 H 0.936(2) 0.425(2) 0.831(2)
H29 H 1.084(2) 0.406(2) 0.727(2)
H30 H 1.140(2) 0.494(2) 0.909(2)
H31 H 1.288(2) 0.440(2) 1.036(2)
H32 H 1.329(3) 0.234(2) 1.087(2)
H33 H 1.243(3) 0.088(2) 1.011(2)
H34 H 1.091(3) 0.150(2) 0.888(2)
loop_
_geom_bond_atom_site_label_1
_geom_bond_atom_site_label_2
_geom_bond_site_symmetry_1
_geom_bond_site_symmetry_2
C1 C2 1_555 1_555
C2 C3 1_555 1_555
C3 C4 1_555 1_555
C4 C5 1_555 1_555
C5 C6 1_555 1_555
C6 C7 1_555 1_555
C7 C8 1_555 1_555
C8 C9 1_555 1_555
C9 C10 1_555 1_555
C10 C1 1_555 1_555
C11 C1 1_555 1_555
C12 C11 1_555 1_555
C13 C11 1_555 1_555
O1 C3 1_555 1_555
C14 C4 1_555 1_555
C15 C8 1_555 1_555
S1 C6 1_555 1_555
C16 S1 1_555 1_555
C17 C16 1_555 1_555
C18 C17 1_555 1_555
C19 C18 1_555 1_555
C20 C19 1_555 1_555
C21 C16 1_555 1_555
O2 C1 1_555 1_555
C22 O2 1_555 1_555
C23 C22 1_555 1_555
C24 C23 1_555 1_555
C25 C24 1_555 1_555
C26 C25 1_555 1_555
C27 C26 1_555 1_555
C28 C23 1_555 1_555
H1 C2 1_555 1_555
H2 C2 1_555 1_555
H3 C4 1_555 1_555
H4 C5 1_555 1_555
H5 C5 1_555 1_555
H6 C6 1_555 1_555
H7 C9 1_555 1_555
H8 C9 1_555 1_555
H9 C10 1_555 1_555
H10 C10 1_555 1_555
H11 C12 1_555 1_555
H12 C12 1_555 1_555
H13 C12 1_555 1_555
H14 C13 1_555 1_555
H15 C13 1_555 1_555
H16 C13 1_555 1_555
H17 C14 1_555 1_555
H18 C14 1_555 1_555
H19 C14 1_555 1_555
H20 C15 1_555 1_555
H21 C15 1_555 1_555
H22 C15 1_555 1_555
H23 C17 1_555 1_555
H24 C18 1_555 1_555
H25 C19 1_555 1_555
H26 C20 1_555 1_555
H27 C21 1_555 1_555
H28 C22 1_555 1_555
H29 C22 1_555 1_555
H30 C24 1_555 1_555
H31 C25 1_555 1_555
H32 C26 1_555 1_555
H33 C27 1_555 1_555
H34 C28 1_555 1_555
C7 C11 1_555 1_555
C20 C21 1_555 1_555
C27 C28 1_555 1_555

#END
