
#######################################################################
#
#                 Cambridge Crystallographic Data Centre
#                                CCDC 
#
#######################################################################
#
# If this CIF has been generated from an entry in the Cambridge 
# Structural Database, then it will include bibliographic, chemical, 
# crystal, experimental, refinement or atomic coordinate data resulting 
# from the CCDC's data processing and validation procedures.
#
#######################################################################

data_KEPGAO
_chemical_formula_moiety         'C10 H10 N2 O2'
_chemical_name_systematic        \a-diazo-\b-hydroxyl-\b-phenylpropan-2-one
_symmetry_cell_setting           monoclinic
_symmetry_space_group_name_H-M   'P 21/c'
_symmetry_Int_Tables_number      14
_space_group_name_Hall           '-P 2ybc'
loop_
_symmetry_equiv_pos_site_id
_symmetry_equiv_pos_as_xyz
1 x,y,z
2 -x,1/2+y,1/2-z
3 -x,-y,-z
4 x,1/2-y,1/2+z
_cell_length_a                   12.959(3)
_cell_length_b                   5.6084(11)
_cell_length_c                   14.177(3)
_cell_angle_alpha                90.00
_cell_angle_beta                 106.51(3)
_cell_angle_gamma                90.00
_cell_volume                     987.892
_exptl_crystal_description       Block
_cell_formula_units_Z            4
loop_
_atom_site_label
_atom_site_type_symbol
_atom_site_fract_x
_atom_site_fract_y
_atom_site_fract_z
O1 O 0.50384(8) 0.1878(2) 0.10110(8)
O2 O 0.34065(10) 0.5624(2) -0.03965(9)
N1 N 0.23420(10) 0.0491(2) -0.00843(9)
N2 N 0.15377(12) -0.0408(3) -0.01970(11)
C1 C 0.39434(13) -0.0793(3) 0.16136(11)
H1 H 0.4589 -0.0987 0.2146
H2 H 0.3738 -0.2301 0.1295
H3 H 0.3377 -0.0215 0.1866
C2 C 0.41419(12) 0.0960(3) 0.08863(11)
C3 C 0.32876(11) 0.1532(3) 0.00218(11)
C4 C 0.33969(12) 0.3248(3) -0.07632(11)
H4 H 0.4093 0.2954 -0.0886
C5 C 0.25209(11) 0.2881(3) -0.17267(10)
C6 C 0.25822(13) 0.0955(3) -0.23193(12)
H5 H 0.3162 -0.0090 -0.2131
C7 C 0.17837(14) 0.0580(3) -0.31911(13)
H6 H 0.1826 -0.0722 -0.3584
C8 C 0.09259(14) 0.2127(3) -0.34782(13)
H7 H 0.0394 0.1880 -0.4068
C9 C 0.08574(14) 0.4033(4) -0.28935(14)
H8 H 0.0276 0.5072 -0.3084
C10 C 0.16519(12) 0.4413(3) -0.20206(12)
H9 H 0.1601 0.5710 -0.1628
H10 H 0.3855(18) 0.637(4) -0.0592(17)
loop_
_geom_bond_atom_site_label_1
_geom_bond_atom_site_label_2
_geom_bond_site_symmetry_1
_geom_bond_site_symmetry_2
O1 C2 1_555 1_555
O2 C4 1_555 1_555
N1 N2 1_555 1_555
C1 H1 1_555 1_555
H2 C1 1_555 1_555
H3 C1 1_555 1_555
C2 C1 1_555 1_555
C3 N1 1_555 1_555
C4 C3 1_555 1_555
H4 C4 1_555 1_555
C5 C4 1_555 1_555
C6 C5 1_555 1_555
H5 C6 1_555 1_555
C7 C6 1_555 1_555
H6 C7 1_555 1_555
C8 C7 1_555 1_555
H7 C8 1_555 1_555
C9 C8 1_555 1_555
H8 C9 1_555 1_555
C10 C5 1_555 1_555
H9 C10 1_555 1_555
H10 O2 1_555 1_555
C2 C3 1_555 1_555
C9 C10 1_555 1_555

#END
