
#######################################################################
#
#                 Cambridge Crystallographic Data Centre
#                                CCDC 
#
#######################################################################
#
# If this CIF has been generated from an entry in the Cambridge 
# Structural Database, then it will include bibliographic, chemical, 
# crystal, experimental, refinement or atomic coordinate data resulting 
# from the CCDC's data processing and validation procedures.
#
#######################################################################

data_KEPKEX
_chemical_formula_moiety         'C19 H22 O4'
_chemical_name_systematic        
'Methyl 5-methoxy-6-methyl-6,6a,6b,8,9,10a-hexahydro-5H-benzo[4,5]indeno[1,2-b]furan-10-carboxylate'
_symmetry_cell_setting           orthorhombic
_symmetry_space_group_name_H-M   'P 21 21 21'
_symmetry_Int_Tables_number      19
_space_group_name_Hall           'P 2ac 2ab'
loop_
_symmetry_equiv_pos_site_id
_symmetry_equiv_pos_as_xyz
1 x,y,z
2 1/2-x,-y,1/2+z
3 -x,1/2+y,1/2-z
4 1/2+x,1/2-y,-z
_cell_length_a                   8.3073(4)
_cell_length_b                   8.9922(4)
_cell_length_c                   21.1824(10)
_cell_angle_alpha                90
_cell_angle_beta                 90
_cell_angle_gamma                90
_cell_volume                     1582.34
_exptl_crystal_colour            colorless
_exptl_crystal_description       block
_cell_formula_units_Z            4
loop_
_atom_site_label
_atom_site_type_symbol
_atom_site_fract_x
_atom_site_fract_y
_atom_site_fract_z
O1 O 0.80913(11) 0.09143(11) -0.04005(4)
O2 O 0.69762(12) 0.70116(11) 0.22492(5)
O3 O 0.51393(13) 0.66818(11) 0.14887(5)
O4 O 0.81818(12) 0.17556(10) 0.23518(4)
C1 C 0.74229(15) 0.18272(15) 0.00809(6)
H1 H 0.6294(18) 0.1624(16) 0.0137(6)
C2 C 0.76581(15) 0.34593(16) -0.00656(6)
C3 C 0.81858(16) 0.39440(17) -0.06537(6)
H2 H 0.8307(17) 0.3248(16) -0.1009(7)
C4 C 0.85419(18) 0.54350(17) -0.07563(6)
H3 H 0.896(2) 0.5746(19) -0.1175(8)
C5 C 0.83765(19) 0.64512(17) -0.02734(7)
H4 H 0.872(3) 0.744(2) -0.0349(9)
C6 C 0.78327(17) 0.59813(16) 0.03151(6)
H5 H 0.770(2) 0.667(2) 0.0685(8)
C7 C 0.74656(15) 0.44894(14) 0.04245(6)
C8 C 0.68127(15) 0.39357(13) 0.10489(5)
H6 H 0.5643(18) 0.3879(16) 0.0974(7)
C9 C 0.71934(15) 0.48753(14) 0.16245(6)
C10 C 0.81634(15) 0.41639(14) 0.20248(5)
C11 C 0.86427(17) 0.42751(16) 0.26992(6)
H7 H 0.980(2) 0.4787(17) 0.2751(8)
H8 H 0.780(2) 0.486(2) 0.2968(8)
C12 C 0.87528(19) 0.26154(16) 0.28828(6)
H9 H 0.804(2) 0.2445(19) 0.3222(8)
H10 H 0.985(2) 0.2252(19) 0.3009(9)
C13 C 0.85480(15) 0.26279(14) 0.18043(6)
H11 H 0.969(2) 0.2478(17) 0.1698(8)
C14 C 0.74519(15) 0.23538(13) 0.12352(5)
H12 H 0.6520(19) 0.1740(17) 0.1381(7)
C15 C 0.82775(15) 0.14882(14) 0.07041(6)
H13 H 0.948(2) 0.1882(19) 0.0673(8)
C16 C 0.6958(2) 0.02558(19) -0.08024(7)
H14 H 0.623(3) 0.100(2) -0.1003(10)
H15 H 0.755(2) -0.0363(18) -0.1131(8)
H16 H 0.626(2) -0.031(2) -0.0568(9)
C17 C 0.63226(16) 0.62684(14) 0.17651(6)
C18 C 0.8340(2) -0.01643(16) 0.08513(7)
H17 H 0.721(2) -0.0624(18) 0.0836(8)
H18 H 0.881(2) -0.035(2) 0.1273(9)
H19 H 0.900(2) -0.0680(19) 0.0524(8)
C19 C 0.6132(2) 0.83413(18) 0.24459(8)
H20 H 0.503(3) 0.801(3) 0.2501(12)
H21 H 0.676(3) 0.869(2) 0.2793(10)
H22 H 0.612(3) 0.905(3) 0.2129(11)
loop_
_geom_bond_atom_site_label_1
_geom_bond_atom_site_label_2
_geom_bond_site_symmetry_1
_geom_bond_site_symmetry_2
O1 C1 1_555 1_555
O2 C17 1_555 1_555
O3 C17 1_555 1_555
O4 C12 1_555 1_555
C1 H1 1_555 1_555
C2 C1 1_555 1_555
C3 C2 1_555 1_555
H2 C3 1_555 1_555
C4 C3 1_555 1_555
H3 C4 1_555 1_555
C5 C4 1_555 1_555
H4 C5 1_555 1_555
C6 C5 1_555 1_555
H5 C6 1_555 1_555
C7 C2 1_555 1_555
C8 C7 1_555 1_555
H6 C8 1_555 1_555
C9 C8 1_555 1_555
C10 C9 1_555 1_555
C11 C10 1_555 1_555
H7 C11 1_555 1_555
H8 C11 1_555 1_555
C12 C11 1_555 1_555
H9 C12 1_555 1_555
H10 C12 1_555 1_555
C13 O4 1_555 1_555
H11 C13 1_555 1_555
C14 C8 1_555 1_555
H12 C14 1_555 1_555
C15 C1 1_555 1_555
H13 C15 1_555 1_555
C16 O1 1_555 1_555
H14 C16 1_555 1_555
H15 C16 1_555 1_555
H16 C16 1_555 1_555
C17 C9 1_555 1_555
C18 C15 1_555 1_555
H17 C18 1_555 1_555
H18 C18 1_555 1_555
H19 C18 1_555 1_555
C19 O2 1_555 1_555
H20 C19 1_555 1_555
H21 C19 1_555 1_555
H22 C19 1_555 1_555
C6 C7 1_555 1_555
C10 C13 1_555 1_555
C13 C14 1_555 1_555
C14 C15 1_555 1_555

#END
