
#######################################################################
#
#                 Cambridge Crystallographic Data Centre
#                                CCDC 
#
#######################################################################
#
# If this CIF has been generated from an entry in the Cambridge 
# Structural Database, then it will include bibliographic, chemical, 
# crystal, experimental, refinement or atomic coordinate data resulting 
# from the CCDC's data processing and validation procedures.
#
#######################################################################

data_KEPLUN
_chemical_formula_moiety         'C20 H21 N1 O1'
_chemical_name_systematic        
3,6-Dibenzyl-1-methyl-3,6-dihydro-1H-pyridin-2-one
_symmetry_cell_setting           orthorhombic
_symmetry_space_group_name_H-M   'P 21 21 21'
_symmetry_Int_Tables_number      19
_space_group_name_Hall           'P 2ac 2ab'
loop_
_symmetry_equiv_pos_site_id
_symmetry_equiv_pos_as_xyz
1 x,y,z
2 1/2-x,-y,1/2+z
3 1/2+x,1/2-y,-z
4 -x,1/2+y,1/2-z
_cell_length_a                   8.914(2)
_cell_length_b                   12.872(2)
_cell_length_c                   14.088(2)
_cell_angle_alpha                90
_cell_angle_beta                 90
_cell_angle_gamma                90
_cell_volume                     1616.47
_exptl_crystal_colour            colorless
_exptl_crystal_description       block
_cell_formula_units_Z            4
loop_
_atom_site_label
_atom_site_type_symbol
_atom_site_fract_x
_atom_site_fract_y
_atom_site_fract_z
O1 O 0.8861(2) -0.00129(10) 0.3518(1)
N1 N 1.0971(2) 0.0925(1) 0.3272(1)
C1 C 1.1768(2) 0.1858(2) 0.2957(1)
C2 C 0.9465(2) 0.0817(1) 0.3302(1)
C3 C 0.8518(2) 0.1771(2) 0.3083(1)
C4 C 0.9382(2) 0.2767(1) 0.3182(1)
C5 C 1.0847(2) 0.2809(1) 0.3112(2)
C6 C 1.1903(2) 0.0016(2) 0.3490(2)
C7 C 0.7068(2) 0.1771(2) 0.3685(1)
C8 C 0.6096(2) 0.2719(1) 0.3523(1)
C9 C 0.5685(3) 0.3348(2) 0.4271(1)
C10 C 0.4808(3) 0.4229(2) 0.4138(1)
C11 C 0.4328(2) 0.4494(2) 0.3238(2)
C12 C 0.4732(2) 0.3872(1) 0.2475(1)
C13 C 0.5606(2) 0.2995(1) 0.2615(1)
C14 C 1.2276(2) 0.1768(2) 0.1903(1)
C15 C 1.0988(2) 0.1583(1) 0.1233(1)
C16 C 1.0109(2) 0.2399(1) 0.0895(1)
C17 C 0.8856(3) 0.2205(2) 0.0346(1)
C18 C 0.8466(3) 0.1203(2) 0.0112(1)
C19 C 0.9351(3) 0.0385(2) 0.0421(1)
C20 C 1.0597(3) 0.0572(1) 0.0972(1)
H1 H 1.2648 0.1921 0.3334
H2 H 0.8220 0.1719 0.2437
H3 H 0.8845 0.3392 0.3298
H4 H 1.1335 0.3464 0.3163
H5 H 1.2270 0.0068 0.4121
H6 H 1.1318 -0.0598 0.3429
H7 H 1.2723 -0.0012 0.3060
H8 H 0.6502 0.1170 0.3529
H9 H 0.7340 0.1748 0.4337
H10 H 0.6011 0.3175 0.4894
H11 H 0.4539 0.4649 0.4667
H12 H 0.3728 0.5096 0.3142
H13 H 0.4409 0.4049 0.1853
H14 H 0.5874 0.2574 0.2087
H15 H 1.2763 0.2396 0.1727
H16 H 1.2961 0.1206 0.1849
H17 H 1.0374 0.3095 0.1045
H18 H 0.8257 0.2768 0.0129
H19 H 0.7596 0.1072 -0.0260
H20 H 0.9096 -0.0308 0.0251
H21 H 1.1197 0.0005 0.1178
loop_
_geom_bond_atom_site_label_1
_geom_bond_atom_site_label_2
_geom_bond_site_symmetry_1
_geom_bond_site_symmetry_2
O1 C2 1_555 1_555
N1 C1 1_555 1_555
C1 C5 1_555 1_555
C2 N1 1_555 1_555
C3 C2 1_555 1_555
C4 C3 1_555 1_555
C5 C4 1_555 1_555
C6 N1 1_555 1_555
C7 C3 1_555 1_555
C8 C7 1_555 1_555
C9 C8 1_555 1_555
C10 C9 1_555 1_555
C11 C10 1_555 1_555
C12 C11 1_555 1_555
C13 C8 1_555 1_555
C14 C1 1_555 1_555
C15 C14 1_555 1_555
C16 C15 1_555 1_555
C17 C16 1_555 1_555
C18 C17 1_555 1_555
C19 C18 1_555 1_555
C20 C15 1_555 1_555
H1 C1 1_555 1_555
H2 C3 1_555 1_555
H3 C4 1_555 1_555
H4 C5 1_555 1_555
H5 C6 1_555 1_555
H6 C6 1_555 1_555
H7 C6 1_555 1_555
H8 C7 1_555 1_555
H9 C7 1_555 1_555
H10 C9 1_555 1_555
H11 C10 1_555 1_555
H12 C11 1_555 1_555
H13 C12 1_555 1_555
H14 C13 1_555 1_555
H15 C14 1_555 1_555
H16 C14 1_555 1_555
H17 C16 1_555 1_555
H18 C17 1_555 1_555
H19 C18 1_555 1_555
H20 C19 1_555 1_555
H21 C20 1_555 1_555
C12 C13 1_555 1_555
C19 C20 1_555 1_555

#END
