
#######################################################################
#
#                 Cambridge Crystallographic Data Centre
#                                CCDC 
#
#######################################################################
#
# If this CIF has been generated from an entry in the Cambridge 
# Structural Database, then it will include bibliographic, chemical, 
# crystal, experimental, refinement or atomic coordinate data resulting 
# from the CCDC's data processing and validation procedures.
#
#######################################################################

data_KEPMOJ
_chemical_formula_moiety         'C21 H19 N1 O3'
_chemical_name_systematic        
1-Benzyl-3-(2-cyclopropyl-2-oxoethylidene)-5-methoxy-1,3-dihydro-2H-indol-2-one
_symmetry_cell_setting           monoclinic
_symmetry_space_group_name_H-M   'P 21/n'
_symmetry_Int_Tables_number      14
_space_group_name_Hall           '-P 2yn'
loop_
_symmetry_equiv_pos_site_id
_symmetry_equiv_pos_as_xyz
1 x,y,z
2 1/2-x,1/2+y,1/2-z
3 -x,-y,-z
4 1/2+x,1/2-y,1/2+z
_cell_length_a                   15.3189(11)
_cell_length_b                   5.6229(4)
_cell_length_c                   19.5152(14)
_cell_angle_alpha                90
_cell_angle_beta                 90.185(2)
_cell_angle_gamma                90
_cell_volume                     1680.97
_exptl_crystal_colour            brown
_exptl_crystal_description       prismatic
_cell_formula_units_Z            4
loop_
_atom_site_label
_atom_site_type_symbol
_atom_site_fract_x
_atom_site_fract_y
_atom_site_fract_z
O1 O 0.06373(8) 0.7754(2) 0.00643(5)
O2 O -0.03558(9) 0.4608(2) 0.24314(6)
O3 O 0.13037(9) 1.0620(3) 0.36174(6)
N1 N 0.12804(8) 1.0396(2) 0.07987(6)
C1 C 0.07958(10) 0.8446(3) 0.06395(7)
C2 C 0.04962(9) 0.7370(3) 0.13068(7)
C3 C 0.08745(9) 0.8858(3) 0.18398(7)
C4 C 0.13359(9) 1.0673(3) 0.15143(8)
C5 C 0.17681(10) 1.2405(3) 0.18789(9)
H1 H 0.2078 1.3599 0.1657
C6 C 0.17276(11) 1.2312(3) 0.25841(9)
H2 H 0.2010 1.3474 0.2841
C7 C 0.12772(11) 1.0535(3) 0.29149(8)
C8 C 0.08458(10) 0.8773(3) 0.25501(8)
H3 H 0.0546 0.7568 0.2775
C9 C -0.00320(10) 0.5475(3) 0.12729(7)
H4 H -0.0136 0.4892 0.0834
C10 C -0.04739(10) 0.4176(3) 0.18311(7)
C11 C -0.11034(11) 0.2365(3) 0.16050(8)
H5 H -0.1107 0.1972 0.1116
C12 C -0.19718(12) 0.2311(4) 0.19678(11)
H6 H -0.2066 0.3453 0.2333
H7 H -0.2486 0.1937 0.1697
C13 C -0.13454(11) 0.0417(3) 0.20897(10)
H8 H -0.1473 -0.1134 0.1897
H9 H -0.1054 0.0381 0.2531
C14 C 0.08049(17) 0.8932(5) 0.39755(10)
H10 H 0.0201 0.9104 0.3853
H11 H 0.0874 0.9177 0.4459
H12 H 0.0999 0.7361 0.3858
C15 C 0.15566(11) 1.2100(3) 0.02879(9)
H13 H 0.1621 1.3636 0.0509
H14 H 0.1095 1.2249 -0.0051
C16 C 0.23912(10) 1.1536(3) -0.00780(8)
C17 C 0.26431(13) 1.3043(4) -0.05974(9)
H15 H 0.2296 1.4347 -0.0706
C18 C 0.33960(16) 1.2654(5) -0.09571(11)
H16 H 0.3555 1.3690 -0.1306
C19 C 0.39088(16) 1.0762(5) -0.08049(13)
H17 H 0.4419 1.0492 -0.1050
C20 C 0.36736(16) 0.9266(4) -0.02937(14)
H18 H 0.4027 0.7970 -0.0189
C21 C 0.29178(13) 0.9636(3) 0.00748(10)
H19 H 0.2766 0.8598 0.0426
loop_
_geom_bond_atom_site_label_1
_geom_bond_atom_site_label_2
_geom_bond_site_symmetry_1
_geom_bond_site_symmetry_2
O1 C1 1_555 1_555
O2 C10 1_555 1_555
O3 C7 1_555 1_555
N1 C1 1_555 1_555
C1 C2 1_555 1_555
C2 C3 1_555 1_555
C3 C4 1_555 1_555
C4 N1 1_555 1_555
C5 C4 1_555 1_555
H1 C5 1_555 1_555
C6 C5 1_555 1_555
H2 C6 1_555 1_555
C7 C6 1_555 1_555
C8 C3 1_555 1_555
H3 C8 1_555 1_555
C9 C2 1_555 1_555
H4 C9 1_555 1_555
C10 C9 1_555 1_555
C11 C10 1_555 1_555
H5 C11 1_555 1_555
C12 C11 1_555 1_555
H6 C12 1_555 1_555
H7 C12 1_555 1_555
C13 C11 1_555 1_555
H8 C13 1_555 1_555
H9 C13 1_555 1_555
C14 O3 1_555 1_555
H10 C14 1_555 1_555
H11 C14 1_555 1_555
H12 C14 1_555 1_555
C15 N1 1_555 1_555
H13 C15 1_555 1_555
H14 C15 1_555 1_555
C16 C15 1_555 1_555
C17 C16 1_555 1_555
H15 C17 1_555 1_555
C18 C17 1_555 1_555
H16 C18 1_555 1_555
C19 C18 1_555 1_555
H17 C19 1_555 1_555
C20 C19 1_555 1_555
H18 C20 1_555 1_555
C21 C16 1_555 1_555
H19 C21 1_555 1_555
C7 C8 1_555 1_555
C12 C13 1_555 1_555
C20 C21 1_555 1_555

#END
