
#######################################################################
#
#                 Cambridge Crystallographic Data Centre
#                                CCDC 
#
#######################################################################
#
# If this CIF has been generated from an entry in the Cambridge 
# Structural Database, then it will include bibliographic, chemical, 
# crystal, experimental, refinement or atomic coordinate data resulting 
# from the CCDC's data processing and validation procedures.
#
#######################################################################

data_KEPNOL
_chemical_formula_moiety         'C16 H19 Cl1 N4 O4'
_chemical_name_systematic        
'2-t-butyl 1-ethyl 1-(6-chloro-9H-purin-9-yl)cyclopropane-1,2-dicarboxylate'
_symmetry_cell_setting           monoclinic
_symmetry_space_group_name_H-M   'P 21'
_symmetry_Int_Tables_number      4
_space_group_name_Hall           'P 2yb'
loop_
_symmetry_equiv_pos_site_id
_symmetry_equiv_pos_as_xyz
1 x,y,z
2 -x,1/2+y,-z
_cell_length_a                   11.9233(2)
_cell_length_b                   6.61720(10)
_cell_length_c                   12.8426(2)
_cell_angle_alpha                90
_cell_angle_beta                 114.744(2)
_cell_angle_gamma                90
_cell_volume                     920.235
_exptl_crystal_colour            'light colorless'
_exptl_crystal_description       'rectangular prism'
_cell_formula_units_Z            2
loop_
_atom_site_label
_atom_site_type_symbol
_atom_site_fract_x
_atom_site_fract_y
_atom_site_fract_z
Cl1 Cl 0.82777(13) 0.9082(2) 0.15220(13)
O1 O 0.6616(2) 0.3150(5) 0.41195(19)
N1 N 0.5104(2) 0.5602(4) 0.2323(2)
O2 O 0.2057(2) 0.4057(6) 0.1916(3)
O3 O 0.2711(3) 0.6898(6) 0.1410(3)
N2 N 0.7120(3) 0.5815(6) 0.0487(3)
N3 N 0.5541(3) 0.4049(6) 0.0814(2)
N4 N 0.6435(3) 0.8209(5) 0.2754(3)
O4 O 0.5809(3) 0.2846(8) 0.5403(2)
C1 C 0.6515(3) 0.7044(6) 0.1897(3)
C2 C 0.5695(2) 0.5423(5) 0.1607(2)
C3 C 0.4464(3) 0.2985(6) 0.3454(3)
H1 H 0.3768 0.2772 0.3658
C4 C 0.5700(3) 0.2995(6) 0.4445(3)
C5 C 0.4169(3) 0.4316(6) 0.2388(3)
C6 C 0.4298(3) 0.2079(6) 0.2325(3)
H2 H 0.5028 0.1573 0.2258
H3 H 0.3552 0.1304 0.1909
C7 C 0.5591(4) 0.7286(6) 0.2974(3)
H4 H 0.5341 0.7737 0.3530
C8 C 0.2904(3) 0.5270(7) 0.1846(3)
C9 C 0.7223(3) 0.7157(7) 0.1274(3)
C10 C 0.6287(3) 0.4350(8) 0.0301(3)
H5 H 0.6223 0.3417 -0.0263
C11 C 0.7926(3) 0.3047(7) 0.4942(3)
C12 C 0.8180(4) 0.0989(10) 0.5497(5)
C13 C 0.0783(4) 0.4715(10) 0.1329(4)
H6 H 0.0559 0.4867 0.0514
H7 H 0.0669 0.6004 0.1630
C14 C 0.8573(4) 0.3277(13) 0.4163(5)
H8 H 0.8329 0.2199 0.3612
H9 H 0.9450 0.3229 0.4609
H10 H 0.8352 0.4550 0.3771
C15 C 0.8218(5) 0.4776(11) 0.5783(6)
H11 H 0.8122 0.6034 0.5382
H12 H 0.9053 0.4652 0.6350
H13 H 0.7664 0.4739 0.6151
C16 C 0.0010(4) 0.3153(12) 0.1524(6)
H14 H -0.0846 0.3476 0.1090
H15 H 0.0186 0.3105 0.2325
H16 H 0.0185 0.1862 0.1285
loop_
_geom_bond_atom_site_label_1
_geom_bond_atom_site_label_2
_geom_bond_site_symmetry_1
_geom_bond_site_symmetry_2
Cl1 C9 1_555 1_555
O1 C4 1_555 1_555
N1 C2 1_555 1_555
O2 C8 1_555 1_555
O3 C8 1_555 1_555
N2 C9 1_555 1_555
N3 C2 1_555 1_555
N4 C1 1_555 1_555
O4 C4 1_555 1_555
C1 C2 1_555 1_555
C3 H1 1_555 1_555
C4 C3 1_555 1_555
C5 N1 1_555 1_555
C6 C3 1_555 1_555
H2 C6 1_555 1_555
H3 C6 1_555 1_555
C7 N1 1_555 1_555
H4 C7 1_555 1_555
C8 C5 1_555 1_555
C9 C1 1_555 1_555
C10 N2 1_555 1_555
H5 C10 1_555 1_555
C11 O1 1_555 1_555
C12 C11 1_555 1_555
C13 O2 1_555 1_555
H6 C13 1_555 1_555
H7 C13 1_555 1_555
C14 C11 1_555 1_555
H8 C14 1_555 1_555
H9 C14 1_555 1_555
H10 C14 1_555 1_555
C15 C11 1_555 1_555
H11 C15 1_555 1_555
H12 C15 1_555 1_555
H13 C15 1_555 1_555
C16 C13 1_555 1_555
H14 C16 1_555 1_555
H15 C16 1_555 1_555
H16 C16 1_555 1_555
N3 C10 1_555 1_555
N4 C7 1_555 1_555
C3 C5 1_555 1_555
C5 C6 1_555 1_555

#END
