
#######################################################################
#
#                 Cambridge Crystallographic Data Centre
#                                CCDC 
#
#######################################################################
#
# If this CIF has been generated from an entry in the Cambridge 
# Structural Database, then it will include bibliographic, chemical, 
# crystal, experimental, refinement or atomic coordinate data resulting 
# from the CCDC's data processing and validation procedures.
#
#######################################################################

data_KEPPUT
_chemical_formula_moiety         'C30 H34 O1 Si1'
_chemical_name_systematic        
2-(4-{[triisopropylsilyl]ethynyl}-1,2-dihydroacenaphthylen-5-yl)benzaldehyde
_symmetry_cell_setting           triclinic
_symmetry_space_group_name_H-M   'P 1'
_symmetry_Int_Tables_number      1
_space_group_name_Hall           'P 1'
loop_
_symmetry_equiv_pos_site_id
_symmetry_equiv_pos_as_xyz
1 x,y,z
_cell_length_a                   7.9797(4)
_cell_length_b                   8.6609(4)
_cell_length_c                   20.1808(8)
_cell_angle_alpha                78.139(4)
_cell_angle_beta                 81.308(4)
_cell_angle_gamma                89.151(3)
_cell_volume                     1349.08
_exptl_crystal_colour            colorless
_exptl_crystal_description       plate
_cell_formula_units_Z            2
loop_
_atom_site_label
_atom_site_type_symbol
_atom_site_fract_x
_atom_site_fract_y
_atom_site_fract_z
Si1 Si 0.66221(17) 0.59653(16) 0.16622(7)
C1 C 0.1781(4) 0.3963(4) 0.50441(18)
C2 C 0.2966(4) 0.3215(4) 0.39867(17)
C3 C 0.3181(5) 0.5941(4) 0.4144(2)
H1 H 0.3566 0.6973 0.3968
C4 C 0.1451(5) 0.1253(4) 0.5004(2)
H2 H 0.1615 0.0412 0.4781
C5 C 0.0930(4) 0.3708(5) 0.57226(19)
C6 C 0.2314(4) 0.5534(4) 0.47975(18)
C7 C 0.3366(4) 0.1988(4) 0.35649(17)
C8 C 0.1801(5) 0.6469(5) 0.5347(2)
H3 H 0.1052 0.7317 0.5195
H4 H 0.2788 0.6914 0.5472
C9 C 0.0358(5) 0.2229(6) 0.6036(2)
H5 H -0.0188 0.2025 0.6487
C10 C 0.4444(5) 0.5218(4) 0.3061(2)
C11 C 0.0874(5) 0.5247(5) 0.5959(2)
H6 H 0.1442 0.5161 0.6357
H7 H -0.0290 0.5553 0.6077
C12 C 0.2127(4) 0.1355(4) 0.32814(17)
C13 C 0.5260(6) 0.5575(5) 0.2498(2)
C14 C 0.2062(4) 0.2770(4) 0.46667(18)
C15 C 0.5002(5) 0.1427(5) 0.3473(2)
H8 H 0.5847 0.1859 0.3653
C16 C 0.0610(6) 0.1013(5) 0.5667(2)
H9 H 0.0192 0.0007 0.5878
C17 C 0.0413(5) 0.1914(6) 0.3349(2)
H10 H 0.0208 0.2813 0.3532
C18 C 0.4182(7) -0.0363(5) 0.2835(3)
H11 H 0.4465 -0.1140 0.2583
C19 C 0.2562(6) 0.0153(5) 0.2916(2)
H12 H 0.1739 -0.0291 0.2728
C20 C 0.3486(4) 0.4777(4) 0.37409(18)
C21 C 0.5392(6) 0.0244(5) 0.3120(3)
H13 H 0.6487 -0.0145 0.3075
O1 O -0.0777(4) 0.1317(6) 0.3189(2)
C22 C 0.8787(10) 0.6429(14) 0.1789(5)
H14 H 0.9556 0.6291 0.1379
C23 C 0.5807(15) 0.7720(17) 0.1101(5)
H15 H 0.6106 0.8559 0.1324
C24 C 0.6478(18) 0.4171(15) 0.1286(6)
H16 H 0.6828 0.4501 0.0790
C25 C 0.4098(18) 0.7983(17) 0.1105(5)
H17 H 0.3736 0.7624 0.0729
H18 H 0.3889 0.9092 0.1061
H19 H 0.3477 0.7418 0.1528
C26 C 0.491(3) 0.3422(16) 0.1383(6)
H20 H 0.4476 0.3165 0.1864
H21 H 0.5029 0.2472 0.1206
H22 H 0.4139 0.4110 0.1147
C27 C 0.886(3) 0.832(3) 0.1820(14)
H23 H 0.9768 0.8509 0.2056
H24 H 0.7804 0.8607 0.2058
H25 H 0.9044 0.8944 0.1362
C28 C 0.682(2) 0.8244(19) 0.0407(6)
H26 H 0.7947 0.8541 0.0453
H27 H 0.6291 0.9132 0.0157
H28 H 0.6882 0.7395 0.0164
C29 C 0.951(3) 0.565(4) 0.2362(13)
H29 H 0.9288 0.6235 0.2721
H30 H 1.0709 0.5572 0.2234
H31 H 0.9015 0.4610 0.2522
C30 C 0.786(6) 0.294(2) 0.1571(18)
H32 H 0.8960 0.3451 0.1468
H33 H 0.7887 0.2051 0.1356
H34 H 0.7567 0.2599 0.2058
Si2 Si 0.18559(19) 0.39909(18) 0.87796(7)
C34 C 0.6448(4) 0.7069(4) 0.57707(17)
C35 C 0.5021(4) 0.5132(4) 0.67131(19)
C36 C 0.5643(3) 0.6661(4) 0.64640(17)
C37 C 0.5581(4) 0.7856(4) 0.69054(17)
C38 C 0.6638(4) 0.5870(4) 0.53896(18)
C39 C 0.7449(5) 0.6108(6) 0.4702(2)
C40 C 0.6072(4) 0.4308(5) 0.5655(2)
C41 C 0.5246(5) 0.3949(5) 0.6302(2)
H46 H 0.4821 0.2931 0.6484
C42 C 0.4108(5) 0.4720(5) 0.7398(2)
C43 C 0.7788(6) 0.8815(6) 0.4737(2)
H47 H 0.8150 0.9828 0.4511
C44 C 0.7055(5) 0.8578(5) 0.5409(2)
H48 H 0.6954 0.9423 0.5630
C45 C 0.4109(4) 0.8608(4) 0.71196(17)
C46 C 0.3262(6) 0.4363(6) 0.7947(3)
C47 C 0.6525(6) 0.3377(6) 0.5098(3)
H49 H 0.5511 0.2967 0.4979
H50 H 0.7244 0.2500 0.5246
C48 C 0.8010(6) 0.7598(7) 0.4384(2)
H51 H 0.8540 0.7793 0.3931
C49 C 0.7481(6) 0.4555(7) 0.4478(3)
H52 H 0.8638 0.4225 0.4366
H53 H 0.6916 0.4631 0.4079
C50 C 0.4160(5) 0.9746(5) 0.7510(2)
H54 H 0.3168 1.0238 0.7655
C51 C 0.7092(4) 0.8287(5) 0.7093(2)
H55 H 0.8095 0.7808 0.6951
C52 C 0.5689(5) 1.0152(5) 0.7685(2)
H56 H 0.5732 1.0930 0.7938
C53 C 0.7120(5) 0.9401(5) 0.7482(2)
H57 H 0.8139 0.9649 0.7610
O2 O 0.1130(3) 0.8693(4) 0.71616(18)
C54 C 0.2709(14) 0.2221(15) 0.9299(5)
H58 H 0.2584 0.1403 0.9039
C55 C -0.0298(9) 0.3557(14) 0.8624(5)
H59 H -0.1054 0.3456 0.9062
C56 C 0.1998(19) 0.582(2) 0.9116(7)
H60 H 0.1615 0.6629 0.8758
C57 C 0.2464(4) 0.8231(5) 0.6933(2)
H61 H 0.2470 0.7590 0.6615
C58 C 0.377(2) 0.638(2) 0.9130(7)
H62 H 0.4490 0.5484 0.9225
H63 H 0.3752 0.6982 0.9480
H64 H 0.4211 0.7026 0.8694
C59 C -0.0922(13) 0.4965(19) 0.8123(6)
H65 H -0.0606 0.5934 0.8235
H66 H -0.2134 0.4900 0.8159
H67 H -0.0415 0.4935 0.7663
C60 C -0.0309(17) 0.192(2) 0.8411(9)
H68 H 0.0502 0.1946 0.8005
H69 H -0.1419 0.1705 0.8320
H70 H -0.0016 0.1115 0.8775
C61 C 0.143(2) 0.1633(18) 0.9990(6)
H71 H 0.1303 0.2449 1.0251
H72 H 0.1861 0.0705 1.0254
H73 H 0.0343 0.1392 0.9881
C62 C 0.4519(18) 0.219(2) 0.9345(6)
H74 H 0.5151 0.2596 0.8900
H75 H 0.4848 0.1130 0.9508
H76 H 0.4748 0.2839 0.9656
C63 C 0.084(4) 0.598(4) 0.9722(15)
H77 H -0.0196 0.5417 0.9740
H78 H 0.0604 0.7080 0.9705
H79 H 0.1346 0.5565 1.0122
H35? H 0.9449 0.6945 0.1352
H36? H 0.6832 0.3467 0.1684
C31? C 0.767(6) 0.368(4) 0.086(2)
H37? H 0.8688 0.3499 0.1060
H38? H 0.7896 0.4473 0.0442
H39? H 0.7306 0.2720 0.0752
C32? C 0.886(3) 0.738(4) 0.2314(16)
H40? H 0.8658 0.8469 0.2126
H41? H 0.9967 0.7297 0.2453
H42? H 0.8019 0.7007 0.2704
C33? C 0.940(5) 0.471(3) 0.2009(18)
H43? H 0.9359 0.4459 0.2497
H44? H 1.0543 0.4627 0.1791
H45? H 0.8676 0.3994 0.1875
H80? H -0.0461 0.2457 0.8869
H81? H 0.1711 0.5345 0.9605
C64? C 0.085(6) 0.687(5) 0.908(2)
H82? H -0.0199 0.6416 0.9344
H83? H 0.0700 0.7237 0.8614
H84? H 0.1185 0.7735 0.9265
C65? C -0.194(4) 0.438(6) 0.899(2)
H85? H -0.1679 0.5466 0.8979
H86? H -0.2231 0.3835 0.9460
H87? H -0.2890 0.4326 0.8754
C66? C -0.084(4) 0.345(6) 0.7908(18)
H88? H -0.0510 0.4416 0.7583
H89? H -0.2042 0.3304 0.7963
H90? H -0.0281 0.2582 0.7746
loop_
_geom_bond_atom_site_label_1
_geom_bond_atom_site_label_2
_geom_bond_site_symmetry_1
_geom_bond_site_symmetry_2
Si1 C13 1_555 1_555
C1 C5 1_555 1_555
C2 C7 1_555 1_555
C3 H1 1_555 1_555
C4 H2 1_555 1_555
C5 C9 1_555 1_555
C6 C1 1_555 1_555
C7 C12 1_555 1_555
C8 C6 1_555 1_555
H3 C8 1_555 1_555
H4 C8 1_555 1_555
C9 H5 1_555 1_555
C10 C13 1_555 1_555
C11 C5 1_555 1_555
H6 C11 1_555 1_555
H7 C11 1_555 1_555
C12 C17 1_555 1_555
C14 C1 1_555 1_555
C15 C7 1_555 1_555
H8 C15 1_555 1_555
C16 C4 1_555 1_555
H9 C16 1_555 1_555
C17 H10 1_555 1_555
C18 H11 1_555 1_555
C19 C12 1_555 1_555
H12 C19 1_555 1_555
C20 C2 1_555 1_555
C21 C15 1_555 1_555
H13 C21 1_555 1_555
O1 C17 1_555 1_555
C22 Si1 1_555 1_555
H14 C22 1_555 1_555
C23 Si1 1_555 1_555
H15 C23 1_555 1_555
C24 Si1 1_555 1_555
H16 C24 1_555 1_555
C25 C23 1_555 1_555
H17 C25 1_555 1_555
H18 C25 1_555 1_555
H19 C25 1_555 1_555
C26 C24 1_555 1_555
H20 C26 1_555 1_555
H21 C26 1_555 1_555
H22 C26 1_555 1_555
C27 C22 1_555 1_555
H23 C27 1_555 1_555
H24 C27 1_555 1_555
H25 C27 1_555 1_555
C28 C23 1_555 1_555
H26 C28 1_555 1_555
H27 C28 1_555 1_555
H28 C28 1_555 1_555
C29 C22 1_555 1_555
H29 C29 1_555 1_555
H30 C29 1_555 1_555
H31 C29 1_555 1_555
C30 C24 1_555 1_555
H32 C30 1_555 1_555
H33 C30 1_555 1_555
H34 C30 1_555 1_555
Si2 C46 1_555 1_555
C34 C36 1_555 1_555
C35 C36 1_555 1_555
C36 C37 1_555 1_555
C37 C45 1_555 1_555
C38 C34 1_555 1_555
C39 C38 1_555 1_555
C40 C38 1_555 1_555
C41 C35 1_555 1_555
H46 C41 1_555 1_555
C42 C35 1_555 1_555
C43 H47 1_555 1_555
C44 C34 1_555 1_555
H48 C44 1_555 1_555
C45 C50 1_555 1_555
C46 C42 1_555 1_555
C47 C40 1_555 1_555
H49 C47 1_555 1_555
H50 C47 1_555 1_555
C48 C39 1_555 1_555
H51 C48 1_555 1_555
C49 C39 1_555 1_555
H52 C49 1_555 1_555
H53 C49 1_555 1_555
C50 H54 1_555 1_555
C51 C37 1_555 1_555
H55 C51 1_555 1_555
C52 C50 1_555 1_555
H56 C52 1_555 1_555
C53 C51 1_555 1_555
H57 C53 1_555 1_555
O2 C57 1_555 1_555
C54 Si2 1_555 1_555
H58 C54 1_555 1_555
C55 Si2 1_555 1_555
H59 C55 1_555 1_555
C56 Si2 1_555 1_555
H60 C56 1_555 1_555
C57 C45 1_555 1_555
H61 C57 1_555 1_555
C58 C56 1_555 1_555
H62 C58 1_555 1_555
H63 C58 1_555 1_555
H64 C58 1_555 1_555
C59 C55 1_555 1_555
H65 C59 1_555 1_555
H66 C59 1_555 1_555
H67 C59 1_555 1_555
C60 C55 1_555 1_555
H68 C60 1_555 1_555
H69 C60 1_555 1_555
H70 C60 1_555 1_555
C61 C54 1_555 1_555
H71 C61 1_555 1_555
H72 C61 1_555 1_555
H73 C61 1_555 1_555
C62 C54 1_555 1_555
H74 C62 1_555 1_555
H75 C62 1_555 1_555
H76 C62 1_555 1_555
C63 C56 1_555 1_555
H77 C63 1_555 1_555
H78 C63 1_555 1_555
H79 C63 1_555 1_555
C2 C14 1_555 1_555
C3 C6 1_555 1_555
C3 C20 1_555 1_555
C4 C14 1_555 1_555
C8 C11 1_555 1_555
C9 C16 1_555 1_555
C10 C20 1_555 1_555
C18 C19 1_555 1_555
C18 C21 1_555 1_555
C40 C41 1_555 1_555
C43 C44 1_555 1_555
C43 C48 1_555 1_555
C47 C49 1_555 1_555
C52 C53 1_555 1_555

#END
