
#######################################################################
#
#                 Cambridge Crystallographic Data Centre
#                                CCDC 
#
#######################################################################
#
# If this CIF has been generated from an entry in the Cambridge 
# Structural Database, then it will include bibliographic, chemical, 
# crystal, experimental, refinement or atomic coordinate data resulting 
# from the CCDC's data processing and validation procedures.
#
#######################################################################

data_KEPQII
_chemical_formula_moiety         'C29 H34 O1 Si1'
_chemical_name_systematic        
2-(4-methyl-2-{[triisopropylsilyl]ethynyl}naphthalen-1-yl)benzaldehyde
_symmetry_cell_setting           monoclinic
_symmetry_space_group_name_H-M   'P 21'
_symmetry_Int_Tables_number      4
_space_group_name_Hall           'P 2yb'
loop_
_symmetry_equiv_pos_site_id
_symmetry_equiv_pos_as_xyz
1 x,y,z
2 -x,1/2+y,-z
_cell_length_a                   8.6072(5)
_cell_length_b                   7.6534(3)
_cell_length_c                   20.4918(11)
_cell_angle_alpha                90
_cell_angle_beta                 98.297(5)
_cell_angle_gamma                90
_cell_volume                     1335.76
_exptl_crystal_colour            colorless
_exptl_crystal_description       plate
_cell_formula_units_Z            2
loop_
_atom_site_label
_atom_site_type_symbol
_atom_site_fract_x
_atom_site_fract_y
_atom_site_fract_z
Si1 Si 0.1144(3) 0.7090(3) 0.85792(9)
C1 C -0.1397(6) 0.4105(7) 0.6381(3)
C2 C -0.0703(7) 0.1760(7) 0.5646(3)
C3 C -0.1839(6) 0.2931(7) 0.5840(3)
C4 C -0.3381(7) 0.2902(8) 0.5492(3)
H1 H -0.413354 0.365456 0.561668
C5 C -0.2516(7) 0.5402(7) 0.6571(3)
C6 C 0.0118(6) 0.4049(7) 0.6712(3)
C7 C 0.0874(7) 0.1777(8) 0.5986(3)
C8 C 0.1243(7) 0.2875(9) 0.6498(3)
H2 H 0.226366 0.287216 0.672113
C9 C 0.0552(7) 0.5118(9) 0.7286(3)
C10 C -0.1196(8) 0.0632(9) 0.5100(4)
H3 H -0.047239 -0.014104 0.496458
C11 C -0.3787(8) 0.1778(9) 0.4972(3)
H4 H -0.480888 0.177244 0.474985
C12 C -0.2671(9) 0.0648(10) 0.4776(4)
H5 H -0.294671 -0.009747 0.441983
C13 C -0.3729(7) 0.4948(8) 0.6928(3)
C14 C -0.2431(8) 0.7145(9) 0.6371(3)
H6 H -0.165063 0.746210 0.612400
C15 C 0.0865(8) 0.5954(11) 0.7783(3)
C16 C 0.2080(10) 0.0602(15) 0.5786(5)
H7 H 0.177013 -0.059039 0.583575
H8 H 0.306475 0.081275 0.605945
H9 H 0.218837 0.081825 0.533359
C17 C -0.4769(9) 0.6230(13) 0.7084(5)
H10 H -0.557544 0.593792 0.732122
C18 C -0.3873(9) 0.3128(11) 0.7157(4)
H11 H -0.303139 0.237821 0.713649
C19 C -0.3440(11) 0.8388(10) 0.6524(5)
H12 H -0.334528 0.953413 0.638423
C20 C -0.4593(12) 0.7949(12) 0.6884(5)
H13 H -0.527115 0.880685 0.699778
O1 O -0.4989(8) 0.2560(10) 0.7364(4)
C21 C -0.073(4) 0.655(4) 0.8936(12)
H14 H -0.138952 0.740568 0.867229
C22 C -0.161(4) 0.500(5) 0.8664(13)
H15 H -0.241638 0.535510 0.831485
H16 H -0.208611 0.444283 0.900593
H17 H -0.091296 0.419751 0.849470
C23 C 0.381(3) 0.474(4) 0.8943(12)
H18 H 0.480946 0.529923 0.894141
H19 H 0.344361 0.428777 0.851181
H20 H 0.391592 0.380847 0.925785
C24 C 0.268(4) 0.602(4) 0.9121(11)
H21 H 0.197353 0.510576 0.923605
C25 C 0.117(4) 0.944(5) 0.8423(14)
H22 H 0.121721 1.008755 0.883784
C26 C -0.027(3) 1.006(5) 0.7924(12)
H23 H -0.112054 1.036175 0.815930
H24 H -0.060078 0.912913 0.761926
H25 H 0.001754 1.105685 0.768596
C27 C 0.241(4) 0.991(5) 0.8095(12)
H26 H 0.338476 0.959800 0.835807
H27 H 0.238755 1.115342 0.802196
H28 H 0.231737 0.931853 0.767893
C28 C 0.299(4) 0.674(4) 0.9852(11)
H29 H 0.211248 0.744401 0.993296
H30 H 0.392629 0.742692 0.991296
H31 H 0.310098 0.577168 1.015520
C29 C -0.086(3) 0.731(5) 0.9558(11)
H32 H 0.008207 0.710556 0.985873
H33 H -0.173787 0.680294 0.973089
H34 H -0.102662 0.854960 0.950509
loop_
_geom_bond_atom_site_label_1
_geom_bond_atom_site_label_2
_geom_bond_site_symmetry_1
_geom_bond_site_symmetry_2
Si1 C15 1_555 1_555
C1 C3 1_555 1_555
C2 C3 1_555 1_555
C3 C4 1_555 1_555
C4 H1 1_555 1_555
C5 C1 1_555 1_555
C6 C1 1_555 1_555
C7 C2 1_555 1_555
C8 C6 1_555 1_555
H2 C8 1_555 1_555
C9 C6 1_555 1_555
C10 C2 1_555 1_555
H3 C10 1_555 1_555
C11 C4 1_555 1_555
H4 C11 1_555 1_555
C12 C10 1_555 1_555
H5 C12 1_555 1_555
C13 C5 1_555 1_555
C14 C5 1_555 1_555
H6 C14 1_555 1_555
C15 C9 1_555 1_555
C16 C7 1_555 1_555
H7 C16 1_555 1_555
H8 C16 1_555 1_555
H9 C16 1_555 1_555
C17 C13 1_555 1_555
H10 C17 1_555 1_555
C18 C13 1_555 1_555
H11 C18 1_555 1_555
C19 C14 1_555 1_555
H12 C19 1_555 1_555
C20 C17 1_555 1_555
H13 C20 1_555 1_555
O1 C18 1_555 1_555
C21 Si1 1_555 1_555
H14 C21 1_555 1_555
C22 C21 1_555 1_555
H15 C22 1_555 1_555
H16 C22 1_555 1_555
H17 C22 1_555 1_555
C23 H18 1_555 1_555
H19 C23 1_555 1_555
H20 C23 1_555 1_555
C24 Si1 1_555 1_555
H21 C24 1_555 1_555
C25 Si1 1_555 1_555
H22 C25 1_555 1_555
C26 C25 1_555 1_555
H23 C26 1_555 1_555
H24 C26 1_555 1_555
H25 C26 1_555 1_555
C27 C25 1_555 1_555
H26 C27 1_555 1_555
H27 C27 1_555 1_555
H28 C27 1_555 1_555
C28 C24 1_555 1_555
H29 C28 1_555 1_555
H30 C28 1_555 1_555
H31 C28 1_555 1_555
C29 C21 1_555 1_555
H32 C29 1_555 1_555
H33 C29 1_555 1_555
H34 C29 1_555 1_555
C7 C8 1_555 1_555
C11 C12 1_555 1_555
C19 C20 1_555 1_555
C23 C24 1_555 1_555

#END
