
#######################################################################
#
#                 Cambridge Crystallographic Data Centre
#                                CCDC 
#
#######################################################################
#
# If this CIF has been generated from an entry in the Cambridge 
# Structural Database, then it will include bibliographic, chemical, 
# crystal, experimental, refinement or atomic coordinate data resulting 
# from the CCDC's data processing and validation procedures.
#
#######################################################################

data_KEPQEE
_chemical_formula_moiety         'C35 H33 F3 O1 Si1'
_chemical_name_systematic        
5-(trifluoromethyl)-2-(2-{[triisopropylsilyl]ethynyl}pyren-1-yl)benzaldehyde
_symmetry_cell_setting           monoclinic
_symmetry_space_group_name_H-M   'P 21'
_symmetry_Int_Tables_number      4
_space_group_name_Hall           'P 2yb'
loop_
_symmetry_equiv_pos_site_id
_symmetry_equiv_pos_as_xyz
1 x,y,z
2 -x,1/2+y,-z
_cell_length_a                   13.0869(7)
_cell_length_b                   11.8158(7)
_cell_length_c                   19.9204(12)
_cell_angle_alpha                90
_cell_angle_beta                 97.952(6)
_cell_angle_gamma                90
_cell_volume                     3050.72
_exptl_crystal_colour            yellow
_exptl_crystal_description       plate
_cell_formula_units_Z            4
loop_
_atom_site_label
_atom_site_type_symbol
_atom_site_fract_x
_atom_site_fract_y
_atom_site_fract_z
Si1 Si 0.91103(17) 0.4140(2) 0.81351(12)
C1 C 0.4757(5) 0.1725(6) 0.5920(3)
C2 C 0.3902(5) 0.1259(6) 0.5489(3)
C3 C 0.5146(5) 0.2795(6) 0.5775(3)
C4 C 0.3453(6) 0.1883(7) 0.4911(4)
C5 C 0.6542(5) 0.0950(6) 0.7539(3)
C6 C 0.5224(5) 0.1102(6) 0.6503(3)
C7 C 0.6062(5) 0.1574(6) 0.6927(3)
C8 C 0.3483(6) 0.0196(7) 0.5631(4)
C9 C 0.5970(5) 0.3243(6) 0.6215(4)
H1 H 0.621447 0.396016 0.613028
C10 C 0.4781(6) 0.0022(6) 0.6617(4)
H2 H 0.507304 -0.040524 0.698681
C11 C 0.6432(5) 0.2648(6) 0.6776(3)
C12 C 0.3869(7) 0.2957(9) 0.4792(4)
H3 H 0.357522 0.337180 0.441791
C13 C 0.2588(7) 0.1398(10) 0.4497(4)
H4 H 0.228064 0.179131 0.411783
C14 C 0.7289(5) 0.3132(6) 0.7205(4)
C15 C 0.3966(6) -0.0399(7) 0.6217(4)
H5 H 0.370429 -0.109935 0.632182
C16 C 0.2206(7) 0.0378(11) 0.4645(5)
H6 H 0.164649 0.007864 0.436173
C17 C 0.2631(6) -0.0228(9) 0.5209(5)
H7 H 0.234822 -0.092080 0.530640
C18 C 0.7157(5) -0.0013(6) 0.7512(4)
C19 C 0.6343(7) 0.1321(9) 0.8170(4)
H8 H 0.593223 0.195649 0.820059
C20 C 0.8015(6) 0.3544(7) 0.7565(4)
C21 C 0.4661(6) 0.3394(7) 0.5195(4)
H9 H 0.490560 0.410614 0.509727
C22 C 0.6747(8) 0.0758(10) 0.8745(4)
H10 H 0.661922 0.102845 0.916372
O1 O 0.7862(7) -0.1318(7) 0.6797(4)
C23 C 0.7562(6) -0.0556(7) 0.8102(4)
H11 H 0.799452 -0.117547 0.807976
C24 C 0.7402(7) -0.0455(7) 0.6858(4)
H12 H 0.718435 -0.003671 0.646931
C25 C 0.9763(9) 0.5220(10) 0.7612(6)
H13 H 1.036839 0.551911 0.790208
C26 C 0.7339(8) -0.0203(10) 0.8719(4)
C27 C 1.0023(8) 0.2916(10) 0.8340(6)
H14 H 1.027373 0.272675 0.791261
C28 C 1.0131(14) 0.4697(16) 0.6997(9)
H15 H 1.063342 0.412205 0.713826
H16 H 1.043794 0.527078 0.674782
H17 H 0.955645 0.436545 0.671256
F1 F 0.8056(18) -0.1777(14) 0.9290(6)
C29 C 0.9555(14) 0.1841(12) 0.8565(10)
H18 H 0.931257 0.196568 0.899263
H19 H 1.006670 0.125393 0.861359
H20 H 0.898769 0.161898 0.823349
C30 C 0.7732(12) -0.0830(15) 0.9343(6)
C31 C 0.8541(11) 0.4873(13) 0.8829(6)
H21 H 0.805539 0.543347 0.860769
F2 F 0.8469(16) -0.033(2) 0.9679(10)
C32 C 1.0986(13) 0.3253(16) 0.8829(12)
H22 H 1.136388 0.381914 0.862059
H23 H 1.141496 0.259946 0.893317
H24 H 1.078176 0.354975 0.923875
C33 C 0.9295(16) 0.5509(17) 0.9306(9)
H25 H 0.979824 0.499655 0.953134
H26 H 0.894291 0.588302 0.963563
H27 H 0.963235 0.606278 0.906053
C34 C 0.9035(12) 0.6222(12) 0.7398(9)
H28 H 0.838503 0.593993 0.718012
H29 H 0.933892 0.669861 0.708900
H30 H 0.892936 0.665101 0.779172
C35 C 0.7866(17) 0.400(2) 0.9197(9)
H31 H 0.739903 0.360198 0.886251
H32 H 0.748029 0.439859 0.949700
H33 H 0.831470 0.345962 0.945291
F3 F 0.7142(12) -0.0849(15) 0.9789(5)
Si2 Si 0.4013(3) -0.3761(3) 0.78271(17)
C36 C 0.0097(6) -0.1656(6) 0.5665(4)
C37 C -0.1008(6) 0.0034(8) 0.5538(4)
C38 C -0.0179(6) -0.0591(7) 0.5902(4)
C39 C 0.0356(6) -0.0148(6) 0.6513(4)
C40 C 0.1415(6) -0.1847(6) 0.6648(4)
C41 C 0.1163(6) -0.0754(7) 0.6885(4)
C42 C -0.1241(8) -0.1457(10) 0.4703(5)
H34 H -0.157846 -0.174211 0.429657
C43 C 0.0870(6) -0.2256(7) 0.6048(4)
H35 H 0.103739 -0.296872 0.589734
C44 C 0.1741(6) -0.0287(7) 0.7513(4)
C45 C -0.2398(8) 0.0233(14) 0.4604(6)
H36 H -0.276634 -0.003889 0.420418
C46 C 0.2223(7) -0.2483(7) 0.7022(5)
C47 C -0.1298(7) 0.1110(8) 0.5786(5)
C48 C 0.2902(7) -0.3027(8) 0.7335(6)
C49 C -0.2680(9) 0.1246(13) 0.4865(7)
H37 H -0.324852 0.163827 0.464978
C50 C 0.1548(8) -0.0605(9) 0.8150(5)
C51 C -0.2130(9) 0.1674(10) 0.5437(6)
H38 H -0.232134 0.237048 0.559874
C52 C -0.1554(7) -0.0407(9) 0.4934(5)
C53 C 0.2139(9) -0.0179(11) 0.8720(5)
H39 H 0.199771 -0.039860 0.914577
C54 C -0.0475(8) -0.2066(9) 0.5045(5)
H40 H -0.031054 -0.276780 0.487822
C55 C 0.0713(13) -0.1425(15) 0.8234(8)
H41 H 0.033651 -0.172450 0.784428
C56 C -0.0741(8) 0.1528(8) 0.6393(5)
H42 H -0.092235 0.222544 0.655692
C57 C 0.0039(8) 0.0954(7) 0.6738(5)
H43 H 0.038843 0.126556 0.713338
C58 C 0.2921(8) 0.0555(11) 0.8672(5)
C59 C 0.3111(9) 0.0897(11) 0.8050(6)
H44 H 0.364003 0.140942 0.801281
C60 C 0.2522(9) 0.0487(10) 0.7473(5)
H45 H 0.265304 0.073607 0.705012
C61 C 0.3546(10) 0.103(2) 0.9283(7)
C62 C 0.3266(19) -0.5817(18) 0.7297(10)
H46 H 0.255986 -0.597983 0.734115
H47 H 0.363155 -0.651324 0.725689
H48 H 0.329373 -0.536411 0.689996
C63 C 0.3741(15) -0.5204(17) 0.7892(12)
H49 H 0.323598 -0.524347 0.821152
C64 C 0.4336(16) -0.3008(18) 0.8732(11)
H50 H 0.489695 -0.342647 0.900061
C65 C 0.337(2) -0.325(2) 0.9008(13)
H51 H 0.286214 -0.268443 0.885131
H52 H 0.349518 -0.323618 0.949414
H53 H 0.311490 -0.398159 0.885741
C66 C 0.4673(16) -0.5952(18) 0.8221(13)
H54 H 0.526926 -0.548163 0.833870
H55 H 0.482225 -0.651936 0.790330
H56 H 0.449752 -0.631171 0.862179
C67 C 0.4656(19) -0.181(2) 0.8691(14)
H57 H 0.515884 -0.174617 0.838482
H58 H 0.495176 -0.155236 0.913278
H59 H 0.406582 -0.135439 0.852952
F4 F 0.3108(10) 0.1388(17) 0.9730(6)
F5 F 0.4276(15) 0.158(2) 0.9212(5)
O2 O 0.0497(16) -0.1722(17) 0.8764(7)
C68 C 0.5100(16) -0.346(2) 0.6700(13)
H60 H 0.491741 -0.422965 0.658043
H61 H 0.575002 -0.328265 0.655448
H62 H 0.457772 -0.296131 0.648258
C69 C 0.5178(13) -0.3331(18) 0.7406(11)
H63 H 0.516643 -0.250578 0.745083
F6 F 0.4044(17) 0.0198(19) 0.9655(9)
C70 C 0.6207(15) -0.361(2) 0.7772(13)
H64 H 0.619305 -0.354888 0.825118
H65 H 0.670809 -0.309258 0.763938
H66 H 0.638786 -0.436886 0.766333
loop_
_geom_bond_atom_site_label_1
_geom_bond_atom_site_label_2
_geom_bond_site_symmetry_1
_geom_bond_site_symmetry_2
Si1 C20 1_555 1_555
C1 C2 1_555 1_555
C2 C4 1_555 1_555
C3 C1 1_555 1_555
C4 C12 1_555 1_555
C5 C7 1_555 1_555
C6 C1 1_555 1_555
C7 C6 1_555 1_555
C8 C2 1_555 1_555
C9 C3 1_555 1_555
H1 C9 1_555 1_555
C10 C6 1_555 1_555
H2 C10 1_555 1_555
C11 C7 1_555 1_555
C12 H3 1_555 1_555
C13 C4 1_555 1_555
H4 C13 1_555 1_555
C14 C11 1_555 1_555
C15 C8 1_555 1_555
H5 C15 1_555 1_555
C16 C13 1_555 1_555
H6 C16 1_555 1_555
C17 C8 1_555 1_555
H7 C17 1_555 1_555
C18 C5 1_555 1_555
C19 C5 1_555 1_555
H8 C19 1_555 1_555
C20 C14 1_555 1_555
C21 C3 1_555 1_555
H9 C21 1_555 1_555
C22 C19 1_555 1_555
H10 C22 1_555 1_555
O1 C24 1_555 1_555
C23 C18 1_555 1_555
H11 C23 1_555 1_555
C24 C18 1_555 1_555
H12 C24 1_555 1_555
C25 Si1 1_555 1_555
H13 C25 1_555 1_555
C26 C22 1_555 1_555
C27 Si1 1_555 1_555
H14 C27 1_555 1_555
C28 C25 1_555 1_555
H15 C28 1_555 1_555
H16 C28 1_555 1_555
H17 C28 1_555 1_555
F1 C30 1_555 1_555
C29 C27 1_555 1_555
H18 C29 1_555 1_555
H19 C29 1_555 1_555
H20 C29 1_555 1_555
C30 C26 1_555 1_555
C31 Si1 1_555 1_555
H21 C31 1_555 1_555
F2 C30 1_555 1_555
C32 C27 1_555 1_555
H22 C32 1_555 1_555
H23 C32 1_555 1_555
H24 C32 1_555 1_555
C33 C31 1_555 1_555
H25 C33 1_555 1_555
H26 C33 1_555 1_555
H27 C33 1_555 1_555
C34 C25 1_555 1_555
H28 C34 1_555 1_555
H29 C34 1_555 1_555
H30 C34 1_555 1_555
C35 C31 1_555 1_555
H31 C35 1_555 1_555
H32 C35 1_555 1_555
H33 C35 1_555 1_555
F3 C30 1_555 1_555
Si2 C48 1_555 1_555
C36 C38 1_555 1_555
C37 C38 1_555 1_555
C38 C39 1_555 1_555
C39 C41 1_555 1_555
C40 C41 1_555 1_555
C41 C44 1_555 1_555
C42 H34 1_555 1_555
C43 C36 1_555 1_555
H35 C43 1_555 1_555
C44 C50 1_555 1_555
C45 H36 1_555 1_555
C46 C40 1_555 1_555
C47 C37 1_555 1_555
C48 C46 1_555 1_555
C49 C45 1_555 1_555
H37 C49 1_555 1_555
C50 C53 1_555 1_555
C51 C47 1_555 1_555
H38 C51 1_555 1_555
C52 C37 1_555 1_555
C53 H39 1_555 1_555
C54 C36 1_555 1_555
H40 C54 1_555 1_555
C55 C50 1_555 1_555
H41 C55 1_555 1_555
C56 C47 1_555 1_555
H42 C56 1_555 1_555
C57 C39 1_555 1_555
H43 C57 1_555 1_555
C58 C53 1_555 1_555
C59 C58 1_555 1_555
H44 C59 1_555 1_555
C60 C44 1_555 1_555
H45 C60 1_555 1_555
C61 C58 1_555 1_555
C62 H46 1_555 1_555
H47 C62 1_555 1_555
H48 C62 1_555 1_555
C63 Si2 1_555 1_555
H49 C63 1_555 1_555
C64 Si2 1_555 1_555
H50 C64 1_555 1_555
C65 C64 1_555 1_555
H51 C65 1_555 1_555
H52 C65 1_555 1_555
H53 C65 1_555 1_555
C66 C63 1_555 1_555
H54 C66 1_555 1_555
H55 C66 1_555 1_555
H56 C66 1_555 1_555
C67 C64 1_555 1_555
H57 C67 1_555 1_555
H58 C67 1_555 1_555
H59 C67 1_555 1_555
F4 C61 1_555 1_555
F5 C61 1_555 1_555
O2 C55 1_555 1_555
C68 H60 1_555 1_555
H61 C68 1_555 1_555
H62 C68 1_555 1_555
C69 Si2 1_555 1_555
H63 C69 1_555 1_555
F6 C61 1_555 1_555
C70 C69 1_555 1_555
H64 C70 1_555 1_555
H65 C70 1_555 1_555
H66 C70 1_555 1_555
C9 C11 1_555 1_555
C10 C15 1_555 1_555
C12 C21 1_555 1_555
C16 C17 1_555 1_555
C23 C26 1_555 1_555
C40 C43 1_555 1_555
C42 C52 1_555 1_555
C42 C54 1_555 1_555
C45 C52 1_555 1_555
C49 C51 1_555 1_555
C56 C57 1_555 1_555
C59 C60 1_555 1_555
C62 C63 1_555 1_555
C68 C69 1_555 1_555

#END
