
#######################################################################
#
#                 Cambridge Crystallographic Data Centre
#                                CCDC 
#
#######################################################################
#
# If this CIF has been generated from an entry in the Cambridge 
# Structural Database, then it will include bibliographic, chemical, 
# crystal, experimental, refinement or atomic coordinate data resulting 
# from the CCDC's data processing and validation procedures.
#
#######################################################################

data_KEPQAA
_chemical_formula_moiety         'C29 H34 O2 Si1'
_chemical_name_systematic        
5-methoxy-2-(2-{[triisopropylsilyl]ethynyl}naphthalen-1-yl)benzaldehyde
_symmetry_cell_setting           monoclinic
_symmetry_space_group_name_H-M   'P 21'
_symmetry_Int_Tables_number      4
_space_group_name_Hall           'P 2yb'
loop_
_symmetry_equiv_pos_site_id
_symmetry_equiv_pos_as_xyz
1 x,y,z
2 -x,1/2+y,-z
_cell_length_a                   9.4490(4)
_cell_length_b                   13.0960(6)
_cell_length_c                   11.9630(6)
_cell_angle_alpha                90
_cell_angle_beta                 111.244(6)
_cell_angle_gamma                90
_cell_volume                     1379.75
_exptl_crystal_colour            colorless
_exptl_crystal_description       plate
_cell_formula_units_Z            2
loop_
_atom_site_label
_atom_site_type_symbol
_atom_site_fract_x
_atom_site_fract_y
_atom_site_fract_z
Si1 Si 0.7184(2) 0.81145(17) 0.07183(14)
O1 O 0.9704(4) 0.4725(3) 0.2844(4)
O2 O 1.2293(4) 0.7508(4) 0.5968(4)
C1 C 0.6659(8) 0.4798(5) 0.5970(6)
H1 H 0.767396 0.498344 0.633072
C2 C 0.5996(11) 0.4197(7) 0.6570(9)
H2 H 0.656407 0.396668 0.733692
C3 C 0.4455(11) 0.3922(6) 0.6036(11)
H3 H 0.401745 0.351157 0.645711
C4 C 0.3619(9) 0.4239(6) 0.4945(10)
H4 H 0.259844 0.405805 0.462083
C5 C 0.4244(6) 0.4846(5) 0.4264(7)
C6 C 0.5792(6) 0.5144(4) 0.4784(5)
C7 C 0.6435(5) 0.5771(4) 0.4122(4)
C8 C 0.5527(5) 0.6069(4) 0.2976(4)
C9 C 0.3974(5) 0.5781(5) 0.2484(5)
H5 H 0.337265 0.600595 0.172200
C10 C 0.3366(6) 0.5190(5) 0.3105(6)
H6 H 0.234899 0.500441 0.276568
C11 C 0.8038(5) 0.6130(4) 0.4648(4)
C12 C 0.9152(5) 0.5819(4) 0.4209(4)
C13 C 1.0601(5) 0.6259(4) 0.4646(4)
H7 H 1.133296 0.604890 0.434501
C14 C 1.0947(5) 0.6999(4) 0.5518(4)
C15 C 0.9870(6) 0.7279(5) 0.5996(5)
H8 H 1.011062 0.776051 0.660839
C16 C 0.8444(5) 0.6847(4) 0.5569(4)
H9 H 0.773698 0.703852 0.590456
C17 C 0.8831(5) 0.5011(4) 0.3302(5)
H10 H 0.788506 0.469662 0.306463
C18 C 1.3465(7) 0.7213(7) 0.5580(8)
H11 H 1.314654 0.731046 0.472842
H12 H 1.370138 0.650553 0.576696
H13 H 1.434992 0.762010 0.597700
C19 C 0.6123(5) 0.6698(4) 0.2263(4)
C20 C 0.6575(6) 0.7232(5) 0.1654(4)
C21 C 0.5379(16) 0.8619(11) -0.0434(9)
H14 H 0.565200 0.903367 -0.100773
C22 C 0.442(2) 0.925(2) 0.003(2)
H15 H 0.380755 0.880757 0.031387
H16 H 0.377019 0.967177 -0.060318
H17 H 0.504932 0.966524 0.067420
C23 C 0.439(3) 0.776(2) -0.1109(15)
H18 H 0.499918 0.726347 -0.132052
H19 H 0.362697 0.801917 -0.182451
H20 H 0.391037 0.744254 -0.061414
C24 C 0.835(2) 0.7372(14) 0.0037(13)
H21 H 0.766218 0.681184 -0.035372
C25 C 0.858(3) 0.788(2) -0.1014(18)
H22 H 0.760871 0.807275 -0.159441
H23 H 0.907186 0.741557 -0.137431
H24 H 0.919434 0.847918 -0.074477
C26 C 0.965(3) 0.682(2) 0.085(2)
H25 H 0.995394 0.712409 0.163525
H26 H 1.047417 0.685983 0.056476
H27 H 0.937863 0.612122 0.089388
C27 C 0.816(2) 0.9201(11) 0.1765(12)
H28 H 0.729002 0.952903 0.188469
C28 C 0.9089(16) 0.8977(12) 0.2954(10)
H29 H 0.851644 0.860279 0.333592
H30 H 0.945001 0.960187 0.338238
H31 H 0.993824 0.857387 0.295501
C29 C 0.872(3) 1.0059(16) 0.118(2)
H32 H 0.949628 0.980452 0.091113
H33 H 0.912246 1.060022 0.174370
H34 H 0.788776 1.031532 0.049939
loop_
_geom_bond_atom_site_label_1
_geom_bond_atom_site_label_2
_geom_bond_site_symmetry_1
_geom_bond_site_symmetry_2
Si1 C20 1_555 1_555
O1 C17 1_555 1_555
O2 C14 1_555 1_555
C1 H1 1_555 1_555
C2 C1 1_555 1_555
H2 C2 1_555 1_555
C3 C2 1_555 1_555
H3 C3 1_555 1_555
C4 C3 1_555 1_555
H4 C4 1_555 1_555
C5 C4 1_555 1_555
C6 C1 1_555 1_555
C7 C6 1_555 1_555
C8 C7 1_555 1_555
C9 C8 1_555 1_555
H5 C9 1_555 1_555
C10 C5 1_555 1_555
H6 C10 1_555 1_555
C11 C7 1_555 1_555
C12 C11 1_555 1_555
C13 C12 1_555 1_555
H7 C13 1_555 1_555
C14 C13 1_555 1_555
C15 C14 1_555 1_555
H8 C15 1_555 1_555
C16 C11 1_555 1_555
H9 C16 1_555 1_555
C17 C12 1_555 1_555
H10 C17 1_555 1_555
C18 O2 1_555 1_555
H11 C18 1_555 1_555
H12 C18 1_555 1_555
H13 C18 1_555 1_555
C19 C8 1_555 1_555
C20 C19 1_555 1_555
C21 Si1 1_555 1_555
H14 C21 1_555 1_555
C22 C21 1_555 1_555
H15 C22 1_555 1_555
H16 C22 1_555 1_555
H17 C22 1_555 1_555
C23 C21 1_555 1_555
H18 C23 1_555 1_555
H19 C23 1_555 1_555
H20 C23 1_555 1_555
C24 Si1 1_555 1_555
H21 C24 1_555 1_555
C25 C24 1_555 1_555
H22 C25 1_555 1_555
H23 C25 1_555 1_555
H24 C25 1_555 1_555
C26 C24 1_555 1_555
H25 C26 1_555 1_555
H26 C26 1_555 1_555
H27 C26 1_555 1_555
C27 Si1 1_555 1_555
H28 C27 1_555 1_555
C28 C27 1_555 1_555
H29 C28 1_555 1_555
H30 C28 1_555 1_555
H31 C28 1_555 1_555
C29 C27 1_555 1_555
H32 C29 1_555 1_555
H33 C29 1_555 1_555
H34 C29 1_555 1_555
C5 C6 1_555 1_555
C9 C10 1_555 1_555
C15 C16 1_555 1_555

#END
