
#######################################################################
#
#                 Cambridge Crystallographic Data Centre
#                                CCDC 
#
#######################################################################
#
# If this CIF has been generated from an entry in the Cambridge 
# Structural Database, then it will include bibliographic, chemical, 
# crystal, experimental, refinement or atomic coordinate data resulting 
# from the CCDC's data processing and validation procedures.
#
#######################################################################

data_KEPROM
_chemical_compound_source        'shrub Andrographis paniculata'
_chemical_formula_moiety         'C20 H30 O4'
_chemical_name_systematic        14-Deoxyandrographolide
_symmetry_cell_setting           monoclinic
_symmetry_space_group_name_H-M   'P 21'
_symmetry_Int_Tables_number      4
_space_group_name_Hall           'P 2yb'
loop_
_symmetry_equiv_pos_site_id
_symmetry_equiv_pos_as_xyz
1 x,y,z
2 -x,1/2+y,-z
_cell_length_a                   6.701(2)
_cell_length_b                   6.862(4)
_cell_length_c                   19.282(6)
_cell_angle_alpha                90
_cell_angle_beta                 92.41(3)
_cell_angle_gamma                90
_cell_volume                     885.846
_exptl_crystal_colour            colorless
_cell_formula_units_Z            2
loop_
_atom_site_label
_atom_site_type_symbol
_atom_site_fract_x
_atom_site_fract_y
_atom_site_fract_z
O1 O 0.4963(11) 0.2753 0.0539(4)
O2 O 0.6736(11) 0.2746(20) -0.0415(4)
O3 O -0.4593(11) -0.0375(19) -0.4223(4)
O4 O -0.6130(10) 0.3066(19) -0.4527(3)
C1 C 0.5104(16) 0.2775(25) -0.0162(5)
C2 C 0.2891(14) 0.2799(26) 0.0688(5)
C3 C 0.1816(15) 0.2816(23) -0.0002(5)
C4 C 0.3126(14) 0.2822(25) -0.0487(5)
C5 C 0.2865(14) 0.2930(23) -0.1254(5)
C6 C 0.0785(16) 0.3221(25) -0.1533(5)
C7 C 0.0647(15) 0.3755(22) -0.2317(5)
C8 C 0.1228(16) 0.5847(25) -0.2461(6)
C9 C 0.1199(15) 0.6368(24) -0.3216(5)
C10 C -0.0729(16) 0.5688(21) -0.3631(5)
C11 C -0.1125(15) 0.3565(21) -0.3482(5)
C12 C -0.1412(14) 0.3256(22) -0.2681(5)
C13 C 0.1675(17) 0.7144(24) -0.1962(6)
C14 C -0.2985(15) 0.4529(23) -0.2373(5)
C15 C -0.1931(17) 0.1081(23) -0.2565(6)
C16 C -0.3626(16) 0.0349(23) -0.3037(5)
C17 C -0.3070(15) 0.0521(21) -0.3786(5)
C18 C -0.2709(13) 0.2676(24) -0.4010(4)
C19 C -0.1821(15) 0.2650(25) -0.4728(5)
C20 C -0.4693(15) 0.3811(22) -0.4031(5)
H1 H 0.2542 0.1661 0.0945
H2 H 0.2580 0.3945 0.0948
H3 H 0.0391 0.2831 -0.0079
H4 H 0.3656 0.4000 -0.1409
H5 H 0.3351 0.1736 -0.1444
H6 H 0.0050 0.2038 -0.1470
H7 H 0.0189 0.4255 -0.1278
H8 H 0.1631 0.2945 -0.2521
H9 H 0.1306 0.7758 -0.3258
H10 H 0.2328 0.5763 -0.3418
H11 H -0.0558 0.5863 -0.4118
H12 H -0.1843 0.6451 -0.3491
H13 H 0.0036 0.2804 -0.3574
H14 H 0.1990 0.8463 -0.2082
H15 H 0.1677 0.6760 -0.1483
H16 H -0.2749 0.5903 -0.2415
H17 H -0.2903 0.4166 -0.1892
H18 H -0.4291 0.4222 -0.2566
H19 H -0.2305 0.0916 -0.2093
H20 H -0.0763 0.0316 -0.2644
H21 H -0.4802 0.1110 -0.2966
H22 H -0.3887 -0.0992 -0.2932
H23 H -0.1684 0.3931 -0.4921
H24 H -0.2720 0.1896 -0.5022
H25 H -0.0539 0.2025 -0.4697
H26 H -0.4413 0.5140 -0.4149
H27 H -0.5244 0.3762 -0.3580
loop_
_geom_bond_atom_site_label_1
_geom_bond_atom_site_label_2
_geom_bond_site_symmetry_1
_geom_bond_site_symmetry_2
O1 C1 1_555 1_555
O2 C1 1_555 1_555
O3 C17 1_555 1_555
O4 C20 1_555 1_555
C1 C4 1_555 1_555
C2 O1 1_555 1_555
C3 C2 1_555 1_555
C4 C3 1_555 1_555
C5 C4 1_555 1_555
C6 C5 1_555 1_555
C7 C6 1_555 1_555
C8 C7 1_555 1_555
C9 C8 1_555 1_555
C10 C9 1_555 1_555
C11 C10 1_555 1_555
C12 C7 1_555 1_555
C13 C8 1_555 1_555
C14 C12 1_555 1_555
C15 C12 1_555 1_555
C16 C15 1_555 1_555
C17 C16 1_555 1_555
C18 C11 1_555 1_555
C19 C18 1_555 1_555
C20 C18 1_555 1_555
H1 C2 1_555 1_555
H2 C2 1_555 1_555
H3 C3 1_555 1_555
H4 C5 1_555 1_555
H5 C5 1_555 1_555
H6 C6 1_555 1_555
H7 C6 1_555 1_555
H8 C7 1_555 1_555
H9 C9 1_555 1_555
H10 C9 1_555 1_555
H11 C10 1_555 1_555
H12 C10 1_555 1_555
H13 C11 1_555 1_555
H14 C13 1_555 1_555
H15 C13 1_555 1_555
H16 C14 1_555 1_555
H17 C14 1_555 1_555
H18 C14 1_555 1_555
H19 C15 1_555 1_555
H20 C15 1_555 1_555
H21 C16 1_555 1_555
H22 C16 1_555 1_555
H23 C19 1_555 1_555
H24 C19 1_555 1_555
H25 C19 1_555 1_555
H26 C20 1_555 1_555
H27 C20 1_555 1_555
C11 C12 1_555 1_555
C17 C18 1_555 1_555

#END
