
#######################################################################
#
#                 Cambridge Crystallographic Data Centre
#                                CCDC 
#
#######################################################################
#
# If this CIF has been generated from an entry in the Cambridge 
# Structural Database, then it will include bibliographic, chemical, 
# crystal, experimental, refinement or atomic coordinate data resulting 
# from the CCDC's data processing and validation procedures.
#
#######################################################################

data_KEPRIJ
_chemical_formula_moiety         'C30 H25 N3 O2 S1'
_chemical_name_systematic        
5-methyl-4-[(4-methylphenyl)sulfonyl]-2,3-diphenyl-4,5-dihydro-3H-pyrazino[2,3-b]indole
_symmetry_cell_setting           monoclinic
_symmetry_space_group_name_H-M   'P 21/c'
_symmetry_Int_Tables_number      14
_space_group_name_Hall           '-P 2ybc'
loop_
_symmetry_equiv_pos_site_id
_symmetry_equiv_pos_as_xyz
1 x,y,z
2 -x,1/2+y,1/2-z
3 -x,-y,-z
4 x,1/2-y,1/2+z
_cell_length_a                   26.4958(10)
_cell_length_b                   9.6501(4)
_cell_length_c                   19.6675(6)
_cell_angle_alpha                90
_cell_angle_beta                 93.007(3)
_cell_angle_gamma                90
_cell_volume                     5021.8
_exptl_crystal_colour            yellow
_exptl_crystal_description       block
_cell_formula_units_Z            8
loop_
_atom_site_label
_atom_site_type_symbol
_atom_site_fract_x
_atom_site_fract_y
_atom_site_fract_z
S1 S 0.11336(2) 0.10062(7) 0.26590(3)
O1 O 0.12536(6) 0.23513(18) 0.29175(8)
O2 O 0.11576(7) -0.01691(19) 0.30983(8)
N1 N 0.18365(7) 0.29764(19) 0.16500(9)
N2 N 0.11003(7) 0.04625(19) 0.06999(9)
N3 N 0.15514(7) 0.06849(18) 0.20603(9)
C1 C 0.13769(8) 0.3350(2) -0.00913(11)
H1 H 0.1193 0.2798 -0.0419
C2 C 0.15282(9) 0.4666(3) -0.02494(12)
H2 H 0.1440 0.5037 -0.0687
C3 C 0.18101(10) 0.5465(3) 0.02221(13)
H3 H 0.1917 0.6363 0.0093
C4 C 0.19384(9) 0.4994(2) 0.08701(12)
H4 H 0.2131 0.5545 0.1189
C5 C 0.17737(8) 0.3683(2) 0.10349(11)
C6 C 0.14983(8) 0.2839(2) 0.05604(11)
C7 C 0.13977(8) 0.1582(2) 0.09144(11)
C8 C 0.16008(8) 0.1722(2) 0.15603(11)
C9 C 0.11206(8) -0.0616(2) 0.10880(11)
C10 C 0.14831(8) -0.0703(2) 0.17210(11)
H5 H 0.1324 -0.1331 0.2053
C11 C 0.07623(8) -0.1756(2) 0.09434(11)
C12 C 0.03463(9) -0.1528(3) 0.04955(12)
H6 H 0.0311 -0.0657 0.0273
C13 C -0.00155(10) -0.2531(3) 0.03664(14)
H7 H -0.0295 -0.2353 0.0056
C14 C 0.00292(12) -0.3778(3) 0.06849(17)
H8 H -0.0223 -0.4467 0.0608
C15 C 0.04411(14) -0.4036(3) 0.1119(2)
H9 H 0.0476 -0.4918 0.1331
C16 C 0.08059(11) -0.3033(3) 0.12512(16)
H10 H 0.1087 -0.3226 0.1556
C17 C 0.19973(8) -0.1302(2) 0.15883(12)
C18 C 0.22821(9) -0.1885(3) 0.21303(13)
H11 H 0.2152 -0.1900 0.2571
C19 C 0.27540(10) -0.2443(3) 0.20296(16)
H12 H 0.2945 -0.2846 0.2401
C20 C 0.29469(10) -0.2415(3) 0.13928(15)
H13 H 0.3272 -0.2793 0.1325
C21 C 0.26693(9) -0.1841(3) 0.08568(14)
H14 H 0.2802 -0.1822 0.0418
C22 C 0.21959(9) -0.1290(2) 0.09518(12)
H15 H 0.2006 -0.0899 0.0576
C23 C 0.05377(8) 0.1051(3) 0.22328(11)
C24 C 0.02227(10) -0.0096(3) 0.22489(13)
H16 H 0.0323 -0.0900 0.2500
C25 C -0.02404(11) -0.0040(4) 0.18906(15)
H17 H -0.0461 -0.0815 0.1901
C26 C -0.03895(10) 0.1116(4) 0.15192(14)
C27 C -0.00663(10) 0.2224(3) 0.15008(14)
H18 H -0.0163 0.3016 0.1238
C28 C 0.03970(10) 0.2212(3) 0.18569(13)
H19 H 0.0616 0.2991 0.1844
C29 C -0.09061(11) 0.1158(5) 0.11446(19)
H20 H -0.1170 0.1074 0.1473
H21 H -0.0935 0.0388 0.0820
H22 H -0.0946 0.2038 0.0899
C30 C 0.21412(9) 0.3473(3) 0.22373(12)
H23 H 0.1946 0.4143 0.2490
H24 H 0.2447 0.3920 0.2083
H25 H 0.2236 0.2690 0.2534
S2 S 0.37509(2) 0.06100(6) 0.39642(3)
O3 O 0.33865(6) 0.05795(17) 0.44738(8)
O4 O 0.38488(7) -0.05945(15) 0.35743(8)
N4 N 0.28034(6) 0.30488(19) 0.38094(9)
N5 N 0.40055(7) 0.44758(18) 0.34352(9)
N6 N 0.35402(7) 0.17976(18) 0.33943(8)
C31 C 0.31015(9) 0.6675(2) 0.38205(12)
H26 H 0.3388 0.7230 0.3737
C32 C 0.26531(9) 0.7273(3) 0.39900(13)
H27 H 0.2632 0.8254 0.4022
C33 C 0.22302(9) 0.6470(3) 0.41150(13)
H28 H 0.1926 0.6917 0.4226
C34 C 0.22434(9) 0.5045(3) 0.40808(12)
H29 H 0.1956 0.4502 0.4172
C35 C 0.26933(8) 0.4435(2) 0.39078(11)
C36 C 0.31255(8) 0.5233(2) 0.37745(11)
C37 C 0.35015(8) 0.4270(2) 0.35879(11)
C38 C 0.32914(8) 0.2985(2) 0.36170(10)
C39 C 0.42125(8) 0.3466(2) 0.31218(10)
C40 C 0.39014(8) 0.2213(2) 0.28715(10)
H30 H 0.4140 0.1424 0.2812
C41 C 0.47565(8) 0.3511(2) 0.30108(11)
C42 C 0.50686(8) 0.4410(2) 0.33936(12)
H31 H 0.4926 0.5016 0.3712
C43 C 0.55832(9) 0.4430(3) 0.33159(14)
H32 H 0.5792 0.5042 0.3584
C44 C 0.57955(9) 0.3569(3) 0.28524(14)
H33 H 0.6150 0.3593 0.2798
C45 C 0.54952(9) 0.2675(3) 0.24679(14)
H34 H 0.5642 0.2076 0.2150
C46 C 0.49786(9) 0.2647(3) 0.25448(12)
H35 H 0.4773 0.2029 0.2276
C47 C 0.36162(8) 0.2464(2) 0.21925(10)
C48 C 0.32664(9) 0.1502(2) 0.19420(12)
H36 H 0.3195 0.0709 0.2206
C49 C 0.30196(9) 0.1682(3) 0.13137(13)
H37 H 0.2781 0.1009 0.1149
C50 C 0.31151(9) 0.2826(3) 0.09231(12)
H38 H 0.2945 0.2949 0.0490
C51 C 0.34588(10) 0.3783(3) 0.11681(12)
H39 H 0.3527 0.4576 0.0902
C52 C 0.37081(9) 0.3613(3) 0.17979(11)
H40 H 0.3945 0.4292 0.1961
C53 C 0.43304(9) 0.1223(2) 0.43183(11)
C54 C 0.47790(9) 0.0714(3) 0.40881(13)
H41 H 0.4777 0.0002 0.3754
C55 C 0.52300(10) 0.1260(3) 0.43523(14)
H42 H 0.5539 0.0908 0.4198
C56 C 0.52439(10) 0.2300(3) 0.48325(14)
C57 C 0.47900(11) 0.2782(3) 0.50572(14)
H43 H 0.4793 0.3493 0.5392
C58 C 0.43320(10) 0.2256(3) 0.48075(12)
H44 H 0.4024 0.2597 0.4968
C59 C 0.57378(12) 0.2920(4) 0.51025(18)
H45 H 0.6019 0.2355 0.4954
H46 H 0.5746 0.2943 0.5601
H47 H 0.5769 0.3865 0.4927
C60 C 0.24503(9) 0.1908(3) 0.38802(12)
H48 H 0.2547 0.1133 0.3592
H49 H 0.2108 0.2216 0.3740
H50 H 0.2459 0.1607 0.4357
loop_
_geom_bond_atom_site_label_1
_geom_bond_atom_site_label_2
_geom_bond_site_symmetry_1
_geom_bond_site_symmetry_2
S1 O1 1_555 1_555
O2 S1 1_555 1_555
N1 C5 1_555 1_555
N2 C7 1_555 1_555
N3 S1 1_555 1_555
C1 H1 1_555 1_555
C2 C1 1_555 1_555
H2 C2 1_555 1_555
C3 C2 1_555 1_555
H3 C3 1_555 1_555
C4 C3 1_555 1_555
H4 C4 1_555 1_555
C5 C4 1_555 1_555
C6 C1 1_555 1_555
C7 C6 1_555 1_555
C8 N1 1_555 1_555
C9 N2 1_555 1_555
C10 N3 1_555 1_555
H5 C10 1_555 1_555
C11 C9 1_555 1_555
C12 C11 1_555 1_555
H6 C12 1_555 1_555
C13 C12 1_555 1_555
H7 C13 1_555 1_555
C14 C13 1_555 1_555
H8 C14 1_555 1_555
C15 C14 1_555 1_555
H9 C15 1_555 1_555
C16 C11 1_555 1_555
H10 C16 1_555 1_555
C17 C10 1_555 1_555
C18 C17 1_555 1_555
H11 C18 1_555 1_555
C19 C18 1_555 1_555
H12 C19 1_555 1_555
C20 C19 1_555 1_555
H13 C20 1_555 1_555
C21 C20 1_555 1_555
H14 C21 1_555 1_555
C22 C17 1_555 1_555
H15 C22 1_555 1_555
C23 S1 1_555 1_555
C24 C23 1_555 1_555
H16 C24 1_555 1_555
C25 C24 1_555 1_555
H17 C25 1_555 1_555
C26 C25 1_555 1_555
C27 C26 1_555 1_555
H18 C27 1_555 1_555
C28 C23 1_555 1_555
H19 C28 1_555 1_555
C29 C26 1_555 1_555
H20 C29 1_555 1_555
H21 C29 1_555 1_555
H22 C29 1_555 1_555
C30 N1 1_555 1_555
H23 C30 1_555 1_555
H24 C30 1_555 1_555
H25 C30 1_555 1_555
S2 O3 1_555 1_555
O4 S2 1_555 1_555
N4 C35 1_555 1_555
N5 C37 1_555 1_555
N6 S2 1_555 1_555
C31 H26 1_555 1_555
C32 C31 1_555 1_555
H27 C32 1_555 1_555
C33 C32 1_555 1_555
H28 C33 1_555 1_555
C34 C33 1_555 1_555
H29 C34 1_555 1_555
C35 C34 1_555 1_555
C36 C31 1_555 1_555
C37 C36 1_555 1_555
C38 N4 1_555 1_555
C39 N5 1_555 1_555
C40 N6 1_555 1_555
H30 C40 1_555 1_555
C41 C39 1_555 1_555
C42 C41 1_555 1_555
H31 C42 1_555 1_555
C43 C42 1_555 1_555
H32 C43 1_555 1_555
C44 C43 1_555 1_555
H33 C44 1_555 1_555
C45 C44 1_555 1_555
H34 C45 1_555 1_555
C46 C41 1_555 1_555
H35 C46 1_555 1_555
C47 C40 1_555 1_555
C48 C47 1_555 1_555
H36 C48 1_555 1_555
C49 C48 1_555 1_555
H37 C49 1_555 1_555
C50 C49 1_555 1_555
H38 C50 1_555 1_555
C51 C50 1_555 1_555
H39 C51 1_555 1_555
C52 C47 1_555 1_555
H40 C52 1_555 1_555
C53 S2 1_555 1_555
C54 C53 1_555 1_555
H41 C54 1_555 1_555
C55 C54 1_555 1_555
H42 C55 1_555 1_555
C56 C55 1_555 1_555
C57 C56 1_555 1_555
H43 C57 1_555 1_555
C58 C53 1_555 1_555
H44 C58 1_555 1_555
C59 C56 1_555 1_555
H45 C59 1_555 1_555
H46 C59 1_555 1_555
H47 C59 1_555 1_555
C60 N4 1_555 1_555
H48 C60 1_555 1_555
H49 C60 1_555 1_555
H50 C60 1_555 1_555
N3 C8 1_555 1_555
C5 C6 1_555 1_555
C7 C8 1_555 1_555
C9 C10 1_555 1_555
C15 C16 1_555 1_555
C21 C22 1_555 1_555
C27 C28 1_555 1_555
N6 C38 1_555 1_555
C35 C36 1_555 1_555
C37 C38 1_555 1_555
C39 C40 1_555 1_555
C45 C46 1_555 1_555
C51 C52 1_555 1_555
C57 C58 1_555 1_555

#END
