
#######################################################################
#
#                 Cambridge Crystallographic Data Centre
#                                CCDC 
#
#######################################################################
#
# If this CIF has been generated from an entry in the Cambridge 
# Structural Database, then it will include bibliographic, chemical, 
# crystal, experimental, refinement or atomic coordinate data resulting 
# from the CCDC's data processing and validation procedures.
#
#######################################################################

data_KEPTAC02
_chemical_formula_moiety         'C60 H60 S6'
_chemical_name_systematic        
syn-1,2,7,8-bis(thieno)-3,4,5,6,9,10,11,12-tetrakis(2-hexylthieno)coronene
_symmetry_cell_setting           triclinic
_symmetry_space_group_name_H-M   'P -1'
_symmetry_Int_Tables_number      2
_space_group_name_Hall           '-P 1'
loop_
_symmetry_equiv_pos_site_id
_symmetry_equiv_pos_as_xyz
1 x,y,z
2 -x,-y,-z
_cell_length_a                   7.9799(2)
_cell_length_b                   17.2385(6)
_cell_length_c                   18.5251(6)
_cell_angle_alpha                109.0971(15)
_cell_angle_beta                 91.517(2)
_cell_angle_gamma                93.5899(19)
_cell_volume                     2400.39
_exptl_crystal_colour            'light brown'
_exptl_crystal_description       needle
_cell_formula_units_Z            2
_exptl_crystal_recrystallization_method p-xylene
loop_
_atom_site_label
_atom_site_type_symbol
_atom_site_fract_x
_atom_site_fract_y
_atom_site_fract_z
S1 S 0.71174(8) 0.88994(4) 0.07783(4)
S2 S 0.26530(8) 0.56355(4) -0.26923(4)
S3 S 0.00473(8) 0.29878(4) -0.01239(4)
S4 S 0.46448(9) 0.62443(4) 0.33347(4)
C1 C 0.4786(3) 0.66583(14) 0.06308(14)
C2 C 0.4180(3) 0.63989(14) -0.01591(14)
C3 C 0.3161(3) 0.56379(15) -0.04793(14)
C4 C 0.2704(3) 0.51382(15) -0.00115(14)
C5 C 0.3305(3) 0.53975(15) 0.07824(14)
C6 C 0.4350(3) 0.61548(15) 0.10995(14)
C7 C 0.4936(3) 0.64208(15) 0.18815(14)
C8 C 0.6037(3) 0.71492(16) 0.21738(15)
C9 C 0.6456(3) 0.76271(15) 0.17171(15)
C10 C 0.5800(3) 0.74067(15) 0.09473(14)
C11 C 0.6074(3) 0.79170(15) 0.04884(14)
C12 C 0.5439(3) 0.76968(15) -0.02632(14)
C13 C 0.4587(3) 0.69004(15) -0.06177(14)
C14 C 0.4122(3) 0.65915(16) -0.14233(15)
C15 C 0.3106(3) 0.58665(16) -0.17150(14)
C16 C 0.2570(3) 0.53766(15) -0.12598(14)
C17 C 0.1505(3) 0.46424(15) -0.15567(14)
C18 C 0.1014(3) 0.41722(15) -0.11027(15)
C19 C 0.1643(3) 0.44096(15) -0.03229(14)
C20 C 0.1255(3) 0.39219(15) 0.01504(15)
C21 C 0.1878(3) 0.41408(15) 0.09106(14)
C22 C 0.2850(3) 0.49111(15) 0.12508(14)
C23 C 0.3330(3) 0.52235(16) 0.20517(15)
C24 C 0.4350(3) 0.59517(16) 0.23415(15)
C25 C 0.6641(3) 0.90263(16) -0.00918(16)
C26 C 0.3890(3) 0.64903(17) -0.27158(16)
C27 C 0.0397(3) 0.28714(16) 0.07557(15)
C28 C 0.3412(3) 0.53913(17) 0.33604(16)
C29 C 0.5749(3) 0.83579(15) -0.05750(15)
C30 C 0.4604(3) 0.69263(16) -0.20134(15)
C31 C 0.1375(3) 0.35104(16) 0.12329(15)
C32 C 0.2811(3) 0.49212(17) 0.26574(15)
H1 H 0.5356 0.8325 -0.1074
H2 H 0.5345 0.7406 -0.1920
H3 H 0.1713 0.3542 0.1738
H4 H 0.2105 0.4431 0.2569
C33 C 0.3144(4) 0.52595(19) 0.41151(17)
H5 H 0.2656 0.5727 0.4445
H6 H 0.4206 0.5206 0.4331
C34 C 0.2000(4) 0.44961(19) 0.40517(16)
H7 H 0.0905 0.4569 0.3883
H8 H 0.2429 0.4034 0.3687
C35 C 0.1892(4) 0.43292(19) 0.48082(16)
H9 H 0.1441 0.4788 0.5168
H10 H 0.2993 0.4271 0.4982
C36 C 0.0782(4) 0.35569(19) 0.47547(16)
H11 H -0.0331 0.3622 0.4601
H12 H 0.1207 0.3100 0.4382
C37 C 0.0742(4) 0.3382(2) 0.55098(18)
H13 H 0.0290 0.3833 0.5878
H14 H 0.1861 0.3333 0.5670
C38 C -0.0314(5) 0.2606(2) 0.5463(2)
H15 H -0.0302 0.2528 0.5948
H16 H -0.1437 0.2650 0.5306
H17 H 0.0134 0.2150 0.5098
C39 C 0.7210(3) 0.98147(17) -0.02356(17)
H18 H 0.6666 1.0254 0.0104
H19 H 0.8392 0.9911 -0.0135
C40 C 0.6817(4) 0.97958(17) -0.10486(17)
H20 H 0.5635 0.9703 -0.1150
H21 H 0.7358 0.9356 -0.1390
C41 C 0.7417(3) 1.05920(17) -0.11886(16)
H22 H 0.6882 1.1034 -0.0848
H23 H 0.8600 1.0685 -0.1092
C42 C 0.6988(4) 1.05564(18) -0.20037(18)
H24 H 0.7572 1.0131 -0.2340
H25 H 0.5811 1.0430 -0.2105
C43 C 0.7460(4) 1.13573(18) -0.21619(18)
H26 H 0.8632 1.1491 -0.2051
H27 H 0.6856 1.1781 -0.1835
C44 C 0.7053(5) 1.1298(2) -0.2983(2)
H28 H 0.7369 1.1808 -0.3054
H29 H 0.7657 1.0877 -0.3314
H30 H 0.5881 1.1168 -0.3098
C45 C 0.4023(4) 0.66507(19) -0.34652(16)
H31 H 0.2922 0.6683 -0.3656
H32 H 0.4526 0.6202 -0.3814
C46 C 0.5069(4) 0.74399(19) -0.34132(17)
H33 H 0.4641 0.7889 -0.3032
H34 H 0.6206 0.7393 -0.3278
C47 C 0.5000(4) 0.7604(2) -0.41742(17)
H35 H 0.3856 0.7638 -0.4309
H36 H 0.5438 0.7154 -0.4550
C48 C 0.5984(5) 0.8393(2) -0.41674(19)
H37 H 0.5589 0.8844 -0.3777
H38 H 0.7141 0.8352 -0.4063
C49 C 0.5790(6) 0.8552(2) -0.49305(19)
H39 H 0.4636 0.8611 -0.5023
H40 H 0.6140 0.8087 -0.5321
C50 C 0.6800(6) 0.9312(3) -0.4953(2)
H41 H 0.6642 0.9382 -0.5438
H42 H 0.6451 0.9779 -0.4565
H43 H 0.7956 0.9255 -0.4862
C51 C -0.0382(3) 0.21228(16) 0.09032(17)
H44 H -0.1554 0.2074 0.0776
H45 H 0.0117 0.1652 0.0586
C52 C -0.0150(4) 0.21516(18) 0.17273(17)
H46 H -0.0588 0.2638 0.2051
H47 H 0.1018 0.2163 0.1849
C53 C -0.1038(4) 0.14064(18) 0.18661(17)
H48 H -0.2207 0.1404 0.1753
H49 H -0.0616 0.0922 0.1531
C54 C -0.0799(5) 0.14035(19) 0.26801(18)
H50 H -0.1215 0.1888 0.3018
H51 H 0.0367 0.1399 0.2795
C55 C -0.1732(6) 0.0657(2) 0.2803(2)
H52 H -0.2899 0.0668 0.2694
H53 H -0.1328 0.0175 0.2457
C56 C -0.1490(7) 0.0627(2) 0.3606(2)
H54 H -0.2085 0.0153 0.3653
H55 H -0.1896 0.1107 0.3955
H56 H -0.0325 0.0614 0.3717
S5 S 0.77084(15) 0.84750(7) 0.22188(7)
S6 S 0.06540(19) 0.42346(9) -0.24490(10)
C57 C 0.7822(5) 0.8199(3) 0.3026(3)
C58 C 0.6999(8) 0.7470(4) 0.2941(4)
C59 C -0.0132(12) 0.3468(4) -0.1496(4)
C60 C -0.0409(5) 0.3427(3) -0.2252(3)
H57 H -0.1093 0.3004 -0.2621
H58 H -0.0637 0.3093 -0.1273
H59 H 0.7020 0.7187 0.3303
H60 H 0.8404 0.8530 0.3490
S7? S 0.6890(4) 0.75834(16) 0.30544(15)
S8? S -0.0262(4) 0.33370(15) -0.16275(13)
C61? C 0.8014(9) 0.8369(5) 0.2834(4)
C62? C -0.0278(9) 0.3598(5) -0.2436(4)
C63? C 0.7950(10) 0.8340(5) 0.2068(5)
C64? C 0.0834(13) 0.4141(6) -0.2466(7)
H61? H -0.1039 0.3342 -0.2863
H62? H 0.1225 0.4282 -0.2890
H63? H 0.8592 0.8646 0.1814
H64? H 0.8681 0.8796 0.3207
loop_
_geom_bond_atom_site_label_1
_geom_bond_atom_site_label_2
_geom_bond_site_symmetry_1
_geom_bond_site_symmetry_2
S1 C11 1_555 1_555
S2 C15 1_555 1_555
S3 C20 1_555 1_555
S4 C24 1_555 1_555
C1 C2 1_555 1_555
C2 C3 1_555 1_555
C3 C4 1_555 1_555
C4 C5 1_555 1_555
C5 C6 1_555 1_555
C6 C1 1_555 1_555
C7 C6 1_555 1_555
C8 C7 1_555 1_555
C9 C8 1_555 1_555
C10 C1 1_555 1_555
C11 C10 1_555 1_555
C12 C11 1_555 1_555
C13 C2 1_555 1_555
C14 C13 1_555 1_555
C15 C14 1_555 1_555
C16 C3 1_555 1_555
C17 C16 1_555 1_555
C18 C17 1_555 1_555
C19 C4 1_555 1_555
C20 C19 1_555 1_555
C21 C20 1_555 1_555
C22 C5 1_555 1_555
C23 C22 1_555 1_555
C24 C7 1_555 1_555
C25 S1 1_555 1_555
C26 S2 1_555 1_555
C27 S3 1_555 1_555
C28 S4 1_555 1_555
C29 C12 1_555 1_555
C30 C14 1_555 1_555
C31 C21 1_555 1_555
C32 C23 1_555 1_555
H1 C29 1_555 1_555
H2 C30 1_555 1_555
H3 C31 1_555 1_555
H4 C32 1_555 1_555
C33 C28 1_555 1_555
H5 C33 1_555 1_555
H6 C33 1_555 1_555
C34 C33 1_555 1_555
H7 C34 1_555 1_555
H8 C34 1_555 1_555
C35 C34 1_555 1_555
H9 C35 1_555 1_555
H10 C35 1_555 1_555
C36 C35 1_555 1_555
H11 C36 1_555 1_555
H12 C36 1_555 1_555
C37 C36 1_555 1_555
H13 C37 1_555 1_555
H14 C37 1_555 1_555
C38 C37 1_555 1_555
H15 C38 1_555 1_555
H16 C38 1_555 1_555
H17 C38 1_555 1_555
C39 C25 1_555 1_555
H18 C39 1_555 1_555
H19 C39 1_555 1_555
C40 C39 1_555 1_555
H20 C40 1_555 1_555
H21 C40 1_555 1_555
C41 C40 1_555 1_555
H22 C41 1_555 1_555
H23 C41 1_555 1_555
C42 C41 1_555 1_555
H24 C42 1_555 1_555
H25 C42 1_555 1_555
C43 C42 1_555 1_555
H26 C43 1_555 1_555
H27 C43 1_555 1_555
C44 C43 1_555 1_555
H28 C44 1_555 1_555
H29 C44 1_555 1_555
H30 C44 1_555 1_555
C45 C26 1_555 1_555
H31 C45 1_555 1_555
H32 C45 1_555 1_555
C46 C45 1_555 1_555
H33 C46 1_555 1_555
H34 C46 1_555 1_555
C47 C46 1_555 1_555
H35 C47 1_555 1_555
H36 C47 1_555 1_555
C48 C47 1_555 1_555
H37 C48 1_555 1_555
H38 C48 1_555 1_555
C49 C48 1_555 1_555
H39 C49 1_555 1_555
H40 C49 1_555 1_555
C50 C49 1_555 1_555
H41 C50 1_555 1_555
H42 C50 1_555 1_555
H43 C50 1_555 1_555
C51 C27 1_555 1_555
H44 C51 1_555 1_555
H45 C51 1_555 1_555
C52 C51 1_555 1_555
H46 C52 1_555 1_555
H47 C52 1_555 1_555
C53 C52 1_555 1_555
H48 C53 1_555 1_555
H49 C53 1_555 1_555
C54 C53 1_555 1_555
H50 C54 1_555 1_555
H51 C54 1_555 1_555
C55 C54 1_555 1_555
H52 C55 1_555 1_555
H53 C55 1_555 1_555
C56 C55 1_555 1_555
H54 C56 1_555 1_555
H55 C56 1_555 1_555
H56 C56 1_555 1_555
S5 C9 1_555 1_555
S6 C17 1_555 1_555
C57 S5 1_555 1_555
C58 C8 1_555 1_555
C59 C18 1_555 1_555
C60 S6 1_555 1_555
H57 C60 1_555 1_555
H58 C59 1_555 1_555
H59 C58 1_555 1_555
H60 C57 1_555 1_555
C9 C10 1_555 1_555
C12 C13 1_555 1_555
C15 C16 1_555 1_555
C18 C19 1_555 1_555
C21 C22 1_555 1_555
C23 C24 1_555 1_555
C25 C29 1_555 1_555
C26 C30 1_555 1_555
C27 C31 1_555 1_555
C28 C32 1_555 1_555
C57 C58 1_555 1_555
C59 C60 1_555 1_555

#END
