
#######################################################################
#
#                 Cambridge Crystallographic Data Centre
#                                CCDC 
#
#######################################################################
#
# If this CIF has been generated from an entry in the Cambridge 
# Structural Database, then it will include bibliographic, chemical, 
# crystal, experimental, refinement or atomic coordinate data resulting 
# from the CCDC's data processing and validation procedures.
#
#######################################################################

data_KEPTUV
_chemical_formula_moiety         'C18 H20 O2 S2'
_chemical_name_systematic        
2,4-Dioxa-12,16-dithiatricyclo[16.4.0.0^5,10^]docosa-1(18),5,7,9,19,21-hexaene
_symmetry_cell_setting           monoclinic
_symmetry_space_group_name_H-M   'P c'
_symmetry_Int_Tables_number      7
_space_group_name_Hall           'P -2yc'
loop_
_symmetry_equiv_pos_site_id
_symmetry_equiv_pos_as_xyz
1 x,y,z
2 x,-y,1/2+z
_cell_length_a                   4.6632(4)
_cell_length_b                   11.9310(11)
_cell_length_c                   14.8994(13)
_cell_angle_alpha                90
_cell_angle_beta                 97.685(2)
_cell_angle_gamma                90
_cell_volume                     821.507
_exptl_crystal_colour            colorless
_exptl_crystal_description       plate
_chemical_melting_point          78-80deg.C
_cell_formula_units_Z            2
_exptl_crystal_recrystallization_method methanol
loop_
_atom_site_label
_atom_site_type_symbol
_atom_site_fract_x
_atom_site_fract_y
_atom_site_fract_z
S1 S -0.0669(2) 0.08155(10) 0.81195(9)
S2 S -0.1050(2) 0.52990(10) 0.69371(9)
O1 O 0.1031(7) 0.3079(3) 0.9890(2)
O2 O 0.0941(6) 0.4814(3) 0.9483(2)
C1 C 0.2663(9) 0.4068(3) 1.0046(3)
H1 H 0.2846 0.4301 1.0689
H2 H 0.4614 0.3988 0.9861
C2 C 0.2131(10) 0.2111(3) 1.0304(3)
C3 C 0.4435(11) 0.2091(4) 1.0992(3)
H3 H 0.5396 0.2766 1.1191
C4 C 0.5336(11) 0.1071(4) 1.1391(3)
H4 H 0.6885 0.1051 1.1874
C5 C 0.3993(11) 0.0099(4) 1.1086(3)
H5 H 0.4633 -0.0596 1.1353
C6 C 0.1693(10) 0.0123(4) 1.0388(3)
H6 H 0.0764 -0.0557 1.0184
C7 C 0.0749(9) 0.1126(4) 0.9988(3)
C8 C -0.1710(10) 0.1151(4) 0.9221(3)
H7 H -0.2590 0.1907 0.9192
H8 H -0.3208 0.0611 0.9356
C9 C 0.1217(10) 0.2082(4) 0.7849(3)
H9 H 0.2597 0.2298 0.8385
H10 H 0.2357 0.1911 0.7351
C10 C -0.0728(10) 0.3073(4) 0.7572(3)
H11 H -0.1785 0.3288 0.8079
H12 H -0.2170 0.2862 0.7050
C11 C 0.1049(10) 0.4064(4) 0.7314(3)
H13 H 0.2159 0.3826 0.6826
H14 H 0.2461 0.4271 0.7845
C12 C -0.1924(9) 0.5897(4) 0.7995(3)
H15 H -0.3444 0.6473 0.7851
H16 H -0.2734 0.5299 0.8347
C13 C 0.0612(9) 0.6422(4) 0.8576(3)
C14 C 0.1591(10) 0.7481(4) 0.8404(3)
H17 H 0.0656 0.7884 0.7897
C15 C 0.3908(11) 0.7981(4) 0.8949(4)
H18 H 0.4555 0.8708 0.8811
C16 C 0.5240(10) 0.7404(4) 0.9688(4)
H19 H 0.6798 0.7740 1.0070
C17 C 0.4327(10) 0.6337(4) 0.9880(3)
H20 H 0.5270 0.5938 1.0387
C18 C 0.2042(9) 0.5855(4) 0.9331(3)
loop_
_geom_bond_atom_site_label_1
_geom_bond_atom_site_label_2
_geom_bond_site_symmetry_1
_geom_bond_site_symmetry_2
S1 C8 1_555 1_555
S2 C11 1_555 1_555
O1 C1 1_555 1_555
O2 C1 1_555 1_555
C1 H1 1_555 1_555
H2 C1 1_555 1_555
C2 O1 1_555 1_555
C3 C2 1_555 1_555
H3 C3 1_555 1_555
C4 C3 1_555 1_555
H4 C4 1_555 1_555
C5 C4 1_555 1_555
H5 C5 1_555 1_555
C6 C5 1_555 1_555
H6 C6 1_555 1_555
C7 C2 1_555 1_555
C8 C7 1_555 1_555
H7 C8 1_555 1_555
H8 C8 1_555 1_555
C9 S1 1_555 1_555
H9 C9 1_555 1_555
H10 C9 1_555 1_555
C10 C9 1_555 1_555
H11 C10 1_555 1_555
H12 C10 1_555 1_555
C11 C10 1_555 1_555
H13 C11 1_555 1_555
H14 C11 1_555 1_555
C12 S2 1_555 1_555
H15 C12 1_555 1_555
H16 C12 1_555 1_555
C13 C12 1_555 1_555
C14 C13 1_555 1_555
H17 C14 1_555 1_555
C15 C14 1_555 1_555
H18 C15 1_555 1_555
C16 C15 1_555 1_555
H19 C16 1_555 1_555
C17 C16 1_555 1_555
H20 C17 1_555 1_555
C18 O2 1_555 1_555
C6 C7 1_555 1_555
C13 C18 1_555 1_555
C17 C18 1_555 1_555

#END
