
#######################################################################
#
#                 Cambridge Crystallographic Data Centre
#                                CCDC 
#
#######################################################################
#
# If this CIF has been generated from an entry in the Cambridge 
# Structural Database, then it will include bibliographic, chemical, 
# crystal, experimental, refinement or atomic coordinate data resulting 
# from the CCDC's data processing and validation procedures.
#
#######################################################################

data_KEPWOU
_chemical_formula_moiety         'C26 H23 N1 O5,C1 H1 Cl3'
_chemical_name_systematic        
'2,2-dimethyl-4,6-dioxo-5-(3-oxo-1,3-diphenyl-2-(pyridin-1-ium-1-yl)propyl)-1,3-dioxan-5-ide chloroform solvate'
_symmetry_cell_setting           monoclinic
_symmetry_space_group_name_H-M   'C 2/c'
_symmetry_Int_Tables_number      15
_space_group_name_Hall           '-C 2yn'
loop_
_symmetry_equiv_pos_site_id
_symmetry_equiv_pos_as_xyz
1 x,y,z
2 -x,y,1/2-z
3 1/2+x,1/2+y,z
4 1/2-x,1/2+y,1/2-z
5 -x,-y,-z
6 x,-y,1/2+z
7 1/2-x,1/2-y,-z
8 1/2+x,1/2-y,1/2+z
_cell_length_a                   32.206(7)
_cell_length_b                   10.932(2)
_cell_length_c                   17.205(4)
_cell_angle_alpha                90
_cell_angle_beta                 116.629(2)
_cell_angle_gamma                90
_cell_volume                     5414.94
_cell_formula_units_Z            8
loop_
_atom_site_label
_atom_site_type_symbol
_atom_site_fract_x
_atom_site_fract_y
_atom_site_fract_z
O1 O 0.13277(7) 0.7715(2) 0.30263(15)
O2 O 0.20633(7) 0.75875(19) 0.39871(15)
O3 O 0.27992(8) 1.1659(2) 0.57255(15)
N1 N 0.21219(8) 0.9984(2) 0.52134(15)
O4 O 0.10034(8) 0.9534(2) 0.22652(15)
C1 C 0.22314(10) 1.0242(3) 0.38735(18)
H1 H 0.2142 1.1104 0.3847
O5 O 0.14050(8) 1.1264(2) 0.25290(16)
C2 C 0.17497(11) 0.8273(3) 0.3504(2)
C3 C 0.28804(11) 1.0724(3) 0.54284(19)
C4 C 0.25655(10) 1.0182(3) 0.34660(19)
C5 C 0.24700(10) 0.9897(3) 0.48598(19)
H2 H 0.2581 0.9050 0.4919
C6 C 0.17816(10) 0.9540(3) 0.3385(2)
C7 C 0.18428(11) 1.0969(3) 0.5030(2)
H3 H 0.1865 1.1588 0.4681
C8 C 0.26378(12) 0.9124(3) 0.3093(2)
H4 H 0.2477 0.8414 0.3083
C9 C 0.14080(11) 1.0187(3) 0.2744(2)
C10 C 0.15250(13) 1.1064(3) 0.5357(2)
H5 H 0.1329 1.1740 0.5222
C11 C 0.21020(12) 0.9093(3) 0.5730(2)
H6 H 0.2299 0.8422 0.5855
C12 C 0.33589(11) 1.0393(3) 0.5609(2)
C13 C 0.17942(13) 0.9164(3) 0.6074(2)
H7 H 0.1784 0.8546 0.6436
C14 C 0.28022(12) 1.1242(3) 0.3445(2)
H8 H 0.2754 1.1963 0.3680
C15 C 0.14981(13) 1.0154(3) 0.5885(2)
H9 H 0.1284 1.0204 0.6110
C16 C 0.34651(13) 0.9388(4) 0.5237(3)
H10 H 0.3229 0.8860 0.4884
C17 C 0.09211(11) 0.8473(4) 0.2665(2)
C18 C 0.29475(13) 0.9117(3) 0.2735(2)
H11 H 0.2997 0.8402 0.2497
C19 C 0.31083(13) 1.1238(3) 0.3081(2)
H12 H 0.3263 1.1951 0.3072
C20 C 0.31827(13) 1.0176(4) 0.2733(2)
H13 H 0.3392 1.0169 0.2496
C21 C 0.39186(16) 0.9163(5) 0.5387(4)
H14 H 0.3986 0.8507 0.5118
C22 C 0.07864(14) 0.8850(4) 0.3370(3)
H15 H 0.0718 0.8134 0.3615
H16 H 0.0517 0.9367 0.3124
H17 H 0.1039 0.9289 0.3817
C23 C 0.37197(14) 1.1143(4) 0.6181(3)
H18 H 0.3656 1.1802 0.6452
C24 C 0.41702(17) 1.0893(6) 0.6338(4)
H19 H 0.4410 1.1387 0.6718
C25 C 0.05463(15) 0.7737(5) 0.1948(3)
H20 H 0.0643 0.7551 0.1508
H21 H 0.0264 0.8203 0.1696
H22 H 0.0495 0.6990 0.2184
C26 C 0.42695(18) 0.9920(7) 0.5938(5)
H23 H 0.4574 0.9775 0.6041
Cl1 Cl 0.04076(8) 0.1477(2) 0.02189(12)
Cl2 Cl 0.00039(9) 0.1627(2) 0.1405(2)
Cl3 Cl 0.04381(9) 0.3707(2) 0.1093(2)
C27 C 0.04369(18) 0.2117(5) 0.1165(3)
H24 H 0.0733 0.1870 0.1645
loop_
_geom_bond_atom_site_label_1
_geom_bond_atom_site_label_2
_geom_bond_site_symmetry_1
_geom_bond_site_symmetry_2
O1 C2 1_555 1_555
O2 C2 1_555 1_555
O3 C3 1_555 1_555
N1 C5 1_555 1_555
O4 C9 1_555 1_555
C1 H1 1_555 1_555
O5 C9 1_555 1_555
C2 C6 1_555 1_555
C3 C5 1_555 1_555
C4 C1 1_555 1_555
C5 C1 1_555 1_555
H2 C5 1_555 1_555
C6 C1 1_555 1_555
C7 N1 1_555 1_555
H3 C7 1_555 1_555
C8 C4 1_555 1_555
H4 C8 1_555 1_555
C9 C6 1_555 1_555
C10 C7 1_555 1_555
H5 C10 1_555 1_555
C11 N1 1_555 1_555
H6 C11 1_555 1_555
C12 C3 1_555 1_555
C13 C11 1_555 1_555
H7 C13 1_555 1_555
C14 C4 1_555 1_555
H8 C14 1_555 1_555
C15 C10 1_555 1_555
H9 C15 1_555 1_555
C16 C12 1_555 1_555
H10 C16 1_555 1_555
C17 O1 1_555 1_555
C18 C8 1_555 1_555
H11 C18 1_555 1_555
C19 C14 1_555 1_555
H12 C19 1_555 1_555
C20 C18 1_555 1_555
H13 C20 1_555 1_555
C21 C16 1_555 1_555
H14 C21 1_555 1_555
C22 C17 1_555 1_555
H15 C22 1_555 1_555
H16 C22 1_555 1_555
H17 C22 1_555 1_555
C23 C12 1_555 1_555
H18 C23 1_555 1_555
C24 C23 1_555 1_555
H19 C24 1_555 1_555
C25 C17 1_555 1_555
H20 C25 1_555 1_555
H21 C25 1_555 1_555
H22 C25 1_555 1_555
C26 C21 1_555 1_555
H23 C26 1_555 1_555
Cl1 C27 1_555 1_555
Cl2 C27 1_555 1_555
Cl3 C27 1_555 1_555
C27 H24 1_555 1_555
O4 C17 1_555 1_555
C13 C15 1_555 1_555
C19 C20 1_555 1_555
C24 C26 1_555 1_555

#END
