
#######################################################################
#
#                 Cambridge Crystallographic Data Centre
#                                CCDC 
#
#######################################################################
#
# If this CIF has been generated from an entry in the Cambridge 
# Structural Database, then it will include bibliographic, chemical, 
# crystal, experimental, refinement or atomic coordinate data resulting 
# from the CCDC's data processing and validation procedures.
#
#######################################################################

data_KEPWUZ
_chemical_formula_moiety         'C52 H84 N2 Si4'
_chemical_name_systematic        
tetrakis((tri-isopropylsilyl)ethynyl)cyclopenta-2,4-dien-1-ylidenepropanedinitrile
_symmetry_cell_setting           monoclinic
_symmetry_space_group_name_H-M   'P 21'
_symmetry_Int_Tables_number      4
_space_group_name_Hall           'P 2yb'
loop_
_symmetry_equiv_pos_site_id
_symmetry_equiv_pos_as_xyz
1 x,y,z
2 -x,1/2+y,-z
_cell_length_a                   13.2013(7)
_cell_length_b                   14.5468(7)
_cell_length_c                   14.6172(7)
_cell_angle_alpha                90
_cell_angle_beta                 106.826(2)
_cell_angle_gamma                90
_cell_volume                     2686.86
_exptl_crystal_colour            green
_exptl_crystal_description       plate
_cell_formula_units_Z            2
loop_
_atom_site_label
_atom_site_type_symbol
_atom_site_fract_x
_atom_site_fract_y
_atom_site_fract_z
Si1 Si 0.85566(5) 0.01864(4) 0.97972(4)
Si2 Si 0.36047(5) -0.01170(4) 0.90928(4)
Si3 Si 0.11457(4) 0.29281(4) 0.57740(4)
Si4 Si 0.4945(4) 0.6192(3) 0.5701(3)
N1 N 0.77787(17) 0.45479(17) 0.64646(17)
N2 N 0.91732(16) 0.26560(16) 0.85908(16)
C1 C 0.64202(15) 0.30037(14) 0.75754(13)
C2 C 0.62009(15) 0.21828(14) 0.80681(14)
C3 C 0.51279(15) 0.20881(13) 0.78471(14)
C4 C 0.46238(15) 0.28520(14) 0.72119(13)
C5 C 0.53923(16) 0.34133(14) 0.70646(14)
C6 C 0.73898(17) 0.33029(15) 0.75663(15)
C7 C 0.75602(17) 0.40258(16) 0.69549(17)
C8 C 0.83663(17) 0.29060(17) 0.81486(16)
C9 C 0.69566(16) 0.15675(14) 0.86305(14)
C10 C 0.75918(16) 0.10245(15) 0.90983(15)
C11 C 0.88793(19) -0.06181(17) 0.89153(17)
H1 H 0.9484 -0.1084 0.9313
C12 C 0.9335(2) -0.0092(2) 0.82183(19)
H2 H 0.8773 0.0421 0.7849
H3 H 0.9490 -0.0565 0.7705
H4 H 1.0064 0.0240 0.8609
C13 C 0.7947(2) -0.1195(2) 0.8359(2)
H5 H 0.7638 -0.1579 0.8851
H6 H 0.8203 -0.1665 0.7898
H7 H 0.7337 -0.0750 0.7931
C14 C 0.97803(19) 0.08406(17) 1.04353(18)
H8 H 1.0078 0.1124 0.9881
C15 C 1.0660(2) 0.0213(2) 1.1025(2)
H9 H 1.0433 -0.0062 1.1623
H10 H 1.1383 0.0603 1.1285
H11 H 1.0785 -0.0345 1.0582
C16 C 0.9604(3) 0.1657(3) 1.1015(2)
H12 H 0.8974 0.2079 1.0581
H13 H 1.0322 0.2057 1.1245
H14 H 0.9390 0.1416 1.1633
C17 C 0.7815(2) -0.0440(2) 1.0532(2)
H15 H 0.7122 -0.0697 1.0002
C18 C 0.8336(3) -0.1296(2) 1.1020(2)
H16 H 0.8502 -0.1752 1.0499
H17 H 0.7815 -0.1634 1.1363
H18 H 0.9067 -0.1117 1.1550
C19 C 0.7362(2) 0.0185(3) 1.1139(2)
H19 H 0.7999 0.0512 1.1675
H20 H 0.6887 -0.0214 1.1484
H21 H 0.6874 0.0703 1.0692
C20 C 0.45804(15) 0.13951(14) 0.81795(14)
C21 C 0.41375(16) 0.08077(15) 0.85009(15)
C22 C 0.33994(19) 0.04184(17) 1.02004(17)
H22 H 0.3029 -0.0088 1.0539
C23 C 0.4450(2) 0.0698(2) 1.09170(19)
H23 H 0.4923 0.0092 1.1165
H24 H 0.4297 0.1044 1.1517
H25 H 0.4872 0.1156 1.0574
C24 C 0.2662(2) 0.12534(19) 0.99529(19)
H26 H 0.3003 0.1763 0.9593
H27 H 0.2562 0.1544 1.0601
H28 H 0.1902 0.1042 0.9490
C25 C 0.47000(19) -0.09878(16) 0.94149(17)
H29 H 0.5410 -0.0607 0.9761
C26 C 0.4913(2) -0.1453(2) 0.8551(2)
H30 H 0.4241 -0.1872 0.8189
H31 H 0.5609 -0.1882 0.8788
H32 H 0.5041 -0.0935 0.8067
C27 C 0.4581(2) -0.1703(2) 1.0145(2)
H33 H 0.4435 -0.1359 1.0749
H34 H 0.5300 -0.2103 1.0384
H35 H 0.3926 -0.2153 0.9818
C28 C 0.23178(18) -0.05107(16) 0.82579(17)
H36 H 0.1753 0.0029 0.8249
C29 C 0.2325(2) -0.0639(2) 0.72217(18)
H37 H 0.2646 -0.0031 0.6985
H38 H 0.1527 -0.0751 0.6774
H39 H 0.2809 -0.1226 0.7174
C30 C 0.1889(2) -0.1379(2) 0.8623(2)
H40 H 0.2387 -0.1959 0.8586
H41 H 0.1092 -0.1512 0.8184
H42 H 0.1889 -0.1275 0.9354
C31 C 0.35145(16) 0.29312(14) 0.68168(14)
C32 C 0.25713(16) 0.29400(15) 0.64486(14)
C33 C 0.0803(2) 0.41534(16) 0.53984(18)
H43 H -0.0029 0.4184 0.5013
C34 C 0.1429(2) 0.44823(18) 0.4739(2)
H44 H 0.2264 0.4453 0.5111
H45 H 0.1208 0.5182 0.4523
H46 H 0.1259 0.4046 0.4115
C35 C 0.1002(2) 0.47764(18) 0.62858(19)
H47 H 0.0467 0.4589 0.6691
H48 H 0.0871 0.5485 0.6062
H49 H 0.1809 0.4692 0.6726
C36 C 0.03977(17) 0.25191(17) 0.66085(17)
H50 H 0.0407 0.3079 0.7096
C37 C 0.0888(2) 0.16929(19) 0.72253(19)
H51 H 0.0785 0.1085 0.6784
H52 H 0.0504 0.1596 0.7778
H53 H 0.1722 0.1815 0.7550
C38 C -0.07741(18) 0.2333(2) 0.60784(19)
H54 H -0.1133 0.2951 0.5719
H55 H -0.1183 0.2123 0.6586
H56 H -0.0828 0.1793 0.5559
C39 C 0.10545(18) 0.21763(16) 0.47115(16)
H57 H 0.1695 0.2382 0.4434
C40 C 0.12381(19) 0.11613(17) 0.49788(18)
H58 H 0.1972 0.1086 0.5542
H59 H 0.1280 0.0774 0.4361
H60 H 0.0592 0.0907 0.5223
C41 C 0.0026(2) 0.23105(19) 0.38887(18)
H61 H -0.0641 0.2076 0.4113
H62 H 0.0072 0.1919 0.3274
H63 H -0.0073 0.3030 0.3703
C42 C 0.52297(16) 0.42691(15) 0.65830(14)
C43 C 0.50841(16) 0.50198(15) 0.62224(14)
C44 C 0.4658(2) 0.60347(16) 0.43810(16)
H64 H 0.4638 0.6709 0.4067
C45 C 0.5549(3) 0.5492(2) 0.4150(2)
H65 H 0.6282 0.5869 0.4399
H66 H 0.5359 0.5392 0.3387
H67 H 0.5633 0.4831 0.4502
C46 C 0.3608(2) 0.55708(19) 0.3899(2)
H68 H 0.3591 0.4900 0.4211
H69 H 0.3518 0.5498 0.3144
H70 H 0.2969 0.5985 0.3998
C47 C 0.6343(3) 0.6735(3) 0.6095(3)
H71 H 0.6861 0.6390 0.5753
C48 C 0.6215(2) 0.77517(17) 0.57969(18)
H72 H 0.5903 0.7795 0.5103
H73 H 0.6909 0.8052 0.5980
H74 H 0.5750 0.8057 0.6118
C49 C 0.6799(4) 0.6669(4) 0.7214(4)
H75 H 0.6341 0.7103 0.7544
H76 H 0.7614 0.6893 0.7429
H77 H 0.6755 0.5966 0.7437
C50 C 0.4067(4) 0.6929(4) 0.6112(4)
H78 H 0.4545 0.7266 0.6749
C51 C 0.3571(4) 0.7692(3) 0.5398(4)
H79 H 0.4189 0.8068 0.5211
H80 H 0.3133 0.8156 0.5719
H81 H 0.3043 0.7392 0.4762
C52 C 0.3216(5) 0.6406(4) 0.6398(5)
H82 H 0.2645 0.6141 0.5767
H83 H 0.2825 0.6861 0.6772
H84 H 0.3571 0.5842 0.6861
Si5? Si 0.4864(6) 0.6172(5) 0.5676(5)
C53? C 0.5913(5) 0.6951(4) 0.6389(4)
H85? H 0.5600 0.7270 0.6917
H86? H 0.6500 0.7493 0.5304
H87? H 0.6749 0.8145 0.6224
H88? H 0.5583 0.8117 0.5493
C54? C 0.6957(4) 0.6509(4) 0.6932(4)
H89? H 0.6817 0.5991 0.7411
H90? H 0.7483 0.7027 0.7339
H91? H 0.7314 0.6193 0.6432
C55? C 0.3526(4) 0.6583(3) 0.5868(3)
H92? H 0.2897 0.6191 0.5389
C56? C 0.3310(5) 0.7598(4) 0.5621(4)
H93? H 0.3917 0.8011 0.6098
H94? H 0.2547 0.7784 0.5696
H95? H 0.3315 0.7716 0.4892
C57? C 0.3462(4) 0.6422(4) 0.6896(4)
H96? H 0.3526 0.5695 0.7054
H97? H 0.2714 0.6675 0.6955
H98? H 0.4102 0.6783 0.7397
loop_
_geom_bond_atom_site_label_1
_geom_bond_atom_site_label_2
_geom_bond_site_symmetry_1
_geom_bond_site_symmetry_2
Si1 C10 1_555 1_555
Si2 C21 1_555 1_555
Si3 C32 1_555 1_555
Si4 C43 1_555 1_555
N1 C7 1_555 1_555
N2 C8 1_555 1_555
C1 C2 1_555 1_555
C2 C3 1_555 1_555
C3 C4 1_555 1_555
C4 C5 1_555 1_555
C5 C1 1_555 1_555
C6 C1 1_555 1_555
C7 C6 1_555 1_555
C8 C6 1_555 1_555
C9 C2 1_555 1_555
C10 C9 1_555 1_555
C11 Si1 1_555 1_555
H1 C11 1_555 1_555
C12 C11 1_555 1_555
H2 C12 1_555 1_555
H3 C12 1_555 1_555
H4 C12 1_555 1_555
C13 C11 1_555 1_555
H5 C13 1_555 1_555
H6 C13 1_555 1_555
H7 C13 1_555 1_555
C14 Si1 1_555 1_555
H8 C14 1_555 1_555
C15 C14 1_555 1_555
H9 C15 1_555 1_555
H10 C15 1_555 1_555
H11 C15 1_555 1_555
C16 C14 1_555 1_555
H12 C16 1_555 1_555
H13 C16 1_555 1_555
H14 C16 1_555 1_555
C17 Si1 1_555 1_555
H15 C17 1_555 1_555
C18 C17 1_555 1_555
H16 C18 1_555 1_555
H17 C18 1_555 1_555
H18 C18 1_555 1_555
C19 C17 1_555 1_555
H19 C19 1_555 1_555
H20 C19 1_555 1_555
H21 C19 1_555 1_555
C20 C3 1_555 1_555
C21 C20 1_555 1_555
C22 Si2 1_555 1_555
H22 C22 1_555 1_555
C23 C22 1_555 1_555
H23 C23 1_555 1_555
H24 C23 1_555 1_555
H25 C23 1_555 1_555
C24 C22 1_555 1_555
H26 C24 1_555 1_555
H27 C24 1_555 1_555
H28 C24 1_555 1_555
C25 Si2 1_555 1_555
H29 C25 1_555 1_555
C26 C25 1_555 1_555
H30 C26 1_555 1_555
H31 C26 1_555 1_555
H32 C26 1_555 1_555
C27 C25 1_555 1_555
H33 C27 1_555 1_555
H34 C27 1_555 1_555
H35 C27 1_555 1_555
C28 Si2 1_555 1_555
H36 C28 1_555 1_555
C29 C28 1_555 1_555
H37 C29 1_555 1_555
H38 C29 1_555 1_555
H39 C29 1_555 1_555
C30 C28 1_555 1_555
H40 C30 1_555 1_555
H41 C30 1_555 1_555
H42 C30 1_555 1_555
C31 C4 1_555 1_555
C32 C31 1_555 1_555
C33 Si3 1_555 1_555
H43 C33 1_555 1_555
C34 C33 1_555 1_555
H44 C34 1_555 1_555
H45 C34 1_555 1_555
H46 C34 1_555 1_555
C35 C33 1_555 1_555
H47 C35 1_555 1_555
H48 C35 1_555 1_555
H49 C35 1_555 1_555
C36 Si3 1_555 1_555
H50 C36 1_555 1_555
C37 C36 1_555 1_555
H51 C37 1_555 1_555
H52 C37 1_555 1_555
H53 C37 1_555 1_555
C38 C36 1_555 1_555
H54 C38 1_555 1_555
H55 C38 1_555 1_555
H56 C38 1_555 1_555
C39 Si3 1_555 1_555
H57 C39 1_555 1_555
C40 C39 1_555 1_555
H58 C40 1_555 1_555
H59 C40 1_555 1_555
H60 C40 1_555 1_555
C41 C39 1_555 1_555
H61 C41 1_555 1_555
H62 C41 1_555 1_555
H63 C41 1_555 1_555
C42 C5 1_555 1_555
C43 C42 1_555 1_555
C44 Si4 1_555 1_555
H64 C44 1_555 1_555
C45 C44 1_555 1_555
H65 C45 1_555 1_555
H66 C45 1_555 1_555
H67 C45 1_555 1_555
C46 C44 1_555 1_555
H68 C46 1_555 1_555
H69 C46 1_555 1_555
H70 C46 1_555 1_555
C47 Si4 1_555 1_555
H71 C47 1_555 1_555
C48 C47 1_555 1_555
H72 C48 1_555 1_555
H73 C48 1_555 1_555
H74 C48 1_555 1_555
C49 C47 1_555 1_555
H75 C49 1_555 1_555
H76 C49 1_555 1_555
H77 C49 1_555 1_555
C50 Si4 1_555 1_555
H78 C50 1_555 1_555
C51 C50 1_555 1_555
H79 C51 1_555 1_555
H80 C51 1_555 1_555
H81 C51 1_555 1_555
C52 C50 1_555 1_555
H82 C52 1_555 1_555
H83 C52 1_555 1_555
H84 C52 1_555 1_555

#END
