
#######################################################################
#
#                 Cambridge Crystallographic Data Centre
#                                CCDC 
#
#######################################################################
#
# If this CIF has been generated from an entry in the Cambridge 
# Structural Database, then it will include bibliographic, chemical, 
# crystal, experimental, refinement or atomic coordinate data resulting 
# from the CCDC's data processing and validation procedures.
#
#######################################################################

data_KEPXEK
_chemical_formula_moiety         'C70 H104 N4 Si4'
_chemical_name_systematic        
tetrakis((tri-isopropylsilyl)ethynyl)-(2-(cyclopenta-2,4-dien-1-ylidene)-1,2-bis[4-(dimethylamino)phenyl]ethylidene)propanedinitrile
_symmetry_cell_setting           rhombohedral
_symmetry_space_group_name_H-M   'R -3'
_symmetry_Int_Tables_number      148
_space_group_name_Hall           '-R 3'
loop_
_symmetry_equiv_pos_site_id
_symmetry_equiv_pos_as_xyz
1 x,y,z
2 -y,x-y,z
3 -x+y,-x,z
4 2/3+x,1/3+y,1/3+z
5 2/3-y,1/3+x-y,1/3+z
6 2/3-x+y,1/3-x,1/3+z
7 1/3+x,2/3+y,2/3+z
8 1/3-y,2/3+x-y,2/3+z
9 1/3-x+y,2/3-x,2/3+z
10 -x,-y,-z
11 y,-x+y,-z
12 x-y,x,-z
13 1/3-x,2/3-y,2/3-z
14 1/3+y,2/3-x+y,2/3-z
15 1/3+x-y,2/3+x,2/3-z
16 2/3-x,1/3-y,1/3-z
17 2/3+y,1/3-x+y,1/3-z
18 2/3+x-y,1/3+x,1/3-z
_cell_length_a                   47.9783(16)
_cell_length_b                   47.9783(16)
_cell_length_c                   16.4921(7)
_cell_angle_alpha                90
_cell_angle_beta                 90
_cell_angle_gamma                120
_cell_volume                     32877.3
_exptl_crystal_colour            black
_exptl_crystal_description       rod
_cell_formula_units_Z            18
loop_
_atom_site_label
_atom_site_type_symbol
_atom_site_fract_x
_atom_site_fract_y
_atom_site_fract_z
Si1 Si 0.55811(5) 0.49500(5) 0.09648(11)
Si2 Si 0.56198(15) 0.37876(16) 0.2404(4)
Si3 Si 0.5715(3) 0.4043(3) 0.6448(7)
Si4 Si 0.64865(5) 0.55970(6) 0.70845(10)
N1 N 0.6683(2) 0.64977(19) 0.5485(5)
N2 N 0.70803(17) 0.60865(15) 0.3949(4)
N3 N 0.5075(3) 0.5596(3) 0.5315(7)
N4 N 0.67589(12) 0.61220(12) 0.0612(3)
C1 C 0.61597(12) 0.52511(12) 0.3877(3)
C2 C 0.60328(12) 0.49695(12) 0.3330(3)
C3 C 0.59674(12) 0.47090(12) 0.3778(3)
C4 C 0.60318(12) 0.47958(12) 0.4625(3)
C5 C 0.61426(12) 0.51214(12) 0.4690(3)
C6 C 0.62592(12) 0.55618(11) 0.3659(3)
C7 C 0.62546(15) 0.57894(13) 0.4276(3)
C8 C 0.65524(17) 0.60342(14) 0.4495(3)
C9 C 0.6618(2) 0.62873(18) 0.5061(4)
C10 C 0.6840(2) 0.60572(14) 0.4186(4)
C11 C 0.5982(3) 0.5768(3) 0.4535(7)
C12 C 0.5698(4) 0.5544(4) 0.4145(10)
H1 H 0.5713 0.5423 0.3706
C13 C 0.5392(3) 0.5488(3) 0.4374(8)
H2 H 0.5207 0.5348 0.4065
C14 C 0.5361(3) 0.5647(3) 0.5080(8)
C15 C 0.5667(3) 0.5888(3) 0.5473(6)
H3 H 0.5660 0.6010 0.5918
C16 C 0.5949(3) 0.5937(3) 0.5216(6)
H4 H 0.6138 0.6090 0.5493
C17 C 0.4783(5) 0.5322(5) 0.5008(11)
H5 H 0.4716 0.5384 0.4511
H6 H 0.4613 0.5252 0.5416
H7 H 0.4824 0.5145 0.4890
C18 C 0.5043(3) 0.5773(4) 0.6013(8)
H8 H 0.5143 0.5739 0.6494
H9 H 0.4815 0.5694 0.6120
H10 H 0.5151 0.6003 0.5886
C19 C 0.63675(12) 0.56894(11) 0.2859(3)
C20 C 0.65569(12) 0.55990(12) 0.2394(3)
H11 H 0.6595 0.5435 0.2593
C21 C 0.66882(13) 0.57411(13) 0.1664(3)
H12 H 0.6819 0.5679 0.1373
C22 C 0.66284(13) 0.59798(13) 0.1347(3)
C23 C 0.64410(14) 0.60702(13) 0.1789(3)
H13 H 0.6395 0.6226 0.1575
C24 C 0.63205(14) 0.59341(13) 0.2542(3)
H14 H 0.6203 0.6009 0.2851
C25 C 0.69812(16) 0.60493(17) 0.0201(4)
H15 H 0.7151 0.6077 0.0578
H16 H 0.7078 0.6195 -0.0261
H17 H 0.6866 0.5826 0.0007
C26 C 0.66528(16) 0.63229(15) 0.0217(3)
H18 H 0.6424 0.6239 0.0333
H19 H 0.6684 0.6321 -0.0370
H20 H 0.6779 0.6544 0.0421
C27 C 0.59273(13) 0.49644(12) 0.2524(3)
C28 C 0.58082(14) 0.49466(14) 0.1874(4)
C29 C 0.5828(2) 0.53393(18) 0.0432(4)
H21 H 0.5912 0.5511 0.0857
C30 C 0.61314(19) 0.5354(2) 0.0018(5)
H22 H 0.6231 0.5272 0.0395
H23 H 0.6287 0.5578 -0.0122
H24 H 0.6065 0.5223 -0.0475
C31 C 0.5664(2) 0.5437(2) -0.0208(5)
H25 H 0.5565 0.5268 -0.0620
H26 H 0.5823 0.5639 -0.0465
H27 H 0.5497 0.5468 0.0050
C32 C 0.5446(2) 0.4583(2) 0.0377(5)
H28 H 0.5305 0.4399 0.0740
C33 C 0.5732(3) 0.4542(3) 0.0141(8)
H29 H 0.5922 0.4754 0.0051
H30 H 0.5680 0.4414 -0.0357
H31 H 0.5776 0.4431 0.0579
C34 C 0.5245(3) 0.4555(2) -0.0384(5)
H32 H 0.5087 0.4620 -0.0248
H33 H 0.5133 0.4332 -0.0576
H34 H 0.5388 0.4696 -0.0812
C35 C 0.5218(2) 0.4967(2) 0.1364(5)
H35 H 0.5092 0.4971 0.0885
C36 C 0.5009(2) 0.4677(3) 0.1829(7)
H36 H 0.5004 0.4491 0.1573
H37 H 0.4790 0.4645 0.1844
H38 H 0.5091 0.4701 0.2383
C37 C 0.5302(3) 0.5252(3) 0.1853(6)
H39 H 0.5407 0.5244 0.2355
H40 H 0.5106 0.5259 0.1986
H41 H 0.5449 0.5446 0.1546
C38 C 0.5841(4) 0.4391(4) 0.3405(11)
C39 C 0.5747(3) 0.4145(4) 0.3017(9)
C40 C 0.5810(5) 0.3555(4) 0.2867(11)
H42 H 0.6047 0.3666 0.2755
C41 C 0.5635(7) 0.3201(5) 0.2527(15)
H43 H 0.5413 0.3085 0.2726
H44 H 0.5749 0.3090 0.2712
H45 H 0.5635 0.3206 0.1933
C42 C 0.5742(7) 0.3498(7) 0.3778(13)
H46 H 0.5917 0.3674 0.4082
H47 H 0.5727 0.3294 0.3931
H48 H 0.5538 0.3490 0.3904
C43 C 0.5165(4) 0.3595(5) 0.2197(12)
C44 C 0.4988(5) 0.3486(6) 0.2993(13)
H49 H 0.5094 0.3400 0.3338
H50 H 0.4765 0.3319 0.2894
H51 H 0.4992 0.3670 0.3265
C45 C 0.5085(5) 0.3848(4) 0.1835(11)
H52 H 0.5087 0.3989 0.2269
H53 H 0.4871 0.3736 0.1583
H54 H 0.5246 0.3978 0.1426
C46 C 0.5774(4) 0.3905(5) 0.1386(9)
H55 H 0.5656 0.4003 0.1123
C47 C 0.6126(5) 0.4163(5) 0.1454(14)
H56 H 0.6149 0.4326 0.1847
H57 H 0.6205 0.4264 0.0924
H58 H 0.6252 0.4065 0.1636
C48 C 0.6045(5) 0.3944(6) 0.6754(14)
C49 C 0.5876(11) 0.3666(10) 0.739(3)
H59 H 0.5729 0.3466 0.7107
H60 H 0.5754 0.3720 0.7774
H61 H 0.6039 0.3640 0.7679
C50 C 0.6337(8) 0.4233(9) 0.715(3)
C51 C 0.5571(6) 0.4158(7) 0.7382(14)
H62 H 0.5492 0.3982 0.7795
C52 C 0.5864(9) 0.4459(10) 0.770(3)
H63 H 0.6039 0.4414 0.7797
H64 H 0.5809 0.4527 0.8205
H65 H 0.5933 0.4632 0.7295
C53 C 0.5304(6) 0.4224(7) 0.7134(18)
H66 H 0.5386 0.4457 0.7139
H67 H 0.5124 0.4118 0.7516
H68 H 0.5229 0.4140 0.6587
C54 C 0.5417(5) 0.3663(4) 0.5955(12)
H69 H 0.5554 0.3603 0.5625
C55 C 0.5229(8) 0.3372(6) 0.649(2)
H70 H 0.5370 0.3373 0.6926
H71 H 0.5151 0.3175 0.6170
H72 H 0.5046 0.3378 0.6732
C56 C 0.5206(8) 0.3693(8) 0.5331(18)
H73 H 0.4984 0.3588 0.5530
H74 H 0.5214 0.3590 0.4826
H75 H 0.5282 0.3921 0.5229
C57 C 0.62504(13) 0.52966(13) 0.5420(3)
C58 C 0.63418(14) 0.54333(15) 0.6077(3)
C59 C 0.6146(3) 0.5545(3) 0.7671(6)
H76 H 0.6214 0.5606 0.8247
C60 C 0.5850(3) 0.5191(4) 0.7648(7)
H77 H 0.5761 0.5141 0.7099
H78 H 0.5685 0.5172 0.8028
H79 H 0.5922 0.5039 0.7804
C61 C 0.6016(4) 0.5731(4) 0.7379(6)
H80 H 0.6172 0.5899 0.7020
H81 H 0.5967 0.5830 0.7836
H82 H 0.5818 0.5593 0.7077
C62 C 0.6608(3) 0.5321(3) 0.7575(6)
H83 H 0.6423 0.5100 0.7474
C63 C 0.6682(5) 0.5321(4) 0.8384(9)
H84 H 0.6692 0.5507 0.8655
H85 H 0.6892 0.5332 0.8430
H86 H 0.6516 0.5123 0.8641
C64 C 0.6892(4) 0.5323(4) 0.7163(9)
H87 H 0.6831 0.5235 0.6615
H88 H 0.6957 0.5192 0.7477
H89 H 0.7072 0.5545 0.7132
C65 C 0.6839(2) 0.6017(2) 0.6964(5)
H90 H 0.6749 0.6153 0.6772
C66 C 0.7077(2) 0.6047(2) 0.6351(6)
H91 H 0.7190 0.5937 0.6545
H92 H 0.7232 0.6275 0.6258
H93 H 0.6966 0.5948 0.5842
C67 C 0.7013(3) 0.6165(2) 0.7764(6)
H94 H 0.6871 0.6200 0.8122
H95 H 0.7208 0.6371 0.7654
H96 H 0.7072 0.6018 0.8026
C68 C 0.5732(7) 0.3624(6) 0.0856(16)
H97 H 0.5921 0.3598 0.0915
H98 H 0.5710 0.3669 0.0287
H99 H 0.5539 0.3426 0.1026
C69 C 0.5982(3) 0.4594(3) 0.5325(9)
C70 C 0.5924(4) 0.4401(4) 0.5888(9)
H100 H 0.6407 0.4213 0.7423
H101 H 0.6448 0.4528 0.6974
H102? H 0.5092 0.3408 0.1820
C71? C 0.5953(6) 0.4549(6) 0.5162(14)
C72? C 0.5863(6) 0.4363(7) 0.5724(16)
H103? H 0.6114 0.3868 0.6272
H104? H 0.6533 0.4279 0.6849
H105? H 0.6356 0.4182 0.7711
H106? H 0.6309 0.4421 0.7127
C73? C 0.5889(5) 0.5685(4) 0.4525(10)
C74? C 0.5821(4) 0.5823(4) 0.5176(8)
H107? H 0.5994 0.5971 0.5507
C75? C 0.5629(5) 0.5475(5) 0.4042(11)
H108? H 0.5672 0.5389 0.3571
C76? C 0.5519(4) 0.5755(4) 0.5362(9)
H109? H 0.5478 0.5856 0.5805
N5? N 0.4937(5) 0.5451(5) 0.5012(10)
C77? C 0.5249(4) 0.5511(4) 0.4832(9)
C78? C 0.5313(5) 0.5384(5) 0.4205(12)
H110? H 0.5144 0.5232 0.3870
C79? C 0.4696(4) 0.5240(4) 0.4516(11)
H111? H 0.4743 0.5319 0.3956
H112? H 0.4492 0.5222 0.4685
H113? H 0.4680 0.5029 0.4549
C80? C 0.4866(6) 0.5548(6) 0.5778(14)
H114? H 0.4972 0.5499 0.6217
H115? H 0.4633 0.5432 0.5868
H116? H 0.4945 0.5780 0.5769
Si5? Si 0.5609(2) 0.3729(2) 0.2764(5)
C81? C 0.5840(6) 0.4388(6) 0.3564(15)
C82? C 0.5747(4) 0.4121(4) 0.3278(10)
C83? C 0.5487(5) 0.3412(6) 0.3559(13)
H117? H 0.5433 0.3200 0.3313
C84? C 0.5769(8) 0.3526(11) 0.417(2)
H118? H 0.5973 0.3668 0.3897
H119? H 0.5774 0.3338 0.4389
H120? H 0.5737 0.3642 0.4617
C85? C 0.5186(4) 0.3400(4) 0.3918(9)
H121? H 0.5250 0.3593 0.4248
H122? H 0.5071 0.3208 0.4257
H123? H 0.5046 0.3393 0.3477
C86? C 0.5280(5) 0.3697(7) 0.2036(13)
H124? H 0.5351 0.3922 0.1864
C87? C 0.4976(4) 0.3593(5) 0.2587(12)
H125? H 0.4955 0.3428 0.2972
H126? H 0.4783 0.3506 0.2247
H127? H 0.5000 0.3780 0.2886
C88? C 0.5145(8) 0.3491(11) 0.1272(17)
H128? H 0.5063 0.3265 0.1407
H129? H 0.5316 0.3560 0.0865
H130? H 0.4970 0.3517 0.1054
C89? C 0.5928(6) 0.3767(6) 0.2038(14)
H131? H 0.6126 0.3834 0.2371
C90? C 0.6026(9) 0.4014(7) 0.1359(19)
H132? H 0.5956 0.3902 0.0837
H133? H 0.6261 0.4152 0.1358
H134? H 0.5926 0.4145 0.1446
C91? C 0.5853(8) 0.3447(6) 0.1618(18)
H135? H 0.5670 0.3266 0.1887
H136? H 0.6042 0.3419 0.1656
H137? H 0.5801 0.3453 0.1047
Si6? Si 0.57694(19) 0.40944(19) 0.6723(4)
C92? C 0.6015(3) 0.4285(3) 0.7624(7)
H138? H 0.5995 0.4477 0.7765
C93? C 0.5884(4) 0.4043(4) 0.8359(9)
H139? H 0.5658 0.3977 0.8456
H140? H 0.6011 0.4149 0.8846
H141? H 0.5903 0.3853 0.8234
C94? C 0.6377(3) 0.4401(4) 0.7474(9)
H142? H 0.6505 0.4534 0.7931
C95? C 0.5358(3) 0.4021(4) 0.6959(9)
H143? H 0.5275 0.3854 0.7396
C96? C 0.5371(7) 0.4317(6) 0.7344(18)
H144? H 0.5585 0.4454 0.7580
H145? H 0.5207 0.4249 0.7769
H146? H 0.5330 0.4438 0.6928
C97? C 0.5139(5) 0.3856(5) 0.6223(12)
H147? H 0.5198 0.4012 0.5780
H148? H 0.4914 0.3774 0.6375
H149? H 0.5167 0.3676 0.6043
C98? C 0.5753(3) 0.3722(3) 0.6315(8)
H150? H 0.5634 0.3671 0.5789
C99? C 0.5552(5) 0.3437(4) 0.6893(13)
H151? H 0.5524 0.3520 0.7412
H152? H 0.5663 0.3316 0.6983
H153? H 0.5341 0.3296 0.6650
C100? C 0.6085(3) 0.3774(4) 0.6130(10)
H154? H 0.6199 0.3959 0.5768
H155? H 0.6065 0.3581 0.5867
H156? H 0.6207 0.3814 0.6636
loop_
_geom_bond_atom_site_label_1
_geom_bond_atom_site_label_2
_geom_bond_site_symmetry_1
_geom_bond_site_symmetry_2
Si1 C28 1_555 1_555
Si2 C39 1_555 1_555
Si3 C48 1_555 1_555
Si4 C58 1_555 1_555
N1 C9 1_555 1_555
N2 C10 1_555 1_555
N3 C14 1_555 1_555
N4 C22 1_555 1_555
C1 C2 1_555 1_555
C2 C3 1_555 1_555
C3 C4 1_555 1_555
C4 C5 1_555 1_555
C5 C1 1_555 1_555
C6 C1 1_555 1_555
C7 C6 1_555 1_555
C8 C7 1_555 1_555
C9 C8 1_555 1_555
C10 C8 1_555 1_555
C11 C7 1_555 1_555
C12 C11 1_555 1_555
H1 C12 1_555 1_555
C13 C12 1_555 1_555
H2 C13 1_555 1_555
C14 C13 1_555 1_555
C15 C14 1_555 1_555
H3 C15 1_555 1_555
C16 C11 1_555 1_555
H4 C16 1_555 1_555
C17 N3 1_555 1_555
H5 C17 1_555 1_555
H6 C17 1_555 1_555
H7 C17 1_555 1_555
C18 N3 1_555 1_555
H8 C18 1_555 1_555
H9 C18 1_555 1_555
H10 C18 1_555 1_555
C19 C6 1_555 1_555
C20 C19 1_555 1_555
H11 C20 1_555 1_555
C21 C20 1_555 1_555
H12 C21 1_555 1_555
C22 C21 1_555 1_555
C23 C22 1_555 1_555
H13 C23 1_555 1_555
C24 C19 1_555 1_555
H14 C24 1_555 1_555
C25 N4 1_555 1_555
H15 C25 1_555 1_555
H16 C25 1_555 1_555
H17 C25 1_555 1_555
C26 N4 1_555 1_555
H18 C26 1_555 1_555
H19 C26 1_555 1_555
H20 C26 1_555 1_555
C27 C2 1_555 1_555
C28 C27 1_555 1_555
C29 Si1 1_555 1_555
H21 C29 1_555 1_555
C30 C29 1_555 1_555
H22 C30 1_555 1_555
H23 C30 1_555 1_555
H24 C30 1_555 1_555
C31 C29 1_555 1_555
H25 C31 1_555 1_555
H26 C31 1_555 1_555
H27 C31 1_555 1_555
C32 Si1 1_555 1_555
H28 C32 1_555 1_555
C33 C32 1_555 1_555
H29 C33 1_555 1_555
H30 C33 1_555 1_555
H31 C33 1_555 1_555
C34 C32 1_555 1_555
H32 C34 1_555 1_555
H33 C34 1_555 1_555
H34 C34 1_555 1_555
C35 Si1 1_555 1_555
H35 C35 1_555 1_555
C36 C35 1_555 1_555
H36 C36 1_555 1_555
H37 C36 1_555 1_555
H38 C36 1_555 1_555
C37 C35 1_555 1_555
H39 C37 1_555 1_555
H40 C37 1_555 1_555
H41 C37 1_555 1_555
C38 C3 1_555 1_555
C39 C38 1_555 1_555
C40 Si2 1_555 1_555
H42 C40 1_555 1_555
C41 C40 1_555 1_555
H43 C41 1_555 1_555
H44 C41 1_555 1_555
H45 C41 1_555 1_555
C42 C40 1_555 1_555
H46 C42 1_555 1_555
H47 C42 1_555 1_555
H48 C42 1_555 1_555
C43 Si2 1_555 1_555
C44 C43 1_555 1_555
H49 C44 1_555 1_555
H50 C44 1_555 1_555
H51 C44 1_555 1_555
C45 C43 1_555 1_555
H52 C45 1_555 1_555
H53 C45 1_555 1_555
H54 C45 1_555 1_555
C46 Si2 1_555 1_555
H55 C46 1_555 1_555
C47 C46 1_555 1_555
H56 C47 1_555 1_555
H57 C47 1_555 1_555
H58 C47 1_555 1_555
C48 C49 1_555 1_555
C49 H59 1_555 1_555
H60 C49 1_555 1_555
H61 C49 1_555 1_555
C50 C48 1_555 1_555
C51 Si3 1_555 1_555
H62 C51 1_555 1_555
C52 C51 1_555 1_555
H63 C52 1_555 1_555
H64 C52 1_555 1_555
H65 C52 1_555 1_555
C53 C51 1_555 1_555
H66 C53 1_555 1_555
H67 C53 1_555 1_555
H68 C53 1_555 1_555
C54 Si3 1_555 1_555
H69 C54 1_555 1_555
C55 C54 1_555 1_555
H70 C55 1_555 1_555
H71 C55 1_555 1_555
H72 C55 1_555 1_555
C56 C54 1_555 1_555
H73 C56 1_555 1_555
H74 C56 1_555 1_555
H75 C56 1_555 1_555
C57 C5 1_555 1_555
C58 C57 1_555 1_555
C59 Si4 1_555 1_555
H76 C59 1_555 1_555
C60 C59 1_555 1_555
H77 C60 1_555 1_555
H78 C60 1_555 1_555
H79 C60 1_555 1_555
C61 C59 1_555 1_555
H80 C61 1_555 1_555
H81 C61 1_555 1_555
H82 C61 1_555 1_555
C62 Si4 1_555 1_555
H83 C62 1_555 1_555
C63 C62 1_555 1_555
H84 C63 1_555 1_555
H85 C63 1_555 1_555
H86 C63 1_555 1_555
C64 C62 1_555 1_555
H87 C64 1_555 1_555
H88 C64 1_555 1_555
H89 C64 1_555 1_555
C65 Si4 1_555 1_555
H90 C65 1_555 1_555
C66 C65 1_555 1_555
H91 C66 1_555 1_555
H92 C66 1_555 1_555
H93 C66 1_555 1_555
C67 C65 1_555 1_555
H94 C67 1_555 1_555
H95 C67 1_555 1_555
H96 C67 1_555 1_555
C68 C46 1_555 1_555
H97 C68 1_555 1_555
H98 C68 1_555 1_555
H99 C68 1_555 1_555
C69 C4 1_555 1_555
C70 Si3 1_555 1_555
H100 C50 1_555 1_555
H101 C50 1_555 1_555
C15 C16 1_555 1_555
C23 C24 1_555 1_555
C69 C70 1_555 1_555

#END
