
#######################################################################
#
#                 Cambridge Crystallographic Data Centre
#                                CCDC 
#
#######################################################################
#
# If this CIF has been generated from an entry in the Cambridge 
# Structural Database, then it will include bibliographic, chemical, 
# crystal, experimental, refinement or atomic coordinate data resulting 
# from the CCDC's data processing and validation procedures.
#
#######################################################################

data_KEQHUL
_chemical_formula_moiety         'C31 H35 P1'
_chemical_name_systematic        
2,3,4,5-tetraethyl-1-(2-diphenylphosphino)-phenylcyclopentadiene
_symmetry_cell_setting           monoclinic
_symmetry_space_group_name_H-M   'C 2/c'
_symmetry_Int_Tables_number      15
_space_group_name_Hall           '-C 2yn'
loop_
_symmetry_equiv_pos_site_id
_symmetry_equiv_pos_as_xyz
1 x,y,z
2 1/2+x,1/2+y,z
3 -x,y,1/2-z
4 1/2-x,1/2+y,1/2-z
5 -x,-y,-z
6 1/2-x,1/2-y,-z
7 x,-y,1/2+z
8 1/2+x,1/2-y,1/2+z
_cell_length_a                   32.527(7)
_cell_length_b                   10.868(2)
_cell_length_c                   16.480(3)
_cell_angle_alpha                90
_cell_angle_beta                 119.26(3)
_cell_angle_gamma                90
_cell_volume                     5082.44
_cell_formula_units_Z            8
loop_
_atom_site_label
_atom_site_type_symbol
_atom_site_fract_x
_atom_site_fract_y
_atom_site_fract_z
C1 C 0.09544(7) 0.2097(2) 0.07158(14)
C2 C 0.06395(8) 0.1116(2) 0.02905(16)
H1 H 0.0686 0.0369 0.0624
C3 C 0.02575(8) 0.1212(2) -0.06160(15)
H2 H 0.0047 0.0541 -0.0888
C4 C 0.01901(8) 0.2295(2) -0.11109(16)
H3 H -0.0067 0.2371 -0.1725
C5 C 0.04998(7) 0.3261(2) -0.07026(15)
H4 H 0.0453 0.3999 -0.1046
C6 C 0.08833(8) 0.3186(2) 0.02089(15)
C7 C 0.11921(7) 0.4317(2) 0.06019(15)
H5 H 0.1441 0.4148 0.1257
C8 C 0.14250(8) 0.4713(2) 0.00331(14)
C9 C 0.12985(8) 0.5869(2) -0.02603(15)
C10 C 0.09823(8) 0.6329(2) 0.00922(15)
C11 C 0.09178(8) 0.5455(2) 0.05823(15)
C12 C 0.17496(8) 0.3884(2) -0.01122(15)
H6 H 0.1732 0.4091 -0.0713
H7 H 0.1641 0.3024 -0.0152
C13 C 0.22693(7) 0.3978(2) 0.06717(14)
H8 H 0.2387 0.4810 0.0682
H9 H 0.2461 0.3381 0.0557
H10 H 0.2288 0.3800 0.1272
C14 C 0.14496(8) 0.6629(2) -0.08272(15)
H11 H 0.1174 0.7086 -0.1304
H12 H 0.1561 0.6073 -0.1156
C15 C 0.18427(8) 0.7550(2) -0.02441(16)
H13 H 0.1741 0.8078 0.0107
H14 H 0.1910 0.8058 -0.0657
H15 H 0.2128 0.7101 0.0189
C16 C 0.07425(8) 0.7569(2) -0.01661(17)
H16 H 0.0958 0.8178 -0.0207
H17 H 0.0674 0.7843 0.0328
C17 C 0.02751(8) 0.7525(3) -0.11126(17)
H18 H 0.0338 0.7187 -0.1593
H19 H 0.0147 0.8359 -0.1289
H20 H 0.0046 0.7002 -0.1052
C18 C 0.06028(8) 0.5465(2) 0.10149(14)
H21 H 0.0366 0.4802 0.0726
H22 H 0.0431 0.6257 0.0862
C19 C 0.08525(8) 0.5295(3) 0.20646(14)
H23 H 0.1020 0.4507 0.2227
H24 H 0.0620 0.5301 0.2280
H25 H 0.1078 0.5967 0.2363
C20 C 0.19418(8) 0.1501(2) 0.18408(14)
C21 C 0.19176(8) 0.0823(2) 0.11061(16)
H26 H 0.1620 0.0641 0.0584
C22 C 0.23307(9) 0.0407(3) 0.11314(17)
H27 H 0.2314 -0.0035 0.0619
C23 C 0.27568(8) 0.0637(3) 0.18928(18)
H28 H 0.3034 0.0321 0.1915
C24 C 0.27942(9) 0.1318(3) 0.26306(18)
H29 H 0.3093 0.1484 0.3154
C25 C 0.23781(8) 0.1758(2) 0.25869(15)
H30 H 0.2398 0.2245 0.3083
C26 C 0.12808(8) 0.0669(2) 0.23692(14)
C27 C 0.15301(8) -0.0426(2) 0.25954(16)
H31 H 0.1783 -0.0521 0.2466
C28 C 0.14203(9) -0.1379(2) 0.30029(18)
H32 H 0.1601 -0.2115 0.3167
C29 C 0.10394(8) -0.1265(3) 0.31775(16)
H33 H 0.0958 -0.1924 0.3451
C30 C 0.07875(8) -0.0194(3) 0.29480(15)
H34 H 0.0528 -0.0114 0.3059
C31 C 0.09033(8) 0.0764(2) 0.25619(14)
H35 H 0.0727 0.1507 0.2420
P1 P 0.14322(2) 0.20352(6) 0.19306(4)
loop_
_geom_bond_atom_site_label_1
_geom_bond_atom_site_label_2
_geom_bond_site_symmetry_1
_geom_bond_site_symmetry_2
C1 C2 1_555 1_555
C2 H1 1_555 1_555
C3 C2 1_555 1_555
H2 C3 1_555 1_555
C4 C3 1_555 1_555
H3 C4 1_555 1_555
C5 C4 1_555 1_555
H4 C5 1_555 1_555
C6 C1 1_555 1_555
C7 C6 1_555 1_555
H5 C7 1_555 1_555
C8 C7 1_555 1_555
C9 C8 1_555 1_555
C10 C9 1_555 1_555
C11 C7 1_555 1_555
C12 C8 1_555 1_555
H6 C12 1_555 1_555
H7 C12 1_555 1_555
C13 C12 1_555 1_555
H8 C13 1_555 1_555
H9 C13 1_555 1_555
H10 C13 1_555 1_555
C14 C9 1_555 1_555
H11 C14 1_555 1_555
H12 C14 1_555 1_555
C15 C14 1_555 1_555
H13 C15 1_555 1_555
H14 C15 1_555 1_555
H15 C15 1_555 1_555
C16 C10 1_555 1_555
H16 C16 1_555 1_555
H17 C16 1_555 1_555
C17 C16 1_555 1_555
H18 C17 1_555 1_555
H19 C17 1_555 1_555
H20 C17 1_555 1_555
C18 C11 1_555 1_555
H21 C18 1_555 1_555
H22 C18 1_555 1_555
C19 C18 1_555 1_555
H23 C19 1_555 1_555
H24 C19 1_555 1_555
H25 C19 1_555 1_555
C20 C21 1_555 1_555
C21 H26 1_555 1_555
C22 C21 1_555 1_555
H27 C22 1_555 1_555
C23 C22 1_555 1_555
H28 C23 1_555 1_555
C24 C23 1_555 1_555
H29 C24 1_555 1_555
C25 C20 1_555 1_555
H30 C25 1_555 1_555
C26 C27 1_555 1_555
C27 H31 1_555 1_555
C28 C27 1_555 1_555
H32 C28 1_555 1_555
C29 C28 1_555 1_555
H33 C29 1_555 1_555
C30 C29 1_555 1_555
H34 C30 1_555 1_555
C31 C26 1_555 1_555
H35 C31 1_555 1_555
P1 C1 1_555 1_555
C5 C6 1_555 1_555
C10 C11 1_555 1_555
C20 P1 1_555 1_555
C24 C25 1_555 1_555
C26 P1 1_555 1_555
C30 C31 1_555 1_555

#END
