
#######################################################################
#
#                 Cambridge Crystallographic Data Centre
#                                CCDC 
#
#######################################################################
#
# If this CIF has been generated from an entry in the Cambridge 
# Structural Database, then it will include bibliographic, chemical, 
# crystal, experimental, refinement or atomic coordinate data resulting 
# from the CCDC's data processing and validation procedures.
#
#######################################################################

data_KEQHEV
_chemical_formula_moiety         'C15 H21 Br1 O3'
_chemical_name_systematic        
11-(1-hydroxyprop-2-yn-1-yl)-3-ethyl-4-bromo-2,10-dioxabicyclo[7.3.0]dodec-6-ene
_symmetry_cell_setting           monoclinic
_symmetry_space_group_name_H-M   'P 21'
_symmetry_Int_Tables_number      4
_space_group_name_Hall           'P 2yb'
loop_
_symmetry_equiv_pos_site_id
_symmetry_equiv_pos_as_xyz
1 x,y,z
2 -x,1/2+y,-z
_cell_length_a                   16.4767(3)
_cell_length_b                   4.7717(1)
_cell_length_c                   20.1538(4)
_cell_angle_alpha                90
_cell_angle_beta                 111.124(1)
_cell_angle_gamma                90
_cell_volume                     1478.05
_exptl_crystal_colour            silver
_exptl_crystal_description       Block
_cell_formula_units_Z            4
loop_
_atom_site_label
_atom_site_type_symbol
_atom_site_fract_x
_atom_site_fract_y
_atom_site_fract_z
Br1 Br 0.56967(2) 0.27872(8) 0.464170(17)
O1 O 0.54551(12) -0.1584(6) 0.12020(11)
O2 O 0.61286(12) -0.0001(6) 0.28654(11)
O3 O 0.56626(12) 0.0275(6) -0.00569(11)
H1 H 0.5364 0.1497 -0.0340
C1 C 0.76824(19) 0.3162(9) 0.05847(16)
H2 H 0.8228 0.3699 0.0565
C2 C 0.70028(18) 0.2493(9) 0.06091(16)
C3 C 0.61473(17) 0.1553(8) 0.06058(16)
H3 H 0.5818 0.3194 0.0687
C4 C 0.62776(18) -0.0605(9) 0.11919(16)
H4 H 0.6619 -0.2226 0.1116
C5 C 0.67379(17) 0.0604(10) 0.19391(16)
H5 H 0.7086 0.2272 0.1920
H6 H 0.7128 -0.0810 0.2256
C6 C 0.60040(16) 0.1410(9) 0.22086(15)
H7 H 0.5991 0.3485 0.2273
C7 C 0.51717(17) 0.0426(8) 0.16067(16)
H8 H 0.4908 0.2064 0.1294
C8 C 0.44806(19) -0.0916(9) 0.18400(17)
H9 H 0.3994 -0.1577 0.1416
H10 H 0.4732 -0.2564 0.2143
C9 C 0.41387(17) 0.1115(10) 0.22482(16)
H11 H 0.3758 0.2538 0.1980
C10 C 0.43156(16) 0.1118(10) 0.29445(16)
H12 H 0.4056 0.2558 0.3127
C11 C 0.48850(18) -0.0931(8) 0.34709(16)
H13 H 0.4953 -0.2630 0.3214
H14 H 0.4594 -0.1495 0.3803
C12 C 0.57882(18) 0.0234(8) 0.39016(16)
H15 H 0.6181 -0.1360 0.4137
C13 C 0.61941(18) 0.1857(8) 0.34456(16)
H16 H 0.5824 0.3539 0.3247
C14 C 0.71289(17) 0.2839(10) 0.38171(16)
H17 H 0.7316 0.3849 0.3467
H18 H 0.7144 0.4190 0.4194
C15 C 0.77793(19) 0.0517(9) 0.41495(18)
H19 H 0.8361 0.1329 0.4377
H20 H 0.7786 -0.0806 0.3779
H21 H 0.7612 -0.0468 0.4507
Br2 Br 0.045691(19) 0.09910(8) 0.458683(16)
O4 O 0.04664(11) -0.2168(6) 0.11970(10)
O5 O 0.11112(12) -0.1277(5) 0.28729(11)
O6 O 0.06611(13) -0.0049(6) -0.00265(11)
H22 H 0.0362 0.1189 -0.0304
C16 C 0.06315(19) -0.1507(8) 0.38652(16)
H23 H 0.0986 -0.3153 0.4115
C17 C 0.26309(19) 0.3169(9) 0.06126(16)
H24 H 0.3157 0.3869 0.0585
C18 C 0.19723(18) 0.2293(8) 0.06474(16)
C19 C 0.11367(17) 0.1176(9) 0.06433(16)
H25 H 0.0788 0.2738 0.0737
C20 C 0.12867(18) -0.1061(9) 0.12132(16)
H26 H 0.1642 -0.2613 0.1124
C21 C 0.17265(18) 0.0008(9) 0.19734(15)
H27 H 0.2035 0.1792 0.1978
H28 H 0.2151 -0.1383 0.2266
C22 C 0.09834(16) 0.0455(8) 0.22621(15)
H29 H 0.0957 0.2470 0.2389
C23 C 0.01674(18) -0.0326(9) 0.16265(16)
H30 H -0.0071 0.1412 0.1347
C24 C -0.05612(18) -0.1781(9) 0.17810(16)
H31 H -0.1030 -0.2265 0.1326
H32 H -0.0338 -0.3548 0.2040
C25 C -0.09319(18) 0.0013(9) 0.22170(17)
H33 H -0.1292 0.1535 0.1981
C26 C -0.08011(18) -0.0337(9) 0.29013(17)
H34 H -0.1083 0.0938 0.3109
C27 C -0.02487(17) -0.2562(9) 0.33743(17)
H35 H -0.0159 -0.4087 0.3075
H36 H -0.0564 -0.3363 0.3666
C28 C 0.11624(18) 0.0167(8) 0.35135(15)
H37 H 0.0891 0.2058 0.3382
C29 C 0.20981(18) 0.0550(11) 0.40134(16)
H38 H 0.2371 -0.1321 0.4136
H39 H 0.2096 0.1418 0.4459
C30 C 0.26572(19) 0.2336(10) 0.37208(18)
H40 H 0.3249 0.2455 0.4074
H41 H 0.2408 0.4222 0.3616
H42 H 0.2675 0.1482 0.3284
loop_
_geom_bond_atom_site_label_1
_geom_bond_atom_site_label_2
_geom_bond_site_symmetry_1
_geom_bond_site_symmetry_2
Br1 C12 1_555 1_555
O1 C4 1_555 1_555
O2 C6 1_555 1_555
O3 H1 1_555 1_555
C1 H2 1_555 1_555
C2 C1 1_555 1_555
C3 O3 1_555 1_555
H3 C3 1_555 1_555
C4 C3 1_555 1_555
H4 C4 1_555 1_555
C5 C4 1_555 1_555
H5 C5 1_555 1_555
H6 C5 1_555 1_555
C6 C5 1_555 1_555
H7 C6 1_555 1_555
C7 O1 1_555 1_555
H8 C7 1_555 1_555
C8 C7 1_555 1_555
H9 C8 1_555 1_555
H10 C8 1_555 1_555
C9 C8 1_555 1_555
H11 C9 1_555 1_555
C10 C9 1_555 1_555
H12 C10 1_555 1_555
C11 C10 1_555 1_555
H13 C11 1_555 1_555
H14 C11 1_555 1_555
C12 C11 1_555 1_555
H15 C12 1_555 1_555
C13 O2 1_555 1_555
H16 C13 1_555 1_555
C14 C13 1_555 1_555
H17 C14 1_555 1_555
H18 C14 1_555 1_555
C15 C14 1_555 1_555
H19 C15 1_555 1_555
H20 C15 1_555 1_555
H21 C15 1_555 1_555
Br2 C16 1_555 1_555
O4 C20 1_555 1_555
O5 C22 1_555 1_555
O6 H22 1_555 1_555
C16 H23 1_555 1_555
C17 H24 1_555 1_555
C18 C17 1_555 1_555
C19 O6 1_555 1_555
H25 C19 1_555 1_555
C20 C19 1_555 1_555
H26 C20 1_555 1_555
C21 C20 1_555 1_555
H27 C21 1_555 1_555
H28 C21 1_555 1_555
C22 C21 1_555 1_555
H29 C22 1_555 1_555
C23 O4 1_555 1_555
H30 C23 1_555 1_555
C24 C23 1_555 1_555
H31 C24 1_555 1_555
H32 C24 1_555 1_555
C25 C24 1_555 1_555
H33 C25 1_555 1_555
C26 C25 1_555 1_555
H34 C26 1_555 1_555
C27 C16 1_555 1_555
H35 C27 1_555 1_555
H36 C27 1_555 1_555
C28 O5 1_555 1_555
H37 C28 1_555 1_555
C29 C28 1_555 1_555
H38 C29 1_555 1_555
H39 C29 1_555 1_555
C30 C29 1_555 1_555
H40 C30 1_555 1_555
H41 C30 1_555 1_555
H42 C30 1_555 1_555
C2 C3 1_555 1_555
C6 C7 1_555 1_555
C12 C13 1_555 1_555
C16 C28 1_555 1_555
C18 C19 1_555 1_555
C22 C23 1_555 1_555
C26 C27 1_555 1_555

#END
