
#######################################################################
#
#                 Cambridge Crystallographic Data Centre
#                                CCDC 
#
#######################################################################
#
# If this CIF has been generated from an entry in the Cambridge 
# Structural Database, then it will include bibliographic, chemical, 
# crystal, experimental, refinement or atomic coordinate data resulting 
# from the CCDC's data processing and validation procedures.
#
#######################################################################

data_KEQHAQ
_chemical_formula_moiety         'C11 H15 N1 O3'
_chemical_name_systematic        
2-(1-(2-Hydroxyethyliminio)ethyl)-5-methoxyphenolate
_symmetry_cell_setting           orthorhombic
_symmetry_space_group_name_H-M   'P 21 21 21'
_symmetry_Int_Tables_number      19
_space_group_name_Hall           'P 2ac 2ab'
loop_
_symmetry_equiv_pos_site_id
_symmetry_equiv_pos_as_xyz
1 x,y,z
2 1/2-x,-y,1/2+z
3 -x,1/2+y,1/2-z
4 1/2+x,1/2-y,-z
_cell_length_a                   6.2552(5)
_cell_length_b                   6.3403(5)
_cell_length_c                   26.648(2)
_cell_angle_alpha                90
_cell_angle_beta                 90
_cell_angle_gamma                90
_cell_volume                     1056.86
_exptl_crystal_colour            yellow
_exptl_crystal_description       block
_chemical_melting_point          '422.8-423.4 K'
_cell_formula_units_Z            4
_exptl_crystal_recrystallization_method methanol
loop_
_atom_site_label
_atom_site_type_symbol
_atom_site_fract_x
_atom_site_fract_y
_atom_site_fract_z
C1 C 0.3704(4) 0.9880(4) 0.87938(7)
C2 C 0.2575(4) 0.7950(4) 0.87015(7)
C3 C 0.3345(4) 0.6605(4) 0.83177(8)
H1 H 0.2629 0.5346 0.8256
C4 C 0.5088(4) 0.7083(4) 0.80358(8)
H2 H 0.5544 0.6173 0.7784
C5 C 0.6193(4) 0.8969(4) 0.81298(8)
C6 C 0.5525(4) 1.0333(4) 0.84943(8)
H3 H 0.6275 1.1580 0.8547
C7 C 0.0706(4) 0.7411(4) 0.89851(8)
C8 C -0.0532(4) 0.5432(4) 0.88822(9)
H4 H -0.1724 0.5346 0.9108
H5 H 0.0380 0.4230 0.8930
H6 H -0.1044 0.5452 0.8543
C9 C -0.1834(4) 0.8454(4) 0.96514(9)
H7 H -0.1690 0.7225 0.9866
H8 H -0.3083 0.8259 0.9441
C10 C -0.2107(4) 1.0399(4) 0.99685(8)
H9 H -0.2038 1.1647 0.9759
H10 H -0.3491 1.0372 1.0133
C11 C 0.9172(5) 1.1128(5) 0.79080(11)
H11 H 1.0346 1.1142 0.7676
H12 H 0.9712 1.1154 0.8245
H13 H 0.8288 1.2344 0.7852
N1 N 0.0066(3) 0.8679(3) 0.93390(7)
H14 H 0.0850 0.9768 0.9395
O1 O 0.3106(3) 1.1180(3) 0.91390(7)
O2 O -0.0469(3) 1.0458(3) 1.03307(7)
H15 H -0.0689 1.1434 1.0526
O3 O 0.7942(3) 0.9268(3) 0.78345(6)
loop_
_geom_bond_atom_site_label_1
_geom_bond_atom_site_label_2
_geom_bond_site_symmetry_1
_geom_bond_site_symmetry_2
C1 C2 1_555 1_555
C2 C3 1_555 1_555
C3 H1 1_555 1_555
C4 C3 1_555 1_555
H2 C4 1_555 1_555
C5 C4 1_555 1_555
C6 C1 1_555 1_555
H3 C6 1_555 1_555
C7 C2 1_555 1_555
C8 C7 1_555 1_555
H4 C8 1_555 1_555
H5 C8 1_555 1_555
H6 C8 1_555 1_555
C9 H7 1_555 1_555
H8 C9 1_555 1_555
C10 C9 1_555 1_555
H9 C10 1_555 1_555
H10 C10 1_555 1_555
C11 H11 1_555 1_555
H12 C11 1_555 1_555
H13 C11 1_555 1_555
N1 C7 1_555 1_555
H14 N1 1_555 1_555
O1 C1 1_555 1_555
O2 C10 1_555 1_555
H15 O2 1_555 1_555
O3 C5 1_555 1_555
C5 C6 1_555 1_555
C9 N1 1_555 1_555
C11 O3 1_555 1_555

#END
