
#######################################################################
#
#                 Cambridge Crystallographic Data Centre
#                                CCDC 
#
#######################################################################
#
# If this CIF has been generated from an entry in the Cambridge 
# Structural Database, then it will include bibliographic, chemical, 
# crystal, experimental, refinement or atomic coordinate data resulting 
# from the CCDC's data processing and validation procedures.
#
#######################################################################

data_KEQHIZ
_chemical_formula_moiety         'C15 H20 Br2 O2'
_chemical_name_systematic        
11-(1-bromoprop-2-yn-1-yl)-3-ethyl-4-bromo-2,10-dioxabicyclo[7.3.0]dodec-6-ene
_symmetry_cell_setting           monoclinic
_symmetry_space_group_name_H-M   'P 21'
_symmetry_Int_Tables_number      4
_space_group_name_Hall           'P 2yb'
loop_
_symmetry_equiv_pos_site_id
_symmetry_equiv_pos_as_xyz
1 x,y,z
2 -x,1/2+y,-z
_cell_length_a                   5.1865(1)
_cell_length_b                   20.1756(3)
_cell_length_c                   7.4953(1)
_cell_angle_alpha                90
_cell_angle_beta                 104.071(1)
_cell_angle_gamma                90
_cell_volume                     760.781
_exptl_crystal_colour            silver
_exptl_crystal_description       block
_cell_formula_units_Z            2
loop_
_atom_site_label
_atom_site_type_symbol
_atom_site_fract_x
_atom_site_fract_y
_atom_site_fract_z
Br1 Br 0.33338(4) 0.139321(10) 0.81160(3)
Br2 Br -0.69610(4) -0.277971(12) 0.48645(3)
O1 O 0.0070(3) 0.01625(8) 0.6387(2)
O2 O -0.2276(3) -0.11577(8) 0.6719(2)
C1 C 0.1402(6) 0.09921(13) 1.2603(3)
H1 H 0.1657 0.1017 1.3900
C2 C 0.1086(5) 0.09616(12) 1.0999(3)
C3 C 0.0589(4) 0.09020(11) 0.8997(3)
H2 H -0.1178 0.1106 0.8434
C4 C 0.0537(5) 0.01831(11) 0.8348(3)
H3 H 0.2280 -0.0032 0.8915
C5 C -0.1722(5) -0.02126(12) 0.8853(3)
H4 H -0.0997 -0.0563 0.9763
H5 H -0.2879 0.0083 0.9373
C6 C -0.3272(5) -0.05184(12) 0.7028(3)
H6 H -0.5221 -0.0534 0.6959
C7 C -0.2657(5) -0.00307(12) 0.5646(3)
H7 H -0.3827 0.0367 0.5578
C8 C -0.2906(5) -0.03034(12) 0.3702(3)
H8 H -0.2717 0.0064 0.2867
H9 H -0.1461 -0.0626 0.3721
C9 C -0.5544(5) -0.06356(13) 0.2997(3)
H10 H -0.7042 -0.0355 0.2583
C10 C -0.5986(5) -0.12875(12) 0.2895(3)
H11 H -0.7774 -0.1429 0.2449
C11 C -0.3913(5) -0.18166(12) 0.3423(3)
H12 H -0.2146 -0.1615 0.3512
H13 H -0.4206 -0.2151 0.2428
C12 C -0.3871(5) -0.21680(12) 0.5230(3)
H14 H -0.2198 -0.2433 0.5604
C13 C -0.4034(5) -0.16995(12) 0.6801(3)
H15 H -0.5890 -0.1525 0.6580
C14 C -0.3280(5) -0.20203(13) 0.8706(3)
H16 H -0.3612 -0.1700 0.9624
H17 H -0.4439 -0.2409 0.8715
C15 C -0.0378(5) -0.22423(13) 0.9274(3)
H18 H -0.0015 -0.2442 1.0502
H19 H 0.0785 -0.1858 0.9294
H20 H -0.0044 -0.2569 0.8390
loop_
_geom_bond_atom_site_label_1
_geom_bond_atom_site_label_2
_geom_bond_site_symmetry_1
_geom_bond_site_symmetry_2
Br1 C3 1_555 1_555
Br2 C12 1_555 1_555
O1 C4 1_555 1_555
O2 C6 1_555 1_555
C1 H1 1_555 1_555
C2 C1 1_555 1_555
C3 C2 1_555 1_555
H2 C3 1_555 1_555
C4 C3 1_555 1_555
H3 C4 1_555 1_555
C5 C4 1_555 1_555
H4 C5 1_555 1_555
H5 C5 1_555 1_555
C6 C5 1_555 1_555
H6 C6 1_555 1_555
C7 O1 1_555 1_555
H7 C7 1_555 1_555
C8 C7 1_555 1_555
H8 C8 1_555 1_555
H9 C8 1_555 1_555
C9 C8 1_555 1_555
H10 C9 1_555 1_555
C10 C9 1_555 1_555
H11 C10 1_555 1_555
C11 C10 1_555 1_555
H12 C11 1_555 1_555
H13 C11 1_555 1_555
C12 C11 1_555 1_555
H14 C12 1_555 1_555
C13 O2 1_555 1_555
H15 C13 1_555 1_555
C14 C13 1_555 1_555
H16 C14 1_555 1_555
H17 C14 1_555 1_555
C15 C14 1_555 1_555
H18 C15 1_555 1_555
H19 C15 1_555 1_555
H20 C15 1_555 1_555
C6 C7 1_555 1_555
C12 C13 1_555 1_555

#END
