
#######################################################################
#
#                 Cambridge Crystallographic Data Centre
#                                CCDC 
#
#######################################################################
#
# If this CIF has been generated from an entry in the Cambridge 
# Structural Database, then it will include bibliographic, chemical, 
# crystal, experimental, refinement or atomic coordinate data resulting 
# from the CCDC's data processing and validation procedures.
#
#######################################################################

data_KEQJIB
_chemical_formula_moiety         'C36 H52 N4 O7'
_chemical_name_systematic        
'benzyl 2-[((2-[((2-[((2-[(t-butoxycarbonyl)amino]-cyclopentyl)carbonyl)amino]cyclopentyl)carbonyl)amino]-cyclopentyl)carbonyl)amino]cyclopentanecarboxylate'
_symmetry_cell_setting           triclinic
_symmetry_space_group_name_H-M   'P 1'
_symmetry_Int_Tables_number      1
_space_group_name_Hall           'P 1'
loop_
_symmetry_equiv_pos_site_id
_symmetry_equiv_pos_as_xyz
1 x,y,z
_cell_length_a                   9.3019(7)
_cell_length_b                   9.6426(7)
_cell_length_c                   11.6855(7)
_cell_angle_alpha                87.354(2)
_cell_angle_beta                 89.943(2)
_cell_angle_gamma                61.196(2)
_cell_volume                     917.194
_exptl_crystal_colour            white
_exptl_crystal_description       block
_cell_formula_units_Z            1
loop_
_atom_site_label
_atom_site_type_symbol
_atom_site_fract_x
_atom_site_fract_y
_atom_site_fract_z
C1 C 0.1833(8) -0.2457(8) 0.6167(5)
H1 H 0.1674 -0.1892 0.6822
C2 C 0.3162(9) -0.3926(10) 0.6119(6)
H2 H 0.3885 -0.4359 0.6745
C3 C 0.3440(9) -0.4769(8) 0.5158(8)
H3 H 0.4366 -0.5758 0.5122
C4 C 0.2369(11) -0.4160(9) 0.4268(6)
H4 H 0.2542 -0.4745 0.3622
C5 C 0.1027(9) -0.2691(8) 0.4300(5)
H5 H 0.0308 -0.2287 0.3669
C6 C 0.0712(7) -0.1787(7) 0.5253(5)
C7 C -0.0785(8) -0.0218(8) 0.5268(7)
H6 H -0.1236 0.0137 0.4496
H7 H -0.1607 -0.0298 0.5735
C8 C -0.1544(6) 0.2185(6) 0.6167(5)
C9 C -0.0976(5) 0.3295(5) 0.6562(4)
H8 H 0.0157 0.2683 0.6857
C10 C -0.1046(9) 0.4409(8) 0.5553(6)
H9 H 0.0030 0.4028 0.5225
H10 H -0.1807 0.4471 0.4960
C11 C -0.1594(17) 0.5946(12) 0.6015(9)
H11 H -0.0772 0.6278 0.5886
H12 H -0.2602 0.6719 0.5622
C12 C -0.1867(12) 0.5891(7) 0.7196(6)
H13 H -0.2862 0.6830 0.7394
H14 H -0.0955 0.5840 0.7633
C13 C -0.2030(6) 0.4396(6) 0.7462(5)
H15 H -0.3174 0.4652 0.7331
C14 C -0.2483(6) 0.4388(5) 0.9512(5)
C15 C -0.1808(5) 0.3564(5) 1.0659(4)
H16 H -0.0611 0.3101 1.0666
C16 C -0.2514(9) 0.4726(8) 1.1665(6)
C17 C -0.2712(15) 0.3491(15) 1.2584(10)
C18 C -0.3226(9) 0.2652(9) 1.2046(6)
C19 C -0.2255(5) 0.2229(5) 1.0929(4)
H17 H -0.2970 0.2238 1.0310
C20 C -0.0802(5) -0.0606(6) 1.0679(4)
C21 C 0.0833(5) -0.2107(5) 1.0692(4)
H18 H 0.1629 -0.1983 1.1166
C22 C 0.0714(9) -0.3579(7) 1.1137(5)
H19 H 0.1511 -0.4135 1.1755
H20 H -0.0373 -0.3265 1.1424
C23 C 0.1031(11) -0.4558(8) 1.0218(7)
H21 H 0.0011 -0.4321 0.9829
H22 H 0.1569 -0.5661 1.0493
C24 C 0.2120(7) -0.4261(6) 0.9409(5)
H23 H 0.2007 -0.4530 0.8637
H24 H 0.3262 -0.4858 0.9659
C25 C 0.1473(5) -0.2486(5) 0.9479(4)
H25 H 0.0550 -0.1924 0.8932
C26 C 0.2403(5) -0.0606(5) 0.8784(3)
C27 C 0.3864(5) -0.0369(5) 0.8520(3)
H26 H 0.4875 -0.1331 0.8760
C28 C 0.3934(6) 0.0028(6) 0.7230(4)
H27 H 0.4785 -0.0884 0.6869
H28 H 0.2892 0.0328 0.6849
C29 C 0.4300(14) 0.1361(12) 0.7155(5)
H29 H 0.5214 0.1113 0.6653
H30 H 0.3353 0.2308 0.6838
C30 C 0.4706(6) 0.1638(6) 0.8295(4)
H31 H 0.4339 0.2756 0.8374
H32 H 0.5880 0.1046 0.8446
C31 C 0.3801(5) 0.1064(5) 0.9107(3)
H33 H 0.2654 0.1895 0.9133
C32 C 0.3672(5) 0.0666(5) 1.1176(4)
C33 C 0.4108(6) 0.0053(7) 1.3258(4)
C34 C 0.5554(10) -0.0283(13) 1.4003(6)
H34 H 0.6493 -0.1229 1.3774
H35 H 0.5322 -0.0427 1.4787
H36 H 0.5777 0.0591 1.3927
C35 C 0.3812(14) -0.1341(11) 1.3255(7)
H37 H 0.4790 -0.2255 1.3029
H38 H 0.2931 -0.1118 1.2724
H39 H 0.3526 -0.1546 1.4010
C36 C 0.2629(12) 0.1490(12) 1.3607(7)
H40 H 0.1714 0.1687 1.3118
H41 H 0.2824 0.2381 1.3542
H42 H 0.2390 0.1333 1.4387
N1 N -0.1524(4) 0.3732(4) 0.8619(3)
H43 H -0.0588 0.2897 0.8737
N2 N -0.0802(4) 0.0691(4) 1.1018(3)
H44 H 0.0089 0.0613 1.1299
N3 N 0.2741(4) -0.2044(4) 0.9197(3)
H45 H 0.3753 -0.2749 0.9304
N4 N 0.4500(4) 0.0707(5) 1.0257(3)
H46 H 0.5498 0.0513 1.0352
O1 O -0.0361(4) 0.0903(5) 0.5733(3)
O2 O -0.2907(6) 0.2387(6) 0.6242(7)
O3 O -0.3837(4) 0.5576(5) 0.9386(4)
O4 O -0.2046(4) -0.0613(5) 1.0336(4)
O5 O 0.0996(3) 0.0466(3) 0.8595(3)
O6 O 0.2252(3) 0.0952(4) 1.1168(3)
O7 O 0.4619(4) 0.0305(5) 1.2125(3)
C37? C -0.370(2) 0.448(2) 1.2239(13)
loop_
_geom_bond_atom_site_label_1
_geom_bond_atom_site_label_2
_geom_bond_site_symmetry_1
_geom_bond_site_symmetry_2
C1 H1 1_555 1_555
C2 C1 1_555 1_555
H2 C2 1_555 1_555
C3 C2 1_555 1_555
H3 C3 1_555 1_555
C4 C3 1_555 1_555
H4 C4 1_555 1_555
C5 C4 1_555 1_555
H5 C5 1_555 1_555
C6 C1 1_555 1_555
C7 C6 1_555 1_555
H6 C7 1_555 1_555
H7 C7 1_555 1_555
C8 C9 1_555 1_555
C9 H8 1_555 1_555
C10 C9 1_555 1_555
H9 C10 1_555 1_555
H10 C10 1_555 1_555
C11 C10 1_555 1_555
H11 C11 1_555 1_555
H12 C11 1_555 1_555
C12 C11 1_555 1_555
H13 C12 1_555 1_555
H14 C12 1_555 1_555
C13 C9 1_555 1_555
H15 C13 1_555 1_555
C14 C15 1_555 1_555
C15 H16 1_555 1_555
C16 C15 1_555 1_555
C17 C16 1_555 1_555
C18 C17 1_555 1_555
C19 C15 1_555 1_555
H17 C19 1_555 1_555
C20 C21 1_555 1_555
C21 H18 1_555 1_555
C22 C21 1_555 1_555
H19 C22 1_555 1_555
H20 C22 1_555 1_555
C23 C22 1_555 1_555
H21 C23 1_555 1_555
H22 C23 1_555 1_555
C24 C23 1_555 1_555
H23 C24 1_555 1_555
H24 C24 1_555 1_555
C25 C21 1_555 1_555
H25 C25 1_555 1_555
C26 C27 1_555 1_555
C27 H26 1_555 1_555
C28 C27 1_555 1_555
H27 C28 1_555 1_555
H28 C28 1_555 1_555
C29 C28 1_555 1_555
H29 C29 1_555 1_555
H30 C29 1_555 1_555
C30 C29 1_555 1_555
H31 C30 1_555 1_555
H32 C30 1_555 1_555
C31 C27 1_555 1_555
H33 C31 1_555 1_555
C32 N4 1_555 1_555
C33 C34 1_555 1_555
C34 H34 1_555 1_555
H35 C34 1_555 1_555
H36 C34 1_555 1_555
C35 C33 1_555 1_555
H37 C35 1_555 1_555
H38 C35 1_555 1_555
H39 C35 1_555 1_555
C36 C33 1_555 1_555
H40 C36 1_555 1_555
H41 C36 1_555 1_555
H42 C36 1_555 1_555
N1 C13 1_555 1_555
H43 N1 1_555 1_555
N2 C19 1_555 1_555
H44 N2 1_555 1_555
N3 C25 1_555 1_555
H45 N3 1_555 1_555
N4 C31 1_555 1_555
H46 N4 1_555 1_555
O1 C7 1_555 1_555
O2 C8 1_555 1_555
O3 C14 1_555 1_555
O4 C20 1_555 1_555
O5 C26 1_555 1_555
O6 C32 1_555 1_555
O7 C32 1_555 1_555
C5 C6 1_555 1_555
C8 O1 1_555 1_555
C12 C13 1_555 1_555
C14 N1 1_555 1_555
C18 C19 1_555 1_555
C20 N2 1_555 1_555
C24 C25 1_555 1_555
C26 N3 1_555 1_555
C30 C31 1_555 1_555
C33 O7 1_555 1_555

#END
