
#######################################################################
#
#                 Cambridge Crystallographic Data Centre
#                                CCDC 
#
#######################################################################
#
# If this CIF has been generated from an entry in the Cambridge 
# Structural Database, then it will include bibliographic, chemical, 
# crystal, experimental, refinement or atomic coordinate data resulting 
# from the CCDC's data processing and validation procedures.
#
#######################################################################

data_KEQJEW
_chemical_formula_moiety         '2(C17 H13 N2 1+),2(C12 H4 N4 1-),C12 H4 N4'
_chemical_name_systematic        
'bis(N-(4-Cyanobenzyl)quinolinium) tris(7,7,8,8-tetracyanoquinodimethane)'
_symmetry_cell_setting           monoclinic
_symmetry_space_group_name_H-M   'P 21/c'
_symmetry_Int_Tables_number      14
_space_group_name_Hall           '-P 2ybc'
loop_
_symmetry_equiv_pos_site_id
_symmetry_equiv_pos_as_xyz
1 x,y,z
2 -x,1/2+y,1/2-z
3 -x,-y,-z
4 x,1/2-y,1/2+z
_cell_length_a                   16.083(3)
_cell_length_b                   10.8627(17)
_cell_length_c                   17.099(3)
_cell_angle_alpha                90
_cell_angle_beta                 114.327(3)
_cell_angle_gamma                90
_cell_volume                     2722.03
_exptl_crystal_colour            'dark green'
_exptl_crystal_description       block
_cell_formula_units_Z            2
_exptl_crystal_recrystallization_method 'diethyl ether/acetonitrile'
loop_
_atom_site_label
_atom_site_type_symbol
_atom_site_fract_x
_atom_site_fract_y
_atom_site_fract_z
N1 N 0.34564(13) 0.9686(2) 0.22175(12)
N2 N 0.19916(14) 1.0214(2) -0.04701(12)
N3 N 0.62204(14) 0.7121(2) -0.14023(15)
N4 N 0.77818(14) 0.6509(2) 0.13440(16)
C18 C 0.26579(14) 0.9889(2) 0.00643(13)
C19 C 0.34683(12) 0.94830(18) 0.07388(11)
C20 C 0.34779(13) 0.9590(2) 0.15652(13)
C21 C 0.41926(11) 0.89603(18) 0.05936(11)
C22 C 0.41549(12) 0.88743(18) -0.02445(12)
H14 H 0.3648 0.9182 -0.0704
C23 C 0.48412(13) 0.83532(19) -0.03940(12)
H15 H 0.4793 0.8302 -0.0954
C24 C 0.56275(12) 0.78871(19) 0.02838(13)
C25 C 0.56641(12) 0.7975(2) 0.11217(13)
H16 H 0.6170 0.7666 0.1581
C26 C 0.49794(12) 0.8497(2) 0.12725(12)
H17 H 0.5029 0.8552 0.1833
C27 C 0.63346(13) 0.7336(2) 0.01285(14)
C28 C 0.62766(14) 0.7221(2) -0.07184(17)
C29 C 0.71356(15) 0.6878(2) 0.08023(17)
N5 N 0.35809(13) 0.62120(19) 0.17934(12)
N6 N 0.22321(11) 0.71195(19) -0.09163(12)
C30 C 0.42493(11) 0.54602(17) -0.06944(11)
H18 H 0.3747 0.5772 -0.1155
C31 C 0.42811(11) 0.55431(16) 0.01501(11)
C32 C 0.50671(11) 0.50611(17) 0.08362(11)
H19 H 0.5109 0.5108 0.1394
C33 C 0.35852(11) 0.60989(18) 0.02995(12)
C34 C 0.28253(12) 0.66475(19) -0.03757(13)
C35 C 0.35867(12) 0.61575(19) 0.11309(13)
N5B N 0.64191(13) 0.37880(19) -0.17934(12)
N6B N 0.77679(11) 0.28805(19) 0.09163(12)
C30B C 0.57507(11) 0.45398(17) 0.06944(11)
H18B H 0.6253 0.4228 0.1155
C31B C 0.57189(11) 0.44569(16) -0.01501(11)
C32B C 0.49329(11) 0.49389(17) -0.08362(11)
H19B H 0.4891 0.4892 -0.1394
C33B C 0.64148(11) 0.39011(18) -0.02995(12)
C34B C 0.71747(12) 0.33525(19) 0.03757(13)
C35B C 0.64133(12) 0.38425(19) -0.11309(13)
N7 N -0.11670(13) 0.04670(18) 0.49120(12)
N8 N 0.05696(9) 0.42992(13) 0.22015(9)
C1 C -0.10134(13) 0.11791(19) 0.45041(12)
C2 C -0.08183(12) 0.20649(17) 0.39781(10)
C3 C 0.00496(12) 0.21083(17) 0.39901(11)
H1 H 0.0511 0.1607 0.4363
C4 C 0.02212(11) 0.28969(17) 0.34475(10)
H2 H 0.0803 0.2928 0.3457
C5 C -0.04558(11) 0.36437(16) 0.28893(10)
C6 C -0.13159(12) 0.36175(18) 0.29008(12)
H3 H -0.1774 0.4135 0.2539
C7 C -0.14914(12) 0.28339(18) 0.34417(12)
H4 H -0.2067 0.2821 0.3446
C8 C -0.03095(12) 0.45028(17) 0.22680(12)
H5 H -0.0804 0.4397 0.1705
H6 H -0.0331 0.5345 0.2448
C9 C 0.12390(13) 0.50912(18) 0.25719(11)
H7 H 0.1147 0.5752 0.2873
C10 C 0.20756(13) 0.4967(2) 0.25259(12)
H8 H 0.2534 0.5546 0.2783
C11 C 0.22158(12) 0.3999(2) 0.21045(12)
H9 H 0.2772 0.3913 0.2064
C12 C 0.15313(11) 0.31195(18) 0.17266(11)
C13 C 0.16457(15) 0.2080(2) 0.12908(13)
H10 H 0.2200 0.1956 0.1253
C14 C 0.09696(16) 0.1265(2) 0.09297(14)
H11 H 0.1059 0.0578 0.0649
C15 C 0.01301(14) 0.14448(19) 0.09735(12)
H12 H -0.0335 0.0875 0.0717
C16 C -0.00195(12) 0.24336(17) 0.13821(11)
H13 H -0.0583 0.2543 0.1403
C17 C 0.06793(11) 0.32850(16) 0.17706(10)
loop_
_geom_bond_atom_site_label_1
_geom_bond_atom_site_label_2
_geom_bond_site_symmetry_1
_geom_bond_site_symmetry_2
N1 C20 1_555 1_555
N2 C18 1_555 1_555
N3 C28 1_555 1_555
N4 C29 1_555 1_555
N5 C35 1_555 1_555
N6 C34 1_555 1_555
N7 C1 1_555 1_555
N8 C8 1_555 1_555
C1 C2 1_555 1_555
C2 C3 1_555 1_555
C3 H1 1_555 1_555
C4 C3 1_555 1_555
H2 C4 1_555 1_555
C5 C4 1_555 1_555
C6 C5 1_555 1_555
H3 C6 1_555 1_555
C7 C2 1_555 1_555
H4 C7 1_555 1_555
C8 C5 1_555 1_555
H5 C8 1_555 1_555
H6 C8 1_555 1_555
C9 N8 1_555 1_555
H7 C9 1_555 1_555
C10 C9 1_555 1_555
H8 C10 1_555 1_555
C11 C10 1_555 1_555
H9 C11 1_555 1_555
C12 C11 1_555 1_555
C13 C12 1_555 1_555
H10 C13 1_555 1_555
C14 C13 1_555 1_555
H11 C14 1_555 1_555
C15 C14 1_555 1_555
H12 C15 1_555 1_555
C16 C15 1_555 1_555
H13 C16 1_555 1_555
C17 N8 1_555 1_555
C18 C19 1_555 1_555
C19 C20 1_555 1_555
C21 C19 1_555 1_555
C22 C21 1_555 1_555
H14 C22 1_555 1_555
C23 C22 1_555 1_555
H15 C23 1_555 1_555
C24 C23 1_555 1_555
C25 C24 1_555 1_555
H16 C25 1_555 1_555
C26 C21 1_555 1_555
H17 C26 1_555 1_555
C27 C24 1_555 1_555
C28 C27 1_555 1_555
C29 C27 1_555 1_555
C30 H18 1_555 1_555
C31 C30 1_555 1_555
C32 C31 1_555 1_555
H19 C32 1_555 1_555
C33 C31 1_555 1_555
C34 C33 1_555 1_555
C35 C33 1_555 1_555
N5B C35B 1_555 1_555
N6B C34B 1_555 1_555
C30B C32 1_555 1_555
H18B C30B 1_555 1_555
C31B C30B 1_555 1_555
C32B C30 1_555 1_555
H19B C32B 1_555 1_555
C33B C31B 1_555 1_555
C34B C33B 1_555 1_555
C35B C33B 1_555 1_555
C6 C7 1_555 1_555
C12 C17 1_555 1_555
C16 C17 1_555 1_555
C25 C26 1_555 1_555
C31B C32B 1_555 1_555

#END
