
#######################################################################
#
#                 Cambridge Crystallographic Data Centre
#                                CCDC 
#
#######################################################################
#
# If this CIF has been generated from an entry in the Cambridge 
# Structural Database, then it will include bibliographic, chemical, 
# crystal, experimental, refinement or atomic coordinate data resulting 
# from the CCDC's data processing and validation procedures.
#
#######################################################################

data_KEQKUO
_chemical_formula_moiety         'C25 H32 N4'
_chemical_name_systematic        2,2,8,8-tetrakis(1H-pyrrol-2-yl)nonane
_symmetry_cell_setting           monoclinic
_symmetry_space_group_name_H-M   'P 21/c'
_symmetry_Int_Tables_number      14
_space_group_name_Hall           '-P 2ybc'
loop_
_symmetry_equiv_pos_site_id
_symmetry_equiv_pos_as_xyz
1 x,y,z
2 -x,1/2+y,1/2-z
3 -x,-y,-z
4 x,1/2-y,1/2+z
_cell_length_a                   8.874(2)
_cell_length_b                   28.503(6)
_cell_length_c                   8.7620(19)
_cell_angle_alpha                90
_cell_angle_beta                 98.879(4)
_cell_angle_gamma                90
_cell_volume                     2189.66
_exptl_crystal_colour            colorless
_exptl_crystal_description       block
_cell_formula_units_Z            4
loop_
_atom_site_label
_atom_site_type_symbol
_atom_site_fract_x
_atom_site_fract_y
_atom_site_fract_z
C1 C 1.2527(4) 0.41813(13) 0.4085(5)
H1 H 1.2384 0.4143 0.2984
H2 H 1.3467 0.4035 0.4534
H3 H 1.2564 0.4510 0.4333
N1 N 1.1555(4) 0.44325(11) 0.7171(4)
N2 N 0.8528(4) 0.42427(11) 0.4854(4)
N3 N 0.5599(4) 0.08276(12) 0.3268(4)
C2 C 1.1130(4) 0.34209(12) 0.4280(4)
H4 H 1.1228 0.3397 0.3196
H5 H 1.2006 0.3265 0.4865
C3 C 0.6641(4) 0.16457(11) 0.3607(4)
C4 C 0.9704(4) 0.41787(11) 0.4039(4)
C5 C 0.6838(4) 0.11213(12) 0.3503(4)
C6 C 0.5849(4) 0.18211(13) 0.2033(4)
H6 H 0.6476 0.1753 0.1260
H7 H 0.5694 0.2154 0.2079
H8 H 0.4882 0.1667 0.1773
C7 C 1.1836(4) 0.36817(13) 0.7644(4)
H9 H 1.1880 0.3358 0.7530
C8 C 0.5684(4) 0.17628(11) 0.4838(4)
C9 C 1.1480(4) 0.39979(12) 0.6471(4)
C10 C 0.8082(4) 0.08420(12) 0.3494(4)
H10 H 0.9091 0.0942 0.3627
N4 N 0.5957(4) 0.15586(12) 0.6262(4)
C11 C 0.9703(4) 0.31594(12) 0.4539(4)
H11 H 0.9552 0.3205 0.5602
H12 H 0.8834 0.3295 0.3880
C12 C 0.8236(4) 0.18752(11) 0.4004(4)
H13 H 0.8771 0.1729 0.4932
H14 H 0.8811 0.1810 0.3172
C13 C 1.1955(4) 0.43860(14) 0.8731(5)
H15 H 1.2087 0.4629 0.9446
C14 C 0.8220(4) 0.24010(12) 0.4256(5)
H16 H 0.7904 0.2463 0.5247
H17 H 0.7468 0.2540 0.3464
C15 C 1.1184(4) 0.39499(11) 0.4738(4)
C16 C 0.9744(4) 0.26372(12) 0.4218(5)
H18 H 1.0043 0.2589 0.3210
H19 H 1.0509 0.2491 0.4981
C17 C 0.6062(5) 0.03794(13) 0.3120(5)
H20 H 0.5432 0.0118 0.2956
C18 C 0.4037(5) 0.20356(15) 0.6324(5)
H21 H 0.3249 0.2204 0.6652
C19 C 1.2124(4) 0.39261(14) 0.9050(5)
H22 H 1.2385 0.3794 1.0026
C20 C 0.7581(5) 0.03786(12) 0.3249(4)
H23 H 0.8195 0.0117 0.3188
C21 C 0.9157(5) 0.43049(13) 0.2554(4)
H24 H 0.9704 0.4298 0.1731
C22 C 0.4496(4) 0.20607(12) 0.4864(5)
H25 H 0.4058 0.2250 0.4050
C23 C 0.4949(5) 0.17228(15) 0.7159(5)
H26 H 0.4902 0.1634 0.8172
C24 C 0.7276(5) 0.44062(14) 0.3906(5)
H27 H 0.6337 0.4477 0.4196
C25 C 0.7639(5) 0.44471(14) 0.2475(5)
H28 H 0.7000 0.4551 0.1598
H29 H 0.663(4) 0.1336(12) 0.651(4)
H30 H 1.143(4) 0.4706(14) 0.678(5)
H31 H 0.862(4) 0.4196(12) 0.579(4)
H32 H 0.473(5) 0.0935(14) 0.332(5)
loop_
_geom_bond_atom_site_label_1
_geom_bond_atom_site_label_2
_geom_bond_site_symmetry_1
_geom_bond_site_symmetry_2
C1 H1 1_555 1_555
H2 C1 1_555 1_555
H3 C1 1_555 1_555
N1 C9 1_555 1_555
N2 C4 1_555 1_555
N3 C5 1_555 1_555
C2 H4 1_555 1_555
H5 C2 1_555 1_555
C3 C5 1_555 1_555
C4 C15 1_555 1_555
C5 C10 1_555 1_555
C6 C3 1_555 1_555
H6 C6 1_555 1_555
H7 C6 1_555 1_555
H8 C6 1_555 1_555
C7 H9 1_555 1_555
C8 C3 1_555 1_555
C9 C7 1_555 1_555
C10 H10 1_555 1_555
N4 C8 1_555 1_555
C11 C2 1_555 1_555
H11 C11 1_555 1_555
H12 C11 1_555 1_555
C12 C3 1_555 1_555
H13 C12 1_555 1_555
H14 C12 1_555 1_555
C13 N1 1_555 1_555
H15 C13 1_555 1_555
C14 C12 1_555 1_555
H16 C14 1_555 1_555
H17 C14 1_555 1_555
C15 C1 1_555 1_555
C16 C11 1_555 1_555
H18 C16 1_555 1_555
H19 C16 1_555 1_555
C17 N3 1_555 1_555
H20 C17 1_555 1_555
C18 H21 1_555 1_555
C19 C7 1_555 1_555
H22 C19 1_555 1_555
C20 C10 1_555 1_555
H23 C20 1_555 1_555
C21 C4 1_555 1_555
H24 C21 1_555 1_555
C22 C8 1_555 1_555
H25 C22 1_555 1_555
C23 N4 1_555 1_555
H26 C23 1_555 1_555
C24 N2 1_555 1_555
H27 C24 1_555 1_555
C25 C21 1_555 1_555
H28 C25 1_555 1_555
H29 N4 1_555 1_555
H30 N1 1_555 1_555
H31 N2 1_555 1_555
H32 N3 1_555 1_555
C2 C15 1_555 1_555
C9 C15 1_555 1_555
C13 C19 1_555 1_555
C14 C16 1_555 1_555
C17 C20 1_555 1_555
C18 C22 1_555 1_555
C18 C23 1_555 1_555
C24 C25 1_555 1_555

#END
