
#######################################################################
#
#                 Cambridge Crystallographic Data Centre
#                                CCDC 
#
#######################################################################
#
# If this CIF has been generated from an entry in the Cambridge 
# Structural Database, then it will include bibliographic, chemical, 
# crystal, experimental, refinement or atomic coordinate data resulting 
# from the CCDC's data processing and validation procedures.
#
#######################################################################

data_KEQKUN
_chemical_formula_moiety         'C35 H24'
_chemical_name_systematic        
2',7'-Di-1-naphthylspiro(cyclopropane-1,9'-fluorene)
_symmetry_cell_setting           orthorhombic
_symmetry_space_group_name_H-M   'P c a 21'
_symmetry_Int_Tables_number      29
_space_group_name_Hall           'P 2c -2ac'
loop_
_symmetry_equiv_pos_site_id
_symmetry_equiv_pos_as_xyz
1 x,y,z
2 1/2-x,y,1/2+z
3 1/2+x,-y,z
4 -x,-y,1/2+z
_cell_length_a                   17.355(4)
_cell_length_b                   18.225(4)
_cell_length_c                   7.4532(18)
_cell_angle_alpha                90
_cell_angle_beta                 90
_cell_angle_gamma                90
_cell_volume                     2357.41
_exptl_crystal_colour            colorless
_exptl_crystal_description       block
_cell_formula_units_Z            4
_exptl_crystal_recrystallization_method hexane/dichloromethane
loop_
_atom_site_label
_atom_site_type_symbol
_atom_site_fract_x
_atom_site_fract_y
_atom_site_fract_z
C1 C 0.62463(9) 0.44907(9) 0.1873(2)
C2 C 0.57995(9) 0.41676(9) 0.3229(2)
C3 C 0.57828(9) 0.33737(10) 0.2923(3)
C4 C 0.54340(11) 0.28078(11) 0.3880(3)
H1 H 0.5137 0.2909 0.4888
C5 C 0.55367(11) 0.20930(11) 0.3305(3)
H2 H 0.5304 0.1714 0.3940
C6 C 0.59793(11) 0.19253(11) 0.1798(3)
C7 C 0.63172(10) 0.24975(10) 0.0831(3)
H3 H 0.6608 0.2396 -0.0188
C8 C 0.62198(9) 0.32135(9) 0.1387(3)
C9 C 0.65207(10) 0.39126(10) 0.0625(3)
C10 C 0.65780(12) 0.40442(12) -0.1386(3)
H4 H 0.6434 0.3645 -0.2179
H5 H 0.6454 0.4530 -0.1830
C11 C 0.72901(11) 0.39590(11) -0.0317(3)
H6 H 0.7601 0.4393 -0.0113
H7 H 0.7581 0.3508 -0.0462
C12 C 0.63802(9) 0.52364(10) 0.1871(3)
H8 H 0.6677 0.5446 0.0968
C13 C 0.60721(9) 0.56773(10) 0.3218(3)
C14 C 0.56140(11) 0.53515(11) 0.4546(3)
H9 H 0.5397 0.5644 0.5435
C15 C 0.54773(10) 0.46032(11) 0.4561(3)
H10 H 0.5173 0.4395 0.5452
C16 C 0.61886(10) 0.64866(10) 0.3195(3)
C17 C 0.55634(12) 0.69436(12) 0.3325(3)
H11 H 0.5078 0.6742 0.3519
C18 C 0.56364(14) 0.77079(12) 0.3172(4)
H12 H 0.5203 0.8006 0.3268
C19 C 0.63368(16) 0.80112(12) 0.2884(4)
H13 H 0.6377 0.8517 0.2739
C20 C 0.70099(13) 0.75736(11) 0.2799(3)
C21 C 0.77535(15) 0.78816(13) 0.2576(4)
H14 H 0.7801 0.8385 0.2399
C22 C 0.83931(15) 0.74619(15) 0.2613(4)
H15 H 0.8875 0.7677 0.2465
C23 C 0.83354(12) 0.67059(13) 0.2873(3)
H16 H 0.8778 0.6420 0.2934
C24 C 0.76287(11) 0.63879(11) 0.3038(3)
H17 H 0.7598 0.5882 0.3186
C25 C 0.69421(10) 0.68021(10) 0.2990(3)
C26 C 0.60699(12) 0.11480(11) 0.1219(3)
C27 C 0.54332(13) 0.07342(12) 0.0869(4)
H18 H 0.4949 0.0941 0.1036
C28 C 0.54829(16) 0.00096(13) 0.0266(5)
H19 H 0.5037 -0.0255 0.0027
C29 C 0.61787(17) -0.03046(13) 0.0033(4)
H20 H 0.6208 -0.0787 -0.0371
C30 C 0.68598(15) 0.00850(12) 0.0392(3)
C31 C 0.75929(18) -0.02313(14) 0.0156(4)
H21 H 0.7629 -0.0709 -0.0277
C32 C 0.82399(18) 0.01381(17) 0.0540(5)
H22 H 0.8716 -0.0084 0.0361
C33 C 0.82049(15) 0.08534(16) 0.1206(4)
H23 H 0.8657 0.1101 0.1494
C34 C 0.75088(13) 0.11916(11) 0.1436(3)
H24 H 0.7492 0.1670 0.1871
C35 C 0.68129(13) 0.08228(11) 0.1020(3)
loop_
_geom_bond_atom_site_label_1
_geom_bond_atom_site_label_2
_geom_bond_site_symmetry_1
_geom_bond_site_symmetry_2
C1 C2 1_555 1_555
C2 C3 1_555 1_555
C3 C4 1_555 1_555
C4 H1 1_555 1_555
C5 C4 1_555 1_555
H2 C5 1_555 1_555
C6 C5 1_555 1_555
C7 C6 1_555 1_555
H3 C7 1_555 1_555
C8 C3 1_555 1_555
C9 C1 1_555 1_555
C10 C9 1_555 1_555
H4 C10 1_555 1_555
H5 C10 1_555 1_555
C11 C9 1_555 1_555
H6 C11 1_555 1_555
H7 C11 1_555 1_555
C12 C1 1_555 1_555
H8 C12 1_555 1_555
C13 C12 1_555 1_555
C14 C13 1_555 1_555
H9 C14 1_555 1_555
C15 C2 1_555 1_555
H10 C15 1_555 1_555
C16 C13 1_555 1_555
C17 C16 1_555 1_555
H11 C17 1_555 1_555
C18 C17 1_555 1_555
H12 C18 1_555 1_555
C19 C18 1_555 1_555
H13 C19 1_555 1_555
C20 C19 1_555 1_555
C21 C20 1_555 1_555
H14 C21 1_555 1_555
C22 C21 1_555 1_555
H15 C22 1_555 1_555
C23 C22 1_555 1_555
H16 C23 1_555 1_555
C24 C23 1_555 1_555
H17 C24 1_555 1_555
C25 C16 1_555 1_555
C26 C6 1_555 1_555
C27 C26 1_555 1_555
H18 C27 1_555 1_555
C28 C27 1_555 1_555
H19 C28 1_555 1_555
C29 C28 1_555 1_555
H20 C29 1_555 1_555
C30 C29 1_555 1_555
C31 C30 1_555 1_555
H21 C31 1_555 1_555
C32 C31 1_555 1_555
H22 C32 1_555 1_555
C33 C32 1_555 1_555
H23 C33 1_555 1_555
C34 C33 1_555 1_555
H24 C34 1_555 1_555
C35 C26 1_555 1_555
C7 C8 1_555 1_555
C8 C9 1_555 1_555
C10 C11 1_555 1_555
C14 C15 1_555 1_555
C20 C25 1_555 1_555
C24 C25 1_555 1_555
C30 C35 1_555 1_555
C34 C35 1_555 1_555

#END
