
#######################################################################
#
#                 Cambridge Crystallographic Data Centre
#                                CCDC 
#
#######################################################################
#
# If this CIF has been generated from an entry in the Cambridge 
# Structural Database, then it will include bibliographic, chemical, 
# crystal, experimental, refinement or atomic coordinate data resulting 
# from the CCDC's data processing and validation procedures.
#
#######################################################################

data_KEQKUM
_chemical_formula_moiety         'C13 H18 N4 O2'
_chemical_name_systematic        
(E)-5-Cyano-4-diethylamino-2-(N,N-dimethylimmonio)ethylidene-6-oxido-1,3-oxazine
_symmetry_cell_setting           monoclinic
_symmetry_space_group_name_H-M   'P 21/a'
_symmetry_Int_Tables_number      14
_space_group_name_Hall           '-P 2yab'
loop_
_symmetry_equiv_pos_site_id
_symmetry_equiv_pos_as_xyz
1 x,y,z
2 1/2-x,1/2+y,-z
3 -x,-y,-z
4 1/2+x,1/2-y,z
_cell_length_a                   14.003(2)
_cell_length_b                   6.601(1)
_cell_length_c                   15.788(2)
_cell_angle_alpha                90
_cell_angle_beta                 108.18(1)
_cell_angle_gamma                90
_cell_volume                     1386.5
_exptl_crystal_colour            'pale yellow'
_exptl_crystal_description       prism
_chemical_melting_point          '153 deg.C'
_cell_formula_units_Z            4
loop_
_atom_site_label
_atom_site_type_symbol
_atom_site_fract_x
_atom_site_fract_y
_atom_site_fract_z
O1 O 0.4450(1) 0.2077(3) 0.8451(1)
C1 C 0.3517(2) 0.1193(5) 0.8206(2)
N1 N 0.2741(2) 0.1958(4) 0.7620(2)
C2 C 0.2812(2) 0.3715(5) 0.7203(2)
C3 C 0.3765(2) 0.4676(5) 0.7377(2)
C4 C 0.4607(2) 0.3816(6) 0.8032(2)
C5 C 0.3499(2) -0.0602(5) 0.8687(2)
C6 C 0.2620(2) -0.1626(5) 0.8562(2)
N2 N 0.2483(2) -0.3322(4) 0.8953(2)
C7 C 0.3314(3) -0.4325(7) 0.9603(2)
C8 C 0.1493(3) -0.4213(6) 0.8780(3)
O2 O 0.5461(2) 0.4470(4) 0.8276(2)
C9 C 0.4002(2) 0.6396(6) 0.6943(2)
N3 N 0.4254(2) 0.7718(6) 0.6611(2)
N4 N 0.1944(2) 0.4450(5) 0.6676(2)
C10 C 0.1815(2) 0.6429(6) 0.6229(2)
C11 C 0.1857(3) 0.6349(7) 0.5295(3)
C12 C 0.0992(3) 0.3267(6) 0.6551(3)
C13 C 0.0886(4) 0.1729(8) 0.5855(3)
H1 H 0.411(2) -0.117(4) 0.908(2)
H2 H 0.204(2) -0.097(5) 0.818(2)
H3 H 0.332(3) -0.405(7) 1.009(2)
H4 H 0.398(3) -0.424(7) 0.946(2)
H5 H 0.314(3) -0.555(7) 0.958(3)
H6 H 0.130(2) -0.416(6) 0.932(2)
H7 H 0.155(2) -0.555(5) 0.862(2)
H8 H 0.097(2) -0.358(6) 0.831(2)
H9 H 0.237(2) 0.739(5) 0.660(2)
H10 H 0.112(2) 0.686(5) 0.618(2)
H11 H 0.255(3) 0.611(7) 0.519(3)
H12 H 0.182(3) 0.779(7) 0.516(3)
H13 H 0.141(3) 0.548(7) 0.495(2)
H14 H 0.040(2) 0.424(5) 0.638(2)
H15 H 0.096(2) 0.243(5) 0.718(2)
H16 H 0.017(4) 0.091(9) 0.590(3)
H17 H 0.084(4) 0.229(8) 0.519(3)
H18 H 0.151(2) 0.078(6) 0.597(2)
loop_
_geom_bond_atom_site_label_1
_geom_bond_atom_site_label_2
_geom_bond_site_symmetry_1
_geom_bond_site_symmetry_2
O1 C1 1_555 1_555
C1 N1 1_555 1_555
N1 C2 1_555 1_555
C2 C3 1_555 1_555
C3 C4 1_555 1_555
C4 O1 1_555 1_555
C5 C1 1_555 1_555
C6 C5 1_555 1_555
N2 C6 1_555 1_555
C7 N2 1_555 1_555
C8 N2 1_555 1_555
O2 C4 1_555 1_555
C9 C3 1_555 1_555
N3 C9 1_555 1_555
N4 C2 1_555 1_555
C10 N4 1_555 1_555
C11 C10 1_555 1_555
C12 N4 1_555 1_555
C13 C12 1_555 1_555
H1 C5 1_555 1_555
H2 C6 1_555 1_555
H3 C7 1_555 1_555
H4 C7 1_555 1_555
H5 C7 1_555 1_555
H6 C8 1_555 1_555
H7 C8 1_555 1_555
H8 C8 1_555 1_555
H9 C10 1_555 1_555
H10 C10 1_555 1_555
H11 C11 1_555 1_555
H12 C11 1_555 1_555
H13 C11 1_555 1_555
H14 C12 1_555 1_555
H15 C12 1_555 1_555
H16 C13 1_555 1_555
H17 C13 1_555 1_555
H18 C13 1_555 1_555

#END
