
#######################################################################
#
#                 Cambridge Crystallographic Data Centre
#                                CCDC 
#
#######################################################################
#
# If this CIF has been generated from an entry in the Cambridge 
# Structural Database, then it will include bibliographic, chemical, 
# crystal, experimental, refinement or atomic coordinate data resulting 
# from the CCDC's data processing and validation procedures.
#
#######################################################################

data_KEQKIC
_chemical_formula_moiety         'C18 H21 N3'
_chemical_name_systematic        
4,7-Dimethyl-4,7-bis(1H-pyrrol-2-yl)-4,5,6,7-tetrahydro-1H-indole
_symmetry_cell_setting           monoclinic
_symmetry_space_group_name_H-M   'P 21/n'
_symmetry_Int_Tables_number      14
_space_group_name_Hall           '-P 2yn'
loop_
_symmetry_equiv_pos_site_id
_symmetry_equiv_pos_as_xyz
1 x,y,z
2 1/2-x,1/2+y,1/2-z
3 -x,-y,-z
4 1/2+x,1/2-y,1/2+z
_cell_length_a                   6.303(3)
_cell_length_b                   21.098(11)
_cell_length_c                   11.306(6)
_cell_angle_alpha                90
_cell_angle_beta                 100.824(9)
_cell_angle_gamma                90
_cell_volume                     1476.73
_exptl_crystal_colour            colorless
_exptl_crystal_description       plate
_cell_formula_units_Z            4
loop_
_atom_site_label
_atom_site_type_symbol
_atom_site_fract_x
_atom_site_fract_y
_atom_site_fract_z
C1 C 0.4882(4) 0.05827(13) 0.7582(3)
N1 N 0.0261(4) 0.08237(13) 0.5879(3)
C2 C 0.3897(4) 0.21697(12) 0.5682(2)
C3 C 0.2907(4) 0.27911(13) 0.5963(2)
C4 C 0.4687(4) 0.17559(12) 0.7834(2)
H1 H 0.3757 0.2089 0.8039
H2 H 0.5841 0.1691 0.8522
C5 C 0.1976(4) 0.12145(12) 0.6346(2)
N2 N 0.0951(4) 0.28251(13) 0.6287(2)
C6 C 0.3370(4) 0.11400(13) 0.7579(2)
C7 C 0.2204(4) 0.16529(13) 0.5500(2)
C8 C 0.5654(4) 0.19681(13) 0.6765(2)
H3 H 0.6496 0.1624 0.6520
H4 H 0.6621 0.2322 0.7005
C9 C 0.0580(4) 0.15348(13) 0.4484(2)
H5 H 0.0347 0.1764 0.3768
N3 N 0.6238(4) 0.03943(15) 0.8612(3)
C10 C 0.3719(5) 0.33968(14) 0.6046(3)
H6 H 0.5049 0.3521 0.5882
C11 C 0.4937(5) 0.22456(15) 0.4572(3)
H7 H 0.3870 0.2387 0.3904
H8 H 0.5512 0.1846 0.4379
H9 H 0.6082 0.2552 0.4737
C12 C 0.2178(5) 0.37977(14) 0.6425(3)
H10 H 0.2307 0.4233 0.6553
C13 C 0.0493(5) 0.34338(15) 0.6566(3)
H11 H -0.0759 0.3572 0.6810
C14 C 0.1959(5) 0.10471(16) 0.8533(3)
H12 H 0.0912 0.1382 0.8468
H13 H 0.2852 0.1055 0.9320
H14 H 0.1229 0.0647 0.8407
C15 C -0.0586(4) 0.10253(15) 0.4736(3)
H15 H -0.1755 0.0845 0.4221
C16 C 0.5216(5) 0.02038(14) 0.6670(3)
H16 H 0.4503 0.0223 0.5872
C17 C 0.7452(6) -0.01027(17) 0.8345(4)
H17 H 0.8504 -0.0316 0.8887
C18 C 0.6873(6) -0.02312(15) 0.7171(4)
H18 H 0.7450 -0.0548 0.6754
H19 H -0.023(6) 0.0474(18) 0.626(3)
H20 H 0.013(5) 0.2508(15) 0.629(3)
H21 H 0.658(6) 0.0623(19) 0.933(4)
loop_
_geom_bond_atom_site_label_1
_geom_bond_atom_site_label_2
_geom_bond_site_symmetry_1
_geom_bond_site_symmetry_2
C1 C6 1_555 1_555
N1 C5 1_555 1_555
C2 C3 1_555 1_555
C3 N2 1_555 1_555
C4 H1 1_555 1_555
H2 C4 1_555 1_555
C5 C6 1_555 1_555
N2 C13 1_555 1_555
C6 C4 1_555 1_555
C7 C2 1_555 1_555
C8 C2 1_555 1_555
H3 C8 1_555 1_555
H4 C8 1_555 1_555
C9 C7 1_555 1_555
H5 C9 1_555 1_555
N3 C1 1_555 1_555
C10 C3 1_555 1_555
H6 C10 1_555 1_555
C11 C2 1_555 1_555
H7 C11 1_555 1_555
H8 C11 1_555 1_555
H9 C11 1_555 1_555
C12 C10 1_555 1_555
H10 C12 1_555 1_555
C13 C12 1_555 1_555
H11 C13 1_555 1_555
C14 C6 1_555 1_555
H12 C14 1_555 1_555
H13 C14 1_555 1_555
H14 C14 1_555 1_555
C15 N1 1_555 1_555
H15 C15 1_555 1_555
C16 C1 1_555 1_555
H16 C16 1_555 1_555
C17 N3 1_555 1_555
H17 C17 1_555 1_555
C18 C16 1_555 1_555
H18 C18 1_555 1_555
H19 N1 1_555 1_555
H20 N2 1_555 1_555
H21 N3 1_555 1_555
C4 C8 1_555 1_555
C5 C7 1_555 1_555
C9 C15 1_555 1_555
C17 C18 1_555 1_555

#END
