
#######################################################################
#
#                 Cambridge Crystallographic Data Centre
#                                CCDC 
#
#######################################################################
#
# If this CIF has been generated from an entry in the Cambridge 
# Structural Database, then it will include bibliographic, chemical, 
# crystal, experimental, refinement or atomic coordinate data resulting 
# from the CCDC's data processing and validation procedures.
#
#######################################################################

data_KEQPEE
_chemical_formula_moiety         'C25 H26 O4 S1'
_chemical_name_systematic        
2-((4-ethylphenyl)methylidene)-4-(1-(4-ethylphenyl)-2-(methylsulfonyl)ethenyl)-5-methylfuran-3(2H)-one
_symmetry_cell_setting           monoclinic
_symmetry_space_group_name_H-M   'P 21/n'
_symmetry_Int_Tables_number      14
_space_group_name_Hall           '-P 2yn'
loop_
_symmetry_equiv_pos_site_id
_symmetry_equiv_pos_as_xyz
1 x,y,z
2 1/2-x,1/2+y,1/2-z
3 -x,-y,-z
4 1/2+x,1/2-y,1/2+z
_cell_length_a                   10.417(3)
_cell_length_b                   18.466(5)
_cell_length_c                   11.832(3)
_cell_angle_alpha                90
_cell_angle_beta                 96.778(5)
_cell_angle_gamma                90
_cell_volume                     2260.1
_exptl_crystal_colour            colorless
_exptl_crystal_description       block
_cell_formula_units_Z            4
loop_
_atom_site_label
_atom_site_type_symbol
_atom_site_fract_x
_atom_site_fract_y
_atom_site_fract_z
S1 S 0.03684(8) 0.62137(5) 0.83888(7)
O1 O -0.07277(19) 0.41485(12) 0.56658(17)
O2 O -0.1484(2) 0.46852(15) 0.83488(18)
O3 O -0.0487(3) 0.60974(15) 0.7367(2)
O4 O 0.1183(3) 0.68466(14) 0.8445(3)
C1 C -0.6105(7) 0.2624(4) 0.1705(5)
H1 H -0.643275 0.241455 0.235526
H2 H -0.527648 0.241772 0.161900
H3 H -0.669381 0.252701 0.103489
C2 C -0.5969(4) 0.3418(3) 0.1866(4)
H4 H -0.681987 0.363339 0.185853
H5 H -0.556920 0.362339 0.123856
C3 C -0.5153(3) 0.3605(2) 0.2985(3)
C4 C -0.5713(3) 0.3844(3) 0.3920(4)
H6 H -0.660731 0.389181 0.386431
C5 C -0.4985(3) 0.4012(3) 0.4924(4)
H7 H -0.539547 0.416225 0.554019
C6 C -0.3635(3) 0.39629(19) 0.5044(3)
C7 C -0.3065(3) 0.3722(2) 0.4111(3)
H8 H -0.216949 0.368532 0.415964
C8 C -0.3814(3) 0.3535(2) 0.3106(3)
H9 H -0.341273 0.335989 0.249985
C9 C -0.2921(3) 0.41952(19) 0.6110(3)
H10 H -0.343011 0.430207 0.668374
C10 C -0.1648(3) 0.42806(18) 0.6402(3)
C11 C -0.0983(3) 0.45535(18) 0.7486(3)
C12 C 0.0371(3) 0.46013(17) 0.7286(2)
C13 C 0.0445(3) 0.43472(16) 0.6226(2)
C14 C 0.1544(3) 0.4243(2) 0.5558(3)
H11 H 0.189147 0.376548 0.569016
H12 H 0.220137 0.459545 0.578687
H13 H 0.125122 0.430214 0.476305
C15 C 0.6342(9) 0.2646(5) 0.9535(6)
H14 H 0.647917 0.294999 1.019678
H15 H 0.709531 0.235391 0.948634
H16 H 0.560955 0.233795 0.959167
C16 C 0.6103(6) 0.3090(3) 0.8534(5)
H17 H 0.602797 0.278509 0.786121
H18 H 0.682430 0.341737 0.849478
C17 C 0.4859(4) 0.3527(3) 0.8558(4)
C18 C 0.3631(4) 0.3220(2) 0.8362(3)
H19 H 0.355009 0.271906 0.832360
C19 C 0.2534(3) 0.36427(18) 0.8224(3)
H20 H 0.172602 0.342457 0.808319
C20 C 0.2625(3) 0.43928(17) 0.8294(2)
C21 C 0.3851(3) 0.4694(2) 0.8518(3)
H21 H 0.393432 0.519438 0.857588
C22 C 0.4945(3) 0.4270(2) 0.8655(3)
H22 H 0.575112 0.448724 0.881528
C23 C 0.1456(3) 0.48621(17) 0.8099(2)
C24 C 0.1430(3) 0.54866(18) 0.8672(3)
H23 H 0.205426 0.553946 0.929651
C25 C -0.0525(4) 0.6251(2) 0.9553(3)
H24 H -0.104266 0.668220 0.950576
H25 H 0.005458 0.625608 1.024658
H26 H -0.107729 0.583391 0.954412
loop_
_geom_bond_atom_site_label_1
_geom_bond_atom_site_label_2
_geom_bond_site_symmetry_1
_geom_bond_site_symmetry_2
S1 O3 1_555 1_555
O1 C10 1_555 1_555
O2 C11 1_555 1_555
O4 S1 1_555 1_555
C1 H1 1_555 1_555
H2 C1 1_555 1_555
H3 C1 1_555 1_555
C2 C1 1_555 1_555
H4 C2 1_555 1_555
H5 C2 1_555 1_555
C3 C2 1_555 1_555
C4 C3 1_555 1_555
H6 C4 1_555 1_555
C5 C4 1_555 1_555
H7 C5 1_555 1_555
C6 C5 1_555 1_555
C7 C6 1_555 1_555
H8 C7 1_555 1_555
C8 C3 1_555 1_555
H9 C8 1_555 1_555
C9 C6 1_555 1_555
H10 C9 1_555 1_555
C10 C9 1_555 1_555
C11 C10 1_555 1_555
C12 C11 1_555 1_555
C13 O1 1_555 1_555
C14 C13 1_555 1_555
H11 C14 1_555 1_555
H12 C14 1_555 1_555
H13 C14 1_555 1_555
C15 H14 1_555 1_555
H15 C15 1_555 1_555
H16 C15 1_555 1_555
C16 C15 1_555 1_555
H17 C16 1_555 1_555
H18 C16 1_555 1_555
C17 C16 1_555 1_555
C18 C17 1_555 1_555
H19 C18 1_555 1_555
C19 C18 1_555 1_555
H20 C19 1_555 1_555
C20 C19 1_555 1_555
C21 C20 1_555 1_555
H21 C21 1_555 1_555
C22 C17 1_555 1_555
H22 C22 1_555 1_555
C23 C12 1_555 1_555
C24 S1 1_555 1_555
H23 C24 1_555 1_555
C25 S1 1_555 1_555
H24 C25 1_555 1_555
H25 C25 1_555 1_555
H26 C25 1_555 1_555
C7 C8 1_555 1_555
C12 C13 1_555 1_555
C20 C23 1_555 1_555
C21 C22 1_555 1_555
C23 C24 1_555 1_555

#END
