
#######################################################################
#
#                 Cambridge Crystallographic Data Centre
#                                CCDC 
#
#######################################################################
#
# If this CIF has been generated from an entry in the Cambridge 
# Structural Database, then it will include bibliographic, chemical, 
# crystal, experimental, refinement or atomic coordinate data resulting 
# from the CCDC's data processing and validation procedures.
#
#######################################################################

data_KEQQIH
_chemical_formula_moiety         'C21 H16 F1 N1 O3'
_chemical_name_systematic        
'Methyl 2-amino-4-(2-fluorophenyl)-4H-benzo(h)chromene-3-carboxylate'
_symmetry_cell_setting           tetragonal
_symmetry_space_group_name_H-M   'P 42/n'
_symmetry_Int_Tables_number      86
_space_group_name_Hall           '-P 4bc'
loop_
_symmetry_equiv_pos_site_id
_symmetry_equiv_pos_as_xyz
1 x,y,z
2 -y,1/2+x,1/2+z
3 1/2+y,-x,1/2+z
4 1/2-x,1/2-y,z
5 -x,-y,-z
6 y,1/2-x,1/2-z
7 1/2-y,x,1/2-z
8 1/2+x,1/2+y,-z
_cell_length_a                   19.137(3)
_cell_length_b                   19.137(3)
_cell_length_c                   9.4170(19)
_cell_angle_alpha                90
_cell_angle_beta                 90
_cell_angle_gamma                90
_cell_volume                     3448.74
_exptl_crystal_colour            colorless
_exptl_crystal_description       block
_chemical_melting_point          426-428K
_cell_formula_units_Z            8
_exptl_crystal_recrystallization_method methanol
loop_
_atom_site_label
_atom_site_type_symbol
_atom_site_fract_x
_atom_site_fract_y
_atom_site_fract_z
F1 F 0.67863(8) 0.46476(7) -0.36653(16)
O1 O 0.52792(7) 0.62283(7) 0.05473(15)
O2 O 0.73418(7) 0.56537(9) 0.15498(15)
O3 O 0.73680(8) 0.50566(8) -0.05090(16)
N1 N 0.61357(9) 0.63250(9) 0.21129(17)
H1 H 0.5845 0.6579 0.2581
H2 H 0.6548 0.6251 0.2445
C1 C 0.38947(13) 0.65836(12) 0.0105(3)
H3 H 0.4116 0.6744 0.0921
C2 C 0.32266(14) 0.67759(15) -0.0170(4)
H4 H 0.2993 0.7070 0.0458
C3 C 0.28834(15) 0.65364(16) -0.1392(4)
H5 H 0.2428 0.6678 -0.1576
C4 C 0.32137(13) 0.60969(15) -0.2311(3)
H6 H 0.2979 0.5939 -0.3114
C5 C 0.39040(11) 0.58786(12) -0.2064(2)
C6 C 0.42573(12) 0.54191(12) -0.2983(2)
H7 H 0.4023 0.5232 -0.3760
C7 C 0.49322(12) 0.52469(11) -0.2750(2)
H8 H 0.5154 0.4942 -0.3373
C8 C 0.53134(11) 0.55208(10) -0.1575(2)
C9 C 0.49626(10) 0.59429(10) -0.0656(2)
C10 C 0.42542(11) 0.61413(11) -0.0843(2)
C11 C 0.59462(11) 0.60450(10) 0.0865(2)
C12 C 0.63494(10) 0.56355(10) 0.00088(19)
C13 C 0.70451(11) 0.54655(11) 0.0447(2)
C14 C 0.80785(13) 0.48645(14) -0.0222(3)
H9 H 0.8250 0.4574 -0.0976
H10 H 0.8101 0.4613 0.0659
H11 H 0.8360 0.5278 -0.0156
C15 C 0.60834(10) 0.53778(10) -0.1420(2)
H12 H 0.6159 0.4872 -0.1476
C16 C 0.64648(10) 0.57270(11) -0.26624(19)
C17 C 0.67975(11) 0.53573(12) -0.3721(2)
C18 C 0.71351(11) 0.56654(16) -0.4857(2)
H13 H 0.7350 0.5393 -0.5548
C19 C 0.71465(12) 0.63800(15) -0.4944(2)
H14 H 0.7379 0.6598 -0.5688
C20 C 0.68128(12) 0.67737(13) -0.3926(2)
H15 H 0.6810 0.7259 -0.3993
C21 C 0.64806(11) 0.64458(12) -0.2802(2)
H16 H 0.6261 0.6719 -0.2117
loop_
_geom_bond_atom_site_label_1
_geom_bond_atom_site_label_2
_geom_bond_site_symmetry_1
_geom_bond_site_symmetry_2
F1 C17 1_555 1_555
O1 C9 1_555 1_555
O2 C13 1_555 1_555
O3 C13 1_555 1_555
N1 H1 1_555 1_555
H2 N1 1_555 1_555
C1 H3 1_555 1_555
C2 C1 1_555 1_555
H4 C2 1_555 1_555
C3 C2 1_555 1_555
H5 C3 1_555 1_555
C4 C3 1_555 1_555
H6 C4 1_555 1_555
C5 C4 1_555 1_555
C6 C5 1_555 1_555
H7 C6 1_555 1_555
C7 C6 1_555 1_555
H8 C7 1_555 1_555
C8 C7 1_555 1_555
C9 C8 1_555 1_555
C10 C1 1_555 1_555
C11 O1 1_555 1_555
C12 C11 1_555 1_555
C13 C12 1_555 1_555
C14 O3 1_555 1_555
H9 C14 1_555 1_555
H10 C14 1_555 1_555
H11 C14 1_555 1_555
C15 C8 1_555 1_555
H12 C15 1_555 1_555
C16 C15 1_555 1_555
C17 C16 1_555 1_555
C18 C17 1_555 1_555
H13 C18 1_555 1_555
C19 C18 1_555 1_555
H14 C19 1_555 1_555
C20 C19 1_555 1_555
H15 C20 1_555 1_555
C21 C16 1_555 1_555
H16 C21 1_555 1_555
N1 C11 1_555 1_555
C5 C10 1_555 1_555
C9 C10 1_555 1_555
C12 C15 1_555 1_555
C20 C21 1_555 1_555

#END
