
#######################################################################
#
#                 Cambridge Crystallographic Data Centre
#                                CCDC 
#
#######################################################################
#
# If this CIF has been generated from an entry in the Cambridge 
# Structural Database, then it will include bibliographic, chemical, 
# crystal, experimental, refinement or atomic coordinate data resulting 
# from the CCDC's data processing and validation procedures.
#
#######################################################################

data_KEQRAC
_chemical_formula_moiety         'C28 H21 N5 O1'
_chemical_name_systematic        
(3,5-dimethyl-1,7-diphenyl-1,7-dihydrodipyrazolo[3,4-b:4',3'-e]pyridin-4-yl)(phenyl)methanone
_symmetry_cell_setting           triclinic
_symmetry_space_group_name_H-M   'P -1'
_symmetry_Int_Tables_number      2
_space_group_name_Hall           '-P 1'
loop_
_symmetry_equiv_pos_site_id
_symmetry_equiv_pos_as_xyz
1 x,y,z
2 -x,-y,-z
_cell_length_a                   7.483(2)
_cell_length_b                   12.280(4)
_cell_length_c                   13.156(4)
_cell_angle_alpha                73.055(4)
_cell_angle_beta                 75.131(5)
_cell_angle_gamma                76.779(5)
_cell_volume                     1102.12
_exptl_crystal_colour            colorless
_exptl_crystal_description       block
_cell_formula_units_Z            2
loop_
_atom_site_label
_atom_site_type_symbol
_atom_site_fract_x
_atom_site_fract_y
_atom_site_fract_z
C1 C 0.1113(3) 0.74690(17) 0.39539(15)
C2 C 0.0399(4) 0.6667(2) 0.48617(19)
H1 H -0.0808 0.6517 0.4967
C3 C 0.1517(5) 0.6090(3) 0.5612(2)
H2 H 0.1049 0.5550 0.6226
C4 C 0.3283(5) 0.6298(3) 0.5469(2)
H3 H 0.4017 0.5888 0.5975
C5 C 0.3985(4) 0.7107(3) 0.4585(2)
H4 H 0.5179 0.7266 0.4501
C6 C 0.2905(3) 0.7690(2) 0.38147(17)
H5 H 0.3386 0.8230 0.3204
C7 C -0.0063(3) 0.80956(17) 0.31381(16)
C8 C 0.0870(3) 0.87603(16) 0.20444(15)
C9 C 0.1750(3) 0.82348(15) 0.12002(15)
C10 C 0.2123(3) 0.70739(16) 0.10709(16)
C11 C 0.1655(4) 0.59909(18) 0.18808(18)
H6 H 0.1934 0.5374 0.1524
H7 H 0.0346 0.6102 0.2209
H8 H 0.2385 0.5799 0.2431
C12 C 0.2530(3) 0.89059(16) 0.01781(15)
C13 C 0.1709(3) 1.05069(16) 0.07460(15)
C14 C 0.0869(3) 0.99419(16) 0.18051(15)
C15 C 0.0222(3) 1.08261(17) 0.23862(15)
C16 C -0.0736(4) 1.0719(2) 0.35544(17)
H9 H -0.0829 1.1432 0.3741
H10 H -0.0021 1.0109 0.4007
H11 H -0.1969 1.0546 0.3662
C17 C 0.4260(3) 0.83354(17) -0.15743(15)
C18 C 0.5067(3) 0.7380(2) -0.19858(18)
H12 H 0.4963 0.6642 -0.1545
C19 C 0.6021(4) 0.7519(2) -0.3045(2)
H13 H 0.6564 0.6872 -0.3314
C20 C 0.6185(3) 0.8591(2) -0.37082(19)
H14 H 0.6827 0.8675 -0.4425
C21 C 0.5394(4) 0.9547(2) -0.33075(18)
H15 H 0.5504 1.0281 -0.3756
C22 C 0.4422(3) 0.94230(19) -0.22268(17)
H16 H 0.3893 1.0070 -0.1955
C23 C 0.2113(3) 1.25990(16) -0.00741(16)
C24 C 0.2880(4) 1.25446(19) -0.11296(17)
H17 H 0.3035 1.1854 -0.1324
C25 C 0.3421(4) 1.3507(2) -0.19025(18)
H18 H 0.3922 1.3464 -0.2617
C26 C 0.3224(4) 1.4525(2) -0.16241(19)
H19 H 0.3608 1.5169 -0.2145
C27 C 0.2467(4) 1.4591(2) -0.0586(2)
H20 H 0.2324 1.5285 -0.0399
C28 C 0.1911(4) 1.36451(18) 0.01888(18)
H21 H 0.1394 1.3702 0.0898
N1 N 0.3001(3) 0.70525(14) 0.00858(14)
N2 N 0.3264(2) 0.81628(13) -0.04813(12)
N3 N 0.2543(2) 1.00470(13) -0.00935(12)
N4 N 0.1505(2) 1.16446(13) 0.07449(12)
N5 N 0.0597(2) 1.18160(15) 0.17563(13)
O1 O -0.1733(2) 0.80470(15) 0.33201(13)
loop_
_geom_bond_atom_site_label_1
_geom_bond_atom_site_label_2
_geom_bond_site_symmetry_1
_geom_bond_site_symmetry_2
C1 C2 1_555 1_555
C2 H1 1_555 1_555
C3 C2 1_555 1_555
H2 C3 1_555 1_555
C4 C3 1_555 1_555
H3 C4 1_555 1_555
C5 C4 1_555 1_555
H4 C5 1_555 1_555
C6 C1 1_555 1_555
H5 C6 1_555 1_555
C7 C1 1_555 1_555
C8 C7 1_555 1_555
C9 C8 1_555 1_555
C10 C9 1_555 1_555
C11 C10 1_555 1_555
H6 C11 1_555 1_555
H7 C11 1_555 1_555
H8 C11 1_555 1_555
C12 C9 1_555 1_555
C13 C14 1_555 1_555
C14 C8 1_555 1_555
C15 C14 1_555 1_555
C16 C15 1_555 1_555
H9 C16 1_555 1_555
H10 C16 1_555 1_555
H11 C16 1_555 1_555
C17 C18 1_555 1_555
C18 H12 1_555 1_555
C19 C18 1_555 1_555
H13 C19 1_555 1_555
C20 C19 1_555 1_555
H14 C20 1_555 1_555
C21 C20 1_555 1_555
H15 C21 1_555 1_555
C22 C17 1_555 1_555
H16 C22 1_555 1_555
C23 C24 1_555 1_555
C24 H17 1_555 1_555
C25 C24 1_555 1_555
H18 C25 1_555 1_555
C26 C25 1_555 1_555
H19 C26 1_555 1_555
C27 C26 1_555 1_555
H20 C27 1_555 1_555
C28 C23 1_555 1_555
H21 C28 1_555 1_555
N1 C10 1_555 1_555
N2 C12 1_555 1_555
N3 C12 1_555 1_555
N4 C13 1_555 1_555
N5 C15 1_555 1_555
O1 C7 1_555 1_555
C5 C6 1_555 1_555
C13 N3 1_555 1_555
C17 N2 1_555 1_555
C21 C22 1_555 1_555
C23 N4 1_555 1_555
C27 C28 1_555 1_555
N1 N2 1_555 1_555
N4 N5 1_555 1_555

#END
