
#######################################################################
#
#                 Cambridge Crystallographic Data Centre
#                                CCDC 
#
#######################################################################
#
# If this CIF has been generated from an entry in the Cambridge 
# Structural Database, then it will include bibliographic, chemical, 
# crystal, experimental, refinement or atomic coordinate data resulting 
# from the CCDC's data processing and validation procedures.
#
#######################################################################

data_KEQTUY
_chemical_formula_moiety         'C7 H13 N2 1+,H4 B5 O10 1-'
_chemical_name_systematic        
'1-ethyl-2,3-dimethyl-1H-imidazol-3-ium spiro[5.5]pentaboroxane-2,4,8,10-tetrol'
_symmetry_cell_setting           orthorhombic
_symmetry_space_group_name_H-M   'P 21 21 21'
_symmetry_Int_Tables_number      19
_space_group_name_Hall           'P 2ac 2ab'
loop_
_symmetry_equiv_pos_site_id
_symmetry_equiv_pos_as_xyz
1 x,y,z
2 1/2+x,1/2-y,-z
3 -x,1/2+y,1/2-z
4 1/2-x,-y,1/2+z
_cell_length_a                   11.366(2)
_cell_length_b                   11.650(2)
_cell_length_c                   11.659(2)
_cell_angle_alpha                90
_cell_angle_beta                 90
_cell_angle_gamma                90
_cell_volume                     1543.81
_cell_formula_units_Z            4
loop_
_atom_site_label
_atom_site_type_symbol
_atom_site_fract_x
_atom_site_fract_y
_atom_site_fract_z
B1 B -0.0635(4) 0.8827(4) 0.1874(5)
B2 B -0.0596(4) 1.0861(4) 0.1871(5)
B3 B 0.1201(4) 0.9834(4) 0.2400(4)
B4 B 0.3063(4) 0.9314(4) 0.1425(4)
B5 B 0.3008(4) 0.9330(5) 0.3464(5)
O1 O -0.1290(3) 0.7868(3) 0.1693(3)
H1 H -0.1915(3) 0.8046(3) 0.1389(3)
O2 O -0.1229(3) 1.1837(3) 0.1703(4)
H2 H -0.1860(3) 1.1677(3) 0.1401(4)
O3 O 0.3751(3) 0.9161(3) 0.0480(3)
H3 H 0.4373(3) 0.8859(3) 0.0670(3)
O4 O 0.3624(3) 0.9166(4) 0.4440(3)
H4 H 0.4261(3) 0.8873(4) 0.4286(3)
O5 O -0.1136(3) 0.9855(3) 0.1546(3)
O6 O 0.0485(2) 1.0865(2) 0.2356(2)
O7 O 0.0439(2) 0.8794(2) 0.2364(3)
O8 O 0.1984(2) 0.9792(3) 0.1386(2)
O9 O 0.3539(3) 0.8985(3) 0.2462(3)
O10 O 0.1911(2) 0.9805(3) 0.3448(2)
N1 N 0.3099(6) 0.4376(5) 0.5454(5)
N2 N 0.2132(4) 0.5880(5) 0.6010(4)
C1 C 0.3461(6) 0.3229(5) 0.5195(7)
H5 H 0.335(4) 0.2752(11) 0.5857(16)
H6 H 0.300(3) 0.2938(17) 0.457(3)
H7 H 0.4278(14) 0.3228(8) 0.499(4)
C2 C 0.1352(7) 0.3992(7) 0.6432(7)
H8 H 0.105(4) 0.347(4) 0.5866(15)
H9 H 0.1688(15) 0.356(4) 0.705(3)
H10 H 0.072(3) 0.4465(8) 0.671(5)
C3 C 0.1274(9) 0.6614(11) 0.6521(13)
H11 H 0.0519(9) 0.6360(11) 0.6228(13)
H12 H 0.1277(9) 0.6433(11) 0.7333(13)
C4 C 0.1262(11) 0.7691(9) 0.6459(15)
H13 H 0.097(9) 0.8004(9) 0.716(4)
H14 H 0.205(2) 0.7967(10) 0.633(10)
H15 H 0.076(8) 0.7925(9) 0.584(6)
C5 C 0.2215(7) 0.4683(8) 0.5939(6)
C6 C 0.3804(6) 0.5389(8) 0.5058(6)
H16 H 0.4520(6) 0.5395(8) 0.4672(6)
C7 C 0.3177(7) 0.6243(8) 0.5383(8)
H17 H 0.3367(7) 0.7005(8) 0.5236(8)
loop_
_geom_bond_atom_site_label_1
_geom_bond_atom_site_label_2
_geom_bond_site_symmetry_1
_geom_bond_site_symmetry_2
B1 O1 1_555 1_555
B2 O2 1_555 1_555
B3 O6 1_555 1_555
B4 O3 1_555 1_555
B5 O4 1_555 1_555
O1 H1 1_555 1_555
O2 H2 1_555 1_555
O3 H3 1_555 1_555
O4 H4 1_555 1_555
O5 B1 1_555 1_555
O6 B2 1_555 1_555
O7 B1 1_555 1_555
O8 B3 1_555 1_555
O9 B4 1_555 1_555
O10 B3 1_555 1_555
N1 C1 1_555 1_555
N2 C3 1_555 1_555
C1 H5 1_555 1_555
H6 C1 1_555 1_555
H7 C1 1_555 1_555
C2 H8 1_555 1_555
H9 C2 1_555 1_555
H10 C2 1_555 1_555
C3 H11 1_555 1_555
H12 C3 1_555 1_555
C4 C3 1_555 1_555
H13 C4 1_555 1_555
H14 C4 1_555 1_555
H15 C4 1_555 1_555
C5 N1 1_555 1_555
C6 N1 1_555 1_555
H16 C6 1_555 1_555
C7 N2 1_555 1_555
H17 C7 1_555 1_555
B2 O5 1_555 1_555
B3 O7 1_555 1_555
B4 O8 1_555 1_555
B5 O9 1_555 1_555
B5 O10 1_555 1_555
N2 C5 1_555 1_555
C2 C5 1_555 1_555
C6 C7 1_555 1_555

#END
