
#######################################################################
#
#                 Cambridge Crystallographic Data Centre
#                                CCDC 
#
#######################################################################
#
# If this CIF has been generated from an entry in the Cambridge 
# Structural Database, then it will include bibliographic, chemical, 
# crystal, experimental, refinement or atomic coordinate data resulting 
# from the CCDC's data processing and validation procedures.
#
#######################################################################

data_KEQVEJ
_chemical_formula_moiety         'C18 H27 N1 O3'
_chemical_name_systematic        '15-Methyl-5-oxolycopodan-11-yl acetate'
_symmetry_cell_setting           orthorhombic
_symmetry_space_group_name_H-M   'P 21 21 21'
_symmetry_Int_Tables_number      19
_space_group_name_Hall           'P 2ac 2ab'
loop_
_symmetry_equiv_pos_site_id
_symmetry_equiv_pos_as_xyz
1 x,y,z
2 1/2+x,1/2-y,-z
3 -x,1/2+y,1/2-z
4 1/2-x,-y,1/2+z
_cell_length_a                   8.43070(10)
_cell_length_b                   10.9756(2)
_cell_length_c                   17.8783(3)
_cell_angle_alpha                90
_cell_angle_beta                 90
_cell_angle_gamma                90
_cell_volume                     1654.31
_exptl_crystal_colour            colorless
_exptl_crystal_description       block
_cell_formula_units_Z            4
loop_
_atom_site_label
_atom_site_type_symbol
_atom_site_fract_x
_atom_site_fract_y
_atom_site_fract_z
O1 O 0.60775(17) 0.76700(10) 0.92364(8)
O2 O 0.48397(16) 0.38735(11) 0.84195(6)
O3 O 0.3242(3) 0.2400(2) 0.80083(13)
C1 C 0.79033(19) 0.50648(16) 1.04030(8)
H1 H 0.8143 0.4355 1.0706
H2 H 0.8867 0.5543 1.0364
C2 C 0.6651(2) 0.58250(16) 1.08088(8)
H3 H 0.6585 0.6616 1.0557
C3 C 0.59349(18) 0.65706(13) 0.92612(8)
C4 C 0.72585(17) 0.57170(13) 0.90509(8)
H4 H 0.6954 0.5356 0.8571
C5 C 0.74299(18) 0.46295(14) 0.96106(8)
C6 C 0.5837(2) 0.39606(14) 0.96998(9)
H5 H 0.6006 0.3404 1.0121
C7 C 0.5336(3) 0.31351(15) 0.90567(11)
H6 H 0.4450 0.2621 0.9218
C8 C 0.3781(3) 0.34011(19) 0.79455(12)
C9 C 0.3376(3) 0.4272(2) 0.73451(12)
H7 H 0.3547 0.3896 0.6867
H8 H 0.4035 0.4982 0.7388
H9 H 0.2282 0.4505 0.7390
C10 C 0.5020(2) 0.52423(18) 1.07773(10)
H10 H 0.4237 0.5817 1.0961
H11 H 0.5001 0.4534 1.1102
C11 C 0.45792(19) 0.48555(16) 0.99792(10)
H12 H 0.3559 0.4428 0.9998
C12 C 0.43887(18) 0.59760(17) 0.94746(10)
H13 H 0.3837 0.5735 0.9022
H14 H 0.3732 0.6570 0.9730
C13 C 0.8832(2) 0.63637(18) 0.89144(11)
H15 H 0.8696 0.6980 0.8531
H16 H 0.9173 0.6766 0.9370
C14 C 1.0086(2) 0.5452(2) 0.86684(12)
H17 H 0.9828 0.5150 0.8173
H18 H 1.1109 0.5854 0.8641
C15 C 1.0184(2) 0.4388(2) 0.92118(12)
H19 H 1.0939 0.3799 0.9019
H20 H 1.0589 0.4684 0.9686
N1 N 0.86630(19) 0.37676(14) 0.93448(8)
C16 C 0.8180(3) 0.3071(2) 0.86839(11)
H21 H 0.9037 0.2532 0.8537
H22 H 0.7983 0.3629 0.8273
C17 C 0.6716(4) 0.23319(18) 0.88260(12)
H23 H 0.6928 0.1743 0.9218
H24 H 0.6437 0.1887 0.8376
C18 C 0.7163(3) 0.6054(2) 1.16190(10)
H25 H 0.6338 0.6484 1.1878
H26 H 0.8116 0.6533 1.1623
H27 H 0.7356 0.5289 1.1863
loop_
_geom_bond_atom_site_label_1
_geom_bond_atom_site_label_2
_geom_bond_site_symmetry_1
_geom_bond_site_symmetry_2
O1 C3 1_555 1_555
O2 C7 1_555 1_555
O3 C8 1_555 1_555
C1 H1 1_555 1_555
H2 C1 1_555 1_555
C2 C1 1_555 1_555
H3 C2 1_555 1_555
C3 C4 1_555 1_555
C4 H4 1_555 1_555
C5 C1 1_555 1_555
C6 C5 1_555 1_555
H5 C6 1_555 1_555
C7 C6 1_555 1_555
H6 C7 1_555 1_555
C8 O2 1_555 1_555
C9 C8 1_555 1_555
H7 C9 1_555 1_555
H8 C9 1_555 1_555
H9 C9 1_555 1_555
C10 C2 1_555 1_555
H10 C10 1_555 1_555
H11 C10 1_555 1_555
C11 C6 1_555 1_555
H12 C11 1_555 1_555
C12 C3 1_555 1_555
H13 C12 1_555 1_555
H14 C12 1_555 1_555
C13 C4 1_555 1_555
H15 C13 1_555 1_555
H16 C13 1_555 1_555
C14 C13 1_555 1_555
H17 C14 1_555 1_555
H18 C14 1_555 1_555
C15 C14 1_555 1_555
H19 C15 1_555 1_555
H20 C15 1_555 1_555
N1 C5 1_555 1_555
C16 N1 1_555 1_555
H21 C16 1_555 1_555
H22 C16 1_555 1_555
C17 C7 1_555 1_555
H23 C17 1_555 1_555
H24 C17 1_555 1_555
C18 C2 1_555 1_555
H25 C18 1_555 1_555
H26 C18 1_555 1_555
H27 C18 1_555 1_555
C4 C5 1_555 1_555
C10 C11 1_555 1_555
C11 C12 1_555 1_555
C15 N1 1_555 1_555
C16 C17 1_555 1_555

#END
