
#######################################################################
#
#                 Cambridge Crystallographic Data Centre
#                                CCDC 
#
#######################################################################
#
# If this CIF has been generated from an entry in the Cambridge 
# Structural Database, then it will include bibliographic, chemical, 
# crystal, experimental, refinement or atomic coordinate data resulting 
# from the CCDC's data processing and validation procedures.
#
#######################################################################

data_KEQVIN01
_chemical_formula_moiety         'C17 H23 N1 O3'
_chemical_name_systematic        
3-Hydroxy-6-methyl-13-azatetracyclo[11.3.1.0^1,9^.0^4,9^]heptadec-3-ene-2,8-dione
_symmetry_cell_setting           orthorhombic
_symmetry_space_group_name_H-M   'P 21 21 21'
_symmetry_Int_Tables_number      19
_space_group_name_Hall           'P 2ac 2ab'
loop_
_symmetry_equiv_pos_site_id
_symmetry_equiv_pos_as_xyz
1 x,y,z
2 1/2-x,-y,1/2+z
3 -x,1/2+y,1/2-z
4 1/2+x,1/2-y,-z
_cell_length_a                   6.3189(9)
_cell_length_b                   13.2585(19)
_cell_length_c                   17.498(3)
_cell_angle_alpha                90
_cell_angle_beta                 90
_cell_angle_gamma                90
_cell_volume                     1465.97
_exptl_crystal_colour            colorless
_exptl_crystal_description       block
_cell_formula_units_Z            4
loop_
_atom_site_label
_atom_site_type_symbol
_atom_site_fract_x
_atom_site_fract_y
_atom_site_fract_z
N1 N 0.2155(2) 0.20766(10) 0.77117(8)
O1 O 0.1661(2) 0.52120(9) 0.70865(7)
O2 O 0.02209(19) 0.62958(8) 0.84399(7)
H1 H -0.0283 0.6398 0.8002
O3 O 0.71824(19) 0.36249(10) 0.89805(7)
C1 C 0.4066(3) 0.19755(13) 0.72381(10)
H2 H 0.3660 0.2075 0.6697
H3 H 0.4598 0.1276 0.7289
C2 C 0.5866(3) 0.26939(13) 0.74226(10)
H4 H 0.6990 0.2628 0.7032
H5 H 0.6483 0.2517 0.7925
C3 C 0.5066(3) 0.37809(12) 0.74405(10)
H6 H 0.4711 0.3992 0.6913
H7 H 0.6220 0.4224 0.7625
C4 C 0.3111(3) 0.39368(12) 0.79518(9)
C5 C 0.1998(2) 0.49215(12) 0.77376(10)
C6 C 0.1374(3) 0.54428(12) 0.84351(10)
C7 C 0.2210(3) 0.49855(12) 0.90462(10)
C8 C 0.2254(3) 0.53788(14) 0.98435(10)
H8 H 0.1395 0.4935 1.0176
H9 H 0.1622 0.6062 0.9856
C9 C 0.2201(3) 0.15879(12) 0.84664(10)
H10 H 0.2758 0.0896 0.8397
H11 H 0.0722 0.1523 0.8646
C10 C 0.3477(3) 0.20880(13) 0.91032(10)
H12 H 0.4969 0.2143 0.8936
H13 H 0.3442 0.1646 0.9559
C11 C 0.2691(3) 0.31391(12) 0.93332(9)
H14 H 0.3128 0.3263 0.9868
H15 H 0.1125 0.3131 0.9323
C12 C 0.3456(3) 0.40433(12) 0.88410(9)
C13 C 0.5763(3) 0.42289(13) 0.90939(10)
C14 C 0.6173(3) 0.51837(13) 0.95308(11)
H16 H 0.6212 0.5753 0.9165
H17 H 0.7589 0.5136 0.9770
C15 C 0.4554(3) 0.54268(15) 1.01527(10)
H18 H 0.4697 0.4908 1.0564
C16 C 0.5005(4) 0.64513(19) 1.05029(15)
H19 H 0.6393 0.6439 1.0752
H20 H 0.3912 0.6610 1.0882
H21 H 0.5001 0.6966 1.0101
C17 C 0.1432(3) 0.31225(12) 0.77324(10)
H22 H 0.0248 0.3168 0.8101
H23 H 0.0859 0.3295 0.7222
loop_
_geom_bond_atom_site_label_1
_geom_bond_atom_site_label_2
_geom_bond_site_symmetry_1
_geom_bond_site_symmetry_2
N1 C1 1_555 1_555
O1 C5 1_555 1_555
O2 H1 1_555 1_555
O3 C13 1_555 1_555
C1 H2 1_555 1_555
H3 C1 1_555 1_555
C2 C1 1_555 1_555
H4 C2 1_555 1_555
H5 C2 1_555 1_555
C3 C2 1_555 1_555
H6 C3 1_555 1_555
H7 C3 1_555 1_555
C4 C3 1_555 1_555
C5 C4 1_555 1_555
C6 O2 1_555 1_555
C7 C6 1_555 1_555
C8 C7 1_555 1_555
H8 C8 1_555 1_555
H9 C8 1_555 1_555
C9 N1 1_555 1_555
H10 C9 1_555 1_555
H11 C9 1_555 1_555
C10 C9 1_555 1_555
H12 C10 1_555 1_555
H13 C10 1_555 1_555
C11 C10 1_555 1_555
H14 C11 1_555 1_555
H15 C11 1_555 1_555
C12 C4 1_555 1_555
C13 C12 1_555 1_555
C14 C13 1_555 1_555
H16 C14 1_555 1_555
H17 C14 1_555 1_555
C15 C8 1_555 1_555
H18 C15 1_555 1_555
C16 C15 1_555 1_555
H19 C16 1_555 1_555
H20 C16 1_555 1_555
H21 C16 1_555 1_555
C17 N1 1_555 1_555
H22 C17 1_555 1_555
H23 C17 1_555 1_555
C4 C17 1_555 1_555
C5 C6 1_555 1_555
C7 C12 1_555 1_555
C11 C12 1_555 1_555
C14 C15 1_555 1_555

#END
