
#######################################################################
#
#                 Cambridge Crystallographic Data Centre
#                                CCDC 
#
#######################################################################
#
# If this CIF has been generated from an entry in the Cambridge 
# Structural Database, then it will include bibliographic, chemical, 
# crystal, experimental, refinement or atomic coordinate data resulting 
# from the CCDC's data processing and validation procedures.
#
#######################################################################

data_KEQWEJ
_chemical_formula_moiety         'C18 H17 Cl1 N2 O2'
_chemical_name_systematic        
'(E,E)-4-(Dimethylamino)benzaldehyde O-(3-(3-chlorophenyl)propenoyl)oxime'
_symmetry_cell_setting           triclinic
_symmetry_space_group_name_H-M   'P -1'
_symmetry_Int_Tables_number      2
_space_group_name_Hall           '-P 1'
loop_
_symmetry_equiv_pos_site_id
_symmetry_equiv_pos_as_xyz
1 x,y,z
2 -x,-y,-z
_cell_length_a                   8.161(3)
_cell_length_b                   9.792(3)
_cell_length_c                   11.228(4)
_cell_angle_alpha                108.706(5)
_cell_angle_beta                 104.242(5)
_cell_angle_gamma                94.628(5)
_cell_volume                     811.2
_exptl_crystal_colour            yellow
_exptl_crystal_description       columnar
_chemical_melting_point          '436-438 K'
_cell_formula_units_Z            2
_exptl_crystal_recrystallization_method ethanol
loop_
_atom_site_label
_atom_site_type_symbol
_atom_site_fract_x
_atom_site_fract_y
_atom_site_fract_z
Cl1 Cl 0.47606(11) -0.31483(8) -0.53841(8)
N1 N 0.2248(3) 0.6025(2) 0.0179(2)
N2 N 0.0979(3) 1.2383(2) 0.3388(2)
O1 O 0.2443(3) 0.45227(18) -0.00377(18)
O2 O 0.3118(4) 0.4463(2) -0.1870(2)
C1 C 0.2900(4) 0.3877(3) -0.1135(3)
C2 C 0.3081(4) 0.2377(3) -0.1265(3)
H1 H 0.2849 0.2020 -0.0638
C3 C 0.3556(4) 0.1507(3) -0.2226(3)
H2 H 0.3803 0.1919 -0.2816
C4 C 0.3750(3) -0.0024(3) -0.2499(3)
C5 C 0.4150(3) -0.0782(3) -0.3637(2)
H3 H 0.4311 -0.0305 -0.4206
C6 C 0.4310(3) -0.2230(3) -0.3930(3)
C7 C 0.4089(4) -0.2952(3) -0.3105(3)
H4 H 0.4188 -0.3935 -0.3315
C8 C 0.3718(4) -0.2211(3) -0.1962(3)
H5 H 0.3589 -0.2689 -0.1388
C9 C 0.3537(4) -0.0766(3) -0.1666(3)
H6 H 0.3270 -0.0279 -0.0898
C10 C 0.1916(4) 0.6533(3) 0.1263(3)
H7 H 0.1837 0.5927 0.1744
C11 C 0.1652(3) 0.8034(3) 0.1780(2)
C12 C 0.1688(4) 0.8991(3) 0.1108(3)
H8 H 0.1867 0.8667 0.0284
C13 C 0.1465(4) 1.0404(3) 0.1632(3)
H9 H 0.1497 1.1018 0.1152
C14 C 0.1190(3) 1.0959(3) 0.2866(3)
C15 C 0.1155(4) 0.9988(3) 0.3538(3)
H10 H 0.0981 1.0306 0.4364
C16 C 0.1375(4) 0.8571(3) 0.2998(3)
H11 H 0.1337 0.7949 0.3469
C17 C 0.1051(5) 1.3400(3) 0.2704(3)
H12 H 0.1063 1.4369 0.3280
H13 H 0.0064 1.3123 0.1949
H14 H 0.2075 1.3384 0.2427
C18 C 0.0621(4) 1.2906(3) 0.4644(3)
H15 H 0.0456 1.3905 0.4841
H16 H 0.1570 1.2845 0.5317
H17 H -0.0400 1.2313 0.4608
loop_
_geom_bond_atom_site_label_1
_geom_bond_atom_site_label_2
_geom_bond_site_symmetry_1
_geom_bond_site_symmetry_2
Cl1 C6 1_555 1_555
N1 O1 1_555 1_555
N2 C14 1_555 1_555
O1 C1 1_555 1_555
O2 C1 1_555 1_555
C1 C2 1_555 1_555
C2 H1 1_555 1_555
C3 C2 1_555 1_555
H2 C3 1_555 1_555
C4 C3 1_555 1_555
C5 C4 1_555 1_555
H3 C5 1_555 1_555
C6 C5 1_555 1_555
C7 C6 1_555 1_555
H4 C7 1_555 1_555
C8 C7 1_555 1_555
H5 C8 1_555 1_555
C9 C4 1_555 1_555
H6 C9 1_555 1_555
C10 N1 1_555 1_555
H7 C10 1_555 1_555
C11 C10 1_555 1_555
C12 C11 1_555 1_555
H8 C12 1_555 1_555
C13 C12 1_555 1_555
H9 C13 1_555 1_555
C14 C13 1_555 1_555
C15 C14 1_555 1_555
H10 C15 1_555 1_555
C16 C11 1_555 1_555
H11 C16 1_555 1_555
C17 N2 1_555 1_555
H12 C17 1_555 1_555
H13 C17 1_555 1_555
H14 C17 1_555 1_555
C18 N2 1_555 1_555
H15 C18 1_555 1_555
H16 C18 1_555 1_555
H17 C18 1_555 1_555
C8 C9 1_555 1_555
C15 C16 1_555 1_555

#END
