
#######################################################################
#
#                 Cambridge Crystallographic Data Centre
#                                CCDC 
#
#######################################################################
#
# If this CIF has been generated from an entry in the Cambridge 
# Structural Database, then it will include bibliographic, chemical, 
# crystal, experimental, refinement or atomic coordinate data resulting 
# from the CCDC's data processing and validation procedures.
#
#######################################################################

data_KEQXIO
_chemical_formula_moiety         'C5 H9 N3 O1'
_chemical_name_systematic        5-Amino-1-(2-hydroxyethyl)pyrazole
_symmetry_cell_setting           monoclinic
_symmetry_space_group_name_H-M   'P 21/n'
_symmetry_Int_Tables_number      14
_space_group_name_Hall           '-P 2yn'
loop_
_symmetry_equiv_pos_site_id
_symmetry_equiv_pos_as_xyz
1 x,y,z
2 1/2-x,1/2+y,1/2-z
3 -x,-y,-z
4 1/2+x,1/2-y,1/2+z
_cell_length_a                   8.977(2)
_cell_length_b                   5.5467(14)
_cell_length_c                   12.562(3)
_cell_angle_alpha                90
_cell_angle_beta                 97.774(4)
_cell_angle_gamma                90
_cell_volume                     619.747
_exptl_crystal_colour            colorless
_exptl_crystal_description       rod
_chemical_melting_point          '379-381 K'
_cell_formula_units_Z            4
_exptl_crystal_recrystallization_method dichloromethane
loop_
_atom_site_label
_atom_site_type_symbol
_atom_site_fract_x
_atom_site_fract_y
_atom_site_fract_z
O1 O 0.17221(12) 0.1734(2) 0.58285(9)
H1 H 0.2487(19) 0.096(4) 0.5984(15)
N1 N 0.00693(13) 0.3657(2) 0.74470(9)
N2 N 0.05615(14) 0.4198(2) 0.85014(9)
N3 N -0.15422(17) 0.0992(3) 0.63531(12)
C1 C 0.19681(17) 0.4116(3) 0.62165(12)
H2 H 0.2253 0.5138 0.5651
H3 H 0.2781 0.4129 0.6810
C2 C 0.05562(17) 0.5066(3) 0.65862(11)
H4 H 0.0726 0.6716 0.6829
H5 H -0.0240 0.5084 0.5982
C3 C -0.08801(15) 0.1754(3) 0.73550(12)
C4 C -0.10492(17) 0.1050(3) 0.83809(12)
H6 H -0.1642 -0.0199 0.8584
C5 C -0.01432(17) 0.2606(3) 0.90483(12)
H7 H -0.0040 0.2544 0.9794
H8 H -0.0928(18) 0.083(3) 0.5894(13)
H9 H -0.2097(19) -0.030(3) 0.6385(14)
loop_
_geom_bond_atom_site_label_1
_geom_bond_atom_site_label_2
_geom_bond_site_symmetry_1
_geom_bond_site_symmetry_2
O1 H1 1_555 1_555
N1 N2 1_555 1_555
N2 C5 1_555 1_555
N3 C3 1_555 1_555
C1 O1 1_555 1_555
H2 C1 1_555 1_555
H3 C1 1_555 1_555
C2 N1 1_555 1_555
H4 C2 1_555 1_555
H5 C2 1_555 1_555
C3 N1 1_555 1_555
C4 C3 1_555 1_555
H6 C4 1_555 1_555
C5 C4 1_555 1_555
H7 C5 1_555 1_555
H8 N3 1_555 1_555
H9 N3 1_555 1_555
C1 C2 1_555 1_555

#END
