
#######################################################################
#
#                 Cambridge Crystallographic Data Centre
#                                CCDC 
#
#######################################################################
#
# If this CIF has been generated from an entry in the Cambridge 
# Structural Database, then it will include bibliographic, chemical, 
# crystal, experimental, refinement or atomic coordinate data resulting 
# from the CCDC's data processing and validation procedures.
#
#######################################################################

data_KEQYEL
_chemical_formula_moiety         'C8 H10 N4 O1'
_chemical_name_systematic        
(1-(2-Hydroxyethyl)imidazolidin-2-ylidene)malononitrile
_symmetry_cell_setting           monoclinic
_symmetry_space_group_name_H-M   'P 21/c'
_symmetry_Int_Tables_number      14
_space_group_name_Hall           '-P 2ybc'
loop_
_symmetry_equiv_pos_site_id
_symmetry_equiv_pos_as_xyz
1 x,y,z
2 -x,1/2+y,1/2-z
3 -x,-y,-z
4 x,1/2-y,1/2+z
_cell_length_a                   7.549(2)
_cell_length_b                   8.462(3)
_cell_length_c                   13.788(4)
_cell_angle_alpha                90
_cell_angle_beta                 93.301(6)
_cell_angle_gamma                90
_cell_volume                     879.311
_exptl_crystal_colour            colorless
_exptl_crystal_description       Block
_chemical_melting_point          '408 K'
_cell_formula_units_Z            4
_exptl_crystal_recrystallization_method chloroform
loop_
_atom_site_label
_atom_site_type_symbol
_atom_site_fract_x
_atom_site_fract_y
_atom_site_fract_z
O1 O 0.9007(2) 0.1271(2) 0.81008(11)
H1 H 0.9801 0.1434 0.7732
N1 N 0.8072(2) 0.23511(19) 0.49038(12)
H2 H 0.8561 0.2238 0.4360
N2 N 0.6880(2) 0.16981(19) 0.62591(11)
N3 N 0.6190(3) -0.2803(3) 0.59464(17)
N4 N 0.8526(3) -0.0954(2) 0.33894(14)
C1 C 0.7449(3) 0.1160(2) 0.54180(14)
C2 C 0.7825(4) 0.3854(3) 0.53736(16)
H3 H 0.6980 0.4506 0.4999
H4 H 0.8940 0.4421 0.5464
C3 C 0.7126(4) 0.3402(3) 0.63287(16)
H5 H 0.7969 0.3670 0.6861
H6 H 0.6010 0.3931 0.6426
C4 C 0.6313(3) 0.0802(3) 0.70841(14)
H7 H 0.5534 -0.0044 0.6850
H8 H 0.5637 0.1489 0.7488
C5 C 0.7836(3) 0.0101(3) 0.76952(16)
H9 H 0.7369 -0.0515 0.8216
H10 H 0.8495 -0.0609 0.7297
C6 C 0.7408(3) -0.0414(2) 0.50744(14)
C7 C 0.6735(3) -0.1713(3) 0.55680(16)
C8 C 0.8033(3) -0.0717(2) 0.41508(16)
loop_
_geom_bond_atom_site_label_1
_geom_bond_atom_site_label_2
_geom_bond_site_symmetry_1
_geom_bond_site_symmetry_2
O1 H1 1_555 1_555
N1 H2 1_555 1_555
N2 C1 1_555 1_555
N3 C7 1_555 1_555
N4 C8 1_555 1_555
C1 N1 1_555 1_555
C2 N1 1_555 1_555
H3 C2 1_555 1_555
H4 C2 1_555 1_555
C3 N2 1_555 1_555
H5 C3 1_555 1_555
H6 C3 1_555 1_555
C4 N2 1_555 1_555
H7 C4 1_555 1_555
H8 C4 1_555 1_555
C5 O1 1_555 1_555
H9 C5 1_555 1_555
H10 C5 1_555 1_555
C6 C1 1_555 1_555
C7 C6 1_555 1_555
C8 C6 1_555 1_555
C2 C3 1_555 1_555
C4 C5 1_555 1_555

#END
