
#######################################################################
#
#                 Cambridge Crystallographic Data Centre
#                                CCDC 
#
#######################################################################
#
# If this CIF has been generated from an entry in the Cambridge 
# Structural Database, then it will include bibliographic, chemical, 
# crystal, experimental, refinement or atomic coordinate data resulting 
# from the CCDC's data processing and validation procedures.
#
#######################################################################

data_KERCAO
_chemical_formula_moiety         'C20 H17 N1 S1'
_chemical_name_systematic        1,9-dimethyl-10-phenyl-10H-phenothiazine
_symmetry_cell_setting           monoclinic
_symmetry_space_group_name_H-M   'P c'
_symmetry_Int_Tables_number      7
_space_group_name_Hall           'P -2yc'
loop_
_symmetry_equiv_pos_site_id
_symmetry_equiv_pos_as_xyz
1 x,y,z
2 x,-y,1/2+z
_cell_length_a                   25.4292(14)
_cell_length_b                   8.2272(3)
_cell_length_c                   15.4728(10)
_cell_angle_alpha                90
_cell_angle_beta                 104.795(5)
_cell_angle_gamma                90
_cell_volume                     3129.76
_exptl_crystal_colour            colorless
_exptl_crystal_description       'irregular lath'
_cell_formula_units_Z            8
loop_
_atom_site_label
_atom_site_type_symbol
_atom_site_fract_x
_atom_site_fract_y
_atom_site_fract_z
S1 S 0.43135(19) 0.4621(6) 0.4020(4)
C1 C 0.3740(7) 0.729(2) 0.4290(13)
N1 N 0.3402(6) 0.6138(18) 0.4600(12)
C2 C 0.3634(8) 0.896(2) 0.4297(14)
C3 C 0.3956(8) 1.000(2) 0.3936(15)
H1 H 0.3868 1.1122 0.3880
C4 C 0.4399(8) 0.945(2) 0.3655(16)
H2 H 0.4623 1.0190 0.3442
C5 C 0.4516(7) 0.776(2) 0.3686(14)
H3 H 0.4814 0.7348 0.3489
C6 C 0.4185(7) 0.676(2) 0.4011(14)
C7 C 0.4125(7) 0.412(2) 0.5000(15)
C8 C 0.4408(7) 0.298(2) 0.5584(15)
H4 H 0.4710 0.2440 0.5458
C9 C 0.4253(7) 0.263(2) 0.6355(15)
H5 H 0.4435 0.1798 0.6740
C10 C 0.3829(8) 0.350(2) 0.6581(16)
H6 H 0.3731 0.3265 0.7120
C11 C 0.3557(7) 0.469(2) 0.6004(15)
C12 C 0.3697(7) 0.499(2) 0.5223(15)
C13 C 0.3180(8) 0.963(2) 0.4642(16)
H7 H 0.3327 1.0388 0.5134
H8 H 0.2992 0.8740 0.4858
H9 H 0.2922 1.0208 0.4160
C14 C 0.3127(8) 0.571(2) 0.6286(15)
H10 H 0.3259 0.6826 0.6402
H11 H 0.3057 0.5247 0.6830
H12 H 0.2790 0.5704 0.5807
C15 C 0.2896(7) 0.567(2) 0.4016(13)
C16 C 0.2630(7) 0.425(2) 0.4173(14)
H13 H 0.2804 0.3574 0.4658
C17 C 0.2131(7) 0.381(2) 0.3655(16)
H14 H 0.1967 0.2827 0.3772
C18 C 0.1863(7) 0.481(2) 0.2952(15)
H15 H 0.1505 0.4567 0.2613
C19 C 0.2131(7) 0.618(2) 0.2761(15)
H16 H 0.1964 0.6835 0.2262
C20 C 0.2633(7) 0.660(2) 0.3281(17)
H17 H 0.2807 0.7544 0.3135
S2 S 0.5859(2) 0.2347(6) 0.5281(4)
N2 N 0.6143(6) 0.3237(15) 0.3614(12)
C21 C 0.6514(7) 0.2096(18) 0.4171(14)
C22 C 0.6975(7) 0.155(2) 0.3860(16)
C23 C 0.7311(7) 0.041(2) 0.4410(15)
H18 H 0.7625 0.0026 0.4248
C24 C 0.7196(7) -0.017(2) 0.5185(16)
H19 H 0.7421 -0.0983 0.5525
C25 C 0.6763(8) 0.042(2) 0.5468(14)
H20 H 0.6697 0.0070 0.6015
C26 C 0.6424(7) 0.156(2) 0.4931(14)
C27 C 0.5878(7) 0.435(2) 0.4882(14)
C28 C 0.5753(7) 0.564(2) 0.5379(15)
H21 H 0.5658 0.5449 0.5926
C29 C 0.5772(7) 0.722(2) 0.5046(15)
H22 H 0.5672 0.8117 0.5354
C30 C 0.5938(7) 0.747(2) 0.4265(14)
H23 H 0.5957 0.8549 0.4056
C31 C 0.6077(7) 0.619(2) 0.3784(15)
C32 C 0.6024(7) 0.463(2) 0.4090(14)
C33 C 0.7108(8) 0.222(2) 0.3050(14)
H24 H 0.7263 0.3310 0.3178
H25 H 0.6776 0.2278 0.2561
H26 H 0.7373 0.1508 0.2876
C34 C 0.6256(8) 0.649(2) 0.2953(14)
H27 H 0.6498 0.5610 0.2868
H28 H 0.6450 0.7527 0.3005
H29 H 0.5937 0.6527 0.2439
C35 C 0.5722(7) 0.263(2) 0.2907(14)
C36 C 0.5253(7) 0.353(2) 0.2554(16)
H30 H 0.5211 0.4568 0.2798
C37 C 0.4848(7) 0.293(2) 0.1849(15)
H31 H 0.4535 0.3582 0.1611
C38 C 0.4884(8) 0.145(2) 0.1489(15)
H32 H 0.4603 0.1058 0.1004
C39 C 0.5340(7) 0.052(2) 0.1846(14)
H33 H 0.5367 -0.0543 0.1615
C40 C 0.5749(7) 0.109(2) 0.2522(14)
H34 H 0.6063 0.0439 0.2741
S3 S 0.03103(19) 1.0333(6) 0.5765(4)
N3 N 0.1229(6) 0.8831(18) 0.5231(13)
C41 C 0.0904(6) 0.770(2) 0.5543(14)
C42 C 0.1014(7) 0.599(2) 0.5541(17)
C43 C 0.0679(7) 0.496(2) 0.5870(16)
H35 H 0.0759 0.3835 0.5904
C44 C 0.0240(8) 0.549(2) 0.6147(15)
H36 H 0.0021 0.4741 0.6365
C45 C 0.0113(8) 0.716(2) 0.6110(15)
H37 H -0.0196 0.7553 0.6281
C46 C 0.0457(7) 0.821(2) 0.5813(16)
C47 C 0.0493(7) 1.079(2) 0.4767(15)
C48 C 0.0219(8) 1.195(2) 0.4179(17)
H38 H -0.0086 1.2485 0.4299
C49 C 0.0379(8) 1.235(2) 0.3419(15)
H39 H 0.0203 1.3194 0.3037
C50 C 0.0798(7) 1.149(2) 0.3223(17)
H40 H 0.0901 1.1738 0.2688
C51 C 0.1078(7) 1.028(2) 0.3790(16)
C52 C 0.0938(7) 0.997(2) 0.4597(15)
C53 C 0.1469(8) 0.533(2) 0.5185(17)
H41 H 0.1433 0.4148 0.5123
H42 H 0.1819 0.5597 0.5600
H43 H 0.1452 0.5816 0.4600
C54 C 0.1516(7) 0.933(2) 0.3536(14)
H44 H 0.1869 0.9618 0.3936
H45 H 0.1518 0.9589 0.2918
H46 H 0.1450 0.8166 0.3586
C55 C 0.1740(7) 0.936(2) 0.5810(15)
C56 C 0.1991(7) 1.075(2) 0.5627(14)
H47 H 0.1812 1.1438 0.5146
C57 C 0.2506(8) 1.116(2) 0.6149(16)
H48 H 0.2680 1.2116 0.6017
C58 C 0.2769(7) 1.017(2) 0.6870(14)
H49 H 0.3122 1.0436 0.7223
C59 C 0.2502(7) 0.882(2) 0.7049(15)
H50 H 0.2668 0.8160 0.7547
C60 C 0.1994(7) 0.840(2) 0.6517(15)
H51 H 0.1820 0.7440 0.6644
S4 S 0.84893(19) 0.4259(5) 0.4749(4)
N4 N 0.8505(6) 0.2256(17) 0.6356(14)
C61 C 0.8057(6) 0.335(2) 0.6119(13)
C62 C 0.7661(7) 0.338(2) 0.6597(16)
C63 C 0.7244(7) 0.451(2) 0.6365(15)
H52 H 0.6981 0.4573 0.6704
C64 C 0.7203(7) 0.555(2) 0.5655(14)
H53 H 0.6915 0.6315 0.5511
C65 C 0.7582(7) 0.548(2) 0.5145(14)
H54 H 0.7549 0.6167 0.4642
C66 C 0.8005(6) 0.438(2) 0.5385(14)
C67 C 0.8630(7) 0.211(2) 0.4848(16)
C68 C 0.8733(7) 0.131(2) 0.4114(14)
H55 H 0.8731 0.1883 0.3581
C69 C 0.8837(8) -0.034(3) 0.4181(17)
H56 H 0.8931 -0.0918 0.3710
C70 C 0.8799(7) -0.115(2) 0.4959(15)
H57 H 0.8857 -0.2293 0.4997
C71 C 0.8679(7) -0.034(2) 0.5690(17)
C72 C 0.8605(6) 0.133(2) 0.5624(16)
C73 C 0.7687(7) 0.223(2) 0.7368(16)
H58 H 0.7915 0.1299 0.7316
H59 H 0.7319 0.1860 0.7356
H60 H 0.7843 0.2802 0.7932
C74 C 0.8645(8) -0.128(2) 0.6501(17)
H61 H 0.8545 -0.2405 0.6335
H62 H 0.8369 -0.0783 0.6760
H63 H 0.8998 -0.1250 0.6941
C75 C 0.8951(7) 0.271(2) 0.7049(14)
C76 C 0.9452(8) 0.194(2) 0.7176(17)
H64 H 0.9495 0.1124 0.6764
C77 C 0.9892(7) 0.233(2) 0.7888(17)
H65 H 1.0226 0.1761 0.7963
C78 C 0.9845(8) 0.352(2) 0.8483(15)
H66 H 1.0142 0.3784 0.8975
C79 C 0.9360(7) 0.434(2) 0.8353(15)
H67 H 0.9323 0.5182 0.8753
C80 C 0.8924(7) 0.394(2) 0.7645(16)
H68 H 0.8594 0.4533 0.7565
loop_
_geom_bond_atom_site_label_1
_geom_bond_atom_site_label_2
_geom_bond_site_symmetry_1
_geom_bond_site_symmetry_2
S1 C6 1_555 1_555
C1 N1 1_555 1_555
N1 C12 1_555 1_555
C2 C1 1_555 1_555
C3 C2 1_555 1_555
H1 C3 1_555 1_555
C4 C3 1_555 1_555
H2 C4 1_555 1_555
C5 C4 1_555 1_555
H3 C5 1_555 1_555
C6 C1 1_555 1_555
C7 S1 1_555 1_555
C8 C7 1_555 1_555
H4 C8 1_555 1_555
C9 C8 1_555 1_555
H5 C9 1_555 1_555
C10 C9 1_555 1_555
H6 C10 1_555 1_555
C11 C10 1_555 1_555
C12 C7 1_555 1_555
C13 C2 1_555 1_555
H7 C13 1_555 1_555
H8 C13 1_555 1_555
H9 C13 1_555 1_555
C14 C11 1_555 1_555
H10 C14 1_555 1_555
H11 C14 1_555 1_555
H12 C14 1_555 1_555
C15 N1 1_555 1_555
C16 C15 1_555 1_555
H13 C16 1_555 1_555
C17 C16 1_555 1_555
H14 C17 1_555 1_555
C18 C17 1_555 1_555
H15 C18 1_555 1_555
C19 C18 1_555 1_555
H16 C19 1_555 1_555
C20 C15 1_555 1_555
H17 C20 1_555 1_555
S2 C26 1_555 1_555
N2 C21 1_555 1_555
C21 C22 1_555 1_555
C22 C23 1_555 1_555
C23 H18 1_555 1_555
C24 C23 1_555 1_555
H19 C24 1_555 1_555
C25 C24 1_555 1_555
H20 C25 1_555 1_555
C26 C21 1_555 1_555
C27 S2 1_555 1_555
C28 C27 1_555 1_555
H21 C28 1_555 1_555
C29 C28 1_555 1_555
H22 C29 1_555 1_555
C30 C29 1_555 1_555
H23 C30 1_555 1_555
C31 C30 1_555 1_555
C32 N2 1_555 1_555
C33 C22 1_555 1_555
H24 C33 1_555 1_555
H25 C33 1_555 1_555
H26 C33 1_555 1_555
C34 C31 1_555 1_555
H27 C34 1_555 1_555
H28 C34 1_555 1_555
H29 C34 1_555 1_555
C35 N2 1_555 1_555
C36 C35 1_555 1_555
H30 C36 1_555 1_555
C37 C36 1_555 1_555
H31 C37 1_555 1_555
C38 C37 1_555 1_555
H32 C38 1_555 1_555
C39 C38 1_555 1_555
H33 C39 1_555 1_555
C40 C35 1_555 1_555
H34 C40 1_555 1_555
S3 C46 1_555 1_555
N3 C41 1_555 1_555
C41 C42 1_555 1_555
C42 C43 1_555 1_555
C43 H35 1_555 1_555
C44 C43 1_555 1_555
H36 C44 1_555 1_555
C45 C44 1_555 1_555
H37 C45 1_555 1_555
C46 C41 1_555 1_555
C47 S3 1_555 1_555
C48 C47 1_555 1_555
H38 C48 1_555 1_555
C49 C48 1_555 1_555
H39 C49 1_555 1_555
C50 C49 1_555 1_555
H40 C50 1_555 1_555
C51 C50 1_555 1_555
C52 N3 1_555 1_555
C53 C42 1_555 1_555
H41 C53 1_555 1_555
H42 C53 1_555 1_555
H43 C53 1_555 1_555
C54 C51 1_555 1_555
H44 C54 1_555 1_555
H45 C54 1_555 1_555
H46 C54 1_555 1_555
C55 N3 1_555 1_555
C56 C55 1_555 1_555
H47 C56 1_555 1_555
C57 C56 1_555 1_555
H48 C57 1_555 1_555
C58 C57 1_555 1_555
H49 C58 1_555 1_555
C59 C58 1_555 1_555
H50 C59 1_555 1_555
C60 C55 1_555 1_555
H51 C60 1_555 1_555
S4 C66 1_555 1_555
N4 C61 1_555 1_555
C61 C62 1_555 1_555
C62 C63 1_555 1_555
C63 H52 1_555 1_555
C64 C63 1_555 1_555
H53 C64 1_555 1_555
C65 C64 1_555 1_555
H54 C65 1_555 1_555
C66 C61 1_555 1_555
C67 S4 1_555 1_555
C68 C67 1_555 1_555
H55 C68 1_555 1_555
C69 C68 1_555 1_555
H56 C69 1_555 1_555
C70 C69 1_555 1_555
H57 C70 1_555 1_555
C71 C70 1_555 1_555
C72 N4 1_555 1_555
C73 C62 1_555 1_555
H58 C73 1_555 1_555
H59 C73 1_555 1_555
H60 C73 1_555 1_555
C74 C71 1_555 1_555
H61 C74 1_555 1_555
H62 C74 1_555 1_555
H63 C74 1_555 1_555
C75 N4 1_555 1_555
C76 C75 1_555 1_555
H64 C76 1_555 1_555
C77 C76 1_555 1_555
H65 C77 1_555 1_555
C78 C77 1_555 1_555
H66 C78 1_555 1_555
C79 C78 1_555 1_555
H67 C79 1_555 1_555
C80 C75 1_555 1_555
H68 C80 1_555 1_555
C5 C6 1_555 1_555
C11 C12 1_555 1_555
C19 C20 1_555 1_555
C25 C26 1_555 1_555
C27 C32 1_555 1_555
C31 C32 1_555 1_555
C39 C40 1_555 1_555
C45 C46 1_555 1_555
C47 C52 1_555 1_555
C51 C52 1_555 1_555
C59 C60 1_555 1_555
C65 C66 1_555 1_555
C67 C72 1_555 1_555
C71 C72 1_555 1_555
C79 C80 1_555 1_555

#END
