
#######################################################################
#
#                 Cambridge Crystallographic Data Centre
#                                CCDC 
#
#######################################################################
#
# If this CIF has been generated from an entry in the Cambridge 
# Structural Database, then it will include bibliographic, chemical, 
# crystal, experimental, refinement or atomic coordinate data resulting 
# from the CCDC's data processing and validation procedures.
#
#######################################################################

data_KERDOB
_chemical_formula_moiety         'C13 H15 N1 O3 S1'
_chemical_name_systematic        N-Allyl-N-(p-tolylsulfonyl)acrylamide
_symmetry_cell_setting           monoclinic
_symmetry_space_group_name_H-M   'P 21/c'
_symmetry_Int_Tables_number      14
_space_group_name_Hall           '-P 2ybc'
loop_
_symmetry_equiv_pos_site_id
_symmetry_equiv_pos_as_xyz
1 x,y,z
2 -x,1/2+y,1/2-z
3 -x,-y,-z
4 x,1/2-y,1/2+z
_cell_length_a                   19.7925(15)
_cell_length_b                   5.3686(4)
_cell_length_c                   14.5981(11)
_cell_angle_alpha                90
_cell_angle_beta                 108.9370(10)
_cell_angle_gamma                90
_cell_volume                     1467.21
_exptl_crystal_colour            colorless
_exptl_crystal_description       Block
_cell_formula_units_Z            4
_exptl_crystal_recrystallization_method dichloromethane
loop_
_atom_site_label
_atom_site_type_symbol
_atom_site_fract_x
_atom_site_fract_y
_atom_site_fract_z
C1 C 0.33600(14) 1.0015(5) 0.23041(19)
C2 C 0.33661(17) 1.1138(7) 0.1449(2)
H1 H 0.3090 1.2548 0.1220
C3 C 0.37850(17) 1.0153(6) 0.0935(2)
H2 H 0.3789 1.0904 0.0363
C4 C 0.41980(15) 0.8046(6) 0.1277(2)
C5 C 0.41919(17) 0.6924(5) 0.2133(2)
H3 H 0.4468 0.5514 0.2361
C6 C 0.37730(14) 0.7908(6) 0.2646(2)
H4 H 0.3769 0.7157 0.3218
C7 C 0.47061(15) 0.7100(7) 0.0767(2)
H5 H 0.5086 0.6179 0.1217
H6 H 0.4902 0.8488 0.0523
H7 H 0.4451 0.6037 0.0240
C8 C 0.23368(15) 0.7912(6) 0.3943(2)
H8 H 0.2134 0.6273 0.3754
H9 H 0.2841 0.7678 0.4293
C9 C 0.19966(14) 0.8975(5) 0.46420(19)
H10 H 0.2064 0.8282 0.5249
C10 C 0.15785(16) 1.1049(6) 0.4316(2)
H11 H 0.1524 1.1689 0.3704
H12 H 0.1351 1.1811 0.4708
C11 C 0.17085(13) 0.8684(5) 0.21307(18)
C12 C 0.11192(13) 0.7174(5) 0.20909(19)
H13 H 0.1149 0.5976 0.2563
C13 C 0.05003(15) 0.7521(6) 0.1337(2)
H14 H 0.0479 0.8727 0.0871
H15 H 0.0101 0.6552 0.1291
N1 N 0.22783(12) 0.9349(5) 0.30187(17)
O1 O 0.33785(11) 1.1397(4) 0.39964(15)
O2 O 0.25256(12) 1.3455(5) 0.25231(16)
O3 O 0.17328(9) 0.9622(4) 0.13909(14)
S1 S 0.28928(4) 1.12984(14) 0.30086(5)
loop_
_geom_bond_atom_site_label_1
_geom_bond_atom_site_label_2
_geom_bond_site_symmetry_1
_geom_bond_site_symmetry_2
C1 C2 1_555 1_555
C2 H1 1_555 1_555
C3 C2 1_555 1_555
H2 C3 1_555 1_555
C4 C3 1_555 1_555
C5 C4 1_555 1_555
H3 C5 1_555 1_555
C6 C1 1_555 1_555
H4 C6 1_555 1_555
C7 C4 1_555 1_555
H5 C7 1_555 1_555
H6 C7 1_555 1_555
H7 C7 1_555 1_555
C8 H8 1_555 1_555
H9 C8 1_555 1_555
C9 C8 1_555 1_555
H10 C9 1_555 1_555
C10 C9 1_555 1_555
H11 C10 1_555 1_555
H12 C10 1_555 1_555
C11 C12 1_555 1_555
C12 H13 1_555 1_555
C13 C12 1_555 1_555
H14 C13 1_555 1_555
H15 C13 1_555 1_555
N1 C8 1_555 1_555
O1 S1 1_555 1_555
O2 S1 1_555 1_555
O3 C11 1_555 1_555
S1 C1 1_555 1_555
C5 C6 1_555 1_555
C11 N1 1_555 1_555
N1 S1 1_555 1_555

#END
