
#######################################################################
#
#                 Cambridge Crystallographic Data Centre
#                                CCDC 
#
#######################################################################
#
# If this CIF has been generated from an entry in the Cambridge 
# Structural Database, then it will include bibliographic, chemical, 
# crystal, experimental, refinement or atomic coordinate data resulting 
# from the CCDC's data processing and validation procedures.
#
#######################################################################

data_KERGUJ
_chemical_formula_moiety         'C18 H20 O2'
_chemical_name_systematic        
r-1,t-2-bis(Hydroxymethyl)-t-3,c-4-diphenylcyclobutane
_symmetry_cell_setting           monoclinic
_symmetry_space_group_name_H-M   'P 1 1 21/b'
_symmetry_Int_Tables_number      14
_space_group_name_Hall           '-P 2bc'
loop_
_symmetry_equiv_pos_site_id
_symmetry_equiv_pos_as_xyz
1 x,y,z
2 -x,1/2-y,1/2+z
3 -x,-y,-z
4 x,1/2+y,1/2-z
_cell_length_a                   6.392(1)
_cell_length_b                   14.721(3)
_cell_length_c                   15.783(3)
_cell_angle_alpha                90
_cell_angle_beta                 90
_cell_angle_gamma                89.13(5)
_cell_volume                     1484.96
_cell_formula_units_Z            4
loop_
_atom_site_label
_atom_site_type_symbol
_atom_site_fract_x
_atom_site_fract_y
_atom_site_fract_z
C1 C 0.737(1) 0.2372(3) 0.5445(3)
C2 C 0.788(1) 0.2344(3) 0.4492(3)
C3 C 0.779(1) 0.3396(3) 0.4474(3)
C4 C 0.795(1) 0.3393(3) 0.5450(3)
C5 C 0.856(1) 0.1755(3) 0.6058(3)
C6 C 0.786(1) 0.1705(4) 0.6888(3)
C7 C 0.890(1) 0.1166(4) 0.7480(4)
C8 C 1.065(1) 0.0674(4) 0.7247(4)
C9 C 1.128(1) 0.0698(5) 0.6427(5)
C10 C 1.028(1) 0.1236(4) 0.5818(4)
C11 C 0.655(1) 0.1822(3) 0.3893(3)
C12 C 0.492(1) 0.1305(4) 0.4163(4)
C13 C 0.367(1) 0.0829(4) 0.3582(5)
C14 C 0.410(1) 0.0865(4) 0.2726(4)
C15 C 0.577(1) 0.1360(4) 0.2456(4)
C16 C 0.698(1) 0.1830(4) 0.3037(4)
C17 C 0.572(1) 0.3767(3) 0.4129(3)
C18 C 1.006(1) 0.3595(3) 0.5785(4)
O1 O 0.5632(9) 0.4731(2) 0.4208(2)
O2 O 1.048(1) 0.4537(3) 0.5738(3)
H1 H 0.6046 0.2165 0.5634
H2 H 0.9083 0.2017 0.4299
H3 H 0.8729 0.3741 0.4145
H4 H 0.7181 0.3818 0.5786
H5 H 0.6645 0.2042 0.7056
H6 H 0.8405 0.1140 0.8045
H7 H 1.1399 0.0322 0.7651
H8 H 1.2449 0.0334 0.6260
H9 H 1.0778 0.1245 0.5250
H10 H 0.4635 0.1266 0.4752
H11 H 0.2530 0.0483 0.3779
H12 H 0.3257 0.0549 0.2330
H13 H 0.6094 0.1382 0.1869
H14 H 0.8130 0.2166 0.2838
H15 H 0.4598 0.3514 0.4439
H16 H 0.5598 0.3602 0.3548
H17 H 1.1081 0.3267 0.5462
H18 H 1.0141 0.3411 0.6360
H19 H 0.5750 0.4898 0.4788
H20 H 1.0415 0.4725 0.5163
loop_
_geom_bond_atom_site_label_1
_geom_bond_atom_site_label_2
_geom_bond_site_symmetry_1
_geom_bond_site_symmetry_2
C1 C2 1_555 1_555
C2 C3 1_555 1_555
C3 C4 1_555 1_555
C4 C1 1_555 1_555
C5 C1 1_555 1_555
C6 C5 1_555 1_555
C7 C6 1_555 1_555
C8 C7 1_555 1_555
C9 C8 1_555 1_555
C10 C5 1_555 1_555
C11 C2 1_555 1_555
C12 C11 1_555 1_555
C13 C12 1_555 1_555
C14 C13 1_555 1_555
C15 C14 1_555 1_555
C16 C11 1_555 1_555
C17 C3 1_555 1_555
C18 C4 1_555 1_555
O1 C17 1_555 1_555
O2 C18 1_555 1_555
H1 C1 1_555 1_555
H2 C2 1_555 1_555
H3 C3 1_555 1_555
H4 C4 1_555 1_555
H5 C6 1_555 1_555
H6 C7 1_555 1_555
H7 C8 1_555 1_555
H8 C9 1_555 1_555
H9 C10 1_555 1_555
H10 C12 1_555 1_555
H11 C13 1_555 1_555
H12 C14 1_555 1_555
H13 C15 1_555 1_555
H14 C16 1_555 1_555
H15 C17 1_555 1_555
H16 C17 1_555 1_555
H17 C18 1_555 1_555
H18 C18 1_555 1_555
H19 O1 1_555 1_555
H20 O2 1_555 1_555
C9 C10 1_555 1_555
C15 C16 1_555 1_555

#END
