
#######################################################################
#
#                 Cambridge Crystallographic Data Centre
#                                CCDC 
#
#######################################################################
#
# If this CIF has been generated from an entry in the Cambridge 
# Structural Database, then it will include bibliographic, chemical, 
# crystal, experimental, refinement or atomic coordinate data resulting 
# from the CCDC's data processing and validation procedures.
#
#######################################################################

data_KERGOD
_chemical_formula_moiety         'C16 H16'
_chemical_name_systematic        cis-1,2-Diphenylcyclobutane
_symmetry_cell_setting           monoclinic
_symmetry_space_group_name_H-M   'P 21/c'
_symmetry_Int_Tables_number      14
_space_group_name_Hall           '-P 2ybc'
loop_
_symmetry_equiv_pos_site_id
_symmetry_equiv_pos_as_xyz
1 x,y,z
2 -x,1/2+y,1/2-z
3 -x,-y,-z
4 x,1/2-y,1/2+z
_cell_length_a                   7.013(12)
_cell_length_b                   12.193(3)
_cell_length_c                   14.302(6)
_cell_angle_alpha                90
_cell_angle_beta                 88.56(9)
_cell_angle_gamma                90
_cell_volume                     1222.57
_cell_formula_units_Z            4
loop_
_atom_site_label
_atom_site_type_symbol
_atom_site_fract_x
_atom_site_fract_y
_atom_site_fract_z
C1 C 0.3663(8) -0.0064(5) 0.1706(4)
C2 C 0.2070(9) -0.0943(5) 0.1806(4)
C3 C 0.079(1) -0.0227(6) 0.1228(5)
C4 C 0.256(1) 0.0369(6) 0.0870(5)
C5 C 0.3815(8) 0.0697(5) 0.2524(4)
C6 C 0.5002(9) 0.0404(5) 0.3262(4)
C7 C 0.517(1) 0.1051(6) 0.4019(5)
C8 C 0.418(1) 0.2021(6) 0.4088(5)
C9 C 0.3000(9) 0.2297(5) 0.3397(5)
C10 C 0.2807(9) 0.1655(5) 0.2610(4)
C11 C 0.1517(8) -0.1338(5) 0.2781(4)
C12 C 0.2354(9) -0.2248(5) 0.3135(4)
C13 C 0.188(1) -0.2599(6) 0.4025(6)
C14 C 0.058(1) -0.2063(6) 0.4587(5)
C15 C -0.025(1) -0.1172(6) 0.4202(5)
C16 C 0.0145(9) -0.0788(5) 0.3341(4)
H1 H 0.4978 -0.0241 0.1654
H2 H 0.2244 -0.1682 0.1617
H3 H 0.0110 -0.0607 0.0760
H4 H -0.0074 0.0214 0.1383
H5 H 0.2444 0.1145 0.0854
H6 H 0.3036 0.0118 0.0281
H7 H 0.5697 -0.0261 0.3226
H8 H 0.5986 0.0836 0.4508
H9 H 0.4320 0.2486 0.4612
H10 H 0.2280 0.2952 0.3451
H11 H 0.1977 0.1876 0.2130
H12 H 0.3268 -0.2640 0.2768
H13 H 0.2466 -0.3240 0.4258
H14 H 0.0283 -0.2299 0.5207
H15 H -0.1172 -0.0791 0.4571
H16 H -0.0488 -0.0158 0.3111
loop_
_geom_bond_atom_site_label_1
_geom_bond_atom_site_label_2
_geom_bond_site_symmetry_1
_geom_bond_site_symmetry_2
C1 C2 1_555 1_555
C2 C3 1_555 1_555
C3 C4 1_555 1_555
C4 C1 1_555 1_555
C5 C1 1_555 1_555
C6 C5 1_555 1_555
C7 C6 1_555 1_555
C8 C7 1_555 1_555
C9 C8 1_555 1_555
C10 C5 1_555 1_555
C11 C2 1_555 1_555
C12 C11 1_555 1_555
C13 C12 1_555 1_555
C14 C13 1_555 1_555
C15 C14 1_555 1_555
C16 C11 1_555 1_555
H1 C1 1_555 1_555
H2 C2 1_555 1_555
H3 C3 1_555 1_555
H4 C3 1_555 1_555
H5 C4 1_555 1_555
H6 C4 1_555 1_555
H7 C6 1_555 1_555
H8 C7 1_555 1_555
H9 C8 1_555 1_555
H10 C9 1_555 1_555
H11 C10 1_555 1_555
H12 C12 1_555 1_555
H13 C13 1_555 1_555
H14 C14 1_555 1_555
H15 C15 1_555 1_555
H16 C16 1_555 1_555
C9 C10 1_555 1_555
C15 C16 1_555 1_555

#END
