
#######################################################################
#
#                 Cambridge Crystallographic Data Centre
#                                CCDC 
#
#######################################################################
#
# If this CIF has been generated from an entry in the Cambridge 
# Structural Database, then it will include bibliographic, chemical, 
# crystal, experimental, refinement or atomic coordinate data resulting 
# from the CCDC's data processing and validation procedures.
#
#######################################################################

data_KERGOG
_chemical_compound_source        'dried aerial parts of Artemisia sieversiana'
_chemical_name_common            'sieverlactone methanol solvate'
_chemical_formula_moiety         'C33 H42 O11,C1 H4 O1'
_chemical_name_systematic        
"7',8a'-dihydroxy-3',4,14',14'-tetramethyl-5,11'-dioxo-2',2a',3',4',7',8',8a',12',12a',14',14a',15',16',16a'-tetradecahydro-1a'H,5H,9'H,11'H-spiro[furan-2,5'-furo[3''',2''':2'',3'']furo[3'',4'':4',5']cyclohepta[1',2':4,5]oxireno[3,3a]indeno[7a,1-b]pyran]-16'-yl 2-methylbut-2-enoate methanol solvate"
_symmetry_cell_setting           orthorhombic
_symmetry_space_group_name_H-M   'P 21 21 21'
_symmetry_Int_Tables_number      19
_space_group_name_Hall           'P 2ac 2ab'
loop_
_symmetry_equiv_pos_site_id
_symmetry_equiv_pos_as_xyz
1 x,y,z
2 1/2-x,-y,1/2+z
3 -x,1/2+y,1/2-z
4 1/2+x,1/2-y,-z
_cell_length_a                   12.58395(17)
_cell_length_b                   14.88894(16)
_cell_length_c                   16.86035(18)
_cell_angle_alpha                90
_cell_angle_beta                 90
_cell_angle_gamma                90
_cell_volume                     3158.98
_exptl_crystal_colour            colorless
_exptl_crystal_description       needle
_cell_formula_units_Z            4
loop_
_atom_site_label
_atom_site_type_symbol
_atom_site_fract_x
_atom_site_fract_y
_atom_site_fract_z
O1 O 0.65663(16) 0.20927(11) 0.55244(10)
O2 O 0.87962(16) 0.53616(14) 0.77628(10)
O3 O 0.26142(12) 0.47309(10) 0.58777(8)
O4 O 0.63242(12) 0.33488(9) 0.62377(8)
O5 O 0.86662(13) 0.58038(10) 0.53512(9)
O6 O 0.55408(12) 0.46435(10) 0.73351(8)
H1 H 0.6004 0.4253 0.7237
O7 O 0.76347(13) 0.49791(10) 0.68182(9)
O8 O 0.13731(13) 0.58270(10) 0.62547(8)
O9 O 0.41975(13) 0.30897(10) 0.69359(9)
O10 O 0.35424(13) 0.47459(11) 0.79592(8)
H2 H 0.4164 0.4541 0.7955
O11 O 0.08246(13) 0.72201(10) 0.60045(10)
C1 C 0.67406(18) 0.25212(14) 0.61154(13)
C2 C 0.10596(17) 0.64868(15) 0.57578(13)
C3 C 0.39303(18) 0.37895(14) 0.63709(12)
C4 C 0.63853(17) 0.42566(14) 0.50290(12)
H3 H 0.6629 0.3838 0.4611
H4 H 0.5953 0.4728 0.4770
C5 C 0.42230(18) 0.56255(14) 0.68412(13)
H5 H 0.4458 0.6078 0.7234
H6 H 0.3970 0.5953 0.6366
C6 C 0.56768(17) 0.37390(14) 0.56130(12)
H7 H 0.5318 0.3241 0.5319
C7 C 0.51893(18) 0.50479(14) 0.66037(12)
C8 C 0.24057(19) 0.27887(14) 0.64232(13)
H8 H 0.2252 0.2232 0.6723
H9 H 0.1977 0.2791 0.5931
C9 C 0.10695(18) 0.61502(15) 0.49333(13)
C10 C 0.15522(17) 0.49985(14) 0.57941(12)
C11 C 0.21694(18) 0.36353(14) 0.69350(12)
H10 H 0.2356 0.3493 0.7498
C12 C 0.79115(19) 0.61578(14) 0.58963(13)
H11 H 0.7515 0.6680 0.5669
C13 C 0.48231(17) 0.43238(14) 0.59998(12)
H12 H 0.4488 0.4665 0.5554
C14 C 0.13755(18) 0.52985(14) 0.49531(13)
H13 H 0.1470 0.4929 0.4499
C15 C 0.35743(19) 0.28628(15) 0.62386(13)
H14 H 0.3894 0.2495 0.5804
C16 C 0.74195(19) 0.22598(14) 0.68012(13)
C17 C 0.80543(18) 0.52322(15) 0.48132(12)
C18 C 0.73539(18) 0.46955(14) 0.54064(12)
H15 H 0.7806 0.4200 0.5621
C19 C 0.82069(19) 0.16657(15) 0.67267(14)
H16 H 0.8599 0.1554 0.7198
C20 C 0.71642(18) 0.53631(14) 0.60954(12)
C21 C 0.07545(18) 0.43091(15) 0.60834(13)
H17 H 0.0747 0.3793 0.5714
H18 H 0.0036 0.4580 0.6084
C22 C 0.29628(18) 0.43319(14) 0.66296(12)
C23 C 0.83458(19) 0.55461(16) 0.71580(13)
C24 C 0.60389(18) 0.56902(14) 0.62699(12)
H19 H 0.5753 0.5941 0.5770
H20 H 0.6101 0.6197 0.6647
C25 C 0.10199(18) 0.39759(15) 0.69178(13)
H21 H 0.0967 0.4498 0.7289
C26 C 0.32883(18) 0.50979(14) 0.71936(12)
H22 H 0.2671 0.5516 0.7251
C27 C 0.7206(2) 0.27294(16) 0.75772(13)
H23 H 0.7452 0.3353 0.7544
H24 H 0.7587 0.2420 0.8005
H25 H 0.6442 0.2720 0.7688
C28 C 0.8441(2) 0.63924(16) 0.66738(13)
H26 H 0.9195 0.6556 0.6591
H27 H 0.8072 0.6899 0.6937
C29 C 0.88257(18) 0.46362(16) 0.43672(14)
H28 H 0.9302 0.5010 0.4046
H29 H 0.8429 0.4228 0.4020
H30 H 0.9245 0.4286 0.4746
C30 C 0.0744(2) 0.67519(16) 0.42611(14)
H31 H -0.0020 0.6687 0.4165
H32 H 0.1136 0.6584 0.3781
H33 H 0.0903 0.7377 0.4398
C31 C 0.7439(2) 0.58208(16) 0.42371(13)
H34 H 0.6914 0.6176 0.4530
H35 H 0.7075 0.5441 0.3848
H36 H 0.7932 0.6225 0.3963
C32 C 0.0223(2) 0.32703(17) 0.71849(16)
H37 H 0.0253 0.2754 0.6825
H38 H -0.0494 0.3527 0.7178
H39 H 0.0397 0.3075 0.7724
C33 C 0.8567(2) 0.11477(18) 0.60134(16)
H40 H 0.8229 0.1395 0.5537
H41 H 0.8366 0.0515 0.6074
H42 H 0.9341 0.1194 0.5963
O12 O -0.01858(17) 0.87826(15) 0.54465(14)
H43 H 0.0152 0.8384 0.5692
C34 C -0.1241(3) 0.8569(3) 0.5436(2)
H44 H -0.1634 0.9032 0.5146
H45 H -0.1507 0.8535 0.5982
H46 H -0.1338 0.7987 0.5175
loop_
_geom_bond_atom_site_label_1
_geom_bond_atom_site_label_2
_geom_bond_site_symmetry_1
_geom_bond_site_symmetry_2
O1 C1 1_555 1_555
O2 C23 1_555 1_555
O3 C10 1_555 1_555
O4 C1 1_555 1_555
O5 C12 1_555 1_555
O6 H1 1_555 1_555
O7 C20 1_555 1_555
O8 C2 1_555 1_555
O9 C3 1_555 1_555
O10 H2 1_555 1_555
O11 C2 1_555 1_555
C1 C16 1_555 1_555
C2 C9 1_555 1_555
C3 C13 1_555 1_555
C4 H3 1_555 1_555
H4 C4 1_555 1_555
C5 H5 1_555 1_555
H6 C5 1_555 1_555
C6 O4 1_555 1_555
H7 C6 1_555 1_555
C7 O6 1_555 1_555
C8 H8 1_555 1_555
H9 C8 1_555 1_555
C9 C14 1_555 1_555
C10 O8 1_555 1_555
C11 C8 1_555 1_555
H10 C11 1_555 1_555
C12 H11 1_555 1_555
C13 C6 1_555 1_555
H12 C13 1_555 1_555
C14 C10 1_555 1_555
H13 C14 1_555 1_555
C15 O9 1_555 1_555
H14 C15 1_555 1_555
C16 C19 1_555 1_555
C17 O5 1_555 1_555
C18 C4 1_555 1_555
H15 C18 1_555 1_555
C19 H16 1_555 1_555
C20 C12 1_555 1_555
C21 C10 1_555 1_555
H17 C21 1_555 1_555
H18 C21 1_555 1_555
C22 O3 1_555 1_555
C23 O7 1_555 1_555
C24 C7 1_555 1_555
H19 C24 1_555 1_555
H20 C24 1_555 1_555
C25 C11 1_555 1_555
H21 C25 1_555 1_555
C26 O10 1_555 1_555
H22 C26 1_555 1_555
C27 C16 1_555 1_555
H23 C27 1_555 1_555
H24 C27 1_555 1_555
H25 C27 1_555 1_555
C28 C12 1_555 1_555
H26 C28 1_555 1_555
H27 C28 1_555 1_555
C29 C17 1_555 1_555
H28 C29 1_555 1_555
H29 C29 1_555 1_555
H30 C29 1_555 1_555
C30 C9 1_555 1_555
H31 C30 1_555 1_555
H32 C30 1_555 1_555
H33 C30 1_555 1_555
C31 C17 1_555 1_555
H34 C31 1_555 1_555
H35 C31 1_555 1_555
H36 C31 1_555 1_555
C32 C25 1_555 1_555
H37 C32 1_555 1_555
H38 C32 1_555 1_555
H39 C32 1_555 1_555
C33 C19 1_555 1_555
H40 C33 1_555 1_555
H41 C33 1_555 1_555
H42 C33 1_555 1_555
O12 H43 1_555 1_555
C34 O12 1_555 1_555
H44 C34 1_555 1_555
H45 C34 1_555 1_555
H46 C34 1_555 1_555
C3 C15 1_555 1_555
C3 C22 1_555 1_555
C4 C6 1_555 1_555
C5 C7 1_555 1_555
C5 C26 1_555 1_555
C7 C13 1_555 1_555
C8 C15 1_555 1_555
C11 C22 1_555 1_555
C17 C18 1_555 1_555
C18 C20 1_555 1_555
C20 C24 1_555 1_555
C21 C25 1_555 1_555
C22 C26 1_555 1_555
C23 C28 1_555 1_555

#END
