
#######################################################################
#
#                 Cambridge Crystallographic Data Centre
#                                CCDC 
#
#######################################################################
#
# If this CIF has been generated from an entry in the Cambridge 
# Structural Database, then it will include bibliographic, chemical, 
# crystal, experimental, refinement or atomic coordinate data resulting 
# from the CCDC's data processing and validation procedures.
#
#######################################################################

data_KERJAT02
_chemical_formula_moiety         'C12 H10 Cl1 N1 O2'
_chemical_name_systematic        'ethyl 3-(4-chlorophenyl)-2-cyanoacrylate'
_symmetry_cell_setting           monoclinic
_symmetry_space_group_name_H-M   'P 21/c'
_symmetry_Int_Tables_number      14
_space_group_name_Hall           '-P 2ybc'
loop_
_symmetry_equiv_pos_site_id
_symmetry_equiv_pos_as_xyz
1 x,y,z
2 -x,1/2+y,1/2-z
3 -x,-y,-z
4 x,1/2-y,1/2+z
_cell_length_a                   14.903(7)
_cell_length_b                   5.3559(17)
_cell_length_c                   17.777(8)
_cell_angle_alpha                90
_cell_angle_beta                 124.50(3)
_cell_angle_gamma                90
_cell_volume                     1169.39
_exptl_crystal_colour            yellow
_exptl_crystal_description       Block
_cell_formula_units_Z            4
loop_
_atom_site_label
_atom_site_type_symbol
_atom_site_fract_x
_atom_site_fract_y
_atom_site_fract_z
C1 C 0.6333(3) 0.8306(5) 0.1705(2)
C2 C 0.5505(3) 0.6357(5) 0.1470(2)
C3 C 0.3641(3) 0.4772(5) 0.0213(2)
C4 C 0.1744(3) 0.1963(6) -0.0697(2)
C5 C 0.5762(2) 0.4610(5) 0.2181(2)
C6 C 0.3531(3) 0.2661(5) 0.0613(2)
H1 H 0.4104 0.2181 0.1196
C7 C 0.2589(3) 0.1279(5) 0.0160(2)
H2 H 0.2526 -0.0122 0.0437
C8 C 0.4591(3) 0.6356(5) 0.0636(2)
C9 C 0.8066(3) 0.9849(7) 0.2890(2)
H3 H 0.8515 0.9462 0.2670
H4 H 0.7756 1.1497 0.2672
C10 C 0.8722(4) 0.9808(9) 0.3879(3)
H5 H 0.8277 1.0236 0.4092
H6 H 0.9305 1.0994 0.4109
H7 H 0.9020 0.8167 0.4090
C11 C 0.2759(3) 0.5395(6) -0.0665(2)
H8 H 0.2813 0.6778 -0.0953
C12 C 0.1816(3) 0.4023(6) -0.1114(2)
H9 H 0.1233 0.4488 -0.1694
Cl1 Cl 0.05649(8) 0.02105(18) -0.12569(8)
H10 H 0.454(2) 0.760(4) 0.0244(18)
N1 N 0.5979(2) 0.3245(5) 0.27530(18)
O1 O 0.62267(19) 0.9925(4) 0.11961(15)
O2 O 0.72060(18) 0.8018(4) 0.25547(15)
loop_
_geom_bond_atom_site_label_1
_geom_bond_atom_site_label_2
_geom_bond_site_symmetry_1
_geom_bond_site_symmetry_2
C1 C2 1_555 1_555
C2 C5 1_555 1_555
C3 C6 1_555 1_555
C4 C7 1_555 1_555
C5 N1 1_555 1_555
C6 H1 1_555 1_555
C7 C6 1_555 1_555
H2 C7 1_555 1_555
C8 C2 1_555 1_555
C9 H3 1_555 1_555
H4 C9 1_555 1_555
C10 C9 1_555 1_555
H5 C10 1_555 1_555
H6 C10 1_555 1_555
H7 C10 1_555 1_555
C11 C3 1_555 1_555
H8 C11 1_555 1_555
C12 C4 1_555 1_555
H9 C12 1_555 1_555
Cl1 C4 1_555 1_555
H10 C8 1_555 1_555
O1 C1 1_555 1_555
O2 C1 1_555 1_555
C3 C8 1_555 1_555
C9 O2 1_555 1_555
C11 C12 1_555 1_555

#END
