
#######################################################################
#
#                 Cambridge Crystallographic Data Centre
#                                CCDC 
#
#######################################################################
#
# If this CIF has been generated from an entry in the Cambridge 
# Structural Database, then it will include bibliographic, chemical, 
# crystal, experimental, refinement or atomic coordinate data resulting 
# from the CCDC's data processing and validation procedures.
#
#######################################################################

data_KERJAT
_chemical_formula_moiety         'C12 H10 Cl1 N1 O2'
_chemical_name_systematic        'Ethyl 3-(4-chlorophenyl)-2-cyanoacrylate'
_symmetry_cell_setting           monoclinic
_symmetry_space_group_name_H-M   'P 21/n'
_symmetry_Int_Tables_number      14
_space_group_name_Hall           '-P 2yn'
loop_
_symmetry_equiv_pos_site_id
_symmetry_equiv_pos_as_xyz
1 x,y,z
2 1/2-x,1/2+y,1/2-z
3 -x,-y,-z
4 1/2+x,1/2-y,1/2+z
_cell_length_a                   14.964(3)
_cell_length_b                   5.3810(11)
_cell_length_c                   15.448(3)
_cell_angle_alpha                90
_cell_angle_beta                 108.37(3)
_cell_angle_gamma                90
_cell_volume                     1180.51
_exptl_crystal_colour            colorless
_exptl_crystal_description       Block
_chemical_melting_point          '364-366 K'
_cell_formula_units_Z            4
_exptl_crystal_recrystallization_method ethanol
loop_
_atom_site_label
_atom_site_type_symbol
_atom_site_fract_x
_atom_site_fract_y
_atom_site_fract_z
Cl1 Cl 0.31789(7) 0.01991(19) 0.87424(7)
O1 O 0.03497(14) 0.8019(4) 1.25563(12)
O2 O -0.00314(15) 0.9932(4) 1.11988(13)
N1 N 0.17754(18) 0.3262(5) 1.27523(16)
C1 C 0.0155(3) 0.9797(9) 1.3874(2)
H1 H -0.0182 1.1004 1.4108
H2 H 0.0816 1.0170 1.4090
H3 H 0.0050 0.8170 1.4078
C2 C -0.0175(2) 0.9869(7) 1.2887(2)
H4 H -0.0074 1.1508 1.2673
H5 H -0.0844 0.9502 1.2661
C3 C 0.03713(19) 0.8303(5) 1.17062(17)
C4 C 0.09595(18) 0.6354(5) 1.14701(16)
C5 C 0.10465(18) 0.6348(5) 1.06370(16)
H6 H 0.0703 0.7587 1.0256
C6 C 0.14212(19) 0.4613(5) 1.21793(18)
C7 C 0.15782(18) 0.4769(5) 1.02135(17)
C8 C 0.1578(2) 0.5402(6) 0.93358(18)
H7 H 0.1239 0.6783 0.9049
C9 C 0.2070(2) 0.4021(6) 0.88879(19)
H8 H 0.2071 0.4479 0.8308
C10 C 0.2560(2) 0.1961(6) 0.9306(2)
C11 C 0.2569(2) 0.1277(6) 1.01674(19)
H9 H 0.2904 -0.0119 1.0446
C12 C 0.2083(2) 0.2661(5) 1.06121(18)
H10 H 0.2089 0.2185 1.1193
loop_
_geom_bond_atom_site_label_1
_geom_bond_atom_site_label_2
_geom_bond_site_symmetry_1
_geom_bond_site_symmetry_2
Cl1 C10 1_555 1_555
O1 C2 1_555 1_555
O2 C3 1_555 1_555
N1 C6 1_555 1_555
C1 H1 1_555 1_555
H2 C1 1_555 1_555
H3 C1 1_555 1_555
C2 C1 1_555 1_555
H4 C2 1_555 1_555
H5 C2 1_555 1_555
C3 O1 1_555 1_555
C4 C3 1_555 1_555
C5 C4 1_555 1_555
H6 C5 1_555 1_555
C6 C4 1_555 1_555
C7 C5 1_555 1_555
C8 C7 1_555 1_555
H7 C8 1_555 1_555
C9 C8 1_555 1_555
H8 C9 1_555 1_555
C10 C9 1_555 1_555
C11 C10 1_555 1_555
H9 C11 1_555 1_555
C12 C7 1_555 1_555
H10 C12 1_555 1_555
C11 C12 1_555 1_555

#END
