
#######################################################################
#
#                 Cambridge Crystallographic Data Centre
#                                CCDC 
#
#######################################################################
#
# If this CIF has been generated from an entry in the Cambridge 
# Structural Database, then it will include bibliographic, chemical, 
# crystal, experimental, refinement or atomic coordinate data resulting 
# from the CCDC's data processing and validation procedures.
#
#######################################################################

data_KERMUP
_chemical_formula_moiety         'C6 H14 N1 O2 1+,C6 H5 O3 S1 1-,H2 O1'
_chemical_name_systematic        'L-Leucine benzenesulfonate monohydrate'
_symmetry_cell_setting           orthorhombic
_symmetry_space_group_name_H-M   'P 21 21 21'
_symmetry_Int_Tables_number      19
_space_group_name_Hall           'P 2ac 2ab'
loop_
_symmetry_equiv_pos_site_id
_symmetry_equiv_pos_as_xyz
1 x,y,z
2 1/2+x,1/2-y,-z
3 -x,1/2+y,1/2-z
4 1/2-x,-y,1/2+z
_cell_length_a                   9.921(1)
_cell_length_b                   25.741(2)
_cell_length_c                   6.216
_cell_angle_alpha                90
_cell_angle_beta                 90
_cell_angle_gamma                90
_cell_volume                     1587.42
_exptl_crystal_colour            colorless
_cell_formula_units_Z            4
loop_
_atom_site_label
_atom_site_type_symbol
_atom_site_fract_x
_atom_site_fract_y
_atom_site_fract_z
S1 S 0.8214(1) 0.3511 0.4327(2)
O1 O 0.8083(5) 0.3519(1) 0.6619(7)
O2 O 0.9292(3) 0.3170(1) 0.3580(4)
O3 O 0.6969(4) 0.3379(2) 0.3202(12)
C1 C 0.8664(4) 0.4144(1) 0.3519(6)
C2 C 0.8296(6) 0.4324(2) 0.1530(7)
C3 C 0.8727(9) 0.4824(3) 0.0915(11)
C4 C 0.9467(5) 0.4435(2) 0.4904(9)
C5 C 0.9463(10) 0.5118(2) 0.2290(15)
C6 C 0.9853(9) 0.4922(2) 0.4299(14)
H1 H 0.796(10) 0.406(3) 0.030(13)
H2 H 0.828(7) 0.494(3) -0.060(6)
H3 H 0.932(9) 0.427(3) 0.648(6)
H4 H 0.984(10) 0.551(2) 0.244(19)
H5 H 1.013(10) 0.517(3) 0.564(10)
N1 N 0.3966(3) 0.2345(1) 0.0419(5)
O4 O 0.6148(2) 0.2686(1) -0.1441(5)
C7 C 0.5247(4) 0.3005(1) -0.1397(6)
C8 C 0.3630(4) 0.3245(2) 0.1635(6)
O5 O 0.5327(5) 0.3448(2) -0.2308(8)
C9 C 0.3915(3) 0.2898(1) -0.0323(6)
C10 C 0.3258(5) 0.3810(2) 0.1167(9)
C11 C 0.3131(9) 0.4091(3) 0.3335(14)
C12 C 0.1994(9) 0.3858(3) -0.0152(14)
H6 H 0.327 0.225 0.074(1)
H7 H 0.465 0.233 0.149(1)
H8 H 0.418 0.212 -0.083(1)
H9 H 0.439 0.325 0.270(1)
H10 H 0.281 0.309 0.233(1)
H11 H 0.604(8) 0.341(3) -0.295(13)
H12 H 0.312 0.298 -0.125(1)
H13 H 0.386(7) 0.391(3) 0.001(13)
H14 H 0.243(1) 0.389 0.413(1)
H15 H 0.294(1) 0.447(1) 0.349(1)
H16 H 0.404(1) 0.401 0.394(1)
H17 H 0.129(1) 0.371 0.082(1)
H18 H 0.197(1) 0.367 -0.157(1)
H19 H 0.181(1) 0.424 -0.038(1)
O6 O 0.6105(3) 0.2298(2) -0.6526(5)
H20 H 0.632(5) 0.259(2) -0.633(8)
H21 H 0.572(6) 0.211(2) -0.538(11)
loop_
_geom_bond_atom_site_label_1
_geom_bond_atom_site_label_2
_geom_bond_site_symmetry_1
_geom_bond_site_symmetry_2
S1 O1 1_555 1_555
O2 S1 1_555 1_555
O3 S1 1_555 1_555
C1 S1 1_555 1_555
C2 C1 1_555 1_555
C3 C2 1_555 1_555
C4 C1 1_555 1_555
C5 C3 1_555 1_555
C6 C4 1_555 1_555
H1 C2 1_555 1_555
H2 C3 1_555 1_555
H3 C4 1_555 1_555
H4 C5 1_555 1_555
H5 C6 1_555 1_555
N1 C9 1_555 1_555
O4 C7 1_555 1_555
C7 O5 1_555 1_555
C8 C9 1_555 1_555
O5 H11 1_555 1_555
C9 C7 1_555 1_555
C10 C8 1_555 1_555
C11 C10 1_555 1_555
C12 C10 1_555 1_555
H6 N1 1_555 1_555
H7 N1 1_555 1_555
H8 N1 1_555 1_555
H9 C8 1_555 1_555
H10 C8 1_555 1_555
H12 C9 1_555 1_555
H13 C10 1_555 1_555
H14 C11 1_555 1_555
H15 C11 1_555 1_555
H16 C11 1_555 1_555
H17 C12 1_555 1_555
H18 C12 1_555 1_555
H19 C12 1_555 1_555
O6 H20 1_555 1_555
H21 O6 1_555 1_555
C5 C6 1_555 1_555

#END
