
#######################################################################
#
#                 Cambridge Crystallographic Data Centre
#                                CCDC 
#
#######################################################################
#
# If this CIF has been generated from an entry in the Cambridge 
# Structural Database, then it will include bibliographic, chemical, 
# crystal, experimental, refinement or atomic coordinate data resulting 
# from the CCDC's data processing and validation procedures.
#
#######################################################################

data_KERNOL
_chemical_formula_moiety         'C24 H20 Cl1 N3 O3'
_chemical_name_systematic        
2-(2-(3-(2-Chlorophenyl)-1,2,4-oxadiazol-5-yl)phenoxy)-N-(2,6-dimethylphenyl)acetamide
_symmetry_cell_setting           triclinic
_symmetry_space_group_name_H-M   'P -1'
_symmetry_Int_Tables_number      2
_space_group_name_Hall           '-P 1'
loop_
_symmetry_equiv_pos_site_id
_symmetry_equiv_pos_as_xyz
1 x,y,z
2 -x,-y,-z
_cell_length_a                   8.9110(18)
_cell_length_b                   10.612(2)
_cell_length_c                   12.491(3)
_cell_angle_alpha                94.55(3)
_cell_angle_beta                 92.09(3)
_cell_angle_gamma                114.63(3)
_cell_volume                     1067.19
_exptl_crystal_colour            colorless
_exptl_crystal_description       Block
_cell_formula_units_Z            2
_exptl_crystal_recrystallization_method ethanol
loop_
_atom_site_label
_atom_site_type_symbol
_atom_site_fract_x
_atom_site_fract_y
_atom_site_fract_z
Cl1 Cl 0.31124(15) 0.01107(14) 0.45634(10)
O1 O 0.1378(3) -0.1414(2) 0.1286(2)
O2 O 0.2266(3) 0.1884(2) -0.04103(17)
O3 O 0.3293(3) 0.5489(2) -0.00480(18)
N1 N 0.0970(4) -0.1142(3) 0.2333(3)
N2 N 0.1925(3) 0.0809(3) 0.1498(2)
N3 N 0.2700(3) 0.3836(2) 0.1122(2)
H1 H 0.2386 0.2960 0.1169
C1 C 0.0148(6) 0.2605(5) 0.4120(5)
H2 H -0.0426 0.3154 0.4041
C2 C 0.0859(7) 0.2568(6) 0.5122(5)
H3 H 0.0742 0.3089 0.5721
C3 C 0.1726(6) 0.1776(6) 0.5242(4)
H4 H 0.2197 0.1772 0.5917
C4 C 0.1902(5) 0.0997(4) 0.4378(4)
C5 C 0.1179(4) 0.0982(4) 0.3363(3)
C6 C 0.0319(5) 0.1806(4) 0.3247(4)
H5 H -0.0146 0.1818 0.2571
C7 C 0.1351(4) 0.0181(4) 0.2407(3)
C8 C 0.1933(4) -0.0201(3) 0.0840(3)
C9 C 0.2543(4) -0.0186(3) -0.0220(3)
C10 C 0.2985(5) -0.1234(4) -0.0622(3)
H6 H 0.2796 -0.1995 -0.0238
C11 C 0.3701(5) -0.1147(5) -0.1585(4)
H7 H 0.3981 -0.1856 -0.1857
C12 C 0.4003(5) -0.0011(5) -0.2149(4)
H8 H 0.4521 0.0056 -0.2788
C13 C 0.3551(5) 0.1023(4) -0.1779(3)
H9 H 0.3745 0.1776 -0.2173
C14 C 0.2808(4) 0.0944(3) -0.0823(3)
C15 C 0.2840(4) 0.3237(3) -0.0770(2)
H10 H 0.2085 0.3232 -0.1351
H11 H 0.3921 0.3486 -0.1043
C16 C 0.2951(4) 0.4289(3) 0.0139(3)
C17 C 0.2924(4) 0.4721(3) 0.2088(2)
C18 C 0.1901(4) 0.5407(3) 0.2254(3)
C19 C 0.2195(5) 0.6293(4) 0.3188(3)
H12 H 0.1546 0.6781 0.3302
C20 C 0.3415(6) 0.6459(4) 0.3939(3)
H13 H 0.3603 0.7067 0.4559
C21 C 0.4382(5) 0.5739(4) 0.3795(3)
H14 H 0.5191 0.5843 0.4329
C22 C 0.4164(4) 0.4863(3) 0.2863(3)
C23 C 0.0471(5) 0.5158(4) 0.1469(3)
H15 H -0.0298 0.5440 0.1818
H16 H -0.0073 0.4184 0.1216
H17 H 0.0866 0.5689 0.0870
C24 C 0.5219(4) 0.4077(4) 0.2716(3)
H18 H 0.6139 0.4449 0.3250
H19 H 0.5622 0.4169 0.2011
H20 H 0.4571 0.3110 0.2792
loop_
_geom_bond_atom_site_label_1
_geom_bond_atom_site_label_2
_geom_bond_site_symmetry_1
_geom_bond_site_symmetry_2
Cl1 C4 1_555 1_555
O1 N1 1_555 1_555
O2 C14 1_555 1_555
O3 C16 1_555 1_555
N1 C7 1_555 1_555
N2 C7 1_555 1_555
N3 H1 1_555 1_555
C1 H2 1_555 1_555
C2 C1 1_555 1_555
H3 C2 1_555 1_555
C3 C2 1_555 1_555
H4 C3 1_555 1_555
C4 C3 1_555 1_555
C5 C4 1_555 1_555
C6 C1 1_555 1_555
H5 C6 1_555 1_555
C7 C5 1_555 1_555
C8 O1 1_555 1_555
C9 C8 1_555 1_555
C10 C9 1_555 1_555
H6 C10 1_555 1_555
C11 C10 1_555 1_555
H7 C11 1_555 1_555
C12 C11 1_555 1_555
H8 C12 1_555 1_555
C13 C12 1_555 1_555
H9 C13 1_555 1_555
C14 C9 1_555 1_555
C15 O2 1_555 1_555
H10 C15 1_555 1_555
H11 C15 1_555 1_555
C16 N3 1_555 1_555
C17 N3 1_555 1_555
C18 C17 1_555 1_555
C19 C18 1_555 1_555
H12 C19 1_555 1_555
C20 C19 1_555 1_555
H13 C20 1_555 1_555
C21 C20 1_555 1_555
H14 C21 1_555 1_555
C22 C17 1_555 1_555
C23 C18 1_555 1_555
H15 C23 1_555 1_555
H16 C23 1_555 1_555
H17 C23 1_555 1_555
C24 C22 1_555 1_555
H18 C24 1_555 1_555
H19 C24 1_555 1_555
H20 C24 1_555 1_555
N2 C8 1_555 1_555
C5 C6 1_555 1_555
C13 C14 1_555 1_555
C15 C16 1_555 1_555
C21 C22 1_555 1_555

#END
