
#######################################################################
#
#                 Cambridge Crystallographic Data Centre
#                                CCDC 
#
#######################################################################
#
# If this CIF has been generated from an entry in the Cambridge 
# Structural Database, then it will include bibliographic, chemical, 
# crystal, experimental, refinement or atomic coordinate data resulting 
# from the CCDC's data processing and validation procedures.
#
#######################################################################

data_KERNEC
_chemical_formula_moiety         '2(C8 H5 O5 1-),C4 H12 N2 2+,4(H2 O1)'
_chemical_name_systematic        
'Piperazinediium bis(3-carboxy-5-hydroxybenzoate) tetrahydrate'
_symmetry_cell_setting           monoclinic
_symmetry_space_group_name_H-M   'P 21/c'
_symmetry_Int_Tables_number      14
_space_group_name_Hall           '-P 2ybc'
loop_
_symmetry_equiv_pos_site_id
_symmetry_equiv_pos_as_xyz
1 x,y,z
2 -x,1/2+y,1/2-z
3 -x,-y,-z
4 x,1/2-y,1/2+z
_cell_length_a                   8.8421(13)
_cell_length_b                   16.878(2)
_cell_length_c                   8.0576(11)
_cell_angle_alpha                90
_cell_angle_beta                 100.107(2)
_cell_angle_gamma                90
_cell_volume                     1183.83
_exptl_crystal_colour            colorless
_exptl_crystal_description       block
_cell_formula_units_Z            2
loop_
_atom_site_label
_atom_site_type_symbol
_atom_site_fract_x
_atom_site_fract_y
_atom_site_fract_z
O1 O 0.7182(3) 0.85399(15) 0.0300(4)
H1 H 0.7803 0.8236 -0.0004
O2 O 0.6196(3) 0.56870(15) 0.1286(4)
H2 H 0.6165 0.5205 0.1406
O3 O 0.4075(3) 0.56358(15) 0.2397(4)
C1 C 0.4930(4) 0.8534(2) 0.1499(4)
H3 H 0.4940 0.9085 0.1497
O4 O 0.1211(3) 0.82215(15) 0.2634(4)
C2 C 0.6116(4) 0.7297(2) 0.1004(4)
H4 H 0.6904 0.7016 0.0643
C3 C 0.5005(4) 0.6015(2) 0.1806(5)
O5 O 0.2657(3) 0.92846(15) 0.3061(4)
C4 C 0.4956(4) 0.6892(2) 0.1619(4)
C5 C 0.6096(4) 0.8114(2) 0.0929(4)
C6 C 0.3755(4) 0.7311(2) 0.2125(4)
H5 H 0.2962 0.7041 0.2499
C7 C 0.3751(4) 0.81297(19) 0.2069(4)
C10 C 0.2457(4) 0.8574(2) 0.2640(4)
N1 N 0.9865(4) 0.9972(2) 0.3189(4)
C8 C 0.8963(4) 0.9425(2) 0.4097(5)
H6 H 0.8791 0.8929 0.3486
H7 H 0.7969 0.9659 0.4146
C9 C 1.0199(4) 1.0732(2) 0.4145(6)
H8 H 0.9243 1.1005 0.4195
H9 H 1.0819 1.1071 0.3561
H14 H 1.085(5) 0.971(2) 0.308(5)
N1B N 1.0135(4) 1.0028(2) 0.6811(4)
C8B C 1.1037(4) 1.0575(2) 0.5903(5)
H6B H 1.1209 1.1071 0.6514
H7B H 1.2031 1.0341 0.5854
C9B C 0.9801(4) 0.9268(2) 0.5855(6)
H8B H 1.0757 0.8995 0.5805
H9B H 0.9181 0.8929 0.6439
H14B H 0.915(5) 1.029(2) 0.692(5)
O6 O 0.9597(4) 0.7711(3) -0.0392(6)
H10 H 1.001(5) 0.749(3) -0.104(5)
H11 H 1.009(5) 0.781(3) 0.048(4)
O7 O 0.8437(19) 1.0161(5) 0.0834(15)
H12 H 0.92(6) 1.01(3) 0.05(11)
H13 H 0.794(3) 1.0540(16) 0.063(4)
loop_
_geom_bond_atom_site_label_1
_geom_bond_atom_site_label_2
_geom_bond_site_symmetry_1
_geom_bond_site_symmetry_2
O1 H1 1_555 1_555
O2 H2 1_555 1_555
O3 C3 1_555 1_555
C1 H3 1_555 1_555
O4 C10 1_555 1_555
C2 H4 1_555 1_555
C3 O2 1_555 1_555
O5 C10 1_555 1_555
C4 C2 1_555 1_555
C5 O1 1_555 1_555
C6 C4 1_555 1_555
H5 C6 1_555 1_555
N1 C8 1_555 1_555
C7 C1 1_555 1_555
C8 H6 1_555 1_555
H7 C8 1_555 1_555
C9 N1 1_555 1_555
H8 C9 1_555 1_555
H9 C9 1_555 1_555
C10 C7 1_555 1_555
O6 H10 1_555 1_555
H11 O6 1_555 1_555
O7 H12 1_555 1_555
H13 O7 1_555 1_555
H14 N1 1_555 1_555
N1B C8B 1_555 1_555
C8B C9 1_555 1_555
H6B C8B 1_555 1_555
H7B C8B 1_555 1_555
C9B C8 1_555 1_555
H8B C9B 1_555 1_555
H9B C9B 1_555 1_555
H14B N1B 1_555 1_555
C1 C5 1_555 1_555
C2 C5 1_555 1_555
C3 C4 1_555 1_555
C6 C7 1_555 1_555
N1B C9B 1_555 1_555

#END
