
#######################################################################
#
#                 Cambridge Crystallographic Data Centre
#                                CCDC 
#
#######################################################################
#
# If this CIF has been generated from an entry in the Cambridge 
# Structural Database, then it will include bibliographic, chemical, 
# crystal, experimental, refinement or atomic coordinate data resulting 
# from the CCDC's data processing and validation procedures.
#
#######################################################################

data_KERPUV
_chemical_formula_moiety         'C18 H26 O7'
_chemical_name_systematic        
(-)-4-(4,6-bis(methoxymethoxy)-2,3,3a,8a-tetrahydrofuro[2,3-b][1]benzofuran-3-yl)butan-2-ol
_symmetry_cell_setting           monoclinic
_symmetry_space_group_name_H-M   'C 2'
_symmetry_Int_Tables_number      5
_space_group_name_Hall           'C 2y'
loop_
_symmetry_equiv_pos_site_id
_symmetry_equiv_pos_as_xyz
1 x,y,z
2 -x,y,-z
3 1/2+x,1/2+y,z
4 1/2-x,1/2+y,-z
_cell_length_a                   28.295(4)
_cell_length_b                   4.8587(6)
_cell_length_c                   13.2000(17)
_cell_angle_alpha                90
_cell_angle_beta                 97.994(2)
_cell_angle_gamma                90
_cell_volume                     1797.06
_exptl_crystal_colour            colorless
_exptl_crystal_description       needle
_cell_formula_units_Z            4
loop_
_atom_site_label
_atom_site_type_symbol
_atom_site_fract_x
_atom_site_fract_y
_atom_site_fract_z
O1 O 0.39823(13) 0.1687(7) 0.0345(2)
O2 O 0.31773(13) 0.2834(7) 0.0013(3)
O3 O 0.50351(13) -0.4751(7) 0.2355(3)
O4 O 0.55157(14) -0.3672(8) 0.1114(3)
O5 O 0.38685(12) 0.0529(8) 0.3784(2)
O6 O 0.43304(13) -0.1085(8) 0.5274(2)
C1 C 0.41723(19) 0.0304(10) 0.1244(4)
C2 C 0.45318(19) -0.1608(10) 0.1245(4)
H1 H 0.4669 -0.2075 0.0651
C3 C 0.46752(19) -0.2796(10) 0.2203(4)
C4 C 0.44693(17) -0.2190(11) 0.3064(3)
H2 H 0.4575 -0.3078 0.3696
C5 C 0.41061(17) -0.0270(11) 0.2992(4)
C6 C 0.39545(17) 0.1007(10) 0.2063(3)
C7 C 0.35586(16) 0.3040(11) 0.1735(3)
H3 H 0.3597 0.4785 0.2140
C8 C 0.36122(19) 0.3495(11) 0.0596(4)
H4 H 0.3697 0.5456 0.0478
C9 C 0.30552(16) 0.1782(10) 0.1708(4)
H5 H 0.3072 0.0145 0.2171
C10 C 0.29560(19) 0.0825(11) 0.0589(4)
H6 H 0.3095 -0.1020 0.0511
H7 H 0.2608 0.0741 0.0356
C11 C 0.5242(2) -0.5627(13) 0.1505(4)
H8 H 0.5443 -0.7260 0.1703
H9 H 0.4984 -0.6204 0.0960
C12 C 0.5962(2) -0.3164(18) 0.1758(5)
H10 H 0.5899 -0.2509 0.2428
H11 H 0.6143 -0.1765 0.1440
H12 H 0.6147 -0.4872 0.1843
C13 C 0.38946(19) -0.1229(14) 0.4650(4)
H13 H 0.3638 -0.0725 0.5054
H14 H 0.3838 -0.3150 0.4414
C14 C 0.4427(2) 0.1524(14) 0.5731(4)
H15 H 0.4479 0.2867 0.5203
H16 H 0.4714 0.1409 0.6239
H17 H 0.4156 0.2105 0.6067
C15 C 0.26821(18) 0.3734(11) 0.1977(4)
H18 H 0.2364 0.2879 0.1799
H19 H 0.2689 0.5427 0.1562
C16 C 0.27516(18) 0.4514(12) 0.3110(4)
H20 H 0.2979 0.6070 0.3222
H21 H 0.2893 0.2934 0.3518
C17 C 0.2269(5) 0.536(3) 0.3501(12)
H22 H 0.2054 0.3715 0.3427
C18 C 0.2007(5) 0.768(4) 0.2944(13)
H23 H 0.1705 0.7969 0.3209
H24 H 0.1944 0.7240 0.2213
H25 H 0.2201 0.9353 0.3043
O7 O 0.2349(6) 0.606(3) 0.4546(15)
H26 H 0.2378 0.4624 0.4901
H27? H 0.2710 0.2830 0.3510
H28? H 0.3086 0.5126 0.3298
C19? C 0.2445(6) 0.662(3) 0.3430(13)
H29? H 0.2506 0.8388 0.3085
C20? C 0.1918(6) 0.583(4) 0.3148(15)
H30? H 0.1846 0.5580 0.2406
H31? H 0.1717 0.7305 0.3363
H32? H 0.1854 0.4118 0.3495
O8? O 0.2542(6) 0.699(3) 0.4516(16)
H33? H 0.2541 0.5452 0.4807
loop_
_geom_bond_atom_site_label_1
_geom_bond_atom_site_label_2
_geom_bond_site_symmetry_1
_geom_bond_site_symmetry_2
O1 C1 1_555 1_555
O2 C8 1_555 1_555
O3 C3 1_555 1_555
O4 C11 1_555 1_555
O5 C5 1_555 1_555
O6 C13 1_555 1_555
C1 C2 1_555 1_555
C2 H1 1_555 1_555
C3 C2 1_555 1_555
C4 C3 1_555 1_555
H2 C4 1_555 1_555
C5 C4 1_555 1_555
C6 C1 1_555 1_555
C7 C6 1_555 1_555
H3 C7 1_555 1_555
C8 O1 1_555 1_555
H4 C8 1_555 1_555
C9 C7 1_555 1_555
H5 C9 1_555 1_555
C10 O2 1_555 1_555
H6 C10 1_555 1_555
H7 C10 1_555 1_555
C11 O3 1_555 1_555
H8 C11 1_555 1_555
H9 C11 1_555 1_555
C12 O4 1_555 1_555
H10 C12 1_555 1_555
H11 C12 1_555 1_555
H12 C12 1_555 1_555
C13 O5 1_555 1_555
H13 C13 1_555 1_555
H14 C13 1_555 1_555
C14 O6 1_555 1_555
H15 C14 1_555 1_555
H16 C14 1_555 1_555
H17 C14 1_555 1_555
C15 C9 1_555 1_555
H18 C15 1_555 1_555
H19 C15 1_555 1_555
C16 C15 1_555 1_555
H20 C16 1_555 1_555
H21 C16 1_555 1_555
C17 C16 1_555 1_555
H22 C17 1_555 1_555
C18 C17 1_555 1_555
H23 C18 1_555 1_555
H24 C18 1_555 1_555
H25 C18 1_555 1_555
O7 C17 1_555 1_555
H26 O7 1_555 1_555
C5 C6 1_555 1_555
C7 C8 1_555 1_555
C9 C10 1_555 1_555

#END
