
#######################################################################
#
#                 Cambridge Crystallographic Data Centre
#                                CCDC 
#
#######################################################################
#
# If this CIF has been generated from an entry in the Cambridge 
# Structural Database, then it will include bibliographic, chemical, 
# crystal, experimental, refinement or atomic coordinate data resulting 
# from the CCDC's data processing and validation procedures.
#
#######################################################################

data_KERRAB
_chemical_formula_moiety         'C7 H10 O2 S5'
_chemical_name_systematic        
4,5-bis(2-hydroxyethylsulfanyl)-1,3-dithiole-2-thione
_symmetry_cell_setting           monoclinic
_symmetry_space_group_name_H-M   'P 21/n'
_symmetry_Int_Tables_number      14
_space_group_name_Hall           '-P 2yn'
loop_
_symmetry_equiv_pos_site_id
_symmetry_equiv_pos_as_xyz
1 x,y,z
2 1/2-x,1/2+y,1/2-z
3 -x,-y,-z
4 1/2+x,1/2-y,1/2+z
_cell_length_a                   5.3016(4)
_cell_length_b                   26.1430(19)
_cell_length_c                   8.7195(6)
_cell_angle_alpha                90
_cell_angle_beta                 105.1070(10)
_cell_angle_gamma                90
_cell_volume                     1166.75
_exptl_crystal_colour            yellow
_exptl_crystal_description       plate
_chemical_melting_point          '374 K'
_cell_formula_units_Z            4
_exptl_crystal_recrystallization_method ethanol
loop_
_atom_site_label
_atom_site_type_symbol
_atom_site_fract_x
_atom_site_fract_y
_atom_site_fract_z
S1 S 0.47428(9) -0.026909(17) 0.70605(5)
S2 S 0.14627(7) 0.032939(14) 0.86669(5)
S3 S 0.17256(8) 0.065069(15) 0.55597(5)
S4 S -0.23558(7) 0.116539(17) 0.89809(5)
S5 S -0.19165(8) 0.153892(16) 0.53632(5)
O1 O 0.1365(3) 0.19903(4) 1.09771(16)
H1 H 0.2506 0.2176 1.1513
O2 O 0.0233(3) 0.24273(4) 0.78852(15)
H2 H 0.0136 0.2280 0.8699
C1 C 0.2787(3) 0.02142(5) 0.70850(17)
C2 C -0.0362(3) 0.08745(5) 0.79131(18)
C3 C -0.0230(3) 0.10228(5) 0.64601(18)
C4 C -0.0332(3) 0.11428(6) 1.10158(19)
H3 H -0.1371 0.1252 1.1722
H4 H 0.0193 0.0791 1.1279
C5 C 0.2076(3) 0.14708(6) 1.1311(2)
H5 H 0.3070 0.1437 1.2411
H6 H 0.3168 0.1358 1.0641
C6 C 0.0758(4) 0.19894(6) 0.5533(2)
H7 H 0.2080 0.1831 0.5101
H8 H 0.0105 0.2287 0.4888
C7 C 0.2021(3) 0.21635(6) 0.7203(2)
H9 H 0.2705 0.1868 0.7853
H10 H 0.3477 0.2387 0.7194
loop_
_geom_bond_atom_site_label_1
_geom_bond_atom_site_label_2
_geom_bond_site_symmetry_1
_geom_bond_site_symmetry_2
S1 C1 1_555 1_555
S2 C1 1_555 1_555
S3 C1 1_555 1_555
S4 C2 1_555 1_555
S5 C3 1_555 1_555
O1 H1 1_555 1_555
O2 H2 1_555 1_555
C2 S2 1_555 1_555
C3 S3 1_555 1_555
C4 S4 1_555 1_555
H3 C4 1_555 1_555
H4 C4 1_555 1_555
C5 O1 1_555 1_555
H5 C5 1_555 1_555
H6 C5 1_555 1_555
C6 S5 1_555 1_555
H7 C6 1_555 1_555
H8 C6 1_555 1_555
C7 O2 1_555 1_555
H9 C7 1_555 1_555
H10 C7 1_555 1_555
C2 C3 1_555 1_555
C4 C5 1_555 1_555
C6 C7 1_555 1_555

#END
