
#######################################################################
#
#                 Cambridge Crystallographic Data Centre
#                                CCDC 
#
#######################################################################
#
# If this CIF has been generated from an entry in the Cambridge 
# Structural Database, then it will include bibliographic, chemical, 
# crystal, experimental, refinement or atomic coordinate data resulting 
# from the CCDC's data processing and validation procedures.
#
#######################################################################

data_KERTOR
_chemical_formula_moiety         'C15 H10 F1 N3 O1 S1'
_chemical_name_systematic        
4-fluoro-N-(4-(pyridin-4-yl)thiazol-2-yl)benzamide
_chemical_properties_biological  'potent fungicidal agent'
_symmetry_cell_setting           monoclinic
_symmetry_space_group_name_H-M   'P 21/c'
_symmetry_Int_Tables_number      14
_space_group_name_Hall           '-P 2ybc'
loop_
_symmetry_equiv_pos_site_id
_symmetry_equiv_pos_as_xyz
1 x,y,z
2 -x,1/2+y,1/2-z
3 -x,-y,-z
4 x,1/2-y,1/2+z
_cell_length_a                   8.430(3)
_cell_length_b                   13.352(4)
_cell_length_c                   11.853(4)
_cell_angle_alpha                90
_cell_angle_beta                 92.838(6)
_cell_angle_gamma                90
_cell_volume                     1332.51
_exptl_crystal_colour            colorless
_exptl_crystal_description       block
_cell_formula_units_Z            4
_exptl_crystal_recrystallization_method methanol
loop_
_atom_site_label
_atom_site_type_symbol
_atom_site_fract_x
_atom_site_fract_y
_atom_site_fract_z
S1 S 0.72252(7) -0.04849(4) 1.09421(4)
F1 F 0.23928(19) 0.51387(10) 0.95423(11)
O1 O 0.56355(19) 0.12162(11) 1.14055(12)
N1 N 1.1545(2) -0.25621(13) 0.68833(14)
N2 N 0.82453(19) -0.00505(12) 0.89854(13)
N3 N 0.6855(2) 0.12762(12) 0.97554(13)
H1 H 0.7102 0.1651 0.9201
C1 C 0.9654(2) -0.15679(14) 0.84179(16)
C2 C 1.0122(3) -0.11045(15) 0.74430(16)
H2 H 0.9807 -0.0451 0.7277
C3 C 1.1063(3) -0.16239(16) 0.67184(17)
H3 H 1.1378 -0.1295 0.6075
C4 C 1.1070(3) -0.30079(16) 0.78135(19)
H4 H 1.1381 -0.3667 0.7948
C5 C 1.0143(3) -0.25495(16) 0.85882(18)
H5 H 0.9848 -0.2898 0.9224
C6 C 0.8716(2) -0.10238(14) 0.92352(16)
C7 C 0.8263(2) -0.13682(15) 1.02476(16)
H6 H 0.8490 -0.2006 1.0527
C8 C 0.7458(2) 0.03127(14) 0.98046(16)
C9 C 0.5889(2) 0.16659(15) 1.05381(17)
C10 C 0.5099(2) 0.26391(15) 1.02490(16)
C11 C 0.4320(3) 0.31341(16) 1.10943(17)
H7 H 0.4400 0.2888 1.1829
C12 C 0.3434(3) 0.39816(17) 1.08610(18)
H8 H 0.2932 0.4317 1.1431
C13 C 0.3310(3) 0.43172(16) 0.97740(19)
C14 C 0.4064(3) 0.38651(16) 0.89139(17)
H9 H 0.3973 0.4119 0.8183
C15 C 0.4964(2) 0.30235(15) 0.91592(16)
H10 H 0.5489 0.2708 0.8586
loop_
_geom_bond_atom_site_label_1
_geom_bond_atom_site_label_2
_geom_bond_site_symmetry_1
_geom_bond_site_symmetry_2
S1 C7 1_555 1_555
F1 C13 1_555 1_555
O1 C9 1_555 1_555
N1 C3 1_555 1_555
N2 C6 1_555 1_555
N3 H1 1_555 1_555
C1 C2 1_555 1_555
C2 H2 1_555 1_555
C3 C2 1_555 1_555
H3 C3 1_555 1_555
C4 N1 1_555 1_555
H4 C4 1_555 1_555
C5 C1 1_555 1_555
H5 C5 1_555 1_555
C6 C1 1_555 1_555
C7 C6 1_555 1_555
H6 C7 1_555 1_555
C8 S1 1_555 1_555
C9 N3 1_555 1_555
C10 C9 1_555 1_555
C11 C10 1_555 1_555
H7 C11 1_555 1_555
C12 C11 1_555 1_555
H8 C12 1_555 1_555
C13 C12 1_555 1_555
C14 C13 1_555 1_555
H9 C14 1_555 1_555
C15 C10 1_555 1_555
H10 C15 1_555 1_555
N2 C8 1_555 1_555
N3 C8 1_555 1_555
C4 C5 1_555 1_555
C14 C15 1_555 1_555

#END
