
#######################################################################
#
#                 Cambridge Crystallographic Data Centre
#                                CCDC 
#
#######################################################################
#
# If this CIF has been generated from an entry in the Cambridge 
# Structural Database, then it will include bibliographic, chemical, 
# crystal, experimental, refinement or atomic coordinate data resulting 
# from the CCDC's data processing and validation procedures.
#
#######################################################################

data_KERXIO
_chemical_formula_moiety         'C29 H35 N1 O4'
_chemical_name_systematic        
9b-(1-((2,6-bis(t-Butyl)-4-methylphenoxy)carbonyl)cyclopropyl)-2,3,5,9b-tetrahydro-oxazolo(3,2-a)isoindol-5-one
_symmetry_cell_setting           monoclinic
_symmetry_space_group_name_H-M   'P 21/n'
_symmetry_Int_Tables_number      14
_space_group_name_Hall           '-P 2yn'
loop_
_symmetry_equiv_pos_site_id
_symmetry_equiv_pos_as_xyz
1 x,y,z
2 1/2-x,1/2+y,1/2-z
3 -x,-y,-z
4 1/2+x,1/2-y,1/2+z
_cell_length_a                   16.486(8)
_cell_length_b                   9.501(5)
_cell_length_c                   17.187(8)
_cell_angle_alpha                90
_cell_angle_beta                 112.08(4)
_cell_angle_gamma                90
_cell_volume                     2494.62
_chemical_melting_point          175-177deg.C
_cell_formula_units_Z            4
loop_
_atom_site_label
_atom_site_type_symbol
_atom_site_fract_x
_atom_site_fract_y
_atom_site_fract_z
O1 O 0.0469(1) 0.5230(2) 0.2374(1)
C1 C 0.0073(1) 0.5656(3) 0.2900(1)
O2 O -0.0615(1) 0.5197(2) 0.2863(1)
C2 C 0.0599(2) 0.6727(3) 0.3520(1)
C3 C 0.1349(2) 0.7456(3) 0.3378(2)
C4 C 0.1549(2) 0.6336(3) 0.4024(2)
C5 C 0.0097(2) 0.7567(3) 0.3957(2)
O3 O 0.0701(1) 0.8511(2) 0.4542(1)
C6 C 0.0704(2) 0.8232(3) 0.5367(2)
C7 C 0.0368(2) 0.6743(3) 0.5324(2)
N1 N -0.0250(1) 0.6689(2) 0.4454(1)
C8 C -0.1142(2) 0.6945(3) 0.4246(2)
O4 O -0.1566(1) 0.6449(2) 0.4627(1)
C9 C -0.1428(2) 0.7910(3) 0.3524(2)
C10 C -0.2250(2) 0.8467(3) 0.3078(2)
C11 C -0.2326(2) 0.9441(3) 0.2463(2)
C12 C -0.1607(2) 0.9854(3) 0.2297(2)
C13 C -0.0787(2) 0.9293(3) 0.2743(2)
C14 C -0.0706(2) 0.8319(3) 0.3361(2)
C15 C 0.0023(1) 0.4226(3) 0.1748(1)
C16 C -0.0683(2) 0.4660(3) 0.1029(1)
C17 C -0.1148(2) 0.3582(3) 0.0499(2)
C18 C -0.0906(2) 0.2183(3) 0.0617(2)
C19 C -0.0142(2) 0.1859(3) 0.1286(2)
C20 C 0.0347(2) 0.2845(3) 0.1865(1)
C21 C -0.1445(2) 0.1064(4) 0.0028(2)
C22 C 0.1206(2) 0.2416(3) 0.2575(2)
C23 C 0.1099(2) 0.2404(3) 0.3418(2)
C24 C 0.1490(2) 0.0937(3) 0.2430(2)
C25 C 0.1955(2) 0.3395(3) 0.2595(2)
C26 C -0.0967(2) 0.6194(3) 0.0768(2)
C27 C -0.1267(2) 0.6320(4) -0.0191(2)
C28 C -0.1739(2) 0.6576(4) 0.1011(2)
C29 C -0.0226(2) 0.7265(3) 0.1132(2)
H1 H 0.1436(15) 0.8420(26) 0.3575(15)
H2 H 0.1453(16) 0.7195(26) 0.2891(16)
H3 H 0.1755(14) 0.5439(23) 0.3904(13)
H4 H 0.1784(18) 0.6671(28) 0.4597(18)
H5 H 0.1319(17) 0.8414(27) 0.5790(17)
H6 H 0.0250(16) 0.8884(28) 0.5492(16)
H7 H 0.0842(15) 0.6019(26) 0.5427(15)
H8 H 0.0073(15) 0.6602(26) 0.5724(15)
H9 H -0.2750(15) 0.8167(25) 0.3199(14)
H10 H -0.2889(18) 0.9925(32) 0.2133(18)
H11 H -0.1685(18) 1.0506(30) 0.1844(17)
H12 H -0.0288(15) 0.9587(25) 0.2629(14)
H13 H -0.1680(15) 0.3824(26) 0.0032(15)
H14 H 0.0065(15) 0.0891(26) 0.1325(15)
H15 H -0.1079 0.0515 -0.0178
H16 H -0.1898 0.1506 -0.0436
H17 H -0.1705 0.0462 0.0319
H18 H 0.0945(17) 0.3377(29) 0.3556(16)
H19 H 0.0592(16) 0.1798(27) 0.3403(16)
H20 H 0.1659(20) 0.2083(33) 0.3844(19)
H21 H 0.1567(16) 0.0883(28) 0.1927(16)
H22 H 0.2004(15) 0.0700(26) 0.2883(15)
H23 H 0.1052(19) 0.0106(32) 0.2450(17)
H24 H 0.1868(15) 0.4322(26) 0.2693(14)
H25 H 0.2088(18) 0.3367(30) 0.1994(17)
H26 H 0.2521(17) 0.3051(29) 0.3045(16)
H27 H -0.1422(20) 0.7324(35) -0.0373(19)
H28 H -0.1797(19) 0.5767(33) -0.0513(18)
H29 H -0.0782(23) 0.6009(37) -0.0402(21)
H30 H -0.1608(19) 0.6561(34) 0.1611(19)
H31 H -0.1941(20) 0.7544(36) 0.0851(20)
H32 H -0.2267(23) 0.5824(39) 0.0688(24)
H33 H -0.0072(20) 0.7541(35) 0.1756(20)
H34 H -0.0410(18) 0.8166(30) 0.0812(18)
H35 H 0.0327(22) 0.6916(35) 0.1005(20)
loop_
_geom_bond_atom_site_label_1
_geom_bond_atom_site_label_2
_geom_bond_site_symmetry_1
_geom_bond_site_symmetry_2
O1 C1 1_555 1_555
C1 O2 1_555 1_555
C2 C1 1_555 1_555
C3 C2 1_555 1_555
C4 C2 1_555 1_555
C5 C2 1_555 1_555
O3 C5 1_555 1_555
C6 O3 1_555 1_555
C7 C6 1_555 1_555
N1 C5 1_555 1_555
C8 N1 1_555 1_555
O4 C8 1_555 1_555
C9 C8 1_555 1_555
C10 C9 1_555 1_555
C11 C10 1_555 1_555
C12 C11 1_555 1_555
C13 C12 1_555 1_555
C14 C5 1_555 1_555
C15 O1 1_555 1_555
C16 C15 1_555 1_555
C17 C16 1_555 1_555
C18 C17 1_555 1_555
C19 C18 1_555 1_555
C20 C15 1_555 1_555
C21 C18 1_555 1_555
C22 C20 1_555 1_555
C23 C22 1_555 1_555
C24 C22 1_555 1_555
C25 C22 1_555 1_555
C26 C16 1_555 1_555
C27 C26 1_555 1_555
C28 C26 1_555 1_555
C29 C26 1_555 1_555
H1 C3 1_555 1_555
H2 C3 1_555 1_555
H3 C4 1_555 1_555
H4 C4 1_555 1_555
H5 C6 1_555 1_555
H6 C6 1_555 1_555
H7 C7 1_555 1_555
H8 C7 1_555 1_555
H9 C10 1_555 1_555
H10 C11 1_555 1_555
H11 C12 1_555 1_555
H12 C13 1_555 1_555
H13 C17 1_555 1_555
H14 C19 1_555 1_555
H15 C21 1_555 1_555
H16 C21 1_555 1_555
H17 C21 1_555 1_555
H18 C23 1_555 1_555
H19 C23 1_555 1_555
H20 C23 1_555 1_555
H21 C24 1_555 1_555
H22 C24 1_555 1_555
H23 C24 1_555 1_555
H24 C25 1_555 1_555
H25 C25 1_555 1_555
H26 C25 1_555 1_555
H27 C27 1_555 1_555
H28 C27 1_555 1_555
H29 C27 1_555 1_555
H30 C28 1_555 1_555
H31 C28 1_555 1_555
H32 C28 1_555 1_555
H33 C29 1_555 1_555
H34 C29 1_555 1_555
H35 C29 1_555 1_555
C3 C4 1_555 1_555
C7 N1 1_555 1_555
C9 C14 1_555 1_555
C13 C14 1_555 1_555
C19 C20 1_555 1_555

#END
