
#######################################################################
#
#                 Cambridge Crystallographic Data Centre
#                                CCDC 
#
#######################################################################
#
# If this CIF has been generated from an entry in the Cambridge 
# Structural Database, then it will include bibliographic, chemical, 
# crystal, experimental, refinement or atomic coordinate data resulting 
# from the CCDC's data processing and validation procedures.
#
#######################################################################

data_KERXAH
_chemical_formula_moiety         'C13 H16 N1 1+,I1 1-'
_chemical_name_systematic        '1-Butylquinolinium iodide'
_symmetry_cell_setting           orthorhombic
_symmetry_space_group_name_H-M   'P b c a'
_symmetry_Int_Tables_number      61
_space_group_name_Hall           '-P 2ac 2ab'
loop_
_symmetry_equiv_pos_site_id
_symmetry_equiv_pos_as_xyz
1 x,y,z
2 1/2-x,-y,1/2+z
3 -x,1/2+y,1/2-z
4 1/2+x,1/2-y,-z
5 -x,-y,-z
6 1/2+x,y,1/2-z
7 x,1/2-y,1/2+z
8 1/2-x,1/2+y,z
_cell_length_a                   11.2807(4)
_cell_length_b                   13.9968(5)
_cell_length_c                   16.7612(6)
_cell_angle_alpha                90
_cell_angle_beta                 90
_cell_angle_gamma                90
_cell_volume                     2646.49
_exptl_crystal_colour            yellow
_exptl_crystal_description       block
_cell_formula_units_Z            8
_exptl_crystal_recrystallization_method 'dichloromethane/diethyl ether'
loop_
_atom_site_label
_atom_site_type_symbol
_atom_site_fract_x
_atom_site_fract_y
_atom_site_fract_z
I1 I 0.225397(16) 1.212518(10) 0.297207(9)
N1 N 0.09157(17) 0.90771(12) 0.15899(10)
C1 C 0.0718(2) 0.81567(15) 0.14577(14)
H1 H 0.0494 0.7768 0.1882
C2 C 0.0835(2) 0.77582(15) 0.07073(15)
H2 H 0.0681 0.7112 0.0628
C3 C 0.1175(2) 0.83141(16) 0.00892(14)
H3 H 0.1281 0.8046 -0.0414
C4 C 0.1716(2) 0.99133(18) -0.04233(14)
H4 H 0.1852 0.9663 -0.0929
C5 C 0.1852(2) 1.0864(2) -0.02936(17)
H5 H 0.2080 1.1263 -0.0710
C6 C 0.1650(2) 1.12410(17) 0.04623(17)
H6 H 0.1731 1.1896 0.0540
C7 C 0.1339(2) 1.06805(16) 0.10929(15)
H7 H 0.1218 1.0946 0.1595
C8 C 0.12040(18) 0.96932(14) 0.09702(12)
C9 C 0.13699(19) 0.93000(15) 0.02056(12)
C10 C 0.0850(2) 0.94245(17) 0.24321(13)
H8 H 0.1416 0.9939 0.2507
H9 H 0.1065 0.8909 0.2790
C11 C -0.0373(2) 0.97772(19) 0.26403(15)
H10 H -0.0958 0.9304 0.2486
H11 H -0.0539 1.0362 0.2350
C12 C -0.0456(3) 0.9965(2) 0.35420(16)
H12 H 0.0218 1.0348 0.3705
H13 H -0.1168 1.0332 0.3649
C13 C -0.0485(3) 0.9059(3) 0.4042(2)
H14 H -0.1092 0.8640 0.3844
H15 H -0.0650 0.9220 0.4588
H16 H 0.0270 0.8744 0.4010
loop_
_geom_bond_atom_site_label_1
_geom_bond_atom_site_label_2
_geom_bond_site_symmetry_1
_geom_bond_site_symmetry_2
N1 C1 1_555 1_555
C1 H1 1_555 1_555
C2 C1 1_555 1_555
H2 C2 1_555 1_555
C3 C2 1_555 1_555
H3 C3 1_555 1_555
C4 H4 1_555 1_555
C5 C4 1_555 1_555
H5 C5 1_555 1_555
C6 C5 1_555 1_555
H6 C6 1_555 1_555
C7 C6 1_555 1_555
H7 C7 1_555 1_555
C8 N1 1_555 1_555
C9 C3 1_555 1_555
C10 N1 1_555 1_555
H8 C10 1_555 1_555
H9 C10 1_555 1_555
C11 C10 1_555 1_555
H10 C11 1_555 1_555
H11 C11 1_555 1_555
C12 C11 1_555 1_555
H12 C12 1_555 1_555
H13 C12 1_555 1_555
C13 C12 1_555 1_555
H14 C13 1_555 1_555
H15 C13 1_555 1_555
H16 C13 1_555 1_555
C4 C9 1_555 1_555
C7 C8 1_555 1_555
C8 C9 1_555 1_555

#END
