
#######################################################################
#
#                 Cambridge Crystallographic Data Centre
#                                CCDC 
#
#######################################################################
#
# If this CIF has been generated from an entry in the Cambridge 
# Structural Database, then it will include bibliographic, chemical, 
# crystal, experimental, refinement or atomic coordinate data resulting 
# from the CCDC's data processing and validation procedures.
#
#######################################################################

data_KESNEB
_chemical_formula_moiety         'C11 H13 N3 O5'
_chemical_name_systematic        '2,4-Dinitrophenyl-t-butyl nitrone'
_symmetry_cell_setting           monoclinic
_symmetry_space_group_name_H-M   'C 2/c'
_symmetry_Int_Tables_number      15
_space_group_name_Hall           '-C 2yn'
loop_
_symmetry_equiv_pos_site_id
_symmetry_equiv_pos_as_xyz
1 x,y,z
2 1/2+x,1/2+y,z
3 -x,y,1/2-z
4 1/2-x,1/2+y,1/2-z
5 -x,-y,-z
6 1/2-x,1/2-y,-z
7 x,-y,1/2+z
8 1/2+x,1/2-y,1/2+z
_cell_length_a                   18.546(3)
_cell_length_b                   5.729(1)
_cell_length_c                   27.479(5)
_cell_angle_alpha                90
_cell_angle_beta                 118.42(1)
_cell_angle_gamma                90
_cell_volume                     2567.78
_exptl_crystal_colour            orange
_cell_formula_units_Z            8
loop_
_atom_site_label
_atom_site_type_symbol
_atom_site_fract_x
_atom_site_fract_y
_atom_site_fract_z
O1 O 0.5995(2) 0.8173(5) 0.7694(1)
O2 O 0.5612(1) 1.1407(5) 0.7255(1)
O3 O 0.7875(2) 1.6987(6) 0.8016(1)
O4 O 0.8356(2) 1.7926(4) 0.8865(1)
O5 O 0.6520(2) 0.9680(5) 0.9656(1)
N1 N 0.6017(2) 1.0290(5) 0.7673(1)
N2 N 0.7947(2) 1.6680(5) 0.8474(1)
N3 N 0.6083(1) 0.8699(4) 0.9190(1)
C1 C 0.6660(2) 1.0968(5) 0.8698(1)
C2 C 0.6572(2) 1.1595(5) 0.8176(1)
C3 C 0.6980(2) 1.3415(5) 0.8096(1)
C4 C 0.7518(2) 1.4680(5) 0.8552(1)
C5 C 0.7652(2) 1.4129(6) 0.9076(1)
C6 C 0.7232(2) 1.2303(6) 0.9146(1)
C7 C 0.6144(2) 0.9196(5) 0.8747(1)
C8 C 0.5437(2) 0.7016(5) 0.9178(1)
C9 C 0.4792(3) 0.8546(7) 0.9198(2)
C10 C 0.5849(3) 0.5486(6) 0.9687(1)
C11 C 0.5092(3) 0.5474(7) 0.8666(2)
loop_
_geom_bond_atom_site_label_1
_geom_bond_atom_site_label_2
_geom_bond_site_symmetry_1
_geom_bond_site_symmetry_2
O1 N1 1_555 1_555
O2 N1 1_555 1_555
O3 N2 1_555 1_555
O4 N2 1_555 1_555
O5 N3 1_555 1_555
N1 C2 1_555 1_555
N2 C4 1_555 1_555
N3 C7 1_555 1_555
C1 C2 1_555 1_555
C2 C3 1_555 1_555
C3 C4 1_555 1_555
C4 C5 1_555 1_555
C5 C6 1_555 1_555
C6 C1 1_555 1_555
C7 C1 1_555 1_555
C8 N3 1_555 1_555
C9 C8 1_555 1_555
C10 C8 1_555 1_555
C11 C8 1_555 1_555

#END
