
#######################################################################
#
#                 Cambridge Crystallographic Data Centre
#                                CCDC 
#
#######################################################################
#
# If this CIF has been generated from an entry in the Cambridge 
# Structural Database, then it will include bibliographic, chemical, 
# crystal, experimental, refinement or atomic coordinate data resulting 
# from the CCDC's data processing and validation procedures.
#
#######################################################################

data_KESQOQ
_chemical_formula_moiety         'C11 H12 N2 O3 S1'
_chemical_name_systematic        
'Methyl 4-(2-furyl)-6-methyl-2-thioxo-1,2,3,4-tetrahydropyrimidine-5-carboxylate'
_symmetry_cell_setting           triclinic
_symmetry_space_group_name_H-M   'P -1'
_symmetry_Int_Tables_number      2
_space_group_name_Hall           '-P 1'
loop_
_symmetry_equiv_pos_site_id
_symmetry_equiv_pos_as_xyz
1 x,y,z
2 -x,-y,-z
_cell_length_a                   7.2590(14)
_cell_length_b                   7.8640(16)
_cell_length_c                   10.552(2)
_cell_angle_alpha                85.691(3)
_cell_angle_beta                 88.594(2)
_cell_angle_gamma                80.156(3)
_cell_volume                     591.77
_exptl_crystal_colour            colorless
_exptl_crystal_description       bar
_cell_formula_units_Z            2
loop_
_atom_site_label
_atom_site_type_symbol
_atom_site_fract_x
_atom_site_fract_y
_atom_site_fract_z
C1 C 0.9286(4) -0.1092(3) 0.1301(2)
H1 H 1.0169 -0.2073 0.1176
C2 C 0.7520(4) -0.0873(3) 0.0955(2)
H2 H 0.6947 -0.1657 0.0557
C3 C 0.6668(3) 0.0782(3) 0.1306(2)
H3 H 0.5429 0.1301 0.1180
C4 C 0.7991(3) 0.1455(3) 0.18559(17)
C5 C 0.8013(3) 0.3125(3) 0.24358(18)
H4 H 0.6756 0.3816 0.2368
C6 C 0.8525(3) 0.2855(3) 0.38312(17)
C7 C 0.6978(3) 0.2556(3) 0.46846(19)
C8 C 0.6007(4) 0.1722(5) 0.6756(2)
H5 H 0.5110 0.2758 0.6842
H6 H 0.6540 0.1318 0.7570
H7 H 0.5398 0.0849 0.6443
C9 C 1.0312(3) 0.2826(3) 0.41661(18)
C10 C 1.1145(3) 0.2411(4) 0.5460(2)
H8 H 1.0431 0.3133 0.6054
H9 H 1.2413 0.2614 0.5434
H10 H 1.1126 0.1218 0.5722
C11 C 1.1108(3) 0.3980(2) 0.20618(18)
N1 N 1.1587(2) 0.3238(2) 0.32429(15)
H11 H 1.2755 0.3010 0.3427
N2 N 0.9327(2) 0.4107(2) 0.17576(16)
H12 H 0.8916 0.4808 0.1123
O1 O 0.9635(2) 0.0322(2) 0.18685(14)
O2 O 0.5395(2) 0.2688(3) 0.43307(15)
O3 O 0.7465(2) 0.2086(3) 0.58789(15)
S1 S 1.27142(7) 0.47366(7) 0.10978(5)
loop_
_geom_bond_atom_site_label_1
_geom_bond_atom_site_label_2
_geom_bond_site_symmetry_1
_geom_bond_site_symmetry_2
C1 H1 1_555 1_555
C2 C1 1_555 1_555
H2 C2 1_555 1_555
C3 C2 1_555 1_555
H3 C3 1_555 1_555
C4 C3 1_555 1_555
C5 C4 1_555 1_555
H4 C5 1_555 1_555
C6 C5 1_555 1_555
C7 C6 1_555 1_555
C8 H5 1_555 1_555
H6 C8 1_555 1_555
H7 C8 1_555 1_555
C9 C6 1_555 1_555
C10 C9 1_555 1_555
H8 C10 1_555 1_555
H9 C10 1_555 1_555
H10 C10 1_555 1_555
C11 N1 1_555 1_555
N1 C9 1_555 1_555
H11 N1 1_555 1_555
N2 C5 1_555 1_555
H12 N2 1_555 1_555
O1 C1 1_555 1_555
O2 C7 1_555 1_555
O3 C7 1_555 1_555
S1 C11 1_555 1_555
C4 O1 1_555 1_555
C8 O3 1_555 1_555
C11 N2 1_555 1_555

#END
