
#######################################################################
#
#                 Cambridge Crystallographic Data Centre
#                                CCDC 
#
#######################################################################
#
# If this CIF has been generated from an entry in the Cambridge 
# Structural Database, then it will include bibliographic, chemical, 
# crystal, experimental, refinement or atomic coordinate data resulting 
# from the CCDC's data processing and validation procedures.
#
#######################################################################

data_KESWUD
_chemical_formula_moiety         'C25 H22 N2 O2'
_chemical_name_systematic        
1-[3-(4-methoxyphenyl)-4-methylidene-2-phenyl-1,2-oxazolidin-5-yl]-1H-indole
_symmetry_cell_setting           monoclinic
_symmetry_space_group_name_H-M   'P 21/c'
_symmetry_Int_Tables_number      14
_space_group_name_Hall           '-P 2ybc'
loop_
_symmetry_equiv_pos_site_id
_symmetry_equiv_pos_as_xyz
1 x,y,z
2 -x,1/2+y,1/2-z
3 -x,-y,-z
4 x,1/2-y,1/2+z
_cell_length_a                   15.5784(11)
_cell_length_b                   8.4062(3)
_cell_length_c                   17.127(4)
_cell_angle_alpha                90
_cell_angle_beta                 119.102(12)
_cell_angle_gamma                90
_cell_volume                     1959.72
_exptl_crystal_colour            colorless
_exptl_crystal_description       prism
_cell_formula_units_Z            4
loop_
_atom_site_label
_atom_site_type_symbol
_atom_site_fract_x
_atom_site_fract_y
_atom_site_fract_z
O1 O -0.51192(9) 0.19865(14) -0.35443(9)
O2 O -0.04448(8) -0.33594(12) -0.17348(8)
N1 N 0.03595(10) -0.08710(15) -0.16315(10)
N2 N -0.13467(10) -0.28547(15) -0.17217(10)
C1 C -0.49842(15) 0.3295(2) -0.29559(14)
H1 H -0.5553 0.3970 -0.3222
H2 H -0.4416 0.3895 -0.2857
H3 H -0.4894 0.2896 -0.2396
C2 C 0.27490(13) 0.0678(2) -0.01066(12)
H4 H 0.2997 0.1457 0.0334
C3 C -0.44953(13) -0.03658(19) -0.38278(12)
H5 H -0.5089 -0.0485 -0.4353
C4 C 0.33696(14) -0.0187(2) -0.03066(13)
H6 H 0.4043 -0.0006 0.0016
C5 C 0.13783(13) -0.08130(19) -0.12625(12)
C6 C -0.16463(13) -0.41548(19) -0.13709(11)
C7 C -0.02701(13) -0.21163(18) -0.22135(12)
H7 H 0.0048 -0.2582 -0.2532
C8 C -0.28348(14) -0.5198(2) -0.09785(12)
H8 H -0.3431 -0.5099 -0.0981
C9 C 0.08992(13) 0.09818(19) -0.05398(12)
H9 H 0.0908 0.1767 -0.0154
C10 C -0.28552(13) -0.13250(18) -0.28218(12)
C11 C 0.17322(13) 0.03601(18) -0.05819(12)
C12 C -0.25492(13) -0.4034(2) -0.13798(12)
H10 H -0.2958 -0.3169 -0.1656
C13 C -0.43582(13) 0.0913(2) -0.32581(12)
C14 C -0.22411(13) -0.6507(2) -0.05745(12)
H11 H -0.2438 -0.7289 -0.0311
C15 C 0.00965(14) 0.02072(18) -0.11693(12)
H12 H -0.0542 0.0374 -0.1277
C16 C -0.37459(13) -0.1454(2) -0.36082(12)
H13 H -0.3840 -0.2292 -0.3996
C17 C -0.12844(13) -0.15674(18) -0.28940(12)
C18 C -0.34842(13) 0.10381(19) -0.24536(12)
H14 H -0.3397 0.1862 -0.2059
C19 C 0.20057(13) -0.16499(19) -0.14845(13)
H15 H 0.1762 -0.2388 -0.1948
C20 C -0.14979(14) -0.05768(19) -0.35630(12)
H16 H -0.0998 -0.0150 -0.3646
H17 H -0.2148 -0.0306 -0.3950
C21 C -0.20077(13) -0.24026(18) -0.26714(12)
H18 H -0.2261 -0.3364 -0.3037
C22 C -0.13504(14) -0.6638(2) -0.05680(12)
H19 H -0.0946 -0.7510 -0.0295
C23 C 0.30023(13) -0.1340(2) -0.09899(13)
H20 H 0.3438 -0.1904 -0.1111
C24 C -0.27446(13) -0.00699(19) -0.22430(12)
H21 H -0.2162 0.0023 -0.1705
C25 C -0.10561(13) -0.54743(19) -0.09676(12)
H22 H -0.0460 -0.5580 -0.0965
loop_
_geom_bond_atom_site_label_1
_geom_bond_atom_site_label_2
_geom_bond_site_symmetry_1
_geom_bond_site_symmetry_2
O1 C1 1_555 1_555
O2 N2 1_555 1_555
N1 C5 1_555 1_555
N2 C6 1_555 1_555
C1 H1 1_555 1_555
H2 C1 1_555 1_555
H3 C1 1_555 1_555
C2 H4 1_555 1_555
C3 H5 1_555 1_555
C4 C2 1_555 1_555
H6 C4 1_555 1_555
C5 C11 1_555 1_555
C6 C12 1_555 1_555
C7 O2 1_555 1_555
H7 C7 1_555 1_555
C8 H8 1_555 1_555
C9 H9 1_555 1_555
C10 C16 1_555 1_555
C11 C2 1_555 1_555
C12 C8 1_555 1_555
H10 C12 1_555 1_555
C13 O1 1_555 1_555
C14 C8 1_555 1_555
H11 C14 1_555 1_555
C15 N1 1_555 1_555
H12 C15 1_555 1_555
C16 C3 1_555 1_555
H13 C16 1_555 1_555
C17 C7 1_555 1_555
C18 C13 1_555 1_555
H14 C18 1_555 1_555
C19 C5 1_555 1_555
H15 C19 1_555 1_555
C20 C17 1_555 1_555
H16 C20 1_555 1_555
H17 C20 1_555 1_555
C21 N2 1_555 1_555
H18 C21 1_555 1_555
C22 C14 1_555 1_555
H19 C22 1_555 1_555
C23 C4 1_555 1_555
H20 C23 1_555 1_555
C24 C10 1_555 1_555
H21 C24 1_555 1_555
C25 C6 1_555 1_555
H22 C25 1_555 1_555
N1 C7 1_555 1_555
C3 C13 1_555 1_555
C9 C11 1_555 1_555
C9 C15 1_555 1_555
C10 C21 1_555 1_555
C17 C21 1_555 1_555
C18 C24 1_555 1_555
C19 C23 1_555 1_555
C22 C25 1_555 1_555

#END
