
#######################################################################
#
#                 Cambridge Crystallographic Data Centre
#                                CCDC 
#
#######################################################################
#
# If this CIF has been generated from an entry in the Cambridge 
# Structural Database, then it will include bibliographic, chemical, 
# crystal, experimental, refinement or atomic coordinate data resulting 
# from the CCDC's data processing and validation procedures.
#
#######################################################################

data_KESWAJ
_chemical_name_common            hexabenzylhexaaza[3.3.3]propellane
_chemical_formula_moiety         'C47 H48 N6'
_chemical_name_systematic        
2,4,6,8,9,11-hexabenzyl-2,4,6,8,9,11-hexaazatricyclo[3.3.3.0^1,5^]undecane
_symmetry_cell_setting           triclinic
_symmetry_space_group_name_H-M   'P -1'
_symmetry_Int_Tables_number      2
_space_group_name_Hall           '-P 1'
loop_
_symmetry_equiv_pos_site_id
_symmetry_equiv_pos_as_xyz
1 x,y,z
2 -x,-y,-z
_cell_length_a                   10.3961(2)
_cell_length_b                   12.3814(3)
_cell_length_c                   15.9331(4)
_cell_angle_alpha                107.234(2)
_cell_angle_beta                 98.1210(10)
_cell_angle_gamma                90.0450(10)
_cell_volume                     1937.19
_exptl_crystal_colour            colorless
_exptl_crystal_description       plate
_cell_formula_units_Z            2
loop_
_atom_site_label
_atom_site_type_symbol
_atom_site_fract_x
_atom_site_fract_y
_atom_site_fract_z
N1 N 0.88644(11) 1.13256(11) 0.32633(8)
C1 C 0.96241(14) 1.11511(14) 0.40557(10)
H1 H 0.9463 1.1733 0.4586
H2 H 0.9397 1.0418 0.4111
N2 N 1.09806(11) 1.12127(10) 0.39353(8)
C2 C 1.09280(13) 1.06096(12) 0.29790(9)
N3 N 1.17572(11) 1.11539(10) 0.25383(8)
C3 C 1.09763(14) 1.10987(14) 0.16808(10)
H3 H 1.1288 1.1671 0.1444
H4 H 1.1019 1.0360 0.1254
N4 N 0.96519(11) 1.13027(10) 0.18645(8)
C4 C 0.95241(13) 1.07081(12) 0.25202(9)
N5 N 0.90135(12) 0.95457(10) 0.20854(8)
C5 C 0.98361(17) 0.87973(15) 0.24351(14)
H5 H 0.9943 0.8112 0.1965
H6 H 0.9450 0.8591 0.2889
N6 N 1.10870(12) 0.93916(10) 0.28117(8)
C6 C 0.74802(15) 1.10276(15) 0.31672(11)
H7 H 0.7377 1.0240 0.3143
H8 H 0.7050 1.1108 0.2609
C7 C 0.68291(15) 1.17469(16) 0.39123(11)
C8 C 0.59787(17) 1.1247(2) 0.42940(14)
H9 H 0.5872 1.0463 0.4123
C9 C 0.5288(2) 1.1893(3) 0.49221(16)
H10 H 0.4725 1.1541 0.5174
C10 C 0.5421(2) 1.3041(3) 0.51794(15)
H11 H 0.4933 1.3474 0.5593
C11 C 0.6279(2) 1.3555(2) 0.48247(16)
H12 H 0.6388 1.4340 0.5007
C12 C 0.69860(19) 1.29071(18) 0.41949(13)
H13 H 0.7573 1.3262 0.3961
C13 C 1.15321(16) 1.23714(13) 0.42503(10)
H14 H 1.0930 1.2859 0.4033
H15 H 1.2333 1.2399 0.4009
C14 C 1.18113(15) 1.28120(14) 0.52526(10)
C15 C 1.22219(16) 1.21232(16) 0.57658(11)
H16 H 1.2265 1.1350 0.5497
C16 C 1.2573(2) 1.2565(2) 0.66790(13)
H17 H 1.2854 1.2088 0.7016
C17 C 1.2507(2) 1.3695(2) 0.70835(14)
H18 H 1.2745 1.3992 0.7695
C18 C 1.2091(3) 1.4389(2) 0.65859(15)
H19 H 1.2046 1.5161 0.6860
C19 C 1.1738(2) 1.39539(16) 0.56787(13)
H20 H 1.1446 1.4436 0.5349
C20 C 1.30489(15) 1.07147(14) 0.24638(11)
H21 H 1.2967 0.9944 0.2071
H22 H 1.3465 1.0698 0.3044
C21 C 1.38970(14) 1.14199(15) 0.21100(11)
C22 C 1.44085(19) 1.09538(19) 0.13397(13)
H23 H 1.4190 1.0205 0.1011
C23 C 1.5248(2) 1.1588(3) 0.10470(17)
H24 H 1.5588 1.1260 0.0525
C24 C 1.5576(2) 1.2690(3) 0.15216(19)
H25 H 1.6146 1.3112 0.1329
C25 C 1.5064(2) 1.3162(2) 0.22779(17)
H26 H 1.5277 1.3914 0.2600
C26 C 1.42249(17) 1.25342(17) 0.25739(13)
H27 H 1.3880 1.2870 0.3092
C27 C 0.93173(17) 1.24789(13) 0.20592(11)
H28 H 1.0024 1.2951 0.2465
H29 H 0.8549 1.2586 0.2352
C28 C 0.90587(14) 1.28496(13) 0.12325(10)
C29 C 0.86104(16) 1.21073(15) 0.04022(11)
H30 H 0.8492 1.1341 0.0339
C30 C 0.83378(19) 1.24831(18) -0.03286(13)
H31 H 0.8039 1.1968 -0.0880
C31 C 0.8497(2) 1.3596(2) -0.02603(15)
H32 H 0.8308 1.3846 -0.0758
C32 C 0.8946(3) 1.43479(19) 0.05601(17)
H33 H 0.9058 1.5113 0.0618
C33 C 0.9229(2) 1.39725(16) 0.12925(13)
H34 H 0.9542 1.4489 0.1840
C34 C 0.85411(19) 0.91573(16) 0.11399(11)
H35 H 0.9267 0.8896 0.0823
H36 H 0.8190 0.9790 0.0955
C35 C 0.75128(17) 0.82200(14) 0.08832(11)
C36 C 0.7668(2) 0.72043(18) 0.02552(17)
H37 H 0.8430 0.7077 0.0005
C37 C 0.6645(3) 0.63567(18) -0.0002(2)
H38 H 0.6724 0.5671 -0.0429
C38 C 0.5543(3) 0.6563(2) 0.0386(2)
H39 H 0.4880 0.6003 0.0225
C39 C 0.5392(2) 0.7549(2) 0.09920(17)
H40 H 0.4629 0.7676 0.1242
C40 C 0.63712(19) 0.83665(18) 0.12386(13)
H41 H 0.6262 0.9048 0.1663
C41 C 1.17676(18) 0.90070(14) 0.35338(11)
H42 H 1.1225 0.9108 0.3997
H43 H 1.2564 0.9466 0.3788
C42 C 1.20890(17) 0.77821(15) 0.32111(11)
C43 C 1.13643(19) 0.69491(16) 0.33823(14)
H44 H 1.0664 0.7148 0.3693
C44 C 1.1676(3) 0.58259(19) 0.30948(17)
H45 H 1.1193 0.5275 0.3220
C45 C 1.2686(3) 0.5526(2) 0.26301(17)
H46 H 1.2880 0.4768 0.2429
C46 C 1.3418(3) 0.6327(2) 0.24557(15)
H47 H 1.4112 0.6115 0.2142
C47 C 1.3124(2) 0.74597(18) 0.27477(13)
H48 H 1.3627 0.8005 0.2631
loop_
_geom_bond_atom_site_label_1
_geom_bond_atom_site_label_2
_geom_bond_site_symmetry_1
_geom_bond_site_symmetry_2
N1 C1 1_555 1_555
C1 H1 1_555 1_555
H2 C1 1_555 1_555
N2 C1 1_555 1_555
C2 N2 1_555 1_555
N3 C2 1_555 1_555
C3 N3 1_555 1_555
H3 C3 1_555 1_555
H4 C3 1_555 1_555
N4 C3 1_555 1_555
C4 N1 1_555 1_555
N5 C4 1_555 1_555
C5 N5 1_555 1_555
H5 C5 1_555 1_555
H6 C5 1_555 1_555
N6 C2 1_555 1_555
C6 N1 1_555 1_555
H7 C6 1_555 1_555
H8 C6 1_555 1_555
C7 C6 1_555 1_555
C8 C7 1_555 1_555
H9 C8 1_555 1_555
C9 C8 1_555 1_555
H10 C9 1_555 1_555
C10 C9 1_555 1_555
H11 C10 1_555 1_555
C11 C10 1_555 1_555
H12 C11 1_555 1_555
C12 C7 1_555 1_555
H13 C12 1_555 1_555
C13 N2 1_555 1_555
H14 C13 1_555 1_555
H15 C13 1_555 1_555
C14 C13 1_555 1_555
C15 C14 1_555 1_555
H16 C15 1_555 1_555
C16 C15 1_555 1_555
H17 C16 1_555 1_555
C17 C16 1_555 1_555
H18 C17 1_555 1_555
C18 C17 1_555 1_555
H19 C18 1_555 1_555
C19 C14 1_555 1_555
H20 C19 1_555 1_555
C20 N3 1_555 1_555
H21 C20 1_555 1_555
H22 C20 1_555 1_555
C21 C20 1_555 1_555
C22 C21 1_555 1_555
H23 C22 1_555 1_555
C23 C22 1_555 1_555
H24 C23 1_555 1_555
C24 C23 1_555 1_555
H25 C24 1_555 1_555
C25 C24 1_555 1_555
H26 C25 1_555 1_555
C26 C21 1_555 1_555
H27 C26 1_555 1_555
C27 N4 1_555 1_555
H28 C27 1_555 1_555
H29 C27 1_555 1_555
C28 C27 1_555 1_555
C29 C28 1_555 1_555
H30 C29 1_555 1_555
C30 C29 1_555 1_555
H31 C30 1_555 1_555
C31 C30 1_555 1_555
H32 C31 1_555 1_555
C32 C31 1_555 1_555
H33 C32 1_555 1_555
C33 C28 1_555 1_555
H34 C33 1_555 1_555
C34 N5 1_555 1_555
H35 C34 1_555 1_555
H36 C34 1_555 1_555
C35 C34 1_555 1_555
C36 C35 1_555 1_555
H37 C36 1_555 1_555
C37 C36 1_555 1_555
H38 C37 1_555 1_555
C38 C37 1_555 1_555
H39 C38 1_555 1_555
C39 C38 1_555 1_555
H40 C39 1_555 1_555
C40 C35 1_555 1_555
H41 C40 1_555 1_555
C41 N6 1_555 1_555
H42 C41 1_555 1_555
H43 C41 1_555 1_555
C42 C41 1_555 1_555
C43 C42 1_555 1_555
H44 C43 1_555 1_555
C44 C43 1_555 1_555
H45 C44 1_555 1_555
C45 C44 1_555 1_555
H46 C45 1_555 1_555
C46 C45 1_555 1_555
H47 C46 1_555 1_555
C47 C42 1_555 1_555
H48 C47 1_555 1_555
C2 C4 1_555 1_555
N4 C4 1_555 1_555
C5 N6 1_555 1_555
C11 C12 1_555 1_555
C18 C19 1_555 1_555
C25 C26 1_555 1_555
C32 C33 1_555 1_555
C39 C40 1_555 1_555
C46 C47 1_555 1_555

#END
