
#######################################################################
#
#                 Cambridge Crystallographic Data Centre
#                                CCDC 
#
#######################################################################
#
# If this CIF has been generated from an entry in the Cambridge 
# Structural Database, then it will include bibliographic, chemical, 
# crystal, experimental, refinement or atomic coordinate data resulting 
# from the CCDC's data processing and validation procedures.
#
#######################################################################

data_KESXAK
_chemical_formula_moiety         'C20 H19 N3 O2'
_chemical_name_systematic        
5-(1H-indol-1-yl)-2-methyl-4-methylidene-N-phenyl-1,2-oxazolidine-3-carboxamide
_symmetry_cell_setting           orthorhombic
_symmetry_space_group_name_H-M   'P b c a'
_symmetry_Int_Tables_number      61
_space_group_name_Hall           '-P 2ac 2ab'
loop_
_symmetry_equiv_pos_site_id
_symmetry_equiv_pos_as_xyz
1 x,y,z
2 1/2-x,-y,1/2+z
3 1/2+x,1/2-y,-z
4 -x,1/2+y,1/2-z
5 -x,-y,-z
6 1/2+x,y,1/2-z
7 1/2-x,1/2+y,z
8 x,1/2-y,1/2+z
_cell_length_a                   30.9293(14)
_cell_length_b                   10.8472(4)
_cell_length_c                   10.0272(4)
_cell_angle_alpha                90
_cell_angle_beta                 90
_cell_angle_gamma                90
_cell_volume                     3364.09
_exptl_crystal_colour            colorless
_exptl_crystal_description       prism
_cell_formula_units_Z            8
loop_
_atom_site_label
_atom_site_type_symbol
_atom_site_fract_x
_atom_site_fract_y
_atom_site_fract_z
O1 O 0.45325(5) 0.36144(14) 0.51741(15)
O2 O 0.35217(5) 0.31088(15) 0.85760(14)
N1 N 0.40415(6) 0.52010(17) 0.44835(17)
N2 N 0.42104(6) 0.27211(16) 0.56899(17)
N3 N 0.33867(6) 0.23500(17) 0.64850(17)
H1 H 0.3489 0.2331 0.5687
C1 C 0.41510(7) 0.57600(19) 0.3284(2)
C2 C 0.29700(7) 0.1834(2) 0.6689(2)
C3 C 0.37636(7) 0.5965(2) 0.2570(2)
C4 C 0.36369(7) 0.28687(19) 0.7437(2)
C5 C 0.43464(7) 0.4785(2) 0.5477(2)
H2 H 0.4579 0.5395 0.5555
C6 C 0.40966(7) 0.32128(19) 0.7011(2)
H3 H 0.4304 0.2917 0.7677
C7 C 0.35965(7) 0.5055(2) 0.4510(2)
H4 H 0.3443 0.4690 0.5202
C8 C 0.41436(7) 0.4595(2) 0.6841(2)
C9 C 0.28422(7) 0.0880(2) 0.5849(2)
H5 H 0.3021 0.0635 0.5153
C10 C 0.45539(7) 0.6113(2) 0.2798(2)
H6 H 0.4805 0.5989 0.3291
C11 C 0.34171(7) 0.5518(2) 0.3381(2)
H7 H 0.3124 0.5540 0.3173
C12 C 0.37875(8) 0.6510(2) 0.1302(2)
H8 H 0.3538 0.6647 0.0806
C13 C 0.41857(9) 0.6840(2) 0.0805(2)
H9 H 0.4204 0.7190 -0.0040
C14 C 0.44378(8) 0.1545(2) 0.5769(2)
H10 H 0.4508 0.1267 0.4887
H11 H 0.4256 0.0947 0.6199
H12 H 0.4699 0.1648 0.6275
C15 C 0.45646(8) 0.6659(2) 0.1546(2)
H13 H 0.4828 0.6910 0.1192
C16 C 0.40431(8) 0.5450(2) 0.7718(2)
H14 H 0.3930 0.5227 0.8543
H15 H 0.4085 0.6278 0.7512
C17 C 0.24493(8) 0.0295(2) 0.6045(2)
H16 H 0.2366 -0.0347 0.5487
C18 C 0.26949(7) 0.2232(2) 0.7701(2)
H17 H 0.2773 0.2889 0.8247
C19 C 0.23014(8) 0.1636(2) 0.7887(2)
H18 H 0.2118 0.1894 0.8566
C20 C 0.21798(8) 0.0670(2) 0.7079(2)
H19 H 0.1918 0.0268 0.7225
loop_
_geom_bond_atom_site_label_1
_geom_bond_atom_site_label_2
_geom_bond_site_symmetry_1
_geom_bond_site_symmetry_2
O1 N2 1_555 1_555
O2 C4 1_555 1_555
N1 C1 1_555 1_555
N2 C6 1_555 1_555
N3 H1 1_555 1_555
C1 C3 1_555 1_555
C2 N3 1_555 1_555
C3 C11 1_555 1_555
C4 N3 1_555 1_555
C5 O1 1_555 1_555
H2 C5 1_555 1_555
C6 C4 1_555 1_555
H3 C6 1_555 1_555
C7 N1 1_555 1_555
H4 C7 1_555 1_555
C8 C5 1_555 1_555
C9 C2 1_555 1_555
H5 C9 1_555 1_555
C10 C1 1_555 1_555
H6 C10 1_555 1_555
C11 C7 1_555 1_555
H7 C11 1_555 1_555
C12 C3 1_555 1_555
H8 C12 1_555 1_555
C13 C12 1_555 1_555
H9 C13 1_555 1_555
C14 N2 1_555 1_555
H10 C14 1_555 1_555
H11 C14 1_555 1_555
H12 C14 1_555 1_555
C15 C10 1_555 1_555
H13 C15 1_555 1_555
C16 C8 1_555 1_555
H14 C16 1_555 1_555
H15 C16 1_555 1_555
C17 C9 1_555 1_555
H16 C17 1_555 1_555
C18 C2 1_555 1_555
H17 C18 1_555 1_555
C19 C18 1_555 1_555
H18 C19 1_555 1_555
C20 C17 1_555 1_555
H19 C20 1_555 1_555
N1 C5 1_555 1_555
C6 C8 1_555 1_555
C13 C15 1_555 1_555
C19 C20 1_555 1_555

#END
