
#######################################################################
#
#                 Cambridge Crystallographic Data Centre
#                                CCDC 
#
#######################################################################
#
# If this CIF has been generated from an entry in the Cambridge 
# Structural Database, then it will include bibliographic, chemical, 
# crystal, experimental, refinement or atomic coordinate data resulting 
# from the CCDC's data processing and validation procedures.
#
#######################################################################

data_KESXIP
_chemical_name_common            'PDB Chemical Component code: B1T'
_chemical_formula_moiety         'C12 H6 Cl4 O2 S1'
_chemical_name_systematic        Bithionol
_chemical_properties_biological  'flukicide activity'
_symmetry_cell_setting           triclinic
_symmetry_space_group_name_H-M   'P -1'
_symmetry_Int_Tables_number      2
_space_group_name_Hall           '-P 1'
loop_
_symmetry_equiv_pos_site_id
_symmetry_equiv_pos_as_xyz
1 x,y,z
2 -x,-y,-z
_cell_length_a                   8.879(2)
_cell_length_b                   10.782(1)
_cell_length_c                   8.511(1)
_cell_angle_alpha                115.43(1)
_cell_angle_beta                 115.22(1)
_cell_angle_gamma                74.44(1)
_cell_volume                     662.065
_exptl_crystal_colour            colorless
_cell_formula_units_Z            2
loop_
_atom_site_label
_atom_site_type_symbol
_atom_site_fract_x
_atom_site_fract_y
_atom_site_fract_z
S1 S 0.9584(1) 0.2830(1) 0.4562(1)
Cl1 Cl 0.8674(1) 0.1476(1) 0.9548(1)
Cl2 Cl 0.5971(1) -0.1418(1) 0.2220(1)
Cl3 Cl 0.6910(1) 0.7925(1) 0.8074(1)
Cl4 Cl 0.3547(1) 0.5075(1) 0.0918(1)
O1 O 0.9993(2) 0.2989(2) 0.8370(2)
O2 O 0.9481(2) 0.5489(2) 0.7719(2)
C1 C 0.8732(2) 0.1773(2) 0.5060(3)
C2 C 0.9048(2) 0.2002(2) 0.6914(3)
C3 C 0.8355(3) 0.1167(2) 0.7258(3)
C4 C 0.7411(3) 0.0129(2) 0.5829(3)
C5 C 0.7133(3) -0.0096(2) 0.4013(3)
C6 C 0.7783(3) 0.0720(2) 0.3601(3)
C7 C 0.7969(3) 0.4233(2) 0.4547(3)
C8 C 0.8113(3) 0.5409(2) 0.6153(3)
C9 C 0.6810(3) 0.6476(2) 0.6092(3)
C10 C 0.5425(3) 0.6381(2) 0.4485(3)
C11 C 0.5313(3) 0.5200(3) 0.2911(3)
C12 C 0.6575(3) 0.4130(2) 0.2918(3)
loop_
_geom_bond_atom_site_label_1
_geom_bond_atom_site_label_2
_geom_bond_site_symmetry_1
_geom_bond_site_symmetry_2
S1 C1 1_555 1_555
Cl1 C3 1_555 1_555
Cl2 C5 1_555 1_555
Cl3 C9 1_555 1_555
Cl4 C11 1_555 1_555
O1 C2 1_555 1_555
O2 C8 1_555 1_555
C1 C2 1_555 1_555
C2 C3 1_555 1_555
C3 C4 1_555 1_555
C4 C5 1_555 1_555
C5 C6 1_555 1_555
C6 C1 1_555 1_555
C7 S1 1_555 1_555
C8 C7 1_555 1_555
C9 C8 1_555 1_555
C10 C9 1_555 1_555
C11 C10 1_555 1_555
C12 C7 1_555 1_555
C11 C12 1_555 1_555

#END
