
#######################################################################
#
#                 Cambridge Crystallographic Data Centre
#                                CCDC 
#
#######################################################################
#
# If this CIF has been generated from an entry in the Cambridge 
# Structural Database, then it will include bibliographic, chemical, 
# crystal, experimental, refinement or atomic coordinate data resulting 
# from the CCDC's data processing and validation procedures.
#
#######################################################################

data_KESZOX
_chemical_formula_moiety         'C10 H21 N4 P1 S2'
_chemical_name_systematic        
1-Dithiocarboxylato-2,8,9-trimethyl-1-phosphonia-2,5,8,9-tetra-azabicyclo(3.3.3)undecane
_symmetry_cell_setting           monoclinic
_symmetry_space_group_name_H-M   'P 21/n'
_symmetry_Int_Tables_number      14
_space_group_name_Hall           '-P 2yn'
loop_
_symmetry_equiv_pos_site_id
_symmetry_equiv_pos_as_xyz
1 x,y,z
2 1/2-x,1/2+y,1/2-z
3 -x,-y,-z
4 1/2+x,1/2-y,1/2+z
_cell_length_a                   7.9102(9)
_cell_length_b                   13.730(1)
_cell_length_c                   13.036(2)
_cell_angle_alpha                90
_cell_angle_beta                 91.856(5)
_cell_angle_gamma                90
_cell_volume                     1415.06
_exptl_crystal_colour            'dark red'
_cell_formula_units_Z            4
loop_
_atom_site_label
_atom_site_type_symbol
_atom_site_fract_x
_atom_site_fract_y
_atom_site_fract_z
P1 P 0.08996(7) 0.30786(4) 0.17947(4)
S1 S 0.35171(8) 0.44741(5) 0.10476(5)
S2 S 0.37247(9) 0.37353(5) 0.31942(5)
N1 N -0.0104(2) 0.3063(1) 0.2867(1)
N2 N -0.0341(2) 0.3540(1) 0.0892(1)
N3 N 0.1517(2) 0.1993(1) 0.1461(1)
N4 N -0.2187(3) 0.1808(2) 0.1567(2)
C1 C 0.2824(3) 0.3824(1) 0.2017(2)
C2 C -0.0543(4) 0.3962(2) 0.3398(2)
C3 C -0.0844(3) 0.2157(2) 0.3256(2)
C4 C -0.2468(3) 0.1878(2) 0.2656(2)
C5 C 0.0164(4) 0.3623(2) -0.0187(2)
C6 C -0.2199(3) 0.3525(2) 0.0997(2)
C7 C -0.2943(3) 0.2509(2) 0.0870(2)
C8 C 0.2882(3) 0.1462(2) 0.2014(2)
C9 C 0.0478(3) 0.1395(2) 0.0746(2)
C10 C -0.1156(3) 0.1029(2) 0.1197(2)
H1 H 0.0000 0.4497 0.3085
H2 H -0.1734 0.4053 0.3354
H3 H -0.0180 0.3918 0.4098
H4 H -0.1098 0.2244 0.3957
H5 H -0.0044 0.1645 0.3197
H6 H -0.2853 0.1265 0.2895
H7 H -0.3305 0.2359 0.2766
H8 H 0.1362 0.3628 -0.0210
H9 H -0.0269 0.3083 -0.0567
H10 H -0.0277 0.4209 -0.0473
H11 H -0.2700 0.3938 0.0488
H12 H -0.2453 0.3761 0.1659
H13 H -0.4120 0.2541 0.0988
H14 H -0.2776 0.2296 0.0187
H15 H 0.3487 0.1898 0.2456
H16 H 0.2410 0.0954 0.2407
H17 H 0.3629 0.1192 0.1533
H18 H 0.1127 0.0847 0.0549
H19 H 0.0197 0.1776 0.0156
H20 H -0.1782 0.0682 0.0680
H21 H -0.0880 0.0602 0.1751
loop_
_geom_bond_atom_site_label_1
_geom_bond_atom_site_label_2
_geom_bond_site_symmetry_1
_geom_bond_site_symmetry_2
P1 N1 1_555 1_555
S1 C1 1_555 1_555
S2 C1 1_555 1_555
N1 C2 1_555 1_555
N2 P1 1_555 1_555
N3 P1 1_555 1_555
N4 C4 1_555 1_555
C1 P1 1_555 1_555
C2 H1 1_555 1_555
C3 N1 1_555 1_555
C4 C3 1_555 1_555
C5 N2 1_555 1_555
C6 N2 1_555 1_555
C7 N4 1_555 1_555
C8 N3 1_555 1_555
C9 N3 1_555 1_555
C10 N4 1_555 1_555
H2 C2 1_555 1_555
H3 C2 1_555 1_555
H4 C3 1_555 1_555
H5 C3 1_555 1_555
H6 C4 1_555 1_555
H7 C4 1_555 1_555
H8 C5 1_555 1_555
H9 C5 1_555 1_555
H10 C5 1_555 1_555
H11 C6 1_555 1_555
H12 C6 1_555 1_555
H13 C7 1_555 1_555
H14 C7 1_555 1_555
H15 C8 1_555 1_555
H16 C8 1_555 1_555
H17 C8 1_555 1_555
H18 C9 1_555 1_555
H19 C9 1_555 1_555
H20 C10 1_555 1_555
H21 C10 1_555 1_555
C6 C7 1_555 1_555
C9 C10 1_555 1_555

#END
