
#######################################################################
#
#                 Cambridge Crystallographic Data Centre
#                                CCDC 
#
#######################################################################
#
# If this CIF has been generated from an entry in the Cambridge 
# Structural Database, then it will include bibliographic, chemical, 
# crystal, experimental, refinement or atomic coordinate data resulting 
# from the CCDC's data processing and validation procedures.
#
#######################################################################

data_KESZIS
_chemical_formula_moiety         'C15 H24 O3'
_chemical_name_systematic        
2,5-dimethyl-8-isopropyl-diepoxo(b,f)perhydronaphthalene
_symmetry_cell_setting           orthorhombic
_symmetry_space_group_name_H-M   'P 21 21 21'
_symmetry_Int_Tables_number      19
_space_group_name_Hall           'P 2ac 2ab'
loop_
_symmetry_equiv_pos_site_id
_symmetry_equiv_pos_as_xyz
1 x,y,z
2 1/2-x,-y,1/2+z
3 -x,1/2+y,1/2-z
4 1/2+x,1/2-y,-z
_cell_length_a                   5.707(1)
_cell_length_b                   10.182(3)
_cell_length_c                   24.595(6)
_cell_angle_alpha                90
_cell_angle_beta                 90
_cell_angle_gamma                90
_cell_volume                     1429.18
_cell_formula_units_Z            4
loop_
_atom_site_label
_atom_site_type_symbol
_atom_site_fract_x
_atom_site_fract_y
_atom_site_fract_z
O1 O 0.3071(2) 0.75029(15) 0.41513(6)
O2 O 1.0108(3) 0.80181(14) 0.27874(6)
O3 O 1.1103(3) 0.56915(16) 0.33178(6)
C1 C 0.7318(4) 0.53042(17) 0.40678(7)
H1 H 0.8748 0.5624 0.4245
C2 C 0.5319(4) 0.5534(2) 0.44691(9)
H2 H 0.3952 0.5056 0.4344
H3 H 0.5765 0.5171 0.4819
C3 C 0.4659(4) 0.6950(2) 0.45456(9)
H4 H 0.4395 0.7223 0.4923
C4 C 0.5478(4) 0.7982(2) 0.41790(8)
C5 C 0.6958(4) 0.76201(17) 0.36955(7)
H5 H 0.8575 0.7874 0.3779
C6 C 0.6193(4) 0.84116(19) 0.31976(8)
H6 H 0.4554 0.8234 0.3123
H7 H 0.6347 0.9341 0.3276
C7 C 0.7608(4) 0.8087(2) 0.27081(9)
H8 H 0.7093 0.8497 0.2368
C8 C 0.8819(4) 0.68323(19) 0.26516(8)
C9 C 0.8774(3) 0.58393(19) 0.31112(7)
H9 H 0.8328 0.4994 0.2951
C10 C 0.6973(3) 0.61464(18) 0.35567(7)
H10 H 0.5424 0.5932 0.3409
C11 C 0.7701(4) 0.38311(18) 0.39561(8)
H11 H 0.8952 0.3771 0.3684
C12 C 0.8563(5) 0.3099(2) 0.44566(9)
H12 H 0.7368 0.3112 0.4731
H13 H 0.9950 0.3517 0.4593
H14 H 0.8915 0.2207 0.4361
C13 C 0.5578(5) 0.3158(2) 0.37134(11)
H15 H 0.4378 0.3081 0.3985
H16 H 0.6011 0.2299 0.3588
H17 H 0.5000 0.3668 0.3414
C14 C 0.5647(5) 0.9369(2) 0.43805(9)
H18 H 0.4976 0.9426 0.4738
H19 H 0.4811 0.9940 0.4138
H20 H 0.7263 0.9629 0.4395
C15 C 0.9363(5) 0.6299(2) 0.20998(8)
H21 H 1.0813 0.5821 0.2113
H22 H 0.9500 0.7010 0.1846
H23 H 0.8126 0.5721 0.1987
H24 H 1.154(6) 0.639(3) 0.3479(12)
loop_
_geom_bond_atom_site_label_1
_geom_bond_atom_site_label_2
_geom_bond_site_symmetry_1
_geom_bond_site_symmetry_2
O1 C3 1_555 1_555
O2 C7 1_555 1_555
O3 C9 1_555 1_555
C1 H1 1_555 1_555
C2 C1 1_555 1_555
H2 C2 1_555 1_555
H3 C2 1_555 1_555
C3 C2 1_555 1_555
H4 C3 1_555 1_555
C4 O1 1_555 1_555
C5 C4 1_555 1_555
H5 C5 1_555 1_555
C6 C5 1_555 1_555
H6 C6 1_555 1_555
H7 C6 1_555 1_555
C7 C6 1_555 1_555
H8 C7 1_555 1_555
C8 O2 1_555 1_555
C9 C8 1_555 1_555
H9 C9 1_555 1_555
C10 C1 1_555 1_555
H10 C10 1_555 1_555
C11 C1 1_555 1_555
H11 C11 1_555 1_555
C12 C11 1_555 1_555
H12 C12 1_555 1_555
H13 C12 1_555 1_555
H14 C12 1_555 1_555
C13 C11 1_555 1_555
H15 C13 1_555 1_555
H16 C13 1_555 1_555
H17 C13 1_555 1_555
C14 C4 1_555 1_555
H18 C14 1_555 1_555
H19 C14 1_555 1_555
H20 C14 1_555 1_555
C15 C8 1_555 1_555
H21 C15 1_555 1_555
H22 C15 1_555 1_555
H23 C15 1_555 1_555
H24 O3 1_555 1_555
C3 C4 1_555 1_555
C5 C10 1_555 1_555
C7 C8 1_555 1_555
C9 C10 1_555 1_555

#END
