
#######################################################################
#
#                 Cambridge Crystallographic Data Centre
#                                CCDC 
#
#######################################################################
#
# If this CIF has been generated from an entry in the Cambridge 
# Structural Database, then it will include bibliographic, chemical, 
# crystal, experimental, refinement or atomic coordinate data resulting 
# from the CCDC's data processing and validation procedures.
#
#######################################################################

data_KETCOE
_chemical_formula_moiety         'C22 H19 B2 F4 N1 O4'
_chemical_name_systematic        
(\m-1-{9-ethyl-6-[3-(oxy)-1-(oxo)but-2-en-1-yl]-9H-carbazol-3-yl}-3-(oxy)but-2-en-1-onato)(tetrafluoro)diboron
_symmetry_cell_setting           tetragonal
_symmetry_space_group_name_H-M   'P 42/n'
_symmetry_Int_Tables_number      86
_space_group_name_Hall           '-P 4bc'
loop_
_symmetry_equiv_pos_site_id
_symmetry_equiv_pos_as_xyz
1 x,y,z
2 -y,1/2+x,1/2+z
3 1/2-x,1/2-y,z
4 1/2+y,-x,1/2+z
5 -x,-y,-z
6 y,1/2-x,1/2-z
7 1/2+x,1/2+y,-z
8 1/2-y,x,1/2-z
_cell_length_a                   23.179(3)
_cell_length_b                   23.179(3)
_cell_length_c                   7.6814(15)
_cell_angle_alpha                90
_cell_angle_beta                 90
_cell_angle_gamma                90
_cell_volume                     4126.96
_exptl_crystal_colour            yellow
_exptl_crystal_description       rod
_cell_formula_units_Z            8
loop_
_atom_site_label
_atom_site_type_symbol
_atom_site_fract_x
_atom_site_fract_y
_atom_site_fract_z
F1 F 0.04706(11) 0.33269(9) 0.1027(3)
F2 F 0.12020(11) 0.27885(11) -0.0081(3)
F3 F 0.11767(11) -0.29439(10) 0.4725(4)
F4 F 0.08491(13) -0.26387(13) 0.7331(4)
O1 O 0.04389(11) 0.23328(10) 0.1320(3)
O2 O 0.11353(12) 0.29203(11) 0.2922(4)
O3 O 0.16805(13) -0.22356(11) 0.6180(4)
O4 O 0.07237(12) -0.20510(10) 0.4929(4)
N1 N -0.07515(12) -0.00984(12) 0.1379(4)
C1 C 0.04526(15) -0.11648(14) 0.3727(5)
C2 C -0.04909(16) -0.11054(15) 0.2322(5)
H1 H -0.0834 -0.1284 0.1908
C3 C -0.04878(15) 0.04358(15) 0.1525(5)
C4 C -0.03250(15) 0.14348(15) 0.1195(5)
H2 H -0.0440 0.1802 0.0772
C5 C -0.03992(15) -0.05098(15) 0.2149(5)
C6 C 0.02088(15) 0.13833(15) 0.2081(5)
C7 C 0.08885(16) -0.15275(15) 0.4561(5)
C8 C 0.00474(14) 0.03706(14) 0.2404(4)
C9 C 0.16495(18) 0.25791(18) 0.5370(6)
H3 H 0.1948 0.2854 0.5013
H4 H 0.1831 0.2216 0.5730
H5 H 0.1430 0.2740 0.6347
C10 C -0.06790(15) 0.09703(15) 0.0930(5)
H6 H -0.1041 0.1011 0.0362
C11 C 0.03920(15) 0.08468(15) 0.2699(5)
H7 H 0.0747 0.0810 0.3309
C12 C -0.00611(16) -0.14186(16) 0.3118(5)
H8 H -0.0113 -0.1822 0.3262
C13 C 0.01057(15) -0.02425(14) 0.2791(5)
C14 C 0.10010(15) 0.19427(15) 0.3571(5)
H9 H 0.1123 0.1612 0.4205
C15 C 0.05311(15) -0.05672(15) 0.3572(5)
H10 H 0.0872 -0.0389 0.3997
C16 C 0.05652(15) 0.18933(15) 0.2320(5)
C17 C -0.12982(15) -0.02062(16) 0.0482(5)
H11 H -0.1292 -0.0600 -0.0016
H12 H -0.1338 0.0070 -0.0492
C18 C 0.12527(16) 0.24681(16) 0.3880(5)
C19 C 0.18328(17) -0.17160(16) 0.5704(5)
C20 C -0.18127(16) -0.01491(19) 0.1670(6)
H13 H -0.2168 -0.0204 0.0997
H14 H -0.1815 0.0236 0.2197
H15 H -0.1791 -0.0442 0.2588
C21 C 0.14466(16) -0.13489(17) 0.4919(5)
H16 H 0.1563 -0.0969 0.4619
C22 C 0.24484(17) -0.15671(18) 0.6012(6)
H17 H 0.2583 -0.1758 0.7076
H18 H 0.2487 -0.1148 0.6140
H19 H 0.2681 -0.1697 0.5021
B1 B 0.0813(2) 0.28508(19) 0.1262(7)
B2 B 0.1105(2) -0.24782(19) 0.5809(7)
loop_
_geom_bond_atom_site_label_1
_geom_bond_atom_site_label_2
_geom_bond_site_symmetry_1
_geom_bond_site_symmetry_2
F1 B1 1_555 1_555
F2 B1 1_555 1_555
F3 B2 1_555 1_555
F4 B2 1_555 1_555
O1 C16 1_555 1_555
O2 C18 1_555 1_555
O3 C19 1_555 1_555
O4 C7 1_555 1_555
N1 C3 1_555 1_555
C1 C7 1_555 1_555
C2 H1 1_555 1_555
C3 C8 1_555 1_555
C4 H2 1_555 1_555
C5 N1 1_555 1_555
C6 C4 1_555 1_555
C7 C21 1_555 1_555
C8 C11 1_555 1_555
C9 H3 1_555 1_555
H4 C9 1_555 1_555
H5 C9 1_555 1_555
C10 C3 1_555 1_555
H6 C10 1_555 1_555
C11 C6 1_555 1_555
H7 C11 1_555 1_555
C12 C1 1_555 1_555
H8 C12 1_555 1_555
C13 C5 1_555 1_555
C14 H9 1_555 1_555
C15 C1 1_555 1_555
H10 C15 1_555 1_555
C16 C6 1_555 1_555
C17 N1 1_555 1_555
H11 C17 1_555 1_555
H12 C17 1_555 1_555
C18 C9 1_555 1_555
C19 C21 1_555 1_555
C20 C17 1_555 1_555
H13 C20 1_555 1_555
H14 C20 1_555 1_555
H15 C20 1_555 1_555
C21 H16 1_555 1_555
C22 C19 1_555 1_555
H17 C22 1_555 1_555
H18 C22 1_555 1_555
H19 C22 1_555 1_555
B1 O1 1_555 1_555
B2 O3 1_555 1_555
O2 B1 1_555 1_555
O4 B2 1_555 1_555
C2 C5 1_555 1_555
C2 C12 1_555 1_555
C4 C10 1_555 1_555
C8 C13 1_555 1_555
C13 C15 1_555 1_555
C14 C16 1_555 1_555
C14 C18 1_555 1_555

#END
