
#######################################################################
#
#                 Cambridge Crystallographic Data Centre
#                                CCDC 
#
#######################################################################
#
# If this CIF has been generated from an entry in the Cambridge 
# Structural Database, then it will include bibliographic, chemical, 
# crystal, experimental, refinement or atomic coordinate data resulting 
# from the CCDC's data processing and validation procedures.
#
#######################################################################

data_KETDEU
_chemical_formula_moiety         'C17 H17 B1 F2 N2 S1'
_chemical_name_systematic        
(2-((3,5-Dimethyl-2H-pyrrol-2-ylidene)(2-thienyl)methyl)-3,5-dimethyl-1H-pyrrolato)(difluoro)boron
_symmetry_cell_setting           monoclinic
_symmetry_space_group_name_H-M   'P c'
_symmetry_Int_Tables_number      7
_space_group_name_Hall           'P -2yc'
loop_
_symmetry_equiv_pos_site_id
_symmetry_equiv_pos_as_xyz
1 x,y,z
2 x,-y,1/2+z
_cell_length_a                   6.7332(4)
_cell_length_b                   18.6120(10)
_cell_length_c                   13.1048(7)
_cell_angle_alpha                90
_cell_angle_beta                 93.026(3)
_cell_angle_gamma                90
_cell_volume                     1639.98
_cell_formula_units_Z            4
loop_
_atom_site_label
_atom_site_type_symbol
_atom_site_fract_x
_atom_site_fract_y
_atom_site_fract_z
B1 B 0.6007(9) 0.7761(3) 1.0328(4)
F1 F 0.5394(5) 0.75258(16) 1.1265(2)
F2 F 0.7099(5) 0.71984(16) 0.9845(3)
N1 N 0.7310(5) 0.84152(19) 1.0478(2)
N2 N 0.4183(5) 0.79634(18) 0.9619(3)
C1 C 0.9038(7) 0.8486(3) 1.1073(3)
C2 C 0.9713(8) 0.9166(3) 1.1037(4)
H1 H 1.0849 0.9338 1.1391
C3 C 0.8432(7) 0.9581(2) 1.0380(3)
C4 C 0.6935(6) 0.9094(2) 1.0021(3)
C5 C 0.2676(8) 0.7515(2) 0.9344(4)
C6 C 0.1319(8) 0.7946(3) 0.8651(4)
H2 H 0.0154 0.7775 0.8324
C7 C 0.2011(7) 0.8611(3) 0.8568(3)
C8 C 0.3869(7) 0.8636(2) 0.9155(3)
C9 C 0.5254(7) 0.9192(2) 0.9379(3)
S1 S 0.5908(2) 1.01223(8) 0.77521(11)
C10 C 0.4877(7) 0.9898(2) 0.8863(4)
C11 C 0.3665(7) 1.0494(2) 0.9304(4)
H3 H 0.2974 1.0494 0.9900
C12 C 0.3856(9) 1.1076(3) 0.8547(5)
H4 H 0.3291 1.1525 0.8642
C13 C 0.4903(10) 1.0928(3) 0.7693(5)
H5 H 0.5025 1.1245 0.7152
C14 C 0.2390(9) 0.6782(2) 0.9628(4)
H6 H 0.3388 0.6647 1.0143
H7 H 0.2496 0.6479 0.9039
H8 H 0.1096 0.6726 0.9891
C15 C 0.0998(9) 0.9188(3) 0.7952(4)
H9 H 0.0085 0.8976 0.7451
H10 H 0.1971 0.9464 0.7614
H11 H 0.0284 0.9495 0.8393
C16 C 0.9883(9) 0.7847(3) 1.1658(5)
H12 H 0.9084 0.7431 1.1499
H13 H 0.9881 0.7942 1.2378
H14 H 1.1221 0.7762 1.1470
C17 C 0.8715(9) 1.0353(3) 1.0168(5)
H15 H 0.9912 1.0519 1.0524
H16 H 0.7601 1.0620 1.0395
H17 H 0.8817 1.0423 0.9447
B2 B 0.1055(9) 0.7265(3) 0.5650(4)
F3 F 0.1750(6) 0.74598(16) 0.4680(2)
F4 F 0.0040(6) 0.77997(16) 0.6039(3)
N3 N -0.0281(6) 0.65675(19) 0.5519(3)
N4 N 0.2899(6) 0.70421(16) 0.6342(3)
C18 C -0.1937(7) 0.6526(2) 0.4916(3)
C19 C -0.2651(8) 0.5788(3) 0.4970(4)
H18 H -0.3793 0.5607 0.4632
C20 C -0.1388(7) 0.5416(3) 0.5585(4)
C21 C 0.0165(6) 0.5906(2) 0.5941(3)
C22 C 0.3205(6) 0.6352(2) 0.6782(3)
C23 C 0.5042(7) 0.6390(2) 0.7399(3)
C24 C 0.5763(8) 0.7097(3) 0.7258(4)
H19 H 0.6950 0.7284 0.7541
C25 C 0.4486(9) 0.7435(3) 0.6671(4)
C26 C 0.1861(6) 0.5811(2) 0.6606(3)
S2 S 0.1224(2) 0.48912(8) 0.82255(11)
C27 C 0.2199(7) 0.5093(2) 0.7079(3)
C28 C 0.3353(8) 0.4512(2) 0.6677(4)
H20 H 0.3990 0.4511 0.6064
C29 C 0.3323(9) 0.3923(2) 0.7423(4)
H21 H 0.4032 0.3499 0.7350
C30 C 0.2242(10) 0.4041(3) 0.8184(5)
H22 H 0.2023 0.3694 0.8677
C31 C -0.2839(11) 0.7107(3) 0.4272(5)
H23 H -0.2702 0.7557 0.4627
H24 H -0.4224 0.7006 0.4128
H25 H -0.2176 0.7134 0.3642
C32 C -0.1501(8) 0.4617(2) 0.5776(5)
H26 H -0.2511 0.4410 0.5322
H27 H -0.1825 0.4533 0.6470
H28 H -0.0241 0.4401 0.5656
C33 C 0.6060(9) 0.5815(3) 0.8031(5)
H29 H 0.6346 0.5414 0.7602
H30 H 0.5209 0.5662 0.8554
H31 H 0.7279 0.6000 0.8341
C34 C 0.4531(11) 0.8237(3) 0.6300(5)
H32 H 0.5489 0.8502 0.6718
H33 H 0.3239 0.8448 0.6353
H34 H 0.4892 0.8253 0.5601
loop_
_geom_bond_atom_site_label_1
_geom_bond_atom_site_label_2
_geom_bond_site_symmetry_1
_geom_bond_site_symmetry_2
B1 F1 1_555 1_555
F2 B1 1_555 1_555
N1 B1 1_555 1_555
N2 B1 1_555 1_555
C1 N1 1_555 1_555
C2 C1 1_555 1_555
H1 C2 1_555 1_555
C3 C2 1_555 1_555
C4 N1 1_555 1_555
C5 N2 1_555 1_555
C6 C5 1_555 1_555
H2 C6 1_555 1_555
C7 C6 1_555 1_555
C8 N2 1_555 1_555
C9 C4 1_555 1_555
S1 C10 1_555 1_555
C10 C9 1_555 1_555
C11 C10 1_555 1_555
H3 C11 1_555 1_555
C12 C11 1_555 1_555
H4 C12 1_555 1_555
C13 S1 1_555 1_555
H5 C13 1_555 1_555
C14 C5 1_555 1_555
H6 C14 1_555 1_555
H7 C14 1_555 1_555
H8 C14 1_555 1_555
C15 C7 1_555 1_555
H9 C15 1_555 1_555
H10 C15 1_555 1_555
H11 C15 1_555 1_555
C16 C1 1_555 1_555
H12 C16 1_555 1_555
H13 C16 1_555 1_555
H14 C16 1_555 1_555
C17 C3 1_555 1_555
H15 C17 1_555 1_555
H16 C17 1_555 1_555
H17 C17 1_555 1_555
B2 F3 1_555 1_555
F4 B2 1_555 1_555
N3 B2 1_555 1_555
N4 B2 1_555 1_555
C18 N3 1_555 1_555
C19 C18 1_555 1_555
H18 C19 1_555 1_555
C20 C19 1_555 1_555
C21 N3 1_555 1_555
C22 N4 1_555 1_555
C23 C22 1_555 1_555
C24 C23 1_555 1_555
H19 C24 1_555 1_555
C25 N4 1_555 1_555
C26 C21 1_555 1_555
S2 C27 1_555 1_555
C27 C26 1_555 1_555
C28 C27 1_555 1_555
H20 C28 1_555 1_555
C29 C28 1_555 1_555
H21 C29 1_555 1_555
C30 S2 1_555 1_555
H22 C30 1_555 1_555
C31 C18 1_555 1_555
H23 C31 1_555 1_555
H24 C31 1_555 1_555
H25 C31 1_555 1_555
C32 C20 1_555 1_555
H26 C32 1_555 1_555
H27 C32 1_555 1_555
H28 C32 1_555 1_555
C33 C23 1_555 1_555
H29 C33 1_555 1_555
H30 C33 1_555 1_555
H31 C33 1_555 1_555
C34 C25 1_555 1_555
H32 C34 1_555 1_555
H33 C34 1_555 1_555
H34 C34 1_555 1_555
C3 C4 1_555 1_555
C7 C8 1_555 1_555
C8 C9 1_555 1_555
C12 C13 1_555 1_555
C20 C21 1_555 1_555
C22 C26 1_555 1_555
C24 C25 1_555 1_555
C29 C30 1_555 1_555

#END
