
#######################################################################
#
#                 Cambridge Crystallographic Data Centre
#                                CCDC 
#
#######################################################################
#
# If this CIF has been generated from an entry in the Cambridge 
# Structural Database, then it will include bibliographic, chemical, 
# crystal, experimental, refinement or atomic coordinate data resulting 
# from the CCDC's data processing and validation procedures.
#
#######################################################################

data_KETREG
_chemical_formula_moiety         'C22 H24'
_chemical_name_systematic        
meso-D~3~-Trishomocubylidene-D~3~-trishomocubane
_symmetry_cell_setting           monoclinic
_symmetry_space_group_name_H-M   'C 2/c'
_symmetry_Int_Tables_number      15
_space_group_name_Hall           '-C 2yn'
loop_
_symmetry_equiv_pos_site_id
_symmetry_equiv_pos_as_xyz
1 x,y,z
2 1/2+x,1/2+y,z
3 -x,y,1/2-z
4 1/2-x,1/2+y,1/2-z
5 -x,-y,-z
6 1/2-x,1/2-y,-z
7 x,-y,1/2+z
8 1/2+x,1/2-y,1/2+z
_cell_length_a                   15.678(2)
_cell_length_b                   10.365(2)
_cell_length_c                   12.091(1)
_cell_angle_alpha                90
_cell_angle_beta                 131.53(1)
_cell_angle_gamma                90
_cell_volume                     1470.88
_chemical_melting_point          246deg.C
_cell_formula_units_Z            4
loop_
_atom_site_label
_atom_site_type_symbol
_atom_site_fract_x
_atom_site_fract_y
_atom_site_fract_z
C1 C 0.3862(1) 0.3714(1) 0.8385(2)
C2 C 0.4911(1) 0.2880(1) 0.9630(1)
C3 C 0.4727(1) 0.1567(1) 0.8845(2)
C4 C 0.4745(1) 0.0571(1) 0.9751(1)
C5 C 0.4013(1) 0.1284(1) 0.9931(2)
C6 C 0.4676(1) 0.2544(1) 1.0668(2)
C7 C 0.3765(1) 0.3482(2) 1.0263(2)
C8 C 0.3048(1) 0.3326(1) 0.8615(2)
C9 C 0.3009(1) 0.1839(1) 0.8348(2)
C10 C 0.3451(1) 0.1717(1) 0.7508(1)
C11 C 0.3360(1) 0.3065(2) 0.6943(2)
H1 H 0.4010(11) 0.4622(14) 0.8456(15)
H2 H 0.5635(11) 0.3282(12) 1.0069(14)
H3 H 0.5197(12) 0.1433(12) 0.8591(15)
H4 H 0.3781(12) 0.0866(15) 1.0407(16)
H5 H 0.5347(12) 0.2470(13) 1.1703(16)
H6 H 0.3374(14) 0.3158(16) 1.0638(18)
H7 H 0.4026(13) 0.4353(17) 1.0592(17)
H8 H 0.2321(13) 0.3737(14) 0.7973(16)
H9 H 0.2303(15) 0.1457(15) 0.7896(18)
H10 H 0.3115(11) 0.1020(13) 0.6783(15)
H11 H 0.3848(15) 0.3175(15) 0.6662(19)
H12 H 0.2580(12) 0.3346(13) 0.6103(16)
C4D C 0.5255(1) -0.0571(1) 1.0249(1)
C3D C 0.5273(1) -0.1567(1) 1.1155(2)
C5D C 0.5987(1) -0.1284(1) 1.0069(2)
C2D C 0.5089(1) -0.2880(1) 1.0370(1)
C10D C 0.6549(1) -0.1717(1) 1.2492(1)
H3D H 0.4803(12) -0.1433(12) 1.1409(15)
C6D C 0.5324(1) -0.2544(1) 0.9332(2)
C9D C 0.6991(1) -0.1839(1) 1.1652(2)
H4D H 0.6219(12) -0.0866(15) 0.9593(16)
C1D C 0.6138(1) -0.3714(1) 1.1615(2)
H2D H 0.4365(11) -0.3282(12) 0.9931(14)
C11D C 0.6640(1) -0.3065(2) 1.3057(2)
H10D H 0.6885(11) -0.1020(13) 1.3217(15)
C7D C 0.6235(1) -0.3482(2) 0.9737(2)
H5D H 0.4653(12) -0.2470(13) 0.8297(16)
C8D C 0.6952(1) -0.3326(1) 1.1385(2)
H9D H 0.7697(15) -0.1457(15) 1.2104(18)
H1D H 0.5990(11) -0.4622(14) 1.1544(15)
H11D H 0.6152(15) -0.3175(15) 1.3338(19)
H12D H 0.7420(12) -0.3346(13) 1.3897(16)
H6D H 0.6626(14) -0.3158(16) 0.9362(18)
H7D H 0.5974(13) -0.4353(17) 0.9408(17)
H8D H 0.7679(13) -0.3737(14) 1.2027(16)
loop_
_geom_bond_atom_site_label_1
_geom_bond_atom_site_label_2
_geom_bond_site_symmetry_1
_geom_bond_site_symmetry_2
C1 C2 1_555 1_555
C2 C3 1_555 1_555
C3 C4 1_555 1_555
C4 C5 1_555 1_555
C5 C6 1_555 1_555
C6 C2 1_555 1_555
C7 C6 1_555 1_555
C8 C1 1_555 1_555
C9 C5 1_555 1_555
C10 C3 1_555 1_555
C11 C1 1_555 1_555
H1 C1 1_555 1_555
H2 C2 1_555 1_555
H3 C3 1_555 1_555
H4 C5 1_555 1_555
H5 C6 1_555 1_555
H6 C7 1_555 1_555
H7 C7 1_555 1_555
H8 C8 1_555 1_555
H9 C9 1_555 1_555
H10 C10 1_555 1_555
H11 C11 1_555 1_555
H12 C11 1_555 1_555
C4D C4 1_555 1_555
C3D C4D 1_555 1_555
C5D C4D 1_555 1_555
C2D C3D 1_555 1_555
C10D C3D 1_555 1_555
H3D C3D 1_555 1_555
C6D C5D 1_555 1_555
C9D C5D 1_555 1_555
H4D C5D 1_555 1_555
C1D C2D 1_555 1_555
H2D C2D 1_555 1_555
C11D C10D 1_555 1_555
H10D C10D 1_555 1_555
C7D C6D 1_555 1_555
H5D C6D 1_555 1_555
C8D C9D 1_555 1_555
H9D C9D 1_555 1_555
H1D C1D 1_555 1_555
H11D C11D 1_555 1_555
H12D C11D 1_555 1_555
H6D C7D 1_555 1_555
H7D C7D 1_555 1_555
H8D C8D 1_555 1_555
C7 C8 1_555 1_555
C8 C9 1_555 1_555
C9 C10 1_555 1_555
C10 C11 1_555 1_555
C2D C6D 1_555 1_555
C10D C9D 1_555 1_555
C1D C8D 1_555 1_555
C1D C11D 1_555 1_555
C7D C8D 1_555 1_555

#END
