
#######################################################################
#
#                 Cambridge Crystallographic Data Centre
#                                CCDC 
#
#######################################################################
#
# If this CIF has been generated from an entry in the Cambridge 
# Structural Database, then it will include bibliographic, chemical, 
# crystal, experimental, refinement or atomic coordinate data resulting 
# from the CCDC's data processing and validation procedures.
#
#######################################################################

data_KETRUW
_chemical_formula_moiety         'C22 H26 O1'
_chemical_name_systematic        
D~3~-Trishomocubane-2-spiro-2'-(12-hydroxy-pentacyclo-(6.3.1.0^3,7^.0^4,11^.0^5,9^)dodecane)
_symmetry_cell_setting           monoclinic
_symmetry_space_group_name_H-M   'C 2/c'
_symmetry_Int_Tables_number      15
_space_group_name_Hall           '-C 2yn'
loop_
_symmetry_equiv_pos_site_id
_symmetry_equiv_pos_as_xyz
1 x,y,z
2 1/2+x,1/2+y,z
3 -x,y,1/2-z
4 1/2-x,1/2+y,1/2-z
5 -x,-y,-z
6 1/2-x,1/2-y,-z
7 x,-y,1/2+z
8 1/2+x,1/2-y,1/2+z
_cell_length_a                   23.541(7)
_cell_length_b                   13.794(3)
_cell_length_c                   9.702(2)
_cell_angle_alpha                90
_cell_angle_beta                 96.01(2)
_cell_angle_gamma                90
_cell_volume                     3133.16
_exptl_crystal_colour            colorless
_chemical_melting_point          184-185deg.C
_cell_formula_units_Z            8
loop_
_atom_site_label
_atom_site_type_symbol
_atom_site_fract_x
_atom_site_fract_y
_atom_site_fract_z
C1 C 0.1231(1) 0.0518(1) 0.4324(2)
C2 C 0.1286(1) 0.0755(1) 0.2762(2)
C3 C 0.0904(1) 0.1681(1) 0.2470(2)
C4 C 0.1288(1) 0.2437(1) 0.1880(2)
C5 C 0.1793(1) 0.2215(1) 0.2968(2)
C6 C 0.1913(1) 0.1132(1) 0.2763(2)
C7 C 0.2216(1) 0.0829(2) 0.4153(2)
C8 C 0.1728(1) 0.1125(2) 0.4969(2)
C9 C 0.1530(1) 0.2145(1) 0.4389(2)
C10 C 0.0876(1) 0.2007(1) 0.3971(2)
C11 C 0.0712(1) 0.1083(2) 0.4687(2)
C12 C 0.1087(1) 0.3506(1) 0.1853(2)
C13 C 0.0506(1) 0.3549(1) 0.0996(2)
O1 O 0.0195(1) 0.4428(1) 0.1182(2)
C14 C 0.0595(1) 0.3410(1) -0.0514(2)
C15 C 0.0905(1) 0.2431(2) -0.0723(2)
C16 C 0.1422(1) 0.2342(1) 0.0383(2)
C17 C 0.1754(1) 0.3268(2) 0.0085(2)
C18 C 0.1546(1) 0.4037(1) 0.1094(2)
C19 C 0.1281(1) 0.4826(1) 0.0127(2)
C20 C 0.1006(1) 0.4193(1) -0.1042(2)
C21 C 0.1501(1) 0.3554(2) -0.1401(2)
C22 C 0.1211(1) 0.2648(2) -0.2001(2)
H1 H 0.1275(7) -0.0168(14) 0.4595(18)
H2 H 0.1169(7) 0.0236(13) 0.2115(17)
H3 H 0.0526(7) 0.1548(13) 0.1956(17)
H4 H 0.2125(7) 0.2607(13) 0.2961(17)
H5 H 0.2101(7) 0.0981(12) 0.1958(16)
H6 H 0.2273(9) 0.0112(16) 0.4237(21)
H7 H 0.2574(9) 0.1195(15) 0.4411(21)
H8 H 0.1790(7) 0.1091(12) 0.5968(17)
H9 H 0.1628(8) 0.2652(13) 0.5049(19)
H10 H 0.0648(7) 0.2569(12) 0.4083(17)
H11 H 0.0335(9) 0.0839(15) 0.4267(21)
H12 H 0.0706(8) 0.1130(14) 0.5767(21)
H13 H 0.1069(6) 0.3782(11) 0.2799(14)
H14 H 0.0276(7) 0.3021(13) 0.1304(16)
H15 H 0.0075(21) 0.4416(32) 0.1687(40)
H16 H 0.0235(7) 0.3387(12) -0.1108(16)
H17 H 0.0642(8) 0.1891(15) -0.0727(19)
H18 H 0.1615(7) 0.1788(14) 0.0223(17)
H19 H 0.2167(7) 0.3178(13) 0.0196(17)
H20 H 0.1855(7) 0.4256(12) 0.1770(17)
H21 H 0.1017(8) 0.5261(14) 0.0582(17)
H22 H 0.1590(8) 0.5219(14) -0.0266(18)
H23 H 0.0832(7) 0.4547(13) -0.1819(16)
H24 H 0.1763(8) 0.3867(15) -0.1930(20)
H25 H 0.1487(9) 0.2132(17) -0.2195(22)
H26 H 0.0929(10) 0.2781(17) -0.2898(24)
loop_
_geom_bond_atom_site_label_1
_geom_bond_atom_site_label_2
_geom_bond_site_symmetry_1
_geom_bond_site_symmetry_2
C1 C2 1_555 1_555
C2 C3 1_555 1_555
C3 C4 1_555 1_555
C4 C5 1_555 1_555
C5 C6 1_555 1_555
C6 C2 1_555 1_555
C7 C6 1_555 1_555
C8 C1 1_555 1_555
C9 C5 1_555 1_555
C10 C3 1_555 1_555
C11 C1 1_555 1_555
C12 C4 1_555 1_555
C13 C12 1_555 1_555
O1 C13 1_555 1_555
C14 C13 1_555 1_555
C15 C14 1_555 1_555
C16 C4 1_555 1_555
C17 C16 1_555 1_555
C18 C12 1_555 1_555
C19 C18 1_555 1_555
C20 C14 1_555 1_555
C21 C17 1_555 1_555
C22 C15 1_555 1_555
H1 C1 1_555 1_555
H2 C2 1_555 1_555
H3 C3 1_555 1_555
H4 C5 1_555 1_555
H5 C6 1_555 1_555
H6 C7 1_555 1_555
H7 C7 1_555 1_555
H8 C8 1_555 1_555
H9 C9 1_555 1_555
H10 C10 1_555 1_555
H11 C11 1_555 1_555
H12 C11 1_555 1_555
H13 C12 1_555 1_555
H14 C13 1_555 1_555
H15 O1 1_555 1_555
H16 C14 1_555 1_555
H17 C15 1_555 1_555
H18 C16 1_555 1_555
H19 C17 1_555 1_555
H20 C18 1_555 1_555
H21 C19 1_555 1_555
H22 C19 1_555 1_555
H23 C20 1_555 1_555
H24 C21 1_555 1_555
H25 C22 1_555 1_555
H26 C22 1_555 1_555
C7 C8 1_555 1_555
C8 C9 1_555 1_555
C9 C10 1_555 1_555
C10 C11 1_555 1_555
C15 C16 1_555 1_555
C17 C18 1_555 1_555
C19 C20 1_555 1_555
C20 C21 1_555 1_555
C21 C22 1_555 1_555

#END
