
#######################################################################
#
#                 Cambridge Crystallographic Data Centre
#                                CCDC 
#
#######################################################################
#
# If this CIF has been generated from an entry in the Cambridge 
# Structural Database, then it will include bibliographic, chemical, 
# crystal, experimental, refinement or atomic coordinate data resulting 
# from the CCDC's data processing and validation procedures.
#
#######################################################################

data_KETROR
_chemical_formula_moiety         'C27 H14 O6'
_chemical_name_systematic        2,2-bis(Indane-1,3-dion-2-yl)indane-1,3-dione
_symmetry_cell_setting           monoclinic
_symmetry_space_group_name_H-M   'C 2/c'
_symmetry_Int_Tables_number      15
_space_group_name_Hall           '-C 2yn'
loop_
_symmetry_equiv_pos_site_id
_symmetry_equiv_pos_as_xyz
1 x,y,z
2 1/2+x,1/2+y,z
3 -x,y,1/2-z
4 1/2-x,1/2+y,1/2-z
5 -x,-y,-z
6 1/2-x,1/2-y,-z
7 x,-y,1/2+z
8 1/2+x,1/2-y,1/2+z
_cell_length_a                   12.586(3)
_cell_length_b                   10.601(3)
_cell_length_c                   15.721(4)
_cell_angle_alpha                90
_cell_angle_beta                 94.857(4)
_cell_angle_gamma                90
_cell_volume                     2090.03
_exptl_crystal_colour            colorless
_exptl_crystal_description       needle
_chemical_melting_point          '249-250 deg.C'
_cell_formula_units_Z            4
loop_
_atom_site_label
_atom_site_type_symbol
_atom_site_fract_x
_atom_site_fract_y
_atom_site_fract_z
O1 O 0.61598(12) 1.04796(12) 0.71625(10)
O2 O 0.44173(15) 0.70872(15) 0.56815(9)
O3 O 0.31303(11) 0.74057(13) 0.75274(10)
C1 C 0.58637(16) 0.97069(17) 0.66259(13)
C2 C 0.63186(16) 0.95187(18) 0.58008(13)
C3 C 0.71455(19) 1.0167(2) 0.54704(16)
H1 H 0.7489 1.0830 0.5767
C4 C 0.7442(2) 0.9791(3) 0.46841(17)
H2 H 0.8000 1.0204 0.4450
C5 C 0.6929(2) 0.8816(3) 0.42366(16)
H3 H 0.7146 0.8589 0.3707
C6 C 0.6097(2) 0.8168(2) 0.45623(14)
H4 H 0.5751 0.7512 0.4260
C7 C 0.57996(17) 0.85335(19) 0.53539(13)
C8 C 0.49723(17) 0.79955(18) 0.58644(13)
C9 C 0.49517(15) 0.87654(16) 0.66813(12)
H5 H 0.4282 0.9243 0.6647
C10 C 0.5000 0.7958(2) 0.7500
C11 C 0.40427(15) 0.70588(17) 0.74965(12)
C12 C 0.44472(14) 0.57513(16) 0.75021(12)
C13 C 0.38820(17) 0.46302(17) 0.75195(13)
H6 H 0.3145 0.4629 0.7533
C14 C 0.44477(17) 0.35192(17) 0.75156(13)
H7 H 0.4087 0.2755 0.7534
O1B O 0.38402(12) 1.04796(12) 0.78375(10)
O2B O 0.55827(15) 0.70872(15) 0.93185(9)
O3B O 0.68697(11) 0.74057(13) 0.74726(10)
C1B C 0.41363(16) 0.97069(17) 0.83741(13)
C2B C 0.36814(16) 0.95187(18) 0.91992(13)
C3B C 0.28545(19) 1.0167(2) 0.95296(16)
H1B H 0.2511 1.0830 0.9233
C4B C 0.2558(2) 0.9791(3) 1.03159(17)
H2B H 0.2000 1.0204 1.0550
C5B C 0.3071(2) 0.8816(3) 1.07634(16)
H3B H 0.2854 0.8589 1.1293
C6B C 0.3903(2) 0.8168(2) 1.04377(14)
H4B H 0.4249 0.7512 1.0740
C7B C 0.42004(17) 0.85335(19) 0.96461(13)
C8B C 0.50277(17) 0.79955(18) 0.91356(13)
C9B C 0.50483(15) 0.87654(16) 0.83187(12)
H5B H 0.5718 0.9243 0.8353
C11B C 0.59573(15) 0.70588(17) 0.75035(12)
C12B C 0.55528(14) 0.57513(16) 0.74979(12)
C13B C 0.61180(17) 0.46302(17) 0.74805(13)
H6B H 0.6855 0.4629 0.7467
C14B C 0.55523(17) 0.35192(17) 0.74844(13)
H7B H 0.5913 0.2755 0.7466
loop_
_geom_bond_atom_site_label_1
_geom_bond_atom_site_label_2
_geom_bond_site_symmetry_1
_geom_bond_site_symmetry_2
O1 C1 1_555 1_555
O2 C8 1_555 1_555
O3 C11 1_555 1_555
C1 C2 1_555 1_555
C2 C3 1_555 1_555
C3 H1 1_555 1_555
C4 C3 1_555 1_555
H2 C4 1_555 1_555
C5 C4 1_555 1_555
H3 C5 1_555 1_555
C6 C5 1_555 1_555
H4 C6 1_555 1_555
C7 C2 1_555 1_555
C8 C7 1_555 1_555
C9 C1 1_555 1_555
H5 C9 1_555 1_555
C10 C9 1_555 1_555
C11 C10 1_555 1_555
C12 C11 1_555 1_555
C13 C12 1_555 1_555
H6 C13 1_555 1_555
C14 C13 1_555 1_555
H7 C14 1_555 1_555
O1B C1B 1_555 1_555
O2B C8B 1_555 1_555
O3B C11B 1_555 1_555
C1B C2B 1_555 1_555
C2B C3B 1_555 1_555
C3B H1B 1_555 1_555
C4B C3B 1_555 1_555
H2B C4B 1_555 1_555
C5B C4B 1_555 1_555
H3B C5B 1_555 1_555
C6B C5B 1_555 1_555
H4B C6B 1_555 1_555
C7B C2B 1_555 1_555
C8B C7B 1_555 1_555
C9B C10 1_555 1_555
H5B C9B 1_555 1_555
C11B C10 1_555 1_555
C12B C12 1_555 1_555
C13B C12B 1_555 1_555
H6B C13B 1_555 1_555
C14B C14 1_555 1_555
H7B C14B 1_555 1_555
C6 C7 1_555 1_555
C8 C9 1_555 1_555
C1B C9B 1_555 1_555
C6B C7B 1_555 1_555
C8B C9B 1_555 1_555
C11B C12B 1_555 1_555
C13B C14B 1_555 1_555

#END
