
#######################################################################
#
#                 Cambridge Crystallographic Data Centre
#                                CCDC 
#
#######################################################################
#
# If this CIF has been generated from an entry in the Cambridge 
# Structural Database, then it will include bibliographic, chemical, 
# crystal, experimental, refinement or atomic coordinate data resulting 
# from the CCDC's data processing and validation procedures.
#
#######################################################################

data_KETSOT
_chemical_formula_moiety         'C21 H20 F3 N3 O3'
_chemical_name_systematic        
'Methyl 4-(t-butylamino)-3,3-dicyano-2-(4-methoxyphenyl)-5-(trifluoromethyl)cyclopenta-1,4-diene-1-carboxylate'
_symmetry_cell_setting           orthorhombic
_symmetry_space_group_name_H-M   'P b c a'
_symmetry_Int_Tables_number      61
_space_group_name_Hall           '-P 2ac 2ab'
loop_
_symmetry_equiv_pos_site_id
_symmetry_equiv_pos_as_xyz
1 x,y,z
2 1/2-x,-y,1/2+z
3 -x,1/2+y,1/2-z
4 1/2+x,1/2-y,-z
5 -x,-y,-z
6 1/2+x,y,1/2-z
7 x,1/2-y,1/2+z
8 1/2-x,1/2+y,z
_cell_length_a                   20.349(14)
_cell_length_b                   9.195(7)
_cell_length_c                   23.382(16)
_cell_angle_alpha                90
_cell_angle_beta                 90
_cell_angle_gamma                90
_cell_volume                     4374.98
_cell_formula_units_Z            8
loop_
_atom_site_label
_atom_site_type_symbol
_atom_site_fract_x
_atom_site_fract_y
_atom_site_fract_z
C1 C 0.91228(9) -0.0127(2) 0.39718(8)
C2 C 0.94486(9) -0.1579(2) 0.39748(8)
C3 C 0.98924(9) -0.1722(2) 0.35592(8)
C4 C 0.99549(9) -0.03872(19) 0.31874(8)
C5 C 0.93298(9) 0.0531(2) 0.33650(8)
C6 C 1.06037(9) 0.0385(2) 0.33040(8)
C7 C 1.08152(10) 0.0671(2) 0.38597(9)
H1 H 1.0559 0.0376 0.4168
C8 C 1.13976(11) 0.1385(2) 0.39586(10)
H2 H 1.1530 0.1576 0.4332
C9 C 1.17887(10) 0.1820(2) 0.35059(10)
C10 C 1.15898(10) 0.1550(2) 0.29534(10)
H3 H 1.1850 0.1844 0.2648
C11 C 1.09975(9) 0.0836(2) 0.28545(9)
H4 H 1.0864 0.0658 0.2481
C12 C 1.27770(12) 0.3007(3) 0.32146(14)
H5 H 1.2882 0.2215 0.2963
H6 H 1.3174 0.3389 0.3377
H7 H 1.2557 0.3757 0.3003
C13 C 0.83770(11) 0.1632(2) 0.44656(9)
C14 C 0.78730(14) 0.1227(4) 0.49222(12)
H8 H 0.7600 0.0452 0.4783
H9 H 0.7605 0.2059 0.5008
H10 H 0.8097 0.0916 0.5262
C15 C 0.80170(12) 0.2160(3) 0.39358(11)
H11 H 0.8329 0.2542 0.3667
H12 H 0.7711 0.2910 0.4041
H13 H 0.7784 0.1364 0.3765
C16 C 0.88440(15) 0.2792(3) 0.46998(13)
H14 H 0.9053 0.2435 0.5040
H15 H 0.8600 0.3657 0.4789
H16 H 0.9172 0.3013 0.4418
C17 C 0.87786(10) 0.0190(2) 0.29787(9)
C18 C 0.94692(10) 0.2105(2) 0.33477(9)
C19 C 0.92635(11) -0.2696(2) 0.44106(10)
C20 C 1.03277(9) -0.2997(2) 0.34200(8)
C21 C 1.10719(13) -0.4729(3) 0.37915(12)
H17 H 1.0787 -0.5560 0.3772
H18 H 1.1365 -0.4831 0.4111
H19 H 1.1323 -0.4660 0.3445
F1 F 0.86192(7) -0.27904(18) 0.44804(8)
F2 F 0.95106(9) -0.2400(2) 0.49211(6)
F3 F 0.94682(9) -0.40184(15) 0.42721(8)
N1 N 0.87664(8) 0.02909(18) 0.43716(7)
H20 H 0.8741 -0.0321 0.4649
N2 N 0.83420(10) -0.0125(2) 0.27032(9)
N3 N 0.95867(11) 0.3309(2) 0.33210(10)
O1 O 1.23608(8) 0.25021(19) 0.36576(8)
O2 O 1.03493(8) -0.35021(16) 0.29506(6)
O3 O 1.06793(8) -0.34179(16) 0.38622(6)
loop_
_geom_bond_atom_site_label_1
_geom_bond_atom_site_label_2
_geom_bond_site_symmetry_1
_geom_bond_site_symmetry_2
C1 C2 1_555 1_555
C2 C3 1_555 1_555
C3 C4 1_555 1_555
C4 C5 1_555 1_555
C5 C1 1_555 1_555
C6 C4 1_555 1_555
C7 C6 1_555 1_555
H1 C7 1_555 1_555
C8 C7 1_555 1_555
H2 C8 1_555 1_555
C9 C8 1_555 1_555
C10 C9 1_555 1_555
H3 C10 1_555 1_555
C11 C6 1_555 1_555
H4 C11 1_555 1_555
C12 H5 1_555 1_555
H6 C12 1_555 1_555
H7 C12 1_555 1_555
C13 C14 1_555 1_555
C14 H8 1_555 1_555
H9 C14 1_555 1_555
H10 C14 1_555 1_555
C15 C13 1_555 1_555
H11 C15 1_555 1_555
H12 C15 1_555 1_555
H13 C15 1_555 1_555
C16 C13 1_555 1_555
H14 C16 1_555 1_555
H15 C16 1_555 1_555
H16 C16 1_555 1_555
C17 C5 1_555 1_555
C18 C5 1_555 1_555
C19 C2 1_555 1_555
C20 C3 1_555 1_555
C21 H17 1_555 1_555
H18 C21 1_555 1_555
H19 C21 1_555 1_555
F1 C19 1_555 1_555
F2 C19 1_555 1_555
F3 C19 1_555 1_555
N1 C1 1_555 1_555
H20 N1 1_555 1_555
N2 C17 1_555 1_555
N3 C18 1_555 1_555
O1 C9 1_555 1_555
O2 C20 1_555 1_555
O3 C20 1_555 1_555
C10 C11 1_555 1_555
C12 O1 1_555 1_555
C13 N1 1_555 1_555
C21 O3 1_555 1_555

#END
