
#######################################################################
#
#                 Cambridge Crystallographic Data Centre
#                                CCDC 
#
#######################################################################
#
# If this CIF has been generated from an entry in the Cambridge 
# Structural Database, then it will include bibliographic, chemical, 
# crystal, experimental, refinement or atomic coordinate data resulting 
# from the CCDC's data processing and validation procedures.
#
#######################################################################

data_KETTUA
_chemical_formula_moiety         'C13 H20 O5'
_chemical_name_systematic        
'Ethyl 6a-hydroxyoctahydro-2H-cyclopenta[2,3]furo[3,4-b]pyran-5-carboxylate'
_symmetry_cell_setting           monoclinic
_symmetry_space_group_name_H-M   'P 21/c'
_symmetry_Int_Tables_number      14
_space_group_name_Hall           '-P 2ybc'
loop_
_symmetry_equiv_pos_site_id
_symmetry_equiv_pos_as_xyz
1 x,y,z
2 -x,1/2+y,1/2-z
3 -x,-y,-z
4 x,1/2-y,1/2+z
_cell_length_a                   16.078(17)
_cell_length_b                   7.506(8)
_cell_length_c                   11.069(12)
_cell_angle_alpha                90
_cell_angle_beta                 104.368(10)
_cell_angle_gamma                90
_cell_volume                     1294.04
_exptl_crystal_colour            colorless
_exptl_crystal_description       block
_cell_formula_units_Z            4
loop_
_atom_site_label
_atom_site_type_symbol
_atom_site_fract_x
_atom_site_fract_y
_atom_site_fract_z
C1 C 0.32983(15) 0.9355(3) 0.5130(2)
C2 C 0.41264(17) 1.0090(3) 0.5931(3)
H1 H 0.4010 1.1007 0.6485
H2 H 0.4474 1.0600 0.5416
C3 C 0.45867(17) 0.8516(4) 0.6677(2)
H3 H 0.5204 0.8684 0.6886
H4 H 0.4402 0.8348 0.7439
C4 C 0.43230(15) 0.6947(3) 0.5797(2)
H5 H 0.4394 0.5832 0.6254
H6 H 0.4661 0.6908 0.5183
C5 C 0.33804(14) 0.7289(3) 0.51753(18)
C6 C 0.27668(13) 0.6730(3) 0.59618(19)
H7 H 0.3086 0.6841 0.6836
C7 C 0.21015(14) 0.8234(3) 0.5712(2)
H8 H 0.1850 0.8331 0.6430
C8 C 0.30015(17) 0.4729(3) 0.3882(2)
H9 H 0.3525 0.4152 0.4339
H10 H 0.2882 0.4336 0.3021
C9 C 0.22755(16) 0.4204(3) 0.4430(2)
H11 H 0.2205 0.2920 0.4388
H12 H 0.1747 0.4743 0.3955
C10 C 0.24584(15) 0.4812(3) 0.5777(2)
H13 H 0.2892 0.4040 0.6284
H14 H 0.1940 0.4689 0.6068
C11 C 0.13775(16) 0.8073(3) 0.4534(2)
C12 C -0.00068(18) 0.6798(4) 0.3697(3)
H15 H -0.0236 0.5610 0.3738
H16 H 0.0158 0.6911 0.2914
C13 C -0.06655(19) 0.8141(4) 0.3759(3)
H17 H -0.0808 0.8056 0.4549
H18 H -0.1170 0.7930 0.3100
H19 H -0.0447 0.9310 0.3667
O1 O 0.31457(15) 1.0084(2) 0.39347(16)
O2 O 0.25976(9) 0.97793(18) 0.56657(13)
O3 O 0.31183(10) 0.66226(17) 0.39352(12)
O4 O 0.13713(12) 0.8765(3) 0.35525(16)
O5 O 0.07447(11) 0.7073(2) 0.47443(17)
H20 H 0.257(3) 0.966(6) 0.360(4)
loop_
_geom_bond_atom_site_label_1
_geom_bond_atom_site_label_2
_geom_bond_site_symmetry_1
_geom_bond_site_symmetry_2
C1 C2 1_555 1_555
C2 H1 1_555 1_555
H2 C2 1_555 1_555
C3 C2 1_555 1_555
H3 C3 1_555 1_555
H4 C3 1_555 1_555
C4 C3 1_555 1_555
H5 C4 1_555 1_555
H6 C4 1_555 1_555
C5 C1 1_555 1_555
C6 C5 1_555 1_555
H7 C6 1_555 1_555
C7 C6 1_555 1_555
H8 C7 1_555 1_555
C8 H9 1_555 1_555
H10 C8 1_555 1_555
C9 C8 1_555 1_555
H11 C9 1_555 1_555
H12 C9 1_555 1_555
C10 C6 1_555 1_555
H13 C10 1_555 1_555
H14 C10 1_555 1_555
C11 C7 1_555 1_555
C12 H15 1_555 1_555
H16 C12 1_555 1_555
C13 C12 1_555 1_555
H17 C13 1_555 1_555
H18 C13 1_555 1_555
H19 C13 1_555 1_555
O1 C1 1_555 1_555
O2 C1 1_555 1_555
O3 C5 1_555 1_555
O4 C11 1_555 1_555
O5 C11 1_555 1_555
H20 O1 1_555 1_555
C4 C5 1_555 1_555
C7 O2 1_555 1_555
C8 O3 1_555 1_555
C9 C10 1_555 1_555
C12 O5 1_555 1_555

#END
