
#######################################################################
#
#                 Cambridge Crystallographic Data Centre
#                                CCDC 
#
#######################################################################
#
# If this CIF has been generated from an entry in the Cambridge 
# Structural Database, then it will include bibliographic, chemical, 
# crystal, experimental, refinement or atomic coordinate data resulting 
# from the CCDC's data processing and validation procedures.
#
#######################################################################

data_KETTOU
_chemical_formula_moiety         'C25 H37 Br1 N2 O6 Si1'
_chemical_name_systematic        
'Ethyl 6-(4-bromo-3-nitrophenyl)-6a-((t-butyl(dimethyl)silyl)oxy)decahydrocyclopenta[b]pyrano[2,3-c]pyrrole-5-carboxylate'
_symmetry_cell_setting           triclinic
_symmetry_space_group_name_H-M   'P -1'
_symmetry_Int_Tables_number      2
_space_group_name_Hall           '-P 1'
loop_
_symmetry_equiv_pos_site_id
_symmetry_equiv_pos_as_xyz
1 x,y,z
2 -x,-y,-z
_cell_length_a                   8.055(9)
_cell_length_b                   17.91(2)
_cell_length_c                   20.02(2)
_cell_angle_alpha                75.487(11)
_cell_angle_beta                 79.846(12)
_cell_angle_gamma                81.246(11)
_cell_volume                     2734.5
_exptl_crystal_colour            yellow
_exptl_crystal_description       block
_cell_formula_units_Z            4
loop_
_atom_site_label
_atom_site_type_symbol
_atom_site_fract_x
_atom_site_fract_y
_atom_site_fract_z
Br1 Br 0.28079(11) 0.96386(4) 0.49549(4)
C1 C 0.0805(11) 0.5250(4) 0.8802(4)
H1 H 0.1544 0.4833 0.8638
H2 H -0.0154 0.5032 0.9115
C2 C 0.1741(10) 0.5630(4) 0.9175(4)
H3 H 0.2747 0.5807 0.8868
H4 H 0.2107 0.5251 0.9575
C3 C 0.0698(10) 0.6305(4) 0.9416(4)
H5 H 0.1423 0.6590 0.9574
H6 H -0.0151 0.6117 0.9806
C4 C -0.0181(9) 0.6848(4) 0.8828(3)
H7 H -0.1072 0.7198 0.9031
C5 C 0.0997(8) 0.7336(4) 0.8256(3)
H8 H 0.2130 0.7052 0.8189
C6 C -0.1267(8) 0.7038(4) 0.7751(3)
C7 C -0.2958(9) 0.7445(4) 0.7946(4)
H9 H -0.3490 0.7694 0.7535
H10 H -0.2867 0.7834 0.8194
C8 C -0.3964(11) 0.6814(5) 0.8411(5)
H11 H -0.4769 0.7020 0.8760
H12 H -0.4587 0.6609 0.8138
C9 C -0.2721(9) 0.6189(5) 0.8754(4)
H13 H -0.2863 0.5691 0.8676
H14 H -0.2878 0.6153 0.9252
C10 C -0.0974(8) 0.6422(4) 0.8418(3)
C11 C 0.1088(11) 0.8087(5) 0.8457(4)
C12 C 0.2640(16) 0.8689(6) 0.9025(6)
H15 H 0.3074 0.9096 0.8644
H16 H 0.1552 0.8894 0.9243
C13 C 0.3778(18) 0.8453(7) 0.9516(7)
H17 H 0.3196 0.8198 0.9956
H18 H 0.4219 0.8900 0.9571
H19 H 0.4696 0.8101 0.9356
C14 C 0.0777(8) 0.7953(4) 0.7023(4)
C15 C 0.2431(8) 0.8135(4) 0.6916(3)
H20 H 0.3119 0.7935 0.7262
C16 C 0.3051(8) 0.8607(4) 0.6301(4)
C17 C 0.2053(8) 0.8935(4) 0.5769(3)
C18 C 0.0420(9) 0.8757(4) 0.5893(4)
H21 H -0.0285 0.8965 0.5555
C19 C -0.0199(9) 0.8277(4) 0.6506(3)
H22 H -0.1318 0.8169 0.6572
C20 C 0.1831(11) 0.6059(6) 0.6586(5)
H23 H 0.2047 0.6582 0.6357
H24 H 0.2304 0.5720 0.6280
H25 H 0.2346 0.5899 0.7004
C21 C -0.0997(16) 0.5035(5) 0.7333(5)
H26 H -0.0093 0.4794 0.7597
H27 H -0.1123 0.4719 0.7025
H28 H -0.2036 0.5088 0.7645
C22 C -0.0925(16) 0.5619(6) 0.5596(5)
H29 H -0.1552 0.5711 0.5211
H30 H -0.1088 0.5115 0.5891
H31 H 0.0260 0.5641 0.5422
C23 C -0.1560(11) 0.6245(5) 0.6019(4)
C24 C -0.1210(14) 0.7024(5) 0.5533(5)
H32 H -0.0050 0.6993 0.5313
H33 H -0.1412 0.7418 0.5796
H34 H -0.1948 0.7154 0.5183
C25 C -0.3502(14) 0.6246(8) 0.6224(6)
H35 H -0.3937 0.6647 0.6471
H36 H -0.3748 0.5751 0.6519
H37 H -0.4026 0.6340 0.5812
N1 N 0.0186(7) 0.7472(3) 0.7641(3)
N2 N 0.4771(9) 0.8779(4) 0.6214(4)
O1 O 0.0223(6) 0.5814(2) 0.8226(2)
O2 O 0.0060(8) 0.8654(3) 0.8366(3)
O3 O 0.2427(7) 0.8028(3) 0.8759(3)
O4 O 0.5737(8) 0.8638(4) 0.5717(4)
O5 O 0.5225(8) 0.9009(4) 0.6662(5)
O6 O -0.1342(5) 0.6729(2) 0.7187(2)
Si1 Si -0.0491(3) 0.60152(12) 0.68091(12)
Br2 Br 0.56847(11) 0.42038(5) 0.94750(5)
C26 C 1.0716(11) 0.1044(5) 0.6124(4)
H38 H 1.1050 0.1400 0.5684
H39 H 1.0459 0.0575 0.6025
C27 C 1.2136(10) 0.0855(5) 0.6550(4)
H40 H 1.2427 0.1329 0.6629
H41 H 1.3129 0.0614 0.6299
C28 C 1.1636(9) 0.0309(4) 0.7244(4)
H42 H 1.1568 -0.0200 0.7170
H43 H 1.2500 0.0257 0.7540
C29 C 0.9949(8) 0.0604(4) 0.7604(4)
H44 H 0.9529 0.0173 0.7972
C30 C 0.9937(8) 0.1294(4) 0.7936(3)
H45 H 1.0816 0.1625 0.7685
C31 C 0.6040(10) 0.0827(4) 0.7943(4)
H46 H 0.6211 0.0708 0.8428
H47 H 0.4872 0.1048 0.7912
C32 C 0.6416(11) 0.0093(5) 0.7663(5)
H48 H 0.6894 -0.0336 0.8003
H49 H 0.5384 -0.0046 0.7563
C33 C 0.7672(11) 0.0271(4) 0.7006(4)
H50 H 0.7094 0.0456 0.6599
H51 H 0.8452 -0.0186 0.6949
C34 C 0.8604(8) 0.0901(4) 0.7110(3)
C35 C 0.7250(8) 0.1397(4) 0.7501(3)
C36 C 1.0186(10) 0.0969(4) 0.8688(4)
C37 C 1.2202(14) 0.0603(6) 0.9445(5)
H52 H 1.3318 0.0309 0.9411
H53 H 1.1382 0.0248 0.9696
C38 C 1.218(2) 0.1221(7) 0.9822(6)
H54 H 1.2999 0.1567 0.9571
H55 H 1.2463 0.0990 1.0281
H56 H 1.1071 0.1505 0.9857
C39 C 0.7634(9) 0.2258(4) 0.8262(3)
C40 C 0.5908(8) 0.2439(4) 0.8452(3)
H57 H 0.5134 0.2189 0.8317
C41 C 0.5341(8) 0.2981(4) 0.8835(3)
C42 C 0.6402(9) 0.3401(4) 0.9026(3)
C43 C 0.8109(9) 0.3231(4) 0.8830(4)
H58 H 0.8871 0.3502 0.8947
C44 C 0.8708(9) 0.2669(4) 0.8466(4)
H59 H 0.9874 0.2558 0.8352
C45 C 0.6678(12) 0.2320(5) 0.5574(4)
H60 H 0.7632 0.1934 0.5526
H61 H 0.6748 0.2742 0.5170
H62 H 0.5646 0.2093 0.5620
C46 C 0.8639(10) 0.3137(5) 0.6326(4)
H63 H 0.8702 0.3219 0.6776
H64 H 0.8609 0.3626 0.5991
H65 H 0.9616 0.2800 0.6189
C47 C 0.4819(11) 0.3444(5) 0.6433(5)
C48 C 0.4893(13) 0.3900(5) 0.6971(5)
H66 H 0.4001 0.4324 0.6942
H67 H 0.5971 0.4100 0.6882
H68 H 0.4755 0.3566 0.7429
C49 C 0.4802(16) 0.4038(6) 0.5724(5)
H69 H 0.4451 0.3806 0.5396
H70 H 0.5921 0.4189 0.5553
H71 H 0.4024 0.4487 0.5782
C50 C 0.3189(13) 0.3080(7) 0.6614(8)
H72 H 0.3142 0.2743 0.7071
H73 H 0.3136 0.2786 0.6280
H74 H 0.2246 0.3480 0.6606
N3 N 0.8266(6) 0.1702(3) 0.7890(3)
N4 N 0.3504(9) 0.3112(4) 0.9030(4)
O7 O 0.9272(6) 0.1386(3) 0.6491(2)
O8 O 0.9109(7) 0.0733(3) 0.9138(3)
O9 O 1.1781(7) 0.0965(3) 0.8760(3)
O10 O 0.2975(8) 0.3174(5) 0.9609(4)
O11 O 0.2598(8) 0.3122(5) 0.8612(4)
O12 O 0.6324(5) 0.1993(2) 0.7085(2)
Si2 Si 0.6697(3) 0.26877(12) 0.63677(11)
loop_
_geom_bond_atom_site_label_1
_geom_bond_atom_site_label_2
_geom_bond_site_symmetry_1
_geom_bond_site_symmetry_2
Br1 C17 1_555 1_555
C1 H1 1_555 1_555
H2 C1 1_555 1_555
C2 C1 1_555 1_555
H3 C2 1_555 1_555
H4 C2 1_555 1_555
C3 C2 1_555 1_555
H5 C3 1_555 1_555
H6 C3 1_555 1_555
C4 C3 1_555 1_555
H7 C4 1_555 1_555
C5 C4 1_555 1_555
H8 C5 1_555 1_555
C6 C7 1_555 1_555
C7 H9 1_555 1_555
H10 C7 1_555 1_555
C8 C7 1_555 1_555
H11 C8 1_555 1_555
H12 C8 1_555 1_555
C9 C8 1_555 1_555
H13 C9 1_555 1_555
H14 C9 1_555 1_555
C10 C4 1_555 1_555
C11 C5 1_555 1_555
C12 H15 1_555 1_555
H16 C12 1_555 1_555
C13 C12 1_555 1_555
H17 C13 1_555 1_555
H18 C13 1_555 1_555
H19 C13 1_555 1_555
C14 C15 1_555 1_555
C15 H20 1_555 1_555
C16 C15 1_555 1_555
C17 C16 1_555 1_555
C18 C17 1_555 1_555
H21 C18 1_555 1_555
C19 C14 1_555 1_555
H22 C19 1_555 1_555
C20 H23 1_555 1_555
H24 C20 1_555 1_555
H25 C20 1_555 1_555
C21 H26 1_555 1_555
H27 C21 1_555 1_555
H28 C21 1_555 1_555
C22 H29 1_555 1_555
H30 C22 1_555 1_555
H31 C22 1_555 1_555
C23 C22 1_555 1_555
C24 C23 1_555 1_555
H32 C24 1_555 1_555
H33 C24 1_555 1_555
H34 C24 1_555 1_555
C25 C23 1_555 1_555
H35 C25 1_555 1_555
H36 C25 1_555 1_555
H37 C25 1_555 1_555
N1 C5 1_555 1_555
N2 C16 1_555 1_555
O1 C1 1_555 1_555
O2 C11 1_555 1_555
O3 C11 1_555 1_555
O4 N2 1_555 1_555
O5 N2 1_555 1_555
O6 C6 1_555 1_555
Si1 C20 1_555 1_555
Br2 C42 1_555 1_555
C26 H38 1_555 1_555
H39 C26 1_555 1_555
C27 C26 1_555 1_555
H40 C27 1_555 1_555
H41 C27 1_555 1_555
C28 C27 1_555 1_555
H42 C28 1_555 1_555
H43 C28 1_555 1_555
C29 C28 1_555 1_555
H44 C29 1_555 1_555
C30 C29 1_555 1_555
H45 C30 1_555 1_555
C31 H46 1_555 1_555
H47 C31 1_555 1_555
C32 C31 1_555 1_555
H48 C32 1_555 1_555
H49 C32 1_555 1_555
C33 C32 1_555 1_555
H50 C33 1_555 1_555
H51 C33 1_555 1_555
C34 C29 1_555 1_555
C35 C31 1_555 1_555
C36 C30 1_555 1_555
C37 H52 1_555 1_555
H53 C37 1_555 1_555
C38 C37 1_555 1_555
H54 C38 1_555 1_555
H55 C38 1_555 1_555
H56 C38 1_555 1_555
C39 C40 1_555 1_555
C40 H57 1_555 1_555
C41 C40 1_555 1_555
C42 C41 1_555 1_555
C43 C42 1_555 1_555
H58 C43 1_555 1_555
C44 C39 1_555 1_555
H59 C44 1_555 1_555
C45 H60 1_555 1_555
H61 C45 1_555 1_555
H62 C45 1_555 1_555
C46 H63 1_555 1_555
H64 C46 1_555 1_555
H65 C46 1_555 1_555
C47 C48 1_555 1_555
C48 H66 1_555 1_555
H67 C48 1_555 1_555
H68 C48 1_555 1_555
C49 C47 1_555 1_555
H69 C49 1_555 1_555
H70 C49 1_555 1_555
H71 C49 1_555 1_555
C50 C47 1_555 1_555
H72 C50 1_555 1_555
H73 C50 1_555 1_555
H74 C50 1_555 1_555
N3 C30 1_555 1_555
N4 C41 1_555 1_555
O7 C26 1_555 1_555
O8 C36 1_555 1_555
O9 C36 1_555 1_555
O10 N4 1_555 1_555
O11 N4 1_555 1_555
O12 C35 1_555 1_555
Si2 C45 1_555 1_555
C6 C10 1_555 1_555
C6 N1 1_555 1_555
C9 C10 1_555 1_555
C10 O1 1_555 1_555
C12 O3 1_555 1_555
C14 N1 1_555 1_555
C18 C19 1_555 1_555
C21 Si1 1_555 1_555
C23 Si1 1_555 1_555
O6 Si1 1_555 1_555
C33 C34 1_555 1_555
C34 C35 1_555 1_555
C34 O7 1_555 1_555
C35 N3 1_555 1_555
C37 O9 1_555 1_555
C39 N3 1_555 1_555
C43 C44 1_555 1_555
C46 Si2 1_555 1_555
C47 Si2 1_555 1_555
O12 Si2 1_555 1_555

#END
