
#######################################################################
#
#                 Cambridge Crystallographic Data Centre
#                                CCDC 
#
#######################################################################
#
# If this CIF has been generated from an entry in the Cambridge 
# Structural Database, then it will include bibliographic, chemical, 
# crystal, experimental, refinement or atomic coordinate data resulting 
# from the CCDC's data processing and validation procedures.
#
#######################################################################

data_KETXUC
_chemical_formula_moiety         'C18 H30 O4 S2'
_chemical_name_systematic        
(+-)-(4aS,5aS,7aS,11aR,12aS,14aR)-5a,12a-bis(Methylthio)perhydropyrano(3,2-b)pyrano(2',3':6,7)oxepano(2,3-f)oxepane
_symmetry_cell_setting           triclinic
_symmetry_space_group_name_H-M   'P -1'
_symmetry_Int_Tables_number      2
_space_group_name_Hall           '-P 1'
loop_
_symmetry_equiv_pos_site_id
_symmetry_equiv_pos_as_xyz
1 x,y,z
2 -x,-y,-z
_cell_length_a                   8.719(1)
_cell_length_b                   9.689(1)
_cell_length_c                   12.431(1)
_cell_angle_alpha                88.38(1)
_cell_angle_beta                 86.47(1)
_cell_angle_gamma                65.34(1)
_cell_volume                     952.562
_exptl_crystal_colour            colorless
_chemical_melting_point          128-129deg.C
_cell_formula_units_Z            2
loop_
_atom_site_label
_atom_site_type_symbol
_atom_site_fract_x
_atom_site_fract_y
_atom_site_fract_z
S1 S 0.34158(8) 0.03795(6) 0.67124(5)
S2 S 0.02440(7) 0.30482(6) 0.67385(5)
C1 C 0.1757(4) 0.7942(3) 0.5495(3)
C2 C 0.0185(4) 0.8394(3) 0.6230(3)
C3 C 0.0492(3) 0.7304(3) 0.7204(2)
C4 C 0.1268(3) 0.5685(2) 0.6800(2)
C5 C 0.2840(3) 0.5381(2) 0.6071(2)
C6 C 0.3653(3) 0.3785(3) 0.5637(2)
C7 C 0.4594(3) 0.2648(3) 0.6503(2)
C8 C 0.3600(3) 0.2032(2) 0.7285(2)
C9 C 0.1752(3) 0.3195(2) 0.7670(2)
C10 C 0.1268(3) 0.2807(3) 0.8823(2)
C11 C 0.1943(3) 0.3357(3) 0.9754(2)
C12 C 0.3808(3) 0.2524(3) 0.9929(2)
C13 C 0.4908(3) 0.2388(2) 0.8909(2)
C14 C 0.6769(3) 0.1699(3) 0.9131(2)
C15 C 0.7081(4) 0.2567(4) 1.0030(3)
C16 C 0.5901(4) 0.2670(4) 1.1003(2)
C17 C 0.5598(4) -0.0963(3) 0.6607(3)
C18 C -0.1743(3) 0.4489(3) 0.7260(2)
O1 O 0.2397(2) 0.6396(2) 0.5174(1)
O2 O 0.1630(2) 0.4708(2) 0.7728(1)
O3 O 0.4606(2) 0.1389(2) 0.8195(1)
O4 O 0.4166(2) 0.3367(2) 1.0723(2)
H1 H 0.0511 0.5505 0.6358
H2 H 0.3633 0.5509 0.6501
H3 H 0.4079 0.1495 1.0147
H4 H 0.4638 0.3370 0.8612
H5 H 0.2615 0.8076 0.5868
H6 H 0.1532 0.8566 0.4866
H7 H -0.0713 0.8351 0.5831
H8 H -0.0172 0.9414 0.6468
H9 H -0.0544 0.7499 0.7617
H10 H 0.1247 0.7456 0.7673
H11 H 0.4427 0.3734 0.5049
H12 H 0.2799 0.3516 0.5385
H13 H 0.5086 0.3147 0.6926
H14 H 0.5456 0.1809 0.6147
H15 H 0.1680 0.1736 0.8876
H16 H 0.0065 0.3249 0.8907
H17 H 0.1340 0.3297 1.0405
H18 H 0.1722 0.4406 0.9625
H19 H 0.7406 0.1773 0.8487
H20 H 0.7126 0.0664 0.9318
H21 H 0.6915 0.3539 0.9790
H22 H 0.8231 0.2016 1.0227
H23 H 0.6074 0.3255 1.1549
H24 H 0.6148 0.1672 1.1286
H25 H 0.6296 -0.0455 0.6355
H26 H 0.5751 -0.1742 0.6108
H27 H 0.5956 -0.1403 0.7290
H28 H -0.1587 0.5356 0.7457
H29 H -0.2545 0.4759 0.6717
H30 H -0.2144 0.4100 0.7870
loop_
_geom_bond_atom_site_label_1
_geom_bond_atom_site_label_2
_geom_bond_site_symmetry_1
_geom_bond_site_symmetry_2
S1 C8 1_555 1_555
S2 C9 1_555 1_555
C1 C2 1_555 1_555
C2 C3 1_555 1_555
C3 C4 1_555 1_555
C4 C5 1_555 1_555
C5 C6 1_555 1_555
C6 C7 1_555 1_555
C7 C8 1_555 1_555
C8 C9 1_555 1_555
C9 C10 1_555 1_555
C10 C11 1_555 1_555
C11 C12 1_555 1_555
C12 C13 1_555 1_555
C13 C14 1_555 1_555
C14 C15 1_555 1_555
C15 C16 1_555 1_555
C16 O4 1_555 1_555
C17 S1 1_555 1_555
C18 S2 1_555 1_555
O1 C1 1_555 1_555
O2 C4 1_555 1_555
O3 C8 1_555 1_555
O4 C12 1_555 1_555
H1 C4 1_555 1_555
H2 C5 1_555 1_555
H3 C12 1_555 1_555
H4 C13 1_555 1_555
H5 C1 1_555 1_555
H6 C1 1_555 1_555
H7 C2 1_555 1_555
H8 C2 1_555 1_555
H9 C3 1_555 1_555
H10 C3 1_555 1_555
H11 C6 1_555 1_555
H12 C6 1_555 1_555
H13 C7 1_555 1_555
H14 C7 1_555 1_555
H15 C10 1_555 1_555
H16 C10 1_555 1_555
H17 C11 1_555 1_555
H18 C11 1_555 1_555
H19 C14 1_555 1_555
H20 C14 1_555 1_555
H21 C15 1_555 1_555
H22 C15 1_555 1_555
H23 C16 1_555 1_555
H24 C16 1_555 1_555
H25 C17 1_555 1_555
H26 C17 1_555 1_555
H27 C17 1_555 1_555
H28 C18 1_555 1_555
H29 C18 1_555 1_555
H30 C18 1_555 1_555
C5 O1 1_555 1_555
C9 O2 1_555 1_555
C13 O3 1_555 1_555

#END
