
#######################################################################
#
#                 Cambridge Crystallographic Data Centre
#                                CCDC 
#
#######################################################################
#
# If this CIF has been generated from an entry in the Cambridge 
# Structural Database, then it will include bibliographic, chemical, 
# crystal, experimental, refinement or atomic coordinate data resulting 
# from the CCDC's data processing and validation procedures.
#
#######################################################################

data_KETXOY
_chemical_formula_moiety         'C26 H15 Br2 Cl1'
_chemical_name_systematic        
2-Bromo-10-(5-bromo-2-chlorophenyl)-9-phenylanthracene
_symmetry_cell_setting           triclinic
_symmetry_space_group_name_H-M   'P -1'
_symmetry_Int_Tables_number      2
_space_group_name_Hall           '-P 1'
loop_
_symmetry_equiv_pos_site_id
_symmetry_equiv_pos_as_xyz
1 x,y,z
2 -x,-y,-z
_cell_length_a                   8.2217(5)
_cell_length_b                   11.0100(5)
_cell_length_c                   13.0022(5)
_cell_angle_alpha                74.308(4)
_cell_angle_beta                 80.816(4)
_cell_angle_gamma                69.425(4)
_cell_volume                     1058.1
_exptl_crystal_colour            yellow
_exptl_crystal_description       block
_cell_formula_units_Z            2
loop_
_atom_site_label
_atom_site_type_symbol
_atom_site_fract_x
_atom_site_fract_y
_atom_site_fract_z
Br1 Br 0.37366(8) 1.28947(5) 0.00814(4)
Br2 Br 0.23304(8) 0.46495(6) 0.43606(5)
Cl1 Cl 0.7241(2) 0.91310(14) 0.43429(11)
C1 C 0.6257(6) 1.0155(4) 0.3184(4)
C2 C 0.5560(7) 1.1513(5) 0.3101(4)
H1 H 0.5599 1.1867 0.3667
C3 C 0.4816(7) 1.2338(5) 0.2190(4)
H2 H 0.4355 1.3254 0.2127
C4 C 0.4757(6) 1.1793(4) 0.1363(3)
C5 C 0.5427(6) 1.0445(4) 0.1449(4)
H3 H 0.5364 1.0097 0.0886
C6 C 0.6198(6) 0.9590(4) 0.2369(3)
C7 C 0.6910(6) 0.8120(4) 0.2427(3)
C8 C 0.5863(6) 0.7322(4) 0.2881(3)
C9 C 0.4132(6) 0.7847(5) 0.3334(4)
H4 H 0.3689 0.8747 0.3340
C10 C 0.3128(7) 0.7070(5) 0.3750(4)
H5 H 0.2005 0.7439 0.4037
C11 C 0.3766(6) 0.5705(5) 0.3756(4)
C12 C 0.5407(6) 0.5142(4) 0.3346(3)
H6 H 0.5813 0.4233 0.3369
C13 C 0.6509(6) 0.5923(4) 0.2885(3)
C14 C 0.8211(6) 0.5363(4) 0.2458(3)
C15 C 0.9258(6) 0.6171(4) 0.2013(3)
C16 C 0.8604(6) 0.7576(4) 0.1999(3)
C17 C 0.9725(7) 0.8347(5) 0.1547(4)
H7 H 0.9311 0.9256 0.1520
C18 C 1.1367(7) 0.7805(5) 0.1157(4)
H8 H 1.2076 0.8333 0.0881
C19 C 1.2010(7) 0.6427(6) 0.1168(4)
H9 H 1.3142 0.6056 0.0894
C20 C 1.1000(6) 0.5647(5) 0.1571(4)
H10 H 1.1445 0.4747 0.1561
C21 C 0.8911(6) 0.3905(4) 0.2475(3)
C22 C 0.9000(8) 0.3458(5) 0.1566(4)
H11 H 0.8610 0.4065 0.0932
C23 C 0.9670(8) 0.2103(5) 0.1599(5)
H12 H 0.9719 0.1807 0.0986
C24 C 1.0254(7) 0.1208(5) 0.2514(5)
H13 H 1.0698 0.0302 0.2529
C25 C 1.0189(8) 0.1637(5) 0.3406(5)
H14 H 1.0597 0.1019 0.4032
C26 C 0.9526(7) 0.2976(5) 0.3400(4)
H15 H 0.9492 0.3256 0.4019
loop_
_geom_bond_atom_site_label_1
_geom_bond_atom_site_label_2
_geom_bond_site_symmetry_1
_geom_bond_site_symmetry_2
Br1 C4 1_555 1_555
Br2 C11 1_555 1_555
Cl1 C1 1_555 1_555
C1 C2 1_555 1_555
C2 H1 1_555 1_555
C3 C2 1_555 1_555
H2 C3 1_555 1_555
C4 C3 1_555 1_555
C5 C4 1_555 1_555
H3 C5 1_555 1_555
C6 C1 1_555 1_555
C7 C6 1_555 1_555
C8 C7 1_555 1_555
C9 C8 1_555 1_555
H4 C9 1_555 1_555
C10 C9 1_555 1_555
H5 C10 1_555 1_555
C11 C10 1_555 1_555
C12 C11 1_555 1_555
H6 C12 1_555 1_555
C13 C8 1_555 1_555
C14 C13 1_555 1_555
C15 C14 1_555 1_555
C16 C7 1_555 1_555
C17 C16 1_555 1_555
H7 C17 1_555 1_555
C18 C17 1_555 1_555
H8 C18 1_555 1_555
C19 C18 1_555 1_555
H9 C19 1_555 1_555
C20 C15 1_555 1_555
H10 C20 1_555 1_555
C21 C14 1_555 1_555
C22 C21 1_555 1_555
H11 C22 1_555 1_555
C23 C22 1_555 1_555
H12 C23 1_555 1_555
C24 C23 1_555 1_555
H13 C24 1_555 1_555
C25 C24 1_555 1_555
H14 C25 1_555 1_555
C26 C21 1_555 1_555
H15 C26 1_555 1_555
C5 C6 1_555 1_555
C12 C13 1_555 1_555
C15 C16 1_555 1_555
C19 C20 1_555 1_555
C25 C26 1_555 1_555

#END
