
#######################################################################
#
#                 Cambridge Crystallographic Data Centre
#                                CCDC 
#
#######################################################################
#
# If this CIF has been generated from an entry in the Cambridge 
# Structural Database, then it will include bibliographic, chemical, 
# crystal, experimental, refinement or atomic coordinate data resulting 
# from the CCDC's data processing and validation procedures.
#
#######################################################################

data_KETYOX
_chemical_formula_moiety         'C14 H22 O4'
_chemical_name_systematic        
(4aS,5aR,6aS,10aR,11aS,12aR)-Perhydropyrano(2'',3'':5',6')pyrano(2',3':5,6)pyrano(2,3-b)pyran
_symmetry_cell_setting           monoclinic
_symmetry_space_group_name_H-M   'P 21'
_symmetry_Int_Tables_number      4
_space_group_name_Hall           'P 2yb'
loop_
_symmetry_equiv_pos_site_id
_symmetry_equiv_pos_as_xyz
1 x,y,z
2 -x,1/2+y,-z
_cell_length_a                   9.267(2)
_cell_length_b                   5.384(1)
_cell_length_c                   13.084(1)
_cell_angle_alpha                90
_cell_angle_beta                 100.70(1)
_cell_angle_gamma                90
_cell_volume                     641.456
_exptl_crystal_colour            colorless
_chemical_melting_point          245-247deg.C
_cell_formula_units_Z            2
loop_
_atom_site_label
_atom_site_type_symbol
_atom_site_fract_x
_atom_site_fract_y
_atom_site_fract_z
C1 C 0.3124(9) 0.5000 1.3714(6)
C2 C 0.3833(7) 0.250(1) 1.3748(5)
C3 C 0.4455(7) 0.170(1) 1.2799(4)
C4 C 0.3300(5) 0.228(1) 1.1853(4)
C5 C 0.2677(6) 0.486(1) 1.1868(5)
C6 C 0.1529(7) 0.538(1) 1.0920(5)
C7 C 0.2184(5) 0.484(1) 0.9964(4)
C8 C 0.2744(6) 0.217(1) 1.0006(4)
C9 C 0.3425(6) 0.153(1) 0.9073(4)
C10 C 0.2250(6) 0.206(1) 0.8127(4)
C11 C 0.1749(7) 0.481(1) 0.8126(4)
C12 C 0.0560(6) 0.524(1) 0.7192(5)
C13 C 0.1177(8) 0.480(1) 0.6198(5)
C14 C 0.1740(7) 0.207(1) 0.6300(4)
O1 O 0.2102(4) 0.5330(8) 1.2765(3)
O2 O 0.3861(4) 0.1856(8) 1.0943(3)
O3 O 0.1129(4) 0.5250(7) 0.9063(3)
O4 O 0.2864(5) 0.1718(9) 0.7188(3)
H1 H 0.2465 0.1356 1.1849
H2 H 0.3428 0.6133 1.1873
H3 H 0.3000 0.6003 0.9960
H4 H 0.1894 0.1198 1.0059
H5 H 0.1407 0.1173 0.8139
H6 H 0.2583 0.6119 0.8061
H7 H 0.3789 0.6274 1.3834
H8 H 0.2521 0.5070 1.4284
H9 H 0.3136 0.1257 1.3868
H10 H 0.4614 0.2499 1.4357
H11 H 0.4688 -0.0040 1.2820
H12 H 0.5384 0.2573 1.2791
H13 H 0.1184 0.7147 1.0917
H14 H 0.0682 0.4400 1.0924
H15 H 0.3713 -0.0217 0.9084
H16 H 0.4343 0.2450 0.9076
H17 H 0.0194 0.6951 0.7168
H18 H -0.0194 0.4162 0.7242
H19 H 0.1869 0.5936 0.6123
H20 H 0.0326 0.4963 0.5615
H21 H 0.2103 0.1695 0.5697
H22 H 0.0908 0.0984 0.6332
loop_
_geom_bond_atom_site_label_1
_geom_bond_atom_site_label_2
_geom_bond_site_symmetry_1
_geom_bond_site_symmetry_2
C1 C2 1_555 1_555
C2 C3 1_555 1_555
C3 C4 1_555 1_555
C4 C5 1_555 1_555
C5 C6 1_555 1_555
C6 C7 1_555 1_555
C7 C8 1_555 1_555
C8 C9 1_555 1_555
C9 C10 1_555 1_555
C10 C11 1_555 1_555
C11 C12 1_555 1_555
C12 C13 1_555 1_555
C13 C14 1_555 1_555
C14 O4 1_555 1_555
O1 C1 1_555 1_555
O2 C4 1_555 1_555
O3 C7 1_555 1_555
O4 C10 1_555 1_555
H1 C4 1_555 1_555
H2 C5 1_555 1_555
H3 C7 1_555 1_555
H4 C8 1_555 1_555
H5 C10 1_555 1_555
H6 C11 1_555 1_555
H7 C1 1_555 1_555
H8 C1 1_555 1_555
H9 C2 1_555 1_555
H10 C2 1_555 1_555
H11 C3 1_555 1_555
H12 C3 1_555 1_555
H13 C6 1_555 1_555
H14 C6 1_555 1_555
H15 C9 1_555 1_555
H16 C9 1_555 1_555
H17 C12 1_555 1_555
H18 C12 1_555 1_555
H19 C13 1_555 1_555
H20 C13 1_555 1_555
H21 C14 1_555 1_555
H22 C14 1_555 1_555
C5 O1 1_555 1_555
C8 O2 1_555 1_555
C11 O3 1_555 1_555

#END
