
#######################################################################
#
#                 Cambridge Crystallographic Data Centre
#                                CCDC 
#
#######################################################################
#
# If this CIF has been generated from an entry in the Cambridge 
# Structural Database, then it will include bibliographic, chemical, 
# crystal, experimental, refinement or atomic coordinate data resulting 
# from the CCDC's data processing and validation procedures.
#
#######################################################################

data_KETYUF
_chemical_name_common            
"4,4'-Ethene-1,2-diyldipyridine paracetamol ethanol solvate"
_chemical_formula_moiety         'C12 H10 N2,2(C8 H9 N1 O2),C2 H6 O1'
_chemical_name_systematic        
"4,4'-Ethene-1,2-diyldipyridine N-(4-hydroxyphenyl)acetamide ethanol solvate"
_symmetry_cell_setting           triclinic
_symmetry_space_group_name_H-M   'P -1'
_symmetry_Int_Tables_number      2
_space_group_name_Hall           '-P 1'
loop_
_symmetry_equiv_pos_site_id
_symmetry_equiv_pos_as_xyz
1 x,y,z
2 -x,-y,-z
_cell_length_a                   8.835(3)
_cell_length_b                   10.724(3)
_cell_length_c                   15.174(4)
_cell_angle_alpha                91.638(4)
_cell_angle_beta                 100.515(4)
_cell_angle_gamma                106.191(4)
_cell_volume                     1352.66
_exptl_crystal_colour            colorless
_cell_formula_units_Z            2
loop_
_atom_site_label
_atom_site_type_symbol
_atom_site_fract_x
_atom_site_fract_y
_atom_site_fract_z
O1 O 0.51639(13) 1.07005(11) 0.29987(8)
H1 H 0.431(2) 1.026(2) 0.3286(15)
O2 O 0.54468(13) 0.52705(11) 0.12423(8)
N1 N 0.75197(14) 0.71195(12) 0.13611(9)
H2 H 0.8464 0.7437 0.1247
C1 C 0.57069(16) 0.97923(14) 0.26215(10)
C2 C 0.51492(16) 0.84669(14) 0.27255(10)
H3 H 0.4368 0.8176 0.3068
C3 C 0.57419(16) 0.75758(14) 0.23255(10)
H4 H 0.5375 0.6697 0.2415
C4 C 0.68830(16) 0.79865(14) 0.17906(9)
C5 C 0.74586(16) 0.93142(14) 0.16952(10)
H5 H 0.8238 0.9604 0.1351
C6 C 0.68862(16) 1.02049(14) 0.21060(10)
H6 H 0.7290 1.1088 0.2039
C7 C 0.67946(17) 0.58442(15) 0.11123(10)
C8 C 0.77160(18) 0.51459(15) 0.06409(11)
H7 H 0.7986 0.4491 0.1005
H8 H 0.8684 0.5759 0.0545
H9 H 0.7067 0.4741 0.0072
O3 O -0.09364(14) 0.57885(11) 0.32847(9)
H10 H -0.170(3) 0.517(2) 0.3582(17)
O4 O 0.14968(12) 0.11514(10) 0.15660(8)
N2 N 0.26035(14) 0.33384(12) 0.15265(8)
H11 H 0.3362 0.3898 0.1343
C9 C -0.01438(17) 0.51344(15) 0.28535(10)
C10 C -0.04833(17) 0.37817(14) 0.27989(10)
H12 H -0.1301 0.3292 0.3063
C11 C 0.03775(16) 0.31516(14) 0.23573(10)
H13 H 0.0135 0.2248 0.2329
C12 C 0.16022(16) 0.38724(14) 0.19570(10)
C13 C 0.19075(16) 0.52226(14) 0.19910(10)
H14 H 0.2698 0.5712 0.1708
C14 C 0.10608(17) 0.58465(15) 0.24349(11)
H15 H 0.1295 0.6749 0.2455
C15 C 0.25378(16) 0.20797(14) 0.13629(10)
C16 C 0.38302(18) 0.18735(15) 0.09070(11)
H16 H 0.4428 0.1386 0.1271
H17 H 0.4540 0.2703 0.0827
H18 H 0.3349 0.1400 0.0331
N3 N 0.27579(15) 0.95454(13) 0.39135(10)
N4 N -0.68460(15) 0.57309(12) 0.58864(9)
C17 C 0.12517(18) 0.94734(15) 0.35000(11)
H19 H 0.1103 0.9791 0.2937
C18 C -0.00851(17) 0.89551(15) 0.38644(10)
H20 H -0.1103 0.8922 0.3547
C19 C 0.00980(17) 0.84807(14) 0.47120(10)
C20 C 0.16591(17) 0.85772(15) 0.51505(11)
H21 H 0.1849 0.8298 0.5724
C21 C 0.29293(18) 0.90933(15) 0.47231(12)
H22 H 0.3960 0.9125 0.5019
C22 C -0.12518(17) 0.79101(14) 0.51505(10)
H23 H -0.1018 0.7797 0.5760
C23 C -0.54214(18) 0.63427(15) 0.64109(11)
H24 H -0.5333 0.6347 0.7031
C24 C -0.40733(17) 0.69690(15) 0.60798(10)
H25 H -0.3115 0.7398 0.6472
C25 C -0.41671(16) 0.69504(14) 0.51523(10)
C26 C -0.56619(17) 0.63268(14) 0.46076(10)
H26 H -0.5791 0.6307 0.3985
C27 C -0.69465(17) 0.57405(15) 0.49994(11)
H27 H -0.7932 0.5331 0.4625
C28 C -0.27922(17) 0.75421(14) 0.47367(10)
H28 H -0.3015 0.7673 0.4129
O5 O 0.06785(14) -0.14974(12) 0.10352(9)
H29 H 0.108(3) -0.068(3) 0.1241(19)
C29 C 0.11678(19) -0.16755(17) 0.02081(11)
H30 H 0.1080 -0.0953 -0.0148
H31 H 0.0444 -0.2467 -0.0125
C30 C 0.2855(2) -0.17626(17) 0.03357(13)
H32 H 0.3580 -0.0980 0.0663
H33 H 0.3127 -0.1867 -0.0241
H34 H 0.2941 -0.2497 0.0667
loop_
_geom_bond_atom_site_label_1
_geom_bond_atom_site_label_2
_geom_bond_site_symmetry_1
_geom_bond_site_symmetry_2
O1 H1 1_555 1_555
O2 C7 1_555 1_555
N1 H2 1_555 1_555
C1 O1 1_555 1_555
C2 C1 1_555 1_555
H3 C2 1_555 1_555
C3 C2 1_555 1_555
H4 C3 1_555 1_555
C4 N1 1_555 1_555
C5 C4 1_555 1_555
H5 C5 1_555 1_555
C6 C1 1_555 1_555
H6 C6 1_555 1_555
C7 N1 1_555 1_555
C8 C7 1_555 1_555
H7 C8 1_555 1_555
H8 C8 1_555 1_555
H9 C8 1_555 1_555
O3 H10 1_555 1_555
O4 C15 1_555 1_555
N2 H11 1_555 1_555
C9 O3 1_555 1_555
C10 C9 1_555 1_555
H12 C10 1_555 1_555
C11 C10 1_555 1_555
H13 C11 1_555 1_555
C12 N2 1_555 1_555
C13 C12 1_555 1_555
H14 C13 1_555 1_555
C14 C9 1_555 1_555
H15 C14 1_555 1_555
C15 N2 1_555 1_555
C16 C15 1_555 1_555
H16 C16 1_555 1_555
H17 C16 1_555 1_555
H18 C16 1_555 1_555
N3 C17 1_555 1_555
N4 C23 1_555 1_555
C17 H19 1_555 1_555
C18 C17 1_555 1_555
H20 C18 1_555 1_555
C19 C18 1_555 1_555
C20 C19 1_555 1_555
H21 C20 1_555 1_555
C21 N3 1_555 1_555
H22 C21 1_555 1_555
C22 C19 1_555 1_555
H23 C22 1_555 1_555
C23 H24 1_555 1_555
C24 C23 1_555 1_555
H25 C24 1_555 1_555
C25 C24 1_555 1_555
C26 C25 1_555 1_555
H26 C26 1_555 1_555
C27 N4 1_555 1_555
H27 C27 1_555 1_555
C28 C22 1_555 1_555
H28 C28 1_555 1_555
O5 H29 1_555 1_555
C29 O5 1_555 1_555
H30 C29 1_555 1_555
H31 C29 1_555 1_555
C30 C29 1_555 1_555
H32 C30 1_555 1_555
H33 C30 1_555 1_555
H34 C30 1_555 1_555
C3 C4 1_555 1_555
C5 C6 1_555 1_555
C11 C12 1_555 1_555
C13 C14 1_555 1_555
C20 C21 1_555 1_555
C25 C28 1_555 1_555
C26 C27 1_555 1_555

#END
