
#######################################################################
#
#                 Cambridge Crystallographic Data Centre
#                                CCDC 
#
#######################################################################
#
# If this CIF has been generated from an entry in the Cambridge 
# Structural Database, then it will include bibliographic, chemical, 
# crystal, experimental, refinement or atomic coordinate data resulting 
# from the CCDC's data processing and validation procedures.
#
#######################################################################

data_KETYIR
_chemical_formula_moiety         'C16 H26 O4 S2'
_chemical_name_systematic        
"(+-)-(4aS,5aR,6aS,10aR,11aS,12aR)-5a,11a-bis(Methylthio)perhydropyrano(2'',3'':5',6')pyrano(2',3':5,6) pyrano(3,2-b)pyran"
_symmetry_cell_setting           orthorhombic
_symmetry_space_group_name_H-M   'P b c a'
_symmetry_Int_Tables_number      61
_space_group_name_Hall           '-P 2ac 2ab'
loop_
_symmetry_equiv_pos_site_id
_symmetry_equiv_pos_as_xyz
1 x,y,z
2 1/2-x,1/2+y,z
3 x,1/2-y,1/2+z
4 1/2-x,-y,1/2+z
5 -x,-y,-z
6 1/2+x,1/2-y,-z
7 -x,1/2+y,1/2-z
8 1/2+x,y,1/2-z
_cell_length_a                   10.362(2)
_cell_length_b                   10.576(2)
_cell_length_c                   15.474(2)
_cell_angle_alpha                90
_cell_angle_beta                 90
_cell_angle_gamma                90
_cell_volume                     1695.77
_cell_formula_units_Z            4
loop_
_atom_site_label
_atom_site_type_symbol
_atom_site_fract_x
_atom_site_fract_y
_atom_site_fract_z
S1 S 0.68106(6) -0.04929(6) 0.07048(4)
C1 C 0.5669(2) 0.0332(2) -0.0040(1)
C2 C 0.5568(2) 0.1710(2) 0.0237(2)
C3 C 0.4989(2) 0.1760(2) 0.1142(2)
C4 C 0.3731(2) 0.1022(2) 0.1200(2)
C5 C 0.3232(3) 0.1025(3) 0.2116(2)
C6 C 0.3085(3) 0.2403(3) 0.2393(2)
C7 C 0.4335(3) 0.3118(3) 0.2257(2)
C8 C 0.8295(3) 0.0239(3) 0.0378(2)
O1 O 0.4755(2) 0.3042(2) 0.1376(1)
O2 O 0.6104(2) 0.0260(2) -0.0907(1)
H1 H 0.5593 0.1369 0.1530
H2 H 0.3121 0.1444 0.0834
H3 H 0.5026 0.2163 -0.0158
H4 H 0.6401 0.2092 0.0235
H5 H 0.3832 0.0597 0.2484
H6 H 0.2424 0.0585 0.2143
H7 H 0.2829 0.2447 0.2981
H8 H 0.2420 0.2793 0.2046
H9 H 0.4976 0.2764 0.2628
H10 H 0.4212 0.3985 0.2412
H11 H 0.8906 -0.0293 0.0625
H12 H 0.8339 0.1094 0.0625
H13 H 0.8428 0.0386 -0.0208
C1D C 0.4331(2) -0.0332(2) 0.0040(1)
O2D O 0.3896(2) -0.0260(2) 0.0907(1)
C4D C 0.6269(2) -0.1022(2) -0.1200(2)
S1D S 0.31894(6) 0.04929(6) -0.07048(4)
C2D C 0.4432(2) -0.1710(2) -0.0237(2)
C3D C 0.5011(2) -0.1760(2) -0.1142(2)
C5D C 0.6768(3) -0.1025(3) -0.2116(2)
H2D H 0.6879 -0.1444 -0.0834
C8D C 0.1705(3) -0.0239(3) -0.0378(2)
H3D H 0.4974 -0.2163 0.0158
H4D H 0.3599 -0.2092 -0.0235
O1D O 0.5245(2) -0.3042(2) -0.1376(1)
H1D H 0.4407 -0.1369 -0.1530
C6D C 0.6915(3) -0.2403(3) -0.2393(2)
H5D H 0.6168 -0.0597 -0.2484
H6D H 0.7576 -0.0585 -0.2143
H11D H 0.1094 0.0293 -0.0625
H12D H 0.1661 -0.1094 -0.0625
H13D H 0.1572 -0.0386 0.0208
C7D C 0.5665(3) -0.3118(3) -0.2257(2)
H7D H 0.7171 -0.2447 -0.2981
H8D H 0.7580 -0.2793 -0.2046
H9D H 0.5024 -0.2764 -0.2628
H10D H 0.5788 -0.3985 -0.2412
loop_
_geom_bond_atom_site_label_1
_geom_bond_atom_site_label_2
_geom_bond_site_symmetry_1
_geom_bond_site_symmetry_2
S1 C1 1_555 1_555
C1 C2 1_555 1_555
C2 C3 1_555 1_555
C3 C4 1_555 1_555
C4 C5 1_555 1_555
C5 C6 1_555 1_555
C6 C7 1_555 1_555
C7 O1 1_555 1_555
C8 S1 1_555 1_555
O1 C3 1_555 1_555
O2 C1 1_555 1_555
H1 C3 1_555 1_555
H2 C4 1_555 1_555
H3 C2 1_555 1_555
H4 C2 1_555 1_555
H5 C5 1_555 1_555
H6 C5 1_555 1_555
H7 C6 1_555 1_555
H8 C6 1_555 1_555
H9 C7 1_555 1_555
H10 C7 1_555 1_555
H11 C8 1_555 1_555
H12 C8 1_555 1_555
H13 C8 1_555 1_555
C1D C1 1_555 1_555
O2D C4 1_555 1_555
C4D O2 1_555 1_555
S1D C1D 1_555 1_555
C2D C1D 1_555 1_555
C3D C4D 1_555 1_555
C5D C4D 1_555 1_555
H2D C4D 1_555 1_555
C8D S1D 1_555 1_555
H3D C2D 1_555 1_555
H4D C2D 1_555 1_555
O1D C3D 1_555 1_555
H1D C3D 1_555 1_555
C6D C5D 1_555 1_555
H5D C5D 1_555 1_555
H6D C5D 1_555 1_555
H11D C8D 1_555 1_555
H12D C8D 1_555 1_555
H13D C8D 1_555 1_555
C7D O1D 1_555 1_555
H7D C6D 1_555 1_555
H8D C6D 1_555 1_555
H9D C7D 1_555 1_555
H10D C7D 1_555 1_555
C1D O2D 1_555 1_555
C2D C3D 1_555 1_555
C6D C7D 1_555 1_555

#END
