
#######################################################################
#
#                 Cambridge Crystallographic Data Centre
#                                CCDC 
#
#######################################################################
#
# If this CIF has been generated from an entry in the Cambridge 
# Structural Database, then it will include bibliographic, chemical, 
# crystal, experimental, refinement or atomic coordinate data resulting 
# from the CCDC's data processing and validation procedures.
#
#######################################################################

data_KETZIU
_chemical_name_common            
"paracetamol 4,4'-ethene-1,2-diyldipyridine hydrate"
_chemical_formula_moiety         'C12 H10 N2,0.67(C8 H9 N1 O2),2.67(H2 O1)'
_chemical_name_systematic        
"N-(4-Hydroxyphenyl)acetamide 4,4'-ethene-1,2-diyldipyridine hydrate"
_symmetry_cell_setting           triclinic
_symmetry_space_group_name_H-M   'P -1'
_symmetry_Int_Tables_number      2
_space_group_name_Hall           '-P 1'
loop_
_symmetry_equiv_pos_site_id
_symmetry_equiv_pos_as_xyz
1 x,y,z
2 -x,-y,-z
_cell_length_a                   8.4243(14)
_cell_length_b                   12.227(2)
_cell_length_c                   13.193(2)
_cell_angle_alpha                96.960(2)
_cell_angle_beta                 93.427(2)
_cell_angle_gamma                101.280(2)
_cell_volume                     1317.99
_exptl_crystal_colour            colorless
_exptl_crystal_description       plate
_cell_formula_units_Z            3
loop_
_atom_site_label
_atom_site_type_symbol
_atom_site_fract_x
_atom_site_fract_y
_atom_site_fract_z
O1 O -0.09119(9) 0.10934(6) -0.06001(6)
H1 H -0.100(2) 0.1395(14) -0.1203(13)
O2 O 0.17097(10) 0.59789(6) 0.22113(6)
N1 N 0.13407(11) 0.42955(7) 0.28282(7)
H2 H 0.1413 0.3992 0.3380
C1 C -0.03240(12) 0.19243(8) 0.01973(8)
C2 C -0.04334(12) 0.30455(8) 0.01762(8)
H3 H -0.0886 0.3257 -0.0411
C3 C 0.01288(13) 0.38522(8) 0.10269(8)
H4 H 0.0047 0.4597 0.1005
C4 C 0.08137(12) 0.35443(8) 0.19097(8)
C5 C 0.09491(12) 0.24228(8) 0.19199(8)
H5 H 0.1423 0.2213 0.2501
C6 C 0.03861(12) 0.16220(8) 0.10738(8)
H6 H 0.0483 0.0880 0.1091
C7 C 0.17408(13) 0.54262(9) 0.29364(8)
C8 C 0.22451(18) 0.59913(10) 0.40196(9)
H7 H 0.2026 0.6737 0.4091
H8 H 0.3386 0.6033 0.4171
H9 H 0.1644 0.5563 0.4487
N2 N 0.34125(12) 0.84873(8) 0.58998(7)
N3 N 0.68653(12) 0.86471(8) 1.28515(7)
C9 C 0.26380(14) 0.79099(10) 0.65884(9)
H10 H 0.1629 0.7447 0.6379
C10 C 0.32521(13) 0.79631(10) 0.75932(8)
H11 H 0.2666 0.7541 0.8039
C11 C 0.47604(13) 0.86569(9) 0.79328(8)
C12 C 0.55762(13) 0.92479(10) 0.72138(9)
H12 H 0.6590 0.9714 0.7398
C13 C 0.48666(14) 0.91355(11) 0.62239(9)
H13 H 0.5435 0.9535 0.5756
C14 C 0.54893(13) 0.88092(9) 0.89926(8)
H14 H 0.6436 0.9354 0.9164
C15 C 0.76594(14) 0.92118(10) 1.21615(9)
H15 H 0.8649 0.9695 1.2381
C16 C 0.70958(13) 0.91184(9) 1.11439(8)
H16 H 0.7692 0.9535 1.0698
C17 C 0.56160(13) 0.83887(9) 1.07906(8)
C18 C 0.47969(14) 0.77896(10) 1.15058(9)
H17 H 0.3818 0.7286 1.1307
C19 C 0.54518(14) 0.79507(10) 1.25117(9)
H18 H 0.4878 0.7553 1.2978
C20 C 0.49041(13) 0.82294(9) 0.97282(8)
H19 H 0.3966 0.7678 0.9553
N4 N 0.3054(6) 0.4608(5) 0.6526(5)
C21 C 0.4362(5) 0.5334(4) 0.7002(3)
H20 H 0.5008 0.5793 0.6609
C22 C 0.4811(3) 0.5444(2) 0.80425(18)
H21 H 0.5735 0.5961 0.8331
C23 C 0.3859(2) 0.47672(16) 0.86542(16)
C24 C 0.2465(2) 0.40345(19) 0.81691(16)
H22 H 0.1764 0.3590 0.8545
C25 C 0.2140(5) 0.3979(4) 0.71117(15)
H23 H 0.1225 0.3469 0.6798
C26 C 0.42761(18) 0.47731(13) 0.97497(11)
H24 H 0.3467 0.4433 1.0127
N4A N 0.6946(6) 0.5392(5) 1.3474(5)
C21A C 0.5638(5) 0.4666(4) 1.2998(3)
H20A H 0.4992 0.4207 1.3391
C22A C 0.5189(3) 0.4556(2) 1.19575(18)
H21A H 0.4265 0.4039 1.1669
C23A C 0.6141(2) 0.52328(16) 1.13458(16)
C24A C 0.7535(2) 0.59655(19) 1.18309(16)
H22A H 0.8236 0.6410 1.1455
C25A C 0.7860(5) 0.6021(4) 1.28883(15)
H23A H 0.8775 0.6531 1.3202
C26A C 0.57239(18) 0.52269(13) 1.02503(11)
H24A H 0.6533 0.5567 0.9873
O4 O 0.252(2) 0.3387(4) 0.4524(3)
H32 H 0.246(9) 0.269(2) 0.465(5)
H33 H 0.243(16) 0.380(5) 0.510(4)
O5 O 0.16753(10) 0.12878(7) 0.52212(6)
H34 H 0.170(2) 0.0626(10) 0.4867(11)
H35 H 0.217(2) 0.1300(14) 0.5831(8)
O6 O 0.11627(11) 0.80982(7) 0.23395(6)
H36 H 0.132(2) 0.8429(11) 0.2987(8)
H37 H 0.1378(19) 0.7425(8) 0.2340(11)
O7 O 0.15196(10) 0.90688(7) 0.43392(6)
H38 H 0.2135(14) 0.8829(12) 0.4808(10)
H39 H 0.0507(11) 0.8861(15) 0.4506(13)
N5? N 0.281(2) 0.4574(18) 0.6572(16)
C27? C 0.4153(19) 0.5437(14) 0.6839(10)
H25? H 0.4579 0.5861 0.6342
C28? C 0.4861(14) 0.5676(9) 0.7814(7)
H26? H 0.5749 0.6272 0.7970
C29? C 0.4309(9) 0.5069(6) 0.8571(7)
C30? C 0.2955(9) 0.4222(8) 0.8322(7)
H27? H 0.2549 0.3789 0.8818
C31? C 0.2205(19) 0.4012(15) 0.7355(8)
H28? H 0.1250 0.3469 0.7219
C32? C 0.5182(6) 0.5301(4) 0.9618(4)
H29? H 0.6048 0.5915 0.9748
O3? O 0.178(3) 0.3370(4) 0.4610(7)
H30? H 0.187(4) 0.2680(10) 0.469(2)
H31? H 0.245(3) 0.3831(16) 0.5090(17)
loop_
_geom_bond_atom_site_label_1
_geom_bond_atom_site_label_2
_geom_bond_site_symmetry_1
_geom_bond_site_symmetry_2
O1 H1 1_555 1_555
O2 C7 1_555 1_555
N1 H2 1_555 1_555
C1 O1 1_555 1_555
C2 C1 1_555 1_555
H3 C2 1_555 1_555
C3 C2 1_555 1_555
H4 C3 1_555 1_555
C4 N1 1_555 1_555
C5 C4 1_555 1_555
H5 C5 1_555 1_555
C6 C1 1_555 1_555
H6 C6 1_555 1_555
C7 N1 1_555 1_555
C8 C7 1_555 1_555
H7 C8 1_555 1_555
H8 C8 1_555 1_555
H9 C8 1_555 1_555
N2 C9 1_555 1_555
N3 C15 1_555 1_555
C9 H10 1_555 1_555
C10 C9 1_555 1_555
H11 C10 1_555 1_555
C11 C10 1_555 1_555
C12 C11 1_555 1_555
H12 C12 1_555 1_555
C13 N2 1_555 1_555
H13 C13 1_555 1_555
C14 C11 1_555 1_555
H14 C14 1_555 1_555
C15 H15 1_555 1_555
C16 C15 1_555 1_555
H16 C16 1_555 1_555
C17 C16 1_555 1_555
C18 C17 1_555 1_555
H17 C18 1_555 1_555
C19 N3 1_555 1_555
H18 C19 1_555 1_555
C20 C14 1_555 1_555
H19 C20 1_555 1_555
N4 C21 1_555 1_555
C21 H20 1_555 1_555
C22 C21 1_555 1_555
H21 C22 1_555 1_555
C23 C22 1_555 1_555
C24 C23 1_555 1_555
H22 C24 1_555 1_555
C25 N4 1_555 1_555
H23 C25 1_555 1_555
C26 C23 1_555 1_555
H24 C26 1_555 1_555
O4 H32 1_555 1_555
H33 O4 1_555 1_555
O5 H34 1_555 1_555
H35 O5 1_555 1_555
O6 H36 1_555 1_555
H37 O6 1_555 1_555
O7 H38 1_555 1_555
H39 O7 1_555 1_555
N4A C21A 1_555 1_555
C21A H20A 1_555 1_555
C22A C21A 1_555 1_555
H21A C22A 1_555 1_555
C23A C22A 1_555 1_555
C24A C23A 1_555 1_555
H22A C24A 1_555 1_555
C25A N4A 1_555 1_555
H23A C25A 1_555 1_555
C26A C26 1_555 1_555
H24A C26A 1_555 1_555
C3 C4 1_555 1_555
C5 C6 1_555 1_555
C12 C13 1_555 1_555
C17 C20 1_555 1_555
C18 C19 1_555 1_555
C24 C25 1_555 1_555
C23A C26A 1_555 1_555
C24A C25A 1_555 1_555

#END
