
#######################################################################
#
#                 Cambridge Crystallographic Data Centre
#                                CCDC 
#
#######################################################################
#
# If this CIF has been generated from an entry in the Cambridge 
# Structural Database, then it will include bibliographic, chemical, 
# crystal, experimental, refinement or atomic coordinate data resulting 
# from the CCDC's data processing and validation procedures.
#
#######################################################################

data_KETZEQ
_chemical_name_common            
"paracetamol 4,4'-ethene-1,2-diyldipyridine hydrate"
_chemical_formula_moiety         'C12 H10 N2,0.67(C8 H9 N1 O2),1.33(H2 O1)'
_chemical_name_systematic        
"N-(4-Hydroxyphenyl)acetamide 4,4'-ethene-1,2-diyldipyridine hydrate"
_symmetry_cell_setting           triclinic
_symmetry_space_group_name_H-M   'P -1'
_symmetry_Int_Tables_number      2
_space_group_name_Hall           '-P 1'
loop_
_symmetry_equiv_pos_site_id
_symmetry_equiv_pos_as_xyz
1 x,y,z
2 -x,-y,-z
_cell_length_a                   9.2028(9)
_cell_length_b                   11.5290(12)
_cell_length_c                   11.7206(12)
_cell_angle_alpha                93.3410(10)
_cell_angle_beta                 99.5260(10)
_cell_angle_gamma                102.8040(10)
_cell_volume                     1190.06
_exptl_crystal_colour            colorless
_exptl_crystal_description       plate
_cell_formula_units_Z            3
loop_
_atom_site_label
_atom_site_type_symbol
_atom_site_fract_x
_atom_site_fract_y
_atom_site_fract_z
O1 O 0.98934(8) 0.70730(6) 1.75529(6)
H1 H 1.0244 0.7740 1.7902
O2 O 0.88998(9) 0.90361(6) 1.24352(6)
N1 N 0.90685(9) 0.71371(7) 1.27329(7)
H2 H 0.9073 0.6460 1.2385
C1 C 0.96772(11) 0.71621(9) 1.63820(8)
C2 C 1.00127(12) 0.82400(9) 1.58958(9)
H3 H 1.0375 0.8951 1.6378
C3 C 0.98108(12) 0.82640(8) 1.46962(8)
H4 H 1.0048 0.8989 1.4380
C4 C 0.92520(11) 0.72028(9) 1.39645(8)
C5 C 0.88909(11) 0.61257(9) 1.44554(9)
H5 H 0.8503 0.5415 1.3976
C6 C 0.91058(11) 0.61072(9) 1.56532(9)
H6 H 0.8866 0.5384 1.5971
C7 C 0.88887(11) 0.80107(9) 1.20474(8)
C8 C 0.86523(12) 0.76639(9) 1.07610(9)
H7 H 0.9462 0.8135 1.0446
H8 H 0.7703 0.7803 1.0391
H9 H 0.8641 0.6832 1.0626
N2 N 0.68700(11) 0.40095(8) 0.94802(8)
N3 N 0.44661(10) 0.25978(8) 0.13008(8)
C9 C 0.78232(13) 0.38689(10) 0.87584(9)
H10 H 0.8824 0.3893 0.9083
C10 C 0.74049(12) 0.36903(10) 0.75632(9)
H11 H 0.8106 0.3578 0.7105
C11 C 0.59199(12) 0.36797(9) 0.70480(9)
C12 C 0.49333(12) 0.38350(9) 0.77980(9)
H12 H 0.3936 0.3847 0.7499
C13 C 0.54409(12) 0.39716(9) 0.89875(9)
H13 H 0.4751 0.4041 0.9470
C14 C 0.53652(11) 0.35166(9) 0.57891(9)
H14 H 0.4413 0.3655 0.5530
C15 C 0.36968(12) 0.30530(10) 0.20211(9)
H15 H 0.2789 0.3232 0.1697
C16 C 0.41635(12) 0.32728(9) 0.32119(9)
H16 H 0.3582 0.3594 0.3666
C17 C 0.55191(11) 0.30075(8) 0.37272(8)
C18 C 0.63240(12) 0.25377(10) 0.29843(9)
H17 H 0.7234 0.2347 0.3282
C19 C 0.57645(12) 0.23545(10) 0.17972(9)
H18 H 0.6327 0.2044 0.1319
C20 C 0.60976(11) 0.31888(9) 0.49831(9)
H19 H 0.7058 0.3064 0.5238
N4 N 0.67956(11) 1.06092(8) 0.90535(8)
C21 C 0.74675(12) 1.01959(10) 0.82339(9)
H20 H 0.8388 0.9995 0.8471
C22 C 0.68703(12) 1.00525(10) 0.70587(9)
H21 H 0.7391 0.9774 0.6527
C23 C 0.54777(12) 1.03285(9) 0.66758(9)
C24 C 0.47683(12) 1.07389(9) 0.75310(9)
H22 H 0.3832 1.0924 0.7323
C25 C 0.54624(13) 1.08694(9) 0.86902(9)
H23 H 0.4974 1.1153 0.9243
C26 C 0.47343(12) 1.01943(9) 0.54529(9)
H24 H 0.3805 1.0399 0.5293
N4A N 0.32044(11) 0.93908(8) 0.09465(8)
C21A C 0.25325(12) 0.98041(10) 0.17661(9)
H20A H 0.1612 1.0005 0.1529
C22A C 0.31297(12) 0.99475(10) 0.29413(9)
H21A H 0.2609 1.0226 0.3473
C23A C 0.45223(12) 0.96715(9) 0.33242(9)
C24A C 0.52317(12) 0.92611(9) 0.24690(9)
H22A H 0.6168 0.9076 0.2677
C25A C 0.45376(13) 0.91306(9) 0.13098(9)
H23A H 0.5026 0.8847 0.0757
C26A C 0.52657(12) 0.98057(9) 0.45471(9)
H24A H 0.6195 0.9601 0.4707
O3 O 0.88479(10) 1.09274(7) 1.11562(7)
H25 H 0.8122(15) 1.0862(13) 1.0558(10)
H26 H 0.8771(17) 1.0248(10) 1.1476(12)
O4 O 0.86629(9) 0.47978(6) 1.16804(7)
H27 H 0.8004(15) 0.4505(13) 1.1034(10)
H28 H 0.9083(16) 0.4211(11) 1.1906(12)
loop_
_geom_bond_atom_site_label_1
_geom_bond_atom_site_label_2
_geom_bond_site_symmetry_1
_geom_bond_site_symmetry_2
O1 H1 1_555 1_555
O2 C7 1_555 1_555
N1 H2 1_555 1_555
C1 O1 1_555 1_555
C2 C1 1_555 1_555
H3 C2 1_555 1_555
C3 C2 1_555 1_555
H4 C3 1_555 1_555
C4 N1 1_555 1_555
C5 C4 1_555 1_555
H5 C5 1_555 1_555
C6 C1 1_555 1_555
H6 C6 1_555 1_555
C7 N1 1_555 1_555
C8 C7 1_555 1_555
H7 C8 1_555 1_555
H8 C8 1_555 1_555
H9 C8 1_555 1_555
N2 C9 1_555 1_555
N3 C15 1_555 1_555
C9 H10 1_555 1_555
C10 C9 1_555 1_555
H11 C10 1_555 1_555
C11 C10 1_555 1_555
C12 C11 1_555 1_555
H12 C12 1_555 1_555
C13 N2 1_555 1_555
H13 C13 1_555 1_555
C14 C11 1_555 1_555
H14 C14 1_555 1_555
C15 H15 1_555 1_555
C16 C15 1_555 1_555
H16 C16 1_555 1_555
C17 C16 1_555 1_555
C18 C17 1_555 1_555
H17 C18 1_555 1_555
C19 N3 1_555 1_555
H18 C19 1_555 1_555
C20 C14 1_555 1_555
H19 C20 1_555 1_555
N4 C21 1_555 1_555
C21 H20 1_555 1_555
C22 C21 1_555 1_555
H21 C22 1_555 1_555
C23 C22 1_555 1_555
C24 C23 1_555 1_555
H22 C24 1_555 1_555
C25 N4 1_555 1_555
H23 C25 1_555 1_555
C26 C23 1_555 1_555
H24 C26 1_555 1_555
O3 H25 1_555 1_555
H26 O3 1_555 1_555
O4 H27 1_555 1_555
H28 O4 1_555 1_555
N4A C21A 1_555 1_555
C21A H20A 1_555 1_555
C22A C21A 1_555 1_555
H21A C22A 1_555 1_555
C23A C22A 1_555 1_555
C24A C23A 1_555 1_555
H22A C24A 1_555 1_555
C25A N4A 1_555 1_555
H23A C25A 1_555 1_555
C26A C26 1_555 1_555
H24A C26A 1_555 1_555
C3 C4 1_555 1_555
C5 C6 1_555 1_555
C12 C13 1_555 1_555
C17 C20 1_555 1_555
C18 C19 1_555 1_555
C24 C25 1_555 1_555
C23A C26A 1_555 1_555
C24A C25A 1_555 1_555

#END
