
#######################################################################
#
#                 Cambridge Crystallographic Data Centre
#                                CCDC 
#
#######################################################################
#
# If this CIF has been generated from an entry in the Cambridge 
# Structural Database, then it will include bibliographic, chemical, 
# crystal, experimental, refinement or atomic coordinate data resulting 
# from the CCDC's data processing and validation procedures.
#
#######################################################################

data_KETZUE
_chemical_formula_moiety         'C18 H28 O4 S2'
_chemical_name_systematic        
Perhydrodipyrano(3,2-b:3',2'-i)(1,8)dioxacyclotetradecane-7,14-dithione
_symmetry_cell_setting           triclinic
_symmetry_space_group_name_H-M   'P -1'
_symmetry_Int_Tables_number      2
_space_group_name_Hall           '-P 1'
loop_
_symmetry_equiv_pos_site_id
_symmetry_equiv_pos_as_xyz
1 x,y,z
2 -x,-y,-z
_cell_length_a                   10.304(1)
_cell_length_b                   10.953(1)
_cell_length_c                   9.472(1)
_cell_angle_alpha                90.00
_cell_angle_beta                 112.66(1)
_cell_angle_gamma                75.80(1)
_cell_volume                     950.994
_cell_formula_units_Z            2
loop_
_atom_site_label
_atom_site_type_symbol
_atom_site_fract_x
_atom_site_fract_y
_atom_site_fract_z
S1 S 0.8497(2) 0.3463(1) 0.2633(2)
C1 C 1.0004(5) 0.2404(5) 0.3709(6)
C2 C 1.1091(5) 0.1710(6) 0.3084(6)
C3 C 1.0651(6) 0.0567(6) 0.2307(7)
C4 C 1.0880(7) -0.0434(5) 0.3456(7)
C5 C 1.0237(6) -0.1605(5) 0.2753(6)
C6 C 1.0528(5) -0.2613(5) 0.4010(5)
C7 C 1.0092(6) -0.3796(5) 0.3355(6)
C8 C 1.0953(6) -0.4309(6) 0.2297(7)
C9 C 1.0650(6) -0.3207(6) 0.1101(6)
O1 O 1.0400(4) 0.2052(3) 0.5157(4)
O2 O 1.1052(4) -0.2133(4) 0.1839(4)
O1A O 0.9600(4) -0.2052(3) 0.4843(4)
C6A C 0.9472(5) 0.2613(5) 0.5990(5)
C1A C 0.9996(5) -0.2404(5) 0.6291(6)
C5A C 0.9763(6) 0.1605(5) 0.7247(6)
C7A C 0.9908(6) 0.3796(5) 0.6645(6)
S1A S 1.1503(2) -0.3463(1) 0.7367(2)
C2A C 0.8909(5) -0.1710(6) 0.6916(6)
C4A C 0.9120(7) 0.0434(5) 0.6544(7)
O2A O 0.8948(4) 0.2133(4) 0.8161(4)
C8A C 0.9047(6) 0.4309(6) 0.7703(7)
C3A C 0.9349(6) -0.0567(6) 0.7693(7)
C9A C 0.9350(6) 0.3207(6) 0.8899(6)
S2 S 0.3463(2) 0.3245(2) 0.0804(2)
C10 C 0.5031(5) 0.2233(5) 0.1118(6)
C11 C 0.6007(6) 0.1457(5) 0.2606(7)
C12 C 0.5979(6) -0.0018(6) 0.2487(7)
C13 C 0.4527(6) -0.0171(6) 0.2276(7)
C14 C 0.4530(7) -0.1535(5) 0.2432(6)
C15 C 0.5222(6) -0.2477(5) 0.1550(6)
C16 C 0.4992(6) -0.3788(5) 0.1820(7)
C17 C 0.5744(7) -0.4211(6) 0.3534(7)
C18 C 0.5177(6) -0.3192(5) 0.4414(6)
O3 O 0.5585(4) 0.1961(3) 0.0071(4)
O4 O 0.5359(4) -0.1990(4) 0.4072(4)
O3A O 0.4415(4) -0.1961(3) -0.0071(4)
C15A C 0.4778(6) 0.2477(5) -0.1550(6)
C10A C 0.4969(5) -0.2233(5) -0.1118(6)
C14A C 0.5470(7) 0.1535(5) -0.2432(6)
C16A C 0.5008(6) 0.3788(5) -0.1820(7)
S2A S 0.6537(2) -0.3245(2) -0.0804(2)
C11A C 0.3993(6) -0.1457(5) -0.2606(7)
C13A C 0.5473(6) 0.0171(6) -0.2276(7)
O4A O 0.4641(4) 0.1990(4) -0.4072(4)
C17A C 0.4256(7) 0.4211(6) -0.3534(7)
C12A C 0.4021(6) 0.0018(6) -0.2487(7)
C18A C 0.4823(6) 0.3192(5) -0.4414(6)
loop_
_geom_bond_atom_site_label_1
_geom_bond_atom_site_label_2
_geom_bond_site_symmetry_1
_geom_bond_site_symmetry_2
S1 C1 1_555 1_555
C1 C2 1_555 1_555
C2 C3 1_555 1_555
C3 C4 1_555 1_555
C4 C5 1_555 1_555
C5 C6 1_555 1_555
C6 C7 1_555 1_555
C7 C8 1_555 1_555
C8 C9 1_555 1_555
C9 O2 1_555 1_555
O1 C1 1_555 1_555
O2 C5 1_555 1_555
S2 C10 1_555 1_555
C10 C11 1_555 1_555
C11 C12 1_555 1_555
C12 C13 1_555 1_555
C13 C14 1_555 1_555
C14 C15 1_555 1_555
C15 C16 1_555 1_555
C16 C17 1_555 1_555
C17 C18 1_555 1_555
C18 O4 1_555 1_555
O3 C10 1_555 1_555
O4 C14 1_555 1_555
O1A C6 1_555 1_555
C6A O1 1_555 1_555
C1A O1A 1_555 1_555
C5A C6A 1_555 1_555
C7A C6A 1_555 1_555
S1A C1A 1_555 1_555
C2A C1A 1_555 1_555
C4A C5A 1_555 1_555
O2A C5A 1_555 1_555
C8A C7A 1_555 1_555
C3A C2A 1_555 1_555
C9A O2A 1_555 1_555
O3A C15 1_555 1_555
C15A O3 1_555 1_555
C10A O3A 1_555 1_555
C14A C15A 1_555 1_555
C16A C15A 1_555 1_555
S2A C10A 1_555 1_555
C11A C10A 1_555 1_555
C13A C14A 1_555 1_555
O4A C14A 1_555 1_555
C17A C16A 1_555 1_555
C12A C11A 1_555 1_555
C18A O4A 1_555 1_555
C4A C3A 1_555 1_555
C8A C9A 1_555 1_555
C13A C12A 1_555 1_555
C17A C18A 1_555 1_555

#END
