
#######################################################################
#
#                 Cambridge Crystallographic Data Centre
#                                CCDC 
#
#######################################################################
#
# If this CIF has been generated from an entry in the Cambridge 
# Structural Database, then it will include bibliographic, chemical, 
# crystal, experimental, refinement or atomic coordinate data resulting 
# from the CCDC's data processing and validation procedures.
#
#######################################################################

data_KETZAM
_chemical_name_common            
"paracetamol 4,4'-ethene-1,2-diyldipyridine dihydrate"
_chemical_formula_moiety         'C12 H10 N2,C8 H9 N1 O2,2(H2 O1)'
_chemical_name_systematic        
"N-(4-Hydroxyphenyl)acetamide 4,4'-ethene-1,2-diyldipyridine dihydrate"
_symmetry_cell_setting           monoclinic
_symmetry_space_group_name_H-M   'P 21/c'
_symmetry_Int_Tables_number      14
_space_group_name_Hall           '-P 2ybc'
loop_
_symmetry_equiv_pos_site_id
_symmetry_equiv_pos_as_xyz
1 x,y,z
2 -x,1/2+y,1/2-z
3 -x,-y,-z
4 x,1/2-y,1/2+z
_cell_length_a                   6.5584(5)
_cell_length_b                   40.426(3)
_cell_length_c                   7.1631(5)
_cell_angle_alpha                90
_cell_angle_beta                 97.5890(10)
_cell_angle_gamma                90
_cell_volume                     1882.52
_exptl_crystal_colour            colorless
_cell_formula_units_Z            4
loop_
_atom_site_label
_atom_site_type_symbol
_atom_site_fract_x
_atom_site_fract_y
_atom_site_fract_z
O1 O 0.67189(15) 0.22499(2) 0.35042(14)
H1 H 0.551(4) 0.2374(5) 0.345(3)
O2 O 0.18280(14) 0.08550(2) 0.30664(15)
N1 N 0.53186(16) 0.08905(2) 0.36509(15)
H2 H 0.6425 0.0775 0.3855
C1 C 0.63074(19) 0.19218(3) 0.36204(17)
C2 C 0.44230(19) 0.18004(3) 0.40287(18)
H3 H 0.3409 0.1947 0.4297
C3 C 0.40474(19) 0.14611(3) 0.40379(18)
H4 H 0.2778 0.1383 0.4287
C4 C 0.55764(18) 0.12388(3) 0.36738(17)
C5 C 0.74943(19) 0.13613(3) 0.33526(17)
H5 H 0.8539 0.1215 0.3161
C6 C 0.78518(19) 0.16982(3) 0.33170(18)
H6 H 0.9130 0.1776 0.3089
C7 C 0.35477(19) 0.07212(3) 0.33471(17)
C8 C 0.3753(2) 0.03500(3) 0.3397(2)
H7 H 0.3498 0.0270 0.4606
H8 H 0.5118 0.0289 0.3185
H9 H 0.2773 0.0255 0.2433
N2 N 0.33940(18) 0.26534(3) 0.33468(16)
N3 N -0.54467(19) 0.44871(3) 0.36212(16)
C9 C 0.3859(2) 0.29430(3) 0.42219(18)
H10 H 0.5193 0.2974 0.4817
C10 C 0.2458(2) 0.31974(3) 0.42841(18)
H11 H 0.2849 0.3392 0.4930
C11 C 0.0447(2) 0.31606(3) 0.33685(17)
C12 C -0.0042(2) 0.28570(3) 0.24827(19)
H12 H -0.1363 0.2818 0.1877
C13 C 0.1456(2) 0.26147(3) 0.25150(19)
H13 H 0.1097 0.2414 0.1926
C14 C -0.1126(2) 0.34208(3) 0.32763(18)
H14 H -0.2397 0.3375 0.2586
C15 C -0.5952(2) 0.41727(3) 0.31523(19)
H15 H -0.7318 0.4126 0.2707
C16 C -0.4557(2) 0.39145(3) 0.32944(19)
H16 H -0.4992 0.3701 0.2957
C17 C -0.2485(2) 0.39762(3) 0.39502(17)
C18 C -0.1961(2) 0.43013(3) 0.44588(19)
H17 H -0.0610 0.4355 0.4926
C19 C -0.3463(2) 0.45443(3) 0.42636(19)
H18 H -0.3074 0.4760 0.4598
C20 C -0.0892(2) 0.37181(3) 0.40966(18)
H19 H 0.0365 0.3765 0.4809
O3 O 0.88780(14) 0.04710(2) 0.43280(16)
H20 H 0.986(3) 0.0586(5) 0.392(3)
H21 H 0.949(6) 0.0377(10) 0.558(6)
O4 O 0.90806(17) -0.01427(3) 0.25047(16)
H22 H 0.793(4) -0.0237(6) 0.210(3)
H23 H 0.890(5) 0.0075(10) 0.304(5)
loop_
_geom_bond_atom_site_label_1
_geom_bond_atom_site_label_2
_geom_bond_site_symmetry_1
_geom_bond_site_symmetry_2
O1 H1 1_555 1_555
O2 C7 1_555 1_555
N1 H2 1_555 1_555
C1 O1 1_555 1_555
C2 C1 1_555 1_555
H3 C2 1_555 1_555
C3 C2 1_555 1_555
H4 C3 1_555 1_555
C4 N1 1_555 1_555
C5 C4 1_555 1_555
H5 C5 1_555 1_555
C6 C1 1_555 1_555
H6 C6 1_555 1_555
C7 N1 1_555 1_555
C8 C7 1_555 1_555
H7 C8 1_555 1_555
H8 C8 1_555 1_555
H9 C8 1_555 1_555
N2 C9 1_555 1_555
N3 C15 1_555 1_555
C9 H10 1_555 1_555
C10 C9 1_555 1_555
H11 C10 1_555 1_555
C11 C10 1_555 1_555
C12 C11 1_555 1_555
H12 C12 1_555 1_555
C13 N2 1_555 1_555
H13 C13 1_555 1_555
C14 C11 1_555 1_555
H14 C14 1_555 1_555
C15 H15 1_555 1_555
C16 C15 1_555 1_555
H16 C16 1_555 1_555
C17 C16 1_555 1_555
C18 C17 1_555 1_555
H17 C18 1_555 1_555
C19 N3 1_555 1_555
H18 C19 1_555 1_555
C20 C14 1_555 1_555
H19 C20 1_555 1_555
O3 H20 1_555 1_555
H21 O3 1_555 1_555
O4 H22 1_555 1_555
H23 O4 1_555 1_555
C3 C4 1_555 1_555
C5 C6 1_555 1_555
C12 C13 1_555 1_555
C17 C20 1_555 1_555
C18 C19 1_555 1_555

#END
