
#######################################################################
#
#                 Cambridge Crystallographic Data Centre
#                                CCDC 
#
#######################################################################
#
# If this CIF has been generated from an entry in the Cambridge 
# Structural Database, then it will include bibliographic, chemical, 
# crystal, experimental, refinement or atomic coordinate data resulting 
# from the CCDC's data processing and validation procedures.
#
#######################################################################

data_KETZEO
_chemical_formula_moiety         'C14 H20 O4 S2'
_chemical_name_systematic        
(4aS,7aS,11aR,14aR)-Perhydrodipyrano(3,2-b:3',2'-g)(1,6)dioxacyclodecane-6,13-dithione
_symmetry_cell_setting           monoclinic
_symmetry_space_group_name_H-M   'P 21/n'
_symmetry_Int_Tables_number      14
_space_group_name_Hall           '-P 2yn'
loop_
_symmetry_equiv_pos_site_id
_symmetry_equiv_pos_as_xyz
1 x,y,z
2 1/2-x,1/2+y,1/2-z
3 -x,-y,-z
4 1/2+x,1/2-y,1/2+z
_cell_length_a                   9.154(1)
_cell_length_b                   8.451(1)
_cell_length_c                   9.677(2)
_cell_angle_alpha                90
_cell_angle_beta                 101.65(1)
_cell_angle_gamma                90
_cell_volume                     733.195
_exptl_crystal_colour            colorless
_chemical_melting_point          247-248deg.C
_cell_formula_units_Z            2
loop_
_atom_site_label
_atom_site_type_symbol
_atom_site_fract_x
_atom_site_fract_y
_atom_site_fract_z
S1 S 0.48838(9) 0.69133(9) 0.12842(7)
C1 C 0.5811(2) 0.8462(3) 0.1006(2)
C2 C 0.6454(3) 0.9628(3) 0.2129(2)
C3 C 0.5233(2) 1.0634(3) 0.2578(2)
C4 C 0.4608(2) 1.1914(3) 0.1518(2)
C5 C 0.3459(3) 1.2924(3) 0.2043(3)
C6 C 0.4143(3) 1.3556(3) 0.3514(3)
C7 C 0.4795(3) 1.2223(3) 0.4454(2)
O1 O 0.6103(2) 0.8897(2) -0.0239(1)
O2 O 0.5893(2) 1.1379(2) 0.3864(2)
H1 H 0.4420 0.9955 0.2659
H2 H 0.5365 1.2644 0.1366
H3 H 0.7131 1.0312 0.1781
H4 H 0.6992 0.9065 0.2923
H5 H 0.2618 1.2271 0.2110
H6 H 0.3159 1.3771 0.1437
H7 H 0.3384 1.4048 0.3905
H8 H 0.4900 1.4279 0.3449
H9 H 0.4003 1.1529 0.4569
H10 H 0.5240 1.2653 0.5346
O1B O 0.3897(2) 1.1103(2) 0.0239(1)
C4B C 0.5392(2) 0.8086(3) -0.1518(2)
C1B C 0.4189(2) 1.1538(3) -0.1006(2)
C3B C 0.4767(2) 0.9366(3) -0.2578(2)
C5B C 0.6541(3) 0.7076(3) -0.2043(3)
H2B H 0.4635 0.7356 -0.1366
S1B S 0.51162(9) 1.30867(9) -0.12842(7)
C2B C 0.3546(3) 1.0372(3) -0.2129(2)
O2B O 0.4107(2) 0.8621(2) -0.3864(2)
H1B H 0.5580 1.0045 -0.2659
C6B C 0.5857(3) 0.6444(3) -0.3514(3)
H5B H 0.7382 0.7729 -0.2110
H6B H 0.6841 0.6229 -0.1437
H3B H 0.2869 0.9688 -0.1781
H4B H 0.3008 1.0935 -0.2923
C7B C 0.5205(3) 0.7777(3) -0.4454(2)
H7B H 0.6616 0.5952 -0.3905
H8B H 0.5100 0.5721 -0.3449
H9B H 0.5997 0.8471 -0.4569
H10B H 0.4760 0.7347 -0.5346
loop_
_geom_bond_atom_site_label_1
_geom_bond_atom_site_label_2
_geom_bond_site_symmetry_1
_geom_bond_site_symmetry_2
S1 C1 1_555 1_555
C1 C2 1_555 1_555
C2 C3 1_555 1_555
C3 C4 1_555 1_555
C4 C5 1_555 1_555
C5 C6 1_555 1_555
C6 C7 1_555 1_555
C7 O2 1_555 1_555
O1 C1 1_555 1_555
O2 C3 1_555 1_555
H1 C3 1_555 1_555
H2 C4 1_555 1_555
H3 C2 1_555 1_555
H4 C2 1_555 1_555
H5 C5 1_555 1_555
H6 C5 1_555 1_555
H7 C6 1_555 1_555
H8 C6 1_555 1_555
H9 C7 1_555 1_555
H10 C7 1_555 1_555
O1B C4 1_555 1_555
C4B O1 1_555 1_555
C1B O1B 1_555 1_555
C3B C4B 1_555 1_555
C5B C4B 1_555 1_555
H2B C4B 1_555 1_555
S1B C1B 1_555 1_555
C2B C1B 1_555 1_555
O2B C3B 1_555 1_555
H1B C3B 1_555 1_555
C6B C5B 1_555 1_555
H5B C5B 1_555 1_555
H6B C5B 1_555 1_555
H3B C2B 1_555 1_555
H4B C2B 1_555 1_555
C7B O2B 1_555 1_555
H7B C6B 1_555 1_555
H8B C6B 1_555 1_555
H9B C7B 1_555 1_555
H10B C7B 1_555 1_555
C3B C2B 1_555 1_555
C6B C7B 1_555 1_555

#END
