
#######################################################################
#
#                 Cambridge Crystallographic Data Centre
#                                CCDC 
#
#######################################################################
#
# If this CIF has been generated from an entry in the Cambridge 
# Structural Database, then it will include bibliographic, chemical, 
# crystal, experimental, refinement or atomic coordinate data resulting 
# from the CCDC's data processing and validation procedures.
#
#######################################################################

data_KEVBIW
_chemical_formula_moiety         'C20 H34 O4 S2'
_chemical_name_systematic        
5a,13a-bis(Methylthio)perhydropyrano(3,2-b)pyrano(2',3':5,6)oxocano(2,3-g)oxocane
_symmetry_cell_setting           orthorhombic
_symmetry_space_group_name_H-M   'P n a 21'
_symmetry_Int_Tables_number      33
_space_group_name_Hall           'P 2c -2n'
loop_
_symmetry_equiv_pos_site_id
_symmetry_equiv_pos_as_xyz
1 x,y,z
2 1/2-x,1/2+y,1/2+z
3 1/2+x,1/2-y,z
4 -x,-y,1/2+z
_cell_length_a                   9.382(1)
_cell_length_b                   19.646(2)
_cell_length_c                   11.125(1)
_cell_angle_alpha                90
_cell_angle_beta                 90
_cell_angle_gamma                90
_cell_volume                     2050.55
_cell_formula_units_Z            4
loop_
_atom_site_label
_atom_site_type_symbol
_atom_site_fract_x
_atom_site_fract_y
_atom_site_fract_z
S1 S -0.0216(1) 0.06398(5) 0.2840
S2 S 0.2404(2) 0.08853(6) 0.1442(1)
C1 C 0.1676(7) 0.3162(3) 0.4575(6)
C2 C 0.1833(6) 0.3014(2) 0.3262(6)
C3 C 0.2786(6) 0.2401(2) 0.3033(6)
C4 C 0.2264(5) 0.1808(2) 0.3798(4)
C5 C 0.2258(5) 0.2031(2) 0.5104(5)
C6 C 0.1856(6) 0.1470(3) 0.5989(5)
C7 C 0.0747(6) 0.0959(3) 0.5574(4)
C8 C 0.1323(5) 0.0314(2) 0.4922(4)
C9 C 0.1406(5) 0.0282(2) 0.3536(4)
C10 C 0.2758(5) 0.0651(2) 0.3016(4)
C11 C 0.4070(5) 0.0190(2) 0.3103(4)
C12 C 0.4272(6) -0.0391(2) 0.2170(4)
C13 C 0.4280(5) -0.1109(2) 0.2694(5)
C14 C 0.2837(5) -0.1410(2) 0.3008(5)
C15 C 0.1894(5) -0.0982(2) 0.3824(4)
C16 C 0.0588(6) -0.1380(2) 0.4222(5)
C17 C 0.1032(7) -0.2061(3) 0.4764(6)
C18 C 0.1982(8) -0.2438(3) 0.3895(9)
C19 C -0.1579(6) 0.0119(3) 0.3491(7)
C20 C 0.4167(7) 0.1147(3) 0.0985(5)
O1 O 0.1242(4) 0.2568(2) 0.5228(4)
O2 O 0.3187(3) 0.1228(1) 0.3702(3)
O3 O 0.1442(3) -0.0404(1) 0.3102(3)
O4 O 0.3192(5) -0.2027(2) 0.3608(4)
H1 H 0.1314 0.1676 0.3533
H2 H 0.3205 0.2169 0.5298
H3 H 0.2252 -0.1451 0.2278
H4 H 0.2408 -0.0860 0.4526
H5 H 0.1027 0.3531 0.4666
H6 H 0.2599 0.3314 0.4869
H7 H 0.2252 0.3407 0.2871
H8 H 0.0924 0.2937 0.2938
H9 H 0.3752 0.2500 0.3242
H10 H 0.2757 0.2280 0.2199
H11 H 0.1556 0.1675 0.6707
H12 H 0.2727 0.1215 0.6151
H13 H 0.0126 0.1190 0.5024
H14 H 0.0206 0.0822 0.6256
H15 H 0.0759 -0.0067 0.5179
H16 H 0.2284 0.0237 0.5215
H17 H 0.4078 -0.0015 0.3868
H18 H 0.4902 0.0482 0.3038
H19 H 0.5176 -0.0311 0.1764
H20 H 0.3537 -0.0350 0.1594
H21 H 0.4842 -0.1111 0.3402
H22 H 0.4731 -0.1406 0.2112
H23 H -0.0009 -0.1454 0.3551
H24 H 0.0089 -0.1116 0.4807
H25 H 0.0204 -0.2325 0.4974
H26 H 0.1574 -0.1993 0.5490
H27 H 0.1393 -0.2516 0.3140
H28 H 0.2212 -0.2878 0.4169
H29 H -0.1550 -0.0326 0.3153
H30 H -0.2486 0.0313 0.3364
H31 H -0.1418 0.0079 0.4345
H32 H 0.4793 0.0774 0.1017
H33 H 0.4125 0.1320 0.0181
H34 H 0.4491 0.1500 0.1503
loop_
_geom_bond_atom_site_label_1
_geom_bond_atom_site_label_2
_geom_bond_site_symmetry_1
_geom_bond_site_symmetry_2
S1 C9 1_555 1_555
S2 C10 1_555 1_555
C1 C2 1_555 1_555
C2 C3 1_555 1_555
C3 C4 1_555 1_555
C4 C5 1_555 1_555
C5 C6 1_555 1_555
C6 C7 1_555 1_555
C7 C8 1_555 1_555
C8 C9 1_555 1_555
C9 C10 1_555 1_555
C10 C11 1_555 1_555
C11 C12 1_555 1_555
C12 C13 1_555 1_555
C13 C14 1_555 1_555
C14 C15 1_555 1_555
C15 C16 1_555 1_555
C16 C17 1_555 1_555
C17 C18 1_555 1_555
C18 O4 1_555 1_555
C19 S1 1_555 1_555
C20 S2 1_555 1_555
O1 C1 1_555 1_555
O2 C4 1_555 1_555
O3 C9 1_555 1_555
O4 C14 1_555 1_555
H1 C4 1_555 1_555
H2 C5 1_555 1_555
H3 C14 1_555 1_555
H4 C15 1_555 1_555
H5 C1 1_555 1_555
H6 C1 1_555 1_555
H7 C2 1_555 1_555
H8 C2 1_555 1_555
H9 C3 1_555 1_555
H10 C3 1_555 1_555
H11 C6 1_555 1_555
H12 C6 1_555 1_555
H13 C7 1_555 1_555
H14 C7 1_555 1_555
H15 C8 1_555 1_555
H16 C8 1_555 1_555
H17 C11 1_555 1_555
H18 C11 1_555 1_555
H19 C12 1_555 1_555
H20 C12 1_555 1_555
H21 C13 1_555 1_555
H22 C13 1_555 1_555
H23 C16 1_555 1_555
H24 C16 1_555 1_555
H25 C17 1_555 1_555
H26 C17 1_555 1_555
H27 C18 1_555 1_555
H28 C18 1_555 1_555
H29 C19 1_555 1_555
H30 C19 1_555 1_555
H31 C19 1_555 1_555
H32 C20 1_555 1_555
H33 C20 1_555 1_555
H34 C20 1_555 1_555
C5 O1 1_555 1_555
C10 O2 1_555 1_555
C15 O3 1_555 1_555

#END
