
#######################################################################
#
#                 Cambridge Crystallographic Data Centre
#                                CCDC 
#
#######################################################################
#
# If this CIF has been generated from an entry in the Cambridge 
# Structural Database, then it will include bibliographic, chemical, 
# crystal, experimental, refinement or atomic coordinate data resulting 
# from the CCDC's data processing and validation procedures.
#
#######################################################################

data_KEVBOC
_chemical_formula_moiety         'C20 H34 O4 S2'
_chemical_name_systematic        
7,14-bis(Methylthio)perhydrodipyrano(3,2-b;3',2'-i)(1,8)dioxatetradec-13-ene
_symmetry_cell_setting           monoclinic
_symmetry_space_group_name_H-M   'P 21/n'
_symmetry_Int_Tables_number      14
_space_group_name_Hall           '-P 2yn'
loop_
_symmetry_equiv_pos_site_id
_symmetry_equiv_pos_as_xyz
1 x,y,z
2 1/2-x,1/2+y,1/2-z
3 -x,-y,-z
4 1/2+x,1/2-y,1/2+z
_cell_length_a                   7.822(1)
_cell_length_b                   16.950(1)
_cell_length_c                   16.434(2)
_cell_angle_alpha                90
_cell_angle_beta                 91.82(1)
_cell_angle_gamma                90
_cell_volume                     2177.77
_cell_formula_units_Z            4
loop_
_atom_site_label
_atom_site_type_symbol
_atom_site_fract_x
_atom_site_fract_y
_atom_site_fract_z
S1 S 0.5473(1) 0.07117(7) 0.75920(6)
S2 S 0.6167(2) 0.40252(8) 0.36531(6)
C1 C 1.0500(5) 0.3777(3) 0.6573(2)
C2 C 1.0842(5) 0.4034(3) 0.5719(3)
C3 C 0.9785(5) 0.3541(2) 0.5112(2)
C4 C 0.7926(5) 0.3553(2) 0.5326(2)
C5 C 0.7689(5) 0.3332(2) 0.6216(2)
C6 C 0.5872(5) 0.3419(2) 0.6484(2)
C7 C 0.5592(5) 0.3161(2) 0.7360(2)
C8 C 0.5919(6) 0.2314(3) 0.7584(2)
C9 C 0.5188(6) 0.1688(2) 0.7186(2)
C10 C 0.3965(5) 0.1232(2) 0.5888(2)
C11 C 0.2120(5) 0.1362(3) 0.6097(2)
C12 C 0.0963(5) 0.0928(3) 0.5493(3)
C13 C 0.1387(5) 0.1134(3) 0.4633(3)
C14 C 0.4240(5) 0.1446(2) 0.5002(2)
C15 C 0.6039(5) 0.1300(2) 0.4743(2)
C16 C 0.6360(5) 0.1565(3) 0.3852(2)
C17 C 0.5919(5) 0.2408(3) 0.3636(2)
C18 C 0.6745(6) 0.3063(3) 0.4034(2)
C19 C 0.7355(6) 0.0395(3) 0.7087(2)
C20 C 0.4211(6) 0.4160(3) 0.4156(3)
O1 O 0.8724(3) 0.3836(2) 0.6724(1)
O2 O 0.6897(3) 0.3000(2) 0.4870(1)
O3 O 0.5117(3) 0.1734(1) 0.6340(1)
O4 O 0.3126(3) 0.0987(2) 0.4483(2)
H1 H 0.7595 0.4090 0.5208
H2 H 0.8009 0.2783 0.6274
H3 H 0.4153 0.0679 0.5995
H4 H 0.4024 0.2000 0.4953
H5 H 1.1145 0.4090 0.6953
H6 H 1.0862 0.3238 0.6634
H7 H 1.2056 0.3985 0.5611
H8 H 1.0567 0.4587 0.5652
H9 H 1.0187 0.3007 0.5127
H10 H 0.9909 0.3737 0.4569
H11 H 0.5133 0.3114 0.6128
H12 H 0.5551 0.3964 0.6421
H13 H 0.4433 0.3270 0.7473
H14 H 0.6322 0.3474 0.7701
H15 H 0.6683 0.2207 0.8032
H16 H 0.1850 0.1917 0.6078
H17 H 0.1906 0.1181 0.6639
H18 H -0.0231 0.1049 0.5564
H19 H 0.1084 0.0365 0.5554
H20 H 0.1168 0.1684 0.4557
H21 H 0.0690 0.0841 0.4260
H22 H 0.6259 0.0736 0.4790
H23 H 0.6820 0.1558 0.5115
H24 H 0.5794 0.1222 0.3492
H25 H 0.7603 0.1506 0.3773
H26 H 0.4731 0.2466 0.3723
H27 H 0.6124 0.2464 0.3072
H28 H 0.7891 0.3016 0.3863
H29 H 0.7401 0.0576 0.6546
H30 H 0.7502 -0.0162 0.7102
H31 H 0.8399 0.0613 0.7376
H32 H 0.3489 0.3715 0.4113
H33 H 0.4423 0.4270 0.4732
H34 H 0.3589 0.4613 0.3939
loop_
_geom_bond_atom_site_label_1
_geom_bond_atom_site_label_2
_geom_bond_site_symmetry_1
_geom_bond_site_symmetry_2
S1 C9 1_555 1_555
S2 C18 1_555 1_555
C1 C2 1_555 1_555
C2 C3 1_555 1_555
C3 C4 1_555 1_555
C4 C5 1_555 1_555
C5 C6 1_555 1_555
C6 C7 1_555 1_555
C7 C8 1_555 1_555
C8 C9 1_555 1_555
C9 O3 1_555 1_555
C10 C11 1_555 1_555
C11 C12 1_555 1_555
C12 C13 1_555 1_555
C13 O4 1_555 1_555
C14 C10 1_555 1_555
C15 C14 1_555 1_555
C16 C15 1_555 1_555
C17 C16 1_555 1_555
C18 C17 1_555 1_555
C19 S1 1_555 1_555
C20 S2 1_555 1_555
O1 C1 1_555 1_555
O2 C4 1_555 1_555
O3 C10 1_555 1_555
O4 C14 1_555 1_555
H1 C4 1_555 1_555
H2 C5 1_555 1_555
H3 C10 1_555 1_555
H4 C14 1_555 1_555
H5 C1 1_555 1_555
H6 C1 1_555 1_555
H7 C2 1_555 1_555
H8 C2 1_555 1_555
H9 C3 1_555 1_555
H10 C3 1_555 1_555
H11 C6 1_555 1_555
H12 C6 1_555 1_555
H13 C7 1_555 1_555
H14 C7 1_555 1_555
H15 C8 1_555 1_555
H16 C11 1_555 1_555
H17 C11 1_555 1_555
H18 C12 1_555 1_555
H19 C12 1_555 1_555
H20 C13 1_555 1_555
H21 C13 1_555 1_555
H22 C15 1_555 1_555
H23 C15 1_555 1_555
H24 C16 1_555 1_555
H25 C16 1_555 1_555
H26 C17 1_555 1_555
H27 C17 1_555 1_555
H28 C18 1_555 1_555
H29 C19 1_555 1_555
H30 C19 1_555 1_555
H31 C19 1_555 1_555
H32 C20 1_555 1_555
H33 C20 1_555 1_555
H34 C20 1_555 1_555
C5 O1 1_555 1_555
C18 O2 1_555 1_555

#END
