
#######################################################################
#
#                 Cambridge Crystallographic Data Centre
#                                CCDC 
#
#######################################################################
#
# If this CIF has been generated from an entry in the Cambridge 
# Structural Database, then it will include bibliographic, chemical, 
# crystal, experimental, refinement or atomic coordinate data resulting 
# from the CCDC's data processing and validation procedures.
#
#######################################################################

data_KEVCAQ
_chemical_compound_source        'leaves and stems of Taxus chinensis'
_chemical_formula_moiety         'C30 H38 O12,H2 O1'
_chemical_name_systematic        'Taxchinin N monohydrate'
_symmetry_cell_setting           trigonal
_symmetry_space_group_name_H-M   'P 32'
_symmetry_Int_Tables_number      145
_space_group_name_Hall           'P 32'
loop_
_symmetry_equiv_pos_site_id
_symmetry_equiv_pos_as_xyz
1 x,y,z
2 -y,x-y,2/3+z
3 -x+y,-x,1/3+z
_cell_length_a                   8.9780(13)
_cell_length_b                   8.9780(13)
_cell_length_c                   33.622(2)
_cell_angle_alpha                90
_cell_angle_beta                 90
_cell_angle_gamma                120
_cell_volume                     2347
_exptl_crystal_colour            colorless
_exptl_crystal_description       column
_cell_formula_units_Z            3
loop_
_atom_site_label
_atom_site_type_symbol
_atom_site_fract_x
_atom_site_fract_y
_atom_site_fract_z
O1 O 0.5275(5) 0.6950(4) 0.24730(10)
O2 O 0.7426(5) 0.9481(5) 0.27169(12)
O3 O 0.1008(5) 0.8109(6) 0.42374(11)
O4 O -0.1188(12) 0.5503(10) 0.43148(19)
O5 O 0.3728(5) 0.7552(5) 0.42798(10)
O6 O 0.6595(7) 0.8593(9) 0.42378(18)
O7 O 0.3634(5) 0.4697(5) 0.40338(11)
O8 O 0.1362(11) 0.2868(13) 0.4376(3)
O9 O -0.0770(5) 0.3692(4) 0.26548(10)
O10 O -0.0638(5) 0.2718(6) 0.20493(12)
O11 O 0.2304(6) 1.0202(6) 0.23547(14)
O12 O 0.3801(5) 0.8997(5) 0.25802(11)
C1 C 0.3919(6) 0.6469(6) 0.27794(13)
C2 C 0.3939(6) 0.8126(6) 0.29319(13)
H1 H 0.5036 0.8873 0.3065
C3 C 0.2451(6) 0.7849(6) 0.32066(13)
H2 H 0.1542 0.6644 0.3182
C4 C 0.1800(7) 0.8944(6) 0.30186(15)
C5 C 0.0792(7) 0.9405(7) 0.31982(19)
H3 H 0.0343 0.9980 0.3057
C6 C 0.0364(8) 0.9007(9) 0.36295(19)
H4 H -0.0874 0.8448 0.3661
H5 H 0.0866 1.0081 0.3776
C7 C 0.0992(7) 0.7854(7) 0.38138(15)
H6 H 0.0161 0.6651 0.3752
C8 C 0.2790(6) 0.8275(6) 0.36598(13)
C9 C 0.3568(6) 0.7250(6) 0.38536(12)
H7 H 0.4731 0.7707 0.3746
C10 C 0.2620(7) 0.5267(6) 0.38047(13)
H8 H 0.1456 0.4756 0.3915
C11 C 0.2535(6) 0.4751(6) 0.33740(13)
C12 C 0.0980(7) 0.3830(6) 0.32034(14)
C13 C 0.0839(6) 0.3757(6) 0.27531(13)
H9 H 0.0797 0.2705 0.2658
C14 C 0.2297(7) 0.5320(7) 0.25367(15)
H10 H 0.2632 0.4902 0.2307
H11 H 0.1840 0.6026 0.2439
C15 C 0.4168(6) 0.5419(6) 0.31134(14)
C16 C 0.4188(9) 0.3844(7) 0.2925(2)
H12 H 0.5201 0.4237 0.2765
H13 H 0.3185 0.3214 0.2763
H14 H 0.4190 0.3110 0.3133
C17 C 0.5924(12) 0.6434(13) 0.3321(3)
H15 H 0.6798 0.6438 0.3156
H16 H 0.5884 0.5898 0.3571
H17 H 0.6184 0.7595 0.3367
C18 C -0.0739(7) 0.2896(7) 0.34244(16)
H18 H -0.0533 0.2994 0.3706
H19 H -0.1337 0.1703 0.3350
H20 H -0.1425 0.3403 0.3356
C19 C 0.4125(7) 1.0182(7) 0.37303(17)
H21 H 0.5225 1.0415 0.3632
H22 H 0.4207 1.0427 0.4010
H23 H 0.3774 1.0892 0.3592
C20 C 0.2578(7) 0.9464(7) 0.26216(17)
C21 C 0.6869(7) 0.8367(6) 0.24701(15)
C22 C 0.7857(9) 0.8332(10) 0.2118(2)
H24 H 0.8979 0.9339 0.2119
H25 H 0.7262 0.8312 0.1879
H26 H 0.7967 0.7323 0.2129
C23 C -0.0153(10) 0.6838(11) 0.4458(2)
C24 C -0.0027(13) 0.7319(18) 0.4882(2)
H27 H -0.0893 0.6367 0.5031
H28 H -0.0196 0.8290 0.4909
H29 H 0.1090 0.7614 0.4981
C25 C 0.5325(11) 0.8181(11) 0.44331(18)
C26 C 0.5244(15) 0.8279(15) 0.4884(2)
H30 H 0.6375 0.8713 0.4993
H31 H 0.4489 0.7151 0.4988
H32 H 0.4817 0.9033 0.4954
C27 C 0.2843(11) 0.3509(10) 0.4313(2)
C28 C 0.4061(14) 0.3218(12) 0.4552(2)
H33 H 0.3437 0.2346 0.4747
H34 H 0.4866 0.4267 0.4682
H35 H 0.4671 0.2851 0.4380
C29 C -0.1377(7) 0.3109(7) 0.22815(16)
C30 C -0.3031(9) 0.3067(12) 0.2211(2)
H36 H -0.3432 0.2652 0.1947
H37 H -0.2861 0.4206 0.2239
H38 H -0.3869 0.2317 0.2401
O13 O -0.244(4) 0.212(3) 0.4620(11)
H39 H -0.19(5) 0.329(13) 0.450(13)
H40 H -0.27(4) 0.23(6) 0.490(18)
loop_
_geom_bond_atom_site_label_1
_geom_bond_atom_site_label_2
_geom_bond_site_symmetry_1
_geom_bond_site_symmetry_2
O1 C1 1_555 1_555
O2 C21 1_555 1_555
O3 C7 1_555 1_555
O4 C23 1_555 1_555
O5 C9 1_555 1_555
O6 C25 1_555 1_555
O7 C10 1_555 1_555
O8 C27 1_555 1_555
O9 C13 1_555 1_555
O10 C29 1_555 1_555
O11 C20 1_555 1_555
O12 C2 1_555 1_555
C1 C2 1_555 1_555
C2 H1 1_555 1_555
C3 C2 1_555 1_555
H2 C3 1_555 1_555
C4 C3 1_555 1_555
C5 C4 1_555 1_555
H3 C5 1_555 1_555
C6 C5 1_555 1_555
H4 C6 1_555 1_555
H5 C6 1_555 1_555
C7 C6 1_555 1_555
H6 C7 1_555 1_555
C8 C3 1_555 1_555
C9 C8 1_555 1_555
H7 C9 1_555 1_555
C10 C9 1_555 1_555
H8 C10 1_555 1_555
C11 C10 1_555 1_555
C12 C11 1_555 1_555
C13 C12 1_555 1_555
H9 C13 1_555 1_555
C14 C1 1_555 1_555
H10 C14 1_555 1_555
H11 C14 1_555 1_555
C15 C1 1_555 1_555
C16 C15 1_555 1_555
H12 C16 1_555 1_555
H13 C16 1_555 1_555
H14 C16 1_555 1_555
C17 C15 1_555 1_555
H15 C17 1_555 1_555
H16 C17 1_555 1_555
H17 C17 1_555 1_555
C18 C12 1_555 1_555
H18 C18 1_555 1_555
H19 C18 1_555 1_555
H20 C18 1_555 1_555
C19 C8 1_555 1_555
H21 C19 1_555 1_555
H22 C19 1_555 1_555
H23 C19 1_555 1_555
C20 O12 1_555 1_555
C21 O1 1_555 1_555
C22 C21 1_555 1_555
H24 C22 1_555 1_555
H25 C22 1_555 1_555
H26 C22 1_555 1_555
C23 O3 1_555 1_555
C24 C23 1_555 1_555
H27 C24 1_555 1_555
H28 C24 1_555 1_555
H29 C24 1_555 1_555
C25 O5 1_555 1_555
C26 C25 1_555 1_555
H30 C26 1_555 1_555
H31 C26 1_555 1_555
H32 C26 1_555 1_555
C27 O7 1_555 1_555
C28 C27 1_555 1_555
H33 C28 1_555 1_555
H34 C28 1_555 1_555
H35 C28 1_555 1_555
C29 O9 1_555 1_555
C30 C29 1_555 1_555
H36 C30 1_555 1_555
H37 C30 1_555 1_555
H38 C30 1_555 1_555
O13 H39 1_555 1_555
H40 O13 1_555 1_555
C4 C20 1_555 1_555
C7 C8 1_555 1_555
C11 C15 1_555 1_555
C13 C14 1_555 1_555

#END
