
#######################################################################
#
#                 Cambridge Crystallographic Data Centre
#                                CCDC 
#
#######################################################################
#
# If this CIF has been generated from an entry in the Cambridge 
# Structural Database, then it will include bibliographic, chemical, 
# crystal, experimental, refinement or atomic coordinate data resulting 
# from the CCDC's data processing and validation procedures.
#
#######################################################################

data_KEVGID
_chemical_formula_moiety         'C74 H74 N2 Na2 O3 P2 S2'
_chemical_name_systematic        
'(\m~2~-N-(Diphenyl(phenyl)methyl)-P,P-diphenylphosphinothioic amidato)-(\m~2~-P,P-diphenyl-N-tritylphosphinothioic amidato)-tris(tetrahydrofuran)-di-sodium'
_symmetry_cell_setting           triclinic
_symmetry_space_group_name_H-M   'P -1'
_symmetry_Int_Tables_number      2
_space_group_name_Hall           '-P 1'
loop_
_symmetry_equiv_pos_site_id
_symmetry_equiv_pos_as_xyz
1 x,y,z
2 -x,-y,-z
_cell_length_a                   10.7308(6)
_cell_length_b                   11.6146(8)
_cell_length_c                   26.1362(17)
_cell_angle_alpha                79.662(6)
_cell_angle_beta                 85.030(5)
_cell_angle_gamma                78.126(5)
_cell_volume                     3131.82
_exptl_crystal_colour            colorless
_exptl_crystal_description       block
_cell_formula_units_Z            2
loop_
_atom_site_label
_atom_site_type_symbol
_atom_site_fract_x
_atom_site_fract_y
_atom_site_fract_z
Na1 Na 0.35380(12) 0.84945(12) 0.28371(5)
Na2 Na 0.61905(12) 0.61103(13) 0.22098(5)
S1 S 0.61415(7) 0.83599(7) 0.27375(3)
S2 S 0.34951(7) 0.67063(7) 0.22248(3)
P1 P 0.58847(6) 0.82170(6) 0.35169(3)
P2 P 0.39117(6) 0.67516(6) 0.14540(3)
O1 O 0.1689(3) 0.9743(2) 0.25917(11)
O2 O 0.8356(2) 0.5665(2) 0.23025(10)
O3 O 0.6024(3) 0.3992(2) 0.26167(11)
N1 N 0.4404(2) 0.8513(2) 0.36636(8)
N2 N 0.5405(2) 0.6428(2) 0.13456(8)
C1 C 0.3606(2) 0.8347(2) 0.41484(10)
C2 C 0.6258(2) 0.6638(3) 0.08808(10)
C3 C 0.2755(2) 0.9579(3) 0.42178(11)
C4 C 0.2156(3) 0.9767(3) 0.47013(12)
H1 H 0.2298 0.9160 0.4987
C5 C 0.1350(3) 1.0846(3) 0.47634(13)
H2 H 0.0953 1.0948 0.5087
C6 C 0.1142(3) 1.1761(3) 0.43449(14)
H3 H 0.0606 1.2482 0.4384
C7 C 0.1746(3) 1.1593(3) 0.38607(13)
H4 H 0.1616 1.2208 0.3577
C8 C 0.2544(3) 1.0509(3) 0.37995(12)
H5 H 0.2938 1.0407 0.3475
C9 C 0.2702(2) 0.7502(3) 0.40815(11)
C10 C 0.3075(3) 0.6637(3) 0.37614(12)
H6 H 0.3860 0.6590 0.3577
C11 C 0.2298(3) 0.5843(3) 0.37124(13)
H7 H 0.2567 0.5277 0.3495
C12 C 0.1129(3) 0.5890(3) 0.39846(13)
H8 H 0.0607 0.5364 0.3950
C13 C 0.0749(3) 0.6726(3) 0.43082(13)
H9 H -0.0032 0.6759 0.4495
C14 C 0.1523(3) 0.7521(3) 0.43581(12)
H10 H 0.1251 0.8076 0.4580
C15 C 0.4359(2) 0.7844(2) 0.46423(10)
C16 C 0.4361(3) 0.6702(3) 0.49184(11)
H11 H 0.3877 0.6221 0.4810
C17 C 0.5088(3) 0.6268(3) 0.53615(11)
H12 H 0.5085 0.5502 0.5542
C18 C 0.5804(3) 0.6973(3) 0.55284(11)
H13 H 0.6295 0.6682 0.5817
C19 C 0.5785(3) 0.8121(3) 0.52622(11)
H14 H 0.6256 0.8605 0.5377
C20 C 0.5068(3) 0.8556(3) 0.48255(11)
H15 H 0.5059 0.9331 0.4653
C21 C 0.6824(3) 0.9235(3) 0.36845(11)
C22 C 0.6216(3) 1.0347(3) 0.37934(11)
H16 H 0.5331 1.0551 0.3803
C23 C 0.6920(3) 1.1159(3) 0.38885(12)
H17 H 0.6502 1.1897 0.3966
C24 C 0.8244(3) 1.0875(3) 0.38685(12)
H18 H 0.8714 1.1423 0.3929
C25 C 0.8856(3) 0.9778(3) 0.37581(13)
H19 H 0.9742 0.9585 0.3744
C26 C 0.8160(3) 0.8952(3) 0.36669(12)
H20 H 0.8583 0.8212 0.3594
C27 C 0.6738(2) 0.6739(3) 0.38087(11)
C28 C 0.6780(3) 0.5753(3) 0.35629(13)
H21 H 0.6398 0.5867 0.3247
C29 C 0.7372(4) 0.4617(3) 0.37767(14)
H22 H 0.7395 0.3980 0.3603
C30 C 0.7934(3) 0.4431(3) 0.42525(15)
H23 H 0.8333 0.3669 0.4399
C31 C 0.7897(3) 0.5384(3) 0.45051(14)
H24 H 0.8267 0.5260 0.4824
C32 C 0.7309(3) 0.6528(3) 0.42864(12)
H25 H 0.7296 0.7163 0.4461
C33 C 0.7157(2) 0.5430(3) 0.08015(11)
C34 C 0.7352(3) 0.4471(3) 0.12076(11)
H26 H 0.6930 0.4539 0.1530
C35 C 0.8176(3) 0.3407(3) 0.11364(12)
H27 H 0.8292 0.2770 0.1411
C36 C 0.8826(3) 0.3290(3) 0.06600(13)
H28 H 0.9384 0.2584 0.0616
C37 C 0.8637(3) 0.4234(3) 0.02509(13)
H29 H 0.9064 0.4163 -0.0070
C38 C 0.7802(3) 0.5292(3) 0.03212(12)
H30 H 0.7672 0.5919 0.0043
C39 C 0.5561(2) 0.7150(3) 0.03731(10)
C40 C 0.5584(3) 0.8286(3) 0.00963(11)
H31 H 0.6045 0.8771 0.0216
C41 C 0.4920(3) 0.8713(3) -0.03622(11)
H32 H 0.4941 0.9477 -0.0542
C42 C 0.4241(3) 0.8002(3) -0.05444(11)
H33 H 0.3790 0.8287 -0.0844
C43 C 0.4230(3) 0.6853(3) -0.02785(11)
H34 H 0.3786 0.6363 -0.0405
C44 C 0.4882(3) 0.6434(3) 0.01769(11)
H35 H 0.4866 0.5666 0.0353
C45 C 0.7110(3) 0.7504(3) 0.09810(11)
C46 C 0.6657(3) 0.8336(3) 0.13099(12)
H36 H 0.5864 0.8336 0.1484
C47 C 0.7363(4) 0.9165(3) 0.13827(13)
H37 H 0.7041 0.9714 0.1603
C48 C 0.8550(4) 0.9173(3) 0.11262(14)
H38 H 0.9027 0.9726 0.1174
C49 C 0.9015(3) 0.8357(3) 0.07995(15)
H39 H 0.9809 0.8362 0.0626
C50 C 0.8311(3) 0.7527(3) 0.07267(13)
H40 H 0.8640 0.6979 0.0506
C51 C 0.3036(3) 0.5674(3) 0.12949(10)
C52 C 0.3701(3) 0.4541(3) 0.12355(12)
H41 H 0.4585 0.4368 0.1243
C53 C 0.3057(3) 0.3667(3) 0.11646(13)
H42 H 0.3509 0.2909 0.1129
C54 C 0.1737(3) 0.3921(3) 0.11462(12)
H43 H 0.1305 0.3335 0.1098
C55 C 0.1067(3) 0.5048(3) 0.11997(12)
H44 H 0.0184 0.5223 0.1185
C56 C 0.1710(3) 0.5918(3) 0.12756(11)
H45 H 0.1253 0.6673 0.1314
C57 C 0.3085(3) 0.8204(3) 0.11172(12)
C58 C 0.2519(3) 0.8337(3) 0.06432(12)
H46 H 0.2512 0.7668 0.0495
C59 C 0.1968(3) 0.9461(3) 0.03907(15)
H47 H 0.1595 0.9538 0.0075
C60 C 0.1969(3) 1.0458(3) 0.06040(17)
H48 H 0.1609 1.1210 0.0431
C61 C 0.2509(4) 1.0340(3) 0.10781(17)
H49 H 0.2497 1.1014 0.1226
C62 C 0.3068(3) 0.9223(3) 0.13337(14)
H50 H 0.3433 0.9153 0.1651
C63 C 0.1383(5) 1.1006(4) 0.2453(2)
H51 H 0.1474 1.1378 0.2748
H52 H 0.1955 1.1272 0.2169
C64 C 0.0118(6) 1.1326(6) 0.2300(4)
H53 H -0.0389 1.1822 0.2534
H54 H 0.0097 1.1790 0.1952
C65 C -0.0399(5) 1.0337(6) 0.2305(2)
H55 H -0.0663 1.0318 0.1962
H56 H -0.1135 1.0340 0.2549
C66 C 0.0646(4) 0.9265(4) 0.2474(2)
H57 H 0.0356 0.8758 0.2778
H58 H 0.0895 0.8799 0.2196
C67 C 0.4888(5) 0.3810(5) 0.2930(2)
H59 H 0.4263 0.4548 0.2912
H60 H 0.5083 0.3512 0.3291
C68 C 0.4396(6) 0.2888(7) 0.2693(3)
H61 H 0.4063 0.2324 0.2963
H62 H 0.3729 0.3272 0.2456
C69 C 0.5534(7) 0.2280(5) 0.2410(2)
H63 H 0.5410 0.2416 0.2039
H64 H 0.5699 0.1427 0.2536
C70 C 0.6619(4) 0.2825(4) 0.25201(17)
H65 H 0.7058 0.2362 0.2822
H66 H 0.7227 0.2871 0.2224
C71 C 0.9089(3) 0.6568(4) 0.22856(16)
C72 C 0.9999(4) 0.6083(4) 0.27103(17)
H67 H 1.0757 0.6430 0.2644
H68 H 0.9602 0.6233 0.3046
C73 C 1.0310(4) 0.4776(4) 0.26896(19)
H69 H 1.0422 0.4314 0.3036
H70 H 1.1083 0.4578 0.2476
C74 C 0.9159(4) 0.4538(4) 0.24481(18)
H71 H 0.864(3) 0.401(3) 0.2681(15)
H72 H 0.932(5) 0.415(5) 0.212(2)
H73 H 0.964(4) 0.659(4) 0.1916(18)
H74 H 0.850(5) 0.744(5) 0.231(2)
loop_
_geom_bond_atom_site_label_1
_geom_bond_atom_site_label_2
_geom_bond_site_symmetry_1
_geom_bond_site_symmetry_2
Na1 S1 1_555 1_555
Na2 S1 1_555 1_555
S1 P1 1_555 1_555
S2 Na1 1_555 1_555
P1 N1 1_555 1_555
P2 S2 1_555 1_555
O1 Na1 1_555 1_555
O2 Na2 1_555 1_555
O3 Na2 1_555 1_555
N1 Na1 1_555 1_555
N2 Na2 1_555 1_555
C1 N1 1_555 1_555
C2 N2 1_555 1_555
C3 C1 1_555 1_555
C4 C3 1_555 1_555
H1 C4 1_555 1_555
C5 C4 1_555 1_555
H2 C5 1_555 1_555
C6 C5 1_555 1_555
H3 C6 1_555 1_555
C7 C6 1_555 1_555
H4 C7 1_555 1_555
C8 C3 1_555 1_555
H5 C8 1_555 1_555
C9 C1 1_555 1_555
C10 Na1 1_555 1_555
H6 C10 1_555 1_555
C11 C10 1_555 1_555
H7 C11 1_555 1_555
C12 C11 1_555 1_555
H8 C12 1_555 1_555
C13 C12 1_555 1_555
H9 C13 1_555 1_555
C14 C9 1_555 1_555
H10 C14 1_555 1_555
C15 C1 1_555 1_555
C16 C15 1_555 1_555
H11 C16 1_555 1_555
C17 C16 1_555 1_555
H12 C17 1_555 1_555
C18 C17 1_555 1_555
H13 C18 1_555 1_555
C19 C18 1_555 1_555
H14 C19 1_555 1_555
C20 C15 1_555 1_555
H15 C20 1_555 1_555
C21 P1 1_555 1_555
C22 C21 1_555 1_555
H16 C22 1_555 1_555
C23 C22 1_555 1_555
H17 C23 1_555 1_555
C24 C23 1_555 1_555
H18 C24 1_555 1_555
C25 C24 1_555 1_555
H19 C25 1_555 1_555
C26 C21 1_555 1_555
H20 C26 1_555 1_555
C27 P1 1_555 1_555
C28 C27 1_555 1_555
H21 C28 1_555 1_555
C29 C28 1_555 1_555
H22 C29 1_555 1_555
C30 C29 1_555 1_555
H23 C30 1_555 1_555
C31 C30 1_555 1_555
H24 C31 1_555 1_555
C32 C27 1_555 1_555
H25 C32 1_555 1_555
C33 C2 1_555 1_555
C34 C33 1_555 1_555
H26 C34 1_555 1_555
C35 C34 1_555 1_555
H27 C35 1_555 1_555
C36 C35 1_555 1_555
H28 C36 1_555 1_555
C37 C36 1_555 1_555
H29 C37 1_555 1_555
C38 C33 1_555 1_555
H30 C38 1_555 1_555
C39 C2 1_555 1_555
C40 C39 1_555 1_555
H31 C40 1_555 1_555
C41 C40 1_555 1_555
H32 C41 1_555 1_555
C42 C41 1_555 1_555
H33 C42 1_555 1_555
C43 C42 1_555 1_555
H34 C43 1_555 1_555
C44 C39 1_555 1_555
H35 C44 1_555 1_555
C45 C2 1_555 1_555
C46 C45 1_555 1_555
H36 C46 1_555 1_555
C47 C46 1_555 1_555
H37 C47 1_555 1_555
C48 C47 1_555 1_555
H38 C48 1_555 1_555
C49 C48 1_555 1_555
H39 C49 1_555 1_555
C50 C45 1_555 1_555
H40 C50 1_555 1_555
C51 P2 1_555 1_555
C52 C51 1_555 1_555
H41 C52 1_555 1_555
C53 C52 1_555 1_555
H42 C53 1_555 1_555
C54 C53 1_555 1_555
H43 C54 1_555 1_555
C55 C54 1_555 1_555
H44 C55 1_555 1_555
C56 C51 1_555 1_555
H45 C56 1_555 1_555
C57 P2 1_555 1_555
C58 C57 1_555 1_555
H46 C58 1_555 1_555
C59 C58 1_555 1_555
H47 C59 1_555 1_555
C60 C59 1_555 1_555
H48 C60 1_555 1_555
C61 C60 1_555 1_555
H49 C61 1_555 1_555
C62 C57 1_555 1_555
H50 C62 1_555 1_555
C63 O1 1_555 1_555
H51 C63 1_555 1_555
H52 C63 1_555 1_555
C64 C63 1_555 1_555
H53 C64 1_555 1_555
H54 C64 1_555 1_555
C65 C64 1_555 1_555
H55 C65 1_555 1_555
H56 C65 1_555 1_555
C66 O1 1_555 1_555
H57 C66 1_555 1_555
H58 C66 1_555 1_555
C67 O3 1_555 1_555
H59 C67 1_555 1_555
H60 C67 1_555 1_555
C68 C67 1_555 1_555
H61 C68 1_555 1_555
H62 C68 1_555 1_555
C69 C68 1_555 1_555
H63 C69 1_555 1_555
H64 C69 1_555 1_555
C70 O3 1_555 1_555
H65 C70 1_555 1_555
H66 C70 1_555 1_555
C71 O2 1_555 1_555
C72 C71 1_555 1_555
H67 C72 1_555 1_555
H68 C72 1_555 1_555
C73 C72 1_555 1_555
H69 C73 1_555 1_555
H70 C73 1_555 1_555
C74 O2 1_555 1_555
H71 C74 1_555 1_555
H72 C74 1_555 1_555
H73 C71 1_555 1_555
H74 C71 1_555 1_555
Na2 S2 1_555 1_555
P2 N2 1_555 1_555
C7 C8 1_555 1_555
C9 C10 1_555 1_555
C13 C14 1_555 1_555
C19 C20 1_555 1_555
C25 C26 1_555 1_555
C31 C32 1_555 1_555
C37 C38 1_555 1_555
C43 C44 1_555 1_555
C49 C50 1_555 1_555
C55 C56 1_555 1_555
C61 C62 1_555 1_555
C65 C66 1_555 1_555
C69 C70 1_555 1_555
C73 C74 1_555 1_555

#END
