
#######################################################################
#
#                 Cambridge Crystallographic Data Centre
#                                CCDC 
#
#######################################################################
#
# If this CIF has been generated from an entry in the Cambridge 
# Structural Database, then it will include bibliographic, chemical, 
# crystal, experimental, refinement or atomic coordinate data resulting 
# from the CCDC's data processing and validation procedures.
#
#######################################################################

data_KEVGUP
_chemical_formula_moiety         'C78 H82 N2 Na2 O6 P2'
_chemical_name_systematic        
'bis(\m~2~-P,P-diphenyl-N-tritylphosphinic amidato)-tetrakis(tetrahydrofuran)-di-sodium'
_symmetry_cell_setting           triclinic
_symmetry_space_group_name_H-M   'P -1'
_symmetry_Int_Tables_number      2
_space_group_name_Hall           '-P 1'
loop_
_symmetry_equiv_pos_site_id
_symmetry_equiv_pos_as_xyz
1 x,y,z
2 -x,-y,-z
_cell_length_a                   11.0777(13)
_cell_length_b                   13.3008(18)
_cell_length_c                   14.0442(19)
_cell_angle_alpha                100.720(11)
_cell_angle_beta                 112.259(12)
_cell_angle_gamma                111.066(12)
_cell_volume                     1658.11
_exptl_crystal_colour            red
_exptl_crystal_description       plates
_cell_formula_units_Z            1
loop_
_atom_site_label
_atom_site_type_symbol
_atom_site_fract_x
_atom_site_fract_y
_atom_site_fract_z
Na1 Na 0.03626(15) 0.13778(12) 0.00178(11)
P1 P 0.22943(11) 0.14676(8) 0.22797(7)
O1 O 0.1101(3) 0.0426(2) 0.12188(18)
O2 O 0.0369(3) 0.2410(2) -0.1181(2)
O3 O -0.1307(3) 0.1925(2) 0.0278(2)
N1 N 0.2827(3) 0.2659(2) 0.2130(2)
C1 C 0.4175(4) 0.3517(3) 0.2236(3)
C2 C 0.5566(4) 0.3728(3) 0.3273(3)
C3 C 0.5657(4) 0.4090(3) 0.4314(3)
H1 H 0.4883 0.4178 0.4360
C4 C 0.6880(4) 0.4316(3) 0.5274(3)
H2 H 0.6923 0.4562 0.5956
C5 C 0.8034(4) 0.4182(3) 0.5229(3)
H3 H 0.8856 0.4334 0.5874
C6 C 0.7943(4) 0.3816(4) 0.4209(3)
H4 H 0.8719 0.3726 0.4168
C7 C 0.6718(4) 0.3580(3) 0.3245(3)
H5 H 0.6675 0.3316 0.2565
C8 C 0.4098(4) 0.4671(3) 0.2376(3)
C9 C 0.5335(4) 0.5762(3) 0.3041(3)
H6 H 0.6258 0.5809 0.3426
C10 C 0.5223(4) 0.6769(3) 0.3141(3)
H7 H 0.6064 0.7482 0.3603
C11 C 0.3878(5) 0.6733(3) 0.2564(3)
H8 H 0.3801 0.7413 0.2634
C12 C 0.2630(4) 0.5652(3) 0.1870(3)
H9 H 0.1718 0.5612 0.1458
C13 C 0.2746(4) 0.4641(3) 0.1794(3)
H10 H 0.1902 0.3928 0.1344
C14 C 0.4318(4) 0.3174(3) 0.1179(3)
C15 C 0.5232(4) 0.4005(3) 0.0938(3)
H11 H 0.5779 0.4775 0.1427
C16 C 0.5338(4) 0.3703(3) -0.0020(3)
H12 H 0.5956 0.4269 -0.0162
C17 C 0.4533(4) 0.2572(3) -0.0756(3)
H13 H 0.4595 0.2373 -0.1400
C18 C 0.3637(4) 0.1738(3) -0.0536(3)
H14 H 0.3096 0.0970 -0.1028
C19 C 0.3537(4) 0.2042(3) 0.0429(3)
H15 H 0.2929 0.1466 0.0569
C20 C 0.1455(4) 0.1537(3) 0.3159(3)
C21 C 0.1673(4) 0.2575(3) 0.3801(3)
H16 H 0.2309 0.3268 0.3813
C22 C 0.0964(4) 0.2607(4) 0.4431(3)
H17 H 0.1121 0.3315 0.4853
C23 C 0.0037(5) 0.1593(5) 0.4428(4)
H18 H -0.0424 0.1615 0.4858
C24 C -0.0221(6) 0.0537(5) 0.3790(4)
H19 H -0.0863 -0.0152 0.3779
C25 C 0.0492(5) 0.0518(4) 0.3163(3)
H20 H 0.0323 -0.0192 0.2736
C26 C 0.3726(4) 0.1080(3) 0.2962(3)
C27 C 0.4484(4) 0.1386(3) 0.4104(3)
H21 H 0.4258 0.1806 0.4555
C28 C 0.5561(5) 0.1076(4) 0.4575(4)
H22 H 0.6049 0.1283 0.5340
C29 C 0.5924(5) 0.0462(4) 0.3925(4)
H23 H 0.6658 0.0259 0.4250
C30 C 0.5192(5) 0.0150(4) 0.2789(4)
H24 H 0.5435 -0.0261 0.2345
C31 C 0.4105(4) 0.0449(3) 0.2319(3)
H25 H 0.3608 0.0225 0.1553
C32 C 0.1442(5) 0.3375(4) -0.1216(3)
H26 H 0.2422 0.3451 -0.0820
H27 H 0.1456 0.4089 -0.0882
C33 C 0.0981(5) 0.3126(5) -0.2419(4)
H28 H 0.1439 0.2710 -0.2661
H29 H 0.1241 0.3837 -0.2565
C34 C -0.0680(5) 0.2381(5) -0.2988(4)
H30 H -0.1178 0.2798 -0.3311
H31 H -0.0995 0.1673 -0.3572
C35 C -0.1028(4) 0.2108(4) -0.2104(3)
H32 H -0.1467 0.2561 -0.1891
H33 H -0.1712 0.1291 -0.2364
C36 C -0.1969(5) 0.1331(4) 0.0856(4)
H34 H -0.1352 0.1042 0.1285
H35 H -0.2938 0.0679 0.0331
C37 C -0.2101(6) 0.2191(4) 0.1603(4)
H36 H -0.1692 0.2199 0.2351
H37 H -0.3128 0.2013 0.1336
C38 C -0.1220(6) 0.3344(4) 0.1571(4)
H38 H -0.0190 0.3715 0.2138
H39 H -0.1630 0.3865 0.1662
C39 C -0.1395(5) 0.2976(4) 0.0413(4)
H40 H -0.2342 0.2850 -0.0142
H41 H -0.0608 0.3556 0.0364
Na1A Na -0.03626(15) -0.13778(12) -0.00178(11)
P1A P -0.22943(11) -0.14676(8) -0.22797(7)
O1A O -0.1101(3) -0.0426(2) -0.12188(18)
O2A O -0.0369(3) -0.2410(2) 0.1181(2)
O3A O 0.1307(3) -0.1925(2) -0.0278(2)
N1A N -0.2827(3) -0.2659(2) -0.2130(2)
C1A C -0.4175(4) -0.3517(3) -0.2236(3)
C2A C -0.5566(4) -0.3728(3) -0.3273(3)
C3A C -0.5657(4) -0.4090(3) -0.4314(3)
H1A H -0.4883 -0.4178 -0.4360
C4A C -0.6880(4) -0.4316(3) -0.5274(3)
H2A H -0.6923 -0.4562 -0.5956
C5A C -0.8034(4) -0.4182(3) -0.5229(3)
H3A H -0.8856 -0.4334 -0.5874
C6A C -0.7943(4) -0.3816(4) -0.4209(3)
H4A H -0.8719 -0.3726 -0.4168
C7A C -0.6718(4) -0.3580(3) -0.3245(3)
H5A H -0.6675 -0.3316 -0.2565
C8A C -0.4098(4) -0.4671(3) -0.2376(3)
C9A C -0.5335(4) -0.5762(3) -0.3041(3)
H6A H -0.6258 -0.5809 -0.3426
C10A C -0.5223(4) -0.6769(3) -0.3141(3)
H7A H -0.6064 -0.7482 -0.3603
C11A C -0.3878(5) -0.6733(3) -0.2564(3)
H8A H -0.3801 -0.7413 -0.2634
C12A C -0.2630(4) -0.5652(3) -0.1870(3)
H9A H -0.1718 -0.5612 -0.1458
C13A C -0.2746(4) -0.4641(3) -0.1794(3)
H10A H -0.1902 -0.3928 -0.1344
C14A C -0.4318(4) -0.3174(3) -0.1179(3)
C15A C -0.5232(4) -0.4005(3) -0.0938(3)
H11A H -0.5779 -0.4775 -0.1427
C16A C -0.5338(4) -0.3703(3) 0.0020(3)
H12A H -0.5956 -0.4269 0.0162
C17A C -0.4533(4) -0.2572(3) 0.0756(3)
H13A H -0.4595 -0.2373 0.1400
C18A C -0.3637(4) -0.1738(3) 0.0536(3)
H14A H -0.3096 -0.0970 0.1028
C19A C -0.3537(4) -0.2042(3) -0.0429(3)
H15A H -0.2929 -0.1466 -0.0569
C20A C -0.1455(4) -0.1537(3) -0.3159(3)
C21A C -0.1673(4) -0.2575(3) -0.3801(3)
H16A H -0.2309 -0.3268 -0.3813
C22A C -0.0964(4) -0.2607(4) -0.4431(3)
H17A H -0.1121 -0.3315 -0.4853
C23A C -0.0037(5) -0.1593(5) -0.4428(4)
H18A H 0.0424 -0.1615 -0.4858
C24A C 0.0221(6) -0.0537(5) -0.3790(4)
H19A H 0.0863 0.0152 -0.3779
C25A C -0.0492(5) -0.0518(4) -0.3163(3)
H20A H -0.0323 0.0192 -0.2736
C26A C -0.3726(4) -0.1080(3) -0.2962(3)
C27A C -0.4484(4) -0.1386(3) -0.4104(3)
H21A H -0.4258 -0.1806 -0.4555
C28A C -0.5561(5) -0.1076(4) -0.4575(4)
H22A H -0.6049 -0.1283 -0.5340
C29A C -0.5924(5) -0.0462(4) -0.3925(4)
H23A H -0.6658 -0.0259 -0.4250
C30A C -0.5192(5) -0.0150(4) -0.2789(4)
H24A H -0.5435 0.0261 -0.2345
C31A C -0.4105(4) -0.0449(3) -0.2319(3)
H25A H -0.3608 -0.0225 -0.1553
C32A C -0.1442(5) -0.3375(4) 0.1216(3)
H26A H -0.2422 -0.3451 0.0820
H27A H -0.1456 -0.4089 0.0882
C33A C -0.0981(5) -0.3126(5) 0.2419(4)
H28A H -0.1439 -0.2710 0.2661
H29A H -0.1241 -0.3837 0.2565
C34A C 0.0680(5) -0.2381(5) 0.2988(4)
H30A H 0.1178 -0.2798 0.3311
H31A H 0.0995 -0.1673 0.3572
C35A C 0.1028(4) -0.2108(4) 0.2104(3)
H32A H 0.1467 -0.2561 0.1891
H33A H 0.1712 -0.1291 0.2364
C36A C 0.1969(5) -0.1331(4) -0.0856(4)
H34A H 0.1352 -0.1042 -0.1285
H35A H 0.2938 -0.0679 -0.0331
C37A C 0.2101(6) -0.2191(4) -0.1603(4)
H36A H 0.1692 -0.2199 -0.2351
H37A H 0.3128 -0.2013 -0.1336
C38A C 0.1220(6) -0.3344(4) -0.1571(4)
H38A H 0.0190 -0.3715 -0.2138
H39A H 0.1630 -0.3865 -0.1662
C39A C 0.1395(5) -0.2976(4) -0.0413(4)
H40A H 0.2342 -0.2850 0.0142
H41A H 0.0608 -0.3556 -0.0364
loop_
_geom_bond_atom_site_label_1
_geom_bond_atom_site_label_2
_geom_bond_site_symmetry_1
_geom_bond_site_symmetry_2
Na1 O1 1_555 1_555
P1 O1 1_555 1_555
O1 Na1A 1_555 1_555
O2 Na1 1_555 1_555
O3 Na1 1_555 1_555
N1 Na1 1_555 1_555
C1 N1 1_555 1_555
C2 C1 1_555 1_555
C3 C2 1_555 1_555
H1 C3 1_555 1_555
C4 C3 1_555 1_555
H2 C4 1_555 1_555
C5 C4 1_555 1_555
H3 C5 1_555 1_555
C6 C5 1_555 1_555
H4 C6 1_555 1_555
C7 C2 1_555 1_555
H5 C7 1_555 1_555
C8 C1 1_555 1_555
C9 C8 1_555 1_555
H6 C9 1_555 1_555
C10 C9 1_555 1_555
H7 C10 1_555 1_555
C11 C10 1_555 1_555
H8 C11 1_555 1_555
C12 C11 1_555 1_555
H9 C12 1_555 1_555
C13 C8 1_555 1_555
H10 C13 1_555 1_555
C14 C1 1_555 1_555
C15 C14 1_555 1_555
H11 C15 1_555 1_555
C16 C15 1_555 1_555
H12 C16 1_555 1_555
C17 C16 1_555 1_555
H13 C17 1_555 1_555
C18 C17 1_555 1_555
H14 C18 1_555 1_555
C19 C14 1_555 1_555
H15 C19 1_555 1_555
C20 P1 1_555 1_555
C21 C20 1_555 1_555
H16 C21 1_555 1_555
C22 C21 1_555 1_555
H17 C22 1_555 1_555
C23 C22 1_555 1_555
H18 C23 1_555 1_555
C24 C23 1_555 1_555
H19 C24 1_555 1_555
C25 C20 1_555 1_555
H20 C25 1_555 1_555
C26 P1 1_555 1_555
C27 C26 1_555 1_555
H21 C27 1_555 1_555
C28 C27 1_555 1_555
H22 C28 1_555 1_555
C29 C28 1_555 1_555
H23 C29 1_555 1_555
C30 C29 1_555 1_555
H24 C30 1_555 1_555
C31 C26 1_555 1_555
H25 C31 1_555 1_555
C32 O2 1_555 1_555
H26 C32 1_555 1_555
H27 C32 1_555 1_555
C33 C32 1_555 1_555
H28 C33 1_555 1_555
H29 C33 1_555 1_555
C34 C33 1_555 1_555
H30 C34 1_555 1_555
H31 C34 1_555 1_555
C35 O2 1_555 1_555
H32 C35 1_555 1_555
H33 C35 1_555 1_555
C36 O3 1_555 1_555
H34 C36 1_555 1_555
H35 C36 1_555 1_555
C37 C36 1_555 1_555
H36 C37 1_555 1_555
H37 C37 1_555 1_555
C38 C37 1_555 1_555
H38 C38 1_555 1_555
H39 C38 1_555 1_555
C39 O3 1_555 1_555
H40 C39 1_555 1_555
H41 C39 1_555 1_555
Na1A O1A 1_555 1_555
P1A O1A 1_555 1_555
O1A Na1 1_555 1_555
O2A Na1A 1_555 1_555
O3A Na1A 1_555 1_555
N1A Na1A 1_555 1_555
C1A N1A 1_555 1_555
C2A C1A 1_555 1_555
C3A C2A 1_555 1_555
H1A C3A 1_555 1_555
C4A C3A 1_555 1_555
H2A C4A 1_555 1_555
C5A C4A 1_555 1_555
H3A C5A 1_555 1_555
C6A C5A 1_555 1_555
H4A C6A 1_555 1_555
C7A C2A 1_555 1_555
H5A C7A 1_555 1_555
C8A C1A 1_555 1_555
C9A C8A 1_555 1_555
H6A C9A 1_555 1_555
C10A C9A 1_555 1_555
H7A C10A 1_555 1_555
C11A C10A 1_555 1_555
H8A C11A 1_555 1_555
C12A C11A 1_555 1_555
H9A C12A 1_555 1_555
C13A C8A 1_555 1_555
H10A C13A 1_555 1_555
C14A C1A 1_555 1_555
C15A C14A 1_555 1_555
H11A C15A 1_555 1_555
C16A C15A 1_555 1_555
H12A C16A 1_555 1_555
C17A C16A 1_555 1_555
H13A C17A 1_555 1_555
C18A C17A 1_555 1_555
H14A C18A 1_555 1_555
C19A C14A 1_555 1_555
H15A C19A 1_555 1_555
C20A P1A 1_555 1_555
C21A C20A 1_555 1_555
H16A C21A 1_555 1_555
C22A C21A 1_555 1_555
H17A C22A 1_555 1_555
C23A C22A 1_555 1_555
H18A C23A 1_555 1_555
C24A C23A 1_555 1_555
H19A C24A 1_555 1_555
C25A C20A 1_555 1_555
H20A C25A 1_555 1_555
C26A P1A 1_555 1_555
C27A C26A 1_555 1_555
H21A C27A 1_555 1_555
C28A C27A 1_555 1_555
H22A C28A 1_555 1_555
C29A C28A 1_555 1_555
H23A C29A 1_555 1_555
C30A C29A 1_555 1_555
H24A C30A 1_555 1_555
C31A C26A 1_555 1_555
H25A C31A 1_555 1_555
C32A O2A 1_555 1_555
H26A C32A 1_555 1_555
H27A C32A 1_555 1_555
C33A C32A 1_555 1_555
H28A C33A 1_555 1_555
H29A C33A 1_555 1_555
C34A C33A 1_555 1_555
H30A C34A 1_555 1_555
H31A C34A 1_555 1_555
C35A O2A 1_555 1_555
H32A C35A 1_555 1_555
H33A C35A 1_555 1_555
C36A O3A 1_555 1_555
H34A C36A 1_555 1_555
H35A C36A 1_555 1_555
C37A C36A 1_555 1_555
H36A C37A 1_555 1_555
H37A C37A 1_555 1_555
C38A C37A 1_555 1_555
H38A C38A 1_555 1_555
H39A C38A 1_555 1_555
C39A O3A 1_555 1_555
H40A C39A 1_555 1_555
H41A C39A 1_555 1_555
P1 N1 1_555 1_555
C6 C7 1_555 1_555
C12 C13 1_555 1_555
C18 C19 1_555 1_555
C24 C25 1_555 1_555
C30 C31 1_555 1_555
C34 C35 1_555 1_555
C38 C39 1_555 1_555
P1A N1A 1_555 1_555
C6A C7A 1_555 1_555
C12A C13A 1_555 1_555
C18A C19A 1_555 1_555
C24A C25A 1_555 1_555
C30A C31A 1_555 1_555
C34A C35A 1_555 1_555
C38A C39A 1_555 1_555

#END
