
#######################################################################
#
#                 Cambridge Crystallographic Data Centre
#                                CCDC 
#
#######################################################################
#
# If this CIF has been generated from an entry in the Cambridge 
# Structural Database, then it will include bibliographic, chemical, 
# crystal, experimental, refinement or atomic coordinate data resulting 
# from the CCDC's data processing and validation procedures.
#
#######################################################################

data_KEVGEZ
_chemical_formula_moiety         'C31 H26 N1 P1 S1'
_chemical_name_systematic        'P,P-Diphenyl-N-tritylphosphinothioic amide'
_symmetry_cell_setting           monoclinic
_symmetry_space_group_name_H-M   'P 21/c'
_symmetry_Int_Tables_number      14
_space_group_name_Hall           '-P 2ybc'
loop_
_symmetry_equiv_pos_site_id
_symmetry_equiv_pos_as_xyz
1 x,y,z
2 -x,1/2+y,1/2-z
3 -x,-y,-z
4 x,1/2-y,1/2+z
_cell_length_a                   14.5362(5)
_cell_length_b                   10.9798(4)
_cell_length_c                   15.6321(4)
_cell_angle_alpha                90
_cell_angle_beta                 90.970(3)
_cell_angle_gamma                90
_cell_volume                     2494.6
_exptl_crystal_colour            colorless
_exptl_crystal_description       block
_cell_formula_units_Z            4
loop_
_atom_site_label
_atom_site_type_symbol
_atom_site_fract_x
_atom_site_fract_y
_atom_site_fract_z
S1 S 0.25095(4) -0.05830(5) 0.44036(3)
P1 P 0.22048(4) 0.03193(4) 0.33646(3)
N1 N 0.27574(12) 0.16424(15) 0.32216(10)
H1 H 0.3012 0.1727 0.2732
C1 C 0.28729(14) 0.26897(17) 0.38152(13)
C2 C 0.36815(14) 0.24820(18) 0.44476(13)
C3 C 0.43495(14) 0.16073(18) 0.43022(14)
H2 H 0.4288 0.1091 0.3833
C4 C 0.51087(15) 0.14925(19) 0.48485(14)
H3 H 0.5549 0.0900 0.4742
C5 C 0.52146(15) 0.2250(2) 0.55475(14)
H4 H 0.5718 0.2163 0.5917
C6 C 0.45644(16) 0.3140(2) 0.56915(15)
H5 H 0.4636 0.3663 0.6156
C7 C 0.38061(16) 0.3259(2) 0.51495(14)
H6 H 0.3374 0.3864 0.5253
C8 C 0.31603(15) 0.38007(18) 0.32747(14)
C9 C 0.29708(18) 0.4987(2) 0.35496(16)
H7 H 0.2650 0.5107 0.4052
C10 C 0.3258(2) 0.5988(2) 0.30782(19)
H8 H 0.3118 0.6770 0.3263
C11 C 0.3748(2) 0.5832(2) 0.2341(2)
H9 H 0.3924 0.6502 0.2018
C12 C 0.3970(2) 0.4682(3) 0.2088(2)
H10 H 0.4317 0.4568 0.1600
C13 C 0.36833(19) 0.3676(2) 0.25565(17)
H11 H 0.3850 0.2900 0.2378
C14 C 0.19537(14) 0.29057(18) 0.42654(13)
C15 C 0.17737(16) 0.24021(19) 0.50625(14)
H12 H 0.2230 0.1965 0.5352
C16 C 0.09163(17) 0.2548(2) 0.54281(15)
H13 H 0.0801 0.2197 0.5957
C17 C 0.02366(17) 0.3205(3) 0.50170(17)
H14 H -0.0330 0.3318 0.5272
C18 C 0.04027(17) 0.3694(3) 0.42252(17)
H15 H -0.0057 0.4132 0.3941
C19 C 0.12461(16) 0.3540(2) 0.38473(15)
H16 H 0.1344 0.3863 0.3307
C20 C 0.09775(14) 0.05845(18) 0.32353(13)
C21 C 0.03513(16) 0.0152(2) 0.38216(14)
H17 H 0.0558 -0.0282 0.4298
C22 C -0.05840(17) 0.0366(2) 0.36990(16)
H18 H -0.1000 0.0085 0.4099
C23 C -0.08987(16) 0.0990(2) 0.29907(16)
H19 H -0.1526 0.1121 0.2907
C24 C -0.02784(18) 0.1422(3) 0.24020(16)
H20 H -0.0489 0.1845 0.1922
C25 C 0.06503(17) 0.1228(2) 0.25250(15)
H21 H 0.1063 0.1530 0.2130
C26 C 0.25383(15) -0.04425(17) 0.23817(13)
C27 C 0.18985(17) -0.1061(2) 0.18788(16)
H22 H 0.1286 -0.1087 0.2042
C28 C 0.21623(19) -0.1645(3) 0.11330(17)
H23 H 0.1726 -0.2057 0.0801
C29 C 0.30630(18) -0.1616(2) 0.08840(15)
H24 H 0.3232 -0.1974 0.0371
C30 C 0.37174(17) -0.1053(2) 0.13987(16)
H25 H 0.4333 -0.1066 0.1246
C31 C 0.34565(16) -0.0470(2) 0.21424(15)
H26 H 0.3900 -0.0092 0.2486
loop_
_geom_bond_atom_site_label_1
_geom_bond_atom_site_label_2
_geom_bond_site_symmetry_1
_geom_bond_site_symmetry_2
S1 P1 1_555 1_555
P1 N1 1_555 1_555
N1 H1 1_555 1_555
C1 N1 1_555 1_555
C2 C1 1_555 1_555
C3 C2 1_555 1_555
H2 C3 1_555 1_555
C4 C3 1_555 1_555
H3 C4 1_555 1_555
C5 C4 1_555 1_555
H4 C5 1_555 1_555
C6 C5 1_555 1_555
H5 C6 1_555 1_555
C7 C2 1_555 1_555
H6 C7 1_555 1_555
C8 C1 1_555 1_555
C9 C8 1_555 1_555
H7 C9 1_555 1_555
C10 C9 1_555 1_555
H8 C10 1_555 1_555
C11 C10 1_555 1_555
H9 C11 1_555 1_555
C12 C11 1_555 1_555
H10 C12 1_555 1_555
C13 C8 1_555 1_555
H11 C13 1_555 1_555
C14 C1 1_555 1_555
C15 C14 1_555 1_555
H12 C15 1_555 1_555
C16 C15 1_555 1_555
H13 C16 1_555 1_555
C17 C16 1_555 1_555
H14 C17 1_555 1_555
C18 C17 1_555 1_555
H15 C18 1_555 1_555
C19 C14 1_555 1_555
H16 C19 1_555 1_555
C20 P1 1_555 1_555
C21 C20 1_555 1_555
H17 C21 1_555 1_555
C22 C21 1_555 1_555
H18 C22 1_555 1_555
C23 C22 1_555 1_555
H19 C23 1_555 1_555
C24 C23 1_555 1_555
H20 C24 1_555 1_555
C25 C20 1_555 1_555
H21 C25 1_555 1_555
C26 P1 1_555 1_555
C27 C26 1_555 1_555
H22 C27 1_555 1_555
C28 C27 1_555 1_555
H23 C28 1_555 1_555
C29 C28 1_555 1_555
H24 C29 1_555 1_555
C30 C29 1_555 1_555
H25 C30 1_555 1_555
C31 C26 1_555 1_555
H26 C31 1_555 1_555
C6 C7 1_555 1_555
C12 C13 1_555 1_555
C18 C19 1_555 1_555
C24 C25 1_555 1_555
C30 C31 1_555 1_555

#END
