
#######################################################################
#
#                 Cambridge Crystallographic Data Centre
#                                CCDC 
#
#######################################################################
#
# If this CIF has been generated from an entry in the Cambridge 
# Structural Database, then it will include bibliographic, chemical, 
# crystal, experimental, refinement or atomic coordinate data resulting 
# from the CCDC's data processing and validation procedures.
#
#######################################################################

data_KEVGOJ
_chemical_formula_moiety         'C25 H22 N1 P1'
_chemical_name_systematic        
'N-(Diphenylmethyl)-P,P-diphenylphosphinous amide'
_symmetry_cell_setting           monoclinic
_symmetry_space_group_name_H-M   'C c'
_symmetry_Int_Tables_number      9
_space_group_name_Hall           'C -2yc'
loop_
_symmetry_equiv_pos_site_id
_symmetry_equiv_pos_as_xyz
1 x,y,z
2 x,-y,1/2+z
3 1/2+x,1/2+y,z
4 1/2+x,1/2-y,1/2+z
_cell_length_a                   22.237(4)
_cell_length_b                   10.648(2)
_cell_length_c                   9.551(2)
_cell_angle_alpha                90
_cell_angle_beta                 112.38(3)
_cell_angle_gamma                90
_cell_volume                     2091.14
_exptl_crystal_colour            colorless
_exptl_crystal_description       block
_cell_formula_units_Z            4
loop_
_atom_site_label
_atom_site_type_symbol
_atom_site_fract_x
_atom_site_fract_y
_atom_site_fract_z
P1 P 0.38368(9) 0.03486(15) 0.63199(15)
N1 N 0.3360(3) -0.0269(5) 0.4656(6)
H1 H 0.3498 -0.0351 0.3933
C1 C 0.2707(3) -0.0659(6) 0.4466(7)
H2 H 0.2689 -0.0802 0.5463
C2 C 0.2559(3) -0.1931(6) 0.3546(8)
C3 C 0.2296(4) -0.2002(7) 0.2023(9)
H3 H 0.2176 -0.1256 0.1480
C4 C 0.2193(5) -0.3115(7) 0.1216(11)
H4 H 0.2011 -0.3126 0.0164
C5 C 0.2375(5) -0.4220(8) 0.2059(13)
H5 H 0.2302 -0.4991 0.1565
C6 C 0.2653(4) -0.4181(8) 0.3571(12)
H6 H 0.2780 -0.4926 0.4112
C7 C 0.2754(4) -0.3056(7) 0.4341(10)
H7 H 0.2952 -0.3046 0.5392
C8 C 0.2173(3) 0.0309(6) 0.3572(8)
C9 C 0.1543(4) 0.0108(8) 0.3488(10)
H8 H 0.1443 -0.0589 0.3945
C10 C 0.1060(4) 0.0986(13) 0.2694(13)
H9 H 0.0636 0.0868 0.2631
C11 C 0.1201(6) 0.1993(11) 0.2025(14)
H10 H 0.0872 0.2550 0.1491
C12 C 0.1807(6) 0.2208(8) 0.2114(11)
H11 H 0.1900 0.2911 0.1654
C13 C 0.2299(4) 0.1366(7) 0.2903(8)
H12 H 0.2722 0.1521 0.2978
C14 C 0.4044(3) 0.1920(6) 0.5831(7)
C15 C 0.3889(4) 0.2940(7) 0.6560(9)
H13 H 0.3703 0.2804 0.7270
C16 C 0.4015(5) 0.4157(8) 0.6213(11)
H14 H 0.3919 0.4836 0.6704
C17 C 0.4278(5) 0.4357(8) 0.5156(13)
H15 H 0.4363 0.5174 0.4941
C18 C 0.4421(5) 0.3366(8) 0.4399(11)
H16 H 0.4587 0.3506 0.3655
C19 C 0.4308(4) 0.2143(7) 0.4786(9)
H17 H 0.4416 0.1466 0.4313
C20 C 0.4626(3) -0.0417(6) 0.6700(7)
C21 C 0.4667(4) -0.1554(7) 0.6045(10)
H18 H 0.4297 -0.1914 0.5326
C22 C 0.5268(5) -0.2161(8) 0.6471(14)
H19 H 0.5299 -0.2929 0.6039
C23 C 0.5811(4) -0.1620(10) 0.7528(14)
H20 H 0.6212 -0.2016 0.7798
C24 C 0.5768(5) -0.0524(10) 0.8177(15)
H21 H 0.6138 -0.0179 0.8912
C25 C 0.5172(4) 0.0108(8) 0.7759(12)
H22 H 0.5147 0.0876 0.8197
loop_
_geom_bond_atom_site_label_1
_geom_bond_atom_site_label_2
_geom_bond_site_symmetry_1
_geom_bond_site_symmetry_2
P1 N1 1_555 1_555
N1 H1 1_555 1_555
C1 N1 1_555 1_555
H2 C1 1_555 1_555
C2 C1 1_555 1_555
C3 C2 1_555 1_555
H3 C3 1_555 1_555
C4 C3 1_555 1_555
H4 C4 1_555 1_555
C5 C4 1_555 1_555
H5 C5 1_555 1_555
C6 C5 1_555 1_555
H6 C6 1_555 1_555
C7 C2 1_555 1_555
H7 C7 1_555 1_555
C8 C1 1_555 1_555
C9 C8 1_555 1_555
H8 C9 1_555 1_555
C10 C9 1_555 1_555
H9 C10 1_555 1_555
C11 C10 1_555 1_555
H10 C11 1_555 1_555
C12 C11 1_555 1_555
H11 C12 1_555 1_555
C13 C8 1_555 1_555
H12 C13 1_555 1_555
C14 P1 1_555 1_555
C15 C14 1_555 1_555
H13 C15 1_555 1_555
C16 C15 1_555 1_555
H14 C16 1_555 1_555
C17 C16 1_555 1_555
H15 C17 1_555 1_555
C18 C17 1_555 1_555
H16 C18 1_555 1_555
C19 C14 1_555 1_555
H17 C19 1_555 1_555
C20 P1 1_555 1_555
C21 C20 1_555 1_555
H18 C21 1_555 1_555
C22 C21 1_555 1_555
H19 C22 1_555 1_555
C23 C22 1_555 1_555
H20 C23 1_555 1_555
C24 C23 1_555 1_555
H21 C24 1_555 1_555
C25 C20 1_555 1_555
H22 C25 1_555 1_555
C6 C7 1_555 1_555
C12 C13 1_555 1_555
C18 C19 1_555 1_555
C24 C25 1_555 1_555

#END
