
#######################################################################
#
#                 Cambridge Crystallographic Data Centre
#                                CCDC 
#
#######################################################################
#
# If this CIF has been generated from an entry in the Cambridge 
# Structural Database, then it will include bibliographic, chemical, 
# crystal, experimental, refinement or atomic coordinate data resulting 
# from the CCDC's data processing and validation procedures.
#
#######################################################################

data_KEVGUQ
_chemical_formula_moiety         'C18 H15 N1 O3'
_chemical_name_systematic        
N-(2,6-dimethylphenyl)-2-oxo-2H-chromene-3-carboxamide
_symmetry_cell_setting           triclinic
_symmetry_space_group_name_H-M   'P -1'
_symmetry_Int_Tables_number      2
_space_group_name_Hall           '-P 1'
loop_
_symmetry_equiv_pos_site_id
_symmetry_equiv_pos_as_xyz
1 x,y,z
2 -x,-y,-z
_cell_length_a                   8.7158(10)
_cell_length_b                   9.0131(10)
_cell_length_c                   9.7556(11)
_cell_angle_alpha                83.894(4)
_cell_angle_beta                 82.512(4)
_cell_angle_gamma                86.919(4)
_cell_volume                     754.9
_exptl_crystal_colour            colorless
_exptl_crystal_description       Block
_cell_formula_units_Z            2
loop_
_atom_site_label
_atom_site_type_symbol
_atom_site_fract_x
_atom_site_fract_y
_atom_site_fract_z
C1 C 0.6498(2) 0.9180(2) -0.10754(18)
C2 C 0.6404(2) 1.0326(2) -0.2155(2)
H1 H 0.7107 1.1085 -0.2288
C3 C 0.5281(2) 1.0331(2) -0.3014(2)
H2 H 0.5214 1.1101 -0.3721
C4 C 0.4249(3) 0.9198(2) -0.2836(2)
H3 H 0.3501 0.9206 -0.3435
C5 C 0.4308(2) 0.8054(2) -0.1786(2)
H4 H 0.3606 0.7295 -0.1666
C6 C 0.5432(2) 0.80638(19) -0.09149(19)
C7 C 0.7622(2) 0.9082(2) -0.01287(19)
H5 H 0.8348 0.9817 -0.0219
C8 C 0.7665(2) 0.7960(2) 0.08891(18)
C9 C 0.6556(2) 0.6792(2) 0.10337(19)
C10 C 0.8886(2) 0.7966(3) 0.1845(2)
C11 C 1.0251(2) 0.6652(2) 0.36329(19)
C12 C 1.1599(2) 0.5866(2) 0.3169(2)
C13 C 1.2793(2) 0.5731(3) 0.3993(3)
H6 H 1.3711 0.5219 0.3700
C14 C 1.2634(3) 0.6344(3) 0.5232(3)
H7 H 1.3439 0.6231 0.5779
C15 C 1.1310(3) 0.7115(3) 0.5667(2)
H8 H 1.1223 0.7526 0.6510
C16 C 1.0076(2) 0.7304(2) 0.4878(2)
C17 C 0.8643(3) 0.8192(3) 0.5344(3)
H9 H 0.8545 0.9067 0.4703
H10 H 0.8706 0.8485 0.6252
H11 H 0.7756 0.7596 0.5377
C18 C 1.1786(3) 0.5209(3) 0.1803(3)
H12 H 1.1072 0.4427 0.1846
H13 H 1.2826 0.4808 0.1612
H14 H 1.1581 0.5972 0.1078
N1 N 0.90089(18) 0.68083(18) 0.27912(16)
H15 H 0.8327 0.6136 0.2902
O1 O 0.54653(15) 0.69176(13) 0.01303(13)
O2 O 0.64814(18) 0.57087(17) 0.18806(16)
O3 O 0.9715(2) 0.9042(2) 0.17436(19)
loop_
_geom_bond_atom_site_label_1
_geom_bond_atom_site_label_2
_geom_bond_site_symmetry_1
_geom_bond_site_symmetry_2
C1 C2 1_555 1_555
C2 H1 1_555 1_555
C3 C2 1_555 1_555
H2 C3 1_555 1_555
C4 C3 1_555 1_555
H3 C4 1_555 1_555
C5 C4 1_555 1_555
H4 C5 1_555 1_555
C6 C1 1_555 1_555
C7 C1 1_555 1_555
H5 C7 1_555 1_555
C8 C7 1_555 1_555
C9 C8 1_555 1_555
C10 C8 1_555 1_555
C11 C12 1_555 1_555
C12 C13 1_555 1_555
C13 H6 1_555 1_555
C14 C13 1_555 1_555
H7 C14 1_555 1_555
C15 C14 1_555 1_555
H8 C15 1_555 1_555
C16 C11 1_555 1_555
C17 C16 1_555 1_555
H9 C17 1_555 1_555
H10 C17 1_555 1_555
H11 C17 1_555 1_555
C18 C12 1_555 1_555
H12 C18 1_555 1_555
H13 C18 1_555 1_555
H14 C18 1_555 1_555
N1 C10 1_555 1_555
H15 N1 1_555 1_555
O1 C6 1_555 1_555
O2 C9 1_555 1_555
O3 C10 1_555 1_555
C5 C6 1_555 1_555
C9 O1 1_555 1_555
C11 N1 1_555 1_555
C15 C16 1_555 1_555

#END
