
#######################################################################
#
#                 Cambridge Crystallographic Data Centre
#                                CCDC 
#
#######################################################################
#
# If this CIF has been generated from an entry in the Cambridge 
# Structural Database, then it will include bibliographic, chemical, 
# crystal, experimental, refinement or atomic coordinate data resulting 
# from the CCDC's data processing and validation procedures.
#
#######################################################################

data_KEVHIE
_chemical_formula_moiety         'C46 H65 N2 1+,I3 1-'
_chemical_name_systematic        
'2-(Bis(4-t-butylbenzyl)amino)-N,N-bis(4-tert-butylbenzyl)ethanaminium triiodide'
_symmetry_cell_setting           monoclinic
_symmetry_space_group_name_H-M   'C 2'
_symmetry_Int_Tables_number      5
_space_group_name_Hall           'C 2y'
loop_
_symmetry_equiv_pos_site_id
_symmetry_equiv_pos_as_xyz
1 x,y,z
2 -x,y,-z
3 1/2+x,1/2+y,z
4 1/2-x,1/2+y,-z
_cell_length_a                   9.4241(19)
_cell_length_b                   18.800(4)
_cell_length_c                   26.836(5)
_cell_angle_alpha                90
_cell_angle_beta                 92.50(3)
_cell_angle_gamma                90
_cell_volume                     4750.09
_cell_formula_units_Z            4
loop_
_atom_site_label
_atom_site_type_symbol
_atom_site_fract_x
_atom_site_fract_y
_atom_site_fract_z
I3 I 0.0000 0.06125(8) 0.5000
I4 I 0.07138(12) 0.06559(6) 0.39507(4)
I4A I -0.07138(12) 0.06559(6) 0.60493(4)
N1 N 0.1477(13) 0.2552(6) -0.0027(4)
C1 C 0.1938(16) 0.2589(7) -0.0562(5)
H1 H 0.2555 0.2998 -0.0594
H2 H 0.1103 0.2667 -0.0780
C2 C 0.2727(15) 0.1918(7) -0.0745(5)
C3 C 0.3921(16) 0.1998(8) -0.1035(5)
H3 H 0.4273 0.2449 -0.1100
C4 C 0.457(2) 0.1406(9) -0.1224(6)
H4 H 0.5337 0.1462 -0.1426
C5 C 0.4091(14) 0.0726(8) -0.1119(5)
C6 C 0.2926(15) 0.0614(8) -0.0825(6)
H5 H 0.2614 0.0160 -0.0744
C7 C 0.2250(16) 0.1239(8) -0.0656(6)
H6 H 0.1437 0.1187 -0.0476
C8 C 0.4796(19) 0.0039(8) -0.1321(7)
C9 C 0.5540(19) -0.0361(12) -0.0903(8)
H7 H 0.4861 -0.0639 -0.0731
H8 H 0.5992 -0.0030 -0.0674
H9 H 0.6243 -0.0669 -0.1035
C10 C 0.371(3) -0.0465(13) -0.1576(14)
H10 H 0.4122 -0.0930 -0.1601
H11 H 0.3456 -0.0290 -0.1904
H12 H 0.2881 -0.0490 -0.1382
C11 C 0.5934(17) 0.0203(10) -0.1702(6)
H13 H 0.6749 0.0413 -0.1533
H14 H 0.5551 0.0527 -0.1949
H15 H 0.6208 -0.0231 -0.1860
C12 C 0.2688(16) 0.2396(9) 0.0353(6)
H16 H 0.3284 0.2023 0.0225
H17 H 0.3267 0.2819 0.0400
C13 C 0.2165(14) 0.2178(8) 0.0825(5)
C14 C 0.1467(17) 0.1509(7) 0.0883(5)
H18 H 0.1415 0.1191 0.0617
C15 C 0.0876(18) 0.1328(8) 0.1321(6)
H19 H 0.0423 0.0892 0.1350
C16 C 0.0948(14) 0.1805(7) 0.1738(5)
C17 C 0.165(2) 0.2440(9) 0.1684(6)
H20 H 0.1729 0.2754 0.1952
C18 C 0.2253(15) 0.2619(8) 0.1228(5)
H21 H 0.2724 0.3052 0.1202
C19 C 0.0304(16) 0.1559(10) 0.2223(5)
C20 C -0.125(2) 0.1405(16) 0.2110(6)
H22 H -0.1728 0.1353 0.2417
H23 H -0.1347 0.0974 0.1921
H24 H -0.1671 0.1792 0.1922
C21 C 0.107(3) 0.0865(14) 0.2423(7)
H25 H 0.1944 0.0976 0.2601
H26 H 0.1250 0.0558 0.2147
H27 H 0.0439 0.0631 0.2643
C22 C 0.042(3) 0.2083(14) 0.2619(8)
H28 H 0.1338 0.2050 0.2785
H29 H -0.0302 0.1996 0.2853
H30 H 0.0292 0.2550 0.2479
C23 C 0.0732(17) 0.3216(8) 0.0093(6)
H31 H 0.0760 0.3278 0.0453
H32 H 0.1225 0.3615 -0.0050
H33 H 0.0839 0.2190 -0.0010
N1A N -0.1477(13) 0.2552(6) 0.0027(4)
C1A C -0.1938(16) 0.2589(7) 0.0562(5)
H1A H -0.2555 0.2998 0.0594
H2A H -0.1103 0.2667 0.0780
C2A C -0.2727(15) 0.1918(7) 0.0745(5)
C3A C -0.3921(16) 0.1998(8) 0.1035(5)
H3A H -0.4273 0.2449 0.1100
C4A C -0.457(2) 0.1406(9) 0.1224(6)
H4A H -0.5337 0.1462 0.1426
C5A C -0.4091(14) 0.0726(8) 0.1119(5)
C6A C -0.2926(15) 0.0614(8) 0.0825(6)
H5A H -0.2614 0.0160 0.0744
C7A C -0.2250(16) 0.1239(8) 0.0656(6)
H6A H -0.1437 0.1187 0.0476
C8A C -0.4796(19) 0.0039(8) 0.1321(7)
C9A C -0.5540(19) -0.0361(12) 0.0903(8)
H7A H -0.4861 -0.0639 0.0731
H8A H -0.5992 -0.0030 0.0674
H9A H -0.6243 -0.0669 0.1035
C10A C -0.371(3) -0.0465(13) 0.1576(14)
H10A H -0.4122 -0.0930 0.1601
H11A H -0.3456 -0.0290 0.1904
H12A H -0.2881 -0.0490 0.1382
C11A C -0.5934(17) 0.0203(10) 0.1702(6)
H13A H -0.6749 0.0413 0.1533
H14A H -0.5551 0.0527 0.1949
H15A H -0.6208 -0.0231 0.1860
C12A C -0.2688(16) 0.2396(9) -0.0353(6)
H16A H -0.3284 0.2023 -0.0225
H17A H -0.3267 0.2819 -0.0400
C13A C -0.2165(14) 0.2178(8) -0.0825(5)
C14A C -0.1467(17) 0.1509(7) -0.0883(5)
H18A H -0.1415 0.1191 -0.0617
C15A C -0.0876(18) 0.1328(8) -0.1321(6)
H19A H -0.0423 0.0892 -0.1350
C16A C -0.0948(14) 0.1805(7) -0.1738(5)
C17A C -0.165(2) 0.2440(9) -0.1684(6)
H20A H -0.1729 0.2754 -0.1952
C18A C -0.2253(15) 0.2619(8) -0.1228(5)
H21A H -0.2724 0.3052 -0.1202
C19A C -0.0304(16) 0.1559(10) -0.2223(5)
C20A C 0.125(2) 0.1405(16) -0.2110(6)
H22A H 0.1728 0.1353 -0.2417
H23A H 0.1347 0.0974 -0.1921
H24A H 0.1671 0.1792 -0.1922
C21A C -0.107(3) 0.0865(14) -0.2423(7)
H25A H -0.1944 0.0976 -0.2601
H26A H -0.1250 0.0558 -0.2147
H27A H -0.0439 0.0631 -0.2643
C22A C -0.042(3) 0.2083(14) -0.2619(8)
H28A H -0.1338 0.2050 -0.2785
H29A H 0.0302 0.1996 -0.2853
H30A H -0.0292 0.2550 -0.2479
C23A C -0.0732(17) 0.3216(8) -0.0093(6)
H31A H -0.0760 0.3278 -0.0453
H32A H -0.1225 0.3615 0.0050
H33A H -0.0839 0.2190 0.0010
N2 N 0.8485(13) 0.7426(7) 0.4905(4)
C24 C 0.8182(19) 0.7395(9) 0.4356(6)
H34 H 0.7600 0.6981 0.4277
H35 H 0.9068 0.7343 0.4189
C25 C 0.7420(17) 0.8057(7) 0.4165(6)
C26 C 0.7997(16) 0.8756(10) 0.4240(6)
H36 H 0.8820 0.8814 0.4439
C27 C 0.7373(16) 0.9327(8) 0.4028(6)
H37 H 0.7769 0.9771 0.4096
C28 C 0.6156(15) 0.9293(8) 0.3710(6)
C29 C 0.5562(18) 0.8592(8) 0.3634(6)
H38 H 0.4761 0.8532 0.3424
C30 C 0.6173(18) 0.8012(9) 0.3872(6)
H39 H 0.5732 0.7572 0.3835
C31 C 0.544(2) 0.9961(9) 0.3480(8)
C32 C 0.520(2) 1.0490(11) 0.3870(8)
H40 H 0.5517 1.0948 0.3765
H41 H 0.5708 1.0354 0.4173
H42 H 0.4199 1.0512 0.3929
C33 C 0.668(2) 1.0254(11) 0.3113(9)
H43 H 0.7082 0.9860 0.2942
H44 H 0.7408 1.0491 0.3311
H45 H 0.6261 1.0581 0.2874
C34 C 0.4128(18) 0.9792(9) 0.3149(7)
H46 H 0.3293 0.9847 0.3338
H47 H 0.4183 0.9311 0.3031
H48 H 0.4079 1.0111 0.2870
C35 C 0.9214(16) 0.6753(8) 0.5083(6)
H49 H 0.8716 0.6343 0.4942
H50 H 0.9199 0.6723 0.5443
C36 C 0.7248(18) 0.7559(8) 0.5216(7)
H51 H 0.6697 0.7949 0.5071
H52 H 0.6647 0.7140 0.5208
C37 C 0.7640(18) 0.7735(8) 0.5742(6)
C38 C 0.8275(15) 0.8387(8) 0.5859(5)
H53 H 0.8307 0.8727 0.5608
C39 C 0.8874(16) 0.8567(10) 0.6336(6)
H54 H 0.9285 0.9011 0.6391
C40 C 0.8843(19) 0.8054(9) 0.6738(6)
C41 C 0.8100(17) 0.7401(9) 0.6591(6)
H55 H 0.7998 0.7058 0.6837
C42 C 0.7553(19) 0.7252(10) 0.6135(6)
H56 H 0.7105 0.6817 0.6079
C43 C 0.950(2) 0.8232(12) 0.7249(6)
C44 C 0.971(3) 0.7560(15) 0.7573(9)
H57 H 0.9811 0.7694 0.7918
H58 H 1.0554 0.7316 0.7479
H59 H 0.8906 0.7252 0.7524
C45 C 0.851(3) 0.8731(12) 0.7504(7)
H60 H 0.8168 0.8515 0.7800
H61 H 0.7722 0.8845 0.7280
H62 H 0.9023 0.9157 0.7591
C46 C 1.082(3) 0.8641(12) 0.7220(7)
H63 H 1.0605 0.9135 0.7171
H64 H 1.1351 0.8470 0.6946
H65 H 1.1383 0.8584 0.7525
H66 H 0.9108 0.7789 0.4963
N2A N 1.1515(13) 0.7426(7) 0.5095(4)
C24A C 1.1818(19) 0.7395(9) 0.5644(6)
H34A H 1.2400 0.6981 0.5723
H35A H 1.0932 0.7343 0.5811
C25A C 1.2580(17) 0.8057(7) 0.5835(6)
C26A C 1.2003(16) 0.8756(10) 0.5760(6)
H36A H 1.1180 0.8814 0.5561
C27A C 1.2627(16) 0.9327(8) 0.5972(6)
H37A H 1.2231 0.9771 0.5904
C28A C 1.3844(15) 0.9293(8) 0.6290(6)
C29A C 1.4438(18) 0.8592(8) 0.6366(6)
H38A H 1.5239 0.8532 0.6576
C30A C 1.3827(18) 0.8012(9) 0.6128(6)
H39A H 1.4268 0.7572 0.6165
C31A C 1.456(2) 0.9961(9) 0.6520(8)
C32A C 1.480(2) 1.0490(11) 0.6130(8)
H40A H 1.4483 1.0948 0.6235
H41A H 1.4292 1.0354 0.5827
H42A H 1.5801 1.0512 0.6071
C33A C 1.332(2) 1.0254(11) 0.6887(9)
H43A H 1.2918 0.9860 0.7058
H44A H 1.2592 1.0491 0.6689
H45A H 1.3739 1.0581 0.7126
C34A C 1.5872(18) 0.9792(9) 0.6851(7)
H46A H 1.6707 0.9847 0.6662
H47A H 1.5817 0.9311 0.6969
H48A H 1.5921 1.0111 0.7130
C35A C 1.0786(16) 0.6753(8) 0.4917(6)
H49A H 1.1284 0.6343 0.5058
H50A H 1.0801 0.6723 0.4557
C36A C 1.2752(18) 0.7559(8) 0.4784(7)
H51A H 1.3303 0.7949 0.4929
H52A H 1.3353 0.7140 0.4792
C37A C 1.2360(18) 0.7735(8) 0.4258(6)
C38A C 1.1725(15) 0.8387(8) 0.4141(5)
H53A H 1.1693 0.8727 0.4392
C39A C 1.1126(16) 0.8567(10) 0.3664(6)
H54A H 1.0715 0.9011 0.3609
C40A C 1.1157(19) 0.8054(9) 0.3262(6)
C41A C 1.1900(17) 0.7401(9) 0.3409(6)
H55A H 1.2002 0.7058 0.3163
C42A C 1.2447(19) 0.7252(10) 0.3865(6)
H56A H 1.2895 0.6817 0.3921
C43A C 1.050(2) 0.8232(12) 0.2751(6)
C44A C 1.029(3) 0.7560(15) 0.2427(9)
H57A H 1.0189 0.7694 0.2082
H58A H 0.9446 0.7316 0.2521
H59A H 1.1094 0.7252 0.2476
C45A C 1.149(3) 0.8731(12) 0.2496(7)
H60A H 1.1832 0.8515 0.2200
H61A H 1.2278 0.8845 0.2720
H62A H 1.0977 0.9157 0.2409
C46A C 0.918(3) 0.8641(12) 0.2780(7)
H63A H 0.9395 0.9135 0.2829
H64A H 0.8649 0.8470 0.3054
H65A H 0.8617 0.8584 0.2475
H66A H 1.0892 0.7789 0.5037
I1 I 0.5000 0.42733(7) 0.0000
I2 I 0.53177(11) 0.42205(5) 0.10866(4)
I2A I 0.46823(11) 0.42205(5) -0.10866(4)
loop_
_geom_bond_atom_site_label_1
_geom_bond_atom_site_label_2
_geom_bond_site_symmetry_1
_geom_bond_site_symmetry_2
I1 I2 1_555 1_555
I3 I4 1_555 1_555
N1 C1 1_555 1_555
C1 H1 1_555 1_555
H2 C1 1_555 1_555
C2 C1 1_555 1_555
C3 C2 1_555 1_555
H3 C3 1_555 1_555
C4 C3 1_555 1_555
H4 C4 1_555 1_555
C5 C4 1_555 1_555
C6 C5 1_555 1_555
H5 C6 1_555 1_555
C7 C2 1_555 1_555
H6 C7 1_555 1_555
C8 C5 1_555 1_555
C9 C8 1_555 1_555
H7 C9 1_555 1_555
H8 C9 1_555 1_555
H9 C9 1_555 1_555
C10 C8 1_555 1_555
H10 C10 1_555 1_555
H11 C10 1_555 1_555
H12 C10 1_555 1_555
C11 C8 1_555 1_555
H13 C11 1_555 1_555
H14 C11 1_555 1_555
H15 C11 1_555 1_555
C12 N1 1_555 1_555
H16 C12 1_555 1_555
H17 C12 1_555 1_555
C13 C12 1_555 1_555
C14 C13 1_555 1_555
H18 C14 1_555 1_555
C15 C14 1_555 1_555
H19 C15 1_555 1_555
C16 C15 1_555 1_555
C17 C16 1_555 1_555
H20 C17 1_555 1_555
C18 C13 1_555 1_555
H21 C18 1_555 1_555
C19 C16 1_555 1_555
C20 C19 1_555 1_555
H22 C20 1_555 1_555
H23 C20 1_555 1_555
H24 C20 1_555 1_555
C21 C19 1_555 1_555
H25 C21 1_555 1_555
H26 C21 1_555 1_555
H27 C21 1_555 1_555
C22 C19 1_555 1_555
H28 C22 1_555 1_555
H29 C22 1_555 1_555
H30 C22 1_555 1_555
C23 N1 1_555 1_555
H31 C23 1_555 1_555
H32 C23 1_555 1_555
H33 N1 1_555 1_555
N2 C24 1_555 1_555
C24 H34 1_555 1_555
H35 C24 1_555 1_555
C25 C24 1_555 1_555
C26 C25 1_555 1_555
H36 C26 1_555 1_555
C27 C26 1_555 1_555
H37 C27 1_555 1_555
C28 C27 1_555 1_555
C29 C28 1_555 1_555
H38 C29 1_555 1_555
C30 C25 1_555 1_555
H39 C30 1_555 1_555
C31 C28 1_555 1_555
C32 C31 1_555 1_555
H40 C32 1_555 1_555
H41 C32 1_555 1_555
H42 C32 1_555 1_555
C33 C31 1_555 1_555
H43 C33 1_555 1_555
H44 C33 1_555 1_555
H45 C33 1_555 1_555
C34 C31 1_555 1_555
H46 C34 1_555 1_555
H47 C34 1_555 1_555
H48 C34 1_555 1_555
C35 N2 1_555 1_555
H49 C35 1_555 1_555
H50 C35 1_555 1_555
C36 N2 1_555 1_555
H51 C36 1_555 1_555
H52 C36 1_555 1_555
C37 C36 1_555 1_555
C38 C37 1_555 1_555
H53 C38 1_555 1_555
C39 C38 1_555 1_555
H54 C39 1_555 1_555
C40 C39 1_555 1_555
C41 C40 1_555 1_555
H55 C41 1_555 1_555
C42 C37 1_555 1_555
H56 C42 1_555 1_555
C43 C40 1_555 1_555
C44 C43 1_555 1_555
H57 C44 1_555 1_555
H58 C44 1_555 1_555
H59 C44 1_555 1_555
C45 C43 1_555 1_555
H60 C45 1_555 1_555
H61 C45 1_555 1_555
H62 C45 1_555 1_555
C46 C43 1_555 1_555
H63 C46 1_555 1_555
H64 C46 1_555 1_555
H65 C46 1_555 1_555
H66 N2 1_555 1_555
I2A I1 1_555 1_555
I4A I3 1_555 1_555
N1A C1A 1_555 1_555
C1A H1A 1_555 1_555
H2A C1A 1_555 1_555
C2A C1A 1_555 1_555
C3A C2A 1_555 1_555
H3A C3A 1_555 1_555
C4A C3A 1_555 1_555
H4A C4A 1_555 1_555
C5A C4A 1_555 1_555
C6A C5A 1_555 1_555
H5A C6A 1_555 1_555
C7A C2A 1_555 1_555
H6A C7A 1_555 1_555
C8A C5A 1_555 1_555
C9A C8A 1_555 1_555
H7A C9A 1_555 1_555
H8A C9A 1_555 1_555
H9A C9A 1_555 1_555
C10A C8A 1_555 1_555
H10A C10A 1_555 1_555
H11A C10A 1_555 1_555
H12A C10A 1_555 1_555
C11A C8A 1_555 1_555
H13A C11A 1_555 1_555
H14A C11A 1_555 1_555
H15A C11A 1_555 1_555
C12A N1A 1_555 1_555
H16A C12A 1_555 1_555
H17A C12A 1_555 1_555
C13A C12A 1_555 1_555
C14A C13A 1_555 1_555
H18A C14A 1_555 1_555
C15A C14A 1_555 1_555
H19A C15A 1_555 1_555
C16A C15A 1_555 1_555
C17A C16A 1_555 1_555
H20A C17A 1_555 1_555
C18A C13A 1_555 1_555
H21A C18A 1_555 1_555
C19A C16A 1_555 1_555
C20A C19A 1_555 1_555
H22A C20A 1_555 1_555
H23A C20A 1_555 1_555
H24A C20A 1_555 1_555
C21A C19A 1_555 1_555
H25A C21A 1_555 1_555
H26A C21A 1_555 1_555
H27A C21A 1_555 1_555
C22A C19A 1_555 1_555
H28A C22A 1_555 1_555
H29A C22A 1_555 1_555
H30A C22A 1_555 1_555
C23A C23 1_555 1_555
H31A C23A 1_555 1_555
H32A C23A 1_555 1_555
H33A N1A 1_555 1_555
N2A C24A 1_555 1_555
C24A H34A 1_555 1_555
H35A C24A 1_555 1_555
C25A C24A 1_555 1_555
C26A C25A 1_555 1_555
H36A C26A 1_555 1_555
C27A C26A 1_555 1_555
H37A C27A 1_555 1_555
C28A C27A 1_555 1_555
C29A C28A 1_555 1_555
H38A C29A 1_555 1_555
C30A C25A 1_555 1_555
H39A C30A 1_555 1_555
C31A C28A 1_555 1_555
C32A C31A 1_555 1_555
H40A C32A 1_555 1_555
H41A C32A 1_555 1_555
H42A C32A 1_555 1_555
C33A C31A 1_555 1_555
H43A C33A 1_555 1_555
H44A C33A 1_555 1_555
H45A C33A 1_555 1_555
C34A C31A 1_555 1_555
H46A C34A 1_555 1_555
H47A C34A 1_555 1_555
H48A C34A 1_555 1_555
C35A C35 1_555 1_555
H49A C35A 1_555 1_555
H50A C35A 1_555 1_555
C36A N2A 1_555 1_555
H51A C36A 1_555 1_555
H52A C36A 1_555 1_555
C37A C36A 1_555 1_555
C38A C37A 1_555 1_555
H53A C38A 1_555 1_555
C39A C38A 1_555 1_555
H54A C39A 1_555 1_555
C40A C39A 1_555 1_555
C41A C40A 1_555 1_555
H55A C41A 1_555 1_555
C42A C37A 1_555 1_555
H56A C42A 1_555 1_555
C43A C40A 1_555 1_555
C44A C43A 1_555 1_555
H57A C44A 1_555 1_555
H58A C44A 1_555 1_555
H59A C44A 1_555 1_555
C45A C43A 1_555 1_555
H60A C45A 1_555 1_555
H61A C45A 1_555 1_555
H62A C45A 1_555 1_555
C46A C43A 1_555 1_555
H63A C46A 1_555 1_555
H64A C46A 1_555 1_555
H65A C46A 1_555 1_555
H66A N2A 1_555 1_555
C6 C7 1_555 1_555
C17 C18 1_555 1_555
C29 C30 1_555 1_555
C41 C42 1_555 1_555
N1A C23A 1_555 1_555
C6A C7A 1_555 1_555
C17A C18A 1_555 1_555
N2A C35A 1_555 1_555
C29A C30A 1_555 1_555
C41A C42A 1_555 1_555

#END
