
#######################################################################
#
#                 Cambridge Crystallographic Data Centre
#                                CCDC 
#
#######################################################################
#
# If this CIF has been generated from an entry in the Cambridge 
# Structural Database, then it will include bibliographic, chemical, 
# crystal, experimental, refinement or atomic coordinate data resulting 
# from the CCDC's data processing and validation procedures.
#
#######################################################################

data_KEVHAW
_chemical_formula_moiety         'C31 H26 N1 P1'
_chemical_name_systematic        'P,P-Diphenyl-N-tritylphosphinous amide'
_symmetry_cell_setting           monoclinic
_symmetry_space_group_name_H-M   'P 21/c'
_symmetry_Int_Tables_number      14
_space_group_name_Hall           '-P 2ybc'
loop_
_symmetry_equiv_pos_site_id
_symmetry_equiv_pos_as_xyz
1 x,y,z
2 -x,1/2+y,1/2-z
3 -x,-y,-z
4 x,1/2-y,1/2+z
_cell_length_a                   8.9955(8)
_cell_length_b                   18.6976(16)
_cell_length_c                   15.5059(19)
_cell_angle_alpha                90
_cell_angle_beta                 108.089(9)
_cell_angle_gamma                90
_cell_volume                     2479.1
_exptl_crystal_colour            colorless
_exptl_crystal_description       plate
_cell_formula_units_Z            4
loop_
_atom_site_label
_atom_site_type_symbol
_atom_site_fract_x
_atom_site_fract_y
_atom_site_fract_z
P1 P 0.31602(17) 0.13326(8) 0.26424(10)
N1 N 0.2867(5) 0.1156(2) 0.1532(3)
H1 H 0.3215 0.0756 0.1399
C1 C 0.5290(6) 0.1256(3) 0.3108(4)
C2 C 0.2054(6) 0.1638(3) 0.0768(4)
C3 C 0.2480(6) 0.1378(3) -0.0076(3)
C4 C 0.2686(6) 0.2407(3) 0.0998(3)
C5 C 0.0270(6) 0.1589(3) 0.0590(4)
C6 C -0.0746(6) 0.1347(3) -0.0227(4)
H2 H -0.0351 0.1213 -0.0691
C7 C 0.2567(6) 0.1860(3) -0.0747(4)
H3 H 0.2378 0.2343 -0.0685
C8 C 0.2593(6) 0.0474(3) 0.3036(4)
C9 C 0.2929(7) 0.1627(4) -0.1502(4)
H4 H 0.2998 0.1958 -0.1936
C10 C 0.6158(7) 0.0710(3) 0.2894(4)
H5 H 0.5631 0.0336 0.2532
C11 C 0.2702(7) 0.0662(3) -0.0226(4)
H6 H 0.2607 0.0326 0.0196
C12 C 0.1740(7) 0.3007(3) 0.0781(4)
H7 H 0.0661 0.2955 0.0549
C13 C 0.6127(8) 0.1789(4) 0.3651(5)
H8 H 0.5599 0.2161 0.3828
C14 C 0.3190(7) 0.0914(3) -0.1623(4)
H9 H 0.3450 0.0763 -0.2130
C15 C 0.4277(7) 0.2504(4) 0.1347(4)
H10 H 0.4929 0.2107 0.1500
C16 C 0.3061(8) 0.0430(3) -0.0988(4)
H11 H 0.3214 -0.0055 -0.1067
C17 C 0.2390(8) 0.3683(3) 0.0906(4)
H12 H 0.1749 0.4084 0.0761
C18 C 0.3081(7) 0.0334(4) 0.3951(4)
H13 H 0.3746 0.0655 0.4345
C19 C -0.2339(7) 0.1304(3) -0.0363(5)
H14 H -0.3003 0.1135 -0.0911
C20 C 0.3982(9) 0.3762(4) 0.1245(4)
H15 H 0.4417 0.4218 0.1318
C21 C -0.0363(7) 0.1784(4) 0.1267(4)
H16 H 0.0294 0.1943 0.1823
C22 C 0.7770(7) 0.0700(4) 0.3196(4)
H17 H 0.8309 0.0322 0.3041
C23 C 0.1589(7) -0.0002(4) 0.2475(4)
H18 H 0.1222 0.0089 0.1855
C24 C -0.1962(7) 0.1746(4) 0.1124(5)
H19 H -0.2366 0.1881 0.1583
C25 C -0.2943(8) 0.1511(4) 0.0317(6)
H20 H -0.4015 0.1490 0.0223
C26 C 0.2602(8) -0.0278(4) 0.4299(4)
H21 H 0.2945 -0.0367 0.4920
C27 C 0.4927(8) 0.3183(4) 0.1474(5)
H22 H 0.6004 0.3241 0.1714
C28 C 0.1107(7) -0.0619(4) 0.2813(5)
H23 H 0.0437 -0.0939 0.2420
C29 C 0.8567(8) 0.1242(4) 0.3719(5)
H24 H 0.9655 0.1243 0.3921
C30 C 0.7758(9) 0.1783(4) 0.3945(6)
H25 H 0.8299 0.2158 0.4301
C31 C 0.1617(8) -0.0751(4) 0.3716(5)
H26 H 0.1299 -0.1164 0.3943
loop_
_geom_bond_atom_site_label_1
_geom_bond_atom_site_label_2
_geom_bond_site_symmetry_1
_geom_bond_site_symmetry_2
P1 N1 1_555 1_555
N1 H1 1_555 1_555
C1 P1 1_555 1_555
C2 N1 1_555 1_555
C3 C2 1_555 1_555
C4 C2 1_555 1_555
C5 C2 1_555 1_555
C6 C5 1_555 1_555
H2 C6 1_555 1_555
C7 C3 1_555 1_555
H3 C7 1_555 1_555
C8 P1 1_555 1_555
C9 C7 1_555 1_555
H4 C9 1_555 1_555
C10 C1 1_555 1_555
H5 C10 1_555 1_555
C11 C3 1_555 1_555
H6 C11 1_555 1_555
C12 C4 1_555 1_555
H7 C12 1_555 1_555
C13 C1 1_555 1_555
H8 C13 1_555 1_555
C14 C9 1_555 1_555
H9 C14 1_555 1_555
C15 C4 1_555 1_555
H10 C15 1_555 1_555
C16 C11 1_555 1_555
H11 C16 1_555 1_555
C17 C12 1_555 1_555
H12 C17 1_555 1_555
C18 C8 1_555 1_555
H13 C18 1_555 1_555
C19 C6 1_555 1_555
H14 C19 1_555 1_555
C20 C17 1_555 1_555
H15 C20 1_555 1_555
C21 C5 1_555 1_555
H16 C21 1_555 1_555
C22 C10 1_555 1_555
H17 C22 1_555 1_555
C23 C8 1_555 1_555
H18 C23 1_555 1_555
C24 C21 1_555 1_555
H19 C24 1_555 1_555
C25 C19 1_555 1_555
H20 C25 1_555 1_555
C26 C18 1_555 1_555
H21 C26 1_555 1_555
C27 C15 1_555 1_555
H22 C27 1_555 1_555
C28 C23 1_555 1_555
H23 C28 1_555 1_555
C29 C22 1_555 1_555
H24 C29 1_555 1_555
C30 C13 1_555 1_555
H25 C30 1_555 1_555
C31 C26 1_555 1_555
H26 C31 1_555 1_555
C14 C16 1_555 1_555
C20 C27 1_555 1_555
C24 C25 1_555 1_555
C28 C31 1_555 1_555
C29 C30 1_555 1_555

#END
