
#######################################################################
#
#                 Cambridge Crystallographic Data Centre
#                                CCDC 
#
#######################################################################
#
# If this CIF has been generated from an entry in the Cambridge 
# Structural Database, then it will include bibliographic, chemical, 
# crystal, experimental, refinement or atomic coordinate data resulting 
# from the CCDC's data processing and validation procedures.
#
#######################################################################

data_KEVHUQ
_chemical_formula_moiety         'C32 H34 N2 2+,0.5(H2 O1),2(Br1 1-)'
_chemical_name_systematic        
"N,N,N',N'-Tetrabenzylbut-2-yne-1,4-diaminium dibromide hemihydrate"
_symmetry_cell_setting           monoclinic
_symmetry_space_group_name_H-M   'P 2/c'
_symmetry_Int_Tables_number      13
_space_group_name_Hall           '-P 2yc'
loop_
_symmetry_equiv_pos_site_id
_symmetry_equiv_pos_as_xyz
1 x,y,z
2 -x,y,1/2-z
3 -x,-y,-z
4 x,-y,1/2+z
_cell_length_a                   9.0083(16)
_cell_length_b                   11.566(2)
_cell_length_c                   15.164(3)
_cell_angle_alpha                90
_cell_angle_beta                 90.265(3)
_cell_angle_gamma                90
_cell_volume                     1579.92
_cell_formula_units_Z            2
loop_
_atom_site_label
_atom_site_type_symbol
_atom_site_fract_x
_atom_site_fract_y
_atom_site_fract_z
Br1 Br 0.81098(5) 0.44692(5) 0.09051(3)
N1 N 0.7408(4) 0.4713(3) 0.8803(2)
H1 H 0.7711 0.4665 0.9375
C1 C 0.8407(5) 0.3932(4) 0.8264(3)
H2 H 0.8254 0.4109 0.7645
H3 H 0.9431 0.4117 0.8406
C2 C 0.8189(5) 0.2661(4) 0.8391(3)
C3 C 0.8585(6) 0.2087(5) 0.9160(4)
H4 H 0.8961 0.2506 0.9634
C4 C 0.8428(8) 0.0892(6) 0.9232(5)
H5 H 0.8692 0.0521 0.9754
C5 C 0.7895(9) 0.0272(6) 0.8547(6)
H6 H 0.7835 -0.0529 0.8587
C6 C 0.7446(10) 0.0814(7) 0.7801(6)
H7 H 0.7030 0.0390 0.7341
C7 C 0.7608(9) 0.2013(6) 0.7722(5)
H8 H 0.7315 0.2375 0.7202
C8 C 0.7651(5) 0.5943(4) 0.8505(3)
H9 H 0.8710 0.6094 0.8494
H10 H 0.7279 0.6022 0.7907
C9 C 0.6925(5) 0.6831(4) 0.9068(3)
C10 C 0.5504(6) 0.7238(5) 0.8894(4)
H11 H 0.4976 0.6957 0.8411
C11 C 0.4859(8) 0.8076(6) 0.9445(5)
H12 H 0.3910 0.8355 0.9329
C12 C 0.5641(9) 0.8469(6) 1.0147(5)
H13 H 0.5200 0.9004 1.0521
C13 C 0.7072(11) 0.8104(6) 1.0330(4)
H14 H 0.7601 0.8411 1.0803
C14 C 0.7694(7) 0.7273(5) 0.9793(4)
H15 H 0.8645 0.7004 0.9917
C15 C 0.5802(4) 0.4356(4) 0.8768(3)
H16 H 0.5701 0.3588 0.9018
H17 H 0.5219 0.4884 0.9123
C16 C 0.5227(4) 0.4353(4) 0.7867(3)
N1A N 0.2592(4) 0.4713(3) 0.6197(2)
H1A H 0.2289 0.4665 0.5625
C1A C 0.1593(5) 0.3932(4) 0.6736(3)
H2A H 0.1746 0.4109 0.7355
H3A H 0.0569 0.4117 0.6594
C2A C 0.1811(5) 0.2661(4) 0.6609(3)
C3A C 0.1415(6) 0.2087(5) 0.5840(4)
H4A H 0.1039 0.2506 0.5366
C4A C 0.1572(8) 0.0892(6) 0.5768(5)
H5A H 0.1308 0.0521 0.5246
C5A C 0.2105(9) 0.0272(6) 0.6453(6)
H6A H 0.2165 -0.0529 0.6413
C6A C 0.2554(10) 0.0814(7) 0.7199(6)
H7A H 0.2970 0.0390 0.7659
C7A C 0.2392(9) 0.2013(6) 0.7278(5)
H8A H 0.2685 0.2375 0.7798
C8A C 0.2349(5) 0.5943(4) 0.6495(3)
H9A H 0.1290 0.6094 0.6506
H10A H 0.2721 0.6022 0.7093
C9A C 0.3075(5) 0.6831(4) 0.5932(3)
C10A C 0.4496(6) 0.7238(5) 0.6106(4)
H11A H 0.5024 0.6957 0.6589
C11A C 0.5141(8) 0.8076(6) 0.5555(5)
H12A H 0.6090 0.8355 0.5671
C12A C 0.4359(9) 0.8469(6) 0.4853(5)
H13A H 0.4800 0.9004 0.4479
C13A C 0.2928(11) 0.8104(6) 0.4670(4)
H14A H 0.2399 0.8411 0.4197
C14A C 0.2306(7) 0.7273(5) 0.5207(4)
H15A H 0.1355 0.7004 0.5083
C15A C 0.4198(4) 0.4356(4) 0.6232(3)
H16A H 0.4299 0.3588 0.5982
H17A H 0.4781 0.4884 0.5877
C16A C 0.4773(4) 0.4353(4) 0.7133(3)
O1 O 0.118(3) 0.8118(13) 0.8170(15)
loop_
_geom_bond_atom_site_label_1
_geom_bond_atom_site_label_2
_geom_bond_site_symmetry_1
_geom_bond_site_symmetry_2
N1 H1 1_555 1_555
C1 N1 1_555 1_555
H2 C1 1_555 1_555
H3 C1 1_555 1_555
C2 C1 1_555 1_555
C3 C2 1_555 1_555
H4 C3 1_555 1_555
C4 C3 1_555 1_555
H5 C4 1_555 1_555
C5 C4 1_555 1_555
H6 C5 1_555 1_555
C6 C5 1_555 1_555
H7 C6 1_555 1_555
C7 C2 1_555 1_555
H8 C7 1_555 1_555
C8 N1 1_555 1_555
H9 C8 1_555 1_555
H10 C8 1_555 1_555
C9 C8 1_555 1_555
C10 C9 1_555 1_555
H11 C10 1_555 1_555
C11 C10 1_555 1_555
H12 C11 1_555 1_555
C12 C11 1_555 1_555
H13 C12 1_555 1_555
C13 C12 1_555 1_555
H14 C13 1_555 1_555
C14 C9 1_555 1_555
H15 C14 1_555 1_555
C15 N1 1_555 1_555
H16 C15 1_555 1_555
H17 C15 1_555 1_555
C16 C15 1_555 1_555
N1A H1A 1_555 1_555
C1A N1A 1_555 1_555
H2A C1A 1_555 1_555
H3A C1A 1_555 1_555
C2A C1A 1_555 1_555
C3A C2A 1_555 1_555
H4A C3A 1_555 1_555
C4A C3A 1_555 1_555
H5A C4A 1_555 1_555
C5A C4A 1_555 1_555
H6A C5A 1_555 1_555
C6A C5A 1_555 1_555
H7A C6A 1_555 1_555
C7A C2A 1_555 1_555
H8A C7A 1_555 1_555
C8A N1A 1_555 1_555
H9A C8A 1_555 1_555
H10A C8A 1_555 1_555
C9A C8A 1_555 1_555
C10A C9A 1_555 1_555
H11A C10A 1_555 1_555
C11A C10A 1_555 1_555
H12A C11A 1_555 1_555
C12A C11A 1_555 1_555
H13A C12A 1_555 1_555
C13A C12A 1_555 1_555
H14A C13A 1_555 1_555
C14A C9A 1_555 1_555
H15A C14A 1_555 1_555
C15A N1A 1_555 1_555
H16A C15A 1_555 1_555
H17A C15A 1_555 1_555
C16A C16 1_555 1_555
C6 C7 1_555 1_555
C13 C14 1_555 1_555
C6A C7A 1_555 1_555
C13A C14A 1_555 1_555
C15A C16A 1_555 1_555

#END
