
#######################################################################
#
#                 Cambridge Crystallographic Data Centre
#                                CCDC 
#
#######################################################################
#
# If this CIF has been generated from an entry in the Cambridge 
# Structural Database, then it will include bibliographic, chemical, 
# crystal, experimental, refinement or atomic coordinate data resulting 
# from the CCDC's data processing and validation procedures.
#
#######################################################################

data_KEVJEC
_chemical_formula_moiety         'C46 H66 N2 2+,2(H2 O1),2(Br1 1-)'
_chemical_name_systematic        
"N,N,N',N'-tetrakis(4-t-butylbenzyl)ethane-1,2-diaminium dibromide dihydrate"
_symmetry_cell_setting           monoclinic
_symmetry_space_group_name_H-M   'P 21/c'
_symmetry_Int_Tables_number      14
_space_group_name_Hall           '-P 2ybc'
loop_
_symmetry_equiv_pos_site_id
_symmetry_equiv_pos_as_xyz
1 x,y,z
2 -x,1/2+y,1/2-z
3 -x,-y,-z
4 x,1/2-y,1/2+z
_cell_length_a                   11.2294(15)
_cell_length_b                   12.4585(15)
_cell_length_c                   33.103(4)
_cell_angle_alpha                90
_cell_angle_beta                 94.128(2)
_cell_angle_gamma                90
_cell_volume                     4619.14
_cell_formula_units_Z            4
loop_
_atom_site_label
_atom_site_type_symbol
_atom_site_fract_x
_atom_site_fract_y
_atom_site_fract_z
Br1 Br 0.46428(6) 0.83104(5) 0.184293(18)
Br2 Br 0.02528(6) -0.00472(5) 0.312674(19)
N1 N 0.1048(3) 0.3431(3) 0.25498(12)
H1 H 0.0711 0.3782 0.2329
N2 N 0.4034(3) 0.4840(3) 0.24941(12)
H2 H 0.4355 0.4495 0.2719
C1 C 0.0680(5) 0.2272(4) 0.25064(17)
H3 H -0.0168 0.2217 0.2541
H4 H 0.1097 0.1860 0.2721
C2 C 0.0932(4) 0.1784(4) 0.21051(16)
C3 C 0.1782(5) 0.0991(5) 0.20824(17)
H5 H 0.2245 0.0792 0.2315
C4 C 0.1955(5) 0.0485(5) 0.17183(17)
H6 H 0.2535 -0.0046 0.1711
C5 C 0.1282(5) 0.0752(5) 0.13645(17)
C6 C 0.0444(5) 0.1548(5) 0.13898(18)
H7 H -0.0017 0.1755 0.1158
C7 C 0.0273(5) 0.2046(5) 0.17539(18)
H8 H -0.0308 0.2576 0.1761
C8 C 0.1494(5) 0.0202(5) 0.09620(17)
C9 C 0.1416(13) -0.1003(7) 0.1010(3)
H9 H 0.1945 -0.1227 0.1234
H10 H 0.1640 -0.1345 0.0767
H11 H 0.0612 -0.1199 0.1058
C10 C 0.2742(8) 0.0481(10) 0.0844(3)
H12 H 0.3323 0.0185 0.1040
H13 H 0.2830 0.1247 0.0836
H14 H 0.2859 0.0186 0.0582
C11 C 0.0581(10) 0.0565(11) 0.0618(3)
H15 H 0.0506 0.1332 0.0623
H16 H -0.0180 0.0243 0.0655
H17 H 0.0850 0.0344 0.0362
C12 C 0.0550(4) 0.3947(4) 0.29214(15)
H18 H 0.0507 0.4717 0.2880
H19 H -0.0257 0.3688 0.2943
C13 C 0.1259(5) 0.3732(4) 0.33110(15)
C14 C 0.1976(5) 0.4523(5) 0.34939(16)
H20 H 0.1994 0.5200 0.3377
C15 C 0.2667(6) 0.4320(5) 0.38491(17)
H21 H 0.3132 0.4871 0.3967
C16 C 0.2688(5) 0.3329(5) 0.40341(17)
C17 C 0.1947(5) 0.2553(5) 0.38545(17)
H22 H 0.1916 0.1880 0.3975
C18 C 0.1253(5) 0.2749(5) 0.35022(17)
H23 H 0.0768 0.2204 0.3390
C19 C 0.3479(6) 0.3093(6) 0.44165(18)
C20 C 0.2711(12) 0.2612(14) 0.4741(3)
H24 H 0.2249 0.3171 0.4854
H25 H 0.3222 0.2288 0.4951
H26 H 0.2184 0.2078 0.4618
C21 C 0.4460(13) 0.2316(14) 0.4311(4)
H27 H 0.4907 0.2624 0.4104
H28 H 0.4107 0.1653 0.4216
H29 H 0.4983 0.2182 0.4548
C22 C 0.4047(15) 0.4106(10) 0.4608(4)
H30 H 0.4557 0.4432 0.4422
H31 H 0.4510 0.3919 0.4853
H32 H 0.3432 0.4603 0.4669
C23 C 0.2364(4) 0.3552(4) 0.25391(15)
H33 H 0.2635 0.3145 0.2313
H34 H 0.2755 0.3265 0.2787
C24 C 0.2704(4) 0.4719(4) 0.24954(15)
H35 H 0.2328 0.5002 0.2245
H36 H 0.2418 0.5129 0.2718
C25 C 0.4558(4) 0.4314(4) 0.21322(15)
H37 H 0.5366 0.4577 0.2114
H38 H 0.4605 0.3546 0.2179
C26 C 0.3865(5) 0.4511(4) 0.17370(15)
C27 C 0.3162(5) 0.3706(5) 0.15529(16)
H39 H 0.3154 0.3029 0.1671
C28 C 0.2479(5) 0.3894(5) 0.11993(16)
H40 H 0.2023 0.3337 0.1082
C29 C 0.2449(5) 0.4879(5) 0.10130(16)
C30 C 0.3184(5) 0.5672(5) 0.11920(16)
H41 H 0.3204 0.6343 0.1069
C31 C 0.3883(5) 0.5494(5) 0.15448(16)
H42 H 0.4370 0.6040 0.1654
C32 C 0.1635(6) 0.5119(5) 0.06321(17)
C33 C 0.0709(9) 0.5950(9) 0.0735(3)
H43 H 0.1106 0.6589 0.0836
H44 H 0.0229 0.5666 0.0939
H45 H 0.0207 0.6119 0.0497
C34 C 0.2390(9) 0.5487(11) 0.0298(3)
H46 H 0.2816 0.6127 0.0382
H47 H 0.1884 0.5635 0.0058
H48 H 0.2949 0.4934 0.0242
C35 C 0.0938(10) 0.4114(8) 0.0483(3)
H49 H 0.0265 0.4013 0.0642
H50 H 0.1451 0.3498 0.0510
H51 H 0.0665 0.4205 0.0203
C36 C 0.4383(5) 0.6003(4) 0.25406(16)
H52 H 0.5236 0.6064 0.2515
H53 H 0.3982 0.6406 0.2320
C37 C 0.4096(4) 0.6509(4) 0.29337(15)
C38 C 0.3232(5) 0.7296(4) 0.29461(16)
H54 H 0.2786 0.7486 0.2709
C39 C 0.3022(5) 0.7804(5) 0.33027(16)
H55 H 0.2450 0.8344 0.3301
C40 C 0.3640(5) 0.7531(4) 0.36649(16)
C41 C 0.4481(5) 0.6726(5) 0.36498(17)
H56 H 0.4896 0.6509 0.3889
C42 C 0.4726(5) 0.6233(4) 0.32924(17)
H57 H 0.5320 0.5713 0.3293
C43 C 0.3409(5) 0.8088(5) 0.40636(17)
C44 C 0.2447(13) 0.8971(11) 0.4017(4)
H58 H 0.1673 0.8657 0.4036
H59 H 0.2481 0.9312 0.3758
H60 H 0.2589 0.9495 0.4227
C45 C 0.4576(9) 0.8544(12) 0.4259(4)
H61 H 0.5166 0.7986 0.4285
H62 H 0.4443 0.8822 0.4523
H63 H 0.4852 0.9111 0.4093
C46 C 0.2934(15) 0.7256(11) 0.4355(4)
H64 H 0.3500 0.6681 0.4395
H65 H 0.2187 0.6976 0.4242
H66 H 0.2820 0.7591 0.4611
O1 O 0.8203(4) 0.2230(5) 0.30391(15)
H103 H 0.7568 0.2384 0.3152
H104 H 0.8607 0.1699 0.3137
O2 O 0.6851(5) 0.5966(6) 0.19306(17)
H105 H 0.7027 0.6175 0.2237
H106 H 0.6475 0.6504 0.1734
C47? C 0.234(4) -0.077(3) 0.1026(12)
H67? H 0.2810 -0.0690 0.1277
H68? H 0.2849 -0.0810 0.0807
H69? H 0.1871 -0.1416 0.1033
C48? C 0.212(4) 0.099(3) 0.0692(10)
H70? H 0.2961 0.1013 0.0776
H71? H 0.1786 0.1693 0.0715
H72? H 0.2022 0.0756 0.0415
C49? C 0.034(2) -0.028(3) 0.0764(11)
H73? H 0.0116 -0.0892 0.0916
H74? H 0.0468 -0.0492 0.0492
H75? H -0.0283 0.0249 0.0760
C50? C 0.371(3) 0.1882(11) 0.4477(9)
H76? H 0.4277 0.1644 0.4292
H77? H 0.2976 0.1496 0.4426
H78? H 0.4024 0.1753 0.4750
C51? C 0.4737(15) 0.357(2) 0.4388(8)
H79? H 0.4874 0.3697 0.4109
H80? H 0.5323 0.3076 0.4503
H81? H 0.4796 0.4236 0.4534
C52? C 0.289(2) 0.357(3) 0.4778(6)
H82? H 0.3100 0.4312 0.4805
H83? H 0.3166 0.3190 0.5020
H84? H 0.2041 0.3498 0.4735
C53? C 0.172(5) 0.6314(16) 0.0512(15)
H85? H 0.2404 0.6634 0.0656
H86? H 0.1012 0.6684 0.0578
H87? H 0.1806 0.6367 0.0226
C54? C 0.209(4) 0.448(4) 0.0279(10)
H88? H 0.2795 0.4814 0.0190
H89? H 0.1486 0.4453 0.0060
H90? H 0.2282 0.3758 0.0368
C55? C 0.0330(18) 0.483(5) 0.0691(15)
H91? H 0.0005 0.5331 0.0872
H92? H 0.0296 0.4117 0.0803
H93? H -0.0125 0.4848 0.0434
C56? C 0.347(2) 0.9313(9) 0.3993(6)
H94? H 0.4291 0.9525 0.3979
H95? H 0.3137 0.9681 0.4213
H96? H 0.3030 0.9492 0.3743
C57? C 0.4333(19) 0.774(2) 0.4404(5)
H97? H 0.4765 0.7124 0.4316
H98? H 0.3930 0.7551 0.4640
H99? H 0.4880 0.8314 0.4467
C58? C 0.2154(13) 0.778(2) 0.4169(7)
H100? H 0.2146 0.7046 0.4253
H101? H 0.1606 0.7879 0.3936
H102? H 0.1919 0.8232 0.4385
loop_
_geom_bond_atom_site_label_1
_geom_bond_atom_site_label_2
_geom_bond_site_symmetry_1
_geom_bond_site_symmetry_2
N1 H1 1_555 1_555
N2 H2 1_555 1_555
C1 N1 1_555 1_555
H3 C1 1_555 1_555
H4 C1 1_555 1_555
C2 C1 1_555 1_555
C3 C2 1_555 1_555
H5 C3 1_555 1_555
C4 C3 1_555 1_555
H6 C4 1_555 1_555
C5 C4 1_555 1_555
C6 C5 1_555 1_555
H7 C6 1_555 1_555
C7 C2 1_555 1_555
H8 C7 1_555 1_555
C8 C5 1_555 1_555
C9 C8 1_555 1_555
H9 C9 1_555 1_555
H10 C9 1_555 1_555
H11 C9 1_555 1_555
C10 C8 1_555 1_555
H12 C10 1_555 1_555
H13 C10 1_555 1_555
H14 C10 1_555 1_555
C11 C8 1_555 1_555
H15 C11 1_555 1_555
H16 C11 1_555 1_555
H17 C11 1_555 1_555
C12 N1 1_555 1_555
H18 C12 1_555 1_555
H19 C12 1_555 1_555
C13 C12 1_555 1_555
C14 C13 1_555 1_555
H20 C14 1_555 1_555
C15 C14 1_555 1_555
H21 C15 1_555 1_555
C16 C15 1_555 1_555
C17 C16 1_555 1_555
H22 C17 1_555 1_555
C18 C13 1_555 1_555
H23 C18 1_555 1_555
C19 C16 1_555 1_555
C20 C19 1_555 1_555
H24 C20 1_555 1_555
H25 C20 1_555 1_555
H26 C20 1_555 1_555
C21 C19 1_555 1_555
H27 C21 1_555 1_555
H28 C21 1_555 1_555
H29 C21 1_555 1_555
C22 C19 1_555 1_555
H30 C22 1_555 1_555
H31 C22 1_555 1_555
H32 C22 1_555 1_555
C23 N1 1_555 1_555
H33 C23 1_555 1_555
H34 C23 1_555 1_555
C24 N2 1_555 1_555
H35 C24 1_555 1_555
H36 C24 1_555 1_555
C25 N2 1_555 1_555
H37 C25 1_555 1_555
H38 C25 1_555 1_555
C26 C25 1_555 1_555
C27 C26 1_555 1_555
H39 C27 1_555 1_555
C28 C27 1_555 1_555
H40 C28 1_555 1_555
C29 C28 1_555 1_555
C30 C29 1_555 1_555
H41 C30 1_555 1_555
C31 C26 1_555 1_555
H42 C31 1_555 1_555
C32 C29 1_555 1_555
C33 C32 1_555 1_555
H43 C33 1_555 1_555
H44 C33 1_555 1_555
H45 C33 1_555 1_555
C34 C32 1_555 1_555
H46 C34 1_555 1_555
H47 C34 1_555 1_555
H48 C34 1_555 1_555
C35 C32 1_555 1_555
H49 C35 1_555 1_555
H50 C35 1_555 1_555
H51 C35 1_555 1_555
C36 N2 1_555 1_555
H52 C36 1_555 1_555
H53 C36 1_555 1_555
C37 C36 1_555 1_555
C38 C37 1_555 1_555
H54 C38 1_555 1_555
C39 C38 1_555 1_555
H55 C39 1_555 1_555
C40 C39 1_555 1_555
C41 C40 1_555 1_555
H56 C41 1_555 1_555
C42 C37 1_555 1_555
H57 C42 1_555 1_555
C43 C40 1_555 1_555
C44 C43 1_555 1_555
H58 C44 1_555 1_555
H59 C44 1_555 1_555
H60 C44 1_555 1_555
C45 C43 1_555 1_555
H61 C45 1_555 1_555
H62 C45 1_555 1_555
H63 C45 1_555 1_555
C46 C43 1_555 1_555
H64 C46 1_555 1_555
H65 C46 1_555 1_555
H66 C46 1_555 1_555
O1 H103 1_555 1_555
H104 O1 1_555 1_555
O2 H105 1_555 1_555
H106 O2 1_555 1_555
C6 C7 1_555 1_555
C17 C18 1_555 1_555
C23 C24 1_555 1_555
C30 C31 1_555 1_555
C41 C42 1_555 1_555

#END
