
#######################################################################
#
#                 Cambridge Crystallographic Data Centre
#                                CCDC 
#
#######################################################################
#
# If this CIF has been generated from an entry in the Cambridge 
# Structural Database, then it will include bibliographic, chemical, 
# crystal, experimental, refinement or atomic coordinate data resulting 
# from the CCDC's data processing and validation procedures.
#
#######################################################################

data_KEVLOO
_chemical_formula_moiety         'C5 H8 N4 O1'
_chemical_name_systematic        3-(1H-1,2,4-Triazol-1-yl)propanamide
_symmetry_cell_setting           triclinic
_symmetry_space_group_name_H-M   'P -1'
_symmetry_Int_Tables_number      2
_space_group_name_Hall           '-P 1'
loop_
_symmetry_equiv_pos_site_id
_symmetry_equiv_pos_as_xyz
1 x,y,z
2 -x,-y,-z
_cell_length_a                   4.7472(9)
_cell_length_b                   7.9431(6)
_cell_length_c                   9.8953(7)
_cell_angle_alpha                109.009(6)
_cell_angle_beta                 96.760(6)
_cell_angle_gamma                105.211(6)
_cell_volume                     331.872
_exptl_crystal_colour            colorless
_exptl_crystal_description       prism
_cell_formula_units_Z            2
loop_
_atom_site_label
_atom_site_type_symbol
_atom_site_fract_x
_atom_site_fract_y
_atom_site_fract_z
O1 O 0.24860(17) 0.66940(10) 0.43263(8)
N1 N 0.48999(19) 0.80710(11) 0.20170(9)
N2 N 0.3463(2) 0.74155(13) 0.05913(9)
N3 N 0.2746(2) 1.01300(12) 0.18595(10)
N4 N 0.1253(2) 0.35380(12) 0.35366(10)
H1 H 0.008(3) 0.3484(19) 0.4179(16)
H2 H 0.159(3) 0.251(2) 0.2991(16)
C1 C 0.4445(2) 0.96702(14) 0.27409(11)
H3 H 0.531(3) 1.036(2) 0.3756(17)
C2 C 0.2224(3) 0.87051(16) 0.05614(12)
H4 H 0.108(4) 0.863(2) -0.0337(17)
C3 C 0.6637(2) 0.70549(17) 0.25458(14)
H5 H 0.766(3) 0.787(2) 0.3558(17)
H6 H 0.814(3) 0.689(2) 0.1951(16)
C4 C 0.4720(3) 0.51486(15) 0.24398(13)
H7 H 0.346(4) 0.447(2) 0.1464(18)
H8 H 0.597(4) 0.443(2) 0.2568(17)
C5 C 0.2736(2) 0.52072(13) 0.35279(10)
loop_
_geom_bond_atom_site_label_1
_geom_bond_atom_site_label_2
_geom_bond_site_symmetry_1
_geom_bond_site_symmetry_2
O1 C5 1_555 1_555
N1 N2 1_555 1_555
N2 C2 1_555 1_555
N3 C1 1_555 1_555
N4 H1 1_555 1_555
H2 N4 1_555 1_555
C1 N1 1_555 1_555
H3 C1 1_555 1_555
C2 N3 1_555 1_555
H4 C2 1_555 1_555
C3 N1 1_555 1_555
H5 C3 1_555 1_555
H6 C3 1_555 1_555
C4 C3 1_555 1_555
H7 C4 1_555 1_555
H8 C4 1_555 1_555
C5 N4 1_555 1_555
C4 C5 1_555 1_555

#END
