
#######################################################################
#
#                 Cambridge Crystallographic Data Centre
#                                CCDC 
#
#######################################################################
#
# If this CIF has been generated from an entry in the Cambridge 
# Structural Database, then it will include bibliographic, chemical, 
# crystal, experimental, refinement or atomic coordinate data resulting 
# from the CCDC's data processing and validation procedures.
#
#######################################################################

data_KEVSOV
_chemical_formula_moiety         'C13 H19 N1 O4'
_chemical_name_systematic        
N,N-Diethyl-5-(2-furyl)-3-hydroxy-5-oxopentanamide
_symmetry_cell_setting           orthorhombic
_symmetry_space_group_name_H-M   'P 21 21 21'
_symmetry_Int_Tables_number      19
_space_group_name_Hall           'P 2ac 2ab'
loop_
_symmetry_equiv_pos_site_id
_symmetry_equiv_pos_as_xyz
1 x,y,z
2 1/2-x,-y,1/2+z
3 1/2+x,1/2-y,-z
4 -x,1/2+y,1/2-z
_cell_length_a                   7.7341(4)
_cell_length_b                   8.4900(5)
_cell_length_c                   20.9282(11)
_cell_angle_alpha                90
_cell_angle_beta                 90
_cell_angle_gamma                90
_cell_volume                     1374.2
_exptl_crystal_colour            colorless
_cell_formula_units_Z            4
loop_
_atom_site_label
_atom_site_type_symbol
_atom_site_fract_x
_atom_site_fract_y
_atom_site_fract_z
O1 O 0.81000(17) 0.33766(19) 0.04806(6)
N1 N 1.4461(2) 0.4463(2) 0.36918(8)
C1 C 0.6370(3) 0.3352(3) 0.03551(10)
H1 H 0.5873 0.3043 -0.0041
O2 O 1.12416(18) 0.3531(3) 0.10330(7)
C2 C 0.5475(2) 0.3820(3) 0.08627(9)
H2 H 0.4254 0.3910 0.0894
O3 O 1.19750(17) 0.26375(13) 0.24763(7)
H3 H 1.2911 0.2229 0.2358
C3 C 0.6692(2) 0.4157(2) 0.13482(8)
H4 H 0.6445 0.4517 0.1768
O4 O 1.5195(2) 0.5831(2) 0.28164(7)
C4 C 0.8264(2) 0.3870(2) 0.11005(7)
C5 C 1.0020(2) 0.3960(2) 0.13491(8)
C6 C 1.0228(2) 0.4622(2) 0.20107(8)
H5 H 0.9303 0.4191 0.2287
H6 H 1.0078 0.5779 0.1993
C7 C 1.1962(2) 0.42561(18) 0.23096(7)
H7 H 1.2907 0.4476 0.1996
C8 C 1.2234(2) 0.5247(2) 0.29117(8)
H8 H 1.1913 0.6353 0.2821
H9 H 1.1462 0.4855 0.3254
C9 C 1.4078(2) 0.5192(2) 0.31421(8)
C10 C 1.3283(4) 0.3384(3) 0.40329(12)
H10 H 1.3953 0.2472 0.4194
H11 H 1.2407 0.2980 0.3730
C11 C 1.2396(6) 0.4152(5) 0.45749(14)
H12 H 1.1628 0.3392 0.4784
H13 H 1.1714 0.5045 0.4418
H14 H 1.3256 0.4529 0.4883
C12 C 1.6246(3) 0.4558(4) 0.39308(12)
H15 H 1.6236 0.4540 0.4404
H16 H 1.6768 0.5567 0.3793
C13 C 1.7332(4) 0.3204(5) 0.36851(17)
H17 H 1.8514 0.3303 0.3849
H18 H 1.7351 0.3226 0.3217
H19 H 1.6833 0.2205 0.3831
loop_
_geom_bond_atom_site_label_1
_geom_bond_atom_site_label_2
_geom_bond_site_symmetry_1
_geom_bond_site_symmetry_2
O1 C1 1_555 1_555
N1 C9 1_555 1_555
C1 H1 1_555 1_555
O2 C5 1_555 1_555
C2 C1 1_555 1_555
H2 C2 1_555 1_555
O3 H3 1_555 1_555
C3 C2 1_555 1_555
H4 C3 1_555 1_555
O4 C9 1_555 1_555
C4 O1 1_555 1_555
C5 C4 1_555 1_555
C6 C5 1_555 1_555
H5 C6 1_555 1_555
H6 C6 1_555 1_555
C7 O3 1_555 1_555
H7 C7 1_555 1_555
C8 C7 1_555 1_555
H8 C8 1_555 1_555
H9 C8 1_555 1_555
C9 C8 1_555 1_555
C10 N1 1_555 1_555
H10 C10 1_555 1_555
H11 C10 1_555 1_555
C11 C10 1_555 1_555
H12 C11 1_555 1_555
H13 C11 1_555 1_555
H14 C11 1_555 1_555
C12 N1 1_555 1_555
H15 C12 1_555 1_555
H16 C12 1_555 1_555
C13 C12 1_555 1_555
H17 C13 1_555 1_555
H18 C13 1_555 1_555
H19 C13 1_555 1_555
C3 C4 1_555 1_555
C6 C7 1_555 1_555

#END
