
#######################################################################
#
#                 Cambridge Crystallographic Data Centre
#                                CCDC 
#
#######################################################################
#
# If this CIF has been generated from an entry in the Cambridge 
# Structural Database, then it will include bibliographic, chemical, 
# crystal, experimental, refinement or atomic coordinate data resulting 
# from the CCDC's data processing and validation procedures.
#
#######################################################################

data_KEVVEO
_chemical_formula_moiety         'C50 H50 O2,0.75(C6 H14)'
_chemical_name_systematic        
"(R,R)-3-((2,2'',4,4'',6,6''-Hexamethyl-1,1':3',1''-terphenyl-2'-yl)carbonyl)-8-mesityl-2,4,9a-trimethyl-3,9a-dihydro-9H-fluoren-9-one n-hexane solvate"
_symmetry_cell_setting           triclinic
_symmetry_space_group_name_H-M   'P -1'
_symmetry_Int_Tables_number      2
_space_group_name_Hall           '-P 1'
loop_
_symmetry_equiv_pos_site_id
_symmetry_equiv_pos_as_xyz
1 x,y,z
2 -x,-y,-z
_cell_length_a                   12.8018(9)
_cell_length_b                   13.2388(9)
_cell_length_c                   13.6583(10)
_cell_angle_alpha                84.232(1)
_cell_angle_beta                 76.587(1)
_cell_angle_gamma                80.784(1)
_cell_volume                     2217.77
_exptl_crystal_colour            colorless
_exptl_crystal_description       block
_cell_formula_units_Z            2
loop_
_atom_site_label
_atom_site_type_symbol
_atom_site_fract_x
_atom_site_fract_y
_atom_site_fract_z
O1 O 0.73929(12) 0.73482(11) 0.66880(12)
O2 O 1.18194(13) 0.63747(12) 0.76636(12)
C1 C 0.66557(17) 0.90065(15) 0.72526(16)
C2 C 0.61219(18) 0.88120(15) 0.82610(16)
C3 C 0.53299(19) 0.95695(16) 0.87231(17)
H1 H 0.4963 0.9447 0.9404
C4 C 0.50642(18) 1.04997(16) 0.82100(17)
H2 H 0.4550 1.1022 0.8549
C5 C 0.55509(18) 1.06619(16) 0.72055(17)
H3 H 0.5347 1.1289 0.6849
C6 C 0.63377(17) 0.99189(15) 0.67051(16)
C7 C 0.63247(18) 0.78070(16) 0.88469(16)
C8 C 0.69788(19) 0.76785(18) 0.95553(17)
C9 C 0.7137(2) 0.67196(19) 1.00750(17)
H4 H 0.7594 0.6626 1.0544
C10 C 0.6651(2) 0.59066(18) 0.99266(18)
C11 C 0.5969(2) 0.60640(18) 0.92590(18)
H5 H 0.5617 0.5514 0.9162
C12 C 0.57800(19) 0.70035(16) 0.87230(17)
C13 C 0.7529(2) 0.85341(19) 0.97603(19)
H6 H 0.8239 0.8523 0.9295
H7 H 0.7625 0.8442 1.0457
H8 H 0.7081 0.9193 0.9663
C14 C 0.6850(2) 0.4885(2) 1.0510(2)
H9 H 0.6446 0.4934 1.1211
H10 H 0.7627 0.4709 1.0494
H11 H 0.6607 0.4353 1.0203
C15 C 0.4999(2) 0.71521(18) 0.80308(19)
H12 H 0.4482 0.7777 0.8185
H13 H 0.4604 0.6561 0.8128
H14 H 0.5401 0.7215 0.7329
C16 C 0.67392(16) 1.00801(15) 0.55874(16)
C17 C 0.64588(17) 0.94523(16) 0.49427(17)
C18 C 0.67982(18) 0.96421(17) 0.39024(17)
H15 H 0.6606 0.9223 0.3466
C19 C 0.74029(18) 1.04156(18) 0.34816(17)
C20 C 0.76663(19) 1.10285(17) 0.41317(18)
H16 H 0.8084 1.1562 0.3855
C21 C 0.73373(18) 1.08849(16) 0.51730(17)
C22 C 0.57583(18) 0.86220(16) 0.53266(17)
H17 H 0.5381 0.8509 0.4808
H18 H 0.5225 0.8831 0.5937
H19 H 0.6214 0.7986 0.5484
C23 C 0.7751(2) 1.0603(2) 0.23525(19)
H20 H 0.8472 1.0217 0.2115
H21 H 0.7779 1.1337 0.2182
H22 H 0.7230 1.0378 0.2027
C24 C 0.7619(2) 1.16179(18) 0.58231(19)
H23 H 0.7042 1.2205 0.5932
H24 H 0.8305 1.1858 0.5484
H25 H 0.7690 1.1264 0.6475
C25 C 0.75535(17) 0.82155(15) 0.67507(15)
C26 C 1.16130(17) 0.58211(15) 0.60876(16)
C27 C 1.24867(18) 0.50472(16) 0.57850(17)
C28 C 1.25286(18) 0.46088(16) 0.48872(17)
H26 H 1.3090 0.4063 0.4674
C29 C 1.17792(18) 0.49436(16) 0.42953(17)
H27 H 1.1844 0.4632 0.3683
C30 C 1.09343(18) 0.57282(16) 0.45855(16)
H28 H 1.0429 0.5962 0.4173
C31 C 1.08434(17) 0.61646(15) 0.54930(16)
C32 C 1.33456(18) 0.46840(15) 0.63709(16)
C33 C 1.3334(2) 0.37328(16) 0.69293(17)
C34 C 1.4186(2) 0.33746(17) 0.74019(18)
H29 H 1.4189 0.2728 0.7774
C35 C 1.5030(2) 0.39241(18) 0.73509(18)
C36 C 1.50153(19) 0.48696(17) 0.68011(17)
H30 H 1.5591 0.5256 0.6758
C37 C 1.41837(18) 0.52650(16) 0.63140(16)
C38 C 1.2432(2) 0.31115(19) 0.7026(2)
H31 H 1.1735 0.3562 0.7159
H32 H 1.2452 0.2589 0.7585
H33 H 1.2518 0.2777 0.6398
C39 C 1.5930(2) 0.3523(2) 0.7893(2)
H34 H 1.5653 0.3570 0.8622
H35 H 1.6525 0.3934 0.7662
H36 H 1.6198 0.2806 0.7749
C40 C 1.41870(19) 0.63018(17) 0.57441(18)
H37 H 1.4086 0.6246 0.5063
H38 H 1.4882 0.6544 0.5700
H39 H 1.3596 0.6789 0.6099
C41 C 1.00191(17) 0.69705(15) 0.60095(16)
C42 C 0.93909(17) 0.77429(16) 0.56325(16)
C43 C 0.87003(17) 0.85269(15) 0.63355(16)
H40 H 0.8617 0.9198 0.5935
C44 C 0.92179(17) 0.86769(16) 0.71984(16)
C45 C 0.98722(17) 0.79091(16) 0.75382(16)
H41 H 1.0192 0.8014 0.8075
C46 C 1.01205(17) 0.68864(15) 0.71021(16)
C47 C 0.9287(2) 0.79009(18) 0.45541(17)
H42 H 0.9973 0.7627 0.4114
H43 H 0.9116 0.8636 0.4379
H44 H 0.8705 0.7543 0.4465
C48 C 0.90132(19) 0.97340(16) 0.75768(19)
H45 H 0.9323 1.0216 0.7036
H46 H 0.9353 0.9727 0.8151
H47 H 0.8230 0.9948 0.7790
C49 C 0.93985(19) 0.61233(16) 0.77580(17)
H48 H 0.8633 0.6385 0.7779
H49 H 0.9524 0.6049 0.8444
H50 H 0.9582 0.5455 0.7465
C50 C 1.12958(18) 0.63596(15) 0.70379(16)
loop_
_geom_bond_atom_site_label_1
_geom_bond_atom_site_label_2
_geom_bond_site_symmetry_1
_geom_bond_site_symmetry_2
O1 C25 1_555 1_555
O2 C50 1_555 1_555
C1 C2 1_555 1_555
C2 C3 1_555 1_555
C3 H1 1_555 1_555
C4 C3 1_555 1_555
H2 C4 1_555 1_555
C5 C4 1_555 1_555
H3 C5 1_555 1_555
C6 C1 1_555 1_555
C7 C2 1_555 1_555
C8 C7 1_555 1_555
C9 C8 1_555 1_555
H4 C9 1_555 1_555
C10 C9 1_555 1_555
C11 C10 1_555 1_555
H5 C11 1_555 1_555
C12 C7 1_555 1_555
C13 C8 1_555 1_555
H6 C13 1_555 1_555
H7 C13 1_555 1_555
H8 C13 1_555 1_555
C14 C10 1_555 1_555
H9 C14 1_555 1_555
H10 C14 1_555 1_555
H11 C14 1_555 1_555
C15 C12 1_555 1_555
H12 C15 1_555 1_555
H13 C15 1_555 1_555
H14 C15 1_555 1_555
C16 C6 1_555 1_555
C17 C16 1_555 1_555
C18 C17 1_555 1_555
H15 C18 1_555 1_555
C19 C18 1_555 1_555
C20 C19 1_555 1_555
H16 C20 1_555 1_555
C21 C16 1_555 1_555
C22 C17 1_555 1_555
H17 C22 1_555 1_555
H18 C22 1_555 1_555
H19 C22 1_555 1_555
C23 C19 1_555 1_555
H20 C23 1_555 1_555
H21 C23 1_555 1_555
H22 C23 1_555 1_555
C24 C21 1_555 1_555
H23 C24 1_555 1_555
H24 C24 1_555 1_555
H25 C24 1_555 1_555
C25 C1 1_555 1_555
C26 C27 1_555 1_555
C27 C28 1_555 1_555
C28 H26 1_555 1_555
C29 C28 1_555 1_555
H27 C29 1_555 1_555
C30 C29 1_555 1_555
H28 C30 1_555 1_555
C31 C26 1_555 1_555
C32 C27 1_555 1_555
C33 C32 1_555 1_555
C34 C33 1_555 1_555
H29 C34 1_555 1_555
C35 C34 1_555 1_555
C36 C35 1_555 1_555
H30 C36 1_555 1_555
C37 C32 1_555 1_555
C38 C33 1_555 1_555
H31 C38 1_555 1_555
H32 C38 1_555 1_555
H33 C38 1_555 1_555
C39 C35 1_555 1_555
H34 C39 1_555 1_555
H35 C39 1_555 1_555
H36 C39 1_555 1_555
C40 C37 1_555 1_555
H37 C40 1_555 1_555
H38 C40 1_555 1_555
H39 C40 1_555 1_555
C41 C31 1_555 1_555
C42 C41 1_555 1_555
C43 C25 1_555 1_555
H40 C43 1_555 1_555
C44 C43 1_555 1_555
C45 C44 1_555 1_555
H41 C45 1_555 1_555
C46 C41 1_555 1_555
C47 C42 1_555 1_555
H42 C47 1_555 1_555
H43 C47 1_555 1_555
H44 C47 1_555 1_555
C48 C44 1_555 1_555
H45 C48 1_555 1_555
H46 C48 1_555 1_555
H47 C48 1_555 1_555
C49 C46 1_555 1_555
H48 C49 1_555 1_555
H49 C49 1_555 1_555
H50 C49 1_555 1_555
C50 C26 1_555 1_555
C5 C6 1_555 1_555
C11 C12 1_555 1_555
C20 C21 1_555 1_555
C30 C31 1_555 1_555
C36 C37 1_555 1_555
C42 C43 1_555 1_555
C45 C46 1_555 1_555
C46 C50 1_555 1_555

#END
