
#######################################################################
#
#                 Cambridge Crystallographic Data Centre
#                                CCDC 
#
#######################################################################
#
# If this CIF has been generated from an entry in the Cambridge 
# Structural Database, then it will include bibliographic, chemical, 
# crystal, experimental, refinement or atomic coordinate data resulting 
# from the CCDC's data processing and validation procedures.
#
#######################################################################

data_KEWDIC
_chemical_formula_moiety         'C28 H22 F1 N3'
_chemical_name_systematic        
(1-(9-butyl-9H-carbazol-3-yl)-3-(4-fluorophenyl)prop-2-en-1-ylidene)malononitrile
_symmetry_cell_setting           orthorhombic
_symmetry_space_group_name_H-M   'P 21 21 21'
_symmetry_Int_Tables_number      19
_space_group_name_Hall           'P 2ac 2ab'
loop_
_symmetry_equiv_pos_site_id
_symmetry_equiv_pos_as_xyz
1 x,y,z
2 1/2-x,-y,1/2+z
3 -x,1/2+y,1/2-z
4 1/2+x,1/2-y,-z
_cell_length_a                   8.7593(18)
_cell_length_b                   13.386(4)
_cell_length_c                   19.541(4)
_cell_angle_alpha                90
_cell_angle_beta                 90
_cell_angle_gamma                90
_cell_volume                     2291.22
_exptl_crystal_colour            yellow
_exptl_crystal_description       Rod-like
_cell_formula_units_Z            4
loop_
_atom_site_label
_atom_site_type_symbol
_atom_site_fract_x
_atom_site_fract_y
_atom_site_fract_z
C1 C 0.9269(2) 0.54824(14) -0.10205(10)
C2 C 0.8379(3) 0.55693(17) -0.16096(11)
H1 H 0.8109 0.6195 -0.1778
C3 C 0.9666(3) 0.45256(15) -0.07820(11)
C4 C 0.9195(4) 0.36636(18) -0.11200(14)
H2 H 0.9464 0.3033 -0.0962
C5 C 0.7908(3) 0.4710(2) -0.19383(13)
H3 H 0.7304 0.4759 -0.2328
C6 C 0.8318(4) 0.3782(2) -0.16969(15)
H4 H 0.7990 0.3217 -0.1932
C7 C 1.0270(4) 0.3237(2) 0.06725(17)
H5 H 0.9353 0.3018 0.0438
H6 H 1.0811 0.2645 0.0825
C8 C 1.1270(4) 0.37964(17) 0.01680(15)
H7 H 1.2150 0.4054 0.0412
H8 H 1.1641 0.3325 -0.0170
C9 C 0.9836(4) 0.3807(2) 0.12594(19)
H9 H 0.9206 0.4365 0.1116
H10 H 1.0744 0.4075 0.1476
C10 C 0.8933(6) 0.3159(3) 0.1789(2)
H11 H 0.8071 0.2856 0.1568
H12 H 0.8586 0.3576 0.2157
H13 H 0.9590 0.2647 0.1968
C11 C 0.9972(2) 0.72276(13) -0.05187(9)
H14 H 0.9558 0.7606 -0.0872
C12 C 1.0673(2) 0.56305(14) -0.00393(10)
C13 C 1.0628(2) 0.76928(12) 0.00434(9)
C14 C 0.9940(2) 0.61887(13) -0.05494(9)
C15 C 1.1356(2) 0.60881(14) 0.05186(11)
H15 H 1.1847 0.5713 0.0853
C16 C 1.1286(2) 0.71141(14) 0.05628(10)
H16 H 1.1686 0.7430 0.0947
C17 C 1.0601(2) 0.87955(13) 0.00960(9)
C18 C 1.1215(2) 0.93632(13) -0.04160(10)
C19 C 1.2073(2) 0.89557(14) -0.09740(10)
C20 C 1.1030(3) 1.04243(15) -0.04374(12)
C21 C 0.9893(2) 0.92795(15) 0.06749(10)
H17 H 1.0080 0.9957 0.0737
C22 C 0.8993(2) 0.88264(15) 0.11258(10)
H18 H 0.8841 0.8145 0.1065
C23 C 0.8214(2) 0.92876(16) 0.17088(10)
C24 C 0.7273(3) 0.87227(19) 0.21128(11)
H19 H 0.7169 0.8045 0.2018
C25 C 0.6640(3) 1.0112(2) 0.27800(11)
C26 C 0.6472(3) 0.9127(2) 0.26579(12)
H20 H 0.5841 0.8733 0.2929
C27 C 0.8359(4) 1.0295(2) 0.18639(14)
H21 H 0.9000 1.0696 0.1602
C28 C 0.7562(4) 1.0704(2) 0.24016(15)
H22 H 0.7656 1.1379 0.2504
N1 N 1.0541(2) 0.46234(12) -0.01899(10)
N2 N 1.2785(2) 0.86621(14) -0.14215(10)
N3 N 1.0848(4) 1.12655(15) -0.04627(14)
F1 F 0.5857(2) 1.05400(15) 0.33066(7)
loop_
_geom_bond_atom_site_label_1
_geom_bond_atom_site_label_2
_geom_bond_site_symmetry_1
_geom_bond_site_symmetry_2
C1 C2 1_555 1_555
C2 H1 1_555 1_555
C3 C1 1_555 1_555
C4 C3 1_555 1_555
H2 C4 1_555 1_555
C5 C2 1_555 1_555
H3 C5 1_555 1_555
C6 C4 1_555 1_555
H4 C6 1_555 1_555
C7 H5 1_555 1_555
H6 C7 1_555 1_555
C8 C7 1_555 1_555
H7 C8 1_555 1_555
H8 C8 1_555 1_555
C9 C7 1_555 1_555
H9 C9 1_555 1_555
H10 C9 1_555 1_555
C10 C9 1_555 1_555
H11 C10 1_555 1_555
H12 C10 1_555 1_555
H13 C10 1_555 1_555
C11 H14 1_555 1_555
C12 C14 1_555 1_555
C13 C11 1_555 1_555
C14 C1 1_555 1_555
C15 C12 1_555 1_555
H15 C15 1_555 1_555
C16 C13 1_555 1_555
H16 C16 1_555 1_555
C17 C13 1_555 1_555
C18 C17 1_555 1_555
C19 C18 1_555 1_555
C20 C18 1_555 1_555
C21 C17 1_555 1_555
H17 C21 1_555 1_555
C22 C21 1_555 1_555
H18 C22 1_555 1_555
C23 C22 1_555 1_555
C24 C23 1_555 1_555
H19 C24 1_555 1_555
C25 C26 1_555 1_555
C26 C24 1_555 1_555
H20 C26 1_555 1_555
C27 C23 1_555 1_555
H21 C27 1_555 1_555
C28 C25 1_555 1_555
H22 C28 1_555 1_555
N1 C3 1_555 1_555
N2 C19 1_555 1_555
N3 C20 1_555 1_555
F1 C25 1_555 1_555
C5 C6 1_555 1_555
C8 N1 1_555 1_555
C11 C14 1_555 1_555
C12 N1 1_555 1_555
C15 C16 1_555 1_555
C27 C28 1_555 1_555

#END
