
#######################################################################
#
#                 Cambridge Crystallographic Data Centre
#                                CCDC 
#
#######################################################################
#
# If this CIF has been generated from an entry in the Cambridge 
# Structural Database, then it will include bibliographic, chemical, 
# crystal, experimental, refinement or atomic coordinate data resulting 
# from the CCDC's data processing and validation procedures.
#
#######################################################################

data_KEWGUO
_chemical_formula_moiety         'C5 H9 N1 O4,H2 O1'
_chemical_name_systematic        'N-Methyl-D-aspartic acid monohydrate'
_symmetry_cell_setting           monoclinic
_symmetry_space_group_name_H-M   'P 21'
_symmetry_Int_Tables_number      4
_space_group_name_Hall           'P 2yb'
loop_
_symmetry_equiv_pos_site_id
_symmetry_equiv_pos_as_xyz
1 x,y,z
2 -x,1/2+y,-z
_cell_length_a                   12.697(3)
_cell_length_b                   5.478(2)
_cell_length_c                   11.175(3)
_cell_angle_alpha                90
_cell_angle_beta                 103.75(3)
_cell_angle_gamma                90
_cell_volume                     754.993
_exptl_crystal_colour            colorless
_cell_formula_units_Z            4
loop_
_atom_site_label
_atom_site_type_symbol
_atom_site_fract_x
_atom_site_fract_y
_atom_site_fract_z
O1 O 0.4772(2) 0.1187(1) 0.1069(3)
H1 H 0.4297(28) 0.1685(85) 0.0386(32)
H2 H 0.5289(32) 0.1007(90) 0.0908(34)
O2 O 0.0289(2) 0.0529(9) 0.4376(3)
H3 H 0.0212(40) -0.0885(99) 0.4737(9)
H4 H 0.1027(41) 0.076(10) 0.4374(44)
O3 O -0.1748(2) -0.1071 0.0043(2)
O4 O -0.3394(2) -0.0334(6) 0.0345(2)
O5 O -0.1793(2) -0.1700(5) 0.3012(2)
O6 O -0.2827(3) 0.0055(6) 0.4118(3)
N1 N -0.0719(2) 0.1886(6) 0.1770(3)
C1 C -0.2402(2) 0.0055(7) 0.0530(3)
C2 C -0.1929(2) 0.2170(7) 0.1400(3)
C3 C -0.2412(2) 0.2353(7) 0.2521(3)
C4 C -0.2304(3) 0.0036(7) 0.3229(3)
C5 C -0.0107(3) 0.4225(8) 0.1964(4)
H5 H -0.1951(24) 0.3664(69) 0.0840(27)
H6 H -0.0534(24) 0.1073(68) 0.1046(27)
H7 H -0.0565(32) 0.0997(96) 0.2518(35)
H8 H -0.0205(33) 0.472(10) 0.1138(40)
H9 H -0.0321(34) 0.524(10) 0.2682(40)
H10 H 0.0659(38) 0.423(10) 0.2161(44)
H11 H -0.3189(27) 0.2738(88) 0.2237(31)
H12 H -0.2087(31) 0.3576(94) 0.3152(36)
H13 H -0.2664(39) -0.143(10) 0.4364(29)
O7 O 0.4235(2) 0.2235(5) 0.4508(2)
O8 O 0.2557(2) 0.1192(6) 0.4603(2)
O9 O 0.1023(2) -0.0951(6) 0.1279(3)
O10 O 0.2605(2) 0.1005(6) 0.1628(2)
N2 N 0.4503(2) -0.1428(5) 0.3104(2)
C6 C 0.3448(2) 0.0826(7) 0.4300(3)
C7 C 0.3554(2) -0.1630(6) 0.3684(3)
C8 C 0.2510(2) -0.2504(7) 0.2819(3)
C9 C 0.1966(2) -0.0732(7) 0.1842(3)
C10 C 0.4841(3) -0.3726(8) 0.2576(3)
H14 H 0.3772(30) -0.2832(79) 0.4364(29)
H15 H 0.5027(29) -0.0866(97) 0.3666(34)
H16 H 0.4404(27) -0.0297(82) 0.2518(31)
H17 H 0.5551(30) -0.3303(90) 0.2242(34)
H18 H 0.4313(32) -0.380(10) 0.1787(37)
H19 H 0.5010(35) -0.501(10) 0.3229(41)
H20 H 0.2015(26) -0.2917(86) 0.3408(31)
H21 H 0.2586(29) -0.4169(90) 0.2408(31)
H22 H 0.2301(39) 0.2082(99) 0.0923(41)
loop_
_geom_bond_atom_site_label_1
_geom_bond_atom_site_label_2
_geom_bond_site_symmetry_1
_geom_bond_site_symmetry_2
O1 H1 1_555 1_555
O2 H3 1_555 1_555
O3 C1 1_555 1_555
O4 C1 1_555 1_555
O5 C4 1_555 1_555
O6 C4 1_555 1_555
N1 C2 1_555 1_555
C1 C2 1_555 1_555
C2 C3 1_555 1_555
C3 C4 1_555 1_555
C5 N1 1_555 1_555
O7 C6 1_555 1_555
O8 C6 1_555 1_555
O9 C9 1_555 1_555
O10 C9 1_555 1_555
N2 C7 1_555 1_555
C6 C7 1_555 1_555
C7 C8 1_555 1_555
C8 C9 1_555 1_555
C10 N2 1_555 1_555
H2 O1 1_555 1_555
H4 O2 1_555 1_555
H5 C2 1_555 1_555
H6 N1 1_555 1_555
H7 N1 1_555 1_555
H8 C5 1_555 1_555
H9 C5 1_555 1_555
H10 C5 1_555 1_555
H11 C3 1_555 1_555
H12 C3 1_555 1_555
H13 O6 1_555 1_555
H14 C7 1_555 1_555
H15 N2 1_555 1_555
H16 N2 1_555 1_555
H17 C10 1_555 1_555
H18 C10 1_555 1_555
H19 C10 1_555 1_555
H20 C8 1_555 1_555
H21 C8 1_555 1_555
H22 O10 1_555 1_555

#END
