
#######################################################################
#
#                 Cambridge Crystallographic Data Centre
#                                CCDC 
#
#######################################################################
#
# If this CIF has been generated from an entry in the Cambridge 
# Structural Database, then it will include bibliographic, chemical, 
# crystal, experimental, refinement or atomic coordinate data resulting 
# from the CCDC's data processing and validation procedures.
#
#######################################################################

data_KEWHUQ
_chemical_formula_moiety         'C26 H28 Br2 N2 O2,H2 O1'
_chemical_name_systematic        
"4,10-bis(4-bromophenyl)-3,9-dimethyloctahydrodipyrido[1,2-a:1',2'-d]pyrazine-6,12(2H,6aH)-dione monohydrate"
_symmetry_cell_setting           tetragonal
_symmetry_space_group_name_H-M   'P 41 21 2'
_symmetry_Int_Tables_number      92
_space_group_name_Hall           'P 4abw 2nw'
loop_
_symmetry_equiv_pos_site_id
_symmetry_equiv_pos_as_xyz
1 x,y,z
2 -x,-y,1/2+z
3 1/2-y,1/2+x,1/4+z
4 1/2+y,1/2-x,3/4+z
5 1/2-x,1/2+y,1/4-z
6 1/2+x,1/2-y,3/4-z
7 y,x,-z
8 -y,-x,1/2-z
_cell_length_a                   6.9396(4)
_cell_length_b                   6.9396(4)
_cell_length_c                   50.665(5)
_cell_angle_alpha                90
_cell_angle_beta                 90
_cell_angle_gamma                90
_cell_volume                     2439.93
_exptl_crystal_colour            colorless
_exptl_crystal_description       block
_cell_formula_units_Z            4
_exptl_crystal_recrystallization_method dichloromethane/isooctane
loop_
_atom_site_label
_atom_site_type_symbol
_atom_site_fract_x
_atom_site_fract_y
_atom_site_fract_z
Br1 Br 1.24935(13) -0.08028(14) 0.109922(13)
O1 O 0.3343(7) -0.1577(7) 0.01888(8)
N1 N 0.5367(7) -0.4052(7) 0.02702(8)
C1 C 0.4355(9) -0.2916(8) 0.01070(11)
C2 C 0.6697(9) -0.5567(8) 0.01861(11)
H1 H 0.7956 -0.5336 0.0277
C3 C 0.5947(11) -0.7537(10) 0.02767(11)
H2 H 0.4726 -0.7834 0.0184
H3 H 0.6897 -0.8547 0.0231
C4 C 0.5607(11) -0.7540(11) 0.05756(12)
H4 H 0.5002 -0.8774 0.0628
H5 H 0.6858 -0.7432 0.0668
C5 C 0.4303(9) -0.5867(10) 0.06579(11)
H6 H 0.4297 -0.5829 0.0855
C6 C 0.5095(9) -0.3912(9) 0.05612(11)
H7 H 0.4069 -0.2927 0.0593
C7 C 0.6899(9) -0.3197(9) 0.06932(11)
C8 C 0.7239(10) -0.3501(10) 0.09598(12)
H8 H 0.6326 -0.4216 0.1059
C9 C 0.8870(10) -0.2796(10) 0.10860(12)
H9 H 0.9076 -0.3027 0.1269
C10 C 1.0180(10) -0.1755(11) 0.09397(13)
C11 C 0.9887(10) -0.1380(10) 0.06756(12)
H10 H 1.0786 -0.0639 0.0577
C12 C 0.8266(10) -0.2106(9) 0.05600(11)
H11 H 0.8061 -0.1850 0.0378
C13 C 0.2198(10) -0.6154(11) 0.05676(13)
H12 H 0.2149 -0.6203 0.0374
H13 H 0.1409 -0.5077 0.0631
H14 H 0.1699 -0.7363 0.0640
Br1F Br 0.91972(14) 0.24935(13) -0.109922(13)
O1F O 0.8423(7) -0.6657(7) -0.01888(8)
N1F N 0.5948(7) -0.4633(7) -0.02702(8)
C1F C 0.7084(8) -0.5645(9) -0.01070(11)
C2F C 0.4433(8) -0.3303(9) -0.01861(11)
H1F H 0.4664 -0.2044 -0.0277
C3F C 0.2463(10) -0.4053(11) -0.02767(11)
H2F H 0.2166 -0.5274 -0.0184
H3F H 0.1453 -0.3103 -0.0231
C4F C 0.2460(11) -0.4393(11) -0.05756(12)
H4F H 0.1226 -0.4998 -0.0628
H5F H 0.2568 -0.3142 -0.0668
C5F C 0.4133(10) -0.5697(9) -0.06579(11)
H6F H 0.4171 -0.5703 -0.0855
C6F C 0.6088(9) -0.4905(9) -0.05612(11)
H7F H 0.7073 -0.5931 -0.0593
C7F C 0.6803(9) -0.3101(9) -0.06932(11)
C8F C 0.6499(10) -0.2761(10) -0.09598(12)
H8F H 0.5784 -0.3674 -0.1059
C9F C 0.7204(10) -0.1130(10) -0.10860(12)
H9F H 0.6973 -0.0924 -0.1269
C10F C 0.8245(11) 0.0180(10) -0.09397(13)
C11F C 0.8620(10) -0.0113(10) -0.06756(12)
H10F H 0.9361 0.0786 -0.0577
C12F C 0.7894(9) -0.1734(10) -0.05600(11)
H11F H 0.8150 -0.1939 -0.0378
C13F C 0.3846(11) -0.7802(10) -0.05676(13)
H12F H 0.3797 -0.7851 -0.0374
H13F H 0.4923 -0.8591 -0.0631
H14F H 0.2637 -0.8301 -0.0640
O2 O -0.0249(8) -0.0249(8) 0.0000
H15 H 0.077(12) -0.020(11) 0.0096(14)
H15F H -0.020(11) 0.077(12) -0.0096(14)
loop_
_geom_bond_atom_site_label_1
_geom_bond_atom_site_label_2
_geom_bond_site_symmetry_1
_geom_bond_site_symmetry_2
Br1 C10 1_555 1_555
O1 C1 1_555 1_555
N1 C1 1_555 1_555
C1 C2F 1_555 1_555
C2 N1 1_555 1_555
H1 C2 1_555 1_555
C3 C2 1_555 1_555
H2 C3 1_555 1_555
H3 C3 1_555 1_555
C4 C3 1_555 1_555
H4 C4 1_555 1_555
H5 C4 1_555 1_555
C5 C4 1_555 1_555
H6 C5 1_555 1_555
C6 N1 1_555 1_555
H7 C6 1_555 1_555
C7 C6 1_555 1_555
C8 C7 1_555 1_555
H8 C8 1_555 1_555
C9 C8 1_555 1_555
H9 C9 1_555 1_555
C10 C9 1_555 1_555
C11 C10 1_555 1_555
H10 C11 1_555 1_555
C12 C7 1_555 1_555
H11 C12 1_555 1_555
C13 C5 1_555 1_555
H12 C13 1_555 1_555
H13 C13 1_555 1_555
H14 C13 1_555 1_555
O2 H15 1_555 1_555
Br1F C10F 1_555 1_555
O1F C1F 1_555 1_555
N1F C1F 1_555 1_555
C1F C2 1_555 1_555
C2F N1F 1_555 1_555
H1F C2F 1_555 1_555
C3F C2F 1_555 1_555
H2F C3F 1_555 1_555
H3F C3F 1_555 1_555
C4F C3F 1_555 1_555
H4F C4F 1_555 1_555
H5F C4F 1_555 1_555
C5F C4F 1_555 1_555
H6F C5F 1_555 1_555
C6F N1F 1_555 1_555
H7F C6F 1_555 1_555
C7F C6F 1_555 1_555
C8F C7F 1_555 1_555
H8F C8F 1_555 1_555
C9F C8F 1_555 1_555
H9F C9F 1_555 1_555
C10F C9F 1_555 1_555
C11F C10F 1_555 1_555
H10F C11F 1_555 1_555
C12F C7F 1_555 1_555
H11F C12F 1_555 1_555
C13F C5F 1_555 1_555
H12F C13F 1_555 1_555
H13F C13F 1_555 1_555
H14F C13F 1_555 1_555
H15F O2 1_555 1_555
C5 C6 1_555 1_555
C11 C12 1_555 1_555
C5F C6F 1_555 1_555
C11F C12F 1_555 1_555

#END
