
#######################################################################
#
#                 Cambridge Crystallographic Data Centre
#                                CCDC 
#
#######################################################################
#
# If this CIF has been generated from an entry in the Cambridge 
# Structural Database, then it will include bibliographic, chemical, 
# crystal, experimental, refinement or atomic coordinate data resulting 
# from the CCDC's data processing and validation procedures.
#
#######################################################################

data_KEWLOQ
_chemical_formula_moiety         'C15 H14 N2 O1'
_chemical_name_systematic        
1-benzyl-3-methyl-1,3-dihydro-2H-benzimidazol-2-one
_symmetry_cell_setting           monoclinic
_symmetry_space_group_name_H-M   'P 21/c'
_symmetry_Int_Tables_number      14
_space_group_name_Hall           '-P 2ybc'
loop_
_symmetry_equiv_pos_site_id
_symmetry_equiv_pos_as_xyz
1 x,y,z
2 -x,1/2+y,1/2-z
3 -x,-y,-z
4 x,1/2-y,1/2+z
_cell_length_a                   10.5352(5)
_cell_length_b                   5.6590(3)
_cell_length_c                   20.7179(8)
_cell_angle_alpha                90
_cell_angle_beta                 95.495(2)
_cell_angle_gamma                90
_cell_volume                     1229.5
_exptl_crystal_colour            yellow
_exptl_crystal_description       Cubic
_cell_formula_units_Z            4
loop_
_atom_site_label
_atom_site_type_symbol
_atom_site_fract_x
_atom_site_fract_y
_atom_site_fract_z
O1 O 0.13595(13) 0.1514(2) 0.69857(6)
N1 N 0.25374(13) 0.2273(2) 0.61168(6)
N2 N 0.09385(12) 0.4653(3) 0.62720(6)
C1 C 0.47432(14) 0.0893(3) 0.64767(7)
C2 C 0.14509(14) 0.5431(3) 0.57196(7)
C3 C 0.24692(14) 0.3947(3) 0.56230(7)
C4 C 0.15835(15) 0.2680(3) 0.65149(8)
C5 C 0.50453(16) 0.2951(3) 0.68146(8)
H1 H 0.4420 0.4087 0.6855
C6 C 0.34082(16) 0.0300(3) 0.61926(8)
H2 H 0.3458 -0.0421 0.5771
H3 H 0.3056 -0.0867 0.6468
C7 C 0.31915(16) 0.4275(3) 0.51108(8)
H4 H 0.3877 0.3293 0.5049
C8 C 0.56914(17) -0.0761(3) 0.64247(9)
H5 H 0.5509 -0.2141 0.6190
C9 C 0.11139(17) 0.7254(3) 0.52969(8)
H6 H 0.0426 0.8232 0.5356
C10 C 0.62720(18) 0.3330(4) 0.70927(8)
H7 H 0.6469 0.4736 0.7312
C11 C 0.28546(19) 0.6131(4) 0.46909(8)
H8 H 0.3327 0.6404 0.4341
C12 C 0.18355(19) 0.7574(4) 0.47817(8)
H9 H 0.1628 0.8792 0.4489
C13 C 0.71963(18) 0.1673(4) 0.70502(10)
H10 H 0.8017 0.1931 0.7245
C14 C -0.00987(16) 0.5759(4) 0.65736(9)
H11 H -0.0209 0.4977 0.6976
H12 H -0.0871 0.5636 0.6289
H13 H 0.0098 0.7395 0.6655
C15 C 0.69066(19) -0.0382(4) 0.67172(11)
H14 H 0.7532 -0.1526 0.6688
loop_
_geom_bond_atom_site_label_1
_geom_bond_atom_site_label_2
_geom_bond_site_symmetry_1
_geom_bond_site_symmetry_2
O1 C4 1_555 1_555
N1 C3 1_555 1_555
N2 C2 1_555 1_555
C1 C5 1_555 1_555
C2 C3 1_555 1_555
C3 C7 1_555 1_555
C4 N1 1_555 1_555
C5 H1 1_555 1_555
C6 N1 1_555 1_555
H2 C6 1_555 1_555
H3 C6 1_555 1_555
C7 H4 1_555 1_555
C8 C1 1_555 1_555
H5 C8 1_555 1_555
C9 C2 1_555 1_555
H6 C9 1_555 1_555
C10 C5 1_555 1_555
H7 C10 1_555 1_555
C11 C7 1_555 1_555
H8 C11 1_555 1_555
C12 C9 1_555 1_555
H9 C12 1_555 1_555
C13 C10 1_555 1_555
H10 C13 1_555 1_555
C14 N2 1_555 1_555
H11 C14 1_555 1_555
H12 C14 1_555 1_555
H13 C14 1_555 1_555
C15 C8 1_555 1_555
H14 C15 1_555 1_555
N2 C4 1_555 1_555
C1 C6 1_555 1_555
C11 C12 1_555 1_555
C13 C15 1_555 1_555

#END
