
#######################################################################
#
#                 Cambridge Crystallographic Data Centre
#                                CCDC 
#
#######################################################################
#
# If this CIF has been generated from an entry in the Cambridge 
# Structural Database, then it will include bibliographic, chemical, 
# crystal, experimental, refinement or atomic coordinate data resulting 
# from the CCDC's data processing and validation procedures.
#
#######################################################################

data_KEWMIL
_chemical_formula_moiety         'C11 H12 I1 N2 1+,I1 1-'
_chemical_name_systematic        
'1-benzyl-2-iodo-3-methyl-1H-imidazol-3-ium iodide'
_symmetry_cell_setting           triclinic
_symmetry_space_group_name_H-M   'P -1'
_symmetry_Int_Tables_number      2
_space_group_name_Hall           '-P 1'
loop_
_symmetry_equiv_pos_site_id
_symmetry_equiv_pos_as_xyz
1 x,y,z
2 -x,-y,-z
_cell_length_a                   10.1088(11)
_cell_length_b                   10.1122(11)
_cell_length_c                   15.6369(16)
_cell_angle_alpha                106.118(4)
_cell_angle_beta                 90.862(4)
_cell_angle_gamma                117.901(4)
_cell_volume                     1337.18
_exptl_crystal_colour            yellow
_exptl_crystal_description       Cube
_cell_formula_units_Z            4
loop_
_atom_site_label
_atom_site_type_symbol
_atom_site_fract_x
_atom_site_fract_y
_atom_site_fract_z
I1 I 0.37639(17) 0.40065(17) 0.86408(10)
N1 N 0.404(2) 0.722(2) 0.8750(12)
C1 C 0.292(3) 0.722(2) 1.1325(19)
H1 H 0.3613 0.7326 1.1772
C2 C 0.475(3) 0.633(3) 0.8674(15)
N2 N 0.617(3) 0.730(2) 0.8660(13)
C3 C 0.315(3) 0.703(2) 1.0492(17)
H2 H 0.3999 0.6935 1.0350
C4 C 0.222(3) 0.698(3) 0.9799(18)
C5 C 0.155(4) 0.725(3) 1.153(2)
H3 H 0.1327 0.7352 1.2112
C6 C 0.514(3) 0.877(3) 0.8783(16)
H4 H 0.4927 0.9580 0.8825
C7 C 0.247(4) 0.671(4) 0.8835(16)
H5 H 0.1866 0.5591 0.8499
H6 H 0.2124 0.7273 0.8568
C8 C 0.091(3) 0.701(3) 0.999(2)
H7 H 0.0267 0.6963 0.9536
C9 C 0.055(3) 0.713(3) 1.084(3)
H8 H -0.0355 0.7128 1.0955
C10 C 0.664(4) 0.893(4) 0.8746(19)
H9 H 0.7582 0.9791 0.8769
C11 C 0.747(3) 0.687(3) 0.863(2)
H10 H 0.7695 0.6782 0.9206
H11 H 0.8357 0.7682 0.8512
H12 H 0.7142 0.5881 0.8167
I2 I 0.2037(2) 0.04179(19) 0.87376(12)
I3 I 0.01741(17) 0.49131(19) 0.63410(10)
N3 N 0.328(2) 0.501(2) 0.6231(13)
C12 C 0.260(3) 0.332(3) 0.6090(16)
H13 H 0.1743 0.3016 0.6411
H14 H 0.3339 0.3141 0.6366
N4 N 0.349(2) 0.722(2) 0.6330(13)
C13 C 0.206(2) 0.225(3) 0.5142(17)
C14 C 0.249(3) 0.583(3) 0.6312(15)
C15 C 0.154(3) 0.266(3) 0.4487(16)
H15 H 0.1608 0.3643 0.4616
C16 C 0.201(3) 0.083(3) 0.494(2)
H16 H 0.2335 0.0537 0.5384
C17 C 0.092(3) 0.153(3) 0.3615(19)
H17 H 0.0494 0.1751 0.3179
C18 C 0.147(3) -0.015(3) 0.407(3)
H18 H 0.1467 -0.1110 0.3918
C19 C 0.094(4) 0.021(3) 0.341(2)
H19 H 0.0597 -0.0481 0.2817
C20 C 0.505(4) 0.753(4) 0.6257(19)
H20 H 0.5925 0.8410 0.6233
C21 C 0.321(4) 0.856(3) 0.636(2)
H21 H 0.2139 0.8204 0.6311
H22 H 0.3581 0.8951 0.5871
H23 H 0.3729 0.9399 0.6924
C22 C 0.472(3) 0.598(5) 0.6238(17)
H24 H 0.5458 0.5685 0.6231
I4 I -0.34802(18) 0.3180(2) 0.62322(12)
loop_
_geom_bond_atom_site_label_1
_geom_bond_atom_site_label_2
_geom_bond_site_symmetry_1
_geom_bond_site_symmetry_2
I1 C2 1_555 1_555
N1 C2 1_555 1_555
C1 H1 1_555 1_555
C2 N2 1_555 1_555
N2 C10 1_555 1_555
C3 C1 1_555 1_555
H2 C3 1_555 1_555
C4 C3 1_555 1_555
C5 C1 1_555 1_555
H3 C5 1_555 1_555
C6 N1 1_555 1_555
H4 C6 1_555 1_555
C7 N1 1_555 1_555
H5 C7 1_555 1_555
H6 C7 1_555 1_555
C8 C4 1_555 1_555
H7 C8 1_555 1_555
C9 C5 1_555 1_555
H8 C9 1_555 1_555
C10 C6 1_555 1_555
H9 C10 1_555 1_555
C11 N2 1_555 1_555
H10 C11 1_555 1_555
H11 C11 1_555 1_555
H12 C11 1_555 1_555
I3 C14 1_555 1_555
N3 C12 1_555 1_555
C12 H13 1_555 1_555
H14 C12 1_555 1_555
N4 C14 1_555 1_555
C13 C12 1_555 1_555
C14 N3 1_555 1_555
C15 C13 1_555 1_555
H15 C15 1_555 1_555
C16 C13 1_555 1_555
H16 C16 1_555 1_555
C17 C15 1_555 1_555
H17 C17 1_555 1_555
C18 C16 1_555 1_555
H18 C18 1_555 1_555
C19 C17 1_555 1_555
H19 C19 1_555 1_555
C20 N4 1_555 1_555
H20 C20 1_555 1_555
C21 N4 1_555 1_555
H21 C21 1_555 1_555
H22 C21 1_555 1_555
H23 C21 1_555 1_555
C22 N3 1_555 1_555
H24 C22 1_555 1_555
C4 C7 1_555 1_555
C8 C9 1_555 1_555
C18 C19 1_555 1_555
C20 C22 1_555 1_555

#END
