
#######################################################################
#
#                 Cambridge Crystallographic Data Centre
#                                CCDC 
#
#######################################################################
#
# If this CIF has been generated from an entry in the Cambridge 
# Structural Database, then it will include bibliographic, chemical, 
# crystal, experimental, refinement or atomic coordinate data resulting 
# from the CCDC's data processing and validation procedures.
#
#######################################################################

data_KEWREL
_chemical_formula_moiety         'C21 H17 I1 O1'
_chemical_name_systematic        
2-Iodo-3,3-dimethyl-1-phenyl-3H-benzo[f]chromene
_symmetry_cell_setting           monoclinic
_symmetry_space_group_name_H-M   'P 21/c'
_symmetry_Int_Tables_number      14
_space_group_name_Hall           '-P 2ybc'
loop_
_symmetry_equiv_pos_site_id
_symmetry_equiv_pos_as_xyz
1 x,y,z
2 -x,1/2+y,1/2-z
3 -x,-y,-z
4 x,1/2-y,1/2+z
_cell_length_a                   9.2280(13)
_cell_length_b                   17.678(2)
_cell_length_c                   10.6082(15)
_cell_angle_alpha                90
_cell_angle_beta                 100.347(2)
_cell_angle_gamma                90
_cell_volume                     1702.4
_exptl_crystal_colour            colorless
_exptl_crystal_description       cuboid
_cell_formula_units_Z            4
loop_
_atom_site_label
_atom_site_type_symbol
_atom_site_fract_x
_atom_site_fract_y
_atom_site_fract_z
C1 C 0.1247(2) 0.18249(11) 0.5682(2)
C2 C 0.0082(2) 0.31624(11) 0.55950(19)
C3 C -0.1217(2) 0.35371(12) 0.5654(2)
C4 C 0.1437(2) 0.35918(12) 0.59087(19)
C5 C 0.1382(3) 0.43404(13) 0.6388(2)
C6 C -0.1377(2) 0.20639(12) 0.4808(2)
C7 C 0.1858(3) 0.14784(13) 0.4720(2)
H1 H 0.1446 0.1562 0.3865
C8 C 0.1849(3) 0.16781(14) 0.6954(2)
H2 H 0.1447 0.1900 0.7607
C9 C 0.2689(3) 0.47735(14) 0.6676(3)
H3 H 0.2647 0.5259 0.7006
C10 C 0.0015(3) 0.46560(13) 0.6539(2)
H4 H -0.0010 0.5133 0.6904
C11 C 0.2836(2) 0.33252(13) 0.5722(2)
H5 H 0.2912 0.2841 0.5398
C12 C -0.1257(3) 0.42715(13) 0.6160(2)
H6 H -0.2153 0.4491 0.6233
C13 C -0.4178(3) 0.22796(16) 0.4274(3)
H7 H -0.4341 0.1880 0.3653
H8 H -0.4891 0.2673 0.4031
H9 H -0.4274 0.2085 0.5100
C14 C -0.0041(2) 0.23395(11) 0.53185(19)
C15 C 0.3069(3) 0.10123(13) 0.5027(3)
H10 H 0.3477 0.0788 0.4379
C16 C -0.2640(2) 0.25984(13) 0.4335(2)
C17 C 0.3057(3) 0.11969(16) 0.7247(3)
H11 H 0.3450 0.1090 0.8098
C18 C 0.4006(3) 0.44966(16) 0.6480(3)
H12 H 0.4851 0.4792 0.6660
C19 C 0.4074(3) 0.37648(16) 0.6007(3)
H13 H 0.4975 0.3572 0.5882
C20 C 0.3673(3) 0.08787(14) 0.6285(3)
H14 H 0.4501 0.0572 0.6487
C21 C -0.2467(3) 0.29344(16) 0.3044(2)
H15 H -0.1533 0.3187 0.3129
H16 H -0.3245 0.3291 0.2770
H17 H -0.2514 0.2537 0.2421
I1 I -0.17783(2) 0.089406(9) 0.469441(18)
O1 O -0.25586(16) 0.32023(9) 0.52861(15)
loop_
_geom_bond_atom_site_label_1
_geom_bond_atom_site_label_2
_geom_bond_site_symmetry_1
_geom_bond_site_symmetry_2
C1 C7 1_555 1_555
C2 C3 1_555 1_555
C3 C12 1_555 1_555
C4 C2 1_555 1_555
C5 C4 1_555 1_555
C6 C14 1_555 1_555
C7 H1 1_555 1_555
C8 C1 1_555 1_555
H2 C8 1_555 1_555
C9 C5 1_555 1_555
H3 C9 1_555 1_555
C10 C5 1_555 1_555
H4 C10 1_555 1_555
C11 C4 1_555 1_555
H5 C11 1_555 1_555
C12 C10 1_555 1_555
H6 C12 1_555 1_555
C13 H7 1_555 1_555
H8 C13 1_555 1_555
H9 C13 1_555 1_555
C14 C1 1_555 1_555
C15 C7 1_555 1_555
H10 C15 1_555 1_555
C16 C6 1_555 1_555
C17 C8 1_555 1_555
H11 C17 1_555 1_555
C18 C9 1_555 1_555
H12 C18 1_555 1_555
C19 C11 1_555 1_555
H13 C19 1_555 1_555
C20 C15 1_555 1_555
H14 C20 1_555 1_555
C21 C16 1_555 1_555
H15 C21 1_555 1_555
H16 C21 1_555 1_555
H17 C21 1_555 1_555
I1 C6 1_555 1_555
O1 C3 1_555 1_555
C2 C14 1_555 1_555
C13 C16 1_555 1_555
C16 O1 1_555 1_555
C17 C20 1_555 1_555
C18 C19 1_555 1_555

#END
