
#######################################################################
#
#                 Cambridge Crystallographic Data Centre
#                                CCDC 
#
#######################################################################
#
# If this CIF has been generated from an entry in the Cambridge 
# Structural Database, then it will include bibliographic, chemical, 
# crystal, experimental, refinement or atomic coordinate data resulting 
# from the CCDC's data processing and validation procedures.
#
#######################################################################

data_KEWRIP
_chemical_formula_moiety         'C27 H22 O1'
_chemical_name_systematic        3,3-Dimethyl-1,8-diphenyl-3H-benzo[f]chromene
_symmetry_cell_setting           orthorhombic
_symmetry_space_group_name_H-M   'P c a 21'
_symmetry_Int_Tables_number      29
_space_group_name_Hall           'P 2c -2ac'
loop_
_symmetry_equiv_pos_site_id
_symmetry_equiv_pos_as_xyz
1 x,y,z
2 -x,-y,1/2+z
3 1/2+x,-y,z
4 1/2-x,y,1/2+z
_cell_length_a                   21.1857(19)
_cell_length_b                   10.1743(10)
_cell_length_c                   8.9862(8)
_cell_angle_alpha                90
_cell_angle_beta                 90
_cell_angle_gamma                90
_cell_volume                     1936.97
_cell_formula_units_Z            4
loop_
_atom_site_label
_atom_site_type_symbol
_atom_site_fract_x
_atom_site_fract_y
_atom_site_fract_z
C1 C 0.49310(12) 0.3700(2) 0.1545(3)
C2 C 0.52280(13) 0.2550(2) 0.1111(3)
C3 C 0.62182(13) 0.3620(3) 0.0752(3)
H1 H 0.6633 0.3609 0.0410
C4 C 0.50998(12) 0.6019(2) 0.2444(3)
H2 H 0.4676 0.6092 0.2697
C5 C 0.39800(13) 0.2447(3) 0.1924(3)
H3 H 0.3543 0.2365 0.1971
C6 C 0.53173(12) 0.4846(2) 0.1769(3)
C7 C 0.58600(13) 0.2519(3) 0.0643(3)
H4 H 0.6032 0.1748 0.0262
C8 C 0.59680(12) 0.4789(3) 0.1380(3)
C9 C 0.42368(12) 0.3628(2) 0.1711(3)
C10 C 0.54960(12) 0.7048(2) 0.2734(3)
H5 H 0.5336 0.7806 0.3173
C11 C 0.38269(12) 0.4798(2) 0.1470(3)
C12 C 0.64686(14) 0.9360(3) 0.2456(3)
H6 H 0.6102 0.9582 0.1945
C13 C 0.43887(13) 0.1244(3) 0.2088(3)
C14 C 0.61437(12) 0.6980(2) 0.2379(3)
C15 C 0.65834(12) 0.8049(3) 0.2824(3)
C16 C 0.63677(12) 0.5866(3) 0.1703(3)
H7 H 0.6793 0.5818 0.1449
C17 C 0.35592(14) 0.6747(3) 0.0095(4)
H8 H 0.3644 0.7325 -0.0681
C18 C 0.33070(12) 0.5028(3) 0.2380(4)
H9 H 0.3216 0.4446 0.3149
C19 C 0.39423(13) 0.5669(3) 0.0314(3)
H10 H 0.4282 0.5524 -0.0320
C20 C 0.29221(13) 0.6112(3) 0.2154(4)
H11 H 0.2577 0.6256 0.2771
C21 C 0.68965(14) 1.0333(3) 0.2845(4)
H12 H 0.6823 1.1199 0.2563
C22 C 0.75422(15) 0.8735(3) 0.4043(4)
H13 H 0.7901 0.8525 0.4591
C23 C 0.74285(16) 1.0021(3) 0.3644(4)
H14 H 0.7712 1.0677 0.3916
C24 C 0.30520(14) 0.6973(3) 0.1017(4)
H15 H 0.2798 0.7707 0.0870
C25 C 0.71246(13) 0.7754(3) 0.3631(4)
H16 H 0.7207 0.6888 0.3897
O1 O 0.49150(8) 0.13784(17) 0.1051(2)
C26 C 0.40534(14) 0.0002(3) 0.1600(4)
H17 H 0.3911 0.0100 0.0592
H18 H 0.3697 -0.0154 0.2237
H19 H 0.4339 -0.0729 0.1663
C27 C 0.46469(17) 0.1126(3) 0.3656(4)
H20 H 0.4913 0.0365 0.3722
H21 H 0.4303 0.1043 0.4346
H22 H 0.4888 0.1897 0.3893
loop_
_geom_bond_atom_site_label_1
_geom_bond_atom_site_label_2
_geom_bond_site_symmetry_1
_geom_bond_site_symmetry_2
C1 C2 1_555 1_555
C2 C7 1_555 1_555
C3 H1 1_555 1_555
C4 H2 1_555 1_555
C5 H3 1_555 1_555
C6 C1 1_555 1_555
C7 C3 1_555 1_555
H4 C7 1_555 1_555
C8 C3 1_555 1_555
C9 C1 1_555 1_555
C10 C4 1_555 1_555
H5 C10 1_555 1_555
C11 C9 1_555 1_555
C12 H6 1_555 1_555
C13 C5 1_555 1_555
C14 C10 1_555 1_555
C15 C12 1_555 1_555
C16 C8 1_555 1_555
H7 C16 1_555 1_555
C17 H8 1_555 1_555
C18 C11 1_555 1_555
H9 C18 1_555 1_555
C19 C11 1_555 1_555
H10 C19 1_555 1_555
C20 C18 1_555 1_555
H11 C20 1_555 1_555
C21 C12 1_555 1_555
H12 C21 1_555 1_555
C22 H13 1_555 1_555
C23 C21 1_555 1_555
H14 C23 1_555 1_555
C24 C17 1_555 1_555
H15 C24 1_555 1_555
C25 C15 1_555 1_555
H16 C25 1_555 1_555
O1 C2 1_555 1_555
C26 C13 1_555 1_555
H17 C26 1_555 1_555
H18 C26 1_555 1_555
H19 C26 1_555 1_555
C27 C13 1_555 1_555
H20 C27 1_555 1_555
H21 C27 1_555 1_555
H22 C27 1_555 1_555
C4 C6 1_555 1_555
C5 C9 1_555 1_555
C6 C8 1_555 1_555
C13 O1 1_555 1_555
C14 C15 1_555 1_555
C14 C16 1_555 1_555
C17 C19 1_555 1_555
C20 C24 1_555 1_555
C22 C23 1_555 1_555
C22 C25 1_555 1_555

#END
