
#######################################################################
#
#                 Cambridge Crystallographic Data Centre
#                                CCDC 
#
#######################################################################
#
# If this CIF has been generated from an entry in the Cambridge 
# Structural Database, then it will include bibliographic, chemical, 
# crystal, experimental, refinement or atomic coordinate data resulting 
# from the CCDC's data processing and validation procedures.
#
#######################################################################

data_KEWROV
_chemical_formula_moiety         'C26 H20 O1'
_chemical_name_systematic        3-Methyl-1,3-diphenyl-3H-benzo[f]chromene
_symmetry_cell_setting           triclinic
_symmetry_space_group_name_H-M   'P -1'
_symmetry_Int_Tables_number      2
_space_group_name_Hall           '-P 1'
loop_
_symmetry_equiv_pos_site_id
_symmetry_equiv_pos_as_xyz
1 x,y,z
2 -x,-y,-z
_cell_length_a                   11.6617(9)
_cell_length_b                   12.7512(10)
_cell_length_c                   14.0326(11)
_cell_angle_alpha                114.625(2)
_cell_angle_beta                 102.174(2)
_cell_angle_gamma                91.132(2)
_cell_volume                     1840.58
_cell_formula_units_Z            4
loop_
_atom_site_label
_atom_site_type_symbol
_atom_site_fract_x
_atom_site_fract_y
_atom_site_fract_z
C1 C 0.3761(3) 0.3890(4) 0.4162(3)
H1 H 0.3285 0.3958 0.4634
C2 C 0.4643(3) 0.3154(3) 0.4066(3)
H2 H 0.4745 0.2729 0.4474
C3 C 0.5361(3) 0.3046(3) 0.3379(3)
H3 H 0.5943 0.2550 0.3328
C4 C 0.5229(3) 0.3683(3) 0.2746(3)
C5 C 0.5929(3) 0.3577(3) 0.1987(3)
C6 C 0.5583(3) 0.4080(3) 0.1290(3)
C7 C 0.4673(3) 0.4797(3) 0.1368(3)
H4 H 0.4480 0.5142 0.0897
C8 C 0.4078(3) 0.4974(3) 0.2153(3)
H5 H 0.3503 0.5479 0.2237
C9 C 0.4313(3) 0.4412(3) 0.2839(3)
C10 C 0.3599(3) 0.4503(3) 0.3570(3)
H6 H 0.3011 0.4993 0.3640
C11 C 0.7015(3) 0.2998(3) 0.1901(3)
C12 C 0.7371(3) 0.2692(3) 0.0986(3)
H7 H 0.8051 0.2326 0.0920
C13 C 0.6718(3) 0.2915(3) 0.0065(3)
C14 C 0.7587(3) 0.3209(3) -0.0487(3)
H8 H 0.7166 0.3419 -0.1035
H9 H 0.7983 0.2545 -0.0812
H10 H 0.8158 0.3848 0.0037
C15 C 0.5769(3) 0.1922(3) -0.0759(3)
C16 C 0.5641(3) 0.0870(3) -0.0702(3)
H11 H 0.6111 0.0764 -0.0133
C17 C 0.4811(3) -0.0026(3) -0.1496(3)
H12 H 0.4741 -0.0737 -0.1462
C18 C 0.4090(3) 0.0121(3) -0.2330(3)
H13 H 0.3521 -0.0480 -0.2845
C19 C 0.4213(3) 0.1162(3) -0.2401(3)
H14 H 0.3741 0.1261 -0.2973
C20 C 0.5039(3) 0.2054(3) -0.1619(3)
H15 H 0.5113 0.2758 -0.1664
C21 C 0.7812(3) 0.2912(3) 0.2837(3)
C22 C 0.8397(3) 0.1929(3) 0.2702(3)
H16 H 0.8224 0.1285 0.2035
C23 C 0.9233(3) 0.1912(4) 0.3557(3)
H17 H 0.9622 0.1258 0.3457
C24 C 0.9490(3) 0.2844(4) 0.4547(3)
H18 H 1.0046 0.2821 0.5119
C25 C 0.8923(3) 0.3819(4) 0.4695(3)
H19 H 0.9097 0.4457 0.5367
C26 C 0.8091(3) 0.3849(3) 0.3841(3)
H20 H 0.7715 0.4512 0.3947
O1 O 0.61624(19) 0.39778(19) 0.04973(19)
C27 C -0.3360(3) 0.1196(4) 0.5893(3)
H21 H -0.4086 0.1143 0.5435
C28 C -0.2385(3) 0.1902(3) 0.5952(3)
H22 H -0.2459 0.2306 0.5527
C29 C -0.1316(3) 0.1994(3) 0.6646(3)
H23 H -0.0680 0.2480 0.6694
C30 C -0.1158(3) 0.1376(3) 0.7281(3)
C31 C -0.0065(3) 0.1452(3) 0.8023(3)
C32 C -0.0073(3) 0.0935(3) 0.8713(3)
C33 C -0.1064(3) 0.0237(3) 0.8640(3)
H24 H -0.1029 -0.0118 0.9104
C34 C -0.2072(3) 0.0085(3) 0.7887(3)
H25 H -0.2716 -0.0408 0.7814
C35 C -0.2164(3) 0.0662(3) 0.7211(3)
C36 C -0.3253(3) 0.0594(3) 0.6494(3)
H26 H -0.3907 0.0124 0.6438
C37 C 0.1097(3) 0.2021(3) 0.8104(3)
C38 C 0.1931(3) 0.2316(3) 0.9019(3)
H27 H 0.2664 0.2675 0.9085
C39 C 0.1730(3) 0.2093(3) 0.9934(3)
C40 C 0.2863(3) 0.1818(3) 1.0513(3)
H28 H 0.2705 0.1640 1.1077
H29 H 0.3454 0.2479 1.0820
H30 H 0.3141 0.1163 1.0006
C41 C 0.1191(3) 0.3065(3) 1.0734(3)
C42 C 0.1077(3) 0.4116(3) 1.0664(3)
H31 H 0.1306 0.4226 1.0113
C43 C 0.0620(3) 0.5007(3) 1.1417(3)
H32 H 0.0561 0.5714 1.1376
C44 C 0.0257(3) 0.4835(3) 1.2222(3)
H33 H -0.0068 0.5419 1.2713
C45 C 0.0377(3) 0.3795(3) 1.2297(3)
H34 H 0.0149 0.3685 1.2848
C46 C 0.0835(3) 0.2918(3) 1.1554(3)
H35 H 0.0906 0.2218 1.1606
C47 C 0.1448(3) 0.2122(3) 0.7182(3)
C48 C 0.2137(3) 0.3103(3) 0.7329(3)
H36 H 0.2291 0.3754 0.7991
C49 C 0.2599(3) 0.3125(3) 0.6499(3)
H37 H 0.3061 0.3787 0.6607
C50 C 0.2370(3) 0.2162(3) 0.5514(3)
H38 H 0.2689 0.2165 0.4962
C51 C 0.1667(3) 0.1199(3) 0.5357(3)
H39 H 0.1500 0.0556 0.4689
C52 C 0.1206(3) 0.1172(3) 0.6174(3)
H40 H 0.0729 0.0513 0.6051
O2 O 0.09188(19) 0.10197(19) 0.94853(19)
loop_
_geom_bond_atom_site_label_1
_geom_bond_atom_site_label_2
_geom_bond_site_symmetry_1
_geom_bond_site_symmetry_2
C1 H1 1_555 1_555
C2 C1 1_555 1_555
H2 C2 1_555 1_555
C3 C2 1_555 1_555
H3 C3 1_555 1_555
C4 C3 1_555 1_555
C5 C4 1_555 1_555
C6 C5 1_555 1_555
C7 C6 1_555 1_555
H4 C7 1_555 1_555
C8 C7 1_555 1_555
H5 C8 1_555 1_555
C9 C4 1_555 1_555
C10 C1 1_555 1_555
H6 C10 1_555 1_555
C11 C5 1_555 1_555
C12 C11 1_555 1_555
H7 C12 1_555 1_555
C13 C12 1_555 1_555
C14 C13 1_555 1_555
H8 C14 1_555 1_555
H9 C14 1_555 1_555
H10 C14 1_555 1_555
C15 C13 1_555 1_555
C16 C15 1_555 1_555
H11 C16 1_555 1_555
C17 C16 1_555 1_555
H12 C17 1_555 1_555
C18 C17 1_555 1_555
H13 C18 1_555 1_555
C19 C18 1_555 1_555
H14 C19 1_555 1_555
C20 C15 1_555 1_555
H15 C20 1_555 1_555
C21 C11 1_555 1_555
C22 C21 1_555 1_555
H16 C22 1_555 1_555
C23 C22 1_555 1_555
H17 C23 1_555 1_555
C24 C23 1_555 1_555
H18 C24 1_555 1_555
C25 C24 1_555 1_555
H19 C25 1_555 1_555
C26 C21 1_555 1_555
H20 C26 1_555 1_555
O1 C6 1_555 1_555
C27 H21 1_555 1_555
C28 C27 1_555 1_555
H22 C28 1_555 1_555
C29 C28 1_555 1_555
H23 C29 1_555 1_555
C30 C29 1_555 1_555
C31 C30 1_555 1_555
C32 C31 1_555 1_555
C33 C32 1_555 1_555
H24 C33 1_555 1_555
C34 C33 1_555 1_555
H25 C34 1_555 1_555
C35 C30 1_555 1_555
C36 C27 1_555 1_555
H26 C36 1_555 1_555
C37 C31 1_555 1_555
C38 C37 1_555 1_555
H27 C38 1_555 1_555
C39 C38 1_555 1_555
C40 C39 1_555 1_555
H28 C40 1_555 1_555
H29 C40 1_555 1_555
H30 C40 1_555 1_555
C41 C39 1_555 1_555
C42 C41 1_555 1_555
H31 C42 1_555 1_555
C43 C42 1_555 1_555
H32 C43 1_555 1_555
C44 C43 1_555 1_555
H33 C44 1_555 1_555
C45 C44 1_555 1_555
H34 C45 1_555 1_555
C46 C41 1_555 1_555
H35 C46 1_555 1_555
C47 C37 1_555 1_555
C48 C47 1_555 1_555
H36 C48 1_555 1_555
C49 C48 1_555 1_555
H37 C49 1_555 1_555
C50 C49 1_555 1_555
H38 C50 1_555 1_555
C51 C50 1_555 1_555
H39 C51 1_555 1_555
C52 C47 1_555 1_555
H40 C52 1_555 1_555
O2 C32 1_555 1_555
C8 C9 1_555 1_555
C9 C10 1_555 1_555
C13 O1 1_555 1_555
C19 C20 1_555 1_555
C25 C26 1_555 1_555
C34 C35 1_555 1_555
C35 C36 1_555 1_555
C39 O2 1_555 1_555
C45 C46 1_555 1_555
C51 C52 1_555 1_555

#END
