
#######################################################################
#
#                 Cambridge Crystallographic Data Centre
#                                CCDC 
#
#######################################################################
#
# If this CIF has been generated from an entry in the Cambridge 
# Structural Database, then it will include bibliographic, chemical, 
# crystal, experimental, refinement or atomic coordinate data resulting 
# from the CCDC's data processing and validation procedures.
#
#######################################################################

data_KEWWEP
_chemical_formula_moiety         'C13 H16 N2 O1 S1'
_chemical_name_systematic        
N-Benzoyl-4,4-dimethyl-2-methylamino-2-thiazoline
_symmetry_cell_setting           monoclinic
_symmetry_space_group_name_H-M   'C 2/c'
_symmetry_Int_Tables_number      15
_space_group_name_Hall           '-C 2yn'
loop_
_symmetry_equiv_pos_site_id
_symmetry_equiv_pos_as_xyz
1 x,y,z
2 1/2+x,1/2+y,z
3 -x,y,1/2-z
4 1/2-x,1/2+y,1/2-z
5 -x,-y,-z
6 1/2-x,1/2-y,-z
7 x,-y,1/2+z
8 1/2+x,1/2-y,1/2+z
_cell_length_a                   21.908(2)
_cell_length_b                   13.9319(15)
_cell_length_c                   8.7971(9)
_cell_angle_alpha                90
_cell_angle_beta                 101.952(2)
_cell_angle_gamma                90
_cell_volume                     2626.84
_exptl_crystal_colour            colorless
_exptl_crystal_description       needle
_cell_formula_units_Z            8
loop_
_atom_site_label
_atom_site_type_symbol
_atom_site_fract_x
_atom_site_fract_y
_atom_site_fract_z
S1 S 0.12985(2) -0.01381(4) 0.64259(6)
O1 O 0.21096(6) -0.11632(8) 0.53197(16)
N1 N 0.22802(5) 0.04325(8) 0.50986(14)
N2 N 0.15455(6) 0.15671(9) 0.54371(15)
C1 C 0.30845(7) -0.07501(11) 0.47906(18)
C2 C 0.36167(8) -0.02761(14) 0.5517(2)
H1 H 0.3610(9) 0.0203(14) 0.614(2)
C3 C 0.41900(9) -0.05677(17) 0.5270(3)
H2 H 0.4530(10) -0.0235(15) 0.582(3)
C4 C 0.42302(11) -0.13206(17) 0.4296(3)
H3 H 0.4599(11) -0.1473(15) 0.410(3)
C5 C 0.37061(11) -0.18082(16) 0.3597(3)
H4 H 0.3744(11) -0.2356(17) 0.294(3)
C6 C 0.31318(9) -0.15339(13) 0.3851(2)
H5 H 0.2746(9) -0.1849(14) 0.340(2)
C7 C 0.24526(7) -0.05195(11) 0.50831(17)
C8 C 0.25766(8) 0.11931(13) 0.4347(2)
H6 H 0.2859(8) 0.0904(14) 0.377(2)
H7 H 0.2776(8) 0.1648(14) 0.512(2)
H8 H 0.2262(9) 0.1561(13) 0.359(2)
C9 C 0.17338(6) 0.07048(11) 0.55837(16)
C10 C 0.08770(11) 0.08628(18) 0.7012(3)
H9 H 0.0442(10) 0.0698(16) 0.694(2)
H10 H 0.1057(11) 0.1021(17) 0.800(3)
C11 C 0.09450(7) 0.16931(12) 0.59281(19)
C12 C 0.04320(10) 0.1649(2) 0.4477(3)
H11 H 0.0045(10) 0.1715(14) 0.479(2)
H12 H 0.0495(11) 0.2207(19) 0.382(3)
H13 H 0.0460(11) 0.1044(19) 0.397(3)
C13 C 0.09456(13) 0.2660(2) 0.6726(4)
H14 H 0.0581(11) 0.2698(15) 0.715(3)
H15 H 0.1271(11) 0.2647(15) 0.760(3)
H16 H 0.0967(15) 0.320(2) 0.595(4)
loop_
_geom_bond_atom_site_label_1
_geom_bond_atom_site_label_2
_geom_bond_site_symmetry_1
_geom_bond_site_symmetry_2
S1 C9 1_555 1_555
O1 C7 1_555 1_555
N1 C7 1_555 1_555
N2 C9 1_555 1_555
C1 C2 1_555 1_555
C2 H1 1_555 1_555
C3 C2 1_555 1_555
H2 C3 1_555 1_555
C4 C3 1_555 1_555
H3 C4 1_555 1_555
C5 C4 1_555 1_555
H4 C5 1_555 1_555
C6 C1 1_555 1_555
H5 C6 1_555 1_555
C7 C1 1_555 1_555
C8 N1 1_555 1_555
H6 C8 1_555 1_555
H7 C8 1_555 1_555
H8 C8 1_555 1_555
C9 N1 1_555 1_555
C10 S1 1_555 1_555
H9 C10 1_555 1_555
H10 C10 1_555 1_555
C11 N2 1_555 1_555
C12 C11 1_555 1_555
H11 C12 1_555 1_555
H12 C12 1_555 1_555
H13 C12 1_555 1_555
C13 C11 1_555 1_555
H14 C13 1_555 1_555
H15 C13 1_555 1_555
H16 C13 1_555 1_555
C5 C6 1_555 1_555
C10 C11 1_555 1_555

#END
