
#######################################################################
#
#                 Cambridge Crystallographic Data Centre
#                                CCDC 
#
#######################################################################
#
# If this CIF has been generated from an entry in the Cambridge 
# Structural Database, then it will include bibliographic, chemical, 
# crystal, experimental, refinement or atomic coordinate data resulting 
# from the CCDC's data processing and validation procedures.
#
#######################################################################

data_KEXBOH
_chemical_formula_moiety         'C23 H28 F1 N3'
_chemical_name_systematic        
5-(4-fluorophenyl)-2,2,11,11-tetramethyl-6,8-diazatetracyclo[10.2.1.0^1,10^.0^4,9^]pentadeca-4,6,8-trien-7-amine
_symmetry_cell_setting           triclinic
_symmetry_space_group_name_H-M   'P -1'
_symmetry_Int_Tables_number      2
_space_group_name_Hall           '-P 1'
loop_
_symmetry_equiv_pos_site_id
_symmetry_equiv_pos_as_xyz
1 x,y,z
2 -x,-y,-z
_cell_length_a                   6.6085(9)
_cell_length_b                   11.7527(16)
_cell_length_c                   13.4065(17)
_cell_angle_alpha                86.229(3)
_cell_angle_beta                 83.094(4)
_cell_angle_gamma                77.558(4)
_cell_volume                     1008.57
_exptl_crystal_colour            colorless
_cell_formula_units_Z            2
loop_
_atom_site_label
_atom_site_type_symbol
_atom_site_fract_x
_atom_site_fract_y
_atom_site_fract_z
N1 N 0.1100(3) 0.61820(16) 0.53988(13)
C1 C 0.2927(3) 0.73763(19) 0.61828(15)
C2 C 0.2549(3) 0.68336(18) 0.53470(15)
N2 N 0.0210(3) 0.65780(16) 0.71353(13)
C3 C 0.1670(3) 0.72228(19) 0.70705(15)
C4 C 0.3661(3) 0.69491(19) 0.43258(15)
N3 N -0.1404(3) 0.53906(18) 0.63588(15)
H1 H -0.2146 0.5300 0.6919
H2 H -0.1569 0.5049 0.5835
F1 F 0.6560(3) 0.72137(16) 0.14693(11)
C5 C 0.1792(3) 0.7815(2) 0.80156(16)
H3 H 0.0413 0.8306 0.8194
C6 C 0.4489(4) 0.8144(2) 0.61407(17)
H4 H 0.4675 0.8475 0.5462
H5 H 0.5819 0.7668 0.6289
C7 C 0.0021(3) 0.60699(19) 0.63003(16)
C8 C 0.6784(4) 0.6754(2) 0.31778(18)
H6 H 0.8230 0.6565 0.3055
C9 C 0.5812(4) 0.6679(2) 0.41391(17)
H7 H 0.6611 0.6443 0.4671
C10 C 0.3387(3) 0.8622(2) 0.79365(17)
C11 C 0.3473(4) 0.7383(2) 0.25538(17)
H8 H 0.2694 0.7624 0.2016
C12 C 0.2509(4) 0.7293(2) 0.35166(16)
H9 H 0.1061 0.7466 0.3627
C13 C 0.3859(4) 0.9139(2) 0.68744(18)
C14 C 0.5589(4) 0.7110(2) 0.24080(17)
C15 C 0.2330(4) 0.6973(2) 0.89615(17)
C16 C 0.3939(4) 0.7538(3) 0.93716(18)
H10 H 0.4764 0.7031 0.9851
C17 C 0.2576(5) 0.9502(2) 0.8778(2)
H11 H 0.3342 1.0125 0.8714
H12 H 0.1104 0.9838 0.8763
C18 C 0.5230(4) 0.7850(2) 0.84138(19)
H13 H 0.5883 0.7174 0.8025
H14 H 0.6267 0.8278 0.8541
C19 C 0.5689(5) 0.9763(3) 0.6810(2)
H15 H 0.6899 0.9227 0.7011
H16 H 0.5332 1.0407 0.7248
H17 H 0.5980 1.0045 0.6131
C20 C 0.1942(5) 1.0006(2) 0.6550(2)
H18 H 0.0786 0.9625 0.6590
H19 H 0.2242 1.0284 0.5871
H20 H 0.1598 1.0652 0.6986
C21 C 0.3360(6) 0.5716(3) 0.8676(2)
H21 H 0.3643 0.5243 0.9275
H22 H 0.4642 0.5716 0.8255
H23 H 0.2438 0.5405 0.8320
C22 C 0.2969(6) 0.8751(3) 0.9751(2)
H24 H 0.3916 0.9033 1.0125
H25 H 0.1674 0.8750 1.0177
C23 C 0.0402(5) 0.6930(4) 0.9699(2)
H26 H 0.0788 0.6412 1.0261
H27 H -0.0598 0.6652 0.9368
H28 H -0.0199 0.7697 0.9931
loop_
_geom_bond_atom_site_label_1
_geom_bond_atom_site_label_2
_geom_bond_site_symmetry_1
_geom_bond_site_symmetry_2
N1 C2 1_555 1_555
C1 C2 1_555 1_555
C2 C4 1_555 1_555
N2 C3 1_555 1_555
C3 C1 1_555 1_555
C4 C9 1_555 1_555
N3 H1 1_555 1_555
H2 N3 1_555 1_555
F1 C14 1_555 1_555
C5 C3 1_555 1_555
H3 C5 1_555 1_555
C6 C1 1_555 1_555
H4 C6 1_555 1_555
H5 C6 1_555 1_555
C7 N1 1_555 1_555
C8 H6 1_555 1_555
C9 C8 1_555 1_555
H7 C9 1_555 1_555
C10 C5 1_555 1_555
C11 H8 1_555 1_555
C12 C4 1_555 1_555
H9 C12 1_555 1_555
C13 C6 1_555 1_555
C14 C8 1_555 1_555
C15 C5 1_555 1_555
C16 C15 1_555 1_555
H10 C16 1_555 1_555
C17 C10 1_555 1_555
H11 C17 1_555 1_555
H12 C17 1_555 1_555
C18 C10 1_555 1_555
H13 C18 1_555 1_555
H14 C18 1_555 1_555
C19 C13 1_555 1_555
H15 C19 1_555 1_555
H16 C19 1_555 1_555
H17 C19 1_555 1_555
C20 C13 1_555 1_555
H18 C20 1_555 1_555
H19 C20 1_555 1_555
H20 C20 1_555 1_555
C21 C15 1_555 1_555
H21 C21 1_555 1_555
H22 C21 1_555 1_555
H23 C21 1_555 1_555
C22 C16 1_555 1_555
H24 C22 1_555 1_555
H25 C22 1_555 1_555
C23 C15 1_555 1_555
H26 C23 1_555 1_555
H27 C23 1_555 1_555
H28 C23 1_555 1_555
N2 C7 1_555 1_555
N3 C7 1_555 1_555
C10 C13 1_555 1_555
C11 C12 1_555 1_555
C11 C14 1_555 1_555
C16 C18 1_555 1_555
C17 C22 1_555 1_555

#END
