
#######################################################################
#
#                 Cambridge Crystallographic Data Centre
#                                CCDC 
#
#######################################################################
#
# If this CIF has been generated from an entry in the Cambridge 
# Structural Database, then it will include bibliographic, chemical, 
# crystal, experimental, refinement or atomic coordinate data resulting 
# from the CCDC's data processing and validation procedures.
#
#######################################################################

data_KEXFEB
_chemical_formula_moiety         'C16 H10 F3 N1 O1'
_chemical_name_systematic        
8-(trifluoromethyl)-5,11-dihydro[2]benzopyrano[4,3-b]indole
_symmetry_cell_setting           monoclinic
_symmetry_space_group_name_H-M   'P 21/c'
_symmetry_Int_Tables_number      14
_space_group_name_Hall           '-P 2ybc'
loop_
_symmetry_equiv_pos_site_id
_symmetry_equiv_pos_as_xyz
1 x,y,z
2 -x,1/2+y,1/2-z
3 -x,-y,-z
4 x,1/2-y,1/2+z
_cell_length_a                   13.377(3)
_cell_length_b                   15.923(4)
_cell_length_c                   6.0040(12)
_cell_angle_alpha                90
_cell_angle_beta                 97.949(19)
_cell_angle_gamma                90
_cell_volume                     1266.58
_exptl_crystal_colour            colorless
_exptl_crystal_description       block
_cell_formula_units_Z            4
loop_
_atom_site_label
_atom_site_type_symbol
_atom_site_fract_x
_atom_site_fract_y
_atom_site_fract_z
F1 F -0.4062(3) 0.5657(3) 0.4934(6)
F2 F -0.4652(3) 0.6744(3) 0.6197(10)
F3 F -0.4755(2) 0.5607(2) 0.7828(6)
O1 O 0.0091(2) 0.59517(19) 0.6602(4)
N1 N -0.0393(3) 0.6678(2) 1.1941(6)
H1 H -0.0209 0.6874 1.3270
C1 C 0.1050(3) 0.5535(3) 0.7205(7)
H2 H 0.1383 0.5490 0.5874
H3 H 0.0926 0.4970 0.7704
C2 C 0.1751(4) 0.5973(3) 0.9024(7)
C3 C 0.2784(4) 0.5935(3) 0.9114(8)
H4 H 0.3065 0.5676 0.7958
C4 C 0.3402(4) 0.6277(4) 1.0904(9)
H5 H 0.4098 0.6246 1.0945
C5 C 0.3004(4) 0.6664(3) 1.2641(9)
H6 H 0.3427 0.6879 1.3868
C6 C 0.1967(4) 0.6727(3) 1.2528(8)
H7 H 0.1692 0.7009 1.3656
C7 C 0.1333(4) 0.6375(3) 1.0757(7)
C8 C 0.0245(4) 0.6400(3) 1.0459(7)
C9 C -0.0317(4) 0.6173(3) 0.8508(7)
C10 C -0.1356(3) 0.6258(3) 0.8701(6)
C11 C -0.1374(4) 0.6585(3) 1.0909(7)
C12 C -0.2280(4) 0.6739(3) 1.1722(7)
H8 H -0.2288 0.6956 1.3158
C13 C -0.3163(4) 0.6563(3) 1.0349(8)
H9 H -0.3775 0.6664 1.0871
C14 C -0.3167(4) 0.6234(3) 0.8177(7)
C15 C -0.2263(4) 0.6079(3) 0.7355(7)
H10 H -0.2265 0.5858 0.5921
C16 C -0.4141(4) 0.6058(4) 0.6788(10)
loop_
_geom_bond_atom_site_label_1
_geom_bond_atom_site_label_2
_geom_bond_site_symmetry_1
_geom_bond_site_symmetry_2
F1 C16 1_555 1_555
F2 C16 1_555 1_555
F3 C16 1_555 1_555
O1 C1 1_555 1_555
N1 H1 1_555 1_555
C1 H2 1_555 1_555
H3 C1 1_555 1_555
C2 C1 1_555 1_555
C3 C2 1_555 1_555
H4 C3 1_555 1_555
C4 C3 1_555 1_555
H5 C4 1_555 1_555
C5 C4 1_555 1_555
H6 C5 1_555 1_555
C6 C5 1_555 1_555
H7 C6 1_555 1_555
C7 C2 1_555 1_555
C8 N1 1_555 1_555
C9 O1 1_555 1_555
C10 C9 1_555 1_555
C11 N1 1_555 1_555
C12 C11 1_555 1_555
H8 C12 1_555 1_555
C13 C12 1_555 1_555
H9 C13 1_555 1_555
C14 C13 1_555 1_555
C15 C10 1_555 1_555
H10 C15 1_555 1_555
C16 C14 1_555 1_555
C6 C7 1_555 1_555
C7 C8 1_555 1_555
C8 C9 1_555 1_555
C10 C11 1_555 1_555
C14 C15 1_555 1_555

#END
