
#######################################################################
#
#                 Cambridge Crystallographic Data Centre
#                                CCDC 
#
#######################################################################
#
# If this CIF has been generated from an entry in the Cambridge 
# Structural Database, then it will include bibliographic, chemical, 
# crystal, experimental, refinement or atomic coordinate data resulting 
# from the CCDC's data processing and validation procedures.
#
#######################################################################

data_KEXFAX
_chemical_formula_moiety         'C25 H23 I1 O4'
_chemical_name_systematic        
'6-iodotricyclo[8.2.2.2^4,7^]hexadeca-1(12),4,6,10,13,15-hexaen-5-yl 3,5-dimethoxybenzoate'
_symmetry_cell_setting           orthorhombic
_symmetry_space_group_name_H-M   'P 21 21 21'
_symmetry_Int_Tables_number      19
_space_group_name_Hall           'P 2ac 2ab'
loop_
_symmetry_equiv_pos_site_id
_symmetry_equiv_pos_as_xyz
1 x,y,z
2 1/2-x,-y,1/2+z
3 -x,1/2+y,1/2-z
4 1/2+x,1/2-y,-z
_cell_length_a                   8.0234(13)
_cell_length_b                   11.7807(19)
_cell_length_c                   22.585(4)
_cell_angle_alpha                90
_cell_angle_beta                 90
_cell_angle_gamma                90
_cell_volume                     2134.76
_exptl_crystal_colour            colorless
_exptl_crystal_description       Plate
_cell_formula_units_Z            4
loop_
_atom_site_label
_atom_site_type_symbol
_atom_site_fract_x
_atom_site_fract_y
_atom_site_fract_z
I1 I 0.19898(8) 0.34138(5) 0.72488(2)
C1 C 0.8115(11) 0.4960(6) 0.8274(3)
H1 H 0.8915 0.4570 0.8056
C2 C 0.3160(10) 0.4192(5) 0.6518(3)
C3 C 0.5374(11) 0.5861(6) 0.8347(3)
H2 H 0.4376 0.6071 0.8169
C4 C 0.1911(14) 0.6903(6) 0.6676(4)
H3 H 0.2120 0.7128 0.7063
C5 C 0.7254(11) 0.5893(6) 0.9179(3)
H4 H 0.7491 0.6112 0.9565
C6 C 0.5710(11) 0.6168(6) 0.8928(3)
C7 C 0.8413(9) 0.5304(6) 0.8860(3)
C8 C 0.4796(11) 0.5159(7) 0.5584(4)
H5 H 0.5434 0.5402 0.5264
O1 O 0.9899(8) 0.5058(6) 0.9146(2)
C9 C 0.5169(10) 0.5551(7) 0.6156(4)
C10 C 0.3511(10) 0.4429(6) 0.5492(3)
H6 H 0.3292 0.4187 0.5108
C11 C 0.2508(10) 0.4026(6) 0.5951(3)
C12 C 1.1060(12) 0.4314(8) 0.8885(4)
H7 H 1.2008 0.4233 0.9140
H8 H 1.1412 0.4616 0.8510
H9 H 1.0551 0.3586 0.8825
C13 C 0.0314(10) 0.5810(7) 0.5982(4)
C14 C 0.2887(12) 0.7314(6) 0.6219(5)
C15 C 0.4655(12) 0.7685(8) 0.6346(6)
H10 H 0.4723 0.7951 0.6752
H11 H 0.4936 0.8316 0.6088
C16 C 0.4427(10) 0.4939(6) 0.6610(3)
C17 C 0.6557(9) 0.5231(5) 0.8031(3)
C18 C 0.1054(12) 0.6464(8) 0.5533(4)
H12 H 0.0653 0.6409 0.5148
C19 C 0.0613(10) 0.6149(7) 0.6554(4)
H13 H -0.0050 0.5877 0.6860
C20 C 0.2362(13) 0.7182(7) 0.5653(4)
H14 H 0.2882 0.7576 0.5348
O2 O 0.4813(7) 0.5259(4) 0.7199(2)
O3 O 0.7102(8) 0.4178(5) 0.7164(2)
O4 O 0.4672(8) 0.6736(5) 0.9292(2)
C21 C 0.5978(10) 0.6696(7) 0.6252(4)
H15 H 0.6667 0.6876 0.5912
H16 H 0.6699 0.6656 0.6596
C22 C 0.6249(10) 0.4847(6) 0.7436(3)
C23 C 0.0734(11) 0.3688(7) 0.5830(4)
H17 H 0.0406 0.3117 0.6117
H18 H 0.0675 0.3345 0.5441
C24 C 0.3267(12) 0.7256(7) 0.9040(4)
H19 H 0.2624 0.7617 0.9345
H20 H 0.2598 0.6693 0.8846
H21 H 0.3619 0.7814 0.8757
C25 C -0.0528(13) 0.4685(8) 0.5858(5)
H22 H -0.1120 0.4733 0.5485
H23 H -0.1339 0.4534 0.6167
loop_
_geom_bond_atom_site_label_1
_geom_bond_atom_site_label_2
_geom_bond_site_symmetry_1
_geom_bond_site_symmetry_2
I1 C2 1_555 1_555
C1 H1 1_555 1_555
C2 C11 1_555 1_555
C3 H2 1_555 1_555
C4 H3 1_555 1_555
C5 H4 1_555 1_555
C6 C3 1_555 1_555
C7 C1 1_555 1_555
C8 H5 1_555 1_555
O1 C7 1_555 1_555
C9 C8 1_555 1_555
C10 C8 1_555 1_555
H6 C10 1_555 1_555
C11 C10 1_555 1_555
C12 O1 1_555 1_555
H7 C12 1_555 1_555
H8 C12 1_555 1_555
H9 C12 1_555 1_555
C13 C18 1_555 1_555
C14 C4 1_555 1_555
C15 C14 1_555 1_555
H10 C15 1_555 1_555
H11 C15 1_555 1_555
C16 C2 1_555 1_555
C17 C1 1_555 1_555
C18 H12 1_555 1_555
C19 C4 1_555 1_555
H13 C19 1_555 1_555
C20 C14 1_555 1_555
H14 C20 1_555 1_555
O2 C16 1_555 1_555
O3 C22 1_555 1_555
O4 C6 1_555 1_555
C21 C9 1_555 1_555
H15 C21 1_555 1_555
H16 C21 1_555 1_555
C22 C17 1_555 1_555
C23 C11 1_555 1_555
H17 C23 1_555 1_555
H18 C23 1_555 1_555
C24 O4 1_555 1_555
H19 C24 1_555 1_555
H20 C24 1_555 1_555
H21 C24 1_555 1_555
C25 C13 1_555 1_555
H22 C25 1_555 1_555
H23 C25 1_555 1_555
C3 C17 1_555 1_555
C5 C6 1_555 1_555
C5 C7 1_555 1_555
C9 C16 1_555 1_555
C13 C19 1_555 1_555
C15 C21 1_555 1_555
C18 C20 1_555 1_555
O2 C22 1_555 1_555
C23 C25 1_555 1_555

#END
