
#######################################################################
#
#                 Cambridge Crystallographic Data Centre
#                                CCDC 
#
#######################################################################
#
# If this CIF has been generated from an entry in the Cambridge 
# Structural Database, then it will include bibliographic, chemical, 
# crystal, experimental, refinement or atomic coordinate data resulting 
# from the CCDC's data processing and validation procedures.
#
#######################################################################

data_KEXLUU10
_chemical_formula_moiety         'C25 H31 N3 O6'
_chemical_name_systematic        
5,6,7,7a,9,10,14b,14c-Octahydro-4-(2,3-O-(isopropylidene)-\b-D-ribofuranosyl)cyclopenta(4,5)pyrimido(5',4':3,4)pyrrolo(2,1-a)isoquinoline-1,3(2H,4H)-dione
_symmetry_cell_setting           tetragonal
_symmetry_space_group_name_H-M   'P 43 21 2'
_symmetry_Int_Tables_number      96
_space_group_name_Hall           'P 4nw 2abw'
loop_
_symmetry_equiv_pos_site_id
_symmetry_equiv_pos_as_xyz
1 x,y,z
2 1/2-y,1/2+x,3/4+z
3 -x,-y,1/2+z
4 1/2+y,1/2-x,1/4+z
5 y,x,-z
6 1/2+x,1/2-y,1/4-z
7 -y,-x,1/2-z
8 1/2-x,1/2+y,3/4-z
_cell_length_a                   12.577(2)
_cell_length_b                   12.577(2)
_cell_length_c                   29.893(4)
_cell_angle_alpha                90
_cell_angle_beta                 90
_cell_angle_gamma                90
_cell_volume                     4728.5
_exptl_crystal_colour            'slightly yellow'
_cell_formula_units_Z            8
loop_
_atom_site_label
_atom_site_type_symbol
_atom_site_fract_x
_atom_site_fract_y
_atom_site_fract_z
N1 N 0.2614(2) -0.0796(2) 0.58827(9)
C1 C 0.3541(3) -0.1296(3) 0.5999(1)
N2 N 0.3451(2) -0.2369(2) 0.61185(9)
C2 C 0.2544(3) -0.2876(3) 0.6242(1)
C3 C 0.1539(3) -0.2252(3) 0.6200(1)
C4 C 0.1588(3) -0.1354(3) 0.5856(1)
C5 C 0.1334(3) -0.1731(3) 0.5380(1)
C6 C 0.0127(3) -0.1702(4) 0.5363(1)
C7 C -0.0155(3) -0.0678(3) 0.5607(1)
C8 C 0.0623(3) -0.0646(3) 0.5998(1)
N3 N 0.0188(2) -0.1154(2) 0.64071(8)
C9 C -0.0329(3) -0.0412(3) 0.6717(1)
C10 C 0.0438(3) 0.0468(3) 0.6875(1)
C11 C 0.1498(3) 0.0003(3) 0.70035(9)
C12 C 0.2222(3) 0.0651(4) 0.7239(1)
C13 C 0.3187(4) 0.0253(5) 0.7384(1)
C14 C 0.3439(3) -0.0807(4) 0.7308(1)
C15 C 0.2740(3) -0.1433(3) 0.7072(1)
C16 C 0.1782(3) -0.1035(3) 0.69039(9)
C17 C 0.1066(2) -0.1741(3) 0.6625(1)
O1 O 0.4409(2) -0.0882(2) 0.59946(8)
O2 O 0.2561(2) -0.3792(2) 0.6373(1)
C18 C 0.2684(3) 0.0282(3) 0.5709(1)
C19 C 0.3067(3) 0.1138(3) 0.6036(1)
C20 C 0.3750(3) 0.1876(3) 0.5757(1)
C21 C 0.3829(3) 0.1371(3) 0.5293(1)
C22 C 0.4963(4) 0.1218(4) 0.5130(1)
C23 C 0.2477(4) 0.2849(3) 0.6121(1)
C24 C 0.1541(6) 0.3525(6) 0.6006(3)
C25 C 0.3020(7) 0.3265(6) 0.6524(2)
O3 O 0.3384(2) 0.0314(2) 0.53342(7)
O4 O 0.2185(2) 0.1778(2) 0.61695(9)
O5 O 0.3166(3) 0.2835(2) 0.5742(1)
O6 O 0.5617(2) 0.0689(3) 0.5450(1)
H1 H 0.409(3) -0.281(3) 0.616(1)
H2 H 0.112(3) -0.277(3) 0.610(1)
H3 H 0.167(3) -0.243(3) 0.534(1)
H4 H 0.172(3) -0.125(3) 0.517(1)
H5 H -0.011(3) -0.224(4) 0.551(1)
H6 H -0.010(3) -0.188(3) 0.506(1)
H7 H -0.086(3) -0.059(3) 0.572(1)
H8 H -0.001(3) -0.001(4) 0.542(1)
H9 H 0.080(3) -0.003(3) 0.606(1)
H10 H -0.059(3) -0.087(3) 0.695(1)
H11 H -0.088(3) -0.003(2) 0.658(1)
H12 H 0.000(3) 0.078(3) 0.717(1)
H13 H 0.067(3) 0.099(3) 0.662(1)
H14 H 0.202(3) 0.128(3) 0.732(1)
H15 H 0.366(3) 0.074(3) 0.753(1)
H16 H 0.401(4) -0.115(3) 0.746(1)
H17 H 0.288(3) -0.221(3) 0.704(1)
H18 H 0.079(2) -0.229(3) 0.6815(9)
H19 H 0.191(2) 0.051(2) 0.5619(8)
H20 H 0.345(4) 0.078(2) 0.627(1)
H21 H 0.446(5) 0.206(4) 0.590(2)
H22 H 0.332(3) 0.182(3) 0.506(1)
H23 H 0.523(3) 0.197(4) 0.506(1)
H24 H 0.493(3) 0.085(3) 0.485(1)
H25 H 0.115(5) 0.330(4) 0.580(2)
H26 H 0.166(9) 0.44(1) 0.590(4)
H27 H 0.110(5) 0.360(5) 0.622(2)
H28 H 0.365(5) 0.292(5) 0.657(2)
H29 H 0.262(3) 0.315(3) 0.675(1)
H30 H 0.322(5) 0.410(6) 0.655(2)
H31 H 0.515(5) 0.001(5) 0.563(2)
loop_
_geom_bond_atom_site_label_1
_geom_bond_atom_site_label_2
_geom_bond_site_symmetry_1
_geom_bond_site_symmetry_2
N1 C1 1_555 1_555
C1 N2 1_555 1_555
N2 C2 1_555 1_555
C2 C3 1_555 1_555
C3 C4 1_555 1_555
C4 N1 1_555 1_555
C5 C4 1_555 1_555
C6 C5 1_555 1_555
C7 C6 1_555 1_555
C8 C4 1_555 1_555
N3 C8 1_555 1_555
C9 N3 1_555 1_555
C10 C9 1_555 1_555
C11 C10 1_555 1_555
C12 C11 1_555 1_555
C13 C12 1_555 1_555
C14 C13 1_555 1_555
C15 C14 1_555 1_555
C16 C11 1_555 1_555
C17 C3 1_555 1_555
O1 C1 1_555 1_555
O2 C2 1_555 1_555
C18 N1 1_555 1_555
C19 C18 1_555 1_555
C20 C19 1_555 1_555
C21 C20 1_555 1_555
C22 C21 1_555 1_555
C23 C24 1_555 1_555
C24 H25 1_555 1_555
C25 C23 1_555 1_555
O3 C18 1_555 1_555
O4 C19 1_555 1_555
O5 C20 1_555 1_555
O6 C22 1_555 1_555
H1 N2 1_555 1_555
H2 C3 1_555 1_555
H3 C5 1_555 1_555
H4 C5 1_555 1_555
H5 C6 1_555 1_555
H6 C6 1_555 1_555
H7 C7 1_555 1_555
H8 C7 1_555 1_555
H9 C8 1_555 1_555
H10 C9 1_555 1_555
H11 C9 1_555 1_555
H12 C10 1_555 1_555
H13 C10 1_555 1_555
H14 C12 1_555 1_555
H15 C13 1_555 1_555
H16 C14 1_555 1_555
H17 C15 1_555 1_555
H18 C17 1_555 1_555
H19 C18 1_555 1_555
H20 C19 1_555 1_555
H21 C20 1_555 1_555
H22 C21 1_555 1_555
H23 C22 1_555 1_555
H24 C22 1_555 1_555
H26 C24 1_555 1_555
H27 C24 1_555 1_555
H28 C25 1_555 1_555
H29 C25 1_555 1_555
H30 C25 1_555 1_555
H31 O6 1_555 1_555
C7 C8 1_555 1_555
N3 C17 1_555 1_555
C15 C16 1_555 1_555
C16 C17 1_555 1_555
C21 O3 1_555 1_555
C23 O4 1_555 1_555
C23 O5 1_555 1_555

#END
