
#######################################################################
#
#                 Cambridge Crystallographic Data Centre
#                                CCDC 
#
#######################################################################
#
# If this CIF has been generated from an entry in the Cambridge 
# Structural Database, then it will include bibliographic, chemical, 
# crystal, experimental, refinement or atomic coordinate data resulting 
# from the CCDC's data processing and validation procedures.
#
#######################################################################

data_KEXQIP
_chemical_formula_moiety         'C12 H10 Br2 N2 O2'
_chemical_name_systematic        
8,10-Dibromo-2-methyl-1,11b-dihydropyrazolo[1,5-d][1,4]benzoxazepin-5(6H)-one
_symmetry_cell_setting           monoclinic
_symmetry_space_group_name_H-M   'C 2/c'
_symmetry_Int_Tables_number      15
_space_group_name_Hall           '-C 2yn'
loop_
_symmetry_equiv_pos_site_id
_symmetry_equiv_pos_as_xyz
1 x,y,z
2 -x,y,1/2-z
3 1/2+x,1/2+y,z
4 1/2-x,1/2+y,1/2-z
5 -x,-y,-z
6 x,-y,1/2+z
7 1/2-x,1/2-y,-z
8 1/2+x,1/2-y,1/2+z
_cell_length_a                   37.69(3)
_cell_length_b                   9.820(9)
_cell_length_c                   14.002(12)
_cell_angle_alpha                90
_cell_angle_beta                 99.851(9)
_cell_angle_gamma                90
_cell_volume                     5105.95
_exptl_crystal_colour            colorless
_exptl_crystal_description       block
_cell_formula_units_Z            16
loop_
_atom_site_label
_atom_site_type_symbol
_atom_site_fract_x
_atom_site_fract_y
_atom_site_fract_z
Br1 Br 0.30659(5) 1.02501(16) 0.95587(12)
Br2 Br 0.28579(5) 0.69034(18) 0.62248(13)
C1 C 0.3184(5) 0.7733(14) 0.7249(10)
C2 C 0.3032(4) 0.8552(14) 0.7916(9)
H1 H 0.2784 0.8660 0.7858
C3 C 0.3264(4) 0.9175(13) 0.8644(10)
C4 C 0.3640(4) 0.9042(13) 0.8739(9)
H2 H 0.3792 0.9465 0.9246
C5 C 0.3780(4) 0.8257(12) 0.8051(10)
C6 C 0.3548(4) 0.7597(12) 0.7328(9)
C7 C 0.4179(4) 0.8078(12) 0.8033(8)
H3 H 0.4235 0.7106 0.8008
C8 C 0.4450(4) 0.8766(12) 0.8819(9)
H4 H 0.4335 0.9078 0.9348
H5 H 0.4644 0.8149 0.9073
C9 C 0.4588(5) 0.9951(12) 0.8304(11)
C10 C 0.4118(4) 0.8603(15) 0.6184(10)
C11 C 0.3833(4) 0.7483(14) 0.5928(9)
H6 H 0.3630 0.7887 0.5506
H7 H 0.3934 0.6804 0.5549
C12 C 0.4817(5) 1.1027(17) 0.8790(11)
H8 H 0.4992 1.0639 0.9296
H9 H 0.4672 1.1672 0.9065
H10 H 0.4938 1.1479 0.8330
N1 N 0.4263(3) 0.8785(10) 0.7122(7)
N2 N 0.4486(3) 0.9924(10) 0.7376(8)
O1 O 0.3694(3) 0.6771(8) 0.6692(6)
O2 O 0.4199(3) 0.9265(12) 0.5516(7)
Br3 Br 0.28590(5) 0.18602(16) 0.68618(12)
Br4 Br 0.30517(5) 0.52971(16) 0.37319(12)
C13 C 0.3161(4) 0.2718(12) 0.6128(10)
C14 C 0.3015(4) 0.3517(13) 0.5352(11)
H11 H 0.2767 0.3633 0.5183
C15 C 0.3260(5) 0.4165(13) 0.4812(9)
C16 C 0.3631(4) 0.4064(12) 0.5058(10)
H12 H 0.3780 0.4522 0.4700
C17 C 0.3775(4) 0.3274(11) 0.5841(9)
C18 C 0.3543(4) 0.2613(13) 0.6371(9)
C19 C 0.4170(4) 0.3088(12) 0.6219(8)
H13 H 0.4222 0.2112 0.6289
C20 C 0.4448(4) 0.3764(13) 0.5678(9)
H14 H 0.4644 0.3145 0.5618
H15 H 0.4337 0.4068 0.5037
C21 C 0.4578(4) 0.4948(11) 0.6324(11)
C22 C 0.4117(4) 0.3571(12) 0.8000(9)
C23 C 0.3817(4) 0.2464(14) 0.8010(9)
H16 H 0.3908 0.1797 0.8502
H17 H 0.3612 0.2902 0.8212
C24 C 0.4826(4) 0.5989(16) 0.6041(11)
H18 H 0.4692 0.6793 0.5819
H19 H 0.4940 0.5635 0.5531
H20 H 0.5006 0.6210 0.6591
N3 N 0.4261(3) 0.3763(10) 0.7204(7)
N4 N 0.4482(3) 0.4935(11) 0.7153(9)
O3 O 0.3694(3) 0.1760(8) 0.7135(6)
O4 O 0.4193(3) 0.4263(12) 0.8749(7)
H21? H 0.4545 1.0510 0.6975
H22? H 0.4540 0.5529 0.7604
loop_
_geom_bond_atom_site_label_1
_geom_bond_atom_site_label_2
_geom_bond_site_symmetry_1
_geom_bond_site_symmetry_2
Br1 C3 1_555 1_555
Br2 C1 1_555 1_555
C1 C2 1_555 1_555
C2 H1 1_555 1_555
C3 C2 1_555 1_555
C4 C3 1_555 1_555
H2 C4 1_555 1_555
C5 C4 1_555 1_555
C6 C1 1_555 1_555
C7 C5 1_555 1_555
H3 C7 1_555 1_555
C8 C7 1_555 1_555
H4 C8 1_555 1_555
H5 C8 1_555 1_555
C9 C8 1_555 1_555
C10 C11 1_555 1_555
C11 H6 1_555 1_555
H7 C11 1_555 1_555
C12 C9 1_555 1_555
H8 C12 1_555 1_555
H9 C12 1_555 1_555
H10 C12 1_555 1_555
N1 C7 1_555 1_555
N2 C9 1_555 1_555
O1 C6 1_555 1_555
O2 C10 1_555 1_555
Br3 C13 1_555 1_555
Br4 C15 1_555 1_555
C13 C14 1_555 1_555
C14 H11 1_555 1_555
C15 C14 1_555 1_555
C16 C15 1_555 1_555
H12 C16 1_555 1_555
C17 C16 1_555 1_555
C18 C13 1_555 1_555
C19 C17 1_555 1_555
H13 C19 1_555 1_555
C20 C19 1_555 1_555
H14 C20 1_555 1_555
H15 C20 1_555 1_555
C21 C20 1_555 1_555
C22 C23 1_555 1_555
C23 H16 1_555 1_555
H17 C23 1_555 1_555
C24 C21 1_555 1_555
H18 C24 1_555 1_555
H19 C24 1_555 1_555
H20 C24 1_555 1_555
N3 C19 1_555 1_555
N4 C21 1_555 1_555
O3 C18 1_555 1_555
O4 C22 1_555 1_555
C5 C6 1_555 1_555
C10 N1 1_555 1_555
C11 O1 1_555 1_555
N1 N2 1_555 1_555
C17 C18 1_555 1_555
C22 N3 1_555 1_555
C23 O3 1_555 1_555
N3 N4 1_555 1_555

#END
