
#######################################################################
#
#                 Cambridge Crystallographic Data Centre
#                                CCDC 
#
#######################################################################
#
# If this CIF has been generated from an entry in the Cambridge 
# Structural Database, then it will include bibliographic, chemical, 
# crystal, experimental, refinement or atomic coordinate data resulting 
# from the CCDC's data processing and validation procedures.
#
#######################################################################

data_KEXTIS
_chemical_formula_moiety         'C30 H30 O6'
_chemical_name_systematic        
3,3''',4,4'',4''',6'-Hexamethoxy-1,1':3',1'':3'',1'''-quaterphenyl
_symmetry_cell_setting           monoclinic
_symmetry_space_group_name_H-M   'P 21/c'
_symmetry_Int_Tables_number      14
_space_group_name_Hall           '-P 2ybc'
loop_
_symmetry_equiv_pos_site_id
_symmetry_equiv_pos_as_xyz
1 x,y,z
2 -x,1/2+y,1/2-z
3 -x,-y,-z
4 x,1/2-y,1/2+z
_cell_length_a                   15.9092(8)
_cell_length_b                   6.7774(3)
_cell_length_c                   11.7769(6)
_cell_angle_alpha                90
_cell_angle_beta                 94.4430(10)
_cell_angle_gamma                90
_cell_volume                     1266
_exptl_crystal_colour            colorless
_exptl_crystal_description       tabular
_cell_formula_units_Z            2
loop_
_atom_site_label
_atom_site_type_symbol
_atom_site_fract_x
_atom_site_fract_y
_atom_site_fract_z
O1 O 0.90953(7) -0.18814(18) 0.69582(12)
O2 O 0.91060(7) 0.0922(2) 0.54878(11)
O3 O 0.67752(7) 0.49620(16) 0.86345(9)
C1 C 0.91040(13) -0.3470(3) 0.7744(2)
H1 H 0.9140 -0.2960 0.8507
H2 H 0.9582 -0.4300 0.7646
H3 H 0.8595 -0.4226 0.7612
C2 C 0.84568(8) -0.0532(2) 0.69889(13)
C3 C 0.78300(9) -0.0598(2) 0.77259(14)
H4 H 0.7822 -0.1611 0.8258
C4 C 0.72025(9) 0.0853(2) 0.76803(14)
H5 H 0.6786 0.0806 0.8192
C5 C 0.71931(8) 0.2340(2) 0.68938(12)
C6 C 0.64784(8) 0.3778(2) 0.67583(12)
C7 C 0.59782(8) 0.3808(2) 0.57394(12)
H6 H 0.6118 0.2971 0.5157
C8 C 0.52720(8) 0.50370(19) 0.55426(11)
C9 C 0.78322(8) 0.2401(2) 0.61432(12)
H7 H 0.7833 0.3406 0.5605
C10 C 0.84636(8) 0.0994(2) 0.61863(13)
C11 C 0.91629(13) 0.2459(3) 0.46858(19)
H8 H 0.8667 0.2458 0.4167
H9 H 0.9652 0.2259 0.4270
H10 H 0.9209 0.3702 0.5076
C12 C 0.62765(8) 0.5060(2) 0.76301(12)
C13 C 0.65560(11) 0.6208(3) 0.95412(14)
H11 H 0.6575 0.7562 0.9304
H12 H 0.6948 0.6009 1.0192
H13 H 0.5997 0.5893 0.9737
C14 C 0.55963(9) 0.6333(2) 0.74453(13)
H14 H 0.5467 0.7209 0.8014
C15 C 0.51094(9) 0.6308(2) 0.64208(13)
H15 H 0.4657 0.7175 0.6317
O1B O 0.09047(7) 1.18814(18) 0.30418(12)
O2B O 0.08940(7) 0.9078(2) 0.45122(11)
O3B O 0.32248(7) 0.50380(16) 0.13655(9)
C1B C 0.08960(13) 1.3470(3) 0.2256(2)
H1B H 0.0860 1.2960 0.1493
H2B H 0.0418 1.4300 0.2354
H3B H 0.1405 1.4226 0.2388
C2B C 0.15432(8) 1.0532(2) 0.30111(13)
C3B C 0.21700(9) 1.0598(2) 0.22741(14)
H4B H 0.2178 1.1611 0.1742
C4B C 0.27975(9) 0.9147(2) 0.23197(14)
H5B H 0.3214 0.9194 0.1808
C5B C 0.28069(8) 0.7660(2) 0.31062(12)
C6B C 0.35216(8) 0.6222(2) 0.32417(12)
C7B C 0.40218(8) 0.6192(2) 0.42606(12)
H6B H 0.3882 0.7029 0.4843
C8B C 0.47280(8) 0.49630(19) 0.44574(11)
C9B C 0.21678(8) 0.7599(2) 0.38568(12)
H7B H 0.2167 0.6594 0.4395
C10B C 0.15364(8) 0.9006(2) 0.38137(13)
C11B C 0.08371(13) 0.7541(3) 0.53142(19)
H8B H 0.1333 0.7542 0.5833
H9B H 0.0348 0.7741 0.5730
H10B H 0.0791 0.6298 0.4924
C12B C 0.37235(8) 0.4940(2) 0.23699(12)
C13B C 0.34440(11) 0.3792(3) 0.04588(14)
H11B H 0.3425 0.2438 0.0696
H12B H 0.3052 0.3991 -0.0192
H13B H 0.4003 0.4107 0.0263
C14B C 0.44037(9) 0.3667(2) 0.25547(13)
H14B H 0.4533 0.2791 0.1986
C15B C 0.48906(9) 0.3692(2) 0.35792(13)
H15B H 0.5343 0.2825 0.3683
loop_
_geom_bond_atom_site_label_1
_geom_bond_atom_site_label_2
_geom_bond_site_symmetry_1
_geom_bond_site_symmetry_2
O1 C1 1_555 1_555
O2 C10 1_555 1_555
O3 C12 1_555 1_555
C1 H1 1_555 1_555
H2 C1 1_555 1_555
H3 C1 1_555 1_555
C2 O1 1_555 1_555
C3 C2 1_555 1_555
H4 C3 1_555 1_555
C4 C3 1_555 1_555
H5 C4 1_555 1_555
C5 C4 1_555 1_555
C6 C5 1_555 1_555
C7 C6 1_555 1_555
H6 C7 1_555 1_555
C8 C7 1_555 1_555
C9 C5 1_555 1_555
H7 C9 1_555 1_555
C10 C2 1_555 1_555
C11 O2 1_555 1_555
H8 C11 1_555 1_555
H9 C11 1_555 1_555
H10 C11 1_555 1_555
C12 C6 1_555 1_555
C13 O3 1_555 1_555
H11 C13 1_555 1_555
H12 C13 1_555 1_555
H13 C13 1_555 1_555
C14 C12 1_555 1_555
H14 C14 1_555 1_555
C15 C8 1_555 1_555
H15 C15 1_555 1_555
O1B C1B 1_555 1_555
O2B C10B 1_555 1_555
O3B C12B 1_555 1_555
C1B H1B 1_555 1_555
H2B C1B 1_555 1_555
H3B C1B 1_555 1_555
C2B O1B 1_555 1_555
C3B C2B 1_555 1_555
H4B C3B 1_555 1_555
C4B C3B 1_555 1_555
H5B C4B 1_555 1_555
C5B C4B 1_555 1_555
C6B C5B 1_555 1_555
C7B C6B 1_555 1_555
H6B C7B 1_555 1_555
C8B C8 1_555 1_555
C9B C5B 1_555 1_555
H7B C9B 1_555 1_555
C10B C2B 1_555 1_555
C11B O2B 1_555 1_555
H8B C11B 1_555 1_555
H9B C11B 1_555 1_555
H10B C11B 1_555 1_555
C12B C6B 1_555 1_555
C13B O3B 1_555 1_555
H11B C13B 1_555 1_555
H12B C13B 1_555 1_555
H13B C13B 1_555 1_555
C14B C12B 1_555 1_555
H14B C14B 1_555 1_555
C15B C8B 1_555 1_555
H15B C15B 1_555 1_555
C9 C10 1_555 1_555
C14 C15 1_555 1_555
C7B C8B 1_555 1_555
C9B C10B 1_555 1_555
C14B C15B 1_555 1_555

#END
