
#######################################################################
#
#                 Cambridge Crystallographic Data Centre
#                                CCDC 
#
#######################################################################
#
# If this CIF has been generated from an entry in the Cambridge 
# Structural Database, then it will include bibliographic, chemical, 
# crystal, experimental, refinement or atomic coordinate data resulting 
# from the CCDC's data processing and validation procedures.
#
#######################################################################

data_KEXTAL
_chemical_formula_moiety         'C31 H41 Br1 N2 O2,C1 H4 O1'
_chemical_name_systematic        
'N-benzyl-N-[1-(4-bromophenyl)-2-(cyclohexylamino)-2-oxoethyl]-4-(propan-2-yl)cyclohexane-1-carboxamide methanol solvate'
_symmetry_cell_setting           orthorhombic
_symmetry_space_group_name_H-M   'P c a 21'
_symmetry_Int_Tables_number      29
_space_group_name_Hall           'P 2c -2ac'
loop_
_symmetry_equiv_pos_site_id
_symmetry_equiv_pos_as_xyz
1 x,y,z
2 -x,-y,1/2+z
3 1/2+x,-y,z
4 1/2-x,y,1/2+z
_cell_length_a                   12.477(3)
_cell_length_b                   9.978(3)
_cell_length_c                   49.864(12)
_cell_angle_alpha                90
_cell_angle_beta                 90
_cell_angle_gamma                90
_cell_volume                     6207.84
_exptl_crystal_colour            colorless
_exptl_crystal_description       polyhedron
_cell_formula_units_Z            8
loop_
_atom_site_label
_atom_site_type_symbol
_atom_site_fract_x
_atom_site_fract_y
_atom_site_fract_z
Br1 Br 1.1901(4) 0.5140(4) 0.67332(9)
C1 C 0.760(2) 0.961(3) 0.5944(5)
O1 O 0.771(2) 1.0825(19) 0.5997(4)
N1 N 0.7968(16) 0.8709(18) 0.6110(4)
C2 C 0.7680(19) 0.725(2) 0.6093(5)
H1 H 0.7003 0.7163 0.5991
H2 H 0.7544 0.6913 0.6277
C3 C 0.8399(16) 0.914(2) 0.6371(4)
H3 H 0.8732 1.0043 0.6345
C4 C 0.7473(18) 0.932(2) 0.6573(4)
O2 O 0.6577(13) 0.8778(18) 0.6534(4)
N2 N 0.7697(17) 1.0058(18) 0.6790(3)
H4 H 0.8332 1.0437 0.6803
C5 C 0.7057(18) 0.922(3) 0.5684(4)
H5 H 0.7279 0.8279 0.5640
C6 C 0.738(3) 1.012(4) 0.5446(5)
H6 H 0.7254 1.1067 0.5495
H7 H 0.8154 1.0006 0.5410
C7 C 0.675(2) 0.978(4) 0.5195(5)
H8 H 0.6901 0.8849 0.5141
H9 H 0.6979 1.0383 0.5047
C8 C 0.554(2) 0.996(3) 0.5245(4)
H10 H 0.5392 1.0874 0.5317
C9 C 0.527(2) 0.888(3) 0.5461(4)
H11 H 0.4482 0.8851 0.5488
H12 H 0.5506 0.7992 0.5398
C10 C 0.5815(17) 0.922(3) 0.5723(4)
H13 H 0.5614 0.8553 0.5861
H14 H 0.5579 1.0115 0.5786
C11 C 0.486(3) 0.971(3) 0.4982(5)
H15 H 0.4087 0.9669 0.5033
C12 C 0.501(3) 1.088(3) 0.4789(6)
H16 H 0.4825 1.1721 0.4879
H17 H 0.5762 1.0916 0.4730
H18 H 0.4547 1.0757 0.4632
C13 C 0.516(3) 0.841(3) 0.4839(6)
H19 H 0.5060 0.7656 0.4962
H20 H 0.4689 0.8294 0.4682
H21 H 0.5904 0.8453 0.4780
C14 C 0.8531(18) 0.634(2) 0.5960(5)
C15 C 0.835(2) 0.499(2) 0.5970(6)
H22 H 0.7713 0.4656 0.6048
C16 C 0.912(2) 0.408(3) 0.5864(7)
H23 H 0.9016 0.3139 0.5876
C17 C 1.001(2) 0.461(3) 0.5745(6)
H24 H 1.0526 0.4014 0.5672
C18 C 1.020(2) 0.597(3) 0.5724(6)
H25 H 1.0826 0.6297 0.5639
C19 C 0.9416(18) 0.686(2) 0.5834(5)
H26 H 0.9509 0.7806 0.5820
C20 C 0.9272(16) 0.821(2) 0.6474(4)
C21 C 0.9073(18) 0.726(2) 0.6668(5)
H27 H 0.8398 0.7249 0.6756
C22 C 0.9838(18) 0.630(2) 0.6738(6)
H28 H 0.9663 0.5593 0.6858
C23 C 1.0848(17) 0.639(2) 0.6631(5)
C24 C 1.1116(19) 0.743(2) 0.6459(5)
H29 H 1.1832 0.7540 0.6398
C25 C 1.0309(17) 0.832(2) 0.6377(5)
H30 H 1.0477 0.9005 0.6253
C26 C 0.692(2) 1.026(2) 0.7004(5)
H31 H 0.6208 1.0448 0.6923
C27 C 0.682(2) 0.905(3) 0.7183(5)
H32 H 0.7522 0.8858 0.7269
H33 H 0.6613 0.8260 0.7075
C28 C 0.597(2) 0.932(3) 0.7401(6)
H34 H 0.5268 0.9497 0.7315
H35 H 0.5889 0.8512 0.7516
C29 C 0.628(2) 1.050(3) 0.7573(5)
H36 H 0.6950 1.0297 0.7671
H37 H 0.5708 1.0677 0.7707
C30 C 0.643(2) 1.171(3) 0.7397(5)
H38 H 0.6683 1.2469 0.7508
H39 H 0.5737 1.1964 0.7317
C31 C 0.726(2) 1.145(3) 0.7170(5)
H40 H 0.7311 1.2249 0.7054
H41 H 0.7974 1.1279 0.7249
O3 O 0.8173(15) 0.336(2) 0.3241(4)
C32 C 0.844(3) 0.226(4) 0.3414(10)
H42 H 0.8041 0.1459 0.3359
H43 H 0.8255 0.2484 0.3600
H44 H 0.9212 0.2076 0.3402
Br2 Br 0.0972(4) 0.0045(4) 0.32492(11)
C33 C 0.517(2) 0.462(2) 0.4047(5)
O4 O 0.511(2) 0.5839(19) 0.3988(4)
N3 N 0.4826(17) 0.3703(19) 0.3879(4)
C34 C 0.515(2) 0.226(2) 0.3901(5)
H45 H 0.5829 0.2209 0.4005
H46 H 0.5305 0.1911 0.3719
C35 C 0.4399(17) 0.415(2) 0.3618(4)
H47 H 0.4057 0.5046 0.3645
C36 C 0.5323(18) 0.433(3) 0.3417(5)
O5 O 0.6195(14) 0.3767(19) 0.3455(4)
N4 N 0.5074(17) 0.506(2) 0.3202(4)
H48 H 0.4417 0.5369 0.3187
C37 C 0.5752(17) 0.419(3) 0.4299(4)
H49 H 0.5539 0.3241 0.4338
C38 C 0.539(2) 0.504(4) 0.4537(5)
H50 H 0.5446 0.6001 0.4487
H51 H 0.4628 0.4851 0.4575
C39 C 0.6027(19) 0.482(3) 0.4787(4)
H52 H 0.5859 0.3915 0.4858
H53 H 0.5801 0.5481 0.4924
C40 C 0.7249(18) 0.493(3) 0.4746(4)
H54 H 0.7408 0.5846 0.4674
C41 C 0.755(2) 0.389(3) 0.4529(4)
H55 H 0.8340 0.3904 0.4501
H56 H 0.7347 0.2985 0.4589
C42 C 0.6990(18) 0.422(3) 0.4267(4)
H57 H 0.7206 0.3558 0.4129
H58 H 0.7214 0.5117 0.4205
C43 C 0.791(3) 0.473(2) 0.5010(5)
H59 H 0.8684 0.4670 0.4955
C44 C 0.766(3) 0.346(3) 0.5163(6)
H60 H 0.7718 0.2688 0.5042
H61 H 0.8161 0.3358 0.5312
H62 H 0.6924 0.3512 0.5233
C45 C 0.782(3) 0.593(3) 0.5193(6)
H63 H 0.7991 0.6751 0.5092
H64 H 0.7091 0.5992 0.5263
H65 H 0.8328 0.5838 0.5342
C46 C 0.430(2) 0.135(2) 0.4037(5)
C47 C 0.447(2) -0.001(2) 0.4021(6)
H66 H 0.5093 -0.0340 0.3936
C48 C 0.371(2) -0.092(3) 0.4130(6)
H67 H 0.3808 -0.1861 0.4115
C49 C 0.281(3) -0.039(3) 0.4258(7)
H68 H 0.2325 -0.0981 0.4344
C50 C 0.261(2) 0.096(3) 0.4266(6)
H69 H 0.1965 0.1296 0.4341
C51 C 0.340(2) 0.187(3) 0.4158(6)
H70 H 0.3302 0.2807 0.4170
C52 C 0.3547(16) 0.321(2) 0.3506(4)
C53 C 0.378(2) 0.220(2) 0.3324(5)
H71 H 0.4490 0.2113 0.3256
C54 C 0.298(2) 0.133(3) 0.3240(6)
H72 H 0.3122 0.0708 0.3100
C55 C 0.1990(19) 0.135(2) 0.3357(5)
C56 C 0.1725(19) 0.238(2) 0.3529(5)
H73 H 0.1009 0.2471 0.3592
C57 C 0.2510(16) 0.329(2) 0.3613(5)
H74 H 0.2341 0.3952 0.3742
C58 C 0.583(2) 0.536(2) 0.2991(5)
H75 H 0.6558 0.5476 0.3072
C59 C 0.552(2) 0.664(3) 0.2854(5)
H76 H 0.5483 0.7372 0.2989
H77 H 0.4793 0.6540 0.2775
C60 C 0.631(3) 0.703(3) 0.2632(6)
H78 H 0.6063 0.7862 0.2542
H79 H 0.7023 0.7215 0.2712
C61 C 0.641(3) 0.591(3) 0.2427(6)
H80 H 0.5724 0.5820 0.2327
H81 H 0.6979 0.6128 0.2296
C62 C 0.666(3) 0.461(3) 0.2564(7)
H82 H 0.7399 0.4663 0.2638
H83 H 0.6658 0.3882 0.2429
C63 C 0.588(3) 0.424(3) 0.2793(6)
H84 H 0.5153 0.4078 0.2718
H85 H 0.6119 0.3409 0.2883
O6 O 0.4627(14) 0.834(2) 0.6734(4)
C64 C 0.449(6) 0.734(7) 0.6527(13)
H86 H 0.4120 0.6557 0.6602
H87 H 0.5191 0.7069 0.6458
H88 H 0.4059 0.7716 0.6381
loop_
_geom_bond_atom_site_label_1
_geom_bond_atom_site_label_2
_geom_bond_site_symmetry_1
_geom_bond_site_symmetry_2
Br1 C23 1_555 1_555
C1 O1 1_555 1_555
N1 C1 1_555 1_555
C2 N1 1_555 1_555
H1 C2 1_555 1_555
H2 C2 1_555 1_555
C3 N1 1_555 1_555
H3 C3 1_555 1_555
C4 C3 1_555 1_555
O2 C4 1_555 1_555
N2 C4 1_555 1_555
H4 N2 1_555 1_555
C5 C1 1_555 1_555
H5 C5 1_555 1_555
C6 C5 1_555 1_555
H6 C6 1_555 1_555
H7 C6 1_555 1_555
C7 C6 1_555 1_555
H8 C7 1_555 1_555
H9 C7 1_555 1_555
C8 C7 1_555 1_555
H10 C8 1_555 1_555
C9 C8 1_555 1_555
H11 C9 1_555 1_555
H12 C9 1_555 1_555
C10 C5 1_555 1_555
H13 C10 1_555 1_555
H14 C10 1_555 1_555
C11 C8 1_555 1_555
H15 C11 1_555 1_555
C12 C11 1_555 1_555
H16 C12 1_555 1_555
H17 C12 1_555 1_555
H18 C12 1_555 1_555
C13 C11 1_555 1_555
H19 C13 1_555 1_555
H20 C13 1_555 1_555
H21 C13 1_555 1_555
C14 C2 1_555 1_555
C15 C14 1_555 1_555
H22 C15 1_555 1_555
C16 C15 1_555 1_555
H23 C16 1_555 1_555
C17 C16 1_555 1_555
H24 C17 1_555 1_555
C18 C17 1_555 1_555
H25 C18 1_555 1_555
C19 C14 1_555 1_555
H26 C19 1_555 1_555
C20 C3 1_555 1_555
C21 C20 1_555 1_555
H27 C21 1_555 1_555
C22 C21 1_555 1_555
H28 C22 1_555 1_555
C23 C22 1_555 1_555
C24 C23 1_555 1_555
H29 C24 1_555 1_555
C25 C20 1_555 1_555
H30 C25 1_555 1_555
C26 N2 1_555 1_555
H31 C26 1_555 1_555
C27 C26 1_555 1_555
H32 C27 1_555 1_555
H33 C27 1_555 1_555
C28 C27 1_555 1_555
H34 C28 1_555 1_555
H35 C28 1_555 1_555
C29 C28 1_555 1_555
H36 C29 1_555 1_555
H37 C29 1_555 1_555
C30 C29 1_555 1_555
H38 C30 1_555 1_555
H39 C30 1_555 1_555
C31 C26 1_555 1_555
H40 C31 1_555 1_555
H41 C31 1_555 1_555
O3 C32 1_555 1_555
C32 H42 1_555 1_555
H43 C32 1_555 1_555
H44 C32 1_555 1_555
Br2 C55 1_555 1_555
C33 O4 1_555 1_555
N3 C33 1_555 1_555
C34 N3 1_555 1_555
H45 C34 1_555 1_555
H46 C34 1_555 1_555
C35 N3 1_555 1_555
H47 C35 1_555 1_555
C36 C35 1_555 1_555
O5 C36 1_555 1_555
N4 C36 1_555 1_555
H48 N4 1_555 1_555
C37 C33 1_555 1_555
H49 C37 1_555 1_555
C38 C37 1_555 1_555
H50 C38 1_555 1_555
H51 C38 1_555 1_555
C39 C38 1_555 1_555
H52 C39 1_555 1_555
H53 C39 1_555 1_555
C40 C39 1_555 1_555
H54 C40 1_555 1_555
C41 C40 1_555 1_555
H55 C41 1_555 1_555
H56 C41 1_555 1_555
C42 C37 1_555 1_555
H57 C42 1_555 1_555
H58 C42 1_555 1_555
C43 C40 1_555 1_555
H59 C43 1_555 1_555
C44 C43 1_555 1_555
H60 C44 1_555 1_555
H61 C44 1_555 1_555
H62 C44 1_555 1_555
C45 C43 1_555 1_555
H63 C45 1_555 1_555
H64 C45 1_555 1_555
H65 C45 1_555 1_555
C46 C34 1_555 1_555
C47 C46 1_555 1_555
H66 C47 1_555 1_555
C48 C47 1_555 1_555
H67 C48 1_555 1_555
C49 C48 1_555 1_555
H68 C49 1_555 1_555
C50 C49 1_555 1_555
H69 C50 1_555 1_555
C51 C46 1_555 1_555
H70 C51 1_555 1_555
C52 C35 1_555 1_555
C53 C52 1_555 1_555
H71 C53 1_555 1_555
C54 C53 1_555 1_555
H72 C54 1_555 1_555
C55 C54 1_555 1_555
C56 C55 1_555 1_555
H73 C56 1_555 1_555
C57 C52 1_555 1_555
H74 C57 1_555 1_555
C58 N4 1_555 1_555
H75 C58 1_555 1_555
C59 C58 1_555 1_555
H76 C59 1_555 1_555
H77 C59 1_555 1_555
C60 C59 1_555 1_555
H78 C60 1_555 1_555
H79 C60 1_555 1_555
C61 C60 1_555 1_555
H80 C61 1_555 1_555
H81 C61 1_555 1_555
C62 C61 1_555 1_555
H82 C62 1_555 1_555
H83 C62 1_555 1_555
C63 C58 1_555 1_555
H84 C63 1_555 1_555
H85 C63 1_555 1_555
O6 C64 1_555 1_555
C64 H86 1_555 1_555
H87 C64 1_555 1_555
H88 C64 1_555 1_555
C9 C10 1_555 1_555
C18 C19 1_555 1_555
C24 C25 1_555 1_555
C30 C31 1_555 1_555
C41 C42 1_555 1_555
C50 C51 1_555 1_555
C56 C57 1_555 1_555
C62 C63 1_555 1_555

#END
