
#######################################################################
#
#                 Cambridge Crystallographic Data Centre
#                                CCDC 
#
#######################################################################
#
# If this CIF has been generated from an entry in the Cambridge 
# Structural Database, then it will include bibliographic, chemical, 
# crystal, experimental, refinement or atomic coordinate data resulting 
# from the CCDC's data processing and validation procedures.
#
#######################################################################

data_KEXTOY
_chemical_formula_moiety         'C38 H30 O2'
_chemical_name_systematic        
4''',6''-Dimethoxy-1,1':2',1'':3'',1''':3''',1'''':2'''',1'''''-sexiphenyl
_symmetry_cell_setting           monoclinic
_symmetry_space_group_name_H-M   'P 21/c'
_symmetry_Int_Tables_number      14
_space_group_name_Hall           '-P 2ybc'
loop_
_symmetry_equiv_pos_site_id
_symmetry_equiv_pos_as_xyz
1 x,y,z
2 -x,1/2+y,1/2-z
3 -x,-y,-z
4 x,1/2-y,1/2+z
_cell_length_a                   8.6547(3)
_cell_length_b                   20.2740(8)
_cell_length_c                   8.8027(4)
_cell_angle_alpha                90
_cell_angle_beta                 117.4240(10)
_cell_angle_gamma                90
_cell_volume                     1370.99
_exptl_crystal_colour            colorless
_cell_formula_units_Z            2
loop_
_atom_site_label
_atom_site_type_symbol
_atom_site_fract_x
_atom_site_fract_y
_atom_site_fract_z
O1 O 0.25265(16) 0.29633(6) 0.16884(15)
C1 C -0.3149(3) 0.32298(11) 0.0749(3)
H1 H -0.3934 0.3077 0.1116
C2 C -0.2240(2) 0.37983(11) 0.1410(2)
H2 H -0.2403 0.4031 0.2235
C3 C -0.1074(2) 0.40318(9) 0.0861(2)
H3 H -0.0451 0.4416 0.1331
C4 C -0.0833(2) 0.36956(8) -0.0384(2)
C5 C 0.0295(2) 0.39568(8) -0.1117(2)
C6 C 0.2038(2) 0.41473(7) -0.0135(2)
C7 C 0.2974(2) 0.41098(8) 0.17937(19)
C8 C 0.37042(19) 0.46784(8) 0.27306(19)
H4 H 0.3578 0.5071 0.2140
C9 C 0.46214(18) 0.46890(7) 0.45202(18)
C10 C 0.2948(2) 0.43930(9) -0.0936(2)
H5 H 0.4107 0.4511 -0.0278
C11 C 0.2200(3) 0.44700(9) -0.2686(2)
H6 H 0.2838 0.4649 -0.3195
C12 C 0.0497(3) 0.42794(9) -0.3674(2)
H7 H -0.0020 0.4322 -0.4858
C13 C -0.0435(2) 0.40249(9) -0.2895(2)
H8 H -0.1582 0.3895 -0.3570
C14 C 0.3175(2) 0.35158(7) 0.2672(2)
C15 C 0.2099(3) 0.24173(10) 0.2428(3)
H9 H 0.3149 0.2206 0.3239
H10 H 0.1410 0.2109 0.1547
H11 H 0.1450 0.2567 0.3000
C16 C 0.4050(2) 0.35120(8) 0.4442(2)
H12 H 0.4161 0.3120 0.5033
C17 C 0.4761(2) 0.40885(8) 0.5339(2)
H13 H 0.5351 0.4073 0.6528
C18 C -0.2896(3) 0.28812(11) -0.0471(3)
H14 H -0.3494 0.2489 -0.0908
C19 C -0.1764(2) 0.31160(9) -0.1030(2)
H15 H -0.1614 0.2882 -0.1861
O1B O 0.74735(16) 0.70367(6) 0.83116(15)
C1B C 1.3149(3) 0.67702(11) 0.9251(3)
H1B H 1.3934 0.6923 0.8884
C2B C 1.2240(2) 0.62017(11) 0.8590(2)
H2B H 1.2403 0.5969 0.7765
C3B C 1.1074(2) 0.59682(9) 0.9139(2)
H3B H 1.0451 0.5584 0.8669
C4B C 1.0833(2) 0.63044(8) 1.0384(2)
C5B C 0.9705(2) 0.60432(8) 1.1117(2)
C6B C 0.7962(2) 0.58527(7) 1.0135(2)
C7B C 0.7026(2) 0.58902(8) 0.82063(19)
C8B C 0.62958(19) 0.53216(8) 0.72694(19)
H4B H 0.6422 0.4929 0.7860
C9B C 0.53786(18) 0.53110(7) 0.54798(18)
C10B C 0.7052(2) 0.56070(9) 1.0936(2)
H5B H 0.5893 0.5489 1.0278
C11B C 0.7800(3) 0.55300(9) 1.2686(2)
H6B H 0.7162 0.5351 1.3195
C12B C 0.9503(3) 0.57206(9) 1.3674(2)
H7B H 1.0020 0.5678 1.4858
C13B C 1.0435(2) 0.59751(9) 1.2895(2)
H8B H 1.1582 0.6105 1.3570
C14B C 0.6825(2) 0.64842(7) 0.7328(2)
C15B C 0.7901(3) 0.75827(10) 0.7572(3)
H9B H 0.6851 0.7794 0.6761
H10B H 0.8590 0.7891 0.8453
H11B H 0.8550 0.7433 0.7000
C16B C 0.5950(2) 0.64880(8) 0.5558(2)
H12B H 0.5839 0.6880 0.4967
C17B C 0.5239(2) 0.59115(8) 0.4661(2)
H13B H 0.4649 0.5927 0.3472
C18B C 1.2896(3) 0.71188(11) 1.0471(3)
H14B H 1.3494 0.7511 1.0908
C19B C 1.1764(2) 0.68840(9) 1.1030(2)
H15B H 1.1614 0.7118 1.1861
loop_
_geom_bond_atom_site_label_1
_geom_bond_atom_site_label_2
_geom_bond_site_symmetry_1
_geom_bond_site_symmetry_2
O1 C14 1_555 1_555
C1 H1 1_555 1_555
C2 C1 1_555 1_555
H2 C2 1_555 1_555
C3 C2 1_555 1_555
H3 C3 1_555 1_555
C4 C3 1_555 1_555
C5 C4 1_555 1_555
C6 C5 1_555 1_555
C7 C6 1_555 1_555
C8 C7 1_555 1_555
H4 C8 1_555 1_555
C9 C8 1_555 1_555
C10 C6 1_555 1_555
H5 C10 1_555 1_555
C11 C10 1_555 1_555
H6 C11 1_555 1_555
C12 C11 1_555 1_555
H7 C12 1_555 1_555
C13 C5 1_555 1_555
H8 C13 1_555 1_555
C14 C7 1_555 1_555
C15 O1 1_555 1_555
H9 C15 1_555 1_555
H10 C15 1_555 1_555
H11 C15 1_555 1_555
C16 C14 1_555 1_555
H12 C16 1_555 1_555
C17 C9 1_555 1_555
H13 C17 1_555 1_555
C18 C1 1_555 1_555
H14 C18 1_555 1_555
C19 C4 1_555 1_555
H15 C19 1_555 1_555
O1B C14B 1_555 1_555
C1B H1B 1_555 1_555
C2B C1B 1_555 1_555
H2B C2B 1_555 1_555
C3B C2B 1_555 1_555
H3B C3B 1_555 1_555
C4B C3B 1_555 1_555
C5B C4B 1_555 1_555
C6B C5B 1_555 1_555
C7B C6B 1_555 1_555
C8B C7B 1_555 1_555
H4B C8B 1_555 1_555
C9B C9 1_555 1_555
C10B C6B 1_555 1_555
H5B C10B 1_555 1_555
C11B C10B 1_555 1_555
H6B C11B 1_555 1_555
C12B C11B 1_555 1_555
H7B C12B 1_555 1_555
C13B C5B 1_555 1_555
H8B C13B 1_555 1_555
C14B C7B 1_555 1_555
C15B O1B 1_555 1_555
H9B C15B 1_555 1_555
H10B C15B 1_555 1_555
H11B C15B 1_555 1_555
C16B C14B 1_555 1_555
H12B C16B 1_555 1_555
C17B C9B 1_555 1_555
H13B C17B 1_555 1_555
C18B C1B 1_555 1_555
H14B C18B 1_555 1_555
C19B C4B 1_555 1_555
H15B C19B 1_555 1_555
C12 C13 1_555 1_555
C16 C17 1_555 1_555
C18 C19 1_555 1_555
C8B C9B 1_555 1_555
C12B C13B 1_555 1_555
C16B C17B 1_555 1_555
C18B C19B 1_555 1_555

#END
