
#######################################################################
#
#                 Cambridge Crystallographic Data Centre
#                                CCDC 
#
#######################################################################
#
# If this CIF has been generated from an entry in the Cambridge 
# Structural Database, then it will include bibliographic, chemical, 
# crystal, experimental, refinement or atomic coordinate data resulting 
# from the CCDC's data processing and validation procedures.
#
#######################################################################

data_KEXVUH
_chemical_formula_moiety         'C24 H23 F1 N6 O1 S1'
_chemical_name_systematic        
4-((4-fluorobenzylidene)amino)-5-(2-furyl)-2-((4-phenylpiperazin-1-yl)methyl)-2,4-dihydro-3H-1,2,4-triazole-3-thione
_symmetry_cell_setting           monoclinic
_symmetry_space_group_name_H-M   'P 21/c'
_symmetry_Int_Tables_number      14
_space_group_name_Hall           '-P 2ybc'
loop_
_symmetry_equiv_pos_site_id
_symmetry_equiv_pos_as_xyz
1 x,y,z
2 -x,1/2+y,1/2-z
3 -x,-y,-z
4 x,1/2-y,1/2+z
_cell_length_a                   23.951(5)
_cell_length_b                   7.2260(15)
_cell_length_c                   27.196(6)
_cell_angle_alpha                90
_cell_angle_beta                 108.607(3)
_cell_angle_gamma                90
_cell_volume                     4460.78
_exptl_crystal_colour            colorless
_exptl_crystal_description       Prism
_cell_formula_units_Z            8
loop_
_atom_site_label
_atom_site_type_symbol
_atom_site_fract_x
_atom_site_fract_y
_atom_site_fract_z
S1 S 0.009769(17) 1.15532(5) 0.375599(15)
F1 F -0.20512(4) 0.96630(15) 0.07886(4)
O1 O 0.20522(5) 0.78679(14) 0.30303(4)
N1 N 0.03178(5) 1.01625(16) 0.26711(5)
N2 N 0.07327(5) 1.00360(16) 0.31674(5)
N3 N 0.16237(5) 0.96977(16) 0.37369(5)
N4 N 0.12340(5) 1.04331(16) 0.39636(5)
N5 N 0.13075(6) 0.91290(17) 0.47912(5)
N6 N 0.13933(6) 0.66478(17) 0.56357(5)
C1 C -0.01997(6) 0.95959(19) 0.26449(6)
H1 H -0.0268 0.9119 0.2946
C2 C -0.06814(6) 0.96787(18) 0.21576(6)
C3 C -0.06114(7) 1.04688(19) 0.17109(6)
H2 H -0.0243 1.0994 0.1725
C4 C -0.10726(7) 1.0491(2) 0.12512(6)
H3 H -0.1030 1.1045 0.0948
C5 C -0.16002(7) 0.9681(2) 0.12429(6)
C6 C -0.16892(7) 0.8891(2) 0.16727(6)
H4 H -0.2058 0.8354 0.1653
C7 C -0.12248(7) 0.89020(19) 0.21358(6)
H5 H -0.1276 0.8380 0.2439
C8 C 0.06818(7) 1.06654(19) 0.36315(6)
C9 C 0.13077(6) 0.95017(18) 0.32493(6)
C10 C 0.15176(6) 0.87436(19) 0.28495(6)
C11 C 0.13063(7) 0.8670(2) 0.23221(6)
H6 H 0.0946 0.9171 0.2103
C12 C 0.17373(7) 0.7687(2) 0.21658(6)
H7 H 0.1720 0.7407 0.1820
C13 C 0.21723(7) 0.7232(2) 0.26010(6)
H8 H 0.2516 0.6560 0.2609
C14 C 0.14108(7) 1.0756(2) 0.45202(6)
H9 H 0.1834 1.1080 0.4650
H10 H 0.1185 1.1813 0.4592
C15 C 0.18404(7) 0.8032(2) 0.50201(6)
H11 H 0.2128 0.8764 0.5293
H12 H 0.2021 0.7726 0.4750
C16 C 0.16953(8) 0.6263(2) 0.52530(6)
H13 H 0.1440 0.5475 0.4973
H14 H 0.2064 0.5573 0.5423
C17 C 0.08701(7) 0.7793(2) 0.54008(7)
H15 H 0.0679 0.8086 0.5665
H16 H 0.0585 0.7096 0.5117
C18 C 0.10345(8) 0.9571(2) 0.51878(7)
H17 H 0.0678 1.0334 0.5034
H18 H 0.1313 1.0288 0.5471
C19 C 0.12920(7) 0.5013(2) 0.58900(6)
C20 C 0.17757(8) 0.3963(2) 0.61779(6)
H19 H 0.2162 0.4335 0.6195
C21 C 0.16981(8) 0.2378(2) 0.64396(6)
H20 H 0.2031 0.1686 0.6637
C22 C 0.11369(8) 0.1803(2) 0.64132(7)
H21 H 0.1083 0.0710 0.6587
C23 C 0.06580(8) 0.2838(2) 0.61317(7)
H22 H 0.0273 0.2451 0.6113
C24 C 0.07297(8) 0.4439(2) 0.58746(7)
H23 H 0.0395 0.5145 0.5688
S2 S 0.493892(19) -0.18995(6) 0.118864(17)
F2 F 0.29379(5) 0.05834(16) 0.30919(5)
O2 O 0.70279(5) 0.09293(16) 0.30677(4)
N7 N 0.52062(6) -0.05694(18) 0.24142(5)
N8 N 0.56079(6) -0.04901(17) 0.21389(5)
N9 N 0.64906(6) -0.01925(17) 0.20510(5)
N10 N 0.60831(6) -0.08065(18) 0.15974(5)
N11 N 0.62996(7) 0.0289(2) 0.08210(6)
N12 N 0.62744(6) 0.3944(2) 0.04047(6)
C25 C 0.46813(7) -0.0079(2) 0.21603(7)
H24 H 0.4589 0.0276 0.1807
C26 C 0.42211(7) -0.0056(2) 0.24053(7)
C27 C 0.36531(8) 0.0486(2) 0.21122(7)
H25 H 0.3567 0.0740 0.1753
C28 C 0.32135(8) 0.0657(2) 0.23385(8)
H26 H 0.2825 0.1004 0.2138
C29 C 0.33558(8) 0.0312(2) 0.28607(8)
C30 C 0.39107(8) -0.0243(2) 0.31647(8)
H27 H 0.3993 -0.0480 0.3524
C31 C 0.43446(8) -0.0446(2) 0.29329(7)
H28 H 0.4727 -0.0851 0.3133
C32 C 0.55353(7) -0.1042(2) 0.16328(6)
C33 C 0.61914(6) -0.00436(19) 0.23762(6)
C34 C 0.64392(7) 0.0500(2) 0.29139(6)
C35 C 0.62282(7) 0.0656(2) 0.33191(6)
H29 H 0.5836 0.0436 0.3315
C36 C 0.67123(8) 0.1217(3) 0.37523(7)
H30 H 0.6706 0.1440 0.4095
C37 C 0.71831(8) 0.1369(2) 0.35839(6)
H31 H 0.7567 0.1730 0.3793
C38 C 0.62700(8) -0.1235(2) 0.11385(7)
H32 H 0.6663 -0.1824 0.1262
H33 H 0.5992 -0.2154 0.0922
C39 C 0.67657(7) 0.1609(2) 0.10635(7)
H34 H 0.7142 0.0940 0.1216
H35 H 0.6672 0.2263 0.1347
C40 C 0.68314(7) 0.3008(3) 0.06682(7)
H36 H 0.7131 0.3940 0.0846
H37 H 0.6972 0.2368 0.0408
C41 C 0.57951(8) 0.2630(3) 0.01849(7)
H38 H 0.5865 0.1972 -0.0109
H39 H 0.5419 0.3316 0.0049
C42 C 0.57440(8) 0.1238(3) 0.05799(7)
H40 H 0.5621 0.1876 0.0851
H41 H 0.5437 0.0318 0.0409
C43 C 0.63072(7) 0.5424(2) 0.00739(7)
C44 C 0.68213(8) 0.6494(3) 0.01691(8)
H42 H 0.7160 0.6188 0.0453
C45 C 0.68414(9) 0.7986(3) -0.01440(8)
H43 H 0.7195 0.8679 -0.0072
C46 C 0.63616(9) 0.8489(3) -0.05571(8)
H44 H 0.6380 0.9524 -0.0767
C47 C 0.58529(9) 0.7452(3) -0.06589(9)
H45 H 0.5516 0.7785 -0.0941
C48 C 0.58249(8) 0.5936(3) -0.03562(8)
H46 H 0.5473 0.5227 -0.0441
loop_
_geom_bond_atom_site_label_1
_geom_bond_atom_site_label_2
_geom_bond_site_symmetry_1
_geom_bond_site_symmetry_2
S1 C8 1_555 1_555
F1 C5 1_555 1_555
O1 C10 1_555 1_555
N1 N2 1_555 1_555
N2 C8 1_555 1_555
N3 N4 1_555 1_555
N4 C8 1_555 1_555
N5 C14 1_555 1_555
N6 C16 1_555 1_555
C1 N1 1_555 1_555
H1 C1 1_555 1_555
C2 C1 1_555 1_555
C3 C2 1_555 1_555
H2 C3 1_555 1_555
C4 C3 1_555 1_555
H3 C4 1_555 1_555
C5 C4 1_555 1_555
C6 C5 1_555 1_555
H4 C6 1_555 1_555
C7 C2 1_555 1_555
H5 C7 1_555 1_555
C9 N2 1_555 1_555
C10 C9 1_555 1_555
C11 C10 1_555 1_555
H6 C11 1_555 1_555
C12 C11 1_555 1_555
H7 C12 1_555 1_555
C13 O1 1_555 1_555
H8 C13 1_555 1_555
C14 N4 1_555 1_555
H9 C14 1_555 1_555
H10 C14 1_555 1_555
C15 N5 1_555 1_555
H11 C15 1_555 1_555
H12 C15 1_555 1_555
C16 C15 1_555 1_555
H13 C16 1_555 1_555
H14 C16 1_555 1_555
C17 N6 1_555 1_555
H15 C17 1_555 1_555
H16 C17 1_555 1_555
C18 N5 1_555 1_555
H17 C18 1_555 1_555
H18 C18 1_555 1_555
C19 N6 1_555 1_555
C20 C19 1_555 1_555
H19 C20 1_555 1_555
C21 C20 1_555 1_555
H20 C21 1_555 1_555
C22 C21 1_555 1_555
H21 C22 1_555 1_555
C23 C22 1_555 1_555
H22 C23 1_555 1_555
C24 C19 1_555 1_555
H23 C24 1_555 1_555
S2 C32 1_555 1_555
F2 C29 1_555 1_555
O2 C34 1_555 1_555
N7 N8 1_555 1_555
N8 C32 1_555 1_555
N9 N10 1_555 1_555
N10 C32 1_555 1_555
N11 C38 1_555 1_555
N12 C40 1_555 1_555
C25 N7 1_555 1_555
H24 C25 1_555 1_555
C26 C25 1_555 1_555
C27 C26 1_555 1_555
H25 C27 1_555 1_555
C28 C27 1_555 1_555
H26 C28 1_555 1_555
C29 C28 1_555 1_555
C30 C29 1_555 1_555
H27 C30 1_555 1_555
C31 C26 1_555 1_555
H28 C31 1_555 1_555
C33 N8 1_555 1_555
C34 C33 1_555 1_555
C35 C34 1_555 1_555
H29 C35 1_555 1_555
C36 C35 1_555 1_555
H30 C36 1_555 1_555
C37 O2 1_555 1_555
H31 C37 1_555 1_555
C38 N10 1_555 1_555
H32 C38 1_555 1_555
H33 C38 1_555 1_555
C39 N11 1_555 1_555
H34 C39 1_555 1_555
H35 C39 1_555 1_555
C40 C39 1_555 1_555
H36 C40 1_555 1_555
H37 C40 1_555 1_555
C41 N12 1_555 1_555
H38 C41 1_555 1_555
H39 C41 1_555 1_555
C42 N11 1_555 1_555
H40 C42 1_555 1_555
H41 C42 1_555 1_555
C43 N12 1_555 1_555
C44 C43 1_555 1_555
H42 C44 1_555 1_555
C45 C44 1_555 1_555
H43 C45 1_555 1_555
C46 C45 1_555 1_555
H44 C46 1_555 1_555
C47 C46 1_555 1_555
H45 C47 1_555 1_555
C48 C43 1_555 1_555
H46 C48 1_555 1_555
N3 C9 1_555 1_555
C6 C7 1_555 1_555
C12 C13 1_555 1_555
C17 C18 1_555 1_555
C23 C24 1_555 1_555
N9 C33 1_555 1_555
C30 C31 1_555 1_555
C36 C37 1_555 1_555
C41 C42 1_555 1_555
C47 C48 1_555 1_555

#END
