
#######################################################################
#
#                 Cambridge Crystallographic Data Centre
#                                CCDC 
#
#######################################################################
#
# If this CIF has been generated from an entry in the Cambridge 
# Structural Database, then it will include bibliographic, chemical, 
# crystal, experimental, refinement or atomic coordinate data resulting 
# from the CCDC's data processing and validation procedures.
#
#######################################################################

data_KEXWAO
_chemical_formula_moiety         'C17 H15 N3 O2'
_chemical_name_systematic        2,4-dibenzyl-1,2,4-triazine-3,5(2H,4H)-dione
_symmetry_cell_setting           monoclinic
_symmetry_space_group_name_H-M   'P 21/c'
_symmetry_Int_Tables_number      14
_space_group_name_Hall           '-P 2ybc'
loop_
_symmetry_equiv_pos_site_id
_symmetry_equiv_pos_as_xyz
1 x,y,z
2 -x,1/2+y,1/2-z
3 -x,-y,-z
4 x,1/2-y,1/2+z
_cell_length_a                   13.7844(13)
_cell_length_b                   8.5691(8)
_cell_length_c                   13.0527(12)
_cell_angle_alpha                90
_cell_angle_beta                 105.961(2)
_cell_angle_gamma                90
_cell_volume                     1482.35
_exptl_crystal_colour            colorless
_exptl_crystal_description       plate
_cell_formula_units_Z            4
loop_
_atom_site_label
_atom_site_type_symbol
_atom_site_fract_x
_atom_site_fract_y
_atom_site_fract_z
O1 O 0.64318(19) 0.1395(3) 0.3812(2)
O2 O 0.7745(3) -0.0235(5) 0.1160(3)
N1 N 0.7131(2) 0.0500(4) 0.2528(2)
N2 N 0.5619(2) 0.1909(4) 0.2091(2)
N3 N 0.5519(3) 0.1830(5) 0.1020(3)
C1 C 0.6401(3) 0.1279(4) 0.2878(3)
C2 C 0.7094(3) 0.0410(5) 0.1466(3)
C3 C 0.6229(4) 0.1137(6) 0.0750(4)
H1 H 0.6184 0.1098 0.0027
C4 C 0.7976(3) -0.0238(5) 0.3338(3)
H2 H 0.8207 -0.1144 0.3027
H3 H 0.7734 -0.0594 0.3929
C5 C 0.8851(3) 0.0859(4) 0.3752(3)
C6 C 0.8959(3) 0.1682(5) 0.4682(4)
H4 H 0.8484 0.1564 0.5063
C7 C 0.9770(4) 0.2688(6) 0.5057(4)
H5 H 0.9842 0.3230 0.5690
C8 C 1.0457(4) 0.2876(6) 0.4495(5)
H6 H 1.0992 0.3566 0.4738
C9 C 1.0369(3) 0.2061(6) 0.3577(5)
H7 H 1.0849 0.2179 0.3202
C10 C 0.9566(3) 0.1061(5) 0.3208(4)
H8 H 0.9506 0.0513 0.2579
C11 C 0.4810(3) 0.2743(5) 0.2382(3)
H9 H 0.4519 0.3502 0.1832
H10 H 0.5093 0.3309 0.3040
C12 C 0.3990(3) 0.1694(4) 0.2526(3)
C13 C 0.3284(3) 0.1093(5) 0.1648(3)
H11 H 0.3317 0.1354 0.0966
C14 C 0.2536(3) 0.0115(5) 0.1773(4)
H12 H 0.2070 -0.0291 0.1176
C15 C 0.2473(4) -0.0268(6) 0.2776(5)
H13 H 0.1965 -0.0927 0.2860
C16 C 0.3165(4) 0.0329(7) 0.3646(4)
H14 H 0.3124 0.0079 0.4327
C17 C 0.3915(3) 0.1290(6) 0.3525(3)
H15 H 0.4384 0.1679 0.4126
loop_
_geom_bond_atom_site_label_1
_geom_bond_atom_site_label_2
_geom_bond_site_symmetry_1
_geom_bond_site_symmetry_2
O1 C1 1_555 1_555
O2 C2 1_555 1_555
N1 C1 1_555 1_555
N2 N3 1_555 1_555
N3 C3 1_555 1_555
C1 N2 1_555 1_555
C2 N1 1_555 1_555
C3 C2 1_555 1_555
H1 C3 1_555 1_555
C4 N1 1_555 1_555
H2 C4 1_555 1_555
H3 C4 1_555 1_555
C5 C4 1_555 1_555
C6 C5 1_555 1_555
H4 C6 1_555 1_555
C7 C6 1_555 1_555
H5 C7 1_555 1_555
C8 C7 1_555 1_555
H6 C8 1_555 1_555
C9 C8 1_555 1_555
H7 C9 1_555 1_555
C10 C5 1_555 1_555
H8 C10 1_555 1_555
C11 N2 1_555 1_555
H9 C11 1_555 1_555
H10 C11 1_555 1_555
C12 C11 1_555 1_555
C13 C12 1_555 1_555
H11 C13 1_555 1_555
C14 C13 1_555 1_555
H12 C14 1_555 1_555
C15 C14 1_555 1_555
H13 C15 1_555 1_555
C16 C15 1_555 1_555
H14 C16 1_555 1_555
C17 C12 1_555 1_555
H15 C17 1_555 1_555
C9 C10 1_555 1_555
C16 C17 1_555 1_555

#END
