
#######################################################################
#
#                 Cambridge Crystallographic Data Centre
#                                CCDC 
#
#######################################################################
#
# If this CIF has been generated from an entry in the Cambridge 
# Structural Database, then it will include bibliographic, chemical, 
# crystal, experimental, refinement or atomic coordinate data resulting 
# from the CCDC's data processing and validation procedures.
#
#######################################################################

data_KEYGUS
_chemical_formula_moiety         'C20 H12 F2 O2'
_chemical_name_systematic        3,3'-Difluoro-1,1'-binaphthalene-2,2'-diol
_symmetry_cell_setting           trigonal
_symmetry_space_group_name_H-M   'P 32 2 1'
_symmetry_Int_Tables_number      154
_space_group_name_Hall           'P 32 2"'
loop_
_symmetry_equiv_pos_site_id
_symmetry_equiv_pos_as_xyz
1 x,y,z
2 -y,x-y,2/3+z
3 -x+y,-x,1/3+z
4 y,x,-z
5 x-y,-y,1/3-z
6 -x,-x+y,2/3-z
_cell_length_a                   10.6787(7)
_cell_length_b                   10.6787(7)
_cell_length_c                   23.2221(15)
_cell_angle_alpha                90
_cell_angle_beta                 90
_cell_angle_gamma                120
_cell_volume                     2293.34
_exptl_crystal_colour            colorless
_exptl_crystal_description       Blocks
_cell_formula_units_Z            6
loop_
_atom_site_label
_atom_site_type_symbol
_atom_site_fract_x
_atom_site_fract_y
_atom_site_fract_z
F1 F 0.49520(11) 0.82483(10) 0.10639(4)
O1 O 0.63835(12) 0.69150(12) 0.08563(5)
C1 C 0.48130(14) 0.56111(14) 0.00547(5)
C2 C 0.33636(15) 0.71590(14) 0.02858(6)
H1 H 0.2894 0.7694 0.0369
C3 C 0.36139(14) 0.53773(15) -0.02929(5)
C4 C 0.28887(15) 0.61689(15) -0.01799(5)
C5 C 0.52509(14) 0.65932(14) 0.04991(5)
C6 C 0.17247(16) 0.59497(19) -0.05355(6)
H2 H 0.1238 0.6474 -0.0462
C7 C 0.12880(19) 0.4993(2) -0.09836(6)
H3 H 0.0511 0.4866 -0.1223
C8 C 0.31221(17) 0.43828(18) -0.07584(6)
H4 H 0.3587 0.3841 -0.0839
C9 C 0.44906(15) 0.73354(14) 0.06111(5)
C10 C 0.1988(2) 0.4196(2) -0.10916(7)
H5 H 0.1667 0.3521 -0.1400
H6 H 0.674(3) 0.650(3) 0.0749(8)
F1C F 0.82483(10) 0.49520(11) -0.10639(4)
O1C O 0.69150(12) 0.63835(12) -0.08563(5)
C1C C 0.56111(14) 0.48130(14) -0.00547(5)
C2C C 0.71590(14) 0.33636(15) -0.02858(6)
H1C H 0.7694 0.2894 -0.0369
C3C C 0.53773(15) 0.36139(14) 0.02929(5)
C4C C 0.61689(15) 0.28887(15) 0.01799(5)
C5C C 0.65932(14) 0.52509(14) -0.04991(5)
C6C C 0.59497(19) 0.17247(16) 0.05355(6)
H2C H 0.6474 0.1238 0.0462
C7C C 0.4993(2) 0.12880(19) 0.09836(6)
H3C H 0.4866 0.0511 0.1223
C8C C 0.43828(18) 0.31221(17) 0.07584(6)
H4C H 0.3841 0.3587 0.0839
C9C C 0.73354(14) 0.44906(15) -0.06111(5)
C10C C 0.4196(2) 0.1988(2) 0.10916(7)
H5C H 0.3521 0.1667 0.1400
H6C H 0.650(3) 0.674(3) -0.0749(8)
O2 O 0.82111(11) 0.00601(11) 0.07418(4)
H7 H 0.7913 -0.0767 0.0882
F2 F 0.95437(11) 0.26999(11) 0.03380(4)
C11 C 1.16135(14) 0.16666(16) 0.23645(5)
H8 H 1.1210 0.0715 0.2515
C12 C 0.98635(13) 0.07492(13) 0.15502(5)
C13 C 0.93551(14) 0.10445(15) 0.10496(5)
C14 C 1.10698(13) 0.18964(14) 0.18412(5)
C15 C 1.11956(16) 0.35879(16) 0.10968(6)
H9 H 1.1632 0.4531 0.0936
C16 C 1.28857(16) 0.44758(16) 0.19244(6)
H10 H 1.3333 0.5431 0.1774
C17 C 1.00638(17) 0.24732(16) 0.08347(6)
C18 C 1.17308(14) 0.33321(14) 0.16202(5)
C19 C 1.27177(16) 0.28046(19) 0.26564(6)
H11 H 1.3047 0.2635 0.3012
C20 C 1.33622(16) 0.42139(19) 0.24337(7)
H12 H 1.4132 0.4989 0.2637
O2D O 0.81510(16) -0.00601(11) 0.25915(4)
H7D H 0.8680 0.0767 0.2451
F2D F 0.68438(16) -0.26999(11) 0.29953(4)
C11D C 0.99469(21) -0.16666(16) 0.09688(5)
H8D H 1.0495 -0.0715 0.0818
C12D C 0.91143(18) -0.07492(13) 0.17831(5)
C13D C 0.83106(21) -0.10445(15) 0.22837(5)
C14D C 0.91734(19) -0.18964(14) 0.14921(5)
C15D C 0.76077(23) -0.35879(16) 0.22365(6)
H9D H 0.7101 -0.4531 0.2397
C16D C 0.84099(23) -0.44758(16) 0.14089(6)
H10D H 0.7902 -0.5431 0.1559
C17D C 0.75906(23) -0.24732(16) 0.24986(6)
C18D C 0.83987(20) -0.33321(14) 0.17131(5)
C19D C 0.99131(25) -0.28046(19) 0.06769(6)
H11D H 1.0412 -0.2635 0.0321
C20D C 0.91483(25) -0.42139(19) 0.08996(7)
H12D H 0.9143 -0.4989 0.0696
loop_
_geom_bond_atom_site_label_1
_geom_bond_atom_site_label_2
_geom_bond_site_symmetry_1
_geom_bond_site_symmetry_2
F1 C9 1_555 1_555
O1 C5 1_555 1_555
C1 C3 1_555 1_555
C2 H1 1_555 1_555
C3 C4 1_555 1_555
C4 C2 1_555 1_555
C5 C1 1_555 1_555
C6 C4 1_555 1_555
H2 C6 1_555 1_555
C7 C6 1_555 1_555
H3 C7 1_555 1_555
C8 C3 1_555 1_555
H4 C8 1_555 1_555
C9 C2 1_555 1_555
C10 C7 1_555 1_555
H5 C10 1_555 1_555
H6 O1 1_555 1_555
O2 H7 1_555 1_555
F2 C17 1_555 1_555
C11 H8 1_555 1_555
C12 C13 1_555 1_555
C13 O2 1_555 1_555
C14 C11 1_555 1_555
C15 H9 1_555 1_555
C16 H10 1_555 1_555
C17 C13 1_555 1_555
C18 C14 1_555 1_555
C19 C11 1_555 1_555
H11 C19 1_555 1_555
C20 C16 1_555 1_555
H12 C20 1_555 1_555
F1C C9C 1_555 1_555
O1C C5C 1_555 1_555
C1C C1 1_555 1_555
C2C H1C 1_555 1_555
C3C C1C 1_555 1_555
C4C C2C 1_555 1_555
C5C C1C 1_555 1_555
C6C C4C 1_555 1_555
H2C C6C 1_555 1_555
C7C C6C 1_555 1_555
H3C C7C 1_555 1_555
C8C C3C 1_555 1_555
H4C C8C 1_555 1_555
C9C C2C 1_555 1_555
C10C C7C 1_555 1_555
H5C C10C 1_555 1_555
H6C O1C 1_555 1_555
O2D H7D 1_555 1_555
F2D C17D 1_555 1_555
C11D H8D 1_555 1_555
C12D C12 1_555 1_555
C13D O2D 1_555 1_555
C14D C11D 1_555 1_555
C15D H9D 1_555 1_555
C16D H10D 1_555 1_555
C17D C13D 1_555 1_555
C18D C14D 1_555 1_555
C19D C11D 1_555 1_555
H11D C19D 1_555 1_555
C20D C16D 1_555 1_555
H12D C20D 1_555 1_555
C5 C9 1_555 1_555
C8 C10 1_555 1_555
C12 C14 1_555 1_555
C15 C17 1_555 1_555
C15 C18 1_555 1_555
C16 C18 1_555 1_555
C19 C20 1_555 1_555
C3C C4C 1_555 1_555
C5C C9C 1_555 1_555
C8C C10C 1_555 1_555
C12D C13D 1_555 1_555
C12D C14D 1_555 1_555
C15D C17D 1_555 1_555
C15D C18D 1_555 1_555
C16D C18D 1_555 1_555
C19D C20D 1_555 1_555

#END
