
#######################################################################
#
#                 Cambridge Crystallographic Data Centre
#                                CCDC 
#
#######################################################################
#
# If this CIF has been generated from an entry in the Cambridge 
# Structural Database, then it will include bibliographic, chemical, 
# crystal, experimental, refinement or atomic coordinate data resulting 
# from the CCDC's data processing and validation procedures.
#
#######################################################################

data_KEYQOX
_chemical_formula_moiety         'C10 H10 N2 O1'
_chemical_name_systematic        
1-cyclopropyl-1,3-dihydro-2H-benzo[d]imidazol-2-one
_symmetry_cell_setting           monoclinic
_symmetry_space_group_name_H-M   'P 21/n'
_symmetry_Int_Tables_number      14
_space_group_name_Hall           '-P 2yn'
loop_
_symmetry_equiv_pos_site_id
_symmetry_equiv_pos_as_xyz
1 x,y,z
2 1/2-x,1/2+y,1/2-z
3 -x,-y,-z
4 1/2+x,1/2-y,1/2+z
_cell_length_a                   8.3909(2)
_cell_length_b                   8.3286(2)
_cell_length_c                   12.4602(3)
_cell_angle_alpha                90
_cell_angle_beta                 93.482(2)
_cell_angle_gamma                90
_cell_volume                     869.167
_exptl_crystal_colour            colorless
_exptl_crystal_description       block
_cell_formula_units_Z            4
_exptl_crystal_recrystallization_method d-chloroform
loop_
_atom_site_label
_atom_site_type_symbol
_atom_site_fract_x
_atom_site_fract_y
_atom_site_fract_z
O1 O 0.70090(9) 0.52643(9) 0.24105(6)
N1 N 0.74269(10) 0.56213(10) 0.42664(7)
N2 N 0.77592(11) 0.31943(11) 0.35986(7)
C1 C 0.73640(12) 0.47428(12) 0.33234(8)
C2 C 0.81232(12) 0.30935(12) 0.47002(8)
C3 C 0.85815(13) 0.18030(13) 0.53478(9)
H1 H 0.8693 0.0757 0.5058
C4 C 0.88738(13) 0.21038(14) 0.64453(9)
H2 H 0.9185 0.1245 0.6914
C5 C 0.87168(13) 0.36423(15) 0.68631(9)
H3 H 0.8937 0.3812 0.7611
C6 C 0.82437(13) 0.49460(14) 0.62108(9)
H4 H 0.8138 0.5994 0.6499
C7 C 0.79362(12) 0.46373(12) 0.51256(8)
C8 C 0.71055(12) 0.73121(12) 0.42936(8)
H5 H 0.8020 0.8042 0.4163
C9 C 0.59235(14) 0.79078(13) 0.50664(9)
H6 H 0.5422 0.7105 0.5525
H7 H 0.6125 0.8968 0.5408
C10 C 0.54785(13) 0.78723(13) 0.38790(9)
H8 H 0.5406 0.8911 0.3492
H9 H 0.4703 0.7049 0.3610
H10 H 0.7815(16) 0.2354(18) 0.3117(11)
loop_
_geom_bond_atom_site_label_1
_geom_bond_atom_site_label_2
_geom_bond_site_symmetry_1
_geom_bond_site_symmetry_2
O1 C1 1_555 1_555
N1 C1 1_555 1_555
N2 C1 1_555 1_555
C2 N2 1_555 1_555
C3 C2 1_555 1_555
H1 C3 1_555 1_555
C4 C3 1_555 1_555
H2 C4 1_555 1_555
C5 C4 1_555 1_555
H3 C5 1_555 1_555
C6 C5 1_555 1_555
H4 C6 1_555 1_555
C7 N1 1_555 1_555
C8 N1 1_555 1_555
H5 C8 1_555 1_555
C9 C8 1_555 1_555
H6 C9 1_555 1_555
H7 C9 1_555 1_555
C10 C8 1_555 1_555
H8 C10 1_555 1_555
H9 C10 1_555 1_555
H10 N2 1_555 1_555
C2 C7 1_555 1_555
C6 C7 1_555 1_555
C9 C10 1_555 1_555

#END
