
#######################################################################
#
#                 Cambridge Crystallographic Data Centre
#                                CCDC 
#
#######################################################################
#
# If this CIF has been generated from an entry in the Cambridge 
# Structural Database, then it will include bibliographic, chemical, 
# crystal, experimental, refinement or atomic coordinate data resulting 
# from the CCDC's data processing and validation procedures.
#
#######################################################################

data_KEYQIR
_chemical_formula_moiety         'C13 H11 N3 O2'
_chemical_name_systematic        
1,3-dimethylpyrimido[4,5-b]quinoline-2,4(1H,3H)-dione
_symmetry_cell_setting           triclinic
_symmetry_space_group_name_H-M   'P -1'
_symmetry_Int_Tables_number      2
_space_group_name_Hall           '-P 1'
loop_
_symmetry_equiv_pos_site_id
_symmetry_equiv_pos_as_xyz
1 x,y,z
2 -x,-y,-z
_cell_length_a                   8.4637(18)
_cell_length_b                   10.759(2)
_cell_length_c                   12.736(2)
_cell_angle_alpha                81.726(6)
_cell_angle_beta                 82.755(6)
_cell_angle_gamma                79.692(6)
_cell_volume                     1123.14
_exptl_crystal_colour            colorless
_exptl_crystal_description       block
_chemical_melting_point          '203-204 deg.C'
_cell_formula_units_Z            4
loop_
_atom_site_label
_atom_site_type_symbol
_atom_site_fract_x
_atom_site_fract_y
_atom_site_fract_z
O1 O 0.5377(3) 0.1527(2) 0.8418(2)
N1 N 0.7945(4) 0.3118(3) 1.0161(2)
N2 N 0.7118(4) 0.1324(3) 0.9666(2)
O2 O 0.8807(3) 0.1129(3) 1.0948(2)
N3 N 0.7109(3) 0.5162(3) 0.9356(2)
C1 C 0.6227(4) 0.5954(3) 0.8623(3)
C2 C 0.5284(4) 0.5519(4) 0.7955(3)
C3 C 0.7049(4) 0.3938(4) 0.9427(3)
C4 C 0.5280(4) 0.4202(4) 0.8072(3)
H1 H 0.4684 0.3871 0.7646
C5 C 0.6138(4) 0.3407(3) 0.8804(3)
C6 C 0.8009(5) 0.1822(4) 1.0305(3)
C7 C 0.6152(5) 0.2033(4) 0.8928(3)
C8 C 0.4432(5) 0.6405(4) 0.7210(3)
H2 H 0.3830 0.6122 0.6758
C9 C 0.6252(5) 0.7270(4) 0.8534(3)
H3 H 0.6858 0.7576 0.8971
C10 C 0.4486(5) 0.7670(4) 0.7149(3)
H4 H 0.3913 0.8249 0.6662
C11 C 0.5404(5) 0.8095(4) 0.7820(4)
H5 H 0.5433 0.8961 0.7775
C12 C 0.8960(5) 0.3632(4) 1.0793(3)
H6 H 0.9088 0.3088 1.1455
H7 H 0.8454 0.4471 1.0936
H8 H 0.9999 0.3670 1.0401
C13 C 0.7249(5) -0.0068(3) 0.9786(4)
H9 H 0.6664 -0.0304 0.9268
H10 H 0.6804 -0.0362 1.0490
H11 H 0.8364 -0.0447 0.9680
O3 O 0.4084(3) 0.3830(3) 0.5797(2)
O4 O 0.2209(3) 0.0446(3) 0.4936(2)
N4 N 0.1199(4) 0.2403(3) 0.4146(2)
N5 N 0.0280(4) 0.4377(3) 0.3247(2)
N6 N 0.3132(4) 0.2139(3) 0.5377(2)
C14 C 0.1203(4) 0.3712(3) 0.3953(3)
C15 C 0.2184(4) 0.4238(4) 0.4528(3)
C16 C 0.0287(5) 0.5666(4) 0.3070(3)
C17 C 0.2184(4) 0.5518(4) 0.4345(3)
H12 H 0.2828 0.5884 0.4712
C18 C 0.3209(5) 0.3419(4) 0.5284(3)
C19 C 0.2184(5) 0.1591(4) 0.4823(3)
C20 C 0.1217(5) 0.6283(4) 0.3608(3)
C21 C 0.1149(5) 0.7621(4) 0.3378(3)
H13 H 0.1762 0.8034 0.3729
C22 C -0.0697(5) 0.6409(4) 0.2321(3)
H14 H -0.1329 0.6022 0.1961
C23 C 0.0196(6) 0.8297(4) 0.2648(4)
H15 H 0.0157 0.9173 0.2499
C24 C -0.0725(6) 0.7688(5) 0.2121(4)
H16 H -0.1375 0.8166 0.1621
C25 C 0.0157(5) 0.1828(4) 0.3592(3)
H17 H 0.0696 0.1646 0.2908
H18 H -0.0831 0.2409 0.3495
H19 H -0.0078 0.1053 0.4007
C26 C 0.4145(5) 0.1274(4) 0.6111(3)
H20 H 0.4450 0.1746 0.6617
H21 H 0.5097 0.0877 0.5716
H22 H 0.3554 0.0632 0.6482
loop_
_geom_bond_atom_site_label_1
_geom_bond_atom_site_label_2
_geom_bond_site_symmetry_1
_geom_bond_site_symmetry_2
O1 C7 1_555 1_555
N1 C3 1_555 1_555
N2 C6 1_555 1_555
O2 C6 1_555 1_555
N3 C1 1_555 1_555
C1 C2 1_555 1_555
C2 C4 1_555 1_555
C3 N3 1_555 1_555
C4 H1 1_555 1_555
C5 C3 1_555 1_555
C6 N1 1_555 1_555
C7 N2 1_555 1_555
C8 C2 1_555 1_555
H2 C8 1_555 1_555
C9 C1 1_555 1_555
H3 C9 1_555 1_555
C10 C8 1_555 1_555
H4 C10 1_555 1_555
C11 C9 1_555 1_555
H5 C11 1_555 1_555
C12 N1 1_555 1_555
H6 C12 1_555 1_555
H7 C12 1_555 1_555
H8 C12 1_555 1_555
C13 N2 1_555 1_555
H9 C13 1_555 1_555
H10 C13 1_555 1_555
H11 C13 1_555 1_555
O3 C18 1_555 1_555
O4 C19 1_555 1_555
N4 C14 1_555 1_555
N5 C14 1_555 1_555
N6 C18 1_555 1_555
C14 C15 1_555 1_555
C15 C17 1_555 1_555
C16 N5 1_555 1_555
C17 H12 1_555 1_555
C18 C15 1_555 1_555
C19 N4 1_555 1_555
C20 C16 1_555 1_555
C21 C20 1_555 1_555
H13 C21 1_555 1_555
C22 C16 1_555 1_555
H14 C22 1_555 1_555
C23 C21 1_555 1_555
H15 C23 1_555 1_555
C24 C22 1_555 1_555
H16 C24 1_555 1_555
C25 N4 1_555 1_555
H17 C25 1_555 1_555
H18 C25 1_555 1_555
H19 C25 1_555 1_555
C26 N6 1_555 1_555
H20 C26 1_555 1_555
H21 C26 1_555 1_555
H22 C26 1_555 1_555
C4 C5 1_555 1_555
C5 C7 1_555 1_555
C10 C11 1_555 1_555
N6 C19 1_555 1_555
C17 C20 1_555 1_555
C23 C24 1_555 1_555

#END
