
#######################################################################
#
#                 Cambridge Crystallographic Data Centre
#                                CCDC 
#
#######################################################################
#
# If this CIF has been generated from an entry in the Cambridge 
# Structural Database, then it will include bibliographic, chemical, 
# crystal, experimental, refinement or atomic coordinate data resulting 
# from the CCDC's data processing and validation procedures.
#
#######################################################################

data_KEYSEP
_chemical_formula_moiety         'C20 H14 N2 O2 S1'
_chemical_name_systematic        
6-phenyl-8\l^6^-[1,2]benzothiazolo[2,3-c]quinazoline-8,8(12bH)-dione
_symmetry_cell_setting           triclinic
_symmetry_space_group_name_H-M   'P -1'
_symmetry_Int_Tables_number      2
_space_group_name_Hall           '-P 1'
loop_
_symmetry_equiv_pos_site_id
_symmetry_equiv_pos_as_xyz
1 x,y,z
2 -x,-y,-z
_cell_length_a                   10.1694(6)
_cell_length_b                   10.3495(6)
_cell_length_c                   16.9897(10)
_cell_angle_alpha                85.344(2)
_cell_angle_beta                 74.159(2)
_cell_angle_gamma                70.068(2)
_cell_volume                     1617.04
_exptl_crystal_colour            'metallic whiteish white'
_exptl_crystal_description       octahedral
_cell_formula_units_Z            4
_exptl_crystal_recrystallization_method Dichloromethane/Hexane
_exptl_crystal_preparation       'Slow Diffusion'
loop_
_atom_site_label
_atom_site_type_symbol
_atom_site_fract_x
_atom_site_fract_y
_atom_site_fract_z
S1 S 0.75573(9) 0.88956(8) 0.41824(5)
O1 O 0.9052(3) 0.8710(3) 0.4068(2)
O2 O 0.6781(3) 0.8644(3) 0.49782(16)
N1 N 0.7343(3) 0.7980(3) 0.34799(16)
N2 N 0.6358(3) 0.6165(3) 0.37225(18)
C1 C 0.6190(3) 0.8805(3) 0.3085(2)
H1 H 0.6509 0.8573 0.2500
C2 C 0.6083(3) 1.0272(3) 0.3190(2)
C3 C 0.5462(4) 1.1405(4) 0.2761(2)
H2 H 0.5044 1.1314 0.2354
C4 C 0.5474(4) 1.2676(4) 0.2949(3)
H3 H 0.5056 1.3441 0.2662
C5 C 0.6085(4) 1.2843(4) 0.3547(3)
H4 H 0.6066 1.3713 0.3664
C6 C 0.6724(4) 1.1723(4) 0.3973(3)
H5 H 0.7155 1.1813 0.4374
C7 C 0.6702(3) 1.0456(3) 0.3781(2)
C8 C 0.7427(3) 0.6599(3) 0.36543(19)
C9 C 0.8843(4) 0.5642(3) 0.3732(2)
C10 C 1.0123(4) 0.5844(4) 0.3304(2)
H6 H 1.0094 0.6607 0.2971
C11 C 1.1449(4) 0.4925(4) 0.3366(2)
H7 H 1.2305 0.5066 0.3073
C12 C 1.1490(4) 0.3803(4) 0.3863(2)
H8 H 1.2375 0.3193 0.3916
C13 C 1.0225(4) 0.3582(4) 0.4283(3)
H9 H 1.0261 0.2817 0.4614
C14 C 0.8900(4) 0.4486(4) 0.4216(2)
H10 H 0.8050 0.4321 0.4494
C15 C 0.4991(4) 0.7138(3) 0.3732(2)
C16 C 0.3788(4) 0.6720(4) 0.4020(2)
H11 H 0.3904 0.5817 0.4184
C17 C 0.2418(4) 0.7642(4) 0.4062(2)
H12 H 0.1616 0.7352 0.4247
C18 C 0.2228(4) 0.8993(4) 0.3832(2)
H13 H 0.1301 0.9619 0.3880
C19 C 0.3431(4) 0.9406(4) 0.3529(2)
H14 H 0.3309 1.0312 0.3369
C20 C 0.4815(3) 0.8482(3) 0.34618(19)
S2 S 0.39408(9) 0.89132(9) 0.10026(5)
O3 O 0.5260(3) 0.8732(3) 0.1209(2)
O4 O 0.4058(3) 0.8695(3) 0.01718(16)
N3 N 0.3003(3) 0.7981(3) 0.16087(17)
N4 N 0.2305(3) 0.6154(3) 0.13007(19)
C21 C 0.1452(4) 0.8807(4) 0.1957(2)
H15 H 0.1156 0.8565 0.2533
C22 C 0.1420(4) 1.0269(4) 0.1914(2)
C23 C 0.0333(4) 1.1395(4) 0.2339(2)
H16 H -0.0494 1.1292 0.2701
C24 C 0.0499(5) 1.2670(4) 0.2215(3)
H17 H -0.0234 1.3431 0.2492
C25 C 0.1729(5) 1.2845(4) 0.1690(3)
H18 H 0.1817 1.3716 0.1619
C26 C 0.2822(4) 1.1737(4) 0.1271(2)
H19 H 0.3652 1.1839 0.0913
C27 C 0.2642(4) 1.0466(3) 0.1403(2)
C28 C 0.3281(4) 0.6583(3) 0.1416(2)
C29 C 0.4755(4) 0.5613(4) 0.1364(2)
C30 C 0.5668(4) 0.5884(4) 0.1757(2)
H20 H 0.5341 0.6675 0.2077
C31 C 0.7064(4) 0.4978(4) 0.1673(3)
H21 H 0.7680 0.5169 0.1927
C32 C 0.7536(5) 0.3798(4) 0.1211(3)
H22 H 0.8478 0.3197 0.1149
C33 C 0.6631(5) 0.3500(4) 0.0842(2)
H23 H 0.6955 0.2688 0.0541
C34 C 0.5248(4) 0.4392(4) 0.0915(2)
H24 H 0.4638 0.4182 0.0663
C35 C 0.0983(4) 0.7124(4) 0.1227(2)
C36 C 0.0139(5) 0.6711(5) 0.0848(3)
H25 H 0.0425 0.5801 0.0680
C37 C -0.1125(5) 0.7649(5) 0.0719(3)
H26 H -0.1687 0.7368 0.0465
C38 C -0.1552(5) 0.8991(5) 0.0963(3)
H27 H -0.2394 0.9621 0.0865
C39 C -0.0742(4) 0.9416(4) 0.1356(3)
H28 H -0.1044 1.0328 0.1525
C40 C 0.0520(4) 0.8484(4) 0.1497(2)
loop_
_geom_bond_atom_site_label_1
_geom_bond_atom_site_label_2
_geom_bond_site_symmetry_1
_geom_bond_site_symmetry_2
S1 O1 1_555 1_555
O2 S1 1_555 1_555
N1 S1 1_555 1_555
N2 C8 1_555 1_555
C1 N1 1_555 1_555
H1 C1 1_555 1_555
C2 C1 1_555 1_555
C3 C2 1_555 1_555
H2 C3 1_555 1_555
C4 C3 1_555 1_555
H3 C4 1_555 1_555
C5 C4 1_555 1_555
H4 C5 1_555 1_555
C6 C5 1_555 1_555
H5 C6 1_555 1_555
C7 S1 1_555 1_555
C8 N1 1_555 1_555
C9 C8 1_555 1_555
C10 C9 1_555 1_555
H6 C10 1_555 1_555
C11 C10 1_555 1_555
H7 C11 1_555 1_555
C12 C11 1_555 1_555
H8 C12 1_555 1_555
C13 C12 1_555 1_555
H9 C13 1_555 1_555
C14 C9 1_555 1_555
H10 C14 1_555 1_555
C15 N2 1_555 1_555
C16 C15 1_555 1_555
H11 C16 1_555 1_555
C17 C16 1_555 1_555
H12 C17 1_555 1_555
C18 C17 1_555 1_555
H13 C18 1_555 1_555
C19 C18 1_555 1_555
H14 C19 1_555 1_555
C20 C1 1_555 1_555
S2 O3 1_555 1_555
O4 S2 1_555 1_555
N3 S2 1_555 1_555
N4 C28 1_555 1_555
C21 N3 1_555 1_555
H15 C21 1_555 1_555
C22 C21 1_555 1_555
C23 C22 1_555 1_555
H16 C23 1_555 1_555
C24 C23 1_555 1_555
H17 C24 1_555 1_555
C25 C24 1_555 1_555
H18 C25 1_555 1_555
C26 C25 1_555 1_555
H19 C26 1_555 1_555
C27 S2 1_555 1_555
C28 N3 1_555 1_555
C29 C28 1_555 1_555
C30 C29 1_555 1_555
H20 C30 1_555 1_555
C31 C30 1_555 1_555
H21 C31 1_555 1_555
C32 C31 1_555 1_555
H22 C32 1_555 1_555
C33 C32 1_555 1_555
H23 C33 1_555 1_555
C34 C29 1_555 1_555
H24 C34 1_555 1_555
C35 N4 1_555 1_555
C36 C35 1_555 1_555
H25 C36 1_555 1_555
C37 C36 1_555 1_555
H26 C37 1_555 1_555
C38 C37 1_555 1_555
H27 C38 1_555 1_555
C39 C38 1_555 1_555
H28 C39 1_555 1_555
C40 C21 1_555 1_555
C2 C7 1_555 1_555
C6 C7 1_555 1_555
C13 C14 1_555 1_555
C15 C20 1_555 1_555
C19 C20 1_555 1_555
C22 C27 1_555 1_555
C26 C27 1_555 1_555
C33 C34 1_555 1_555
C35 C40 1_555 1_555
C39 C40 1_555 1_555

#END
