
#######################################################################
#
#                 Cambridge Crystallographic Data Centre
#                                CCDC 
#
#######################################################################
#
# If this CIF has been generated from an entry in the Cambridge 
# Structural Database, then it will include bibliographic, chemical, 
# crystal, experimental, refinement or atomic coordinate data resulting 
# from the CCDC's data processing and validation procedures.
#
#######################################################################

data_KEYTOZ
_chemical_formula_moiety         'C48 H48 N2 O2'
_chemical_name_systematic        
1,6-bis(hexyloxy)-3,4,8,9-tetraphenylpyrido[3,4-g]isoquinoline
_symmetry_cell_setting           triclinic
_symmetry_space_group_name_H-M   'P -1'
_symmetry_Int_Tables_number      2
_space_group_name_Hall           '-P 1'
loop_
_symmetry_equiv_pos_site_id
_symmetry_equiv_pos_as_xyz
1 x,y,z
2 -x,-y,-z
_cell_length_a                   10.167(2)
_cell_length_b                   13.615(3)
_cell_length_c                   14.929(3)
_cell_angle_alpha                94.25(3)
_cell_angle_beta                 99.55(3)
_cell_angle_gamma                106.70(3)
_cell_volume                     1935.64
_exptl_crystal_colour            yellow
_exptl_crystal_description       plate
_cell_formula_units_Z            2
loop_
_atom_site_label
_atom_site_type_symbol
_atom_site_fract_x
_atom_site_fract_y
_atom_site_fract_z
O1 O 0.4241(2) 0.41496(17) 0.25665(15)
N1 N 0.6021(3) 0.5686(2) 0.28024(18)
C1 C 0.5162(3) 0.4960(2) 0.3122(2)
C2 C 0.5076(3) 0.4945(2) 0.4081(2)
C3 C 0.4045(3) 0.4191(2) 0.4372(2)
H1 H 0.3400 0.3650 0.3938
C4 C 0.6050(3) 0.5775(2) 0.4702(2)
C5 C 0.7050(3) 0.6564(2) 0.4349(2)
C6 C 0.8048(3) 0.7445(2) 0.5004(2)
C7 C 0.9057(3) 0.7263(3) 0.5671(2)
H2 H 0.9089 0.6577 0.5714
C8 C 1.0007(4) 0.8075(3) 0.6267(2)
H3 H 1.0693 0.7941 0.6715
C9 C 0.9979(4) 0.9076(3) 0.6225(3)
H4 H 1.0642 0.9629 0.6636
C10 C 0.8968(4) 0.9265(3) 0.5573(2)
H5 H 0.8935 0.9952 0.5541
C11 C 0.8008(3) 0.8459(2) 0.4968(2)
H6 H 0.7318 0.8597 0.4526
C12 C 0.6988(3) 0.6491(2) 0.3417(2)
C13 C 0.7902(3) 0.7265(2) 0.2945(2)
C14 C 0.9344(3) 0.7687(2) 0.3265(2)
H7 H 0.9774 0.7499 0.3813
C15 C 1.0152(4) 0.8382(3) 0.2786(2)
H8 H 1.1134 0.8657 0.3002
C16 C 0.9532(4) 0.8678(3) 0.1991(2)
H9 H 1.0083 0.9165 0.1672
C17 C 0.8112(4) 0.8259(3) 0.1672(3)
H10 H 0.7683 0.8458 0.1130
C18 C 0.7304(4) 0.7550(3) 0.2136(2)
H11 H 0.6330 0.7254 0.1898
C19 C 0.4202(4) 0.4138(3) 0.1592(2)
H12 H 0.5146 0.4215 0.1459
H13 H 0.3884 0.4714 0.1369
C20 C 0.3197(4) 0.3119(3) 0.1132(2)
H14 H 0.3605 0.2564 0.1299
H15 H 0.3095 0.3116 0.0460
C21 C 0.1747(4) 0.2868(3) 0.1371(3)
H16 H 0.1824 0.2768 0.2025
H17 H 0.1383 0.3462 0.1282
C22 C 0.0717(4) 0.1906(3) 0.0793(3)
H18 H 0.1146 0.1339 0.0812
H19 H 0.0543 0.2045 0.0150
C23 C -0.0684(4) 0.1547(3) 0.1103(3)
H20 H -0.0525 0.1328 0.1719
H21 H -0.1064 0.2137 0.1153
C24 C -0.1749(4) 0.0666(3) 0.0461(3)
H22 H -0.1981 0.0898 -0.0134
H23 H -0.2598 0.0437 0.0717
H24 H -0.1362 0.0091 0.0383
O1A O 0.5759(2) 0.58504(17) 0.74335(15)
N1A N 0.3979(3) 0.4314(2) 0.71976(18)
C1A C 0.4838(3) 0.5040(2) 0.6878(2)
C2A C 0.4924(3) 0.5055(2) 0.5919(2)
C3A C 0.5955(3) 0.5809(2) 0.5628(2)
H1A H 0.6600 0.6350 0.6062
C4A C 0.3950(3) 0.4225(2) 0.5298(2)
C5A C 0.2950(3) 0.3436(2) 0.5651(2)
C6A C 0.1952(3) 0.2555(2) 0.4996(2)
C7A C 0.0943(3) 0.2737(3) 0.4329(2)
H2A H 0.0911 0.3423 0.4286
C8A C -0.0007(4) 0.1925(3) 0.3733(2)
H3A H -0.0693 0.2059 0.3285
C9A C 0.0021(4) 0.0924(3) 0.3775(3)
H4A H -0.0642 0.0371 0.3364
C10A C 0.1032(4) 0.0735(3) 0.4427(2)
H5A H 0.1065 0.0048 0.4459
C11A C 0.1992(3) 0.1541(2) 0.5032(2)
H6A H 0.2682 0.1403 0.5474
C12A C 0.3012(3) 0.3509(2) 0.6583(2)
C13A C 0.2098(3) 0.2735(2) 0.7055(2)
C14A C 0.0656(3) 0.2313(2) 0.6735(2)
H7A H 0.0226 0.2501 0.6187
C15A C -0.0152(4) 0.1618(3) 0.7214(2)
H8A H -0.1134 0.1343 0.6998
C16A C 0.0468(4) 0.1322(3) 0.8009(2)
H9A H -0.0083 0.0835 0.8328
C17A C 0.1888(4) 0.1741(3) 0.8328(3)
H10A H 0.2317 0.1542 0.8870
C18A C 0.2696(4) 0.2450(3) 0.7864(2)
H11A H 0.3670 0.2746 0.8102
C19A C 0.5798(4) 0.5862(3) 0.8408(2)
H12A H 0.4854 0.5785 0.8541
H13A H 0.6116 0.5286 0.8631
C20A C 0.6803(4) 0.6881(3) 0.8868(2)
H14A H 0.6395 0.7436 0.8701
H15A H 0.6905 0.6884 0.9540
C21A C 0.8253(4) 0.7132(3) 0.8629(3)
H16A H 0.8176 0.7232 0.7975
H17A H 0.8617 0.6538 0.8718
C22A C 0.9283(4) 0.8094(3) 0.9207(3)
H18A H 0.8854 0.8661 0.9188
H19A H 0.9457 0.7955 0.9850
C23A C 1.0684(4) 0.8453(3) 0.8897(3)
H20A H 1.0525 0.8672 0.8281
H21A H 1.1064 0.7863 0.8847
C24A C 1.1749(4) 0.9334(3) 0.9539(3)
H22A H 1.1981 0.9102 1.0134
H23A H 1.2598 0.9563 0.9283
H24A H 1.1362 0.9909 0.9617
O2 O 0.9221(2) 0.51668(17) 0.25782(15)
N2 N 0.7593(3) 0.3700(2) 0.28258(18)
C25 C 0.8657(3) 0.4508(2) 0.3141(2)
C26 C 0.9340(3) 0.4790(2) 0.4085(2)
C27 C 1.0552(3) 0.5628(2) 0.4365(2)
H25 H 1.0915 0.6048 0.3928
C28 C 0.8760(3) 0.4144(2) 0.4713(2)
C29 C 0.7534(3) 0.3255(2) 0.4369(2)
C30 C 0.6947(3) 0.2568(2) 0.5039(2)
C31 C 0.6405(3) 0.2955(3) 0.5737(2)
H26 H 0.6420 0.3657 0.5790
C32 C 0.5845(4) 0.2324(3) 0.6354(2)
H27 H 0.5463 0.2595 0.6820
C33 C 0.5838(4) 0.1301(3) 0.6297(3)
H28 H 0.5467 0.0871 0.6725
C34 C 0.6379(4) 0.0914(3) 0.5607(3)
H29 H 0.6370 0.0212 0.5561
C35 C 0.6932(3) 0.1535(2) 0.4985(2)
H30 H 0.7305 0.1259 0.4518
C36 C 0.7022(3) 0.3066(2) 0.3449(2)
C37 C 0.5812(3) 0.2161(2) 0.2984(2)
C38 C 0.4567(3) 0.1848(2) 0.3301(2)
H31 H 0.4480 0.2195 0.3854
C39 C 0.3450(4) 0.1034(3) 0.2820(2)
H32 H 0.2596 0.0844 0.3037
C40 C 0.3561(4) 0.0502(3) 0.2036(2)
H33 H 0.2798 -0.0065 0.1718
C41 C 0.4802(4) 0.0800(3) 0.1711(3)
H34 H 0.4892 0.0435 0.1169
C42 C 0.5906(4) 0.1629(3) 0.2178(2)
H35 H 0.6743 0.1838 0.1943
C43 C 0.8564(4) 0.4968(3) 0.1621(2)
H36 H 0.7577 0.4964 0.1545
H37 H 0.8588 0.4291 0.1345
C44 C 0.9398(4) 0.5836(3) 0.1172(2)
H38 H 0.8946 0.5757 0.0520
H39 H 0.9369 0.6503 0.1468
C45 C 1.0913(4) 0.5874(3) 0.1230(3)
H40 H 1.0945 0.5210 0.0931
H41 H 1.1367 0.5951 0.1882
C46 C 1.1747(4) 0.6758(3) 0.0779(3)
H42 H 1.1250 0.6715 0.0141
H43 H 1.1783 0.7424 0.1112
C47 C 1.3230(4) 0.6744(4) 0.0767(3)
H44 H 1.3194 0.6086 0.0419
H45 H 1.3720 0.6768 0.1403
C48 C 1.4068(5) 0.7639(4) 0.0341(4)
H46 H 1.3578 0.7632 -0.0284
H47 H 1.4997 0.7570 0.0325
H48 H 1.4168 0.8293 0.0708
O2A O 1.0779(2) 0.48332(17) 0.74218(15)
N2A N 1.2407(3) 0.6300(2) 0.71742(18)
C25A C 1.1343(3) 0.5492(2) 0.6859(2)
C26A C 1.0660(3) 0.5210(2) 0.5915(2)
C27A C 0.9448(3) 0.4372(2) 0.5635(2)
H25A H 0.9085 0.3952 0.6072
C28A C 1.1240(3) 0.5856(2) 0.5287(2)
C29A C 1.2466(3) 0.6745(2) 0.5631(2)
C30A C 1.3053(3) 0.7432(2) 0.4961(2)
C31A C 1.3595(3) 0.7045(3) 0.4263(2)
H26A H 1.3580 0.6343 0.4210
C32A C 1.4155(4) 0.7676(3) 0.3646(2)
H27A H 1.4537 0.7405 0.3180
C33A C 1.4162(4) 0.8699(3) 0.3703(3)
H28A H 1.4533 0.9129 0.3275
C34A C 1.3621(4) 0.9086(3) 0.4393(3)
H29A H 1.3630 0.9788 0.4439
C35A C 1.3068(3) 0.8465(2) 0.5015(2)
H30A H 1.2695 0.8741 0.5482
C36A C 1.2978(3) 0.6934(2) 0.6551(2)
C37A C 1.4188(3) 0.7839(2) 0.7016(2)
C38A C 1.5433(3) 0.8152(2) 0.6699(2)
H31A H 1.5520 0.7805 0.6146
C39A C 1.6550(4) 0.8966(3) 0.7180(2)
H32A H 1.7404 0.9156 0.6963
C40A C 1.6439(4) 0.9498(3) 0.7964(2)
H33A H 1.7202 1.0065 0.8282
C41A C 1.5198(4) 0.9200(3) 0.8289(3)
H34A H 1.5108 0.9565 0.8831
C42A C 1.4094(4) 0.8371(3) 0.7822(2)
H35A H 1.3257 0.8162 0.8057
C43A C 1.1436(4) 0.5032(3) 0.8379(2)
H36A H 1.2423 0.5036 0.8455
H37A H 1.1412 0.5709 0.8655
C44A C 1.0602(4) 0.4164(3) 0.8828(2)
H38A H 1.1054 0.4243 0.9480
H39A H 1.0631 0.3497 0.8532
C45A C 0.9087(4) 0.4126(3) 0.8770(3)
H40A H 0.9055 0.4790 0.9069
H41A H 0.8633 0.4049 0.8118
C46A C 0.8253(4) 0.3242(3) 0.9221(3)
H42A H 0.8750 0.3285 0.9859
H43A H 0.8217 0.2576 0.8888
C47A C 0.6770(4) 0.3256(4) 0.9233(3)
H44A H 0.6806 0.3914 0.9581
H45A H 0.6280 0.3232 0.8597
C48A C 0.5932(5) 0.2361(4) 0.9659(4)
H46A H 0.6422 0.2368 1.0284
H47A H 0.5003 0.2430 0.9675
H48A H 0.5832 0.1707 0.9292
loop_
_geom_bond_atom_site_label_1
_geom_bond_atom_site_label_2
_geom_bond_site_symmetry_1
_geom_bond_site_symmetry_2
O1 C1 1_555 1_555
N1 C1 1_555 1_555
C1 C2 1_555 1_555
C2 C3 1_555 1_555
C3 H1 1_555 1_555
C4 C2 1_555 1_555
C5 C4 1_555 1_555
C6 C5 1_555 1_555
C7 C6 1_555 1_555
H2 C7 1_555 1_555
C8 C7 1_555 1_555
H3 C8 1_555 1_555
C9 C8 1_555 1_555
H4 C9 1_555 1_555
C10 C9 1_555 1_555
H5 C10 1_555 1_555
C11 C6 1_555 1_555
H6 C11 1_555 1_555
C12 N1 1_555 1_555
C13 C12 1_555 1_555
C14 C13 1_555 1_555
H7 C14 1_555 1_555
C15 C14 1_555 1_555
H8 C15 1_555 1_555
C16 C15 1_555 1_555
H9 C16 1_555 1_555
C17 C16 1_555 1_555
H10 C17 1_555 1_555
C18 C13 1_555 1_555
H11 C18 1_555 1_555
C19 O1 1_555 1_555
H12 C19 1_555 1_555
H13 C19 1_555 1_555
C20 C19 1_555 1_555
H14 C20 1_555 1_555
H15 C20 1_555 1_555
C21 C20 1_555 1_555
H16 C21 1_555 1_555
H17 C21 1_555 1_555
C22 C21 1_555 1_555
H18 C22 1_555 1_555
H19 C22 1_555 1_555
C23 C22 1_555 1_555
H20 C23 1_555 1_555
H21 C23 1_555 1_555
C24 C23 1_555 1_555
H22 C24 1_555 1_555
H23 C24 1_555 1_555
H24 C24 1_555 1_555
O2 C25 1_555 1_555
N2 C25 1_555 1_555
C25 C26 1_555 1_555
C26 C27 1_555 1_555
C27 H25 1_555 1_555
C28 C26 1_555 1_555
C29 C28 1_555 1_555
C30 C29 1_555 1_555
C31 C30 1_555 1_555
H26 C31 1_555 1_555
C32 C31 1_555 1_555
H27 C32 1_555 1_555
C33 C32 1_555 1_555
H28 C33 1_555 1_555
C34 C33 1_555 1_555
H29 C34 1_555 1_555
C35 C30 1_555 1_555
H30 C35 1_555 1_555
C36 N2 1_555 1_555
C37 C36 1_555 1_555
C38 C37 1_555 1_555
H31 C38 1_555 1_555
C39 C38 1_555 1_555
H32 C39 1_555 1_555
C40 C39 1_555 1_555
H33 C40 1_555 1_555
C41 C40 1_555 1_555
H34 C41 1_555 1_555
C42 C37 1_555 1_555
H35 C42 1_555 1_555
C43 O2 1_555 1_555
H36 C43 1_555 1_555
H37 C43 1_555 1_555
C44 C43 1_555 1_555
H38 C44 1_555 1_555
H39 C44 1_555 1_555
C45 C44 1_555 1_555
H40 C45 1_555 1_555
H41 C45 1_555 1_555
C46 C45 1_555 1_555
H42 C46 1_555 1_555
H43 C46 1_555 1_555
C47 C46 1_555 1_555
H44 C47 1_555 1_555
H45 C47 1_555 1_555
C48 C47 1_555 1_555
H46 C48 1_555 1_555
H47 C48 1_555 1_555
H48 C48 1_555 1_555
O1A C1A 1_555 1_555
N1A C1A 1_555 1_555
C1A C2A 1_555 1_555
C2A C3A 1_555 1_555
C3A C4 1_555 1_555
H1A C3A 1_555 1_555
C4A C3 1_555 1_555
C5A C4A 1_555 1_555
C6A C5A 1_555 1_555
C7A C6A 1_555 1_555
H2A C7A 1_555 1_555
C8A C7A 1_555 1_555
H3A C8A 1_555 1_555
C9A C8A 1_555 1_555
H4A C9A 1_555 1_555
C10A C9A 1_555 1_555
H5A C10A 1_555 1_555
C11A C6A 1_555 1_555
H6A C11A 1_555 1_555
C12A N1A 1_555 1_555
C13A C12A 1_555 1_555
C14A C13A 1_555 1_555
H7A C14A 1_555 1_555
C15A C14A 1_555 1_555
H8A C15A 1_555 1_555
C16A C15A 1_555 1_555
H9A C16A 1_555 1_555
C17A C16A 1_555 1_555
H10A C17A 1_555 1_555
C18A C13A 1_555 1_555
H11A C18A 1_555 1_555
C19A O1A 1_555 1_555
H12A C19A 1_555 1_555
H13A C19A 1_555 1_555
C20A C19A 1_555 1_555
H14A C20A 1_555 1_555
H15A C20A 1_555 1_555
C21A C20A 1_555 1_555
H16A C21A 1_555 1_555
H17A C21A 1_555 1_555
C22A C21A 1_555 1_555
H18A C22A 1_555 1_555
H19A C22A 1_555 1_555
C23A C22A 1_555 1_555
H20A C23A 1_555 1_555
H21A C23A 1_555 1_555
C24A C23A 1_555 1_555
H22A C24A 1_555 1_555
H23A C24A 1_555 1_555
H24A C24A 1_555 1_555
O2A C25A 1_555 1_555
N2A C25A 1_555 1_555
C25A C26A 1_555 1_555
C26A C27A 1_555 1_555
C27A C28 1_555 1_555
H25A C27A 1_555 1_555
C28A C27 1_555 1_555
C29A C28A 1_555 1_555
C30A C29A 1_555 1_555
C31A C30A 1_555 1_555
H26A C31A 1_555 1_555
C32A C31A 1_555 1_555
H27A C32A 1_555 1_555
C33A C32A 1_555 1_555
H28A C33A 1_555 1_555
C34A C33A 1_555 1_555
H29A C34A 1_555 1_555
C35A C30A 1_555 1_555
H30A C35A 1_555 1_555
C36A N2A 1_555 1_555
C37A C36A 1_555 1_555
C38A C37A 1_555 1_555
H31A C38A 1_555 1_555
C39A C38A 1_555 1_555
H32A C39A 1_555 1_555
C40A C39A 1_555 1_555
H33A C40A 1_555 1_555
C41A C40A 1_555 1_555
H34A C41A 1_555 1_555
C42A C37A 1_555 1_555
H35A C42A 1_555 1_555
C43A O2A 1_555 1_555
H36A C43A 1_555 1_555
H37A C43A 1_555 1_555
C44A C43A 1_555 1_555
H38A C44A 1_555 1_555
H39A C44A 1_555 1_555
C45A C44A 1_555 1_555
H40A C45A 1_555 1_555
H41A C45A 1_555 1_555
C46A C45A 1_555 1_555
H42A C46A 1_555 1_555
H43A C46A 1_555 1_555
C47A C46A 1_555 1_555
H44A C47A 1_555 1_555
H45A C47A 1_555 1_555
C48A C47A 1_555 1_555
H46A C48A 1_555 1_555
H47A C48A 1_555 1_555
H48A C48A 1_555 1_555
C5 C12 1_555 1_555
C10 C11 1_555 1_555
C17 C18 1_555 1_555
C29 C36 1_555 1_555
C34 C35 1_555 1_555
C41 C42 1_555 1_555
C2A C4A 1_555 1_555
C5A C12A 1_555 1_555
C10A C11A 1_555 1_555
C17A C18A 1_555 1_555
C26A C28A 1_555 1_555
C29A C36A 1_555 1_555
C34A C35A 1_555 1_555
C41A C42A 1_555 1_555

#END
