
#######################################################################
#
#                 Cambridge Crystallographic Data Centre
#                                CCDC 
#
#######################################################################
#
# If this CIF has been generated from an entry in the Cambridge 
# Structural Database, then it will include bibliographic, chemical, 
# crystal, experimental, refinement or atomic coordinate data resulting 
# from the CCDC's data processing and validation procedures.
#
#######################################################################

data_KEYYUJ
_chemical_name_common            'PDB Chemical Component code: 0UT'
_chemical_formula_moiety         'C14 H12 O3'
_chemical_name_systematic        'Benzilic acid'
_symmetry_cell_setting           orthorhombic
_symmetry_space_group_name_H-M   'P n a 21'
_symmetry_Int_Tables_number      33
_space_group_name_Hall           'P 2c -2n'
loop_
_symmetry_equiv_pos_site_id
_symmetry_equiv_pos_as_xyz
1 x,y,z
2 -x,-y,1/2+z
3 1/2+x,1/2-y,z
4 1/2-x,1/2+y,1/2+z
_cell_length_a                   11.2776(11)
_cell_length_b                   8.6554(9)
_cell_length_c                   24.418(2)
_cell_angle_alpha                90
_cell_angle_beta                 90
_cell_angle_gamma                90
_cell_volume                     2383.49
_exptl_crystal_colour            colorless
_exptl_crystal_description       block
_cell_formula_units_Z            8
loop_
_atom_site_label
_atom_site_type_symbol
_atom_site_fract_x
_atom_site_fract_y
_atom_site_fract_z
C1 C 0.7413(3) 0.8191(4) 0.14959(15)
C2 C 0.7473(5) 0.7636(5) 0.2085(2)
C3 C 0.8338(4) 0.8286(5) 0.24392(17)
H1 H 0.8827 0.9088 0.2325
C4 C 0.8425(7) 0.7666(9) 0.2973(3)
H2 H 0.8950 0.8127 0.3217
C5 C 0.7813(5) 0.6491(7) 0.3140(2)
H3 H 0.7945 0.6077 0.3487
C6 C 0.6959(5) 0.5853(7) 0.2799(2)
H4 H 0.6498 0.5030 0.2919
C7 C 0.6798(4) 0.6447(5) 0.22786(19)
H5 H 0.6214 0.6026 0.2055
C8 C 0.7782(3) 0.9885(4) 0.14064(16)
C9 C 0.7142(5) 1.1080(6) 0.1640(2)
H6 H 0.6484 1.0854 0.1855
C10 C 0.7457(9) 1.2569(6) 0.1561(4)
H7 H 0.7027 1.3349 0.1731
C11 C 0.8406(9) 1.2950(8) 0.1232(4)
H8 H 0.8592 1.3979 0.1165
C12 C 0.9079(6) 1.1779(8) 0.1003(3)
H9 H 0.9749 1.2010 0.0797
C13 C 0.8741(4) 1.0254(5) 0.1086(2)
H10 H 0.9173 0.9467 0.0920
C14 C 0.6158(3) 0.8032(5) 0.12567(18)
O1 O 0.8164(3) 0.7171(4) 0.12083(14)
H11 H 0.8013 0.7214 0.0880
O2 O 0.5309(2) 0.8511(3) 0.15750(13)
H12 H 0.4667 0.8340 0.1430
O3 O 0.6011(4) 0.7499(4) 0.08021(18)
C15 C 0.4898(3) 0.6791(4) 0.93991(15)
C16 C 0.4994(6) 0.7349(5) 0.8797(2)
C17 C 0.4285(4) 0.8531(5) 0.86153(18)
H13 H 0.3705 0.8943 0.8843
C18 C 0.4436(4) 0.9103(7) 0.8093(2)
H14 H 0.3963 0.9912 0.7971
C19 C 0.5272(5) 0.8495(7) 0.7755(2)
H15 H 0.5346 0.8856 0.7398
C20 C 0.6015(6) 0.7333(7) 0.7945(3)
H16 H 0.6634 0.6972 0.7728
C21 C 0.5821(4) 0.6723(6) 0.84561(19)
H17 H 0.6260 0.5873 0.8571
C22 C 0.5244(3) 0.5093(5) 0.94821(17)
C23 C 0.4580(4) 0.3939(6) 0.9248(2)
H18 H 0.3931 0.4185 0.9030
C24 C 0.4878(11) 0.2411(7) 0.9338(6)
H19 H 0.4402 0.1632 0.9194
C25 C 0.5871(7) 0.2025(8) 0.9637(3)
H20 H 0.6085 0.0998 0.9688
C26 C 0.6511(7) 0.3152(8) 0.9850(3)
H21 H 0.7181 0.2897 1.0053
C27 C 0.6227(4) 0.4699(6) 0.9784(2)
H22 H 0.6695 0.5462 0.9943
C28 C 0.3659(3) 0.7060(6) 0.96435(17)
O4 O 0.5676(3) 0.7779(4) 0.96996(14)
H23 H 0.5596 0.7617 1.0028
O5 O 0.3526(4) 0.7663(4) 1.00705(17)
O6 O 0.2802(2) 0.6492(3) 0.93372(13)
H24 H 0.2158 0.6723 0.9470
loop_
_geom_bond_atom_site_label_1
_geom_bond_atom_site_label_2
_geom_bond_site_symmetry_1
_geom_bond_site_symmetry_2
C1 C2 1_555 1_555
C2 C3 1_555 1_555
C3 H1 1_555 1_555
C4 C3 1_555 1_555
H2 C4 1_555 1_555
C5 C4 1_555 1_555
H3 C5 1_555 1_555
C6 C5 1_555 1_555
H4 C6 1_555 1_555
C7 C2 1_555 1_555
H5 C7 1_555 1_555
C8 C1 1_555 1_555
C9 C8 1_555 1_555
H6 C9 1_555 1_555
C10 C9 1_555 1_555
H7 C10 1_555 1_555
C11 C10 1_555 1_555
H8 C11 1_555 1_555
C12 C11 1_555 1_555
H9 C12 1_555 1_555
C13 C8 1_555 1_555
H10 C13 1_555 1_555
C14 C1 1_555 1_555
O1 C1 1_555 1_555
H11 O1 1_555 1_555
O2 C14 1_555 1_555
H12 O2 1_555 1_555
O3 C14 1_555 1_555
C15 C16 1_555 1_555
C16 C17 1_555 1_555
C17 H13 1_555 1_555
C18 C17 1_555 1_555
H14 C18 1_555 1_555
C19 C18 1_555 1_555
H15 C19 1_555 1_555
C20 C19 1_555 1_555
H16 C20 1_555 1_555
C21 C16 1_555 1_555
H17 C21 1_555 1_555
C22 C15 1_555 1_555
C23 C22 1_555 1_555
H18 C23 1_555 1_555
C24 C23 1_555 1_555
H19 C24 1_555 1_555
C25 C24 1_555 1_555
H20 C25 1_555 1_555
C26 C25 1_555 1_555
H21 C26 1_555 1_555
C27 C22 1_555 1_555
H22 C27 1_555 1_555
C28 C15 1_555 1_555
O4 C15 1_555 1_555
H23 O4 1_555 1_555
O5 C28 1_555 1_555
O6 C28 1_555 1_555
H24 O6 1_555 1_555
C6 C7 1_555 1_555
C12 C13 1_555 1_555
C20 C21 1_555 1_555
C26 C27 1_555 1_555

#END
