
#######################################################################
#
#                 Cambridge Crystallographic Data Centre
#                                CCDC 
#
#######################################################################
#
# If this CIF has been generated from an entry in the Cambridge 
# Structural Database, then it will include bibliographic, chemical, 
# crystal, experimental, refinement or atomic coordinate data resulting 
# from the CCDC's data processing and validation procedures.
#
#######################################################################

data_KEYZAR
_chemical_formula_moiety         'C19 H19 N3 O4 S1'
_chemical_name_systematic        
(2S,3R,4S)-3-Ethyl-1-((4-nitrophenyl)sulfonyl)-4-phenylpyrrolidine-2-carbonitrile
_symmetry_cell_setting           orthorhombic
_symmetry_space_group_name_H-M   'P 21 21 21'
_symmetry_Int_Tables_number      19
_space_group_name_Hall           'P 2ac 2ab'
loop_
_symmetry_equiv_pos_site_id
_symmetry_equiv_pos_as_xyz
1 x,y,z
2 1/2-x,-y,1/2+z
3 1/2+x,1/2-y,-z
4 -x,1/2+y,1/2-z
_cell_length_a                   6.901(3)
_cell_length_b                   7.7750(3)
_cell_length_c                   34.6377(13)
_cell_angle_alpha                90
_cell_angle_beta                 90
_cell_angle_gamma                90
_cell_volume                     1858.5
_chemical_melting_point          '150.4-151.2 deg.C'
_cell_formula_units_Z            4
loop_
_atom_site_label
_atom_site_type_symbol
_atom_site_fract_x
_atom_site_fract_y
_atom_site_fract_z
S1 S 0.78432(9) 0.24750(8) 0.335248(15)
O1 O 0.7839(3) 0.1036(2) 0.30949(5)
O2 O 0.6077(3) 0.3271(2) 0.34695(5)
N1 N 0.8939(3) 0.1840(2) 0.37433(5)
C1 C 1.0448(4) 0.0498(3) 0.37221(6)
H1 H 1.0814 0.0277 0.3453
O3 O 1.4581(4) 0.7643(3) 0.26441(7)
N2 N 0.9179(4) -0.2320(3) 0.40502(7)
O4 O 1.2351(4) 0.9506(3) 0.27561(7)
N3 N 1.2953(5) 0.8033(3) 0.27453(6)
C2 C 0.8636(4) 0.5785(3) 0.31363(7)
H2 H 0.7400 0.6044 0.3226
C3 C 0.9306(4) 0.4114(3) 0.31486(6)
C4 C 1.2164(4) 0.1263(3) 0.39480(6)
H3 H 1.2816 0.2098 0.3780
C5 C 1.1633(4) 0.6641(3) 0.28730(6)
C6 C 1.1115(4) 0.2266(3) 0.42680(6)
H4 H 1.0579 0.1423 0.4449
C7 C 0.9712(4) -0.1099(3) 0.39081(7)
C8 C 1.2265(4) 0.3555(3) 0.45009(6)
C9 C 1.3884(4) 0.4392(3) 0.43585(8)
H5 H 1.4327 0.4140 0.4111
C10 C 1.2606(5) 0.5178(3) 0.50908(8)
H6 H 1.2156 0.5449 0.5337
C11 C 1.4378(5) -0.1209(4) 0.37557(9)
H7 H 1.4896 -0.0518 0.3550
H8 H 1.3319 -0.1886 0.3660
H9 H 1.5371 -0.1957 0.3853
C12 C 1.3662(4) -0.0047(3) 0.40788(8)
H10 H 1.3100 -0.0754 0.4281
H11 H 1.4760 0.0558 0.4189
C13 C 1.1653(4) 0.3954(3) 0.48722(7)
H12 H 1.0585 0.3388 0.4976
C14 C 0.9801(4) 0.7071(3) 0.29899(7)
H13 H 0.9356 0.8196 0.2971
C15 C 1.4220(5) 0.5999(3) 0.49456(8)
H14 H 1.4875 0.6813 0.5093
C16 C 1.2330(5) 0.4985(3) 0.28733(7)
H15 H 1.3569 0.4739 0.2783
C17 C 0.9409(4) 0.3094(3) 0.40542(7)
H16 H 0.8313 0.3256 0.4226
H17 H 0.9776 0.4198 0.3946
C18 C 1.1147(4) 0.3703(3) 0.30101(7)
H18 H 1.1570 0.2567 0.3011
C19 C 1.4850(5) 0.5597(4) 0.45787(8)
H19 H 1.5938 0.6144 0.4479
loop_
_geom_bond_atom_site_label_1
_geom_bond_atom_site_label_2
_geom_bond_site_symmetry_1
_geom_bond_site_symmetry_2
S1 O1 1_555 1_555
O2 S1 1_555 1_555
N1 S1 1_555 1_555
C1 N1 1_555 1_555
H1 C1 1_555 1_555
O3 N3 1_555 1_555
N2 C7 1_555 1_555
O4 N3 1_555 1_555
N3 C5 1_555 1_555
C2 H2 1_555 1_555
C3 S1 1_555 1_555
C4 C1 1_555 1_555
H3 C4 1_555 1_555
C5 C14 1_555 1_555
C6 C4 1_555 1_555
H4 C6 1_555 1_555
C7 C1 1_555 1_555
C8 C6 1_555 1_555
C9 C8 1_555 1_555
H5 C9 1_555 1_555
C10 H6 1_555 1_555
C11 H7 1_555 1_555
H8 C11 1_555 1_555
H9 C11 1_555 1_555
C12 C4 1_555 1_555
H10 C12 1_555 1_555
H11 C12 1_555 1_555
C13 C8 1_555 1_555
H12 C13 1_555 1_555
C14 C2 1_555 1_555
H13 C14 1_555 1_555
C15 C10 1_555 1_555
H14 C15 1_555 1_555
C16 C5 1_555 1_555
H15 C16 1_555 1_555
C17 N1 1_555 1_555
H16 C17 1_555 1_555
H17 C17 1_555 1_555
C18 C3 1_555 1_555
H18 C18 1_555 1_555
C19 C9 1_555 1_555
H19 C19 1_555 1_555
C2 C3 1_555 1_555
C6 C17 1_555 1_555
C10 C13 1_555 1_555
C11 C12 1_555 1_555
C15 C19 1_555 1_555
C16 C18 1_555 1_555

#END
