
#######################################################################
#
#                 Cambridge Crystallographic Data Centre
#                                CCDC 
#
#######################################################################
#
# If this CIF has been generated from an entry in the Cambridge 
# Structural Database, then it will include bibliographic, chemical, 
# crystal, experimental, refinement or atomic coordinate data resulting 
# from the CCDC's data processing and validation procedures.
#
#######################################################################

data_KEZCAW
_chemical_formula_moiety         'C4 Cl2 N10 O4'
_chemical_name_systematic        
1,1'-(diazene-1,2-diyl)bis(5-chloro-3-nitro-1H-1,2,4-triazole)
_symmetry_cell_setting           monoclinic
_symmetry_space_group_name_H-M   'P 21/c'
_symmetry_Int_Tables_number      14
_space_group_name_Hall           '-P 2ybc'
loop_
_symmetry_equiv_pos_site_id
_symmetry_equiv_pos_as_xyz
1 x,y,z
2 -x,1/2+y,1/2-z
3 -x,-y,-z
4 x,1/2-y,1/2+z
_cell_length_a                   8.844(5)
_cell_length_b                   15.589(9)
_cell_length_c                   8.401(5)
_cell_angle_alpha                90
_cell_angle_beta                 105.495(11)
_cell_angle_gamma                90
_cell_volume                     1116.14
_cell_formula_units_Z            4
loop_
_atom_site_label
_atom_site_type_symbol
_atom_site_fract_x
_atom_site_fract_y
_atom_site_fract_z
Cl1 Cl -0.13009(16) 0.08983(11) 0.34230(18)
N1 N -0.0302(5) 0.0176(3) 0.0502(5)
N2 N 0.0831(5) 0.0439(3) 0.1874(5)
N3 N 0.2418(5) 0.0430(3) 0.2074(5)
N4 N 0.1819(5) 0.1005(3) 0.4312(5)
N5 N 0.4556(5) 0.0919(3) 0.4249(6)
O1 O 0.5414(5) 0.0800(3) 0.3392(6)
O2 O 0.4973(5) 0.1119(3) 0.5691(5)
C1 C 0.0521(6) 0.0786(3) 0.3228(6)
C2 C 0.2883(6) 0.0779(3) 0.3515(6)
Cl1B Cl 0.13009(16) -0.08983(11) -0.34230(18)
N1B N 0.0302(5) -0.0176(3) -0.0502(5)
N2B N -0.0831(5) -0.0439(3) -0.1874(5)
N3B N -0.2418(5) -0.0430(3) -0.2074(5)
N4B N -0.1819(5) -0.1005(3) -0.4312(5)
N5B N -0.4556(5) -0.0919(3) -0.4249(6)
O1B O -0.5414(5) -0.0800(3) -0.3392(6)
O2B O -0.4973(5) -0.1119(3) -0.5691(5)
C1B C -0.0521(6) -0.0786(3) -0.3228(6)
C2B C -0.2883(6) -0.0779(3) -0.3515(6)
Cl2 Cl 0.68646(19) 0.20547(12) 0.9636(3)
N6 N 0.5400(5) 0.0331(3) 1.0013(5)
N7 N 0.4431(5) 0.0985(3) 0.9218(5)
N8 N 0.2865(5) 0.0943(3) 0.8573(5)
N9 N 0.3808(5) 0.2269(3) 0.8220(6)
N10 N 0.0985(6) 0.1982(4) 0.7165(6)
O3 O 0.0824(5) 0.2634(3) 0.6350(6)
O4 O -0.0065(5) 0.1518(3) 0.7319(6)
C3 C 0.4975(7) 0.1779(4) 0.8979(7)
C4 C 0.2583(6) 0.1725(4) 0.7992(6)
Cl2B Cl 0.31354(19) -0.20547(12) 1.0364(3)
N6B N 0.4600(5) -0.0331(3) 0.9987(5)
N7B N 0.5569(5) -0.0985(3) 1.0782(5)
N8B N 0.7135(5) -0.0943(3) 1.1427(5)
N9B N 0.6192(5) -0.2269(3) 1.1780(6)
N10B N 0.9015(6) -0.1982(4) 1.2835(6)
O3B O 0.9176(5) -0.2634(3) 1.3650(6)
O4B O 1.0065(5) -0.1518(3) 1.2681(6)
C3B C 0.5025(7) -0.1779(4) 1.1021(7)
C4B C 0.7417(6) -0.1725(4) 1.2008(6)
loop_
_geom_bond_atom_site_label_1
_geom_bond_atom_site_label_2
_geom_bond_site_symmetry_1
_geom_bond_site_symmetry_2
Cl1 C1 1_555 1_555
N1 N2 1_555 1_555
N2 N3 1_555 1_555
N3 C2 1_555 1_555
N4 C1 1_555 1_555
N5 O1 1_555 1_555
O2 N5 1_555 1_555
C1 N2 1_555 1_555
C2 N4 1_555 1_555
Cl2 C3 1_555 1_555
N6 N7 1_555 1_555
N7 N8 1_555 1_555
N8 C4 1_555 1_555
N9 C3 1_555 1_555
N10 O3 1_555 1_555
O4 N10 1_555 1_555
C3 N7 1_555 1_555
C4 N9 1_555 1_555
Cl1B C1B 1_555 1_555
N1B N1 1_555 1_555
N2B N1B 1_555 1_555
N3B N2B 1_555 1_555
N4B C1B 1_555 1_555
N5B O1B 1_555 1_555
O2B N5B 1_555 1_555
C1B N2B 1_555 1_555
C2B N3B 1_555 1_555
Cl2B C3B 1_555 1_555
N6B N6 1_555 1_555
N7B N6B 1_555 1_555
N8B N7B 1_555 1_555
N9B C3B 1_555 1_555
N10B O3B 1_555 1_555
O4B N10B 1_555 1_555
C3B N7B 1_555 1_555
C4B N8B 1_555 1_555
N5 C2 1_555 1_555
N10 C4 1_555 1_555
N4B C2B 1_555 1_555
N5B C2B 1_555 1_555
N9B C4B 1_555 1_555
N10B C4B 1_555 1_555

#END
