
#######################################################################
#
#                 Cambridge Crystallographic Data Centre
#                                CCDC 
#
#######################################################################
#
# If this CIF has been generated from an entry in the Cambridge 
# Structural Database, then it will include bibliographic, chemical, 
# crystal, experimental, refinement or atomic coordinate data resulting 
# from the CCDC's data processing and validation procedures.
#
#######################################################################

data_KEZJEF
_chemical_formula_moiety         'C10 H16 N4 2+,2(Br1 1-)'
_chemical_name_systematic        
"3,3'-Dimethyl-1,1'-ethylenediimidazolium dibromide"
_symmetry_cell_setting           monoclinic
_symmetry_space_group_name_H-M   'P 21/c'
_symmetry_Int_Tables_number      14
_space_group_name_Hall           '-P 2ybc'
loop_
_symmetry_equiv_pos_site_id
_symmetry_equiv_pos_as_xyz
1 x,y,z
2 -x,1/2+y,1/2-z
3 -x,-y,-z
4 x,1/2-y,1/2+z
_cell_length_a                   8.4978(11)
_cell_length_b                   8.9630(11)
_cell_length_c                   9.2599(12)
_cell_angle_alpha                90
_cell_angle_beta                 107.676(2)
_cell_angle_gamma                90
_cell_volume                     671.99
_exptl_crystal_colour            colorless
_exptl_crystal_description       block
_chemical_melting_point          '503 K'
_cell_formula_units_Z            2
_exptl_crystal_recrystallization_method acetonitrile
loop_
_atom_site_label
_atom_site_type_symbol
_atom_site_fract_x
_atom_site_fract_y
_atom_site_fract_z
Br1 Br 0.71808(3) 0.14500(2) 0.46342(2)
N1 N 0.62497(18) 0.58708(18) 0.38950(17)
N2 N 0.8498(2) 0.61593(19) 0.33170(19)
C1 C 0.7313(2) 0.5193(2) 0.3321(2)
H1 H 0.7241 0.4212 0.2980
C2 C 0.6749(3) 0.7321(2) 0.4248(3)
H2 H 0.6217 0.8040 0.4654
C3 C 0.8165(3) 0.7496(2) 0.3888(2)
H3 H 0.8796 0.8361 0.4005
C4 C 0.9919(3) 0.5835(3) 0.2784(3)
H4 H 1.0613 0.5109 0.3438
H5 H 1.0536 0.6735 0.2796
H6 H 0.9538 0.5451 0.1769
C5 C 0.4814(2) 0.5167(2) 0.4165(2)
H7 H 0.4549 0.4249 0.3587
H8 H 0.3868 0.5828 0.3836
N1B N 0.37503(18) 0.41292(18) 0.61050(17)
N2B N 0.1502(2) 0.38407(19) 0.66830(19)
C1B C 0.2687(2) 0.4807(2) 0.6679(2)
H1B H 0.2759 0.5788 0.7020
C2B C 0.3251(3) 0.2679(2) 0.5752(3)
H2B H 0.3783 0.1960 0.5346
C3B C 0.1835(3) 0.2504(2) 0.6112(2)
H3B H 0.1204 0.1639 0.5995
C4B C 0.0081(3) 0.4165(3) 0.7216(3)
H4B H -0.0613 0.4891 0.6562
H5B H -0.0536 0.3265 0.7204
H6B H 0.0462 0.4549 0.8231
C5B C 0.5186(2) 0.4833(2) 0.5835(2)
H7B H 0.5451 0.5751 0.6413
H8B H 0.6132 0.4172 0.6164
loop_
_geom_bond_atom_site_label_1
_geom_bond_atom_site_label_2
_geom_bond_site_symmetry_1
_geom_bond_site_symmetry_2
N1 C1 1_555 1_555
N2 C1 1_555 1_555
C1 H1 1_555 1_555
C2 N1 1_555 1_555
H2 C2 1_555 1_555
C3 N2 1_555 1_555
H3 C3 1_555 1_555
C4 N2 1_555 1_555
H4 C4 1_555 1_555
H5 C4 1_555 1_555
H6 C4 1_555 1_555
C5 N1 1_555 1_555
H7 C5 1_555 1_555
H8 C5 1_555 1_555
N1B C1B 1_555 1_555
N2B C1B 1_555 1_555
C1B H1B 1_555 1_555
C2B N1B 1_555 1_555
H2B C2B 1_555 1_555
C3B N2B 1_555 1_555
H3B C3B 1_555 1_555
C4B N2B 1_555 1_555
H4B C4B 1_555 1_555
H5B C4B 1_555 1_555
H6B C4B 1_555 1_555
C5B C5 1_555 1_555
H7B C5B 1_555 1_555
H8B C5B 1_555 1_555
C2 C3 1_555 1_555
N1B C5B 1_555 1_555
C2B C3B 1_555 1_555

#END
