
#######################################################################
#
#                 Cambridge Crystallographic Data Centre
#                                CCDC 
#
#######################################################################
#
# If this CIF has been generated from an entry in the Cambridge 
# Structural Database, then it will include bibliographic, chemical, 
# crystal, experimental, refinement or atomic coordinate data resulting 
# from the CCDC's data processing and validation procedures.
#
#######################################################################

data_KEZKOQ
_chemical_formula_moiety         'C12 H14 N2 2+,2(Cl1 O4 1-)'
_chemical_name_systematic        "1,1'-Dimethyl-4,4'-bipyridinium diperchlorate"
_symmetry_cell_setting           monoclinic
_symmetry_space_group_name_H-M   'P 21/c'
_symmetry_Int_Tables_number      14
_space_group_name_Hall           '-P 2ybc'
loop_
_symmetry_equiv_pos_site_id
_symmetry_equiv_pos_as_xyz
1 x,y,z
2 -x,1/2+y,1/2-z
3 -x,-y,-z
4 x,1/2-y,1/2+z
_cell_length_a                   5.7874(13)
_cell_length_b                   8.8352(19)
_cell_length_c                   15.125(3)
_cell_angle_alpha                90
_cell_angle_beta                 96.972(3)
_cell_angle_gamma                90
_cell_volume                     767.665
_exptl_crystal_colour            colorless
_exptl_crystal_description       block
_cell_formula_units_Z            2
loop_
_atom_site_label
_atom_site_type_symbol
_atom_site_fract_x
_atom_site_fract_y
_atom_site_fract_z
Cl1 Cl 0.1539(2) 0.11161(14) 0.17742(7)
O1 O 0.2613(6) 0.0171(4) 0.2477(2)
O2 O -0.0800(6) 0.1423(4) 0.1921(2)
O3 O 0.2808(7) 0.2498(4) 0.1765(2)
O4 O 0.1566(7) 0.0373(4) 0.0935(2)
N1 N 0.5413(7) 0.2476(4) 0.4252(2)
C1 C 0.7646(9) 0.1191(6) 0.5429(3)
H1 H 0.7935 0.0985 0.6035
C2 C 0.8475(9) 0.0876(5) 0.3946(3)
H2 H 0.9319 0.0433 0.3528
C3 C 0.9032(8) 0.0520(5) 0.4839(3)
C4 C 0.3468(10) 0.3552(6) 0.3941(3)
H3 H 0.2328 0.3041 0.3532
H4 H 0.4081 0.4400 0.3647
H5 H 0.2755 0.3902 0.4444
C5 C 0.6723(9) 0.1858(6) 0.3663(3)
H6 H 0.6427 0.2105 0.3062
C6 C 0.5876(9) 0.2143(5) 0.5120(3)
H7 H 0.4969 0.2573 0.5521
N1B N 1.4587(7) -0.2476(4) 0.5748(2)
C1B C 1.2354(9) -0.1191(6) 0.4571(3)
H1B H 1.2065 -0.0985 0.3965
C2B C 1.1525(9) -0.0876(5) 0.6054(3)
H2B H 1.0681 -0.0433 0.6472
C3B C 1.0968(8) -0.0520(5) 0.5161(3)
C4B C 1.6532(10) -0.3552(6) 0.6059(3)
H3B H 1.7672 -0.3041 0.6468
H4B H 1.5919 -0.4400 0.6353
H5B H 1.7245 -0.3902 0.5556
C5B C 1.3277(9) -0.1858(6) 0.6337(3)
H6B H 1.3573 -0.2105 0.6938
C6B C 1.4124(9) -0.2143(5) 0.4880(3)
H7B H 1.5031 -0.2573 0.4479
loop_
_geom_bond_atom_site_label_1
_geom_bond_atom_site_label_2
_geom_bond_site_symmetry_1
_geom_bond_site_symmetry_2
Cl1 O1 1_555 1_555
N1 C4 1_555 1_555
O2 Cl1 1_555 1_555
C1 H1 1_555 1_555
C2 H2 1_555 1_555
C3 C1 1_555 1_555
C4 H3 1_555 1_555
H4 C4 1_555 1_555
H5 C4 1_555 1_555
C5 N1 1_555 1_555
H6 C5 1_555 1_555
O3 Cl1 1_555 1_555
O4 Cl1 1_555 1_555
C6 N1 1_555 1_555
H7 C6 1_555 1_555
N1B C4B 1_555 1_555
C1B H1B 1_555 1_555
C2B H2B 1_555 1_555
C3B C3 1_555 1_555
C4B H3B 1_555 1_555
H4B C4B 1_555 1_555
H5B C4B 1_555 1_555
C5B N1B 1_555 1_555
H6B C5B 1_555 1_555
C6B N1B 1_555 1_555
H7B C6B 1_555 1_555
C1 C6 1_555 1_555
C2 C3 1_555 1_555
C2 C5 1_555 1_555
C1B C3B 1_555 1_555
C1B C6B 1_555 1_555
C2B C3B 1_555 1_555
C2B C5B 1_555 1_555

#END
