
#######################################################################
#
#                 Cambridge Crystallographic Data Centre
#                                CCDC 
#
#######################################################################
#
# If this CIF has been generated from an entry in the Cambridge 
# Structural Database, then it will include bibliographic, chemical, 
# crystal, experimental, refinement or atomic coordinate data resulting 
# from the CCDC's data processing and validation procedures.
#
#######################################################################

data_KEZLEH
_chemical_formula_moiety         'C29 H35 Cl1 O15 S1'
_chemical_name_systematic        
'Phenyl 2,3-di-O-acetyl-4-O-(2-chloroacetyl)-6-O-(2,3,4-tri-O-acetyl-\b-D-xylopyranosyl)-1-thio-\b-D-glucopyranoside'
_symmetry_cell_setting           monoclinic
_symmetry_space_group_name_H-M   'P 21'
_symmetry_Int_Tables_number      4
_space_group_name_Hall           'P 2yb'
loop_
_symmetry_equiv_pos_site_id
_symmetry_equiv_pos_as_xyz
1 x,y,z
2 -x,1/2+y,-z
_cell_length_a                   10.094(2)
_cell_length_b                   13.915(3)
_cell_length_c                   12.628(3)
_cell_angle_alpha                90
_cell_angle_beta                 96.96(3)
_cell_angle_gamma                90
_cell_volume                     1760.63
_exptl_crystal_colour            colorless
_exptl_crystal_description       block
_cell_formula_units_Z            2
_exptl_crystal_recrystallization_method 'hexane/ethyl acetate'
loop_
_atom_site_label
_atom_site_type_symbol
_atom_site_fract_x
_atom_site_fract_y
_atom_site_fract_z
Cl1 Cl 0.67186(19) 0.61035(19) 0.72539(10)
S1 S 0.64977(9) 0.44853(8) -0.01583(7)
O1 O 0.9472(3) 0.1038(4) 0.2738(3)
O2 O 0.74861(19) 0.08497(15) 0.33021(17)
O3 O 0.7346(3) -0.1311(2) 0.5372(3)
O4 O 0.88041(19) -0.01488(16) 0.5083(2)
O5 O 1.0021(3) 0.0397(4) 0.7729(3)
O6 O 0.7872(2) 0.0471(2) 0.7100(2)
O7 O 0.5401(2) 0.5550(3) 0.5167(2)
O8 O 0.71799(18) 0.57198(16) 0.42968(15)
O9 O 0.7567(3) 0.8015(2) 0.2751(3)
O10 O 0.58501(18) 0.69964(14) 0.27197(16)
O11 O 0.4564(4) 0.6646(3) -0.0181(3)
O12 O 0.6583(2) 0.65831(16) 0.06713(16)
O13 O 0.7480(2) 0.25943(14) 0.54517(17)
O14 O 0.7327(2) 0.28459(14) 0.36716(16)
O15 O 0.6492(2) 0.42291(14) 0.19170(16)
C1 C 0.7727(5) 0.0310(3) 0.1588(3)
H1 H 0.8299 0.0381 0.1039
H2 H 0.6885 0.0614 0.1367
H3 H 0.7588 -0.0360 0.1714
C2 C 0.8357(4) 0.0765(3) 0.2578(3)
C3 C 0.9561(5) -0.1724(4) 0.5024(6)
H4 H 0.9234 -0.2368 0.4911
H5 H 1.0212 -0.1706 0.5645
H6 H 0.9965 -0.1516 0.4413
C4 C 0.8431(4) -0.1073(3) 0.5184(4)
C5 C 0.8425(8) -0.0438(6) 0.8633(5)
H7 H 0.9041 -0.0407 0.9274
H8 H 0.8352 -0.1091 0.8386
H9 H 0.7565 -0.0214 0.8778
C6 C 0.8915(5) 0.0179(3) 0.7798(3)
C7 C 0.7415(4) 0.6205(4) 0.6064(3)
H10 H 0.7572 0.6877 0.5921
H11 H 0.8268 0.5875 0.6132
C8 C 0.6525(3) 0.5787(2) 0.5157(2)
C9 C 0.5397(4) 0.8609(3) 0.3012(4)
H12 H 0.5793 0.9238 0.3033
H13 H 0.5074 0.8478 0.3681
H14 H 0.4668 0.8584 0.2449
C10 C 0.6421(3) 0.7875(2) 0.2813(3)
C11 C 0.6182(6) 0.7748(4) -0.0647(4)
H15 H 0.5580 0.7877 -0.1280
H16 H 0.7038 0.7569 -0.0842
H17 H 0.6275 0.8315 -0.0210
C12 C 0.5650(4) 0.6959(3) -0.0048(3)
C19 C 0.8647(9) 0.3753(8) -0.1124(8)
H23 H 0.8392 0.4214 -0.1643
C20 C 0.9707(9) 0.3142(9) -0.1275(8)
H24 H 1.0132 0.3179 -0.1887
C21 C 1.0098(9) 0.2483(7) -0.0487(9)
H25 H 1.0774 0.2050 -0.0586
C22 C 0.9525(9) 0.2446(7) 0.0434(11)
H26 H 0.9848 0.2024 0.0976
C23 C 0.8459(9) 0.3041(5) 0.0554(9)
H27 H 0.8067 0.2996 0.1182
C24 C 0.7936(9) 0.3706(7) -0.0211(9)
C25 C 0.7938(3) 0.1301(2) 0.4299(2)
H28 H 0.8872 0.1497 0.4303
C26 C 0.7836(3) 0.0590(2) 0.5190(2)
H29 H 0.6937 0.0313 0.5131
C27 C 0.8159(3) 0.1097(2) 0.6257(2)
H30 H 0.9100 0.1289 0.6362
C28 C 0.7273(3) 0.1966(3) 0.6301(3)
H31 H 0.6345 0.1769 0.6237
H32 H 0.7486 0.2294 0.6979
C29 C 0.7092(3) 0.2180(2) 0.4438(2)
H33 H 0.6145 0.2006 0.4363
C30 C 0.6492(3) 0.3674(2) 0.3689(3)
H34 H 0.6505 0.3902 0.4416
H35 H 0.5579 0.3507 0.3421
C31 C 0.6984(3) 0.4449(2) 0.3009(2)
H36 H 0.7962 0.4459 0.3101
C32 C 0.6446(3) 0.5424(2) 0.3300(2)
H37 H 0.5495 0.5372 0.3378
C33 C 0.6656(2) 0.61876(19) 0.2489(2)
H38 H 0.7598 0.6375 0.2561
C34 C 0.6223(3) 0.5845(2) 0.1368(2)
H39 H 0.5254 0.5748 0.1264
C35 C 0.6923(3) 0.4913(2) 0.1191(2)
H40 H 0.7890 0.5002 0.1338
C13? C 0.8446(9) 0.4058(9) -0.1296(8)
H18? H 0.8159 0.4585 -0.1716
C14? C 0.9501(9) 0.3490(8) -0.1508(8)
H19? H 0.9943 0.3642 -0.2091
C15? C 0.9927(8) 0.2709(7) -0.0893(9)
H20? H 1.0639 0.2338 -0.1060
C16? C 0.9278(9) 0.2483(7) -0.0022(10)
H21? H 0.9584 0.1976 0.0421
C17? C 0.8167(10) 0.3013(6) 0.0199(10)
H22? H 0.7673 0.2839 0.0744
C18? C 0.7848(8) 0.3792(6) -0.0423(8)
loop_
_geom_bond_atom_site_label_1
_geom_bond_atom_site_label_2
_geom_bond_site_symmetry_1
_geom_bond_site_symmetry_2
Cl1 C7 1_555 1_555
S1 C24 1_555 1_555
O1 C2 1_555 1_555
O2 C2 1_555 1_555
O3 C4 1_555 1_555
O4 C4 1_555 1_555
O5 C6 1_555 1_555
O6 C6 1_555 1_555
O7 C8 1_555 1_555
O8 C8 1_555 1_555
O9 C10 1_555 1_555
O10 C10 1_555 1_555
O11 C12 1_555 1_555
O12 C12 1_555 1_555
O13 C28 1_555 1_555
O14 C29 1_555 1_555
O15 C31 1_555 1_555
C1 H1 1_555 1_555
H2 C1 1_555 1_555
H3 C1 1_555 1_555
C2 C1 1_555 1_555
C3 H4 1_555 1_555
H5 C3 1_555 1_555
H6 C3 1_555 1_555
C4 C3 1_555 1_555
C5 H7 1_555 1_555
H8 C5 1_555 1_555
H9 C5 1_555 1_555
C6 C5 1_555 1_555
C7 H10 1_555 1_555
H11 C7 1_555 1_555
C8 C7 1_555 1_555
C9 H12 1_555 1_555
H13 C9 1_555 1_555
H14 C9 1_555 1_555
C10 C9 1_555 1_555
C11 H15 1_555 1_555
H16 C11 1_555 1_555
H17 C11 1_555 1_555
C12 C11 1_555 1_555
C19 H23 1_555 1_555
C20 C19 1_555 1_555
H24 C20 1_555 1_555
C21 C20 1_555 1_555
H25 C21 1_555 1_555
C22 C21 1_555 1_555
H26 C22 1_555 1_555
C23 C22 1_555 1_555
H27 C23 1_555 1_555
C24 C19 1_555 1_555
C25 O2 1_555 1_555
H28 C25 1_555 1_555
C26 O4 1_555 1_555
H29 C26 1_555 1_555
C27 O6 1_555 1_555
H30 C27 1_555 1_555
C28 C27 1_555 1_555
H31 C28 1_555 1_555
H32 C28 1_555 1_555
C29 O13 1_555 1_555
H33 C29 1_555 1_555
C30 O14 1_555 1_555
H34 C30 1_555 1_555
H35 C30 1_555 1_555
C31 C30 1_555 1_555
H36 C31 1_555 1_555
C32 O8 1_555 1_555
H37 C32 1_555 1_555
C33 O10 1_555 1_555
H38 C33 1_555 1_555
C34 O12 1_555 1_555
H39 C34 1_555 1_555
C35 S1 1_555 1_555
H40 C35 1_555 1_555
O15 C35 1_555 1_555
C23 C24 1_555 1_555
C25 C26 1_555 1_555
C25 C29 1_555 1_555
C26 C27 1_555 1_555
C31 C32 1_555 1_555
C32 C33 1_555 1_555
C33 C34 1_555 1_555
C34 C35 1_555 1_555

#END
