
#######################################################################
#
#                 Cambridge Crystallographic Data Centre
#                                CCDC 
#
#######################################################################
#
# If this CIF has been generated from an entry in the Cambridge 
# Structural Database, then it will include bibliographic, chemical, 
# crystal, experimental, refinement or atomic coordinate data resulting 
# from the CCDC's data processing and validation procedures.
#
#######################################################################

data_KEZPIR
_chemical_formula_moiety         'C20 H20 Br1 N4 O1 1+,C6 H2 N3 O7 1-,H2 O1'
_chemical_name_systematic        
'7-acetyl-2-(4-bromophenyl)-3-phenyl-6,7,8,9-tetrahydro-5H-[1,2,4]triazolo[1,5-d][1,4]diazepin-3-ium 2,4,6-trinitrophenolate monohydrate'
_symmetry_cell_setting           triclinic
_symmetry_space_group_name_H-M   'P -1'
_symmetry_Int_Tables_number      2
_space_group_name_Hall           '-P 1'
loop_
_symmetry_equiv_pos_site_id
_symmetry_equiv_pos_as_xyz
1 x,y,z
2 -x,-y,-z
_cell_length_a                   7.062(2)
_cell_length_b                   11.037(3)
_cell_length_c                   18.156(5)
_cell_angle_alpha                98.757(4)
_cell_angle_beta                 100.531(5)
_cell_angle_gamma                99.852(5)
_cell_volume                     1345.96
_exptl_crystal_colour            yellow
_exptl_crystal_description       sheet
_cell_formula_units_Z            2
loop_
_atom_site_label
_atom_site_type_symbol
_atom_site_fract_x
_atom_site_fract_y
_atom_site_fract_z
Br1 Br 0.21121(13) -0.41490(7) 0.38505(4)
N1 N -0.0078(10) 0.3359(6) 0.0717(4)
N2 N -0.0320(9) 0.1888(6) 0.1939(3)
N3 N 0.0416(9) 0.1383(5) 0.2536(3)
N4 N -0.0393(10) -0.0094(6) 0.1504(4)
O1 O 0.1459(11) 0.5404(6) 0.1059(4)
C1 C -0.1288(12) 0.3545(7) 0.1281(4)
H1 H -0.2606 0.3023 0.1078
H2 H -0.1420 0.4422 0.1366
C2 C -0.0423(14) 0.3218(7) 0.2038(4)
H3 H 0.0899 0.3733 0.2242
H4 H -0.1243 0.3402 0.2405
C3 C 0.0333(11) 0.0153(7) 0.2254(4)
C4 C -0.0777(12) 0.0952(7) 0.1328(5)
C5 C -0.1574(15) 0.1112(8) 0.0527(5)
H5 H -0.1745 0.0312 0.0179
H6 H -0.2876 0.1320 0.0504
C6 C -0.0295(14) 0.2106(7) 0.0253(4)
H7 H 0.1008 0.1902 0.0272
H8 H -0.0871 0.2116 -0.0279
C7 C 0.1284(12) 0.4346(8) 0.0666(5)
C8 C 0.2543(15) 0.4172(9) 0.0086(6)
H9 H 0.3282 0.4982 0.0054
H10 H 0.1710 0.3782 -0.0408
H11 H 0.3448 0.3643 0.0240
C9 C 0.1192(12) 0.2127(7) 0.3308(4)
C10 C -0.0096(14) 0.2446(7) 0.3742(5)
H12 H -0.1462 0.2214 0.3549
C11 C 0.0668(17) 0.3121(8) 0.4475(5)
H13 H -0.0176 0.3345 0.4793
C12 C 0.2731(17) 0.3470(9) 0.4739(5)
H14 H 0.3263 0.3923 0.5238
C13 C 0.3967(15) 0.3148(8) 0.4269(5)
H15 H 0.5338 0.3390 0.4448
C14 C 0.3220(13) 0.2483(8) 0.3550(5)
H16 H 0.4055 0.2271 0.3225
C15 C 0.0865(10) -0.0781(7) 0.2692(4)
C16 C 0.1293(12) -0.0637(7) 0.3476(4)
H17 H 0.1313 0.0143 0.3774
C17 C 0.1695(12) -0.1616(7) 0.3839(4)
H18 H 0.2008 -0.1505 0.4374
C18 C 0.1617(11) -0.2781(7) 0.3378(4)
C19 C 0.1172(12) -0.2969(7) 0.2609(5)
H19 H 0.1132 -0.3756 0.2316
C20 C 0.0775(12) -0.1979(7) 0.2257(4)
H20 H 0.0441 -0.2107 0.1722
N5 N 0.3314(11) 0.0241(7) 0.5950(4)
N6 N 0.3805(11) 0.4451(6) 0.7283(4)
N7 N 0.5068(11) 0.1338(7) 0.8828(4)
O2 O 0.4101(10) -0.0517(5) 0.7432(3)
O3 O 0.3957(11) -0.0718(6) 0.5912(4)
O4 O 0.2315(15) 0.0534(8) 0.5404(4)
O5 O 0.3281(12) 0.4754(6) 0.6667(4)
O6 O 0.4276(13) 0.5246(6) 0.7889(4)
O7 O 0.4889(12) 0.2080(7) 0.9376(4)
O8 O 0.5718(14) 0.0401(7) 0.8896(4)
C21 C 0.4138(11) 0.0615(7) 0.7389(4)
C22 C 0.3693(12) 0.1082(7) 0.6692(5)
C23 C 0.3515(11) 0.2294(7) 0.6662(5)
H21 H 0.3122 0.2526 0.6189
C24 C 0.3916(11) 0.3166(7) 0.7326(5)
C25 C 0.4421(11) 0.2833(7) 0.8044(5)
H22 H 0.4678 0.3435 0.8495
C26 C 0.4528(12) 0.1627(7) 0.8070(4)
O9 O 0.6102(11) 0.7903(6) 0.8368(5)
loop_
_geom_bond_atom_site_label_1
_geom_bond_atom_site_label_2
_geom_bond_site_symmetry_1
_geom_bond_site_symmetry_2
Br1 C18 1_555 1_555
N1 C1 1_555 1_555
N2 N3 1_555 1_555
N3 C3 1_555 1_555
N4 C3 1_555 1_555
O1 C7 1_555 1_555
C1 H1 1_555 1_555
H2 C1 1_555 1_555
C2 N2 1_555 1_555
H3 C2 1_555 1_555
H4 C2 1_555 1_555
C3 C15 1_555 1_555
C4 N2 1_555 1_555
C5 C4 1_555 1_555
H5 C5 1_555 1_555
H6 C5 1_555 1_555
C6 N1 1_555 1_555
H7 C6 1_555 1_555
H8 C6 1_555 1_555
C7 N1 1_555 1_555
C8 C7 1_555 1_555
H9 C8 1_555 1_555
H10 C8 1_555 1_555
H11 C8 1_555 1_555
C9 N3 1_555 1_555
C10 C9 1_555 1_555
H12 C10 1_555 1_555
C11 C10 1_555 1_555
H13 C11 1_555 1_555
C12 C11 1_555 1_555
H14 C12 1_555 1_555
C13 C12 1_555 1_555
H15 C13 1_555 1_555
C14 C9 1_555 1_555
H16 C14 1_555 1_555
C15 C16 1_555 1_555
C16 H17 1_555 1_555
C17 C16 1_555 1_555
H18 C17 1_555 1_555
C18 C17 1_555 1_555
C19 C18 1_555 1_555
H19 C19 1_555 1_555
C20 C15 1_555 1_555
H20 C20 1_555 1_555
N5 O3 1_555 1_555
N6 O5 1_555 1_555
N7 O7 1_555 1_555
O2 C21 1_555 1_555
O4 N5 1_555 1_555
O6 N6 1_555 1_555
O8 N7 1_555 1_555
C21 C22 1_555 1_555
C22 N5 1_555 1_555
C23 C22 1_555 1_555
H21 C23 1_555 1_555
C24 N6 1_555 1_555
C25 C24 1_555 1_555
H22 C25 1_555 1_555
C26 N7 1_555 1_555
N4 C4 1_555 1_555
C1 C2 1_555 1_555
C5 C6 1_555 1_555
C13 C14 1_555 1_555
C19 C20 1_555 1_555
C21 C26 1_555 1_555
C23 C24 1_555 1_555
C25 C26 1_555 1_555

#END
