
#######################################################################
#
#                 Cambridge Crystallographic Data Centre
#                                CCDC 
#
#######################################################################
#
# If this CIF has been generated from an entry in the Cambridge 
# Structural Database, then it will include bibliographic, chemical, 
# crystal, experimental, refinement or atomic coordinate data resulting 
# from the CCDC's data processing and validation procedures.
#
#######################################################################

data_KEZPIQ
_chemical_formula_moiety         'C28 H31 Cl1 N2 O3'
_chemical_name_systematic        
(E)-4-benzylidene-2-(4-chlorobenzoyl)-N-cyclohexyl-5-oxo-1-propylpyrrolidine-2-carboxamide
_symmetry_cell_setting           monoclinic
_symmetry_space_group_name_H-M   'P 21/c'
_symmetry_Int_Tables_number      14
_space_group_name_Hall           '-P 2ybc'
loop_
_symmetry_equiv_pos_site_id
_symmetry_equiv_pos_as_xyz
1 x,y,z
2 -x,1/2+y,1/2-z
3 -x,-y,-z
4 x,1/2-y,1/2+z
_cell_length_a                   10.5450(11)
_cell_length_b                   12.3170(12)
_cell_length_c                   20.5162(17)
_cell_angle_alpha                90
_cell_angle_beta                 116.566(4)
_cell_angle_gamma                90
_cell_volume                     2383.36
_exptl_crystal_colour            colorless
_exptl_crystal_description       block
_cell_formula_units_Z            4
loop_
_atom_site_label
_atom_site_type_symbol
_atom_site_fract_x
_atom_site_fract_y
_atom_site_fract_z
C1 C 0.05808(13) 1.03640(10) 0.28605(7)
C2 C 0.04107(13) 0.99775(11) 0.21915(7)
H1 H -0.0336 1.0219 0.1762
C3 C 0.13739(13) 0.92246(11) 0.21738(7)
H2 H 0.1272 0.8961 0.1728
C4 C 0.24965(12) 0.88571(10) 0.28189(6)
C5 C 0.26608(13) 0.92769(10) 0.34846(6)
H3 H 0.3415 0.9046 0.3915
C6 C 0.17056(13) 1.00380(11) 0.35095(7)
H4 H 0.1819 1.0322 0.3952
C7 C 0.34572(12) 0.80257(10) 0.27463(6)
C8 C 0.47850(12) 0.76346(10) 0.34332(6)
C9 C 0.42987(13) 0.68756(10) 0.38837(6)
H5 H 0.4886 0.6976 0.4402
H6 H 0.3318 0.7015 0.3774
C10 C 0.44697(12) 0.57510(10) 0.36524(6)
C11 C 0.53453(12) 0.58365(10) 0.32545(6)
C12 C 0.57029(12) 0.86036(10) 0.38951(6)
C13 C 0.65069(13) 1.04796(10) 0.38111(6)
H7 H 0.6409 1.0938 0.3401
C14 C 0.57510(13) 1.10673(10) 0.41959(7)
H8 H 0.4757 1.1160 0.3859
H9 H 0.5810 1.0632 0.4602
C15 C 0.64260(14) 1.21771(11) 0.44730(7)
H10 H 0.6291 1.2635 0.4062
H11 H 0.5964 1.2523 0.4734
C16 C 0.80056(15) 1.20633(11) 0.49762(7)
H12 H 0.8139 1.1656 0.5407
H13 H 0.8419 1.2777 0.5131
C17 C 0.87577(13) 1.14811(11) 0.45894(7)
H14 H 0.9753 1.1393 0.4925
H15 H 0.8693 1.1919 0.4183
C18 C 0.80952(13) 1.03664(10) 0.43110(7)
H16 H 0.8555 1.0029 0.4046
H17 H 0.8240 0.9904 0.4721
C19 C 0.64576(13) 0.72626(10) 0.28460(6)
H18 H 0.6076 0.7942 0.2596
H19 H 0.6379 0.6728 0.2482
C20 C 0.80152(13) 0.74196(11) 0.33742(7)
H20 H 0.8093 0.7874 0.3777
H21 H 0.8438 0.6721 0.3571
C21 C 0.88161(16) 0.79446(14) 0.29979(8)
H22 H 0.8745 0.7493 0.2602
H23 H 0.9795 0.8028 0.3341
H24 H 0.8414 0.8644 0.2814
C22 C 0.40233(13) 0.47714(10) 0.37537(6)
H25 H 0.4288 0.4192 0.3551
C23 C 0.31843(13) 0.44793(10) 0.41348(6)
C24 C 0.29295(14) 0.51838(11) 0.45974(7)
H26 H 0.3317 0.5878 0.4681
C25 C 0.21035(15) 0.48586(12) 0.49345(7)
H27 H 0.1953 0.5333 0.5246
C26 C 0.15023(15) 0.38297(12) 0.48086(8)
H28 H 0.0923 0.3624 0.5021
C27 C 0.17712(15) 0.31107(11) 0.43648(7)
H29 H 0.1388 0.2415 0.4288
C28 C 0.26077(14) 0.34245(11) 0.40364(7)
H30 H 0.2793 0.2932 0.3746
Cl1 Cl -0.06727(3) 1.12545(3) 0.288605(19)
N1 N 0.56197(11) 0.69061(9) 0.32109(5)
N2 N 0.58184(11) 0.94360(8) 0.35029(5)
H31 H 0.5465 0.9354 0.3038
O1 O 0.31910(9) 0.76195(8) 0.21595(5)
O2 O 0.62539(10) 0.85683(8) 0.45598(5)
O3 O 0.57771(10) 0.50830(8) 0.30103(5)
loop_
_geom_bond_atom_site_label_1
_geom_bond_atom_site_label_2
_geom_bond_site_symmetry_1
_geom_bond_site_symmetry_2
C1 C2 1_555 1_555
C2 H1 1_555 1_555
C3 C2 1_555 1_555
H2 C3 1_555 1_555
C4 C3 1_555 1_555
C5 C4 1_555 1_555
H3 C5 1_555 1_555
C6 C1 1_555 1_555
H4 C6 1_555 1_555
C7 C4 1_555 1_555
C8 C7 1_555 1_555
C9 C8 1_555 1_555
H5 C9 1_555 1_555
H6 C9 1_555 1_555
C10 C9 1_555 1_555
C11 C10 1_555 1_555
C12 C8 1_555 1_555
C13 H7 1_555 1_555
C14 C13 1_555 1_555
H8 C14 1_555 1_555
H9 C14 1_555 1_555
C15 C14 1_555 1_555
H10 C15 1_555 1_555
H11 C15 1_555 1_555
C16 C15 1_555 1_555
H12 C16 1_555 1_555
H13 C16 1_555 1_555
C17 C16 1_555 1_555
H14 C17 1_555 1_555
H15 C17 1_555 1_555
C18 C13 1_555 1_555
H16 C18 1_555 1_555
H17 C18 1_555 1_555
C19 H18 1_555 1_555
H19 C19 1_555 1_555
C20 C19 1_555 1_555
H20 C20 1_555 1_555
H21 C20 1_555 1_555
C21 C20 1_555 1_555
H22 C21 1_555 1_555
H23 C21 1_555 1_555
H24 C21 1_555 1_555
C22 C10 1_555 1_555
H25 C22 1_555 1_555
C23 C22 1_555 1_555
C24 C23 1_555 1_555
H26 C24 1_555 1_555
C25 C24 1_555 1_555
H27 C25 1_555 1_555
C26 C25 1_555 1_555
H28 C26 1_555 1_555
C27 C26 1_555 1_555
H29 C27 1_555 1_555
C28 C23 1_555 1_555
H30 C28 1_555 1_555
Cl1 C1 1_555 1_555
N1 C8 1_555 1_555
N2 C12 1_555 1_555
H31 N2 1_555 1_555
O1 C7 1_555 1_555
O2 C12 1_555 1_555
O3 C11 1_555 1_555
C5 C6 1_555 1_555
C11 N1 1_555 1_555
C13 N2 1_555 1_555
C17 C18 1_555 1_555
C19 N1 1_555 1_555
C27 C28 1_555 1_555

#END
