
#######################################################################
#
#                 Cambridge Crystallographic Data Centre
#                                CCDC 
#
#######################################################################
#
# If this CIF has been generated from an entry in the Cambridge 
# Structural Database, then it will include bibliographic, chemical, 
# crystal, experimental, refinement or atomic coordinate data resulting 
# from the CCDC's data processing and validation procedures.
#
#######################################################################

data_KEZPOW
_chemical_formula_moiety         'C20 H15 N5 S1,0.5(C3 H7 N1 O1)'
_chemical_name_systematic        
'6-Anilino-1-phenyl-4-(pyridin-3-yl)-1,3,5-triazine-2(1H)-thione N,N-dimethylformamide solvate'
_symmetry_cell_setting           monoclinic
_symmetry_space_group_name_H-M   'C 2/c'
_symmetry_Int_Tables_number      15
_space_group_name_Hall           '-C 2yn'
loop_
_symmetry_equiv_pos_site_id
_symmetry_equiv_pos_as_xyz
1 x,y,z
2 -x,y,1/2-z
3 1/2+x,1/2+y,z
4 1/2-x,1/2+y,1/2-z
5 -x,-y,-z
6 x,-y,1/2+z
7 1/2-x,1/2-y,-z
8 1/2+x,1/2-y,1/2+z
_cell_length_a                   21.438(2)
_cell_length_b                   11.0408(12)
_cell_length_c                   19.503(2)
_cell_angle_alpha                90
_cell_angle_beta                 121.573(2)
_cell_angle_gamma                90
_cell_volume                     3932.9
_cell_formula_units_Z            8
loop_
_atom_site_label
_atom_site_type_symbol
_atom_site_fract_x
_atom_site_fract_y
_atom_site_fract_z
N1 N 0.20637(8) 0.56275(14) 0.44316(8)
N2 N 0.29348(8) 0.44615(14) 0.55339(8)
N3 N 0.21451(9) 0.58141(15) 0.56826(9)
N4 N 0.29261(8) 0.44423(14) 0.43479(8)
H1 H 0.2729 0.4690 0.3859
N5 N 0.29135(10) 0.45140(17) 0.79792(9)
S1 S 0.12652(3) 0.73689(6) 0.45636(3)
C1 C 0.18533(10) 0.62323(18) 0.49204(11)
C2 C 0.26319(10) 0.49360(17) 0.59298(10)
C3 C 0.26469(10) 0.48441(16) 0.47798(10)
C4 C 0.35319(10) 0.36258(18) 0.46497(10)
C5 C 0.41312(11) 0.3952(2) 0.46008(11)
H2 H 0.4143 0.4706 0.4396
C6 C 0.47091(12) 0.3164(2) 0.48543(13)
H3 H 0.5107 0.3387 0.4814
C7 C 0.47044(12) 0.2056(2) 0.51650(12)
H4 H 0.5099 0.1530 0.5340
C8 C 0.41112(13) 0.1726(2) 0.52156(13)
H5 H 0.4105 0.0974 0.5426
C9 C 0.35252(11) 0.25033(18) 0.49561(11)
H6 H 0.3124 0.2269 0.4988
C10 C 0.16478(10) 0.58120(18) 0.35651(10)
C11 C 0.11323(10) 0.49526(19) 0.30942(11)
H7 H 0.1068 0.4269 0.3329
C12 C 0.07149(12) 0.5115(2) 0.22744(12)
H8 H 0.0366 0.4540 0.1953
C13 C 0.08127(13) 0.6127(2) 0.19281(13)
H9 H 0.0527 0.6238 0.1374
C14 C 0.13309(14) 0.6970(2) 0.23991(13)
H10 H 0.1400 0.7646 0.2162
C15 C 0.17523(12) 0.68252(19) 0.32249(12)
H11 H 0.2101 0.7402 0.3545
C16 C 0.27143(11) 0.49582(19) 0.72575(11)
H12 H 0.2452 0.5680 0.7097
C17 C 0.28794(10) 0.43975(18) 0.67307(10)
C18 C 0.32647(12) 0.3326(2) 0.69738(11)
H13 H 0.3391 0.2932 0.6642
C19 C 0.34635(12) 0.2839(2) 0.77157(12)
H14 H 0.3714 0.2107 0.7886
C20 C 0.32794(12) 0.3468(2) 0.81919(12)
H15 H 0.3418 0.3146 0.8693
C21? C 0.5090(3) 0.4636(6) 0.8281(3)
H16? H 0.4703 0.5120 0.8248
H17? H 0.5075 0.3840 0.8469
O1? O 0.5000 0.2508(3) 0.7500
C22? C 0.4875(3) 0.3491(5) 0.7121(3)
H18? H 0.4701 0.3478 0.6573
H19? H 0.5319 0.6024 0.7173
H20? H 0.4560 0.5533 0.6486
H21? H 0.4618 0.6231 0.7217
C23? C 0.4862(4) 0.5679(6) 0.7054(4)
N6? N 0.5000 0.4557(3) 0.7500
H22? H 0.5554 0.5006 0.8648
loop_
_geom_bond_atom_site_label_1
_geom_bond_atom_site_label_2
_geom_bond_site_symmetry_1
_geom_bond_site_symmetry_2
N1 C1 1_555 1_555
N2 C2 1_555 1_555
N3 C1 1_555 1_555
N4 H1 1_555 1_555
N5 C16 1_555 1_555
S1 C1 1_555 1_555
C2 N3 1_555 1_555
C3 N1 1_555 1_555
C4 N4 1_555 1_555
C5 C4 1_555 1_555
H2 C5 1_555 1_555
C6 C5 1_555 1_555
H3 C6 1_555 1_555
C7 C6 1_555 1_555
H4 C7 1_555 1_555
C8 C7 1_555 1_555
H5 C8 1_555 1_555
C9 C4 1_555 1_555
H6 C9 1_555 1_555
C10 N1 1_555 1_555
C11 C10 1_555 1_555
H7 C11 1_555 1_555
C12 C11 1_555 1_555
H8 C12 1_555 1_555
C13 C12 1_555 1_555
H9 C13 1_555 1_555
C14 C13 1_555 1_555
H10 C14 1_555 1_555
C15 C10 1_555 1_555
H11 C15 1_555 1_555
C16 H12 1_555 1_555
C17 C2 1_555 1_555
C18 C17 1_555 1_555
H13 C18 1_555 1_555
C19 C18 1_555 1_555
H14 C19 1_555 1_555
C20 N5 1_555 1_555
H15 C20 1_555 1_555
N2 C3 1_555 1_555
N4 C3 1_555 1_555
C8 C9 1_555 1_555
C14 C15 1_555 1_555
C16 C17 1_555 1_555
C19 C20 1_555 1_555

#END
