
#######################################################################
#
#                 Cambridge Crystallographic Data Centre
#                                CCDC 
#
#######################################################################
#
# If this CIF has been generated from an entry in the Cambridge 
# Structural Database, then it will include bibliographic, chemical, 
# crystal, experimental, refinement or atomic coordinate data resulting 
# from the CCDC's data processing and validation procedures.
#
#######################################################################

data_KEZTOB
_chemical_formula_moiety         'C34 H26 B2 N2 O4'
_chemical_name_systematic        
1,1'-bis(2-phenyl-2H-1,3,2-benzodioxaborol-2-yl)-4,4'-bi-1-pyridine
_symmetry_cell_setting           monoclinic
_symmetry_space_group_name_H-M   'P 21/c'
_symmetry_Int_Tables_number      14
_space_group_name_Hall           '-P 2ybc'
loop_
_symmetry_equiv_pos_site_id
_symmetry_equiv_pos_as_xyz
1 x,y,z
2 -x,1/2+y,1/2-z
3 -x,-y,-z
4 x,1/2-y,1/2+z
_cell_length_a                   8.0059(9)
_cell_length_b                   14.3024(16)
_cell_length_c                   12.4637(14)
_cell_angle_alpha                90
_cell_angle_beta                 103.040(2)
_cell_angle_gamma                90
_cell_volume                     1390.34
_exptl_crystal_colour            orange
_exptl_crystal_description       'rectangular prism'
_cell_formula_units_Z            2
_exptl_crystal_recrystallization_method 'ethyl acetate'
loop_
_atom_site_label
_atom_site_type_symbol
_atom_site_fract_x
_atom_site_fract_y
_atom_site_fract_z
B1 B 0.5053(2) 0.22363(11) 0.32698(14)
N1 N 0.49648(15) 0.15092(8) 0.22284(10)
O1 O 0.53540(12) 0.16423(6) 0.42585(8)
O2 O 0.32907(12) 0.26047(7) 0.31201(8)
C1 C 0.37497(18) 0.14800(9) 0.44460(12)
C2 C 0.25361(18) 0.20459(9) 0.37705(12)
C3 C 0.08411(19) 0.20391(10) 0.38317(13)
H1 H 0.0014 0.2420 0.3364
C4 C 0.0390(2) 0.14471(10) 0.46120(14)
H2 H -0.0766 0.1431 0.4684
C5 C 0.1597(2) 0.08828(10) 0.52838(13)
H3 H 0.1253 0.0487 0.5807
C6 C 0.33134(19) 0.08856(10) 0.52055(12)
H4 H 0.4141 0.0494 0.5658
C7 C 0.64942(18) 0.30047(10) 0.32513(12)
C8 C 0.74810(19) 0.33505(10) 0.42390(13)
H5 H 0.7341 0.3092 0.4915
C9 C 0.8662(2) 0.40627(11) 0.42559(14)
H6 H 0.9327 0.4281 0.4940
C10 C 0.8875(2) 0.44570(11) 0.32827(15)
H7 H 0.9664 0.4955 0.3296
C11 C 0.7931(2) 0.41206(11) 0.22891(14)
H8 H 0.8075 0.4384 0.1616
C12 C 0.67736(19) 0.33967(10) 0.22807(13)
H9 H 0.6152 0.3161 0.1594
C13 C 0.60350(19) 0.07750(10) 0.23467(13)
H10 H 0.6799 0.0675 0.3040
C14 C 0.6065(2) 0.01652(11) 0.15032(13)
H11 H 0.6823 -0.0355 0.1620
C15 C 0.49826(18) 0.03109(9) 0.04735(12)
C16 C 0.38655(19) 0.10692(10) 0.03727(12)
H12 H 0.3090 0.1188 -0.0311
C17 C 0.38785(19) 0.16465(10) 0.12567(12)
H13 H 0.3097 0.2155 0.1175
B1B B 0.4947(2) -0.22363(11) -0.32698(14)
N1B N 0.50352(15) -0.15092(8) -0.22284(10)
O1B O 0.46460(12) -0.16423(6) -0.42585(8)
O2B O 0.67093(12) -0.26047(7) -0.31201(8)
C1B C 0.62503(18) -0.14800(9) -0.44460(12)
C2B C 0.74639(18) -0.20459(9) -0.37705(12)
C3B C 0.91589(19) -0.20391(10) -0.38317(13)
H1B H 0.9986 -0.2420 -0.3364
C4B C 0.9610(2) -0.14471(10) -0.46120(14)
H2B H 1.0766 -0.1431 -0.4684
C5B C 0.8403(2) -0.08828(10) -0.52838(13)
H3B H 0.8747 -0.0487 -0.5807
C6B C 0.66866(19) -0.08856(10) -0.52055(12)
H4B H 0.5859 -0.0494 -0.5658
C7B C 0.35058(18) -0.30047(10) -0.32513(12)
C8B C 0.25190(19) -0.33505(10) -0.42390(13)
H5B H 0.2659 -0.3092 -0.4915
C9B C 0.1338(2) -0.40627(11) -0.42559(14)
H6B H 0.0673 -0.4281 -0.4940
C10B C 0.1125(2) -0.44570(11) -0.32827(15)
H7B H 0.0336 -0.4955 -0.3296
C11B C 0.2069(2) -0.41206(11) -0.22891(14)
H8B H 0.1925 -0.4384 -0.1616
C12B C 0.32264(19) -0.33967(10) -0.22807(13)
H9B H 0.3848 -0.3161 -0.1594
C13B C 0.39650(19) -0.07750(10) -0.23467(13)
H10B H 0.3201 -0.0675 -0.3040
C14B C 0.3935(2) -0.01652(11) -0.15032(13)
H11B H 0.3177 0.0355 -0.1620
C15B C 0.50174(18) -0.03109(9) -0.04735(12)
C16B C 0.61345(19) -0.10692(10) -0.03727(12)
H12B H 0.6910 -0.1188 0.0311
C17B C 0.61215(19) -0.16465(10) -0.12567(12)
H13B H 0.6903 -0.2155 -0.1175
loop_
_geom_bond_atom_site_label_1
_geom_bond_atom_site_label_2
_geom_bond_site_symmetry_1
_geom_bond_site_symmetry_2
B1 N1 1_555 1_555
N1 C13 1_555 1_555
O1 B1 1_555 1_555
O2 B1 1_555 1_555
C1 O1 1_555 1_555
C2 O2 1_555 1_555
C3 C2 1_555 1_555
H1 C3 1_555 1_555
C4 C3 1_555 1_555
H2 C4 1_555 1_555
C5 C4 1_555 1_555
H3 C5 1_555 1_555
C6 C1 1_555 1_555
H4 C6 1_555 1_555
C7 B1 1_555 1_555
C8 C7 1_555 1_555
H5 C8 1_555 1_555
C9 C8 1_555 1_555
H6 C9 1_555 1_555
C10 C9 1_555 1_555
H7 C10 1_555 1_555
C11 C10 1_555 1_555
H8 C11 1_555 1_555
C12 C7 1_555 1_555
H9 C12 1_555 1_555
C13 H10 1_555 1_555
C14 C13 1_555 1_555
H11 C14 1_555 1_555
C15 C14 1_555 1_555
C16 C15 1_555 1_555
H12 C16 1_555 1_555
C17 N1 1_555 1_555
H13 C17 1_555 1_555
B1B N1B 1_555 1_555
N1B C13B 1_555 1_555
O1B B1B 1_555 1_555
O2B B1B 1_555 1_555
C1B O1B 1_555 1_555
C2B O2B 1_555 1_555
C3B C2B 1_555 1_555
H1B C3B 1_555 1_555
C4B C3B 1_555 1_555
H2B C4B 1_555 1_555
C5B C4B 1_555 1_555
H3B C5B 1_555 1_555
C6B C1B 1_555 1_555
H4B C6B 1_555 1_555
C7B B1B 1_555 1_555
C8B C7B 1_555 1_555
H5B C8B 1_555 1_555
C9B C8B 1_555 1_555
H6B C9B 1_555 1_555
C10B C9B 1_555 1_555
H7B C10B 1_555 1_555
C11B C10B 1_555 1_555
H8B C11B 1_555 1_555
C12B C7B 1_555 1_555
H9B C12B 1_555 1_555
C13B H10B 1_555 1_555
C14B C13B 1_555 1_555
H11B C14B 1_555 1_555
C15B C15 1_555 1_555
C16B C15B 1_555 1_555
H12B C16B 1_555 1_555
C17B N1B 1_555 1_555
H13B C17B 1_555 1_555
C1 C2 1_555 1_555
C5 C6 1_555 1_555
C11 C12 1_555 1_555
C16 C17 1_555 1_555
C1B C2B 1_555 1_555
C5B C6B 1_555 1_555
C11B C12B 1_555 1_555
C14B C15B 1_555 1_555
C16B C17B 1_555 1_555

#END
