
#######################################################################
#
#                 Cambridge Crystallographic Data Centre
#                                CCDC 
#
#######################################################################
#
# If this CIF has been generated from an entry in the Cambridge 
# Structural Database, then it will include bibliographic, chemical, 
# crystal, experimental, refinement or atomic coordinate data resulting 
# from the CCDC's data processing and validation procedures.
#
#######################################################################

data_KEZVUJ
_chemical_formula_moiety         'C34 H22 B2 F4 N2 O4,2(C8 H10)'
_chemical_name_systematic        
"1,1'-bis[2-(2,4-difluorophenyl)-2H-1,3,2-benzodioxaborol-2-yl]-4,4'-bi-1-pyridine bis(o-xylene)"
_symmetry_cell_setting           triclinic
_symmetry_space_group_name_H-M   'P -1'
_symmetry_Int_Tables_number      2
_space_group_name_Hall           '-P 1'
loop_
_symmetry_equiv_pos_site_id
_symmetry_equiv_pos_as_xyz
1 x,y,z
2 -x,-y,-z
_cell_length_a                   9.9344(5)
_cell_length_b                   10.5481(6)
_cell_length_c                   11.1909(5)
_cell_angle_alpha                86.855(4)
_cell_angle_beta                 78.996(4)
_cell_angle_gamma                62.624(5)
_cell_volume                     1021.48
_exptl_crystal_colour            'light yellow'
_exptl_crystal_description       prism
_cell_formula_units_Z            1
_exptl_crystal_recrystallization_method o-xylene
loop_
_atom_site_label
_atom_site_type_symbol
_atom_site_fract_x
_atom_site_fract_y
_atom_site_fract_z
F1 F 0.06231(19) 0.79791(18) 0.71086(14)
F2 F 0.16383(10) 1.08361(9) 0.94058(7)
O1 O 0.22935(10) 0.91712(9) 0.37912(8)
O2 O 0.44793(10) 0.71614(9) 0.42850(8)
N1 N 0.19568(12) 0.71055(11) 0.47337(9)
C1 C 0.24277(14) 0.88204(13) 0.60674(12)
C2 C 0.14139(15) 0.87431(14) 0.70805(13)
C3 C 0.11200(16) 0.94107(15) 0.82047(13)
H1 H 0.0426 0.9339 0.8858
C4 C 0.18935(16) 1.01796(15) 0.83125(12)
C5 C 0.29186(15) 1.03229(14) 0.73576(13)
H2 H 0.3428 1.0853 0.7446
C6 C 0.31480(15) 0.96362(14) 0.62621(12)
H3 H 0.3831 0.9725 0.5609
C7 C 0.34508(15) 0.86385(13) 0.27859(12)
C8 C 0.47377(15) 0.74526(13) 0.30734(11)
C9 C 0.60481(15) 0.67302(14) 0.22051(12)
H4 H 0.6903 0.5937 0.2399
C10 C 0.60421(17) 0.72368(16) 0.10222(13)
H5 H 0.6909 0.6773 0.0418
C11 C 0.47644(18) 0.84184(16) 0.07385(13)
H6 H 0.4789 0.8733 -0.0054
C12 C 0.34348(17) 0.91490(15) 0.16227(12)
H7 H 0.2578 0.9944 0.1434
C13 C 0.05979(15) 0.76014(14) 0.43761(13)
H8 H 0.0174 0.8508 0.4062
C14 C -0.01906(15) 0.67999(14) 0.44619(13)
H9 H -0.1133 0.7170 0.4206
C15 C 0.04220(14) 0.54392(13) 0.49298(11)
C16 C 0.18575(15) 0.49326(14) 0.52635(12)
H10 H 0.2325 0.4018 0.5557
C17 C 0.25860(15) 0.57825(14) 0.51597(12)
H11 H 0.3541 0.5431 0.5391
B1 B 0.28214(16) 0.81147(15) 0.47270(14)
F1A F -0.06231(19) 0.20209(18) 0.28914(14)
F2A F -0.16383(10) -0.08361(9) 0.05942(7)
O1A O -0.22935(10) 0.08288(9) 0.62088(8)
O2A O -0.44793(10) 0.28386(9) 0.57150(8)
N1A N -0.19568(12) 0.28945(11) 0.52663(9)
C1A C -0.24277(14) 0.11796(13) 0.39326(12)
C2A C -0.14139(15) 0.12569(14) 0.29195(13)
C3A C -0.11200(16) 0.05893(15) 0.17953(13)
H1A H -0.0426 0.0661 0.1142
C4A C -0.18935(16) -0.01796(15) 0.16875(12)
C5A C -0.29186(15) -0.03229(14) 0.26424(13)
H2A H -0.3428 -0.0853 0.2554
C6A C -0.31480(15) 0.03638(14) 0.37379(12)
H3A H -0.3831 0.0275 0.4391
C7A C -0.34508(15) 0.13615(13) 0.72141(12)
C8A C -0.47377(15) 0.25474(13) 0.69266(11)
C9A C -0.60481(15) 0.32698(14) 0.77949(12)
H4A H -0.6903 0.4063 0.7601
C10A C -0.60421(17) 0.27632(16) 0.89778(13)
H5A H -0.6909 0.3227 0.9582
C11A C -0.47644(18) 0.15816(16) 0.92615(13)
H6A H -0.4789 0.1267 1.0054
C12A C -0.34348(17) 0.08510(15) 0.83773(12)
H7A H -0.2578 0.0056 0.8566
C13A C -0.05979(15) 0.23986(14) 0.56239(13)
H8A H -0.0174 0.1492 0.5938
C14A C 0.01906(15) 0.32001(14) 0.55381(13)
H9A H 0.1133 0.2830 0.5794
C15A C -0.04220(14) 0.45608(13) 0.50702(11)
C16A C -0.18575(15) 0.50674(14) 0.47365(12)
H10A H -0.2325 0.5982 0.4443
C17A C -0.25860(15) 0.42175(14) 0.48403(12)
H11A H -0.3541 0.4569 0.4609
B1A B -0.28214(16) 0.18853(15) 0.52730(14)
C18 C 0.3369(4) 0.4484(3) 0.1971(3)
C19 C 0.2382(3) 0.3838(3) 0.2202(2)
C20 C 0.0953(3) 0.4519(4) 0.1833(2)
H13 H 0.0300 0.4094 0.1975
C21 C 0.0487(4) 0.5814(4) 0.1259(3)
H14 H -0.0468 0.6251 0.1019
C22 C 0.1454(3) 0.6448(3) 0.1047(2)
H15 H 0.1153 0.7315 0.0662
C23 C 0.2871(3) 0.5790(3) 0.1408(2)
H16 H 0.3507 0.6231 0.1272
C24 C 0.4913(6) 0.3787(6) 0.2342(4)
H17 H 0.4780 0.3666 0.3206
H18 H 0.5419 0.4376 0.2132
H19 H 0.5530 0.2870 0.1928
C25 C 0.2881(3) 0.2426(3) 0.2801(3)
H20 H 0.3744 0.1702 0.2272
H21 H 0.2043 0.2187 0.2957
H22 H 0.3177 0.2487 0.3555
F3? F 0.4150(2) 0.9825(2) 0.53356(15)
H12? H 0.0902 0.8212 0.7001
C26? C 0.2888(7) 0.2928(8) 0.2390(6)
H23? H 0.3643 0.2169 0.2724
C27? C 0.3152(7) 0.4059(7) 0.1981(6)
C28? C 0.2062(5) 0.5193(5) 0.1467(4)
C29? C 0.0698(7) 0.5154(8) 0.1407(7)
H24? H -0.0059 0.5922 0.1083
C30? C 0.0425(6) 0.4011(6) 0.1813(5)
H25? H -0.0491 0.4004 0.1745
C31? C 0.1541(5) 0.2878(5) 0.2323(4)
H26? H 0.1383 0.2104 0.2611
C32? C 0.4696(15) 0.3999(15) 0.2011(10)
H27? H 0.5320 0.3136 0.2381
H28? H 0.4540 0.4808 0.2477
H29? H 0.5208 0.4014 0.1195
C33? C 0.2333(8) 0.6410(7) 0.0958(6)
H30? H 0.2411 0.6922 0.1603
H31? H 0.1489 0.7041 0.0576
H32? H 0.3275 0.6050 0.0366
loop_
_geom_bond_atom_site_label_1
_geom_bond_atom_site_label_2
_geom_bond_site_symmetry_1
_geom_bond_site_symmetry_2
F1 C2 1_555 1_555
F2 C4 1_555 1_555
O1 C7 1_555 1_555
O2 C8 1_555 1_555
N1 C13 1_555 1_555
C1 C2 1_555 1_555
C2 C3 1_555 1_555
C3 H1 1_555 1_555
C4 C3 1_555 1_555
C5 C4 1_555 1_555
H2 C5 1_555 1_555
C6 C1 1_555 1_555
H3 C6 1_555 1_555
C7 C8 1_555 1_555
C8 C9 1_555 1_555
C9 H4 1_555 1_555
C10 C9 1_555 1_555
H5 C10 1_555 1_555
C11 C10 1_555 1_555
H6 C11 1_555 1_555
C12 C7 1_555 1_555
H7 C12 1_555 1_555
C13 H8 1_555 1_555
C14 C13 1_555 1_555
H9 C14 1_555 1_555
C15 C14 1_555 1_555
C16 C15 1_555 1_555
H10 C16 1_555 1_555
C17 N1 1_555 1_555
H11 C17 1_555 1_555
B1 O1 1_555 1_555
C18 C19 1_555 1_555
C19 C20 1_555 1_555
C20 H13 1_555 1_555
C21 C20 1_555 1_555
H14 C21 1_555 1_555
C22 C21 1_555 1_555
H15 C22 1_555 1_555
C23 C18 1_555 1_555
H16 C23 1_555 1_555
C24 C18 1_555 1_555
H17 C24 1_555 1_555
H18 C24 1_555 1_555
H19 C24 1_555 1_555
C25 C19 1_555 1_555
H20 C25 1_555 1_555
H21 C25 1_555 1_555
H22 C25 1_555 1_555
F1A C2A 1_555 1_555
F2A C4A 1_555 1_555
O1A C7A 1_555 1_555
O2A C8A 1_555 1_555
N1A C13A 1_555 1_555
C1A C2A 1_555 1_555
C2A C3A 1_555 1_555
C3A H1A 1_555 1_555
C4A C3A 1_555 1_555
C5A C4A 1_555 1_555
H2A C5A 1_555 1_555
C6A C1A 1_555 1_555
H3A C6A 1_555 1_555
C7A C8A 1_555 1_555
C8A C9A 1_555 1_555
C9A H4A 1_555 1_555
C10A C9A 1_555 1_555
H5A C10A 1_555 1_555
C11A C10A 1_555 1_555
H6A C11A 1_555 1_555
C12A C7A 1_555 1_555
H7A C12A 1_555 1_555
C13A H8A 1_555 1_555
C14A C13A 1_555 1_555
H9A C14A 1_555 1_555
C15A C15 1_555 1_555
C16A C15A 1_555 1_555
H10A C16A 1_555 1_555
C17A N1A 1_555 1_555
H11A C17A 1_555 1_555
B1A O1A 1_555 1_555
O2 B1 1_555 1_555
N1 B1 1_555 1_555
C1 B1 1_555 1_555
C5 C6 1_555 1_555
C11 C12 1_555 1_555
C16 C17 1_555 1_555
C22 C23 1_555 1_555
O2A B1A 1_555 1_555
N1A B1A 1_555 1_555
C1A B1A 1_555 1_555
C5A C6A 1_555 1_555
C11A C12A 1_555 1_555
C14A C15A 1_555 1_555
C16A C17A 1_555 1_555

#END
