
#######################################################################
#
#                 Cambridge Crystallographic Data Centre
#                                CCDC 
#
#######################################################################
#
# If this CIF has been generated from an entry in the Cambridge 
# Structural Database, then it will include bibliographic, chemical, 
# crystal, experimental, refinement or atomic coordinate data resulting 
# from the CCDC's data processing and validation procedures.
#
#######################################################################

data_KEZWIY
_chemical_formula_moiety         'C34 H22 B2 F4 N2 O4,C6 H7 N1'
_chemical_name_systematic        
"1,1'-bis[2-(2,4-difluorophenyl)-2H-1,3,2-benzodioxaborol-2-yl]-4,4'-bi-1-pyridine aniline"
_symmetry_cell_setting           monoclinic
_symmetry_space_group_name_H-M   'P 21/c'
_symmetry_Int_Tables_number      14
_space_group_name_Hall           '-P 2ybc'
loop_
_symmetry_equiv_pos_site_id
_symmetry_equiv_pos_as_xyz
1 x,y,z
2 -x,1/2+y,1/2-z
3 -x,-y,-z
4 x,1/2-y,1/2+z
_cell_length_a                   7.2738(2)
_cell_length_b                   15.1490(3)
_cell_length_c                   15.1105(3)
_cell_angle_alpha                90
_cell_angle_beta                 94.927(2)
_cell_angle_gamma                90
_cell_volume                     1658.89
_exptl_crystal_colour            orange
_exptl_crystal_description       block
_cell_formula_units_Z            2
_exptl_crystal_recrystallization_method acetonitrile
loop_
_atom_site_label
_atom_site_type_symbol
_atom_site_fract_x
_atom_site_fract_y
_atom_site_fract_z
B1 B 0.3929(4) 0.26670(17) 0.74920(17)
C1 C 0.2712(3) 0.18885(14) 0.78363(13)
C2 C 0.0885(3) 0.20279(15) 0.79968(16)
C3 C -0.0328(3) 0.13915(16) 0.82249(15)
H1 H -0.1554 0.1521 0.8302
C4 C 0.0371(4) 0.05518(16) 0.83330(14)
C5 C 0.2174(4) 0.03510(16) 0.82076(16)
H2 H 0.2629 -0.0219 0.8290
C6 C 0.3276(3) 0.10278(15) 0.79556(16)
H3 H 0.4490 0.0893 0.7859
C7 C 0.6144(3) 0.28762(14) 0.65493(14)
C8 C 0.4547(4) 0.32947(14) 0.61996(15)
C9 C 0.4521(4) 0.37961(15) 0.54347(15)
H4 H 0.3448 0.4071 0.5196
C10 C 0.6157(5) 0.38707(17) 0.50406(16)
H5 H 0.6185 0.4207 0.4527
C11 C 0.7758(4) 0.34589(17) 0.53874(16)
H6 H 0.8838 0.3528 0.5107
C12 C 0.7776(4) 0.29404(16) 0.61545(16)
H7 H 0.8839 0.2653 0.6387
C13 C 0.5044(5) 0.32035(16) 0.90710(18)
H8 H 0.5428 0.2623 0.9163
C14 C 0.5346(5) 0.37931(17) 0.97519(19)
H9 H 0.5901 0.3604 1.0297
C15 C 0.4834(3) 0.46708(14) 0.96386(14)
C16 C 0.3996(3) 0.48908(15) 0.88134(14)
H10 H 0.3625 0.5470 0.8698
C17 C 0.3707(3) 0.42618(15) 0.81620(14)
H11 H 0.3128 0.4427 0.7614
F1 F 0.0242(3) 0.28739(13) 0.80078(15)
F2 F -0.0781(2) -0.00956(10) 0.85644(10)
N1 N 0.4226(2) 0.34254(11) 0.82853(12)
O1 O 0.5812(2) 0.24057(10) 0.72959(10)
O2 O 0.3119(2) 0.31226(10) 0.66980(10)
B1B B 0.6071(4) 0.73330(17) 1.25080(17)
C1B C 0.7288(3) 0.81115(14) 1.21637(13)
C2B C 0.9115(3) 0.79721(15) 1.20032(16)
C3B C 1.0328(3) 0.86085(16) 1.17751(15)
H1B H 1.1554 0.8479 1.1698
C4B C 0.9629(4) 0.94482(16) 1.16670(14)
C5B C 0.7826(4) 0.96490(16) 1.17924(16)
H2B H 0.7371 1.0219 1.1710
C6B C 0.6724(3) 0.89722(15) 1.20444(16)
H3B H 0.5510 0.9107 1.2141
C7B C 0.3856(3) 0.71238(14) 1.34507(14)
C8B C 0.5453(4) 0.67053(14) 1.38004(15)
C9B C 0.5479(4) 0.62039(15) 1.45653(15)
H4B H 0.6552 0.5929 1.4804
C10B C 0.3843(5) 0.61293(17) 1.49594(16)
H5B H 0.3815 0.5793 1.5473
C11B C 0.2242(4) 0.65411(17) 1.46126(16)
H6B H 0.1162 0.6472 1.4893
C12B C 0.2224(4) 0.70596(16) 1.38455(16)
H7B H 0.1161 0.7347 1.3613
C13B C 0.4956(5) 0.67965(16) 1.09290(18)
H8B H 0.4572 0.7377 1.0837
C14B C 0.4654(5) 0.62069(17) 1.02481(19)
H9B H 0.4099 0.6396 0.9703
C15B C 0.5166(3) 0.53292(14) 1.03614(14)
C16B C 0.6004(3) 0.51092(15) 1.11866(14)
H10B H 0.6375 0.4530 1.1302
C17B C 0.6293(3) 0.57382(15) 1.18380(14)
H11B H 0.6872 0.5573 1.2386
F1B F 0.9758(3) 0.71261(13) 1.19922(15)
F2B F 1.0781(2) 1.00956(10) 1.14356(10)
N1B N 0.5774(2) 0.65746(11) 1.17147(12)
O1B O 0.4188(2) 0.75943(10) 1.27041(10)
O2B O 0.6881(2) 0.68774(10) 1.33020(10)
N2 N -0.0527(11) 0.6579(6) 0.0006(5)
H12 H -0.0985 0.6878 -0.0444
H13 H -0.0222 0.6841 0.0502
C18 C -0.0288(7) 0.5705(3) -0.0066(3)
C19 C -0.0806(6) 0.5318(4) -0.0884(3)
H14 H -0.1254 0.5666 -0.1361
C20 C -0.0654(7) 0.4410(4) -0.0988(3)
H15 H -0.1001 0.4151 -0.1536
C21 C 0.0015(8) 0.3889(3) -0.0275(4)
H16 H 0.0116 0.3281 -0.0345
C22 C 0.0532(8) 0.4275(4) 0.0543(3)
H17 H 0.0980 0.3927 0.1020
C23 C 0.0381(8) 0.5183(4) 0.0647(3)
H18 H 0.0727 0.5442 0.1194
N2B N 0.0527(11) 0.3421(6) -0.0006(5)
H12B H 0.0985 0.3122 0.0444
H13B H 0.0222 0.3159 -0.0502
C18B C 0.0288(7) 0.4295(3) 0.0066(3)
C19B C 0.0806(6) 0.4682(4) 0.0884(3)
H14B H 0.1254 0.4334 0.1361
C20B C 0.0654(7) 0.5590(4) 0.0988(3)
H15B H 0.1001 0.5849 0.1536
C21B C -0.0015(8) 0.6111(3) 0.0275(4)
H16B H -0.0116 0.6719 0.0345
C22B C -0.0532(8) 0.5725(4) -0.0543(3)
H17B H -0.0980 0.6073 -0.1020
C23B C -0.0381(8) 0.4817(4) -0.0647(3)
H18B H -0.0727 0.4558 -0.1194
H19? H 0.0444 0.2604 0.7945
F3? F 0.5085(5) 0.0815(2) 0.7995(3)
loop_
_geom_bond_atom_site_label_1
_geom_bond_atom_site_label_2
_geom_bond_site_symmetry_1
_geom_bond_site_symmetry_2
B1 C1 1_555 1_555
C1 C2 1_555 1_555
C2 C3 1_555 1_555
C3 H1 1_555 1_555
C4 C3 1_555 1_555
C5 C4 1_555 1_555
H2 C5 1_555 1_555
C6 C1 1_555 1_555
H3 C6 1_555 1_555
C7 C8 1_555 1_555
C8 C9 1_555 1_555
C9 H4 1_555 1_555
C10 C9 1_555 1_555
H5 C10 1_555 1_555
C11 C10 1_555 1_555
H6 C11 1_555 1_555
C12 C7 1_555 1_555
H7 C12 1_555 1_555
C13 H8 1_555 1_555
C14 C13 1_555 1_555
H9 C14 1_555 1_555
C15 C14 1_555 1_555
C16 C15 1_555 1_555
H10 C16 1_555 1_555
C17 C16 1_555 1_555
H11 C17 1_555 1_555
F1 C2 1_555 1_555
F2 C4 1_555 1_555
N1 B1 1_555 1_555
O1 B1 1_555 1_555
O2 B1 1_555 1_555
N2 H12 1_555 1_555
H13 N2 1_555 1_555
C18 N2 1_555 1_555
C19 C18 1_555 1_555
H14 C19 1_555 1_555
C20 C19 1_555 1_555
H15 C20 1_555 1_555
C21 C20 1_555 1_555
H16 C21 1_555 1_555
C22 C21 1_555 1_555
H17 C22 1_555 1_555
C23 C18 1_555 1_555
H18 C23 1_555 1_555
B1B C1B 1_555 1_555
C1B C2B 1_555 1_555
C2B C3B 1_555 1_555
C3B H1B 1_555 1_555
C4B C3B 1_555 1_555
C5B C4B 1_555 1_555
H2B C5B 1_555 1_555
C6B C1B 1_555 1_555
H3B C6B 1_555 1_555
C7B C8B 1_555 1_555
C8B C9B 1_555 1_555
C9B H4B 1_555 1_555
C10B C9B 1_555 1_555
H5B C10B 1_555 1_555
C11B C10B 1_555 1_555
H6B C11B 1_555 1_555
C12B C7B 1_555 1_555
H7B C12B 1_555 1_555
C13B H8B 1_555 1_555
C14B C13B 1_555 1_555
H9B C14B 1_555 1_555
C15B C15 1_555 1_555
C16B C15B 1_555 1_555
H10B C16B 1_555 1_555
C17B C16B 1_555 1_555
H11B C17B 1_555 1_555
F1B C2B 1_555 1_555
F2B C4B 1_555 1_555
N1B B1B 1_555 1_555
O1B B1B 1_555 1_555
O2B B1B 1_555 1_555
N2B H12B 1_555 1_555
H13B N2B 1_555 1_555
C18B N2B 1_555 1_555
C19B C18B 1_555 1_555
H14B C19B 1_555 1_555
C20B C19B 1_555 1_555
H15B C20B 1_555 1_555
C21B C20B 1_555 1_555
H16B C21B 1_555 1_555
C22B C21B 1_555 1_555
H17B C22B 1_555 1_555
C23B C18B 1_555 1_555
H18B C23B 1_555 1_555
C5 C6 1_555 1_555
C7 O1 1_555 1_555
C8 O2 1_555 1_555
C11 C12 1_555 1_555
C13 N1 1_555 1_555
C17 N1 1_555 1_555
C22 C23 1_555 1_555
C5B C6B 1_555 1_555
C7B O1B 1_555 1_555
C8B O2B 1_555 1_555
C11B C12B 1_555 1_555
C13B N1B 1_555 1_555
C14B C15B 1_555 1_555
C17B N1B 1_555 1_555
C22B C23B 1_555 1_555

#END
