
#######################################################################
#
#                 Cambridge Crystallographic Data Centre
#                                CCDC 
#
#######################################################################
#
# If this CIF has been generated from an entry in the Cambridge 
# Structural Database, then it will include bibliographic, chemical, 
# crystal, experimental, refinement or atomic coordinate data resulting 
# from the CCDC's data processing and validation procedures.
#
#######################################################################

data_KEZWUJ
_chemical_formula_moiety         'C22 H18 N1 O1 S1 1+,C1 F3 O3 S1 1-'
_chemical_name_systematic        
'2-(4-Methoxyphenyl)-3,5-diphenyl-1,3-thiazol-3-ium trifluoromethanesulfonate'
_symmetry_cell_setting           triclinic
_symmetry_space_group_name_H-M   'P -1'
_symmetry_Int_Tables_number      2
_space_group_name_Hall           '-P 1'
loop_
_symmetry_equiv_pos_site_id
_symmetry_equiv_pos_as_xyz
1 x,y,z
2 -x,-y,-z
_cell_length_a                   7.594(6)
_cell_length_b                   10.726(9)
_cell_length_c                   15.412(12)
_cell_angle_alpha                106.631(9)
_cell_angle_beta                 98.221(10)
_cell_angle_gamma                103.331(10)
_cell_volume                     1140.65
_exptl_crystal_colour            'light yellow'
_exptl_crystal_description       block
_cell_formula_units_Z            2
loop_
_atom_site_label
_atom_site_type_symbol
_atom_site_fract_x
_atom_site_fract_y
_atom_site_fract_z
S1 S 0.10694(12) 0.91000(9) 0.40464(6)
N1 N 0.1791(4) 0.8895(3) 0.24899(19)
O1 O -0.5868(4) 0.4128(3) 0.1082(2)
C1 C 0.0560(5) 0.8300(3) 0.2894(2)
C2 C 0.2951(5) 1.0294(3) 0.3978(2)
C3 C 0.3112(5) 1.0029(3) 0.3096(2)
C4 C 0.1804(5) 0.8398(4) 0.1520(2)
C5 C 0.1818(7) 0.9271(4) 0.1017(3)
H1 H 0.1802 1.0159 0.1296
C6 C 0.1857(8) 0.8808(6) 0.0096(3)
H2 H 0.1880 0.9389 -0.0253
C7 C 0.1864(7) 0.7491(6) -0.0316(3)
H3 H 0.1883 0.7180 -0.0943
C8 C 0.1842(6) 0.6655(5) 0.0188(3)
H4 H 0.1840 0.5764 -0.0098
C9 C 0.1823(5) 0.7085(4) 0.1113(3)
H5 H 0.1823 0.6501 0.1458
C10 C -0.1065(5) 0.7170(3) 0.2419(2)
C11 C -0.2250(5) 0.7184(3) 0.1648(2)
H6 H -0.1969 0.7910 0.1427
C12 C -0.3801(5) 0.6153(4) 0.1223(3)
H7 H -0.4570 0.6162 0.0699
C13 C -0.4277(5) 0.5065(3) 0.1555(3)
C14 C -0.3110(5) 0.5043(4) 0.2300(3)
H8 H -0.3387 0.4309 0.2514
C15 C -0.1536(5) 0.6086(4) 0.2740(3)
H9 H -0.0771 0.6069 0.3262
C16 C -0.6398(8) 0.2940(5) 0.1347(5)
H10 H -0.5424 0.2507 0.1331
H11 H -0.7516 0.2322 0.0922
H12 H -0.6610 0.3197 0.1964
C17 C 0.4061(5) 1.1387(3) 0.4811(2)
C18 C 0.3940(5) 1.1371(4) 0.5684(3)
H13 H 0.3136 1.0627 0.5754
C19 C 0.4980(6) 1.2427(4) 0.6457(3)
H14 H 0.4865 1.2403 0.7045
C20 C 0.6181(6) 1.3512(5) 0.6365(3)
H15 H 0.6881 1.4234 0.6889
C21 C 0.6354(7) 1.3539(5) 0.5512(3)
H16 H 0.7204 1.4275 0.5459
C22 C 0.5303(6) 1.2503(4) 0.4714(3)
H17 H 0.5417 1.2546 0.4130
H18 H 0.404(5) 1.050(4) 0.289(3)
S2 S 0.82157(15) 0.12879(10) 0.26815(7)
O2 O 0.6645(5) 0.1667(4) 0.2411(3)
O3 O 0.9123(7) 0.0703(4) 0.2011(3)
O4 O 0.7976(7) 0.0547(5) 0.3293(4)
F1 F 1.0254(6) 0.3618(4) 0.2795(4)
F2 F 0.9276(7) 0.3679(5) 0.3949(3)
F3 F 1.1440(6) 0.2764(4) 0.3714(4)
C23 C 0.9833(8) 0.2860(5) 0.3396(5)
loop_
_geom_bond_atom_site_label_1
_geom_bond_atom_site_label_2
_geom_bond_site_symmetry_1
_geom_bond_site_symmetry_2
S1 C1 1_555 1_555
N1 C1 1_555 1_555
O1 C13 1_555 1_555
C1 C10 1_555 1_555
C2 S1 1_555 1_555
C3 N1 1_555 1_555
C4 N1 1_555 1_555
C5 C4 1_555 1_555
H1 C5 1_555 1_555
C6 C5 1_555 1_555
H2 C6 1_555 1_555
C7 C6 1_555 1_555
H3 C7 1_555 1_555
C8 C7 1_555 1_555
H4 C8 1_555 1_555
C9 C4 1_555 1_555
H5 C9 1_555 1_555
C10 C11 1_555 1_555
C11 H6 1_555 1_555
C12 C11 1_555 1_555
H7 C12 1_555 1_555
C13 C12 1_555 1_555
C14 C13 1_555 1_555
H8 C14 1_555 1_555
C15 C10 1_555 1_555
H9 C15 1_555 1_555
C16 O1 1_555 1_555
H10 C16 1_555 1_555
H11 C16 1_555 1_555
H12 C16 1_555 1_555
C17 C2 1_555 1_555
C18 C17 1_555 1_555
H13 C18 1_555 1_555
C19 C18 1_555 1_555
H14 C19 1_555 1_555
C20 C19 1_555 1_555
H15 C20 1_555 1_555
C21 C20 1_555 1_555
H16 C21 1_555 1_555
C22 C17 1_555 1_555
H17 C22 1_555 1_555
H18 C3 1_555 1_555
S2 O2 1_555 1_555
O3 S2 1_555 1_555
O4 S2 1_555 1_555
F1 C23 1_555 1_555
F2 C23 1_555 1_555
F3 C23 1_555 1_555
C23 S2 1_555 1_555
C2 C3 1_555 1_555
C8 C9 1_555 1_555
C14 C15 1_555 1_555
C21 C22 1_555 1_555

#END
