
#######################################################################
#
#                 Cambridge Crystallographic Data Centre
#                                CCDC 
#
#######################################################################
#
# If this CIF has been generated from an entry in the Cambridge 
# Structural Database, then it will include bibliographic, chemical, 
# crystal, experimental, refinement or atomic coordinate data resulting 
# from the CCDC's data processing and validation procedures.
#
#######################################################################

data_KEZWEU
_chemical_formula_moiety         'C34 H22 B2 F4 N2 O4,2(C6 H5 Br1 O1)'
_chemical_name_systematic        
"1,1'-bis[2-(2,4-difluorophenyl)-2H-1,3,2-benzodioxaborol-2-yl]-4,4'-bi-1-pyridine bis(3-bromophenol)"
_symmetry_cell_setting           monoclinic
_symmetry_space_group_name_H-M   'P 21/n'
_symmetry_Int_Tables_number      14
_space_group_name_Hall           '-P 2yn'
loop_
_symmetry_equiv_pos_site_id
_symmetry_equiv_pos_as_xyz
1 x,y,z
2 1/2-x,1/2+y,1/2-z
3 -x,-y,-z
4 1/2+x,1/2-y,1/2+z
_cell_length_a                   13.3379(5)
_cell_length_b                   11.4369(3)
_cell_length_c                   14.2468(4)
_cell_angle_alpha                90
_cell_angle_beta                 108.703(4)
_cell_angle_gamma                90
_cell_volume                     2058.5
_exptl_crystal_colour            orange
_exptl_crystal_description       irregular
_cell_formula_units_Z            2
_exptl_crystal_recrystallization_method acetonitrile
loop_
_atom_site_label
_atom_site_type_symbol
_atom_site_fract_x
_atom_site_fract_y
_atom_site_fract_z
Br1 Br 0.61892(3) 0.30788(2) 0.28829(2)
C1 C 0.6387(2) 0.4706(2) 0.31698(17)
C2 C 0.55135(18) 0.5432(2) 0.28477(16)
H1 H 0.4847 0.5126 0.2519
C3 C 0.56518(18) 0.6625(2) 0.30251(16)
C4 C 0.6658(2) 0.7074(2) 0.35254(17)
H2 H 0.6755 0.7873 0.3645
C5 C 0.7506(2) 0.6316(3) 0.38393(18)
H3 H 0.8175 0.6613 0.4173
C6 C 0.7385(2) 0.5126(3) 0.36687(18)
H4 H 0.7961 0.4623 0.3885
O1 O 0.48314(13) 0.73951(15) 0.27322(13)
H5 H 0.4279 0.7038 0.2470
B1 B 0.6854(2) 0.8840(2) 0.65387(19)
C7 C 0.65231(17) 0.8894(2) 0.75219(16)
C8 C 0.68229(18) 0.8062(2) 0.82645(17)
C9 C 0.6448(2) 0.7989(2) 0.90649(18)
H6 H 0.6673 0.7410 0.9545
C10 C 0.5725(2) 0.8827(3) 0.91040(17)
C11 C 0.5402(2) 0.9710(2) 0.84217(19)
H7 H 0.4930 1.0279 0.8486
C12 C 0.58033(19) 0.9729(2) 0.76262(17)
H8 H 0.5584 1.0317 0.7153
C13 C 0.71145(18) 0.9840(2) 0.52916(16)
C14 C 0.80333(18) 0.9205(2) 0.57533(16)
C15 C 0.88262(19) 0.9089(2) 0.53377(17)
H9 H 0.9433 0.8654 0.5644
C16 C 0.8679(2) 0.9653(2) 0.44326(18)
H10 H 0.9199 0.9590 0.4128
C17 C 0.7783(2) 1.0303(2) 0.39807(18)
H11 H 0.7715 1.0681 0.3386
C18 C 0.6972(2) 1.0402(2) 0.44039(17)
H12 H 0.6362 1.0831 0.4097
C19 C 0.52985(18) 0.7643(2) 0.53647(17)
H13 H 0.4948 0.8355 0.5214
C20 C 0.47714(18) 0.6633(2) 0.49771(17)
H14 H 0.4070 0.6669 0.4571
C21 C 0.52787(17) 0.55562(19) 0.51876(15)
C22 C 0.63431(19) 0.5567(2) 0.57590(18)
H15 H 0.6726 0.4873 0.5890
C23 C 0.68249(19) 0.6605(2) 0.61283(18)
H16 H 0.7536 0.6598 0.6511
F1 F 0.75393(12) 0.72252(14) 0.82168(11)
F2 F 0.53202(13) 0.87685(16) 0.98663(11)
N1 N 0.63100(14) 0.76231(16) 0.59575(13)
O2 O 0.64282(12) 0.97871(14) 0.58334(11)
O3 O 0.79889(12) 0.87307(14) 0.66359(11)
B1B B 0.3146(2) 0.1160(2) 0.34613(19)
C7B C 0.34769(17) 0.1106(2) 0.24781(16)
C8B C 0.31771(18) 0.1938(2) 0.17355(17)
C9B C 0.3552(2) 0.2011(2) 0.09351(18)
H6B H 0.3327 0.2590 0.0455
C10B C 0.4275(2) 0.1173(3) 0.08960(17)
C11B C 0.4598(2) 0.0290(2) 0.15783(19)
H7B H 0.5070 -0.0279 0.1514
C12B C 0.41967(19) 0.0271(2) 0.23738(17)
H8B H 0.4416 -0.0317 0.2847
C13B C 0.28855(18) 0.0160(2) 0.47084(16)
C14B C 0.19667(18) 0.0795(2) 0.42467(16)
C15B C 0.11738(19) 0.0911(2) 0.46623(17)
H9B H 0.0567 0.1346 0.4356
C16B C 0.1321(2) 0.0347(2) 0.55674(18)
H10B H 0.0801 0.0410 0.5872
C17B C 0.2217(2) -0.0303(2) 0.60193(18)
H11B H 0.2285 -0.0681 0.6614
C18B C 0.3028(2) -0.0402(2) 0.55961(17)
H12B H 0.3638 -0.0831 0.5903
C19B C 0.47015(18) 0.2357(2) 0.46353(17)
H13B H 0.5052 0.1645 0.4786
C20B C 0.52286(18) 0.3367(2) 0.50229(17)
H14B H 0.5930 0.3331 0.5429
C21B C 0.47213(17) 0.44438(19) 0.48124(15)
C22B C 0.36569(19) 0.4433(2) 0.42410(18)
H15B H 0.3274 0.5127 0.4110
C23B C 0.31751(19) 0.3395(2) 0.38717(18)
H16B H 0.2464 0.3402 0.3489
F1B F 0.24607(12) 0.27748(14) 0.17832(11)
F2B F 0.46798(13) 0.12315(16) 0.01337(11)
N1B N 0.36900(14) 0.23769(16) 0.40425(13)
O2B O 0.35718(12) 0.02129(14) 0.41666(11)
O3B O 0.20111(12) 0.12693(14) 0.33641(11)
loop_
_geom_bond_atom_site_label_1
_geom_bond_atom_site_label_2
_geom_bond_site_symmetry_1
_geom_bond_site_symmetry_2
Br1 C1 1_555 1_555
C1 C2 1_555 1_555
C2 H1 1_555 1_555
C3 C2 1_555 1_555
C4 C3 1_555 1_555
H2 C4 1_555 1_555
C5 C4 1_555 1_555
H3 C5 1_555 1_555
C6 C1 1_555 1_555
H4 C6 1_555 1_555
O1 C3 1_555 1_555
H5 O1 1_555 1_555
B1 C7 1_555 1_555
C7 C8 1_555 1_555
C8 C9 1_555 1_555
C9 H6 1_555 1_555
C10 C9 1_555 1_555
C11 C10 1_555 1_555
H7 C11 1_555 1_555
C12 C7 1_555 1_555
H8 C12 1_555 1_555
C13 C14 1_555 1_555
C14 C15 1_555 1_555
C15 H9 1_555 1_555
C16 C15 1_555 1_555
H10 C16 1_555 1_555
C17 C16 1_555 1_555
H11 C17 1_555 1_555
C18 C13 1_555 1_555
H12 C18 1_555 1_555
C19 H13 1_555 1_555
C20 C19 1_555 1_555
H14 C20 1_555 1_555
C21 C20 1_555 1_555
C22 C21 1_555 1_555
H15 C22 1_555 1_555
C23 C22 1_555 1_555
H16 C23 1_555 1_555
F1 C8 1_555 1_555
F2 C10 1_555 1_555
N1 B1 1_555 1_555
O2 B1 1_555 1_555
O3 B1 1_555 1_555
B1B C7B 1_555 1_555
C7B C8B 1_555 1_555
C8B C9B 1_555 1_555
C9B H6B 1_555 1_555
C10B C9B 1_555 1_555
C11B C10B 1_555 1_555
H7B C11B 1_555 1_555
C12B C7B 1_555 1_555
H8B C12B 1_555 1_555
C13B C14B 1_555 1_555
C14B C15B 1_555 1_555
C15B H9B 1_555 1_555
C16B C15B 1_555 1_555
H10B C16B 1_555 1_555
C17B C16B 1_555 1_555
H11B C17B 1_555 1_555
C18B C13B 1_555 1_555
H12B C18B 1_555 1_555
C19B H13B 1_555 1_555
C20B C19B 1_555 1_555
H14B C20B 1_555 1_555
C21B C21 1_555 1_555
C22B C21B 1_555 1_555
H15B C22B 1_555 1_555
C23B C22B 1_555 1_555
H16B C23B 1_555 1_555
F1B C8B 1_555 1_555
F2B C10B 1_555 1_555
N1B B1B 1_555 1_555
O2B B1B 1_555 1_555
O3B B1B 1_555 1_555
C5 C6 1_555 1_555
C11 C12 1_555 1_555
C13 O2 1_555 1_555
C14 O3 1_555 1_555
C17 C18 1_555 1_555
C19 N1 1_555 1_555
C23 N1 1_555 1_555
C11B C12B 1_555 1_555
C13B O2B 1_555 1_555
C14B O3B 1_555 1_555
C17B C18B 1_555 1_555
C19B N1B 1_555 1_555
C20B C21B 1_555 1_555
C23B N1B 1_555 1_555

#END
