
#######################################################################
#
#                 Cambridge Crystallographic Data Centre
#                                CCDC 
#
#######################################################################
#
# If this CIF has been generated from an entry in the Cambridge 
# Structural Database, then it will include bibliographic, chemical, 
# crystal, experimental, refinement or atomic coordinate data resulting 
# from the CCDC's data processing and validation procedures.
#
#######################################################################

data_KEZXAQ
_chemical_formula_moiety         'C21 H16 N1 S1 1+,C1 F3 O3 S1 1-'
_chemical_name_systematic        
'2,3,5-Triphenyl-1,3-thiazol-3-ium trifluoromethanesulfonate'
_symmetry_cell_setting           monoclinic
_symmetry_space_group_name_H-M   'P 21/c'
_symmetry_Int_Tables_number      14
_space_group_name_Hall           '-P 2ybc'
loop_
_symmetry_equiv_pos_site_id
_symmetry_equiv_pos_as_xyz
1 x,y,z
2 -x,1/2+y,1/2-z
3 -x,-y,-z
4 x,1/2-y,1/2+z
_cell_length_a                   9.645(3)
_cell_length_b                   14.571(5)
_cell_length_c                   15.150(5)
_cell_angle_alpha                90
_cell_angle_beta                 101.947(5)
_cell_angle_gamma                90
_cell_volume                     2083.02
_exptl_crystal_colour            'light yellow'
_exptl_crystal_description       block
_cell_formula_units_Z            4
loop_
_atom_site_label
_atom_site_type_symbol
_atom_site_fract_x
_atom_site_fract_y
_atom_site_fract_z
N1 N 0.4346(2) 0.41988(14) 0.81074(13)
S1 S 0.58575(8) 0.35651(5) 0.95193(5)
C1 C 0.4589(3) 0.34264(17) 0.85847(16)
C2 C 0.6109(3) 0.46938(17) 0.92587(16)
C3 C 0.5191(3) 0.4952(2) 0.84748(15)
H1 H 0.5137 0.5537 0.8225
C4 C 0.3446(3) 0.42958(16) 0.72066(16)
C5 C 0.2539(3) 0.50343(19) 0.70457(17)
H2 H 0.2434 0.5425 0.7513
C6 C 0.1788(3) 0.5185(2) 0.6178(2)
H3 H 0.1177 0.5684 0.6055
C7 C 0.1945(3) 0.4596(2) 0.5497(2)
H4 H 0.1432 0.4696 0.4915
C8 C 0.2854(3) 0.3859(2) 0.56706(18)
H5 H 0.2949 0.3465 0.5204
C9 C 0.3624(3) 0.37006(19) 0.65307(17)
H6 H 0.4245 0.3207 0.6651
C10 C 0.3904(3) 0.25316(17) 0.83913(16)
C11 C 0.2472(3) 0.24451(19) 0.80235(19)
H7 H 0.1918 0.2966 0.7871
C12 C 0.1867(3) 0.1585(2) 0.7883(2)
H8 H 0.0908 0.1529 0.7624
C13 C 0.2670(4) 0.0814(2) 0.8124(2)
H9 H 0.2253 0.0237 0.8031
C14 C 0.4075(4) 0.0889(2) 0.8499(2)
H10 H 0.4612 0.0362 0.8663
C15 C 0.4709(3) 0.17402(19) 0.86365(19)
H11 H 0.5670 0.1787 0.8892
C16 C 0.7256(3) 0.52401(18) 0.98005(16)
C17 C 0.8114(3) 0.4881(2) 1.05694(19)
H12 H 0.7923 0.4301 1.0772
C18 C 0.9253(4) 0.5379(3) 1.1038(2)
H13 H 0.9825 0.5133 1.1554
C19 C 0.9540(4) 0.6231(3) 1.0744(3)
H14 H 1.0314 0.6561 1.1054
C20 C 0.8691(4) 0.6597(2) 0.9995(3)
H15 H 0.8887 0.7179 0.9800
C21 C 0.7546(3) 0.6116(2) 0.9524(2)
H16 H 0.6966 0.6377 0.9019
O1 O 0.6286(2) 0.29295(14) 0.16437(15)
O2 O 0.6986(3) 0.15946(17) 0.25797(16)
O3 O 0.8550(3) 0.28753(19) 0.2672(2)
S2 S 0.74168(7) 0.23784(5) 0.21408(5)
F1 F 0.9244(3) 0.13084(15) 0.16224(18)
F2 F 0.7234(4) 0.1365(2) 0.07185(17)
F3 F 0.8661(3) 0.2472(2) 0.0778(2)
C22 C 0.8181(4) 0.1859(2) 0.1280(3)
loop_
_geom_bond_atom_site_label_1
_geom_bond_atom_site_label_2
_geom_bond_site_symmetry_1
_geom_bond_site_symmetry_2
N1 C1 1_555 1_555
S1 C1 1_555 1_555
C1 C10 1_555 1_555
C2 S1 1_555 1_555
C3 N1 1_555 1_555
H1 C3 1_555 1_555
C4 N1 1_555 1_555
C5 C4 1_555 1_555
H2 C5 1_555 1_555
C6 C5 1_555 1_555
H3 C6 1_555 1_555
C7 C6 1_555 1_555
H4 C7 1_555 1_555
C8 C7 1_555 1_555
H5 C8 1_555 1_555
C9 C4 1_555 1_555
H6 C9 1_555 1_555
C10 C11 1_555 1_555
C11 H7 1_555 1_555
C12 C11 1_555 1_555
H8 C12 1_555 1_555
C13 C12 1_555 1_555
H9 C13 1_555 1_555
C14 C13 1_555 1_555
H10 C14 1_555 1_555
C15 C10 1_555 1_555
H11 C15 1_555 1_555
C16 C2 1_555 1_555
C17 C16 1_555 1_555
H12 C17 1_555 1_555
C18 C17 1_555 1_555
H13 C18 1_555 1_555
C19 C18 1_555 1_555
H14 C19 1_555 1_555
C20 C19 1_555 1_555
H15 C20 1_555 1_555
C21 C16 1_555 1_555
H16 C21 1_555 1_555
O1 S2 1_555 1_555
O2 S2 1_555 1_555
O3 S2 1_555 1_555
S2 C22 1_555 1_555
F1 C22 1_555 1_555
F2 C22 1_555 1_555
F3 C22 1_555 1_555
C2 C3 1_555 1_555
C8 C9 1_555 1_555
C14 C15 1_555 1_555
C20 C21 1_555 1_555

#END
