
#######################################################################
#
#                 Cambridge Crystallographic Data Centre
#                                CCDC 
#
#######################################################################
#
# If this CIF has been generated from an entry in the Cambridge 
# Structural Database, then it will include bibliographic, chemical, 
# crystal, experimental, refinement or atomic coordinate data resulting 
# from the CCDC's data processing and validation procedures.
#
#######################################################################

data_KEZXOF
_chemical_formula_moiety         'C19 H12 F6 O1 S2'
_chemical_name_systematic        
3-(methylsulfinyl)-2,5-bis(4-(trifluoromethyl)phenyl)thiophene
_symmetry_cell_setting           triclinic
_symmetry_space_group_name_H-M   'P -1'
_symmetry_Int_Tables_number      2
_space_group_name_Hall           '-P 1'
loop_
_symmetry_equiv_pos_site_id
_symmetry_equiv_pos_as_xyz
1 x,y,z
2 -x,-y,-z
_cell_length_a                   8.3690(4)
_cell_length_b                   13.3028(6)
_cell_length_c                   16.2860(8)
_cell_angle_alpha                95.133(2)
_cell_angle_beta                 90.067(2)
_cell_angle_gamma                91.338(2)
_cell_volume                     1805.37
_exptl_crystal_colour            colorless
_exptl_crystal_description       prism
_cell_formula_units_Z            4
loop_
_atom_site_label
_atom_site_type_symbol
_atom_site_fract_x
_atom_site_fract_y
_atom_site_fract_z
S1 S 0.76824(8) 0.80696(4) 0.49376(4)
S2 S 0.72732(7) 1.05521(4) 0.67811(4)
F1 F 0.8511(2) 0.29068(12) 0.59791(12)
F2 F 0.7347(3) 0.32103(13) 0.71506(10)
F3 F 0.5957(2) 0.29703(12) 0.60404(12)
F4 F 0.8994(3) 1.23706(15) 0.25549(13)
F5 F 0.8335(3) 1.33693(14) 0.35756(11)
F6 F 0.6553(2) 1.26644(18) 0.27697(14)
O1 O 0.8405(2) 1.04397(14) 0.74783(11)
C1 C 0.7469(3) 0.76530(18) 0.59120(14)
C2 C 0.7262(3) 0.84419(18) 0.64934(14)
H1 H 0.7129 0.8370 0.7052
C3 C 0.7272(3) 0.93880(17) 0.61477(14)
C4 C 0.7499(3) 0.93180(17) 0.53088(14)
C5 C 0.7460(3) 0.65704(18) 0.60286(15)
C6 C 0.6973(3) 0.6232(2) 0.67742(16)
H2 H 0.6653 0.6695 0.7200
C7 C 0.6960(4) 0.5209(2) 0.68892(17)
H3 H 0.6658 0.4992 0.7395
C8 C 0.7395(4) 0.45154(19) 0.62544(16)
C9 C 0.7906(4) 0.4835(2) 0.55129(17)
H4 H 0.8225 0.4367 0.5090
C10 C 0.7942(4) 0.5856(2) 0.54000(16)
H5 H 0.8290 0.6069 0.4900
C11 C 0.7308(4) 0.3410(2) 0.63578(17)
C12 C 0.5312(3) 1.0420(2) 0.72105(18)
H6 H 0.5249 0.9816 0.7491
H7 H 0.4531 1.0381 0.6776
H8 H 0.5109 1.0993 0.7594
C13 C 0.7578(3) 1.01174(18) 0.47396(14)
C14 C 0.6618(3) 1.09636(18) 0.48597(15)
H9 H 0.5899 1.1013 0.5295
C15 C 0.6724(3) 1.17296(19) 0.43393(15)
H10 H 0.6090 1.2294 0.4428
C16 C 0.7792(3) 1.16483(18) 0.36800(14)
C17 C 0.8719(3) 1.08024(19) 0.35298(15)
H11 H 0.9408 1.0747 0.3081
C18 C 0.8610(3) 1.00383(19) 0.40567(15)
H12 H 0.9227 0.9468 0.3957
C19 C 0.7911(3) 1.2512(2) 0.31472(16)
S3 S 0.25969(7) -0.02944(4) 0.89408(4)
S4 S 0.31609(7) 0.21722(4) 1.08220(4)
F7 F 0.3602(3) -0.52311(14) 1.07147(18)
F8 F 0.1204(3) -0.50754(13) 1.11267(12)
F9 F 0.1673(2) -0.55175(12) 0.98619(11)
F10 F 0.3119(9) 0.4098(4) 0.6538(2)
F11 F 0.2963(8) 0.5076(2) 0.7607(2)
F12 F 0.0841(5) 0.4396(5) 0.7064(7)
O2 O 0.3793(2) 0.18790(14) 1.16230(11)
C20 C 0.2700(3) -0.07111(18) 0.99180(14)
C21 C 0.2883(3) 0.00843(18) 1.05034(15)
H13 H 0.2946 0.0015 1.1066
C22 C 0.2966(3) 0.10254(17) 1.01613(15)
C23 C 0.2813(3) 0.09577(17) 0.93175(14)
C24 C 0.2549(3) -0.17867(17) 1.00432(14)
C25 C 0.2003(3) -0.20664(19) 1.08059(15)
H14 H 0.1739 -0.1571 1.1220
C26 C 0.1855(3) -0.3073(2) 1.09465(16)
H15 H 0.1489 -0.3254 1.1453
C27 C 0.2255(3) -0.38161(18) 1.03290(16)
C28 C 0.2779(3) -0.35503(18) 0.95707(15)
H16 H 0.3034 -0.4049 0.9158
C29 C 0.2924(3) -0.25451(18) 0.94249(15)
H17 H 0.3272 -0.2371 0.8913
C30 C 0.2184(4) -0.4902(2) 1.05039(18)
C31 C 0.1067(3) 0.2371(2) 1.09674(19)
H18 H 0.0575 0.1784 1.1172
H19 H 0.0585 0.2490 1.0451
H20 H 0.0918 0.2945 1.1358
C32 C 0.2741(3) 0.17652(17) 0.87545(14)
C33 C 0.3766(3) 0.26132(18) 0.88754(16)
H21 H 0.4538 0.2647 0.9289
C34 C 0.3630(3) 0.34057(19) 0.83770(16)
H22 H 0.4295 0.3975 0.8465
C35 C 0.2500(3) 0.33429(18) 0.77493(15)
C36 C 0.1533(3) 0.24845(19) 0.76065(16)
H23 H 0.0797 0.2438 0.7176
C37 C 0.1659(3) 0.16986(19) 0.81003(15)
H24 H 0.1017 0.1121 0.7995
C38 C 0.2312(4) 0.4221(2) 0.72464(17)
F13? F 0.3506(12) 0.4500(12) 0.6889(12)
F14? F 0.174(2) 0.5004(7) 0.7700(5)
F15? F 0.125(2) 0.4037(9) 0.6665(7)
loop_
_geom_bond_atom_site_label_1
_geom_bond_atom_site_label_2
_geom_bond_site_symmetry_1
_geom_bond_site_symmetry_2
S1 C1 1_555 1_555
S2 O1 1_555 1_555
F1 C11 1_555 1_555
F2 C11 1_555 1_555
F3 C11 1_555 1_555
F4 C19 1_555 1_555
F5 C19 1_555 1_555
F6 C19 1_555 1_555
C1 C2 1_555 1_555
C2 H1 1_555 1_555
C3 S2 1_555 1_555
C4 S1 1_555 1_555
C5 C1 1_555 1_555
C6 C5 1_555 1_555
H2 C6 1_555 1_555
C7 C6 1_555 1_555
H3 C7 1_555 1_555
C8 C7 1_555 1_555
C9 C8 1_555 1_555
H4 C9 1_555 1_555
C10 C5 1_555 1_555
H5 C10 1_555 1_555
C11 C8 1_555 1_555
C12 S2 1_555 1_555
H6 C12 1_555 1_555
H7 C12 1_555 1_555
H8 C12 1_555 1_555
C13 C4 1_555 1_555
C14 C13 1_555 1_555
H9 C14 1_555 1_555
C15 C14 1_555 1_555
H10 C15 1_555 1_555
C16 C15 1_555 1_555
C17 C16 1_555 1_555
H11 C17 1_555 1_555
C18 C13 1_555 1_555
H12 C18 1_555 1_555
C19 C16 1_555 1_555
S3 C20 1_555 1_555
S4 O2 1_555 1_555
F7 C30 1_555 1_555
F8 C30 1_555 1_555
F9 C30 1_555 1_555
F10 C38 1_555 1_555
F11 C38 1_555 1_555
F12 C38 1_555 1_555
C20 C21 1_555 1_555
C21 H13 1_555 1_555
C22 S4 1_555 1_555
C23 S3 1_555 1_555
C24 C20 1_555 1_555
C25 C24 1_555 1_555
H14 C25 1_555 1_555
C26 C25 1_555 1_555
H15 C26 1_555 1_555
C27 C26 1_555 1_555
C28 C27 1_555 1_555
H16 C28 1_555 1_555
C29 C24 1_555 1_555
H17 C29 1_555 1_555
C30 C27 1_555 1_555
C31 S4 1_555 1_555
H18 C31 1_555 1_555
H19 C31 1_555 1_555
H20 C31 1_555 1_555
C32 C23 1_555 1_555
C33 C32 1_555 1_555
H21 C33 1_555 1_555
C34 C33 1_555 1_555
H22 C34 1_555 1_555
C35 C34 1_555 1_555
C36 C35 1_555 1_555
H23 C36 1_555 1_555
C37 C32 1_555 1_555
H24 C37 1_555 1_555
C38 C35 1_555 1_555
C2 C3 1_555 1_555
C3 C4 1_555 1_555
C9 C10 1_555 1_555
C17 C18 1_555 1_555
C21 C22 1_555 1_555
C22 C23 1_555 1_555
C28 C29 1_555 1_555
C36 C37 1_555 1_555

#END
