
#######################################################################
#
#                 Cambridge Crystallographic Data Centre
#                                CCDC 
#
#######################################################################
#
# If this CIF has been generated from an entry in the Cambridge 
# Structural Database, then it will include bibliographic, chemical, 
# crystal, experimental, refinement or atomic coordinate data resulting 
# from the CCDC's data processing and validation procedures.
#
#######################################################################

data_KEZXUL
_chemical_formula_moiety         'C18 H13 N1 O1 S2'
_chemical_name_systematic        
4-(4-(methylsulfinyl)-5-phenylthiophen-2-yl)benzonitrile
_symmetry_cell_setting           monoclinic
_symmetry_space_group_name_H-M   'P 21/c'
_symmetry_Int_Tables_number      14
_space_group_name_Hall           '-P 2ybc'
loop_
_symmetry_equiv_pos_site_id
_symmetry_equiv_pos_as_xyz
1 x,y,z
2 -x,1/2+y,1/2-z
3 -x,-y,-z
4 x,1/2-y,1/2+z
_cell_length_a                   9.1299(4)
_cell_length_b                   30.1997(10)
_cell_length_c                   5.4771(2)
_cell_angle_alpha                90
_cell_angle_beta                 96.868(2)
_cell_angle_gamma                90
_cell_volume                     1499.31
_exptl_crystal_colour            colorless
_exptl_crystal_description       prism
_cell_formula_units_Z            4
loop_
_atom_site_label
_atom_site_type_symbol
_atom_site_fract_x
_atom_site_fract_y
_atom_site_fract_z
S1 S 0.43645(6) 0.41255(2) 1.03027(10)
S2 S 0.16191(5) 0.29747(2) 1.04078(9)
O1 O 0.08854(16) 0.28987(4) 0.7841(2)
N1 N 0.1559(2) 0.58655(6) -0.0044(4)
C1 C 0.2793(2) 0.41656(6) 0.8196(3)
C2 C 0.1893(2) 0.38119(6) 0.8421(3)
H1 H 0.0992 0.3773 0.7456
C3 C 0.2461(2) 0.35088(6) 1.0270(3)
C4 C 0.3807(2) 0.36274(6) 1.1479(4)
C5 C 0.2566(2) 0.45339(6) 0.6456(4)
C6 C 0.1689(12) 0.4466(4) 0.421(2)
H2 H 0.1254 0.4191 0.3864
C7 C 0.1466(10) 0.4806(3) 0.2513(18)
H3 H 0.0922 0.4757 0.0991
C8 C 0.2079(2) 0.52309(7) 0.3119(4)
C9 C 0.2931(14) 0.5295(4) 0.515(3)
H4 H 0.3396 0.5567 0.5441
C10 C 0.3162(13) 0.4956(4) 0.691(2)
H5 H 0.3722 0.5014 0.8409
C11 C 0.1803(2) 0.55885(7) 0.1376(4)
C12 C 0.0144(2) 0.31204(7) 1.2129(4)
H6 H -0.0385 0.3368 1.1364
H7 H 0.0539 0.3198 1.3777
H8 H -0.0514 0.2873 1.2170
C13 C 0.4751(2) 0.34037(6) 1.3467(3)
C14 C 0.4119(2) 0.31461(6) 1.5186(3)
H9 H 0.3099 0.3120 1.5079
C15 C 0.5000(2) 0.29304(7) 1.7045(4)
H10 H 0.4568 0.2755 1.8158
C16 C 0.6518(2) 0.29730(7) 1.7261(4)
H11 H 0.7106 0.2829 1.8521
C17 C 0.7155(2) 0.32316(7) 1.5586(4)
H12 H 0.8175 0.3264 1.5736
C18 C 0.6285(2) 0.34422(7) 1.3686(4)
H13 H 0.6726 0.3610 1.2552
C19? C 0.1359(16) 0.4537(5) 0.467(3)
H14? H 0.0717 0.4297 0.4533
C20? C 0.1094(14) 0.4888(4) 0.310(2)
H15? H 0.0233 0.4894 0.2009
C21? C 0.3332(18) 0.5238(6) 0.511(3)
H16? H 0.3948 0.5484 0.5317
C22? C 0.3572(16) 0.4886(5) 0.660(3)
H17? H 0.4414 0.4876 0.7734
loop_
_geom_bond_atom_site_label_1
_geom_bond_atom_site_label_2
_geom_bond_site_symmetry_1
_geom_bond_site_symmetry_2
S1 C1 1_555 1_555
S2 O1 1_555 1_555
N1 C11 1_555 1_555
C1 C2 1_555 1_555
C2 H1 1_555 1_555
C3 S2 1_555 1_555
C4 S1 1_555 1_555
C5 C1 1_555 1_555
C6 C5 1_555 1_555
H2 C6 1_555 1_555
C7 C6 1_555 1_555
H3 C7 1_555 1_555
C8 C7 1_555 1_555
C9 C8 1_555 1_555
H4 C9 1_555 1_555
C10 C5 1_555 1_555
H5 C10 1_555 1_555
C11 C8 1_555 1_555
C12 S2 1_555 1_555
H6 C12 1_555 1_555
H7 C12 1_555 1_555
H8 C12 1_555 1_555
C13 C4 1_555 1_555
C14 C13 1_555 1_555
H9 C14 1_555 1_555
C15 C14 1_555 1_555
H10 C15 1_555 1_555
C16 C15 1_555 1_555
H11 C16 1_555 1_555
C17 C16 1_555 1_555
H12 C17 1_555 1_555
C18 C13 1_555 1_555
H13 C18 1_555 1_555
C2 C3 1_555 1_555
C3 C4 1_555 1_555
C9 C10 1_555 1_555
C17 C18 1_555 1_555

#END
