
#######################################################################
#
#                 Cambridge Crystallographic Data Centre
#                                CCDC 
#
#######################################################################
#
# If this CIF has been generated from an entry in the Cambridge 
# Structural Database, then it will include bibliographic, chemical, 
# crystal, experimental, refinement or atomic coordinate data resulting 
# from the CCDC's data processing and validation procedures.
#
#######################################################################

data_KEZZAT
_chemical_formula_moiety         'C23 H28 N2 O4,C1 H2 Cl2'
_chemical_name_systematic        
't-butyl 2,3-bis(acetylamino)-3-(biphenyl-4-yl)propanoate dichloromethane solvate'
_symmetry_cell_setting           orthorhombic
_symmetry_space_group_name_H-M   'P 21 21 21'
_symmetry_Int_Tables_number      19
_space_group_name_Hall           'P 2ac 2ab'
loop_
_symmetry_equiv_pos_site_id
_symmetry_equiv_pos_as_xyz
1 x,y,z
2 1/2-x,-y,1/2+z
3 -x,1/2+y,1/2-z
4 1/2+x,1/2-y,-z
_cell_length_a                   9.4461(2)
_cell_length_b                   11.1526(2)
_cell_length_c                   48.4792(8)
_cell_angle_alpha                90
_cell_angle_beta                 90
_cell_angle_gamma                90
_cell_volume                     5107.21
_exptl_crystal_colour            colorless
_exptl_crystal_description       prismatic
_cell_formula_units_Z            8
loop_
_atom_site_label
_atom_site_type_symbol
_atom_site_fract_x
_atom_site_fract_y
_atom_site_fract_z
H1 H 0.798(6) 0.520(5) 0.4955(10)
N1 N 0.6264(5) 0.3381(4) 0.50317(10)
N2 N 0.6835(5) 0.6672(4) 0.49598(11)
O1 O 0.3960(4) 0.2976(4) 0.49770(11)
O2 O 0.9138(4) 0.7083(4) 0.50187(13)
O3 O 0.7506(6) 0.4575(5) 0.54934(11)
O4 O 0.5533(5) 0.5703(5) 0.54911(9)
C1 C 0.6059(5) 0.4659(5) 0.50872(11)
H2 H 0.5048 0.4881 0.5054
C2 C 0.7030(5) 0.5403(5) 0.48971(12)
C3 C 0.668(4) 0.513(3) 0.4590(7)
C4 C 0.7960(10) 0.5211(12) 0.4413(2)
H3 H 0.8859 0.5379 0.4492
C5 C 0.7829(11) 0.5041(11) 0.4130(2)
H4 H 0.8616 0.5174 0.4012
C6 C 0.656(3) 0.468(3) 0.4023(3)
C7 C 0.5426(11) 0.4559(10) 0.4178(2)
H5 H 0.4533 0.4371 0.4099
C8 C 0.5579(11) 0.4719(10) 0.4469(2)
H6 H 0.4797 0.4504 0.4582
C9 C 0.6406(8) 0.4570(7) 0.37134(13)
C10 C 0.7504(10) 0.4076(10) 0.35649(15)
H7 H 0.8344 0.3842 0.3659
C11 C 0.7413(12) 0.3913(10) 0.32822(16)
H8 H 0.8187 0.3580 0.3183
C12 C 0.6195(10) 0.4236(8) 0.31452(15)
H9 H 0.6119 0.4114 0.2952
C13 C 0.5091(10) 0.4734(7) 0.32885(16)
H10 H 0.4258 0.4979 0.3194
C14 C 0.5200(9) 0.4881(7) 0.35765(15)
H11 H 0.4423 0.5201 0.3677
C15 C 0.5179(5) 0.2637(5) 0.49850(12)
C16 C 0.5555(7) 0.1346(6) 0.49469(18)
H12 H 0.5330 0.0901 0.5116
H13 H 0.6570 0.1276 0.4908
H14 H 0.5013 0.1015 0.4792
C17 C 0.7924(6) 0.7413(5) 0.50018(16)
C18 C 0.7519(7) 0.8728(6) 0.5020(2)
H15 H 0.7986 0.9092 0.5180
H16 H 0.6490 0.8798 0.5041
H17 H 0.7819 0.9142 0.4852
C19 C 0.6467(7) 0.4968(5) 0.53849(13)
C20 C 0.5752(11) 0.6337(10) 0.57573(18)
C21 C 0.604(2) 0.5459(17) 0.5992(3)
H18 H 0.5895 0.5864 0.6170
H19 H 0.7020 0.5174 0.5981
H20 H 0.5392 0.4776 0.5978
C22 C 0.7042(15) 0.7165(13) 0.5726(3)
H21 H 0.6857 0.7756 0.5581
H22 H 0.7874 0.6686 0.5676
H23 H 0.7219 0.7579 0.5901
C23 C 0.4430(17) 0.6873(18) 0.5830(3)
H24 H 0.4198 0.7502 0.5696
H25 H 0.4499 0.7223 0.6014
H26 H 0.3686 0.6260 0.5828
H27 H 0.694(8) 0.319(6) 0.5040(13)
H28 H 0.593(11) 0.719(10) 0.492(2)
Cl1 Cl 0.8115(3) 0.2411(3) 0.18268(6)
Cl2 Cl 0.8994(3) 0.0730(3) 0.14087(5)
C33 C 0.9399(10) 0.1324(8) 0.17342(17)
H42 H 1.0349 0.1698 0.1730
H43 H 0.9411 0.0673 0.1873
Cl3 Cl 0.5048(6) 0.2590(4) 0.57215(12)
Cl4 Cl 0.6691(4) 0.0485(3) 0.57345(8)
C34 C 0.682(3) 0.1941(15) 0.5710(3)
H44 H 0.7374 0.2247 0.5859
H45 H 0.7259 0.2149 0.5537
N3 N 0.7727(5) 0.6456(4) 0.25570(9)
N4 N 0.7293(5) 0.9728(4) 0.24166(9)
O5 O 1.0040(4) 0.6004(3) 0.25800(10)
O6 O 0.4970(4) 1.0127(3) 0.24842(9)
O7 O 0.8702(6) 0.8512(4) 0.19941(11)
O8 O 0.6891(4) 0.7212(4) 0.19905(8)
C35 C 0.7096(5) 0.8453(4) 0.23774(11)
H48 H 0.6065 0.8258 0.2388
C36 C 0.7916(5) 0.7726(4) 0.26026(10)
H49 H 0.8947 0.7905 0.2579
C37 C 0.7502(5) 0.8107(5) 0.28932(11)
C38 C 0.6423(6) 0.7563(6) 0.30334(12)
H50 H 0.5905 0.6937 0.2947
C39 C 0.6075(8) 0.7912(8) 0.32987(13)
H51 H 0.5328 0.7517 0.3393
C40 C 0.6816(8) 0.8845(9) 0.34298(14)
C41 C 0.7865(8) 0.9391(8) 0.32853(16)
H52 H 0.8371 1.0032 0.3369
C42 C 0.8220(7) 0.9041(6) 0.30201(14)
H53 H 0.8958 0.9443 0.2925
C43 C 0.6369(13) 0.8914(14) 0.3732(3)
C44 C 0.6012(13) 0.7993(13) 0.3909(2)
H54 H 0.5985 0.7205 0.3835
C45 C 0.5684(14) 0.8135(14) 0.4190(3)
H55 H 0.5472 0.7478 0.4308
C46 C 0.5697(16) 0.9368(14) 0.4285(3)
H56 H 0.5458 0.9540 0.4472
C47 C 0.6024(17) 1.0227(16) 0.4123(3)
H57 H 0.6026 1.1018 0.4196
C48 C 0.6385(14) 1.0075(14) 0.3841(3)
H58 H 0.6631 1.0743 0.3729
C49 C 0.8814(5) 0.5690(5) 0.25523(11)
C50 C 0.8424(6) 0.4390(5) 0.25101(12)
H59 H 0.8813 0.4109 0.2334
H60 H 0.7391 0.4308 0.2508
H61 H 0.8816 0.3908 0.2661
C51 C 0.6201(6) 1.0458(5) 0.24806(11)
C52 C 0.6594(6) 1.1715(5) 0.25521(15)
H62 H 0.6073 1.2271 0.2433
H63 H 0.7613 1.1827 0.2525
H64 H 0.6353 1.1872 0.2745
C53 C 0.7668(6) 0.8075(5) 0.20952(11)
C54 C 0.7309(8) 0.6526(6) 0.17372(13)
C55 C 0.7143(17) 0.7319(10) 0.14947(15)
H65 H 0.6154 0.7579 0.1480
H66 H 0.7409 0.6882 0.1327
H67 H 0.7755 0.8023 0.1516
C56 C 0.6217(12) 0.5483(10) 0.1747(2)
H68 H 0.6264 0.5088 0.1927
H69 H 0.6436 0.4900 0.1602
H70 H 0.5262 0.5803 0.1718
C57 C 0.8750(10) 0.6032(8) 0.17739(17)
H71 H 0.9444 0.6684 0.1764
H72 H 0.8945 0.5447 0.1628
H73 H 0.8817 0.5638 0.1954
H74 H 0.812(7) 0.999(5) 0.2422(11)
H75 H 0.695(6) 0.622(5) 0.2545(10)
C24? C 0.691(2) 0.5147(19) 0.4595(7)
C25? C 0.756(2) 0.4389(19) 0.4475(3)
H29? H 0.8210 0.3908 0.4575
C26? C 0.739(2) 0.4185(19) 0.4189(3)
H30? H 0.7923 0.3554 0.4107
C27? C 0.649(6) 0.486(3) 0.4017(5)
C28? C 0.5683(18) 0.5786(16) 0.4185(4)
H31? H 0.4997 0.6269 0.4094
C29? C 0.5905(18) 0.5949(17) 0.4457(4)
H32? H 0.5428 0.6563 0.4556
C30? C 0.504(4) 0.547(3) 0.5964(6)
H33? H 0.4033 0.5398 0.5920
H34? H 0.5153 0.5781 0.6151
H35? H 0.5491 0.4680 0.5950
C31? C 0.716(3) 0.621(4) 0.5908(6)
H36? H 0.7740 0.5603 0.5814
H37? H 0.6985 0.5956 0.6099
H38? H 0.7656 0.6979 0.5907
C32? C 0.456(4) 0.735(3) 0.5714(6)
H39? H 0.4765 0.7807 0.5546
H40? H 0.4560 0.7897 0.5873
H41? H 0.3628 0.6972 0.5697
Cl5? Cl 0.887(2) 0.2144(18) 0.5866(4)
H46? H 0.6750 0.2200 0.5521
H47? H 0.6138 0.2338 0.5824
C58? C 0.657(2) 0.960(2) 0.3693(4)
C59? C 0.609(2) 0.887(2) 0.3892(4)
H76? H 0.5931 0.8049 0.3848
C60? C 0.583(3) 0.924(2) 0.4161(5)
H77? H 0.5628 0.8703 0.4307
C61? C 0.588(3) 1.059(2) 0.4200(5)
H78? H 0.5593 1.0937 0.4370
C62? C 0.634(2) 1.1293(19) 0.3993(4)
H79? H 0.6426 1.2131 0.4023
C63? C 0.668(2) 1.0823(18) 0.3734(4)
H80? H 0.6993 1.1333 0.3589
loop_
_geom_bond_atom_site_label_1
_geom_bond_atom_site_label_2
_geom_bond_site_symmetry_1
_geom_bond_site_symmetry_2
H1 C2 1_555 1_555
N1 C1 1_555 1_555
N2 C2 1_555 1_555
O1 C15 1_555 1_555
O2 C17 1_555 1_555
O3 C19 1_555 1_555
O4 C19 1_555 1_555
C1 H2 1_555 1_555
C2 C1 1_555 1_555
C3 C2 1_555 1_555
C4 C3 1_555 1_555
H3 C4 1_555 1_555
C5 C4 1_555 1_555
H4 C5 1_555 1_555
C6 C5 1_555 1_555
C7 C6 1_555 1_555
H5 C7 1_555 1_555
C8 C3 1_555 1_555
H6 C8 1_555 1_555
C9 C6 1_555 1_555
C10 C9 1_555 1_555
H7 C10 1_555 1_555
C11 C10 1_555 1_555
H8 C11 1_555 1_555
C12 C11 1_555 1_555
H9 C12 1_555 1_555
C13 C12 1_555 1_555
H10 C13 1_555 1_555
C14 C9 1_555 1_555
H11 C14 1_555 1_555
C15 N1 1_555 1_555
C16 C15 1_555 1_555
H12 C16 1_555 1_555
H13 C16 1_555 1_555
H14 C16 1_555 1_555
C17 N2 1_555 1_555
C18 C17 1_555 1_555
H15 C18 1_555 1_555
H16 C18 1_555 1_555
H17 C18 1_555 1_555
C19 C1 1_555 1_555
C20 O4 1_555 1_555
C21 C20 1_555 1_555
H18 C21 1_555 1_555
H19 C21 1_555 1_555
H20 C21 1_555 1_555
C22 C20 1_555 1_555
H21 C22 1_555 1_555
H22 C22 1_555 1_555
H23 C22 1_555 1_555
C23 C20 1_555 1_555
H24 C23 1_555 1_555
H25 C23 1_555 1_555
H26 C23 1_555 1_555
H27 N1 1_555 1_555
H28 N2 1_555 1_555
Cl1 C33 1_555 1_555
Cl2 C33 1_555 1_555
C33 H42 1_555 1_555
H43 C33 1_555 1_555
Cl3 C34 1_555 1_555
Cl4 C34 1_555 1_555
C34 H44 1_555 1_555
H45 C34 1_555 1_555
N3 C36 1_555 1_555
N4 C35 1_555 1_555
O5 C49 1_555 1_555
O6 C51 1_555 1_555
O7 C53 1_555 1_555
O8 C53 1_555 1_555
C35 H48 1_555 1_555
C36 C35 1_555 1_555
H49 C36 1_555 1_555
C37 C36 1_555 1_555
C38 C37 1_555 1_555
H50 C38 1_555 1_555
C39 C38 1_555 1_555
H51 C39 1_555 1_555
C40 C39 1_555 1_555
C41 C40 1_555 1_555
H52 C41 1_555 1_555
C42 C37 1_555 1_555
H53 C42 1_555 1_555
C43 C40 1_555 1_555
C44 C43 1_555 1_555
H54 C44 1_555 1_555
C45 C44 1_555 1_555
H55 C45 1_555 1_555
C46 C45 1_555 1_555
H56 C46 1_555 1_555
C47 C46 1_555 1_555
H57 C47 1_555 1_555
C48 C43 1_555 1_555
H58 C48 1_555 1_555
C49 N3 1_555 1_555
C50 C49 1_555 1_555
H59 C50 1_555 1_555
H60 C50 1_555 1_555
H61 C50 1_555 1_555
C51 N4 1_555 1_555
C52 C51 1_555 1_555
H62 C52 1_555 1_555
H63 C52 1_555 1_555
H64 C52 1_555 1_555
C53 C35 1_555 1_555
C54 O8 1_555 1_555
C55 C54 1_555 1_555
H65 C55 1_555 1_555
H66 C55 1_555 1_555
H67 C55 1_555 1_555
C56 C54 1_555 1_555
H68 C56 1_555 1_555
H69 C56 1_555 1_555
H70 C56 1_555 1_555
C57 C54 1_555 1_555
H71 C57 1_555 1_555
H72 C57 1_555 1_555
H73 C57 1_555 1_555
H74 N4 1_555 1_555
H75 N3 1_555 1_555
C7 C8 1_555 1_555
C13 C14 1_555 1_555
C41 C42 1_555 1_555
C47 C48 1_555 1_555

#END
