
#######################################################################
#
#                 Cambridge Crystallographic Data Centre
#                                CCDC 
#
#######################################################################
#
# If this CIF has been generated from an entry in the Cambridge 
# Structural Database, then it will include bibliographic, chemical, 
# crystal, experimental, refinement or atomic coordinate data resulting 
# from the CCDC's data processing and validation procedures.
#
#######################################################################

data_KHOXAL
_chemical_formula_moiety         'C2 H1 O4 1-,K1 1+'
_chemical_name_systematic        'Potassium hydrogen oxalate'
_symmetry_cell_setting           monoclinic
_symmetry_space_group_name_H-M   'P 21/c'
_symmetry_Int_Tables_number      14
_space_group_name_Hall           '-P 2ybc'
loop_
_symmetry_equiv_pos_site_id
_symmetry_equiv_pos_as_xyz
1 x,y,z
2 -x,1/2+y,1/2-z
3 -x,-y,-z
4 x,1/2-y,1/2+z
_cell_length_a                   4.319
_cell_length_b                   12.890
_cell_length_c                   7.660
_cell_angle_alpha                90
_cell_angle_beta                 101.96
_cell_angle_gamma                90
_cell_volume                     417.19
_cell_formula_units_Z            4
loop_
_atom_site_label
_atom_site_type_symbol
_atom_site_fract_x
_atom_site_fract_y
_atom_site_fract_z
C1 C 0.40160 0.32710 0.12680
C2 C 0.67930 0.34750 0.28540
H1 H 0.14000 0.23000 -0.02000
O1 O 0.33780 0.23060 0.08640
O2 O 0.85590 0.26970 0.33340
O3 O 0.25070 0.39900 0.04810
O4 O 0.70600 0.43530 0.34950
K1 K -0.18670 0.06920 0.22710
loop_
_geom_bond_atom_site_label_1
_geom_bond_atom_site_label_2
_geom_bond_site_symmetry_1
_geom_bond_site_symmetry_2
C1 C2 1_555 1_555
C2 O2 1_555 1_555
H1 O1 1_555 1_555
O1 C1 1_555 1_555
O3 C1 1_555 1_555
O4 C2 1_555 1_555

#END
