
#######################################################################
#
#                 Cambridge Crystallographic Data Centre
#                                CCDC 
#
#######################################################################
#
# If this CIF has been generated from an entry in the Cambridge 
# Structural Database, then it will include bibliographic, chemical, 
# crystal, experimental, refinement or atomic coordinate data resulting 
# from the CCDC's data processing and validation procedures.
#
#######################################################################

data_KIBBUS
_chemical_formula_moiety         'C10 H8 F3 N3 O1'
_chemical_name_systematic        1-(p-Methoxyphenyl)-4-trifluoromethyltriazole
_symmetry_cell_setting           orthorhombic
_symmetry_space_group_name_H-M   'P 21 n b'
_symmetry_Int_Tables_number      33
_space_group_name_Hall           'P -2bc 2a'
loop_
_symmetry_equiv_pos_site_id
_symmetry_equiv_pos_as_xyz
1 x,y,z
2 1/2+x,1/2-y,1/2+z
3 x,1/2+y,1/2-z
4 1/2+x,-y,-z
_cell_length_a                   6.9302(4)
_cell_length_b                   11.0054(9)
_cell_length_c                   13.867(2)
_cell_angle_alpha                90
_cell_angle_beta                 90
_cell_angle_gamma                90
_cell_volume                     1057.63
_cell_formula_units_Z            4
loop_
_atom_site_label
_atom_site_type_symbol
_atom_site_fract_x
_atom_site_fract_y
_atom_site_fract_z
F1 F 0.2500 0.4786(3) 0.0779(2)
F2 F 0.1309(9) 0.6427(4) 0.0539(3)
F3 F 0.4282(8) 0.6408(5) 0.0514(3)
O1 O 0.282(2) 0.4700(4) 0.7405(3)
N1 N 0.280(2) 0.6083(3) 0.3553(3)
N2 N 0.275(3) 0.7262(3) 0.3296(3)
N3 N 0.290(2) 0.7310(3) 0.2355(3)
C1 C 0.272(2) 0.5749(4) 0.4555(3)
C2 C 0.271(2) 0.4538(4) 0.4811(3)
C3 C 0.278(2) 0.4233(4) 0.5765(3)
C4 C 0.274(2) 0.5119(5) 0.6482(3)
C5 C 0.282(2) 0.6333(4) 0.6206(4)
C6 C 0.276(2) 0.6646(4) 0.5254(4)
C7 C 0.276(2) 0.5386(4) 0.2766(3)
C8 C 0.271(2) 0.6170(4) 0.2013(3)
C9 C 0.287(2) 0.5920(4) 0.0979(4)
C10 C 0.274(3) 0.5595(6) 0.8156(4)
H1 H 0.327(7) 0.389(4) 0.435(3)
H2 H 0.29(2) 0.345(4) 0.601(4)
H3 H 0.315(8) 0.697(4) 0.679(3)
H4 H 0.25(2) 0.759(4) 0.503(4)
H5 H 0.22(1) 0.454(5) 0.279(4)
H6 H 0.28(2) 0.521(5) 0.864(4)
H7 H 0.377(7) 0.619(4) 0.817(4)
H8 H 0.15(2) 0.603(7) 0.808(8)
loop_
_geom_bond_atom_site_label_1
_geom_bond_atom_site_label_2
_geom_bond_site_symmetry_1
_geom_bond_site_symmetry_2
F1 C9 1_555 1_555
F2 C9 1_555 1_555
F3 C9 1_555 1_555
O1 C4 1_555 1_555
N1 N2 1_555 1_555
N2 N3 1_555 1_555
N3 C8 1_555 1_555
C1 N1 1_555 1_555
C2 C1 1_555 1_555
C3 C2 1_555 1_555
C4 C3 1_555 1_555
C5 C4 1_555 1_555
C6 C1 1_555 1_555
C7 N1 1_555 1_555
C8 C7 1_555 1_555
C9 C8 1_555 1_555
C10 O1 1_555 1_555
H1 C2 1_555 1_555
H2 C3 1_555 1_555
H3 C5 1_555 1_555
H4 C6 1_555 1_555
H5 C7 1_555 1_555
H6 C10 1_555 1_555
H7 C10 1_555 1_555
H8 C10 1_555 1_555
C5 C6 1_555 1_555

#END
