
#######################################################################
#
#                 Cambridge Crystallographic Data Centre
#                                CCDC 
#
#######################################################################
#
# If this CIF has been generated from an entry in the Cambridge 
# Structural Database, then it will include bibliographic, chemical, 
# crystal, experimental, refinement or atomic coordinate data resulting 
# from the CCDC's data processing and validation procedures.
#
#######################################################################

data_KIBFIN
_chemical_formula_moiety         
'C6 N12 O4 2-,0.5(C1 H4 O1),2(H4 N1 1+),0.5(H2 O1)'
_chemical_name_systematic        
"diammonium 5,5'-(3,3'-bi(1,2,4-oxadiazole)-5,5'-diyl)bis(1H-tetrazol-1-olate) methanol solvate hemihydrate"
_symmetry_cell_setting           monoclinic
_symmetry_space_group_name_H-M   'P 21/n'
_symmetry_Int_Tables_number      14
_space_group_name_Hall           '-P 2yn'
loop_
_symmetry_equiv_pos_site_id
_symmetry_equiv_pos_as_xyz
1 x,y,z
2 1/2-x,1/2+y,1/2-z
3 -x,-y,-z
4 1/2+x,1/2-y,1/2+z
_cell_length_a                   7.9497(4)
_cell_length_b                   13.8164(8)
_cell_length_c                   13.1206(7)
_cell_angle_alpha                90
_cell_angle_beta                 91.739(2)
_cell_angle_gamma                90
_cell_volume                     1440.45
_exptl_crystal_colour            colorless
_exptl_crystal_description       plate
_cell_formula_units_Z            4
loop_
_atom_site_label
_atom_site_type_symbol
_atom_site_fract_x
_atom_site_fract_y
_atom_site_fract_z
N1 N 1.1730(3) 0.90712(16) 0.97688(18)
N2 N 1.3211(3) 0.94907(17) 1.0040(2)
N3 N 1.3139(3) 0.96944(18) 1.1014(2)
N4 N 1.1660(3) 0.94233(18) 1.13844(19)
C1 C 1.0793(3) 0.90355(18) 1.0601(2)
C2 C 0.9110(3) 0.86441(18) 1.06159(19)
O1 O 0.8312(2) 0.86938(14) 1.15022(13)
N5 N 0.6730(3) 0.82620(17) 1.13097(16)
C3 C 0.6781(3) 0.80265(18) 1.03525(18)
N6 N 0.8242(3) 0.82471(15) 0.98783(15)
C4 C 0.5356(3) 0.75483(18) 0.98335(18)
N7 N 0.5367(3) 0.73446(17) 0.88619(16)
O2 O 0.3790(2) 0.69035(14) 0.86847(13)
C5 C 0.3039(3) 0.69040(17) 0.95911(18)
N8 N 0.3931(3) 0.72924(15) 1.03259(15)
C6 C 0.1375(3) 0.64927(18) 0.96134(19)
N9 N 0.0392(3) 0.64857(15) 1.04292(16)
N10 N -0.1071(3) 0.60487(16) 1.01407(18)
N11 N -0.0933(3) 0.58012(17) 0.91817(19)
N12 N 0.0555(3) 0.60647(17) 0.88275(18)
O3 O 1.1431(3) 0.87530(17) 0.88679(16)
O4 O 0.0645(2) 0.68415(14) 1.13336(14)
N13 N -0.0942(3) 0.55344(18) 1.26671(18)
H1 H -0.056(4) 0.5973(18) 1.2221(19)
H2 H -0.133(4) 0.5062(17) 1.225(2)
H3 H -0.186(2) 0.571(2) 1.300(2)
H4 H -0.022(3) 0.531(2) 1.3157(18)
N14 N 0.3763(3) 0.7171(2) 1.25977(18)
H5 H 0.390(4) 0.702(3) 1.3262(7)
H6 H 0.284(3) 0.716(3) 1.219(2)
H7 H 0.408(5) 0.6667(17) 1.221(2)
H8 H 0.446(4) 0.7663(17) 1.245(3)
O5 O 1.1381(5) 1.0305(3) 1.3260(3)
H9 H 1.1728 0.9869 1.2874
C7 C 0.9703(6) 1.0394(3) 1.3133(3)
H10 H 0.9241 0.9802 1.2823
H11 H 0.9447 1.0947 1.2686
H12 H 0.9199 1.0499 1.3796
O6 O 0.9373(5) 1.0103(3) 1.4892(3)
H13? H 0.848(5) 1.040(5) 1.485(6)
H14? H 0.992(9) 1.015(6) 1.437(3)
loop_
_geom_bond_atom_site_label_1
_geom_bond_atom_site_label_2
_geom_bond_site_symmetry_1
_geom_bond_site_symmetry_2
N1 N2 1_555 1_555
N2 N3 1_555 1_555
N3 N4 1_555 1_555
N4 C1 1_555 1_555
C1 N1 1_555 1_555
C2 C1 1_555 1_555
O1 C2 1_555 1_555
N5 O1 1_555 1_555
C3 N5 1_555 1_555
N6 C2 1_555 1_555
C4 C3 1_555 1_555
N7 C4 1_555 1_555
O2 N7 1_555 1_555
C5 O2 1_555 1_555
N8 C4 1_555 1_555
C6 C5 1_555 1_555
N9 C6 1_555 1_555
N10 N9 1_555 1_555
N11 N10 1_555 1_555
N12 C6 1_555 1_555
O3 N1 1_555 1_555
O4 N9 1_555 1_555
N13 H1 1_555 1_555
H2 N13 1_555 1_555
H3 N13 1_555 1_555
H4 N13 1_555 1_555
N14 H5 1_555 1_555
H6 N14 1_555 1_555
H7 N14 1_555 1_555
H8 N14 1_555 1_555
O5 H9 1_555 1_555
C7 O5 1_555 1_555
H10 C7 1_555 1_555
H11 C7 1_555 1_555
H12 C7 1_555 1_555
C3 N6 1_555 1_555
C5 N8 1_555 1_555
N11 N12 1_555 1_555

#END
