
#######################################################################
#
#                 Cambridge Crystallographic Data Centre
#                                CCDC 
#
#######################################################################
#
# If this CIF has been generated from an entry in the Cambridge 
# Structural Database, then it will include bibliographic, chemical, 
# crystal, experimental, refinement or atomic coordinate data resulting 
# from the CCDC's data processing and validation procedures.
#
#######################################################################

data_KIBFEJ
_chemical_formula_moiety         'C4 N10 O3 2-,2(H4 N1 1+),0.5(H2 O1)'
_chemical_name_systematic        
"bis(ammonium) 5,5'-(1,2,4-oxadiazole-3,5-diyl)bis(1H-tetrazol-1-olate) hemihydrate"
_symmetry_cell_setting           monoclinic
_symmetry_space_group_name_H-M   'C 2/c'
_symmetry_Int_Tables_number      15
_space_group_name_Hall           '-C 2yn'
loop_
_symmetry_equiv_pos_site_id
_symmetry_equiv_pos_as_xyz
1 x,y,z
2 -x,y,1/2-z
3 1/2+x,1/2+y,z
4 1/2-x,1/2+y,1/2-z
5 -x,-y,-z
6 x,-y,1/2+z
7 1/2-x,1/2-y,-z
8 1/2+x,1/2-y,1/2+z
_cell_length_a                   26.351(6)
_cell_length_b                   4.8785(10)
_cell_length_c                   17.057(4)
_cell_angle_alpha                90
_cell_angle_beta                 92.401(14)
_cell_angle_gamma                90
_cell_volume                     2190.81
_exptl_crystal_colour            colorless
_exptl_crystal_description       rod
_cell_formula_units_Z            8
loop_
_atom_site_label
_atom_site_type_symbol
_atom_site_fract_x
_atom_site_fract_y
_atom_site_fract_z
N1 N 0.07449(8) -0.0669(4) 0.49944(12)
N2 N 0.03770(8) -0.2552(4) 0.48979(13)
N3 N 0.01659(8) -0.2122(4) 0.41951(13)
N4 N 0.03918(8) -0.0040(4) 0.38351(13)
C1 C 0.07551(9) 0.0852(5) 0.43369(15)
C2 C 0.11047(9) 0.3047(5) 0.41911(15)
O1 O 0.14481(7) 0.3744(4) 0.47500(11)
N5 N 0.17338(7) 0.5861(4) 0.44134(12)
C3 C 0.15237(9) 0.6161(5) 0.37025(15)
N6 N 0.11279(8) 0.4464(4) 0.35306(12)
C4 C 0.17026(9) 0.8247(5) 0.31764(15)
N7 N 0.20810(8) 1.0011(4) 0.33483(12)
N8 N 0.21184(8) 1.1752(4) 0.27445(13)
N9 N 0.17615(9) 1.1020(4) 0.22170(13)
N10 N 0.14988(8) 0.8847(4) 0.24701(12)
O2 O 0.10249(6) -0.0504(3) 0.56449(10)
O3 O 0.23846(7) 1.0162(3) 0.39787(10)
N11 N 0.07525(10) 1.5180(5) 0.15966(15)
H1 H 0.0907(11) 1.383(6) 0.1283(19)
H2 H 0.0527(12) 1.607(6) 0.1278(19)
H3 H 0.0566(11) 1.434(6) 0.199(2)
H4 H 0.0992(12) 1.624(6) 0.1853(19)
N12 N 0.21006(9) 1.0138(5) 0.06204(14)
H5 H 0.1744(12) 1.021(5) 0.0642(17)
H6 H 0.2252(11) 1.156(6) 0.0852(18)
H7 H 0.2153(11) 1.016(5) 0.0129(19)
H8 H 0.2245(10) 0.864(6) 0.0889(18)
O4 O 0.0000 0.2721(6) 0.2500
H9 H 0.0131(11) 0.145(6) 0.2913(18)
H9A H -0.0131(11) 0.145(6) 0.2087(18)
loop_
_geom_bond_atom_site_label_1
_geom_bond_atom_site_label_2
_geom_bond_site_symmetry_1
_geom_bond_site_symmetry_2
N1 N2 1_555 1_555
N2 N3 1_555 1_555
N3 N4 1_555 1_555
N4 C1 1_555 1_555
C1 N1 1_555 1_555
C2 C1 1_555 1_555
O1 C2 1_555 1_555
N5 O1 1_555 1_555
C3 N5 1_555 1_555
N6 C2 1_555 1_555
C4 C3 1_555 1_555
N7 C4 1_555 1_555
N8 N7 1_555 1_555
N9 N8 1_555 1_555
N10 C4 1_555 1_555
O2 N1 1_555 1_555
O3 N7 1_555 1_555
N11 H1 1_555 1_555
H2 N11 1_555 1_555
H3 N11 1_555 1_555
H4 N11 1_555 1_555
N12 H5 1_555 1_555
H6 N12 1_555 1_555
H7 N12 1_555 1_555
H8 N12 1_555 1_555
O4 H9 1_555 1_555
H9A O4 1_555 1_555
C3 N6 1_555 1_555
N9 N10 1_555 1_555

#END
