
#######################################################################
#
#                 Cambridge Crystallographic Data Centre
#                                CCDC 
#
#######################################################################
#
# If this CIF has been generated from an entry in the Cambridge 
# Structural Database, then it will include bibliographic, chemical, 
# crystal, experimental, refinement or atomic coordinate data resulting 
# from the CCDC's data processing and validation procedures.
#
#######################################################################

data_KIBLIT
_chemical_formula_moiety         'C14 H7 N3 S4'
_chemical_name_systematic        
2-(2H,5H-[1,3]dithiolo[4,5-c]pyrrol-2-ylidene)-2H-[1,3]dithiolo[4,5-g]quinoxaline
_symmetry_cell_setting           monoclinic
_symmetry_space_group_name_H-M   'P 21/n'
_symmetry_Int_Tables_number      14
_space_group_name_Hall           '-P 2yn'
loop_
_symmetry_equiv_pos_site_id
_symmetry_equiv_pos_as_xyz
1 x,y,z
2 1/2-x,1/2+y,1/2-z
3 -x,-y,-z
4 1/2+x,1/2-y,1/2+z
_cell_length_a                   7.2126(3)
_cell_length_b                   17.1917(7)
_cell_length_c                   10.7279(5)
_cell_angle_alpha                90
_cell_angle_beta                 94.846(3)
_cell_angle_gamma                90
_cell_volume                     1325.47
_exptl_crystal_colour            red
_exptl_crystal_description       block
_cell_formula_units_Z            4
loop_
_atom_site_label
_atom_site_type_symbol
_atom_site_fract_x
_atom_site_fract_y
_atom_site_fract_z
C1 C 0.1652(4) 0.04698(18) 0.3811(3)
C2 C 0.1342(4) -0.03091(18) 0.3624(3)
H1 H 0.2322 -0.0669 0.3822
C3 C -0.0408(4) -0.05802(17) 0.3144(3)
C4 C -0.2375(5) -0.15675(19) 0.2540(3)
H2 H -0.2658 -0.2105 0.2453
C5 C -0.3772(4) -0.10312(19) 0.2168(3)
H3 H -0.4937 -0.1221 0.1816
C6 C -0.1841(4) -0.00316(18) 0.2810(3)
C7 C -0.1534(5) 0.07707(18) 0.3018(3)
H4 H -0.2506 0.1135 0.2821
C8 C 0.0203(4) 0.10211(18) 0.3513(3)
C9 C 0.3074(4) 0.18347(18) 0.4358(3)
C10 C 0.4267(4) 0.23924(18) 0.4768(3)
C11 C 0.5971(4) 0.36749(18) 0.5399(3)
C12 C 0.6831(4) 0.43801(18) 0.5696(3)
H5 H 0.6271 0.4881 0.5647
C13 C 0.8959(4) 0.34248(18) 0.6052(3)
H6 H 1.0094 0.3164 0.6293
C14 C 0.7302(4) 0.30869(17) 0.5613(3)
N1 N -0.0676(4) -0.13699(15) 0.3008(2)
N2 N -0.3543(4) -0.02775(16) 0.2285(2)
N3 N 0.8653(4) 0.42115(16) 0.6075(2)
H7 H 0.9508 0.4561 0.6302
S1 S 0.37821(10) 0.08559(5) 0.44002(8)
S2 S 0.07494(11) 0.19959(5) 0.38220(8)
S3 S 0.36891(10) 0.33869(5) 0.48822(9)
S4 S 0.65788(12) 0.21360(5) 0.53075(9)
loop_
_geom_bond_atom_site_label_1
_geom_bond_atom_site_label_2
_geom_bond_site_symmetry_1
_geom_bond_site_symmetry_2
C1 C2 1_555 1_555
C2 H1 1_555 1_555
C3 C2 1_555 1_555
C4 H2 1_555 1_555
C5 C4 1_555 1_555
H3 C5 1_555 1_555
C6 C3 1_555 1_555
C7 C6 1_555 1_555
H4 C7 1_555 1_555
C8 C1 1_555 1_555
C9 C10 1_555 1_555
C10 S3 1_555 1_555
C11 C12 1_555 1_555
C12 H5 1_555 1_555
C13 H6 1_555 1_555
C14 C11 1_555 1_555
N1 C3 1_555 1_555
N2 C5 1_555 1_555
N3 C12 1_555 1_555
H7 N3 1_555 1_555
S1 C1 1_555 1_555
S2 C8 1_555 1_555
S3 C11 1_555 1_555
S4 C10 1_555 1_555
C4 N1 1_555 1_555
C6 N2 1_555 1_555
C7 C8 1_555 1_555
C9 S1 1_555 1_555
C9 S2 1_555 1_555
C13 C14 1_555 1_555
C13 N3 1_555 1_555
C14 S4 1_555 1_555

#END
