
#######################################################################
#
#                 Cambridge Crystallographic Data Centre
#                                CCDC 
#
#######################################################################
#
# If this CIF has been generated from an entry in the Cambridge 
# Structural Database, then it will include bibliographic, chemical, 
# crystal, experimental, refinement or atomic coordinate data resulting 
# from the CCDC's data processing and validation procedures.
#
#######################################################################

data_KIBLUF
_chemical_formula_moiety         
'C33 H26 N3 O2 S7 1+,C1 H4 O3 S1,C1 H3 O3 S1 1-,C1 H1 Cl3'
_chemical_name_systematic        
'2-(5H-[1,3]dithiolo[4,5-c]pyrrol-2-ylidene)-6,7-bis(2,5-dimethylthiophen-3-yl)-[1,3]dithiolo[4,5-g]quinoxalinium methanesulfonate methanesulfonic acid chloroform solvate'
_symmetry_cell_setting           triclinic
_symmetry_space_group_name_H-M   'P -1'
_symmetry_Int_Tables_number      2
_space_group_name_Hall           '-P 1'
loop_
_symmetry_equiv_pos_site_id
_symmetry_equiv_pos_as_xyz
1 x,y,z
2 -x,-y,-z
_cell_length_a                   10.8535(3)
_cell_length_b                   12.4996(4)
_cell_length_c                   18.2429(5)
_cell_angle_alpha                109.3710(12)
_cell_angle_beta                 93.9288(12)
_cell_angle_gamma                103.0890(13)
_cell_volume                     2246.2
_exptl_crystal_colour            green
_exptl_crystal_description       Plate
_cell_formula_units_Z            2
loop_
_atom_site_label
_atom_site_type_symbol
_atom_site_fract_x
_atom_site_fract_y
_atom_site_fract_z
C1 C -0.1328(3) -0.1187(3) 1.17967(19)
H1 H -0.220913 -0.152886 1.174922
C2 C -0.0776(3) -0.0382(3) 1.14860(18)
C3 C 0.0584(3) -0.0086(3) 1.17109(18)
C4 C 0.0846(3) -0.0702(3) 1.2161(2)
H2 H 0.165786 -0.066373 1.240043
C5 C 0.0189(3) 0.1148(3) 1.08865(18)
C6 C 0.0359(3) 0.1981(3) 1.05613(19)
C7 C 0.1408(3) 0.3444(3) 0.99117(18)
C8 C 0.0052(3) 0.3194(3) 0.96863(18)
C9 C -0.0427(3) 0.3629(3) 0.91631(19)
H3 H -0.131569 0.347164 0.901980
C10 C 0.0430(3) 0.4317(3) 0.88424(18)
C11 C 0.1762(3) 0.4572(3) 0.90924(18)
C12 C 0.2264(3) 0.4144(3) 0.96338(18)
H4 H 0.315053 0.432922 0.979894
C13 C 0.0776(3) 0.5271(3) 0.79561(18)
C14 C 0.2126(3) 0.5660(3) 0.82423(18)
C15 C 0.3045(3) 0.6492(3) 0.80110(18)
C16 C 0.4246(3) 0.6400(3) 0.7867(2)
C17 C 0.4872(4) 0.5440(4) 0.7840(3)
H5 H 0.542132 0.565476 0.833717
H6 H 0.538177 0.532731 0.741782
H7 H 0.422037 0.471620 0.774820
C18 C 0.3708(4) 0.8161(4) 0.7693(2)
C19 C 0.3725(6) 0.9260(5) 0.7516(4)
H8 H 0.371256 0.909039 0.695582
H9 H 0.449507 0.986902 0.780395
H10 H 0.297842 0.952691 0.767265
C20 C 0.2749(4) 0.7499(3) 0.7901(2)
H11 H 0.195815 0.767529 0.797003
C21 C 0.0230(3) 0.5564(3) 0.73049(18)
C22 C -0.0840(3) 0.6066(3) 0.7367(2)
H12 H -0.125492 0.621907 0.781210
C23 C -0.1195(4) 0.6297(4) 0.6720(2)
C24 C -0.2236(6) 0.6837(6) 0.6567(3)
H13 H -0.264733 0.705605 0.703043
H14 H -0.286418 0.627434 0.612528
H15 H -0.187283 0.753212 0.644714
C25 C 0.0656(3) 0.5398(3) 0.65954(19)
C26 C 0.1708(4) 0.4872(4) 0.6284(2)
H16 H 0.247020 0.549565 0.634767
H17 H 0.144281 0.439452 0.573106
H18 H 0.189194 0.438516 0.657305
C27 C -0.0860(3) -0.0666(3) 1.3679(2)
C28 C -0.2109(4) -0.0669(4) 1.3799(2)
H19 H -0.278675 -0.133595 1.352271
C29 C -0.2346(4) 0.0312(4) 1.4327(2)
H20 H -0.318935 0.029837 1.442018
C30 C -0.1367(4) 0.1325(4) 1.4725(2)
C31 C -0.0127(4) 0.1304(4) 1.4604(2)
H21 H 0.054685 0.197472 1.488082
C32 C 0.0155(4) 0.0324(4) 1.4088(2)
H22 H 0.100380 0.032448 1.401577
C33 C -0.1656(5) 0.2419(5) 1.5255(3)
H23 H -0.092215 0.287630 1.566112
H24 H -0.239394 0.220215 1.549766
H25 H -0.183678 0.288380 1.494894
N1 N -0.0330(3) -0.1407(3) 1.22007(17)
N2 N 0.2547(3) 0.5284(2) 0.87947(16)
H26 H 0.336386 0.550623 0.897225
N3 N -0.0036(3) 0.4677(2) 0.82828(16)
S1 S 0.15143(8) 0.08658(8) 1.13306(5)
S2 S -0.13402(8) 0.02749(8) 1.08787(5)
S3 S -0.09110(8) 0.23193(8) 1.01118(5)
S4 S 0.19001(8) 0.28054(8) 1.05559(5)
S5 S -0.02338(10) 0.58861(9) 0.60220(5)
S6 S 0.50012(10) 0.75618(10) 0.76097(7)
S7 S -0.05558(9) -0.18629(8) 1.29635(5)
O1 O 0.0640(3) -0.2034(3) 1.31984(18)
O2 O -0.1693(3) -0.2824(2) 1.27026(17)
S8 S 0.40859(9) 0.79840(9) 0.28395(5)
C34 C 0.2982(5) 0.6638(5) 0.2557(4)
H27 H 0.215092 0.675042 0.267061
H28 H 0.324547 0.617785 0.284501
H29 H 0.292891 0.622571 0.199766
O3 O 0.5271(3) 0.7701(3) 0.24861(19)
H30 H 0.507297 0.735564 0.200302
O4 O 0.3603(3) 0.8710(3) 0.2511(2)
O5 O 0.4458(4) 0.8412(3) 0.36693(18)
S9 S 0.46386(8) 0.72903(9) 0.04132(5)
C35 C 0.4841(7) 0.8566(5) 0.0164(4)
H31 H 0.422627 0.840601 -0.029561
H32 H 0.570241 0.878702 0.005085
H33 H 0.470521 0.920371 0.060152
O6 O 0.4880(3) 0.6388(3) -0.02711(16)
O7 O 0.5612(3) 0.7591(3) 0.10982(18)
O8 O 0.3349(3) 0.6983(3) 0.0564(2)
C36 C 0.5222(6) 0.7423(5) 0.4958(3)
H34 H 0.465236 0.758596 0.458440
Cl1 Cl 0.6441(2) 0.6914(2) 0.44883(11)
Cl2 Cl 0.4326(2) 0.6369(2) 0.52869(14)
Cl3 Cl 0.5889(2) 0.87149(18) 0.57679(12)
loop_
_geom_bond_atom_site_label_1
_geom_bond_atom_site_label_2
_geom_bond_site_symmetry_1
_geom_bond_site_symmetry_2
C1 H1 1_555 1_555
C2 C1 1_555 1_555
C3 C2 1_555 1_555
C4 C3 1_555 1_555
H2 C4 1_555 1_555
C5 C6 1_555 1_555
C6 S3 1_555 1_555
C7 C8 1_555 1_555
C8 C9 1_555 1_555
C9 H3 1_555 1_555
C10 C9 1_555 1_555
C11 C10 1_555 1_555
C12 C7 1_555 1_555
H4 C12 1_555 1_555
C13 C14 1_555 1_555
C14 C15 1_555 1_555
C15 C16 1_555 1_555
C16 C17 1_555 1_555
C17 H5 1_555 1_555
H6 C17 1_555 1_555
H7 C17 1_555 1_555
C18 C19 1_555 1_555
C19 H8 1_555 1_555
H9 C19 1_555 1_555
H10 C19 1_555 1_555
C20 C15 1_555 1_555
H11 C20 1_555 1_555
C21 C13 1_555 1_555
C22 C21 1_555 1_555
H12 C22 1_555 1_555
C23 C22 1_555 1_555
C24 C23 1_555 1_555
H13 C24 1_555 1_555
H14 C24 1_555 1_555
H15 C24 1_555 1_555
C25 C21 1_555 1_555
C26 C25 1_555 1_555
H16 C26 1_555 1_555
H17 C26 1_555 1_555
H18 C26 1_555 1_555
C27 C28 1_555 1_555
C28 H19 1_555 1_555
C29 C28 1_555 1_555
H20 C29 1_555 1_555
C30 C29 1_555 1_555
C31 C30 1_555 1_555
H21 C31 1_555 1_555
C32 C27 1_555 1_555
H22 C32 1_555 1_555
C33 C30 1_555 1_555
H23 C33 1_555 1_555
H24 C33 1_555 1_555
H25 C33 1_555 1_555
N1 C1 1_555 1_555
N2 C11 1_555 1_555
H26 N2 1_555 1_555
N3 C10 1_555 1_555
S1 C3 1_555 1_555
S2 C2 1_555 1_555
S3 C8 1_555 1_555
S4 C6 1_555 1_555
S5 C23 1_555 1_555
S6 C16 1_555 1_555
S7 C27 1_555 1_555
O1 S7 1_555 1_555
O2 S7 1_555 1_555
S8 C34 1_555 1_555
C34 H27 1_555 1_555
H28 C34 1_555 1_555
H29 C34 1_555 1_555
O3 S8 1_555 1_555
H30 O3 1_555 1_555
O4 S8 1_555 1_555
O5 S8 1_555 1_555
S9 C35 1_555 1_555
C35 H31 1_555 1_555
H32 C35 1_555 1_555
H33 C35 1_555 1_555
O6 S9 1_555 1_555
O7 S9 1_555 1_555
O8 S9 1_555 1_555
C36 H34 1_555 1_555
Cl1 C36 1_555 1_555
Cl2 C36 1_555 1_555
Cl3 C36 1_555 1_555
C4 N1 1_555 1_555
C5 S1 1_555 1_555
C5 S2 1_555 1_555
C7 S4 1_555 1_555
C11 C12 1_555 1_555
C13 N3 1_555 1_555
C14 N2 1_555 1_555
C18 C20 1_555 1_555
C18 S6 1_555 1_555
C25 S5 1_555 1_555
C31 C32 1_555 1_555
N1 S7 1_555 1_555

#END
