
#######################################################################
#
#                 Cambridge Crystallographic Data Centre
#                                CCDC 
#
#######################################################################
#
# If this CIF has been generated from an entry in the Cambridge 
# Structural Database, then it will include bibliographic, chemical, 
# crystal, experimental, refinement or atomic coordinate data resulting 
# from the CCDC's data processing and validation procedures.
#
#######################################################################

data_KIBRES
_chemical_formula_moiety         'C7 H3 I1 N1 O5 1-,Na1 1+,4(H2 O1)'
_chemical_name_systematic        
'Sodium 6-nitro-1-oxy-1,2-benziodoxol-3-one tetrahydrate'
_symmetry_cell_setting           triclinic
_symmetry_space_group_name_H-M   'P -1'
_symmetry_Int_Tables_number      2
_space_group_name_Hall           '-P 1'
loop_
_symmetry_equiv_pos_site_id
_symmetry_equiv_pos_as_xyz
1 x,y,z
2 -x,-y,-z
_cell_length_a                   6.582(2)
_cell_length_b                   8.818(3)
_cell_length_c                   12.817(6)
_cell_angle_alpha                72.99(3)
_cell_angle_beta                 89.40(3)
_cell_angle_gamma                69.32(3)
_cell_volume                     661.929
_cell_formula_units_Z            2
loop_
_atom_site_label
_atom_site_type_symbol
_atom_site_fract_x
_atom_site_fract_y
_atom_site_fract_z
I1 I 0.0835(1) 0.3893(1) 0.3714(1)
C1 C 0.2343(17) 0.0433(14) 0.3408(9)
C2 C 0.3154(18) -0.1333(14) 0.3782(9)
C3 C 0.3538(19) -0.2301(15) 0.4871(9)
C4 C 0.3078(18) -0.1426(15) 0.5637(10)
C5 C 0.2344(17) 0.0310(14) 0.5332(9)
C6 C 0.1961(17) 0.1248(14) 0.4202(9)
C7 C 0.1855(18) 0.1318(16) 0.6136(9)
O1 O 0.2292(14) 0.0528(10) 0.7140(7)
O2 O 0.1027(14) 0.2912(10) 0.5717(7)
O3 O 0.1051(13) 0.4129(10) 0.2207(6)
O4 O 0.4389(19) -0.3793(11) 0.3237(8)
O5 O 0.3363(17) -0.1375(12) 0.1977(8)
N1 N 0.3667(17) -0.2237(14) 0.2929(9)
H1 H 0.2063 0.1056 0.2640
H2 H 0.4098 -0.3523 0.5089
H3 H 0.3281 -0.2059 0.6402
Na1 Na 0.4659(8) -0.2125(6) 0.0311(4)
O6 O 0.7392(14) -0.0888(11) 0.0707(7)
H4 H 0.8765 -0.1000 0.1036
H5 H 0.7655 -0.1554 0.0212
O7 O 0.7231(13) -0.5006(11) 0.1008(7)
H6 H 0.6678 -0.5752 0.0789
H7 H 0.7438 -0.5338 0.1794
O8 O 0.4914(14) -0.2600(11) -0.1477(7)
H8 H 0.5850 -0.3755 -0.1392
H9 H 0.5509 -0.1835 -0.1955
O9 O 0.1624(14) -0.3176(11) 0.0522(7)
H10 H 0.0733 -0.2770 0.1054
H11 H 0.2202 -0.4399 0.0765
loop_
_geom_bond_atom_site_label_1
_geom_bond_atom_site_label_2
_geom_bond_site_symmetry_1
_geom_bond_site_symmetry_2
I1 C6 1_555 1_555
C1 C2 1_555 1_555
C2 C3 1_555 1_555
C3 C4 1_555 1_555
C4 C5 1_555 1_555
C5 C6 1_555 1_555
C6 C1 1_555 1_555
C7 C5 1_555 1_555
O1 C7 1_555 1_555
O2 I1 1_555 1_555
O3 I1 1_555 1_555
O4 N1 1_555 1_555
O5 N1 1_555 1_555
N1 C2 1_555 1_555
O6 H4 1_555 1_555
O7 H6 1_555 1_555
O8 H8 1_555 1_555
O9 H10 1_555 1_555
H1 C1 1_555 1_555
H2 C3 1_555 1_555
H3 C4 1_555 1_555
H5 O6 1_555 1_555
H7 O7 1_555 1_555
H9 O8 1_555 1_555
H11 O9 1_555 1_555
C7 O2 1_555 1_555

#END
