
#######################################################################
#
#                 Cambridge Crystallographic Data Centre
#                                CCDC 
#
#######################################################################
#
# If this CIF has been generated from an entry in the Cambridge 
# Structural Database, then it will include bibliographic, chemical, 
# crystal, experimental, refinement or atomic coordinate data resulting 
# from the CCDC's data processing and validation procedures.
#
#######################################################################

data_KIBSAS
_chemical_formula_moiety         'C4 H2 N6 O4'
_chemical_name_systematic        
3-(4-nitro-1,2,5-oxadiazol-3-yl)-1,2,4-oxadiazol-5-amine
_symmetry_cell_setting           monoclinic
_symmetry_space_group_name_H-M   'P 21/c'
_symmetry_Int_Tables_number      14
_space_group_name_Hall           '-P 2ybc'
loop_
_symmetry_equiv_pos_site_id
_symmetry_equiv_pos_as_xyz
1 x,y,z
2 -x,1/2+y,1/2-z
3 -x,-y,-z
4 x,1/2-y,1/2+z
_cell_length_a                   6.5385(17)
_cell_length_b                   15.370(4)
_cell_length_c                   7.3726(19)
_cell_angle_alpha                90
_cell_angle_beta                 92.769(3)
_cell_angle_gamma                90
_cell_volume                     740.057
_exptl_crystal_colour            colorless
_exptl_crystal_description       'thin plate'
_cell_formula_units_Z            4
loop_
_atom_site_label
_atom_site_type_symbol
_atom_site_fract_x
_atom_site_fract_y
_atom_site_fract_z
N1 N 0.7166(2) 0.82929(9) 0.60216(17)
O1 O 0.84945(17) 0.83517(8) 0.75435(15)
N2 N 0.75112(19) 0.86450(8) 0.90098(17)
C1 C 0.5633(2) 0.87579(8) 0.84187(18)
C2 C 0.5376(2) 0.85422(8) 0.65485(18)
C3 C 0.3612(2) 0.85456(8) 0.52363(17)
N3 N 0.34051(19) 0.79003(8) 0.41006(16)
O2 O 0.16535(16) 0.81532(6) 0.30027(13)
C4 C 0.1069(2) 0.89297(9) 0.36359(17)
N4 N 0.22171(18) 0.92054(7) 0.50458(15)
N5 N 0.41364(18) 0.90401(7) 0.96867(15)
O3 O 0.47806(17) 0.92141(7) 1.12352(13)
O4 O 0.23643(15) 0.90855(7) 0.91142(13)
N6 N -0.0503(2) 0.93224(8) 0.28033(16)
H1 H -0.0902 0.9835 0.3180
H2 H -0.1153 0.9072 0.1870
loop_
_geom_bond_atom_site_label_1
_geom_bond_atom_site_label_2
_geom_bond_site_symmetry_1
_geom_bond_site_symmetry_2
N1 O1 1_555 1_555
O1 N2 1_555 1_555
N2 C1 1_555 1_555
C1 C2 1_555 1_555
C2 N1 1_555 1_555
C3 C2 1_555 1_555
N3 C3 1_555 1_555
O2 N3 1_555 1_555
C4 O2 1_555 1_555
N4 C3 1_555 1_555
N5 C1 1_555 1_555
O3 N5 1_555 1_555
O4 N5 1_555 1_555
N6 C4 1_555 1_555
H1 N6 1_555 1_555
H2 N6 1_555 1_555
C4 N4 1_555 1_555

#END
