
#######################################################################
#
#                 Cambridge Crystallographic Data Centre
#                                CCDC 
#
#######################################################################
#
# If this CIF has been generated from an entry in the Cambridge 
# Structural Database, then it will include bibliographic, chemical, 
# crystal, experimental, refinement or atomic coordinate data resulting 
# from the CCDC's data processing and validation procedures.
#
#######################################################################

data_KIBSAS01
_chemical_formula_moiety         'C4 H2 N6 O4'
_chemical_name_systematic        
3-(4-nitro-1,2,5-oxadiazol-3-yl)-1,2,4-oxadiazol-5-amine
_symmetry_cell_setting           monoclinic
_symmetry_space_group_name_H-M   'P 21/c'
_symmetry_Int_Tables_number      14
_space_group_name_Hall           '-P 2ybc'
loop_
_symmetry_equiv_pos_site_id
_symmetry_equiv_pos_as_xyz
1 x,y,z
2 -x,1/2+y,1/2-z
3 -x,-y,-z
4 x,1/2-y,1/2+z
_cell_length_a                   6.5817(9)
_cell_length_b                   15.5573(18)
_cell_length_c                   7.4055(9)
_cell_angle_alpha                90
_cell_angle_beta                 93.124(4)
_cell_angle_gamma                90
_cell_volume                     757.148
_exptl_crystal_colour            colorless
_exptl_crystal_description       block
_cell_formula_units_Z            4
loop_
_atom_site_label
_atom_site_type_symbol
_atom_site_fract_x
_atom_site_fract_y
_atom_site_fract_z
C1 C 0.3530(2) 0.35393(9) 0.52829(17)
C2 C 0.1008(2) 0.39181(9) 0.36902(18)
C3 C 0.5290(2) 0.35385(9) 0.65888(19)
C4 C 0.5548(2) 0.37530(8) 0.84455(19)
N1 N 0.3311(2) 0.29009(8) 0.41715(17)
N2 N 0.21570(18) 0.41911(7) 0.50749(15)
N3 N -0.0555(2) 0.42993(9) 0.28574(17)
H1 H -0.0942 0.4796 0.3214
H2 H -0.1193 0.4052 0.1955
N4 N 0.7054(2) 0.32918(11) 0.6076(2)
N5 N 0.7408(2) 0.36407(10) 0.9041(2)
N6 N 0.40752(19) 0.40367(7) 0.96968(16)
O1 O 0.15759(16) 0.31485(6) 0.30745(14)
O2 O 0.83716(17) 0.33507(10) 0.75851(19)
O3 O 0.23283(16) 0.40884(8) 0.91244(14)
O4 O 0.47135(19) 0.42086(8) 1.12333(14)
loop_
_geom_bond_atom_site_label_1
_geom_bond_atom_site_label_2
_geom_bond_site_symmetry_1
_geom_bond_site_symmetry_2
C1 C3 1_555 1_555
C2 N2 1_555 1_555
C3 C4 1_555 1_555
C4 N5 1_555 1_555
N1 C1 1_555 1_555
N2 C1 1_555 1_555
N3 C2 1_555 1_555
H1 N3 1_555 1_555
H2 N3 1_555 1_555
N4 C3 1_555 1_555
N5 O2 1_555 1_555
N6 C4 1_555 1_555
O1 C2 1_555 1_555
O2 N4 1_555 1_555
O3 N6 1_555 1_555
O4 N6 1_555 1_555
N1 O1 1_555 1_555

#END
