
#######################################################################
#
#                 Cambridge Crystallographic Data Centre
#                                CCDC 
#
#######################################################################
#
# If this CIF has been generated from an entry in the Cambridge 
# Structural Database, then it will include bibliographic, chemical, 
# crystal, experimental, refinement or atomic coordinate data resulting 
# from the CCDC's data processing and validation procedures.
#
#######################################################################

data_KIBXOL
_chemical_formula_moiety         'H4 N1 1+,C3 N9 O2 1-'
_chemical_name_systematic        
'ammonium 5-(4-azido-1,2,5-oxadiazol-3-yl)-1H-tetrazol-1-olate'
_symmetry_cell_setting           orthorhombic
_symmetry_space_group_name_H-M   'P 21 21 21'
_symmetry_Int_Tables_number      19
_space_group_name_Hall           'P 2ac 2ab'
loop_
_symmetry_equiv_pos_site_id
_symmetry_equiv_pos_as_xyz
1 x,y,z
2 1/2-x,-y,1/2+z
3 1/2+x,1/2-y,-z
4 -x,1/2+y,1/2-z
_cell_length_a                   4.7397(3)
_cell_length_b                   12.0960(6)
_cell_length_c                   13.9889(6)
_cell_angle_alpha                90
_cell_angle_beta                 90
_cell_angle_gamma                90
_cell_volume                     802.003
_exptl_crystal_colour            'light yellow'
_exptl_crystal_description       plate
_chemical_melting_point          '452 K'
_cell_formula_units_Z            4
_exptl_crystal_recrystallization_method water
loop_
_atom_site_label
_atom_site_type_symbol
_atom_site_fract_x
_atom_site_fract_y
_atom_site_fract_z
O1 O 0.4783(3) 0.31495(13) 0.60491(10)
O2 O 1.1408(3) 0.51195(13) 0.48417(10)
N1 N 0.2501(4) 0.41057(16) 0.72717(13)
N2 N 0.4517(4) 0.40319(16) 0.66027(12)
N3 N 1.1764(4) 0.61724(16) 0.52275(13)
N4 N 1.0957(4) 0.79506(17) 0.63501(13)
N5 N 0.4971(4) 0.56460(16) 0.72730(12)
N6 N 0.9233(4) 0.45556(17) 0.52915(13)
N7 N 0.9362(5) 0.71363(16) 0.64971(13)
N8 N 0.2811(4) 0.50881(17) 0.76684(13)
N9 N 1.2168(5) 0.87451(18) 0.63163(14)
C1 C 0.9848(5) 0.62386(19) 0.58983(15)
C2 C 0.8273(5) 0.52314(19) 0.59443(15)
C3 C 0.6012(5) 0.49730(19) 0.66020(15)
N10 N 0.4715(4) 0.31765(16) 0.39451(12)
H1 H 0.322(3) 0.2681(12) 0.3868(12)
H2 H 0.441(4) 0.3796(11) 0.3562(10)
H3 H 0.482(4) 0.3392(13) 0.4584(8)
H4 H 0.640(3) 0.2834(12) 0.3767(11)
loop_
_geom_bond_atom_site_label_1
_geom_bond_atom_site_label_2
_geom_bond_site_symmetry_1
_geom_bond_site_symmetry_2
O1 N2 1_555 1_555
O2 N3 1_555 1_555
N1 N2 1_555 1_555
N2 C3 1_555 1_555
N3 C1 1_555 1_555
N4 N7 1_555 1_555
N5 N8 1_555 1_555
N6 O2 1_555 1_555
N7 C1 1_555 1_555
N8 N1 1_555 1_555
N9 N4 1_555 1_555
C1 C2 1_555 1_555
C2 N6 1_555 1_555
C3 N5 1_555 1_555
N10 H1 1_555 1_555
H2 N10 1_555 1_555
H3 N10 1_555 1_555
H4 N10 1_555 1_555
C2 C3 1_555 1_555

#END
