
#######################################################################
#
#                 Cambridge Crystallographic Data Centre
#                                CCDC 
#
#######################################################################
#
# If this CIF has been generated from an entry in the Cambridge 
# Structural Database, then it will include bibliographic, chemical, 
# crystal, experimental, refinement or atomic coordinate data resulting 
# from the CCDC's data processing and validation procedures.
#
#######################################################################

data_KICHIQ
_chemical_formula_moiety         'C22 H21 N1 O5,0.25(H2 O1)'
_chemical_name_systematic        
"dimethyl 3,3'-[2'-(acetylamino)[1,1'-biphenyl]-2,6-diyl]bis(prop-2-enoate) hydrate"
_symmetry_cell_setting           orthorhombic
_symmetry_space_group_name_H-M   'P b c n'
_symmetry_Int_Tables_number      60
_space_group_name_Hall           '-P 2n 2ab'
loop_
_symmetry_equiv_pos_site_id
_symmetry_equiv_pos_as_xyz
1 x,y,z
2 1/2-x,1/2-y,1/2+z
3 -x,y,1/2-z
4 1/2+x,1/2-y,-z
5 -x,-y,-z
6 1/2+x,1/2+y,1/2-z
7 x,-y,1/2+z
8 1/2-x,1/2+y,z
_cell_length_a                   16.2526(4)
_cell_length_b                   16.9979(5)
_cell_length_c                   14.2159(5)
_cell_angle_alpha                90
_cell_angle_beta                 90
_cell_angle_gamma                90
_cell_volume                     3927.29
_exptl_crystal_description       column
_cell_formula_units_Z            8
loop_
_atom_site_label
_atom_site_type_symbol
_atom_site_fract_x
_atom_site_fract_y
_atom_site_fract_z
O1 O 0.37685(16) 0.45578(12) 0.15939(19)
O2 O 0.63364(12) 0.17041(12) 0.39903(16)
O3 O 0.63626(12) 0.04355(11) 0.44327(15)
O4 O 0.07290(13) 0.39311(12) 0.36380(17)
O5 O -0.03270(11) 0.30851(11) 0.35926(15)
N1 N 0.36677(15) 0.33025(14) 0.21493(19)
H1 H 0.363(2) 0.282(2) 0.197(3)
C1 C 0.37679(16) 0.34272(15) 0.3128(2)
C2 C 0.40882(18) 0.41296(18) 0.3491(3)
H2 H 0.4231 0.4548 0.3080
C3 C 0.4197(2) 0.4212(2) 0.4455(3)
H3 H 0.4410 0.4691 0.4697
C4 C 0.4003(2) 0.3619(2) 0.5059(3)
H4 H 0.4092 0.3680 0.5716
C5 C 0.36734(18) 0.2925(2) 0.4709(2)
H5 H 0.3530 0.2515 0.5131
C6 C 0.35502(15) 0.28224(16) 0.3750(2)
C7 C 0.32136(16) 0.20468(16) 0.34093(19)
C8 C 0.37457(17) 0.13948(15) 0.33721(19)
C9 C 0.34326(18) 0.06616(16) 0.3109(2)
H6 H 0.3787 0.0218 0.3092
C10 C 0.26124(18) 0.05754(16) 0.2875(2)
H7 H 0.2410 0.0077 0.2680
C11 C 0.20866(17) 0.12117(16) 0.2925(2)
H8 H 0.1523 0.1145 0.2766
C12 C 0.23702(16) 0.19549(15) 0.3207(2)
C13 C 0.36804(19) 0.38550(17) 0.1450(2)
C14 C 0.3584(2) 0.3526(2) 0.0474(3)
H9 H 0.3599 0.3957 0.0016
H10 H 0.3056 0.3251 0.0427
H11 H 0.4033 0.3157 0.0345
C15 C 0.46242(16) 0.14853(15) 0.3604(2)
H12 H 0.4854 0.1997 0.3547
C16 C 0.51207(17) 0.09143(16) 0.3884(2)
H13 H 0.4914 0.0395 0.3950
C17 C 0.59926(17) 0.10782(16) 0.4094(2)
C18 C 0.72106(18) 0.05375(19) 0.4718(2)
H14 H 0.7427 0.0036 0.4953
H15 H 0.7241 0.0934 0.5218
H16 H 0.7538 0.0711 0.4178
C19 C 0.18018(17) 0.26178(16) 0.3334(2)
H17 H 0.2036 0.3129 0.3369
C20 C 0.09817(16) 0.25639(16) 0.3404(2)
H18 H 0.0724 0.2064 0.3353
C21 C 0.04775(16) 0.32680(16) 0.35580(19)
C22 C -0.08814(19) 0.37405(18) 0.3718(2)
H19 H -0.1450 0.3548 0.3732
H20 H -0.0815 0.4111 0.3196
H21 H -0.0756 0.4007 0.4313
O6 O 0.5000 0.5740(4) 0.2500
H22 H 0.5358 0.5348 0.3017
H22B H 0.4642 0.5348 0.1983
loop_
_geom_bond_atom_site_label_1
_geom_bond_atom_site_label_2
_geom_bond_site_symmetry_1
_geom_bond_site_symmetry_2
O1 C13 1_555 1_555
O2 C17 1_555 1_555
O3 C17 1_555 1_555
O4 C21 1_555 1_555
O5 C21 1_555 1_555
N1 H1 1_555 1_555
C1 N1 1_555 1_555
C2 C1 1_555 1_555
H2 C2 1_555 1_555
C3 C2 1_555 1_555
H3 C3 1_555 1_555
C4 C3 1_555 1_555
H4 C4 1_555 1_555
C5 C4 1_555 1_555
H5 C5 1_555 1_555
C6 C1 1_555 1_555
C7 C6 1_555 1_555
C8 C7 1_555 1_555
C9 C8 1_555 1_555
H6 C9 1_555 1_555
C10 C9 1_555 1_555
H7 C10 1_555 1_555
C11 C10 1_555 1_555
H8 C11 1_555 1_555
C12 C7 1_555 1_555
C13 N1 1_555 1_555
C14 C13 1_555 1_555
H9 C14 1_555 1_555
H10 C14 1_555 1_555
H11 C14 1_555 1_555
C15 C8 1_555 1_555
H12 C15 1_555 1_555
C16 C15 1_555 1_555
H13 C16 1_555 1_555
C17 C16 1_555 1_555
C18 O3 1_555 1_555
H14 C18 1_555 1_555
H15 C18 1_555 1_555
H16 C18 1_555 1_555
C19 C12 1_555 1_555
H17 C19 1_555 1_555
C20 C19 1_555 1_555
H18 C20 1_555 1_555
C21 C20 1_555 1_555
C22 O5 1_555 1_555
H19 C22 1_555 1_555
H20 C22 1_555 1_555
H21 C22 1_555 1_555
O6 H22 1_555 1_555
H22B O6 1_555 1_555
C5 C6 1_555 1_555
C11 C12 1_555 1_555

#END
