
#######################################################################
#
#                 Cambridge Crystallographic Data Centre
#                                CCDC 
#
#######################################################################
#
# If this CIF has been generated from an entry in the Cambridge 
# Structural Database, then it will include bibliographic, chemical, 
# crystal, experimental, refinement or atomic coordinate data resulting 
# from the CCDC's data processing and validation procedures.
#
#######################################################################

data_KICMUE
_chemical_formula_moiety         'C34 H30 O7,C2 H3 N1'
_chemical_name_systematic        
'25,26,27-Triacetoxy-28-hydroxycalix(4)arene acetonitrile clathrate'
_symmetry_cell_setting           monoclinic
_symmetry_space_group_name_H-M   'P 21/n'
_symmetry_Int_Tables_number      14
_space_group_name_Hall           '-P 2yn'
loop_
_symmetry_equiv_pos_site_id
_symmetry_equiv_pos_as_xyz
1 x,y,z
2 1/2-x,1/2+y,1/2-z
3 -x,-y,-z
4 1/2+x,1/2-y,1/2+z
_cell_length_a                   10.063(3)
_cell_length_b                   18.922(4)
_cell_length_c                   17.291(2)
_cell_angle_alpha                90
_cell_angle_beta                 100.472(2)
_cell_angle_gamma                90
_cell_volume                     3237.58
_cell_formula_units_Z            4
loop_
_atom_site_label
_atom_site_type_symbol
_atom_site_fract_x
_atom_site_fract_y
_atom_site_fract_z
C1 C -0.3206(19) 0.2200(10) 0.1754(13)
C2 C -0.3755(19) 0.2612(11) 0.1103(13)
C3 C -0.2898(18) 0.3053(12) 0.0791(13)
C4 C -0.1566(20) 0.3148(11) 0.1119(12)
C5 C -0.1055(15) 0.2754(10) 0.1799(10)
C6 C -0.1856(18) 0.2288(10) 0.2106(10)
C7 C -0.0786(18) -0.0646(11) 0.1458(12)
C8 C -0.0169(19) -0.1241(11) 0.1848(12)
C9 C 0.1187(19) -0.1304(11) 0.2086(13)
C10 C 0.2011(17) -0.0723(11) 0.2009(14)
C11 C 0.1460(17) -0.0115(11) 0.1604(12)
C12 C 0.0071(18) 0.0077(11) 0.1349(12)
C13 C 0.1304(17) 0.2222(10) 0.2500(13)
C14 C 0.1892(21) 0.2063(13) 0.3275(14)
C15 C 0.2639(20) 0.1447(13) 0.3486(13)
C16 C 0.2708(18) 0.0963(11) 0.2908(14)
C17 C 0.2205(17) 0.1106(9) 0.2125(10)
C18 C 0.1513(17) 0.1724(9) 0.1944(11)
C19 C -0.3826(17) 0.0955(10) 0.2215(12)
C20 C -0.3884(17) 0.0633(11) 0.2929(12)
C21 C -0.3547(20) -0.0042(20) 0.3087(12)
C22 C -0.3078(18) -0.0437(11) 0.2518(12)
C23 C -0.2941(17) -0.0153(11) 0.1796(12)
C24 C -0.3323(16) 0.0545(10) 0.1669(11)
C25 C 0.2326(19) 0.0478(12) 0.1547(13)
C26 C -0.2300(19) -0.0588(11) 0.1217(13)
C27 C -0.4175(20) 0.1746(12) 0.2086(12)
C28 C 0.0394(18) 0.2829(11) 0.2271(12)
C29 C -0.1458(18) 0.2106(10) 0.3513(12)
C30 C -0.1017(21) 0.1565(12) 0.4120(12)
C31 C 0.1585(19) 0.2250(13) 0.0728(14)
C32 C 0.0831(23) 0.2310(14) -0.0094(14)
C33 C -0.4292(19) 0.0902(11) 0.0358(12)
C34 C -0.3929(20) 0.1159(12) -0.0378(12)
O1 O -0.1465(13) 0.1842(7) 0.2755(7)
O2 O -0.0440(13) 0.0516(7) 0.0943(8)
O3 O 0.0895(15) 0.1816(7) 0.1158(8)
O4 O -0.3181(12) 0.0849(6) 0.0940(8)
O5 O -0.1777(16) 0.2710(8) 0.3575(9)
O6 O 0.2661(15) 0.2529(8) 0.0987(9)
O7 O -0.5347(15) 0.0715(10) 0.0452(10)
C35 C 0.9663(34) 0.0371(25) 0.6268(26)
C36 C 0.8718(31) 0.0204(21) 0.5672(17)
N1 N 0.7973(31) -0.0092(22) 0.5127(17)
C37? C 0.7134(37) 0.0542(33) 0.5554(34)
C38? C 0.5775(31) 0.0505(32) 0.5234(30)
N2? N 0.4636(31) 0.0566(31) 0.4844(30)
loop_
_geom_bond_atom_site_label_1
_geom_bond_atom_site_label_2
_geom_bond_site_symmetry_1
_geom_bond_site_symmetry_2
C1 C2 1_555 1_555
C2 C3 1_555 1_555
C3 C4 1_555 1_555
C4 C5 1_555 1_555
C5 C6 1_555 1_555
C6 C1 1_555 1_555
C7 C8 1_555 1_555
C8 C9 1_555 1_555
C9 C10 1_555 1_555
C10 C11 1_555 1_555
C11 C12 1_555 1_555
C12 C7 1_555 1_555
C13 C14 1_555 1_555
C14 C15 1_555 1_555
C15 C16 1_555 1_555
C16 C17 1_555 1_555
C17 C18 1_555 1_555
C18 C13 1_555 1_555
C19 C20 1_555 1_555
C20 C21 1_555 1_555
C21 C22 1_555 1_555
C22 C23 1_555 1_555
C23 C24 1_555 1_555
C24 C19 1_555 1_555
C25 C11 1_555 1_555
C26 C7 1_555 1_555
C27 C1 1_555 1_555
C28 C5 1_555 1_555
C29 C30 1_555 1_555
C31 C32 1_555 1_555
C33 C34 1_555 1_555
O1 C6 1_555 1_555
O2 C12 1_555 1_555
O3 C18 1_555 1_555
O4 C24 1_555 1_555
O5 C29 1_555 1_555
O6 C31 1_555 1_555
O7 C33 1_555 1_555
C35 C36 1_555 1_555
C36 N1 1_555 1_555
C13 C28 1_555 1_555
C17 C25 1_555 1_555
C19 C27 1_555 1_555
C23 C26 1_555 1_555
C29 O1 1_555 1_555
C31 O3 1_555 1_555
C33 O4 1_555 1_555

#END
