
#######################################################################
#
#                 Cambridge Crystallographic Data Centre
#                                CCDC 
#
#######################################################################
#
# If this CIF has been generated from an entry in the Cambridge 
# Structural Database, then it will include bibliographic, chemical, 
# crystal, experimental, refinement or atomic coordinate data resulting 
# from the CCDC's data processing and validation procedures.
#
#######################################################################

data_KICPET
_chemical_formula_moiety         'C57 H54 O6,0.5(C10 H8 N2),C3 H6 O1,2(H2 O1)'
_chemical_name_systematic        
"1,3,5-tris(4-t-Butylphenyl)-2,4,6-tris(4-carboxyphenyl)benzene hemikis(4,4'-bipyridine) acetone solvate dihydrate"
_symmetry_cell_setting           monoclinic
_symmetry_space_group_name_H-M   'C 2/c'
_symmetry_Int_Tables_number      15
_space_group_name_Hall           '-C 2yn'
loop_
_symmetry_equiv_pos_site_id
_symmetry_equiv_pos_as_xyz
1 x,y,z
2 -x,y,1/2-z
3 1/2+x,1/2+y,z
4 1/2-x,1/2+y,1/2-z
5 -x,-y,-z
6 x,-y,1/2+z
7 1/2-x,1/2-y,-z
8 1/2+x,1/2-y,1/2+z
_cell_length_a                   31.024(7)
_cell_length_b                   18.263(3)
_cell_length_c                   24.405(5)
_cell_angle_alpha                90
_cell_angle_beta                 119.87(3)
_cell_angle_gamma                90
_cell_volume                     11990.8
_exptl_crystal_colour            colorless
_exptl_crystal_description       block
_cell_formula_units_Z            8
loop_
_atom_site_label
_atom_site_type_symbol
_atom_site_fract_x
_atom_site_fract_y
_atom_site_fract_z
O1 O 0.09841(9) 0.08923(11) 0.67914(11)
H1 H 0.1022 0.1341 0.6752
H2 H 0.1043 0.0564 0.6596
O2 O 0.50869(8) 0.56741(13) 0.66469(12)
H3 H 0.5325 0.5683 0.6575
O3 O 0.46757(9) 0.60552(14) 0.56401(13)
O4 O 0.09630(11) 0.22367(13) 0.55893(12)
H4 H 0.0824 0.1837 0.5577
O5 O 0.11469(11) 0.23058(12) 0.65900(13)
O6 O 0.08960(10) 0.95540(12) 0.57003(13)
H5 H 0.0802 0.9971 0.5741
O7 O 0.14842(9) 0.97767(12) 0.66972(12)
C1 C 0.26356(10) 0.52547(14) 0.62477(13)
C2 C 0.21845(10) 0.52529(14) 0.62593(13)
C3 C 0.19589(10) 0.59176(14) 0.62550(14)
C4 C 0.21934(10) 0.65875(14) 0.62670(13)
C5 C 0.26469(10) 0.65877(14) 0.62599(13)
C6 C 0.28601(10) 0.59162(14) 0.62446(13)
C7 C 0.28721(10) 0.45375(14) 0.62541(14)
C8 C 0.28923(11) 0.42847(15) 0.57253(15)
H6 H 0.2777 0.4589 0.5364
C9 C 0.30793(11) 0.35927(16) 0.57240(15)
H7 H 0.3091 0.3434 0.5361
C10 C 0.32490(10) 0.31293(14) 0.62414(14)
C11 C 0.32452(12) 0.33971(16) 0.67766(15)
H8 H 0.3371 0.3101 0.7145
C12 C 0.30607(11) 0.40849(15) 0.67779(14)
H9 H 0.3063 0.4252 0.7148
C13 C 0.34228(12) 0.23438(15) 0.62410(16)
C14 C 0.39577(13) 0.22409(18) 0.67865(18)
H10 H 0.4179 0.2578 0.6732
H11 H 0.4064 0.1735 0.6787
H12 H 0.3971 0.2344 0.7189
C15 C 0.34139(16) 0.21590(18) 0.56235(18)
H13 H 0.3074 0.2206 0.5269
H14 H 0.3530 0.1656 0.5643
H15 H 0.3632 0.2497 0.5563
C16 C 0.30709(15) 0.18190(17) 0.6326(2)
H16 H 0.2729 0.1899 0.5985
H17 H 0.3092 0.1913 0.6734
H18 H 0.3168 0.1312 0.6313
C17 C 0.19355(10) 0.45449(14) 0.62429(14)
C18 C 0.17587(12) 0.40917(15) 0.57189(15)
H19 H 0.1810 0.4224 0.5379
C19 C 0.15092(11) 0.34500(16) 0.56829(15)
H20 H 0.1386 0.3150 0.5317
C20 C 0.14385(11) 0.32426(14) 0.61799(15)
C21 C 0.16177(12) 0.36840(16) 0.67089(15)
H21 H 0.1572 0.3544 0.7051
C22 C 0.18642(11) 0.43317(15) 0.67419(14)
H22 H 0.1985 0.4632 0.7107
C23 C 0.11734(12) 0.25482(16) 0.61453(15)
C24 C 0.14713(10) 0.59256(14) 0.62461(14)
C25 C 0.10484(11) 0.56562(16) 0.57289(15)
H23 H 0.1070 0.5447 0.5387
C26 C 0.05890(11) 0.56904(16) 0.57059(15)
H24 H 0.0303 0.5498 0.5347
C27 C 0.05385(11) 0.59953(15) 0.61889(15)
C28 C 0.09696(11) 0.62534(17) 0.67078(15)
H25 H 0.0951 0.6458 0.7053
C29 C 0.14281(11) 0.62214(16) 0.67366(14)
H26 H 0.1715 0.6405 0.7098
C30 C 0.00335(11) 0.60930(17) 0.61572(15)
C31 C -0.03739(13) 0.5653(2) 0.56123(18)
H27 H -0.0417 0.5835 0.5210
H28 H -0.0687 0.5707 0.5615
H29 H -0.0279 0.5135 0.5662
C32 C 0.00673(14) 0.5821(2) 0.67710(18)
H30 H 0.0321 0.6102 0.7128
H31 H 0.0158 0.5301 0.6830
H32 H -0.0255 0.5884 0.6747
C33 C -0.01023(15) 0.6902(2) 0.6063(2)
H33 H -0.0136 0.7068 0.5662
H34 H 0.0160 0.7185 0.6411
H35 H -0.0418 0.6975 0.6057
C34 C 0.19543(10) 0.73023(14) 0.62635(14)
C35 C 0.14899(11) 0.74821(15) 0.57619(14)
H36 H 0.1322 0.7144 0.5425
C36 C 0.12656(11) 0.81480(16) 0.57426(14)
H37 H 0.0948 0.8262 0.5395
C37 C 0.15084(11) 0.86453(15) 0.62330(14)
C38 C 0.19720(12) 0.84634(16) 0.67418(15)
H38 H 0.2138 0.8799 0.7082
C39 C 0.21930(11) 0.77982(15) 0.67571(14)
H39 H 0.2509 0.7681 0.7107
C40 C 0.12825(11) 0.93736(16) 0.62109(16)
C41 C 0.28970(10) 0.72912(14) 0.62773(13)
C42 C 0.26879(11) 0.77691(15) 0.57702(15)
H40 H 0.2377 0.7656 0.5410
C43 C 0.29344(12) 0.84183(17) 0.57877(16)
H41 H 0.2790 0.8733 0.5430
C44 C 0.33825(11) 0.86177(15) 0.63095(16)
C45 C 0.35771(12) 0.81337(16) 0.68191(16)
H42 H 0.3881 0.8255 0.7188
C46 C 0.33436(11) 0.74851(16) 0.68048(14)
H43 H 0.3490 0.7168 0.7160
C47 C 0.36608(13) 0.93149(18) 0.6334(2)
C48 C 0.33825(16) 0.9776(2) 0.5736(2)
H44 H 0.3057 0.9914 0.5678
H45 H 0.3337 0.9491 0.5371
H46 H 0.3575 1.0218 0.5776
C49 C 0.37387(19) 0.9777(2) 0.6904(2)
H47 H 0.3415 0.9897 0.6860
H48 H 0.3914 1.0230 0.6920
H49 H 0.3936 0.9498 0.7294
C50 C 0.41616(17) 0.9100(2) 0.6404(3)
H50 H 0.4108 0.8782 0.6052
H51 H 0.4359 0.8839 0.6804
H52 H 0.4340 0.9542 0.6402
C51 C 0.33386(10) 0.59124(13) 0.62222(14)
C52 C 0.37863(11) 0.57289(18) 0.67554(15)
H53 H 0.3791 0.5600 0.7136
C53 C 0.42244(11) 0.57320(18) 0.67367(15)
H54 H 0.4529 0.5625 0.7110
C54 C 0.42272(10) 0.58890(15) 0.61829(14)
C55 C 0.37775(12) 0.60574(18) 0.56480(16)
H55 H 0.3770 0.6158 0.5261
C56 C 0.33403(11) 0.60800(18) 0.56707(15)
H56 H 0.3038 0.6212 0.5303
C57 C 0.46925(11) 0.58675(15) 0.61554(15)
O8 O 0.04421(8) 0.09386(10) 0.53499(10)
H57 H 0.0319 0.0912 0.4956
H58 H 0.0248 0.0995 0.5493
O9 O 0.03806(16) 0.3760(2) 0.6677(3)
C58 C 0.0115(2) 0.2630(3) 0.6790(3)
H59 H 0.0279 0.2771 0.7236
H60 H 0.0270 0.2184 0.6744
H61 H -0.0239 0.2539 0.6636
C59 C 0.01671(18) 0.3226(3) 0.6419(3)
C60 C -0.0057(3) 0.3093(5) 0.5728(3)
H62 H 0.0000 0.3520 0.5529
H63 H -0.0416 0.3013 0.5541
H64 H 0.0095 0.2660 0.5658
N1 N 0.01787(11) 0.10596(15) 0.40661(14)
C61 C -0.02681(14) 0.11475(19) 0.35575(18)
H65 H -0.0544 0.1206 0.3621
C62 C -0.03578(13) 0.11588(18) 0.29393(17)
H66 H -0.0687 0.1219 0.2597
C63 C 0.00362(12) 0.10821(15) 0.28255(15)
C64 C 0.05074(13) 0.10001(17) 0.33588(16)
H67 H 0.0791 0.0950 0.3310
C65 C 0.05605(14) 0.09923(18) 0.39543(17)
H68 H 0.0885 0.0936 0.4306
N1A N -0.01787(11) 0.10596(15) 0.09339(14)
C61A C 0.02681(14) 0.11475(19) 0.14425(18)
H65A H 0.0544 0.1206 0.1379
C62A C 0.03578(13) 0.11588(18) 0.20607(17)
H66A H 0.0687 0.1219 0.2403
C63A C -0.00362(12) 0.10821(15) 0.21745(15)
C64A C -0.05074(13) 0.10001(17) 0.16412(16)
H67A H -0.0791 0.0950 0.1690
C65A C -0.05605(14) 0.09923(18) 0.10457(17)
H68A H -0.0885 0.0936 0.0694
loop_
_geom_bond_atom_site_label_1
_geom_bond_atom_site_label_2
_geom_bond_site_symmetry_1
_geom_bond_site_symmetry_2
O1 H1 1_555 1_555
H2 O1 1_555 1_555
O2 H3 1_555 1_555
O3 C57 1_555 1_555
O4 H4 1_555 1_555
O5 C23 1_555 1_555
O6 H5 1_555 1_555
O7 C40 1_555 1_555
C1 C2 1_555 1_555
C2 C3 1_555 1_555
C3 C4 1_555 1_555
C4 C5 1_555 1_555
C5 C6 1_555 1_555
C6 C1 1_555 1_555
C7 C1 1_555 1_555
C8 C7 1_555 1_555
H6 C8 1_555 1_555
C9 C8 1_555 1_555
H7 C9 1_555 1_555
C10 C9 1_555 1_555
C11 C10 1_555 1_555
H8 C11 1_555 1_555
C12 C7 1_555 1_555
H9 C12 1_555 1_555
C13 C10 1_555 1_555
C14 C13 1_555 1_555
H10 C14 1_555 1_555
H11 C14 1_555 1_555
H12 C14 1_555 1_555
C15 C13 1_555 1_555
H13 C15 1_555 1_555
H14 C15 1_555 1_555
H15 C15 1_555 1_555
C16 C13 1_555 1_555
H16 C16 1_555 1_555
H17 C16 1_555 1_555
H18 C16 1_555 1_555
C17 C2 1_555 1_555
C18 C17 1_555 1_555
H19 C18 1_555 1_555
C19 C18 1_555 1_555
H20 C19 1_555 1_555
C20 C19 1_555 1_555
C21 C20 1_555 1_555
H21 C21 1_555 1_555
C22 C17 1_555 1_555
H22 C22 1_555 1_555
C23 O4 1_555 1_555
C24 C3 1_555 1_555
C25 C24 1_555 1_555
H23 C25 1_555 1_555
C26 C25 1_555 1_555
H24 C26 1_555 1_555
C27 C26 1_555 1_555
C28 C27 1_555 1_555
H25 C28 1_555 1_555
C29 C24 1_555 1_555
H26 C29 1_555 1_555
C30 C27 1_555 1_555
C31 C30 1_555 1_555
H27 C31 1_555 1_555
H28 C31 1_555 1_555
H29 C31 1_555 1_555
C32 C30 1_555 1_555
H30 C32 1_555 1_555
H31 C32 1_555 1_555
H32 C32 1_555 1_555
C33 C30 1_555 1_555
H33 C33 1_555 1_555
H34 C33 1_555 1_555
H35 C33 1_555 1_555
C34 C4 1_555 1_555
C35 C34 1_555 1_555
H36 C35 1_555 1_555
C36 C35 1_555 1_555
H37 C36 1_555 1_555
C37 C36 1_555 1_555
C38 C37 1_555 1_555
H38 C38 1_555 1_555
C39 C34 1_555 1_555
H39 C39 1_555 1_555
C40 O6 1_555 1_555
C41 C5 1_555 1_555
C42 C41 1_555 1_555
H40 C42 1_555 1_555
C43 C42 1_555 1_555
H41 C43 1_555 1_555
C44 C43 1_555 1_555
C45 C44 1_555 1_555
H42 C45 1_555 1_555
C46 C41 1_555 1_555
H43 C46 1_555 1_555
C47 C44 1_555 1_555
C48 C47 1_555 1_555
H44 C48 1_555 1_555
H45 C48 1_555 1_555
H46 C48 1_555 1_555
C49 C47 1_555 1_555
H47 C49 1_555 1_555
H48 C49 1_555 1_555
H49 C49 1_555 1_555
C50 C47 1_555 1_555
H50 C50 1_555 1_555
H51 C50 1_555 1_555
H52 C50 1_555 1_555
C51 C6 1_555 1_555
C52 C51 1_555 1_555
H53 C52 1_555 1_555
C53 C52 1_555 1_555
H54 C53 1_555 1_555
C54 C53 1_555 1_555
C55 C54 1_555 1_555
H55 C55 1_555 1_555
C56 C51 1_555 1_555
H56 C56 1_555 1_555
C57 O2 1_555 1_555
O8 H57 1_555 1_555
H58 O8 1_555 1_555
O9 C59 1_555 1_555
C58 H59 1_555 1_555
H60 C58 1_555 1_555
H61 C58 1_555 1_555
C59 C58 1_555 1_555
C60 C59 1_555 1_555
H62 C60 1_555 1_555
H63 C60 1_555 1_555
H64 C60 1_555 1_555
N1 C61 1_555 1_555
C61 H65 1_555 1_555
C62 C61 1_555 1_555
H66 C62 1_555 1_555
C63 C62 1_555 1_555
C64 C63 1_555 1_555
H67 C64 1_555 1_555
C65 N1 1_555 1_555
H68 C65 1_555 1_555
N1A C61A 1_555 1_555
C61A H65A 1_555 1_555
C62A C61A 1_555 1_555
H66A C62A 1_555 1_555
C63A C63 1_555 1_555
C64A C63A 1_555 1_555
H67A C64A 1_555 1_555
C65A N1A 1_555 1_555
H68A C65A 1_555 1_555
C11 C12 1_555 1_555
C20 C23 1_555 1_555
C21 C22 1_555 1_555
C28 C29 1_555 1_555
C37 C40 1_555 1_555
C38 C39 1_555 1_555
C45 C46 1_555 1_555
C54 C57 1_555 1_555
C55 C56 1_555 1_555
C64 C65 1_555 1_555
C62A C63A 1_555 1_555
C64A C65A 1_555 1_555

#END
