
#######################################################################
#
#                 Cambridge Crystallographic Data Centre
#                                CCDC 
#
#######################################################################
#
# If this CIF has been generated from an entry in the Cambridge 
# Structural Database, then it will include bibliographic, chemical, 
# crystal, experimental, refinement or atomic coordinate data resulting 
# from the CCDC's data processing and validation procedures.
#
#######################################################################

data_KICPAP
_chemical_formula_moiety         
'C57 H54 O6,0.5(C10 H8 N4),2(C3 H6 O1),2(H2 O1)'
_chemical_name_systematic        
"1,3,5-tris(4-t-Butylphenyl)-2,4,6-tris(4-carboxyphenyl)benzene hemikis(4,4'-azopyridine) acetone solvate dihydrate"
_symmetry_cell_setting           monoclinic
_symmetry_space_group_name_H-M   'C 2/c'
_symmetry_Int_Tables_number      15
_space_group_name_Hall           '-C 2yn'
loop_
_symmetry_equiv_pos_site_id
_symmetry_equiv_pos_as_xyz
1 x,y,z
2 -x,y,1/2-z
3 1/2+x,1/2+y,z
4 1/2-x,1/2+y,1/2-z
5 -x,-y,-z
6 x,-y,1/2+z
7 1/2-x,1/2-y,-z
8 1/2+x,1/2-y,1/2+z
_cell_length_a                   31.120(6)
_cell_length_b                   18.155(3)
_cell_length_c                   25.759(5)
_cell_angle_alpha                90
_cell_angle_beta                 122.213(3)
_cell_angle_gamma                90
_cell_volume                     12313.2
_exptl_crystal_colour            yellow
_exptl_crystal_description       block
_cell_formula_units_Z            8
loop_
_atom_site_label
_atom_site_type_symbol
_atom_site_fract_x
_atom_site_fract_y
_atom_site_fract_z
O1 O 0.11511(10) 1.41258(14) 1.19650(11)
H1 H 0.1191 1.3698 1.1873
H2 H 0.0842 1.4160 1.1842
O2 O 0.09828(12) 1.27693(16) 1.07486(15)
H3 H 0.0866 1.3165 1.0793
O3 O 0.13715(15) 1.27395(16) 1.17681(16)
O4 O 0.51496(9) 0.93165(16) 1.16356(12)
O5 O 0.46733(10) 0.90087(16) 1.06472(12)
H4 H 0.4953 0.9039 1.0673
O6 O 0.15870(11) 0.53009(15) 1.18660(14)
H5 H 0.1442 0.4895 1.1825
O7 O 0.10388(11) 0.53454(15) 1.08584(14)
C1 C 0.22207(12) 0.97489(18) 1.12443(15)
C2 C 0.26705(12) 0.97618(17) 1.12314(15)
C3 C 0.29008(12) 0.90940(17) 1.12332(15)
C4 C 0.26912(12) 0.84172(17) 1.12522(15)
C5 C 0.22443(12) 0.84049(17) 1.12609(15)
C6 C 0.20067(12) 0.90690(17) 1.12508(15)
C7 C 0.19735(12) 1.04486(17) 1.12492(15)
C8 C 0.19295(13) 1.06278(18) 1.17432(16)
H6 H 0.2053 1.0294 1.2077
C9 C 0.17100(14) 1.12832(18) 1.17584(17)
H7 H 0.1692 1.1402 1.2105
C10 C 0.15161(14) 1.17670(18) 1.12655(17)
C11 C 0.15510(14) 1.15907(18) 1.07672(16)
H8 H 0.1416 1.1918 1.0428
C12 C 0.17809(13) 1.09398(18) 1.07588(16)
H9 H 0.1807 1.0828 1.0416
C13 C 0.12845(15) 1.24712(19) 1.12815(19)
C14 C 0.28935(12) 1.04845(18) 1.12239(15)
C15 C 0.30838(14) 1.09616(19) 1.17212(16)
H10 H 0.3088 1.0812 1.2077
C16 C 0.32672(14) 1.16511(19) 1.17061(17)
H11 H 0.3394 1.1967 1.2052
C17 C 0.32689(13) 1.18895(18) 1.11919(17)
C18 C 0.30903(13) 1.14026(19) 1.07057(17)
H12 H 0.3094 1.1545 1.0353
C19 C 0.29062(13) 1.07130(19) 1.07203(17)
H13 H 0.2787 1.0392 1.0379
C20 C 0.34535(15) 1.26729(19) 1.1182(2)
C21 C 0.3093(2) 1.3223(2) 1.1212(3)
H14 H 0.2748 1.3153 1.0856
H15 H 0.3206 1.3726 1.1211
H16 H 0.3094 1.3140 1.1589
C22 C 0.39952(16) 1.2783(2) 1.1737(2)
H17 H 0.4225 1.2435 1.1714
H18 H 0.4000 1.2698 1.2116
H19 H 0.4106 1.3288 1.1736
C23 C 0.34542(18) 1.2820(2) 1.0601(2)
H20 H 0.3110 1.2754 1.0242
H21 H 0.3685 1.2474 1.0578
H22 H 0.3567 1.3326 1.0609
C24 C 0.33778(12) 0.91105(17) 1.12166(15)
C25 C 0.38341(13) 0.9336(2) 1.17247(16)
H23 H 0.3846 0.9492 1.2084
C26 C 0.42739(13) 0.9337(2) 1.17120(17)
H24 H 0.4586 0.9480 1.2067
C27 C 0.42638(12) 0.91305(18) 1.11897(16)
C28 C 0.38060(14) 0.8919(2) 1.06810(18)
H25 H 0.3790 0.8785 1.0314
C29 C 0.33715(14) 0.8899(2) 1.06997(18)
H26 H 0.3062 0.8736 1.0349
C30 C 0.47368(13) 0.91632(18) 1.11812(16)
C31 C 0.29432(12) 0.77152(17) 1.12634(16)
C32 C 0.34043(14) 0.7509(2) 1.17625(18)
H27 H 0.3565 0.7812 1.2118
C33 C 0.36382(16) 0.6865(2) 1.1754(2)
H28 H 0.3955 0.6733 1.2108
C34 C 0.34249(15) 0.6406(2) 1.1246(2)
C35 C 0.29584(15) 0.6608(2) 1.0755(2)
H29 H 0.2796 0.6301 1.0402
C36 C 0.27201(14) 0.7247(2) 1.07613(17)
H30 H 0.2396 0.7367 1.0414
C37 C 0.3705(2) 0.5747(4) 1.1178(3)
C38 C 0.3881(4) 0.5262(5) 1.1745(4)
H31 H 0.4089 0.5556 1.2117
H32 H 0.4082 0.4850 1.1740
H33 H 0.3584 0.5072 1.1739
C39 C 0.3387(4) 0.5278(5) 1.0616(5)
H34 H 0.3595 0.4877 1.0610
H35 H 0.3258 0.5581 1.0247
H36 H 0.3100 0.5071 1.0626
C40 C 0.4170(3) 0.6023(4) 1.1190(6)
H37 H 0.4375 0.6330 1.1554
H38 H 0.4064 0.6315 1.0820
H39 H 0.4373 0.5602 1.1203
C41 C 0.20229(12) 0.76857(17) 1.12827(16)
C42 C 0.22629(13) 0.72578(18) 1.18118(16)
H40 H 0.2573 0.7422 1.2160
C43 C 0.20542(13) 0.65929(18) 1.18376(17)
H41 H 0.2220 0.6310 1.2204
C44 C 0.16048(13) 0.63393(18) 1.13295(16)
C45 C 0.13592(13) 0.67667(18) 1.07996(16)
H42 H 0.1050 0.6600 1.0451
C46 C 0.15661(13) 0.74368(18) 1.07808(15)
H43 H 0.1393 0.7729 1.0420
C47 C 0.13888(13) 0.56150(18) 1.13389(17)
C48 C 0.15192(12) 0.90469(16) 1.12359(15)
C49 C 0.14932(13) 0.87477(19) 1.17142(16)
H44 H 0.1793 0.8563 1.2066
C50 C 0.10375(14) 0.8715(2) 1.16861(17)
H45 H 0.1032 0.8506 1.2021
C51 C 0.05888(13) 0.89748(18) 1.11863(17)
C52 C 0.06181(13) 0.9281(2) 1.07145(17)
H46 H 0.0318 0.9469 1.0365
C53 C 0.10739(13) 0.93206(19) 1.07388(16)
H47 H 0.1080 0.9540 1.0408
C54 C 0.00865(14) 0.8895(2) 1.1159(2)
C55 C -0.0044(2) 0.8064(3) 1.1102(3)
H48 H 0.0233 0.7800 1.1454
H49 H -0.0087 0.7871 1.0722
H50 H -0.0359 0.7996 1.1095
C56 C -0.03450(16) 0.9299(3) 1.0616(2)
H51 H -0.0265 0.9825 1.0649
H52 H -0.0659 0.9228 1.0613
H53 H -0.0390 0.9104 1.0235
C57 C 0.01419(18) 0.9190(3) 1.1741(2)
H54 H 0.0225 0.9715 1.1781
H55 H 0.0414 0.8923 1.2095
H56 H -0.0178 0.9121 1.1724
O8 O 0.04983(9) 0.40607(13) 1.05638(11)
H66 H 0.0434 0.4058 1.0203
H67 H 0.0664 0.4453 1.0702
O9 O 0.0439(3) 0.8741(4) 0.6756(4)
C62 C 0.0146(4) 0.7596(5) 0.6659(7)
H68 H 0.0300 0.7680 0.7100
H69 H 0.0306 0.7168 0.6598
H70 H -0.0218 0.7506 0.6465
C63 C 0.0220(4) 0.8213(7) 0.6398(6)
C64 C 0.0034(6) 0.8258(12) 0.5745(5)
H71 H 0.0129 0.8734 0.5657
H72 H -0.0337 0.8210 0.5505
H73 H 0.0183 0.7860 0.5635
O10 O 0.1783(3) 0.3795(6) 0.0646(4)
C65 C 0.2283(4) 0.4019(6) 0.1651(4)
H74 H 0.2155 0.3522 0.1643
H75 H 0.2177 0.4354 0.1861
H76 H 0.2654 0.4008 0.1870
C66 C 0.2079(3) 0.4270(7) 0.1033(4)
C67 C 0.2162(6) 0.4889(7) 0.0833(9)
H77 H 0.1972 0.4885 0.0383
H78 H 0.2526 0.4936 0.0993
H79 H 0.2052 0.5308 0.0974
N1 N 0.02644(14) 0.39318(18) 0.93984(15)
N2 N -0.01760(14) 0.3889(2) 0.7529(2)
C68 C -0.02069(17) 0.3853(2) 0.8926(2)
H80 H -0.0468 0.3801 0.9010
C69 C -0.03438(19) 0.3841(2) 0.8327(2)
H81 H -0.0691 0.3796 0.8007
C70 C 0.00222(18) 0.3893(2) 0.81984(18)
C71 C 0.05257(18) 0.3959(2) 0.8679(2)
H82 H 0.0793 0.3987 0.8604
C72 C 0.06264(17) 0.3982(2) 0.92752(19)
H83 H 0.0968 0.4036 0.9607
N1A N -0.02644(14) 0.39318(18) 0.56016(15)
N2A N 0.01760(14) 0.3889(2) 0.7471(2)
C68A C 0.02069(17) 0.3853(2) 0.6074(2)
H80A H 0.0468 0.3801 0.5990
C69A C 0.03438(19) 0.3841(2) 0.6673(2)
H81A H 0.0691 0.3796 0.6993
C70A C -0.00222(18) 0.3893(2) 0.68016(18)
C71A C -0.05257(18) 0.3959(2) 0.6321(2)
H82A H -0.0793 0.3987 0.6396
C72A C -0.06264(17) 0.3982(2) 0.57248(19)
H83A H -0.0968 0.4036 0.5393
C58? C 0.3709(6) 0.5657(10) 1.1457(9)
C59? C 0.3663(9) 0.5161(10) 1.1905(9)
H57? H 0.3791 0.5423 1.2293
H58? H 0.3863 0.4712 1.1979
H59? H 0.3306 0.5030 1.1729
C60? C 0.3499(10) 0.5212(14) 1.0879(10)
H60? H 0.3525 0.5496 1.0574
H61? H 0.3142 0.5094 1.0717
H62? H 0.3693 0.4754 1.0969
C61? C 0.4279(6) 0.5767(12) 1.1737(12)
H63? H 0.4422 0.6044 1.2121
H64? H 0.4333 0.6040 1.1449
H65? H 0.4446 0.5285 1.1821
loop_
_geom_bond_atom_site_label_1
_geom_bond_atom_site_label_2
_geom_bond_site_symmetry_1
_geom_bond_site_symmetry_2
O1 H1 1_555 1_555
H2 O1 1_555 1_555
O2 H3 1_555 1_555
O3 C13 1_555 1_555
O4 C30 1_555 1_555
O5 H4 1_555 1_555
O6 H5 1_555 1_555
O7 C47 1_555 1_555
C1 C2 1_555 1_555
C2 C3 1_555 1_555
C3 C4 1_555 1_555
C4 C5 1_555 1_555
C5 C6 1_555 1_555
C6 C1 1_555 1_555
C7 C1 1_555 1_555
C8 C7 1_555 1_555
H6 C8 1_555 1_555
C9 C8 1_555 1_555
H7 C9 1_555 1_555
C10 C9 1_555 1_555
C11 C10 1_555 1_555
H8 C11 1_555 1_555
C12 C7 1_555 1_555
H9 C12 1_555 1_555
C13 O2 1_555 1_555
C14 C2 1_555 1_555
C15 C14 1_555 1_555
H10 C15 1_555 1_555
C16 C15 1_555 1_555
H11 C16 1_555 1_555
C17 C16 1_555 1_555
C18 C17 1_555 1_555
H12 C18 1_555 1_555
C19 C14 1_555 1_555
H13 C19 1_555 1_555
C20 C17 1_555 1_555
C21 C20 1_555 1_555
H14 C21 1_555 1_555
H15 C21 1_555 1_555
H16 C21 1_555 1_555
C22 C20 1_555 1_555
H17 C22 1_555 1_555
H18 C22 1_555 1_555
H19 C22 1_555 1_555
C23 C20 1_555 1_555
H20 C23 1_555 1_555
H21 C23 1_555 1_555
H22 C23 1_555 1_555
C24 C3 1_555 1_555
C25 C24 1_555 1_555
H23 C25 1_555 1_555
C26 C25 1_555 1_555
H24 C26 1_555 1_555
C27 C26 1_555 1_555
C28 C27 1_555 1_555
H25 C28 1_555 1_555
C29 C24 1_555 1_555
H26 C29 1_555 1_555
C30 O5 1_555 1_555
C31 C4 1_555 1_555
C32 C31 1_555 1_555
H27 C32 1_555 1_555
C33 C32 1_555 1_555
H28 C33 1_555 1_555
C34 C33 1_555 1_555
C35 C34 1_555 1_555
H29 C35 1_555 1_555
C36 C31 1_555 1_555
H30 C36 1_555 1_555
C37 C34 1_555 1_555
C38 C37 1_555 1_555
H31 C38 1_555 1_555
H32 C38 1_555 1_555
H33 C38 1_555 1_555
C39 C37 1_555 1_555
H34 C39 1_555 1_555
H35 C39 1_555 1_555
H36 C39 1_555 1_555
C40 C37 1_555 1_555
H37 C40 1_555 1_555
H38 C40 1_555 1_555
H39 C40 1_555 1_555
C41 C5 1_555 1_555
C42 C41 1_555 1_555
H40 C42 1_555 1_555
C43 C42 1_555 1_555
H41 C43 1_555 1_555
C44 C43 1_555 1_555
C45 C44 1_555 1_555
H42 C45 1_555 1_555
C46 C41 1_555 1_555
H43 C46 1_555 1_555
C47 O6 1_555 1_555
C48 C6 1_555 1_555
C49 C48 1_555 1_555
H44 C49 1_555 1_555
C50 C49 1_555 1_555
H45 C50 1_555 1_555
C51 C50 1_555 1_555
C52 C51 1_555 1_555
H46 C52 1_555 1_555
C53 C48 1_555 1_555
H47 C53 1_555 1_555
C54 C51 1_555 1_555
C55 C54 1_555 1_555
H48 C55 1_555 1_555
H49 C55 1_555 1_555
H50 C55 1_555 1_555
C56 C54 1_555 1_555
H51 C56 1_555 1_555
H52 C56 1_555 1_555
H53 C56 1_555 1_555
C57 C54 1_555 1_555
H54 C57 1_555 1_555
H55 C57 1_555 1_555
H56 C57 1_555 1_555
O8 H66 1_555 1_555
H67 O8 1_555 1_555
O9 C63 1_555 1_555
C62 H68 1_555 1_555
H69 C62 1_555 1_555
H70 C62 1_555 1_555
C63 C62 1_555 1_555
C64 C63 1_555 1_555
H71 C64 1_555 1_555
H72 C64 1_555 1_555
H73 C64 1_555 1_555
O10 C66 1_555 1_555
C65 H74 1_555 1_555
H75 C65 1_555 1_555
H76 C65 1_555 1_555
C66 C65 1_555 1_555
C67 C66 1_555 1_555
H77 C67 1_555 1_555
H78 C67 1_555 1_555
H79 C67 1_555 1_555
N1 C68 1_555 1_555
N2 C70 1_555 1_555
C68 H80 1_555 1_555
C69 C68 1_555 1_555
H81 C69 1_555 1_555
C70 C69 1_555 1_555
C71 C70 1_555 1_555
H82 C71 1_555 1_555
C72 N1 1_555 1_555
H83 C72 1_555 1_555
N1A C68A 1_555 1_555
N2A N2 1_555 1_555
C68A H80A 1_555 1_555
C69A C68A 1_555 1_555
H81A C69A 1_555 1_555
C70A N2A 1_555 1_555
C71A C70A 1_555 1_555
H82A C71A 1_555 1_555
C72A N1A 1_555 1_555
H83A C72A 1_555 1_555
C10 C13 1_555 1_555
C11 C12 1_555 1_555
C18 C19 1_555 1_555
C27 C30 1_555 1_555
C28 C29 1_555 1_555
C35 C36 1_555 1_555
C44 C47 1_555 1_555
C45 C46 1_555 1_555
C52 C53 1_555 1_555
C71 C72 1_555 1_555
C69A C70A 1_555 1_555
C71A C72A 1_555 1_555

#END
