
#######################################################################
#
#                 Cambridge Crystallographic Data Centre
#                                CCDC 
#
#######################################################################
#
# If this CIF has been generated from an entry in the Cambridge 
# Structural Database, then it will include bibliographic, chemical, 
# crystal, experimental, refinement or atomic coordinate data resulting 
# from the CCDC's data processing and validation procedures.
#
#######################################################################

data_KICYAZ
_chemical_formula_moiety         'C26 H44 O5 Si1'
_chemical_name_systematic        
'dimethyl 2-(2-(1-((t-butyl(dimethyl)silyl)oxy)-3-methyl-2-methylidenebutyl)-3-methylcyclopent-2-en-1-yl)-2-methylcyclopropane-1,1-dicarboxylate'
_symmetry_cell_setting           monoclinic
_symmetry_space_group_name_H-M   'P 21'
_symmetry_Int_Tables_number      4
_space_group_name_Hall           'P 2yb'
loop_
_symmetry_equiv_pos_site_id
_symmetry_equiv_pos_as_xyz
1 x,y,z
2 -x,1/2+y,-z
_cell_length_a                   11.117(14)
_cell_length_b                   8.687(10)
_cell_length_c                   14.567(19)
_cell_angle_alpha                90
_cell_angle_beta                 106.631(14)
_cell_angle_gamma                90
_cell_volume                     1347.94
_exptl_crystal_colour            colorless
_exptl_crystal_description       Prism
_cell_formula_units_Z            2
loop_
_atom_site_label
_atom_site_type_symbol
_atom_site_fract_x
_atom_site_fract_y
_atom_site_fract_z
Si1 Si 0.71871(11) 0.15727(15) 1.01132(9)
O1 O 0.6017(3) -0.1332(4) 0.5300(2)
O2 O 0.7195(3) 0.0404(4) 0.4790(2)
O3 O 0.9076(3) -0.1959(4) 0.5404(2)
O4 O 1.0250(3) -0.1253(4) 0.6870(2)
O5 O 0.7000(2) 0.1285(3) 0.89581(18)
C1 C 0.6626(4) 0.5534(5) 0.8125(3)
H1 H 0.6201 0.5110 0.8572
H2 H 0.6106 0.6344 0.7738
H3 H 0.7438 0.5968 0.8485
C2 C 0.6833(4) 0.4275(5) 0.7478(3)
C3 C 0.7404(4) 0.4671(5) 0.6691(3)
H4 H 0.8309 0.4904 0.6952
H5 H 0.6977 0.5568 0.6318
C4 C 0.7197(4) 0.3203(5) 0.6065(3)
H6 H 0.7952 0.2972 0.5859
H7 H 0.6474 0.3339 0.5488
C5 C 0.6935(4) 0.1875(5) 0.6705(3)
H8 H 0.6183 0.1284 0.6329
C6 C 0.6589(4) 0.2767(5) 0.7499(3)
C7 C 0.8038(4) 0.0766(5) 0.7048(3)
C8 C 0.7747(4) -0.0862(5) 0.7272(3)
H9 H 0.6865 -0.1108 0.7236
H10 H 0.8381 -0.1406 0.7787
C9 C 0.9268(4) 0.1499(6) 0.7634(3)
H11 H 0.9131 0.2037 0.8187
H12 H 0.9558 0.2235 0.7233
H13 H 0.9904 0.0696 0.7857
C10 C 0.8057(4) -0.0584(5) 0.6330(3)
C11 C 0.6971(4) -0.0590(6) 0.5432(3)
C12 C 0.6129(5) 0.0716(6) 0.3943(3)
H14 H 0.5757 -0.0260 0.3662
H15 H 0.6424 0.1291 0.3470
H16 H 0.5497 0.1325 0.4132
C13 C 0.9259(4) -0.1247(5) 0.6259(3)
C14 C 1.0160(5) -0.2771(7) 0.5269(4)
H17 H 1.0857 -0.2047 0.5342
H18 H 0.9941 -0.3224 0.4627
H19 H 1.0412 -0.3589 0.5750
C15 C 0.6021(4) 0.1981(5) 0.8205(3)
H20 H 0.5627 0.2801 0.8505
C16 C 0.4989(4) 0.0835(5) 0.7732(3)
C17 C 0.5017(4) -0.0599(5) 0.8048(3)
H21 H 0.4354 -0.1289 0.7758
H22 H 0.5700 -0.0937 0.8565
C18 C 0.3928(4) 0.1463(5) 0.6907(3)
H23 H 0.4312 0.2200 0.6544
C19 C 0.3221(5) 0.0259(6) 0.6196(3)
H24 H 0.3821 -0.0352 0.5969
H25 H 0.2634 0.0773 0.5650
H26 H 0.2755 -0.0419 0.6510
C20 C 0.3001(5) 0.2390(7) 0.7303(3)
H27 H 0.2383 0.2900 0.6773
H28 H 0.3463 0.3167 0.7756
H29 H 0.2568 0.1692 0.7632
C21 C 0.7661(5) 0.3593(6) 1.0484(3)
H30 H 0.8365 0.3892 1.0243
H31 H 0.7917 0.3663 1.1185
H32 H 0.6950 0.4285 1.0220
C22 C 0.5702(4) 0.1143(6) 1.0408(3)
H33 H 0.5015 0.1736 0.9985
H34 H 0.5793 0.1426 1.1076
H35 H 0.5517 0.0041 1.0320
C23 C 0.8463(4) 0.0188(6) 1.0730(3)
C24 C 0.8063(5) -0.1486(6) 1.0411(3)
H36 H 0.7959 -0.1591 0.9722
H37 H 0.7267 -0.1720 1.0543
H38 H 0.8711 -0.2202 1.0765
C25 C 0.8724(4) 0.0333(6) 1.1827(3)
H39 H 0.9348 -0.0438 1.2146
H40 H 0.7945 0.0162 1.1999
H41 H 0.9047 0.1365 1.2032
C26 C 0.9692(4) 0.0561(7) 1.0481(4)
H42 H 1.0346 -0.0170 1.0808
H43 H 0.9960 0.1610 1.0690
H44 H 0.9549 0.0478 0.9787
loop_
_geom_bond_atom_site_label_1
_geom_bond_atom_site_label_2
_geom_bond_site_symmetry_1
_geom_bond_site_symmetry_2
Si1 O5 1_555 1_555
O1 C11 1_555 1_555
O2 C11 1_555 1_555
O3 C13 1_555 1_555
O4 C13 1_555 1_555
O5 C15 1_555 1_555
C1 H1 1_555 1_555
H2 C1 1_555 1_555
H3 C1 1_555 1_555
C2 C1 1_555 1_555
C3 C2 1_555 1_555
H4 C3 1_555 1_555
H5 C3 1_555 1_555
C4 C3 1_555 1_555
H6 C4 1_555 1_555
H7 C4 1_555 1_555
C5 C4 1_555 1_555
H8 C5 1_555 1_555
C6 C2 1_555 1_555
C7 C5 1_555 1_555
C8 C7 1_555 1_555
H9 C8 1_555 1_555
H10 C8 1_555 1_555
C9 C7 1_555 1_555
H11 C9 1_555 1_555
H12 C9 1_555 1_555
H13 C9 1_555 1_555
C10 C7 1_555 1_555
C11 C10 1_555 1_555
C12 O2 1_555 1_555
H14 C12 1_555 1_555
H15 C12 1_555 1_555
H16 C12 1_555 1_555
C13 C10 1_555 1_555
C14 O3 1_555 1_555
H17 C14 1_555 1_555
H18 C14 1_555 1_555
H19 C14 1_555 1_555
C15 C6 1_555 1_555
H20 C15 1_555 1_555
C16 C15 1_555 1_555
C17 C16 1_555 1_555
H21 C17 1_555 1_555
H22 C17 1_555 1_555
C18 C16 1_555 1_555
H23 C18 1_555 1_555
C19 C18 1_555 1_555
H24 C19 1_555 1_555
H25 C19 1_555 1_555
H26 C19 1_555 1_555
C20 C18 1_555 1_555
H27 C20 1_555 1_555
H28 C20 1_555 1_555
H29 C20 1_555 1_555
C21 Si1 1_555 1_555
H30 C21 1_555 1_555
H31 C21 1_555 1_555
H32 C21 1_555 1_555
C22 Si1 1_555 1_555
H33 C22 1_555 1_555
H34 C22 1_555 1_555
H35 C22 1_555 1_555
C23 Si1 1_555 1_555
C24 C23 1_555 1_555
H36 C24 1_555 1_555
H37 C24 1_555 1_555
H38 C24 1_555 1_555
C25 C23 1_555 1_555
H39 C25 1_555 1_555
H40 C25 1_555 1_555
H41 C25 1_555 1_555
C26 C23 1_555 1_555
H42 C26 1_555 1_555
H43 C26 1_555 1_555
H44 C26 1_555 1_555
C5 C6 1_555 1_555
C8 C10 1_555 1_555

#END
