
#######################################################################
#
#                 Cambridge Crystallographic Data Centre
#                                CCDC 
#
#######################################################################
#
# If this CIF has been generated from an entry in the Cambridge 
# Structural Database, then it will include bibliographic, chemical, 
# crystal, experimental, refinement or atomic coordinate data resulting 
# from the CCDC's data processing and validation procedures.
#
#######################################################################

data_KICZED
_chemical_formula_moiety         'C84 H59 F20 N4 S24'
_chemical_name_systematic        
6,14,22,30-tetrakis(4,5-bis(Propylsulfanyl)-1,3-dithiol-2-ylidene)-2,10,18,26-tetrakis(2,3,4,5,6-pentafluorocyclohexa-2,5-dien-1-ylidene)-5,7,13,15,21,23,29,31-octathia-33,34,35,36-tetra-azanonacyclo[25.5.1.1^3,9^.1^11,17^.1^19,25^.0^4,8^.0^12,16^.0^20,24^.0^28,32^]hexatriaconta-1(32),3,8,11,16,19,24,27-octaene
_symmetry_cell_setting           tetragonal
_symmetry_space_group_name_H-M   'P -4 21 c'
_symmetry_Int_Tables_number      114
_space_group_name_Hall           'P -4 2n'
loop_
_symmetry_equiv_pos_site_id
_symmetry_equiv_pos_as_xyz
1 x,y,z
2 -x,-y,z
3 1/2+x,1/2-y,1/2-z
4 1/2-x,1/2+y,1/2-z
5 1/2+y,1/2+x,1/2+z
6 1/2-y,1/2-x,1/2+z
7 -y,x,-z
8 y,-x,-z
_cell_length_a                   24.178(3)
_cell_length_b                   24.178(3)
_cell_length_c                   9.0076(14)
_cell_angle_alpha                90
_cell_angle_beta                 90
_cell_angle_gamma                90
_cell_volume                     5265.62
_exptl_crystal_colour            black
_exptl_crystal_description       prisms
_chemical_melting_point          'below 473 K'
_cell_formula_units_Z            2
loop_
_atom_site_label
_atom_site_type_symbol
_atom_site_fract_x
_atom_site_fract_y
_atom_site_fract_z
C1 C 0.08416(13) 1.09607(13) -0.0002(5)
C2 C 0.14280(13) 1.10668(13) 0.0096(5)
C3 C 0.16880(13) 1.05693(14) 0.0256(4)
C4 C 0.12663(14) 1.01426(13) 0.0179(4)
C5 C 0.13646(13) 0.95760(13) 0.0142(4)
C6 C 0.24570(14) 1.12921(14) 0.0445(5)
C7 C 0.29528(15) 1.15343(15) 0.0698(5)
C8 C 0.37963(15) 1.21970(16) 0.1002(5)
C9 C 0.39999(16) 1.16926(17) 0.1290(5)
C10 C 0.19505(13) 0.93860(13) 0.0167(5)
C11 C 0.22421(16) 0.93138(14) -0.1326(5)
C12 C 0.27789(17) 0.91191(16) -0.1338(6)
C13 C 0.30329(15) 0.89980(17) 0.0144(6)
C14 C 0.27604(17) 0.90573(17) 0.1637(6)
C15 C 0.22192(15) 0.92591(15) 0.1643(5)
C16 C 0.38620(19) 1.32708(18) -0.0266(6)
H1 H 0.3768 1.3063 -0.1178
H2 H 0.3516 1.3423 0.0156
C17 C 0.4263(2) 1.3747(2) -0.0647(7)
H3 H 0.4074 1.4016 -0.1300
H4 H 0.4586 1.3597 -0.1192
C18 C 0.4474(2) 1.4057(2) 0.0840(6)
H5 H 0.4675 1.3794 0.1468
H6 H 0.4154 1.4202 0.1386
H7 H 0.4719 1.4363 0.0568
C19 C 0.50011(16) 1.14373(19) -0.0215(6)
H8 H 0.4861 1.1741 -0.0850
H9 H 0.5407 1.1482 -0.0150
C20 C 0.4888(2) 1.0891(2) -0.1031(7)
H10 H 0.4484 1.0854 -0.1181
H11 H 0.5008 1.0581 -0.0390
C21 C 0.5197(2) 1.0833(3) -0.2656(8)
H12 H 0.5597 1.0803 -0.2508
H13 H 0.5116 1.1160 -0.3261
H14 H 0.5062 1.0501 -0.3165
N1 N 0.07575(11) 1.03998(11) 0.0049(4)
F1 F 0.19967(10) 0.94152(10) -0.2777(3)
F2 F 0.30465(11) 0.90332(11) -0.2772(3)
F3 F 0.35588(10) 0.88082(12) 0.0145(4)
F4 F 0.29977(11) 0.89144(13) 0.3072(4)
F5 F 0.19575(10) 0.93154(10) 0.3099(3)
S1 S 0.18360(3) 1.16622(3) 0.00913(13)
S2 S 0.23999(3) 1.05592(3) 0.05170(12)
S3 S 0.30775(4) 1.22481(4) 0.05912(16)
S4 S 0.35381(4) 1.11336(4) 0.12043(16)
S5 S 0.42015(4) 1.27947(5) 0.11208(15)
S6 S 0.46915(4) 1.15514(5) 0.18281(14)
C1F C -0.09607(13) 1.08416(13) 0.0002(5)
C2F C -0.10668(13) 1.14280(13) -0.0096(5)
C3F C -0.05693(14) 1.16880(13) -0.0256(4)
C4F C -0.01426(13) 1.12663(14) -0.0179(4)
C5F C 0.04240(13) 1.13646(13) -0.0142(4)
C6F C -0.12921(14) 1.24570(14) -0.0445(5)
C7F C -0.15343(15) 1.29528(15) -0.0698(5)
C8F C -0.21970(16) 1.37963(15) -0.1002(5)
C9F C -0.16926(17) 1.39999(16) -0.1290(5)
C10F C 0.06140(13) 1.19505(13) -0.0167(5)
C11F C 0.06862(14) 1.22421(16) 0.1326(5)
C12F C 0.08809(16) 1.27789(17) 0.1338(6)
C13F C 0.10020(17) 1.30329(15) -0.0144(6)
C14F C 0.09427(17) 1.27604(17) -0.1637(6)
C15F C 0.07409(15) 1.22192(15) -0.1643(5)
C16F C -0.32708(18) 1.38620(19) 0.0266(6)
H1F H -0.3063 1.3768 0.1178
H2F H -0.3423 1.3516 -0.0156
C17F C -0.3747(2) 1.4263(2) 0.0647(7)
H3F H -0.4016 1.4074 0.1300
H4F H -0.3597 1.4586 0.1192
C18F C -0.4057(2) 1.4474(2) -0.0840(6)
H5F H -0.3794 1.4675 -0.1468
H6F H -0.4202 1.4154 -0.1386
H7F H -0.4363 1.4719 -0.0568
C19F C -0.14373(19) 1.50011(16) 0.0215(6)
H8F H -0.1741 1.4861 0.0850
H9F H -0.1482 1.5407 0.0150
C20F C -0.0891(2) 1.4888(2) 0.1031(7)
H10F H -0.0854 1.4484 0.1181
H11F H -0.0581 1.5008 0.0390
C21F C -0.0833(3) 1.5197(2) 0.2656(8)
H12F H -0.0803 1.5597 0.2508
H13F H -0.1160 1.5116 0.3261
H14F H -0.0501 1.5062 0.3165
N1F N -0.03998(11) 1.07575(11) -0.0049(4)
F1F F 0.05848(10) 1.19967(10) 0.2777(3)
F2F F 0.09668(11) 1.30465(11) 0.2772(3)
F3F F 0.11918(12) 1.35588(10) -0.0145(4)
F4F F 0.10856(13) 1.29977(11) -0.3072(4)
F5F F 0.06846(10) 1.19575(10) -0.3099(3)
S1F S -0.16622(3) 1.18360(3) -0.00913(13)
S2F S -0.05592(3) 1.23999(3) -0.05170(12)
S3F S -0.22481(4) 1.30775(4) -0.05912(16)
S4F S -0.11336(4) 1.35381(4) -0.12043(16)
S5F S -0.27947(5) 1.42015(4) -0.11208(15)
S6F S -0.15514(5) 1.46915(4) -0.18281(14)
C1G C 0.09607(13) 0.91584(13) 0.0002(5)
C2G C 0.10668(13) 0.85720(13) -0.0096(5)
C3G C 0.05693(14) 0.83120(13) -0.0256(4)
C4G C 0.01426(13) 0.87337(14) -0.0179(4)
C5G C -0.04240(13) 0.86354(13) -0.0142(4)
C6G C 0.12921(14) 0.75430(14) -0.0445(5)
C7G C 0.15343(15) 0.70472(15) -0.0698(5)
C8G C 0.21970(16) 0.62037(15) -0.1002(5)
C9G C 0.16926(17) 0.60001(16) -0.1290(5)
C10G C -0.06140(13) 0.80495(13) -0.0167(5)
C11G C -0.06862(14) 0.77579(16) 0.1326(5)
C12G C -0.08809(16) 0.72211(17) 0.1338(6)
C13G C -0.10020(17) 0.69671(15) -0.0144(6)
C14G C -0.09427(17) 0.72396(17) -0.1637(6)
C15G C -0.07409(15) 0.77808(15) -0.1643(5)
C16G C 0.32708(18) 0.61380(19) 0.0266(6)
H1G H 0.3063 0.6232 0.1178
H2G H 0.3423 0.6484 -0.0156
C17G C 0.3747(2) 0.5737(2) 0.0647(7)
H3G H 0.4016 0.5926 0.1300
H4G H 0.3597 0.5414 0.1192
C18G C 0.4057(2) 0.5526(2) -0.0840(6)
H5G H 0.3794 0.5325 -0.1468
H6G H 0.4202 0.5846 -0.1386
H7G H 0.4363 0.5281 -0.0568
C19G C 0.14373(19) 0.49989(16) 0.0215(6)
H8G H 0.1741 0.5139 0.0850
H9G H 0.1482 0.4593 0.0150
C20G C 0.0891(2) 0.5112(2) 0.1031(7)
H10G H 0.0854 0.5516 0.1181
H11G H 0.0581 0.4992 0.0390
C21G C 0.0833(3) 0.4803(2) 0.2656(8)
H12G H 0.0803 0.4403 0.2508
H13G H 0.1160 0.4884 0.3261
H14G H 0.0501 0.4938 0.3165
N1G N 0.03998(11) 0.92425(11) -0.0049(4)
F1G F -0.05848(10) 0.80033(10) 0.2777(3)
F2G F -0.09668(11) 0.69535(11) 0.2772(3)
F3G F -0.11918(12) 0.64412(10) -0.0145(4)
F4G F -0.10856(13) 0.70023(11) -0.3072(4)
F5G F -0.06846(10) 0.80425(10) -0.3099(3)
S1G S 0.16622(3) 0.81640(3) -0.00913(13)
S2G S 0.05592(3) 0.76001(3) -0.05170(12)
S3G S 0.22481(4) 0.69225(4) -0.05912(16)
S4G S 0.11336(4) 0.64619(4) -0.12043(16)
S5G S 0.27947(5) 0.57985(4) -0.11208(15)
S6G S 0.15514(5) 0.53085(4) -0.18281(14)
C1A C -0.08416(13) 0.90393(13) -0.0002(5)
C2A C -0.14280(13) 0.89332(13) 0.0096(5)
C3A C -0.16880(13) 0.94307(14) 0.0256(4)
C4A C -0.12663(14) 0.98574(13) 0.0179(4)
C5A C -0.13646(13) 1.04240(13) 0.0142(4)
C6A C -0.24570(14) 0.87079(14) 0.0445(5)
C7A C -0.29528(15) 0.84657(15) 0.0698(5)
C8A C -0.37963(15) 0.78030(16) 0.1002(5)
C9A C -0.39999(16) 0.83074(17) 0.1290(5)
C10A C -0.19505(13) 1.06140(13) 0.0167(5)
C11A C -0.22421(16) 1.06862(14) -0.1326(5)
C12A C -0.27789(17) 1.08809(16) -0.1338(6)
C13A C -0.30329(15) 1.10020(17) 0.0144(6)
C14A C -0.27604(17) 1.09427(17) 0.1637(6)
C15A C -0.22192(15) 1.07409(15) 0.1643(5)
C16A C -0.38620(19) 0.67292(18) -0.0266(6)
H1A H -0.3768 0.6937 -0.1178
H2A H -0.3516 0.6577 0.0156
C17A C -0.4263(2) 0.6253(2) -0.0647(7)
H3A H -0.4074 0.5984 -0.1300
H4A H -0.4586 0.6403 -0.1192
C18A C -0.4474(2) 0.5943(2) 0.0840(6)
H5A H -0.4675 0.6206 0.1468
H6A H -0.4154 0.5798 0.1386
H7A H -0.4719 0.5637 0.0568
C19A C -0.50011(16) 0.85627(19) -0.0215(6)
H8A H -0.4861 0.8259 -0.0850
H9A H -0.5407 0.8518 -0.0150
C20A C -0.4888(2) 0.9109(2) -0.1031(7)
H10A H -0.4484 0.9146 -0.1181
H11A H -0.5008 0.9419 -0.0390
C21A C -0.5197(2) 0.9167(3) -0.2656(8)
H12A H -0.5597 0.9197 -0.2508
H13A H -0.5116 0.8840 -0.3261
H14A H -0.5062 0.9499 -0.3165
N1A N -0.07575(11) 0.96002(11) 0.0049(4)
F1A F -0.19967(10) 1.05848(10) -0.2777(3)
F2A F -0.30465(11) 1.09668(11) -0.2772(3)
F3A F -0.35588(10) 1.11918(12) 0.0145(4)
F4A F -0.29977(11) 1.10856(13) 0.3072(4)
F5A F -0.19575(10) 1.06846(10) 0.3099(3)
S1A S -0.18360(3) 0.83378(3) 0.00913(13)
S2A S -0.23999(3) 0.94408(3) 0.05170(12)
S3A S -0.30775(4) 0.77519(4) 0.05912(16)
S4A S -0.35381(4) 0.88664(4) 0.12043(16)
S5A S -0.42015(4) 0.72053(5) 0.11208(15)
S6A S -0.46915(4) 0.84486(5) 0.18281(14)
H15? H 0.0435 1.0232 0.0006
loop_
_geom_bond_atom_site_label_1
_geom_bond_atom_site_label_2
_geom_bond_site_symmetry_1
_geom_bond_site_symmetry_2
C1 C2 1_555 1_555
C2 C3 1_555 1_555
C3 C4 1_555 1_555
C4 C5 1_555 1_555
C5 C10 1_555 1_555
C6 C7 1_555 1_555
C7 S3 1_555 1_555
C8 C9 1_555 1_555
C9 S4 1_555 1_555
C10 C11 1_555 1_555
C11 C12 1_555 1_555
C12 C13 1_555 1_555
C13 C14 1_555 1_555
C14 C15 1_555 1_555
C15 C10 1_555 1_555
C16 H1 1_555 1_555
H2 C16 1_555 1_555
C17 C16 1_555 1_555
H3 C17 1_555 1_555
H4 C17 1_555 1_555
C18 C17 1_555 1_555
H5 C18 1_555 1_555
H6 C18 1_555 1_555
H7 C18 1_555 1_555
C19 H8 1_555 1_555
H9 C19 1_555 1_555
C20 C19 1_555 1_555
H10 C20 1_555 1_555
H11 C20 1_555 1_555
C21 C20 1_555 1_555
H12 C21 1_555 1_555
H13 C21 1_555 1_555
H14 C21 1_555 1_555
N1 C1 1_555 1_555
F1 C11 1_555 1_555
F2 C12 1_555 1_555
F3 C13 1_555 1_555
F4 C14 1_555 1_555
F5 C15 1_555 1_555
S1 C2 1_555 1_555
S2 C3 1_555 1_555
S3 C8 1_555 1_555
S4 C7 1_555 1_555
S5 C8 1_555 1_555
S6 C9 1_555 1_555
C1F C2F 1_555 1_555
C2F C3F 1_555 1_555
C3F C4F 1_555 1_555
C4F C5F 1_555 1_555
C5F C1 1_555 1_555
C6F C7F 1_555 1_555
C7F S3F 1_555 1_555
C8F C9F 1_555 1_555
C9F S4F 1_555 1_555
C10F C5F 1_555 1_555
C11F C10F 1_555 1_555
C12F C11F 1_555 1_555
C13F C12F 1_555 1_555
C14F C13F 1_555 1_555
C15F C10F 1_555 1_555
C16F H1F 1_555 1_555
H2F C16F 1_555 1_555
C17F C16F 1_555 1_555
H3F C17F 1_555 1_555
H4F C17F 1_555 1_555
C18F C17F 1_555 1_555
H5F C18F 1_555 1_555
H6F C18F 1_555 1_555
H7F C18F 1_555 1_555
C19F H8F 1_555 1_555
H9F C19F 1_555 1_555
C20F C19F 1_555 1_555
H10F C20F 1_555 1_555
H11F C20F 1_555 1_555
C21F C20F 1_555 1_555
H12F C21F 1_555 1_555
H13F C21F 1_555 1_555
H14F C21F 1_555 1_555
N1F C1F 1_555 1_555
F1F C11F 1_555 1_555
F2F C12F 1_555 1_555
F3F C13F 1_555 1_555
F4F C14F 1_555 1_555
F5F C15F 1_555 1_555
S1F C2F 1_555 1_555
S2F C3F 1_555 1_555
S3F C8F 1_555 1_555
S4F C7F 1_555 1_555
S5F C8F 1_555 1_555
S6F C9F 1_555 1_555
C1G C5 1_555 1_555
C2G C1G 1_555 1_555
C3G C2G 1_555 1_555
C4G C3G 1_555 1_555
C5G C4G 1_555 1_555
C6G C7G 1_555 1_555
C7G S3G 1_555 1_555
C8G C9G 1_555 1_555
C9G S4G 1_555 1_555
C10G C5G 1_555 1_555
C11G C10G 1_555 1_555
C12G C11G 1_555 1_555
C13G C12G 1_555 1_555
C14G C13G 1_555 1_555
C15G C10G 1_555 1_555
C16G H1G 1_555 1_555
H2G C16G 1_555 1_555
C17G C16G 1_555 1_555
H3G C17G 1_555 1_555
H4G C17G 1_555 1_555
C18G C17G 1_555 1_555
H5G C18G 1_555 1_555
H6G C18G 1_555 1_555
H7G C18G 1_555 1_555
C19G H8G 1_555 1_555
H9G C19G 1_555 1_555
C20G C19G 1_555 1_555
H10G C20G 1_555 1_555
H11G C20G 1_555 1_555
C21G C20G 1_555 1_555
H12G C21G 1_555 1_555
H13G C21G 1_555 1_555
H14G C21G 1_555 1_555
N1G C1G 1_555 1_555
F1G C11G 1_555 1_555
F2G C12G 1_555 1_555
F3G C13G 1_555 1_555
F4G C14G 1_555 1_555
F5G C15G 1_555 1_555
S1G C2G 1_555 1_555
S2G C3G 1_555 1_555
S3G C8G 1_555 1_555
S4G C7G 1_555 1_555
S5G C8G 1_555 1_555
S6G C9G 1_555 1_555
C1A C5G 1_555 1_555
C2A C1A 1_555 1_555
C3A C2A 1_555 1_555
C4A C3A 1_555 1_555
C5A C1F 1_555 1_555
C6A C7A 1_555 1_555
C7A S3A 1_555 1_555
C8A C9A 1_555 1_555
C9A S4A 1_555 1_555
C10A C5A 1_555 1_555
C11A C10A 1_555 1_555
C12A C11A 1_555 1_555
C13A C12A 1_555 1_555
C14A C13A 1_555 1_555
C15A C10A 1_555 1_555
C16A H1A 1_555 1_555
H2A C16A 1_555 1_555
C17A C16A 1_555 1_555
H3A C17A 1_555 1_555
H4A C17A 1_555 1_555
C18A C17A 1_555 1_555
H5A C18A 1_555 1_555
H6A C18A 1_555 1_555
H7A C18A 1_555 1_555
C19A H8A 1_555 1_555
H9A C19A 1_555 1_555
C20A C19A 1_555 1_555
H10A C20A 1_555 1_555
H11A C20A 1_555 1_555
C21A C20A 1_555 1_555
H12A C21A 1_555 1_555
H13A C21A 1_555 1_555
H14A C21A 1_555 1_555
N1A C1A 1_555 1_555
F1A C11A 1_555 1_555
F2A C12A 1_555 1_555
F3A C13A 1_555 1_555
F4A C14A 1_555 1_555
F5A C15A 1_555 1_555
S1A C2A 1_555 1_555
S2A C3A 1_555 1_555
S3A C8A 1_555 1_555
S4A C7A 1_555 1_555
S5A C8A 1_555 1_555
S6A C9A 1_555 1_555
C4 N1 1_555 1_555
C6 S1 1_555 1_555
C6 S2 1_555 1_555
C16 S5 1_555 1_555
C19 S6 1_555 1_555
C4F N1F 1_555 1_555
C6F S1F 1_555 1_555
C6F S2F 1_555 1_555
C14F C15F 1_555 1_555
C16F S5F 1_555 1_555
C19F S6F 1_555 1_555
C4G N1G 1_555 1_555
C6G S1G 1_555 1_555
C6G S2G 1_555 1_555
C14G C15G 1_555 1_555
C16G S5G 1_555 1_555
C19G S6G 1_555 1_555
C4A C5A 1_555 1_555
C4A N1A 1_555 1_555
C6A S1A 1_555 1_555
C6A S2A 1_555 1_555
C14A C15A 1_555 1_555
C16A S5A 1_555 1_555
C19A S6A 1_555 1_555

#END
