
#######################################################################
#
#                 Cambridge Crystallographic Data Centre
#                                CCDC 
#
#######################################################################
#
# If this CIF has been generated from an entry in the Cambridge 
# Structural Database, then it will include bibliographic, chemical, 
# crystal, experimental, refinement or atomic coordinate data resulting 
# from the CCDC's data processing and validation procedures.
#
#######################################################################

data_KIDBOR
_chemical_formula_moiety         'C15 H24 O3'
_chemical_name_systematic        
1,4-dimethyl-7-isopropyl-2,3,3a,4,5,6,7,8-octahydro-4,7-epoxyazulene-5,8-diol
_symmetry_cell_setting           trigonal
_symmetry_space_group_name_H-M   'P 31 2 1'
_symmetry_Int_Tables_number      152
_space_group_name_Hall           'P 31 2"'
loop_
_symmetry_equiv_pos_site_id
_symmetry_equiv_pos_as_xyz
1 x,y,z
2 -y,x-y,1/3+z
3 -x+y,-x,2/3+z
4 y,x,-z
5 x-y,-y,2/3-z
6 -x,-x+y,1/3-z
_cell_length_a                   10.81960(9)
_cell_length_b                   10.81960(9)
_cell_length_c                   21.22032(19)
_cell_angle_alpha                90
_cell_angle_beta                 90
_cell_angle_gamma                120
_cell_volume                     2151.32
_exptl_crystal_colour            colorless
_exptl_crystal_description       block
_chemical_melting_point          '132-133 deg.C'
_cell_formula_units_Z            6
loop_
_atom_site_label
_atom_site_type_symbol
_atom_site_fract_x
_atom_site_fract_y
_atom_site_fract_z
O1 O 0.6920(3) 0.2848(4) 0.70773(11)
O2 O 0.5781(2) 0.1121(2) 0.46837(8)
O3 O 0.82889(18) 0.34854(19) 0.54679(8)
C1 C 0.7860(3) 0.2990(4) 0.65771(12)
H1 H 0.8806 0.3803 0.6670
C2 C 0.7301(3) 0.3316(3) 0.59633(12)
C3 C 0.5907(3) 0.1995(3) 0.57594(13)
H2 H 0.5416 0.1404 0.6121
H3 H 0.5282 0.2273 0.5555
C4 C 0.6333(3) 0.1190(3) 0.53023(10)
H4 H 0.6005 0.0224 0.5461
C5 C 0.7986(3) 0.2064(3) 0.53060(11)
C6 C 0.8591(3) 0.1592(4) 0.58489(14)
H5 H 0.9625 0.2243 0.5858
C7 C 0.8007(3) 0.1698(4) 0.64748(13)
C8 C 0.7676(5) 0.0560(5) 0.6848(2)
C9 C 0.7937(7) -0.0500(6) 0.6525(3)
H6 H 0.7086 -0.1437 0.6530
H7 H 0.8710 -0.0562 0.6725
C10 C 0.8337(6) 0.0066(6) 0.5846(2)
H8 H 0.9193 0.0063 0.5714
H9 H 0.7569 -0.0527 0.5558
C11 C 0.7223(5) 0.4679(5) 0.6013(2)
H10 H 0.6410 0.4473 0.6284
C12 C 0.8465(8) 0.5938(6) 0.6266(3)
H11 H 0.8710 0.5712 0.6668
H12 H 0.8249 0.6692 0.6317
H13 H 0.9254 0.6240 0.5982
C13 C 0.6902(9) 0.5078(8) 0.5340(3)
H14 H 0.7775 0.5579 0.5106
H15 H 0.6485 0.5675 0.5387
H16 H 0.6250 0.4222 0.5120
C14 C 0.8699(3) 0.2147(4) 0.46792(15)
H17 H 0.8435 0.2636 0.4378
H18 H 0.8398 0.1200 0.4531
H19 H 0.9717 0.2658 0.4733
C15 C 0.7211(7) 0.0332(8) 0.7527(3)
H20 H 0.7873 0.1140 0.7772
H21 H 0.7186 -0.0513 0.7683
H22 H 0.6277 0.0224 0.7559
H23 H 0.501(5) 0.032(5) 0.4657(19)
H24 H 0.753(8) 0.353(7) 0.729(3)
loop_
_geom_bond_atom_site_label_1
_geom_bond_atom_site_label_2
_geom_bond_site_symmetry_1
_geom_bond_site_symmetry_2
O1 C1 1_555 1_555
O2 C4 1_555 1_555
O3 C2 1_555 1_555
C1 H1 1_555 1_555
C2 C1 1_555 1_555
C3 C2 1_555 1_555
H2 C3 1_555 1_555
H3 C3 1_555 1_555
C4 C3 1_555 1_555
H4 C4 1_555 1_555
C5 O3 1_555 1_555
C6 C5 1_555 1_555
H5 C6 1_555 1_555
C7 C1 1_555 1_555
C8 C7 1_555 1_555
C9 C8 1_555 1_555
H6 C9 1_555 1_555
H7 C9 1_555 1_555
C10 C6 1_555 1_555
H8 C10 1_555 1_555
H9 C10 1_555 1_555
C11 C2 1_555 1_555
H10 C11 1_555 1_555
C12 C11 1_555 1_555
H11 C12 1_555 1_555
H12 C12 1_555 1_555
H13 C12 1_555 1_555
C13 C11 1_555 1_555
H14 C13 1_555 1_555
H15 C13 1_555 1_555
H16 C13 1_555 1_555
C14 C5 1_555 1_555
H17 C14 1_555 1_555
H18 C14 1_555 1_555
H19 C14 1_555 1_555
C15 C8 1_555 1_555
H20 C15 1_555 1_555
H21 C15 1_555 1_555
H22 C15 1_555 1_555
H23 O2 1_555 1_555
H24 O1 1_555 1_555
C4 C5 1_555 1_555
C6 C7 1_555 1_555
C9 C10 1_555 1_555

#END
