
#######################################################################
#
#                 Cambridge Crystallographic Data Centre
#                                CCDC 
#
#######################################################################
#
# If this CIF has been generated from an entry in the Cambridge 
# Structural Database, then it will include bibliographic, chemical, 
# crystal, experimental, refinement or atomic coordinate data resulting 
# from the CCDC's data processing and validation procedures.
#
#######################################################################

data_KIDDAE
_chemical_formula_moiety         'C28 H12 F12 N2'
_chemical_name_systematic        
3,3'-(1,4-Phenylene)bis(2-(3,5-bis(trifluoromethyl)phenyl)acrylonitrile)
_symmetry_cell_setting           monoclinic
_symmetry_space_group_name_H-M   'P 21/c'
_symmetry_Int_Tables_number      14
_space_group_name_Hall           '-P 2ybc'
loop_
_symmetry_equiv_pos_site_id
_symmetry_equiv_pos_as_xyz
1 x,y,z
2 -x,1/2+y,1/2-z
3 -x,-y,-z
4 x,1/2-y,1/2+z
_cell_length_a                   12.4362(16)
_cell_length_b                   5.8921(9)
_cell_length_c                   16.949(2)
_cell_angle_alpha                90
_cell_angle_beta                 103.222(9)
_cell_angle_gamma                90
_cell_volume                     1209.02
_exptl_crystal_colour            green
_cell_formula_units_Z            2
loop_
_atom_site_label
_atom_site_type_symbol
_atom_site_fract_x
_atom_site_fract_y
_atom_site_fract_z
F1 F 0.6932(2) -0.1390(4) 0.57957(14)
F2 F 0.77532(18) 0.1628(4) 0.55989(12)
F3 F 0.60118(19) 0.1643(5) 0.54546(12)
F4 F 0.58536(17) -0.2714(4) 0.83401(14)
F5 F 0.50376(16) 0.0316(4) 0.85494(15)
F6 F 0.65559(18) -0.0647(4) 0.93422(12)
N1 N 0.9297(2) 0.8119(5) 0.72162(15)
C1 C 1.0148(2) 0.9905(5) 1.08338(17)
H1 H 1.0247 0.9815 1.1406
C2 C 0.9561(2) 0.8246(5) 1.03531(16)
H2 H 0.9255 0.7040 1.0603
C3 C 0.9394(2) 0.8262(5) 0.95078(16)
C4 C 0.8759(2) 0.6419(5) 0.90651(16)
H3 H 0.8446 0.5427 0.9394
C5 C 0.8526(2) 0.5841(5) 0.82704(16)
C6 C 0.8970(2) 0.7148(5) 0.76950(17)
C7 C 0.7834(2) 0.3894(5) 0.79255(17)
C8 C 0.7714(2) 0.3291(5) 0.71100(16)
H4 H 0.8075 0.4158 0.6775
C9 C 0.7077(2) 0.1449(6) 0.67900(17)
C10 C 0.6522(2) 0.0156(6) 0.72537(18)
H5 H 0.6077 -0.1096 0.7026
C11 C 0.6638(2) 0.0752(5) 0.80626(18)
C12 C 0.7274(2) 0.2578(5) 0.83907(17)
H6 H 0.7334 0.2954 0.8944
C13 C 0.6938(3) 0.0853(7) 0.5910(2)
C14 C 0.6022(3) -0.0557(6) 0.8573(2)
F1B F 1.3068(2) 2.1390(4) 1.42043(14)
F2B F 1.22468(18) 1.8372(4) 1.44011(12)
F3B F 1.39882(19) 1.8357(5) 1.45454(12)
F4B F 1.41464(17) 2.2714(4) 1.16599(14)
F5B F 1.49624(16) 1.9684(4) 1.14506(15)
F6B F 1.34441(18) 2.0647(4) 1.06578(12)
N1B N 1.0703(2) 1.1881(5) 1.27838(15)
C1B C 0.9852(2) 1.0095(5) 0.91662(17)
H1B H 0.9753 1.0185 0.8594
C2B C 1.0439(2) 1.1754(5) 0.96469(16)
H2B H 1.0745 1.2960 0.9397
C3B C 1.0606(2) 1.1738(5) 1.04922(16)
C4B C 1.1241(2) 1.3581(5) 1.09349(16)
H3B H 1.1554 1.4573 1.0606
C5B C 1.1474(2) 1.4159(5) 1.17296(16)
C6B C 1.1030(2) 1.2852(5) 1.23050(17)
C7B C 1.2166(2) 1.6106(5) 1.20745(17)
C8B C 1.2286(2) 1.6709(5) 1.28900(16)
H4B H 1.1925 1.5842 1.3225
C9B C 1.2923(2) 1.8551(6) 1.32100(17)
C10B C 1.3478(2) 1.9844(6) 1.27463(18)
H5B H 1.3923 2.1096 1.2974
C11B C 1.3362(2) 1.9248(5) 1.19374(18)
C12B C 1.2726(2) 1.7422(5) 1.16093(17)
H6B H 1.2666 1.7046 1.1056
C13B C 1.3062(3) 1.9147(7) 1.4090(2)
C14B C 1.3978(3) 2.0557(6) 1.1427(2)
loop_
_geom_bond_atom_site_label_1
_geom_bond_atom_site_label_2
_geom_bond_site_symmetry_1
_geom_bond_site_symmetry_2
F1 C13 1_555 1_555
F2 C13 1_555 1_555
F3 C13 1_555 1_555
F4 C14 1_555 1_555
F5 C14 1_555 1_555
F6 C14 1_555 1_555
N1 C6 1_555 1_555
C1 H1 1_555 1_555
C2 C1 1_555 1_555
H2 C2 1_555 1_555
C3 C2 1_555 1_555
C4 C3 1_555 1_555
H3 C4 1_555 1_555
C5 C4 1_555 1_555
C6 C5 1_555 1_555
C7 C5 1_555 1_555
C8 C7 1_555 1_555
H4 C8 1_555 1_555
C9 C8 1_555 1_555
C10 C9 1_555 1_555
H5 C10 1_555 1_555
C11 C10 1_555 1_555
C12 C7 1_555 1_555
H6 C12 1_555 1_555
C13 C9 1_555 1_555
C14 C11 1_555 1_555
F1B C13B 1_555 1_555
F2B C13B 1_555 1_555
F3B C13B 1_555 1_555
F4B C14B 1_555 1_555
F5B C14B 1_555 1_555
F6B C14B 1_555 1_555
N1B C6B 1_555 1_555
C1B C3 1_555 1_555
H1B C1B 1_555 1_555
C2B C1B 1_555 1_555
H2B C2B 1_555 1_555
C3B C1 1_555 1_555
C4B C3B 1_555 1_555
H3B C4B 1_555 1_555
C5B C4B 1_555 1_555
C6B C5B 1_555 1_555
C7B C5B 1_555 1_555
C8B C7B 1_555 1_555
H4B C8B 1_555 1_555
C9B C8B 1_555 1_555
C10B C9B 1_555 1_555
H5B C10B 1_555 1_555
C11B C10B 1_555 1_555
C12B C7B 1_555 1_555
H6B C12B 1_555 1_555
C13B C9B 1_555 1_555
C14B C11B 1_555 1_555
C11 C12 1_555 1_555
C2B C3B 1_555 1_555
C11B C12B 1_555 1_555

#END
