
#######################################################################
#
#                 Cambridge Crystallographic Data Centre
#                                CCDC 
#
#######################################################################
#
# If this CIF has been generated from an entry in the Cambridge 
# Structural Database, then it will include bibliographic, chemical, 
# crystal, experimental, refinement or atomic coordinate data resulting 
# from the CCDC's data processing and validation procedures.
#
#######################################################################

data_KIDFOV
_chemical_formula_moiety         'C22 H24 N1 O3 S1'
_chemical_name_systematic        
'methyl 9-methyl-9-oxo-1,2,3,4,4a,9,10,14b-octahydro-1,4-methano-9\l^6^-tribenzo[c,e,g][1,2]thiazocine-13-carboxylate'
_symmetry_cell_setting           triclinic
_symmetry_space_group_name_H-M   'P -1'
_symmetry_Int_Tables_number      2
_space_group_name_Hall           '-P 1'
loop_
_symmetry_equiv_pos_site_id
_symmetry_equiv_pos_as_xyz
1 x,y,z
2 -x,-y,-z
_cell_length_a                   7.9969(3)
_cell_length_b                   9.3171(5)
_cell_length_c                   13.2462(7)
_cell_angle_alpha                94.946(4)
_cell_angle_beta                 107.226(4)
_cell_angle_gamma                101.269(4)
_cell_volume                     913.499
_exptl_crystal_colour            colorless
_exptl_crystal_description       BLOCK
_cell_formula_units_Z            2
loop_
_atom_site_label
_atom_site_type_symbol
_atom_site_fract_x
_atom_site_fract_y
_atom_site_fract_z
S1 S 0.71743(6) -0.07845(5) 0.25020(4)
O1 O 0.7205(2) 0.61853(17) 0.54348(12)
O2 O 0.7604(2) -0.14112(19) 0.16078(13)
N1 N 0.8652(2) 0.04613(18) 0.32323(14)
H1 H 0.974813 0.049991 0.326076
O3 O 0.7028(3) 0.4729(2) 0.66745(13)
C1 C 0.7978(2) 0.2866(2) 0.34557(14)
C2 C 0.5036(2) 0.1061(2) 0.15888(14)
C3 C 0.5104(2) -0.0214(2) 0.20771(14)
C4 C 0.8271(2) 0.1560(2) 0.38672(15)
C5 C 0.7656(2) 0.3956(2) 0.40987(14)
H2 H 0.744908 0.482153 0.383687
C6 C 0.7634(3) 0.3790(2) 0.51318(15)
C7 C 0.8176(2) 0.3015(2) 0.23693(14)
H3 H 0.931565 0.276422 0.238077
C8 C 0.7255(3) 0.4919(3) 0.58326(16)
C9 C 0.6649(2) 0.1979(2) 0.13711(14)
H4 H 0.720470 0.129876 0.104684
C10 C 0.3341(3) 0.1387(2) 0.12482(16)
H5 H 0.322154 0.221591 0.091353
C11 C 0.3593(3) -0.1083(2) 0.22160(17)
H6 H 0.368605 -0.192264 0.254076
C12 C 0.8298(3) 0.1407(2) 0.49066(16)
H7 H 0.853229 0.055459 0.518019
C13 C 0.8250(3) 0.4569(2) 0.20432(15)
H8 H 0.874789 0.538348 0.264555
C14 C 0.7980(3) 0.2511(3) 0.55298(16)
H9 H 0.799514 0.240034 0.622338
C15 C 0.6178(3) 0.3104(2) 0.06057(15)
H10 H 0.501767 0.276023 0.003600
C16 C 0.1955(3) -0.0706(3) 0.18750(19)
H11 H 0.094262 -0.128123 0.197325
C17 C 0.6298(3) 0.4471(2) 0.13802(16)
H12 H 0.614779 0.533154 0.102993
H13 H 0.547266 0.428510 0.178813
C18 C 0.1840(3) 0.0525(3) 0.13899(18)
H14 H 0.073901 0.078458 0.115326
C19 C 0.9189(4) 0.4686(3) 0.11893(18)
H15 H 1.030556 0.436061 0.140686
H16 H 0.943573 0.569136 0.103772
C20 C 0.7777(4) 0.3625(3) 0.02092(17)
H17 H 0.743785 0.414147 -0.039809
H18 H 0.823853 0.279550 0.000524
C21 C 0.6766(3) -0.2241(3) 0.3229(2)
H19 H 0.647104 -0.187588 0.383920
H20 H 0.578103 -0.301518 0.277931
H21 H 0.782415 -0.262427 0.346407
C22 C 0.6981(3) 0.7394(3) 0.6100(2)
H22 H 0.696397 0.824069 0.573584
H23 H 0.586780 0.710692 0.624769
H24 H 0.796307 0.763868 0.675994
loop_
_geom_bond_atom_site_label_1
_geom_bond_atom_site_label_2
_geom_bond_site_symmetry_1
_geom_bond_site_symmetry_2
S1 O2 1_555 1_555
O1 C8 1_555 1_555
N1 S1 1_555 1_555
H1 N1 1_555 1_555
O3 C8 1_555 1_555
C1 C4 1_555 1_555
C2 C3 1_555 1_555
C3 S1 1_555 1_555
C4 N1 1_555 1_555
C5 C1 1_555 1_555
H2 C5 1_555 1_555
C6 C5 1_555 1_555
C7 C1 1_555 1_555
H3 C7 1_555 1_555
C8 C6 1_555 1_555
C9 C2 1_555 1_555
H4 C9 1_555 1_555
C10 C2 1_555 1_555
H5 C10 1_555 1_555
C11 C3 1_555 1_555
H6 C11 1_555 1_555
C12 C4 1_555 1_555
H7 C12 1_555 1_555
C13 C7 1_555 1_555
H8 C13 1_555 1_555
C14 C6 1_555 1_555
H9 C14 1_555 1_555
C15 C9 1_555 1_555
H10 C15 1_555 1_555
C16 C11 1_555 1_555
H11 C16 1_555 1_555
C17 C13 1_555 1_555
H12 C17 1_555 1_555
H13 C17 1_555 1_555
C18 C10 1_555 1_555
H14 C18 1_555 1_555
C19 C13 1_555 1_555
H15 C19 1_555 1_555
H16 C19 1_555 1_555
C20 C15 1_555 1_555
H17 C20 1_555 1_555
H18 C20 1_555 1_555
C21 S1 1_555 1_555
H19 C21 1_555 1_555
H20 C21 1_555 1_555
H21 C21 1_555 1_555
C22 O1 1_555 1_555
H22 C22 1_555 1_555
H23 C22 1_555 1_555
H24 C22 1_555 1_555
C7 C9 1_555 1_555
C12 C14 1_555 1_555
C15 C17 1_555 1_555
C16 C18 1_555 1_555
C19 C20 1_555 1_555

#END
