
#######################################################################
#
#                 Cambridge Crystallographic Data Centre
#                                CCDC 
#
#######################################################################
#
# If this CIF has been generated from an entry in the Cambridge 
# Structural Database, then it will include bibliographic, chemical, 
# crystal, experimental, refinement or atomic coordinate data resulting 
# from the CCDC's data processing and validation procedures.
#
#######################################################################

data_KIDMAO
_chemical_formula_moiety         'C13 H11 N4 O4 S2 1+,C6 H4 N1 O5 S1 1-'
_chemical_name_systematic        
'2-{2-[(3-nitrophenyl)sulfonyl]hydrazinyl}-1,3-benzothiazol-3-ium 3-nitrobenzene-1-sulfonate'
_symmetry_cell_setting           triclinic
_symmetry_space_group_name_H-M   'P -1'
_symmetry_Int_Tables_number      2
_space_group_name_Hall           '-P 1'
loop_
_symmetry_equiv_pos_site_id
_symmetry_equiv_pos_as_xyz
1 x,y,z
2 -x,-y,-z
_cell_length_a                   10.0399(5)
_cell_length_b                   10.7585(4)
_cell_length_c                   11.3372(6)
_cell_angle_alpha                85.607(4)
_cell_angle_beta                 71.369(5)
_cell_angle_gamma                77.115(4)
_cell_volume                     1131.17
_exptl_crystal_colour            colorless
_exptl_crystal_description       plate
_cell_formula_units_Z            2
loop_
_atom_site_label
_atom_site_type_symbol
_atom_site_fract_x
_atom_site_fract_y
_atom_site_fract_z
C1 C 1.07390(14) 0.16015(12) -0.12063(12)
C2 C 1.21341(15) 0.10073(13) -0.18674(14)
H1 H 1.2930 0.1380 -0.1940
C3 C 1.23134(15) -0.01528(13) -0.24169(14)
H2 H 1.3252 -0.0581 -0.2878
C4 C 1.11437(15) -0.07065(13) -0.23068(13)
H3 H 1.1304 -0.1505 -0.2689
C5 C 0.97546(15) -0.01107(13) -0.16489(13)
H4 H 0.8958 -0.0484 -0.1574
C6 C 0.95732(14) 0.10512(12) -0.11042(12)
C7 C 0.84167(14) 0.28675(12) -0.00034(12)
C8 C 0.55707(14) 0.47110(13) 0.32289(12)
C9 C 0.53199(16) 0.36315(14) 0.39425(13)
H5 H 0.6099 0.3004 0.4059
C10 C 0.39098(18) 0.34797(15) 0.44861(14)
H6 H 0.3725 0.2748 0.4983
C11 C 0.27802(17) 0.43861(17) 0.43063(14)
H7 H 0.1816 0.4289 0.4679
C12 C 0.30799(16) 0.54390(16) 0.35725(13)
C13 C 0.44587(15) 0.56403(14) 0.30272(13)
H8 H 0.4637 0.6378 0.2538
S1 S 1.01665(3) 0.30546(3) -0.04133(3)
S2 S 0.73513(3) 0.49153(3) 0.25131(3)
N1 N 0.82742(12) 0.17982(11) -0.04048(10)
H9 H 0.746(2) 0.1638(16) -0.0270(16)
N2 N 0.73035(13) 0.37297(11) 0.06510(11)
H10 H 0.646(2) 0.3709(17) 0.0737(16)
N3 N 0.76169(12) 0.48236(11) 0.09996(11)
H11 H 0.7208(19) 0.5525(17) 0.0710(16)
N4 N 0.18823(15) 0.63839(18) 0.33454(13)
O1 O 0.82921(11) 0.38488(9) 0.28530(10)
O2 O 0.74518(11) 0.61876(9) 0.26804(9)
O3 O 0.21622(15) 0.73477(17) 0.27552(14)
O4 O 0.06728(14) 0.61654(19) 0.37558(15)
C14 C 0.31611(14) 0.18627(13) 0.18875(13)
C15 C 0.36568(15) 0.07109(13) 0.23976(13)
H12 H 0.4570 0.0192 0.1998
C16 C 0.27603(16) 0.03482(14) 0.35187(14)
C17 C 0.14253(15) 0.10749(14) 0.41347(13)
H13 H 0.0849 0.0799 0.4907
C18 C 0.09530(15) 0.22141(14) 0.35952(14)
H14 H 0.0036 0.2727 0.3995
C19 C 0.18114(15) 0.26111(13) 0.24729(13)
H15 H 0.1480 0.3392 0.2103
S3 S 0.42650(3) 0.24195(3) 0.04827(3)
N5 N 0.32639(15) -0.08700(13) 0.40760(13)
O5 O 0.45472(11) 0.36044(9) 0.08076(10)
O6 O 0.55538(10) 0.14188(9) 0.00769(9)
O7 O 0.34166(11) 0.26546(10) -0.03675(10)
O8 O 0.23692(14) -0.13450(12) 0.48774(11)
O9 O 0.45499(14) -0.13511(13) 0.37160(14)
loop_
_geom_bond_atom_site_label_1
_geom_bond_atom_site_label_2
_geom_bond_site_symmetry_1
_geom_bond_site_symmetry_2
C1 C2 1_555 1_555
C2 H1 1_555 1_555
C3 C2 1_555 1_555
H2 C3 1_555 1_555
C4 C3 1_555 1_555
H3 C4 1_555 1_555
C5 C4 1_555 1_555
H4 C5 1_555 1_555
C6 C1 1_555 1_555
C7 S1 1_555 1_555
C8 C9 1_555 1_555
C9 H5 1_555 1_555
C10 C9 1_555 1_555
H6 C10 1_555 1_555
C11 C10 1_555 1_555
H7 C11 1_555 1_555
C12 C11 1_555 1_555
C13 C8 1_555 1_555
H8 C13 1_555 1_555
S1 C1 1_555 1_555
S2 C8 1_555 1_555
N1 C6 1_555 1_555
H9 N1 1_555 1_555
N2 C7 1_555 1_555
H10 N2 1_555 1_555
N3 S2 1_555 1_555
H11 N3 1_555 1_555
N4 C12 1_555 1_555
O1 S2 1_555 1_555
O2 S2 1_555 1_555
O3 N4 1_555 1_555
O4 N4 1_555 1_555
C14 C15 1_555 1_555
C15 H12 1_555 1_555
C16 C15 1_555 1_555
C17 C16 1_555 1_555
H13 C17 1_555 1_555
C18 C17 1_555 1_555
H14 C18 1_555 1_555
C19 C14 1_555 1_555
H15 C19 1_555 1_555
S3 C14 1_555 1_555
N5 C16 1_555 1_555
O5 S3 1_555 1_555
O6 S3 1_555 1_555
O7 S3 1_555 1_555
O8 N5 1_555 1_555
O9 N5 1_555 1_555
C5 C6 1_555 1_555
C7 N1 1_555 1_555
C12 C13 1_555 1_555
N2 N3 1_555 1_555
C18 C19 1_555 1_555

#END
