
#######################################################################
#
#                 Cambridge Crystallographic Data Centre
#                                CCDC 
#
#######################################################################
#
# If this CIF has been generated from an entry in the Cambridge 
# Structural Database, then it will include bibliographic, chemical, 
# crystal, experimental, refinement or atomic coordinate data resulting 
# from the CCDC's data processing and validation procedures.
#
#######################################################################

data_KIDNOB
_chemical_formula_moiety         'C15 H16 N4 O1,0.5(C8 H6 O4)'
_chemical_name_systematic        
'2,6-bis((Imidazol-1-yl)methyl)-4-methylphenol hemikis(terephthalic acid)'
_symmetry_cell_setting           monoclinic
_symmetry_space_group_name_H-M   'A 2/a'
_symmetry_Int_Tables_number      15
_space_group_name_Hall           '-A 2yn'
loop_
_symmetry_equiv_pos_site_id
_symmetry_equiv_pos_as_xyz
1 x,y,z
2 x,1/2+y,1/2+z
3 1/2-x,y,-z
4 1/2-x,1/2+y,1/2-z
5 -x,-y,-z
6 -x,1/2-y,1/2-z
7 1/2+x,-y,z
8 1/2+x,1/2-y,1/2+z
_cell_length_a                   19.704(7)
_cell_length_b                   7.299(2)
_cell_length_c                   25.698(7)
_cell_angle_alpha                90
_cell_angle_beta                 108.30(3)
_cell_angle_gamma                90
_cell_volume                     3508.96
_exptl_crystal_colour            colorless
_exptl_crystal_description       block
_chemical_melting_point          209-210deg.C
_cell_formula_units_Z            8
loop_
_atom_site_label
_atom_site_type_symbol
_atom_site_fract_x
_atom_site_fract_y
_atom_site_fract_z
O1 O 0.07080(15) 0.3940(4) 0.29082(13)
N1 N 0.02577(17) 0.5538(4) 0.16324(14)
N2 N -0.0303(2) 0.8123(5) 0.16651(16)
N3 N 0.20028(18) 0.2448(4) 0.40063(14)
N4 N 0.2331(2) -0.0317(5) 0.43124(15)
C1 C 0.1334(2) 0.4033(5) 0.2778(2)
C2 C 0.1992(2) 0.4195(5) 0.3184(2)
C3 C 0.2604(2) 0.4200(5) 0.3024(2)
C4 C 0.2592(2) 0.4028(5) 0.2483(2)
C5 C 0.1926(2) 0.3889(5) 0.2098(2)
C6 C 0.1296(2) 0.3861(5) 0.22281(18)
C7 C 0.0584(3) 0.3718(6) 0.1792(2)
C8 C -0.0156(3) 0.6463(7) 0.1868(2)
C9 C 0.0029(3) 0.8256(7) 0.1270(2)
C10 C 0.0369(3) 0.6677(6) 0.1243(2)
C11 C 0.2045(3) 0.4287(6) 0.3779(2)
C12 C 0.2543(3) 0.1249(6) 0.4162(2)
C13 C 0.1624(3) -0.0141(7) 0.4247(2)
C14 C 0.1415(3) 0.1557(7) 0.4056(2)
C15 C 0.3264(2) 0.4055(6) 0.2329(2)
H1 H 0.3211 0.3264 0.2020
H2 H 0.3656 0.3636 0.2633
H3 H 0.3357 0.5282 0.2235
H4 H 0.0257(18) 0.308(5) 0.1950(14)
H5 H 0.1907(18) 0.360(5) 0.1741(16)
H7 H 0.304(2) 0.142(5) 0.4173(15)
H8 H 0.302(2) 0.442(5) 0.3270(17)
H9 H 0.0606(19) 0.313(5) 0.1469(17)
H11 H 0.093(3) 0.208(7) 0.3961(19)
H12 H 0.254(2) 0.497(6) 0.4005(18)
H13 H 0.166(2) 0.502(6) 0.3879(16)
H14 H 0.066(2) 0.620(6) 0.1039(19)
H15 H -0.026(3) 0.607(7) 0.213(2)
H16 H 0.123(3) -0.110(8) 0.427(2)
H17 H -0.002(3) 0.947(9) 0.106(2)
H18 H 0.055(3) 0.511(10) 0.305(3)
O2 O 0.17734(17) -0.2930(4) 0.53633(14)
O3 O 0.10369(18) -0.0839(4) 0.55062(16)
C16 C 0.0554(2) -0.3756(5) 0.51781(16)
C17 C 0.0693(3) -0.5571(5) 0.50665(17)
C18 C -0.0135(2) -0.3216(6) 0.51068(19)
C19 C 0.1161(2) -0.2378(5) 0.53675(18)
H6 H 0.1164(19) -0.592(5) 0.5093(14)
H10 H -0.027(2) -0.198(6) 0.5183(16)
H19 H 0.221(4) -0.162(11) 0.551(3)
O2D O -0.17734(17) -0.7070(4) 0.46367(14)
O3D O -0.10369(18) -0.9161(4) 0.44938(16)
C16D C -0.0554(2) -0.6244(5) 0.48219(16)
C17D C -0.0693(3) -0.4429(5) 0.49335(17)
C18D C 0.0135(2) -0.6784(6) 0.48932(19)
C19D C -0.1161(2) -0.7622(5) 0.46325(18)
H6D H -0.1164(19) -0.408(5) 0.4907(14)
H10D H 0.027(2) -0.802(6) 0.4817(16)
H19D H -0.221(4) -0.838(11) 0.449(3)
loop_
_geom_bond_atom_site_label_1
_geom_bond_atom_site_label_2
_geom_bond_site_symmetry_1
_geom_bond_site_symmetry_2
O1 C1 1_555 1_555
O2 C19 1_555 1_555
O3 C19 1_555 1_555
N1 C7 1_555 1_555
N2 C8 1_555 1_555
N3 C11 1_555 1_555
N4 C12 1_555 1_555
C1 C2 1_555 1_555
C2 C3 1_555 1_555
C3 C4 1_555 1_555
C4 C5 1_555 1_555
C5 C6 1_555 1_555
C6 C1 1_555 1_555
C7 C6 1_555 1_555
C8 N1 1_555 1_555
C9 N2 1_555 1_555
C10 N1 1_555 1_555
C11 C2 1_555 1_555
C12 N3 1_555 1_555
C13 N4 1_555 1_555
C14 N3 1_555 1_555
C15 C4 1_555 1_555
H1 C15 1_555 1_555
H2 C15 1_555 1_555
H3 C15 1_555 1_555
C16 C17 1_555 1_555
C17 H6 1_555 1_555
C18 C16 1_555 1_555
C19 C16 1_555 1_555
H4 C7 1_555 1_555
H5 C5 1_555 1_555
H7 C12 1_555 1_555
H8 C3 1_555 1_555
H9 C7 1_555 1_555
H10 C18 1_555 1_555
H11 C14 1_555 1_555
H12 C11 1_555 1_555
H13 C11 1_555 1_555
H14 C10 1_555 1_555
H15 C8 1_555 1_555
H16 C13 1_555 1_555
H17 C9 1_555 1_555
H18 O1 1_555 1_555
H19 O2 1_555 1_555
O2D C19D 1_555 1_555
O3D C19D 1_555 1_555
C16D C17D 1_555 1_555
C17D C18 1_555 1_555
C18D C17 1_555 1_555
C19D C16D 1_555 1_555
H6D C17D 1_555 1_555
H10D C18D 1_555 1_555
H19D O2D 1_555 1_555
C9 C10 1_555 1_555
C13 C14 1_555 1_555
C16D C18D 1_555 1_555

#END
