
#######################################################################
#
#                 Cambridge Crystallographic Data Centre
#                                CCDC 
#
#######################################################################
#
# If this CIF has been generated from an entry in the Cambridge 
# Structural Database, then it will include bibliographic, chemical, 
# crystal, experimental, refinement or atomic coordinate data resulting 
# from the CCDC's data processing and validation procedures.
#
#######################################################################

data_KIDQIZ01
_chemical_formula_moiety         'C13 H9 F2 N1'
_chemical_name_systematic        2-Fluoro-N-(2-fluorobenzylidene)aniline
_symmetry_cell_setting           monoclinic
_symmetry_space_group_name_H-M   'P 21/c'
_symmetry_Int_Tables_number      14
_space_group_name_Hall           '-P 2ybc'
loop_
_symmetry_equiv_pos_site_id
_symmetry_equiv_pos_as_xyz
1 x,y,z
2 -x,1/2+y,1/2-z
3 -x,-y,-z
4 x,1/2-y,1/2+z
_cell_length_a                   9.8109(9)
_cell_length_b                   3.7789(3)
_cell_length_c                   27.044(3)
_cell_angle_alpha                90
_cell_angle_beta                 90.991(5)
_cell_angle_gamma                90
_cell_volume                     1002.49
_exptl_crystal_colour            colorless
_exptl_crystal_description       plate
_cell_formula_units_Z            4
_exptl_crystal_recrystallization_method hexane
loop_
_atom_site_label
_atom_site_type_symbol
_atom_site_fract_x
_atom_site_fract_y
_atom_site_fract_z
C1 C -0.15336(15) 0.4684(4) 0.40476(6)
C2 C -0.29314(16) 0.4997(5) 0.39646(6)
C3 C -0.38840(16) 0.4078(5) 0.43094(6)
H1 H -0.4831 0.4332 0.4239
C4 C -0.34312(17) 0.2779(5) 0.47605(6)
H2 H -0.4071 0.2148 0.5005
C5 C -0.20485(18) 0.2392(5) 0.48577(6)
H3 H -0.1743 0.1481 0.5168
C6 C -0.11117(16) 0.3327(4) 0.45051(6)
H4 H -0.0166 0.3041 0.4575
C7 C 0.15537(15) 0.7261(4) 0.33834(6)
C8 C 0.27927(15) 0.8852(4) 0.35044(6)
C9 C 0.37409(15) 0.9774(4) 0.31597(6)
H5 H 0.4574 1.0869 0.3257
C10 C 0.34543(15) 0.9070(4) 0.26659(6)
H6 H 0.4092 0.9704 0.2421
C11 C 0.22397(16) 0.7443(4) 0.25281(6)
H7 H 0.2051 0.6945 0.2189
C12 C 0.13025(15) 0.6543(4) 0.28827(6)
H8 H 0.0475 0.5419 0.2785
N1 N 0.0698(6) 0.599(2) 0.3771(2)
C13 C -0.0578(8) 0.616(2) 0.3689(2)
H9 H -0.0917 0.7239 0.3395
F1 F 0.30747(9) 0.9567(3) 0.39887(3)
F2 F -0.33723(9) 0.6287(3) 0.35241(3)
C14? C 0.0535(7) 0.669(3) 0.3758(3)
H10? H 0.0729 0.7389 0.4090
N2? N -0.0620(7) 0.5270(18) 0.36529(19)
loop_
_geom_bond_atom_site_label_1
_geom_bond_atom_site_label_2
_geom_bond_site_symmetry_1
_geom_bond_site_symmetry_2
C1 C2 1_555 1_555
C2 C3 1_555 1_555
C3 H1 1_555 1_555
C4 C3 1_555 1_555
H2 C4 1_555 1_555
C5 C4 1_555 1_555
H3 C5 1_555 1_555
C6 C1 1_555 1_555
H4 C6 1_555 1_555
C7 C8 1_555 1_555
C8 C9 1_555 1_555
C9 H5 1_555 1_555
C10 C9 1_555 1_555
H6 C10 1_555 1_555
C11 C10 1_555 1_555
H7 C11 1_555 1_555
C12 C7 1_555 1_555
H8 C12 1_555 1_555
N1 C7 1_555 1_555
C13 C1 1_555 1_555
H9 C13 1_555 1_555
F1 C8 1_555 1_555
F2 C2 1_555 1_555
C5 C6 1_555 1_555
C11 C12 1_555 1_555
N1 C13 1_555 1_555

#END
