
#######################################################################
#
#                 Cambridge Crystallographic Data Centre
#                                CCDC 
#
#######################################################################
#
# If this CIF has been generated from an entry in the Cambridge 
# Structural Database, then it will include bibliographic, chemical, 
# crystal, experimental, refinement or atomic coordinate data resulting 
# from the CCDC's data processing and validation procedures.
#
#######################################################################

data_KIDQAR
_chemical_formula_moiety         'C21 H16 Br1 N1 O3'
_chemical_name_systematic        
'4-Bromobenzyl 4-(2-(4-nitrophenyl)vinyl)phenyl ether'
_symmetry_cell_setting           triclinic
_symmetry_space_group_name_H-M   'P -1'
_symmetry_Int_Tables_number      2
_space_group_name_Hall           '-P 1'
loop_
_symmetry_equiv_pos_site_id
_symmetry_equiv_pos_as_xyz
1 x,y,z
2 -x,-y,-z
_cell_length_a                   10.2162(11)
_cell_length_b                   12.5073(13)
_cell_length_c                   15.0932(15)
_cell_angle_alpha                93.7330(10)
_cell_angle_beta                 104.3210(10)
_cell_angle_gamma                106.107(2)
_cell_volume                     1776.66
_cell_formula_units_Z            4
loop_
_atom_site_label
_atom_site_type_symbol
_atom_site_fract_x
_atom_site_fract_y
_atom_site_fract_z
Br1 Br 0.14819(11) 0.05629(8) 1.21493(6)
N1 N 0.9726(9) 0.8577(7) 0.3639(6)
O1 O 0.4890(6) 0.3451(4) 0.9295(3)
O2 O 0.9239(9) 0.8268(7) 0.2824(5)
O3 O 1.0702(8) 0.9439(6) 0.3974(5)
C1 C 0.5460(9) 0.3984(7) 0.8656(5)
C2 C 0.5327(9) 0.3492(7) 0.7781(5)
H1 H 0.4829 0.2734 0.7592
C3 C 0.5930(9) 0.4121(7) 0.7183(6)
H2 H 0.5836 0.3782 0.6594
C4 C 0.6677(8) 0.5259(7) 0.7453(5)
C5 C 0.6844(9) 0.5722(7) 0.8347(6)
H3 H 0.7372 0.6472 0.8549
C6 C 0.6254(9) 0.5106(7) 0.8935(6)
H4 H 0.6383 0.5440 0.9531
C7 C 0.7341(9) 0.5988(8) 0.6848(6)
H5 H 0.7950 0.6695 0.7131
C8 C 0.7172(10) 0.5755(8) 0.5989(6)
H6 H 0.6561 0.5053 0.5696
C9 C 0.7885(10) 0.6530(8) 0.5402(6)
C10 C 0.9005(10) 0.7490(8) 0.5771(6)
H7 H 0.9355 0.7682 0.6409
C11 C 0.9626(10) 0.8185(8) 0.5191(6)
H8 H 1.0382 0.8834 0.5437
C12 C 0.9086(9) 0.7875(7) 0.4261(5)
C13 C 0.7989(10) 0.6922(8) 0.3895(6)
H9 H 0.7648 0.6720 0.3258
C14 C 0.7385(10) 0.6261(8) 0.4460(6)
H10 H 0.6623 0.5619 0.4203
C15 C 0.3982(9) 0.2329(7) 0.9017(5)
H11 H 0.4510 0.1842 0.8865
H12 H 0.3220 0.2292 0.8474
C16 C 0.3380(9) 0.1949(6) 0.9805(5)
C17 C 0.1962(9) 0.1661(6) 0.9697(5)
H13 H 0.1362 0.1722 0.9141
C18 C 0.1402(9) 0.1282(6) 1.0398(6)
H14 H 0.0432 0.1110 1.0325
C19 C 0.2275(8) 0.1160(6) 1.1199(5)
C20 C 0.3704(9) 0.1450(7) 1.1318(5)
H15 H 0.4290 0.1366 1.1870
C21 C 0.4293(9) 0.1865(7) 1.0636(5)
H16 H 0.5270 0.2083 1.0727
Br2 Br -0.2361(4) 0.1127(4) 1.1925(2)
N2 N 0.569(5) 0.959(3) 0.353(2)
O4 O 0.047(5) 0.390(3) 0.875(3)
O5 O 0.6941(15) 0.9865(10) 0.3646(7)
O6 O 0.4864(15) 0.9671(12) 0.2841(11)
C22 C 0.0912(9) 0.4480(7) 0.8062(6)
C23 C -0.0011(10) 0.4543(7) 0.7224(6)
H17 H -0.0973 0.4148 0.7069
C24 C 0.0554(10) 0.5209(7) 0.6637(6)
H18 H -0.0051 0.5272 0.6084
C25 C 0.1970(11) 0.5783(7) 0.6831(6)
C26 C 0.2860(10) 0.5701(7) 0.7659(6)
H19 H 0.3821 0.6098 0.7813
C27 C 0.2334(10) 0.5037(7) 0.8256(6)
H20 H 0.2950 0.4963 0.8800
C28 C 0.233(3) 0.644(3) 0.609(2)
H21 H 0.1628 0.6452 0.5566
C29 C 0.3709(18) 0.7018(13) 0.6178(13)
H22 H 0.4413 0.7020 0.6705
C30 C 0.4080(11) 0.7655(7) 0.5420(6)
C31 C 0.3143(10) 0.7862(8) 0.4659(6)
H23 H 0.2173 0.7578 0.4582
C32 C 0.3645(10) 0.8501(7) 0.3995(6)
H24 H 0.3028 0.8649 0.3485
C33 C 0.5074(9) 0.8881(6) 0.4151(5)
C34 C 0.6011(10) 0.8693(7) 0.4908(6)
H25 H 0.6984 0.8980 0.4997
C35 C 0.5488(11) 0.8081(8) 0.5522(6)
H26 H 0.6120 0.7950 0.6032
C36 C -0.095(8) 0.336(6) 0.861(5)
H27 H -0.1288 0.2809 0.8052
H28 H -0.1469 0.3903 0.8506
C37 C -0.1274(9) 0.2762(7) 0.9413(5)
C38 C -0.0596(9) 0.3307(7) 1.0306(6)
H29 H 0.0085 0.4007 1.0406
C39 C -0.0924(9) 0.2820(7) 1.1047(6)
H30 H -0.0465 0.3182 1.1648
C40 C -0.1965(9) 0.1766(7) 1.0882(6)
C41 C -0.2611(10) 0.1261(7) 1.0020(6)
H31 H -0.3295 0.0563 0.9918
C42 C -0.2294(9) 0.1743(7) 0.9277(6)
H32 H -0.2773 0.1376 0.8680
Br3? Br 0.572(4) 0.9631(17) 0.3228(16)
N3? N -0.263(13) 0.121(9) 1.156(6)
O7? O 0.291(9) 0.644(8) 0.631(5)
O8? O -0.354(4) 0.030(4) 1.130(2)
O9? O -0.188(7) 0.152(5) 1.235(4)
C43? C 0.04(3) 0.359(16) 0.862(15)
H33? H 0.1062 0.3356 0.9042
C44? C -0.10(3) 0.31(2) 0.85(2)
H34? H -0.1686 0.3012 0.7980
C45? C 0.268(10) 0.685(5) 0.574(4)
H35? H 0.2127 0.7332 0.5868
H36? H 0.2078 0.6294 0.5211
loop_
_geom_bond_atom_site_label_1
_geom_bond_atom_site_label_2
_geom_bond_site_symmetry_1
_geom_bond_site_symmetry_2
Br1 C19 1_555 1_555
N1 O2 1_555 1_555
O1 C1 1_555 1_555
O3 N1 1_555 1_555
C1 C2 1_555 1_555
C2 H1 1_555 1_555
C3 C2 1_555 1_555
H2 C3 1_555 1_555
C4 C3 1_555 1_555
C5 C4 1_555 1_555
H3 C5 1_555 1_555
C6 C1 1_555 1_555
H4 C6 1_555 1_555
C7 C4 1_555 1_555
H5 C7 1_555 1_555
C8 C7 1_555 1_555
H6 C8 1_555 1_555
C9 C8 1_555 1_555
C10 C9 1_555 1_555
H7 C10 1_555 1_555
C11 C10 1_555 1_555
H8 C11 1_555 1_555
C12 N1 1_555 1_555
C13 C12 1_555 1_555
H9 C13 1_555 1_555
C14 C9 1_555 1_555
H10 C14 1_555 1_555
C15 O1 1_555 1_555
H11 C15 1_555 1_555
H12 C15 1_555 1_555
C16 C15 1_555 1_555
C17 C16 1_555 1_555
H13 C17 1_555 1_555
C18 C17 1_555 1_555
H14 C18 1_555 1_555
C19 C18 1_555 1_555
C20 C19 1_555 1_555
H15 C20 1_555 1_555
C21 C16 1_555 1_555
H16 C21 1_555 1_555
Br2 C40 1_555 1_555
N2 O5 1_555 1_555
O4 C22 1_555 1_555
O6 N2 1_555 1_555
C22 C23 1_555 1_555
C23 H17 1_555 1_555
C24 C23 1_555 1_555
H18 C24 1_555 1_555
C25 C24 1_555 1_555
C26 C25 1_555 1_555
H19 C26 1_555 1_555
C27 C22 1_555 1_555
H20 C27 1_555 1_555
C28 C25 1_555 1_555
H21 C28 1_555 1_555
C29 C28 1_555 1_555
H22 C29 1_555 1_555
C30 C29 1_555 1_555
C31 C30 1_555 1_555
H23 C31 1_555 1_555
C32 C31 1_555 1_555
H24 C32 1_555 1_555
C33 N2 1_555 1_555
C34 C33 1_555 1_555
H25 C34 1_555 1_555
C35 C30 1_555 1_555
H26 C35 1_555 1_555
C36 O4 1_555 1_555
H27 C36 1_555 1_555
H28 C36 1_555 1_555
C37 C36 1_555 1_555
C38 C37 1_555 1_555
H29 C38 1_555 1_555
C39 C38 1_555 1_555
H30 C39 1_555 1_555
C40 C39 1_555 1_555
C41 C40 1_555 1_555
H31 C41 1_555 1_555
C42 C37 1_555 1_555
H32 C42 1_555 1_555
C5 C6 1_555 1_555
C11 C12 1_555 1_555
C13 C14 1_555 1_555
C20 C21 1_555 1_555
C26 C27 1_555 1_555
C32 C33 1_555 1_555
C34 C35 1_555 1_555
C41 C42 1_555 1_555

#END
