
#######################################################################
#
#                 Cambridge Crystallographic Data Centre
#                                CCDC 
#
#######################################################################
#
# If this CIF has been generated from an entry in the Cambridge 
# Structural Database, then it will include bibliographic, chemical, 
# crystal, experimental, refinement or atomic coordinate data resulting 
# from the CCDC's data processing and validation procedures.
#
#######################################################################

data_KIDRUM
_chemical_formula_moiety         'C13 H9 F2 N1'
_chemical_name_systematic        3-Fluoro-N-(4-fluorobenzylidene)aniline
_symmetry_cell_setting           monoclinic
_symmetry_space_group_name_H-M   'P 21/c'
_symmetry_Int_Tables_number      14
_space_group_name_Hall           '-P 2ybc'
loop_
_symmetry_equiv_pos_site_id
_symmetry_equiv_pos_as_xyz
1 x,y,z
2 -x,1/2+y,1/2-z
3 -x,-y,-z
4 x,1/2-y,1/2+z
_cell_length_a                   14.530(3)
_cell_length_b                   5.7472(13)
_cell_length_c                   12.345(3)
_cell_angle_alpha                90
_cell_angle_beta                 107.326(3)
_cell_angle_gamma                90
_cell_volume                     984.116
_exptl_crystal_colour            colorless
_exptl_crystal_description       block
_cell_formula_units_Z            4
loop_
_atom_site_label
_atom_site_type_symbol
_atom_site_fract_x
_atom_site_fract_y
_atom_site_fract_z
F1 F 0.88231(4) 0.11884(11) 1.41683(5)
F2 F 0.52512(4) 0.25466(11) 0.53686(5)
N1 N 0.76603(6) -0.10549(16) 1.02266(7)
C1 C 0.67770(7) 0.13373(18) 0.86830(9)
C2 C 0.62917(7) 0.34363(19) 0.83679(9)
H1 H 0.6321 0.4593 0.8927
C3 C 0.57668(7) 0.38564(19) 0.72491(9)
H2 H 0.5425 0.5274 0.7033
C4 C 0.57566(7) 0.2154(2) 0.64626(9)
C5 C 0.62445(7) 0.00716(19) 0.67332(9)
H3 H 0.6230 -0.1052 0.6164
C6 C 0.67539(7) -0.03342(19) 0.78529(9)
H4 H 0.7091 -0.1760 0.8061
C7 C 0.82006(7) -0.13800(19) 1.13775(9)
C8 C 0.82338(7) 0.02011(19) 1.22509(9)
H5 H 0.7887 0.1625 1.2102
C9 C 0.87824(7) -0.0370(2) 1.33281(8)
C10 C 0.92920(7) -0.24152(19) 1.36068(9)
H6 H 0.9656 -0.2749 1.4368
C11 C 0.92543(7) -0.39663(19) 1.27376(9)
H7 H 0.9600 -0.5391 1.2898
C12 C 0.87146(7) -0.34528(19) 1.16324(9)
H8 H 0.8696 -0.4530 1.1043
C13 C 0.73222(7) 0.09332(19) 0.98689(9)
H9 H 0.7427 0.2196 1.0388
loop_
_geom_bond_atom_site_label_1
_geom_bond_atom_site_label_2
_geom_bond_site_symmetry_1
_geom_bond_site_symmetry_2
F1 C9 1_555 1_555
F2 C4 1_555 1_555
N1 C7 1_555 1_555
C1 C2 1_555 1_555
C2 H1 1_555 1_555
C3 C2 1_555 1_555
H2 C3 1_555 1_555
C4 C3 1_555 1_555
C5 C4 1_555 1_555
H3 C5 1_555 1_555
C6 C1 1_555 1_555
H4 C6 1_555 1_555
C7 C8 1_555 1_555
C8 H5 1_555 1_555
C9 C8 1_555 1_555
C10 C9 1_555 1_555
H6 C10 1_555 1_555
C11 C10 1_555 1_555
H7 C11 1_555 1_555
C12 C7 1_555 1_555
H8 C12 1_555 1_555
C13 N1 1_555 1_555
H9 C13 1_555 1_555
C1 C13 1_555 1_555
C5 C6 1_555 1_555
C11 C12 1_555 1_555

#END
