
#######################################################################
#
#                 Cambridge Crystallographic Data Centre
#                                CCDC 
#
#######################################################################
#
# If this CIF has been generated from an entry in the Cambridge 
# Structural Database, then it will include bibliographic, chemical, 
# crystal, experimental, refinement or atomic coordinate data resulting 
# from the CCDC's data processing and validation procedures.
#
#######################################################################

data_KIDRAS
_chemical_formula_moiety         'C13 H9 F2 N1'
_chemical_name_systematic        4-fluoro-N-(2-fluorobenzyildene)aniline
_symmetry_cell_setting           monoclinic
_symmetry_space_group_name_H-M   'P 21/c'
_symmetry_Int_Tables_number      14
_space_group_name_Hall           '-P 2ybc'
loop_
_symmetry_equiv_pos_site_id
_symmetry_equiv_pos_as_xyz
1 x,y,z
2 -x,1/2+y,1/2-z
3 -x,-y,-z
4 x,1/2-y,1/2+z
_cell_length_a                   7.2019(11)
_cell_length_b                   5.8995(10)
_cell_length_c                   12.292(2)
_cell_angle_alpha                90
_cell_angle_beta                 108.789(6)
_cell_angle_gamma                90
_cell_volume                     494.427
_cell_formula_units_Z            2
loop_
_atom_site_label
_atom_site_type_symbol
_atom_site_fract_x
_atom_site_fract_y
_atom_site_fract_z
F1 F 0.7390(4) 0.4920(4) 0.0975(2)
C1 C 0.6410(3) 0.1379(4) 0.13715(17)
C2 C 0.7380(3) 0.3434(4) 0.16798(19)
C3 C 0.8455(3) 0.3957(4) 0.2798(2)
H1 H 0.9118 0.5367 0.2984
C4 C 0.8541(3) 0.2377(4) 0.3640(2)
H2 H 0.9274 0.2712 0.4416
C5 C 0.7585(3) 0.0319(4) 0.33803(17)
H3 H 0.7654 -0.0743 0.3973
C6 C 0.6528(3) -0.0183(4) 0.22500(17)
H4 H 0.5876 -0.1601 0.2068
H5 H 0.4823 0.2131 -0.0307
N1 N 0.539(3) 0.106(4) 0.0140(17)
F1B F 0.2610(4) -0.4920(4) -0.0975(2)
C1B C 0.3590(3) -0.1379(4) -0.13715(17)
C2B C 0.2620(3) -0.3434(4) -0.16798(19)
C3B C 0.1545(3) -0.3957(4) -0.2798(2)
H1B H 0.0882 -0.5367 -0.2984
C4B C 0.1459(3) -0.2377(4) -0.3640(2)
H2B H 0.0726 -0.2712 -0.4416
C5B C 0.2415(3) -0.0319(4) -0.33803(17)
H3B H 0.2346 0.0743 -0.3973
C6B C 0.3472(3) 0.0183(4) -0.22500(17)
H4B H 0.4124 0.1601 -0.2068
H5B H 0.5177 -0.2131 0.0307
N1B N 0.461(3) -0.106(4) -0.0140(17)
F2? F 0.9651(3) 0.3043(4) 0.46287(18)
C7? C 0.6410(3) 0.1379(4) 0.13715(17)
C8? C 0.7380(3) 0.3434(4) 0.16798(19)
H6? H 0.7299 0.4521 0.1096
C9? C 0.8455(3) 0.3957(4) 0.2798(2)
H7? H 0.9118 0.5367 0.2984
C10? C 0.8541(3) 0.2377(4) 0.3640(2)
C11? C 0.7585(3) 0.0319(4) 0.33803(17)
H8? H 0.7654 -0.0743 0.3973
C12? C 0.6528(3) -0.0183(4) 0.22500(17)
H9? H 0.5876 -0.1601 0.2068
C13? C 0.520(4) 0.090(5) 0.022(2)
loop_
_geom_bond_atom_site_label_1
_geom_bond_atom_site_label_2
_geom_bond_site_symmetry_1
_geom_bond_site_symmetry_2
F1 C2 1_555 1_555
C1 C2 1_555 1_555
C2 C3 1_555 1_555
C3 H1 1_555 1_555
C4 C3 1_555 1_555
H2 C4 1_555 1_555
C5 C4 1_555 1_555
H3 C5 1_555 1_555
C6 C1 1_555 1_555
H4 C6 1_555 1_555
H5 N1 1_555 1_555
N1 C1 1_555 1_555
F1B C2B 1_555 1_555
C1B C2B 1_555 1_555
C2B C3B 1_555 1_555
C3B H1B 1_555 1_555
C4B C3B 1_555 1_555
H2B C4B 1_555 1_555
C5B C4B 1_555 1_555
H3B C5B 1_555 1_555
C6B C1B 1_555 1_555
H4B C6B 1_555 1_555
H5B N1B 1_555 1_555
N1B N1 1_555 1_555
C5 C6 1_555 1_555
C1B N1B 1_555 1_555
C5B C6B 1_555 1_555

#END
