
#######################################################################
#
#                 Cambridge Crystallographic Data Centre
#                                CCDC 
#
#######################################################################
#
# If this CIF has been generated from an entry in the Cambridge 
# Structural Database, then it will include bibliographic, chemical, 
# crystal, experimental, refinement or atomic coordinate data resulting 
# from the CCDC's data processing and validation procedures.
#
#######################################################################

data_KIDSUN
_chemical_formula_moiety         'C13 H10 F1 N1'
_chemical_name_systematic        N-Benzylidene-4-fluoroaniline
_symmetry_cell_setting           monoclinic
_symmetry_space_group_name_H-M   'P 21/n'
_symmetry_Int_Tables_number      14
_space_group_name_Hall           '-P 2yn'
loop_
_symmetry_equiv_pos_site_id
_symmetry_equiv_pos_as_xyz
1 x,y,z
2 1/2-x,1/2+y,1/2-z
3 -x,-y,-z
4 1/2+x,1/2-y,1/2+z
_cell_length_a                   5.66130(10)
_cell_length_b                   25.0212(5)
_cell_length_c                   7.14160(10)
_cell_angle_alpha                90
_cell_angle_beta                 90.2160(10)
_cell_angle_gamma                90
_cell_volume                     1011.62
_exptl_crystal_description       plate
_cell_formula_units_Z            4
loop_
_atom_site_label
_atom_site_type_symbol
_atom_site_fract_x
_atom_site_fract_y
_atom_site_fract_z
C1 C 1.0129(2) 0.34794(6) 0.21760(18)
C2 C 1.1893(2) 0.38073(6) 0.14472(19)
H1 H 1.3268 0.3651 0.0922
C3 C 1.1665(3) 0.43581(6) 0.1480(2)
H2 H 1.2869 0.4578 0.0968
C4 C 0.9672(3) 0.45870(6) 0.2263(2)
H3 H 0.9510 0.4965 0.2292
C5 C 0.7905(3) 0.42649(6) 0.3007(2)
H4 H 0.6543 0.4424 0.3546
C6 C 0.8124(2) 0.37159(6) 0.29667(19)
H5 H 0.6912 0.3498 0.3476
C7 C 0.9288(2) 0.20172(5) 0.24095(18)
C8 C 1.1349(2) 0.17876(6) 0.31344(19)
H6 H 1.2524 0.2009 0.3687
C9 C 1.1688(2) 0.12404(6) 0.30526(19)
H7 H 1.3076 0.1082 0.3558
C10 C 0.9970(2) 0.09298(5) 0.22223(19)
C11 C 0.7923(2) 0.11423(6) 0.14830(19)
H8 H 0.6780 0.0919 0.0898
C12 C 0.7575(2) 0.16876(6) 0.16130(19)
H9 H 0.6149 0.1840 0.1153
C13 C 1.0431(2) 0.28995(6) 0.20782(18)
H10 H 1.1905 0.2761 0.1671
N1 N 0.8800(2) 0.25734(5) 0.25171(16)
F1 F 1.02974(15) 0.03920(3) 0.21505(12)
loop_
_geom_bond_atom_site_label_1
_geom_bond_atom_site_label_2
_geom_bond_site_symmetry_1
_geom_bond_site_symmetry_2
C1 C2 1_555 1_555
C2 H1 1_555 1_555
C3 C2 1_555 1_555
H2 C3 1_555 1_555
C4 C3 1_555 1_555
H3 C4 1_555 1_555
C5 C4 1_555 1_555
H4 C5 1_555 1_555
C6 C1 1_555 1_555
H5 C6 1_555 1_555
C7 C8 1_555 1_555
C8 H6 1_555 1_555
C9 C8 1_555 1_555
H7 C9 1_555 1_555
C10 C9 1_555 1_555
C11 C10 1_555 1_555
H8 C11 1_555 1_555
C12 C7 1_555 1_555
H9 C12 1_555 1_555
C13 C1 1_555 1_555
H10 C13 1_555 1_555
N1 C7 1_555 1_555
F1 C10 1_555 1_555
C5 C6 1_555 1_555
C11 C12 1_555 1_555
C13 N1 1_555 1_555

#END
