
#######################################################################
#
#                 Cambridge Crystallographic Data Centre
#                                CCDC 
#
#######################################################################
#
# If this CIF has been generated from an entry in the Cambridge 
# Structural Database, then it will include bibliographic, chemical, 
# crystal, experimental, refinement or atomic coordinate data resulting 
# from the CCDC's data processing and validation procedures.
#
#######################################################################

data_KIDTID
_chemical_formula_moiety         'C44 H39 B1 N4,x(C1 H2 Cl2)'
_chemical_name_systematic        
"1,1'-{4'-[bis(2,4,6-trimethylphenyl)boranyl][1,1'-biphenyl]-3,5-diyl}bis(1H-benzimidazole) dichloromethane solvate"
_symmetry_cell_setting           monoclinic
_symmetry_space_group_name_H-M   'C 2/c'
_symmetry_Int_Tables_number      15
_space_group_name_Hall           '-C 2yn'
loop_
_symmetry_equiv_pos_site_id
_symmetry_equiv_pos_as_xyz
1 x,y,z
2 -x,y,1/2-z
3 1/2+x,1/2+y,z
4 1/2-x,1/2+y,1/2-z
5 -x,-y,-z
6 x,-y,1/2+z
7 1/2-x,1/2-y,-z
8 1/2+x,1/2-y,1/2+z
_cell_length_a                   10.778(2)
_cell_length_b                   25.490(5)
_cell_length_c                   15.772(3)
_cell_angle_alpha                90
_cell_angle_beta                 108.481(2)
_cell_angle_gamma                90
_cell_volume                     4109.6
_exptl_crystal_colour            colorless
_exptl_crystal_description       Block
_cell_formula_units_Z            4
loop_
_atom_site_label
_atom_site_type_symbol
_atom_site_fract_x
_atom_site_fract_y
_atom_site_fract_z
N1 N -0.91147(13) 0.28295(5) -0.58906(8)
N2 N -0.80359(15) 0.34729(5) -0.49795(9)
C1 C -0.83828(17) 0.32782(6) -0.57860(10)
H1 H -0.8148 0.3434 -0.6260
C2 C -0.85718(16) 0.31301(6) -0.45043(10)
C3 C -0.84951(17) 0.31423(7) -0.36026(10)
H2 H -0.8062 0.3421 -0.3224
C4 C -0.90643(18) 0.27403(7) -0.32827(11)
H3 H -0.8989 0.2732 -0.2666
C5 C -0.97532(19) 0.23430(7) -0.38460(12)
H4 H -1.0158 0.2075 -0.3606
C6 C -0.98629(18) 0.23280(6) -0.47394(11)
H5 H -1.0341 0.2059 -0.5122
C7 C -0.92408(15) 0.27246(6) -0.50543(9)
C8 C -1.0000 0.28151(8) -0.7500
H6 H -1.0000 0.3188 -0.7500
C9 C -0.95948(14) 0.25392(6) -0.67021(9)
C10 C -0.95971(15) 0.19952(6) -0.66962(9)
H7 H -0.9324 0.1811 -0.6144
C11 C -1.0000 0.17169(8) -0.7500
C12 C -1.0000 0.11309(8) -0.7500
C13 C -0.91524(15) 0.08489(6) -0.67901(9)
H8 H -0.8562 0.1032 -0.6303
C14 C -0.91656(15) 0.03061(6) -0.67916(9)
H9 H -0.8590 0.0124 -0.6296
C15 C -1.0000 0.00151(8) -0.7500
C16 C -0.93632(16) -0.08769(5) -0.65664(10)
C17 C -0.98208(16) -0.07743(6) -0.58343(10)
C18 C -0.91271(18) -0.09615(6) -0.49855(11)
H10 H -0.9452 -0.0890 -0.4503
C19 C -0.79849(18) -0.12468(7) -0.48194(12)
C20 C -0.75580(18) -0.13605(7) -0.55383(12)
H11 H -0.6787 -0.1564 -0.5441
C21 C -0.82225(16) -0.11867(6) -0.64024(11)
C22 C -1.10680(18) -0.04768(7) -0.59379(11)
H12 H -1.1664 -0.0696 -0.5733
H13 H -1.1483 -0.0386 -0.6568
H14 H -1.0868 -0.0155 -0.5580
C23 C -0.7247(2) -0.14378(10) -0.38885(14)
H15 H -0.7670 -0.1304 -0.3466
H16 H -0.6343 -0.1311 -0.3716
H17 H -0.7250 -0.1822 -0.3879
C24 C -0.76723(19) -0.13278(8) -0.71439(13)
H18 H -0.8391 -0.1371 -0.7705
H19 H -0.7180 -0.1657 -0.6995
H20 H -0.7089 -0.1047 -0.7212
B1 B -1.0000 -0.06014(9) -0.7500
N1A N -1.08853(13) 0.28295(5) -0.91094(8)
N2A N -1.19641(15) 0.34729(5) -1.00205(9)
C1A C -1.16172(17) 0.32782(6) -0.92140(10)
H1A H -1.1852 0.3434 -0.8740
C2A C -1.14282(16) 0.31301(6) -1.04957(10)
C3A C -1.15049(17) 0.31423(7) -1.13974(10)
H2A H -1.1938 0.3421 -1.1776
C4A C -1.09357(18) 0.27403(7) -1.17173(11)
H3A H -1.1011 0.2732 -1.2334
C5A C -1.02468(19) 0.23430(7) -1.11540(12)
H4A H -0.9842 0.2075 -1.1394
C6A C -1.01371(18) 0.23280(6) -1.02606(11)
H5A H -0.9659 0.2059 -0.9878
C7A C -1.07592(15) 0.27246(6) -0.99457(9)
C9A C -1.04052(14) 0.25392(6) -0.82979(9)
C10A C -1.04029(15) 0.19952(6) -0.83038(9)
H7A H -1.0676 0.1811 -0.8856
C13A C -1.08476(15) 0.08489(6) -0.82099(9)
H8A H -1.1438 0.1032 -0.8697
C14A C -1.08344(15) 0.03061(6) -0.82084(9)
H9A H -1.1410 0.0124 -0.8704
C16A C -1.06368(16) -0.08769(5) -0.84336(10)
C17A C -1.01792(16) -0.07743(6) -0.91657(10)
C18A C -1.08729(18) -0.09615(6) -1.00145(11)
H10A H -1.0548 -0.0890 -1.0497
C19A C -1.20151(18) -0.12468(7) -1.01806(12)
C20A C -1.24420(18) -0.13605(7) -0.94617(12)
H11A H -1.3213 -0.1564 -0.9559
C21A C -1.17775(16) -0.11867(6) -0.85976(11)
C22A C -0.89320(18) -0.04768(7) -0.90621(11)
H12A H -0.8336 -0.0696 -0.9267
H13A H -0.8517 -0.0386 -0.8432
H14A H -0.9132 -0.0155 -0.9420
C23A C -1.2753(2) -0.14378(10) -1.11115(14)
H15A H -1.2330 -0.1304 -1.1534
H16A H -1.3657 -0.1311 -1.1284
H17A H -1.2750 -0.1822 -1.1121
C24A C -1.23277(19) -0.13278(8) -0.78561(13)
H18A H -1.1609 -0.1371 -0.7295
H19A H -1.2820 -0.1657 -0.8005
H20A H -1.2911 -0.1047 -0.7788
loop_
_geom_bond_atom_site_label_1
_geom_bond_atom_site_label_2
_geom_bond_site_symmetry_1
_geom_bond_site_symmetry_2
N1 C1 1_555 1_555
N2 C1 1_555 1_555
C1 H1 1_555 1_555
C2 N2 1_555 1_555
C3 C2 1_555 1_555
H2 C3 1_555 1_555
C4 C3 1_555 1_555
H3 C4 1_555 1_555
C5 C4 1_555 1_555
H4 C5 1_555 1_555
C6 C5 1_555 1_555
H5 C6 1_555 1_555
C7 N1 1_555 1_555
C8 H6 1_555 1_555
C9 N1 1_555 1_555
C10 C9 1_555 1_555
H7 C10 1_555 1_555
C11 C10 1_555 1_555
C12 C11 1_555 1_555
C13 C12 1_555 1_555
H8 C13 1_555 1_555
C14 C13 1_555 1_555
H9 C14 1_555 1_555
C15 C14 1_555 1_555
C16 C17 1_555 1_555
C17 C18 1_555 1_555
C18 H10 1_555 1_555
C19 C18 1_555 1_555
C20 C19 1_555 1_555
H11 C20 1_555 1_555
C21 C16 1_555 1_555
C22 C17 1_555 1_555
H12 C22 1_555 1_555
H13 C22 1_555 1_555
H14 C22 1_555 1_555
C23 C19 1_555 1_555
H15 C23 1_555 1_555
H16 C23 1_555 1_555
H17 C23 1_555 1_555
C24 C21 1_555 1_555
H18 C24 1_555 1_555
H19 C24 1_555 1_555
H20 C24 1_555 1_555
B1 C15 1_555 1_555
N1A C1A 1_555 1_555
N2A C1A 1_555 1_555
C1A H1A 1_555 1_555
C2A N2A 1_555 1_555
C3A C2A 1_555 1_555
H2A C3A 1_555 1_555
C4A C3A 1_555 1_555
H3A C4A 1_555 1_555
C5A C4A 1_555 1_555
H4A C5A 1_555 1_555
C6A C5A 1_555 1_555
H5A C6A 1_555 1_555
C7A N1A 1_555 1_555
C9A C8 1_555 1_555
C10A C11 1_555 1_555
H7A C10A 1_555 1_555
C13A C12 1_555 1_555
H8A C13A 1_555 1_555
C14A C15 1_555 1_555
H9A C14A 1_555 1_555
C16A B1 1_555 1_555
C17A C16A 1_555 1_555
C18A C17A 1_555 1_555
H10A C18A 1_555 1_555
C19A C18A 1_555 1_555
C20A C19A 1_555 1_555
H11A C20A 1_555 1_555
C21A C16A 1_555 1_555
C22A C17A 1_555 1_555
H12A C22A 1_555 1_555
H13A C22A 1_555 1_555
H14A C22A 1_555 1_555
C23A C19A 1_555 1_555
H15A C23A 1_555 1_555
H16A C23A 1_555 1_555
H17A C23A 1_555 1_555
C24A C21A 1_555 1_555
H18A C24A 1_555 1_555
H19A C24A 1_555 1_555
H20A C24A 1_555 1_555
C2 C7 1_555 1_555
C6 C7 1_555 1_555
C8 C9 1_555 1_555
C16 B1 1_555 1_555
C20 C21 1_555 1_555
N1A C9A 1_555 1_555
C2A C7A 1_555 1_555
C6A C7A 1_555 1_555
C9A C10A 1_555 1_555
C13A C14A 1_555 1_555
C20A C21A 1_555 1_555

#END
