
#######################################################################
#
#                 Cambridge Crystallographic Data Centre
#                                CCDC 
#
#######################################################################
#
# If this CIF has been generated from an entry in the Cambridge 
# Structural Database, then it will include bibliographic, chemical, 
# crystal, experimental, refinement or atomic coordinate data resulting 
# from the CCDC's data processing and validation procedures.
#
#######################################################################

data_KIDVEA
_chemical_formula_moiety         'C10 H9 F3 O3'
_chemical_name_systematic        
'Methyl 2-hydroxy-4-methyl-6-(trifluoromethyl)benzoate'
_symmetry_cell_setting           triclinic
_symmetry_space_group_name_H-M   'P -1'
_symmetry_Int_Tables_number      2
_space_group_name_Hall           '-P 1'
loop_
_symmetry_equiv_pos_site_id
_symmetry_equiv_pos_as_xyz
1 x,y,z
2 -x,-y,-z
_cell_length_a                   7.6594(3)
_cell_length_b                   8.2873(3)
_cell_length_c                   8.4742(3)
_cell_angle_alpha                92.7980(10)
_cell_angle_beta                 93.666(2)
_cell_angle_gamma                114.2450(10)
_cell_volume                     487.789
_exptl_crystal_colour            yellowish
_exptl_crystal_description       prism
_cell_formula_units_Z            2
loop_
_atom_site_label
_atom_site_type_symbol
_atom_site_fract_x
_atom_site_fract_y
_atom_site_fract_z
F1 F 0.64315(12) 0.69982(11) 0.06717(8)
F2 F 0.94339(11) 0.88041(11) 0.11036(9)
F3 F 0.85389(15) 0.60506(12) 0.14185(9)
O1 O 0.70634(14) 1.06991(13) 0.63944(11)
O2 O 0.75858(14) 1.21100(12) 0.37672(11)
O3 O 0.71664(13) 1.03783(12) 0.15581(10)
C1 C 0.72754(16) 0.93254(16) 0.56442(14)
C2 C 0.74946(15) 0.92222(14) 0.40046(13)
C3 C 0.77423(15) 0.77131(15) 0.33705(13)
C4 C 0.77356(16) 0.64102(15) 0.43293(14)
H1 H 0.7907 0.5417 0.3882
C5 C 0.74808(15) 0.65221(15) 0.59534(14)
C6 C 0.72518(16) 0.79767(16) 0.65879(13)
H2 H 0.7075 0.8067 0.7683
C7 C 0.74349(15) 1.07043(15) 0.31142(14)
C8 C 0.7175(2) 1.18251(18) 0.06544(16)
H3 H 0.6152 1.2164 0.0962
H4 H 0.6957 1.1442 -0.0481
H5 H 0.8422 1.2846 0.0872
C9 C 0.80363(19) 0.74175(16) 0.16490(14)
C10 C 0.74933(19) 0.50711(17) 0.69513(15)
H6 H 0.7357 0.5369 0.8057
H7 H 0.8710 0.4954 0.6889
H8 H 0.6421 0.3946 0.6557
H9 H 0.719(3) 1.146(3) 0.573(2)
loop_
_geom_bond_atom_site_label_1
_geom_bond_atom_site_label_2
_geom_bond_site_symmetry_1
_geom_bond_site_symmetry_2
F1 C9 1_555 1_555
F2 C9 1_555 1_555
F3 C9 1_555 1_555
O1 C1 1_555 1_555
O2 C7 1_555 1_555
O3 C7 1_555 1_555
C1 C2 1_555 1_555
C2 C3 1_555 1_555
C3 C4 1_555 1_555
C4 H1 1_555 1_555
C5 C4 1_555 1_555
C6 C1 1_555 1_555
H2 C6 1_555 1_555
C7 C2 1_555 1_555
C8 O3 1_555 1_555
H3 C8 1_555 1_555
H4 C8 1_555 1_555
H5 C8 1_555 1_555
C9 C3 1_555 1_555
C10 C5 1_555 1_555
H6 C10 1_555 1_555
H7 C10 1_555 1_555
H8 C10 1_555 1_555
H9 O1 1_555 1_555
C5 C6 1_555 1_555

#END
