
#######################################################################
#
#                 Cambridge Crystallographic Data Centre
#                                CCDC 
#
#######################################################################
#
# If this CIF has been generated from an entry in the Cambridge 
# Structural Database, then it will include bibliographic, chemical, 
# crystal, experimental, refinement or atomic coordinate data resulting 
# from the CCDC's data processing and validation procedures.
#
#######################################################################

data_KIDXEC
_chemical_formula_moiety         '2(C3 H8 N2 O1),C2 H2 O4'
_chemical_name_systematic        "bis(N,N'-dimethylurea) oxalic acid"
_symmetry_cell_setting           monoclinic
_symmetry_space_group_name_H-M   'P 21/n'
_symmetry_Int_Tables_number      14
_space_group_name_Hall           '-P 2yn'
loop_
_symmetry_equiv_pos_site_id
_symmetry_equiv_pos_as_xyz
1 x,y,z
2 1/2-x,1/2+y,1/2-z
3 -x,-y,-z
4 1/2+x,1/2-y,1/2+z
_cell_length_a                   3.9806(3)
_cell_length_b                   13.1500(9)
_cell_length_c                   12.5235(8)
_cell_angle_alpha                90
_cell_angle_beta                 94.263(3)
_cell_angle_gamma                90
_cell_volume                     653.728
_exptl_crystal_colour            colorless
_exptl_crystal_description       block
_cell_formula_units_Z            2
loop_
_atom_site_label
_atom_site_type_symbol
_atom_site_fract_x
_atom_site_fract_y
_atom_site_fract_z
C1 C 0.9053(3) 0.03746(9) 0.96115(9)
O1 O 0.7453(3) 0.10711(7) 1.00867(7)
O2 O 0.9174(3) 0.02697(8) 0.86512(7)
H1 H 0.627(6) 0.160(2) 0.954(2)
C1B C 1.0947(3) -0.03746(9) 1.03885(9)
O1B O 1.2547(3) -0.10711(7) 0.99133(7)
O2B O 1.0826(3) -0.02697(8) 1.13488(7)
H1B H 1.373(6) -0.160(2) 1.046(2)
C2 C 0.4852(3) 0.26334(10) 0.80766(10)
C3 C 0.2264(5) 0.42763(13) 0.83220(15)
C4 C 0.6711(5) 0.20797(16) 0.63293(12)
O3 O 0.4679(3) 0.24709(7) 0.90679(7)
N1 N 0.3617(3) 0.35022(9) 0.76648(10)
N2 N 0.6207(3) 0.19482(10) 0.74514(9)
H2 H 0.820(6) 0.1548(18) 0.6129(17)
H3 H 0.122(6) 0.477(2) 0.794(2)
H4 H 0.698(4) 0.1412(14) 0.7773(14)
H5 H 0.465(6) 0.2067(18) 0.5941(17)
H6 H 0.392(4) 0.3619(13) 0.7007(14)
H7 H 0.796(6) 0.273(2) 0.626(2)
H8 H 0.080(5) 0.4016(18) 0.8845(18)
H9 H 0.393(7) 0.460(2) 0.882(2)
loop_
_geom_bond_atom_site_label_1
_geom_bond_atom_site_label_2
_geom_bond_site_symmetry_1
_geom_bond_site_symmetry_2
C1 O1 1_555 1_555
O1 H1 1_555 1_555
O2 C1 1_555 1_555
C2 O3 1_555 1_555
C3 N1 1_555 1_555
C4 N2 1_555 1_555
N1 C2 1_555 1_555
N2 C2 1_555 1_555
H2 C4 1_555 1_555
H3 C3 1_555 1_555
H4 N2 1_555 1_555
H5 C4 1_555 1_555
H6 N1 1_555 1_555
H7 C4 1_555 1_555
H8 C3 1_555 1_555
H9 C3 1_555 1_555
C1B C1 1_555 1_555
O1B C1B 1_555 1_555
O2B C1B 1_555 1_555
H1B O1B 1_555 1_555

#END
