
#######################################################################
#
#                 Cambridge Crystallographic Data Centre
#                                CCDC 
#
#######################################################################
#
# If this CIF has been generated from an entry in the Cambridge 
# Structural Database, then it will include bibliographic, chemical, 
# crystal, experimental, refinement or atomic coordinate data resulting 
# from the CCDC's data processing and validation procedures.
#
#######################################################################

data_KIDXEC03
_chemical_formula_moiety         '2(C3 H8 N2 O1),C2 H2 O4'
_chemical_name_systematic        "bis(N,N'-dimethylurea) oxalic acid"
_symmetry_cell_setting           monoclinic
_symmetry_space_group_name_H-M   'P 21/n'
_symmetry_Int_Tables_number      14
_space_group_name_Hall           '-P 2yn'
loop_
_symmetry_equiv_pos_site_id
_symmetry_equiv_pos_as_xyz
1 x,y,z
2 1/2-x,1/2+y,1/2-z
3 -x,-y,-z
4 1/2+x,1/2-y,1/2+z
_cell_length_a                   3.730(5)
_cell_length_b                   13.260(5)
_cell_length_c                   12.360(5)
_cell_angle_alpha                90
_cell_angle_beta                 95.000(10)
_cell_angle_gamma                90
_cell_volume                     608.997
_exptl_crystal_colour            colorless
_exptl_crystal_description       block
_cell_formula_units_Z            2
loop_
_atom_site_label
_atom_site_type_symbol
_atom_site_fract_x
_atom_site_fract_y
_atom_site_fract_z
C1 C 0.9068(5) 0.03852(12) 0.96073(12)
H1 H 0.6038(13) 0.1719(3) 0.9512(3)
O1 O 0.7321(6) 0.10735(14) 1.00802(14)
O2 O 0.9336(6) 0.03097(15) 0.86283(14)
C1B C 1.0932(5) -0.03852(12) 1.03927(12)
H1B H 1.3962(13) -0.1719(3) 1.0488(3)
O1B O 1.2679(6) -0.10735(14) 0.99198(14)
O2B O 1.0664(6) -0.03097(15) 1.13717(14)
C2 C 0.4729(6) 0.26385(12) 0.80425(13)
C3 C 0.2090(5) 0.42788(13) 0.82937(14)
C4 C 0.6596(6) 0.20650(14) 0.62764(13)
H2 H 0.0615(17) 0.4820(4) 0.7780(4)
H3 H 0.4219(15) 0.4663(4) 0.8788(4)
H4 H 0.0283(15) 0.3961(4) 0.8843(3)
H5 H 0.8214(14) 0.1450(4) 0.6024(3)
H6 H 0.7959(14) 0.2765(4) 0.6125(3)
H7 H 0.4120(15) 0.2059(4) 0.5769(4)
H8 H 0.7267(12) 0.1330(3) 0.7828(3)
H9 H 0.3753(13) 0.3686(3) 0.6834(3)
O3 O 0.4603(7) 0.24921(13) 0.90580(16)
N1 N 0.3434(4) 0.35023(9) 0.76104(9)
N2 N 0.6136(4) 0.19400(9) 0.74235(9)
loop_
_geom_bond_atom_site_label_1
_geom_bond_atom_site_label_2
_geom_bond_site_symmetry_1
_geom_bond_site_symmetry_2
C1 O1 1_555 1_555
H1 O1 1_555 1_555
O2 C1 1_555 1_555
C2 O3 1_555 1_555
C3 H2 1_555 1_555
C4 H5 1_555 1_555
H3 C3 1_555 1_555
H4 C3 1_555 1_555
H6 C4 1_555 1_555
H7 C4 1_555 1_555
H8 N2 1_555 1_555
H9 N1 1_555 1_555
N1 C2 1_555 1_555
N2 C2 1_555 1_555
C1B C1 1_555 1_555
H1B O1B 1_555 1_555
O1B C1B 1_555 1_555
O2B C1B 1_555 1_555
C3 N1 1_555 1_555
C4 N2 1_555 1_555

#END
