
#######################################################################
#
#                 Cambridge Crystallographic Data Centre
#                                CCDC 
#
#######################################################################
#
# If this CIF has been generated from an entry in the Cambridge 
# Structural Database, then it will include bibliographic, chemical, 
# crystal, experimental, refinement or atomic coordinate data resulting 
# from the CCDC's data processing and validation procedures.
#
#######################################################################

data_KIDXEC04
_chemical_formula_moiety         '2(C3 H8 N2 O1),C2 H2 O4'
_chemical_name_systematic        "bis(N,N'-dimethylurea) oxalic acid"
_symmetry_cell_setting           monoclinic
_symmetry_space_group_name_H-M   'P 21/n'
_symmetry_Int_Tables_number      14
_space_group_name_Hall           '-P 2yn'
loop_
_symmetry_equiv_pos_site_id
_symmetry_equiv_pos_as_xyz
1 x,y,z
2 1/2-x,1/2+y,1/2-z
3 -x,-y,-z
4 1/2+x,1/2-y,1/2+z
_cell_length_a                   3.960(5)
_cell_length_b                   13.160(5)
_cell_length_c                   12.510(5)
_cell_angle_alpha                90
_cell_angle_beta                 94.300(10)
_cell_angle_gamma                90
_cell_volume                     650.106
_exptl_crystal_colour            colorless
_exptl_crystal_description       block
_cell_formula_units_Z            2
loop_
_atom_site_label
_atom_site_type_symbol
_atom_site_fract_x
_atom_site_fract_y
_atom_site_fract_z
C1 C 0.9053(5) 0.03759(11) 0.96114(11)
H1 H 0.6171(10) 0.1686(3) 0.9532(3)
O1 O 0.7428(5) 0.10691(15) 1.00800(13)
O2 O 0.9183(7) 0.02734(16) 0.86506(14)
C1B C 1.0947(5) -0.03759(11) 1.03886(11)
H1B H 1.3829(10) -0.1686(3) 1.0468(3)
O1B O 1.2572(5) -0.10691(15) 0.99200(13)
O2B O 1.0817(7) -0.02734(16) 1.13494(14)
C2 C 0.4827(5) 0.26363(11) 0.80764(13)
C3 C 0.2258(6) 0.42795(16) 0.83243(19)
C4 C 0.6684(8) 0.20815(17) 0.63280(16)
H2 H 0.106(2) 0.4831(5) 0.7853(6)
H3 H 0.409(2) 0.4620(6) 0.8831(8)
H4 H 0.0519(18) 0.3972(5) 0.8833(5)
H5 H 0.816(2) 0.1483(5) 0.6065(4)
H6 H 0.7993(18) 0.2771(5) 0.6181(4)
H7 H 0.442(2) 0.2096(6) 0.5836(5)
H8 H 0.7224(11) 0.1328(3) 0.7837(3)
H9 H 0.3870(12) 0.3693(3) 0.6889(3)
O3 O 0.4666(7) 0.24738(13) 0.90665(16)
N1 N 0.3595(4) 0.35032(9) 0.76591(10)
N2 N 0.6197(4) 0.19461(10) 0.74477(10)
loop_
_geom_bond_atom_site_label_1
_geom_bond_atom_site_label_2
_geom_bond_site_symmetry_1
_geom_bond_site_symmetry_2
C1 O1 1_555 1_555
H1 O1 1_555 1_555
O2 C1 1_555 1_555
C2 O3 1_555 1_555
C3 H2 1_555 1_555
C4 H5 1_555 1_555
H3 C3 1_555 1_555
H4 C3 1_555 1_555
H6 C4 1_555 1_555
H7 C4 1_555 1_555
H8 N2 1_555 1_555
H9 N1 1_555 1_555
N1 C2 1_555 1_555
N2 C2 1_555 1_555
C1B C1 1_555 1_555
H1B O1B 1_555 1_555
O1B C1B 1_555 1_555
O2B C1B 1_555 1_555
C3 N1 1_555 1_555
C4 N2 1_555 1_555

#END
