
#######################################################################
#
#                 Cambridge Crystallographic Data Centre
#                                CCDC 
#
#######################################################################
#
# If this CIF has been generated from an entry in the Cambridge 
# Structural Database, then it will include bibliographic, chemical, 
# crystal, experimental, refinement or atomic coordinate data resulting 
# from the CCDC's data processing and validation procedures.
#
#######################################################################

data_KIDZUU
_chemical_formula_moiety         'C18 H16 O2'
_chemical_name_systematic        
2-(4-Methylbenzylidene)-1-phenylbutane-1,3-dione
_symmetry_cell_setting           monoclinic
_symmetry_space_group_name_H-M   'P 21/c'
_symmetry_Int_Tables_number      14
_space_group_name_Hall           '-P 2ybc'
loop_
_symmetry_equiv_pos_site_id
_symmetry_equiv_pos_as_xyz
1 x,y,z
2 -x,1/2+y,1/2-z
3 -x,-y,-z
4 x,1/2-y,1/2+z
_cell_length_a                   30.156(7)
_cell_length_b                   8.795(2)
_cell_length_c                   11.162(3)
_cell_angle_alpha                90
_cell_angle_beta                 100.061(4)
_cell_angle_gamma                90
_cell_volume                     2914.88
_cell_formula_units_Z            8
loop_
_atom_site_label
_atom_site_type_symbol
_atom_site_fract_x
_atom_site_fract_y
_atom_site_fract_z
C1 C 0.50073(7) 0.1707(2) -0.1137(2)
H1 H 0.4831 0.0823 -0.1410
H2 H 0.5242 0.1433 -0.0476
H3 H 0.5138 0.2107 -0.1796
C2 C 0.47099(6) 0.2891(2) -0.07159(16)
C3 C 0.45262(7) 0.2683(2) 0.03261(17)
H4 H 0.4584 0.1780 0.0759
C4 C 0.42618(7) 0.3764(2) 0.07417(16)
H5 H 0.4145 0.3584 0.1447
C5 C 0.41660(6) 0.51351(19) 0.01143(15)
C6 C 0.43460(7) 0.5333(2) -0.09391(16)
H6 H 0.4285 0.6225 -0.1385
C7 C 0.46129(7) 0.4239(2) -0.13386(16)
H7 H 0.4730 0.4413 -0.2043
C8 C 0.39006(6) 0.6384(2) 0.04875(15)
H8 H 0.3860 0.7200 -0.0050
C9 C 0.37055(6) 0.65569(19) 0.14727(15)
C10 C 0.34574(7) 0.7958(2) 0.16836(18)
C11 C 0.34399(11) 0.9286(3) 0.0833(3)
H9 H 0.3236 1.0038 0.1045
H10 H 0.3337 0.8950 0.0013
H11 H 0.3735 0.9720 0.0896
C12 C 0.37287(6) 0.54286(19) 0.24964(15)
C13 C 0.33785(6) 0.4227(2) 0.24097(15)
C14 C 0.34195(8) 0.3090(2) 0.32770(19)
H12 H 0.3663 0.3093 0.3917
C15 C 0.31028(10) 0.1955(3) 0.3198(3)
H13 H 0.3136 0.1187 0.3780
C16 C 0.27413(9) 0.1942(3) 0.2276(3)
H14 H 0.2528 0.1172 0.2234
C17 C 0.26921(8) 0.3061(3) 0.1413(3)
H15 H 0.2445 0.3057 0.0786
C18 C 0.30142(7) 0.4203(2) 0.14779(19)
H16 H 0.2983 0.4958 0.0886
O1 O 0.32713(5) 0.80169(16) 0.25729(14)
O2 O 0.40293(5) 0.55341(16) 0.33723(12)
C19 C 0.00253(7) 0.8313(2) -0.11509(19)
H17 H -0.0106 0.7931 -0.1939
H18 H 0.0208 0.9185 -0.1244
H19 H -0.0209 0.8597 -0.0713
C20 C 0.03128(6) 0.7101(2) -0.04574(16)
C21 C 0.03871(7) 0.5723(2) -0.09812(16)
H20 H 0.0263 0.5550 -0.1793
C22 C 0.06407(7) 0.4596(2) -0.03297(16)
H21 H 0.0683 0.3679 -0.0710
C23 C 0.08351(6) 0.4802(2) 0.08839(15)
C24 C 0.07652(7) 0.6205(2) 0.14081(16)
H22 H 0.0893 0.6390 0.2215
C25 C 0.05107(7) 0.7315(2) 0.07469(17)
H23 H 0.0470 0.8238 0.1120
C26 C 0.10841(6) 0.3524(2) 0.15079(16)
H24 H 0.1109 0.2690 0.1013
C27 C 0.12834(6) 0.3343(2) 0.26748(15)
C28 C 0.15183(7) 0.1921(2) 0.31176(18)
C29 C 0.15047(10) 0.0570(3) 0.2302(2)
H25 H 0.1683 -0.0233 0.2724
H26 H 0.1623 0.0843 0.1587
H27 H 0.1199 0.0232 0.2071
C30 C 0.12849(6) 0.4510(2) 0.36659(15)
C31 C 0.16530(6) 0.5646(2) 0.38694(15)
C32 C 0.20088(7) 0.5554(3) 0.3253(2)
H28 H 0.2022 0.4756 0.2713
C33 C 0.23471(9) 0.6634(3) 0.3427(3)
H29 H 0.2588 0.6556 0.3011
C34 C 0.23282(10) 0.7800(3) 0.4203(3)
H30 H 0.2554 0.8534 0.4307
C35 C 0.19782(11) 0.7914(3) 0.4839(2)
H31 H 0.1971 0.8712 0.5382
C36 C 0.16348(9) 0.6836(2) 0.46720(19)
H32 H 0.1396 0.6915 0.5094
O3 O 0.17234(6) 0.18745(17) 0.41591(14)
O4 O 0.09872(5) 0.44772(17) 0.42776(12)
loop_
_geom_bond_atom_site_label_1
_geom_bond_atom_site_label_2
_geom_bond_site_symmetry_1
_geom_bond_site_symmetry_2
C1 H1 1_555 1_555
H2 C1 1_555 1_555
H3 C1 1_555 1_555
C2 C1 1_555 1_555
C3 C2 1_555 1_555
H4 C3 1_555 1_555
C4 C3 1_555 1_555
H5 C4 1_555 1_555
C5 C4 1_555 1_555
C6 C5 1_555 1_555
H6 C6 1_555 1_555
C7 C2 1_555 1_555
H7 C7 1_555 1_555
C8 C5 1_555 1_555
H8 C8 1_555 1_555
C9 C8 1_555 1_555
C10 C9 1_555 1_555
C11 C10 1_555 1_555
H9 C11 1_555 1_555
H10 C11 1_555 1_555
H11 C11 1_555 1_555
C12 C9 1_555 1_555
C13 C12 1_555 1_555
C14 C13 1_555 1_555
H12 C14 1_555 1_555
C15 C14 1_555 1_555
H13 C15 1_555 1_555
C16 C15 1_555 1_555
H14 C16 1_555 1_555
C17 C16 1_555 1_555
H15 C17 1_555 1_555
C18 C13 1_555 1_555
H16 C18 1_555 1_555
O1 C10 1_555 1_555
O2 C12 1_555 1_555
C19 H17 1_555 1_555
H18 C19 1_555 1_555
H19 C19 1_555 1_555
C20 C19 1_555 1_555
C21 C20 1_555 1_555
H20 C21 1_555 1_555
C22 C21 1_555 1_555
H21 C22 1_555 1_555
C23 C22 1_555 1_555
C24 C23 1_555 1_555
H22 C24 1_555 1_555
C25 C20 1_555 1_555
H23 C25 1_555 1_555
C26 C23 1_555 1_555
H24 C26 1_555 1_555
C27 C26 1_555 1_555
C28 C27 1_555 1_555
C29 C28 1_555 1_555
H25 C29 1_555 1_555
H26 C29 1_555 1_555
H27 C29 1_555 1_555
C30 C27 1_555 1_555
C31 C30 1_555 1_555
C32 C31 1_555 1_555
H28 C32 1_555 1_555
C33 C32 1_555 1_555
H29 C33 1_555 1_555
C34 C33 1_555 1_555
H30 C34 1_555 1_555
C35 C34 1_555 1_555
H31 C35 1_555 1_555
C36 C31 1_555 1_555
H32 C36 1_555 1_555
O3 C28 1_555 1_555
O4 C30 1_555 1_555
C6 C7 1_555 1_555
C17 C18 1_555 1_555
C24 C25 1_555 1_555
C35 C36 1_555 1_555

#END
