
#######################################################################
#
#                 Cambridge Crystallographic Data Centre
#                                CCDC 
#
#######################################################################
#
# If this CIF has been generated from an entry in the Cambridge 
# Structural Database, then it will include bibliographic, chemical, 
# crystal, experimental, refinement or atomic coordinate data resulting 
# from the CCDC's data processing and validation procedures.
#
#######################################################################

data_KIDZAA
_chemical_formula_moiety         'C13 H8 Br1 I1 O1'
_chemical_name_systematic        4'-Bromo-5-iodobiphenyl-3-carbaldehyde
_symmetry_cell_setting           triclinic
_symmetry_space_group_name_H-M   'P -1'
_symmetry_Int_Tables_number      2
_space_group_name_Hall           '-P 1'
loop_
_symmetry_equiv_pos_site_id
_symmetry_equiv_pos_as_xyz
1 x,y,z
2 -x,-y,-z
_cell_length_a                   7.926(5)
_cell_length_b                   9.424(6)
_cell_length_c                   9.616(10)
_cell_angle_alpha                100.285(9)
_cell_angle_beta                 103.045(9)
_cell_angle_gamma                112.399(6)
_cell_volume                     618.399
_exptl_crystal_colour            colorless
_exptl_crystal_description       block
_cell_formula_units_Z            2
loop_
_atom_site_label
_atom_site_type_symbol
_atom_site_fract_x
_atom_site_fract_y
_atom_site_fract_z
Br1 Br 1.36727(6) 0.16438(4) 0.34697(5)
C1 C 0.9378(4) 0.4090(3) 0.7181(3)
C2 C 1.0000(4) 0.5719(3) 0.7835(3)
H1 H 1.1009 0.6470 0.7634
C3 C 0.9129(4) 0.6241(3) 0.8788(3)
C4 C 0.7594(4) 0.5130(4) 0.9083(3)
H2 H 0.7009 0.5478 0.9716
C5 C 0.6949(4) 0.3506(3) 0.8424(3)
C6 C 0.7813(4) 0.2982(3) 0.7472(3)
H3 H 0.7353 0.1888 0.7023
C7 C 1.0386(4) 0.3510(3) 0.6246(3)
C8 C 1.2386(5) 0.4348(4) 0.6584(3)
H4 H 1.3071 0.5289 0.7373
C9 C 1.3357(4) 0.3803(4) 0.5770(3)
H5 H 1.4685 0.4371 0.6006
C10 C 1.2341(5) 0.2411(4) 0.4606(3)
C11 C 1.0368(5) 0.1538(4) 0.4234(3)
H6 H 0.9701 0.0593 0.3447
C12 C 0.9404(5) 0.2099(4) 0.5056(3)
H7 H 0.8076 0.1524 0.4811
C13 C 0.9866(4) 0.8033(4) 0.9553(3)
H8 H 0.9261 0.8353 1.0184
I1 I 0.47209(3) 0.17913(2) 0.89045(3)
O1 O 1.1186(4) 0.9023(3) 0.9362(3)
loop_
_geom_bond_atom_site_label_1
_geom_bond_atom_site_label_2
_geom_bond_site_symmetry_1
_geom_bond_site_symmetry_2
Br1 C10 1_555 1_555
C1 C2 1_555 1_555
C2 H1 1_555 1_555
C3 C2 1_555 1_555
C4 C3 1_555 1_555
H2 C4 1_555 1_555
C5 C4 1_555 1_555
C6 C1 1_555 1_555
H3 C6 1_555 1_555
C7 C1 1_555 1_555
C8 C7 1_555 1_555
H4 C8 1_555 1_555
C9 C8 1_555 1_555
H5 C9 1_555 1_555
C10 C9 1_555 1_555
C11 C10 1_555 1_555
H6 C11 1_555 1_555
C12 C7 1_555 1_555
H7 C12 1_555 1_555
C13 C3 1_555 1_555
H8 C13 1_555 1_555
I1 C5 1_555 1_555
O1 C13 1_555 1_555
C5 C6 1_555 1_555
C11 C12 1_555 1_555

#END
