
#######################################################################
#
#                 Cambridge Crystallographic Data Centre
#                                CCDC 
#
#######################################################################
#
# If this CIF has been generated from an entry in the Cambridge 
# Structural Database, then it will include bibliographic, chemical, 
# crystal, experimental, refinement or atomic coordinate data resulting 
# from the CCDC's data processing and validation procedures.
#
#######################################################################

data_KIDZOO
_chemical_formula_moiety         'C17 H13 F1 O2'
_chemical_name_systematic        
2-(4-Fluorobenzylidene)-1-phenylbutane-1,3-dione
_symmetry_cell_setting           orthorhombic
_symmetry_space_group_name_H-M   'P b c a'
_symmetry_Int_Tables_number      61
_space_group_name_Hall           '-P 2ac 2ab'
loop_
_symmetry_equiv_pos_site_id
_symmetry_equiv_pos_as_xyz
1 x,y,z
2 1/2+x,1/2-y,-z
3 -x,1/2+y,1/2-z
4 1/2-x,-y,1/2+z
5 -x,-y,-z
6 1/2-x,1/2+y,z
7 x,1/2-y,1/2+z
8 1/2+x,y,1/2-z
_cell_length_a                   9.0702(12)
_cell_length_b                   15.872(2)
_cell_length_c                   19.619(3)
_cell_angle_alpha                90
_cell_angle_beta                 90
_cell_angle_gamma                90
_cell_volume                     2824.39
_cell_formula_units_Z            8
loop_
_atom_site_label
_atom_site_type_symbol
_atom_site_fract_x
_atom_site_fract_y
_atom_site_fract_z
C1 C 1.32606(18) 0.46248(11) 0.15177(10)
C2 C 1.35457(19) 0.45198(14) 0.08452(11)
H1 H 1.4482 0.4621 0.0670
C3 C 1.24111(18) 0.42580(13) 0.04265(9)
H2 H 1.2596 0.4182 -0.0036
C4 C 1.10085(16) 0.41055(9) 0.06732(8)
C5 C 1.0790(2) 0.42368(16) 0.13678(10)
H3 H 0.9856 0.4149 0.1550
C6 C 1.1911(2) 0.44926(15) 0.17920(10)
H4 H 1.1745 0.4573 0.2255
C7 C 0.98929(18) 0.38192(10) 0.01901(8)
H5 H 1.0224 0.3759 -0.0256
C8 C 0.84660(17) 0.36286(9) 0.02856(8)
C9 C 0.7499(2) 0.33339(11) -0.02718(9)
C10 C 0.8121(3) 0.31360(17) -0.09598(11)
H6 H 0.7341 0.2958 -0.1258
H7 H 0.8836 0.2693 -0.0919
H8 H 0.8585 0.3630 -0.1144
C11 C 0.76552(16) 0.36997(9) 0.09519(8)
C12 C 0.73823(16) 0.29153(9) 0.13380(7)
C13 C 0.6350(2) 0.29197(14) 0.18599(9)
H9 H 0.5860 0.3416 0.1971
C14 C 0.6053(3) 0.2196(2) 0.22097(12)
H10 H 0.5348 0.2200 0.2554
C15 C 0.6776(4) 0.14727(19) 0.20599(14)
H11 H 0.6568 0.0985 0.2304
C16 C 0.7820(3) 0.14516(12) 0.15483(12)
H12 H 0.8314 0.0953 0.1449
C17 C 0.8125(2) 0.21765(9) 0.11842(8)
H13 H 0.8826 0.2168 0.0838
F1 F 1.43588(11) 0.48813(8) 0.19407(7)
O1 O 0.72114(14) 0.43788(7) 0.11484(7)
O2 O 0.61893(15) 0.32480(10) -0.01538(8)
loop_
_geom_bond_atom_site_label_1
_geom_bond_atom_site_label_2
_geom_bond_site_symmetry_1
_geom_bond_site_symmetry_2
C1 C2 1_555 1_555
C2 H1 1_555 1_555
C3 C2 1_555 1_555
H2 C3 1_555 1_555
C4 C3 1_555 1_555
C5 C4 1_555 1_555
H3 C5 1_555 1_555
C6 C1 1_555 1_555
H4 C6 1_555 1_555
C7 C4 1_555 1_555
H5 C7 1_555 1_555
C8 C7 1_555 1_555
C9 C8 1_555 1_555
C10 C9 1_555 1_555
H6 C10 1_555 1_555
H7 C10 1_555 1_555
H8 C10 1_555 1_555
C11 C8 1_555 1_555
C12 C11 1_555 1_555
C13 C12 1_555 1_555
H9 C13 1_555 1_555
C14 C13 1_555 1_555
H10 C14 1_555 1_555
C15 C14 1_555 1_555
H11 C15 1_555 1_555
C16 C15 1_555 1_555
H12 C16 1_555 1_555
C17 C12 1_555 1_555
H13 C17 1_555 1_555
F1 C1 1_555 1_555
O1 C11 1_555 1_555
O2 C9 1_555 1_555
C5 C6 1_555 1_555
C16 C17 1_555 1_555

#END
