
#######################################################################
#
#                 Cambridge Crystallographic Data Centre
#                                CCDC 
#
#######################################################################
#
# If this CIF has been generated from an entry in the Cambridge 
# Structural Database, then it will include bibliographic, chemical, 
# crystal, experimental, refinement or atomic coordinate data resulting 
# from the CCDC's data processing and validation procedures.
#
#######################################################################

data_KIFDEK01
_chemical_formula_moiety         'C28 H24 N2 O2'
_chemical_name_systematic        
N,N'-bis(4-Methoxyphenyl)-1,2-diphenylethane-1,2-diimine
_symmetry_cell_setting           triclinic
_symmetry_space_group_name_H-M   'P -1'
_symmetry_Int_Tables_number      2
_space_group_name_Hall           '-P 1'
loop_
_symmetry_equiv_pos_site_id
_symmetry_equiv_pos_as_xyz
1 x,y,z
2 -x,-y,-z
_cell_length_a                   9.4812(19)
_cell_length_b                   10.0987(19)
_cell_length_c                   13.636(3)
_cell_angle_alpha                74.849(5)
_cell_angle_beta                 80.124(5)
_cell_angle_gamma                67.332(4)
_cell_volume                     1159.21
_exptl_crystal_colour            yellow
_exptl_crystal_description       prismatic
_cell_formula_units_Z            2
loop_
_atom_site_label
_atom_site_type_symbol
_atom_site_fract_x
_atom_site_fract_y
_atom_site_fract_z
N1 N 0.29026(19) 0.09565(18) 0.38106(12)
N2 N 0.4359(2) -0.03860(19) 0.18209(13)
O1 O 0.4648(2) 0.56900(17) 0.16180(14)
O2 O -0.1424(2) 0.2631(2) 0.02834(13)
C1 C 0.3486(2) -0.0345(2) 0.36385(14)
C2 C 0.4689(2) -0.0745(2) 0.27603(15)
C3 C 0.6334(2) -0.1526(2) 0.29800(15)
C4 C 0.7467(2) -0.1835(2) 0.21865(17)
H1 H 0.7191 -0.1564 0.1520
C5 C 0.8991(3) -0.2537(3) 0.2377(2)
H2 H 0.9731 -0.2739 0.1838
C6 C 0.9434(3) -0.2948(3) 0.3367(2)
H3 H 1.0463 -0.3424 0.3493
C7 C 0.8325(3) -0.2640(2) 0.41566(18)
H4 H 0.8607 -0.2904 0.4821
C8 C 0.6792(2) -0.1938(2) 0.39671(16)
H5 H 0.6056 -0.1737 0.4508
C9 C 0.2953(2) -0.1516(2) 0.43201(15)
C10 C 0.3484(3) -0.2935(2) 0.41355(17)
H6 H 0.4186 -0.3166 0.3583
C11 C 0.2964(3) -0.3998(2) 0.47755(19)
H7 H 0.3330 -0.4943 0.4655
C12 C 0.1907(3) -0.3662(3) 0.55895(19)
H8 H 0.1559 -0.4379 0.6013
C13 C 0.1365(3) -0.2265(3) 0.57753(18)
H9 H 0.0645 -0.2039 0.6320
C14 C 0.1893(2) -0.1188(2) 0.51490(16)
H10 H 0.1538 -0.0253 0.5284
C15 C 0.3426(2) 0.2111(2) 0.32198(15)
C16 C 0.2416(3) 0.3335(2) 0.26216(18)
H11 H 0.1428 0.3381 0.2583
C17 C 0.2877(3) 0.4480(2) 0.20869(19)
H12 H 0.2207 0.5276 0.1670
C18 C 0.4319(3) 0.4463(2) 0.21606(17)
C19 C 0.5328(3) 0.3263(2) 0.27676(17)
H13 H 0.6302 0.3239 0.2825
C20 C 0.4869(3) 0.2093(2) 0.32921(16)
H14 H 0.5547 0.1287 0.3698
C21 C 0.6156(4) 0.5656(3) 0.1580(2)
H15 H 0.6433 0.5478 0.2260
H16 H 0.6213 0.6582 0.1200
H17 H 0.6849 0.4885 0.1254
C22 C 0.2825(3) 0.0357(2) 0.15257(15)
C23 C 0.1641(3) -0.0172(3) 0.18665(17)
H18 H 0.1803 -0.1028 0.2370
C24 C 0.0213(3) 0.0549(3) 0.14727(18)
H19 H -0.0560 0.0163 0.1703
C25 C -0.0059(3) 0.1841(3) 0.07376(17)
C26 C 0.1108(3) 0.2406(3) 0.04053(19)
H20 H 0.0931 0.3289 -0.0072
C27 C 0.2530(3) 0.1656(3) 0.07835(17)
H21 H 0.3311 0.2027 0.0537
C28 C -0.2538(3) 0.1944(3) 0.0454(2)
H22 H -0.2073 0.1000 0.0276
H23 H -0.3375 0.2548 0.0040
H24 H -0.2912 0.1822 0.1159
loop_
_geom_bond_atom_site_label_1
_geom_bond_atom_site_label_2
_geom_bond_site_symmetry_1
_geom_bond_site_symmetry_2
N1 C1 1_555 1_555
N2 C2 1_555 1_555
O1 C18 1_555 1_555
O2 C25 1_555 1_555
C1 C2 1_555 1_555
C2 C3 1_555 1_555
C3 C4 1_555 1_555
C4 H1 1_555 1_555
C5 C4 1_555 1_555
H2 C5 1_555 1_555
C6 C5 1_555 1_555
H3 C6 1_555 1_555
C7 C6 1_555 1_555
H4 C7 1_555 1_555
C8 C3 1_555 1_555
H5 C8 1_555 1_555
C9 C1 1_555 1_555
C10 C9 1_555 1_555
H6 C10 1_555 1_555
C11 C10 1_555 1_555
H7 C11 1_555 1_555
C12 C11 1_555 1_555
H8 C12 1_555 1_555
C13 C12 1_555 1_555
H9 C13 1_555 1_555
C14 C9 1_555 1_555
H10 C14 1_555 1_555
C15 N1 1_555 1_555
C16 C15 1_555 1_555
H11 C16 1_555 1_555
C17 C16 1_555 1_555
H12 C17 1_555 1_555
C18 C17 1_555 1_555
C19 C18 1_555 1_555
H13 C19 1_555 1_555
C20 C15 1_555 1_555
H14 C20 1_555 1_555
C21 O1 1_555 1_555
H15 C21 1_555 1_555
H16 C21 1_555 1_555
H17 C21 1_555 1_555
C22 N2 1_555 1_555
C23 C22 1_555 1_555
H18 C23 1_555 1_555
C24 C23 1_555 1_555
H19 C24 1_555 1_555
C25 C24 1_555 1_555
C26 C25 1_555 1_555
H20 C26 1_555 1_555
C27 C22 1_555 1_555
H21 C27 1_555 1_555
C28 O2 1_555 1_555
H22 C28 1_555 1_555
H23 C28 1_555 1_555
H24 C28 1_555 1_555
C7 C8 1_555 1_555
C13 C14 1_555 1_555
C19 C20 1_555 1_555
C26 C27 1_555 1_555

#END
