
#######################################################################
#
#                 Cambridge Crystallographic Data Centre
#                                CCDC 
#
#######################################################################
#
# If this CIF has been generated from an entry in the Cambridge 
# Structural Database, then it will include bibliographic, chemical, 
# crystal, experimental, refinement or atomic coordinate data resulting 
# from the CCDC's data processing and validation procedures.
#
#######################################################################

data_KIFHAK
_chemical_formula_moiety         'C17 H11 F3 N2 O3'
_chemical_name_systematic        
2-Amino-6-methyl-8-oxo-4-(3-(trifluoromethyl)phenyl)-4,8-dihydropyrano[3,2-b]pyran-3-carbonitrile
_symmetry_cell_setting           monoclinic
_symmetry_space_group_name_H-M   'P 21/c'
_symmetry_Int_Tables_number      14
_space_group_name_Hall           '-P 2ybc'
loop_
_symmetry_equiv_pos_site_id
_symmetry_equiv_pos_as_xyz
1 x,y,z
2 -x,1/2+y,1/2-z
3 -x,-y,-z
4 x,1/2-y,1/2+z
_cell_length_a                   6.3762(12)
_cell_length_b                   26.273(5)
_cell_length_c                   9.5953(18)
_cell_angle_alpha                90
_cell_angle_beta                 99.739(2)
_cell_angle_gamma                90
_cell_volume                     1584.26
_exptl_crystal_colour            white
_cell_formula_units_Z            4
loop_
_atom_site_label
_atom_site_type_symbol
_atom_site_fract_x
_atom_site_fract_y
_atom_site_fract_z
O1 O 0.31331(19) 0.61245(5) -0.13794(11)
O2 O 0.74444(18) 0.54330(5) 0.07662(12)
C1 C 0.6228(2) 0.56891(6) -0.03434(17)
C2 C 0.4586(3) 0.55072(6) 0.20668(17)
O3 O 0.8956(2) 0.55556(6) -0.16829(14)
C3 C 0.6564(3) 0.53359(6) 0.19420(17)
N1 N 0.7884(3) 0.50631(7) 0.28741(17)
C4 C 0.4316(3) 0.58836(6) -0.02621(16)
C5 C 0.7173(3) 0.57241(7) -0.16185(18)
C6 C 0.3235(2) 0.58448(6) 0.09955(16)
H1 H 0.1858 0.5677 0.0702
N2 N 0.2987(3) 0.52961(7) 0.42702(17)
C7 C 0.3736(3) 0.53834(7) 0.32929(18)
C8 C 0.5782(3) 0.59648(7) -0.27686(18)
H2 H 0.6232 0.5996 -0.3637
C9 C 0.2831(3) 0.63672(7) 0.16072(16)
C10 C 0.3860(3) 0.61464(7) -0.26342(18)
C11 C 0.4411(3) 0.66132(7) 0.25311(18)
H3 H 0.5756 0.6468 0.2750
C12 C 0.4001(3) 0.70759(7) 0.31345(19)
C13 C 0.0857(3) 0.65951(8) 0.1272(2)
H4 H -0.0209 0.6438 0.0636
C14 C 0.2237(4) 0.63733(9) -0.3758(2)
H5 H 0.2785 0.6385 -0.4630
H6 H 0.1909 0.6712 -0.3488
H7 H 0.0970 0.6169 -0.3880
C15 C 0.5692(4) 0.73318(9) 0.4139(3)
F1 F 0.5014(16) 0.7692(4) 0.4879(14)
C16 C 0.2011(4) 0.72937(8) 0.2816(2)
H8 H 0.1727 0.7600 0.3233
C17 C 0.0456(4) 0.70572(10) 0.1882(3)
H9 H -0.0879 0.7207 0.1652
F2 F 0.6695(5) 0.76821(10) 0.3533(3)
F3 F 0.6900(19) 0.7028(2) 0.4909(10)
H10 H 0.754(4) 0.4984(8) 0.375(3)
H11 H 0.903(4) 0.4938(8) 0.263(2)
F4? F 0.5196(16) 0.7432(5) 0.5329(7)
F5? F 0.7508(10) 0.7094(3) 0.4423(11)
loop_
_geom_bond_atom_site_label_1
_geom_bond_atom_site_label_2
_geom_bond_site_symmetry_1
_geom_bond_site_symmetry_2
O1 C4 1_555 1_555
O2 C1 1_555 1_555
C1 C4 1_555 1_555
C2 C3 1_555 1_555
O3 C5 1_555 1_555
C3 O2 1_555 1_555
N1 C3 1_555 1_555
C4 C6 1_555 1_555
C5 C1 1_555 1_555
C6 C2 1_555 1_555
H1 C6 1_555 1_555
N2 C7 1_555 1_555
C7 C2 1_555 1_555
C8 C5 1_555 1_555
H2 C8 1_555 1_555
C9 C6 1_555 1_555
C10 O1 1_555 1_555
C11 C9 1_555 1_555
H3 C11 1_555 1_555
C12 C11 1_555 1_555
C13 C9 1_555 1_555
H4 C13 1_555 1_555
C14 C10 1_555 1_555
H5 C14 1_555 1_555
H6 C14 1_555 1_555
H7 C14 1_555 1_555
C15 C12 1_555 1_555
F1 C15 1_555 1_555
C16 C12 1_555 1_555
H8 C16 1_555 1_555
C17 C13 1_555 1_555
H9 C17 1_555 1_555
F2 C15 1_555 1_555
F3 C15 1_555 1_555
H10 N1 1_555 1_555
H11 N1 1_555 1_555
C8 C10 1_555 1_555
C16 C17 1_555 1_555

#END
