
#######################################################################
#
#                 Cambridge Crystallographic Data Centre
#                                CCDC 
#
#######################################################################
#
# If this CIF has been generated from an entry in the Cambridge 
# Structural Database, then it will include bibliographic, chemical, 
# crystal, experimental, refinement or atomic coordinate data resulting 
# from the CCDC's data processing and validation procedures.
#
#######################################################################

data_KIFLAP
_chemical_formula_moiety         'C18 H22 O5'
_chemical_name_systematic        
'methyl 6-hydroxy-8-methoxy-5-(prop-1-en-2-yl)-3,4,5,6-tetrahydro-2H-2,6-methano-1-benzoxocine-2-carboxylate'
_symmetry_cell_setting           orthorhombic
_symmetry_space_group_name_H-M   'P b c a'
_symmetry_Int_Tables_number      61
_space_group_name_Hall           '-P 2ac 2ab'
loop_
_symmetry_equiv_pos_site_id
_symmetry_equiv_pos_as_xyz
1 x,y,z
2 1/2-x,-y,1/2+z
3 -x,1/2+y,1/2-z
4 1/2+x,1/2-y,-z
5 -x,-y,-z
6 1/2+x,y,1/2-z
7 x,1/2-y,1/2+z
8 1/2-x,1/2+y,z
_cell_length_a                   13.248(8)
_cell_length_b                   11.319(7)
_cell_length_c                   21.558(12)
_cell_angle_alpha                90
_cell_angle_beta                 90
_cell_angle_gamma                90
_cell_volume                     3232.71
_exptl_crystal_colour            colorless
_exptl_crystal_description       block
_chemical_melting_point          '98.7-99.1 deg.C'
_cell_formula_units_Z            8
loop_
_atom_site_label
_atom_site_type_symbol
_atom_site_fract_x
_atom_site_fract_y
_atom_site_fract_z
O1 O 0.15394(14) 0.54705(16) 0.52902(7)
O2 O 0.20905(11) 0.24947(13) 0.72985(7)
O3 O 0.31959(16) 0.24530(18) 0.87695(8)
O4 O 0.19388(13) 0.14177(15) 0.83465(8)
O5 O 0.41084(12) 0.53385(14) 0.70461(8)
H1 H 0.3697 0.5783 0.7208
C1 C 0.17425(18) 0.4756(2) 0.57916(10)
C2 C 0.26122(16) 0.4834(2) 0.61429(10)
H2 H 0.3101 0.5390 0.6042
C3 C 0.27627(16) 0.4084(2) 0.66488(10)
C4 C 0.20243(16) 0.32677(19) 0.67966(10)
C5 C 0.11535(17) 0.3178(2) 0.64417(11)
H3 H 0.0667 0.2617 0.6541
C6 C 0.10086(18) 0.3920(2) 0.59414(11)
H4 H 0.0423 0.3863 0.5705
C7 C 0.2295(2) 0.6301(3) 0.51251(12)
H5 H 0.2404 0.6835 0.5464
H6 H 0.2080 0.6737 0.4767
H7 H 0.2912 0.5892 0.5033
C8 C 0.37120(16) 0.41644(19) 0.70358(10)
C9 C 0.34294(17) 0.3779(2) 0.76886(10)
H8 H 0.4022 0.3795 0.7952
H9 H 0.2934 0.4320 0.7860
C10 C 0.29972(16) 0.25412(19) 0.76695(10)
C11 C 0.27190(18) 0.2155(2) 0.83260(11)
C12 C 0.1678(2) 0.0985(3) 0.89584(11)
H10 H 0.2276 0.0702 0.9162
H11 H 0.1200 0.0351 0.8921
H12 H 0.1387 0.1614 0.9197
C13 C 0.37811(17) 0.1675(2) 0.74107(11)
H13 H 0.4336 0.1607 0.7702
H14 H 0.3475 0.0901 0.7368
C14 C 0.41880(18) 0.2071(2) 0.67838(11)
H15 H 0.3659 0.1989 0.6476
H16 H 0.4739 0.1555 0.6665
C15 C 0.45649(16) 0.3354(2) 0.67820(10)
H17 H 0.5121 0.3395 0.7081
C16 C 0.49852(17) 0.3749(2) 0.61647(11)
C17 C 0.4714(2) 0.3271(3) 0.56236(13)
H18 H 0.5010 0.3532 0.5257
H19 H 0.4228 0.2677 0.5613
C18 C 0.5754(2) 0.4688(3) 0.61765(14)
H20 H 0.6031 0.4787 0.5768
H21 H 0.6282 0.4474 0.6460
H22 H 0.5449 0.5414 0.6309
loop_
_geom_bond_atom_site_label_1
_geom_bond_atom_site_label_2
_geom_bond_site_symmetry_1
_geom_bond_site_symmetry_2
O1 C1 1_555 1_555
O2 C4 1_555 1_555
O3 C11 1_555 1_555
O4 C11 1_555 1_555
O5 H1 1_555 1_555
C1 C2 1_555 1_555
C2 H2 1_555 1_555
C3 C2 1_555 1_555
C4 C3 1_555 1_555
C5 C4 1_555 1_555
H3 C5 1_555 1_555
C6 C1 1_555 1_555
H4 C6 1_555 1_555
C7 O1 1_555 1_555
H5 C7 1_555 1_555
H6 C7 1_555 1_555
H7 C7 1_555 1_555
C8 O5 1_555 1_555
C9 C8 1_555 1_555
H8 C9 1_555 1_555
H9 C9 1_555 1_555
C10 O2 1_555 1_555
C11 C10 1_555 1_555
C12 O4 1_555 1_555
H10 C12 1_555 1_555
H11 C12 1_555 1_555
H12 C12 1_555 1_555
C13 C10 1_555 1_555
H13 C13 1_555 1_555
H14 C13 1_555 1_555
C14 C13 1_555 1_555
H15 C14 1_555 1_555
H16 C14 1_555 1_555
C15 C8 1_555 1_555
H17 C15 1_555 1_555
C16 C15 1_555 1_555
C17 C16 1_555 1_555
H18 C17 1_555 1_555
H19 C17 1_555 1_555
C18 C16 1_555 1_555
H20 C18 1_555 1_555
H21 C18 1_555 1_555
H22 C18 1_555 1_555
C3 C8 1_555 1_555
C5 C6 1_555 1_555
C9 C10 1_555 1_555
C14 C15 1_555 1_555

#END
