
#######################################################################
#
#                 Cambridge Crystallographic Data Centre
#                                CCDC 
#
#######################################################################
#
# If this CIF has been generated from an entry in the Cambridge 
# Structural Database, then it will include bibliographic, chemical, 
# crystal, experimental, refinement or atomic coordinate data resulting 
# from the CCDC's data processing and validation procedures.
#
#######################################################################

data_KIFLET
_chemical_formula_moiety         'C24 H24 Br1 N1 O7'
_chemical_name_systematic        
'methyl 6-(4-bromo-2-nitrophenoxy)-8-methoxy-5-(prop-1-en-2-yl)-3,4,5,6-tetrahydro-2H-2,6-methano-1-benzoxocine-2-carboxylate'
_symmetry_cell_setting           triclinic
_symmetry_space_group_name_H-M   'P -1'
_symmetry_Int_Tables_number      2
_space_group_name_Hall           '-P 1'
loop_
_symmetry_equiv_pos_site_id
_symmetry_equiv_pos_as_xyz
1 x,y,z
2 -x,-y,-z
_cell_length_a                   8.5808(17)
_cell_length_b                   10.449(2)
_cell_length_c                   27.944(6)
_cell_angle_alpha                83.51(3)
_cell_angle_beta                 88.58(3)
_cell_angle_gamma                66.94(3)
_cell_volume                     2289.99
_exptl_crystal_colour            colorless
_exptl_crystal_description       block
_chemical_melting_point          '211.0-220.4 deg.C (dec.)'
_cell_formula_units_Z            4
loop_
_atom_site_label
_atom_site_type_symbol
_atom_site_fract_x
_atom_site_fract_y
_atom_site_fract_z
Br1 Br 1.01307(7) 0.77945(6) 0.76774(2)
O1 O 0.4488(5) 0.9055(4) 0.87868(16)
O2 O 0.5578(5) 0.7589(4) 0.94107(15)
O3 O 0.6170(3) 0.5230(2) 0.89762(9)
O4 O 1.1134(3) 0.1609(3) 0.98545(9)
O5 O 0.6756(3) 0.1380(2) 0.84838(9)
O6 O 0.3446(4) 0.3322(3) 0.76427(11)
O7 O 0.5895(4) 0.1490(3) 0.76310(10)
N1 N 0.5544(5) 0.7986(4) 0.89825(18)
C1 C 0.6866(4) 0.7113(4) 0.86815(14)
C2 C 0.7711(5) 0.7758(4) 0.83842(14)
H1 H 0.743085 0.871590 0.837322
C3 C 0.8976(5) 0.6957(4) 0.81043(14)
C4 C 0.9397(5) 0.5534(4) 0.81217(14)
H2 H 1.027499 0.499425 0.793730
C5 C 0.8503(5) 0.4917(4) 0.84151(14)
H3 H 0.879028 0.395888 0.842509
C6 C 0.7190(4) 0.5694(4) 0.86947(13)
C7 C 0.5895(4) 0.3973(3) 0.89013(13)
C8 C 0.7491(4) 0.2695(3) 0.90419(13)
C9 C 0.8638(4) 0.2669(4) 0.93916(13)
H4 H 0.840486 0.345027 0.955460
C10 C 1.0115(4) 0.1504(4) 0.94999(13)
C11 C 1.0485(5) 0.0339(4) 0.92611(13)
H5 H 1.148918 -0.043948 0.932899
C12 C 0.9338(5) 0.0342(4) 0.89171(13)
H6 H 0.957815 -0.044211 0.875513
C13 C 0.7844(4) 0.1500(4) 0.88140(12)
C14 C 0.5197(4) 0.2570(3) 0.83552(13)
C15 C 0.5418(5) 0.3949(3) 0.83796(13)
H7 H 0.630400 0.400033 0.816560
H8 H 0.437210 0.473905 0.828339
C16 C 0.4456(4) 0.3989(4) 0.92458(14)
H9 H 0.490203 0.390133 0.957272
C17 C 0.4137(5) 0.2641(4) 0.92071(14)
H10 H 0.512094 0.183066 0.933317
H11 H 0.317600 0.266322 0.940128
C18 C 0.3792(5) 0.2503(4) 0.86889(14)
H12 H 0.272697 0.324948 0.857723
H13 H 0.367993 0.161924 0.867548
C19 C 1.2629(5) 0.0408(4) 0.99957(14)
H14 H 1.340886 0.023574 0.973516
H15 H 1.234077 -0.038958 1.007563
H16 H 1.314486 0.056693 1.027164
C20 C 0.2801(5) 0.5274(4) 0.92027(15)
C21 C 0.2466(6) 0.6424(4) 0.89055(18)
H17 H 0.140855 0.715580 0.890665
H18 H 0.328567 0.650393 0.869441
C22 C 0.1457(6) 0.5180(5) 0.95362(19)
H19 H 0.093759 0.461694 0.941370
H20 H 0.061621 0.610255 0.956075
H21 H 0.195293 0.476193 0.984879
C23 C 0.4742(5) 0.2501(4) 0.78379(15)
C24 C 0.5550(7) 0.1414(5) 0.71294(16)
H22 H 0.560685 0.220965 0.693306
H23 H 0.443901 0.141213 0.709904
H24 H 0.637642 0.057079 0.702561
Br2 Br 0.50528(7) 0.79323(6) 0.74977(2)
O8 O -0.0849(13) 0.9995(11) 0.6448(3)
O9 O 0.0158(16) 0.9291(13) 0.5777(3)
O10 O 0.1088(3) 0.6419(2) 0.60698(9)
O11 O 0.6028(3) 0.3246(3) 0.51952(10)
O12 O 0.1483(3) 0.2241(2) 0.64560(9)
O13 O -0.1665(4) 0.3593(3) 0.73073(12)
O14 O 0.0746(4) 0.1742(3) 0.73006(10)
N2 N 0.0195(5) 0.9172(4) 0.61972(15)
C25 C 0.1650(4) 0.8060(4) 0.64637(13)
C26 C 0.2529(5) 0.8463(4) 0.67815(14)
H25 H 0.223093 0.940165 0.681967
C27 C 0.3852(5) 0.7436(4) 0.70388(14)
C28 C 0.4307(5) 0.6057(4) 0.69808(14)
H26 H 0.521697 0.537830 0.715830
C29 C 0.3426(5) 0.5666(4) 0.66615(14)
H27 H 0.375600 0.472563 0.662064
C30 C 0.2051(4) 0.6663(4) 0.64006(13)
C31 C 0.0815(5) 0.5117(4) 0.61019(13)
C32 C 0.2370(5) 0.3907(4) 0.59630(13)
C33 C 0.3563(5) 0.4084(4) 0.56458(13)
H28 H 0.342368 0.498305 0.551630
C34 C 0.4954(5) 0.2953(4) 0.55184(13)
C35 C 0.5184(5) 0.1615(4) 0.57219(14)
H29 H 0.613231 0.084678 0.564920
C36 C 0.4001(5) 0.1433(4) 0.60312(14)
H30 H 0.414790 0.053338 0.616166
C37 C 0.2596(5) 0.2557(4) 0.61530(13)
C38 C 0.0001(5) 0.3370(4) 0.65958(14)
C39 C 0.0337(5) 0.4702(4) 0.66039(13)
H31 H -0.066938 0.544923 0.670312
H32 H 0.125083 0.453396 0.683134
C40 C -0.0617(5) 0.5446(4) 0.57251(14)
H33 H -0.007824 0.546740 0.541261
C41 C -0.1160(5) 0.4202(4) 0.57423(15)
H34 H -0.218985 0.448931 0.554938
H35 H -0.028773 0.344937 0.559666
C42 C -0.1472(5) 0.3642(4) 0.62484(15)
H36 H -0.250228 0.431374 0.636898
H37 H -0.163025 0.277745 0.623398
C43 C 0.7302(6) 0.2114(5) 0.49999(18)
H38 H 0.788362 0.246792 0.475568
H39 H 0.679550 0.156666 0.486081
H40 H 0.809412 0.153987 0.525060
C44 C -0.2078(5) 0.6852(4) 0.57130(17)
C45 C -0.3254(7) 0.7198(6) 0.6064(2)
H41 H -0.416221 0.806218 0.603037
H42 H -0.314920 0.656881 0.633655
C46 C -0.2233(7) 0.7812(5) 0.52941(18)
H43 H -0.125663 0.804718 0.527332
H44 H -0.323384 0.864584 0.531381
H45 H -0.231362 0.738979 0.501292
C47 C -0.0416(6) 0.2915(4) 0.71029(15)
C48 C 0.0492(6) 0.1292(5) 0.77933(15)
H46 H -0.062727 0.129554 0.782300
H47 H 0.061921 0.191769 0.800084
H48 H 0.131349 0.036166 0.788357
O15? O -0.1205(11) 0.927(2) 0.6309(6)
O16? O 0.052(2) 0.9881(19) 0.5876(7)
loop_
_geom_bond_atom_site_label_1
_geom_bond_atom_site_label_2
_geom_bond_site_symmetry_1
_geom_bond_site_symmetry_2
Br1 C3 1_555 1_555
O1 N1 1_555 1_555
O2 N1 1_555 1_555
O3 C6 1_555 1_555
O4 C10 1_555 1_555
O5 C13 1_555 1_555
O6 C23 1_555 1_555
O7 C23 1_555 1_555
N1 C1 1_555 1_555
C1 C2 1_555 1_555
C2 H1 1_555 1_555
C3 C2 1_555 1_555
C4 C3 1_555 1_555
H2 C4 1_555 1_555
C5 C4 1_555 1_555
H3 C5 1_555 1_555
C6 C1 1_555 1_555
C7 O3 1_555 1_555
C8 C7 1_555 1_555
C9 C8 1_555 1_555
H4 C9 1_555 1_555
C10 C9 1_555 1_555
C11 C10 1_555 1_555
H5 C11 1_555 1_555
C12 C11 1_555 1_555
H6 C12 1_555 1_555
C13 C8 1_555 1_555
C14 O5 1_555 1_555
C15 C7 1_555 1_555
H7 C15 1_555 1_555
H8 C15 1_555 1_555
C16 C7 1_555 1_555
H9 C16 1_555 1_555
C17 C16 1_555 1_555
H10 C17 1_555 1_555
H11 C17 1_555 1_555
C18 C14 1_555 1_555
H12 C18 1_555 1_555
H13 C18 1_555 1_555
C19 O4 1_555 1_555
H14 C19 1_555 1_555
H15 C19 1_555 1_555
H16 C19 1_555 1_555
C20 C16 1_555 1_555
C21 C20 1_555 1_555
H17 C21 1_555 1_555
H18 C21 1_555 1_555
C22 C20 1_555 1_555
H19 C22 1_555 1_555
H20 C22 1_555 1_555
H21 C22 1_555 1_555
C23 C14 1_555 1_555
C24 O7 1_555 1_555
H22 C24 1_555 1_555
H23 C24 1_555 1_555
H24 C24 1_555 1_555
Br2 C27 1_555 1_555
O8 N2 1_555 1_555
O9 N2 1_555 1_555
O10 C30 1_555 1_555
O11 C34 1_555 1_555
O12 C37 1_555 1_555
O13 C47 1_555 1_555
O14 C47 1_555 1_555
N2 C25 1_555 1_555
C25 C26 1_555 1_555
C26 H25 1_555 1_555
C27 C26 1_555 1_555
C28 C27 1_555 1_555
H26 C28 1_555 1_555
C29 C28 1_555 1_555
H27 C29 1_555 1_555
C30 C25 1_555 1_555
C31 O10 1_555 1_555
C32 C31 1_555 1_555
C33 C32 1_555 1_555
H28 C33 1_555 1_555
C34 C33 1_555 1_555
C35 C34 1_555 1_555
H29 C35 1_555 1_555
C36 C35 1_555 1_555
H30 C36 1_555 1_555
C37 C32 1_555 1_555
C38 O12 1_555 1_555
C39 C31 1_555 1_555
H31 C39 1_555 1_555
H32 C39 1_555 1_555
C40 C31 1_555 1_555
H33 C40 1_555 1_555
C41 C40 1_555 1_555
H34 C41 1_555 1_555
H35 C41 1_555 1_555
C42 C38 1_555 1_555
H36 C42 1_555 1_555
H37 C42 1_555 1_555
C43 O11 1_555 1_555
H38 C43 1_555 1_555
H39 C43 1_555 1_555
H40 C43 1_555 1_555
C44 C40 1_555 1_555
C45 C44 1_555 1_555
H41 C45 1_555 1_555
H42 C45 1_555 1_555
C46 C44 1_555 1_555
H43 C46 1_555 1_555
H44 C46 1_555 1_555
H45 C46 1_555 1_555
C47 C38 1_555 1_555
C48 O14 1_555 1_555
H46 C48 1_555 1_555
H47 C48 1_555 1_555
H48 C48 1_555 1_555
C5 C6 1_555 1_555
C12 C13 1_555 1_555
C14 C15 1_555 1_555
C17 C18 1_555 1_555
C29 C30 1_555 1_555
C36 C37 1_555 1_555
C38 C39 1_555 1_555
C41 C42 1_555 1_555

#END
