
#######################################################################
#
#                 Cambridge Crystallographic Data Centre
#                                CCDC 
#
#######################################################################
#
# If this CIF has been generated from an entry in the Cambridge 
# Structural Database, then it will include bibliographic, chemical, 
# crystal, experimental, refinement or atomic coordinate data resulting 
# from the CCDC's data processing and validation procedures.
#
#######################################################################

data_KIFMES
_chemical_formula_moiety         'C31 H26 N2 O2'
_chemical_name_systematic        
5,5'-Dimethoxy-3,3'-di-indolyl(4-(phenyl)phenyl)methane
_symmetry_cell_setting           monoclinic
_symmetry_space_group_name_H-M   'P 21/n'
_symmetry_Int_Tables_number      14
_space_group_name_Hall           '-P 2yn'
loop_
_symmetry_equiv_pos_site_id
_symmetry_equiv_pos_as_xyz
1 x,y,z
2 1/2-x,1/2+y,1/2-z
3 -x,-y,-z
4 1/2+x,1/2-y,1/2+z
_cell_length_a                   10.6864(15)
_cell_length_b                   9.7917(13)
_cell_length_c                   23.077(3)
_cell_angle_alpha                90
_cell_angle_beta                 95.042(3)
_cell_angle_gamma                90
_cell_volume                     2405.39
_exptl_crystal_colour            yellow
_chemical_melting_point          194-196deg.C
_cell_formula_units_Z            4
loop_
_atom_site_label
_atom_site_type_symbol
_atom_site_fract_x
_atom_site_fract_y
_atom_site_fract_z
O1 O 0.07673(14) 0.7210(2) 0.27726(8)
O2 O 0.6131(2) 0.8552(2) 0.58340(8)
N1 N 0.45799(19) 0.4586(2) 0.40382(9)
N2 N 0.9252(2) 0.8009(2) 0.40974(11)
C1 C 0.3532(2) 0.5103(2) 0.37384(9)
C2 C 0.2311(2) 0.4624(3) 0.36743(11)
C3 C 0.1445(2) 0.5370(3) 0.33475(11)
C4 C 0.1762(2) 0.6586(2) 0.30848(10)
C5 C 0.2968(2) 0.7081(2) 0.31443(9)
C6 C 0.38744(18) 0.6334(2) 0.34806(8)
C7 C 0.51801(18) 0.6532(2) 0.36396(9)
C8 C 0.5562(2) 0.5447(2) 0.39756(10)
C9 C 0.59584(18) 0.7721(2) 0.34671(9)
C10 C 0.72001(19) 0.7835(2) 0.38272(10)
C11 C 0.8365(2) 0.7785(2) 0.36401(13)
C12 C 0.8655(2) 0.8202(2) 0.45922(12)
C13 C 0.7362(2) 0.8088(2) 0.44388(10)
C14 C 0.6536(2) 0.8224(2) 0.48667(11)
C15 C 0.7012(3) 0.8502(2) 0.54284(12)
C16 C 0.8298(3) 0.8629(3) 0.55674(15)
C17 C 0.9132(3) 0.8496(3) 0.51550(14)
C18 C 0.61469(17) 0.7762(2) 0.28220(9)
C19 C 0.6066(2) 0.6606(2) 0.24790(11)
C20 C 0.6290(2) 0.6657(2) 0.19017(11)
C21 C 0.66028(17) 0.7862(2) 0.16429(9)
C22 C 0.66806(19) 0.9018(2) 0.19860(10)
C23 C 0.6447(2) 0.8969(2) 0.25609(10)
C24 C 0.68521(18) 0.7914(2) 0.10227(9)
C25 C 0.64202(19) 0.8990(2) 0.06683(10)
H1 H 0.5959 0.9685 0.0824
C26 C 0.6657(2) 0.9053(3) 0.00940(10)
H2 H 0.6354 0.9780 -0.0137
C27 C 0.7346(2) 0.8034(3) -0.01390(11)
H3 H 0.7517 0.8075 -0.0527
C28 C 0.7781(2) 0.6958(3) 0.02023(12)
H4 H 0.8242 0.6266 0.0045
C29 C 0.7533(2) 0.6903(2) 0.07800(11)
H5 H 0.7832 0.6170 0.1009
C30 C 0.0958(3) 0.8465(3) 0.25250(15)
H6 H 0.1169 0.9124 0.2826
H7 H 0.0206 0.8746 0.2298
H8 H 0.1634 0.8400 0.2278
C31 C 0.6438(4) 0.9149(4) 0.63656(15)
H9 H 0.7103 0.8641 0.6573
H10 H 0.5715 0.9152 0.6585
H11 H 0.6710 1.0070 0.6311
H12 H 0.3195(15) 0.7906(17) 0.2966(7)
H13 H 0.5520(15) 0.8574(17) 0.3545(7)
H14 H 0.6397(17) 0.5268(18) 0.4161(8)
H15 H 0.2103(19) 0.372(2) 0.3854(9)
H16 H 0.6193(19) 0.584(2) 0.1686(9)
H17 H 0.6903(17) 0.986(2) 0.1821(8)
H18 H 0.5844(17) 0.580(2) 0.2636(8)
H19 H 0.060(2) 0.508(2) 0.3299(9)
H20 H 0.5681(19) 0.8201(18) 0.4770(8)
H21 H 0.6491(17) 0.979(2) 0.2785(8)
H22 H 0.999(2) 0.856(2) 0.5253(9)
H23 H 1.010(3) 0.795(3) 0.4050(11)
H24 H 0.868(2) 0.762(2) 0.3268(10)
H25 H 0.857(2) 0.884(2) 0.5940(10)
H26 H 0.461(2) 0.383(3) 0.4218(11)
loop_
_geom_bond_atom_site_label_1
_geom_bond_atom_site_label_2
_geom_bond_site_symmetry_1
_geom_bond_site_symmetry_2
O1 C4 1_555 1_555
O2 C15 1_555 1_555
N1 C1 1_555 1_555
N2 C11 1_555 1_555
C1 C2 1_555 1_555
C2 C3 1_555 1_555
C3 C4 1_555 1_555
C4 C5 1_555 1_555
C5 C6 1_555 1_555
C6 C1 1_555 1_555
C7 C6 1_555 1_555
C8 N1 1_555 1_555
C9 C7 1_555 1_555
C10 C9 1_555 1_555
C11 C10 1_555 1_555
C12 N2 1_555 1_555
C13 C10 1_555 1_555
C14 C13 1_555 1_555
C15 C14 1_555 1_555
C16 C15 1_555 1_555
C17 C12 1_555 1_555
C18 C9 1_555 1_555
C19 C18 1_555 1_555
C20 C19 1_555 1_555
C21 C20 1_555 1_555
C22 C21 1_555 1_555
C23 C18 1_555 1_555
C24 C21 1_555 1_555
C25 C24 1_555 1_555
H1 C25 1_555 1_555
C26 C25 1_555 1_555
H2 C26 1_555 1_555
C27 C26 1_555 1_555
H3 C27 1_555 1_555
C28 C27 1_555 1_555
H4 C28 1_555 1_555
C29 C24 1_555 1_555
H5 C29 1_555 1_555
C30 O1 1_555 1_555
H6 C30 1_555 1_555
H7 C30 1_555 1_555
H8 C30 1_555 1_555
C31 O2 1_555 1_555
H9 C31 1_555 1_555
H10 C31 1_555 1_555
H11 C31 1_555 1_555
H12 C5 1_555 1_555
H13 C9 1_555 1_555
H14 C8 1_555 1_555
H15 C2 1_555 1_555
H16 C20 1_555 1_555
H17 C22 1_555 1_555
H18 C19 1_555 1_555
H19 C3 1_555 1_555
H20 C14 1_555 1_555
H21 C23 1_555 1_555
H22 C17 1_555 1_555
H23 N2 1_555 1_555
H24 C11 1_555 1_555
H25 C16 1_555 1_555
H26 N1 1_555 1_555
C7 C8 1_555 1_555
C12 C13 1_555 1_555
C16 C17 1_555 1_555
C22 C23 1_555 1_555
C28 C29 1_555 1_555

#END
