
#######################################################################
#
#                 Cambridge Crystallographic Data Centre
#                                CCDC 
#
#######################################################################
#
# If this CIF has been generated from an entry in the Cambridge 
# Structural Database, then it will include bibliographic, chemical, 
# crystal, experimental, refinement or atomic coordinate data resulting 
# from the CCDC's data processing and validation procedures.
#
#######################################################################

data_KIFRID
_chemical_formula_moiety         'C23 H20 Br1 N3 O3'
_chemical_name_systematic        
5-bromo-10'-ethyl-5',8a',11a',11b'-tetrahydrospiro[indole-3,8'-pyrrolo[3',4':3,4]pyrrolo[2,1-a]isoquinoline]-2,9',11'(1H,6'H,10'H)-trione
_symmetry_cell_setting           monoclinic
_symmetry_space_group_name_H-M   'P 21/c'
_symmetry_Int_Tables_number      14
_space_group_name_Hall           '-P 2ybc'
loop_
_symmetry_equiv_pos_site_id
_symmetry_equiv_pos_as_xyz
1 x,y,z
2 -x,1/2+y,1/2-z
3 -x,-y,-z
4 x,1/2-y,1/2+z
_cell_length_a                   14.5326(4)
_cell_length_b                   11.3536(3)
_cell_length_c                   24.9254(7)
_cell_angle_alpha                90
_cell_angle_beta                 97.952(2)
_cell_angle_gamma                90
_cell_volume                     4073.08
_exptl_crystal_colour            colorless
_exptl_crystal_description       prism
_cell_formula_units_Z            8
loop_
_atom_site_label
_atom_site_type_symbol
_atom_site_fract_x
_atom_site_fract_y
_atom_site_fract_z
Br1 Br 0.67774(2) 1.02255(3) 0.58215(2)
O1 O 0.76680(13) 0.63549(16) 0.83667(7)
O2 O 0.67450(14) 0.29603(16) 0.76232(9)
O3 O 0.54357(14) 0.65580(18) 0.78067(9)
N1 N 0.81729(13) 0.62379(17) 0.72094(7)
N2 N 0.74046(14) 0.82799(19) 0.80909(8)
H1 H 0.7438 0.8618 0.8411
N3 N 0.59541(15) 0.4643(2) 0.77842(10)
C1 C 0.73975(15) 0.6863(2) 0.73941(9)
C2 C 0.75101(15) 0.7111(2) 0.80129(9)
C3 C 0.72340(16) 0.8883(2) 0.75937(9)
C4 C 0.70712(18) 1.0072(2) 0.75007(11)
H2 H 0.7058 1.0608 0.7792
C5 C 0.69279(18) 1.0456(2) 0.69645(11)
H3 H 0.6809 1.1265 0.6886
C6 C 0.69577(17) 0.9660(2) 0.65448(10)
C7 C 0.71198(15) 0.8466(2) 0.66379(9)
H4 H 0.7141 0.7931 0.6347
C8 C 0.72479(15) 0.8089(2) 0.71670(9)
C9 C 0.65767(15) 0.6000(2) 0.72174(9)
H5 H 0.6223 0.6258 0.6864
C10 C 0.59156(16) 0.5819(2) 0.76339(11)
C11 C 0.65814(16) 0.3988(2) 0.75360(10)
C12 C 0.70132(16) 0.4789(2) 0.71561(9)
H6 H 0.6879 0.4502 0.6774
C13 C 0.80624(15) 0.4980(2) 0.73225(9)
H7 H 0.8227 0.4832 0.7720
C14 C 0.87029(16) 0.4281(2) 0.70140(9)
C15 C 0.84729(19) 0.3146(2) 0.68268(11)
H8 H 0.7921 0.2785 0.6911
C16 C 0.9042(2) 0.2542(3) 0.65188(11)
H9 H 0.8878 0.1774 0.6388
C17 C 0.9854(2) 0.3066(3) 0.64022(12)
H10 H 1.0241 0.2663 0.6185
C18 C 1.0097(2) 0.4171(3) 0.66020(12)
H11 H 1.0663 0.4514 0.6528
C19 C 0.95303(18) 0.4801(2) 0.69127(10)
C20 C 0.98066(17) 0.6029(2) 0.71060(11)
H12 H 0.9882 0.6523 0.6788
H13 H 1.0417 0.5989 0.7337
C21 C 0.91112(16) 0.6626(2) 0.74259(10)
H14 H 0.9250 0.6413 0.7814
H15 H 0.9158 0.7492 0.7394
C22 C 0.5438(2) 0.4156(3) 0.81967(15)
H16 H 0.5388 0.3291 0.8151
H17 H 0.4801 0.4485 0.8146
C23 C 0.5903(3) 0.4434(4) 0.87634(17)
H18 H 0.5546 0.4082 0.9028
H19 H 0.5932 0.5289 0.8815
H20 H 0.6535 0.4110 0.8815
Br2 Br 0.02254(2) 0.06736(3) 0.33969(2)
O4 O 0.27038(11) 0.40713(16) 0.58338(7)
O5 O 0.06617(13) 0.4783(2) 0.54878(8)
O6 O 0.2559(2) 0.7660(2) 0.50056(11)
N4 N 0.29997(12) 0.38585(17) 0.46225(7)
N5 N 0.21242(16) 0.2241(2) 0.55769(8)
H21 H 0.2231 0.1883 0.5892
N6 N 0.14941(15) 0.6417(2) 0.52989(9)
C24 C 0.21605(15) 0.3619(2) 0.48715(9)
C25 C 0.23652(15) 0.3363(2) 0.54893(9)
C26 C 0.16811(17) 0.1717(2) 0.50997(10)
C27 C 0.1283(2) 0.0614(2) 0.50323(12)
H22 H 0.1300 0.0082 0.5328
C28 C 0.08542(19) 0.0305(2) 0.45149(12)
H23 H 0.0568 -0.0444 0.4454
C29 C 0.08474(16) 0.1093(2) 0.40929(10)
C30 C 0.12641(15) 0.2193(2) 0.41551(10)
H24 H 0.1262 0.2716 0.3857
C31 C 0.16822(15) 0.2495(2) 0.46681(9)
C32 C 0.15933(16) 0.4770(2) 0.47408(9)
H25 H 0.1096 0.4642 0.4427
C33 C 0.11776(16) 0.5272(2) 0.52198(10)
C34 C 0.2157(2) 0.6723(2) 0.49764(12)
C35 C 0.22823(16) 0.5706(2) 0.46004(10)
H26 H 0.2141 0.5951 0.4212
C36 C 0.32354(16) 0.5105(2) 0.47133(9)
H27 H 0.3504 0.5229 0.5101
C37 C 0.39434(15) 0.5443(2) 0.43488(9)
C38 C 0.39938(17) 0.6601(2) 0.41606(10)
H28 H 0.3604 0.7191 0.4279
C39 C 0.46097(18) 0.6891(3) 0.38022(11)
H29 H 0.4637 0.7676 0.3673
C40 C 0.51801(18) 0.6038(3) 0.36347(11)
H30 H 0.5589 0.6229 0.3382
C41 C 0.51572(17) 0.4899(3) 0.38358(11)
H31 H 0.5568 0.4323 0.3727
C42 C 0.45400(16) 0.4582(2) 0.41966(9)
C43 C 0.45115(16) 0.3324(2) 0.43929(10)
H32 H 0.5138 0.3102 0.4572
H33 H 0.4354 0.2802 0.4076
C44 C 0.38133(16) 0.3114(2) 0.47887(10)
H34 H 0.3628 0.2275 0.4783
H35 H 0.4096 0.3318 0.5162
C45 C 0.1242(2) 0.7163(3) 0.57358(13)
H36 H 0.0595 0.6989 0.5792
H37 H 0.1272 0.8000 0.5629
C46 C 0.1879(3) 0.6968(4) 0.62604(14)
H38 H 0.2516 0.7178 0.6212
H39 H 0.1856 0.6138 0.6366
H40 H 0.1677 0.7463 0.6545
loop_
_geom_bond_atom_site_label_1
_geom_bond_atom_site_label_2
_geom_bond_site_symmetry_1
_geom_bond_site_symmetry_2
Br1 C6 1_555 1_555
O1 C2 1_555 1_555
O2 C11 1_555 1_555
O3 C10 1_555 1_555
N1 C1 1_555 1_555
N2 H1 1_555 1_555
N3 C10 1_555 1_555
C1 C2 1_555 1_555
C2 N2 1_555 1_555
C3 N2 1_555 1_555
C4 C3 1_555 1_555
H2 C4 1_555 1_555
C5 C4 1_555 1_555
H3 C5 1_555 1_555
C6 C5 1_555 1_555
C7 C6 1_555 1_555
H4 C7 1_555 1_555
C8 C1 1_555 1_555
C9 C1 1_555 1_555
H5 C9 1_555 1_555
C10 C9 1_555 1_555
C11 N3 1_555 1_555
C12 C9 1_555 1_555
H6 C12 1_555 1_555
C13 N1 1_555 1_555
H7 C13 1_555 1_555
C14 C13 1_555 1_555
C15 C14 1_555 1_555
H8 C15 1_555 1_555
C16 C15 1_555 1_555
H9 C16 1_555 1_555
C17 C16 1_555 1_555
H10 C17 1_555 1_555
C18 C17 1_555 1_555
H11 C18 1_555 1_555
C19 C14 1_555 1_555
C20 C19 1_555 1_555
H12 C20 1_555 1_555
H13 C20 1_555 1_555
C21 N1 1_555 1_555
H14 C21 1_555 1_555
H15 C21 1_555 1_555
C22 N3 1_555 1_555
H16 C22 1_555 1_555
H17 C22 1_555 1_555
C23 C22 1_555 1_555
H18 C23 1_555 1_555
H19 C23 1_555 1_555
H20 C23 1_555 1_555
Br2 C29 1_555 1_555
O4 C25 1_555 1_555
O5 C33 1_555 1_555
O6 C34 1_555 1_555
N4 C24 1_555 1_555
N5 H21 1_555 1_555
N6 C33 1_555 1_555
C24 C25 1_555 1_555
C25 N5 1_555 1_555
C26 N5 1_555 1_555
C27 C26 1_555 1_555
H22 C27 1_555 1_555
C28 C27 1_555 1_555
H23 C28 1_555 1_555
C29 C28 1_555 1_555
C30 C29 1_555 1_555
H24 C30 1_555 1_555
C31 C24 1_555 1_555
C32 C24 1_555 1_555
H25 C32 1_555 1_555
C33 C32 1_555 1_555
C34 N6 1_555 1_555
C35 C32 1_555 1_555
H26 C35 1_555 1_555
C36 N4 1_555 1_555
H27 C36 1_555 1_555
C37 C36 1_555 1_555
C38 C37 1_555 1_555
H28 C38 1_555 1_555
C39 C38 1_555 1_555
H29 C39 1_555 1_555
C40 C39 1_555 1_555
H30 C40 1_555 1_555
C41 C40 1_555 1_555
H31 C41 1_555 1_555
C42 C37 1_555 1_555
C43 C42 1_555 1_555
H32 C43 1_555 1_555
H33 C43 1_555 1_555
C44 N4 1_555 1_555
H34 C44 1_555 1_555
H35 C44 1_555 1_555
C45 N6 1_555 1_555
H36 C45 1_555 1_555
H37 C45 1_555 1_555
C46 C45 1_555 1_555
H38 C46 1_555 1_555
H39 C46 1_555 1_555
H40 C46 1_555 1_555
C3 C8 1_555 1_555
C7 C8 1_555 1_555
C11 C12 1_555 1_555
C12 C13 1_555 1_555
C18 C19 1_555 1_555
C20 C21 1_555 1_555
C26 C31 1_555 1_555
C30 C31 1_555 1_555
C34 C35 1_555 1_555
C35 C36 1_555 1_555
C41 C42 1_555 1_555
C43 C44 1_555 1_555

#END
