
#######################################################################
#
#                 Cambridge Crystallographic Data Centre
#                                CCDC 
#
#######################################################################
#
# If this CIF has been generated from an entry in the Cambridge 
# Structural Database, then it will include bibliographic, chemical, 
# crystal, experimental, refinement or atomic coordinate data resulting 
# from the CCDC's data processing and validation procedures.
#
#######################################################################

data_KIFXAB
_chemical_formula_moiety         'C66 H66 B1 F2 N3 O6'
_chemical_name_systematic        
6,9,17,20-tetra-t-butyl-13,13-difluoro-2,3,4,22,23,24-hexamethoxy-13H-dibenzo[g,g']diphenanthro[9,10,1-cde:9,10,1-c'd'e'][1,3,5,2]triazaborinino[1,6-a:3,4-a']diindol-12-ium-13-ide
_symmetry_cell_setting           monoclinic
_symmetry_space_group_name_H-M   'C 2/c'
_symmetry_Int_Tables_number      15
_space_group_name_Hall           '-C 2yn'
loop_
_symmetry_equiv_pos_site_id
_symmetry_equiv_pos_as_xyz
1 x,y,z
2 -x,y,1/2-z
3 1/2+x,1/2+y,z
4 1/2-x,1/2+y,1/2-z
5 -x,-y,-z
6 x,-y,1/2+z
7 1/2-x,1/2-y,-z
8 1/2+x,1/2-y,1/2+z
_cell_length_a                   38.239(3)
_cell_length_b                   16.9576(12)
_cell_length_c                   18.0384(13)
_cell_angle_alpha                90
_cell_angle_beta                 101.6020(10)
_cell_angle_gamma                90
_cell_volume                     11457.9
_exptl_crystal_colour            colorless
_exptl_crystal_description       block
_cell_formula_units_Z            8
loop_
_atom_site_label
_atom_site_type_symbol
_atom_site_fract_x
_atom_site_fract_y
_atom_site_fract_z
B1 B 0.10318(12) 0.6623(3) 0.3496(3)
C1 C 0.17230(10) 0.6735(2) 0.3648(3)
C2 C 0.18485(11) 0.5930(3) 0.3642(3)
C3 C 0.16259(13) 0.5267(3) 0.3477(3)
H1 H 0.1380 0.5335 0.3350
C4 C 0.17673(14) 0.4521(3) 0.3501(3)
H2 H 0.1614 0.4095 0.3371
C5 C 0.21321(13) 0.4378(3) 0.3712(3)
C6 C 0.23537(12) 0.5035(3) 0.3849(3)
H3 H 0.2599 0.4955 0.3980
C7 C 0.22256(11) 0.5813(3) 0.3799(3)
C8 C 0.24784(10) 0.6476(2) 0.3890(3)
C9 C 0.28428(12) 0.6382(3) 0.3968(3)
H4 H 0.2937 0.5875 0.3990
C10 C 0.30735(11) 0.7028(3) 0.4015(3)
C11 C 0.29314(11) 0.7784(3) 0.3996(3)
H5 H 0.3086 0.8212 0.4034
C12 C 0.25654(10) 0.7928(2) 0.3922(2)
C13 C 0.23432(10) 0.7257(2) 0.3865(2)
C14 C 0.19734(10) 0.7351(2) 0.3757(3)
C15 C 0.18005(10) 0.8074(2) 0.3730(2)
C16 C 0.20095(10) 0.8781(2) 0.3800(2)
C17 C 0.18460(11) 0.9521(2) 0.3781(3)
H6 H 0.1601 0.9552 0.3757
C18 C 0.20414(12) 1.0203(3) 0.3797(3)
C19 C 0.24131(12) 1.0152(3) 0.3828(3)
C20 C 0.25815(11) 0.9427(3) 0.3878(3)
C21 C 0.23905(10) 0.8711(2) 0.3876(2)
C22 C 0.2281(2) 0.3555(4) 0.3743(6)
C23 C 0.2365(2) 0.3395(4) 0.2968(5)
H7 H 0.2574 0.3069 0.3023
H8 H 0.2407 0.3885 0.2735
H9 H 0.2167 0.3129 0.2657
C24 C 0.2063(2) 0.3010(4) 0.4098(6)
H10 H 0.2025 0.3232 0.4566
H11 H 0.2184 0.2514 0.4196
H12 H 0.1836 0.2929 0.3764
C25 C 0.2647(2) 0.3479(4) 0.4237(5)
H13 H 0.2633 0.3575 0.4754
H14 H 0.2804 0.3857 0.4081
H15 H 0.2737 0.2956 0.4190
C26 C 0.34693(12) 0.6878(3) 0.4026(4)
C27 C 0.37013(15) 0.7538(4) 0.4405(5)
H16 H 0.3942 0.7353 0.4563
H17 H 0.3613 0.7717 0.4838
H18 H 0.3697 0.7967 0.4055
C28 C 0.3512(2) 0.6654(8) 0.3266(5)
H19 H 0.3488 0.7114 0.2948
H20 H 0.3332 0.6277 0.3058
H21 H 0.3744 0.6426 0.3293
C29 C 0.36000(16) 0.6146(4) 0.4565(5)
H22 H 0.3519 0.5665 0.4305
H23 H 0.3504 0.6186 0.5016
H24 H 0.3856 0.6144 0.4699
C30 C 0.31717(16) 0.9783(4) 0.4492(4)
H25 H 0.3376 0.9989 0.4324
H26 H 0.3247 0.9399 0.4883
H27 H 0.3049 1.0205 0.4687
C31 C 0.2667(2) 1.1037(4) 0.3093(4)
H28 H 0.2757 1.0583 0.2875
H29 H 0.2841 1.1454 0.3145
H30 H 0.2450 1.1209 0.2770
C32 C 0.15355(14) 1.1022(3) 0.3694(4)
H31 H 0.1418 1.0788 0.3225
H32 H 0.1473 1.1570 0.3698
H33 H 0.1462 1.0758 0.4108
C33 C 0.14246(10) 0.7876(2) 0.3610(3)
C34 C 0.08216(10) 0.8067(2) 0.3495(2)
C35 C 0.04910(10) 0.8493(2) 0.3488(2)
C36 C 0.03874(10) 0.9308(2) 0.3500(2)
C37 C 0.06271(12) 0.9916(3) 0.3443(3)
H34 H 0.0856 0.9794 0.3378
C38 C 0.05283(12) 1.0692(3) 0.3481(3)
C39 C 0.01920(12) 1.0876(3) 0.3614(3)
C40 C -0.00553(11) 1.0282(3) 0.3636(3)
C41 C 0.00249(11) 0.9482(3) 0.3562(3)
C42 C -0.02366(11) 0.8839(3) 0.3566(3)
C43 C -0.05992(11) 0.8939(3) 0.3589(3)
H35 H -0.0689 0.9449 0.3593
C44 C -0.08284(11) 0.8312(3) 0.3607(3)
C45 C -0.06969(12) 0.7547(3) 0.3599(3)
H36 H -0.0851 0.7125 0.3614
C46 C -0.03441(11) 0.7396(3) 0.3570(3)
C47 C -0.01196(10) 0.8052(3) 0.3545(2)
C48 C 0.02387(10) 0.7911(2) 0.3508(2)
C49 C 0.03918(10) 0.7157(2) 0.3499(3)
C50 C 0.01751(11) 0.6471(3) 0.3517(3)
C51 C 0.02919(13) 0.5691(3) 0.3482(3)
H37 H 0.0525 0.5595 0.3426
C52 C 0.00692(14) 0.5064(3) 0.3527(4)
H38 H 0.0155 0.4555 0.3496
C53 C -0.02842(13) 0.5168(3) 0.3620(3)
C54 C -0.04021(12) 0.5934(3) 0.3629(3)
H39 H -0.0637 0.6015 0.3675
C55 C -0.01911(11) 0.6601(3) 0.3572(3)
C56 C 0.06651(17) 1.1784(4) 0.2776(4)
H40 H 0.0624 1.1472 0.2323
H41 H 0.0851 1.2159 0.2759
H42 H 0.0450 1.2058 0.2816
C57 C 0.02928(17) 1.2061(4) 0.4337(4)
H43 H 0.0347 1.1708 0.4761
H44 H 0.0155 1.2497 0.4463
H45 H 0.0511 1.2254 0.4216
C58 C -0.04019(17) 1.0695(5) 0.4504(4)
H46 H -0.0171 1.0619 0.4820
H47 H -0.0572 1.0357 0.4672
H48 H -0.0473 1.1235 0.4534
C59 C -0.12178(12) 0.8472(3) 0.3674(3)
C60 C -0.13731(15) 0.9154(4) 0.3158(4)
H49 H -0.1621 0.9219 0.3174
H50 H -0.1350 0.9041 0.2648
H51 H -0.1246 0.9630 0.3327
C61 C -0.12200(16) 0.8683(6) 0.4479(4)
H52 H -0.1078 0.9148 0.4615
H53 H -0.1122 0.8255 0.4803
H54 H -0.1461 0.8782 0.4533
C62 C -0.14584(14) 0.7748(4) 0.3423(4)
H55 H -0.1386 0.7320 0.3767
H56 H -0.1436 0.7594 0.2922
H57 H -0.1702 0.7882 0.3423
C63 C -0.0521(3) 0.4487(6) 0.3711(8)
C64 C -0.0359(3) 0.3973(6) 0.4339(8)
H58 H -0.0107 0.4064 0.4463
H59 H -0.0404 0.3432 0.4194
H60 H -0.0461 0.4087 0.4772
C65 C -0.0579(3) 0.4023(6) 0.2991(7)
H61 H -0.0424 0.3571 0.3056
H62 H -0.0527 0.4347 0.2591
H63 H -0.0823 0.3851 0.2865
C66 C -0.0878(3) 0.4689(5) 0.3825(8)
H64 H -0.0985 0.4234 0.4005
H65 H -0.1022 0.4860 0.3354
H66 H -0.0861 0.5106 0.4191
F1 F 0.09561(6) 0.61903(15) 0.28250(16)
F2 F 0.10522(7) 0.61162(15) 0.41081(17)
N1 N 0.13907(9) 0.70574(19) 0.3562(2)
N2 N 0.11470(8) 0.8363(2) 0.3556(2)
N3 N 0.07461(9) 0.7256(2) 0.3492(2)
O1 O 0.29370(8) 0.94198(19) 0.3871(2)
O2 O 0.25999(9) 1.08405(19) 0.3815(2)
O3 O 0.19098(9) 1.09472(18) 0.3769(2)
O4 O 0.07698(8) 1.12804(19) 0.3419(2)
O5 O 0.00906(9) 1.16491(18) 0.3696(2)
O6 O -0.03875(8) 1.05121(19) 0.3752(2)
loop_
_geom_bond_atom_site_label_1
_geom_bond_atom_site_label_2
_geom_bond_site_symmetry_1
_geom_bond_site_symmetry_2
B1 F1 1_555 1_555
C1 C2 1_555 1_555
C2 C3 1_555 1_555
C3 H1 1_555 1_555
C4 C3 1_555 1_555
H2 C4 1_555 1_555
C5 C4 1_555 1_555
C6 C5 1_555 1_555
H3 C6 1_555 1_555
C7 C2 1_555 1_555
C8 C7 1_555 1_555
C9 C8 1_555 1_555
H4 C9 1_555 1_555
C10 C9 1_555 1_555
C11 C10 1_555 1_555
H5 C11 1_555 1_555
C12 C11 1_555 1_555
C13 C8 1_555 1_555
C14 C1 1_555 1_555
C15 C14 1_555 1_555
C16 C15 1_555 1_555
C17 C16 1_555 1_555
H6 C17 1_555 1_555
C18 C17 1_555 1_555
C19 C18 1_555 1_555
C20 C19 1_555 1_555
C21 C12 1_555 1_555
C22 C5 1_555 1_555
C23 C22 1_555 1_555
H7 C23 1_555 1_555
H8 C23 1_555 1_555
H9 C23 1_555 1_555
C24 C22 1_555 1_555
H10 C24 1_555 1_555
H11 C24 1_555 1_555
H12 C24 1_555 1_555
C25 C22 1_555 1_555
H13 C25 1_555 1_555
H14 C25 1_555 1_555
H15 C25 1_555 1_555
C26 C10 1_555 1_555
C27 C26 1_555 1_555
H16 C27 1_555 1_555
H17 C27 1_555 1_555
H18 C27 1_555 1_555
C28 C26 1_555 1_555
H19 C28 1_555 1_555
H20 C28 1_555 1_555
H21 C28 1_555 1_555
C29 C26 1_555 1_555
H22 C29 1_555 1_555
H23 C29 1_555 1_555
H24 C29 1_555 1_555
C30 H25 1_555 1_555
H26 C30 1_555 1_555
H27 C30 1_555 1_555
C31 H28 1_555 1_555
H29 C31 1_555 1_555
H30 C31 1_555 1_555
C32 H31 1_555 1_555
H32 C32 1_555 1_555
H33 C32 1_555 1_555
C33 C15 1_555 1_555
C34 C35 1_555 1_555
C35 C36 1_555 1_555
C36 C37 1_555 1_555
C37 H34 1_555 1_555
C38 C37 1_555 1_555
C39 C38 1_555 1_555
C40 C39 1_555 1_555
C41 C36 1_555 1_555
C42 C41 1_555 1_555
C43 C42 1_555 1_555
H35 C43 1_555 1_555
C44 C43 1_555 1_555
C45 C44 1_555 1_555
H36 C45 1_555 1_555
C46 C45 1_555 1_555
C47 C42 1_555 1_555
C48 C35 1_555 1_555
C49 C48 1_555 1_555
C50 C49 1_555 1_555
C51 C50 1_555 1_555
H37 C51 1_555 1_555
C52 C51 1_555 1_555
H38 C52 1_555 1_555
C53 C52 1_555 1_555
C54 C53 1_555 1_555
H39 C54 1_555 1_555
C55 C46 1_555 1_555
C56 H40 1_555 1_555
H41 C56 1_555 1_555
H42 C56 1_555 1_555
C57 H43 1_555 1_555
H44 C57 1_555 1_555
H45 C57 1_555 1_555
C58 H46 1_555 1_555
H47 C58 1_555 1_555
H48 C58 1_555 1_555
C59 C44 1_555 1_555
C60 C59 1_555 1_555
H49 C60 1_555 1_555
H50 C60 1_555 1_555
H51 C60 1_555 1_555
C61 C59 1_555 1_555
H52 C61 1_555 1_555
H53 C61 1_555 1_555
H54 C61 1_555 1_555
C62 C59 1_555 1_555
H55 C62 1_555 1_555
H56 C62 1_555 1_555
H57 C62 1_555 1_555
C63 C53 1_555 1_555
C64 C63 1_555 1_555
H58 C64 1_555 1_555
H59 C64 1_555 1_555
H60 C64 1_555 1_555
C65 C63 1_555 1_555
H61 C65 1_555 1_555
H62 C65 1_555 1_555
H63 C65 1_555 1_555
C66 C63 1_555 1_555
H64 C66 1_555 1_555
H65 C66 1_555 1_555
H66 C66 1_555 1_555
F2 B1 1_555 1_555
N1 B1 1_555 1_555
N2 C33 1_555 1_555
N3 B1 1_555 1_555
O1 C20 1_555 1_555
O2 C19 1_555 1_555
O3 C18 1_555 1_555
O4 C38 1_555 1_555
O5 C39 1_555 1_555
O6 C40 1_555 1_555
C1 N1 1_555 1_555
C6 C7 1_555 1_555
C12 C13 1_555 1_555
C13 C14 1_555 1_555
C16 C21 1_555 1_555
C20 C21 1_555 1_555
C30 O1 1_555 1_555
C31 O2 1_555 1_555
C32 O3 1_555 1_555
C33 N1 1_555 1_555
C34 N2 1_555 1_555
C34 N3 1_555 1_555
C40 C41 1_555 1_555
C46 C47 1_555 1_555
C47 C48 1_555 1_555
C49 N3 1_555 1_555
C50 C55 1_555 1_555
C54 C55 1_555 1_555
C56 O4 1_555 1_555
C57 O5 1_555 1_555
C58 O6 1_555 1_555

#END
