
#######################################################################
#
#                 Cambridge Crystallographic Data Centre
#                                CCDC 
#
#######################################################################
#
# If this CIF has been generated from an entry in the Cambridge 
# Structural Database, then it will include bibliographic, chemical, 
# crystal, experimental, refinement or atomic coordinate data resulting 
# from the CCDC's data processing and validation procedures.
#
#######################################################################

data_KIGBOS
_chemical_formula_moiety         'C27 H28 O2'
_chemical_name_systematic        
(+-)-3,5-bis(2-(4-Methoxyphenyl)-1-methylethyl)hepta-3,4-diene-1,6-diyne
_symmetry_cell_setting           monoclinic
_symmetry_space_group_name_H-M   'C 2/c'
_symmetry_Int_Tables_number      15
_space_group_name_Hall           '-C 2yn'
loop_
_symmetry_equiv_pos_site_id
_symmetry_equiv_pos_as_xyz
1 x,y,z
2 1/2+x,1/2+y,z
3 -x,y,1/2-z
4 1/2-x,1/2+y,1/2-z
5 -x,-y,-z
6 1/2-x,1/2-y,-z
7 x,-y,1/2+z
8 1/2+x,1/2-y,1/2+z
_cell_length_a                   13.8290(3)
_cell_length_b                   6.5589(2)
_cell_length_c                   25.4813(7)
_cell_angle_alpha                90
_cell_angle_beta                 101.615(1)
_cell_angle_gamma                90
_cell_volume                     2263.9
_exptl_crystal_colour            colorless
_cell_formula_units_Z            4
_exptl_crystal_recrystallization_method n-hexane
loop_
_atom_site_label
_atom_site_type_symbol
_atom_site_fract_x
_atom_site_fract_y
_atom_site_fract_z
C1 C 1.0000 -0.0148(3) 0.2500
C2 C 1.02443(10) -0.0171(2) 0.30253(6)
C3 C 0.97195(10) 0.1151(2) 0.33211(5)
C4 C 0.92600(11) 0.2237(3) 0.35522(7)
H1 H 0.8910(14) 0.310(3) 0.3724(8)
C5 C 1.10330(10) -0.1629(2) 0.33327(6)
C6 C 1.15329(12) -0.2771(3) 0.29321(7)
H2 H 1.2051 -0.3642 0.3126
H3 H 1.1816 -0.1793 0.2720
H4 H 1.1047 -0.3597 0.2697
C7 C 1.05055(13) -0.3139(3) 0.36341(8)
H5 H 1.0974 -0.4143 0.3812
H6 H 0.9985 -0.3820 0.3383
H7 H 1.0222 -0.2415 0.3899
C8 C 1.18181(9) -0.0387(2) 0.37119(5)
C9 C 1.21844(10) 0.1411(2) 0.35372(6)
H8 H 1.1932 0.1878 0.3188
C10 C 1.29101(11) 0.2522(2) 0.38661(6)
H9 H 1.3144 0.3731 0.3738
C11 C 1.32971(10) 0.1879(2) 0.43817(6)
C12 C 1.29580(12) 0.0101(3) 0.45597(6)
H10 H 1.3219 -0.0367 0.4908
C13 C 1.22253(12) -0.1017(3) 0.42246(6)
H11 H 1.2002 -0.2238 0.4353
O1 O 1.40070(9) 0.3107(2) 0.46738(5)
C14 C 1.43743(14) 0.2597(3) 0.52206(7)
H12 H 1.3833 0.2573 0.5411
H13 H 1.4856 0.3607 0.5382
H14 H 1.4684 0.1265 0.5242
C2B C 0.97557(10) -0.0171(2) 0.19747(6)
C3B C 1.02805(10) 0.1151(2) 0.16789(5)
C4B C 1.07400(11) 0.2237(3) 0.14478(7)
H1B H 1.1090(14) 0.310(3) 0.1276(8)
C5B C 0.89670(10) -0.1629(2) 0.16673(6)
C6B C 0.84671(12) -0.2771(3) 0.20679(7)
H2B H 0.7949 -0.3642 0.1874
H3B H 0.8184 -0.1793 0.2280
H4B H 0.8953 -0.3597 0.2303
C7B C 0.94945(13) -0.3139(3) 0.13659(8)
H5B H 0.9026 -0.4143 0.1188
H6B H 1.0015 -0.3820 0.1617
H7B H 0.9778 -0.2415 0.1101
C8B C 0.81819(9) -0.0387(2) 0.12881(5)
C9B C 0.78156(10) 0.1411(2) 0.14628(6)
H8B H 0.8068 0.1878 0.1812
C10B C 0.70899(11) 0.2522(2) 0.11339(6)
H9B H 0.6856 0.3731 0.1262
C11B C 0.67029(10) 0.1879(2) 0.06183(6)
C12B C 0.70420(12) 0.0101(3) 0.04403(6)
H10B H 0.6781 -0.0367 0.0092
C13B C 0.77747(12) -0.1017(3) 0.07754(6)
H11B H 0.7998 -0.2238 0.0647
O1B O 0.59930(9) 0.3107(2) 0.03262(5)
C14B C 0.56257(14) 0.2597(3) -0.02206(7)
H12B H 0.6167 0.2573 -0.0411
H13B H 0.5144 0.3607 -0.0382
H14B H 0.5316 0.1265 -0.0242
loop_
_geom_bond_atom_site_label_1
_geom_bond_atom_site_label_2
_geom_bond_site_symmetry_1
_geom_bond_site_symmetry_2
C1 C2 1_555 1_555
C2 C3 1_555 1_555
C3 C4 1_555 1_555
C4 H1 1_555 1_555
C5 C2 1_555 1_555
C6 C5 1_555 1_555
H2 C6 1_555 1_555
H3 C6 1_555 1_555
H4 C6 1_555 1_555
C7 C5 1_555 1_555
H5 C7 1_555 1_555
H6 C7 1_555 1_555
H7 C7 1_555 1_555
C8 C5 1_555 1_555
C9 C8 1_555 1_555
H8 C9 1_555 1_555
C10 C9 1_555 1_555
H9 C10 1_555 1_555
C11 C10 1_555 1_555
C12 C11 1_555 1_555
H10 C12 1_555 1_555
C13 C8 1_555 1_555
H11 C13 1_555 1_555
O1 C11 1_555 1_555
C14 O1 1_555 1_555
H12 C14 1_555 1_555
H13 C14 1_555 1_555
H14 C14 1_555 1_555
C2B C1 1_555 1_555
C3B C2B 1_555 1_555
C4B C3B 1_555 1_555
H1B C4B 1_555 1_555
C5B C2B 1_555 1_555
C6B C5B 1_555 1_555
H2B C6B 1_555 1_555
H3B C6B 1_555 1_555
H4B C6B 1_555 1_555
C7B C5B 1_555 1_555
H5B C7B 1_555 1_555
H6B C7B 1_555 1_555
H7B C7B 1_555 1_555
C8B C5B 1_555 1_555
C9B C8B 1_555 1_555
H8B C9B 1_555 1_555
C10B C9B 1_555 1_555
H9B C10B 1_555 1_555
C11B C10B 1_555 1_555
C12B C11B 1_555 1_555
H10B C12B 1_555 1_555
C13B C8B 1_555 1_555
H11B C13B 1_555 1_555
O1B C11B 1_555 1_555
C14B O1B 1_555 1_555
H12B C14B 1_555 1_555
H13B C14B 1_555 1_555
H14B C14B 1_555 1_555
C12 C13 1_555 1_555
C12B C13B 1_555 1_555

#END
