
#######################################################################
#
#                 Cambridge Crystallographic Data Centre
#                                CCDC 
#
#######################################################################
#
# If this CIF has been generated from an entry in the Cambridge 
# Structural Database, then it will include bibliographic, chemical, 
# crystal, experimental, refinement or atomic coordinate data resulting 
# from the CCDC's data processing and validation procedures.
#
#######################################################################

data_KIGBEI
_chemical_formula_moiety         'C48 H78 Si2'
_chemical_name_systematic        
(P,M)-3,5,10,12-tetrakis(t-Butyl)-1,14-bis(tri-isopropylsilyl)-tetradeca-3,4,10,11-tetraene-1,6,8,13-tetrayne
_symmetry_cell_setting           orthorhombic
_symmetry_space_group_name_H-M   'P b c a'
_symmetry_Int_Tables_number      61
_space_group_name_Hall           '-P 2ac 2ab'
loop_
_symmetry_equiv_pos_site_id
_symmetry_equiv_pos_as_xyz
1 x,y,z
2 1/2-x,-y,1/2+z
3 -x,1/2+y,1/2-z
4 1/2+x,1/2-y,-z
5 -x,-y,-z
6 1/2+x,y,1/2-z
7 x,1/2-y,1/2+z
8 1/2-x,1/2+y,z
_cell_length_a                   9.2960(11)
_cell_length_b                   11.6725(12)
_cell_length_c                   46.3312(25)
_cell_angle_alpha                90
_cell_angle_beta                 90
_cell_angle_gamma                90
_cell_volume                     5027.29
_exptl_crystal_colour            colorless
_cell_formula_units_Z            4
loop_
_atom_site_label
_atom_site_type_symbol
_atom_site_fract_x
_atom_site_fract_y
_atom_site_fract_z
Si1 Si 0.56043(6) 0.09913(4) 0.175100(10)
C1 C 0.51165(17) 0.04361(13) 0.00969(3)
C2 C 0.53007(17) 0.12018(14) 0.02659(3)
C3 C 0.55551(17) 0.21484(13) 0.04582(3)
C4 C 0.67833(18) 0.29779(14) 0.03840(4)
C5 C 0.8164(2) 0.2293(2) 0.03432(6)
H1 H 0.8936 0.2803 0.0294
H2 H 0.8032 0.1744 0.0191
H3 H 0.8395 0.1900 0.0519
C6 C 0.6404(2) 0.35991(19) 0.01039(5)
H4 H 0.5546 0.4043 0.0132
H5 H 0.6247 0.3047 -0.0046
H6 H 0.7181 0.4097 0.0050
C7 C 0.6993(3) 0.3844(2) 0.06241(5)
H7 H 0.6128 0.4284 0.0648
H8 H 0.7774 0.4346 0.0576
H9 H 0.7208 0.3451 0.0801
C8 C 0.47402(17) 0.22773(13) 0.06872(4)
C9 C 0.39839(17) 0.24810(13) 0.09208(3)
C10 C 0.2612(2) 0.32128(15) 0.09224(4)
C11 C 0.1348(2) 0.2450(2) 0.10091(8)
H10 H 0.0483 0.2899 0.1015
H11 H 0.1527 0.2126 0.1196
H12 H 0.1239 0.1846 0.0870
C12 C 0.2812(3) 0.41706(19) 0.11424(6)
H13 H 0.3601 0.4649 0.1085
H14 H 0.3012 0.3845 0.1328
H15 H 0.1949 0.4621 0.1153
C13 C 0.2343(3) 0.3728(3) 0.06257(5)
H16 H 0.3143 0.4204 0.0573
H17 H 0.1482 0.4181 0.0631
H18 H 0.2236 0.3124 0.0487
C14 C 0.44827(17) 0.20063(13) 0.11901(4)
C15 C 0.49116(19) 0.16326(14) 0.14164(4)
C16 C 0.6197(2) 0.22008(17) 0.19909(4)
H19 H 0.6946 0.2606 0.1882
C17 C 0.5041(3) 0.3096(2) 0.20532(6)
H20 H 0.4609 0.3337 0.1875
H21 H 0.5469 0.3744 0.2147
H22 H 0.4318 0.2769 0.2176
C18 C 0.6918(4) 0.1809(3) 0.22704(7)
H23 H 0.7671 0.1274 0.2226
H24 H 0.6218 0.1447 0.2392
H25 H 0.7318 0.2460 0.2368
C19 C 0.7200(3) 0.00951(18) 0.16474(5)
H26 H 0.7514 -0.0310 0.1822
C20 C 0.8473(3) 0.0806(3) 0.15433(10)
H27 H 0.8718 0.1364 0.1687
H28 H 0.8220 0.1190 0.1367
H29 H 0.9282 0.0313 0.1510
C21 C 0.6789(4) -0.0822(2) 0.14242(6)
H30 H 0.6018 -0.1282 0.1499
H31 H 0.7607 -0.1301 0.1386
H32 H 0.6486 -0.0457 0.1249
C22 C 0.4117(3) 0.0075(2) 0.18962(6)
H33 H 0.3937 -0.0486 0.1743
C23 C 0.4480(6) -0.0633(5) 0.21546(11)
H34 H 0.5384 -0.1011 0.2124
H35 H 0.3741 -0.1195 0.2185
H36 H 0.4548 -0.0147 0.2321
C24 C 0.2688(3) 0.0706(3) 0.19302(8)
H37 H 0.2488 0.1134 0.1758
H38 H 0.2745 0.1220 0.2091
H39 H 0.1932 0.0161 0.1963
Si1D Si 0.43957(6) -0.09913(4) -0.175100(10)
C1D C 0.48835(17) -0.04361(13) -0.00969(3)
C2D C 0.46993(17) -0.12018(14) -0.02659(3)
C3D C 0.44449(17) -0.21484(13) -0.04582(3)
C4D C 0.32167(18) -0.29779(14) -0.03840(4)
C5D C 0.1836(2) -0.2293(2) -0.03432(6)
H1D H 0.1064 -0.2803 -0.0294
H2D H 0.1968 -0.1744 -0.0191
H3D H 0.1605 -0.1900 -0.0519
C6D C 0.3596(2) -0.35991(19) -0.01039(5)
H4D H 0.4454 -0.4043 -0.0132
H5D H 0.3753 -0.3047 0.0046
H6D H 0.2819 -0.4097 -0.0050
C7D C 0.3007(3) -0.3844(2) -0.06241(5)
H7D H 0.3872 -0.4284 -0.0648
H8D H 0.2226 -0.4346 -0.0576
H9D H 0.2792 -0.3451 -0.0801
C8D C 0.52598(17) -0.22773(13) -0.06872(4)
C9D C 0.60161(17) -0.24810(13) -0.09208(3)
C10D C 0.7388(2) -0.32128(15) -0.09224(4)
C11D C 0.8652(2) -0.2450(2) -0.10091(8)
H10D H 0.9517 -0.2899 -0.1015
H11D H 0.8473 -0.2126 -0.1196
H12D H 0.8761 -0.1846 -0.0870
C12D C 0.7188(3) -0.41706(19) -0.11424(6)
H13D H 0.6399 -0.4649 -0.1085
H14D H 0.6988 -0.3845 -0.1328
H15D H 0.8051 -0.4621 -0.1153
C13D C 0.7657(3) -0.3728(3) -0.06257(5)
H16D H 0.6857 -0.4204 -0.0573
H17D H 0.8518 -0.4181 -0.0631
H18D H 0.7764 -0.3124 -0.0487
C14D C 0.55173(17) -0.20063(13) -0.11901(4)
C15D C 0.50884(19) -0.16326(14) -0.14164(4)
C16D C 0.3803(2) -0.22008(17) -0.19909(4)
H19D H 0.3054 -0.2606 -0.1882
C17D C 0.4959(3) -0.3096(2) -0.20532(6)
H20D H 0.5391 -0.3337 -0.1875
H21D H 0.4531 -0.3744 -0.2147
H22D H 0.5682 -0.2769 -0.2176
C18D C 0.3082(4) -0.1809(3) -0.22704(7)
H23D H 0.2329 -0.1274 -0.2226
H24D H 0.3782 -0.1447 -0.2392
H25D H 0.2682 -0.2460 -0.2368
C19D C 0.2800(3) -0.00951(18) -0.16474(5)
H26D H 0.2486 0.0310 -0.1822
C20D C 0.1527(3) -0.0806(3) -0.15433(10)
H27D H 0.1282 -0.1364 -0.1687
H28D H 0.1780 -0.1190 -0.1367
H29D H 0.0718 -0.0313 -0.1510
C21D C 0.3211(4) 0.0822(2) -0.14242(6)
H30D H 0.3982 0.1282 -0.1499
H31D H 0.2393 0.1301 -0.1386
H32D H 0.3514 0.0457 -0.1249
C22D C 0.5883(3) -0.0075(2) -0.18962(6)
H33D H 0.6063 0.0486 -0.1743
C23D C 0.5520(6) 0.0633(5) -0.21546(11)
H34D H 0.4616 0.1011 -0.2124
H35D H 0.6259 0.1195 -0.2185
H36D H 0.5452 0.0147 -0.2321
C24D C 0.7312(3) -0.0706(3) -0.19302(8)
H37D H 0.7512 -0.1134 -0.1758
H38D H 0.7255 -0.1220 -0.2091
H39D H 0.8068 -0.0161 -0.1963
loop_
_geom_bond_atom_site_label_1
_geom_bond_atom_site_label_2
_geom_bond_site_symmetry_1
_geom_bond_site_symmetry_2
Si1 C15 1_555 1_555
C1 C2 1_555 1_555
C2 C3 1_555 1_555
C3 C4 1_555 1_555
C4 C5 1_555 1_555
C5 H1 1_555 1_555
H2 C5 1_555 1_555
H3 C5 1_555 1_555
C6 C4 1_555 1_555
H4 C6 1_555 1_555
H5 C6 1_555 1_555
H6 C6 1_555 1_555
C7 C4 1_555 1_555
H7 C7 1_555 1_555
H8 C7 1_555 1_555
H9 C7 1_555 1_555
C8 C3 1_555 1_555
C9 C8 1_555 1_555
C10 C9 1_555 1_555
C11 C10 1_555 1_555
H10 C11 1_555 1_555
H11 C11 1_555 1_555
H12 C11 1_555 1_555
C12 C10 1_555 1_555
H13 C12 1_555 1_555
H14 C12 1_555 1_555
H15 C12 1_555 1_555
C13 C10 1_555 1_555
H16 C13 1_555 1_555
H17 C13 1_555 1_555
H18 C13 1_555 1_555
C14 C9 1_555 1_555
C15 C14 1_555 1_555
C16 Si1 1_555 1_555
H19 C16 1_555 1_555
C17 C16 1_555 1_555
H20 C17 1_555 1_555
H21 C17 1_555 1_555
H22 C17 1_555 1_555
C18 C16 1_555 1_555
H23 C18 1_555 1_555
H24 C18 1_555 1_555
H25 C18 1_555 1_555
C19 Si1 1_555 1_555
H26 C19 1_555 1_555
C20 C19 1_555 1_555
H27 C20 1_555 1_555
H28 C20 1_555 1_555
H29 C20 1_555 1_555
C21 C19 1_555 1_555
H30 C21 1_555 1_555
H31 C21 1_555 1_555
H32 C21 1_555 1_555
C22 Si1 1_555 1_555
H33 C22 1_555 1_555
C23 C22 1_555 1_555
H34 C23 1_555 1_555
H35 C23 1_555 1_555
H36 C23 1_555 1_555
C24 C22 1_555 1_555
H37 C24 1_555 1_555
H38 C24 1_555 1_555
H39 C24 1_555 1_555
Si1D C15D 1_555 1_555
C1D C1 1_555 1_555
C2D C1D 1_555 1_555
C3D C2D 1_555 1_555
C4D C3D 1_555 1_555
C5D C4D 1_555 1_555
H1D C5D 1_555 1_555
H2D C5D 1_555 1_555
H3D C5D 1_555 1_555
C6D C4D 1_555 1_555
H4D C6D 1_555 1_555
H5D C6D 1_555 1_555
H6D C6D 1_555 1_555
C7D C4D 1_555 1_555
H7D C7D 1_555 1_555
H8D C7D 1_555 1_555
H9D C7D 1_555 1_555
C8D C3D 1_555 1_555
C9D C8D 1_555 1_555
C10D C9D 1_555 1_555
C11D C10D 1_555 1_555
H10D C11D 1_555 1_555
H11D C11D 1_555 1_555
H12D C11D 1_555 1_555
C12D C10D 1_555 1_555
H13D C12D 1_555 1_555
H14D C12D 1_555 1_555
H15D C12D 1_555 1_555
C13D C10D 1_555 1_555
H16D C13D 1_555 1_555
H17D C13D 1_555 1_555
H18D C13D 1_555 1_555
C14D C9D 1_555 1_555
C15D C14D 1_555 1_555
C16D Si1D 1_555 1_555
H19D C16D 1_555 1_555
C17D C16D 1_555 1_555
H20D C17D 1_555 1_555
H21D C17D 1_555 1_555
H22D C17D 1_555 1_555
C18D C16D 1_555 1_555
H23D C18D 1_555 1_555
H24D C18D 1_555 1_555
H25D C18D 1_555 1_555
C19D Si1D 1_555 1_555
H26D C19D 1_555 1_555
C20D C19D 1_555 1_555
H27D C20D 1_555 1_555
H28D C20D 1_555 1_555
H29D C20D 1_555 1_555
C21D C19D 1_555 1_555
H30D C21D 1_555 1_555
H31D C21D 1_555 1_555
H32D C21D 1_555 1_555
C22D Si1D 1_555 1_555
H33D C22D 1_555 1_555
C23D C22D 1_555 1_555
H34D C23D 1_555 1_555
H35D C23D 1_555 1_555
H36D C23D 1_555 1_555
C24D C22D 1_555 1_555
H37D C24D 1_555 1_555
H38D C24D 1_555 1_555
H39D C24D 1_555 1_555

#END
