
#######################################################################
#
#                 Cambridge Crystallographic Data Centre
#                                CCDC 
#
#######################################################################
#
# If this CIF has been generated from an entry in the Cambridge 
# Structural Database, then it will include bibliographic, chemical, 
# crystal, experimental, refinement or atomic coordinate data resulting 
# from the CCDC's data processing and validation procedures.
#
#######################################################################

data_KIGJUH
_chemical_formula_moiety         'C16 H15 N1 O1 S1'
_chemical_name_systematic        
'1,4-Dimethyl-3-phenyl-1,2-benzothiazine 1-oxide'
_symmetry_cell_setting           orthorhombic
_symmetry_space_group_name_H-M   'P 21 21 21'
_symmetry_Int_Tables_number      19
_space_group_name_Hall           'P 2ac 2ab'
loop_
_symmetry_equiv_pos_site_id
_symmetry_equiv_pos_as_xyz
1 x,y,z
2 1/2-x,-y,1/2+z
3 -x,1/2+y,1/2-z
4 1/2+x,1/2-y,-z
_cell_length_a                   8.4370(9)
_cell_length_b                   15.8568(17)
_cell_length_c                   39.714(4)
_cell_angle_alpha                90
_cell_angle_beta                 90
_cell_angle_gamma                90
_cell_volume                     5313.09
_exptl_crystal_colour            colorless
_exptl_crystal_description       plate
_cell_formula_units_Z            16
loop_
_atom_site_label
_atom_site_type_symbol
_atom_site_fract_x
_atom_site_fract_y
_atom_site_fract_z
S1 S 0.71870(9) 0.02068(4) 0.247068(18)
O1 O 0.8739(2) 0.02806(13) 0.26314(5)
N1 N 0.5711(3) 0.04479(15) 0.26803(6)
C1 C 0.4982(4) -0.01788(19) 0.28764(7)
C2 C 0.5115(4) -0.10238(18) 0.28300(7)
C3 C 0.6012(4) -0.13489(18) 0.25428(7)
C4 C 0.6920(4) -0.08213(18) 0.23294(7)
C5 C 0.6005(4) -0.22087(18) 0.24533(8)
H1 H 0.5436 -0.2597 0.2590
C6 C 0.6796(4) -0.25027(19) 0.21748(8)
H2 H 0.6761 -0.3087 0.2122
C7 C 0.7649(4) -0.19570(19) 0.19677(8)
H3 H 0.8176 -0.2166 0.1773
C8 C 0.7721(4) -0.11143(19) 0.20472(7)
H4 H 0.8313 -0.0736 0.1911
C9 C 0.4339(4) -0.16549(19) 0.30636(8)
H5 H 0.3936 -0.1362 0.3263
H6 H 0.5119 -0.2079 0.3132
H7 H 0.3458 -0.1932 0.2947
C10 C 0.7158(4) 0.08997(18) 0.21247(7)
H8 H 0.7186 0.1483 0.2206
H9 H 0.6189 0.0808 0.1994
H10 H 0.8084 0.0793 0.1982
C11 C 0.3918(4) 0.02146(18) 0.31324(7)
C12 C 0.2297(4) 0.0096(2) 0.31175(8)
H11 H 0.1867 -0.0282 0.2956
C13 C 0.1283(4) 0.0522(2) 0.33362(8)
H12 H 0.0169 0.0446 0.3320
C14 C 0.1911(4) 0.1055(2) 0.35765(8)
H13 H 0.1226 0.1340 0.3728
C15 C 0.3531(4) 0.11778(19) 0.35977(8)
H14 H 0.3955 0.1539 0.3766
C16 C 0.4540(4) 0.07714(18) 0.33720(7)
H15 H 0.5649 0.0872 0.3381
S2 S 0.39065(9) -0.10303(4) 0.423663(18)
O2 O 0.4014(3) -0.15046(12) 0.45489(5)
N2 N 0.5060(3) -0.12577(15) 0.39493(6)
C17 C 0.6489(4) -0.08390(19) 0.39214(7)
C18 C 0.6829(4) -0.00705(18) 0.40542(7)
C19 C 0.5603(4) 0.03981(17) 0.42387(7)
C20 C 0.4122(4) 0.00401(17) 0.43184(7)
C21 C 0.5835(4) 0.12396(18) 0.43426(7)
H16 H 0.6832 0.1500 0.4304
C22 C 0.4654(4) 0.16941(19) 0.44988(8)
H17 H 0.4838 0.2264 0.4561
C23 C 0.3185(4) 0.13206(19) 0.45658(8)
H18 H 0.2371 0.1639 0.4671
C24 C 0.2919(4) 0.04973(19) 0.44799(7)
H19 H 0.1930 0.0238 0.4529
C25 C 0.8412(4) 0.0348(2) 0.40117(8)
H20 H 0.9158 -0.0051 0.3910
H21 H 0.8812 0.0525 0.4232
H22 H 0.8298 0.0842 0.3866
C26 C 0.2006(4) -0.1200(2) 0.40645(9)
H23 H 0.1929 -0.1781 0.3982
H24 H 0.1833 -0.0808 0.3877
H25 H 0.1202 -0.1105 0.4238
C27 C 0.7642(4) -0.13322(19) 0.37127(8)
C28 C 0.8161(4) -0.10371(19) 0.34021(7)
H26 H 0.7836 -0.0496 0.3326
C29 C 0.9152(4) -0.1528(2) 0.32027(8)
H27 H 0.9493 -0.1323 0.2990
C30 C 0.9645(4) -0.2316(2) 0.33125(9)
H28 H 1.0336 -0.2648 0.3178
C31 C 0.9117(4) -0.2615(2) 0.36220(9)
H29 H 0.9447 -0.3154 0.3700
C32 C 0.8109(4) -0.21265(19) 0.38171(8)
H30 H 0.7734 -0.2341 0.4026
S3 S 0.21263(9) 0.02485(5) 0.190423(18)
O3 O 0.0592(2) 0.03768(13) 0.17425(5)
N3 N 0.3639(3) 0.05190(15) 0.17179(6)
C33 C 0.4379(4) -0.00545(19) 0.14965(7)
C34 C 0.4214(4) -0.09030(18) 0.15098(7)
C35 C 0.3262(4) -0.12856(19) 0.17761(7)
C36 C 0.2344(4) -0.08123(18) 0.20043(7)
C37 C 0.3204(4) -0.2168(2) 0.18204(8)
H31 H 0.3787 -0.2521 0.1672
C38 C 0.2311(4) -0.2533(2) 0.20769(8)
H32 H 0.2281 -0.3130 0.2098
C39 C 0.1467(4) -0.2039(2) 0.23010(8)
H33 H 0.0889 -0.2296 0.2479
C40 C 0.1464(4) -0.1174(2) 0.22666(8)
H34 H 0.0876 -0.0830 0.2418
C41 C 0.4939(4) -0.1486(2) 0.12514(8)
H35 H 0.5336 -0.1153 0.1061
H36 H 0.4135 -0.1884 0.1171
H37 H 0.5818 -0.1798 0.1354
C42 C 0.2143(4) 0.08603(19) 0.22722(8)
H38 H 0.2100 0.1459 0.2212
H39 H 0.3116 0.0747 0.2399
H40 H 0.1221 0.0716 0.2411
C43 C 0.5395(4) 0.04080(19) 0.12511(7)
C44 C 0.6957(4) 0.0186(2) 0.11896(8)
H41 H 0.7401 -0.0288 0.1301
C45 C 0.7882(4) 0.0648(2) 0.09673(8)
H42 H 0.8954 0.0492 0.0929
C46 C 0.7242(4) 0.13380(19) 0.08017(8)
H43 H 0.7870 0.1650 0.0647
C47 C 0.5687(4) 0.1573(2) 0.08616(8)
H44 H 0.5244 0.2044 0.0748
C48 C 0.4776(4) 0.11169(19) 0.10891(8)
H45 H 0.3720 0.1290 0.1135
S4 S 1.59049(9) -0.08553(4) 0.011800(18)
O4 O 1.5787(3) -0.13105(12) -0.01983(5)
N4 N 1.4686(3) -0.10627(15) 0.03937(6)
C49 C 1.3307(4) -0.05809(17) 0.04244(7)
C50 C 1.3089(4) 0.02082(18) 0.02946(7)
C51 C 1.4389(4) 0.06296(17) 0.01208(7)
C52 C 1.5829(4) 0.02239(18) 0.00475(7)
C53 C 1.4292(4) 0.14853(19) 0.00235(8)
H46 H 1.3333 0.1786 0.0059
C54 C 1.5562(4) 0.18937(19) -0.01222(8)
H47 H 1.5464 0.2472 -0.0181
C55 C 1.6988(4) 0.14748(19) -0.01855(8)
H48 H 1.7859 0.1766 -0.0283
C56 C 1.7112(4) 0.06366(18) -0.01043(8)
H49 H 1.8063 0.0337 -0.0151
C57 C 1.1550(4) 0.06779(19) 0.03332(8)
H50 H 1.0718 0.0286 0.0405
H51 H 1.1255 0.0932 0.0117
H52 H 1.1675 0.1122 0.0503
C58 C 1.7759(4) -0.1101(2) 0.02956(8)
H53 H 1.7755 -0.1688 0.0373
H54 H 1.7964 -0.0726 0.0487
H55 H 1.8590 -0.1027 0.0126
C59 C 1.2102(4) -0.10259(17) 0.06344(7)
C60 C 1.1505(4) -0.06571(18) 0.09274(7)
H56 H 1.1826 -0.0103 0.0988
C61 C 1.0450(4) -0.10914(19) 0.11312(7)
H57 H 1.0067 -0.0837 0.1332
C62 C 0.9952(4) -0.18931(19) 0.10440(7)
H58 H 0.9220 -0.2187 0.1183
C63 C 1.0532(4) -0.22653(18) 0.07516(7)
H59 H 1.0180 -0.2812 0.0688
C64 C 1.1619(4) -0.18425(18) 0.05524(7)
H60 H 1.2040 -0.2111 0.0358
loop_
_geom_bond_atom_site_label_1
_geom_bond_atom_site_label_2
_geom_bond_site_symmetry_1
_geom_bond_site_symmetry_2
S1 O1 1_555 1_555
N1 S1 1_555 1_555
C1 N1 1_555 1_555
C2 C1 1_555 1_555
C3 C2 1_555 1_555
C4 S1 1_555 1_555
C5 C3 1_555 1_555
H1 C5 1_555 1_555
C6 C5 1_555 1_555
H2 C6 1_555 1_555
C7 C6 1_555 1_555
H3 C7 1_555 1_555
C8 C4 1_555 1_555
H4 C8 1_555 1_555
C9 C2 1_555 1_555
H5 C9 1_555 1_555
H6 C9 1_555 1_555
H7 C9 1_555 1_555
C10 S1 1_555 1_555
H8 C10 1_555 1_555
H9 C10 1_555 1_555
H10 C10 1_555 1_555
C11 C1 1_555 1_555
C12 C11 1_555 1_555
H11 C12 1_555 1_555
C13 C12 1_555 1_555
H12 C13 1_555 1_555
C14 C13 1_555 1_555
H13 C14 1_555 1_555
C15 C14 1_555 1_555
H14 C15 1_555 1_555
C16 C11 1_555 1_555
H15 C16 1_555 1_555
S2 O2 1_555 1_555
N2 S2 1_555 1_555
C17 N2 1_555 1_555
C18 C17 1_555 1_555
C19 C18 1_555 1_555
C20 S2 1_555 1_555
C21 C19 1_555 1_555
H16 C21 1_555 1_555
C22 C21 1_555 1_555
H17 C22 1_555 1_555
C23 C22 1_555 1_555
H18 C23 1_555 1_555
C24 C20 1_555 1_555
H19 C24 1_555 1_555
C25 C18 1_555 1_555
H20 C25 1_555 1_555
H21 C25 1_555 1_555
H22 C25 1_555 1_555
C26 S2 1_555 1_555
H23 C26 1_555 1_555
H24 C26 1_555 1_555
H25 C26 1_555 1_555
C27 C17 1_555 1_555
C28 C27 1_555 1_555
H26 C28 1_555 1_555
C29 C28 1_555 1_555
H27 C29 1_555 1_555
C30 C29 1_555 1_555
H28 C30 1_555 1_555
C31 C30 1_555 1_555
H29 C31 1_555 1_555
C32 C27 1_555 1_555
H30 C32 1_555 1_555
S3 O3 1_555 1_555
N3 S3 1_555 1_555
C33 N3 1_555 1_555
C34 C33 1_555 1_555
C35 C34 1_555 1_555
C36 S3 1_555 1_555
C37 C35 1_555 1_555
H31 C37 1_555 1_555
C38 C37 1_555 1_555
H32 C38 1_555 1_555
C39 C38 1_555 1_555
H33 C39 1_555 1_555
C40 C36 1_555 1_555
H34 C40 1_555 1_555
C41 C34 1_555 1_555
H35 C41 1_555 1_555
H36 C41 1_555 1_555
H37 C41 1_555 1_555
C42 S3 1_555 1_555
H38 C42 1_555 1_555
H39 C42 1_555 1_555
H40 C42 1_555 1_555
C43 C33 1_555 1_555
C44 C43 1_555 1_555
H41 C44 1_555 1_555
C45 C44 1_555 1_555
H42 C45 1_555 1_555
C46 C45 1_555 1_555
H43 C46 1_555 1_555
C47 C46 1_555 1_555
H44 C47 1_555 1_555
C48 C43 1_555 1_555
H45 C48 1_555 1_555
S4 O4 1_555 1_555
N4 S4 1_555 1_555
C49 N4 1_555 1_555
C50 C49 1_555 1_555
C51 C50 1_555 1_555
C52 S4 1_555 1_555
C53 C51 1_555 1_555
H46 C53 1_555 1_555
C54 C53 1_555 1_555
H47 C54 1_555 1_555
C55 C54 1_555 1_555
H48 C55 1_555 1_555
C56 C52 1_555 1_555
H49 C56 1_555 1_555
C57 C50 1_555 1_555
H50 C57 1_555 1_555
H51 C57 1_555 1_555
H52 C57 1_555 1_555
C58 S4 1_555 1_555
H53 C58 1_555 1_555
H54 C58 1_555 1_555
H55 C58 1_555 1_555
C59 C49 1_555 1_555
C60 C59 1_555 1_555
H56 C60 1_555 1_555
C61 C60 1_555 1_555
H57 C61 1_555 1_555
C62 C61 1_555 1_555
H58 C62 1_555 1_555
C63 C62 1_555 1_555
H59 C63 1_555 1_555
C64 C59 1_555 1_555
H60 C64 1_555 1_555
C3 C4 1_555 1_555
C7 C8 1_555 1_555
C15 C16 1_555 1_555
C19 C20 1_555 1_555
C23 C24 1_555 1_555
C31 C32 1_555 1_555
C35 C36 1_555 1_555
C39 C40 1_555 1_555
C47 C48 1_555 1_555
C51 C52 1_555 1_555
C55 C56 1_555 1_555
C63 C64 1_555 1_555

#END
