
#######################################################################
#
#                 Cambridge Crystallographic Data Centre
#                                CCDC 
#
#######################################################################
#
# If this CIF has been generated from an entry in the Cambridge 
# Structural Database, then it will include bibliographic, chemical, 
# crystal, experimental, refinement or atomic coordinate data resulting 
# from the CCDC's data processing and validation procedures.
#
#######################################################################

data_KIGJUI
_chemical_formula_moiety         'C26 H24 O3 S1'
_chemical_name_systematic        
2-(4-t-butylphenyl)-3-[(4-methylphenyl)sulfonyl]-1H-inden-1-one
_symmetry_cell_setting           triclinic
_symmetry_space_group_name_H-M   'P -1'
_symmetry_Int_Tables_number      2
_space_group_name_Hall           '-P 1'
loop_
_symmetry_equiv_pos_site_id
_symmetry_equiv_pos_as_xyz
1 x,y,z
2 -x,-y,-z
_cell_length_a                   9.8859(8)
_cell_length_b                   10.2261(9)
_cell_length_c                   11.9940(10)
_cell_angle_alpha                73.3290(10)
_cell_angle_beta                 84.566(2)
_cell_angle_gamma                73.7890(10)
_cell_volume                     1115.23
_exptl_crystal_colour            orange
_exptl_crystal_description       block
_cell_formula_units_Z            2
loop_
_atom_site_label
_atom_site_type_symbol
_atom_site_fract_x
_atom_site_fract_y
_atom_site_fract_z
O1 O 0.8491(2) 0.25969(18) -0.04313(18)
O2 O 0.84873(18) 0.33163(18) 0.44106(15)
O3 O 0.79804(19) 0.56133(17) 0.28737(16)
S1 S 0.77755(7) 0.42208(7) 0.33586(6)
C1 C 0.8434(3) 0.2528(3) 0.0602(3)
C2 C 0.8117(2) 0.3798(2) 0.1117(2)
C3 C 0.8216(2) 0.3254(2) 0.2290(2)
C4 C 0.8545(3) 0.1664(2) 0.2631(2)
C5 C 0.8666(3) 0.1243(3) 0.1606(2)
C6 C 0.8947(3) -0.0166(3) 0.1617(3)
H1 H 0.9033 -0.0429 0.0928
C7 C 0.9097(3) -0.1176(3) 0.2694(3)
H2 H 0.9256 -0.2127 0.2729
C8 C 0.9010(3) -0.0776(3) 0.3712(3)
H3 H 0.9142 -0.1468 0.4420
C9 C 0.8728(3) 0.0656(3) 0.3700(3)
H4 H 0.8667 0.0917 0.4388
C10 C 0.7707(3) 0.5257(2) 0.0341(2)
C11 C 0.6632(3) 0.5585(3) -0.0454(2)
H5 H 0.6209 0.4886 -0.0475
C12 C 0.6185(3) 0.6915(3) -0.1205(2)
H6 H 0.5449 0.7100 -0.1704
C13 C 0.6810(3) 0.8000(3) -0.1238(2)
C14 C 0.7905(3) 0.7643(3) -0.0458(2)
H7 H 0.8356 0.8329 -0.0459
C15 C 0.8347(3) 0.6326(3) 0.0313(2)
H8 H 0.9076 0.6145 0.0818
C16 C 0.6342(4) 0.9464(3) -0.2110(3)
C17 C 0.4799(7) 0.9993(8) -0.2181(9)
H9 H 0.4549 1.0977 -0.2602
H10 H 0.4396 0.9881 -0.1410
H11 H 0.4445 0.9467 -0.2578
C18 C 0.6920(12) 1.0556(7) -0.1806(10)
H12 H 0.7931 1.0271 -0.1837
H13 H 0.6609 1.0620 -0.1036
H14 H 0.6585 1.1462 -0.2355
C19 C 0.7004(12) 0.9274(6) -0.3303(6)
H15 H 0.6708 1.0151 -0.3896
H16 H 0.6699 0.8553 -0.3495
H17 H 0.8012 0.9001 -0.3255
C20 C 0.5962(3) 0.4369(2) 0.3549(2)
C21 C 0.5018(3) 0.5449(2) 0.2782(2)
H18 H 0.5340 0.6117 0.2197
C22 C 0.3596(3) 0.5518(3) 0.2898(3)
H19 H 0.2969 0.6244 0.2386
C23 C 0.3076(3) 0.4532(3) 0.3761(3)
C24 C 0.4031(3) 0.3489(3) 0.4528(3)
H20 H 0.3705 0.2833 0.5122
C25 C 0.5465(3) 0.3395(3) 0.4433(2)
H21 H 0.6088 0.2685 0.4958
C26 C 0.1526(3) 0.4590(3) 0.3829(3)
H22 H 0.1271 0.4403 0.3149
H23 H 0.0982 0.5513 0.3871
H24 H 0.1341 0.3892 0.4511
C27? C 0.7477(18) 1.0160(18) -0.2588(16)
H25? H 0.7080 1.1077 -0.3101
H26? H 0.8145 0.9594 -0.3012
H27? H 0.7942 1.0260 -0.1962
C28? C 0.543(2) 0.9513(12) -0.3134(13)
H28? H 0.4890 1.0469 -0.3463
H29? H 0.4797 0.8923 -0.2840
H30? H 0.6034 0.9177 -0.3723
C29? C 0.525(2) 1.0482(13) -0.1429(15)
H31? H 0.5755 1.0708 -0.0896
H32? H 0.4571 1.0005 -0.1006
H33? H 0.4774 1.1338 -0.1981
loop_
_geom_bond_atom_site_label_1
_geom_bond_atom_site_label_2
_geom_bond_site_symmetry_1
_geom_bond_site_symmetry_2
O1 C1 1_555 1_555
O2 S1 1_555 1_555
O3 S1 1_555 1_555
S1 C3 1_555 1_555
C1 C2 1_555 1_555
C2 C3 1_555 1_555
C3 C4 1_555 1_555
C4 C5 1_555 1_555
C5 C1 1_555 1_555
C6 C5 1_555 1_555
H1 C6 1_555 1_555
C7 C6 1_555 1_555
H2 C7 1_555 1_555
C8 C7 1_555 1_555
H3 C8 1_555 1_555
C9 C4 1_555 1_555
H4 C9 1_555 1_555
C10 C2 1_555 1_555
C11 C10 1_555 1_555
H5 C11 1_555 1_555
C12 C11 1_555 1_555
H6 C12 1_555 1_555
C13 C12 1_555 1_555
C14 C13 1_555 1_555
H7 C14 1_555 1_555
C15 C10 1_555 1_555
H8 C15 1_555 1_555
C16 C13 1_555 1_555
C17 C16 1_555 1_555
H9 C17 1_555 1_555
H10 C17 1_555 1_555
H11 C17 1_555 1_555
C18 C16 1_555 1_555
H12 C18 1_555 1_555
H13 C18 1_555 1_555
H14 C18 1_555 1_555
C19 C16 1_555 1_555
H15 C19 1_555 1_555
H16 C19 1_555 1_555
H17 C19 1_555 1_555
C20 S1 1_555 1_555
C21 C20 1_555 1_555
H18 C21 1_555 1_555
C22 C21 1_555 1_555
H19 C22 1_555 1_555
C23 C22 1_555 1_555
C24 C23 1_555 1_555
H20 C24 1_555 1_555
C25 C20 1_555 1_555
H21 C25 1_555 1_555
C26 C23 1_555 1_555
H22 C26 1_555 1_555
H23 C26 1_555 1_555
H24 C26 1_555 1_555
C8 C9 1_555 1_555
C14 C15 1_555 1_555
C24 C25 1_555 1_555

#END
