
#######################################################################
#
#                 Cambridge Crystallographic Data Centre
#                                CCDC 
#
#######################################################################
#
# If this CIF has been generated from an entry in the Cambridge 
# Structural Database, then it will include bibliographic, chemical, 
# crystal, experimental, refinement or atomic coordinate data resulting 
# from the CCDC's data processing and validation procedures.
#
#######################################################################

data_KIGLES01
_chemical_name_common            'theophylline salicylic acid'
_chemical_formula_moiety         'C7 H8 N4 O2,C7 H6 O3'
_chemical_name_systematic        
'2-hydroxybenzoic acid 1,3-dimethyl-3,7-dihydro-1H-purine-2,6-dione'
_symmetry_cell_setting           monoclinic
_symmetry_space_group_name_H-M   'P 21/n'
_symmetry_Int_Tables_number      14
_space_group_name_Hall           '-P 2yn'
loop_
_symmetry_equiv_pos_site_id
_symmetry_equiv_pos_as_xyz
1 x,y,z
2 1/2-x,1/2+y,1/2-z
3 -x,-y,-z
4 1/2+x,1/2-y,1/2+z
_cell_length_a                   6.9599(5)
_cell_length_b                   25.9822(13)
_cell_length_c                   8.0100(5)
_cell_angle_alpha                90
_cell_angle_beta                 105.224(7)
_cell_angle_gamma                90
_cell_volume                     1397.64
_exptl_crystal_colour            colorless
_exptl_crystal_description       block
_chemical_melting_point          '118.5 deg.C'
_cell_formula_units_Z            4
_exptl_crystal_recrystallization_method chloroform
loop_
_atom_site_label
_atom_site_type_symbol
_atom_site_fract_x
_atom_site_fract_y
_atom_site_fract_z
O1 O 0.4711(5) 0.12155(10) 0.7346(3)
H1 H 0.538(8) 0.102(2) 0.816(7)
O2 O 0.4752(4) 0.04727(10) 0.5960(3)
O3 O 0.3176(4) 0.04439(10) 0.2571(3)
H2 H 0.375(8) 0.030(2) 0.351(7)
C1 C 0.3362(5) 0.12089(13) 0.4345(4)
C2 C 0.2845(5) 0.09481(13) 0.2749(5)
C3 C 0.1957(6) 0.12195(14) 0.1241(5)
H3 H 0.164(7) 0.1016(17) 0.023(6)
C4 C 0.1567(6) 0.17376(15) 0.1311(5)
H4 H 0.091(7) 0.1933(17) 0.028(6)
C5 C 0.2053(6) 0.19997(15) 0.2891(5)
H5 H 0.174(7) 0.2351(18) 0.291(6)
C6 C 0.2943(6) 0.17367(14) 0.4367(5)
H6 H 0.336(7) 0.1907(16) 0.545(6)
C7 C 0.4328(5) 0.09287(14) 0.5947(5)
O4 O -0.0121(4) 0.06410(10) 0.6200(3)
O5 O -0.2443(4) 0.22296(9) 0.4200(3)
C8 C -0.2700(5) 0.10714(13) 0.1928(4)
C9 C -0.2594(6) 0.03444(15) 0.0734(5)
H7 H -0.277(6) 0.0070(18) -0.004(6)
C10 C -0.1797(5) 0.07415(13) 0.3216(4)
C11 C -0.1033(5) 0.09014(13) 0.4973(4)
C12 C -0.2295(5) 0.17763(13) 0.3884(5)
C13 C -0.0695(6) 0.16310(15) 0.6940(5)
H8 H 0.0734 0.1620 0.7271
H9 H -0.1199 0.1428 0.7733
H10 H -0.1133 0.1981 0.6964
C14 C -0.3713(6) 0.19447(14) 0.0805(5)
H11 H -0.2634 0.2051 0.0345
H12 H -0.4268 0.2240 0.1227
H13 H -0.4722 0.1781 -0.0088
N1 N -0.3216(5) 0.08268(11) 0.0374(4)
N2 N -0.1728(5) 0.02744(11) 0.2429(4)
H14 H -0.111(6) -0.0002(18) 0.292(6)
N3 N -0.1439(4) 0.14231(11) 0.5185(4)
N4 N -0.2978(4) 0.15824(11) 0.2224(4)
loop_
_geom_bond_atom_site_label_1
_geom_bond_atom_site_label_2
_geom_bond_site_symmetry_1
_geom_bond_site_symmetry_2
O1 H1 1_555 1_555
O2 C7 1_555 1_555
O3 H2 1_555 1_555
C1 C2 1_555 1_555
C2 O3 1_555 1_555
C3 C2 1_555 1_555
H3 C3 1_555 1_555
C4 C3 1_555 1_555
H4 C4 1_555 1_555
C5 C4 1_555 1_555
H5 C5 1_555 1_555
C6 C1 1_555 1_555
H6 C6 1_555 1_555
C7 O1 1_555 1_555
O4 C11 1_555 1_555
O5 C12 1_555 1_555
C8 C10 1_555 1_555
C9 H7 1_555 1_555
C10 C11 1_555 1_555
C11 N3 1_555 1_555
C12 N3 1_555 1_555
C13 H8 1_555 1_555
H9 C13 1_555 1_555
H10 C13 1_555 1_555
C14 H11 1_555 1_555
H12 C14 1_555 1_555
H13 C14 1_555 1_555
N1 C8 1_555 1_555
N2 C9 1_555 1_555
H14 N2 1_555 1_555
N3 C13 1_555 1_555
N4 C8 1_555 1_555
C1 C7 1_555 1_555
C5 C6 1_555 1_555
C9 N1 1_555 1_555
C10 N2 1_555 1_555
C12 N4 1_555 1_555
C14 N4 1_555 1_555

#END
