
#######################################################################
#
#                 Cambridge Crystallographic Data Centre
#                                CCDC 
#
#######################################################################
#
# If this CIF has been generated from an entry in the Cambridge 
# Structural Database, then it will include bibliographic, chemical, 
# crystal, experimental, refinement or atomic coordinate data resulting 
# from the CCDC's data processing and validation procedures.
#
#######################################################################

data_KIGMUL
_chemical_formula_moiety         'C24 H19 N1 O3 S1'
_chemical_name_systematic        
2-nitro-3,4-diphenyl-1,2,3,4-tetrahydrodibenzo[b,d]thiophene-1-ol
_symmetry_cell_setting           monoclinic
_symmetry_space_group_name_H-M   'P 21'
_symmetry_Int_Tables_number      4
_space_group_name_Hall           'P 2yb'
loop_
_symmetry_equiv_pos_site_id
_symmetry_equiv_pos_as_xyz
1 x,y,z
2 -x,1/2+y,-z
_cell_length_a                   9.6365(7)
_cell_length_b                   19.5079(8)
_cell_length_c                   22.0323(15)
_cell_angle_alpha                90
_cell_angle_beta                 101.376(6)
_cell_angle_gamma                90
_cell_volume                     4060.43
_exptl_crystal_colour            'light colorless'
_exptl_crystal_description       block
_cell_formula_units_Z            8
loop_
_atom_site_label
_atom_site_type_symbol
_atom_site_fract_x
_atom_site_fract_y
_atom_site_fract_z
S1 S 0.4626(3) 0.27524(10) 0.88128(9)
O1 O 0.3686(6) 0.3916(3) 1.0691(2)
H1 H 0.4409 0.4115 1.0647
O2 O 0.0301(8) 0.4406(3) 1.0167(4)
O3 O 0.1462(7) 0.5309(3) 1.0130(3)
N1 N 0.1312(8) 0.4708(3) 1.0041(3)
C1 C 0.5197(8) 0.2377(4) 0.9540(3)
C2 C 0.6085(9) 0.1808(4) 0.9658(4)
H2 H 0.6432 0.1587 0.9344
C3 C 0.6421(10) 0.1590(4) 1.0265(4)
H3 H 0.7041 0.1223 1.0364
C4 C 0.5876(10) 0.1894(4) 1.0730(4)
H4 H 0.6105 0.1723 1.1131
C5 C 0.4987(10) 0.2454(4) 1.0603(4)
H5 H 0.4624 0.2661 1.0919
C6 C 0.4633(8) 0.2712(3) 0.9997(3)
C7 C 0.3710(8) 0.3272(3) 0.9744(3)
C8 C 0.3627(8) 0.3345(3) 0.9127(3)
C9 C 0.2663(8) 0.3835(3) 0.8707(3)
H6 H 0.2168 0.3568 0.8353
C10 C 0.1516(8) 0.4093(3) 0.9069(3)
H7 H 0.0962 0.3688 0.9136
C11 C 0.2289(8) 0.4326(3) 0.9713(3)
H8 H 0.3065 0.4632 0.9663
C12 C 0.2905(8) 0.3721(3) 1.0109(3)
H9 H 0.2101 0.3450 1.0186
C13 C 0.3447(8) 0.4407(4) 0.8448(3)
C14 C 0.4577(9) 0.4737(4) 0.8787(3)
H10 H 0.4950 0.4579 0.9184
C15 C 0.5207(9) 0.5305(4) 0.8562(4)
H11 H 0.5974 0.5526 0.8807
C16 C 0.4658(10) 0.5529(5) 0.7968(4)
H12 H 0.5028 0.5920 0.7817
C17 C 0.3565(10) 0.5177(5) 0.7596(4)
H13 H 0.3236 0.5311 0.7188
C18 C 0.2972(9) 0.4627(4) 0.7840(3)
H14 H 0.2229 0.4394 0.7591
C19 C 0.0496(8) 0.4587(3) 0.8713(3)
C20 C -0.0851(9) 0.4360(4) 0.8445(3)
H15 H -0.1094 0.3907 0.8503
C21 C -0.1830(10) 0.4780(5) 0.8099(4)
H16 H -0.2721 0.4612 0.7920
C22 C -0.1489(11) 0.5450(5) 0.8016(4)
H17 H -0.2156 0.5746 0.7791
C23 C -0.0188(10) 0.5677(4) 0.8260(4)
H18 H 0.0047 0.6127 0.8185
C24 C 0.0815(9) 0.5268(4) 0.8619(3)
H19 H 0.1697 0.5446 0.8797
S2 S 0.5553(3) 0.57179(10) 0.62513(9)
O4 O 0.6709(6) 0.7413(3) 0.4748(2)
H20 H 0.5913 0.7504 0.4805
O5 O 1.0180(8) 0.7748(3) 0.5455(3)
O6 O 0.8870(8) 0.8603(3) 0.5557(3)
N2 N 0.9134(9) 0.7991(4) 0.5585(3)
C25 C 0.4939(8) 0.5583(4) 0.5467(3)
C26 C 0.3942(9) 0.5105(4) 0.5200(4)
H21 H 0.3520 0.4807 0.5439
C27 C 0.3605(10) 0.5092(4) 0.4560(4)
H22 H 0.2941 0.4775 0.4367
C28 C 0.4206(10) 0.5525(5) 0.4201(4)
H23 H 0.3948 0.5499 0.3772
C29 C 0.5194(9) 0.6001(4) 0.4470(3)
H24 H 0.5614 0.6289 0.4222
C30 C 0.5567(8) 0.6053(4) 0.5115(3)
C31 C 0.6592(8) 0.6495(3) 0.5505(3)
C32 C 0.7462(8) 0.7046(3) 0.5263(3)
H25 H 0.8257 0.6817 0.5130
C33 C 0.8082(9) 0.7523(3) 0.5802(3)
H26 H 0.7321 0.7799 0.5914
C34 C 0.8803(8) 0.7109(3) 0.6359(3)
H27 H 0.9343 0.6747 0.6202
C35 C 0.7603(8) 0.6741(3) 0.6629(3)
H28 H 0.8064 0.6389 0.6917
C36 C 0.6664(8) 0.6373(3) 0.6104(3)
C37 C 0.6798(8) 0.7207(3) 0.6993(3)
C38 C 0.5614(8) 0.7563(4) 0.6699(4)
H29 H 0.5248 0.7479 0.6283
C39 C 0.4963(10) 0.8044(4) 0.7016(4)
H30 H 0.4172 0.8284 0.6813
C40 C 0.5501(10) 0.8162(5) 0.7633(4)
H31 H 0.5080 0.8488 0.7846
C41 C 0.6654(10) 0.7802(4) 0.7937(4)
H32 H 0.7009 0.7877 0.8355
C42 C 0.7285(9) 0.7323(4) 0.7612(3)
H33 H 0.8058 0.7075 0.7819
C43 C 0.9811(8) 0.7470(4) 0.6857(3)
C44 C 1.1023(9) 0.7137(5) 0.7138(4)
H34 H 1.1236 0.6714 0.6984
C45 C 1.1953(11) 0.7417(6) 0.7650(4)
H35 H 1.2747 0.7174 0.7846
C46 C 1.1662(13) 0.8061(6) 0.7859(4)
H36 H 1.2279 0.8260 0.8190
C47 C 1.0475(12) 0.8401(5) 0.7580(5)
H37 H 1.0275 0.8829 0.7729
C48 C 0.9559(10) 0.8119(4) 0.7078(4)
H38 H 0.8767 0.8365 0.6886
S3 S 1.0543(3) 0.53229(10) 0.61321(10)
O7 O 0.7849(7) 0.4099(3) 0.4306(2)
H39 H 0.8693 0.4018 0.4330
O8 O 0.5053(7) 0.3558(4) 0.4907(4)
O9 O 0.6374(8) 0.2699(3) 0.4832(3)
N3 N 0.6204(8) 0.3287(4) 0.4983(3)
C49 C 1.0407(9) 0.5675(4) 0.5396(3)
C50 C 1.1185(10) 0.6236(4) 0.5248(4)
H40 H 1.1871 0.6447 0.5546
C51 C 1.0897(13) 0.6461(5) 0.4652(5)
H41 H 1.1390 0.6834 0.4539
C52 C 0.9874(13) 0.6140(5) 0.4210(4)
H42 H 0.9689 0.6308 0.3808
C53 C 0.9128(10) 0.5582(4) 0.4351(4)
H43 H 0.8461 0.5370 0.4046
C54 C 0.9392(9) 0.5340(3) 0.4960(3)
C55 C 0.8747(8) 0.4785(3) 0.5230(3)
C56 C 0.7615(9) 0.4312(3) 0.4887(3)
H44 H 0.6713 0.4560 0.4819
C57 C 0.7479(8) 0.3686(3) 0.5298(3)
H45 H 0.8327 0.3399 0.5335
C58 C 0.7294(8) 0.3917(3) 0.5943(3)
H46 H 0.6616 0.4297 0.5880
C59 C 0.8746(8) 0.4224(3) 0.6274(3)
H47 H 0.8572 0.4486 0.6631
C60 C 0.9244(8) 0.4721(3) 0.5845(3)
C61 C 0.9849(8) 0.3687(3) 0.6518(3)
C62 C 1.0836(9) 0.3447(4) 0.6186(3)
H48 H 1.0872 0.3646 0.5806
C63 C 1.1755(10) 0.2929(4) 0.6400(4)
H49 H 1.2383 0.2768 0.6162
C64 C 1.1743(11) 0.2641(4) 0.6984(4)
H50 H 1.2356 0.2285 0.7134
C65 C 1.0832(10) 0.2888(4) 0.7327(3)
H51 H 1.0842 0.2710 0.7720
C66 C 0.9892(9) 0.3400(3) 0.7100(3)
H52 H 0.9269 0.3558 0.7341
C67 C 0.7124(10) 0.2722(4) 0.6362(3)
H53 H 0.7644 0.2551 0.6081
C68 C 0.6729(10) 0.2284(4) 0.6800(4)
H54 H 0.6991 0.1825 0.6811
C69 C 0.5963(12) 0.2526(5) 0.7210(5)
H55 H 0.5733 0.2237 0.7511
C70 C 0.5525(11) 0.3206(5) 0.7179(4)
H56 H 0.4966 0.3369 0.7447
C71 C 0.5916(10) 0.3630(4) 0.6757(4)
H57 H 0.5622 0.4085 0.6743
C72 C 0.6749(8) 0.3406(4) 0.6341(3)
S4 S 1.0731(2) 0.72981(10) 0.12082(9)
O10 O 0.8074(6) 0.5622(3) -0.0273(2)
H58 H 0.8834 0.5420 -0.0186
O11 O 0.6671(7) 0.4440(3) 0.0575(3)
O12 O 0.5288(7) 0.5311(3) 0.0460(3)
N4 N 0.6472(8) 0.5058(4) 0.0596(3)
C73 C 1.0538(9) 0.7438(4) 0.0419(3)
C74 C 1.1242(9) 0.7938(4) 0.0139(4)
H59 H 1.1890 0.8234 0.0374
C75 C 1.0939(10) 0.7975(4) -0.0500(4)
H60 H 1.1398 0.8300 -0.0699
C76 C 0.9966(10) 0.7539(5) -0.0849(4)
H61 H 0.9780 0.7581 -0.1278
C77 C 0.9265(9) 0.7045(4) -0.0582(3)
H62 H 0.8629 0.6749 -0.0825
C78 C 0.9531(9) 0.6995(4) 0.0071(3)
C79 C 0.7842(9) 0.6002(3) 0.0256(3)
H63 H 0.6932 0.6239 0.0138
C80 C 0.8944(8) 0.6533(3) 0.0471(3)
C81 C 0.7723(8) 0.5506(3) 0.0796(3)
H64 H 0.8580 0.5224 0.0896
C82 C 0.7579(8) 0.5945(3) 0.1364(3)
H65 H 0.6928 0.6321 0.1212
C83 C 0.9056(8) 0.6272(4) 0.1606(3)
H66 H 0.8915 0.6621 0.1907
C84 C 0.6980(8) 0.5578(3) 0.1871(3)
C85 C 0.6160(10) 0.5941(4) 0.2187(4)
H67 H 0.5885 0.6382 0.2054
C86 C 0.5719(11) 0.5681(4) 0.2697(4)
H68 H 0.5148 0.5942 0.2902
C87 C 0.6124(10) 0.5038(5) 0.2901(4)
H69 H 0.5826 0.4857 0.3244
C88 C 0.6960(10) 0.4664(4) 0.2602(4)
H70 H 0.7243 0.4226 0.2740
C89 C 0.7399(9) 0.4938(4) 0.2083(4)
H71 H 0.7983 0.4680 0.1881
C90 C 1.0180(9) 0.5796(4) 0.1943(3)
C91 C 1.0271(10) 0.5673(4) 0.2580(3)
H72 H 0.9685 0.5912 0.2794
C92 C 1.1221(11) 0.5204(6) 0.2885(4)
H73 H 1.1261 0.5121 0.3304
C93 C 1.2108(10) 0.4858(5) 0.2579(5)
H74 H 1.2744 0.4541 0.2791
C94 C 1.2068(10) 0.4978(5) 0.1952(4)
H75 H 1.2688 0.4753 0.1745
C95 C 1.1069(9) 0.5445(4) 0.1642(4)
H76 H 1.1010 0.5518 0.1220
C96 C 0.9480(8) 0.6649(3) 0.1082(3)
loop_
_geom_bond_atom_site_label_1
_geom_bond_atom_site_label_2
_geom_bond_site_symmetry_1
_geom_bond_site_symmetry_2
S1 C1 1_555 1_555
O1 H1 1_555 1_555
O2 N1 1_555 1_555
O3 N1 1_555 1_555
N1 C11 1_555 1_555
C1 C2 1_555 1_555
C2 H2 1_555 1_555
C3 C2 1_555 1_555
H3 C3 1_555 1_555
C4 C3 1_555 1_555
H4 C4 1_555 1_555
C5 C4 1_555 1_555
H5 C5 1_555 1_555
C6 C1 1_555 1_555
C7 C6 1_555 1_555
C8 S1 1_555 1_555
C9 C8 1_555 1_555
H6 C9 1_555 1_555
C10 C9 1_555 1_555
H7 C10 1_555 1_555
C11 C10 1_555 1_555
H8 C11 1_555 1_555
C12 O1 1_555 1_555
H9 C12 1_555 1_555
C13 C9 1_555 1_555
C14 C13 1_555 1_555
H10 C14 1_555 1_555
C15 C14 1_555 1_555
H11 C15 1_555 1_555
C16 C15 1_555 1_555
H12 C16 1_555 1_555
C17 C16 1_555 1_555
H13 C17 1_555 1_555
C18 C13 1_555 1_555
H14 C18 1_555 1_555
C19 C10 1_555 1_555
C20 C19 1_555 1_555
H15 C20 1_555 1_555
C21 C20 1_555 1_555
H16 C21 1_555 1_555
C22 C21 1_555 1_555
H17 C22 1_555 1_555
C23 C22 1_555 1_555
H18 C23 1_555 1_555
C24 C19 1_555 1_555
H19 C24 1_555 1_555
S2 C25 1_555 1_555
O4 H20 1_555 1_555
O5 N2 1_555 1_555
O6 N2 1_555 1_555
N2 C33 1_555 1_555
C25 C26 1_555 1_555
C26 H21 1_555 1_555
C27 C26 1_555 1_555
H22 C27 1_555 1_555
C28 C27 1_555 1_555
H23 C28 1_555 1_555
C29 C28 1_555 1_555
H24 C29 1_555 1_555
C30 C25 1_555 1_555
C31 C30 1_555 1_555
C32 O4 1_555 1_555
H25 C32 1_555 1_555
C33 C32 1_555 1_555
H26 C33 1_555 1_555
C34 C33 1_555 1_555
H27 C34 1_555 1_555
C35 C34 1_555 1_555
H28 C35 1_555 1_555
C36 S2 1_555 1_555
C37 C35 1_555 1_555
C38 C37 1_555 1_555
H29 C38 1_555 1_555
C39 C38 1_555 1_555
H30 C39 1_555 1_555
C40 C39 1_555 1_555
H31 C40 1_555 1_555
C41 C40 1_555 1_555
H32 C41 1_555 1_555
C42 C37 1_555 1_555
H33 C42 1_555 1_555
C43 C34 1_555 1_555
C44 C43 1_555 1_555
H34 C44 1_555 1_555
C45 C44 1_555 1_555
H35 C45 1_555 1_555
C46 C45 1_555 1_555
H36 C46 1_555 1_555
C47 C46 1_555 1_555
H37 C47 1_555 1_555
C48 C43 1_555 1_555
H38 C48 1_555 1_555
S3 C49 1_555 1_555
O7 H39 1_555 1_555
O8 N3 1_555 1_555
O9 N3 1_555 1_555
N3 C57 1_555 1_555
C49 C50 1_555 1_555
C50 H40 1_555 1_555
C51 C50 1_555 1_555
H41 C51 1_555 1_555
C52 C51 1_555 1_555
H42 C52 1_555 1_555
C53 C52 1_555 1_555
H43 C53 1_555 1_555
C54 C49 1_555 1_555
C55 C54 1_555 1_555
C56 O7 1_555 1_555
H44 C56 1_555 1_555
C57 C56 1_555 1_555
H45 C57 1_555 1_555
C58 C57 1_555 1_555
H46 C58 1_555 1_555
C59 C58 1_555 1_555
H47 C59 1_555 1_555
C60 S3 1_555 1_555
C61 C59 1_555 1_555
C62 C61 1_555 1_555
H48 C62 1_555 1_555
C63 C62 1_555 1_555
H49 C63 1_555 1_555
C64 C63 1_555 1_555
H50 C64 1_555 1_555
C65 C64 1_555 1_555
H51 C65 1_555 1_555
C66 C61 1_555 1_555
H52 C66 1_555 1_555
C67 H53 1_555 1_555
C68 C67 1_555 1_555
H54 C68 1_555 1_555
C69 C68 1_555 1_555
H55 C69 1_555 1_555
C70 C69 1_555 1_555
H56 C70 1_555 1_555
C71 C70 1_555 1_555
H57 C71 1_555 1_555
C72 C58 1_555 1_555
S4 C73 1_555 1_555
O10 H58 1_555 1_555
O11 N4 1_555 1_555
O12 N4 1_555 1_555
N4 C81 1_555 1_555
C73 C74 1_555 1_555
C74 H59 1_555 1_555
C75 C74 1_555 1_555
H60 C75 1_555 1_555
C76 C75 1_555 1_555
H61 C76 1_555 1_555
C77 C76 1_555 1_555
H62 C77 1_555 1_555
C78 C73 1_555 1_555
C79 O10 1_555 1_555
H63 C79 1_555 1_555
C80 C78 1_555 1_555
C81 C79 1_555 1_555
H64 C81 1_555 1_555
C82 C81 1_555 1_555
H65 C82 1_555 1_555
C83 C82 1_555 1_555
H66 C83 1_555 1_555
C84 C82 1_555 1_555
C85 C84 1_555 1_555
H67 C85 1_555 1_555
C86 C85 1_555 1_555
H68 C86 1_555 1_555
C87 C86 1_555 1_555
H69 C87 1_555 1_555
C88 C87 1_555 1_555
H70 C88 1_555 1_555
C89 C84 1_555 1_555
H71 C89 1_555 1_555
C90 C83 1_555 1_555
C91 C90 1_555 1_555
H72 C91 1_555 1_555
C92 C91 1_555 1_555
H73 C92 1_555 1_555
C93 C92 1_555 1_555
H74 C93 1_555 1_555
C94 C93 1_555 1_555
H75 C94 1_555 1_555
C95 C90 1_555 1_555
H76 C95 1_555 1_555
C96 S4 1_555 1_555
C5 C6 1_555 1_555
C7 C8 1_555 1_555
C7 C12 1_555 1_555
C11 C12 1_555 1_555
C17 C18 1_555 1_555
C23 C24 1_555 1_555
C29 C30 1_555 1_555
C31 C32 1_555 1_555
C31 C36 1_555 1_555
C35 C36 1_555 1_555
C41 C42 1_555 1_555
C47 C48 1_555 1_555
C53 C54 1_555 1_555
C55 C56 1_555 1_555
C55 C60 1_555 1_555
C59 C60 1_555 1_555
C65 C66 1_555 1_555
C67 C72 1_555 1_555
C71 C72 1_555 1_555
C77 C78 1_555 1_555
C79 C80 1_555 1_555
C80 C96 1_555 1_555
C83 C96 1_555 1_555
C88 C89 1_555 1_555
C94 C95 1_555 1_555

#END
