
#######################################################################
#
#                 Cambridge Crystallographic Data Centre
#                                CCDC 
#
#######################################################################
#
# If this CIF has been generated from an entry in the Cambridge 
# Structural Database, then it will include bibliographic, chemical, 
# crystal, experimental, refinement or atomic coordinate data resulting 
# from the CCDC's data processing and validation procedures.
#
#######################################################################

data_KIGMAR
_chemical_formula_moiety         'C20 H22 O5'
_chemical_name_systematic        
2-methoxy-5-(3,4,5-trimethoxyphenyl)-7,8-dihydronaphthalen-1-ol
_symmetry_cell_setting           monoclinic
_symmetry_space_group_name_H-M   'P 21/n'
_symmetry_Int_Tables_number      14
_space_group_name_Hall           '-P 2yn'
loop_
_symmetry_equiv_pos_site_id
_symmetry_equiv_pos_as_xyz
1 x,y,z
2 1/2-x,1/2+y,1/2-z
3 -x,-y,-z
4 1/2+x,1/2-y,1/2+z
_cell_length_a                   12.1996(5)
_cell_length_b                   6.7253(2)
_cell_length_c                   20.3499(9)
_cell_angle_alpha                90
_cell_angle_beta                 94.1342(15)
_cell_angle_gamma                90
_cell_volume                     1665.28
_exptl_crystal_colour            colorless
_exptl_crystal_description       block
_cell_formula_units_Z            4
loop_
_atom_site_label
_atom_site_type_symbol
_atom_site_fract_x
_atom_site_fract_y
_atom_site_fract_z
O1 O 0.03387(8) 1.14021(14) -0.17670(5)
H1 H 0.0158(14) 1.092(2) -0.2170(10)
O2 O 0.11915(8) 0.82738(14) -0.23449(4)
O3 O 0.56131(7) 0.60228(12) 0.09235(5)
O4 O 0.46634(7) 0.39069(12) 0.18516(4)
O5 O 0.25621(7) 0.44354(14) 0.20816(4)
C1 C 0.10043(9) 1.01370(17) -0.13910(6)
C2 C 0.14635(10) 0.84649(18) -0.16833(6)
C3 C 0.21304(11) 0.71906(19) -0.13054(7)
H2 H 0.2441 0.6057 -0.1499
C4 C 0.23437(11) 0.75817(18) -0.06377(6)
H3 H 0.2796 0.6692 -0.0377
C5 C 0.19111(9) 0.92427(16) -0.03419(6)
C6 C 0.12253(9) 1.05450(17) -0.07276(6)
C7 C 0.06944(11) 1.23243(19) -0.04287(7)
H4 H -0.0110 1.2104 -0.0456
H5 H 0.0834 1.3501 -0.0703
C8 C 0.10613(12) 1.28144(19) 0.02788(7)
H6 H 0.1492 1.4062 0.0283
H7 H 0.0399 1.3075 0.0519
C9 C 0.17335(10) 1.12740(18) 0.06492(6)
H8 H 0.1882 1.1452 0.1110
C10 C 0.21394(9) 0.96555(17) 0.03703(6)
C11 C 0.28183(10) 0.81749(17) 0.07755(6)
C12 C 0.39149(10) 0.78640(17) 0.06513(6)
H9 H 0.4239 0.8618 0.0322
C13 C 0.45323(10) 0.64472(17) 0.10116(6)
C14 C 0.40559(9) 0.53213(17) 0.14917(6)
C15 C 0.29602(10) 0.56355(17) 0.16137(6)
C16 C 0.23467(10) 0.70893(18) 0.12613(6)
H10 H 0.1607 0.7334 0.1355
C17 C 0.17371(13) 0.6739(2) -0.26762(7)
H11 H 0.2534 0.6898 -0.2596
H12 H 0.1536 0.6820 -0.3150
H13 H 0.1517 0.5441 -0.2510
C18 C 0.61370(11) 0.7191(2) 0.04545(7)
H14 H 0.5785 0.6947 0.0014
H15 H 0.6916 0.6827 0.0462
H16 H 0.6071 0.8602 0.0564
C19 C 0.47978(11) 0.21105(18) 0.14903(6)
H17 H 0.4075 0.1601 0.1329
H18 H 0.5174 0.1119 0.1778
H19 H 0.5236 0.2380 0.1115
C20 C 0.14383(11) 0.4734(2) 0.22187(7)
H20 H 0.1335 0.6112 0.2358
H21 H 0.1251 0.3830 0.2571
H22 H 0.0961 0.4463 0.1821
loop_
_geom_bond_atom_site_label_1
_geom_bond_atom_site_label_2
_geom_bond_site_symmetry_1
_geom_bond_site_symmetry_2
O1 H1 1_555 1_555
O2 C2 1_555 1_555
O3 C13 1_555 1_555
O4 C14 1_555 1_555
O5 C15 1_555 1_555
C1 O1 1_555 1_555
C2 C1 1_555 1_555
C3 C2 1_555 1_555
H2 C3 1_555 1_555
C4 C3 1_555 1_555
H3 C4 1_555 1_555
C5 C4 1_555 1_555
C6 C1 1_555 1_555
C7 C6 1_555 1_555
H4 C7 1_555 1_555
H5 C7 1_555 1_555
C8 C7 1_555 1_555
H6 C8 1_555 1_555
H7 C8 1_555 1_555
C9 C8 1_555 1_555
H8 C9 1_555 1_555
C10 C5 1_555 1_555
C11 C10 1_555 1_555
C12 C11 1_555 1_555
H9 C12 1_555 1_555
C13 C12 1_555 1_555
C14 C13 1_555 1_555
C15 C14 1_555 1_555
C16 C11 1_555 1_555
H10 C16 1_555 1_555
C17 O2 1_555 1_555
H11 C17 1_555 1_555
H12 C17 1_555 1_555
H13 C17 1_555 1_555
C18 O3 1_555 1_555
H14 C18 1_555 1_555
H15 C18 1_555 1_555
H16 C18 1_555 1_555
C19 O4 1_555 1_555
H17 C19 1_555 1_555
H18 C19 1_555 1_555
H19 C19 1_555 1_555
C20 O5 1_555 1_555
H20 C20 1_555 1_555
H21 C20 1_555 1_555
H22 C20 1_555 1_555
C5 C6 1_555 1_555
C9 C10 1_555 1_555
C15 C16 1_555 1_555

#END
