
#######################################################################
#
#                 Cambridge Crystallographic Data Centre
#                                CCDC 
#
#######################################################################
#
# If this CIF has been generated from an entry in the Cambridge 
# Structural Database, then it will include bibliographic, chemical, 
# crystal, experimental, refinement or atomic coordinate data resulting 
# from the CCDC's data processing and validation procedures.
#
#######################################################################

data_KIGPAU
_chemical_formula_moiety         'C44 H46 N10'
_chemical_name_systematic        
trans-5,5,10,15,15,20-hexamethyl-10,20-bis[(4-phenyl-1H-1,2,3-triazol-1-yl)methyl]-5,10,15,20,22,24-hexahydroporphyrin
_symmetry_cell_setting           monoclinic
_symmetry_space_group_name_H-M   'P 21/c'
_symmetry_Int_Tables_number      14
_space_group_name_Hall           '-P 2ybc'
loop_
_symmetry_equiv_pos_site_id
_symmetry_equiv_pos_as_xyz
1 x,y,z
2 -x,1/2+y,1/2-z
3 -x,-y,-z
4 x,1/2-y,1/2+z
_cell_length_a                   12.546(3)
_cell_length_b                   27.351(6)
_cell_length_c                   11.169(2)
_cell_angle_alpha                90
_cell_angle_beta                 93.95(3)
_cell_angle_gamma                90
_cell_volume                     3823.49
_exptl_crystal_colour            'whiteish colorless'
_exptl_crystal_description       block
_cell_formula_units_Z            4
loop_
_atom_site_label
_atom_site_type_symbol
_atom_site_fract_x
_atom_site_fract_y
_atom_site_fract_z
N1 N 0.32224(6) 0.34614(3) 0.66989(8)
H1 H 0.3356 0.3211 0.6238
N2 N 0.60073(7) 0.34378(3) 0.71744(8)
H2 H 0.6009 0.3740 0.7443
N3 N 0.60560(7) 0.39963(3) 0.45320(8)
H3 H 0.5620 0.3744 0.4518
N4 N 0.34131(7) 0.41982(3) 0.41762(8)
H4 H 0.3475 0.4449 0.4669
N5 N 0.30416(7) 0.27490(3) 0.93958(8)
N6 N 0.31799(7) 0.25988(3) 1.05438(8)
N7 N 0.22985(7) 0.26930(4) 1.10643(9)
N8 N 0.37358(7) 0.51184(3) 0.20199(8)
N9 N 0.37809(7) 0.55644(3) 0.15176(9)
N10 N 0.30399(8) 0.55846(3) 0.06266(9)
C1 C 0.37117(7) 0.35455(3) 0.78204(9)
C2 C 0.32907(8) 0.39688(4) 0.82501(10)
H5 H 0.3478 0.4116 0.9006
C3 C 0.25204(8) 0.41472(4) 0.73554(10)
H6 H 0.2102 0.4435 0.7407
C4 C 0.24942(7) 0.38257(4) 0.64021(9)
C5 C 0.44956(7) 0.31787(3) 0.83841(9)
C6 C 0.53465(7) 0.30714(3) 0.75287(9)
C7 C 0.66659(7) 0.32617(4) 0.63371(9)
C8 C 0.64176(8) 0.27767(4) 0.61544(11)
H7 H 0.6741 0.2561 0.5620
C9 C 0.55876(8) 0.26559(4) 0.69127(11)
H8 H 0.5261 0.2345 0.6980
C10 C 0.75103(7) 0.35739(4) 0.58190(10)
C11 C 0.70254(7) 0.40191(4) 0.51920(9)
C12 C 0.58640(7) 0.44217(4) 0.39001(9)
C13 C 0.67262(8) 0.47246(4) 0.41575(10)
H9 H 0.6819 0.5044 0.3847
C14 C 0.74534(8) 0.44713(4) 0.49760(10)
H10 H 0.8117 0.4593 0.5313
C15 C 0.49329(8) 0.44671(4) 0.29686(9)
C16 C 0.40555(7) 0.41142(4) 0.32459(9)
C17 C 0.26580(7) 0.38331(4) 0.42270(9)
C18 C 0.28233(8) 0.35113(4) 0.33160(10)
H11 H 0.2421 0.3224 0.3128
C19 C 0.37075(9) 0.36862(4) 0.27010(10)
H12 H 0.4003 0.3534 0.2034
C20 C 0.18719(7) 0.38351(4) 0.51926(9)
C21 C 0.39081(8) 0.26922(4) 0.85994(9)
H13 H 0.3613 0.2561 0.7819
H14 H 0.4428 0.2451 0.8952
C22 C 0.15770(8) 0.29030(4) 1.02469(10)
C23 C 0.20586(8) 0.29431(4) 0.91727(10)
H15 H 0.1762 0.3078 0.8439
C24 C 0.04925(9) 0.30180(4) 1.05664(11)
C25 C 0.01422(10) 0.28504(5) 1.16572(12)
H16 H 0.0613 0.2669 1.2191
C26 C -0.08903(11) 0.29483(6) 1.19619(14)
H17 H -0.1125 0.2832 1.2701
C27 C -0.15835(11) 0.32165(6) 1.11847(15)
H18 H -0.2289 0.3286 1.1395
C28 C -0.12413(12) 0.33791(7) 1.01174(16)
H19 H -0.1714 0.3561 0.9587
C29 C -0.02077(11) 0.32807(6) 0.98001(14)
H20 H 0.0017 0.3394 0.9055
C30 C 0.50006(8) 0.33756(4) 0.95803(10)
H21 H 0.5376 0.3682 0.9438
H22 H 0.5508 0.3135 0.9934
H23 H 0.4439 0.3435 1.0131
C31 C 0.83454(8) 0.37337(5) 0.68142(11)
H24 H 0.8003 0.3940 0.7394
H25 H 0.8914 0.3919 0.6460
H26 H 0.8652 0.3444 0.7224
C32 C 0.80726(9) 0.32716(5) 0.48810(12)
H27 H 0.8414 0.2985 0.5270
H28 H 0.8616 0.3473 0.4529
H29 H 0.7545 0.3164 0.4248
C33 C 0.45268(8) 0.49999(4) 0.30033(10)
H30 H 0.4205 0.5056 0.3776
H31 H 0.5143 0.5224 0.2968
C34 C 0.25181(8) 0.51475(4) 0.05434(10)
C35 C 0.29507(8) 0.48490(4) 0.14490(10)
H32 H 0.2742 0.4525 0.1632
C36 C 0.16775(8) 0.50515(4) -0.04039(10)
C37 C 0.15162(9) 0.53850(5) -0.13475(11)
H33 H 0.1965 0.5664 -0.1379
C38 C 0.07041(10) 0.53120(5) -0.22404(12)
H34 H 0.0602 0.5540 -0.2879
C39 C 0.00425(9) 0.49061(5) -0.21999(12)
H35 H -0.0522 0.4860 -0.2801
C40 C 0.02095(8) 0.45685(5) -0.12784(11)
H36 H -0.0236 0.4288 -0.1257
C41 C 0.10260(8) 0.46379(4) -0.03841(11)
H37 H 0.1140 0.4404 0.0240
C42 C 0.53558(8) 0.43543(4) 0.17349(10)
H38 H 0.5674 0.4027 0.1749
H39 H 0.5898 0.4597 0.1556
H40 H 0.4764 0.4368 0.1115
C43 C 0.11686(8) 0.42952(4) 0.50898(11)
H41 H 0.1618 0.4586 0.5209
H42 H 0.0647 0.4285 0.5703
H43 H 0.0792 0.4307 0.4292
C44 C 0.11403(8) 0.33850(4) 0.50366(11)
H44 H 0.0744 0.3398 0.4250
H45 H 0.0636 0.3383 0.5668
H46 H 0.1575 0.3087 0.5092
loop_
_geom_bond_atom_site_label_1
_geom_bond_atom_site_label_2
_geom_bond_site_symmetry_1
_geom_bond_site_symmetry_2
N1 H1 1_555 1_555
N2 H2 1_555 1_555
N3 H3 1_555 1_555
N4 H4 1_555 1_555
N5 N6 1_555 1_555
N6 N7 1_555 1_555
N7 C22 1_555 1_555
N8 N9 1_555 1_555
N9 N10 1_555 1_555
N10 C34 1_555 1_555
C1 N1 1_555 1_555
C2 C1 1_555 1_555
H5 C2 1_555 1_555
C3 C2 1_555 1_555
H6 C3 1_555 1_555
C4 N1 1_555 1_555
C5 C1 1_555 1_555
C6 N2 1_555 1_555
C7 N2 1_555 1_555
C8 C7 1_555 1_555
H7 C8 1_555 1_555
C9 C6 1_555 1_555
H8 C9 1_555 1_555
C10 C7 1_555 1_555
C11 N3 1_555 1_555
C12 N3 1_555 1_555
C13 C12 1_555 1_555
H9 C13 1_555 1_555
C14 C11 1_555 1_555
H10 C14 1_555 1_555
C15 C12 1_555 1_555
C16 N4 1_555 1_555
C17 N4 1_555 1_555
C18 C17 1_555 1_555
H11 C18 1_555 1_555
C19 C16 1_555 1_555
H12 C19 1_555 1_555
C20 C4 1_555 1_555
C21 N5 1_555 1_555
H13 C21 1_555 1_555
H14 C21 1_555 1_555
C22 C23 1_555 1_555
C23 N5 1_555 1_555
H15 C23 1_555 1_555
C24 C22 1_555 1_555
C25 C24 1_555 1_555
H16 C25 1_555 1_555
C26 C25 1_555 1_555
H17 C26 1_555 1_555
C27 C26 1_555 1_555
H18 C27 1_555 1_555
C28 C27 1_555 1_555
H19 C28 1_555 1_555
C29 C24 1_555 1_555
H20 C29 1_555 1_555
C30 C5 1_555 1_555
H21 C30 1_555 1_555
H22 C30 1_555 1_555
H23 C30 1_555 1_555
C31 C10 1_555 1_555
H24 C31 1_555 1_555
H25 C31 1_555 1_555
H26 C31 1_555 1_555
C32 C10 1_555 1_555
H27 C32 1_555 1_555
H28 C32 1_555 1_555
H29 C32 1_555 1_555
C33 N8 1_555 1_555
H30 C33 1_555 1_555
H31 C33 1_555 1_555
C34 C35 1_555 1_555
C35 N8 1_555 1_555
H32 C35 1_555 1_555
C36 C34 1_555 1_555
C37 C36 1_555 1_555
H33 C37 1_555 1_555
C38 C37 1_555 1_555
H34 C38 1_555 1_555
C39 C38 1_555 1_555
H35 C39 1_555 1_555
C40 C39 1_555 1_555
H36 C40 1_555 1_555
C41 C36 1_555 1_555
H37 C41 1_555 1_555
C42 C15 1_555 1_555
H38 C42 1_555 1_555
H39 C42 1_555 1_555
H40 C42 1_555 1_555
C43 C20 1_555 1_555
H41 C43 1_555 1_555
H42 C43 1_555 1_555
H43 C43 1_555 1_555
C44 C20 1_555 1_555
H44 C44 1_555 1_555
H45 C44 1_555 1_555
H46 C44 1_555 1_555
C3 C4 1_555 1_555
C5 C6 1_555 1_555
C5 C21 1_555 1_555
C8 C9 1_555 1_555
C10 C11 1_555 1_555
C13 C14 1_555 1_555
C15 C16 1_555 1_555
C15 C33 1_555 1_555
C17 C20 1_555 1_555
C18 C19 1_555 1_555
C28 C29 1_555 1_555
C40 C41 1_555 1_555

#END
