
#######################################################################
#
#                 Cambridge Crystallographic Data Centre
#                                CCDC 
#
#######################################################################
#
# If this CIF has been generated from an entry in the Cambridge 
# Structural Database, then it will include bibliographic, chemical, 
# crystal, experimental, refinement or atomic coordinate data resulting 
# from the CCDC's data processing and validation procedures.
#
#######################################################################

data_KIGSAW
_chemical_name_common            TTF-46
_chemical_formula_moiety         'C26 H14 Cl2 O4 S9,C1 H1 Cl3'
_chemical_name_systematic        
"Dimethyl 2,2'-((2-(5,7-dichloro[1,3]dithiolo[4,5-b]thieno[3,4-e][1,4]dithiin-2-ylidene)-1,3-dithiole-4,5-diyl)disulfanediyl)dibenzoate chloroform solvate"
_symmetry_cell_setting           monoclinic
_symmetry_space_group_name_H-M   'P 21/a'
_symmetry_Int_Tables_number      14
_space_group_name_Hall           '-P 2yab'
loop_
_symmetry_equiv_pos_site_id
_symmetry_equiv_pos_as_xyz
1 x,y,z
2 1/2-x,1/2+y,-z
3 -x,-y,-z
4 1/2+x,1/2-y,z
_cell_length_a                   16.2160(3)
_cell_length_b                   12.1960(3)
_cell_length_c                   17.5730(4)
_cell_angle_alpha                90
_cell_angle_beta                 106.335(2)
_cell_angle_gamma                90
_cell_volume                     3335.13
_exptl_crystal_colour            red
_exptl_crystal_description       needle
_chemical_melting_point          '506 K'
_cell_formula_units_Z            4
loop_
_atom_site_label
_atom_site_type_symbol
_atom_site_fract_x
_atom_site_fract_y
_atom_site_fract_z
C1 C -0.02646(13) 0.42753(17) 0.41621(12)
C2 C 0.03260(13) 0.46587(17) 0.38265(12)
C3 C -0.17003(13) 0.37300(17) 0.44046(12)
C4 C -0.11444(13) 0.29421(17) 0.47543(12)
C5 C 0.09891(13) 0.54302(19) 0.27659(13)
C6 C 0.15367(13) 0.46385(19) 0.31366(12)
C7 C -0.27400(13) 0.31961(17) 0.52932(12)
C8 C -0.21291(13) 0.23688(17) 0.56685(12)
C9 C -0.32802(13) 0.34464(17) 0.57334(13)
C10 C -0.22349(13) 0.20498(17) 0.63767(13)
C11 C 0.02076(15) 0.5971(2) 0.12151(13)
C12 C -0.00228(17) 0.6662(2) 0.05466(14)
C13 C -0.07511(18) 0.6411(2) -0.00760(15)
H1 H -0.0910 0.6872 -0.0515
C14 C -0.12344(18) 0.5494(2) -0.00499(15)
H2 H -0.1721 0.5340 -0.0464
C15 C -0.09894(18) 0.4800(2) 0.06026(15)
H3 H -0.1308 0.4170 0.0617
C16 C -0.02774(16) 0.5035(2) 0.12306(14)
H4 H -0.0123 0.4565 0.1664
C17 C 0.23169(13) 0.29869(19) 0.24996(12)
C18 C 0.29907(14) 0.23622(19) 0.23522(13)
C19 C 0.28045(15) 0.1340(2) 0.19811(14)
H5 H 0.3249 0.0923 0.1893
C20 C 0.19764(16) 0.0938(2) 0.17425(14)
H6 H 0.1863 0.0258 0.1496
C21 C 0.13150(15) 0.1564(2) 0.18750(13)
H7 H 0.0754 0.1304 0.1709
C22 C 0.14817(14) 0.2571(2) 0.22511(12)
H8 H 0.1031 0.2976 0.2339
C23 C 0.0531(2) 0.7595(3) 0.04841(19)
C24 C 0.39150(14) 0.2693(2) 0.25421(14)
C25 C 0.50029(14) 0.3885(2) 0.32413(15)
H9 H 0.5084 0.4497 0.3599
H10 H 0.5148 0.4098 0.2769
H11 H 0.5366 0.3290 0.3492
O1 O 0.44300(12) 0.22383(18) 0.22755(14)
O2 O 0.41148(10) 0.35400(16) 0.30364(10)
S1 S -0.12811(3) 0.48813(4) 0.40379(3)
S2 S -0.00550(3) 0.31601(4) 0.48247(3)
S3 S 0.01650(3) 0.58007(4) 0.31916(3)
S4 S 0.13545(3) 0.40745(4) 0.39993(3)
S5 S -0.27973(3) 0.37514(4) 0.43548(3)
S6 S -0.13991(3) 0.17731(4) 0.52208(3)
S7 S 0.11384(3) 0.62782(5) 0.20094(3)
S8 S 0.25171(3) 0.43141(5) 0.29476(3)
S9 S -0.30811(3) 0.26981(4) 0.66023(3)
Cl1 Cl -0.41243(3) 0.43405(4) 0.55025(3)
Cl2 Cl -0.16534(3) 0.10739(4) 0.70020(3)
C26 C 0.0589(7) 0.9313(8) -0.0156(6)
H12 H 0.0239 0.9825 -0.0523
H13 H 0.1045 0.9057 -0.0359
H14 H 0.0828 0.9669 0.0345
O3 O 0.1135(9) 0.7986(8) 0.1007(7)
O4 O 0.0065(4) 0.8389(5) -0.0051(3)
C28 C 0.3200(2) 0.6765(3) 0.1415(2)
Cl3 Cl 0.30359(6) 0.64585(8) 0.04052(6)
Cl4 Cl 0.32300(12) 0.81844(12) 0.15834(11)
Cl5 Cl 0.42328(10) 0.62570(14) 0.20001(8)
H18 H 0.278(3) 0.631(4) 0.159(3)
C27? C 0.0989(6) 0.8763(9) -0.0400(6)
H15? H 0.0830 0.8975 -0.0948
H16? H 0.1554 0.8445 -0.0260
H17? H 0.0989 0.9397 -0.0076
O5? O 0.1268(9) 0.7610(9) 0.0872(8)
O6? O 0.0381(4) 0.7970(5) -0.0272(3)
Cl6? Cl 0.3426(7) 0.8096(9) 0.1550(7)
Cl7? Cl 0.3846(5) 0.5771(6) 0.1848(4)
loop_
_geom_bond_atom_site_label_1
_geom_bond_atom_site_label_2
_geom_bond_site_symmetry_1
_geom_bond_site_symmetry_2
C1 C2 1_555 1_555
C2 S3 1_555 1_555
C3 C4 1_555 1_555
C4 S2 1_555 1_555
C5 C6 1_555 1_555
C6 S4 1_555 1_555
C7 C8 1_555 1_555
C8 C10 1_555 1_555
C9 C7 1_555 1_555
C10 S9 1_555 1_555
C11 C12 1_555 1_555
C12 C13 1_555 1_555
C13 H1 1_555 1_555
C14 C13 1_555 1_555
H2 C14 1_555 1_555
C15 C14 1_555 1_555
H3 C15 1_555 1_555
C16 C11 1_555 1_555
H4 C16 1_555 1_555
C17 C18 1_555 1_555
C18 C19 1_555 1_555
C19 H5 1_555 1_555
C20 C19 1_555 1_555
H6 C20 1_555 1_555
C21 C20 1_555 1_555
H7 C21 1_555 1_555
C22 C17 1_555 1_555
H8 C22 1_555 1_555
C23 C12 1_555 1_555
C24 C18 1_555 1_555
C25 H9 1_555 1_555
H10 C25 1_555 1_555
H11 C25 1_555 1_555
O1 C24 1_555 1_555
O2 C24 1_555 1_555
S1 C1 1_555 1_555
S2 C1 1_555 1_555
S3 C5 1_555 1_555
S4 C2 1_555 1_555
S5 C3 1_555 1_555
S6 C4 1_555 1_555
S7 C5 1_555 1_555
S8 C6 1_555 1_555
S9 C9 1_555 1_555
Cl1 C9 1_555 1_555
Cl2 C10 1_555 1_555
C26 H12 1_555 1_555
H13 C26 1_555 1_555
H14 C26 1_555 1_555
O3 C23 1_555 1_555
O4 C23 1_555 1_555
C28 Cl3 1_555 1_555
Cl4 C28 1_555 1_555
Cl5 C28 1_555 1_555
H18 C28 1_555 1_555
C3 S1 1_555 1_555
C7 S5 1_555 1_555
C8 S6 1_555 1_555
C11 S7 1_555 1_555
C15 C16 1_555 1_555
C17 S8 1_555 1_555
C21 C22 1_555 1_555
C25 O2 1_555 1_555
C26 O4 1_555 1_555

#END
