
#######################################################################
#
#                 Cambridge Crystallographic Data Centre
#                                CCDC 
#
#######################################################################
#
# If this CIF has been generated from an entry in the Cambridge 
# Structural Database, then it will include bibliographic, chemical, 
# crystal, experimental, refinement or atomic coordinate data resulting 
# from the CCDC's data processing and validation procedures.
#
#######################################################################

data_KIGSEA
_chemical_name_common            TTF-42
_chemical_formula_moiety         '2(C22 H14 N2 S9),C1 H2 Cl2'
_chemical_name_systematic        
"2,2'-((2-(5,7-Dimethyl[1,3]dithiolo[4,5-b]thieno[3,4-e][1,4]dithiin-2-ylidene)-1,3-dithiole-4,5-diyl)disulfanediyl)dipyridine dichloromethane solvate"
_symmetry_cell_setting           monoclinic
_symmetry_space_group_name_H-M   'P 21/a'
_symmetry_Int_Tables_number      14
_space_group_name_Hall           '-P 2yab'
loop_
_symmetry_equiv_pos_site_id
_symmetry_equiv_pos_as_xyz
1 x,y,z
2 1/2-x,1/2+y,-z
3 -x,-y,-z
4 1/2+x,1/2-y,z
_cell_length_a                   38.3992(8)
_cell_length_b                   9.9370(2)
_cell_length_c                   43.0846(12)
_cell_angle_alpha                90
_cell_angle_beta                 106.876(3)
_cell_angle_gamma                90
_cell_volume                     15731.9
_exptl_crystal_colour            orange
_exptl_crystal_description       block
_chemical_melting_point          '481 K'
_cell_formula_units_Z            12
loop_
_atom_site_label
_atom_site_type_symbol
_atom_site_fract_x
_atom_site_fract_y
_atom_site_fract_z
C1 C 0.76312(18) -0.4749(7) 0.58721(16)
C2 C 0.80061(19) -0.6328(7) 0.56207(16)
C3 C 0.82415(19) -0.5345(7) 0.57698(16)
C4 C 0.74021(18) -0.4361(7) 0.60326(16)
C5 C 0.71323(18) -0.3169(7) 0.64496(17)
C6 C 0.69040(18) -0.4207(7) 0.63271(17)
C7 C 0.89128(18) -0.5450(7) 0.52420(16)
C8 C 0.86947(17) -0.5902(7) 0.54184(15)
C9 C 0.84397(18) -0.6933(7) 0.52541(16)
C10 C 0.84769(19) -0.7261(7) 0.49598(15)
C11 C 0.91965(19) -0.4383(7) 0.53302(16)
H1 H 0.9310 -0.4281 0.5155
H2 H 0.9382 -0.4637 0.5531
H3 H 0.9084 -0.3530 0.5363
C12 C 0.8264(2) -0.8250(8) 0.47170(17)
H4 H 0.8356 -0.8259 0.4527
H5 H 0.8007 -0.7990 0.4650
H6 H 0.8289 -0.9149 0.4814
C13 C 0.64562(19) -0.6165(7) 0.64775(16)
C14 C 0.61072(19) -0.6684(8) 0.64164(18)
H7 H 0.5899 -0.6142 0.6323
C15 C 0.6072(2) -0.8026(8) 0.64965(19)
H8 H 0.5839 -0.8411 0.6470
C16 C 0.6380(2) -0.8774(7) 0.66142(17)
H9 H 0.6365 -0.9696 0.6668
C17 C 0.6711(2) -0.8176(7) 0.66540(16)
H10 H 0.6923 -0.8718 0.6729
C18 C 0.74746(18) -0.1696(7) 0.69970(18)
C19 C 0.7716(2) -0.2724(8) 0.71053(19)
H11 H 0.7666 -0.3609 0.7021
C20 C 0.8036(2) -0.2428(10) 0.7343(2)
H12 H 0.8213 -0.3111 0.7423
C21 C 0.8097(2) -0.1140(11) 0.7462(2)
H13 H 0.8315 -0.0912 0.7625
C22 C 0.7832(2) -0.0190(11) 0.7338(3)
H14 H 0.7872 0.0693 0.7426
N1 N 0.67568(16) -0.6867(6) 0.65935(13)
N2 N 0.75225(17) -0.0415(7) 0.71051(17)
S1 S 0.75467(5) -0.61246(19) 0.55992(4)
S2 S 0.80477(5) -0.39253(18) 0.59066(4)
S3 S 0.74907(5) -0.29058(18) 0.62780(4)
S4 S 0.69900(4) -0.51663(17) 0.60164(4)
S5 S 0.81310(5) -0.77107(18) 0.54272(4)
S6 S 0.87049(5) -0.52919(19) 0.58046(4)
S7 S 0.70439(5) -0.19002(19) 0.66987(5)
S8 S 0.64849(5) -0.43980(19) 0.64117(5)
S9 S 0.88194(5) -0.63163(18) 0.48800(4)
C23 C 0.91530(17) -1.0730(7) 0.58851(15)
C24 C 0.97718(17) -1.0088(7) 0.58184(15)
C25 C 0.95475(17) -0.9144(6) 0.56623(15)
C26 C 0.89207(18) -1.1036(7) 0.60547(15)
C27 C 0.8440(2) -1.0744(8) 0.63617(19)
C28 C 0.8659(2) -1.1713(8) 0.65192(17)
C29 C 1.00962(17) -0.7914(7) 0.50804(16)
C30 C 1.00321(16) -0.8338(6) 0.53590(15)
C31 C 1.02783(16) -0.9335(7) 0.55340(15)
C32 C 1.05389(17) -0.9673(7) 0.53885(16)
C33 C 0.9897(2) -0.6916(8) 0.48333(17)
H15 H 1.0016 -0.6846 0.4661
H16 H 0.9900 -0.6035 0.4937
H17 H 0.9645 -0.7211 0.4740
C34 C 1.08450(19) -1.0665(8) 0.54924(19)
H18 H 1.0984 -1.0669 0.5334
H19 H 1.0746 -1.1566 0.5505
H20 H 1.1005 -1.0409 0.5706
C35 C 0.8911(2) -1.1565(9) 0.71777(18)
C36 C 0.9026(2) -1.0262(10) 0.7139(2)
H21 H 0.8949 -0.9805 0.6937
C37 C 0.9260(3) -0.9667(11) 0.7416(2)
H22 H 0.9348 -0.8780 0.7405
C38 C 0.9362(3) -1.0362(11) 0.7701(2)
H23 H 0.9523 -0.9963 0.7889
C39 C 0.9234(2) -1.1627(10) 0.7716(2)
H24 H 0.9306 -1.2093 0.7918
C40 C 0.8103(2) -0.8492(8) 0.65266(17)
C41 C 0.7790(2) -0.7823(9) 0.65478(18)
H25 H 0.7568 -0.8291 0.6520
C42 C 0.7817(2) -0.6467(9) 0.66108(17)
H26 H 0.7613 -0.5967 0.6631
C43 C 0.8146(2) -0.5857(8) 0.66444(18)
H27 H 0.8173 -0.4918 0.6687
C44 C 0.8438(2) -0.6605(8) 0.66170(18)
H28 H 0.8662 -0.6151 0.6638
N3 N 0.90067(19) -1.2246(8) 0.74568(16)
N4 N 0.84258(16) -0.7925(6) 0.65633(15)
S10 S 0.95776(4) -1.15358(17) 0.59415(4)
S11 S 0.90770(4) -0.94191(17) 0.55992(4)
S12 S 0.85113(5) -1.01500(19) 0.60038(4)
S13 S 0.89992(5) -1.22878(19) 0.63536(4)
S14 S 1.02490(4) -1.00646(19) 0.58972(4)
S15 S 0.96739(4) -0.76812(16) 0.54977(4)
S16 S 0.80453(6) -1.0255(2) 0.64602(7)
S17 S 0.86215(6) -1.2552(3) 0.68651(5)
S18 S 1.04794(4) -0.87322(18) 0.50375(4)
C45 C 1.08912(17) -0.4581(7) 0.59005(15)
C46 C 1.12886(17) -0.6165(7) 0.56794(15)
C47 C 1.15200(16) -0.5243(7) 0.58534(14)
C48 C 1.06443(17) -0.4233(7) 0.60494(15)
C49 C 1.03356(18) -0.3586(7) 0.64840(17)
C50 C 1.01014(18) -0.4443(7) 0.62852(16)
C51 C 1.22341(16) -0.5298(7) 0.53691(16)
C52 C 1.19995(15) -0.5796(6) 0.55259(15)
C53 C 1.17523(16) -0.6791(6) 0.53429(16)
C54 C 1.18086(17) -0.7068(7) 0.50492(17)
C55 C 1.25166(19) -0.4227(7) 0.54718(18)
H29 H 1.2640 -0.4108 0.5304
H30 H 1.2695 -0.4490 0.5676
H31 H 1.2401 -0.3379 0.5503
C56 C 1.1608(2) -0.8046(8) 0.47952(17)
H32 H 1.1709 -0.8022 0.4611
H33 H 1.1350 -0.7801 0.4721
H34 H 1.1633 -0.8956 0.4887
C57 C 0.97660(19) -0.6675(7) 0.64354(15)
C58 C 0.9463(2) -0.7504(9) 0.64108(18)
H35 H 0.9222 -0.7194 0.6314
C59 C 0.9531(3) -0.8784(9) 0.65338(19)
H36 H 0.9334 -0.9369 0.6532
C60 C 0.9878(3) -0.9209(9) 0.6658(2)
H37 H 0.9928 -1.0089 0.6745
C61 C 1.0157(3) -0.8349(9) 0.6655(2)
H38 H 1.0400 -0.8678 0.6730
C62 C 1.06033(19) -0.3698(9) 0.71549(17)
C63 C 1.0734(2) -0.4951(9) 0.71200(18)
H39 H 1.0656 -0.5428 0.6921
C64 C 1.0990(2) -0.5499(10) 0.7394(2)
H40 H 1.1092 -0.6360 0.7382
C65 C 1.1089(2) -0.4790(11) 0.7675(2)
H41 H 1.1266 -0.5140 0.7860
C66 C 1.0931(2) -0.3556(10) 0.76866(19)
H42 H 1.0996 -0.3082 0.7887
N5 N 1.01061(18) -0.7068(7) 0.65534(15)
N6 N 1.06888(18) -0.2986(8) 0.74307(17)
S19 S 1.08177(4) -0.58600(18) 0.56059(4)
S20 S 1.02120(4) -0.49816(18) 0.59385(4)
S21 S 1.07188(5) -0.30676(17) 0.63703(4)
S22 S 1.13288(4) -0.38286(17) 0.59847(4)
S23 S 1.14163(4) -0.75523(17) 0.54864(4)
S24 S 1.19917(4) -0.52746(18) 0.59156(4)
S25 S 0.96808(4) -0.4950(2) 0.63230(4)
S26 S 1.02696(5) -0.2835(2) 0.68348(5)
S27 S 1.21652(4) -0.61246(18) 0.50023(4)
C67 C 0.9127(2) -0.9372(8) 0.91026(18)
C68 C 0.8753(2) -1.0973(8) 0.93445(17)
C69 C 0.8519(2) -0.9983(8) 0.92034(17)
C70 C 0.9348(2) -0.9018(8) 0.89268(18)
C71 C 0.9577(2) -0.8042(7) 0.84620(18)
C72 C 0.9802(2) -0.9086(7) 0.85868(18)
C73 C 0.7799(2) -1.0410(7) 0.96858(19)
C74 C 0.8043(2) -1.0739(7) 0.95263(18)
C75 C 0.8299(2) -1.1767(7) 0.96830(18)
C76 C 0.8242(2) -1.2173(8) 0.99722(19)
C77 C 0.7500(2) -0.9385(8) 0.9600(2)
H43 H 0.7370 -0.9391 0.9765
H44 H 0.7331 -0.9601 0.9388
H45 H 0.7605 -0.8491 0.9592
C78 C 0.8454(2) -1.3206(9) 1.0207(2)
H46 H 0.8353 -1.3286 1.0391
H47 H 0.8710 -1.2926 1.0286
H48 H 0.8439 -1.4078 1.0098
C79 C 1.02107(18) -1.1178(7) 0.84451(17)
C80 C 1.0552(2) -1.1708(9) 0.84554(19)
H49 H 1.0756 -1.1132 0.8482
C81 C 1.0587(2) -1.3082(10) 0.84261(19)
H50 H 1.0814 -1.3470 0.8427
C82 C 1.0284(2) -1.3875(8) 0.83951(17)
H51 H 1.0298 -1.4824 0.8375
C83 C 0.9958(2) -1.3272(7) 0.83943(19)
H52 H 0.9753 -1.3832 0.8377
C84 C 0.9169(2) -0.6767(9) 0.79193(17)
C85 C 0.89466(19) -0.7810(8) 0.78942(18)
H53 H 0.9018 -0.8604 0.8019
C86 C 0.8616(3) -0.7681(14) 0.7683(2)
H54 H 0.8450 -0.8406 0.7667
C87 C 0.8496(2) -0.6580(17) 0.7486(2)
H55 H 0.8258 -0.6544 0.7337
C88 C 0.8719(3) -0.5619(16) 0.7514(3)
H56 H 0.8650 -0.4867 0.7374
N7 N 0.99173(16) -1.1923(6) 0.84164(15)
N8 N 0.9074(3) -0.5609(11) 0.7749(3)
S28 S 0.87103(6) -0.8546(2) 0.90758(5)
S29 S 0.92143(6) -1.0737(2) 0.93766(5)
S30 S 0.97494(6) -0.9876(2) 0.89347(4)
S31 S 0.92603(7) -0.7605(2) 0.86720(5)
S32 S 0.80512(6) -0.9984(2) 0.91548(5)
S33 S 0.86341(6) -1.2420(2) 0.95228(5)
S34 S 1.01848(6) -0.9403(2) 0.84610(5)
S35 S 0.96268(6) -0.6934(2) 0.81681(5)
S36 S 0.78754(5) -1.1361(2) 1.00364(5)
C89 C 1.07095(17) -0.5189(7) 0.91193(14)
C90 C 1.00905(17) -0.4550(7) 0.91938(15)
C91 C 1.03192(17) -0.3597(7) 0.93463(15)
C92 C 1.09544(17) -0.5621(6) 0.89750(15)
C93 C 1.14673(19) -0.5769(7) 0.86999(17)
C94 C 1.12355(18) -0.6769(7) 0.85687(17)
C95 C 0.98569(18) -0.2792(7) 1.00177(18)
C96 C 0.98846(17) -0.3051(7) 0.97163(16)
C97 C 0.96419(17) -0.4078(7) 0.95488(16)
C98 C 0.94306(17) -0.4602(7) 0.97247(17)
C99 C 1.0061(2) -0.1796(8) 1.02610(18)
H57 H 0.9980 -0.1850 1.0456
H58 H 1.0017 -0.0888 1.0169
H59 H 1.0322 -0.1995 1.0318
C100 C 0.91543(18) -0.5706(8) 0.9639(2)
H60 H 0.9049 -0.5842 0.9818
H61 H 0.9272 -0.6539 0.9600
H62 H 0.8962 -0.5459 0.9442
C101 C 1.0882(2) -0.8287(8) 0.80280(16)
C102 C 1.0620(2) -0.7266(9) 0.79220(17)
H63 H 1.0664 -0.6375 0.8004
C103 C 1.0295(2) -0.7611(11) 0.76922(18)
H64 H 1.0108 -0.6961 0.7617
C104 C 1.0250(3) -0.8879(13) 0.7578(2)
H65 H 1.0031 -0.9122 0.7418
C105 C 1.0520(2) -0.9831(11) 0.7691(2)
H66 H 1.0482 -1.0719 0.7605
C106 C 1.18896(18) -0.3766(7) 0.85505(16)
C107 C 1.22383(18) -0.3192(8) 0.86120(16)
H67 H 1.2452 -0.3698 0.8710
C108 C 1.2257(2) -0.1870(9) 0.85247(18)
H68 H 1.2487 -0.1454 0.8552
C109 C 1.1945(2) -0.1161(7) 0.83992(18)
H69 H 1.1955 -0.0241 0.8343
C110 C 1.1612(2) -0.1791(7) 0.83544(18)
H70 H 1.1396 -0.1278 0.8271
N9 N 1.08384(18) -0.9540(7) 0.79193(16)
N10 N 1.15806(14) -0.3106(6) 0.84245(13)
S37 S 1.07840(4) -0.38085(18) 0.93849(4)
S38 S 1.02804(4) -0.59745(17) 0.90570(4)
S39 S 1.08712(5) -0.70643(17) 0.87320(4)
S40 S 1.13780(4) -0.48555(17) 0.90207(4)
S41 S 1.01869(4) -0.22243(17) 0.95413(4)
S42 S 0.96216(4) -0.46049(19) 0.91553(4)
S43 S 1.13188(5) -0.8015(2) 0.83103(5)
S44 S 1.18823(5) -0.55318(19) 0.86230(5)
S45 S 0.95207(5) -0.38033(19) 1.00917(4)
C111 C 1.24777(18) -0.9432(7) 0.91204(17)
C112 C 1.20895(17) -1.1003(7) 0.93445(15)
C113 C 1.18573(18) -1.0094(7) 0.91640(15)
C114 C 1.27237(18) -0.9150(7) 0.89592(16)
C115 C 1.3017(2) -0.8639(8) 0.85036(18)
C116 C 1.32396(19) -0.9511(8) 0.86961(18)
C117 C 1.10991(18) -1.0326(6) 0.96010(16)
C118 C 1.13549(17) -1.0743(7) 0.94588(15)
C119 C 1.15983(17) -1.1735(7) 0.96467(16)
C120 C 1.15329(17) -1.2053(7) 0.99307(16)
C121 C 1.0805(2) -0.9304(7) 0.9484(2)
H71 H 1.0664 -0.9230 0.9640
H72 H 1.0643 -0.9582 0.9273
H73 H 1.0913 -0.8429 0.9462
C122 C 1.1732(2) -1.3016(8) 1.01883(18)
H74 H 1.1618 -1.3024 1.0365
H75 H 1.1987 -1.2734 1.0273
H76 H 1.1721 -1.3921 1.0096
C123 C 1.3562(2) -1.1781(9) 0.85353(19)
C124 C 1.3858(2) -1.2537(10) 0.8507(2)
H77 H 1.4094 -1.2153 0.8558
C125 C 1.3800(3) -1.3845(10) 0.8404(2)
H78 H 1.3996 -1.4379 0.8379
C126 C 1.3454(3) -1.4375(9) 0.8335(2)
H79 H 1.3407 -1.5283 0.8267
C127 C 1.3174(3) -1.3539(9) 0.8369(2)
H80 H 1.2936 -1.3906 0.8324
C128 C 1.27342(19) -0.8717(8) 0.78413(18)
C129 C 1.2592(2) -0.9991(8) 0.78791(17)
H81 H 1.2672 -1.0471 0.8078
C130 C 1.2332(2) -1.0512(9) 0.76175(19)
H82 H 1.2220 -1.1349 0.7635
C131 C 1.2233(2) -0.9814(9) 0.73280(18)
H83 H 1.2054 -1.0164 0.7145
C132 C 1.2401(2) -0.8598(9) 0.73096(19)
H84 H 1.2338 -0.8134 0.7108
N11 N 1.32248(18) -1.2236(7) 0.84627(16)
N12 N 1.26502(17) -0.8039(6) 0.75648(15)
S46 S 1.25574(4) -1.06849(19) 0.94223(4)
S47 S 1.20490(4) -0.86656(18) 0.90401(4)
S48 S 1.26466(5) -0.80189(19) 0.86334(4)
S49 S 1.31460(5) -0.9971(2) 0.90550(5)
S50 S 1.19592(4) -1.24336(17) 0.95197(4)
S51 S 1.13819(4) -1.01751(19) 0.90805(4)
S52 S 1.30753(6) -0.7917(2) 0.81539(5)
S53 S 1.36519(5) -1.0068(2) 0.86446(6)
S54 S 1.11546(5) -1.11726(18) 0.99627(4)
C133 C 0.6337(3) -0.4300(10) 0.7441(2)
H85 H 0.6148 -0.4002 0.7541
H86 H 0.6553 -0.4585 0.7617
Cl1 Cl 0.64550(7) -0.2955(3) 0.72263(6)
Cl2 Cl 0.61705(9) -0.5682(3) 0.71794(8)
C134 C 0.9561(3) -0.4298(12) 0.7195(2)
H87 H 0.9642 -0.3882 0.7019
H88 H 0.9330 -0.3860 0.7197
Cl3 Cl 0.98856(7) -0.4017(4) 0.75625(7)
Cl4 Cl 0.94810(7) -0.6036(3) 0.71118(6)
C135 C 1.1994(3) -0.5663(10) 0.7573(3)
H89 H 1.1774 -0.5367 0.7403
H90 H 1.2176 -0.5951 0.7464
Cl5 Cl 1.21713(9) -0.4295(3) 0.78312(7)
Cl6 Cl 1.18853(7) -0.7016(3) 0.77778(7)
loop_
_geom_bond_atom_site_label_1
_geom_bond_atom_site_label_2
_geom_bond_site_symmetry_1
_geom_bond_site_symmetry_2
C1 C4 1_555 1_555
C2 C3 1_555 1_555
C3 S2 1_555 1_555
C4 S3 1_555 1_555
C5 C6 1_555 1_555
C6 S4 1_555 1_555
C7 C8 1_555 1_555
C8 C9 1_555 1_555
C9 C10 1_555 1_555
C10 C12 1_555 1_555
C11 C7 1_555 1_555
H1 C11 1_555 1_555
H2 C11 1_555 1_555
H3 C11 1_555 1_555
C12 H4 1_555 1_555
H5 C12 1_555 1_555
H6 C12 1_555 1_555
C13 C14 1_555 1_555
C14 H7 1_555 1_555
C15 C14 1_555 1_555
H8 C15 1_555 1_555
C16 C15 1_555 1_555
H9 C16 1_555 1_555
C17 C16 1_555 1_555
H10 C17 1_555 1_555
C18 C19 1_555 1_555
C19 H11 1_555 1_555
C20 C19 1_555 1_555
H12 C20 1_555 1_555
C21 C20 1_555 1_555
H13 C21 1_555 1_555
C22 C21 1_555 1_555
H14 C22 1_555 1_555
N1 C13 1_555 1_555
N2 C18 1_555 1_555
S1 C1 1_555 1_555
S2 C1 1_555 1_555
S3 C5 1_555 1_555
S4 C4 1_555 1_555
S5 C2 1_555 1_555
S6 C3 1_555 1_555
S7 C5 1_555 1_555
S8 C6 1_555 1_555
S9 C7 1_555 1_555
C23 C26 1_555 1_555
C24 C25 1_555 1_555
C25 S11 1_555 1_555
C26 S12 1_555 1_555
C27 C28 1_555 1_555
C28 S13 1_555 1_555
C29 C30 1_555 1_555
C30 C31 1_555 1_555
C31 C32 1_555 1_555
C32 C34 1_555 1_555
C33 C29 1_555 1_555
H15 C33 1_555 1_555
H16 C33 1_555 1_555
H17 C33 1_555 1_555
C34 H18 1_555 1_555
H19 C34 1_555 1_555
H20 C34 1_555 1_555
C35 C36 1_555 1_555
C36 H21 1_555 1_555
C37 C36 1_555 1_555
H22 C37 1_555 1_555
C38 C37 1_555 1_555
H23 C38 1_555 1_555
C39 C38 1_555 1_555
H24 C39 1_555 1_555
C40 C41 1_555 1_555
C41 H25 1_555 1_555
C42 C41 1_555 1_555
H26 C42 1_555 1_555
C43 C42 1_555 1_555
H27 C43 1_555 1_555
C44 C43 1_555 1_555
H28 C44 1_555 1_555
N3 C35 1_555 1_555
N4 C40 1_555 1_555
S10 C23 1_555 1_555
S11 C23 1_555 1_555
S12 C27 1_555 1_555
S13 C26 1_555 1_555
S14 C24 1_555 1_555
S15 C25 1_555 1_555
S16 C27 1_555 1_555
S17 C28 1_555 1_555
S18 C29 1_555 1_555
C45 C48 1_555 1_555
C46 C47 1_555 1_555
C47 S22 1_555 1_555
C48 S20 1_555 1_555
C49 C50 1_555 1_555
C50 S20 1_555 1_555
C51 C52 1_555 1_555
C52 C53 1_555 1_555
C53 C54 1_555 1_555
C54 C56 1_555 1_555
C55 C51 1_555 1_555
H29 C55 1_555 1_555
H30 C55 1_555 1_555
H31 C55 1_555 1_555
C56 H32 1_555 1_555
H33 C56 1_555 1_555
H34 C56 1_555 1_555
C57 C58 1_555 1_555
C58 H35 1_555 1_555
C59 C58 1_555 1_555
H36 C59 1_555 1_555
C60 C59 1_555 1_555
H37 C60 1_555 1_555
C61 C60 1_555 1_555
H38 C61 1_555 1_555
C62 C63 1_555 1_555
C63 H39 1_555 1_555
C64 C63 1_555 1_555
H40 C64 1_555 1_555
C65 C64 1_555 1_555
H41 C65 1_555 1_555
C66 C65 1_555 1_555
H42 C66 1_555 1_555
N5 C57 1_555 1_555
N6 C62 1_555 1_555
S19 C45 1_555 1_555
S21 C48 1_555 1_555
S22 C45 1_555 1_555
S23 C46 1_555 1_555
S24 C47 1_555 1_555
S25 C50 1_555 1_555
S26 C49 1_555 1_555
S27 C51 1_555 1_555
C67 C70 1_555 1_555
C68 C69 1_555 1_555
C69 S28 1_555 1_555
C70 S30 1_555 1_555
C71 C72 1_555 1_555
C72 S30 1_555 1_555
C73 C74 1_555 1_555
C74 C75 1_555 1_555
C75 C76 1_555 1_555
C76 C78 1_555 1_555
C77 C73 1_555 1_555
H43 C77 1_555 1_555
H44 C77 1_555 1_555
H45 C77 1_555 1_555
C78 H46 1_555 1_555
H47 C78 1_555 1_555
H48 C78 1_555 1_555
C79 C80 1_555 1_555
C80 H49 1_555 1_555
C81 C80 1_555 1_555
H50 C81 1_555 1_555
C82 C81 1_555 1_555
H51 C82 1_555 1_555
C83 C82 1_555 1_555
H52 C83 1_555 1_555
C84 C85 1_555 1_555
C85 H53 1_555 1_555
C86 C85 1_555 1_555
H54 C86 1_555 1_555
C87 C86 1_555 1_555
H55 C87 1_555 1_555
C88 C87 1_555 1_555
H56 C88 1_555 1_555
N7 C79 1_555 1_555
N8 C84 1_555 1_555
S28 C67 1_555 1_555
S29 C67 1_555 1_555
S31 C70 1_555 1_555
S32 C69 1_555 1_555
S33 C68 1_555 1_555
S34 C72 1_555 1_555
S35 C71 1_555 1_555
S36 C73 1_555 1_555
C89 C92 1_555 1_555
C90 C91 1_555 1_555
C91 S37 1_555 1_555
C92 S39 1_555 1_555
C93 C94 1_555 1_555
C94 S39 1_555 1_555
C95 C96 1_555 1_555
C96 C97 1_555 1_555
C97 C98 1_555 1_555
C98 C100 1_555 1_555
C99 C95 1_555 1_555
H57 C99 1_555 1_555
H58 C99 1_555 1_555
H59 C99 1_555 1_555
C100 H60 1_555 1_555
H61 C100 1_555 1_555
H62 C100 1_555 1_555
C101 C102 1_555 1_555
C102 H63 1_555 1_555
C103 C102 1_555 1_555
H64 C103 1_555 1_555
C104 C103 1_555 1_555
H65 C104 1_555 1_555
C105 C104 1_555 1_555
H66 C105 1_555 1_555
C106 C107 1_555 1_555
C107 H67 1_555 1_555
C108 C107 1_555 1_555
H68 C108 1_555 1_555
C109 C108 1_555 1_555
H69 C109 1_555 1_555
C110 C109 1_555 1_555
H70 C110 1_555 1_555
N9 C101 1_555 1_555
N10 C106 1_555 1_555
S37 C89 1_555 1_555
S38 C89 1_555 1_555
S40 C92 1_555 1_555
S41 C91 1_555 1_555
S42 C90 1_555 1_555
S43 C94 1_555 1_555
S44 C93 1_555 1_555
S45 C95 1_555 1_555
C111 C114 1_555 1_555
C112 C113 1_555 1_555
C113 S47 1_555 1_555
C114 S48 1_555 1_555
C115 C116 1_555 1_555
C116 S49 1_555 1_555
C117 C118 1_555 1_555
C118 C119 1_555 1_555
C119 C120 1_555 1_555
C120 C122 1_555 1_555
C121 C117 1_555 1_555
H71 C121 1_555 1_555
H72 C121 1_555 1_555
H73 C121 1_555 1_555
C122 H74 1_555 1_555
H75 C122 1_555 1_555
H76 C122 1_555 1_555
C123 C124 1_555 1_555
C124 H77 1_555 1_555
C125 C124 1_555 1_555
H78 C125 1_555 1_555
C126 C125 1_555 1_555
H79 C126 1_555 1_555
C127 C126 1_555 1_555
H80 C127 1_555 1_555
C128 C129 1_555 1_555
C129 H81 1_555 1_555
C130 C129 1_555 1_555
H82 C130 1_555 1_555
C131 C130 1_555 1_555
H83 C131 1_555 1_555
C132 C131 1_555 1_555
H84 C132 1_555 1_555
N11 C123 1_555 1_555
N12 C128 1_555 1_555
S46 C111 1_555 1_555
S47 C111 1_555 1_555
S48 C115 1_555 1_555
S49 C114 1_555 1_555
S50 C112 1_555 1_555
S51 C113 1_555 1_555
S52 C115 1_555 1_555
S53 C116 1_555 1_555
S54 C117 1_555 1_555
C133 H85 1_555 1_555
H86 C133 1_555 1_555
Cl1 C133 1_555 1_555
Cl2 C133 1_555 1_555
C134 H87 1_555 1_555
H88 C134 1_555 1_555
Cl3 C134 1_555 1_555
Cl4 C134 1_555 1_555
C135 H89 1_555 1_555
H90 C135 1_555 1_555
Cl5 C135 1_555 1_555
Cl6 C135 1_555 1_555
C2 S1 1_555 1_555
C8 S6 1_555 1_555
C9 S5 1_555 1_555
C10 S9 1_555 1_555
C13 S8 1_555 1_555
C17 N1 1_555 1_555
C18 S7 1_555 1_555
C22 N2 1_555 1_555
C24 S10 1_555 1_555
C30 S15 1_555 1_555
C31 S14 1_555 1_555
C32 S18 1_555 1_555
C35 S17 1_555 1_555
C39 N3 1_555 1_555
C40 S16 1_555 1_555
C44 N4 1_555 1_555
C46 S19 1_555 1_555
C49 S21 1_555 1_555
C52 S24 1_555 1_555
C53 S23 1_555 1_555
C54 S27 1_555 1_555
C57 S25 1_555 1_555
C61 N5 1_555 1_555
C62 S26 1_555 1_555
C66 N6 1_555 1_555
C68 S29 1_555 1_555
C71 S31 1_555 1_555
C74 S32 1_555 1_555
C75 S33 1_555 1_555
C76 S36 1_555 1_555
C79 S34 1_555 1_555
C83 N7 1_555 1_555
C84 S35 1_555 1_555
C88 N8 1_555 1_555
C90 S38 1_555 1_555
C93 S40 1_555 1_555
C96 S41 1_555 1_555
C97 S42 1_555 1_555
C98 S45 1_555 1_555
C101 S43 1_555 1_555
C105 N9 1_555 1_555
C106 S44 1_555 1_555
C110 N10 1_555 1_555
C112 S46 1_555 1_555
C118 S51 1_555 1_555
C119 S50 1_555 1_555
C120 S54 1_555 1_555
C123 S53 1_555 1_555
C127 N11 1_555 1_555
C128 S52 1_555 1_555
C132 N12 1_555 1_555

#END
