
#######################################################################
#
#                 Cambridge Crystallographic Data Centre
#                                CCDC 
#
#######################################################################
#
# If this CIF has been generated from an entry in the Cambridge 
# Structural Database, then it will include bibliographic, chemical, 
# crystal, experimental, refinement or atomic coordinate data resulting 
# from the CCDC's data processing and validation procedures.
#
#######################################################################

data_KIGSOK
_chemical_name_common            TTF-39
_chemical_formula_moiety         'C28 H18 N2 S8'
_chemical_name_systematic        
2,2'-((2-(4,5-bis(phenylsulfanyl)-1,3-dithiol-2-ylidene)-1,3-dithiole-4,5-diyl)disulfanediyl)dipyridine
_symmetry_cell_setting           monoclinic
_symmetry_space_group_name_H-M   'P 21/c'
_symmetry_Int_Tables_number      14
_space_group_name_Hall           '-P 2ybc'
loop_
_symmetry_equiv_pos_site_id
_symmetry_equiv_pos_as_xyz
1 x,y,z
2 -x,1/2+y,1/2-z
3 -x,-y,-z
4 x,1/2-y,1/2+z
_cell_length_a                   8.986(8)
_cell_length_b                   30.23(3)
_cell_length_c                   10.634(9)
_cell_angle_alpha                90
_cell_angle_beta                 100.203(8)
_cell_angle_gamma                90
_cell_volume                     2843.01
_exptl_crystal_colour            red
_exptl_crystal_description       prism
_chemical_melting_point          '374 K'
_cell_formula_units_Z            4
loop_
_atom_site_label
_atom_site_type_symbol
_atom_site_fract_x
_atom_site_fract_y
_atom_site_fract_z
C1 C 0.3240(4) -0.04962(11) 0.4572(3)
C2 C 0.2677(4) -0.01084(11) 0.4865(3)
C3 C 0.4513(4) -0.12649(11) 0.4755(3)
C4 C 0.3690(4) -0.12552(11) 0.3573(3)
C5 C 0.2109(4) 0.06063(11) 0.6017(3)
C6 C 0.1211(4) 0.06247(11) 0.4879(3)
C7 C 0.5107(4) -0.18509(11) 0.6795(3)
C8 C 0.3729(5) -0.17520(13) 0.7098(4)
H1 H 0.3019 -0.1589 0.6542
C9 C 0.3423(5) -0.18999(14) 0.8248(4)
H2 H 0.2504 -0.1834 0.8493
C10 C 0.4474(6) -0.21425(15) 0.9019(4)
H3 H 0.4293 -0.2246 0.9801
C11 C 0.5801(6) -0.22320(16) 0.8626(5)
H4 H 0.6511 -0.2402 0.9158
C12 C 0.2015(4) -0.19328(11) 0.2229(3)
C13 C 0.0915(5) -0.18576(13) 0.2942(4)
H5 H 0.1052 -0.1648 0.3593
C14 C -0.0397(5) -0.20987(17) 0.2672(5)
H6 H -0.1176 -0.2050 0.3125
C15 C -0.0544(6) -0.24094(17) 0.1733(6)
H7 H -0.1412 -0.2582 0.1546
C16 C 0.0611(7) -0.24616(17) 0.1074(5)
H8 H 0.0498 -0.2673 0.0429
C17 C 0.2724(4) 0.07700(12) 0.8614(3)
C18 C 0.1849(4) 0.04345(13) 0.8945(4)
H9 H 0.1029 0.0332 0.8359
C19 C 0.2179(5) 0.02492(14) 1.0142(4)
H10 H 0.1581 0.0021 1.0362
C20 C 0.3374(5) 0.03974(17) 1.1008(4)
H11 H 0.3608 0.0267 1.1811
C21 C 0.4226(5) 0.0739(2) 1.0687(4)
H12 H 0.5025 0.0847 1.1285
C22 C 0.3916(5) 0.09250(16) 0.9485(3)
H13 H 0.4512 0.1154 0.9267
C23 C -0.0212(4) 0.10814(12) 0.2750(3)
C24 C -0.1343(4) 0.08703(13) 0.1936(4)
H14 H -0.2029 0.0693 0.2263
C25 C -0.1468(5) 0.09205(15) 0.0632(4)
H15 H -0.2239 0.0778 0.0081
C26 C -0.0461(6) 0.11784(16) 0.0155(4)
H16 H -0.0541 0.1211 -0.0724
C27 C 0.0657(5) 0.13881(15) 0.0954(4)
H17 H 0.1341 0.1564 0.0620
C28 C 0.0792(4) 0.13424(13) 0.2264(4)
H18 H 0.1560 0.1488 0.2809
N1 N 0.6152(4) -0.20904(11) 0.7519(4)
N2 N 0.1901(4) -0.22290(11) 0.1293(3)
S1 S 0.45963(11) -0.07817(3) 0.56657(8)
S2 S 0.27472(11) -0.07584(3) 0.30819(8)
S3 S 0.32613(11) 0.01381(3) 0.63608(8)
S4 S 0.13190(11) 0.01902(3) 0.38068(8)
S5 S 0.57114(11) -0.17005(3) 0.53448(9)
S6 S 0.37877(11) -0.16632(3) 0.24249(9)
S7 S 0.23273(13) 0.10426(3) 0.71111(9)
S8 S -0.01319(12) 0.10425(4) 0.44286(9)
loop_
_geom_bond_atom_site_label_1
_geom_bond_atom_site_label_2
_geom_bond_site_symmetry_1
_geom_bond_site_symmetry_2
C1 C2 1_555 1_555
C2 S3 1_555 1_555
C3 C4 1_555 1_555
C4 S2 1_555 1_555
C5 C6 1_555 1_555
C6 S4 1_555 1_555
C7 C8 1_555 1_555
C8 H1 1_555 1_555
C9 C8 1_555 1_555
H2 C9 1_555 1_555
C10 C9 1_555 1_555
H3 C10 1_555 1_555
C11 C10 1_555 1_555
H4 C11 1_555 1_555
C12 C13 1_555 1_555
C13 H5 1_555 1_555
C14 C13 1_555 1_555
H6 C14 1_555 1_555
C15 C14 1_555 1_555
H7 C15 1_555 1_555
C16 C15 1_555 1_555
H8 C16 1_555 1_555
C17 C18 1_555 1_555
C18 H9 1_555 1_555
C19 C18 1_555 1_555
H10 C19 1_555 1_555
C20 C19 1_555 1_555
H11 C20 1_555 1_555
C21 C20 1_555 1_555
H12 C21 1_555 1_555
C22 C17 1_555 1_555
H13 C22 1_555 1_555
C23 C24 1_555 1_555
C24 H14 1_555 1_555
C25 C24 1_555 1_555
H15 C25 1_555 1_555
C26 C25 1_555 1_555
H16 C26 1_555 1_555
C27 C26 1_555 1_555
H17 C27 1_555 1_555
C28 C23 1_555 1_555
H18 C28 1_555 1_555
N1 C7 1_555 1_555
N2 C12 1_555 1_555
S1 C1 1_555 1_555
S2 C1 1_555 1_555
S3 C5 1_555 1_555
S4 C2 1_555 1_555
S5 C3 1_555 1_555
S6 C4 1_555 1_555
S7 C5 1_555 1_555
S8 C6 1_555 1_555
C3 S1 1_555 1_555
C7 S5 1_555 1_555
C11 N1 1_555 1_555
C12 S6 1_555 1_555
C16 N2 1_555 1_555
C17 S7 1_555 1_555
C21 C22 1_555 1_555
C23 S8 1_555 1_555
C27 C28 1_555 1_555

#END
