
#######################################################################
#
#                 Cambridge Crystallographic Data Centre
#                                CCDC 
#
#######################################################################
#
# If this CIF has been generated from an entry in the Cambridge 
# Structural Database, then it will include bibliographic, chemical, 
# crystal, experimental, refinement or atomic coordinate data resulting 
# from the CCDC's data processing and validation procedures.
#
#######################################################################

data_KIGSUQ
_chemical_name_common            TTF-38
_chemical_formula_moiety         'C30 H20 O4 S10'
_chemical_name_systematic        
"Dimethyl 2,2'-((2-(4,5-bis(2-thienylsulfanyl)-1,3-dithiol-2-ylidene)-1,3-dithiole-4,5-diyl)disulfanediyl)dibenzoate"
_symmetry_cell_setting           triclinic
_symmetry_space_group_name_H-M   'P -1'
_symmetry_Int_Tables_number      2
_space_group_name_Hall           '-P 1'
loop_
_symmetry_equiv_pos_site_id
_symmetry_equiv_pos_as_xyz
1 x,y,z
2 -x,-y,-z
_cell_length_a                   10.5500(8)
_cell_length_b                   10.7810(7)
_cell_length_c                   15.6850(12)
_cell_angle_alpha                85.303(6)
_cell_angle_beta                 77.309(7)
_cell_angle_gamma                74.288(7)
_cell_volume                     1674.91
_exptl_crystal_colour            red
_exptl_crystal_description       prism
_chemical_melting_point          '439 K'
_cell_formula_units_Z            2
loop_
_atom_site_label
_atom_site_type_symbol
_atom_site_fract_x
_atom_site_fract_y
_atom_site_fract_z
C1 C 0.3117(3) 0.5858(3) 0.06450(18)
C2 C 0.3415(3) 0.5267(2) 0.13916(18)
C3 C 0.2309(3) 0.7554(3) -0.0521(2)
C4 C 0.2541(3) 0.6415(3) -0.0888(2)
C5 C 0.3385(3) 0.4761(2) 0.30383(17)
C6 C 0.3676(3) 0.3604(2) 0.26709(17)
C7 C 0.1842(3) 0.4892(3) -0.1913(2)
C8 C 0.2549(4) 0.3663(4) -0.2131(2)
H1 H 0.3498 0.3403 -0.2330
C9 C 0.1707(5) 0.2828(4) -0.2026(3)
H2 H 0.2029 0.1934 -0.2143
C10 C 0.0412(5) 0.3415(4) -0.1744(3)
H3 H -0.0287 0.2988 -0.1644
C11 C 0.1493(3) 0.6008(3) 0.43672(17)
C12 C 0.0560(3) 0.5733(3) 0.39634(19)
H4 H 0.0831 0.5031 0.3577
C13 C -0.0764(3) 0.6469(4) 0.4115(2)
H5 H -0.1399 0.6256 0.3847
C14 C -0.1158(3) 0.7510(4) 0.4656(2)
H6 H -0.2060 0.8026 0.4751
C15 C -0.0234(3) 0.7803(3) 0.5063(2)
H7 H -0.0505 0.8528 0.5428
C16 C 0.1088(3) 0.7041(3) 0.49382(17)
C17 C 0.2021(3) 0.7287(3) 0.54545(18)
C18 C 0.2566(4) 0.8885(4) 0.6154(3)
H8 H 0.2294 0.9820 0.6228
H9 H 0.3519 0.8618 0.5869
H10 H 0.2430 0.8450 0.6728
C19 C 0.2930(3) 0.1313(2) 0.30518(17)
C20 C 0.1843(3) 0.1942(3) 0.26754(19)
H11 H 0.1708 0.2832 0.2522
C21 C 0.0957(3) 0.1288(3) 0.2522(2)
H12 H 0.0224 0.1731 0.2260
C22 C 0.1130(3) -0.0009(3) 0.2747(2)
H13 H 0.0527 -0.0459 0.2634
C23 C 0.2189(3) -0.0640(3) 0.3138(2)
H14 H 0.2297 -0.1523 0.3305
C24 C 0.3101(3) -0.0005(2) 0.32906(17)
C25 C 0.4233(3) -0.0702(3) 0.37114(19)
C26 C 0.5393(3) -0.2697(3) 0.4249(2)
H15 H 0.5378 -0.3605 0.4294
H16 H 0.5250 -0.2366 0.4836
H17 H 0.6267 -0.2618 0.3909
C27 C 0.2631(4) 0.9988(3) -0.0778(2)
C28 C 0.3460(12) 1.1506(7) -0.0211(6)
H18 H 0.3555 1.2156 0.0125
C29 C 0.4349(10) 1.1027(7) -0.0856(7)
H19 H 0.5143 1.1315 -0.1040
O1 O 0.2899(3) 0.6462(2) 0.56943(15)
O2 O 0.1761(2) 0.8539(2) 0.56169(15)
O3 O 0.4989(3) -0.0216(2) 0.3937(2)
O4 O 0.4335(2) -0.19581(18) 0.38186(16)
S1 S 0.27139(10) 0.75470(7) 0.05109(6)
S2 S 0.31548(10) 0.50237(7) -0.02855(5)
S3 S 0.33770(9) 0.61066(7) 0.23140(5)
S4 S 0.39963(8) 0.35839(7) 0.15167(5)
S5 S 0.16344(11) 0.90535(9) -0.10087(7)
S6 S 0.24850(11) 0.62418(9) -0.19855(6)
S7 S 0.31968(8) 0.50443(7) 0.41521(5)
S8 S 0.40778(8) 0.21433(6) 0.32599(5)
S9 S 0.01513(11) 0.50033(12) -0.15856(9)
S10 S 0.41139(18) 1.00068(16) -0.13127(14)
C30 C 0.2256(3) 1.0997(2) -0.00073(13)
S11? S 0.2256(3) 1.0997(2) -0.00073(13)
C31? C 0.41139(18) 1.00068(16) -0.13127(14)
loop_
_geom_bond_atom_site_label_1
_geom_bond_atom_site_label_2
_geom_bond_site_symmetry_1
_geom_bond_site_symmetry_2
C1 C2 1_555 1_555
C2 S3 1_555 1_555
C3 C4 1_555 1_555
C4 S2 1_555 1_555
C5 C6 1_555 1_555
C6 S4 1_555 1_555
C7 C8 1_555 1_555
C8 H1 1_555 1_555
C9 C8 1_555 1_555
H2 C9 1_555 1_555
C10 C9 1_555 1_555
H3 C10 1_555 1_555
C11 C12 1_555 1_555
C12 H4 1_555 1_555
C13 C12 1_555 1_555
H5 C13 1_555 1_555
C14 C13 1_555 1_555
H6 C14 1_555 1_555
C15 C14 1_555 1_555
H7 C15 1_555 1_555
C16 C11 1_555 1_555
C17 C16 1_555 1_555
C18 H8 1_555 1_555
H9 C18 1_555 1_555
H10 C18 1_555 1_555
C19 C20 1_555 1_555
C20 H11 1_555 1_555
C21 C20 1_555 1_555
H12 C21 1_555 1_555
C22 C21 1_555 1_555
H13 C22 1_555 1_555
C23 C22 1_555 1_555
H14 C23 1_555 1_555
C24 C19 1_555 1_555
C25 C24 1_555 1_555
C26 H15 1_555 1_555
H16 C26 1_555 1_555
H17 C26 1_555 1_555
C27 S5 1_555 1_555
C28 H18 1_555 1_555
C29 C28 1_555 1_555
H19 C29 1_555 1_555
O1 C17 1_555 1_555
O2 C17 1_555 1_555
O3 C25 1_555 1_555
O4 C25 1_555 1_555
S1 C1 1_555 1_555
S2 C1 1_555 1_555
S3 C5 1_555 1_555
S4 C2 1_555 1_555
S5 C3 1_555 1_555
S6 C4 1_555 1_555
S7 C5 1_555 1_555
S8 C6 1_555 1_555
S9 C7 1_555 1_555
S10 C27 1_555 1_555
C30 C27 1_555 1_555
C3 S1 1_555 1_555
C7 S6 1_555 1_555
C10 S9 1_555 1_555
C11 S7 1_555 1_555
C15 C16 1_555 1_555
C18 O2 1_555 1_555
C19 S8 1_555 1_555
C23 C24 1_555 1_555
C26 O4 1_555 1_555
C28 C30 1_555 1_555
C29 S10 1_555 1_555

#END
