
#######################################################################
#
#                 Cambridge Crystallographic Data Centre
#                                CCDC 
#
#######################################################################
#
# If this CIF has been generated from an entry in the Cambridge 
# Structural Database, then it will include bibliographic, chemical, 
# crystal, experimental, refinement or atomic coordinate data resulting 
# from the CCDC's data processing and validation procedures.
#
#######################################################################

data_KIGTIG
_chemical_formula_moiety         'C26 H21 Cl1 F2 O3 S1'
_chemical_name_systematic        
4-[(4-chlorophenyl)(fluoro)methylidene]-6-fluoro-3-methyl-3-{[(4-methylphenyl)sulfonyl]methyl}-3,4-dihydronaphthalen-1(2H)-one
_symmetry_cell_setting           monoclinic
_symmetry_space_group_name_H-M   'P 21/n'
_symmetry_Int_Tables_number      14
_space_group_name_Hall           '-P 2yn'
loop_
_symmetry_equiv_pos_site_id
_symmetry_equiv_pos_as_xyz
1 x,y,z
2 1/2-x,1/2+y,1/2-z
3 -x,-y,-z
4 1/2+x,1/2-y,1/2+z
_cell_length_a                   7.9914(7)
_cell_length_b                   15.5578(13)
_cell_length_c                   18.6615(15)
_cell_angle_alpha                90
_cell_angle_beta                 94.9260(10)
_cell_angle_gamma                90
_cell_volume                     2311.59
_exptl_crystal_colour            white
_exptl_crystal_description       block
_cell_formula_units_Z            4
loop_
_atom_site_label
_atom_site_type_symbol
_atom_site_fract_x
_atom_site_fract_y
_atom_site_fract_z
S1 S 0.35307(9) 0.26759(5) 0.17586(4)
Cl1 Cl 0.86553(16) 0.04943(6) -0.13143(5)
F1 F 0.8907(3) 0.08797(12) 0.21153(9)
F2 F 0.7190(4) 0.07182(18) 0.43407(12)
O1 O 0.9120(4) 0.43720(17) 0.32603(16)
O2 O 0.3826(3) 0.21734(14) 0.11384(10)
O3 O 0.2130(3) 0.32535(14) 0.17066(12)
C1 C 0.8601(4) 0.3740(2) 0.2931(2)
C2 C 0.8304(4) 0.37584(19) 0.21342(18)
H1 H 0.9376 0.3682 0.1935
H2 H 0.7893 0.4326 0.1993
C3 C 0.7067(3) 0.30885(17) 0.17856(15)
C4 C 0.7650(3) 0.22242(17) 0.20983(14)
C5 C 0.7791(4) 0.21935(19) 0.28980(15)
C6 C 0.8255(4) 0.2928(2) 0.32974(17)
C7 C 0.8388(5) 0.2893(3) 0.4050(2)
H3 H 0.8717 0.3381 0.4314
C8 C 0.8043(6) 0.2156(3) 0.4400(2)
H4 H 0.8131 0.2132 0.4900
C9 C 0.7565(6) 0.1454(3) 0.3998(2)
C10 C 0.7427(4) 0.1452(2) 0.32669(16)
H5 H 0.7091 0.0956 0.3015
C11 C 0.5308(3) 0.33395(17) 0.20175(15)
H6 H 0.5055 0.3913 0.1835
H7 H 0.5403 0.3378 0.2538
C12 C 0.7072(4) 0.3192(2) 0.09679(16)
H8 H 0.8186 0.3095 0.0829
H9 H 0.6719 0.3764 0.0833
H10 H 0.6315 0.2783 0.0731
C13 C 0.8179(4) 0.15596(18) 0.17290(15)
C14 C 0.8230(4) 0.13642(18) 0.09562(15)
C15 C 0.9675(4) 0.1483(2) 0.06248(19)
H11 H 1.0597 0.1739 0.0879
C16 C 0.9793(5) 0.1233(2) -0.0077(2)
H12 H 1.0778 0.1328 -0.0297
C17 C 0.8470(5) 0.08491(19) -0.04418(16)
C18 C 0.7017(4) 0.0717(2) -0.01280(17)
H13 H 0.6108 0.0454 -0.0384
C19 C 0.6901(4) 0.0974(2) 0.05707(16)
H14 H 0.5908 0.0882 0.0785
C20 C 0.3281(3) 0.19742(18) 0.24776(14)
C21 C 0.2739(4) 0.2300(2) 0.31025(17)
H15 H 0.2540 0.2886 0.3148
C22 C 0.2495(5) 0.1747(2) 0.36615(18)
H16 H 0.2155 0.1968 0.4089
C23 C 0.2745(5) 0.0872(2) 0.36011(17)
C24 C 0.3250(4) 0.0559(2) 0.29632(17)
H17 H 0.3404 -0.0029 0.2909
C25 C 0.3532(4) 0.11072(19) 0.24013(15)
H18 H 0.3888 0.0890 0.1976
C26 C 0.2468(7) 0.0279(3) 0.4218(2)
H19 H 0.1294 0.0263 0.4291
H20 H 0.3090 0.0484 0.4647
H21 H 0.2843 -0.0289 0.4110
loop_
_geom_bond_atom_site_label_1
_geom_bond_atom_site_label_2
_geom_bond_site_symmetry_1
_geom_bond_site_symmetry_2
S1 O2 1_555 1_555
Cl1 C17 1_555 1_555
F1 C13 1_555 1_555
F2 C9 1_555 1_555
O1 C1 1_555 1_555
O3 S1 1_555 1_555
C1 C2 1_555 1_555
C2 H1 1_555 1_555
H2 C2 1_555 1_555
C3 C2 1_555 1_555
C4 C3 1_555 1_555
C5 C4 1_555 1_555
C6 C1 1_555 1_555
C7 C6 1_555 1_555
H3 C7 1_555 1_555
C8 C7 1_555 1_555
H4 C8 1_555 1_555
C9 C8 1_555 1_555
C10 C5 1_555 1_555
H5 C10 1_555 1_555
C11 S1 1_555 1_555
H6 C11 1_555 1_555
H7 C11 1_555 1_555
C12 C3 1_555 1_555
H8 C12 1_555 1_555
H9 C12 1_555 1_555
H10 C12 1_555 1_555
C13 C4 1_555 1_555
C14 C13 1_555 1_555
C15 C14 1_555 1_555
H11 C15 1_555 1_555
C16 C15 1_555 1_555
H12 C16 1_555 1_555
C17 C16 1_555 1_555
C18 C17 1_555 1_555
H13 C18 1_555 1_555
C19 C14 1_555 1_555
H14 C19 1_555 1_555
C20 S1 1_555 1_555
C21 C20 1_555 1_555
H15 C21 1_555 1_555
C22 C21 1_555 1_555
H16 C22 1_555 1_555
C23 C22 1_555 1_555
C24 C23 1_555 1_555
H17 C24 1_555 1_555
C25 C20 1_555 1_555
H18 C25 1_555 1_555
C26 C23 1_555 1_555
H19 C26 1_555 1_555
H20 C26 1_555 1_555
H21 C26 1_555 1_555
C3 C11 1_555 1_555
C5 C6 1_555 1_555
C9 C10 1_555 1_555
C18 C19 1_555 1_555
C24 C25 1_555 1_555

#END
