
#######################################################################
#
#                 Cambridge Crystallographic Data Centre
#                                CCDC 
#
#######################################################################
#
# If this CIF has been generated from an entry in the Cambridge 
# Structural Database, then it will include bibliographic, chemical, 
# crystal, experimental, refinement or atomic coordinate data resulting 
# from the CCDC's data processing and validation procedures.
#
#######################################################################

data_KIGTUS
_chemical_formula_moiety         'C51 H42 N6 O4'
_chemical_name_systematic        
"diethyl 2,2'-{[2,7,12,17-tetraphenyl-4,21,22,23,24-penta-azapentacyclo[16.2.1.1^3,6^.1^8,11^.1^13,16^]tetracosa-1,3(24),4,6,8,10,12,14,16(22),17,19-undecaen-5-yl]azanediyl}diacetate"
_symmetry_cell_setting           triclinic
_symmetry_space_group_name_H-M   'P -1'
_symmetry_Int_Tables_number      2
_space_group_name_Hall           '-P 1'
loop_
_symmetry_equiv_pos_site_id
_symmetry_equiv_pos_as_xyz
1 x,y,z
2 -x,-y,-z
_cell_length_a                   10.9512(5)
_cell_length_b                   11.7033(6)
_cell_length_c                   17.3015(9)
_cell_angle_alpha                78.412(2)
_cell_angle_beta                 74.5815(18)
_cell_angle_gamma                73.6581(18)
_cell_volume                     2032.14
_exptl_crystal_colour            red
_exptl_crystal_description       plate
_cell_formula_units_Z            2
loop_
_atom_site_label
_atom_site_type_symbol
_atom_site_fract_x
_atom_site_fract_y
_atom_site_fract_z
C1 C 1.09147(15) 0.47842(13) 0.26087(9)
C2 C 1.14121(15) 0.54505(13) 0.18127(9)
C3 C 0.94253(15) 0.63129(13) 0.22709(9)
C4 C 0.82806(15) 0.72499(13) 0.22686(9)
C5 C 0.72176(15) 0.74450(13) 0.29306(9)
C6 C 0.60336(16) 0.83623(14) 0.29432(10)
H1 H 0.581695 0.893340 0.249588
C7 C 0.52688(16) 0.82786(14) 0.37052(10)
H2 H 0.443092 0.878262 0.388272
C8 C 0.59523(15) 0.72958(14) 0.41911(9)
C9 C 0.54980(15) 0.68770(13) 0.50041(9)
C10 C 0.61268(16) 0.58075(13) 0.54272(9)
C11 C 0.55651(17) 0.53039(15) 0.62414(9)
H3 H 0.476612 0.565027 0.658406
C12 C 0.64039(17) 0.42490(15) 0.64119(9)
H4 H 0.630144 0.369392 0.689341
C13 C 0.74952(16) 0.41267(13) 0.57155(9)
C14 C 0.85735(16) 0.31318(13) 0.56690(9)
C15 C 0.96582(16) 0.29661(13) 0.50239(9)
C16 C 1.07364(17) 0.19387(14) 0.49737(10)
H5 H 1.086323 0.127412 0.538619
C17 C 1.15514(17) 0.20739(14) 0.42344(10)
H6 H 1.234078 0.151640 0.403962
C18 C 1.10154(15) 0.32011(13) 0.37998(9)
C19 C 1.15244(15) 0.36798(13) 0.30039(9)
C20 C 1.38260(16) 0.48278(15) 0.15886(11)
H7 H 1.429910 0.409223 0.133619
H8 H 1.357890 0.456790 0.217786
C21 C 1.26925(17) 0.59406(15) 0.04932(10)
H9 H 1.361873 0.585272 0.020612
H10 H 1.229514 0.680572 0.052656
C22 C 1.19905(16) 0.54870(16) 0.00151(10)
C23 C 1.1202(2) 0.5939(2) -0.11834(12)
H11 H 1.029367 0.587355 -0.094115
H12 H 1.173486 0.514674 -0.133433
C24 C 1.1241(3) 0.6867(3) -0.19072(14)
H13 H 1.086796 0.665969 -0.230084
H14 H 1.214827 0.690384 -0.215191
H15 H 1.073394 0.765092 -0.174711
C25 C 0.82581(15) 0.81545(14) 0.15228(9)
C26 C 0.81770(17) 0.93538(15) 0.15631(11)
H16 H 0.808176 0.960088 0.207080
C27 C 0.82345(19) 1.01916(18) 0.08659(13)
H17 H 0.818023 1.100575 0.089833
C28 C 0.83706(19) 0.9835(2) 0.01268(12)
H18 H 0.841483 1.040392 -0.035016
C29 C 0.8442(2) 0.8654(2) 0.00810(11)
H19 H 0.852582 0.841555 -0.042788
C30 C 0.83940(18) 0.78061(18) 0.07738(10)
H20 H 0.845341 0.699281 0.073585
C31 C 0.42680(15) 0.76397(14) 0.54421(9)
C32 C 0.42763(16) 0.87673(14) 0.55890(10)
H21 H 0.506254 0.903191 0.541601
C33 C 0.31492(17) 0.95074(15) 0.59848(11)
H22 H 0.316828 1.027266 0.608100
C34 C 0.19984(17) 0.91307(16) 0.62393(10)
H23 H 0.122821 0.963313 0.651353
C35 C 0.19759(17) 0.80177(16) 0.60920(10)
H24 H 0.118471 0.776131 0.626114
C36 C 0.31050(16) 0.72709(15) 0.56975(10)
H25 H 0.308091 0.650659 0.560245
C37 C 0.85731(15) 0.21352(13) 0.63641(9)
C38 C 0.88753(19) 0.22632(15) 0.70663(10)
H26 H 0.907196 0.298865 0.710249
C39 C 0.88956(19) 0.13490(16) 0.77186(11)
H27 H 0.910676 0.144889 0.819515
C40 C 0.86068(18) 0.02955(15) 0.76686(10)
H28 H 0.860898 -0.032950 0.811407
C41 C 0.8314(2) 0.01501(16) 0.69706(11)
H29 H 0.811719 -0.057656 0.693774
C42 C 0.83072(18) 0.10606(15) 0.63157(10)
H30 H 0.812027 0.094831 0.583437
C43 C 1.26767(15) 0.28664(13) 0.25423(9)
C44 C 1.38409(16) 0.23828(14) 0.28096(10)
H31 H 1.391414 0.257223 0.330161
C45 C 1.48899(17) 0.16280(16) 0.23612(11)
H32 H 1.567647 0.130573 0.254657
C46 C 1.47886(18) 0.13460(16) 0.16445(12)
H33 H 1.550674 0.083313 0.133661
C47 C 1.36355(18) 0.18138(16) 0.13761(11)
H34 H 1.356494 0.161576 0.088597
C48 C 1.25886(16) 0.25677(14) 0.18203(10)
H35 H 1.180393 0.288423 0.163237
N1 N 0.96621(13) 0.54124(11) 0.28880(7)
N2 N 0.71139(13) 0.68108(11) 0.36935(8)
H36 H 0.770708 0.618227 0.384341
N3 N 0.73072(13) 0.50813(11) 0.51189(8)
N4 N 0.98803(13) 0.37144(11) 0.43060(8)
H37 H 0.936756 0.442208 0.418772
N5 N 1.26249(13) 0.52855(12) 0.13086(8)
N6 N 1.04678(13) 0.63354(12) 0.16101(8)
C49 C 1.4633(8) 0.5796(7) 0.1442(10)
O1 O 1.3856(3) 0.6875(3) 0.1582(2)
O2 O 1.5775(6) 0.5541(6) 0.1281(5)
C50 C 1.4537(4) 0.7805(3) 0.1533(2)
H38 H 1.536186 0.743136 0.171526
H39 H 1.399018 0.839170 0.190203
C51 C 1.4834(12) 0.8441(8) 0.0706(6)
H40 H 1.534879 0.786035 0.033504
H41 H 1.533255 0.902284 0.069534
H42 H 1.401703 0.886460 0.053872
O3 O 1.17276(13) 0.63111(12) -0.06080(7)
O4 O 1.17607(14) 0.45084(12) 0.01587(8)
C52? C 1.4764(11) 0.5542(8) 0.1472(10)
O5? O 1.4328(4) 0.6717(3) 0.1256(3)
O6? O 1.5838(6) 0.5126(6) 0.1582(4)
C53? C 1.5300(4) 0.7422(4) 0.1101(3)
H43? H 1.605567 0.713010 0.066587
H44? H 1.561517 0.737036 0.159566
C54? C 1.4604(13) 0.8688(8) 0.0847(7)
H45? H 1.421692 0.870532 0.039347
H46? H 1.522639 0.919887 0.067801
H47? H 1.391409 0.898709 0.130237
loop_
_geom_bond_atom_site_label_1
_geom_bond_atom_site_label_2
_geom_bond_site_symmetry_1
_geom_bond_site_symmetry_2
C1 C2 1_555 1_555
C2 N5 1_555 1_555
C3 C4 1_555 1_555
C4 C5 1_555 1_555
C5 C6 1_555 1_555
C6 H1 1_555 1_555
C7 C6 1_555 1_555
H2 C7 1_555 1_555
C8 C7 1_555 1_555
C9 C8 1_555 1_555
C10 C9 1_555 1_555
C11 C10 1_555 1_555
H3 C11 1_555 1_555
C12 C11 1_555 1_555
H4 C12 1_555 1_555
C13 C12 1_555 1_555
C14 C13 1_555 1_555
C15 C14 1_555 1_555
C16 C15 1_555 1_555
H5 C16 1_555 1_555
C17 C16 1_555 1_555
H6 C17 1_555 1_555
C18 C17 1_555 1_555
C19 C1 1_555 1_555
C20 H7 1_555 1_555
H8 C20 1_555 1_555
C21 H9 1_555 1_555
H10 C21 1_555 1_555
C22 C21 1_555 1_555
C23 H11 1_555 1_555
H12 C23 1_555 1_555
C24 C23 1_555 1_555
H13 C24 1_555 1_555
H14 C24 1_555 1_555
H15 C24 1_555 1_555
C25 C4 1_555 1_555
C26 C25 1_555 1_555
H16 C26 1_555 1_555
C27 C26 1_555 1_555
H17 C27 1_555 1_555
C28 C27 1_555 1_555
H18 C28 1_555 1_555
C29 C28 1_555 1_555
H19 C29 1_555 1_555
C30 C25 1_555 1_555
H20 C30 1_555 1_555
C31 C9 1_555 1_555
C32 C31 1_555 1_555
H21 C32 1_555 1_555
C33 C32 1_555 1_555
H22 C33 1_555 1_555
C34 C33 1_555 1_555
H23 C34 1_555 1_555
C35 C34 1_555 1_555
H24 C35 1_555 1_555
C36 C31 1_555 1_555
H25 C36 1_555 1_555
C37 C14 1_555 1_555
C38 C37 1_555 1_555
H26 C38 1_555 1_555
C39 C38 1_555 1_555
H27 C39 1_555 1_555
C40 C39 1_555 1_555
H28 C40 1_555 1_555
C41 C40 1_555 1_555
H29 C41 1_555 1_555
C42 C37 1_555 1_555
H30 C42 1_555 1_555
C43 C19 1_555 1_555
C44 C43 1_555 1_555
H31 C44 1_555 1_555
C45 C44 1_555 1_555
H32 C45 1_555 1_555
C46 C45 1_555 1_555
H33 C46 1_555 1_555
C47 C46 1_555 1_555
H34 C47 1_555 1_555
C48 C43 1_555 1_555
H35 C48 1_555 1_555
N1 C1 1_555 1_555
N2 C5 1_555 1_555
H36 N2 1_555 1_555
N3 C10 1_555 1_555
N4 C15 1_555 1_555
H37 N4 1_555 1_555
N5 C20 1_555 1_555
N6 C2 1_555 1_555
C49 C20 1_555 1_555
O1 C49 1_555 1_555
O2 C49 1_555 1_555
C50 O1 1_555 1_555
H38 C50 1_555 1_555
H39 C50 1_555 1_555
C51 C50 1_555 1_555
H40 C51 1_555 1_555
H41 C51 1_555 1_555
H42 C51 1_555 1_555
O3 C22 1_555 1_555
O4 C22 1_555 1_555
C3 N1 1_555 1_555
C3 N6 1_555 1_555
C8 N2 1_555 1_555
C13 N3 1_555 1_555
C18 C19 1_555 1_555
C18 N4 1_555 1_555
C21 N5 1_555 1_555
C23 O3 1_555 1_555
C29 C30 1_555 1_555
C35 C36 1_555 1_555
C41 C42 1_555 1_555
C47 C48 1_555 1_555

#END
