
#######################################################################
#
#                 Cambridge Crystallographic Data Centre
#                                CCDC 
#
#######################################################################
#
# If this CIF has been generated from an entry in the Cambridge 
# Structural Database, then it will include bibliographic, chemical, 
# crystal, experimental, refinement or atomic coordinate data resulting 
# from the CCDC's data processing and validation procedures.
#
#######################################################################

data_KIGVUU
_chemical_formula_moiety         'C43 H42 O1'
_chemical_name_systematic        
2,6-di-t-butyl-4-(6a,11-diphenyl-6,6a-dihydro-5H-benzo[a]fluoren-5-yl)phenol
_symmetry_cell_setting           orthorhombic
_symmetry_space_group_name_H-M   'P b c a'
_symmetry_Int_Tables_number      61
_space_group_name_Hall           '-P 2ac 2ab'
loop_
_symmetry_equiv_pos_site_id
_symmetry_equiv_pos_as_xyz
1 x,y,z
2 1/2-x,-y,1/2+z
3 -x,1/2+y,1/2-z
4 1/2+x,1/2-y,-z
5 -x,-y,-z
6 1/2+x,y,1/2-z
7 x,1/2-y,1/2+z
8 1/2-x,1/2+y,z
_cell_length_a                   14.3105(6)
_cell_length_b                   18.8797(8)
_cell_length_c                   24.8734(11)
_cell_angle_alpha                90
_cell_angle_beta                 90
_cell_angle_gamma                90
_cell_volume                     6720.24
_exptl_crystal_colour            colorless
_exptl_crystal_description       block
_cell_formula_units_Z            8
loop_
_atom_site_label
_atom_site_type_symbol
_atom_site_fract_x
_atom_site_fract_y
_atom_site_fract_z
O1 O 0.39220(11) 0.46975(8) 0.77157(6)
H1 H 0.420267 0.440619 0.789934
C1 C 0.73281(10) 0.60972(8) 0.50114(6)
C2 C 0.78517(10) 0.49644(8) 0.54875(6)
C3 C 0.85713(11) 0.60384(8) 0.57329(6)
C4 C 0.76409(10) 0.57474(7) 0.55358(6)
C5 C 0.70804(10) 0.44911(8) 0.53468(6)
C6 C 0.61785(10) 0.46809(8) 0.55083(6)
C7 C 0.87271(10) 0.48130(8) 0.56567(6)
C8 C 0.59921(10) 0.53553(8) 0.58290(6)
H2 H 0.560791 0.566573 0.560353
C9 C 0.54301(11) 0.51914(8) 0.63350(6)
C10 C 0.92011(11) 0.54760(8) 0.57986(6)
C11 C 0.46764(11) 0.55954(8) 0.64943(6)
H3 H 0.449830 0.597781 0.628205
C12 C 0.91144(11) 0.40966(8) 0.57509(6)
C13 C 0.41685(11) 0.54522(9) 0.69637(7)
C14 C 0.56865(12) 0.46202(9) 0.66525(7)
H4 H 0.620343 0.435317 0.655107
C15 C 0.69659(11) 0.67810(9) 0.50140(7)
H5 H 0.688735 0.701510 0.533983
C16 C 0.68806(11) 0.57717(8) 0.59808(6)
H6 H 0.713712 0.557727 0.631025
H7 H 0.671368 0.626145 0.604931
C17 C 0.52062(12) 0.44291(9) 0.71149(7)
C18 C 0.72236(12) 0.38717(8) 0.50518(7)
H8 H 0.782260 0.375427 0.493748
C19 C 0.54473(11) 0.42252(9) 0.53802(7)
H9 H 0.484335 0.433959 0.548751
C20 C 0.88386(12) 0.67244(9) 0.58427(7)
H10 H 0.842153 0.709728 0.579662
C21 C 0.55991(13) 0.36100(9) 0.50986(7)
H11 H 0.510042 0.331066 0.502194
C22 C 0.64858(12) 0.34335(9) 0.49289(7)
H12 H 0.658481 0.302105 0.473261
C23 C 0.44476(12) 0.48577(9) 0.72620(7)
C24 C 0.99558(12) 0.38843(10) 0.55256(7)
H13 H 1.029175 0.419951 0.531305
C25 C 0.86366(12) 0.36190(9) 0.60758(7)
H14 H 0.807715 0.375328 0.623648
C26 C 0.74244(13) 0.57644(10) 0.45151(7)
H15 H 0.766317 0.530672 0.449939
C27 C 0.33482(13) 0.59265(10) 0.71386(8)
C28 C 0.97437(13) 0.68494(10) 0.60238(8)
H16 H 0.993347 0.731010 0.609853
C29 C 0.67208(13) 0.71190(10) 0.45425(8)
H17 H 0.648163 0.757679 0.455453
C30 C 1.01036(12) 0.56069(10) 0.59844(7)
H18 H 1.052434 0.523717 0.603398
C31 C 0.89876(15) 0.29453(9) 0.61619(8)
H19 H 0.866402 0.262765 0.637869
C32 C 0.54921(14) 0.37610(10) 0.74308(7)
C33 C 0.98196(16) 0.27465(10) 0.59249(8)
H20 H 1.005251 0.229220 0.597887
C34 C 0.68270(15) 0.67859(12) 0.40573(8)
H21 H 0.666914 0.701728 0.373998
C35 C 1.03602(13) 0.62985(11) 0.60935(8)
H22 H 1.096127 0.639266 0.621631
C36 C 1.03002(15) 0.32131(11) 0.56126(8)
H23 H 1.086371 0.307786 0.545717
C37 C 0.71695(15) 0.61055(12) 0.40445(7)
H24 H 0.723052 0.587242 0.371695
C38 C 0.32016(16) 0.65462(12) 0.67503(10)
H25 H 0.375440 0.683398 0.674179
H26 H 0.268156 0.682663 0.686911
H27 H 0.307688 0.636626 0.639646
C39 C 0.47008(18) 0.32119(11) 0.74131(9)
H28 H 0.414157 0.341555 0.755995
H29 H 0.487559 0.280442 0.762092
H30 H 0.459053 0.307249 0.704740
C40 C 0.57430(17) 0.39386(12) 0.80170(8)
H31 H 0.621944 0.429647 0.802277
H32 H 0.596857 0.352023 0.819379
H33 H 0.519744 0.410994 0.820011
C41 C 0.35549(19) 0.62495(13) 0.76964(9)
H34 H 0.360323 0.587727 0.795781
H35 H 0.305748 0.656471 0.779540
H36 H 0.413261 0.650737 0.768263
C42 C 0.63612(18) 0.34104(12) 0.71856(10)
H37 H 0.622754 0.326650 0.682350
H38 H 0.653006 0.300321 0.739533
H39 H 0.686945 0.374229 0.718463
C43 C 0.24312(15) 0.55059(14) 0.71536(12)
H40 H 0.229692 0.532488 0.680126
H41 H 0.193202 0.581075 0.726725
H42 H 0.249099 0.511889 0.740152
loop_
_geom_bond_atom_site_label_1
_geom_bond_atom_site_label_2
_geom_bond_site_symmetry_1
_geom_bond_site_symmetry_2
O1 H1 1_555 1_555
C1 C4 1_555 1_555
C2 C4 1_555 1_555
C3 C4 1_555 1_555
C4 C16 1_555 1_555
C5 C2 1_555 1_555
C6 C5 1_555 1_555
C7 C2 1_555 1_555
C8 C6 1_555 1_555
H2 C8 1_555 1_555
C9 C8 1_555 1_555
C10 C3 1_555 1_555
C11 C9 1_555 1_555
H3 C11 1_555 1_555
C12 C7 1_555 1_555
C13 C11 1_555 1_555
C14 C9 1_555 1_555
H4 C14 1_555 1_555
C15 C1 1_555 1_555
H5 C15 1_555 1_555
C16 C8 1_555 1_555
H6 C16 1_555 1_555
H7 C16 1_555 1_555
C17 C14 1_555 1_555
C18 C5 1_555 1_555
H8 C18 1_555 1_555
C19 C6 1_555 1_555
H9 C19 1_555 1_555
C20 C3 1_555 1_555
H10 C20 1_555 1_555
C21 C19 1_555 1_555
H11 C21 1_555 1_555
C22 C18 1_555 1_555
H12 C22 1_555 1_555
C23 O1 1_555 1_555
C24 C12 1_555 1_555
H13 C24 1_555 1_555
C25 C12 1_555 1_555
H14 C25 1_555 1_555
C26 C1 1_555 1_555
H15 C26 1_555 1_555
C27 C13 1_555 1_555
C28 C20 1_555 1_555
H16 C28 1_555 1_555
C29 C15 1_555 1_555
H17 C29 1_555 1_555
C30 C10 1_555 1_555
H18 C30 1_555 1_555
C31 C25 1_555 1_555
H19 C31 1_555 1_555
C32 C17 1_555 1_555
C33 C31 1_555 1_555
H20 C33 1_555 1_555
C34 C29 1_555 1_555
H21 C34 1_555 1_555
C35 C28 1_555 1_555
H22 C35 1_555 1_555
C36 C24 1_555 1_555
H23 C36 1_555 1_555
C37 C26 1_555 1_555
H24 C37 1_555 1_555
C38 C27 1_555 1_555
H25 C38 1_555 1_555
H26 C38 1_555 1_555
H27 C38 1_555 1_555
C39 C32 1_555 1_555
H28 C39 1_555 1_555
H29 C39 1_555 1_555
H30 C39 1_555 1_555
C40 C32 1_555 1_555
H31 C40 1_555 1_555
H32 C40 1_555 1_555
H33 C40 1_555 1_555
C41 C27 1_555 1_555
H34 C41 1_555 1_555
H35 C41 1_555 1_555
H36 C41 1_555 1_555
C42 C32 1_555 1_555
H37 C42 1_555 1_555
H38 C42 1_555 1_555
H39 C42 1_555 1_555
C43 C27 1_555 1_555
H40 C43 1_555 1_555
H41 C43 1_555 1_555
H42 C43 1_555 1_555
C7 C10 1_555 1_555
C13 C23 1_555 1_555
C17 C23 1_555 1_555
C21 C22 1_555 1_555
C30 C35 1_555 1_555
C33 C36 1_555 1_555
C34 C37 1_555 1_555

#END
