
#######################################################################
#
#                 Cambridge Crystallographic Data Centre
#                                CCDC 
#
#######################################################################
#
# If this CIF has been generated from an entry in the Cambridge 
# Structural Database, then it will include bibliographic, chemical, 
# crystal, experimental, refinement or atomic coordinate data resulting 
# from the CCDC's data processing and validation procedures.
#
#######################################################################

data_KIGXUV
_chemical_name_common            TTF-14
_chemical_formula_moiety         'C30 H16 Br4 S8'
_chemical_name_systematic        
2-(4,5-bis((4-bromophenyl)sulfanyl)-1,3-dithiol-2-ylidene)-4,5-bis((4-bromophenyl)sulfanyl)-1,3-dithiole
_symmetry_cell_setting           monoclinic
_symmetry_space_group_name_H-M   'I 2'
_symmetry_Int_Tables_number      5
_space_group_name_Hall           'I 2y'
loop_
_symmetry_equiv_pos_site_id
_symmetry_equiv_pos_as_xyz
1 x,y,z
2 -x,y,-z
3 1/2+x,1/2+y,1/2+z
4 1/2-x,1/2+y,1/2-z
_cell_length_a                   21.6002(9)
_cell_length_b                   5.6980(2)
_cell_length_c                   28.3240(12)
_cell_angle_alpha                90
_cell_angle_beta                 103.322(4)
_cell_angle_gamma                90
_cell_volume                     3392.25
_exptl_crystal_colour            red
_exptl_crystal_description       block
_chemical_melting_point          '488 K'
_cell_formula_units_Z            4
loop_
_atom_site_label
_atom_site_type_symbol
_atom_site_fract_x
_atom_site_fract_y
_atom_site_fract_z
Br1 Br -0.11622(6) 0.4334(2) 0.80384(3)
Br2 Br 0.05252(5) 0.38028(18) 0.33134(4)
Br3 Br -0.39358(6) 0.4366(2) 0.21068(4)
Br4 Br -0.56175(6) 0.4843(2) 0.64389(6)
S1 S -0.23567(13) -0.1941(4) 0.61717(8)
S2 S -0.27952(12) 0.6909(4) 0.44266(8)
S3 S -0.32705(11) 0.2458(4) 0.49598(8)
S4 S -0.19912(11) 0.2048(4) 0.56046(8)
S5 S -0.38094(12) -0.1458(4) 0.54428(8)
S6 S -0.15130(12) 0.6462(4) 0.50673(8)
S7 S -0.24215(14) 1.0838(4) 0.38500(8)
S8 S -0.09571(12) 1.0232(4) 0.45547(9)
C1 C -0.2074(4) 0.3222(16) 0.7183(3)
H1 H -0.2274 0.4602 0.7241
C2 C -0.4106(4) 0.2633(15) 0.5908(3)
H2 H -0.3702 0.3200 0.5910
C3 C -0.4305(4) 0.0445(13) 0.5682(3)
C4 C -0.2832(4) 0.9016(14) 0.3371(3)
C5 C -0.2202(4) 0.8764(14) 0.4314(3)
C6 C -0.3157(4) 0.0361(14) 0.5427(3)
C7 C -0.3488(5) 0.6276(15) 0.2610(3)
C8 C -0.2295(4) 0.5377(14) 0.4904(3)
C9 C -0.0475(4) 0.4844(16) 0.3771(3)
H3 H -0.0640 0.3413 0.3642
C10 C -0.2327(4) 0.1894(16) 0.6775(3)
H4 H -0.2697 0.2390 0.6561
C11 C -0.2490(4) 0.3564(14) 0.5128(3)
C12 C -0.2562(4) 0.6987(16) 0.3233(3)
H5 H -0.2153 0.6557 0.3394
C13 C 0.0356(4) 0.7750(16) 0.3892(3)
H6 H 0.0742 0.8280 0.3839
C14 C -0.5305(4) 0.0920(19) 0.5907(4)
H7 H -0.5709 0.0362 0.5909
C15 C -0.0561(4) 0.8292(15) 0.4231(3)
C16 C 0.0025(4) 0.9047(18) 0.4166(3)
H8 H 0.0198 1.0441 0.4310
C17 C -0.0797(4) 0.6177(14) 0.4036(3)
H9 H -0.1184 0.5642 0.4085
C18 C -0.2579(4) 0.0117(14) 0.5712(3)
C19 C -0.2891(5) 0.5631(17) 0.2867(3)
H10 H -0.2710 0.4246 0.2788
C20 C -0.3769(5) 0.8255(18) 0.2734(4)
H11 H -0.4176 0.8696 0.2568
C21 C -0.1619(5) 0.8573(14) 0.4598(3)
C22 C -0.2036(4) -0.0162(14) 0.6683(3)
C23 C -0.1250(4) 0.0410(16) 0.7415(3)
H12 H -0.0887 -0.0114 0.7635
C24 C -0.1505(4) -0.0910(17) 0.7006(3)
H13 H -0.1313 -0.2315 0.6952
C25 C -0.3422(5) 0.9601(17) 0.3121(3)
H14 H -0.3607 1.0957 0.3209
C26 C -0.5092(4) 0.3059(16) 0.6127(3)
C27 C -0.1531(4) 0.2513(16) 0.7500(3)
C28 C -0.4907(4) -0.0342(17) 0.5687(3)
H15 H -0.5047 -0.1761 0.5538
C29 C 0.0094(4) 0.5626(15) 0.3696(3)
C30 C -0.4493(4) 0.3883(16) 0.6116(3)
H16 H -0.4359 0.5328 0.6255
loop_
_geom_bond_atom_site_label_1
_geom_bond_atom_site_label_2
_geom_bond_site_symmetry_1
_geom_bond_site_symmetry_2
Br1 C27 1_555 1_555
Br2 C29 1_555 1_555
Br3 C7 1_555 1_555
Br4 C26 1_555 1_555
S1 C18 1_555 1_555
S2 C5 1_555 1_555
S3 C6 1_555 1_555
S4 C11 1_555 1_555
S5 C3 1_555 1_555
S6 C8 1_555 1_555
S7 C4 1_555 1_555
S8 C15 1_555 1_555
C1 H1 1_555 1_555
C2 H2 1_555 1_555
C3 C2 1_555 1_555
C4 C12 1_555 1_555
C5 S7 1_555 1_555
C6 S5 1_555 1_555
C7 C19 1_555 1_555
C8 S2 1_555 1_555
C9 H3 1_555 1_555
C10 C1 1_555 1_555
H4 C10 1_555 1_555
C11 S3 1_555 1_555
C12 H5 1_555 1_555
C13 H6 1_555 1_555
C14 H7 1_555 1_555
C15 C16 1_555 1_555
C16 C13 1_555 1_555
H8 C16 1_555 1_555
C17 C9 1_555 1_555
H9 C17 1_555 1_555
C18 S4 1_555 1_555
C19 C12 1_555 1_555
H10 C19 1_555 1_555
C20 C7 1_555 1_555
H11 C20 1_555 1_555
C21 S6 1_555 1_555
C22 S1 1_555 1_555
C23 H12 1_555 1_555
C24 C22 1_555 1_555
H13 C24 1_555 1_555
C25 C4 1_555 1_555
H14 C25 1_555 1_555
C26 C14 1_555 1_555
C27 C1 1_555 1_555
C28 C3 1_555 1_555
H15 C28 1_555 1_555
C29 C9 1_555 1_555
C30 C2 1_555 1_555
H16 C30 1_555 1_555
S8 C21 1_555 1_555
C5 C21 1_555 1_555
C6 C18 1_555 1_555
C8 C11 1_555 1_555
C10 C22 1_555 1_555
C13 C29 1_555 1_555
C14 C28 1_555 1_555
C15 C17 1_555 1_555
C20 C25 1_555 1_555
C23 C24 1_555 1_555
C23 C27 1_555 1_555
C26 C30 1_555 1_555

#END
