
#######################################################################
#
#                 Cambridge Crystallographic Data Centre
#                                CCDC 
#
#######################################################################
#
# If this CIF has been generated from an entry in the Cambridge 
# Structural Database, then it will include bibliographic, chemical, 
# crystal, experimental, refinement or atomic coordinate data resulting 
# from the CCDC's data processing and validation procedures.
#
#######################################################################

data_KIGYUW
_chemical_name_common            TTF-3
_chemical_formula_moiety         'C34 H28 S8'
_chemical_name_systematic        
2-(4,5-bis((4-methylphenyl)sulfanyl)-1,3-dithiol-2-ylidene)-4,5-bis((4-methylphenyl)sulfanyl)-1,3-dithiole
_symmetry_cell_setting           triclinic
_symmetry_space_group_name_H-M   'P -1'
_symmetry_Int_Tables_number      2
_space_group_name_Hall           '-P 1'
loop_
_symmetry_equiv_pos_site_id
_symmetry_equiv_pos_as_xyz
1 x,y,z
2 -x,-y,-z
_cell_length_a                   5.8815(18)
_cell_length_b                   13.706(4)
_cell_length_c                   20.951(6)
_cell_angle_alpha                80.363(3)
_cell_angle_beta                 84.532(3)
_cell_angle_gamma                88.399(3)
_cell_volume                     1657.36
_exptl_crystal_colour            pink
_exptl_crystal_description       needle
_chemical_melting_point          '453 K'
_cell_formula_units_Z            2
loop_
_atom_site_label
_atom_site_type_symbol
_atom_site_fract_x
_atom_site_fract_y
_atom_site_fract_z
C1 C 0.7404(5) 0.5385(2) 0.22081(13)
C2 C 0.7516(5) 0.4470(2) 0.25509(13)
C3 C 0.8582(6) 0.7059(2) 0.15207(15)
C4 C 0.6815(6) 0.7267(2) 0.19254(15)
C5 C 0.9023(6) 0.2773(2) 0.30936(14)
C6 C 0.7226(5) 0.2981(2) 0.34883(14)
C7 C 1.1677(7) 0.7324(2) 0.04309(16)
C8 C 1.3771(7) 0.6896(3) 0.05380(19)
H1 H 1.4384 0.6912 0.0929
C9 C 1.4973(7) 0.6443(3) 0.0068(2)
H2 H 1.6383 0.6150 0.0152
C10 C 1.4153(7) 0.6411(3) -0.05151(17)
C11 C 1.2055(7) 0.6836(3) -0.06168(18)
H3 H 1.1450 0.6816 -0.1009
C12 C 1.0817(6) 0.7291(3) -0.01564(17)
H4 H 0.9401 0.7578 -0.0240
C13 C 0.6465(5) 0.8690(2) 0.27089(15)
C14 C 0.8496(6) 0.8368(2) 0.29544(17)
H5 H 0.9513 0.7986 0.2729
C15 C 0.9015(6) 0.8613(2) 0.35351(17)
H6 H 1.0379 0.8381 0.3700
C16 C 0.7582(6) 0.9190(2) 0.38798(16)
C17 C 0.5576(6) 0.9523(2) 0.36208(17)
H7 H 0.4593 0.9929 0.3836
C18 C 0.4998(5) 0.9266(2) 0.30483(16)
H8 H 0.3614 0.9481 0.2890
C19 C 1.1680(5) 0.1452(2) 0.25113(15)
C20 C 1.0191(6) 0.0912(2) 0.22464(16)
H9 H 0.8761 0.0754 0.2464
C21 C 1.0810(7) 0.0605(3) 0.16601(18)
H10 H 0.9781 0.0247 0.1483
C22 C 1.2924(7) 0.0818(3) 0.13325(17)
C23 C 1.4408(7) 0.1337(3) 0.1610(2)
H11 H 1.5858 0.1473 0.1401
C24 C 1.3805(6) 0.1660(2) 0.21920(19)
H12 H 1.4835 0.2019 0.2368
C25 C 0.7427(5) 0.2880(2) 0.48010(14)
C26 C 0.6128(6) 0.2913(2) 0.53821(15)
H13 H 0.4684 0.2634 0.5455
C27 C 0.6959(6) 0.3354(3) 0.58535(16)
H14 H 0.6065 0.3367 0.6243
C28 C 0.9078(6) 0.3777(2) 0.57627(16)
C29 C 1.0368(6) 0.3739(3) 0.51791(18)
H15 H 1.1802 0.4027 0.5105
C30 C 0.9578(6) 0.3283(2) 0.47040(16)
H16 H 1.0493 0.3249 0.4321
C31 C 1.5535(8) 0.5945(3) -0.1033(2)
H17 H 1.4696 0.5993 -0.1408
H18 H 1.5831 0.5261 -0.0868
H19 H 1.6957 0.6285 -0.1151
C32 C 0.8201(8) 0.9444(3) 0.45136(18)
H20 H 0.9653 0.9147 0.4611
H21 H 0.7054 0.9196 0.4855
H22 H 0.8291 1.0149 0.4478
C33 C 1.3612(9) 0.0473(3) 0.06889(19)
H23 H 1.2370 0.0123 0.0569
H24 H 1.4923 0.0041 0.0731
H25 H 1.3979 0.1035 0.0359
C34 C 0.9996(8) 0.4255(3) 0.62834(19)
H26 H 1.1496 0.4504 0.6134
H27 H 1.0074 0.3773 0.6671
H28 H 0.9001 0.4790 0.6377
S1 S 0.92832(15) 0.58058(6) 0.15170(4)
S2 S 0.53375(15) 0.62623(6) 0.24002(4)
S3 S 0.95781(15) 0.35863(6) 0.23561(4)
S4 S 0.56019(15) 0.40434(6) 0.32292(4)
S5 S 1.0194(2) 0.79776(7) 0.10047(5)
S6 S 0.56793(19) 0.84522(6) 0.19540(4)
S7 S 1.09643(18) 0.17996(6) 0.32868(4)
S8 S 0.62715(17) 0.22561(6) 0.42288(4)
loop_
_geom_bond_atom_site_label_1
_geom_bond_atom_site_label_2
_geom_bond_site_symmetry_1
_geom_bond_site_symmetry_2
C1 C2 1_555 1_555
C2 S3 1_555 1_555
C3 C4 1_555 1_555
C4 S2 1_555 1_555
C5 C6 1_555 1_555
C6 S4 1_555 1_555
C7 C8 1_555 1_555
C8 H1 1_555 1_555
C9 C8 1_555 1_555
H2 C9 1_555 1_555
C10 C9 1_555 1_555
C11 C10 1_555 1_555
H3 C11 1_555 1_555
C12 C7 1_555 1_555
H4 C12 1_555 1_555
C13 C14 1_555 1_555
C14 H5 1_555 1_555
C15 C14 1_555 1_555
H6 C15 1_555 1_555
C16 C15 1_555 1_555
C17 C16 1_555 1_555
H7 C17 1_555 1_555
C18 C13 1_555 1_555
H8 C18 1_555 1_555
C19 C20 1_555 1_555
C20 H9 1_555 1_555
C21 C20 1_555 1_555
H10 C21 1_555 1_555
C22 C21 1_555 1_555
C23 C22 1_555 1_555
H11 C23 1_555 1_555
C24 C19 1_555 1_555
H12 C24 1_555 1_555
C25 C26 1_555 1_555
C26 H13 1_555 1_555
C27 C26 1_555 1_555
H14 C27 1_555 1_555
C28 C27 1_555 1_555
C29 C28 1_555 1_555
H15 C29 1_555 1_555
C30 C25 1_555 1_555
H16 C30 1_555 1_555
C31 C10 1_555 1_555
H17 C31 1_555 1_555
H18 C31 1_555 1_555
H19 C31 1_555 1_555
C32 C16 1_555 1_555
H20 C32 1_555 1_555
H21 C32 1_555 1_555
H22 C32 1_555 1_555
C33 C22 1_555 1_555
H23 C33 1_555 1_555
H24 C33 1_555 1_555
H25 C33 1_555 1_555
C34 C28 1_555 1_555
H26 C34 1_555 1_555
H27 C34 1_555 1_555
H28 C34 1_555 1_555
S1 C1 1_555 1_555
S2 C1 1_555 1_555
S3 C5 1_555 1_555
S4 C2 1_555 1_555
S5 C3 1_555 1_555
S6 C4 1_555 1_555
S7 C5 1_555 1_555
S8 C6 1_555 1_555
C3 S1 1_555 1_555
C7 S5 1_555 1_555
C11 C12 1_555 1_555
C13 S6 1_555 1_555
C17 C18 1_555 1_555
C19 S7 1_555 1_555
C23 C24 1_555 1_555
C25 S8 1_555 1_555
C29 C30 1_555 1_555

#END
