
#######################################################################
#
#                 Cambridge Crystallographic Data Centre
#                                CCDC 
#
#######################################################################
#
# If this CIF has been generated from an entry in the Cambridge 
# Structural Database, then it will include bibliographic, chemical, 
# crystal, experimental, refinement or atomic coordinate data resulting 
# from the CCDC's data processing and validation procedures.
#
#######################################################################

data_KIGYEG
_chemical_name_common            TTF-11
_chemical_formula_moiety         'C30 H16 Cl4 S8,C2 H4 Cl2'
_chemical_name_systematic        
'2-(4,5-bis((4-chlorophenyl)sulfanyl)-1,3-dithiol-2-ylidene)-4,5-bis((4-chlorophenyl)sulfanyl)-1,3-dithiole 1,2-dichloroethane solvate'
_symmetry_cell_setting           monoclinic
_symmetry_space_group_name_H-M   'P 21/n'
_symmetry_Int_Tables_number      14
_space_group_name_Hall           '-P 2yn'
loop_
_symmetry_equiv_pos_site_id
_symmetry_equiv_pos_as_xyz
1 x,y,z
2 1/2-x,1/2+y,1/2-z
3 -x,-y,-z
4 1/2+x,1/2-y,1/2+z
_cell_length_a                   14.8118(6)
_cell_length_b                   5.8420(2)
_cell_length_c                   21.3974(8)
_cell_angle_alpha                90
_cell_angle_beta                 98.033(4)
_cell_angle_gamma                90
_cell_volume                     1833.36
_exptl_crystal_colour            red
_exptl_crystal_description       needle
_chemical_melting_point          '452 K'
_cell_formula_units_Z            2
loop_
_atom_site_label
_atom_site_type_symbol
_atom_site_fract_x
_atom_site_fract_y
_atom_site_fract_z
C1 C 0.49809(16) 0.4075(4) 0.51852(10)
C2 C 0.53331(17) 0.0886(4) 0.60229(11)
C3 C 0.44391(17) 0.0729(4) 0.58316(11)
C4 C 0.61686(16) 0.1035(4) 0.72490(11)
C5 C 0.67553(17) 0.0234(4) 0.77709(13)
H1 H 0.7046 -0.1170 0.7751
C6 C 0.69043(18) 0.1526(5) 0.83159(13)
H2 H 0.7282 0.0983 0.8668
C7 C 0.64857(19) 0.3637(5) 0.83322(12)
C8 C 0.59220(18) 0.4476(4) 0.78161(13)
H3 H 0.5653 0.5909 0.7833
C9 C 0.57595(16) 0.3168(4) 0.72733(12)
H4 H 0.5376 0.3717 0.6924
C10 C 0.28588(17) 0.0466(4) 0.63546(11)
C11 C 0.30611(18) 0.2515(5) 0.66724(12)
H5 H 0.3662 0.3012 0.6755
C12 C 0.23752(18) 0.3817(5) 0.68659(12)
H6 H 0.2508 0.5206 0.7070
C13 C 0.14891(18) 0.3034(5) 0.67531(12)
C14 C 0.1283(2) 0.0973(5) 0.64546(15)
H7 H 0.0685 0.0446 0.6391
C15 C 0.19698(19) -0.0306(5) 0.62503(14)
H8 H 0.1833 -0.1688 0.6043
S1 S 0.59482(4) 0.29040(11) 0.56411(3)
S2 S 0.39602(4) 0.25828(11) 0.52267(3)
S3 S 0.59506(5) -0.08573(11) 0.65931(3)
S4 S 0.37155(5) -0.13148(11) 0.61026(3)
Cl1 Cl 0.66737(7) 0.53083(17) 0.90128(4)
Cl2 Cl 0.06217(5) 0.47185(15) 0.69787(4)
C1B C 0.50191(16) 0.5925(4) 0.48148(10)
C2B C 0.46669(17) 0.9114(4) 0.39771(11)
C3B C 0.55609(17) 0.9271(4) 0.41684(11)
C4B C 0.38314(16) 0.8965(4) 0.27510(11)
C5B C 0.32447(17) 0.9766(4) 0.22291(13)
H1B H 0.2954 1.1170 0.2249
C6B C 0.30957(18) 0.8474(5) 0.16841(13)
H2B H 0.2718 0.9017 0.1332
C7B C 0.35143(19) 0.6363(5) 0.16678(12)
C8B C 0.40780(18) 0.5524(4) 0.21839(13)
H3B H 0.4347 0.4091 0.2167
C9B C 0.42405(16) 0.6832(4) 0.27267(12)
H4B H 0.4624 0.6283 0.3076
C10B C 0.71412(17) 0.9534(4) 0.36454(11)
C11B C 0.69389(18) 0.7485(5) 0.33276(12)
H5B H 0.6338 0.6988 0.3245
C12B C 0.76248(18) 0.6183(5) 0.31341(12)
H6B H 0.7492 0.4794 0.2930
C13B C 0.85109(18) 0.6966(5) 0.32469(12)
C14B C 0.8717(2) 0.9027(5) 0.35454(15)
H7B H 0.9315 0.9554 0.3609
C15B C 0.80302(19) 1.0306(5) 0.37497(14)
H8B H 0.8167 1.1688 0.3957
S1B S 0.40518(4) 0.70960(11) 0.43589(3)
S2B S 0.60398(4) 0.74172(11) 0.47733(3)
S3B S 0.40494(5) 1.08573(11) 0.34069(3)
S4B S 0.62845(5) 1.13148(11) 0.38974(3)
Cl1B Cl 0.33263(7) 0.46917(17) 0.09872(4)
Cl2B Cl 0.93783(5) 0.52815(15) 0.30213(4)
C16 C 0.0242(6) 0.4333(15) 0.4844(3)
H9 H 0.0077 0.4595 0.4394
H10 H 0.0111 0.2746 0.4930
Cl3 Cl 0.14715(12) 0.4891(3) 0.50702(6)
C16B C -0.0242(6) 0.5667(15) 0.5156(3)
H9B H -0.0077 0.5405 0.5606
H10B H -0.0111 0.7254 0.5070
Cl3B Cl -0.14715(12) 0.5109(3) 0.49298(6)
loop_
_geom_bond_atom_site_label_1
_geom_bond_atom_site_label_2
_geom_bond_site_symmetry_1
_geom_bond_site_symmetry_2
C1 S1 1_555 1_555
C2 C3 1_555 1_555
C3 S2 1_555 1_555
C4 C5 1_555 1_555
C5 H1 1_555 1_555
C6 C5 1_555 1_555
H2 C6 1_555 1_555
C7 C6 1_555 1_555
C8 C7 1_555 1_555
H3 C8 1_555 1_555
C9 C4 1_555 1_555
H4 C9 1_555 1_555
C10 C11 1_555 1_555
C11 H5 1_555 1_555
C12 C11 1_555 1_555
H6 C12 1_555 1_555
C13 C12 1_555 1_555
C14 C13 1_555 1_555
H7 C14 1_555 1_555
C15 C10 1_555 1_555
H8 C15 1_555 1_555
S1 C2 1_555 1_555
S2 C1 1_555 1_555
S3 C2 1_555 1_555
S4 C3 1_555 1_555
Cl1 C7 1_555 1_555
Cl2 C13 1_555 1_555
C16 H9 1_555 1_555
H10 C16 1_555 1_555
Cl3 C16 1_555 1_555
C1B C1 1_555 1_555
C2B C3B 1_555 1_555
C3B S2B 1_555 1_555
C4B C5B 1_555 1_555
C5B H1B 1_555 1_555
C6B C5B 1_555 1_555
H2B C6B 1_555 1_555
C7B C6B 1_555 1_555
C8B C7B 1_555 1_555
H3B C8B 1_555 1_555
C9B C4B 1_555 1_555
H4B C9B 1_555 1_555
C10B C11B 1_555 1_555
C11B H5B 1_555 1_555
C12B C11B 1_555 1_555
H6B C12B 1_555 1_555
C13B C12B 1_555 1_555
C14B C13B 1_555 1_555
H7B C14B 1_555 1_555
C15B C10B 1_555 1_555
H8B C15B 1_555 1_555
S1B C1B 1_555 1_555
S2B C1B 1_555 1_555
S3B C2B 1_555 1_555
S4B C3B 1_555 1_555
Cl1B C7B 1_555 1_555
Cl2B C13B 1_555 1_555
C16B C16 1_555 1_555
H9B C16B 1_555 1_555
H10B C16B 1_555 1_555
Cl3B C16B 1_555 1_555
C4 S3 1_555 1_555
C8 C9 1_555 1_555
C10 S4 1_555 1_555
C14 C15 1_555 1_555
C2B S1B 1_555 1_555
C4B S3B 1_555 1_555
C8B C9B 1_555 1_555
C10B S4B 1_555 1_555
C14B C15B 1_555 1_555

#END
