
#######################################################################
#
#                 Cambridge Crystallographic Data Centre
#                                CCDC 
#
#######################################################################
#
# If this CIF has been generated from an entry in the Cambridge 
# Structural Database, then it will include bibliographic, chemical, 
# crystal, experimental, refinement or atomic coordinate data resulting 
# from the CCDC's data processing and validation procedures.
#
#######################################################################

data_KIGZAD
_chemical_name_common            TTF-2
_chemical_formula_moiety         'C34 H28 S8'
_chemical_name_systematic        
2-(4,5-bis((2-methylphenyl)sulfanyl)-1,3-dithiol-2-ylidene)-4,5-bis((2-methylphenyl)sulfanyl)-1,3-dithiole
_symmetry_cell_setting           triclinic
_symmetry_space_group_name_H-M   'P -1'
_symmetry_Int_Tables_number      2
_space_group_name_Hall           '-P 1'
loop_
_symmetry_equiv_pos_site_id
_symmetry_equiv_pos_as_xyz
1 x,y,z
2 -x,-y,-z
_cell_length_a                   10.7713(6)
_cell_length_b                   10.9320(6)
_cell_length_c                   15.6563(9)
_cell_angle_alpha                108.033(5)
_cell_angle_beta                 110.106(5)
_cell_angle_gamma                90.012(4)
_cell_volume                     1634.39
_exptl_crystal_colour            red
_exptl_crystal_description       'thin platelet'
_chemical_melting_point          '430 K'
_cell_formula_units_Z            2
loop_
_atom_site_label
_atom_site_type_symbol
_atom_site_fract_x
_atom_site_fract_y
_atom_site_fract_z
S1 S 0.40377(10) 0.32618(11) -0.07923(8)
S2 S 0.48295(10) 0.17362(11) 0.07918(8)
S3 S 0.67880(10) 0.32206(12) -0.07887(9)
S4 S 0.75759(10) 0.17806(13) 0.07884(9)
S5 S 0.32033(10) 0.46640(10) -0.22399(8)
S6 S 0.54438(11) 0.03353(10) 0.22390(8)
S7 S 0.84610(13) 0.03187(18) 0.22111(14)
S8 S 0.62525(14) 0.46808(18) -0.22122(14)
C1 C 0.5988(4) 0.1049(4) 0.1552(3)
C2 C 0.5693(4) 0.3944(4) -0.1544(3)
C3 C 0.7230(4) 0.1056(4) 0.1544(3)
C4 C 0.4434(4) 0.3956(4) -0.1554(3)
C5 C 0.5629(4) 0.2798(4) -0.0326(3)
C6 C 0.5952(4) 0.2193(4) 0.0324(3)
C7 C 0.5634(4) 0.1674(4) 0.3297(3)
C8 C 0.2341(4) 0.3325(4) -0.3296(3)
C9 C 0.5056(4) 0.1473(4) 0.3920(3)
C10 C 0.1134(4) 0.3532(5) -0.3920(3)
C11 C 0.9928(4) 0.0980(4) 0.2185(3)
C12 C 0.6319(5) 0.2861(4) 0.3497(3)
H1 H 0.6700 0.2984 0.3074
C13 C 0.7739(4) 0.4012(4) -0.2191(3)
C14 C 0.8989(5) 0.4662(5) -0.1566(4)
C15 C 0.2825(5) 0.2136(4) -0.3498(3)
H2 H 0.3626 0.2011 -0.3074
C16 C 1.0543(6) 0.2177(6) 0.2875(4)
H3 H 1.0140 0.2591 0.3308
C17 C 0.0569(5) 0.4790(5) -0.3706(4)
H4 H 0.1164 0.5387 -0.3108
H5 H -0.0280 0.4651 -0.3656
H6 H 0.0460 0.5141 -0.4215
C18 C 1.0558(6) 0.0336(5) 0.1569(4)
C19 C 0.5206(5) 0.2499(6) 0.4745(4)
H7 H 0.4826 0.2386 0.5171
C20 C 0.4282(5) 0.0200(5) 0.3705(4)
H8 H 0.3962 0.0251 0.4215
H9 H 0.4849 -0.0475 0.3655
H10 H 0.3540 0.0013 0.3108
C21 C 0.7664(7) 0.2814(6) -0.2874(4)
H11 H 0.6830 0.2387 -0.3299
C22 C 0.2119(6) 0.1142(5) -0.4326(4)
H12 H 0.2442 0.0343 -0.4461
C23 C 0.6436(6) 0.3861(5) 0.4325(4)
H13 H 0.6883 0.4663 0.4455
C24 C 0.0463(5) 0.2505(6) -0.4744(4)
H14 H -0.0340 0.2618 -0.5171
C25 C 1.0099(6) 0.4063(7) -0.1664(5)
H15 H 1.0946 0.4488 -0.1268
C26 C 0.5891(6) 0.3676(6) 0.4959(4)
H16 H 0.5988 0.4342 0.5526
C27 C 0.0932(6) 0.1324(6) -0.4958(4)
H17 H 0.0456 0.0655 -0.5522
C28 C 1.1770(6) 0.0943(7) 0.1669(5)
H18 H 1.2223 0.0522 0.1273
C29 C 0.9978(8) 0.2908(9) -0.2307(7)
H19 H 1.0741 0.2524 -0.2331
C30 C 1.2290(7) 0.2111(9) 0.2318(7)
H20 H 1.3081 0.2497 0.2348
C31 C 1.1685(8) 0.2757(8) 0.2944(6)
H21 H 1.2056 0.3567 0.3398
C32 C 1.0006(11) -0.0944(6) 0.0844(5)
H22 H 1.0588 -0.1227 0.0493
H23 H 0.9144 -0.0892 0.0406
H24 H 0.9925 -0.1552 0.1158
C33 C 0.8746(10) 0.2254(7) -0.2943(6)
H25 H 0.8672 0.1452 -0.3403
C34 C 0.9183(11) 0.5944(6) -0.0845(6)
H26 H 1.0118 0.6212 -0.0495
H27 H 0.8754 0.5906 -0.0406
H28 H 0.8803 0.6555 -0.1160
loop_
_geom_bond_atom_site_label_1
_geom_bond_atom_site_label_2
_geom_bond_site_symmetry_1
_geom_bond_site_symmetry_2
S1 C4 1_555 1_555
S2 C1 1_555 1_555
S3 C2 1_555 1_555
S4 C3 1_555 1_555
S5 C4 1_555 1_555
S6 C1 1_555 1_555
S7 C3 1_555 1_555
S8 C2 1_555 1_555
C1 C3 1_555 1_555
C2 C4 1_555 1_555
C5 S1 1_555 1_555
C6 S2 1_555 1_555
C7 S6 1_555 1_555
C8 S5 1_555 1_555
C9 C7 1_555 1_555
C10 C8 1_555 1_555
C11 S7 1_555 1_555
C12 C7 1_555 1_555
H1 C12 1_555 1_555
C13 S8 1_555 1_555
C14 C13 1_555 1_555
C15 C8 1_555 1_555
H2 C15 1_555 1_555
C16 C11 1_555 1_555
H3 C16 1_555 1_555
C17 C10 1_555 1_555
H4 C17 1_555 1_555
H5 C17 1_555 1_555
H6 C17 1_555 1_555
C18 C11 1_555 1_555
C19 C9 1_555 1_555
H7 C19 1_555 1_555
C20 C9 1_555 1_555
H8 C20 1_555 1_555
H9 C20 1_555 1_555
H10 C20 1_555 1_555
C21 C13 1_555 1_555
H11 C21 1_555 1_555
C22 C15 1_555 1_555
H12 C22 1_555 1_555
C23 C12 1_555 1_555
H13 C23 1_555 1_555
C24 C10 1_555 1_555
H14 C24 1_555 1_555
C25 C14 1_555 1_555
H15 C25 1_555 1_555
C26 C19 1_555 1_555
H16 C26 1_555 1_555
C27 C22 1_555 1_555
H17 C27 1_555 1_555
C28 C18 1_555 1_555
H18 C28 1_555 1_555
C29 C25 1_555 1_555
H19 C29 1_555 1_555
C30 C28 1_555 1_555
H20 C30 1_555 1_555
C31 C16 1_555 1_555
H21 C31 1_555 1_555
C32 C18 1_555 1_555
H22 C32 1_555 1_555
H23 C32 1_555 1_555
H24 C32 1_555 1_555
C33 C21 1_555 1_555
H25 C33 1_555 1_555
C34 C14 1_555 1_555
H26 C34 1_555 1_555
H27 C34 1_555 1_555
H28 C34 1_555 1_555
S3 C5 1_555 1_555
S4 C6 1_555 1_555
C5 C6 1_555 1_555
C23 C26 1_555 1_555
C24 C27 1_555 1_555
C29 C33 1_555 1_555
C30 C31 1_555 1_555

#END
