
#######################################################################
#
#                 Cambridge Crystallographic Data Centre
#                                CCDC 
#
#######################################################################
#
# If this CIF has been generated from an entry in the Cambridge 
# Structural Database, then it will include bibliographic, chemical, 
# crystal, experimental, refinement or atomic coordinate data resulting 
# from the CCDC's data processing and validation procedures.
#
#######################################################################

data_KIGZEH
_chemical_name_common            TTF-1
_chemical_formula_moiety         'C30 H20 S8'
_chemical_name_systematic        
2-(4,5-bis(phenylsulfanyl)-1,3-dithiol-2-ylidene)-4,5-bis(phenylsulfanyl)-1,3-dithiole
_symmetry_cell_setting           monoclinic
_symmetry_space_group_name_H-M   'P 21/n'
_symmetry_Int_Tables_number      14
_space_group_name_Hall           '-P 2yn'
loop_
_symmetry_equiv_pos_site_id
_symmetry_equiv_pos_as_xyz
1 x,y,z
2 1/2-x,1/2+y,1/2-z
3 -x,-y,-z
4 1/2+x,1/2-y,1/2+z
_cell_length_a                   8.871(16)
_cell_length_b                   9.256(17)
_cell_length_c                   17.36(3)
_cell_angle_alpha                90
_cell_angle_beta                 95.636(19)
_cell_angle_gamma                90
_cell_volume                     1418.54
_exptl_crystal_colour            red
_exptl_crystal_description       block
_chemical_melting_point          '442 K'
_cell_formula_units_Z            2
loop_
_atom_site_label
_atom_site_type_symbol
_atom_site_fract_x
_atom_site_fract_y
_atom_site_fract_z
C1 C 0.5681(3) 0.0300(3) 0.00401(16)
C2 C 0.8223(3) 0.1394(3) -0.02258(18)
C3 C 0.7949(3) 0.1933(3) 0.04539(18)
C4 C 0.9180(3) 0.1767(3) -0.16420(18)
C5 C 0.8051(4) 0.2688(4) -0.1916(2)
H1 H 0.7609 0.3299 -0.1577
C6 C 0.7574(5) 0.2713(4) -0.2684(2)
H2 H 0.6781 0.3320 -0.2864
C7 C 0.8238(4) 0.1864(4) -0.3188(2)
H3 H 0.7912 0.1894 -0.3714
C8 C 0.9379(4) 0.0974(4) -0.2922(2)
H4 H 0.9848 0.0397 -0.3267
C9 C 0.9849(4) 0.0917(4) -0.2149(2)
H5 H 1.0628 0.0295 -0.1969
C10 C 0.8073(3) 0.4594(3) 0.11196(18)
C11 C 0.7163(4) 0.5147(4) 0.0511(2)
H6 H 0.7083 0.4679 0.0035
C12 C 0.6373(5) 0.6387(4) 0.0603(2)
H7 H 0.5745 0.6760 0.0190
C13 C 0.6500(5) 0.7083(4) 0.1299(3)
H8 H 0.5958 0.7928 0.1361
C14 C 0.7416(5) 0.6543(4) 0.1900(2)
H9 H 0.7511 0.7026 0.2372
C15 C 0.8197(4) 0.5300(4) 0.18166(19)
H10 H 0.8815 0.4927 0.2233
S1 S 0.69563(10) 0.01441(10) -0.06530(5)
S2 S 0.63356(10) 0.13132(9) 0.08505(5)
S3 S 0.98699(10) 0.17228(12) -0.06550(5)
S4 S 0.91701(10) 0.30337(10) 0.10211(6)
C1B C 0.4319(3) -0.0300(3) -0.00401(16)
C2B C 0.1777(3) -0.1394(3) 0.02258(18)
C3B C 0.2051(3) -0.1933(3) -0.04539(18)
C4B C 0.0820(3) -0.1767(3) 0.16420(18)
C5B C 0.1949(4) -0.2688(4) 0.1916(2)
H1B H 0.2391 -0.3299 0.1577
C6B C 0.2426(5) -0.2713(4) 0.2684(2)
H2B H 0.3219 -0.3320 0.2864
C7B C 0.1762(4) -0.1864(4) 0.3188(2)
H3B H 0.2088 -0.1894 0.3714
C8B C 0.0621(4) -0.0974(4) 0.2922(2)
H4B H 0.0152 -0.0397 0.3267
C9B C 0.0151(4) -0.0917(4) 0.2149(2)
H5B H -0.0628 -0.0295 0.1969
C10B C 0.1927(3) -0.4594(3) -0.11196(18)
C11B C 0.2837(4) -0.5147(4) -0.0511(2)
H6B H 0.2917 -0.4679 -0.0035
C12B C 0.3627(5) -0.6387(4) -0.0603(2)
H7B H 0.4255 -0.6760 -0.0190
C13B C 0.3500(5) -0.7083(4) -0.1299(3)
H8B H 0.4042 -0.7928 -0.1361
C14B C 0.2584(5) -0.6543(4) -0.1900(2)
H9B H 0.2489 -0.7026 -0.2372
C15B C 0.1803(4) -0.5300(4) -0.18166(19)
H10B H 0.1185 -0.4927 -0.2233
S1B S 0.30437(10) -0.01441(10) 0.06530(5)
S2B S 0.36644(10) -0.13132(9) -0.08505(5)
S3B S 0.01301(10) -0.17228(12) 0.06550(5)
S4B S 0.08299(10) -0.30337(10) -0.10211(6)
loop_
_geom_bond_atom_site_label_1
_geom_bond_atom_site_label_2
_geom_bond_site_symmetry_1
_geom_bond_site_symmetry_2
C1 S1 1_555 1_555
C2 C3 1_555 1_555
C3 S2 1_555 1_555
C4 C5 1_555 1_555
C5 H1 1_555 1_555
C6 C5 1_555 1_555
H2 C6 1_555 1_555
C7 C6 1_555 1_555
H3 C7 1_555 1_555
C8 C7 1_555 1_555
H4 C8 1_555 1_555
C9 C4 1_555 1_555
H5 C9 1_555 1_555
C10 C11 1_555 1_555
C11 H6 1_555 1_555
C12 C11 1_555 1_555
H7 C12 1_555 1_555
C13 C12 1_555 1_555
H8 C13 1_555 1_555
C14 C13 1_555 1_555
H9 C14 1_555 1_555
C15 C10 1_555 1_555
H10 C15 1_555 1_555
S1 C2 1_555 1_555
S2 C1 1_555 1_555
S3 C2 1_555 1_555
S4 C3 1_555 1_555
C1B C1 1_555 1_555
C2B C3B 1_555 1_555
C3B S2B 1_555 1_555
C4B C5B 1_555 1_555
C5B H1B 1_555 1_555
C6B C5B 1_555 1_555
H2B C6B 1_555 1_555
C7B C6B 1_555 1_555
H3B C7B 1_555 1_555
C8B C7B 1_555 1_555
H4B C8B 1_555 1_555
C9B C4B 1_555 1_555
H5B C9B 1_555 1_555
C10B C11B 1_555 1_555
C11B H6B 1_555 1_555
C12B C11B 1_555 1_555
H7B C12B 1_555 1_555
C13B C12B 1_555 1_555
H8B C13B 1_555 1_555
C14B C13B 1_555 1_555
H9B C14B 1_555 1_555
C15B C10B 1_555 1_555
H10B C15B 1_555 1_555
S1B C1B 1_555 1_555
S2B C1B 1_555 1_555
S3B C2B 1_555 1_555
S4B C3B 1_555 1_555
C4 S3 1_555 1_555
C8 C9 1_555 1_555
C10 S4 1_555 1_555
C14 C15 1_555 1_555
C2B S1B 1_555 1_555
C4B S3B 1_555 1_555
C8B C9B 1_555 1_555
C10B S4B 1_555 1_555
C14B C15B 1_555 1_555

#END
