
#######################################################################
#
#                 Cambridge Crystallographic Data Centre
#                                CCDC 
#
#######################################################################
#
# If this CIF has been generated from an entry in the Cambridge 
# Structural Database, then it will include bibliographic, chemical, 
# crystal, experimental, refinement or atomic coordinate data resulting 
# from the CCDC's data processing and validation procedures.
#
#######################################################################

data_KIHCAH
_chemical_formula_moiety         'C26 H23 N3 O2'
_chemical_name_systematic        
'Ethyl (4-(4-methylphenyl)-2-phenyl-3H-1,3,8b-triazaacenaphthylen-3-yl)acetate'
_symmetry_cell_setting           monoclinic
_symmetry_space_group_name_H-M   'C 2/c'
_symmetry_Int_Tables_number      15
_space_group_name_Hall           '-C 2yn'
loop_
_symmetry_equiv_pos_site_id
_symmetry_equiv_pos_as_xyz
1 x,y,z
2 -x,y,1/2-z
3 1/2+x,1/2+y,z
4 1/2-x,1/2+y,1/2-z
5 -x,-y,-z
6 x,-y,1/2+z
7 1/2-x,1/2-y,-z
8 1/2+x,1/2-y,1/2+z
_cell_length_a                   14.41520(10)
_cell_length_b                   15.5893(2)
_cell_length_c                   18.6579(2)
_cell_angle_alpha                90
_cell_angle_beta                 93.6050(10)
_cell_angle_gamma                90
_cell_volume                     4184.56
_exptl_crystal_colour            red
_exptl_crystal_description       block
_cell_formula_units_Z            8
loop_
_atom_site_label
_atom_site_type_symbol
_atom_site_fract_x
_atom_site_fract_y
_atom_site_fract_z
O1 O 0.26536(5) 0.06856(6) 0.52557(4)
O2 O 0.37500(5) -0.00628(6) 0.47126(4)
N1 N 0.39170(6) 0.08440(6) 0.64752(4)
N2 N 0.27603(6) -0.10814(6) 0.71152(5)
N3 N 0.26356(6) 0.03448(6) 0.71188(4)
C1 C 0.58748(9) 0.44936(9) 0.57128(7)
H1 H 0.6507 0.4402 0.5890
H2 H 0.5648 0.5017 0.5909
H3 H 0.5847 0.4533 0.5198
C2 C 0.52834(8) 0.37558(8) 0.59330(6)
C3 C 0.56697(7) 0.30914(8) 0.63538(6)
H4 H 0.6299 0.3106 0.6499
C4 C 0.51287(7) 0.24104(7) 0.65591(6)
H5 H 0.5400 0.1967 0.6832
C5 C 0.41783(7) 0.23840(7) 0.63586(5)
C6 C 0.35948(7) 0.16796(7) 0.66136(5)
C7 C 0.34305(7) 0.01606(7) 0.67772(5)
C8 C 0.35066(7) -0.07204(7) 0.67804(5)
C9 C 0.42238(7) -0.12740(7) 0.64926(5)
C10 C 0.51702(7) -0.10879(8) 0.66006(6)
H6 H 0.5357 -0.0596 0.6852
C11 C 0.58354(8) -0.16278(8) 0.63381(6)
H7 H 0.6463 -0.1497 0.6417
C12 C 0.55674(9) -0.23608(9) 0.59587(6)
H8 H 0.6012 -0.2722 0.5781
C13 C 0.39633(8) -0.20175(8) 0.61136(6)
H9 H 0.3337 -0.2156 0.6040
C14 C 0.46279(10) -0.25500(9) 0.58465(7)
H10 H 0.4444 -0.3039 0.5590
C15 C 0.22549(7) -0.04281(8) 0.73187(5)
C16 C 0.22810(7) 0.11482(7) 0.72473(5)
C17 C 0.28431(7) 0.18386(8) 0.69921(6)
H11 H 0.2685 0.2403 0.7090
C18 C 0.42398(7) 0.06629(7) 0.57620(5)
H12 H 0.4674 0.0187 0.5795
H13 H 0.4566 0.1160 0.5593
C19 C 0.34383(7) 0.04419(7) 0.52244(5)
C20 C 0.30725(9) -0.03731(9) 0.41613(6)
H14 H 0.3350 -0.0390 0.3701
H15 H 0.2544 0.0013 0.4120
C21 C 0.27577(10) -0.12528(9) 0.43564(7)
H16 H 0.3288 -0.1624 0.4425
H17 H 0.2345 -0.1474 0.3977
H18 H 0.2439 -0.1225 0.4792
C22 C 0.43395(8) 0.37127(8) 0.57188(6)
H19 H 0.4073 0.4144 0.5429
C23 C 0.37909(7) 0.30395(7) 0.59299(6)
H20 H 0.3162 0.3025 0.5785
C24 C 0.14847(7) 0.11807(8) 0.76078(6)
H21 H 0.1213 0.1707 0.7702
C25 C 0.10716(8) 0.04049(9) 0.78396(6)
H22 H 0.0538 0.0438 0.8094
C26 C 0.14281(8) -0.03785(8) 0.77021(6)
H23 H 0.1140 -0.0874 0.7854
loop_
_geom_bond_atom_site_label_1
_geom_bond_atom_site_label_2
_geom_bond_site_symmetry_1
_geom_bond_site_symmetry_2
O1 C19 1_555 1_555
O2 C19 1_555 1_555
N1 C6 1_555 1_555
N2 C8 1_555 1_555
N3 C7 1_555 1_555
C1 H1 1_555 1_555
H2 C1 1_555 1_555
H3 C1 1_555 1_555
C2 C1 1_555 1_555
C3 C2 1_555 1_555
H4 C3 1_555 1_555
C4 C3 1_555 1_555
H5 C4 1_555 1_555
C5 C4 1_555 1_555
C6 C5 1_555 1_555
C7 N1 1_555 1_555
C8 C7 1_555 1_555
C9 C8 1_555 1_555
C10 C9 1_555 1_555
H6 C10 1_555 1_555
C11 C10 1_555 1_555
H7 C11 1_555 1_555
C12 C11 1_555 1_555
H8 C12 1_555 1_555
C13 C9 1_555 1_555
H9 C13 1_555 1_555
C14 C12 1_555 1_555
H10 C14 1_555 1_555
C15 N2 1_555 1_555
C16 N3 1_555 1_555
C17 C6 1_555 1_555
H11 C17 1_555 1_555
C18 N1 1_555 1_555
H12 C18 1_555 1_555
H13 C18 1_555 1_555
C19 C18 1_555 1_555
C20 O2 1_555 1_555
H14 C20 1_555 1_555
H15 C20 1_555 1_555
C21 C20 1_555 1_555
H16 C21 1_555 1_555
H17 C21 1_555 1_555
H18 C21 1_555 1_555
C22 C2 1_555 1_555
H19 C22 1_555 1_555
C23 C5 1_555 1_555
H20 C23 1_555 1_555
C24 C16 1_555 1_555
H21 C24 1_555 1_555
C25 C24 1_555 1_555
H22 C25 1_555 1_555
C26 C15 1_555 1_555
H23 C26 1_555 1_555
N3 C15 1_555 1_555
C13 C14 1_555 1_555
C16 C17 1_555 1_555
C22 C23 1_555 1_555
C25 C26 1_555 1_555

#END
