
#######################################################################
#
#                 Cambridge Crystallographic Data Centre
#                                CCDC 
#
#######################################################################
#
# If this CIF has been generated from an entry in the Cambridge 
# Structural Database, then it will include bibliographic, chemical, 
# crystal, experimental, refinement or atomic coordinate data resulting 
# from the CCDC's data processing and validation procedures.
#
#######################################################################

data_KIHGOA
_chemical_formula_moiety         'C22 H19 N1 O2'
_chemical_name_systematic        
N-methyl-N-[(3-oxo-2,3-dihydro-1H-cyclopenta[a]naphthalen-1-yl)methyl]benzamide
_symmetry_cell_setting           monoclinic
_symmetry_space_group_name_H-M   'P 21/c'
_symmetry_Int_Tables_number      14
_space_group_name_Hall           '-P 2ybc'
loop_
_symmetry_equiv_pos_site_id
_symmetry_equiv_pos_as_xyz
1 x,y,z
2 -x,1/2+y,1/2-z
3 -x,-y,-z
4 x,1/2-y,1/2+z
_cell_length_a                   10.0592(6)
_cell_length_b                   19.9716(9)
_cell_length_c                   9.5035(5)
_cell_angle_alpha                90
_cell_angle_beta                 117.478(7)
_cell_angle_gamma                90
_cell_volume                     1693.85
_exptl_crystal_colour            'light yellow'
_exptl_crystal_description       block
_cell_formula_units_Z            4
loop_
_atom_site_label
_atom_site_type_symbol
_atom_site_fract_x
_atom_site_fract_y
_atom_site_fract_z
C1 C 0.5988(3) 0.71679(11) 0.8756(3)
H1 H 0.538732 0.738673 0.780868
C2 C 0.7509(3) 0.71018(13) 0.9254(3)
H2 H 0.792927 0.727558 0.864237
C3 C 0.8404(3) 0.67765(13) 1.0666(3)
H3 H 0.942964 0.673981 1.101140
C4 C 0.7776(3) 0.65054(13) 1.1566(3)
H4 H 0.837338 0.627842 1.250195
C5 C 0.6261(2) 0.65747(11) 1.1063(2)
H5 H 0.584050 0.639504 1.166903
C6 C 0.5355(2) 0.69090(9) 0.9665(2)
C7 C 0.3731(2) 0.70388(10) 0.9187(2)
C8 C 0.1157(2) 0.66981(12) 0.8017(3)
H6 H 0.109915 0.694917 0.884882
H7 H 0.060928 0.628729 0.785144
H8 H 0.073356 0.695620 0.705689
C9 C 0.3123(2) 0.58926(10) 0.8090(2)
H9 H 0.241601 0.556325 0.809387
H10 H 0.410879 0.577005 0.891626
C10 C 0.3135(2) 0.58651(10) 0.6472(2)
H11 H 0.376144 0.622625 0.640133
C11 C 0.1540(2) 0.59063(11) 0.5056(2)
H12 H 0.089998 0.627371 0.475518
C12 C 0.1234(2) 0.52247(11) 0.4258(2)
C13 C 0.2619(2) 0.48294(10) 0.5022(2)
C14 C 0.2888(2) 0.41833(10) 0.4605(2)
H13 H 0.213144 0.394830 0.377847
C15 C 0.4271(2) 0.39126(10) 0.5435(2)
H14 H 0.446046 0.348719 0.517189
C16 C 0.5443(2) 0.42685(10) 0.6708(2)
C17 C 0.6884(2) 0.39854(11) 0.7579(2)
H15 H 0.707265 0.355557 0.733845
C18 C 0.8002(2) 0.43373(11) 0.8769(2)
H16 H 0.894446 0.414433 0.933065
C19 C 0.7746(2) 0.49872(11) 0.9154(2)
H17 H 0.851873 0.522321 0.996183
C20 C 0.6365(2) 0.52725(10) 0.8345(2)
H18 H 0.620848 0.570405 0.860476
C21 C 0.5169(2) 0.49243(10) 0.7118(2)
C22 C 0.3709(2) 0.51924(10) 0.6240(2)
N1 N 0.27235(18) 0.65486(9) 0.84665(19)
O1 O 0.00450(16) 0.50493(8) 0.31675(16)
O2 O 0.33660(18) 0.75910(8) 0.9480(2)
loop_
_geom_bond_atom_site_label_1
_geom_bond_atom_site_label_2
_geom_bond_site_symmetry_1
_geom_bond_site_symmetry_2
C1 H1 1_555 1_555
C2 C1 1_555 1_555
H2 C2 1_555 1_555
C3 C2 1_555 1_555
H3 C3 1_555 1_555
C4 C3 1_555 1_555
H4 C4 1_555 1_555
C5 C4 1_555 1_555
H5 C5 1_555 1_555
C6 C1 1_555 1_555
C7 C6 1_555 1_555
C8 H6 1_555 1_555
H7 C8 1_555 1_555
H8 C8 1_555 1_555
C9 H9 1_555 1_555
H10 C9 1_555 1_555
C10 C9 1_555 1_555
H11 C10 1_555 1_555
C11 C10 1_555 1_555
H12 C11 1_555 1_555
C12 C11 1_555 1_555
C13 C12 1_555 1_555
C14 C13 1_555 1_555
H13 C14 1_555 1_555
C15 C14 1_555 1_555
H14 C15 1_555 1_555
C16 C15 1_555 1_555
C17 C16 1_555 1_555
H15 C17 1_555 1_555
C18 C17 1_555 1_555
H16 C18 1_555 1_555
C19 C18 1_555 1_555
H17 C19 1_555 1_555
C20 C19 1_555 1_555
H18 C20 1_555 1_555
C21 C16 1_555 1_555
C22 C10 1_555 1_555
N1 C7 1_555 1_555
O1 C12 1_555 1_555
O2 C7 1_555 1_555
C5 C6 1_555 1_555
C8 N1 1_555 1_555
C9 N1 1_555 1_555
C13 C22 1_555 1_555
C20 C21 1_555 1_555
C21 C22 1_555 1_555

#END
