
#######################################################################
#
#                 Cambridge Crystallographic Data Centre
#                                CCDC 
#
#######################################################################
#
# If this CIF has been generated from an entry in the Cambridge 
# Structural Database, then it will include bibliographic, chemical, 
# crystal, experimental, refinement or atomic coordinate data resulting 
# from the CCDC's data processing and validation procedures.
#
#######################################################################

data_KIHGIU
_chemical_formula_moiety         'C22 H19 N1 O2'
_chemical_name_systematic        
2-methyl-4-[2-(naphthalen-2-yl)-2-oxoethyl]-3,4-dihydroisoquinolin-1(2H)-one
_symmetry_cell_setting           monoclinic
_symmetry_space_group_name_H-M   'P 21/c'
_symmetry_Int_Tables_number      14
_space_group_name_Hall           '-P 2ybc'
loop_
_symmetry_equiv_pos_site_id
_symmetry_equiv_pos_as_xyz
1 x,y,z
2 -x,1/2+y,1/2-z
3 -x,-y,-z
4 x,1/2-y,1/2+z
_cell_length_a                   12.4405(3)
_cell_length_b                   7.18600(10)
_cell_length_c                   18.7293(4)
_cell_angle_alpha                90
_cell_angle_beta                 97.191(2)
_cell_angle_gamma                90
_cell_volume                     1661.18
_exptl_crystal_colour            colorless
_exptl_crystal_description       block
_cell_formula_units_Z            4
loop_
_atom_site_label
_atom_site_type_symbol
_atom_site_fract_x
_atom_site_fract_y
_atom_site_fract_z
O1 O 0.49726(10) 0.97305(19) 0.69544(7)
O2 O 0.00139(10) 0.6921(2) 0.61227(7)
N1 N 0.12731(12) 0.6692(2) 0.71050(8)
C1 C 0.57562(18) 0.2415(3) 0.55090(11)
H1 H 0.506596 0.192503 0.551667
C2 C 0.6525(2) 0.1407(3) 0.52185(11)
H2 H 0.635071 0.023783 0.502437
C3 C 0.75772(18) 0.2117(3) 0.52098(10)
H3 H 0.809355 0.140723 0.501471
C4 C 0.78461(17) 0.3826(3) 0.54830(10)
H4 H 0.854418 0.428110 0.547418
C5 C 0.70592(15) 0.4932(3) 0.57847(9)
C6 C 0.60069(14) 0.4197(3) 0.57969(9)
C7 C 0.52353(14) 0.5286(3) 0.61129(9)
H5 H 0.454054 0.481960 0.612520
C8 C 0.54927(13) 0.6999(2) 0.63979(9)
C9 C 0.65520(15) 0.7709(3) 0.63752(11)
H6 H 0.673026 0.887878 0.656704
C10 C 0.73131(15) 0.6708(3) 0.60775(11)
H7 H 0.800286 0.719827 0.606755
C11 C 0.47120(14) 0.8169(2) 0.67461(9)
C12 C 0.36167(13) 0.7361(2) 0.68513(9)
H8 H 0.372770 0.623987 0.713942
H9 H 0.324049 0.701129 0.638564
C13 C 0.28969(13) 0.8703(3) 0.72186(9)
H10 H 0.336109 0.944740 0.757126
C14 C 0.22745(14) 1.0006(2) 0.66861(9)
C15 C 0.26838(15) 1.1703(3) 0.64951(10)
H11 H 0.336184 1.209234 0.670827
C16 C 0.20851(16) 1.2832(3) 0.59851(11)
H12 H 0.237287 1.395665 0.585256
C17 C 0.10672(16) 1.2288(3) 0.56763(10)
H13 H 0.066468 1.305680 0.534423
C18 C 0.06463(15) 1.0596(3) 0.58614(9)
H14 H -0.004038 1.023192 0.565501
C19 C 0.12484(13) 0.9441(3) 0.63551(9)
C20 C 0.07923(13) 0.7590(3) 0.65176(9)
C21 C 0.07887(17) 0.5013(3) 0.73550(11)
H15 H 0.039315 0.531333 0.774809
H16 H 0.134831 0.413165 0.751314
H17 H 0.030445 0.448288 0.696893
C22 C 0.20812(14) 0.7649(3) 0.76114(10)
H18 H 0.246151 0.674444 0.793463
H19 H 0.171881 0.851579 0.789841
loop_
_geom_bond_atom_site_label_1
_geom_bond_atom_site_label_2
_geom_bond_site_symmetry_1
_geom_bond_site_symmetry_2
O1 C11 1_555 1_555
O2 C20 1_555 1_555
N1 C20 1_555 1_555
C1 H1 1_555 1_555
C2 C1 1_555 1_555
H2 C2 1_555 1_555
C3 C2 1_555 1_555
H3 C3 1_555 1_555
C4 C3 1_555 1_555
H4 C4 1_555 1_555
C5 C4 1_555 1_555
C6 C1 1_555 1_555
C7 C6 1_555 1_555
H5 C7 1_555 1_555
C8 C7 1_555 1_555
C9 C8 1_555 1_555
H6 C9 1_555 1_555
C10 C5 1_555 1_555
H7 C10 1_555 1_555
C11 C8 1_555 1_555
C12 C11 1_555 1_555
H8 C12 1_555 1_555
H9 C12 1_555 1_555
C13 C12 1_555 1_555
H10 C13 1_555 1_555
C14 C13 1_555 1_555
C15 C14 1_555 1_555
H11 C15 1_555 1_555
C16 C15 1_555 1_555
H12 C16 1_555 1_555
C17 C16 1_555 1_555
H13 C17 1_555 1_555
C18 C17 1_555 1_555
H14 C18 1_555 1_555
C19 C14 1_555 1_555
C20 C19 1_555 1_555
C21 N1 1_555 1_555
H15 C21 1_555 1_555
H16 C21 1_555 1_555
H17 C21 1_555 1_555
C22 N1 1_555 1_555
H18 C22 1_555 1_555
H19 C22 1_555 1_555
C5 C6 1_555 1_555
C9 C10 1_555 1_555
C13 C22 1_555 1_555
C18 C19 1_555 1_555

#END
