
#######################################################################
#
#                 Cambridge Crystallographic Data Centre
#                                CCDC 
#
#######################################################################
#
# If this CIF has been generated from an entry in the Cambridge 
# Structural Database, then it will include bibliographic, chemical, 
# crystal, experimental, refinement or atomic coordinate data resulting 
# from the CCDC's data processing and validation procedures.
#
#######################################################################

data_KIHJER
_chemical_formula_moiety         'C22 H31 N1 O3 Si1'
_chemical_name_systematic        
exo-3-(((1S,2S,5S,6R)-5,6-Dimethyl-2-phenyl-4-((trimethylsilyl)methyl)cyclohex-3-en-1-yl)carbonyl)-1,3-oxazolidin-2-one
_symmetry_cell_setting           orthorhombic
_symmetry_space_group_name_H-M   'P 21 21 21'
_symmetry_Int_Tables_number      19
_space_group_name_Hall           'P 2ac 2ab'
loop_
_symmetry_equiv_pos_site_id
_symmetry_equiv_pos_as_xyz
1 x,y,z
2 1/2+x,1/2-y,-z
3 -x,1/2+y,1/2-z
4 1/2-x,-y,1/2+z
_cell_length_a                   6.3892(2)
_cell_length_b                   10.9358(2)
_cell_length_c                   30.3766(6)
_cell_angle_alpha                90
_cell_angle_beta                 90
_cell_angle_gamma                90
_cell_volume                     2122.44
_exptl_crystal_colour            colorless
_chemical_melting_point          '113 deg.C'
_cell_formula_units_Z            4
_exptl_crystal_recrystallization_method 'ethyl acetate'
loop_
_atom_site_label
_atom_site_type_symbol
_atom_site_fract_x
_atom_site_fract_y
_atom_site_fract_z
C1 C 0.1787(4) 0.6627(2) 0.60852(7)
C2 C 0.1722(4) 0.7743(2) 0.63931(8)
C3 C 0.3061(5) 0.7458(2) 0.68016(8)
C4 C 0.2491(4) 0.6227(2) 0.69997(8)
C5 C 0.1391(4) 0.5411(2) 0.67773(8)
C6 C 0.0613(4) 0.5550(2) 0.63091(8)
C7 C 0.0744(4) 0.6851(2) 0.56444(8)
O1 O -0.0872(3) 0.74266(16) 0.56053(6)
N1 N 0.1583(3) 0.62760(18) 0.52751(6)
C8 C 0.3500(4) 0.5687(2) 0.52244(8)
O2 O 0.5004(3) 0.57209(18) 0.54583(6)
O3 O 0.3480(3) 0.50629(17) 0.48429(6)
C9 C 0.1466(5) 0.5156(3) 0.46330(9)
C10 C 0.0339(4) 0.6191(2) 0.48698(8)
C11 C 0.2384(5) 0.8932(2) 0.61686(9)
C12 C 0.5433(5) 0.7532(3) 0.67139(10)
C13 C 0.3216(4) 0.5968(2) 0.74652(8)
Si1 Si 0.19682(11) 0.68689(7) 0.79264(2)
C14 C 0.2531(5) 0.6035(3) 0.84485(9)
C15 C -0.0916(4) 0.6913(3) 0.78391(10)
C16 C 0.3095(4) 0.8441(2) 0.79708(9)
C17 C 0.0837(4) 0.4366(2) 0.60521(8)
C18 C 0.2695(4) 0.3696(2) 0.60698(8)
C19 C 0.2936(5) 0.2632(3) 0.58217(9)
C20 C 0.1319(5) 0.2223(2) 0.55562(9)
C21 C -0.0527(5) 0.2881(2) 0.55343(8)
C22 C -0.0773(4) 0.3948(2) 0.57808(9)
H1 H 0.3299 0.6445 0.6031
H2 H 0.0237 0.7889 0.6483
H3 H 0.2728 0.8115 0.7020
H4 H 0.1041 0.4631 0.6932
H5 H -0.0917 0.5742 0.6314
H6 H 0.0671 0.4374 0.4665
H7 H 0.1633 0.5353 0.4313
H8 H -0.1152 0.5976 0.4934
H9 H 0.0392 0.6968 0.4697
H10 H 0.2308 0.9620 0.6385
H11 H 0.3851 0.8850 0.6058
H12 H 0.1425 0.9104 0.5916
H13 H 0.6213 0.7338 0.6991
H14 H 0.5803 0.8376 0.6614
H15 H 0.5823 0.6929 0.6480
H16 H 0.4756 0.6129 0.7476
H17 H 0.2948 0.5082 0.7525
H18 H 0.1893 0.6486 0.8701
H19 H 0.4080 0.5977 0.8492
H20 H 0.1923 0.5193 0.8432
H21 H -0.1588 0.7389 0.8082
H22 H -0.1481 0.6060 0.7838
H23 H -0.1228 0.7314 0.7550
H24 H 0.2399 0.8889 0.8218
H25 H 0.4632 0.8383 0.8030
H26 H 0.2858 0.8892 0.7689
H27 H 0.3866 0.3982 0.6262
H28 H 0.4278 0.2163 0.5836
H29 H 0.1485 0.1455 0.5381
H30 H -0.1691 0.2591 0.5341
H31 H -0.2115 0.4417 0.5763
loop_
_geom_bond_atom_site_label_1
_geom_bond_atom_site_label_2
_geom_bond_site_symmetry_1
_geom_bond_site_symmetry_2
C1 C2 1_555 1_555
C2 C3 1_555 1_555
C3 C4 1_555 1_555
C4 C5 1_555 1_555
C5 C6 1_555 1_555
C6 C1 1_555 1_555
C7 C1 1_555 1_555
O1 C7 1_555 1_555
N1 C7 1_555 1_555
C8 N1 1_555 1_555
O2 C8 1_555 1_555
O3 C8 1_555 1_555
C9 O3 1_555 1_555
C10 N1 1_555 1_555
C11 C2 1_555 1_555
C12 C3 1_555 1_555
C13 C4 1_555 1_555
Si1 C13 1_555 1_555
C14 Si1 1_555 1_555
C15 Si1 1_555 1_555
C16 Si1 1_555 1_555
C17 C6 1_555 1_555
C18 C17 1_555 1_555
C19 C18 1_555 1_555
C20 C19 1_555 1_555
C21 C20 1_555 1_555
C22 C17 1_555 1_555
H1 C1 1_555 1_555
H2 C2 1_555 1_555
H3 C3 1_555 1_555
H4 C5 1_555 1_555
H5 C6 1_555 1_555
H6 C9 1_555 1_555
H7 C9 1_555 1_555
H8 C10 1_555 1_555
H9 C10 1_555 1_555
H10 C11 1_555 1_555
H11 C11 1_555 1_555
H12 C11 1_555 1_555
H13 C12 1_555 1_555
H14 C12 1_555 1_555
H15 C12 1_555 1_555
H16 C13 1_555 1_555
H17 C13 1_555 1_555
H18 C14 1_555 1_555
H19 C14 1_555 1_555
H20 C14 1_555 1_555
H21 C15 1_555 1_555
H22 C15 1_555 1_555
H23 C15 1_555 1_555
H24 C16 1_555 1_555
H25 C16 1_555 1_555
H26 C16 1_555 1_555
H27 C18 1_555 1_555
H28 C19 1_555 1_555
H29 C20 1_555 1_555
H30 C21 1_555 1_555
H31 C22 1_555 1_555
C9 C10 1_555 1_555
C21 C22 1_555 1_555

#END
