
#######################################################################
#
#                 Cambridge Crystallographic Data Centre
#                                CCDC 
#
#######################################################################
#
# If this CIF has been generated from an entry in the Cambridge 
# Structural Database, then it will include bibliographic, chemical, 
# crystal, experimental, refinement or atomic coordinate data resulting 
# from the CCDC's data processing and validation procedures.
#
#######################################################################

data_KIHJAN
_chemical_formula_moiety         'C18 H20 F1 N1 O3'
_chemical_name_systematic        
anti,syn,syn-3-(((1S,2S,3R,5S)-3-Fluoro-5-methyl-4-methylene-2-phenylcyclohexyl)carbonyl)-1,3-oxazolidin-2-one
_symmetry_cell_setting           monoclinic
_symmetry_space_group_name_H-M   'P 21'
_symmetry_Int_Tables_number      4
_space_group_name_Hall           'P 2yb'
loop_
_symmetry_equiv_pos_site_id
_symmetry_equiv_pos_as_xyz
1 x,y,z
2 -x,1/2+y,-z
_cell_length_a                   5.64740(10)
_cell_length_b                   15.9986(4)
_cell_length_c                   17.2701(5)
_cell_angle_alpha                90
_cell_angle_beta                 90.5812(9)
_cell_angle_gamma                90
_cell_volume                     1560.28
_exptl_crystal_colour            colorless
_exptl_crystal_description       plate
_cell_formula_units_Z            4
_exptl_crystal_recrystallization_method 'ethyl acetate'
loop_
_atom_site_label
_atom_site_type_symbol
_atom_site_fract_x
_atom_site_fract_y
_atom_site_fract_z
C1 C 1.1066(3) 0.50134(13) 0.06842(11)
C2 C 1.0633(4) 0.50443(13) -0.01955(11)
C3 C 1.1456(4) 0.58752(13) -0.05225(11)
N1 N 1.0540(3) 0.61159(12) -0.12466(10)
C4 C 0.8336(4) 0.59284(15) -0.15670(12)
O1 O 0.8070(3) 0.63520(12) -0.22371(8)
C5 C 1.0297(4) 0.67491(18) -0.24403(14)
C6 C 1.1700(4) 0.67822(14) -0.16834(13)
O2 O 0.6805(3) 0.54841(12) -0.13177(9)
O3 O 1.3007(2) 0.62938(10) -0.02359(8)
C7 C 1.2111(4) 0.43660(14) -0.06125(13)
C8 C 1.1520(4) 0.34803(14) -0.03306(13)
C9 C 1.1784(4) 0.34582(14) 0.05443(13)
C10 C 1.0522(4) 0.41331(15) 0.09822(12)
F1 F 0.8063(2) 0.40025(9) 0.09311(8)
C11 C 1.3159(4) 0.29187(16) 0.09102(14)
C12 C 0.9107(5) 0.31760(16) -0.06268(15)
C13 C 0.9704(4) 0.56645(13) 0.11420(11)
C14 C 0.7579(4) 0.60069(14) 0.08791(12)
C15 C 0.6380(4) 0.65977(14) 0.13259(13)
C16 C 0.7269(4) 0.68412(15) 0.20365(14)
C17 C 0.9371(4) 0.64939(16) 0.23075(13)
C18 C 1.0567(4) 0.59182(15) 0.18630(12)
H1 H 1.2745 0.5105 0.0774
H2 H 0.8971 0.4950 -0.0310
H3 H 0.9962 0.7300 -0.2641
H4 H 1.1092 0.6412 -0.2841
H5 H 1.1466 0.7323 -0.1428
H6 H 1.3380 0.6648 -0.1745
H7 H 1.3798 0.4471 -0.0518
H8 H 1.1760 0.4415 -0.1176
H9 H 1.2756 0.3097 -0.0530
H10 H 1.0828 0.4075 0.1562
H11 H 1.3317 0.2922 0.1462
H12 H 1.4054 0.2512 0.0627
H13 H 0.8833 0.2623 -0.0420
H14 H 0.9203 0.3173 -0.1191
H15 H 0.7897 0.3574 -0.0448
H16 H 0.6911 0.5842 0.0392
H17 H 0.4955 0.6831 0.1141
H18 H 0.6453 0.7243 0.2340
H19 H 0.9948 0.6659 0.2803
H20 H 1.1945 0.5675 0.2058
C19 C 0.3836(4) 0.75686(13) 0.43628(11)
C20 C 0.4422(4) 0.76978(13) 0.52274(11)
C21 C 0.3267(3) 0.84907(14) 0.55103(11)
N2 N 0.3987(3) 0.88147(12) 0.62294(10)
C22 C 0.6072(4) 0.86587(15) 0.66360(12)
O4 O 0.6136(3) 0.91514(11) 0.72696(9)
C23 C 0.3915(4) 0.9598(2) 0.73525(15)
C24 C 0.2624(4) 0.94925(15) 0.65843(12)
O5 O 0.7647(3) 0.81881(11) 0.64831(9)
O6 O 0.1608(3) 0.88284(11) 0.51870(9)
C25 C 0.3426(4) 0.69821(14) 0.57266(12)
C26 C 0.4197(4) 0.61066(14) 0.54650(12)
C27 C 0.3741(4) 0.60183(14) 0.46008(12)
C28 C 0.4682(4) 0.67080(14) 0.41031(12)
F2 F 0.7183(2) 0.66996(10) 0.41161(8)
C29 C 0.2413(4) 0.54201(16) 0.42951(15)
C30 C 0.6750(5) 0.59052(17) 0.57040(15)
C31 C 0.4764(4) 0.82465(14) 0.38334(12)
C32 C 0.3439(4) 0.84591(15) 0.31757(13)
C33 C 0.4216(5) 0.90604(18) 0.26630(14)
C34 C 0.6347(5) 0.94645(17) 0.28002(15)
C35 C 0.7701(5) 0.92505(16) 0.34389(15)
C36 C 0.6919(4) 0.86437(16) 0.39582(13)
H21 H 0.2100 0.7562 0.4328
H22 H 0.6097 0.7728 0.5307
H23 H 0.4257 1.0185 0.7446
H24 H 0.3006 0.9369 0.7784
H25 H 0.2703 0.9999 0.6272
H26 H 0.0989 0.9326 0.6651
H27 H 0.3932 0.7076 0.6268
H28 H 0.1671 0.7016 0.5683
H29 H 0.3185 0.5694 0.5725
H30 H 0.4210 0.6587 0.3501
H31 H 0.1660 0.5013 0.4603
H32 H 0.2184 0.5388 0.3755
H33 H 0.7127 0.5348 0.5529
H34 H 0.6853 0.5938 0.6277
H35 H 0.7821 0.6318 0.5477
H36 H 0.1974 0.8188 0.3084
H37 H 0.3310 0.9196 0.2228
H38 H 0.6875 0.9886 0.2458
H39 H 0.9172 0.9524 0.3535
H40 H 0.7889 0.8498 0.4393
loop_
_geom_bond_atom_site_label_1
_geom_bond_atom_site_label_2
_geom_bond_site_symmetry_1
_geom_bond_site_symmetry_2
C1 C2 1_555 1_555
C2 C3 1_555 1_555
C3 N1 1_555 1_555
N1 C4 1_555 1_555
C4 O1 1_555 1_555
O1 C5 1_555 1_555
C5 C6 1_555 1_555
C6 N1 1_555 1_555
O2 C4 1_555 1_555
O3 C3 1_555 1_555
C7 C2 1_555 1_555
C8 C7 1_555 1_555
C9 C8 1_555 1_555
C10 C1 1_555 1_555
F1 C10 1_555 1_555
C11 C9 1_555 1_555
C12 C8 1_555 1_555
C13 C1 1_555 1_555
C14 C13 1_555 1_555
C15 C14 1_555 1_555
C16 C15 1_555 1_555
C17 C16 1_555 1_555
C18 C13 1_555 1_555
C19 C20 1_555 1_555
C20 C21 1_555 1_555
C21 N2 1_555 1_555
N2 C22 1_555 1_555
C22 O4 1_555 1_555
O4 C23 1_555 1_555
C23 C24 1_555 1_555
C24 N2 1_555 1_555
O5 C22 1_555 1_555
O6 C21 1_555 1_555
C25 C20 1_555 1_555
C26 C25 1_555 1_555
C27 C26 1_555 1_555
C28 C19 1_555 1_555
F2 C28 1_555 1_555
C29 C27 1_555 1_555
C30 C26 1_555 1_555
C31 C19 1_555 1_555
C32 C31 1_555 1_555
C33 C32 1_555 1_555
C34 C33 1_555 1_555
C35 C34 1_555 1_555
C36 C31 1_555 1_555
H1 C1 1_555 1_555
H2 C2 1_555 1_555
H3 C5 1_555 1_555
H4 C5 1_555 1_555
H5 C6 1_555 1_555
H6 C6 1_555 1_555
H7 C7 1_555 1_555
H8 C7 1_555 1_555
H9 C8 1_555 1_555
H10 C10 1_555 1_555
H11 C11 1_555 1_555
H12 C11 1_555 1_555
H13 C12 1_555 1_555
H14 C12 1_555 1_555
H15 C12 1_555 1_555
H16 C14 1_555 1_555
H17 C15 1_555 1_555
H18 C16 1_555 1_555
H19 C17 1_555 1_555
H20 C18 1_555 1_555
H21 C19 1_555 1_555
H22 C20 1_555 1_555
H23 C23 1_555 1_555
H24 C23 1_555 1_555
H25 C24 1_555 1_555
H26 C24 1_555 1_555
H27 C25 1_555 1_555
H28 C25 1_555 1_555
H29 C26 1_555 1_555
H30 C28 1_555 1_555
H31 C29 1_555 1_555
H32 C29 1_555 1_555
H33 C30 1_555 1_555
H34 C30 1_555 1_555
H35 C30 1_555 1_555
H36 C32 1_555 1_555
H37 C33 1_555 1_555
H38 C34 1_555 1_555
H39 C35 1_555 1_555
H40 C36 1_555 1_555
C9 C10 1_555 1_555
C17 C18 1_555 1_555
C27 C28 1_555 1_555
C35 C36 1_555 1_555

#END
