
#######################################################################
#
#                 Cambridge Crystallographic Data Centre
#                                CCDC 
#
#######################################################################
#
# If this CIF has been generated from an entry in the Cambridge 
# Structural Database, then it will include bibliographic, chemical, 
# crystal, experimental, refinement or atomic coordinate data resulting 
# from the CCDC's data processing and validation procedures.
#
#######################################################################

data_KIHLUJ
_chemical_formula_moiety         'C27 H30 O5'
_chemical_name_systematic        
'Diethyl pentacyclo[8.8.1.1~3,8~.1~12,17~.0~3,8~]henicosa-4,6,12,14,16-pentaen-19-one-1,10-dicarboxylate'
_symmetry_cell_setting           triclinic
_symmetry_space_group_name_H-M   'P -1'
_symmetry_Int_Tables_number      2
_space_group_name_Hall           '-P 1'
loop_
_symmetry_equiv_pos_site_id
_symmetry_equiv_pos_as_xyz
1 x,y,z
2 -x,-y,-z
_cell_length_a                   10.848(1)
_cell_length_b                   13.105(2)
_cell_length_c                   8.809(1)
_cell_angle_alpha                90.54(1)
_cell_angle_beta                 109.847(9)
_cell_angle_gamma                80.91(1)
_cell_volume                     1161.82
_exptl_crystal_colour            colorless
_exptl_crystal_description       prismatic
_chemical_melting_point          '158-160 deg.C'
_cell_formula_units_Z            2
_exptl_crystal_recrystallization_method dichloromethane/hexane
loop_
_atom_site_label
_atom_site_type_symbol
_atom_site_fract_x
_atom_site_fract_y
_atom_site_fract_z
O1 O 0.7706(1) 0.16650(9) 0.7643(1)
O2 O 0.7172(2) -0.0415(1) 1.0216(2)
O3 O 0.8529(1) 0.07537(10) 1.0835(2)
O4 O 0.8126(2) 0.4523(1) 0.8503(3)
O5 O 0.9029(1) 0.3018(1) 0.9862(2)
C1 C 0.6987(1) 0.2062(1) 0.8353(2)
C2 C 0.4668(2) 0.2171(2) 0.5173(2)
C3 C 0.5226(2) 0.3364(2) 1.1728(2)
C4 C 0.6304(2) 0.3501(1) 1.1060(2)
C5 C 0.7474(2) 0.3887(2) 1.2183(2)
C6 C 0.8216(2) 0.3387(2) 1.3604(3)
C7 C 0.8038(2) 0.2373(2) 1.4009(2)
C8 C 0.7127(2) 0.1888(2) 1.2999(2)
C9 C 0.6110(2) 0.2400(1) 1.1501(2)
C10 C 0.5480(2) 0.1758(1) 1.0112(2)
C11 C 0.6309(2) 0.1319(1) 0.9053(2)
C12 C 0.5377(2) 0.0812(1) 0.7568(2)
C13 C 0.4313(2) 0.1585(1) 0.6382(2)
C14 C 0.3054(2) 0.1785(2) 0.6384(3)
C15 C 0.2053(2) 0.2611(2) 0.5446(3)
C16 C 0.2257(2) 0.3541(2) 0.5035(3)
C17 C 0.3521(2) 0.3888(2) 0.5496(2)
C18 C 0.4690(2) 0.3269(1) 0.5706(2)
C19 C 0.6001(2) 0.3627(1) 0.6483(2)
C20 C 0.6714(2) 0.3256(1) 0.8311(2)
C21 C 0.5863(2) 0.3798(1) 0.9278(2)
C22 C 0.7384(2) 0.0445(1) 1.0070(2)
C23 C 0.9574(2) 0.0009(2) 1.1953(3)
C24 C 1.0666(3) 0.0563(2) 1.2816(4)
C25 C 0.8039(2) 0.3669(1) 0.8868(2)
C26 C 1.0311(2) 0.3369(2) 1.0515(4)
C27 C 1.1069(4) 0.3151(4) 0.9411(8)
H1 H 0.4023 0.2164 0.4128
H2 H 0.5518 0.1871 0.5151
H3 H 0.4321 0.3508 1.1044
H4 H 0.5299 0.3569 1.2786
H5 H 0.7710 0.4504 1.1896
H6 H 0.8875 0.3714 1.4355
H7 H 0.8583 0.2040 1.5022
H8 H 0.7126 0.1184 1.3245
H9 H 0.5249 0.1186 1.0549
H10 H 0.4695 0.2176 0.9420
H11 H 0.5909 0.0442 0.7015
H12 H 0.4957 0.0344 0.7960
H13 H 0.2811 0.1348 0.7051
H14 H 0.1162 0.2487 0.5080
H15 H 0.1502 0.4007 0.4381
H16 H 0.3534 0.4604 0.5668
H17 H 0.5854 0.4361 0.6416
H18 H 0.6571 0.3369 0.5904
H19 H 0.4987 0.3652 0.8791
H20 H 0.5851 0.4521 0.9181
H21 H 0.9247 -0.0274 1.2702
H22 H 0.9878 -0.0531 1.1377
H23 H 1.1376 0.0098 1.3544
H24 H 1.0975 0.0862 1.2058
H25 H 1.0359 0.1100 1.3401
H26 H 1.0170 0.4091 1.0658
H27 H 1.0806 0.3014 1.1525
H28 H 1.1226 0.2432 0.9266
H29 H 1.0566 0.3500 0.8376
H30 H 1.1889 0.3400 0.9826
loop_
_geom_bond_atom_site_label_1
_geom_bond_atom_site_label_2
_geom_bond_site_symmetry_1
_geom_bond_site_symmetry_2
O1 C1 1_555 1_555
O2 C22 1_555 1_555
O3 C22 1_555 1_555
O4 C25 1_555 1_555
O5 C25 1_555 1_555
C1 C11 1_555 1_555
C2 C13 1_555 1_555
C3 C4 1_555 1_555
C4 C5 1_555 1_555
C5 C6 1_555 1_555
C6 C7 1_555 1_555
C7 C8 1_555 1_555
C8 C9 1_555 1_555
C9 C3 1_555 1_555
C10 C9 1_555 1_555
C11 C10 1_555 1_555
C12 C11 1_555 1_555
C13 C12 1_555 1_555
C14 C13 1_555 1_555
C15 C14 1_555 1_555
C16 C15 1_555 1_555
C17 C16 1_555 1_555
C18 C2 1_555 1_555
C19 C18 1_555 1_555
C20 C1 1_555 1_555
C21 C4 1_555 1_555
C22 C11 1_555 1_555
C23 O3 1_555 1_555
C24 C23 1_555 1_555
C25 C20 1_555 1_555
C26 O5 1_555 1_555
C27 C26 1_555 1_555
H1 C2 1_555 1_555
H2 C2 1_555 1_555
H3 C3 1_555 1_555
H4 C3 1_555 1_555
H5 C5 1_555 1_555
H6 C6 1_555 1_555
H7 C7 1_555 1_555
H8 C8 1_555 1_555
H9 C10 1_555 1_555
H10 C10 1_555 1_555
H11 C12 1_555 1_555
H12 C12 1_555 1_555
H13 C14 1_555 1_555
H14 C15 1_555 1_555
H15 C16 1_555 1_555
H16 C17 1_555 1_555
H17 C19 1_555 1_555
H18 C19 1_555 1_555
H19 C21 1_555 1_555
H20 C21 1_555 1_555
H21 C23 1_555 1_555
H22 C23 1_555 1_555
H23 C24 1_555 1_555
H24 C24 1_555 1_555
H25 C24 1_555 1_555
H26 C26 1_555 1_555
H27 C26 1_555 1_555
H28 C27 1_555 1_555
H29 C27 1_555 1_555
H30 C27 1_555 1_555
C4 C9 1_555 1_555
C17 C18 1_555 1_555
C19 C20 1_555 1_555
C20 C21 1_555 1_555

#END
