
#######################################################################
#
#                 Cambridge Crystallographic Data Centre
#                                CCDC 
#
#######################################################################
#
# If this CIF has been generated from an entry in the Cambridge 
# Structural Database, then it will include bibliographic, chemical, 
# crystal, experimental, refinement or atomic coordinate data resulting 
# from the CCDC's data processing and validation procedures.
#
#######################################################################

data_KIHQIE
_chemical_formula_moiety         'C10 H6 N2 O1 S3'
_chemical_name_systematic        
3,4-bis(thiophen-2-yl)-1H-1,2,5-thiadiazol-1-one
_symmetry_cell_setting           triclinic
_symmetry_space_group_name_H-M   'P -1'
_symmetry_Int_Tables_number      2
_space_group_name_Hall           '-P 1'
loop_
_symmetry_equiv_pos_site_id
_symmetry_equiv_pos_as_xyz
1 x,y,z
2 -x,-y,-z
_cell_length_a                   8.9307(8)
_cell_length_b                   9.4643(8)
_cell_length_c                   13.7447(12)
_cell_angle_alpha                80.4226(15)
_cell_angle_beta                 79.2193(15)
_cell_angle_gamma                76.5930(16)
_cell_volume                     1100.9
_exptl_crystal_colour            yellow
_exptl_crystal_description       prism
_cell_formula_units_Z            4
loop_
_atom_site_label
_atom_site_type_symbol
_atom_site_fract_x
_atom_site_fract_y
_atom_site_fract_z
C1 C 0.73134(16) 0.21300(15) 0.59789(10)
C2 C 0.87686(16) 0.12480(14) 0.63766(10)
C3 C 1.03571(16) 0.12633(15) 0.59107(10)
C4 C 1.09762(16) 0.15980(15) 0.49105(11)
H1 H 1.0370 0.1948 0.4388
C5 C 1.26282(18) 0.13476(17) 0.47746(12)
H2 H 1.3257 0.1503 0.4144
C6 C 1.32133(18) 0.08642(18) 0.56396(13)
H3 H 1.4293 0.0665 0.5683
N1 N 0.60465(15) 0.18191(14) 0.65031(9)
N2 N 0.84738(15) 0.03901(14) 0.71933(9)
O1 O 0.59836(15) -0.06521(13) 0.76329(9)
S1 S 0.65162(5) 0.07241(4) 0.75621(3)
S2 S 1.18059(5) 0.06543(5) 0.66381(3)
C7 C 0.73030(15) 0.32233(14) 0.51008(9)
C8 C 0.81961(16) 0.42633(15) 0.48289(10)
H4 H 0.8995 0.4329 0.5178
C9 C 0.78011(17) 0.52251(15) 0.39742(11)
H5 H 0.8296 0.6017 0.3687
C10 C 0.66286(17) 0.48907(15) 0.36056(10)
H6 H 0.6230 0.5408 0.3023
S3 S 0.59601(4) 0.34381(4) 0.43102(3)
C11 C 0.57465(17) 0.64203(15) 0.85402(10)
C12 C 0.72534(17) 0.64079(15) 0.88981(11)
N3 N 0.59618(15) 0.58101(14) 0.77353(9)
N4 N 0.84784(15) 0.57781(14) 0.83514(10)
O2 O 0.83818(15) 0.38152(13) 0.72773(9)
S4 S 0.79061(5) 0.53974(4) 0.73217(3)
C13 C 0.7401(19) 0.6993(5) 0.9785(8)
C14 C 0.8111(7) 0.6257(3) 1.0575(3)
H7 H 0.8558 0.5238 1.0637
C15 C 0.8110(13) 0.7170(5) 1.1285(5)
H8 H 0.8558 0.6839 1.1878
C16 C 0.7391(10) 0.8585(4) 1.1025(4)
H9 H 0.7262 0.9348 1.1422
S5 S 0.67520(12) 0.88263(9) 0.99003(7)
C17 C 0.4206(4) 0.6998(18) 0.9051(3)
C18 C 0.3701(4) 0.7135(10) 1.0041(2)
H10 H 0.4370 0.6895 1.0533
C19 C 0.2082(3) 0.7669(6) 1.02514(17)
H11 H 0.1539 0.7842 1.0898
C20 C 0.1383(3) 0.7910(6) 0.94214(17)
H12 H 0.0298 0.8278 0.9423
S6 S 0.26801(9) 0.74748(14) 0.83774(5)
C21? C 0.735(3) 0.7016(10) 0.9789(13)
C22? C 0.6734(7) 0.8383(5) 1.0061(4)
H13? H 0.6052 0.9115 0.9699
C23? C 0.7219(16) 0.8586(6) 1.0936(7)
H14? H 0.6943 0.9484 1.1213
C24? C 0.813(2) 0.7346(8) 1.1341(8)
H15? H 0.8529 0.7270 1.1946
S7? S 0.8473(2) 0.5945(2) 1.06370(15)
C25? C 0.4177(12) 0.699(6) 0.8998(11)
C26? C 0.2878(8) 0.7378(19) 0.8542(5)
H16? H 0.2894 0.7321 0.7857
C27? C 0.1515(6) 0.787(2) 0.9199(6)
H17? H 0.0512 0.8203 0.9005
C28? C 0.1798(5) 0.782(2) 1.0147(5)
H18? H 0.1010 0.8083 1.0693
S8? S 0.3730(4) 0.7240(8) 1.0239(3)
loop_
_geom_bond_atom_site_label_1
_geom_bond_atom_site_label_2
_geom_bond_site_symmetry_1
_geom_bond_site_symmetry_2
C1 C2 1_555 1_555
C2 C3 1_555 1_555
C3 C4 1_555 1_555
C4 H1 1_555 1_555
C5 C4 1_555 1_555
H2 C5 1_555 1_555
C6 C5 1_555 1_555
H3 C6 1_555 1_555
N1 C1 1_555 1_555
N2 C2 1_555 1_555
O1 S1 1_555 1_555
S1 N1 1_555 1_555
S2 C3 1_555 1_555
C7 C1 1_555 1_555
C8 C7 1_555 1_555
H4 C8 1_555 1_555
C9 C8 1_555 1_555
H5 C9 1_555 1_555
C10 C9 1_555 1_555
H6 C10 1_555 1_555
S3 C7 1_555 1_555
C11 C12 1_555 1_555
C12 N4 1_555 1_555
N3 C11 1_555 1_555
N4 S4 1_555 1_555
O2 S4 1_555 1_555
S4 N3 1_555 1_555
C13 C12 1_555 1_555
C14 C13 1_555 1_555
H7 C14 1_555 1_555
C15 C14 1_555 1_555
H8 C15 1_555 1_555
C16 C15 1_555 1_555
H9 C16 1_555 1_555
S5 C13 1_555 1_555
C17 C11 1_555 1_555
C18 C17 1_555 1_555
H10 C18 1_555 1_555
C19 C18 1_555 1_555
H11 C19 1_555 1_555
C20 C19 1_555 1_555
H12 C20 1_555 1_555
S6 C17 1_555 1_555
C6 S2 1_555 1_555
N2 S1 1_555 1_555
C10 S3 1_555 1_555
C16 S5 1_555 1_555
C20 S6 1_555 1_555

#END
