
#######################################################################
#
#                 Cambridge Crystallographic Data Centre
#                                CCDC 
#
#######################################################################
#
# If this CIF has been generated from an entry in the Cambridge 
# Structural Database, then it will include bibliographic, chemical, 
# crystal, experimental, refinement or atomic coordinate data resulting 
# from the CCDC's data processing and validation procedures.
#
#######################################################################

data_KIHXUW
_chemical_formula_moiety         'C9 H9 F4 N1 O1'
_chemical_name_systematic        
1,1,2,2-Tetrafluoro-5-(prop-2-yn-1-ylamino)hex-4-en-3-one
_symmetry_cell_setting           monoclinic
_symmetry_space_group_name_H-M   'P 21/c'
_symmetry_Int_Tables_number      14
_space_group_name_Hall           '-P 2ybc'
loop_
_symmetry_equiv_pos_site_id
_symmetry_equiv_pos_as_xyz
1 x,y,z
2 -x,1/2+y,1/2-z
3 -x,-y,-z
4 x,1/2-y,1/2+z
_cell_length_a                   6.8154(3)
_cell_length_b                   20.4264(7)
_cell_length_c                   7.1008(3)
_cell_angle_alpha                90
_cell_angle_beta                 94.069(4)
_cell_angle_gamma                90
_cell_volume                     986.04
_exptl_crystal_colour            colorless
_exptl_crystal_description       prism
_cell_formula_units_Z            4
loop_
_atom_site_label
_atom_site_type_symbol
_atom_site_fract_x
_atom_site_fract_y
_atom_site_fract_z
O1 O 0.12594(11) 0.44268(3) 0.45880(10)
F1 F 0.33625(10) 0.29021(3) 0.36431(10)
F2 F 0.38540(11) 0.34177(3) 0.02365(10)
F3 F 0.07670(10) 0.33246(3) 0.08049(9)
F4 F 0.47281(9) 0.38702(4) 0.37917(10)
N1 N -0.17943(12) 0.41760(4) 0.67133(11)
C1 C 0.14276(14) 0.38148(4) 0.46123(13)
C2 C -0.12877(14) 0.35535(5) 0.65771(13)
C3 C 0.29997(14) 0.35490(5) 0.33649(14)
C4 C -0.34379(15) 0.44266(5) 0.77170(14)
C5 C -0.28409(14) 0.45787(5) 0.96971(14)
C6 C 0.03090(15) 0.33655(5) 0.55575(14)
C7 C 0.24351(16) 0.36651(5) 0.12793(14)
H1 H 0.2240 0.4133 0.1023
C8 C -0.23245(16) 0.47069(6) 1.12854(16)
C9 C -0.24838(16) 0.30403(5) 0.74818(16)
H2 H -0.2683 0.3167 0.8756
H3 H -0.1799 0.2629 0.7486
H4 H -0.3735 0.2996 0.6782
H5 H -0.4500(17) 0.4108(5) 0.7670(15)
H6 H -0.3889(17) 0.4810(6) 0.7099(16)
H7 H 0.0661(19) 0.2905(7) 0.5514(17)
H8 H -0.111(2) 0.4467(6) 0.6155(18)
H9 H -0.189(2) 0.4818(8) 1.248(2)
loop_
_geom_bond_atom_site_label_1
_geom_bond_atom_site_label_2
_geom_bond_site_symmetry_1
_geom_bond_site_symmetry_2
O1 C1 1_555 1_555
F1 C3 1_555 1_555
F2 C7 1_555 1_555
F3 C7 1_555 1_555
F4 C3 1_555 1_555
N1 C2 1_555 1_555
C1 C3 1_555 1_555
C2 C6 1_555 1_555
C3 C7 1_555 1_555
C4 N1 1_555 1_555
C5 C4 1_555 1_555
C6 C1 1_555 1_555
C7 H1 1_555 1_555
C8 C5 1_555 1_555
C9 C2 1_555 1_555
H2 C9 1_555 1_555
H3 C9 1_555 1_555
H4 C9 1_555 1_555
H5 C4 1_555 1_555
H6 C4 1_555 1_555
H7 C6 1_555 1_555
H8 N1 1_555 1_555
H9 C8 1_555 1_555

#END
