
#######################################################################
#
#                 Cambridge Crystallographic Data Centre
#                                CCDC 
#
#######################################################################
#
# If this CIF has been generated from an entry in the Cambridge 
# Structural Database, then it will include bibliographic, chemical, 
# crystal, experimental, refinement or atomic coordinate data resulting 
# from the CCDC's data processing and validation procedures.
#
#######################################################################

data_KIJBAH
_chemical_formula_moiety         'C53 H48 N2 O4,4(C1 H2 Cl2)'
_chemical_name_systematic        
'33,34-Dimethyl-24,29,39,44-tetraoxa-9,12-diazanonacyclo (43.2.2.2^20,23^.2^30,33^.2^35,38^.1^6,10^.1^11,15^.0^2,7^.0^14,19^) heptapentaconta-1(47),2,4,6(57),7,9,11(56),12,14,16,18,20,22,30,32,35,37,45,48,50,52,54-docosaene dichloromethane solvate'
_symmetry_cell_setting           triclinic
_symmetry_space_group_name_H-M   'P -1'
_symmetry_Int_Tables_number      2
_space_group_name_Hall           '-P 1'
loop_
_symmetry_equiv_pos_site_id
_symmetry_equiv_pos_as_xyz
1 x,y,z
2 -x,-y,-z
_cell_length_a                   13.6610(3)
_cell_length_b                   14.4330(3)
_cell_length_c                   14.8440(3)
_cell_angle_alpha                103.7910(7)
_cell_angle_beta                 105.6240(9)
_cell_angle_gamma                92.9520(7)
_cell_volume                     2716.35
_exptl_crystal_colour            colorless
_exptl_crystal_description       prism
_cell_formula_units_Z            2
loop_
_atom_site_label
_atom_site_type_symbol
_atom_site_fract_x
_atom_site_fract_y
_atom_site_fract_z
C1 C 0.4484(2) -0.0216(2) 0.1144(2)
C2 C 0.5504(2) -0.0185(2) 0.1613(2)
H1 H 0.5911 -0.0605 0.1322
C3 C 0.5949(2) 0.0473(2) 0.2529(2)
C4 C 0.6986(3) 0.0490(3) 0.3069(3)
H2 H 0.7409 0.0061 0.2814
C5 C 0.7369(3) 0.1133(3) 0.3963(3)
H3 H 0.8053 0.1128 0.4336
O1 O 0.04202(16) 0.55671(16) 0.21509(16)
C6 C 0.6772(3) 0.1795(2) 0.4336(3)
H4 H 0.7064 0.2236 0.4952
O2 O 0.35967(17) 0.46656(16) 0.54826(14)
C7 C 0.5770(2) 0.1825(2) 0.3833(2)
C8 C 0.5343(2) 0.1122(2) 0.2917(2)
C9 C 0.4289(2) 0.1010(2) 0.2375(2)
H5 H 0.3860 0.1425 0.2637
C10 C 0.5176(2) 0.2563(2) 0.4233(2)
C11 C 0.5149(2) 0.2722(2) 0.5192(2)
H6 H 0.5504 0.2341 0.5583
N1 N 0.3075(2) -0.06809(19) -0.03409(18)
C12 C 0.4619(2) 0.3421(2) 0.5583(2)
H7 H 0.4612 0.3512 0.6236
O3 O -0.38873(16) 0.07709(15) -0.35201(16)
C13 C 0.4092(2) 0.3996(2) 0.5031(2)
C14 C 0.4122(2) 0.3848(2) 0.4069(2)
H8 H 0.3775 0.4234 0.3680
C15 C 0.4653(2) 0.3144(2) 0.3687(2)
H9 H 0.4663 0.3053 0.3034
C16 C 0.3090(2) 0.5301(2) 0.4951(2)
H10 H 0.3523 0.5492 0.4571
H11 H 0.3008 0.5891 0.5413
C17 C 0.2046(2) 0.4844(2) 0.4269(2)
H12 H 0.1578 0.4741 0.4652
H13 H 0.2110 0.4209 0.3866
C18 C 0.1600(2) 0.5480(2) 0.3616(2)
H14 H 0.1409 0.6060 0.4008
H15 H 0.2129 0.5693 0.3340
C19 C 0.0666(2) 0.4965(2) 0.2796(2)
H16 H 0.0816 0.4336 0.2453
H17 H 0.0085 0.4853 0.3052
C20 C -0.0432(2) 0.5260(2) 0.1362(2)
C21 C -0.0629(2) 0.5853(2) 0.0737(2)
H18 H -0.0167 0.6411 0.0849
C22 C -0.1504(2) 0.5625(2) -0.0053(2)
H19 H -0.1635 0.6037 -0.0473
C23 C -0.2192(2) 0.4808(2) -0.02440(19)
C24 C -0.1957(2) 0.4213(2) 0.0379(2)
H20 H -0.2405 0.3642 0.0255
C25 C -0.1092(2) 0.4427(2) 0.1172(2)
H21 H -0.0952 0.4007 0.1584
C26 C -0.3217(2) 0.4576(2) -0.1049(2)
C27 C -0.4069(2) 0.4798(2) -0.0563(2)
H22 H -0.3944 0.5473 -0.0189
H23 H -0.4074 0.4383 -0.0130
H24 H -0.4732 0.4680 -0.1062
C28 C -0.3276(3) 0.5215(2) -0.1756(2)
H25 H -0.3187 0.5893 -0.1397
H26 H -0.3945 0.5058 -0.2248
H27 H -0.2733 0.5099 -0.2072
C29 C -0.3361(2) 0.35255(19) -0.16442(19)
C30 C -0.2579(2) 0.3151(2) -0.2000(2)
H28 H -0.1937 0.3536 -0.1821
C31 C -0.2711(2) 0.2233(2) -0.2606(2)
H29 H -0.2162 0.1994 -0.2834
C32 C -0.3648(2) 0.16622(19) -0.2880(2)
C33 C -0.4431(2) 0.2018(2) -0.2519(2)
H30 H -0.5069 0.1629 -0.2690
C34 C -0.4283(2) 0.2931(2) -0.1915(2)
H31 H -0.4828 0.3163 -0.1676
O4 O -0.15024(19) -0.21584(18) -0.46787(16)
C35 C -0.3090(2) 0.0343(2) -0.3864(2)
H32 H -0.2568 0.0195 -0.3326
H33 H -0.2752 0.0786 -0.4136
C36 C -0.3587(2) -0.0573(2) -0.4640(2)
H34 H -0.4065 -0.0405 -0.5193
H35 H -0.3993 -0.0970 -0.4376
C37 C -0.2816(3) -0.1163(2) -0.5005(2)
H36 H -0.2352 -0.0744 -0.5193
H37 H -0.3185 -0.1679 -0.5590
C38 C -0.2183(3) -0.1610(2) -0.4248(2)
H38 H -0.1788 -0.1103 -0.3666
H39 H -0.2634 -0.2032 -0.4051
C39 C -0.0655(2) -0.2384(2) -0.4080(2)
C40 C -0.0460(2) -0.2231(2) -0.3087(2)
H40 H -0.0962 -0.2003 -0.2783
C41 C 0.0471(3) -0.2412(2) -0.2539(2)
H41 H 0.0599 -0.2304 -0.1859
C42 C 0.1227(2) -0.2751(2) -0.2962(2)
C43 C 0.0984(3) -0.2956(2) -0.3973(2)
H42 H 0.1466 -0.3221 -0.4286
C44 C 0.0060(3) -0.2781(2) -0.4525(2)
H43 H -0.0089 -0.2931 -0.5211
C45 C 0.2251(2) -0.2910(2) -0.2396(2)
C46 C 0.2660(3) -0.3744(2) -0.2709(2)
H44 H 0.2270 -0.4213 -0.3277
C47 C 0.3631(3) -0.3917(2) -0.2213(2)
H45 H 0.3896 -0.4487 -0.2462
C48 C 0.4202(3) -0.3276(3) -0.1375(2)
H46 H 0.4855 -0.3406 -0.1038
C49 C 0.3818(3) -0.2415(2) -0.1010(2)
C50 C 0.2852(2) -0.2217(2) -0.1532(2)
C51 C 0.2564(2) -0.1304(2) -0.1156(2)
H47 H 0.1952 -0.1131 -0.1525
C52 C 0.4361(3) -0.1750(2) -0.0125(2)
H48 H 0.4997 -0.1878 0.0247
C53 C 0.3967(2) -0.0915(2) 0.0197(2)
N2 N 0.3867(2) 0.03750(19) 0.15402(19)
C54 C -0.1433(5) 0.0867(4) -0.0901(5)
Cl1 Cl -0.07204(14) 0.01366(12) -0.15143(11)
Cl2 Cl -0.07889(12) 0.19670(9) -0.02098(9)
C55 C 0.2092(6) 0.1420(4) 0.0306(5)
Cl4 Cl 0.2495(3) 0.1920(2) -0.0472(2)
Cl5 Cl 0.21192(12) 0.22472(10) 0.13978(12)
C56 C 0.2480(5) 0.3665(5) -0.2026(4)
Cl6 Cl 0.3110(3) 0.2691(3) -0.1533(4)
Cl7 Cl 0.2422(3) 0.3516(2) -0.3162(2)
C57 C 0.0633(4) 0.1248(4) -0.3583(5)
Cl10 Cl -0.01470(12) 0.20591(11) -0.31526(12)
Cl11 Cl 0.02413(12) 0.00520(10) -0.36556(12)
Cl3? Cl 0.1524(8) 0.1202(8) -0.0810(7)
Cl8? Cl 0.3117(3) 0.2780(4) -0.2199(4)
Cl9? Cl 0.1747(5) 0.3844(3) -0.3294(3)
loop_
_geom_bond_atom_site_label_1
_geom_bond_atom_site_label_2
_geom_bond_site_symmetry_1
_geom_bond_site_symmetry_2
C1 C2 1_555 1_555
C2 H1 1_555 1_555
C3 C2 1_555 1_555
C4 C3 1_555 1_555
H2 C4 1_555 1_555
C5 C4 1_555 1_555
H3 C5 1_555 1_555
O1 C19 1_555 1_555
C6 C5 1_555 1_555
H4 C6 1_555 1_555
O2 C13 1_555 1_555
C7 C6 1_555 1_555
C8 C3 1_555 1_555
C9 C8 1_555 1_555
H5 C9 1_555 1_555
C10 C7 1_555 1_555
C11 C10 1_555 1_555
H6 C11 1_555 1_555
N1 C51 1_555 1_555
C12 C11 1_555 1_555
H7 C12 1_555 1_555
O3 C32 1_555 1_555
C13 C12 1_555 1_555
C14 C13 1_555 1_555
H8 C14 1_555 1_555
C15 C10 1_555 1_555
H9 C15 1_555 1_555
C16 O2 1_555 1_555
H10 C16 1_555 1_555
H11 C16 1_555 1_555
C17 C16 1_555 1_555
H12 C17 1_555 1_555
H13 C17 1_555 1_555
C18 C17 1_555 1_555
H14 C18 1_555 1_555
H15 C18 1_555 1_555
C19 C18 1_555 1_555
H16 C19 1_555 1_555
H17 C19 1_555 1_555
C20 O1 1_555 1_555
C21 C20 1_555 1_555
H18 C21 1_555 1_555
C22 C21 1_555 1_555
H19 C22 1_555 1_555
C23 C22 1_555 1_555
C24 C23 1_555 1_555
H20 C24 1_555 1_555
C25 C20 1_555 1_555
H21 C25 1_555 1_555
C26 C23 1_555 1_555
C27 C26 1_555 1_555
H22 C27 1_555 1_555
H23 C27 1_555 1_555
H24 C27 1_555 1_555
C28 C26 1_555 1_555
H25 C28 1_555 1_555
H26 C28 1_555 1_555
H27 C28 1_555 1_555
C29 C26 1_555 1_555
C30 C29 1_555 1_555
H28 C30 1_555 1_555
C31 C30 1_555 1_555
H29 C31 1_555 1_555
C32 C31 1_555 1_555
C33 C32 1_555 1_555
H30 C33 1_555 1_555
C34 C29 1_555 1_555
H31 C34 1_555 1_555
O4 C38 1_555 1_555
C35 O3 1_555 1_555
H32 C35 1_555 1_555
H33 C35 1_555 1_555
C36 C35 1_555 1_555
H34 C36 1_555 1_555
H35 C36 1_555 1_555
C37 C36 1_555 1_555
H36 C37 1_555 1_555
H37 C37 1_555 1_555
C38 C37 1_555 1_555
H38 C38 1_555 1_555
H39 C38 1_555 1_555
C39 O4 1_555 1_555
C40 C39 1_555 1_555
H40 C40 1_555 1_555
C41 C40 1_555 1_555
H41 C41 1_555 1_555
C42 C41 1_555 1_555
C43 C42 1_555 1_555
H42 C43 1_555 1_555
C44 C39 1_555 1_555
H43 C44 1_555 1_555
C45 C42 1_555 1_555
C46 C45 1_555 1_555
H44 C46 1_555 1_555
C47 C46 1_555 1_555
H45 C47 1_555 1_555
C48 C47 1_555 1_555
H46 C48 1_555 1_555
C49 C48 1_555 1_555
C50 C45 1_555 1_555
C51 C50 1_555 1_555
H47 C51 1_555 1_555
C52 C49 1_555 1_555
H48 C52 1_555 1_555
C53 C1 1_555 1_555
N2 C1 1_555 1_555
C54 Cl1 1_555 1_555
Cl2 C54 1_555 1_555
C55 Cl4 1_555 1_555
Cl5 C55 1_555 1_555
C56 Cl6 1_555 1_555
Cl7 C56 1_555 1_555
C57 Cl10 1_555 1_555
Cl11 C57 1_555 1_555
C7 C8 1_555 1_555
C9 N2 1_555 1_555
N1 C53 1_555 1_555
C14 C15 1_555 1_555
C24 C25 1_555 1_555
C33 C34 1_555 1_555
C43 C44 1_555 1_555
C49 C50 1_555 1_555
C52 C53 1_555 1_555

#END
