
#######################################################################
#
#                 Cambridge Crystallographic Data Centre
#                                CCDC 
#
#######################################################################
#
# If this CIF has been generated from an entry in the Cambridge 
# Structural Database, then it will include bibliographic, chemical, 
# crystal, experimental, refinement or atomic coordinate data resulting 
# from the CCDC's data processing and validation procedures.
#
#######################################################################

data_KIJBOX
_chemical_name_common            
'5-(4-((2-Pyridylideneamino)sulfonyl)phenyldiazenyl)salicylic acid'
_chemical_formula_moiety         'C18 H14 N4 O5 S1'
_chemical_name_systematic        Sulfasalazine
_chemical_properties_biological  
'antimicrobial activity; drug to treat bowel disorders and rheumatoid arthritis'
_symmetry_cell_setting           monoclinic
_symmetry_space_group_name_H-M   'P 21/c'
_symmetry_Int_Tables_number      14
_space_group_name_Hall           '-P 2ybc'
loop_
_symmetry_equiv_pos_site_id
_symmetry_equiv_pos_as_xyz
1 x,y,z
2 -x,1/2+y,1/2-z
3 -x,-y,-z
4 x,1/2-y,1/2+z
_cell_length_a                   19.308(3)
_cell_length_b                   6.0911(11)
_cell_length_c                   16.109(3)
_cell_angle_alpha                90
_cell_angle_beta                 113.405(3)
_cell_angle_gamma                90
_cell_volume                     1738.65
_exptl_crystal_colour            orange
_exptl_crystal_description       column
_cell_formula_units_Z            4
loop_
_atom_site_label
_atom_site_type_symbol
_atom_site_fract_x
_atom_site_fract_y
_atom_site_fract_z
S1 S 0.84229(4) 0.31088(14) 0.35744(6)
C1 C 1.03415(19) 0.1557(6) 0.6604(2)
H1 H 1.0831 0.1870 0.7009
C2 C 0.9951(2) -0.0084(7) 0.6784(3)
H2 H 1.0171 -0.0945 0.7299
C3 C 0.9215(2) -0.0451(6) 0.6182(3)
H3 H 0.8930 -0.1528 0.6311
C4 C 0.89000(19) 0.0738(6) 0.5405(3)
H4 H 0.8406 0.0462 0.5007
C5 C 0.93222(17) 0.2388(5) 0.5205(2)
C6 C 0.76057(16) 0.4047(6) 0.3706(2)
C7 C 0.69737(18) 0.2689(6) 0.3419(2)
H5 H 0.6990 0.1302 0.3186
C8 C 0.63203(18) 0.3434(6) 0.3486(2)
H6 H 0.5891 0.2557 0.3289
C9 C 0.63090(17) 0.5500(6) 0.3848(2)
C10 C 0.6941(2) 0.6799(6) 0.4137(3)
H7 H 0.6929 0.8173 0.4383
C11 C 0.75952(19) 0.6089(6) 0.4069(2)
H8 H 0.8022 0.6976 0.4264
C12 C 0.25593(19) 0.3793(7) 0.3446(2)
C13 C 0.32173(18) 0.5223(6) 0.3735(2)
C14 C 0.32089(18) 0.7265(6) 0.4117(2)
C15 C 0.38208(19) 0.8644(7) 0.4354(3)
H9 H 0.3808 1.0008 0.4607
C16 C 0.44526(19) 0.8016(7) 0.4220(2)
H10 H 0.4862 0.8963 0.4372
C17 C 0.44786(17) 0.5955(6) 0.3854(2)
C18 C 0.38714(17) 0.4589(6) 0.3610(2)
H11 H 0.3888 0.3226 0.3359
N1 N 1.00235(14) 0.2740(5) 0.58389(18)
H12 H 1.0288(17) 0.379(4) 0.570(2)
N2 N 0.91305(13) 0.3695(5) 0.44721(18)
N3 N 0.56743(15) 0.6376(5) 0.39784(19)
N4 N 0.51169(15) 0.5139(5) 0.37114(19)
O1 O 0.83263(12) 0.0804(4) 0.33919(17)
O2 O 0.85146(12) 0.4462(4) 0.28928(15)
O3 O 0.25995(14) 0.7990(5) 0.42586(18)
H13 H 0.2268(19) 0.688(5) 0.400(3)
O4 O 0.19811(13) 0.4243(5) 0.35643(17)
O5 O 0.26400(15) 0.1993(5) 0.3041(2)
H14 H 0.2179(13) 0.134(7) 0.278(3)
loop_
_geom_bond_atom_site_label_1
_geom_bond_atom_site_label_2
_geom_bond_site_symmetry_1
_geom_bond_site_symmetry_2
S1 C6 1_555 1_555
C1 H1 1_555 1_555
C2 C1 1_555 1_555
H2 C2 1_555 1_555
C3 C2 1_555 1_555
H3 C3 1_555 1_555
C4 C3 1_555 1_555
H4 C4 1_555 1_555
C5 C4 1_555 1_555
C6 C7 1_555 1_555
C7 H5 1_555 1_555
C8 C7 1_555 1_555
H6 C8 1_555 1_555
C9 C8 1_555 1_555
C10 C9 1_555 1_555
H7 C10 1_555 1_555
C11 C6 1_555 1_555
H8 C11 1_555 1_555
C12 C13 1_555 1_555
C13 C14 1_555 1_555
C14 C15 1_555 1_555
C15 H9 1_555 1_555
C16 C15 1_555 1_555
H10 C16 1_555 1_555
C17 C16 1_555 1_555
C18 C13 1_555 1_555
H11 C18 1_555 1_555
N1 C1 1_555 1_555
H12 N1 1_555 1_555
N2 S1 1_555 1_555
N3 C9 1_555 1_555
N4 C17 1_555 1_555
O1 S1 1_555 1_555
O2 S1 1_555 1_555
O3 C14 1_555 1_555
H13 O3 1_555 1_555
O4 C12 1_555 1_555
O5 C12 1_555 1_555
H14 O5 1_555 1_555
C5 N1 1_555 1_555
C5 N2 1_555 1_555
C10 C11 1_555 1_555
C17 C18 1_555 1_555
N3 N4 1_555 1_555

#END
