
#######################################################################
#
#                 Cambridge Crystallographic Data Centre
#                                CCDC 
#
#######################################################################
#
# If this CIF has been generated from an entry in the Cambridge 
# Structural Database, then it will include bibliographic, chemical, 
# crystal, experimental, refinement or atomic coordinate data resulting 
# from the CCDC's data processing and validation procedures.
#
#######################################################################

data_KIJCEO
_chemical_formula_moiety         'C52 H42 F6 N4'
_chemical_name_systematic        
4,4'-[1,2-bis(4-t-butylphenyl)ethene-1,2-diyl]bis{2-[4-(trifluoromethyl)phenyl]quinazoline}
_symmetry_cell_setting           triclinic
_symmetry_space_group_name_H-M   'P -1'
_symmetry_Int_Tables_number      2
_space_group_name_Hall           '-P 1'
loop_
_symmetry_equiv_pos_site_id
_symmetry_equiv_pos_as_xyz
1 x,y,z
2 -x,-y,-z
_cell_length_a                   12.3901(15)
_cell_length_b                   12.9753(15)
_cell_length_c                   15.7398(15)
_cell_angle_alpha                81.130(3)
_cell_angle_beta                 81.169(3)
_cell_angle_gamma                66.314(4)
_cell_volume                     2277.78
_exptl_crystal_colour            colorless
_exptl_crystal_description       block
_cell_formula_units_Z            2
loop_
_atom_site_label
_atom_site_type_symbol
_atom_site_fract_x
_atom_site_fract_y
_atom_site_fract_z
N1 N 0.0792(2) 0.4835(2) 0.39281(16)
N2 N -0.0928(2) 0.5191(2) 0.32319(15)
N3 N -0.2744(2) 0.3960(2) 0.44032(17)
C1 C -0.0717(3) 0.6698(3) 0.38293(19)
N4 N -0.3892(2) 0.5526(3) 0.52197(18)
C2 C 0.1210(3) 0.3727(3) 0.37683(19)
C3 C -0.3248(3) 0.4458(3) 0.5151(2)
C4 C -0.0241(3) 0.5491(3) 0.36681(18)
C5 C 0.0567(3) 0.3317(3) 0.33397(19)
C6 C -0.3006(3) 0.3671(3) 0.5960(2)
C7 C -0.4116(3) 0.6200(3) 0.4470(2)
C8 C -0.2970(3) 0.4617(3) 0.3672(2)
C9 C -0.0532(3) 0.4121(3) 0.30720(17)
C10 C -0.1287(3) 0.3823(3) 0.25777(19)
C11 C -0.1765(3) 0.7457(3) 0.3519(2)
H1 H -0.2197 0.7199 0.3234
C12 C -0.3700(3) 0.5784(3) 0.3652(2)
C13 C -0.0673(3) 0.3304(3) 0.17677(19)
C14 C -0.2430(3) 0.4078(3) 0.28442(19)
C15 C 0.2308(3) 0.2991(3) 0.4048(2)
H2 H 0.2738 0.3264 0.4323
C16 C -0.4004(3) 0.3349(3) 0.2861(2)
H3 H -0.3983 0.3181 0.3456
C17 C -0.2178(4) 0.8590(3) 0.3627(3)
H4 H -0.2887 0.9093 0.3420
C18 C -0.3275(3) 0.3863(3) 0.2386(2)
C19 C -0.0022(3) 0.3798(3) 0.1199(2)
H5 H 0.0043 0.4442 0.1335
C20 C -0.2490(3) 0.2515(3) 0.5930(2)
H6 H -0.2294 0.2224 0.5398
C21 C 0.1050(3) 0.2145(3) 0.3224(2)
H7 H 0.0639 0.1850 0.2952
C22 C -0.0101(3) 0.7090(3) 0.4264(3)
H8 H 0.0600 0.6586 0.4483
C23 C -0.3291(4) 0.4088(4) 0.6768(2)
H9 H -0.3637 0.4864 0.6806
C24 C -0.0738(4) 0.2343(3) 0.1546(2)
H10 H -0.1173 0.1987 0.1916
C25 C -0.1525(4) 0.8973(3) 0.4046(3)
C26 C 0.2114(4) 0.1455(3) 0.3511(3)
H11 H 0.2422 0.0690 0.3433
C27 C 0.0477(3) 0.2400(3) 0.0198(2)
C28 C 0.2745(4) 0.1872(3) 0.3919(3)
H12 H 0.3473 0.1387 0.4106
C29 C 0.0537(3) 0.3366(3) 0.0434(2)
H13 H 0.0967 0.3728 0.0064
C30 C -0.4774(3) 0.7376(4) 0.4507(3)
H14 H -0.5043 0.7671 0.5037
C31 C -0.0512(4) 0.8227(4) 0.4382(3)
H15 H -0.0098 0.8481 0.4688
C32 C -0.3968(3) 0.6528(4) 0.2899(3)
H16 H -0.3706 0.6257 0.2360
C33 C -0.5006(4) 0.8069(4) 0.3759(4)
H17 H -0.5437 0.8841 0.3783
C34 C -0.0157(4) 0.1902(3) 0.0773(2)
H18 H -0.0203 0.1245 0.0645
C35 C -0.4611(4) 0.7648(4) 0.2959(3)
H19 H -0.4791 0.8140 0.2458
C36 C -0.4841(4) 0.3318(4) 0.1580(3)
C37 C -0.2263(4) 0.1794(4) 0.6667(3)
H20 H -0.1907 0.1018 0.6629
C38 C -0.4756(3) 0.3089(4) 0.2451(3)
H21 H -0.5229 0.2742 0.2783
C39 C -0.3059(5) 0.3343(5) 0.7509(3)
H22 H -0.3248 0.3621 0.8046
C40 C -0.3359(4) 0.4114(4) 0.1524(3)
H23 H -0.2887 0.4464 0.1194
C41 C -0.2547(4) 0.2189(5) 0.7459(3)
C42 C 0.1059(5) 0.1949(4) -0.0674(3)
C43 C -0.4135(4) 0.3862(5) 0.1122(3)
H24 H -0.4182 0.4063 0.0532
C44 C -0.5688(6) 0.3036(7) 0.1148(3)
F1 F -0.2400(4) 0.1855(4) 0.8958(2)
F2 F -0.2954(5) 1.0658(3) 0.4438(6)
F3 F -0.1786(8) 1.0777(3) 0.3459(4)
C45 C -0.2013(8) 1.0223(6) 0.4091(5)
F4 F -0.3100(7) 0.0955(6) 0.8446(3)
C46 C -0.2333(8) 0.1401(8) 0.8254(4)
F5 F -0.1282(6) 0.0623(5) 0.8242(3)
F6 F -0.1366(8) 1.0416(4) 0.4626(6)
C47 C 0.1172(8) 0.0765(6) -0.0683(4)
H25 H 0.1751 0.0268 -0.0307
H26 H 0.1417 0.0551 -0.1261
H27 H 0.0421 0.0713 -0.0487
C48 C 0.0152(7) 0.2649(8) -0.1354(3)
H28 H -0.0629 0.2703 -0.1118
H29 H 0.0375 0.2277 -0.1873
H30 H 0.0157 0.3395 -0.1485
C49 C 0.2113(6) 0.2190(8) -0.0980(4)
H31 H 0.1946 0.2966 -0.0921
H32 H 0.2339 0.2055 -0.1577
H33 H 0.2747 0.1707 -0.0643
C50 C -0.5392(8) 0.3056(9) 0.0168(4)
H34 H -0.5627 0.3825 -0.0086
H35 H -0.5807 0.2692 -0.0060
H36 H -0.4554 0.2663 0.0036
C51 C -0.6894(7) 0.3740(15) 0.1412(9)
H37 H -0.6945 0.3940 0.1984
H38 H -0.7394 0.3336 0.1411
H39 H -0.7146 0.4415 0.1018
C52 C -0.5629(15) 0.1896(12) 0.1473(6)
H40 H -0.4987 0.1352 0.1152
H41 H -0.6360 0.1840 0.1405
H42 H -0.5501 0.1749 0.2073
loop_
_geom_bond_atom_site_label_1
_geom_bond_atom_site_label_2
_geom_bond_site_symmetry_1
_geom_bond_site_symmetry_2
N1 C2 1_555 1_555
N2 C4 1_555 1_555
N3 C3 1_555 1_555
C1 C4 1_555 1_555
N4 C3 1_555 1_555
C2 C5 1_555 1_555
C3 C6 1_555 1_555
C4 N1 1_555 1_555
C5 C9 1_555 1_555
C6 C20 1_555 1_555
C7 N4 1_555 1_555
C8 N3 1_555 1_555
C9 N2 1_555 1_555
C10 C9 1_555 1_555
C11 C1 1_555 1_555
H1 C11 1_555 1_555
C12 C7 1_555 1_555
C13 C10 1_555 1_555
C14 C8 1_555 1_555
C15 C2 1_555 1_555
H2 C15 1_555 1_555
C16 H3 1_555 1_555
C17 C11 1_555 1_555
H4 C17 1_555 1_555
C18 C14 1_555 1_555
C19 C13 1_555 1_555
H5 C19 1_555 1_555
C20 H6 1_555 1_555
C21 C5 1_555 1_555
H7 C21 1_555 1_555
C22 C1 1_555 1_555
H8 C22 1_555 1_555
C23 C6 1_555 1_555
H9 C23 1_555 1_555
C24 C13 1_555 1_555
H10 C24 1_555 1_555
C25 C17 1_555 1_555
C26 C21 1_555 1_555
H11 C26 1_555 1_555
C27 C29 1_555 1_555
C28 C15 1_555 1_555
H12 C28 1_555 1_555
C29 C19 1_555 1_555
H13 C29 1_555 1_555
C30 C7 1_555 1_555
H14 C30 1_555 1_555
C31 C22 1_555 1_555
H15 C31 1_555 1_555
C32 C12 1_555 1_555
H16 C32 1_555 1_555
C33 C30 1_555 1_555
H17 C33 1_555 1_555
C34 C24 1_555 1_555
H18 C34 1_555 1_555
C35 C32 1_555 1_555
H19 C35 1_555 1_555
C36 C38 1_555 1_555
C37 C20 1_555 1_555
H20 C37 1_555 1_555
C38 C16 1_555 1_555
H21 C38 1_555 1_555
C39 C23 1_555 1_555
H22 C39 1_555 1_555
C40 C18 1_555 1_555
H23 C40 1_555 1_555
C41 C37 1_555 1_555
C42 C27 1_555 1_555
C43 C36 1_555 1_555
H24 C43 1_555 1_555
C44 C36 1_555 1_555
F1 C46 1_555 1_555
F2 C45 1_555 1_555
F3 C45 1_555 1_555
C45 C25 1_555 1_555
F4 C46 1_555 1_555
C46 C41 1_555 1_555
F5 C46 1_555 1_555
F6 C45 1_555 1_555
C47 C42 1_555 1_555
H25 C47 1_555 1_555
H26 C47 1_555 1_555
H27 C47 1_555 1_555
C48 C42 1_555 1_555
H28 C48 1_555 1_555
H29 C48 1_555 1_555
H30 C48 1_555 1_555
C49 C42 1_555 1_555
H31 C49 1_555 1_555
H32 C49 1_555 1_555
H33 C49 1_555 1_555
C50 C44 1_555 1_555
H34 C50 1_555 1_555
H35 C50 1_555 1_555
H36 C50 1_555 1_555
C51 C44 1_555 1_555
H37 C51 1_555 1_555
H38 C51 1_555 1_555
H39 C51 1_555 1_555
C52 C44 1_555 1_555
H40 C52 1_555 1_555
H41 C52 1_555 1_555
H42 C52 1_555 1_555
C8 C12 1_555 1_555
C10 C14 1_555 1_555
C16 C18 1_555 1_555
C25 C31 1_555 1_555
C26 C28 1_555 1_555
C27 C34 1_555 1_555
C33 C35 1_555 1_555
C39 C41 1_555 1_555
C40 C43 1_555 1_555

#END
