
#######################################################################
#
#                 Cambridge Crystallographic Data Centre
#                                CCDC 
#
#######################################################################
#
# If this CIF has been generated from an entry in the Cambridge 
# Structural Database, then it will include bibliographic, chemical, 
# crystal, experimental, refinement or atomic coordinate data resulting 
# from the CCDC's data processing and validation procedures.
#
#######################################################################

data_KIJFER
_chemical_formula_moiety         'C30 H24 N2 O5'
_chemical_name_systematic        
"methyl 5'-(benzenecarbonyl)-1,1''-dimethyl-2,2''-dioxo-1,1'',2,2''-tetrahydrodispiro[indole-3,1'-cyclopent[4]ene-2',3''-indole]-3'-carboxylate"
_symmetry_cell_setting           monoclinic
_symmetry_space_group_name_H-M   'P 21'
_symmetry_Int_Tables_number      4
_space_group_name_Hall           'P 2yb'
loop_
_symmetry_equiv_pos_site_id
_symmetry_equiv_pos_as_xyz
1 x,y,z
2 -x,1/2+y,-z
_cell_length_a                   8.98962(8)
_cell_length_b                   9.43940(12)
_cell_length_c                   14.40897(12)
_cell_angle_alpha                90
_cell_angle_beta                 94.9113(8)
_cell_angle_gamma                90
_cell_volume                     1218.21
_exptl_crystal_colour            colorless
_exptl_crystal_description       block
_cell_formula_units_Z            2
loop_
_atom_site_label
_atom_site_type_symbol
_atom_site_fract_x
_atom_site_fract_y
_atom_site_fract_z
O1 O 0.2062(2) 0.7708(2) 0.45520(11)
O2 O 0.25107(19) 0.3293(2) 0.08458(12)
O3 O 0.4070(2) 0.4740(2) 0.41849(12)
O4 O 0.16334(19) 0.6874(2) 0.09970(12)
N1 N 0.5377(2) 0.6813(3) 0.40630(13)
O5 O 0.0359(2) 0.5981(3) 0.45689(14)
N2 N 0.4135(2) 0.6672(3) 0.07713(13)
C1 C 0.4932(2) 0.5126(3) 0.19312(15)
C2 C 0.2156(2) 0.4450(3) 0.22345(15)
C3 C 0.4269(2) 0.5873(3) 0.38135(15)
C4 C 0.1931(2) 0.3246(3) 0.15856(15)
C5 C 0.5366(3) 0.5917(3) 0.11865(16)
C6 C 0.0967(2) 0.2024(3) 0.18076(16)
C7 C 0.5230(3) 0.8053(3) 0.35286(16)
C8 C 0.0852(3) 0.1558(3) 0.27207(17)
H1 H 0.135025 0.204119 0.321697
C9 C 0.3354(2) 0.5537(3) 0.21008(15)
C10 C 0.5927(3) 0.4201(3) 0.23941(16)
H2 H 0.564096 0.364506 0.288112
C11 C 0.1260(3) 0.6634(3) 0.41746(16)
C12 C 0.6150(3) 0.9225(3) 0.35843(18)
H3 H 0.698720 0.926899 0.401009
C13 C 0.2889(3) 0.6431(3) 0.12224(16)
C14 C 0.3274(2) 0.6518(3) 0.29857(15)
C15 C 0.3579(3) 0.9099(3) 0.23137(17)
H4 H 0.272223 0.906861 0.190358
C16 C 0.1189(3) 0.4938(3) 0.28178(16)
H5 H 0.035904 0.443633 0.297989
C17 C 0.3960(3) 0.7965(3) 0.28959(15)
C18 C 0.1604(2) 0.6386(3) 0.31770(16)
H6 H 0.103618 0.707842 0.278348
C19 C 0.5772(3) 1.0340(3) 0.29744(19)
H7 H 0.638333 1.113618 0.298403
C20 C -0.0670(3) 0.0130(3) 0.1239(2)
H8 H -0.118633 -0.034615 0.074647
C21 C 0.7817(3) 0.4983(3) 0.14051(17)
H9 H 0.880136 0.495227 0.125304
C22 C 0.6810(3) 0.5899(3) 0.09166(16)
H10 H 0.709341 0.646696 0.043490
C23 C -0.0763(3) -0.0331(3) 0.2147(2)
H11 H -0.133854 -0.112075 0.226070
C24 C -0.0002(3) 0.0378(3) 0.28868(18)
H12 H -0.006600 0.006117 0.349327
C25 C 0.4506(3) 1.0290(3) 0.23542(19)
H13 H 0.427161 1.105527 0.196195
C26 C 0.6484(3) 0.6601(3) 0.48473(18)
H14 H 0.626493 0.574240 0.516605
H15 H 0.646016 0.738684 0.526835
H16 H 0.745843 0.653218 0.462512
C27 C 0.7380(3) 0.4121(3) 0.21120(17)
H17 H 0.805744 0.348203 0.240202
C28 C 0.0196(3) 0.1304(3) 0.10671(18)
H18 H 0.026248 0.161127 0.045890
C29 C 0.1811(3) 0.8064(3) 0.54962(16)
H19 H 0.090804 0.860596 0.550140
H20 H 0.263568 0.861177 0.576810
H21 H 0.172026 0.721029 0.584949
C30 C 0.4147(4) 0.7503(4) -0.0068(2)
H22 H 0.493631 0.818892 0.000494
H23 H 0.320688 0.798094 -0.018485
H24 H 0.430470 0.689133 -0.058285
loop_
_geom_bond_atom_site_label_1
_geom_bond_atom_site_label_2
_geom_bond_site_symmetry_1
_geom_bond_site_symmetry_2
O1 C11 1_555 1_555
O2 C4 1_555 1_555
O3 C3 1_555 1_555
O4 C13 1_555 1_555
N1 C3 1_555 1_555
O5 C11 1_555 1_555
N2 C5 1_555 1_555
C1 C5 1_555 1_555
C2 C4 1_555 1_555
C3 C14 1_555 1_555
C4 C6 1_555 1_555
C5 C22 1_555 1_555
C6 C8 1_555 1_555
C7 N1 1_555 1_555
C8 H1 1_555 1_555
C9 C1 1_555 1_555
C10 C1 1_555 1_555
H2 C10 1_555 1_555
C11 C18 1_555 1_555
C12 C7 1_555 1_555
H3 C12 1_555 1_555
C13 N2 1_555 1_555
C14 C9 1_555 1_555
C15 H4 1_555 1_555
C16 C2 1_555 1_555
H5 C16 1_555 1_555
C17 C7 1_555 1_555
C18 C14 1_555 1_555
H6 C18 1_555 1_555
C19 C12 1_555 1_555
H7 C19 1_555 1_555
C20 H8 1_555 1_555
C21 H9 1_555 1_555
C22 C21 1_555 1_555
H10 C22 1_555 1_555
C23 C20 1_555 1_555
H11 C23 1_555 1_555
C24 C8 1_555 1_555
H12 C24 1_555 1_555
C25 C15 1_555 1_555
H13 C25 1_555 1_555
C26 N1 1_555 1_555
H14 C26 1_555 1_555
H15 C26 1_555 1_555
H16 C26 1_555 1_555
C27 C10 1_555 1_555
H17 C27 1_555 1_555
C28 C6 1_555 1_555
H18 C28 1_555 1_555
C29 O1 1_555 1_555
H19 C29 1_555 1_555
H20 C29 1_555 1_555
H21 C29 1_555 1_555
C30 N2 1_555 1_555
H22 C30 1_555 1_555
H23 C30 1_555 1_555
H24 C30 1_555 1_555
C2 C9 1_555 1_555
C9 C13 1_555 1_555
C14 C17 1_555 1_555
C15 C17 1_555 1_555
C16 C18 1_555 1_555
C19 C25 1_555 1_555
C20 C28 1_555 1_555
C21 C27 1_555 1_555
C23 C24 1_555 1_555

#END
