
#######################################################################
#
#                 Cambridge Crystallographic Data Centre
#                                CCDC 
#
#######################################################################
#
# If this CIF has been generated from an entry in the Cambridge 
# Structural Database, then it will include bibliographic, chemical, 
# crystal, experimental, refinement or atomic coordinate data resulting 
# from the CCDC's data processing and validation procedures.
#
#######################################################################

data_KIJQEA01
_chemical_formula_moiety         'C41 H30 N4'
_chemical_name_systematic        
4'-(4-(2-(4-(N,N-Diphenylamino)phenyl)ethenyl)phenyl)-2,2':6',2''-terpyridine
_symmetry_cell_setting           monoclinic
_symmetry_space_group_name_H-M   'C 2/c'
_symmetry_Int_Tables_number      15
_space_group_name_Hall           '-C 2yn'
loop_
_symmetry_equiv_pos_site_id
_symmetry_equiv_pos_as_xyz
1 x,y,z
2 -x,y,1/2-z
3 1/2+x,1/2+y,z
4 1/2-x,1/2+y,1/2-z
5 -x,-y,-z
6 x,-y,1/2+z
7 1/2-x,1/2-y,-z
8 1/2+x,1/2-y,1/2+z
_cell_length_a                   28.9524(5)
_cell_length_b                   9.6748(2)
_cell_length_c                   23.3609(5)
_cell_angle_alpha                90
_cell_angle_beta                 110.8350(10)
_cell_angle_gamma                90
_cell_volume                     6115.7
_exptl_crystal_colour            'pale yellow'
_exptl_crystal_description       prism
_cell_formula_units_Z            8
_exptl_crystal_recrystallization_method dichloromethane/methanol
_exptl_crystal_preparation       photoluminescent
loop_
_atom_site_label
_atom_site_type_symbol
_atom_site_fract_x
_atom_site_fract_y
_atom_site_fract_z
N1 N 0.80245(5) 0.09927(15) 0.58544(6)
N2 N 0.42984(5) 0.16747(14) 0.89935(6)
C1 C 0.62123(6) 0.10468(16) 0.77677(7)
C2 C 0.77764(6) 0.02817(18) 0.52946(8)
C3 C 0.47964(6) 0.26613(17) 0.84675(7)
H1 H 0.4867 0.3419 0.8268
C4 C 0.44133(5) 0.27250(17) 0.86947(7)
C5 C 0.40968(6) 0.39768(18) 0.86057(8)
C6 C 0.54786(5) 0.13189(16) 0.82951(7)
C7 C 0.77693(5) 0.11543(16) 0.62702(7)
C8 C 0.85398(6) 0.12285(16) 0.60435(8)
C9 C 0.44347(6) -0.06290(18) 0.94089(7)
C10 C 0.68941(6) 0.17280(18) 0.73925(7)
H2 H 0.6929 0.2568 0.7597
N3 N 0.42230(6) 0.50761(17) 0.83460(7)
C11 C 0.61243(6) 0.23106(17) 0.79943(8)
H3 H 0.6311 0.3078 0.7972
C12 C 0.78115(6) 0.23461(17) 0.66136(8)
H4 H 0.8027 0.3043 0.6594
C13 C 0.72067(6) 0.15000(16) 0.70277(7)
C14 C 0.57642(6) 0.24411(17) 0.82515(8)
H5 H 0.5712 0.3298 0.8398
C15 C 0.65674(6) 0.08529(18) 0.74584(8)
H6 H 0.6562 -0.0013 0.7283
C16 C 0.49503(6) 0.03712(17) 0.88480(7)
H7 H 0.5126 -0.0454 0.8906
C17 C 0.75355(6) 0.25037(17) 0.69853(8)
H8 H 0.7571 0.3309 0.7215
C18 C 0.50723(5) 0.14595(16) 0.85414(7)
C19 C 0.45668(5) 0.05132(17) 0.90686(7)
C20 C 0.55749(6) 0.00530(17) 0.80838(8)
H9 H 0.5396 -0.0722 0.8117
N4 N 0.46950(5) -0.17952(16) 0.94707(7)
C21 C 0.71777(7) 0.02988(18) 0.66897(8)
H10 H 0.6966 -0.0404 0.6712
C22 C 0.59319(6) -0.00727(17) 0.78247(8)
H11 H 0.5987 -0.0934 0.7684
C23 C 0.88452(6) 0.10514(17) 0.66482(9)
H12 H 0.8711 0.0817 0.6942
C24 C 0.87488(7) 0.16019(19) 0.56143(10)
H13 H 0.8548 0.1744 0.5208
C25 C 0.36862(7) 0.3982(2) 0.87750(10)
H14 H 0.3610 0.3212 0.8963
C26 C 0.79991(6) -0.08121(19) 0.51133(8)
H15 H 0.8316 -0.1085 0.5356
C27 C 0.74547(7) 0.01248(17) 0.63240(9)
H16 H 0.7430 -0.0698 0.6109
C28 C 0.40651(6) -0.0489(2) 0.96526(9)
H17 H 0.3887 0.0330 0.9603
C29 C 0.73008(6) 0.0662(2) 0.49359(9)
H18 H 0.7147 0.1398 0.5052
C30 C 0.39651(7) -0.1579(2) 0.99697(9)
H19 H 0.3720 -0.1501 1.0138
C31 C 0.42278(7) -0.2771(2) 1.00340(9)
H20 H 0.4166 -0.3521 1.0245
C32 C 0.77536(8) -0.1498(2) 0.45762(10)
H21 H 0.7909 -0.2220 0.4453
C33 C 0.70548(7) -0.0063(2) 0.44002(9)
H22 H 0.6733 0.0178 0.4162
C34 C 0.39355(9) 0.6190(2) 0.82575(10)
H23 H 0.4024 0.6967 0.8086
C35 C 0.45862(7) -0.2833(2) 0.97784(10)
H24 H 0.4765 -0.3650 0.9822
C36 C 0.72842(9) -0.1133(3) 0.42210(10)
H25 H 0.7120 -0.1606 0.3859
C37 C 0.92552(8) 0.1762(2) 0.57910(13)
H26 H 0.9393 0.2012 0.5502
C38 C 0.95561(8) 0.1555(2) 0.63900(15)
H27 H 0.9897 0.1640 0.6506
C39 C 0.33914(8) 0.5137(3) 0.86637(12)
H28 H 0.3108 0.5151 0.8765
C40 C 0.35195(9) 0.6264(3) 0.84026(11)
H29 H 0.3328 0.7063 0.8326
C41 C 0.93468(7) 0.1222(2) 0.68128(12)
H30 H 0.9549 0.1109 0.7221
loop_
_geom_bond_atom_site_label_1
_geom_bond_atom_site_label_2
_geom_bond_site_symmetry_1
_geom_bond_site_symmetry_2
N1 C2 1_555 1_555
N2 C4 1_555 1_555
C1 C11 1_555 1_555
C2 C26 1_555 1_555
C3 H1 1_555 1_555
C4 C3 1_555 1_555
C5 C4 1_555 1_555
C6 C14 1_555 1_555
C7 N1 1_555 1_555
C8 N1 1_555 1_555
C9 C19 1_555 1_555
C10 H2 1_555 1_555
N3 C5 1_555 1_555
C11 H3 1_555 1_555
C12 C7 1_555 1_555
H4 C12 1_555 1_555
C13 C10 1_555 1_555
C14 C11 1_555 1_555
H5 C14 1_555 1_555
C15 C1 1_555 1_555
H6 C15 1_555 1_555
C16 H7 1_555 1_555
C17 C12 1_555 1_555
H8 C17 1_555 1_555
C18 C3 1_555 1_555
C19 N2 1_555 1_555
C20 C6 1_555 1_555
H9 C20 1_555 1_555
N4 C9 1_555 1_555
C21 C13 1_555 1_555
H10 C21 1_555 1_555
C22 C1 1_555 1_555
H11 C22 1_555 1_555
C23 C8 1_555 1_555
H12 C23 1_555 1_555
C24 C8 1_555 1_555
H13 C24 1_555 1_555
C25 C5 1_555 1_555
H14 C25 1_555 1_555
C26 H15 1_555 1_555
C27 C7 1_555 1_555
H16 C27 1_555 1_555
C28 C9 1_555 1_555
H17 C28 1_555 1_555
C29 C2 1_555 1_555
H18 C29 1_555 1_555
C30 C28 1_555 1_555
H19 C30 1_555 1_555
C31 C30 1_555 1_555
H20 C31 1_555 1_555
C32 C26 1_555 1_555
H21 C32 1_555 1_555
C33 C29 1_555 1_555
H22 C33 1_555 1_555
C34 N3 1_555 1_555
H23 C34 1_555 1_555
C35 N4 1_555 1_555
H24 C35 1_555 1_555
C36 C32 1_555 1_555
H25 C36 1_555 1_555
C37 C24 1_555 1_555
H26 C37 1_555 1_555
C38 C37 1_555 1_555
H27 C38 1_555 1_555
C39 C25 1_555 1_555
H28 C39 1_555 1_555
C40 C34 1_555 1_555
H29 C40 1_555 1_555
C41 C23 1_555 1_555
H30 C41 1_555 1_555
C6 C18 1_555 1_555
C10 C15 1_555 1_555
C13 C17 1_555 1_555
C16 C18 1_555 1_555
C16 C19 1_555 1_555
C20 C22 1_555 1_555
C21 C27 1_555 1_555
C31 C35 1_555 1_555
C33 C36 1_555 1_555
C38 C41 1_555 1_555
C39 C40 1_555 1_555

#END
