
#######################################################################
#
#                 Cambridge Crystallographic Data Centre
#                                CCDC 
#
#######################################################################
#
# If this CIF has been generated from an entry in the Cambridge 
# Structural Database, then it will include bibliographic, chemical, 
# crystal, experimental, refinement or atomic coordinate data resulting 
# from the CCDC's data processing and validation procedures.
#
#######################################################################

data_KIJTII
_chemical_formula_moiety         'C30 H27 N3 O1 S1'
_chemical_name_systematic        
1-(4-(Methylsulfanyl)-2,5-diphenyl-3-furyl)-N,N-bis(pyridin-2-ylmethyl)methanamine
_symmetry_cell_setting           triclinic
_symmetry_space_group_name_H-M   'P -1'
_symmetry_Int_Tables_number      2
_space_group_name_Hall           '-P 1'
loop_
_symmetry_equiv_pos_site_id
_symmetry_equiv_pos_as_xyz
1 x,y,z
2 -x,-y,-z
_cell_length_a                   10.5773(12)
_cell_length_b                   11.1121(12)
_cell_length_c                   12.1339(13)
_cell_angle_alpha                110.1090(10)
_cell_angle_beta                 98.237(2)
_cell_angle_gamma                107.317(2)
_cell_volume                     1229.61
_exptl_crystal_description       block
_cell_formula_units_Z            2
loop_
_atom_site_label
_atom_site_type_symbol
_atom_site_fract_x
_atom_site_fract_y
_atom_site_fract_z
C1 C 0.85945(10) 0.35423(11) 0.48296(9)
C2 C 0.80336(12) 0.45197(12) 0.52852(10)
H1 H 0.8299 0.5083 0.6135
C3 C 0.70845(13) 0.46666(14) 0.44903(12)
H2 H 0.6688 0.5334 0.4792
C4 C 0.67063(13) 0.38478(14) 0.32576(12)
H3 H 0.6050 0.3936 0.2699
C5 C 0.73172(14) 0.28900(15) 0.28591(12)
H4 H 0.7075 0.2330 0.2010
C6 C 0.96379(10) 0.33817(11) 0.57002(9)
H5 H 1.0077 0.2787 0.5227
H6 H 1.0365 0.4299 0.6219
C7 C 1.00797(11) 0.29882(11) 0.75197(9)
H7 H 1.0813 0.2709 0.7215
H8 H 0.9679 0.2390 0.7925
C8 C 1.07086(10) 0.44695(11) 0.84422(9)
C9 C 0.99877(13) 0.53464(12) 0.85656(10)
H9 H 0.9080 0.5028 0.8061
C10 C 1.06148(16) 0.66963(13) 0.94388(11)
H10 H 1.0151 0.7322 0.9529
C11 C 1.19185(16) 0.71132(13) 1.01712(11)
H11 H 1.2374 0.8031 1.0776
C12 C 1.25530(14) 0.61592(15) 1.00058(12)
H12 H 1.3443 0.6443 1.0529
C13 C 0.81830(11) 0.12891(11) 0.57547(9)
H13 H 0.8798 0.0821 0.5434
H14 H 0.7500 0.1190 0.5047
C14 C 0.74402(10) 0.05826(10) 0.64568(9)
C15 C 0.78249(11) -0.03443(10) 0.69013(9)
C16 C 0.68888(11) -0.07513(10) 0.74982(9)
C17 C 0.62844(10) 0.06648(10) 0.68081(9)
C18 C 0.53548(10) 0.13819(10) 0.66767(9)
C19 C 0.40901(11) 0.09972(11) 0.69449(9)
H15 H 0.3834 0.0257 0.7194
C20 C 0.32073(12) 0.16847(12) 0.68513(11)
H16 H 0.2355 0.1419 0.7043
C21 C 0.35630(13) 0.27585(13) 0.64791(14)
H17 H 0.2956 0.3226 0.6410
C22 C 0.48156(13) 0.31442(15) 0.62086(15)
H18 H 0.5062 0.3878 0.5951
C23 C 0.57103(12) 0.24722(13) 0.63101(13)
H19 H 0.6568 0.2753 0.6130
C24 C 0.67322(11) -0.15593(11) 0.82357(9)
C25 C 0.71620(13) -0.26774(12) 0.80077(12)
H20 H 0.7574 -0.2928 0.7362
C26 C 0.69836(14) -0.34197(14) 0.87295(14)
H21 H 0.7269 -0.4182 0.8567
C27 C 0.63949(13) -0.30618(14) 0.96827(12)
H22 H 0.6285 -0.3569 1.0176
C28 C 0.59676(13) -0.19568(13) 0.99086(11)
H23 H 0.5557 -0.1710 1.0557
C29 C 0.61350(11) -0.12080(11) 0.91941(10)
H24 H 0.5841 -0.0451 0.9359
C30 C 1.03016(14) -0.01792(18) 0.81986(15)
H25 H 1.0626 0.0832 0.8548
H26 H 1.1094 -0.0464 0.8180
H27 H 0.9779 -0.0530 0.8700
N1 N 0.90076(9) 0.27692(9) 0.64841(7)
N2 N 1.19791(10) 0.48600(11) 0.91486(9)
N3 N 0.82480(11) 0.27186(11) 0.36306(9)
O1 O 0.59467(7) -0.01362(7) 0.74521(7)
S1 S 0.92103(3) -0.08690(3) 0.66677(3)
loop_
_geom_bond_atom_site_label_1
_geom_bond_atom_site_label_2
_geom_bond_site_symmetry_1
_geom_bond_site_symmetry_2
C1 C2 1_555 1_555
C2 H1 1_555 1_555
C3 C2 1_555 1_555
H2 C3 1_555 1_555
C4 C3 1_555 1_555
H3 C4 1_555 1_555
C5 C4 1_555 1_555
H4 C5 1_555 1_555
C6 C1 1_555 1_555
H5 C6 1_555 1_555
H6 C6 1_555 1_555
C7 H7 1_555 1_555
H8 C7 1_555 1_555
C8 C7 1_555 1_555
C9 C8 1_555 1_555
H9 C9 1_555 1_555
C10 C9 1_555 1_555
H10 C10 1_555 1_555
C11 C10 1_555 1_555
H11 C11 1_555 1_555
C12 C11 1_555 1_555
H12 C12 1_555 1_555
C13 H13 1_555 1_555
H14 C13 1_555 1_555
C14 C13 1_555 1_555
C15 C14 1_555 1_555
C16 C15 1_555 1_555
C17 C14 1_555 1_555
C18 C17 1_555 1_555
C19 C18 1_555 1_555
H15 C19 1_555 1_555
C20 C19 1_555 1_555
H16 C20 1_555 1_555
C21 C20 1_555 1_555
H17 C21 1_555 1_555
C22 C21 1_555 1_555
H18 C22 1_555 1_555
C23 C18 1_555 1_555
H19 C23 1_555 1_555
C24 C16 1_555 1_555
C25 C24 1_555 1_555
H20 C25 1_555 1_555
C26 C25 1_555 1_555
H21 C26 1_555 1_555
C27 C26 1_555 1_555
H22 C27 1_555 1_555
C28 C27 1_555 1_555
H23 C28 1_555 1_555
C29 C24 1_555 1_555
H24 C29 1_555 1_555
C30 H25 1_555 1_555
H26 C30 1_555 1_555
H27 C30 1_555 1_555
N1 C6 1_555 1_555
N2 C8 1_555 1_555
N3 C1 1_555 1_555
O1 C16 1_555 1_555
S1 C15 1_555 1_555
C5 N3 1_555 1_555
C7 N1 1_555 1_555
C12 N2 1_555 1_555
C13 N1 1_555 1_555
C17 O1 1_555 1_555
C22 C23 1_555 1_555
C28 C29 1_555 1_555
C30 S1 1_555 1_555

#END
