
#######################################################################
#
#                 Cambridge Crystallographic Data Centre
#                                CCDC 
#
#######################################################################
#
# If this CIF has been generated from an entry in the Cambridge 
# Structural Database, then it will include bibliographic, chemical, 
# crystal, experimental, refinement or atomic coordinate data resulting 
# from the CCDC's data processing and validation procedures.
#
#######################################################################

data_KIJWAD01
_chemical_formula_moiety         'C6 H13 N2 1+,C2 Cl1 F2 O2 1-'
_chemical_name_systematic        
'4-Aza-1-azoniabicyclo[2.2.2]octane chloro(difluoro)acetate'
_symmetry_cell_setting           monoclinic
_symmetry_space_group_name_H-M   'P 21/c'
_symmetry_Int_Tables_number      14
_space_group_name_Hall           '-P 2ybc'
loop_
_symmetry_equiv_pos_site_id
_symmetry_equiv_pos_as_xyz
1 x,y,z
2 -x,1/2+y,1/2-z
3 -x,-y,-z
4 x,1/2-y,1/2+z
_cell_length_a                   9.116(5)
_cell_length_b                   18.023(10)
_cell_length_c                   21.227(10)
_cell_angle_alpha                90
_cell_angle_beta                 115.33(2)
_cell_angle_gamma                90
_cell_volume                     3152.25
_exptl_crystal_colour            colorless
_exptl_crystal_description       Prism
_cell_formula_units_Z            12
loop_
_atom_site_label
_atom_site_type_symbol
_atom_site_fract_x
_atom_site_fract_y
_atom_site_fract_z
N1 N 0.4472(3) 0.14904(14) 0.18924(12)
N2 N 0.3267(3) 0.18295(14) 0.06093(13)
H1 H 0.2749 0.1949 0.0121
C1 C 0.2979(4) 0.19198(19) 0.17072(16)
H2 H 0.3227 0.2374 0.1997
H3 H 0.2192 0.1622 0.1808
C2 C 0.5630(4) 0.19361(19) 0.17427(16)
H4 H 0.6653 0.1654 0.1880
H5 H 0.5879 0.2396 0.2024
C3 C 0.3321(5) 0.10011(18) 0.06738(16)
H6 H 0.3991 0.0788 0.0455
H7 H 0.2213 0.0792 0.0439
C4 C 0.2212(4) 0.21383(18) 0.09306(16)
H8 H 0.1101 0.1932 0.0694
H9 H 0.2145 0.2685 0.0882
C5 C 0.4962(4) 0.21407(19) 0.09646(16)
H10 H 0.4941 0.2686 0.0908
H11 H 0.5657 0.1926 0.0758
C6 C 0.4073(5) 0.08171(17) 0.14600(17)
H12 H 0.3298 0.0513 0.1563
H13 H 0.5071 0.0521 0.1581
N3 N 0.5535(3) 0.31542(14) 0.31069(12)
N4 N 0.6786(4) 0.34940(14) 0.43901(13)
H14 H 0.7314 0.3636 0.4864
C7 C 0.7013(4) 0.3588(2) 0.32800(16)
H15 H 0.6741 0.4048 0.2998
H16 H 0.7782 0.3298 0.3161
C8 C 0.4377(4) 0.36008(19) 0.32666(16)
H17 H 0.3368 0.3313 0.3147
H18 H 0.4095 0.4056 0.2978
C9 C 0.6684(5) 0.26649(17) 0.43253(16)
H19 H 0.5990 0.2465 0.4539
H20 H 0.7778 0.2442 0.4565
C10 C 0.7829(4) 0.3793(2) 0.40584(16)
H21 H 0.8928 0.3572 0.4282
H22 H 0.7931 0.4338 0.4115
C11 C 0.5104(4) 0.38173(19) 0.40468(16)
H23 H 0.5150 0.4364 0.4097
H24 H 0.4423 0.3618 0.4267
C12 C 0.5943(5) 0.24826(17) 0.35398(17)
H25 H 0.6726 0.2182 0.3438
H26 H 0.4949 0.2182 0.3417
N5 N 0.5757(3) -0.01760(14) 0.31079(12)
N6 N 0.7118(3) 0.01650(13) 0.43896(12)
H27 H 0.7634 0.0295 0.4828
C13 C 0.7201(4) 0.02756(18) 0.32564(15)
H28 H 0.6880 0.0734 0.2973
H29 H 0.7955 -0.0003 0.3120
C14 C 0.4621(3) 0.02462(18) 0.32955(15)
H30 H 0.3640 -0.0057 0.3194
H31 H 0.4283 0.0702 0.3008
C15 C 0.7074(4) -0.06657(16) 0.43268(14)
H32 H 0.6456 -0.0882 0.4568
H33 H 0.8189 -0.0870 0.4540
C16 C 0.8079(3) 0.04841(18) 0.40323(15)
H34 H 0.9193 0.0279 0.4238
H35 H 0.8149 0.1030 0.4087
C17 C 0.5405(3) 0.04603(18) 0.40732(14)
H36 H 0.5412 0.1007 0.4124
H37 H 0.4781 0.0243 0.4312
C18 C 0.6239(4) -0.08522(16) 0.35396(16)
H38 H 0.6992 -0.1146 0.3413
H39 H 0.5265 -0.1159 0.3442
Cl1 Cl 0.89780(12) 0.25339(5) 0.13109(5)
F1 F 1.0451(3) 0.36910(15) 0.19419(11)
F2 F 0.8166(3) 0.34895(14) 0.19767(11)
O1 O 0.8918(3) 0.42460(14) 0.06556(12)
O2 O 0.6552(3) 0.39878(19) 0.06811(15)
C19 C 0.8912(4) 0.34698(19) 0.15521(16)
C20 C 0.8045(4) 0.39559(18) 0.09026(15)
Cl2 Cl 0.88838(14) -0.08043(5) 0.13101(5)
F3 F 0.8422(3) 0.02684(17) 0.19587(12)
F4 F 1.0759(3) 0.02307(16) 0.19595(12)
O3 O 0.9572(6) 0.0777(3) 0.06821(18)
O4 O 0.7165(6) 0.0796(2) 0.06595(17)
C21 C 0.9167(4) 0.01310(19) 0.15526(16)
C22 C 0.8536(7) 0.0636(2) 0.0898(2)
Cl3 Cl 0.14050(11) 0.08668(5) 0.36901(5)
F5 F 0.1687(4) 0.20111(16) 0.30623(12)
F6 F -0.0680(3) 0.18277(15) 0.30168(12)
O5 O 0.0243(4) 0.2295(2) 0.43248(16)
O6 O 0.2633(4) 0.25912(16) 0.43299(14)
C23 C 0.0934(4) 0.1800(2) 0.34494(17)
C24 C 0.1298(4) 0.2296(2) 0.41060(18)
loop_
_geom_bond_atom_site_label_1
_geom_bond_atom_site_label_2
_geom_bond_site_symmetry_1
_geom_bond_site_symmetry_2
N1 C1 1_555 1_555
N2 H1 1_555 1_555
C1 H2 1_555 1_555
H3 C1 1_555 1_555
C2 N1 1_555 1_555
H4 C2 1_555 1_555
H5 C2 1_555 1_555
C3 N2 1_555 1_555
H6 C3 1_555 1_555
H7 C3 1_555 1_555
C4 N2 1_555 1_555
H8 C4 1_555 1_555
H9 C4 1_555 1_555
C5 N2 1_555 1_555
H10 C5 1_555 1_555
H11 C5 1_555 1_555
C6 N1 1_555 1_555
H12 C6 1_555 1_555
H13 C6 1_555 1_555
N3 C7 1_555 1_555
N4 H14 1_555 1_555
C7 H15 1_555 1_555
H16 C7 1_555 1_555
C8 N3 1_555 1_555
H17 C8 1_555 1_555
H18 C8 1_555 1_555
C9 N4 1_555 1_555
H19 C9 1_555 1_555
H20 C9 1_555 1_555
C10 N4 1_555 1_555
H21 C10 1_555 1_555
H22 C10 1_555 1_555
C11 N4 1_555 1_555
H23 C11 1_555 1_555
H24 C11 1_555 1_555
C12 N3 1_555 1_555
H25 C12 1_555 1_555
H26 C12 1_555 1_555
N5 C13 1_555 1_555
N6 H27 1_555 1_555
C13 H28 1_555 1_555
H29 C13 1_555 1_555
C14 N5 1_555 1_555
H30 C14 1_555 1_555
H31 C14 1_555 1_555
C15 N6 1_555 1_555
H32 C15 1_555 1_555
H33 C15 1_555 1_555
C16 N6 1_555 1_555
H34 C16 1_555 1_555
H35 C16 1_555 1_555
C17 N6 1_555 1_555
H36 C17 1_555 1_555
H37 C17 1_555 1_555
C18 N5 1_555 1_555
H38 C18 1_555 1_555
H39 C18 1_555 1_555
Cl1 C19 1_555 1_555
F1 C19 1_555 1_555
F2 C19 1_555 1_555
O1 C20 1_555 1_555
O2 C20 1_555 1_555
C19 C20 1_555 1_555
Cl2 C21 1_555 1_555
F3 C21 1_555 1_555
F4 C21 1_555 1_555
O3 C22 1_555 1_555
O4 C22 1_555 1_555
C21 C22 1_555 1_555
Cl3 C23 1_555 1_555
F5 C23 1_555 1_555
F6 C23 1_555 1_555
O5 C24 1_555 1_555
O6 C24 1_555 1_555
C23 C24 1_555 1_555
C1 C4 1_555 1_555
C2 C5 1_555 1_555
C3 C6 1_555 1_555
C7 C10 1_555 1_555
C8 C11 1_555 1_555
C9 C12 1_555 1_555
C13 C16 1_555 1_555
C14 C17 1_555 1_555
C15 C18 1_555 1_555

#END
