
#######################################################################
#
#                 Cambridge Crystallographic Data Centre
#                                CCDC 
#
#######################################################################
#
# If this CIF has been generated from an entry in the Cambridge 
# Structural Database, then it will include bibliographic, chemical, 
# crystal, experimental, refinement or atomic coordinate data resulting 
# from the CCDC's data processing and validation procedures.
#
#######################################################################

data_KIKHIW
_chemical_formula_moiety         'C23 H19 N3 O3'
_chemical_name_systematic        
'2-(1H-1,2,3-Benzotriazol-1-yl)-1-benzoylethyl 4-methylbenzoate'
_symmetry_cell_setting           monoclinic
_symmetry_space_group_name_H-M   'C 2/c'
_symmetry_Int_Tables_number      15
_space_group_name_Hall           '-C 2yn'
loop_
_symmetry_equiv_pos_site_id
_symmetry_equiv_pos_as_xyz
1 x,y,z
2 1/2+x,1/2+y,z
3 -x,y,1/2-z
4 1/2-x,1/2+y,1/2-z
5 -x,-y,-z
6 1/2-x,1/2-y,-z
7 x,-y,1/2+z
8 1/2+x,1/2-y,1/2+z
_cell_length_a                   20.376(4)
_cell_length_b                   19.648(4)
_cell_length_c                   10.213(2)
_cell_angle_alpha                90
_cell_angle_beta                 107.605(4)
_cell_angle_gamma                90
_cell_volume                     3897.25
_exptl_crystal_colour            colorless
_exptl_crystal_description       block
_cell_formula_units_Z            8
_exptl_crystal_recrystallization_method 'acetone/ethyl acetate'
loop_
_atom_site_label
_atom_site_type_symbol
_atom_site_fract_x
_atom_site_fract_y
_atom_site_fract_z
O1 O 0.20658(8) 0.12677(8) 0.70219(18)
O2 O 0.14502(7) 0.05617(7) 0.86281(16)
O3 O 0.05904(9) 0.06461(9) 0.6674(2)
N1 N 0.36982(10) 0.14012(10) 1.0086(2)
N2 N 0.30975(10) 0.16959(9) 0.9822(2)
N3 N 0.26645(9) 0.12819(9) 1.02305(18)
C1 C 0.36587(11) 0.07846(11) 1.0694(2)
C2 C 0.41650(11) 0.02937(13) 1.1214(3)
H1 H 0.4608 0.0342 1.1146
C3 C 0.39807(13) -0.02585(13) 1.1825(3)
H2 H 0.4306 -0.0596 1.2180
C4 C 0.33142(12) -0.03349(12) 1.1938(3)
H3 H 0.3213 -0.0718 1.2377
C5 C 0.28111(11) 0.01386(11) 1.1421(2)
H4 H 0.2368 0.0086 1.1482
C6 C 0.30000(10) 0.07063(10) 1.0794(2)
C7 C 0.19630(11) 0.14953(11) 1.0045(2)
H5 H 0.1953 0.1987 1.0130
H6 H 0.1808 0.1300 1.0773
C8 C 0.14636(11) 0.12887(11) 0.8666(2)
H7 H 0.1003 0.1457 0.8609
C9 C 0.16798(11) 0.15841(12) 0.7499(2)
C10 C 0.14402(11) 0.22827(11) 0.7005(2)
C11 C 0.18920(13) 0.27258(14) 0.6695(3)
H8 H 0.2345 0.2593 0.6824
C12 C 0.16787(18) 0.33635(15) 0.6197(3)
H9 H 0.1990 0.3665 0.6008
C13 C 0.1012(2) 0.35565(15) 0.5977(3)
H10 H 0.0868 0.3988 0.5632
C14 C 0.05536(15) 0.31160(16) 0.6266(3)
H11 H 0.0097 0.3245 0.6106
C15 C 0.07713(12) 0.24794(13) 0.6795(3)
H12 H 0.0463 0.2183 0.7009
C16 C 0.09767(11) 0.02871(13) 0.7527(3)
C17 C 0.09855(10) -0.04588(12) 0.7526(2)
C18 C 0.05402(11) -0.08051(14) 0.6424(2)
H13 H 0.0250 -0.0563 0.5694
C19 C 0.05285(12) -0.15056(14) 0.6412(3)
H14 H 0.0227 -0.1730 0.5670
C20 C 0.09510(12) -0.18837(13) 0.7469(3)
C21 C 0.13932(12) -0.15321(13) 0.8558(3)
H15 H 0.1684 -0.1776 0.9284
C22 C 0.14135(12) -0.08347(12) 0.8595(2)
H16 H 0.1716 -0.0613 0.9340
C23 C 0.09377(14) -0.26485(13) 0.7461(3)
H17 H 0.1385 -0.2819 0.7507
H18 H 0.0607 -0.2806 0.6632
H19 H 0.0812 -0.2809 0.8241
loop_
_geom_bond_atom_site_label_1
_geom_bond_atom_site_label_2
_geom_bond_site_symmetry_1
_geom_bond_site_symmetry_2
O1 C9 1_555 1_555
O2 C8 1_555 1_555
O3 C16 1_555 1_555
N1 N2 1_555 1_555
N2 N3 1_555 1_555
N3 C6 1_555 1_555
C1 N1 1_555 1_555
C2 C1 1_555 1_555
H1 C2 1_555 1_555
C3 C2 1_555 1_555
H2 C3 1_555 1_555
C4 C3 1_555 1_555
H3 C4 1_555 1_555
C5 C4 1_555 1_555
H4 C5 1_555 1_555
C6 C1 1_555 1_555
C7 N3 1_555 1_555
H5 C7 1_555 1_555
H6 C7 1_555 1_555
C8 C7 1_555 1_555
H7 C8 1_555 1_555
C9 C8 1_555 1_555
C10 C9 1_555 1_555
C11 C10 1_555 1_555
H8 C11 1_555 1_555
C12 C11 1_555 1_555
H9 C12 1_555 1_555
C13 C12 1_555 1_555
H10 C13 1_555 1_555
C14 C13 1_555 1_555
H11 C14 1_555 1_555
C15 C10 1_555 1_555
H12 C15 1_555 1_555
C16 O2 1_555 1_555
C17 C16 1_555 1_555
C18 C17 1_555 1_555
H13 C18 1_555 1_555
C19 C18 1_555 1_555
H14 C19 1_555 1_555
C20 C19 1_555 1_555
C21 C20 1_555 1_555
H15 C21 1_555 1_555
C22 C17 1_555 1_555
H16 C22 1_555 1_555
C23 C20 1_555 1_555
H17 C23 1_555 1_555
H18 C23 1_555 1_555
H19 C23 1_555 1_555
C5 C6 1_555 1_555
C14 C15 1_555 1_555
C21 C22 1_555 1_555

#END
