
#######################################################################
#
#                 Cambridge Crystallographic Data Centre
#                                CCDC 
#
#######################################################################
#
# If this CIF has been generated from an entry in the Cambridge 
# Structural Database, then it will include bibliographic, chemical, 
# crystal, experimental, refinement or atomic coordinate data resulting 
# from the CCDC's data processing and validation procedures.
#
#######################################################################

data_KIKJUL
_chemical_formula_moiety         'C22 H17 N3 O1 S1'
_chemical_name_systematic        
2-(1-(1,3-Benzothiazol-2-yl)-5-phenyl-4,5-dihydro-1H-pyrazol-3-yl)phenol
_symmetry_cell_setting           orthorhombic
_symmetry_space_group_name_H-M   'P c a 21'
_symmetry_Int_Tables_number      29
_space_group_name_Hall           'P 2c -2ac'
loop_
_symmetry_equiv_pos_site_id
_symmetry_equiv_pos_as_xyz
1 x,y,z
2 -x,-y,1/2+z
3 1/2-x,y,1/2+z
4 1/2+x,-y,z
_cell_length_a                   26.585(5)
_cell_length_b                   9.5587(17)
_cell_length_c                   7.0731(12)
_cell_angle_alpha                90
_cell_angle_beta                 90
_cell_angle_gamma                90
_cell_volume                     1797.4
_exptl_crystal_colour            colorless
_exptl_crystal_description       block
_cell_formula_units_Z            4
loop_
_atom_site_label
_atom_site_type_symbol
_atom_site_fract_x
_atom_site_fract_y
_atom_site_fract_z
C1 C 0.33013(7) 0.61106(19) 0.4937(3)
C2 C 0.29745(8) 0.5919(2) 0.6454(3)
H1 H 0.2671 0.6400 0.6505
C3 C 0.31068(9) 0.5008(2) 0.7879(4)
H2 H 0.2887 0.4872 0.8886
C4 C 0.35594(9) 0.4291(2) 0.7848(4)
H3 H 0.3641 0.3686 0.8831
C5 C 0.38894(9) 0.4470(2) 0.6364(3)
H4 H 0.4194 0.3990 0.6334
C6 C 0.37597(7) 0.53748(19) 0.4924(3)
C7 C 0.36131(8) 0.69479(18) 0.2283(3)
C8 C 0.32973(7) 0.8663(2) -0.0192(3)
H5 H 0.2982 0.8164 -0.0437
C9 C 0.35644(7) 0.90117(19) -0.2086(4)
H6 H 0.3369 0.8689 -0.3158
H7 H 0.3622 1.0010 -0.2209
C10 C 0.40541(7) 0.82245(17) -0.1931(3)
C11 C 0.44499(7) 0.82239(19) -0.3349(3)
C12 C 0.48788(8) 0.7375(2) -0.3177(3)
C13 C 0.52413(8) 0.7386(2) -0.4582(4)
H8 H 0.5518 0.6796 -0.4483
C14 C 0.51978(9) 0.8250(2) -0.6113(4)
H9 H 0.5448 0.8258 -0.7030
C15 C 0.47817(8) 0.9115(2) -0.6304(3)
H10 H 0.4753 0.9710 -0.7340
C16 C 0.44141(8) 0.9081(2) -0.4943(3)
H11 H 0.4132 0.9646 -0.5087
C17 C 0.31970(8) 0.99569(19) 0.0974(3)
C18 C 0.35893(9) 1.0735(2) 0.1698(3)
H12 H 0.3917 1.0415 0.1551
C19 C 0.35050(11) 1.1978(2) 0.2636(4)
H13 H 0.3774 1.2482 0.3133
C20 C 0.30229(11) 1.2467(2) 0.2833(5)
H14 H 0.2964 1.3309 0.3452
C21 C 0.26328(10) 1.1724(3) 0.2126(4)
H15 H 0.2307 1.2065 0.2256
C22 C 0.27133(9) 1.0447(2) 0.1201(4)
H16 H 0.2442 0.9934 0.0743
N1 N 0.32251(6) 0.70095(16) 0.3416(2)
N2 N 0.36666(7) 0.77096(17) 0.0692(3)
N3 N 0.40925(6) 0.75141(17) -0.0393(3)
O1 O 0.49588(6) 0.65272(19) -0.1663(3)
H17 H 0.4736 0.6651 -0.0879
S1 S 0.410115(18) 0.58014(5) 0.29019(8)
loop_
_geom_bond_atom_site_label_1
_geom_bond_atom_site_label_2
_geom_bond_site_symmetry_1
_geom_bond_site_symmetry_2
C1 C2 1_555 1_555
C2 H1 1_555 1_555
C3 C2 1_555 1_555
H2 C3 1_555 1_555
C4 C3 1_555 1_555
H3 C4 1_555 1_555
C5 C4 1_555 1_555
H4 C5 1_555 1_555
C6 C1 1_555 1_555
C7 N1 1_555 1_555
C8 H5 1_555 1_555
C9 C8 1_555 1_555
H6 C9 1_555 1_555
H7 C9 1_555 1_555
C10 C9 1_555 1_555
C11 C10 1_555 1_555
C12 C11 1_555 1_555
C13 C12 1_555 1_555
H8 C13 1_555 1_555
C14 C13 1_555 1_555
H9 C14 1_555 1_555
C15 C14 1_555 1_555
H10 C15 1_555 1_555
C16 C11 1_555 1_555
H11 C16 1_555 1_555
C17 C8 1_555 1_555
C18 C17 1_555 1_555
H12 C18 1_555 1_555
C19 C18 1_555 1_555
H13 C19 1_555 1_555
C20 C19 1_555 1_555
H14 C20 1_555 1_555
C21 C20 1_555 1_555
H15 C21 1_555 1_555
C22 C17 1_555 1_555
H16 C22 1_555 1_555
N1 C1 1_555 1_555
N2 C7 1_555 1_555
N3 C10 1_555 1_555
O1 C12 1_555 1_555
H17 O1 1_555 1_555
S1 C6 1_555 1_555
C5 C6 1_555 1_555
C7 S1 1_555 1_555
C8 N2 1_555 1_555
C15 C16 1_555 1_555
C21 C22 1_555 1_555
N2 N3 1_555 1_555

#END
