
#######################################################################
#
#                 Cambridge Crystallographic Data Centre
#                                CCDC 
#
#######################################################################
#
# If this CIF has been generated from an entry in the Cambridge 
# Structural Database, then it will include bibliographic, chemical, 
# crystal, experimental, refinement or atomic coordinate data resulting 
# from the CCDC's data processing and validation procedures.
#
#######################################################################

data_KIKJUM
_chemical_formula_moiety         'C22 H20 N2 O2,C6 F4 I2'
_chemical_name_systematic        
"(4,4'-((2,5-dimethoxy-1,4-phenylene)bis(ethene-2,1-diyl))dipyridine) (1,2,4,5-tetrafluoro-3,6-diiodobenzene) unknown solvate"
_symmetry_cell_setting           triclinic
_symmetry_space_group_name_H-M   'P -1'
_symmetry_Int_Tables_number      2
_space_group_name_Hall           '-P 1'
loop_
_symmetry_equiv_pos_site_id
_symmetry_equiv_pos_as_xyz
1 x,y,z
2 -x,-y,-z
_cell_length_a                   4.0465(2)
_cell_length_b                   12.2676(7)
_cell_length_c                   14.3472(8)
_cell_angle_alpha                82.585(2)
_cell_angle_beta                 82.769(2)
_cell_angle_gamma                83.758(2)
_cell_volume                     697.531
_exptl_crystal_colour            red
_exptl_crystal_description       prismatic
_cell_formula_units_Z            1
loop_
_atom_site_label
_atom_site_type_symbol
_atom_site_fract_x
_atom_site_fract_y
_atom_site_fract_z
I1 I 0.30486(3) 0.25901(2) 0.92578(2)
F1 F 0.0655(4) 0.07592(12) 0.81346(9)
F2 F -0.1843(4) -0.11560(11) 0.86945(10)
C1 C 0.1307(5) 0.10310(16) 0.96999(15)
C2 C 0.0357(5) 0.04000(17) 0.90685(14)
C3 C -0.0926(5) -0.05993(17) 0.93571(15)
I1A I -0.30486(3) -0.25901(2) 1.07422(2)
F1A F -0.0655(4) -0.07592(12) 1.18654(9)
F2A F 0.1843(4) 0.11560(11) 1.13055(10)
C1A C -0.1307(5) -0.10310(16) 1.03001(15)
C2A C -0.0357(5) -0.04000(17) 1.09315(14)
C3A C 0.0926(5) 0.05993(17) 1.06429(15)
N1 N 0.5127(5) 0.46655(16) 0.85578(15)
O1 O 0.7204(5) 1.20041(14) 0.55584(12)
C4 C 0.8526(6) 1.09919(19) 0.53025(15)
C5 C 0.7993(6) 1.00015(19) 0.58548(16)
H1 H 0.6622 1.0007 0.6443
C6 C 0.9428(6) 0.89931(19) 0.55651(15)
C7 C 0.8861(6) 0.79349(19) 0.61327(16)
H2 H 1.0174 0.7301 0.5929
C8 C 0.6701(6) 0.77699(19) 0.69034(16)
H3 H 0.5363 0.8397 0.7112
C9 C 0.6218(6) 0.66930(18) 0.74587(15)
C10 C 0.7744(7) 0.5692(2) 0.71800(19)
H4 H 0.9199 0.5680 0.6607
C11 C 0.7122(7) 0.4716(2) 0.7744(2)
H5 H 0.8178 0.4044 0.7539
C12 C 0.3701(6) 0.5616(2) 0.88273(18)
H6 H 0.2286 0.5599 0.9409
C13 C 0.4155(6) 0.66322(19) 0.83083(17)
H7 H 0.3054 0.7287 0.8534
C14 C 0.5110(7) 1.2023(2) 0.64281(18)
H8 H 0.3181 1.1609 0.6412
H9 H 0.4329 1.2788 0.6526
H10 H 0.6372 1.1682 0.6948
N1A N 1.4873(5) 1.53345(16) 0.14422(15)
O1A O 1.2796(5) 0.79959(14) 0.44416(12)
C4A C 1.1474(6) 0.90081(19) 0.46975(15)
C5A C 1.2007(6) 0.99985(19) 0.41452(16)
H1A H 1.3378 0.9993 0.3557
C6A C 1.0572(6) 1.10069(19) 0.44349(15)
C7A C 1.1139(6) 1.20651(19) 0.38673(16)
H2A H 0.9826 1.2699 0.4071
C8A C 1.3299(6) 1.22301(19) 0.30966(16)
H3A H 1.4637 1.1603 0.2888
C9A C 1.3782(6) 1.33070(18) 0.25413(15)
C10A C 1.2256(7) 1.4308(2) 0.28200(19)
H4A H 1.0801 1.4320 0.3393
C11A C 1.2878(7) 1.5284(2) 0.2256(2)
H5A H 1.1822 1.5956 0.2461
C12A C 1.6299(6) 1.4384(2) 0.11727(18)
H6A H 1.7714 1.4401 0.0591
C13A C 1.5845(6) 1.33678(19) 0.16917(17)
H7A H 1.6946 1.2713 0.1466
C14A C 1.4890(7) 0.7977(2) 0.35719(18)
H8A H 1.6819 0.8391 0.3588
H9A H 1.5671 0.7212 0.3474
H10A H 1.3628 0.8318 0.3052
loop_
_geom_bond_atom_site_label_1
_geom_bond_atom_site_label_2
_geom_bond_site_symmetry_1
_geom_bond_site_symmetry_2
I1 C1 1_555 1_555
F1 C2 1_555 1_555
F2 C3 1_555 1_555
C1 C2 1_555 1_555
C2 C3 1_555 1_555
C3 C1A 1_555 1_555
N1 C11 1_555 1_555
O1 C4 1_555 1_555
C4 C5 1_555 1_555
C5 H1 1_555 1_555
C6 C5 1_555 1_555
C7 C6 1_555 1_555
H2 C7 1_555 1_555
C8 C7 1_555 1_555
H3 C8 1_555 1_555
C9 C8 1_555 1_555
C10 C9 1_555 1_555
H4 C10 1_555 1_555
C11 C10 1_555 1_555
H5 C11 1_555 1_555
C12 N1 1_555 1_555
H6 C12 1_555 1_555
C13 C9 1_555 1_555
H7 C13 1_555 1_555
C14 O1 1_555 1_555
H8 C14 1_555 1_555
H9 C14 1_555 1_555
H10 C14 1_555 1_555
I1A C1A 1_555 1_555
F1A C2A 1_555 1_555
F2A C3A 1_555 1_555
C1A C2A 1_555 1_555
C2A C3A 1_555 1_555
C3A C1 1_555 1_555
N1A C11A 1_555 1_555
O1A C4A 1_555 1_555
C4A C6 1_555 1_555
C5A C4A 1_555 1_555
H1A C5A 1_555 1_555
C6A C4 1_555 1_555
C7A C6A 1_555 1_555
H2A C7A 1_555 1_555
C8A C7A 1_555 1_555
H3A C8A 1_555 1_555
C9A C8A 1_555 1_555
C10A C9A 1_555 1_555
H4A C10A 1_555 1_555
C11A C10A 1_555 1_555
H5A C11A 1_555 1_555
C12A N1A 1_555 1_555
H6A C12A 1_555 1_555
C13A C9A 1_555 1_555
H7A C13A 1_555 1_555
C14A O1A 1_555 1_555
H8A C14A 1_555 1_555
H9A C14A 1_555 1_555
H10A C14A 1_555 1_555
C12 C13 1_555 1_555
C5A C6A 1_555 1_555
C12A C13A 1_555 1_555

#END
