
#######################################################################
#
#                 Cambridge Crystallographic Data Centre
#                                CCDC 
#
#######################################################################
#
# If this CIF has been generated from an entry in the Cambridge 
# Structural Database, then it will include bibliographic, chemical, 
# crystal, experimental, refinement or atomic coordinate data resulting 
# from the CCDC's data processing and validation procedures.
#
#######################################################################

data_KIKNIC
_chemical_formula_moiety         'C15 H12 Br6'
_chemical_name_systematic        
1,3,4,6,7,9-Hexabromo-2,3,4,5,6,7,8,9-octahydro-1H-trindene
_symmetry_cell_setting           monoclinic
_symmetry_space_group_name_H-M   'P 21/n'
_symmetry_Int_Tables_number      14
_space_group_name_Hall           '-P 2yn'
loop_
_symmetry_equiv_pos_site_id
_symmetry_equiv_pos_as_xyz
1 x,y,z
2 1/2-x,1/2+y,1/2-z
3 -x,-y,-z
4 1/2+x,1/2-y,1/2+z
_cell_length_a                   9.907(3)
_cell_length_b                   9.712(2)
_cell_length_c                   18.010(5)
_cell_angle_alpha                90
_cell_angle_beta                 95.436(5)
_cell_angle_gamma                90
_cell_volume                     1725.07
_exptl_crystal_colour            colorless
_exptl_crystal_description       prism
_cell_formula_units_Z            4
_exptl_crystal_recrystallization_method tetrahydrofuran/ether
loop_
_atom_site_label
_atom_site_type_symbol
_atom_site_fract_x
_atom_site_fract_y
_atom_site_fract_z
Br1 Br 0.16349(8) 0.32182(8) 0.04252(4)
Br2 Br 0.09197(8) 0.71829(7) 0.17843(4)
Br3 Br 0.03665(8) 0.62691(8) 0.39563(5)
Br4 Br 0.06590(9) 0.15916(8) 0.44210(4)
Br5 Br -0.10614(8) -0.05081(7) 0.28611(4)
Br6 Br -0.10332(9) 0.03306(7) 0.07974(4)
C1 C -0.1293(8) 0.3252(7) 0.0519(4)
H1 H -0.1164 0.2798 0.0038
H2 H -0.2048 0.3920 0.0437
C2 C -0.0001(7) 0.3976(7) 0.0825(4)
H3 H -0.0072 0.4987 0.0726
C3 C 0.0076(7) 0.3705(6) 0.1638(4)
C4 C 0.0860(7) 0.4371(7) 0.2216(4)
C5 C 0.1874(7) 0.5481(6) 0.2182(4)
H4 H 0.2587 0.5202 0.1853
C6 C 0.2493(7) 0.5680(7) 0.2975(4)
H5 H 0.2563 0.6673 0.3097
H6 H 0.3411 0.5271 0.3041
C7 C 0.1545(7) 0.4954(7) 0.3481(4)
H7 H 0.2078 0.4380 0.3866
C8 C 0.0664(7) 0.4060(6) 0.2953(4)
C9 C -0.0268(7) 0.3070(6) 0.3100(4)
C10 C -0.0752(7) 0.2678(7) 0.3840(4)
H8 H -0.0969 0.3523 0.4123
C11 C -0.2034(8) 0.1846(7) 0.3634(4)
H9 H -0.2095 0.1067 0.3984
H10 H -0.2848 0.2432 0.3651
C12 C -0.1929(8) 0.1320(6) 0.2849(4)
H11 H -0.2835 0.1309 0.2552
C13 C -0.0984(7) 0.2346(6) 0.2537(4)
C14 C -0.0814(7) 0.2663(6) 0.1797(4)
C15 C -0.1603(7) 0.2185(7) 0.1101(4)
H12 H -0.2594 0.2187 0.1166
loop_
_geom_bond_atom_site_label_1
_geom_bond_atom_site_label_2
_geom_bond_site_symmetry_1
_geom_bond_site_symmetry_2
Br1 C2 1_555 1_555
Br2 C5 1_555 1_555
Br3 C7 1_555 1_555
Br4 C10 1_555 1_555
Br5 C12 1_555 1_555
Br6 C15 1_555 1_555
C1 H1 1_555 1_555
H2 C1 1_555 1_555
C2 C1 1_555 1_555
H3 C2 1_555 1_555
C3 C2 1_555 1_555
C4 C3 1_555 1_555
C5 C4 1_555 1_555
H4 C5 1_555 1_555
C6 C5 1_555 1_555
H5 C6 1_555 1_555
H6 C6 1_555 1_555
C7 C6 1_555 1_555
H7 C7 1_555 1_555
C8 C4 1_555 1_555
C9 C8 1_555 1_555
C10 C9 1_555 1_555
H8 C10 1_555 1_555
C11 C10 1_555 1_555
H9 C11 1_555 1_555
H10 C11 1_555 1_555
C12 C11 1_555 1_555
H11 C12 1_555 1_555
C13 C9 1_555 1_555
C14 C3 1_555 1_555
C15 C1 1_555 1_555
H12 C15 1_555 1_555
C7 C8 1_555 1_555
C12 C13 1_555 1_555
C13 C14 1_555 1_555
C14 C15 1_555 1_555

#END
