
#######################################################################
#
#                 Cambridge Crystallographic Data Centre
#                                CCDC 
#
#######################################################################
#
# If this CIF has been generated from an entry in the Cambridge 
# Structural Database, then it will include bibliographic, chemical, 
# crystal, experimental, refinement or atomic coordinate data resulting 
# from the CCDC's data processing and validation procedures.
#
#######################################################################

data_KIKPIE
_chemical_formula_moiety         'C11 H17 N1 O2 S1'
_chemical_name_systematic        
'Ethyl 2-amino-4-isobutylthiophene-3-carboxylate'
_symmetry_cell_setting           monoclinic
_symmetry_space_group_name_H-M   'P 21/c'
_symmetry_Int_Tables_number      14
_space_group_name_Hall           '-P 2ybc'
loop_
_symmetry_equiv_pos_site_id
_symmetry_equiv_pos_as_xyz
1 x,y,z
2 -x,1/2+y,1/2-z
3 -x,-y,-z
4 x,1/2-y,1/2+z
_cell_length_a                   13.4321(7)
_cell_length_b                   9.4977(7)
_cell_length_c                   9.8629(10)
_cell_angle_alpha                90
_cell_angle_beta                 94.4350(10)
_cell_angle_gamma                90
_cell_volume                     1254.48
_exptl_crystal_colour            colorless
_exptl_crystal_description       block
_cell_formula_units_Z            4
_exptl_crystal_recrystallization_method ethanol/dichloromethane
loop_
_atom_site_label
_atom_site_type_symbol
_atom_site_fract_x
_atom_site_fract_y
_atom_site_fract_z
C1 C 0.1600(2) 0.2199(3) 0.5726(3)
H1 H 0.1868 0.1542 0.6351
C2 C 0.1898(2) 0.3551(3) 0.5718(3)
C3 C 0.13509(18) 0.4346(2) 0.4638(3)
C4 C 0.0652(2) 0.3515(3) 0.3900(3)
C5 C 0.2705(2) 0.4095(3) 0.6717(3)
H2 H 0.2773 0.3455 0.7485
H3 H 0.2498 0.5000 0.7053
C6 C 0.3726(2) 0.4269(3) 0.6161(4)
H4 H 0.3654 0.4930 0.5398
C7 C 0.4119(3) 0.2894(5) 0.5640(5)
H5 H 0.4772 0.3041 0.5334
H6 H 0.3678 0.2559 0.4898
H7 H 0.4157 0.2210 0.6359
C8 C 0.4457(3) 0.4899(5) 0.7246(5)
H8 H 0.4205 0.5786 0.7538
H9 H 0.5091 0.5041 0.6878
H10 H 0.4538 0.4269 0.8008
C9 C 0.1436(2) 0.5818(3) 0.4294(3)
C10 C 0.2205(3) 0.8022(3) 0.4833(4)
H11 H 0.1593 0.8524 0.4976
H12 H 0.2351 0.8148 0.3893
C11 C 0.3024(3) 0.8574(4) 0.5739(5)
H13 H 0.2876 0.8437 0.6667
H14 H 0.3104 0.9561 0.5569
H15 H 0.3630 0.8088 0.5577
N1 N -0.0020(2) 0.3892(3) 0.2887(3)
H16 H -0.039(2) 0.330(3) 0.245(3)
H17 H 0.003(2) 0.476(4) 0.264(3)
O1 O 0.09739(17) 0.6374(2) 0.3336(2)
O2 O 0.20850(15) 0.65355(18) 0.5122(2)
S1 S 0.06791(6) 0.17970(7) 0.44771(8)
loop_
_geom_bond_atom_site_label_1
_geom_bond_atom_site_label_2
_geom_bond_site_symmetry_1
_geom_bond_site_symmetry_2
C1 H1 1_555 1_555
C2 C1 1_555 1_555
C3 C2 1_555 1_555
C4 C3 1_555 1_555
C5 C2 1_555 1_555
H2 C5 1_555 1_555
H3 C5 1_555 1_555
C6 C5 1_555 1_555
H4 C6 1_555 1_555
C7 C6 1_555 1_555
H5 C7 1_555 1_555
H6 C7 1_555 1_555
H7 C7 1_555 1_555
C8 C6 1_555 1_555
H8 C8 1_555 1_555
H9 C8 1_555 1_555
H10 C8 1_555 1_555
C9 C3 1_555 1_555
C10 H11 1_555 1_555
H12 C10 1_555 1_555
C11 C10 1_555 1_555
H13 C11 1_555 1_555
H14 C11 1_555 1_555
H15 C11 1_555 1_555
N1 C4 1_555 1_555
H16 N1 1_555 1_555
H17 N1 1_555 1_555
O1 C9 1_555 1_555
O2 C9 1_555 1_555
S1 C1 1_555 1_555
C4 S1 1_555 1_555
C10 O2 1_555 1_555

#END
