
#######################################################################
#
#                 Cambridge Crystallographic Data Centre
#                                CCDC 
#
#######################################################################
#
# If this CIF has been generated from an entry in the Cambridge 
# Structural Database, then it will include bibliographic, chemical, 
# crystal, experimental, refinement or atomic coordinate data resulting 
# from the CCDC's data processing and validation procedures.
#
#######################################################################

data_KIKQED
_chemical_formula_moiety         'C6 H9 N3,C6 H5 N1 O3'
_chemical_name_systematic        
'2-Amino-4,6-dimethylpyrimidine 4-nitrophenol solvate'
_symmetry_cell_setting           triclinic
_symmetry_space_group_name_H-M   'P -1'
_symmetry_Int_Tables_number      2
_space_group_name_Hall           '-P 1'
loop_
_symmetry_equiv_pos_site_id
_symmetry_equiv_pos_as_xyz
1 x,y,z
2 -x,-y,-z
_cell_length_a                   7.1947(6)
_cell_length_b                   7.6830(6)
_cell_length_c                   13.5411(8)
_cell_angle_alpha                90.084(4)
_cell_angle_beta                 97.541(5)
_cell_angle_gamma                116.791(4)
_cell_volume                     660.828
_exptl_crystal_colour            colorless
_exptl_crystal_description       block
_cell_formula_units_Z            2
_exptl_crystal_recrystallization_method methanol
loop_
_atom_site_label
_atom_site_type_symbol
_atom_site_fract_x
_atom_site_fract_y
_atom_site_fract_z
C1 C 0.2749(4) 0.2009(4) 1.04203(18)
C2 C 0.2440(4) 0.1427(4) 0.9426(2)
H1 H 0.2506 0.0295 0.9236
C3 C 0.2033(4) 0.2531(4) 0.87202(19)
H2 H 0.1807 0.2144 0.8046
C4 C 0.1957(4) 0.4222(4) 0.9009(2)
C5 C 0.2263(4) 0.4780(4) 1.0011(2)
H3 H 0.2202 0.5912 1.0205
C6 C 0.2654(4) 0.3677(4) 1.0717(2)
H4 H 0.2855 0.4049 1.1392
N1 N 0.3230(4) 0.0871(4) 1.11754(18)
O1 O 0.3360(4) -0.0578(3) 1.09153(15)
O2 O 0.3483(4) 0.1414(3) 1.20595(15)
O3 O 0.1605(3) 0.5385(3) 0.83469(14)
H5 H 0.1427 0.4912 0.7778
C7 C 0.2311(5) 0.4282(4) 0.58509(19)
C8 C 0.0039(5) 0.2280(4) 0.45368(19)
C9 C -0.1612(5) 0.1932(4) 0.5054(2)
H6 H -0.2993 0.1115 0.4771
C10 C -0.1174(5) 0.2817(4) 0.5994(2)
C11 C -0.0318(5) 0.1388(4) 0.3500(2)
H7 H -0.0304 0.2317 0.3024
H8 H -0.1657 0.0244 0.3387
H9 H 0.0778 0.1032 0.3425
C12 C -0.2882(5) 0.2525(5) 0.6601(2)
H10 H -0.4071 0.2498 0.6173
H11 H -0.2368 0.3580 0.7105
H12 H -0.3300 0.1310 0.6913
N2 N 0.4276(5) 0.5481(5) 0.6246(2)
N3 N 0.0797(4) 0.3986(3) 0.64064(15)
N4 N 0.2025(4) 0.3457(3) 0.49289(15)
H13 H 0.536(4) 0.585(4) 0.5933(17)
H14 H 0.453(4) 0.613(4) 0.6776(14)
loop_
_geom_bond_atom_site_label_1
_geom_bond_atom_site_label_2
_geom_bond_site_symmetry_1
_geom_bond_site_symmetry_2
C1 C2 1_555 1_555
C2 H1 1_555 1_555
C3 C2 1_555 1_555
H2 C3 1_555 1_555
C4 C3 1_555 1_555
C5 C4 1_555 1_555
H3 C5 1_555 1_555
C6 C1 1_555 1_555
H4 C6 1_555 1_555
N1 C1 1_555 1_555
O1 N1 1_555 1_555
O2 N1 1_555 1_555
O3 C4 1_555 1_555
H5 O3 1_555 1_555
C7 N2 1_555 1_555
C8 C9 1_555 1_555
C9 H6 1_555 1_555
C10 C9 1_555 1_555
C11 C8 1_555 1_555
H7 C11 1_555 1_555
H8 C11 1_555 1_555
H9 C11 1_555 1_555
C12 C10 1_555 1_555
H10 C12 1_555 1_555
H11 C12 1_555 1_555
H12 C12 1_555 1_555
N2 H13 1_555 1_555
N3 C7 1_555 1_555
N4 C7 1_555 1_555
H14 N2 1_555 1_555
C5 C6 1_555 1_555
C8 N4 1_555 1_555
C10 N3 1_555 1_555

#END
