
#######################################################################
#
#                 Cambridge Crystallographic Data Centre
#                                CCDC 
#
#######################################################################
#
# If this CIF has been generated from an entry in the Cambridge 
# Structural Database, then it will include bibliographic, chemical, 
# crystal, experimental, refinement or atomic coordinate data resulting 
# from the CCDC's data processing and validation procedures.
#
#######################################################################

data_KIKTOQ
_chemical_formula_moiety         'C24 H19 Cl1 N2 O1'
_chemical_name_systematic        
2-[3-(4-chlorophenyl)-2-phenyl-1,2-oxazolidin-4-yl]quinoline
_symmetry_cell_setting           monoclinic
_symmetry_space_group_name_H-M   'P 21/c'
_symmetry_Int_Tables_number      14
_space_group_name_Hall           '-P 2ybc'
loop_
_symmetry_equiv_pos_site_id
_symmetry_equiv_pos_as_xyz
1 x,y,z
2 -x,1/2+y,1/2-z
3 -x,-y,-z
4 x,1/2-y,1/2+z
_cell_length_a                   5.628(2)
_cell_length_b                   19.385(4)
_cell_length_c                   17.569(4)
_cell_angle_alpha                90
_cell_angle_beta                 91.36(3)
_cell_angle_gamma                90
_cell_volume                     1916.22
_exptl_crystal_colour            colorless
_exptl_crystal_description       block
_cell_formula_units_Z            4
loop_
_atom_site_label
_atom_site_type_symbol
_atom_site_fract_x
_atom_site_fract_y
_atom_site_fract_z
Cl1 Cl 0.13112(7) 0.41821(2) 0.51130(2)
C1 C 0.1002(2) 0.32597(7) 0.88142(7)
N1 N 0.1263(2) 0.39516(6) 0.89756(6)
O1 O 0.67465(16) 0.56465(5) 0.84782(5)
N2 N 0.47682(18) 0.60433(5) 0.81914(6)
C2 C -0.0885(3) 0.28954(8) 0.91476(8)
H1 H -0.1932 0.3127 0.9478
C3 C 0.2197(3) 0.21882(8) 0.81908(8)
H2 H 0.3245 0.1943 0.7872
C4 C 0.0344(3) 0.18529(8) 0.85201(8)
H3 H 0.0107 0.1375 0.8426
C5 C -0.1205(3) 0.22082(8) 0.89945(9)
H4 H -0.2495 0.1969 0.9213
C6 C 0.2548(2) 0.29023(7) 0.83263(8)
C7 C 0.4418(3) 0.32793(7) 0.80035(8)
H5 H 0.5489 0.3060 0.7671
C8 C 0.4669(2) 0.39587(7) 0.81735(8)
H6 H 0.5932 0.4217 0.7965
C9 C 0.3043(2) 0.42822(7) 0.86636(7)
C10 C 0.3300(2) 0.50394(7) 0.88532(7)
H7 H 0.2206 0.5151 0.9276
C11 C 0.2765(2) 0.55560(7) 0.81711(7)
H8 H 0.1280 0.5816 0.8283
C12 C 0.5836(3) 0.52487(7) 0.91014(8)
H9 H 0.5814 0.5529 0.9572
H10 H 0.6831 0.4835 0.9197
C13 C 0.2463(2) 0.52260(6) 0.73936(7)
C14 C 0.0403(2) 0.48500(7) 0.72318(8)
H11 H -0.0777 0.4813 0.7607
C15 C 0.0039(2) 0.45289(7) 0.65352(8)
H12 H -0.1374 0.4274 0.6432
C16 C 0.1762(2) 0.45846(7) 0.59930(7)
C17 C 0.3803(2) 0.49644(7) 0.61294(7)
H13 H 0.4961 0.5007 0.5747
C18 C 0.4145(2) 0.52844(7) 0.68323(7)
H14 H 0.5547 0.5546 0.6929
C19 C 0.4473(2) 0.66718(7) 0.86038(7)
C20 C 0.2460(2) 0.70706(7) 0.84410(8)
H15 H 0.1256 0.6901 0.8102
C21 C 0.2215(3) 0.77140(7) 0.87729(9)
H16 H 0.0831 0.7981 0.8667
C22 C 0.3977(3) 0.79701(7) 0.92584(8)
H17 H 0.3823 0.8416 0.9476
C23 C 0.5962(3) 0.75732(8) 0.94244(9)
H18 H 0.7157 0.7745 0.9765
C24 C 0.6229(2) 0.69249(7) 0.90987(8)
H19 H 0.7604 0.6656 0.9214
loop_
_geom_bond_atom_site_label_1
_geom_bond_atom_site_label_2
_geom_bond_site_symmetry_1
_geom_bond_site_symmetry_2
Cl1 C16 1_555 1_555
C1 N1 1_555 1_555
N1 C9 1_555 1_555
O1 N2 1_555 1_555
N2 C11 1_555 1_555
C2 C1 1_555 1_555
H1 C2 1_555 1_555
C3 H2 1_555 1_555
C4 C3 1_555 1_555
H3 C4 1_555 1_555
C5 C2 1_555 1_555
H4 C5 1_555 1_555
C6 C1 1_555 1_555
C7 C6 1_555 1_555
H5 C7 1_555 1_555
C8 C7 1_555 1_555
H6 C8 1_555 1_555
C9 C8 1_555 1_555
C10 C9 1_555 1_555
H7 C10 1_555 1_555
C11 C10 1_555 1_555
H8 C11 1_555 1_555
C12 O1 1_555 1_555
H9 C12 1_555 1_555
H10 C12 1_555 1_555
C13 C11 1_555 1_555
C14 C13 1_555 1_555
H11 C14 1_555 1_555
C15 C14 1_555 1_555
H12 C15 1_555 1_555
C16 C15 1_555 1_555
C17 C16 1_555 1_555
H13 C17 1_555 1_555
C18 C13 1_555 1_555
H14 C18 1_555 1_555
C19 N2 1_555 1_555
C20 C19 1_555 1_555
H15 C20 1_555 1_555
C21 C20 1_555 1_555
H16 C21 1_555 1_555
C22 C21 1_555 1_555
H17 C22 1_555 1_555
C23 C22 1_555 1_555
H18 C23 1_555 1_555
C24 C19 1_555 1_555
H19 C24 1_555 1_555
C3 C6 1_555 1_555
C4 C5 1_555 1_555
C10 C12 1_555 1_555
C17 C18 1_555 1_555
C23 C24 1_555 1_555

#END
