
#######################################################################
#
#                 Cambridge Crystallographic Data Centre
#                                CCDC 
#
#######################################################################
#
# If this CIF has been generated from an entry in the Cambridge 
# Structural Database, then it will include bibliographic, chemical, 
# crystal, experimental, refinement or atomic coordinate data resulting 
# from the CCDC's data processing and validation procedures.
#
#######################################################################

data_KIKTUT05
_chemical_formula_moiety         'C29 H20 O1'
_chemical_name_systematic        2,3,4,5-tetraphenylcyclopenta-2,4-dien-1-one
_symmetry_cell_setting           monoclinic
_symmetry_space_group_name_H-M   'C 2/c'
_symmetry_Int_Tables_number      15
_space_group_name_Hall           '-C 2yn'
loop_
_symmetry_equiv_pos_site_id
_symmetry_equiv_pos_as_xyz
1 x,y,z
2 -x,y,1/2-z
3 1/2+x,1/2+y,z
4 1/2-x,1/2+y,1/2-z
5 -x,-y,-z
6 x,-y,1/2+z
7 1/2-x,1/2-y,-z
8 1/2+x,1/2-y,1/2+z
_cell_length_a                   26.139(5)
_cell_length_b                   8.2000(16)
_cell_length_c                   21.507(4)
_cell_angle_alpha                90
_cell_angle_beta                 119.81(3)
_cell_angle_gamma                90
_cell_volume                     3999.83
_exptl_crystal_colour            brown
_exptl_crystal_description       Block
_cell_formula_units_Z            8
_exptl_crystal_preparation       Luminescent
loop_
_atom_site_label
_atom_site_type_symbol
_atom_site_fract_x
_atom_site_fract_y
_atom_site_fract_z
O1 O 0.69923(4) 0.48106(11) 0.38989(4)
C1 C 0.58820(5) 0.58590(13) 0.48096(6)
H1 H 0.6097 0.6421 0.5252
C2 C 0.52702(5) 0.59022(15) 0.44465(7)
H2 H 0.5070 0.6492 0.4642
C3 C 0.49491(5) 0.50829(17) 0.37971(7)
H3 H 0.4530 0.5092 0.3554
C4 C 0.52441(5) 0.42566(17) 0.35099(6)
H4 H 0.5026 0.3705 0.3065
C5 C 0.58585(5) 0.42239(14) 0.38661(5)
H5 H 0.6056 0.3675 0.3657
C6 C 0.61868(4) 0.49969(12) 0.45321(5)
C7 C 0.73695(4) 0.57942(12) 0.68313(5)
H6 H 0.7658 0.6568 0.6882
C8 C 0.72143(5) 0.56635(14) 0.73609(5)
H7 H 0.7391 0.6363 0.7766
C9 C 0.68010(5) 0.45134(14) 0.72999(5)
H8 H 0.6692 0.4435 0.7660
C10 C 0.65470(5) 0.34759(13) 0.67088(5)
H9 H 0.6272 0.2669 0.6672
C11 C 0.66940(4) 0.36178(12) 0.61732(5)
H10 H 0.6516 0.2913 0.5770
C12 C 0.71020(4) 0.47908(12) 0.62226(5)
C13 C 0.87526(5) 0.65373(14) 0.66481(6)
H11 H 0.8661 0.7396 0.6312
C14 C 0.92541(5) 0.66377(17) 0.73194(6)
H12 H 0.9499 0.7575 0.7445
C15 C 0.93986(5) 0.5374(2) 0.78072(6)
H13 H 0.9746 0.5435 0.8263
C16 C 0.90330(5) 0.40162(17) 0.76276(6)
H14 H 0.9132 0.3149 0.7961
C17 C 0.85213(5) 0.39206(14) 0.69603(6)
H15 H 0.8268 0.3002 0.6844
C18 C 0.83815(4) 0.51790(12) 0.64632(5)
C19 C 0.81888(5) 0.56840(13) 0.42468(5)
H16 H 0.7814 0.6136 0.3925
C20 C 0.86207(5) 0.56022(14) 0.40482(6)
H17 H 0.8540 0.6010 0.3595
C21 C 0.91679(5) 0.49299(14) 0.45079(6)
H18 H 0.9460 0.4862 0.4368
C22 C 0.92870(5) 0.43540(14) 0.51765(6)
H19 H 0.9661 0.3893 0.5494
C23 C 0.88609(5) 0.44505(13) 0.53820(6)
H20 H 0.8949 0.4070 0.5842
C24 C 0.83021(4) 0.51043(12) 0.49174(5)
C25 C 0.78312(4) 0.51088(12) 0.51031(5)
C26 C 0.78515(4) 0.50886(12) 0.57463(5)
C27 C 0.72315(4) 0.49471(12) 0.56330(5)
C28 C 0.68350(4) 0.49421(12) 0.49182(5)
C29 C 0.71885(4) 0.49569(13) 0.45412(5)
loop_
_geom_bond_atom_site_label_1
_geom_bond_atom_site_label_2
_geom_bond_site_symmetry_1
_geom_bond_site_symmetry_2
O1 C29 1_555 1_555
C1 H1 1_555 1_555
C2 C1 1_555 1_555
H2 C2 1_555 1_555
C3 C2 1_555 1_555
H3 C3 1_555 1_555
C4 C3 1_555 1_555
H4 C4 1_555 1_555
C5 C4 1_555 1_555
H5 C5 1_555 1_555
C6 C1 1_555 1_555
C7 H6 1_555 1_555
C8 C7 1_555 1_555
H7 C8 1_555 1_555
C9 C8 1_555 1_555
H8 C9 1_555 1_555
C10 C9 1_555 1_555
H9 C10 1_555 1_555
C11 C10 1_555 1_555
H10 C11 1_555 1_555
C12 C7 1_555 1_555
C13 H11 1_555 1_555
C14 C13 1_555 1_555
H12 C14 1_555 1_555
C15 C14 1_555 1_555
H13 C15 1_555 1_555
C16 C15 1_555 1_555
H14 C16 1_555 1_555
C17 C16 1_555 1_555
H15 C17 1_555 1_555
C18 C13 1_555 1_555
C19 H16 1_555 1_555
C20 C19 1_555 1_555
H17 C20 1_555 1_555
C21 C20 1_555 1_555
H18 C21 1_555 1_555
C22 C21 1_555 1_555
H19 C22 1_555 1_555
C23 C22 1_555 1_555
H20 C23 1_555 1_555
C24 C19 1_555 1_555
C25 C24 1_555 1_555
C26 C18 1_555 1_555
C27 C12 1_555 1_555
C28 C6 1_555 1_555
C29 C25 1_555 1_555
C5 C6 1_555 1_555
C11 C12 1_555 1_555
C17 C18 1_555 1_555
C23 C24 1_555 1_555
C25 C26 1_555 1_555
C26 C27 1_555 1_555
C27 C28 1_555 1_555
C28 C29 1_555 1_555

#END
