
#######################################################################
#
#                 Cambridge Crystallographic Data Centre
#                                CCDC 
#
#######################################################################
#
# If this CIF has been generated from an entry in the Cambridge 
# Structural Database, then it will include bibliographic, chemical, 
# crystal, experimental, refinement or atomic coordinate data resulting 
# from the CCDC's data processing and validation procedures.
#
#######################################################################

data_KIKTUT02
_chemical_formula_moiety         'C29 H20 O1'
_chemical_name_systematic        2,3,4,5-Tetraphenylcyclopenta-2,4-dien-1-one
_symmetry_cell_setting           monoclinic
_symmetry_space_group_name_H-M   'I 2/a'
_symmetry_Int_Tables_number      15
_space_group_name_Hall           '-I 2ya'
loop_
_symmetry_equiv_pos_site_id
_symmetry_equiv_pos_as_xyz
1 x,y,z
2 1/2-x,y,-z
3 1/2+x,1/2+y,1/2+z
4 -x,1/2+y,1/2-z
5 -x,-y,-z
6 1/2+x,-y,z
7 1/2-x,1/2-y,1/2-z
8 x,1/2-y,1/2+z
_cell_length_a                   24.2504(2)
_cell_length_b                   8.18850(10)
_cell_length_c                   21.5299(3)
_cell_angle_alpha                90
_cell_angle_beta                 110.4910(10)
_cell_angle_gamma                90
_cell_volume                     4004.78
_exptl_crystal_colour            'dark purple'
_exptl_crystal_description       block
_cell_formula_units_Z            8
_exptl_crystal_recrystallization_method dichloromethane/hexane
loop_
_atom_site_label
_atom_site_type_symbol
_atom_site_fract_x
_atom_site_fract_y
_atom_site_fract_z
O1 O 0.44912(2) 0.26910(8) 0.55924(3)
C1 C 0.535046(14) 0.24151(4) 0.460466(18)
C2 C 0.433426(14) 0.25561(4) 0.441768(18)
C3 C 0.533025(14) 0.23928(4) 0.522830(18)
C4 C 0.588009(14) 0.23222(4) 0.441880(18)
C5 C 0.404609(16) 0.40210(5) 0.23399(2)
C6 C 0.487186(15) 0.17051(4) 0.30421(2)
C7 C 0.368788(14) 0.25023(4) 0.415678(18)
C8 C 0.460275(14) 0.27070(4) 0.338157(18)
C9 C 0.419326(15) 0.38820(4) 0.302266(19)
C10 C 0.61163(2) 0.18948(5) 0.70710(2)
C11 C 0.579974(15) 0.23967(4) 0.588159(18)
C12 C 0.473186(13) 0.25541(4) 0.409943(17)
C13 C 0.636004(16) 0.30446(5) 0.59767(2)
C14 C 0.338363(17) 0.16409(5) 0.35734(2)
C15 C 0.468755(14) 0.25435(4) 0.514721(18)
C16 C 0.625152(16) 0.09587(5) 0.46067(2)
C17 C 0.471614(17) 0.18293(5) 0.23552(2)
C18 C 0.602031(17) 0.35785(5) 0.40599(2)
C19 C 0.335908(17) 0.32799(5) 0.44937(2)
C20 C 0.568700(17) 0.18183(5) 0.64400(2)
C21 C 0.65324(2) 0.34827(8) 0.39039(2)
C22 C 0.430025(18) 0.29824(5) 0.20015(2)
C23 C 0.678537(17) 0.31365(6) 0.66078(2)
C24 C 0.277181(19) 0.15959(6) 0.33246(3)
C25 C 0.66667(2) 0.25645(6) 0.71584(2)
C26 C 0.675293(19) 0.08510(7) 0.44365(3)
C27 C 0.274571(19) 0.32508(7) 0.42379(3)
C28 C 0.244860(19) 0.24204(8) 0.36523(3)
C29 C 0.68990(2) 0.21168(10) 0.40907(3)
H1 H 0.519254 0.080622 0.331559
H2 H 0.401014 0.468927 0.329869
H3 H 0.613899 -0.00402 0.487025
H4 H 0.375133 0.49728 0.20658
H5 H 0.491818 0.104283 0.20915
H6 H 0.601217 0.145548 0.74915
H7 H 0.363201 0.101245 0.33147
H8 H 0.698759 0.268244 0.765388
H9 H 0.358818 0.391208 0.495455
H10 H 0.418248 0.308703 0.146918
H11 H 0.574066 0.464748 0.392132
H12 H 0.645692 0.352775 0.555791
H13 H 0.720381 0.371508 0.667342
H14 H 0.525863 0.131566 0.638081
H15 H 0.702614 -0.022911 0.458112
H16 H 0.250097 0.387051 0.450377
H17 H 0.253689 0.094395 0.287042
H18 H 0.664062 0.448374 0.36393
H19 H 0.728749 0.205307 0.395366
H20 H 0.197242 0.238257 0.344865
loop_
_geom_bond_atom_site_label_1
_geom_bond_atom_site_label_2
_geom_bond_site_symmetry_1
_geom_bond_site_symmetry_2
O1 C15 1_555 1_555
C1 C3 1_555 1_555
C2 C7 1_555 1_555
C3 C11 1_555 1_555
C4 C1 1_555 1_555
C5 C9 1_555 1_555
C6 C8 1_555 1_555
C7 C14 1_555 1_555
C8 C9 1_555 1_555
C9 H2 1_555 1_555
C10 C20 1_555 1_555
C11 C13 1_555 1_555
C12 C1 1_555 1_555
C13 C23 1_555 1_555
C14 C24 1_555 1_555
C15 C2 1_555 1_555
C16 C4 1_555 1_555
C17 C6 1_555 1_555
C18 C4 1_555 1_555
C19 C7 1_555 1_555
C20 C11 1_555 1_555
C21 C18 1_555 1_555
C22 C5 1_555 1_555
C23 C25 1_555 1_555
C24 C28 1_555 1_555
C25 C10 1_555 1_555
C26 C16 1_555 1_555
C27 C19 1_555 1_555
C28 C27 1_555 1_555
C29 C21 1_555 1_555
H1 C6 1_555 1_555
H3 C16 1_555 1_555
H4 C5 1_555 1_555
H5 C17 1_555 1_555
H6 C10 1_555 1_555
H7 C14 1_555 1_555
H8 C25 1_555 1_555
H9 C19 1_555 1_555
H10 C22 1_555 1_555
H11 C18 1_555 1_555
H12 C13 1_555 1_555
H13 C23 1_555 1_555
H14 C20 1_555 1_555
H15 C26 1_555 1_555
H16 C27 1_555 1_555
H17 C24 1_555 1_555
H18 C21 1_555 1_555
H19 C29 1_555 1_555
H20 C28 1_555 1_555
C2 C12 1_555 1_555
C3 C15 1_555 1_555
C8 C12 1_555 1_555
C17 C22 1_555 1_555
C26 C29 1_555 1_555

#END
