
#######################################################################
#
#                 Cambridge Crystallographic Data Centre
#                                CCDC 
#
#######################################################################
#
# If this CIF has been generated from an entry in the Cambridge 
# Structural Database, then it will include bibliographic, chemical, 
# crystal, experimental, refinement or atomic coordinate data resulting 
# from the CCDC's data processing and validation procedures.
#
#######################################################################

data_KIKVAC01
_chemical_formula_moiety         'C4 H8 N4 O2'
_chemical_name_systematic        
4-amino-3,5-bis(1-hydroxyethyl)-4H-1,2,4-triazole
_symmetry_cell_setting           orthorhombic
_symmetry_space_group_name_H-M   'P b c a'
_symmetry_Int_Tables_number      61
_space_group_name_Hall           '-P 2ac 2ab'
loop_
_symmetry_equiv_pos_site_id
_symmetry_equiv_pos_as_xyz
1 x,y,z
2 1/2-x,-y,1/2+z
3 -x,1/2+y,1/2-z
4 1/2+x,1/2-y,-z
5 -x,-y,-z
6 1/2+x,y,1/2-z
7 x,1/2-y,1/2+z
8 1/2-x,1/2+y,z
_cell_length_a                   8.7902(4)
_cell_length_b                   8.8646(4)
_cell_length_c                   16.0524(8)
_cell_angle_alpha                90
_cell_angle_beta                 90
_cell_angle_gamma                90
_cell_volume                     1250.83
_exptl_crystal_colour            colorless
_exptl_crystal_description       Prism
_cell_formula_units_Z            8
loop_
_atom_site_label
_atom_site_type_symbol
_atom_site_fract_x
_atom_site_fract_y
_atom_site_fract_z
O1 O -0.16335(18) 0.38788(15) 0.11467(8)
H1 H -0.2330 0.3317 0.1007
O2 O 0.1337(2) 1.04604(16) 0.10307(9)
H2 H 0.1986 1.1031 0.0843
N1 N -0.0335(2) 0.7158(2) 0.02322(10)
H3 H 0.0329 0.6694 -0.0109
H4 H -0.0759 0.7927 -0.0050
N2 N -0.01251(18) 0.71678(15) 0.10949(9)
N3 N -0.05786(18) 0.66547(17) 0.24003(9)
N4 N 0.06208(18) 0.76749(18) 0.23593(10)
C1 C -0.2235(2) 0.5307(2) 0.13719(12)
H5 H -0.2952 0.5181 0.1826
H6 H -0.2780 0.5730 0.0901
C2 C -0.1012(2) 0.63714(19) 0.16326(11)
C3 C 0.0878(2) 0.79729(19) 0.15710(11)
C4 C 0.2015(2) 0.9058(2) 0.12358(13)
H7 H 0.2806 0.9219 0.1647
H8 H 0.2485 0.8633 0.0742
loop_
_geom_bond_atom_site_label_1
_geom_bond_atom_site_label_2
_geom_bond_site_symmetry_1
_geom_bond_site_symmetry_2
O1 H1 1_555 1_555
O2 H2 1_555 1_555
N1 H3 1_555 1_555
H4 N1 1_555 1_555
N2 N1 1_555 1_555
N3 N4 1_555 1_555
N4 C3 1_555 1_555
C1 O1 1_555 1_555
H5 C1 1_555 1_555
H6 C1 1_555 1_555
C2 N2 1_555 1_555
C3 N2 1_555 1_555
C4 O2 1_555 1_555
H7 C4 1_555 1_555
H8 C4 1_555 1_555
N3 C2 1_555 1_555
C1 C2 1_555 1_555
C3 C4 1_555 1_555

#END
