
#######################################################################
#
#                 Cambridge Crystallographic Data Centre
#                                CCDC 
#
#######################################################################
#
# If this CIF has been generated from an entry in the Cambridge 
# Structural Database, then it will include bibliographic, chemical, 
# crystal, experimental, refinement or atomic coordinate data resulting 
# from the CCDC's data processing and validation procedures.
#
#######################################################################

data_KILFOC
_chemical_formula_moiety         'C21 H15 Cl2 N1 O1'
_chemical_name_systematic        
3-(2,6-Dichlorobenzyl)-3-phenyl-1,3-dihydro-2H-indol-2-one
_symmetry_cell_setting           monoclinic
_symmetry_space_group_name_H-M   'P 21'
_symmetry_Int_Tables_number      4
_space_group_name_Hall           'P 2yb'
loop_
_symmetry_equiv_pos_site_id
_symmetry_equiv_pos_as_xyz
1 x,y,z
2 -x,1/2+y,-z
_cell_length_a                   9.951(2)
_cell_length_b                   8.8846(18)
_cell_length_c                   11.339(2)
_cell_angle_alpha                90
_cell_angle_beta                 113.88(3)
_cell_angle_gamma                90
_cell_volume                     916.671
_exptl_crystal_colour            colorless
_exptl_crystal_description       plate
_cell_formula_units_Z            2
loop_
_atom_site_label
_atom_site_type_symbol
_atom_site_fract_x
_atom_site_fract_y
_atom_site_fract_z
Cl1 Cl 0.62299(7) 0.45704(7) 0.34679(6)
Cl2 Cl 0.24623(8) 0.68943(11) -0.11255(6)
O1 O -0.00420(18) 0.66285(18) 0.01008(16)
N1 N 0.1224(2) 0.8786(2) 0.09930(19)
H1 H 0.0591 0.9444 0.0488
C1 C 0.5841(3) 0.5567(3) 0.2040(2)
C2 C 0.7045(3) 0.6005(4) 0.1791(3)
H2 H 0.8016 0.5796 0.2394
C3 C 0.6805(3) 0.6750(4) 0.0652(3)
H3 H 0.7616 0.7081 0.0481
C4 C 0.5386(3) 0.7013(4) -0.0236(3)
H4 H 0.5215 0.7495 -0.1032
C5 C 0.4219(3) 0.6565(3) 0.0046(3)
C6 C 0.4380(3) 0.5835(3) 0.1188(2)
C7 C 0.3096(2) 0.5308(2) 0.1472(2)
H5 H 0.3440 0.4479 0.2108
H6 H 0.2342 0.4887 0.0669
C8 C 0.2344(2) 0.6525(2) 0.2003(2)
C9 C 0.1019(2) 0.7281(2) 0.0898(2)
C10 C 0.2575(2) 0.9176(3) 0.1999(2)
C11 C 0.3150(3) 1.0595(3) 0.2377(2)
H7 H 0.2636 1.1471 0.1948
C12 C 0.4517(3) 1.0693(3) 0.3416(2)
H8 H 0.4960 1.1650 0.3690
C13 C 0.5235(3) 0.9408(3) 0.4052(2)
H9 H 0.6155 0.9498 0.4768
C14 C 0.4635(3) 0.7989(3) 0.3662(2)
H10 H 0.5136 0.7113 0.4104
C15 C 0.3294(2) 0.7874(2) 0.2621(2)
C16 C 0.1707(2) 0.5800(2) 0.2901(2)
C17 C 0.1175(3) 0.4321(3) 0.2703(2)
H11 H 0.1163 0.3770 0.1981
C18 C 0.0664(3) 0.3651(3) 0.3552(3)
H12 H 0.0326 0.2640 0.3416
C19 C 0.0644(3) 0.4447(4) 0.4594(3)
H13 H 0.0307 0.3981 0.5178
C20 C 0.1119(3) 0.5926(3) 0.4778(3)
H14 H 0.1093 0.6482 0.5484
C21 C 0.1637(3) 0.6608(3) 0.3934(2)
H15 H 0.1945 0.7630 0.4062
loop_
_geom_bond_atom_site_label_1
_geom_bond_atom_site_label_2
_geom_bond_site_symmetry_1
_geom_bond_site_symmetry_2
Cl1 C1 1_555 1_555
Cl2 C5 1_555 1_555
O1 C9 1_555 1_555
N1 H1 1_555 1_555
C1 C2 1_555 1_555
C2 H2 1_555 1_555
C3 C2 1_555 1_555
H3 C3 1_555 1_555
C4 C3 1_555 1_555
H4 C4 1_555 1_555
C5 C4 1_555 1_555
C6 C1 1_555 1_555
C7 C6 1_555 1_555
H5 C7 1_555 1_555
H6 C7 1_555 1_555
C8 C7 1_555 1_555
C9 N1 1_555 1_555
C10 N1 1_555 1_555
C11 C10 1_555 1_555
H7 C11 1_555 1_555
C12 C11 1_555 1_555
H8 C12 1_555 1_555
C13 C12 1_555 1_555
H9 C13 1_555 1_555
C14 C13 1_555 1_555
H10 C14 1_555 1_555
C15 C8 1_555 1_555
C16 C8 1_555 1_555
C17 C16 1_555 1_555
H11 C17 1_555 1_555
C18 C17 1_555 1_555
H12 C18 1_555 1_555
C19 C18 1_555 1_555
H13 C19 1_555 1_555
C20 C19 1_555 1_555
H14 C20 1_555 1_555
C21 C16 1_555 1_555
H15 C21 1_555 1_555
C5 C6 1_555 1_555
C8 C9 1_555 1_555
C10 C15 1_555 1_555
C14 C15 1_555 1_555
C20 C21 1_555 1_555

#END
