
#######################################################################
#
#                 Cambridge Crystallographic Data Centre
#                                CCDC 
#
#######################################################################
#
# If this CIF has been generated from an entry in the Cambridge 
# Structural Database, then it will include bibliographic, chemical, 
# crystal, experimental, refinement or atomic coordinate data resulting 
# from the CCDC's data processing and validation procedures.
#
#######################################################################

data_KILNIF
_chemical_formula_moiety         'C36 H30 O2'
_chemical_name_systematic        
1,1',1'',1'''-[(2,5-dimethoxy-1,4-phenylene)bis(ethene-2,1,1-triyl)]tetrabenzene
_symmetry_cell_setting           monoclinic
_symmetry_space_group_name_H-M   'P 21/c'
_symmetry_Int_Tables_number      14
_space_group_name_Hall           '-P 2ybc'
loop_
_symmetry_equiv_pos_site_id
_symmetry_equiv_pos_as_xyz
1 x,y,z
2 -x,1/2+y,1/2-z
3 -x,-y,-z
4 x,1/2-y,1/2+z
_cell_length_a                   15.885(3)
_cell_length_b                   7.3696(15)
_cell_length_c                   12.251(3)
_cell_angle_alpha                90
_cell_angle_beta                 109.78(3)
_cell_angle_gamma                90
_cell_volume                     1349.56
_exptl_crystal_colour            yellow
_exptl_crystal_description       block
_cell_formula_units_Z            2
loop_
_atom_site_label
_atom_site_type_symbol
_atom_site_fract_x
_atom_site_fract_y
_atom_site_fract_z
O1 O 0.54486(6) 0.83428(13) 0.60513(10)
C1 C 0.48086(11) 0.9307(2) 0.64025(16)
H1 H 0.429224 0.956252 0.573591
H2 H 0.506616 1.042541 0.676583
H3 H 0.463498 0.858438 0.694292
C2 C 0.52081(8) 0.66837(17) 0.55248(11)
C3 C 0.43619(8) 0.59641(17) 0.52814(11)
H4 H 0.393449 0.663327 0.547101
C4 C 0.41241(8) 0.42621(17) 0.47590(10)
C5 C 0.32278(8) 0.34582(17) 0.44559(11)
H5 H 0.314713 0.239808 0.402056
C6 C 0.25034(8) 0.40030(16) 0.47043(10)
C7 C 0.25128(7) 0.55454(17) 0.54944(10)
C8 C 0.29161(9) 0.5346(2) 0.66837(11)
H6 H 0.317572 0.424380 0.698724
C9 C 0.29343(12) 0.6774(3) 0.74186(14)
H7 H 0.320543 0.663041 0.821543
C10 C 0.25547(13) 0.8400(3) 0.69788(18)
H8 H 0.257425 0.936323 0.747706
C11 C 0.21460(12) 0.8615(2) 0.58078(17)
H9 H 0.188856 0.972286 0.551286
C12 C 0.21149(9) 0.71821(18) 0.50600(13)
H10 H 0.182634 0.732358 0.426627
C13 C 0.16325(8) 0.30403(16) 0.42203(11)
C14 C 0.14187(10) 0.1992(2) 0.32247(13)
H11 H 0.181882 0.191719 0.282065
C15 C 0.06159(12) 0.1054(3) 0.28232(16)
H12 H 0.048714 0.034265 0.215971
C16 C 0.00081(10) 0.1165(2) 0.33963(16)
H13 H -0.052736 0.052488 0.312595
C17 C 0.01967(9) 0.2225(2) 0.43680(15)
H14 H -0.021398 0.231367 0.475550
C18 C 0.09958(8) 0.31617(18) 0.47738(12)
H15 H 0.111280 0.388874 0.542901
O1B O 0.45514(6) 0.16572(13) 0.39487(10)
C1B C 0.51914(11) 0.0693(2) 0.35975(16)
H1B H 0.570776 0.043748 0.426409
H2B H 0.493384 -0.042541 0.323417
H3B H 0.536502 0.141562 0.305708
C2B C 0.47919(8) 0.33163(17) 0.44752(11)
C3B C 0.56381(8) 0.40359(17) 0.47186(11)
H4B H 0.606551 0.336673 0.452899
C4B C 0.58759(8) 0.57379(17) 0.52410(10)
C5B C 0.67722(8) 0.65418(17) 0.55441(11)
H5B H 0.685287 0.760192 0.597944
C6B C 0.74966(8) 0.59970(16) 0.52957(10)
C7B C 0.74872(7) 0.44546(17) 0.45056(10)
C8B C 0.70839(9) 0.4654(2) 0.33163(11)
H6B H 0.682428 0.575620 0.301276
C9B C 0.70657(12) 0.3226(3) 0.25814(14)
H7B H 0.679457 0.336959 0.178457
C10B C 0.74453(13) 0.1600(3) 0.30212(18)
H8B H 0.742575 0.063677 0.252294
C11B C 0.78540(12) 0.1385(2) 0.41922(17)
H9B H 0.811144 0.027714 0.448714
C12B C 0.78851(9) 0.28179(18) 0.49400(13)
H10B H 0.817366 0.267642 0.573373
C13B C 0.83675(8) 0.69597(16) 0.57797(11)
C14B C 0.85813(10) 0.8008(2) 0.67753(13)
H11B H 0.818118 0.808281 0.717935
C15B C 0.93841(12) 0.8946(3) 0.71768(16)
H12B H 0.951286 0.965735 0.784029
C16B C 0.99919(10) 0.8835(2) 0.66037(16)
H13B H 1.052736 0.947512 0.687405
C17B C 0.98033(9) 0.7775(2) 0.56320(15)
H14B H 1.021398 0.768633 0.524450
C18B C 0.90042(8) 0.68383(18) 0.52262(12)
H15B H 0.888720 0.611126 0.457099
loop_
_geom_bond_atom_site_label_1
_geom_bond_atom_site_label_2
_geom_bond_site_symmetry_1
_geom_bond_site_symmetry_2
O1 C1 1_555 1_555
C1 H1 1_555 1_555
H2 C1 1_555 1_555
H3 C1 1_555 1_555
C2 O1 1_555 1_555
C3 C2 1_555 1_555
H4 C3 1_555 1_555
C4 C3 1_555 1_555
C5 C4 1_555 1_555
H5 C5 1_555 1_555
C6 C5 1_555 1_555
C7 C6 1_555 1_555
C8 C7 1_555 1_555
H6 C8 1_555 1_555
C9 C8 1_555 1_555
H7 C9 1_555 1_555
C10 C9 1_555 1_555
H8 C10 1_555 1_555
C11 C10 1_555 1_555
H9 C11 1_555 1_555
C12 C7 1_555 1_555
H10 C12 1_555 1_555
C13 C6 1_555 1_555
C14 C13 1_555 1_555
H11 C14 1_555 1_555
C15 C14 1_555 1_555
H12 C15 1_555 1_555
C16 C15 1_555 1_555
H13 C16 1_555 1_555
C17 C16 1_555 1_555
H14 C17 1_555 1_555
C18 C13 1_555 1_555
H15 C18 1_555 1_555
O1B C1B 1_555 1_555
C1B H1B 1_555 1_555
H2B C1B 1_555 1_555
H3B C1B 1_555 1_555
C2B C4 1_555 1_555
C3B C2B 1_555 1_555
H4B C3B 1_555 1_555
C4B C2 1_555 1_555
C5B C4B 1_555 1_555
H5B C5B 1_555 1_555
C6B C5B 1_555 1_555
C7B C6B 1_555 1_555
C8B C7B 1_555 1_555
H6B C8B 1_555 1_555
C9B C8B 1_555 1_555
H7B C9B 1_555 1_555
C10B C9B 1_555 1_555
H8B C10B 1_555 1_555
C11B C10B 1_555 1_555
H9B C11B 1_555 1_555
C12B C7B 1_555 1_555
H10B C12B 1_555 1_555
C13B C6B 1_555 1_555
C14B C13B 1_555 1_555
H11B C14B 1_555 1_555
C15B C14B 1_555 1_555
H12B C15B 1_555 1_555
C16B C15B 1_555 1_555
H13B C16B 1_555 1_555
C17B C16B 1_555 1_555
H14B C17B 1_555 1_555
C18B C13B 1_555 1_555
H15B C18B 1_555 1_555
C11 C12 1_555 1_555
C17 C18 1_555 1_555
O1B C2B 1_555 1_555
C3B C4B 1_555 1_555
C11B C12B 1_555 1_555
C17B C18B 1_555 1_555

#END
