
#######################################################################
#
#                 Cambridge Crystallographic Data Centre
#                                CCDC 
#
#######################################################################
#
# If this CIF has been generated from an entry in the Cambridge 
# Structural Database, then it will include bibliographic, chemical, 
# crystal, experimental, refinement or atomic coordinate data resulting 
# from the CCDC's data processing and validation procedures.
#
#######################################################################

data_KILPED
_chemical_formula_moiety         'C34 H20 O2'
_chemical_name_systematic        5,12-diphenylbenzo[k]tetraphene-7,14-dione
_symmetry_cell_setting           monoclinic
_symmetry_space_group_name_H-M   'C 2/c'
_symmetry_Int_Tables_number      15
_space_group_name_Hall           '-C 2yn'
loop_
_symmetry_equiv_pos_site_id
_symmetry_equiv_pos_as_xyz
1 x,y,z
2 -x,y,1/2-z
3 1/2+x,1/2+y,z
4 1/2-x,1/2+y,1/2-z
5 -x,-y,-z
6 x,-y,1/2+z
7 1/2-x,1/2-y,-z
8 1/2+x,1/2-y,1/2+z
_cell_length_a                   28.335(12)
_cell_length_b                   5.014(2)
_cell_length_c                   19.700(9)
_cell_angle_alpha                90
_cell_angle_beta                 125.34(2)
_cell_angle_gamma                90
_cell_volume                     2283.09
_exptl_crystal_colour            orange
_exptl_crystal_description       Block
_cell_formula_units_Z            4
loop_
_atom_site_label
_atom_site_type_symbol
_atom_site_fract_x
_atom_site_fract_y
_atom_site_fract_z
C1 C 0.15495(16) -0.2033(7) 1.0301(2)
C2 C 0.13883(18) -0.3968(8) 1.0661(2)
H1 H 0.0998 -0.4274 1.0419
C3 C 0.1785(2) -0.5367(9) 1.1343(3)
H2 H 0.1664 -0.6596 1.1567
C4 C 0.2370(2) -0.4997(8) 1.1716(3)
H3 H 0.2640 -0.6023 1.2174
C5 C 0.25503(17) -0.3118(8) 1.1409(2)
H4 H 0.2945 -0.2849 1.1673
C6 C 0.21524(15) -0.1581(7) 1.0702(2)
C7 C 0.23293(14) 0.0428(7) 1.0363(2)
C8 C 0.19170(14) 0.1725(7) 0.9640(2)
C9 C 0.13242(15) 0.1185(8) 0.9237(2)
H5 H 0.1055 0.2064 0.8743
C10 C 0.11339(15) -0.0627(7) 0.9561(2)
C11 C 0.20586(16) 0.3813(8) 0.9231(2)
C12 C 0.04948(14) -0.1002(7) 0.9093(2)
C13 C -0.06984(17) -0.1586(10) 0.8196(3)
H6 H -0.1099 -0.1753 0.7885
C14 C 0.0177(3) -0.1599(11) 0.8297(4)
H7 H 0.0352 -0.1825 0.8021
C15 C -0.0424(3) -0.1896(13) 0.7861(4)
H8 H -0.0635 -0.2341 0.7299
C16 C -0.0347(3) -0.0943(15) 0.9108(5)
H9 H -0.0525 -0.0738 0.9380
C17 C 0.0227(3) -0.0671(13) 0.9523(4)
H10 H 0.0452 -0.0270 1.0088
O1 O 0.16644(13) 0.4662(8) 0.8562(2)
C1F C 0.34505(16) 0.7033(7) 0.9699(2)
C2F C 0.36117(18) 0.8968(8) 0.9339(2)
H1F H 0.4002 0.9274 0.9581
C3F C 0.3215(2) 1.0367(9) 0.8657(3)
H2F H 0.3336 1.1596 0.8433
C4F C 0.2630(2) 0.9997(8) 0.8284(3)
H3F H 0.2360 1.1023 0.7826
C5F C 0.24497(17) 0.8118(8) 0.8591(2)
H4F H 0.2055 0.7849 0.8327
C6F C 0.28476(15) 0.6581(7) 0.9298(2)
C7F C 0.26707(14) 0.4572(7) 0.9637(2)
C8F C 0.30830(14) 0.3275(7) 1.0360(2)
C9F C 0.36758(15) 0.3815(8) 1.0763(2)
H5F H 0.3945 0.2936 1.1257
C10F C 0.38661(15) 0.5627(7) 1.0439(2)
C11F C 0.29414(16) 0.1187(8) 1.0769(2)
C12F C 0.45052(14) 0.6002(7) 1.0907(2)
C13F C 0.56984(17) 0.6586(10) 1.1804(3)
H6F H 0.6099 0.6753 1.2115
C14F C 0.4823(3) 0.6599(11) 1.1703(4)
H7F H 0.4648 0.6825 1.1979
C15F C 0.5424(3) 0.6896(13) 1.2139(4)
H8F H 0.5635 0.7341 1.2701
C16F C 0.5347(3) 0.5943(15) 1.0892(5)
H9F H 0.5525 0.5738 1.0620
C17F C 0.4773(3) 0.5671(13) 1.0477(4)
H10F H 0.4548 0.5270 0.9912
O1F O 0.33356(13) 0.0338(8) 1.1438(2)
C18? C 0.0236(3) -0.3488(13) 0.8855(4)
H11? H 0.0470 -0.4990 0.9011
C19? C -0.0351(3) -0.3816(16) 0.8398(4)
H12? H -0.0515 -0.5505 0.8226
C20? C -0.0466(3) 0.0901(16) 0.8369(4)
H13? H -0.0707 0.2384 0.8177
C21? C 0.0123(3) 0.1246(13) 0.8827(4)
H14? H 0.0279 0.2956 0.8963
loop_
_geom_bond_atom_site_label_1
_geom_bond_atom_site_label_2
_geom_bond_site_symmetry_1
_geom_bond_site_symmetry_2
C1 C2 1_555 1_555
C2 H1 1_555 1_555
C3 C2 1_555 1_555
H2 C3 1_555 1_555
C4 C3 1_555 1_555
H3 C4 1_555 1_555
C5 C4 1_555 1_555
H4 C5 1_555 1_555
C6 C1 1_555 1_555
C7 C6 1_555 1_555
C8 C7 1_555 1_555
C9 C8 1_555 1_555
H5 C9 1_555 1_555
C10 C1 1_555 1_555
C11 C8 1_555 1_555
C12 C10 1_555 1_555
C13 H6 1_555 1_555
C14 C12 1_555 1_555
H7 C14 1_555 1_555
C15 C13 1_555 1_555
H8 C15 1_555 1_555
C16 C13 1_555 1_555
H9 C16 1_555 1_555
C17 C12 1_555 1_555
H10 C17 1_555 1_555
O1 C11 1_555 1_555
C1F C2F 1_555 1_555
C2F H1F 1_555 1_555
C3F C2F 1_555 1_555
H2F C3F 1_555 1_555
C4F C3F 1_555 1_555
H3F C4F 1_555 1_555
C5F C4F 1_555 1_555
H4F C5F 1_555 1_555
C6F C1F 1_555 1_555
C7F C11 1_555 1_555
C8F C7F 1_555 1_555
C9F C8F 1_555 1_555
H5F C9F 1_555 1_555
C10F C1F 1_555 1_555
C11F C7 1_555 1_555
C12F C10F 1_555 1_555
C13F H6F 1_555 1_555
C14F C12F 1_555 1_555
H7F C14F 1_555 1_555
C15F C13F 1_555 1_555
H8F C15F 1_555 1_555
C16F C13F 1_555 1_555
H9F C16F 1_555 1_555
C17F C12F 1_555 1_555
H10F C17F 1_555 1_555
O1F C11F 1_555 1_555
C5 C6 1_555 1_555
C9 C10 1_555 1_555
C14 C15 1_555 1_555
C16 C17 1_555 1_555
C5F C6F 1_555 1_555
C6F C7F 1_555 1_555
C8F C11F 1_555 1_555
C9F C10F 1_555 1_555
C14F C15F 1_555 1_555
C16F C17F 1_555 1_555

#END
