
#######################################################################
#
#                 Cambridge Crystallographic Data Centre
#                                CCDC 
#
#######################################################################
#
# If this CIF has been generated from an entry in the Cambridge 
# Structural Database, then it will include bibliographic, chemical, 
# crystal, experimental, refinement or atomic coordinate data resulting 
# from the CCDC's data processing and validation procedures.
#
#######################################################################

data_KILTAA
_chemical_formula_moiety         'C26 H16 N2 O4'
_chemical_name_systematic        gauche-9,9'-Dinitro-9,9'-bifluorenyl
_symmetry_cell_setting           monoclinic
_symmetry_space_group_name_H-M   'P 21/n'
_symmetry_Int_Tables_number      14
_space_group_name_Hall           '-P 2yn'
loop_
_symmetry_equiv_pos_site_id
_symmetry_equiv_pos_as_xyz
1 x,y,z
2 1/2-x,1/2+y,1/2-z
3 -x,-y,-z
4 1/2+x,1/2-y,1/2+z
_cell_length_a                   8.990(2)
_cell_length_b                   16.499(7)
_cell_length_c                   13.445(3)
_cell_angle_alpha                90
_cell_angle_beta                 94.78(2)
_cell_angle_gamma                90
_cell_volume                     1987.31
_exptl_crystal_colour            colorless
_exptl_crystal_description       blocks
_chemical_melting_point          '180-181 deg.C(dec.)'
_cell_formula_units_Z            4
_exptl_crystal_recrystallization_method 'benzene/light petroleum'
loop_
_atom_site_label
_atom_site_type_symbol
_atom_site_fract_x
_atom_site_fract_y
_atom_site_fract_z
C1 C 0.1024(4) 0.5739(2) 0.6493(3)
C2 C 0.1785(5) 0.5126(2) 0.6045(3)
C3 C 0.3011(5) 0.5295(2) 0.5538(3)
C4 C 0.3523(3) 0.6078(2) 0.5467(2)
C5 C 0.4250(3) 0.8000(2) 0.5606(2)
C6 C 0.4355(3) 0.8815(2) 0.5816(2)
C7 C 0.3351(3) 0.9188(2) 0.6395(3)
C8 C 0.2201(3) 0.8755(2) 0.6764(2)
C9 C 0.0906(3) 0.7317(2) 0.6799(2)
C10 C 0.1514(3) 0.6527(2) 0.6415(2)
C11 C 0.2774(3) 0.6696(2) 0.5906(2)
C12 C 0.3101(3) 0.7557(2) 0.5976(2)
C13 C 0.2069(3) 0.7938(2) 0.6539(2)
C14 C -0.1761(3) 0.8596(2) 0.7537(2)
C15 C -0.2250(4) 0.9391(2) 0.7650(3)
C16 C -0.2266(4) 0.9938(2) 0.6882(3)
C17 C -0.1842(3) 0.9709(2) 0.5958(3)
C18 C -0.0761(3) 0.8806(2) 0.3990(2)
C19 C -0.0314(3) 0.8286(3) 0.3269(2)
C20 C -0.0024(3) 0.7482(3) 0.3489(3)
C21 C -0.0133(3) 0.7182(2) 0.4441(2)
C22 C -0.0674(3) 0.7569(2) 0.6281(2)
C23 C -0.1292(3) 0.8374(2) 0.6624(2)
C24 C -0.1357(3) 0.8920(2) 0.5831(2)
C25 C -0.0890(3) 0.8512(2) 0.4942(2)
C26 C -0.0543(3) 0.7708(2) 0.5172(2)
N1 N 0.0851(3) 0.7267(2) 0.7943(2)
N2 N -0.1818(3) 0.6896(2) 0.6432(3)
O1 O 0.1046(3) 0.7873(2) 0.8429(2)
O2 O 0.0644(5) 0.6632(2) 0.8307(2)
O3 O -0.2193(4) 0.6446(2) 0.5798(3)
O4 O -0.2195(5) 0.6842(2) 0.7264(3)
H1 H 0.0181 0.5618 0.6862
H2 H 0.1427 0.4579 0.6071
H3 H 0.3535 0.4861 0.5244
H4 H 0.4379 0.6199 0.5112
H5 H 0.4960 0.7742 0.5215
H6 H 0.5120 0.9135 0.5550
H7 H 0.3469 0.9752 0.6556
H8 H 0.1497 0.9017 0.7156
H9 H -0.1764 0.8210 0.8072
H10 H -0.2568 0.9562 0.8281
H11 H -0.2582 1.0485 0.6984
H12 H -0.1882 1.0086 0.5413
H13 H -0.0971 0.9366 0.3841
H14 H -0.0214 0.8484 0.2607
H15 H 0.0261 0.7124 0.2976
H16 H 0.0072 0.6623 0.4595
loop_
_geom_bond_atom_site_label_1
_geom_bond_atom_site_label_2
_geom_bond_site_symmetry_1
_geom_bond_site_symmetry_2
C1 C2 1_555 1_555
C2 C3 1_555 1_555
C3 C4 1_555 1_555
C4 C11 1_555 1_555
C5 C6 1_555 1_555
C6 C7 1_555 1_555
C7 C8 1_555 1_555
C8 C13 1_555 1_555
C9 C10 1_555 1_555
C10 C1 1_555 1_555
C11 C10 1_555 1_555
C12 C5 1_555 1_555
C13 C9 1_555 1_555
C14 C15 1_555 1_555
C15 C16 1_555 1_555
C16 C17 1_555 1_555
C17 C24 1_555 1_555
C18 C19 1_555 1_555
C19 C20 1_555 1_555
C20 C21 1_555 1_555
C21 C26 1_555 1_555
C22 C9 1_555 1_555
C23 C14 1_555 1_555
C24 C23 1_555 1_555
C25 C18 1_555 1_555
C26 C22 1_555 1_555
N1 C9 1_555 1_555
N2 C22 1_555 1_555
O1 N1 1_555 1_555
O2 N1 1_555 1_555
O3 N2 1_555 1_555
O4 N2 1_555 1_555
H1 C1 1_555 1_555
H2 C2 1_555 1_555
H3 C3 1_555 1_555
H4 C4 1_555 1_555
H5 C5 1_555 1_555
H6 C6 1_555 1_555
H7 C7 1_555 1_555
H8 C8 1_555 1_555
H9 C14 1_555 1_555
H10 C15 1_555 1_555
H11 C16 1_555 1_555
H12 C17 1_555 1_555
H13 C18 1_555 1_555
H14 C19 1_555 1_555
H15 C20 1_555 1_555
H16 C21 1_555 1_555
C11 C12 1_555 1_555
C12 C13 1_555 1_555
C22 C23 1_555 1_555
C24 C25 1_555 1_555
C25 C26 1_555 1_555

#END
