
#######################################################################
#
#                 Cambridge Crystallographic Data Centre
#                                CCDC 
#
#######################################################################
#
# If this CIF has been generated from an entry in the Cambridge 
# Structural Database, then it will include bibliographic, chemical, 
# crystal, experimental, refinement or atomic coordinate data resulting 
# from the CCDC's data processing and validation procedures.
#
#######################################################################

data_KILTOQ
_chemical_formula_moiety         'C14 H18 N3 O4 1+,Cl1 1-'
_chemical_name_systematic        
'2-(Hydroxyamino)-5-(methoxycarbonyl)-6-(4-methoxyphenyl)-4-methyl-3,6-dihydropyrimidin-1-ium chloride'
_symmetry_cell_setting           orthorhombic
_symmetry_space_group_name_H-M   'P b c 21'
_symmetry_Int_Tables_number      29
_space_group_name_Hall           'P 2c -2b'
loop_
_symmetry_equiv_pos_site_id
_symmetry_equiv_pos_as_xyz
1 x,y,z
2 -x,-y,1/2+z
3 -x,1/2+y,z
4 x,1/2-y,1/2+z
_cell_length_a                   8.6118(2)
_cell_length_b                   14.3429(4)
_cell_length_c                   25.133(1)
_cell_angle_alpha                90
_cell_angle_beta                 90
_cell_angle_gamma                90
_cell_volume                     3104.38
_exptl_crystal_colour            colorless
_exptl_crystal_description       plate
_cell_formula_units_Z            8
loop_
_atom_site_label
_atom_site_type_symbol
_atom_site_fract_x
_atom_site_fract_y
_atom_site_fract_z
Cl1 Cl -0.36841(15) -0.18944(7) 0.79775(7)
Cl2 Cl 0.12702(15) -0.07612(7) 0.79842(7)
O1 O 0.0701(4) 0.2170(2) 0.82944(16)
H1 H 0.1215 0.2545 0.7980
O2 O -0.5057(4) 0.0481(2) 0.6413(2)
N1 N -0.1481(5) 0.2138(3) 0.75478(19)
H2 H -0.0929 0.2586 0.7707
N2 N 0.0656(5) 0.1419(3) 0.7939(2)
H3 H 0.0842 0.0815 0.8079
O3 O -0.0016(5) 0.4426(2) 0.5472(2)
O4 O -0.5550(5) 0.1858(2) 0.68052(18)
N3 N -0.0785(5) 0.0632(3) 0.73181(19)
H4 H -0.0251 0.0051 0.7433
C1 C -0.0563(6) 0.1416(3) 0.7608(2)
C2 C -0.2161(6) 0.0507(3) 0.7025(2)
C3 C -0.2025(6) 0.2803(3) 0.6664(2)
C4 C -0.3089(6) 0.1239(3) 0.6943(2)
C5 C -0.2632(6) 0.2211(3) 0.7120(2)
H5 H -0.3557 0.2517 0.7264
C6 C -0.2388(7) -0.0483(3) 0.6852(3)
H6 H -0.1537 -0.0855 0.6977
H7 H -0.2432 -0.0511 0.6471
H8 H -0.3342 -0.0717 0.6998
C7 C -0.4637(7) 0.1118(4) 0.6683(3)
C8 C -0.0757(7) 0.3929(4) 0.5866(3)
C9 C -0.0332(8) 0.2993(3) 0.5898(3)
H9 H 0.0358 0.2738 0.5653
C10 C -0.2468(6) 0.3715(3) 0.6608(2)
H10 H -0.3202 0.3963 0.6839
C11 C -0.0946(7) 0.2452(4) 0.6297(3)
H11 H -0.0637 0.1832 0.6325
C12 C -0.0356(8) 0.5388(4) 0.5440(3)
H12 H 0.0216 0.5660 0.5151
H13 H -0.0066 0.5687 0.5767
H14 H -0.1448 0.5472 0.5380
C13 C -0.7129(7) 0.1790(4) 0.6642(3)
H15 H -0.7675 0.2344 0.6745
H16 H -0.7601 0.1258 0.6808
H17 H -0.7175 0.1721 0.6262
C14 C -0.1830(7) 0.4287(4) 0.6204(2)
H18 H -0.2145 0.4905 0.6171
O5 O 0.0032(4) 0.1907(2) 0.9513(2)
N4 N -0.3564(5) 0.0207(3) 0.84116(19)
H19 H -0.3718 -0.0384 0.8231
O6 O -0.5706(4) 0.0156(2) 0.76612(16)
H20 H -0.6676 -0.0055 0.7768
O7 O 0.0485(5) 0.0489(2) 0.91708(17)
N5 N -0.5689(5) 0.0918(3) 0.8019(2)
H21 H -0.6110 0.1578 0.7988
O8 O -0.4982(5) -0.2067(3) 1.0508(2)
N6 N -0.4275(5) 0.1706(3) 0.86466(19)
H22 H -0.4729 0.2353 0.8603
C15 C -0.4477(6) 0.0925(3) 0.8355(2)
C16 C -0.3040(6) -0.0461(3) 0.9299(2)
C17 C -0.2406(6) 0.0140(3) 0.8845(2)
H23 H -0.1481 -0.0170 0.8702
C18 C -0.2898(6) 0.1840(3) 0.8940(2)
C19 C -0.3142(7) -0.1932(3) 0.9771(3)
H24 H -0.2787 -0.2540 0.9814
C20 C -0.2675(7) 0.2836(3) 0.9109(2)
H25 H -0.3546 0.3201 0.8995
H26 H -0.1742 0.3077 0.8952
H27 H -0.2593 0.2865 0.9490
C21 C -0.4289(7) -0.1571(4) 1.0110(2)
C22 C -0.1942(7) 0.1113(3) 0.9019(2)
C23 C -0.0403(7) 0.1227(4) 0.9273(3)
C24 C -0.2546(6) -0.1372(3) 0.9373(2)
H28 H -0.1791 -0.1613 0.9147
C25 C 0.2065(7) 0.0548(4) 0.9350(3)
H29 H 0.2607 -0.0013 0.9255
H30 H 0.2082 0.0622 0.9730
H31 H 0.2561 0.1073 0.9186
C26 C -0.4148(6) -0.0106(4) 0.9653(3)
H32 H -0.4469 0.0511 0.9622
C27 C -0.4764(7) -0.0655(4) 1.0044(3)
H33 H -0.5514 -0.0410 1.0270
C28 C -0.4677(10) -0.3032(4) 1.0557(4)
H34 H -0.5255 -0.3280 1.0851
H35 H -0.3588 -0.3126 1.0617
H36 H -0.4983 -0.3345 1.0236
loop_
_geom_bond_atom_site_label_1
_geom_bond_atom_site_label_2
_geom_bond_site_symmetry_1
_geom_bond_site_symmetry_2
O1 H1 1_555 1_555
O2 C7 1_555 1_555
N1 H2 1_555 1_555
N2 O1 1_555 1_555
H3 N2 1_555 1_555
O3 C8 1_555 1_555
O4 C7 1_555 1_555
N3 H4 1_555 1_555
C1 N1 1_555 1_555
C2 N3 1_555 1_555
C3 C5 1_555 1_555
C4 C2 1_555 1_555
C5 N1 1_555 1_555
H5 C5 1_555 1_555
C6 C2 1_555 1_555
H6 C6 1_555 1_555
H7 C6 1_555 1_555
H8 C6 1_555 1_555
C7 C4 1_555 1_555
C8 C9 1_555 1_555
C9 H9 1_555 1_555
C10 C3 1_555 1_555
H10 C10 1_555 1_555
C11 C3 1_555 1_555
H11 C11 1_555 1_555
C12 O3 1_555 1_555
H12 C12 1_555 1_555
H13 C12 1_555 1_555
H14 C12 1_555 1_555
C13 O4 1_555 1_555
H15 C13 1_555 1_555
H16 C13 1_555 1_555
H17 C13 1_555 1_555
C14 C8 1_555 1_555
H18 C14 1_555 1_555
O5 C23 1_555 1_555
N4 H19 1_555 1_555
O6 H20 1_555 1_555
O7 C23 1_555 1_555
N5 O6 1_555 1_555
H21 N5 1_555 1_555
O8 C21 1_555 1_555
N6 H22 1_555 1_555
C15 N4 1_555 1_555
C16 C17 1_555 1_555
C17 N4 1_555 1_555
H23 C17 1_555 1_555
C18 N6 1_555 1_555
C19 H24 1_555 1_555
C20 C18 1_555 1_555
H25 C20 1_555 1_555
H26 C20 1_555 1_555
H27 C20 1_555 1_555
C21 C19 1_555 1_555
C22 C17 1_555 1_555
C23 C22 1_555 1_555
C24 C16 1_555 1_555
H28 C24 1_555 1_555
C25 O7 1_555 1_555
H29 C25 1_555 1_555
H30 C25 1_555 1_555
H31 C25 1_555 1_555
C26 C16 1_555 1_555
H32 C26 1_555 1_555
C27 C21 1_555 1_555
H33 C27 1_555 1_555
C28 O8 1_555 1_555
H34 C28 1_555 1_555
H35 C28 1_555 1_555
H36 C28 1_555 1_555
N2 C1 1_555 1_555
N3 C1 1_555 1_555
C4 C5 1_555 1_555
C9 C11 1_555 1_555
C10 C14 1_555 1_555
N5 C15 1_555 1_555
N6 C15 1_555 1_555
C18 C22 1_555 1_555
C19 C24 1_555 1_555
C26 C27 1_555 1_555

#END
