
#######################################################################
#
#                 Cambridge Crystallographic Data Centre
#                                CCDC 
#
#######################################################################
#
# If this CIF has been generated from an entry in the Cambridge 
# Structural Database, then it will include bibliographic, chemical, 
# crystal, experimental, refinement or atomic coordinate data resulting 
# from the CCDC's data processing and validation procedures.
#
#######################################################################

data_KILWIO
_chemical_formula_moiety         'C35 H36 N2 O6'
_chemical_name_systematic        
'3-{[(4-butoxy-2-hydroxyphenyl)methylidene]amino}phenyl 4-{[(4-butoxy-2-hydroxyphenyl)methylidene]amino}benzoate'
_symmetry_cell_setting           monoclinic
_symmetry_space_group_name_H-M   'P 21/c'
_symmetry_Int_Tables_number      14
_space_group_name_Hall           '-P 2ybc'
loop_
_symmetry_equiv_pos_site_id
_symmetry_equiv_pos_as_xyz
1 x,y,z
2 -x,1/2+y,1/2-z
3 -x,-y,-z
4 x,1/2-y,1/2+z
_cell_length_a                   6.5854(11)
_cell_length_b                   61.276(8)
_cell_length_c                   7.3258(11)
_cell_angle_alpha                90
_cell_angle_beta                 90.629(11)
_cell_angle_gamma                90
_cell_volume                     2955.98
_exptl_crystal_colour            yellow
_exptl_crystal_description       needles
_cell_formula_units_Z            4
loop_
_atom_site_label
_atom_site_type_symbol
_atom_site_fract_x
_atom_site_fract_y
_atom_site_fract_z
O1 O 0.2196(5) 0.24667(5) 0.2272(4)
N1 N 0.4655(6) 0.34107(7) -0.0590(5)
C1 C 0.1965(6) 0.28194(8) 0.0898(6)
C2 C 0.3888(7) 0.28770(8) 0.1556(6)
H1 H 0.4623 0.2780 0.2328
C3 C 0.4721(7) 0.30759(8) 0.1082(6)
H2 H 0.6030 0.3116 0.1525
C4 C 0.3640(7) 0.32173(8) -0.0042(6)
C5 C 0.1689(7) 0.31632(8) -0.0636(6)
H3 H 0.0927 0.3264 -0.1352
C6 C 0.0853(7) 0.29630(8) -0.0188(6)
H4 H -0.0464 0.2924 -0.0618
C7 C 0.1259(6) 0.25953(8) 0.1330(6)
O2 O 0.7873(5) 0.35919(6) -0.1912(5)
H5 H 0.670(12) 0.3496(13) -0.119(10)
O3 O 0.7414(4) 0.43498(5) -0.3435(4)
C8 C 0.4706(7) 0.37826(8) -0.1578(6)
C9 C 0.6741(7) 0.37767(8) -0.2080(6)
C10 C 0.7722(7) 0.39626(8) -0.2732(6)
H6 H 0.9107 0.3958 -0.3077
C11 C 0.6612(6) 0.41554(8) -0.2863(6)
C12 C 0.4586(7) 0.41621(8) -0.2421(6)
H7 H 0.3841 0.4294 -0.2555
C13 C 0.3645(7) 0.39771(8) -0.1784(6)
H8 H 0.2247 0.3982 -0.1481
C14 C 0.3686(7) 0.35871(8) -0.0879(6)
H9 H 0.2273 0.3593 -0.0637
C15 C 0.9583(7) 0.43652(9) -0.3676(7)
H10 H 1.0008 0.4278 -0.4742
H11 H 1.0311 0.4311 -0.2578
C16 C 1.0049(8) 0.46057(9) -0.3977(7)
H12 H 1.1514 0.4623 -0.4232
H13 H 0.9278 0.4658 -0.5058
C17 C 0.9505(8) 0.47449(9) -0.2331(8)
H14 H 0.8066 0.4719 -0.2020
H15 H 0.9645 0.4901 -0.2660
C18 C 1.0832(10) 0.46975(10) -0.0657(8)
H16 H 1.0754 0.4542 -0.0359
H17 H 1.0351 0.4784 0.0380
H18 H 1.2242 0.4737 -0.0916
O4 O -0.0561(4) 0.25492(5) 0.0570(4)
N2 N 0.0001(5) 0.17668(7) -0.0360(5)
C19 C -0.1346(6) 0.23359(8) 0.0730(6)
C20 C -0.0257(7) 0.21543(8) 0.0171(6)
H19 H 0.1101 0.2169 -0.0234
C21 C -0.1176(7) 0.19514(8) 0.0212(6)
C22 C -0.3129(7) 0.19300(8) 0.0877(6)
H20 H -0.3744 0.1790 0.0942
C23 C -0.4178(7) 0.21118(8) 0.1444(6)
H21 H -0.5516 0.2096 0.1897
C24 C -0.3302(7) 0.23178(8) 0.1361(6)
H22 H -0.4035 0.2443 0.1731
O5 O 0.3326(5) 0.15359(6) -0.0291(5)
H23 H 0.227(10) 0.1639(11) -0.018(9)
O6 O 0.2941(4) 0.08132(5) -0.2781(4)
C25 C 0.0167(6) 0.14056(8) -0.1595(6)
C26 C 0.2232(6) 0.13764(8) -0.1132(6)
C27 C 0.3207(7) 0.11778(8) -0.1484(6)
H24 H 0.4581 0.1156 -0.1119
C28 C 0.2136(6) 0.10126(8) -0.2373(6)
C29 C 0.0122(6) 0.10402(8) -0.2893(6)
H25 H -0.0584 0.0927 -0.3516
C30 C -0.0851(6) 0.12349(8) -0.2495(6)
H26 H -0.2236 0.1253 -0.2838
C31 C -0.0897(7) 0.16054(8) -0.1130(6)
H27 H -0.2306 0.1617 -0.1407
C32 C 0.5112(6) 0.07879(8) -0.2598(7)
H28 H 0.5536 0.0813 -0.1314
H29 H 0.5809 0.0896 -0.3374
C33 C 0.5695(7) 0.05590(8) -0.3175(6)
H30 H 0.5278 0.0537 -0.4464
H31 H 0.7191 0.0545 -0.3104
C34 C 0.4745(8) 0.03811(9) -0.2021(7)
H32 H 0.3252 0.0384 -0.2194
H33 H 0.5044 0.0410 -0.0716
C35 C 0.5534(10) 0.01551(9) -0.2515(8)
H34 H 0.5840 0.0150 -0.3821
H35 H 0.4498 0.0046 -0.2238
H36 H 0.6770 0.0124 -0.1805
loop_
_geom_bond_atom_site_label_1
_geom_bond_atom_site_label_2
_geom_bond_site_symmetry_1
_geom_bond_site_symmetry_2
O1 C7 1_555 1_555
N1 C4 1_555 1_555
C1 C2 1_555 1_555
C2 H1 1_555 1_555
C3 C2 1_555 1_555
H2 C3 1_555 1_555
C4 C3 1_555 1_555
C5 C4 1_555 1_555
H3 C5 1_555 1_555
C6 C1 1_555 1_555
H4 C6 1_555 1_555
C7 C1 1_555 1_555
O2 H5 1_555 1_555
O3 C11 1_555 1_555
C8 C9 1_555 1_555
C9 O2 1_555 1_555
C10 C9 1_555 1_555
H6 C10 1_555 1_555
C11 C10 1_555 1_555
C12 C11 1_555 1_555
H7 C12 1_555 1_555
C13 C8 1_555 1_555
H8 C13 1_555 1_555
C14 N1 1_555 1_555
H9 C14 1_555 1_555
C15 O3 1_555 1_555
H10 C15 1_555 1_555
H11 C15 1_555 1_555
C16 C15 1_555 1_555
H12 C16 1_555 1_555
H13 C16 1_555 1_555
C17 C16 1_555 1_555
H14 C17 1_555 1_555
H15 C17 1_555 1_555
C18 C17 1_555 1_555
H16 C18 1_555 1_555
H17 C18 1_555 1_555
H18 C18 1_555 1_555
O4 C7 1_555 1_555
N2 C21 1_555 1_555
C19 O4 1_555 1_555
C20 C19 1_555 1_555
H19 C20 1_555 1_555
C21 C20 1_555 1_555
C22 C21 1_555 1_555
H20 C22 1_555 1_555
C23 C22 1_555 1_555
H21 C23 1_555 1_555
C24 C19 1_555 1_555
H22 C24 1_555 1_555
O5 H23 1_555 1_555
O6 C28 1_555 1_555
C25 C26 1_555 1_555
C26 O5 1_555 1_555
C27 C26 1_555 1_555
H24 C27 1_555 1_555
C28 C27 1_555 1_555
C29 C28 1_555 1_555
H25 C29 1_555 1_555
C30 C25 1_555 1_555
H26 C30 1_555 1_555
C31 N2 1_555 1_555
H27 C31 1_555 1_555
C32 O6 1_555 1_555
H28 C32 1_555 1_555
H29 C32 1_555 1_555
C33 C32 1_555 1_555
H30 C33 1_555 1_555
H31 C33 1_555 1_555
C34 C33 1_555 1_555
H32 C34 1_555 1_555
H33 C34 1_555 1_555
C35 C34 1_555 1_555
H34 C35 1_555 1_555
H35 C35 1_555 1_555
H36 C35 1_555 1_555
C5 C6 1_555 1_555
C8 C14 1_555 1_555
C12 C13 1_555 1_555
C23 C24 1_555 1_555
C25 C31 1_555 1_555
C29 C30 1_555 1_555

#END
