
#######################################################################
#
#                 Cambridge Crystallographic Data Centre
#                                CCDC 
#
#######################################################################
#
# If this CIF has been generated from an entry in the Cambridge 
# Structural Database, then it will include bibliographic, chemical, 
# crystal, experimental, refinement or atomic coordinate data resulting 
# from the CCDC's data processing and validation procedures.
#
#######################################################################

data_KILWOU
_chemical_formula_moiety         'C30 H35 N1 O2'
_chemical_name_systematic        
2,6-di-t-butyl-4-[1-(2-{[(2-hydroxyphenyl)methylidene]amino}phenyl)prop-2-en-1-yl]phenol
_symmetry_cell_setting           triclinic
_symmetry_space_group_name_H-M   'P -1'
_symmetry_Int_Tables_number      2
_space_group_name_Hall           '-P 1'
loop_
_symmetry_equiv_pos_site_id
_symmetry_equiv_pos_as_xyz
1 x,y,z
2 -x,-y,-z
_cell_length_a                   10.229(13)
_cell_length_b                   10.292(13)
_cell_length_c                   12.452(16)
_cell_angle_alpha                88.979(15)
_cell_angle_beta                 78.134(14)
_cell_angle_gamma                86.738(14)
_cell_volume                     1280.79
_exptl_crystal_description       block
_cell_formula_units_Z            2
loop_
_atom_site_label
_atom_site_type_symbol
_atom_site_fract_x
_atom_site_fract_y
_atom_site_fract_z
O1 O 0.2508(2) 0.7566(2) 0.23871(13)
H1 H 0.281368 0.686616 0.257919
O2 O 0.96026(18) 0.74700(18) 0.18034(16)
N1 N 0.34196(14) 0.58944(17) 0.36712(13)
C1 C 0.2289(2) 0.8406(2) 0.32339(18)
C2 C 0.1746(3) 0.9644(3) 0.3098(2)
H2 H 0.155130 0.989638 0.242429
C3 C 0.1494(3) 1.0505(3) 0.3961(3)
H3 H 0.113387 1.133659 0.385896
C4 C 0.1762(2) 1.0164(2) 0.4964(2)
H4 H 0.157235 1.074837 0.554320
C5 C 0.2316(2) 0.8942(2) 0.50969(18)
H5 H 0.250687 0.870654 0.577486
C6 C 0.26003(18) 0.8042(2) 0.42452(16)
C7 C 0.31679(18) 0.6756(2) 0.44244(16)
H6 H 0.335537 0.654856 0.510895
C8 C 0.38541(16) 0.46086(19) 0.38850(15)
C9 C 0.34715(19) 0.4028(2) 0.49128(17)
H7 H 0.297523 0.451539 0.549309
C10 C 0.3821(2) 0.2739(3) 0.50781(19)
H8 H 0.356941 0.236414 0.576959
C11 C 0.4537(2) 0.2010(2) 0.4225(2)
H9 H 0.475718 0.113392 0.433008
C12 C 0.49308(19) 0.2583(2) 0.32100(18)
H10 H 0.542781 0.208352 0.263756
C13 C 0.46099(15) 0.38755(19) 0.30161(14)
C14 C 0.50929(16) 0.45081(18) 0.19022(14)
H11 H 0.437478 0.513354 0.178748
C15 C 0.5282(2) 0.3538(2) 0.09871(16)
H12 H 0.451945 0.312952 0.091009
C16 C 0.6364(2) 0.3198(2) 0.02945(17)
H13 H 0.716242 0.357070 0.032725
H14 H 0.634615 0.258027 -0.023751
C17 C 0.63119(16) 0.52921(18) 0.19022(13)
C18 C 0.63024(17) 0.65898(18) 0.16211(14)
H15 H 0.552975 0.698147 0.144732
C19 C 0.73962(18) 0.73413(18) 0.15852(14)
C20 C 0.85397(17) 0.6703(2) 0.18432(15)
C21 C 0.86084(17) 0.5378(2) 0.21086(15)
C22 C 0.74624(16) 0.47072(18) 0.21450(14)
H16 H 0.747047 0.383084 0.234041
C23 C 0.98760(19) 0.4652(3) 0.23426(19)
C24 C 1.1068(2) 0.4793(3) 0.1384(2)
H17 H 1.085143 0.447635 0.072525
H18 H 1.183329 0.429706 0.153814
H19 H 1.126768 0.569284 0.128949
C25 C 1.0187(3) 0.5150(4) 0.3405(2)
H20 H 1.017800 0.608345 0.338270
H21 H 1.105430 0.480461 0.348331
H22 H 0.952413 0.487609 0.401691
C26 C 0.9716(2) 0.3177(3) 0.2467(3)
H23 H 1.056475 0.274557 0.249876
H24 H 0.940164 0.286207 0.185013
H25 H 0.908294 0.300332 0.313029
C27 C 0.7341(2) 0.8780(2) 0.12445(18)
C28 C 0.8346(3) 0.8968(3) 0.0171(2)
H26 H 0.922931 0.870739 0.027190
H27 H 0.831789 0.986862 -0.004258
H28 H 0.812355 0.844762 -0.039072
C29 C 0.7642(3) 0.9664(2) 0.2130(2)
H29 H 0.698863 0.956297 0.279579
H30 H 0.760781 1.055366 0.188758
H31 H 0.851740 0.942957 0.226162
C30 C 0.5958(3) 0.9248(2) 0.1063(3)
H32 H 0.573698 0.875486 0.048371
H33 H 0.596216 1.015358 0.086468
H34 H 0.530497 0.912928 0.172605
H35 H 1.013(3) 0.713(3) 0.199(3)
loop_
_geom_bond_atom_site_label_1
_geom_bond_atom_site_label_2
_geom_bond_site_symmetry_1
_geom_bond_site_symmetry_2
O1 H1 1_555 1_555
O2 C20 1_555 1_555
N1 C7 1_555 1_555
C1 O1 1_555 1_555
C2 C1 1_555 1_555
H2 C2 1_555 1_555
C3 C2 1_555 1_555
H3 C3 1_555 1_555
C4 C3 1_555 1_555
H4 C4 1_555 1_555
C5 C4 1_555 1_555
H5 C5 1_555 1_555
C6 C1 1_555 1_555
C7 C6 1_555 1_555
H6 C7 1_555 1_555
C8 N1 1_555 1_555
C9 C8 1_555 1_555
H7 C9 1_555 1_555
C10 C9 1_555 1_555
H8 C10 1_555 1_555
C11 C10 1_555 1_555
H9 C11 1_555 1_555
C12 C11 1_555 1_555
H10 C12 1_555 1_555
C13 C8 1_555 1_555
C14 C13 1_555 1_555
H11 C14 1_555 1_555
C15 C14 1_555 1_555
H12 C15 1_555 1_555
C16 C15 1_555 1_555
H13 C16 1_555 1_555
H14 C16 1_555 1_555
C17 C14 1_555 1_555
C18 C17 1_555 1_555
H15 C18 1_555 1_555
C19 C18 1_555 1_555
C20 C19 1_555 1_555
C21 C20 1_555 1_555
C22 C17 1_555 1_555
H16 C22 1_555 1_555
C23 C21 1_555 1_555
C24 C23 1_555 1_555
H17 C24 1_555 1_555
H18 C24 1_555 1_555
H19 C24 1_555 1_555
C25 C23 1_555 1_555
H20 C25 1_555 1_555
H21 C25 1_555 1_555
H22 C25 1_555 1_555
C26 C23 1_555 1_555
H23 C26 1_555 1_555
H24 C26 1_555 1_555
H25 C26 1_555 1_555
C27 C19 1_555 1_555
C28 C27 1_555 1_555
H26 C28 1_555 1_555
H27 C28 1_555 1_555
H28 C28 1_555 1_555
C29 C27 1_555 1_555
H29 C29 1_555 1_555
H30 C29 1_555 1_555
H31 C29 1_555 1_555
C30 C27 1_555 1_555
H32 C30 1_555 1_555
H33 C30 1_555 1_555
H34 C30 1_555 1_555
H35 O2 1_555 1_555
C5 C6 1_555 1_555
C12 C13 1_555 1_555
C21 C22 1_555 1_555

#END
