
#######################################################################
#
#                 Cambridge Crystallographic Data Centre
#                                CCDC 
#
#######################################################################
#
# If this CIF has been generated from an entry in the Cambridge 
# Structural Database, then it will include bibliographic, chemical, 
# crystal, experimental, refinement or atomic coordinate data resulting 
# from the CCDC's data processing and validation procedures.
#
#######################################################################

data_KIMDOC
_chemical_formula_moiety         'C15 H14 O3 S1'
_chemical_name_systematic        2-(phenylsulfonyl)-2,3-dihydro-1H-inden-1-ol
_symmetry_cell_setting           monoclinic
_symmetry_space_group_name_H-M   'P 21'
_symmetry_Int_Tables_number      4
_space_group_name_Hall           'P 2yb'
loop_
_symmetry_equiv_pos_site_id
_symmetry_equiv_pos_as_xyz
1 x,y,z
2 -x,1/2+y,-z
_cell_length_a                   12.309(3)
_cell_length_b                   5.5175(13)
_cell_length_c                   19.761(5)
_cell_angle_alpha                90
_cell_angle_beta                 90.518(4)
_cell_angle_gamma                90
_cell_volume                     1342.01
_exptl_crystal_colour            colorless
_exptl_crystal_description       prism
_cell_formula_units_Z            4
loop_
_atom_site_label
_atom_site_type_symbol
_atom_site_fract_x
_atom_site_fract_y
_atom_site_fract_z
S1 S 0.45194(8) 0.52877(15) 0.67295(5)
O1 O 0.4696(2) 0.7690(5) 0.69702(14)
O2 O 0.3502(2) 0.4742(7) 0.64024(13)
O3 O 0.2895(2) 0.4248(5) 0.78323(13)
H1 H 0.2546 0.3088 0.7690
C1 C 0.4772(3) 0.3191(7) 0.73992(19)
H2 H 0.4742 0.1527 0.7226
C2 C 0.3966(3) 0.3493(7) 0.79961(19)
H3 H 0.3921 0.1941 0.8236
C3 C 0.4530(3) 0.5274(7) 0.84505(18)
C4 C 0.4087(4) 0.6697(8) 0.8953(2)
H4 H 0.3353 0.6585 0.9056
C5 C 0.4754(5) 0.8285(9) 0.9298(2)
H5 H 0.4469 0.9265 0.9635
C6 C 0.5834(5) 0.8427(10) 0.9146(3)
H6 H 0.6272 0.9513 0.9384
C7 C 0.6295(4) 0.6998(11) 0.8649(2)
H7 H 0.7030 0.7117 0.8550
C8 C 0.5623(3) 0.5371(9) 0.8301(2)
C9 C 0.5893(3) 0.3681(9) 0.7734(2)
H8 H 0.6216 0.2194 0.7903
H9 H 0.6387 0.4433 0.7417
C10 C 0.5539(3) 0.4640(7) 0.61317(17)
C11 C 0.5438(3) 0.2573(8) 0.5736(2)
H10 H 0.4888 0.1459 0.5818
C12 C 0.6166(4) 0.2189(8) 0.5217(2)
H11 H 0.6108 0.0807 0.4950
C13 C 0.6974(4) 0.3841(9) 0.5097(2)
H12 H 0.7448 0.3595 0.4740
C14 C 0.7086(4) 0.5836(9) 0.5495(2)
H13 H 0.7649 0.6923 0.5416
C15 C 0.6368(3) 0.6264(8) 0.6021(2)
H14 H 0.6446 0.7627 0.6293
S2 S -0.01332(8) 0.98704(17) 0.82378(5)
O4 O 0.0095(3) 1.2258(5) 0.80058(14)
O5 O -0.1212(2) 0.9349(7) 0.84696(15)
O6 O 0.2071(2) 0.9204(5) 0.75751(13)
H15 H 0.2531 0.8145 0.7629
C16 C 0.0143(3) 0.7747(7) 0.75742(19)
H16 H 0.0160 0.6095 0.7756
C17 C 0.1194(3) 0.8271(7) 0.71813(19)
H17 H 0.1433 0.6761 0.6969
C18 C 0.0817(3) 0.9967(8) 0.66339(16)
C19 C 0.1423(3) 1.1576(9) 0.6260(2)
H18 H 0.2170 1.1700 0.6326
C20 C 0.0890(4) 1.3008(8) 0.5784(2)
H19 H 0.1285 1.4112 0.5530
C21 C -0.0212(4) 1.2813(9) 0.5685(2)
H20 H -0.0554 1.3773 0.5360
C22 C -0.0817(4) 1.1205(9) 0.6062(2)
H21 H -0.1564 1.1089 0.5996
C23 C -0.0297(3) 0.9761(8) 0.65424(16)
C24 C -0.0765(4) 0.7979(8) 0.7026(2)
H22 H -0.0904 0.6435 0.6807
H23 H -0.1435 0.8579 0.7219
C25 C 0.0746(3) 0.9229(7) 0.89270(17)
C26 C 0.1504(3) 1.0945(7) 0.9121(2)
H24 H 0.1627 1.2305 0.8854
C27 C 0.2082(4) 1.0607(9) 0.9722(2)
H25 H 0.2585 1.1760 0.9865
C28 C 0.1909(4) 0.8580(10) 1.0102(2)
H26 H 0.2287 0.8380 1.0508
C29 C 0.1190(4) 0.6842(9) 0.9897(2)
H27 H 0.1100 0.5446 1.0154
C30 C 0.0591(3) 0.7154(8) 0.9304(2)
H28 H 0.0094 0.5984 0.9163
loop_
_geom_bond_atom_site_label_1
_geom_bond_atom_site_label_2
_geom_bond_site_symmetry_1
_geom_bond_site_symmetry_2
S1 O1 1_555 1_555
O2 S1 1_555 1_555
O3 H1 1_555 1_555
C1 S1 1_555 1_555
H2 C1 1_555 1_555
C2 O3 1_555 1_555
H3 C2 1_555 1_555
C3 C2 1_555 1_555
C4 C3 1_555 1_555
H4 C4 1_555 1_555
C5 C4 1_555 1_555
H5 C5 1_555 1_555
C6 C5 1_555 1_555
H6 C6 1_555 1_555
C7 C6 1_555 1_555
H7 C7 1_555 1_555
C8 C3 1_555 1_555
C9 C1 1_555 1_555
H8 C9 1_555 1_555
H9 C9 1_555 1_555
C10 S1 1_555 1_555
C11 C10 1_555 1_555
H10 C11 1_555 1_555
C12 C11 1_555 1_555
H11 C12 1_555 1_555
C13 C12 1_555 1_555
H12 C13 1_555 1_555
C14 C13 1_555 1_555
H13 C14 1_555 1_555
C15 C10 1_555 1_555
H14 C15 1_555 1_555
S2 O4 1_555 1_555
O5 S2 1_555 1_555
O6 H15 1_555 1_555
C16 S2 1_555 1_555
H16 C16 1_555 1_555
C17 O6 1_555 1_555
H17 C17 1_555 1_555
C18 C17 1_555 1_555
C19 C18 1_555 1_555
H18 C19 1_555 1_555
C20 C19 1_555 1_555
H19 C20 1_555 1_555
C21 C20 1_555 1_555
H20 C21 1_555 1_555
C22 C21 1_555 1_555
H21 C22 1_555 1_555
C23 C18 1_555 1_555
C24 C16 1_555 1_555
H22 C24 1_555 1_555
H23 C24 1_555 1_555
C25 S2 1_555 1_555
C26 C25 1_555 1_555
H24 C26 1_555 1_555
C27 C26 1_555 1_555
H25 C27 1_555 1_555
C28 C27 1_555 1_555
H26 C28 1_555 1_555
C29 C28 1_555 1_555
H27 C29 1_555 1_555
C30 C25 1_555 1_555
H28 C30 1_555 1_555
C1 C2 1_555 1_555
C7 C8 1_555 1_555
C8 C9 1_555 1_555
C14 C15 1_555 1_555
C16 C17 1_555 1_555
C22 C23 1_555 1_555
C23 C24 1_555 1_555
C29 C30 1_555 1_555

#END
