
#######################################################################
#
#                 Cambridge Crystallographic Data Centre
#                                CCDC 
#
#######################################################################
#
# If this CIF has been generated from an entry in the Cambridge 
# Structural Database, then it will include bibliographic, chemical, 
# crystal, experimental, refinement or atomic coordinate data resulting 
# from the CCDC's data processing and validation procedures.
#
#######################################################################

data_KIMFIY
_chemical_formula_moiety         'C14 H16 N2 O6,2(H2 O1)'
_chemical_name_systematic        
"2,2'-[benzene-1,4-diylbis(carbonylimino)]dipropanoic acid dihydrate"
_symmetry_cell_setting           orthorhombic
_symmetry_space_group_name_H-M   'P 21 21 21'
_symmetry_Int_Tables_number      19
_space_group_name_Hall           'P 2ac 2ab'
loop_
_symmetry_equiv_pos_site_id
_symmetry_equiv_pos_as_xyz
1 x,y,z
2 1/2-x,-y,1/2+z
3 1/2+x,1/2-y,-z
4 -x,1/2+y,1/2-z
_cell_length_a                   7.6986(2)
_cell_length_b                   8.1320(2)
_cell_length_c                   26.4032(7)
_cell_angle_alpha                90
_cell_angle_beta                 90
_cell_angle_gamma                90
_cell_volume                     1652.97
_cell_formula_units_Z            4
loop_
_atom_site_label
_atom_site_type_symbol
_atom_site_fract_x
_atom_site_fract_y
_atom_site_fract_z
C1 C -0.3084(3) -0.0018(3) 0.23619(7)
C2 C -0.2399(3) 0.1694(3) 0.24819(8)
H1 H -0.3307 0.2486 0.2393
C3 C -0.0945(3) 0.2195(2) 0.16853(8)
C4 C 0.0610(3) 0.2835(3) 0.14141(7)
C5 C 0.2317(3) 0.2527(2) 0.15742(7)
H2 H 0.2516 0.1846 0.1851
C6 C 0.3702(3) 0.3231(3) 0.13229(8)
H3 H 0.4830 0.3036 0.1433
C7 C 0.3408(3) 0.4238(2) 0.09020(7)
C8 C 0.1719(3) 0.4506(3) 0.07390(7)
H4 H 0.1522 0.5163 0.0456
C9 C 0.0323(3) 0.3813(3) 0.09900(7)
H5 H -0.0803 0.4001 0.0876
C10 C 0.4922(3) 0.5038(2) 0.06426(7)
C11 C 0.6091(3) 0.6026(3) -0.01624(8)
H6 H 0.6398 0.7064 0.0004
C12 C 0.7723(3) 0.4987(3) -0.02090(7)
C13 C 0.5365(3) 0.6416(3) -0.06875(8)
H7 H 0.5022 0.5414 -0.0851
H8 H 0.6241 0.6954 -0.0886
H9 H 0.4375 0.7127 -0.0655
C14 C -0.2017(3) 0.1890(3) 0.30456(8)
H10 H -0.1069 0.1184 0.3139
H11 H -0.3029 0.1597 0.3238
H12 H -0.1712 0.3012 0.3115
N1 N 0.4782(2) 0.5206(2) 0.01404(6)
H13 H 0.3880 0.4812 -0.0009
N2 N -0.0854(2) 0.2109(2) 0.21914(6)
H14 H 0.0113 0.2298 0.2344
O1 O -0.19369(19) -0.10694(18) 0.21851(5)
H15 H -0.2439 -0.1890 0.2079
O2 O -0.4598(2) -0.0363(2) 0.24379(6)
O3 O -0.22835(18) 0.17879(19) 0.14612(5)
O4 O 0.62146(19) 0.55200(19) 0.08783(5)
O5 O 0.7848(2) 0.35768(18) -0.00706(6)
O6 O 0.8999(2) 0.5806(2) -0.04263(7)
H16 H 0.9835 0.5195 -0.0465
O7 O 0.3024(2) 0.11015(19) 0.31045(6)
O8 O 0.67722(19) 0.10136(19) 0.05081(5)
loop_
_geom_bond_atom_site_label_1
_geom_bond_atom_site_label_2
_geom_bond_site_symmetry_1
_geom_bond_site_symmetry_2
C1 C2 1_555 1_555
C2 H1 1_555 1_555
C3 C4 1_555 1_555
C4 C5 1_555 1_555
C5 H2 1_555 1_555
C6 C5 1_555 1_555
H3 C6 1_555 1_555
C7 C6 1_555 1_555
C8 C7 1_555 1_555
H4 C8 1_555 1_555
C9 C4 1_555 1_555
H5 C9 1_555 1_555
C10 C7 1_555 1_555
C11 H6 1_555 1_555
C12 C11 1_555 1_555
C13 C11 1_555 1_555
H7 C13 1_555 1_555
H8 C13 1_555 1_555
H9 C13 1_555 1_555
C14 C2 1_555 1_555
H10 C14 1_555 1_555
H11 C14 1_555 1_555
H12 C14 1_555 1_555
N1 C10 1_555 1_555
H13 N1 1_555 1_555
N2 C2 1_555 1_555
H14 N2 1_555 1_555
O1 C1 1_555 1_555
H15 O1 1_555 1_555
O2 C1 1_555 1_555
O3 C3 1_555 1_555
O4 C10 1_555 1_555
O5 C12 1_555 1_555
O6 C12 1_555 1_555
H16 O6 1_555 1_555
C3 N2 1_555 1_555
C8 C9 1_555 1_555
C11 N1 1_555 1_555

#END
