
#######################################################################
#
#                 Cambridge Crystallographic Data Centre
#                                CCDC 
#
#######################################################################
#
# If this CIF has been generated from an entry in the Cambridge 
# Structural Database, then it will include bibliographic, chemical, 
# crystal, experimental, refinement or atomic coordinate data resulting 
# from the CCDC's data processing and validation procedures.
#
#######################################################################

data_KIMJIB
_chemical_formula_moiety         'C33 H27 N1'
_chemical_name_systematic        
1-Methyl-3-(5-(4-methylphenyl)-2,4-diphenylcyclopenta-1,4-dien-1-yl)-1H-indole
_symmetry_cell_setting           monoclinic
_symmetry_space_group_name_H-M   'P 21'
_symmetry_Int_Tables_number      4
_space_group_name_Hall           'P 2yb'
loop_
_symmetry_equiv_pos_site_id
_symmetry_equiv_pos_as_xyz
1 x,y,z
2 -x,1/2+y,-z
_cell_length_a                   10.845(5)
_cell_length_b                   9.451(5)
_cell_length_c                   12.818(6)
_cell_angle_alpha                90
_cell_angle_beta                 113.506(5)
_cell_angle_gamma                90
_cell_volume                     1204.77
_exptl_crystal_colour            yellow
_exptl_crystal_description       block
_cell_formula_units_Z            2
loop_
_atom_site_label
_atom_site_type_symbol
_atom_site_fract_x
_atom_site_fract_y
_atom_site_fract_z
C1 C 0.4271(4) 0.2649(5) 0.7075(4)
C2 C 0.4588(4) 0.2149(5) 0.6212(4)
C3 C 0.6001(4) 0.1602(5) 0.6709(4)
H1 H 0.6029 0.0612 0.6520
H2 H 0.6569 0.2138 0.6430
C4 C 0.6443(4) 0.1790(5) 0.7958(4)
C5 C 0.5448(4) 0.2427(5) 0.8171(4)
C6 C 0.3000(4) 0.3298(6) 0.6979(4)
C7 C 0.2823(5) 0.4622(6) 0.7299(4)
H3 H 0.3508 0.5277 0.7635
C8 C 0.0785(5) 0.3670(6) 0.6576(4)
C9 C -0.0583(5) 0.3438(8) 0.6178(4)
H4 H -0.1179 0.4132 0.6203
C10 C -0.1009(5) 0.2103(8) 0.5739(4)
H5 H -0.1923 0.1896 0.5454
C11 C -0.0124(6) 0.1061(7) 0.5707(4)
H6 H -0.0450 0.0168 0.5425
C12 C 0.1244(5) 0.1336(6) 0.6092(4)
H7 H 0.1836 0.0644 0.6057
C13 C 0.1706(5) 0.2664(6) 0.6529(4)
C14 C 0.3780(4) 0.2122(6) 0.4987(4)
C15 C 0.3932(5) 0.1039(6) 0.4326(4)
H8 H 0.4550 0.0326 0.4677
C16 C 0.3201(6) 0.0971(6) 0.3162(5)
H9 H 0.3329 0.0226 0.2742
C17 C 0.2297(5) 0.1999(8) 0.2643(5)
H10 H 0.1800 0.1962 0.1862
C18 C 0.2112(5) 0.3093(7) 0.3263(5)
H11 H 0.1489 0.3796 0.2898
C19 C 0.2841(4) 0.3167(5) 0.4428(4)
H12 H 0.2704 0.3917 0.4839
C20 C 0.7721(4) 0.1176(5) 0.8755(4)
C21 C 0.8877(4) 0.1302(5) 0.8560(4)
H13 H 0.8869 0.1859 0.7959
C22 C 1.0054(5) 0.0613(6) 0.9244(5)
H14 H 1.0831 0.0728 0.9112
C23 C 1.0066(6) -0.0239(7) 1.0118(5)
H15 H 1.0850 -0.0705 1.0577
C24 C 0.8915(5) -0.0397(6) 1.0306(4)
H16 H 0.8923 -0.0984 1.0891
C25 C 0.7750(5) 0.0296(6) 0.9646(4)
H17 H 0.6981 0.0181 0.9790
C26 C 0.5456(4) 0.2756(5) 0.9296(4)
C27 C 0.6510(4) 0.3484(5) 1.0093(4)
H18 H 0.7197 0.3814 0.9897
C28 C 0.6578(5) 0.3740(6) 1.1175(4)
H19 H 0.7298 0.4251 1.1687
C29 C 0.5592(5) 0.3247(5) 1.1508(4)
C30 C 0.4533(5) 0.2535(6) 1.0709(4)
H20 H 0.3842 0.2216 1.0904
C31 C 0.4456(4) 0.2276(5) 0.9625(4)
H21 H 0.3729 0.1775 0.9111
C32 C 0.5679(5) 0.3487(6) 1.2701(4)
H22 H 0.4921 0.3052 1.2781
H23 H 0.5676 0.4484 1.2841
H24 H 0.6494 0.3076 1.3238
C33 C 0.0919(5) 0.6213(6) 0.7205(4)
H25 H 0.0070 0.6360 0.6579
H26 H 0.1522 0.6967 0.7229
H27 H 0.0789 0.6197 0.7904
N1 N 0.1492(4) 0.4859(5) 0.7058(4)
loop_
_geom_bond_atom_site_label_1
_geom_bond_atom_site_label_2
_geom_bond_site_symmetry_1
_geom_bond_site_symmetry_2
C1 C2 1_555 1_555
C2 C3 1_555 1_555
C3 H1 1_555 1_555
H2 C3 1_555 1_555
C4 C3 1_555 1_555
C5 C1 1_555 1_555
C6 C1 1_555 1_555
C7 C6 1_555 1_555
H3 C7 1_555 1_555
C8 C9 1_555 1_555
C9 H4 1_555 1_555
C10 C9 1_555 1_555
H5 C10 1_555 1_555
C11 C10 1_555 1_555
H6 C11 1_555 1_555
C12 C11 1_555 1_555
H7 C12 1_555 1_555
C13 C6 1_555 1_555
C14 C2 1_555 1_555
C15 C14 1_555 1_555
H8 C15 1_555 1_555
C16 C15 1_555 1_555
H9 C16 1_555 1_555
C17 C16 1_555 1_555
H10 C17 1_555 1_555
C18 C17 1_555 1_555
H11 C18 1_555 1_555
C19 C14 1_555 1_555
H12 C19 1_555 1_555
C20 C4 1_555 1_555
C21 C20 1_555 1_555
H13 C21 1_555 1_555
C22 C21 1_555 1_555
H14 C22 1_555 1_555
C23 C22 1_555 1_555
H15 C23 1_555 1_555
C24 C23 1_555 1_555
H16 C24 1_555 1_555
C25 C20 1_555 1_555
H17 C25 1_555 1_555
C26 C5 1_555 1_555
C27 C26 1_555 1_555
H18 C27 1_555 1_555
C28 C27 1_555 1_555
H19 C28 1_555 1_555
C29 C28 1_555 1_555
C30 C29 1_555 1_555
H20 C30 1_555 1_555
C31 C26 1_555 1_555
H21 C31 1_555 1_555
C32 C29 1_555 1_555
H22 C32 1_555 1_555
H23 C32 1_555 1_555
H24 C32 1_555 1_555
C33 H25 1_555 1_555
H26 C33 1_555 1_555
H27 C33 1_555 1_555
N1 C7 1_555 1_555
C4 C5 1_555 1_555
C8 C13 1_555 1_555
C8 N1 1_555 1_555
C12 C13 1_555 1_555
C18 C19 1_555 1_555
C24 C25 1_555 1_555
C30 C31 1_555 1_555
C33 N1 1_555 1_555

#END
