
#######################################################################
#
#                 Cambridge Crystallographic Data Centre
#                                CCDC 
#
#######################################################################
#
# If this CIF has been generated from an entry in the Cambridge 
# Structural Database, then it will include bibliographic, chemical, 
# crystal, experimental, refinement or atomic coordinate data resulting 
# from the CCDC's data processing and validation procedures.
#
#######################################################################

data_KIMJUO
_chemical_formula_moiety         'C21 H22 N1 O6 P1 S1'
_chemical_name_systematic        
'diethyl (5,5,7-trioxo-9-phenyl-7,10-dihydro-5\l^6^-pyrido[1,2-b][1,2]benzothiazol-10a(5H)-yl)phosphonate'
_symmetry_cell_setting           orthorhombic
_symmetry_space_group_name_H-M   'P 21 21 21'
_symmetry_Int_Tables_number      19
_space_group_name_Hall           'P 2ac 2ab'
loop_
_symmetry_equiv_pos_site_id
_symmetry_equiv_pos_as_xyz
1 x,y,z
2 1/2-x,-y,1/2+z
3 1/2+x,1/2-y,-z
4 -x,1/2+y,1/2-z
_cell_length_a                   7.72606(18)
_cell_length_b                   21.6623(7)
_cell_length_c                   12.1301(3)
_cell_angle_alpha                90
_cell_angle_beta                 90
_cell_angle_gamma                90
_cell_volume                     2030.14
_cell_formula_units_Z            4
loop_
_atom_site_label
_atom_site_type_symbol
_atom_site_fract_x
_atom_site_fract_y
_atom_site_fract_z
P1 P -0.15734(6) -0.06725(2) -0.83691(4)
S1 S -0.47772(5) -0.10421(2) -0.60651(4)
O1 O 0.04355(18) -0.07617(7) -0.83149(12)
O2 O -0.23379(19) -0.13453(6) -0.84629(12)
O3 O -0.2234(2) -0.02358(7) -0.91926(11)
O4 O -0.64976(18) 0.00350(6) -0.70407(13)
C1 C -0.1413(3) 0.24083(9) -0.72917(16)
H1 H -0.2021 0.2775 -0.7194
C2 C -0.1415(2) -0.09691(8) -0.61416(15)
O5 O -0.57688(18) -0.08160(6) -0.51559(12)
N1 N -0.3922(2) -0.04494(7) -0.67920(14)
C3 C 0.1213(3) 0.18753(10) -0.77432(17)
H2 H 0.2373 0.1885 -0.7947
C4 C -0.2735(2) -0.13044(9) -0.56599(15)
C5 C 0.0397(3) 0.13113(9) -0.75932(16)
H3 H 0.1013 0.0947 -0.7698
C6 C -0.1240(2) 0.01636(8) -0.66345(17)
H4 H -0.1205 0.0210 -0.5839
H5 H -0.0059 0.0180 -0.6905
C7 C -0.2012(2) -0.04635(8) -0.69149(15)
C8 C -0.1352(3) 0.12866(9) -0.72852(15)
C9 C -0.2252(3) 0.06941(9) -0.71235(14)
C10 C 0.0292(2) -0.11080(9) -0.58773(16)
H6 H 0.1204 -0.0886 -0.6184
C11 C 0.1651(3) -0.11804(11) -1.0005(2)
H7 H 0.2460 -0.1100 -1.0588
H8 H 0.0525 -0.1253 -1.0313
H9 H 0.2016 -0.1538 -0.9600
C12 C -0.0746(3) -0.19241(9) -0.46686(16)
H10 H -0.0500 -0.2245 -0.4183
C13 C -0.2239(3) 0.18481(9) -0.71365(16)
H11 H -0.3398 0.1843 -0.6930
O6 O -0.56031(18) -0.14786(7) -0.67826(12)
C14 C 0.0598(3) -0.15877(9) -0.51429(16)
H12 H 0.1734 -0.1687 -0.4962
C15 C -0.2453(3) -0.17814(9) -0.49196(16)
H13 H -0.3369 -0.1997 -0.4604
C16 C 0.0323(3) 0.24247(9) -0.75931(17)
H14 H 0.0882 0.2801 -0.7693
C17 C -0.3949(3) 0.06231(9) -0.73414(16)
H15 H -0.4532 0.0945 -0.7686
C18 C 0.1578(3) -0.06363(10) -0.92489(18)
H16 H 0.2733 -0.0544 -0.8981
H17 H 0.1158 -0.0279 -0.9650
C19 C -0.4097(3) -0.21599(10) -0.9173(2)
H18 H -0.5015 -0.2257 -0.9678
H19 H -0.4423 -0.2284 -0.8442
H20 H -0.3065 -0.2375 -0.9388
C20 C -0.4926(3) 0.00649(9) -0.70641(16)
C21 C -0.3766(3) -0.14786(11) -0.9190(2)
H21 H -0.3490 -0.1346 -0.9934
H22 H -0.4791 -0.1258 -0.8949
loop_
_geom_bond_atom_site_label_1
_geom_bond_atom_site_label_2
_geom_bond_site_symmetry_1
_geom_bond_site_symmetry_2
P1 O1 1_555 1_555
S1 O5 1_555 1_555
O1 C18 1_555 1_555
O2 P1 1_555 1_555
O3 P1 1_555 1_555
O4 C20 1_555 1_555
C1 H1 1_555 1_555
C2 C4 1_555 1_555
N1 S1 1_555 1_555
C3 H2 1_555 1_555
C4 S1 1_555 1_555
C5 C3 1_555 1_555
H3 C5 1_555 1_555
C6 H4 1_555 1_555
H5 C6 1_555 1_555
C7 P1 1_555 1_555
C8 C5 1_555 1_555
C9 C6 1_555 1_555
C10 C2 1_555 1_555
H6 C10 1_555 1_555
C11 H7 1_555 1_555
H8 C11 1_555 1_555
H9 C11 1_555 1_555
C12 H10 1_555 1_555
C13 C1 1_555 1_555
H11 C13 1_555 1_555
O6 S1 1_555 1_555
C14 C10 1_555 1_555
H12 C14 1_555 1_555
C15 C4 1_555 1_555
H13 C15 1_555 1_555
C16 C1 1_555 1_555
H14 C16 1_555 1_555
C17 C9 1_555 1_555
H15 C17 1_555 1_555
C18 C11 1_555 1_555
H16 C18 1_555 1_555
H17 C18 1_555 1_555
C19 H18 1_555 1_555
H19 C19 1_555 1_555
H20 C19 1_555 1_555
C20 N1 1_555 1_555
C21 O2 1_555 1_555
H21 C21 1_555 1_555
H22 C21 1_555 1_555
C2 C7 1_555 1_555
N1 C7 1_555 1_555
C3 C16 1_555 1_555
C6 C7 1_555 1_555
C8 C9 1_555 1_555
C8 C13 1_555 1_555
C12 C14 1_555 1_555
C12 C15 1_555 1_555
C17 C20 1_555 1_555
C19 C21 1_555 1_555

#END
