
#######################################################################
#
#                 Cambridge Crystallographic Data Centre
#                                CCDC 
#
#######################################################################
#
# If this CIF has been generated from an entry in the Cambridge 
# Structural Database, then it will include bibliographic, chemical, 
# crystal, experimental, refinement or atomic coordinate data resulting 
# from the CCDC's data processing and validation procedures.
#
#######################################################################

data_KIMKAS
_chemical_formula_moiety         'C39 H34 O2 S4'
_chemical_name_systematic        
'3,11,19,27-Tetrathiaheptacyclo(15.15.7.1^5,9^.1^21,25^.1^34,38^.0^13,19^ 0^29.33^)dotetraconta-1(32),5,7,9(42),13,15,17(39),21,23,25(41),29(33),30,34,36,38 (40)-pentadecaene-40-carboxylic acid unknown solvate'
_symmetry_cell_setting           orthorhombic
_symmetry_space_group_name_H-M   'P b c n'
_symmetry_Int_Tables_number      60
_space_group_name_Hall           '-P 2n 2ab'
loop_
_symmetry_equiv_pos_site_id
_symmetry_equiv_pos_as_xyz
1 x,y,z
2 1/2-x,1/2-y,1/2+z
3 1/2+x,1/2-y,-z
4 -x,y,1/2-z
5 -x,-y,-z
6 1/2+x,1/2+y,1/2-z
7 1/2-x,1/2+y,z
8 x,-y,1/2+z
_cell_length_a                   19.896(8)
_cell_length_b                   11.520(4)
_cell_length_c                   15.212(8)
_cell_angle_alpha                90
_cell_angle_beta                 90
_cell_angle_gamma                90
_cell_volume                     3486.62
_exptl_crystal_colour            'slightly brown'
_chemical_melting_point          204-206deg.C
_cell_formula_units_Z            4
loop_
_atom_site_label
_atom_site_type_symbol
_atom_site_fract_x
_atom_site_fract_y
_atom_site_fract_z
S1 S -0.2253(1) 0.1555(1) 0.6491(1)
S2 S 0.0543(1) 0.1699(1) 0.4450(1)
C1 C -0.2635(1) 0.1144(2) 0.7525(2)
C2 C -0.1720(1) 0.2738(2) 0.6864(2)
C3 C -0.1297(1) 0.3147(2) 0.6108(1)
C4 C -0.1582(1) 0.3798(2) 0.5437(2)
C5 C -0.1209(1) 0.4150(2) 0.4721(2)
C6 C -0.0540(1) 0.3863(2) 0.4668(1)
C7 C -0.0233(1) 0.3217(2) 0.5329(1)
C8 C 0.0495(1) 0.2886(2) 0.5230(1)
C9 C 0.1420(1) 0.1275(2) 0.4568(2)
C10 C 0.1571(1) 0.0684(2) 0.5427(2)
C11 C 0.1999(1) 0.1170(2) 0.6044(2)
C12 C -0.2157(1) 0.0613(2) 0.8173(2)
C13 C -0.1863(1) -0.0466(2) 0.8008(2)
C14 C -0.1438(1) -0.0963(2) 0.8615(2)
C15 C 0.1296(1) -0.0407(2) 0.5605(2)
C16 C -0.0609(1) 0.2860(2) 0.6057(1)
C17 C -0.0290(1) 0.2212(2) 0.6793(1)
C18 C -0.0273(1) 0.1000(2) 0.6800(1)
C19 C 0.0000 0.0415(2) 0.7500
C20 C 0.0000 0.2803(2) 0.7500
C21 C 0.0000 0.4111(3) 0.7500
O1 O -0.0541(1) 0.4626(1) 0.7659(1)
H1 H -0.3015 0.0632 0.7421
H2 H -0.2846 0.1852 0.7796
H3 H -0.1436 0.2473 0.7333
H4 H -0.1996 0.3365 0.7069
H5 H -0.2049 0.4002 0.5472
H6 H -0.1415 0.4601 0.4264
H7 H -0.0284 0.4104 0.4165
H8 H 0.0745 0.3537 0.5011
H9 H 0.0677 0.2649 0.5786
H10 H 0.1694 0.1960 0.4527
H11 H 0.1533 0.0754 0.4098
H12 H 0.2189 0.1920 0.5929
H13 H -0.1961 -0.0867 0.7470
H14 H -0.1237 -0.1704 0.8494
H15 H 0.1007 -0.0770 0.5181
H16 H -0.0449 0.0576 0.6308
H17 H 0.0000 -0.0412 0.7500
C12C C 0.2157(1) 0.0613(2) 0.6827(2)
C11C C -0.1999(1) 0.1170(2) 0.8956(2)
C15C C -0.1296(1) -0.0407(2) 0.9395(2)
C14C C 0.1438(1) -0.0963(2) 0.6385(2)
C18C C 0.0273(1) 0.1000(2) 0.8200(1)
C17C C 0.0290(1) 0.2212(2) 0.8207(1)
O1C O 0.0541(1) 0.4626(1) 0.7341(1)
C1C C 0.2635(1) 0.1144(2) 0.7475(2)
C13C C 0.1863(1) -0.0466(2) 0.6992(2)
C10C C -0.1571(1) 0.0684(2) 0.9573(2)
H12C H -0.2189 0.1920 0.9071
H15C H -0.1007 -0.0770 0.9819
H14C H 0.1237 -0.1704 0.6506
H16C H 0.0449 0.0576 0.8692
C16C C 0.0609(1) 0.2860(2) 0.8943(1)
S1C S 0.2253(1) 0.1555(1) 0.8509(1)
H1C H 0.3015 0.0632 0.7579
H2C H 0.2846 0.1852 0.7204
H13C H 0.1961 -0.0867 0.7530
C9C C -0.1420(1) 0.1275(2) 1.0432(2)
C3C C 0.1297(1) 0.3147(2) 0.8892(1)
C7C C 0.0233(1) 0.3217(2) 0.9671(1)
C2C C 0.1720(1) 0.2738(2) 0.8136(2)
S2C S -0.0543(1) 0.1699(1) 1.0550(1)
H10C H -0.1694 0.1960 1.0473
H11C H -0.1533 0.0754 1.0902
C4C C 0.1582(1) 0.3798(2) 0.9563(2)
C6C C 0.0540(1) 0.3863(2) 1.0332(1)
C8C C -0.0495(1) 0.2886(2) 0.9770(1)
H3C H 0.1436 0.2473 0.7667
H4C H 0.1996 0.3365 0.7931
C5C C 0.1209(1) 0.4150(2) 1.0279(2)
H5C H 0.2049 0.4002 0.9528
H7C H 0.0284 0.4104 1.0835
H8C H -0.0745 0.3537 0.9989
H9C H -0.0677 0.2649 0.9214
H6C H 0.1415 0.4601 1.0736
C22? C 0.5432(2) 0.1978(2) 0.7464(3)
loop_
_geom_bond_atom_site_label_1
_geom_bond_atom_site_label_2
_geom_bond_site_symmetry_1
_geom_bond_site_symmetry_2
S1 C1 1_555 1_555
S2 C8 1_555 1_555
C1 C12 1_555 1_555
C2 S1 1_555 1_555
C3 C2 1_555 1_555
C4 C3 1_555 1_555
C5 C4 1_555 1_555
C6 C5 1_555 1_555
C7 C6 1_555 1_555
C8 C7 1_555 1_555
C9 S2 1_555 1_555
C10 C9 1_555 1_555
C11 C10 1_555 1_555
C12 C13 1_555 1_555
C13 C14 1_555 1_555
C14 H14 1_555 1_555
C15 C10 1_555 1_555
C16 C3 1_555 1_555
C17 C16 1_555 1_555
C18 C17 1_555 1_555
C19 C18 1_555 1_555
C20 C17 1_555 1_555
C21 C20 1_555 1_555
O1 C21 1_555 1_555
H1 C1 1_555 1_555
H2 C1 1_555 1_555
H3 C2 1_555 1_555
H4 C2 1_555 1_555
H5 C4 1_555 1_555
H6 C5 1_555 1_555
H7 C6 1_555 1_555
H8 C8 1_555 1_555
H9 C8 1_555 1_555
H10 C9 1_555 1_555
H11 C9 1_555 1_555
H12 C11 1_555 1_555
H13 C13 1_555 1_555
H15 C15 1_555 1_555
H16 C18 1_555 1_555
H17 C19 1_555 1_555
C12C C11 1_555 1_555
C11C C12 1_555 1_555
C15C C14 1_555 1_555
C14C C15 1_555 1_555
C18C C19 1_555 1_555
C17C C20 1_555 1_555
O1C C21 1_555 1_555
C1C C12C 1_555 1_555
C13C C12C 1_555 1_555
C10C C11C 1_555 1_555
H12C C11C 1_555 1_555
H15C C15C 1_555 1_555
H14C C14C 1_555 1_555
H16C C18C 1_555 1_555
C16C C17C 1_555 1_555
S1C C1C 1_555 1_555
H1C C1C 1_555 1_555
H2C C1C 1_555 1_555
H13C C13C 1_555 1_555
C9C C10C 1_555 1_555
C3C C16C 1_555 1_555
C7C C16C 1_555 1_555
C2C S1C 1_555 1_555
S2C C9C 1_555 1_555
H10C C9C 1_555 1_555
H11C C9C 1_555 1_555
C4C C3C 1_555 1_555
C6C C7C 1_555 1_555
C8C C7C 1_555 1_555
H3C C2C 1_555 1_555
H4C C2C 1_555 1_555
C5C C4C 1_555 1_555
H5C C4C 1_555 1_555
H7C C6C 1_555 1_555
H8C C8C 1_555 1_555
H9C C8C 1_555 1_555
H6C C5C 1_555 1_555
C7 C16 1_555 1_555
C15C C10C 1_555 1_555
C14C C13C 1_555 1_555
C18C C17C 1_555 1_555
C3C C2C 1_555 1_555
S2C C8C 1_555 1_555
C6C C5C 1_555 1_555

#END
