
#######################################################################
#
#                 Cambridge Crystallographic Data Centre
#                                CCDC 
#
#######################################################################
#
# If this CIF has been generated from an entry in the Cambridge 
# Structural Database, then it will include bibliographic, chemical, 
# crystal, experimental, refinement or atomic coordinate data resulting 
# from the CCDC's data processing and validation procedures.
#
#######################################################################

data_KIMLIE
_chemical_formula_moiety         'C55 H34 N6,2(C1 H2 Cl2)'
_chemical_name_systematic        
"2^4^,3^4^-(9,9'-spirobi[fluorene]-2,7-diyl)bis(1^2^,2^2^:2^6^,3^2^-terpyridine) dichloromethane solvate"
_symmetry_cell_setting           monoclinic
_symmetry_space_group_name_H-M   'C 2/c'
_symmetry_Int_Tables_number      15
_space_group_name_Hall           '-C 2yn'
loop_
_symmetry_equiv_pos_site_id
_symmetry_equiv_pos_as_xyz
1 x,y,z
2 -x,y,1/2-z
3 1/2+x,1/2+y,z
4 1/2-x,1/2+y,1/2-z
5 -x,-y,-z
6 x,-y,1/2+z
7 1/2-x,1/2-y,-z
8 1/2+x,1/2-y,1/2+z
_cell_length_a                   19.5621(10)
_cell_length_b                   24.2721(18)
_cell_length_c                   12.7702(7)
_cell_angle_alpha                90
_cell_angle_beta                 129.729(5)
_cell_angle_gamma                90
_cell_volume                     4663.26
_exptl_crystal_colour            colorless
_exptl_crystal_description       sheet-like
_cell_formula_units_Z            4
loop_
_atom_site_label
_atom_site_type_symbol
_atom_site_fract_x
_atom_site_fract_y
_atom_site_fract_z
N1 N 0.6061(3) 0.27071(19) 0.7502(5)
N2 N 0.7086(3) 0.1467(2) 0.9479(5)
N3 N 0.5624(3) 0.3889(2) 0.5444(6)
C1 C 1.0000 0.3231(3) 0.7500
C2 C 1.0459(3) 0.3630(2) 0.8704(6)
C3 C 1.0280(4) 0.4174(2) 0.8243(6)
C4 C 1.0615(5) 0.4594(3) 0.9159(7)
H1 H 1.0495 0.4958 0.8861
C5 C 1.1137(5) 0.4477(3) 1.0542(8)
H2 H 1.1359 0.4764 1.1164
C6 C 1.1326(4) 0.3944(3) 1.0996(7)
H3 H 1.1681 0.3871 1.1923
C7 C 1.0986(4) 0.3512(2) 1.0069(6)
H4 H 1.1115 0.3149 1.0370
C8 C 0.9364(3) 0.2832(2) 0.7423(5)
C9 C 0.9605(3) 0.2290(2) 0.7450(6)
C10 C 0.9129(4) 0.1854(2) 0.7393(6)
H5 H 0.9280 0.1492 0.7379
C11 C 0.8425(4) 0.1967(2) 0.7359(6)
H6 H 0.8106 0.1677 0.7336
C12 C 0.8179(3) 0.2506(2) 0.7357(6)
C13 C 0.8646(3) 0.2942(2) 0.7367(5)
H7 H 0.8478 0.3304 0.7337
C14 C 0.7453(3) 0.2594(2) 0.7419(6)
C15 C 0.6833(3) 0.3013(2) 0.6711(6)
H8 H 0.6869 0.3261 0.6191
C16 C 0.6152(3) 0.3060(2) 0.6787(6)
C17 C 0.6661(3) 0.2302(2) 0.8193(5)
C18 C 0.7371(3) 0.2242(2) 0.8188(5)
H9 H 0.7789 0.1965 0.8701
C19 C 0.6541(3) 0.1901(2) 0.8939(6)
C20 C 0.5887(4) 0.1972(2) 0.9056(6)
H10 H 0.5530 0.2285 0.8706
C21 C 0.5778(4) 0.1573(3) 0.9697(6)
H11 H 0.5330 0.1606 0.9755
C22 C 0.6324(4) 0.1130(3) 1.0246(7)
H12 H 0.6265 0.0857 1.0694
C23 C 0.6972(5) 0.1097(3) 1.0120(8)
H13 H 0.7353 0.0796 1.0508
C24 C 0.5472(4) 0.3502(2) 0.6018(6)
C25 C 0.4720(4) 0.3508(3) 0.5913(6)
H14 H 0.4634 0.3235 0.6330
C26 C 0.4106(4) 0.3920(3) 0.5185(7)
H15 H 0.3599 0.3931 0.5104
C27 C 0.4252(4) 0.4313(3) 0.4583(7)
H16 H 0.3844 0.4595 0.4079
C28 C 0.5018(4) 0.4282(3) 0.4737(8)
H17 H 0.5113 0.4551 0.4324
N1A N 1.3939(3) 0.27071(19) 0.7498(5)
N2A N 1.2914(3) 0.1467(2) 0.5521(5)
N3A N 1.4376(3) 0.3889(2) 0.9556(6)
C2A C 0.9541(3) 0.3630(2) 0.6296(6)
C3A C 0.9720(4) 0.4174(2) 0.6757(6)
C4A C 0.9385(5) 0.4594(3) 0.5841(7)
H1A H 0.9505 0.4958 0.6139
C5A C 0.8863(5) 0.4477(3) 0.4458(8)
H2A H 0.8641 0.4764 0.3836
C6A C 0.8674(4) 0.3944(3) 0.4004(7)
H3A H 0.8319 0.3871 0.3077
C7A C 0.9014(4) 0.3512(2) 0.4931(6)
H4A H 0.8885 0.3149 0.4630
C8A C 1.0636(3) 0.2832(2) 0.7577(5)
C9A C 1.0395(3) 0.2290(2) 0.7550(6)
C10A C 1.0871(4) 0.1854(2) 0.7607(6)
H5A H 1.0720 0.1492 0.7621
C11A C 1.1575(4) 0.1967(2) 0.7641(6)
H6A H 1.1894 0.1677 0.7664
C12A C 1.1821(3) 0.2506(2) 0.7643(6)
C13A C 1.1354(3) 0.2942(2) 0.7633(5)
H7A H 1.1522 0.3304 0.7663
C14A C 1.2547(3) 0.2594(2) 0.7581(6)
C15A C 1.3167(3) 0.3013(2) 0.8289(6)
H8A H 1.3131 0.3261 0.8809
C16A C 1.3848(3) 0.3060(2) 0.8213(6)
C17A C 1.3339(3) 0.2302(2) 0.6807(5)
C18A C 1.2629(3) 0.2242(2) 0.6812(5)
H9A H 1.2211 0.1965 0.6299
C19A C 1.3459(3) 0.1901(2) 0.6061(6)
C20A C 1.4113(4) 0.1972(2) 0.5944(6)
H10A H 1.4470 0.2285 0.6294
C21A C 1.4222(4) 0.1573(3) 0.5303(6)
H11A H 1.4670 0.1606 0.5245
C22A C 1.3676(4) 0.1130(3) 0.4754(7)
H12A H 1.3735 0.0857 0.4306
C23A C 1.3028(5) 0.1097(3) 0.4880(8)
H13A H 1.2647 0.0796 0.4492
C24A C 1.4528(4) 0.3502(2) 0.8982(6)
C25A C 1.5280(4) 0.3508(3) 0.9087(6)
H14A H 1.5366 0.3235 0.8670
C26A C 1.5894(4) 0.3920(3) 0.9815(7)
H15A H 1.6401 0.3931 0.9896
C27A C 1.5748(4) 0.4313(3) 1.0417(7)
H16A H 1.6156 0.4595 1.0921
C28A C 1.4982(4) 0.4282(3) 1.0263(8)
H17A H 1.4887 0.4551 1.0676
Cl1 Cl 0.8557(3) 0.02326(17) 0.6376(4)
Cl2 Cl 0.7293(3) 0.03456(19) 0.3531(3)
C29 C 0.7868(7) 0.0655(4) 0.4997(9)
H18 H 0.7460 0.0834 0.5078
H19 H 0.8224 0.0940 0.5019
loop_
_geom_bond_atom_site_label_1
_geom_bond_atom_site_label_2
_geom_bond_site_symmetry_1
_geom_bond_site_symmetry_2
N1 C16 1_555 1_555
N2 C19 1_555 1_555
N3 C24 1_555 1_555
C1 C2 1_555 1_555
C2 C3 1_555 1_555
C3 C4 1_555 1_555
C4 H1 1_555 1_555
C5 C4 1_555 1_555
H2 C5 1_555 1_555
C6 C5 1_555 1_555
H3 C6 1_555 1_555
C7 C2 1_555 1_555
H4 C7 1_555 1_555
C8 C1 1_555 1_555
C9 C8 1_555 1_555
C10 C9 1_555 1_555
H5 C10 1_555 1_555
C11 C10 1_555 1_555
H6 C11 1_555 1_555
C12 C11 1_555 1_555
C13 C8 1_555 1_555
H7 C13 1_555 1_555
C14 C12 1_555 1_555
C15 C14 1_555 1_555
H8 C15 1_555 1_555
C16 C15 1_555 1_555
C17 N1 1_555 1_555
C18 C14 1_555 1_555
H9 C18 1_555 1_555
C19 C17 1_555 1_555
C20 C19 1_555 1_555
H10 C20 1_555 1_555
C21 C20 1_555 1_555
H11 C21 1_555 1_555
C22 C21 1_555 1_555
H12 C22 1_555 1_555
C23 N2 1_555 1_555
H13 C23 1_555 1_555
C24 C16 1_555 1_555
C25 C24 1_555 1_555
H14 C25 1_555 1_555
C26 C25 1_555 1_555
H15 C26 1_555 1_555
C27 C26 1_555 1_555
H16 C27 1_555 1_555
C28 N3 1_555 1_555
H17 C28 1_555 1_555
Cl1 C29 1_555 1_555
Cl2 C29 1_555 1_555
C29 H18 1_555 1_555
H19 C29 1_555 1_555
N1A C16A 1_555 1_555
N2A C19A 1_555 1_555
N3A C24A 1_555 1_555
C2A C1 1_555 1_555
C3A C3 1_555 1_555
C4A C3A 1_555 1_555
H1A C4A 1_555 1_555
C5A C4A 1_555 1_555
H2A C5A 1_555 1_555
C6A C5A 1_555 1_555
H3A C6A 1_555 1_555
C7A C2A 1_555 1_555
H4A C7A 1_555 1_555
C8A C1 1_555 1_555
C9A C9 1_555 1_555
C10A C9A 1_555 1_555
H5A C10A 1_555 1_555
C11A C10A 1_555 1_555
H6A C11A 1_555 1_555
C12A C11A 1_555 1_555
C13A C8A 1_555 1_555
H7A C13A 1_555 1_555
C14A C12A 1_555 1_555
C15A C14A 1_555 1_555
H8A C15A 1_555 1_555
C16A C15A 1_555 1_555
C17A N1A 1_555 1_555
C18A C14A 1_555 1_555
H9A C18A 1_555 1_555
C19A C17A 1_555 1_555
C20A C19A 1_555 1_555
H10A C20A 1_555 1_555
C21A C20A 1_555 1_555
H11A C21A 1_555 1_555
C22A C21A 1_555 1_555
H12A C22A 1_555 1_555
C23A N2A 1_555 1_555
H13A C23A 1_555 1_555
C24A C16A 1_555 1_555
C25A C24A 1_555 1_555
H14A C25A 1_555 1_555
C26A C25A 1_555 1_555
H15A C26A 1_555 1_555
C27A C26A 1_555 1_555
H16A C27A 1_555 1_555
C28A N3A 1_555 1_555
H17A C28A 1_555 1_555
C6 C7 1_555 1_555
C12 C13 1_555 1_555
C17 C18 1_555 1_555
C22 C23 1_555 1_555
C27 C28 1_555 1_555
C2A C3A 1_555 1_555
C6A C7A 1_555 1_555
C8A C9A 1_555 1_555
C12A C13A 1_555 1_555
C17A C18A 1_555 1_555
C22A C23A 1_555 1_555
C27A C28A 1_555 1_555

#END
