
#######################################################################
#
#                 Cambridge Crystallographic Data Centre
#                                CCDC 
#
#######################################################################
#
# If this CIF has been generated from an entry in the Cambridge 
# Structural Database, then it will include bibliographic, chemical, 
# crystal, experimental, refinement or atomic coordinate data resulting 
# from the CCDC's data processing and validation procedures.
#
#######################################################################

data_KIMLAV
_chemical_formula_moiety         'C41 H24 F3 N3,C1 H1 Cl3'
_chemical_name_systematic        
'(2-(Dibenzo[ghi,mno]fluoranthen-1-yl)-1-(4-(dimethylamino)phenyl)-3-(4-(trifluoromethyl)phenyl)prop-2-en-1-ylidene)malononitrile corannulene chloroform solvate'
_symmetry_cell_setting           triclinic
_symmetry_space_group_name_H-M   'P -1'
_symmetry_Int_Tables_number      2
_space_group_name_Hall           '-P 1'
loop_
_symmetry_equiv_pos_site_id
_symmetry_equiv_pos_as_xyz
1 x,y,z
2 -x,-y,-z
_cell_length_a                   11.8172(15)
_cell_length_b                   14.954(2)
_cell_length_c                   20.549(3)
_cell_angle_alpha                70.961(5)
_cell_angle_beta                 84.168(5)
_cell_angle_gamma                88.955(5)
_cell_volume                     3414.46
_exptl_crystal_colour            orange
_cell_formula_units_Z            4
loop_
_atom_site_label
_atom_site_type_symbol
_atom_site_fract_x
_atom_site_fract_y
_atom_site_fract_z
Cl1 Cl 0.92107(17) 0.80851(11) 0.36217(9)
Cl2 Cl 1.10804(13) 0.92118(11) 0.27612(9)
Cl3 Cl 0.88004(13) 0.99055(11) 0.26371(8)
C1 C 0.9647(5) 0.8899(4) 0.2807(3)
H1 H 0.951(4) 0.860(3) 0.246(3)
Cl4 Cl 0.56320(13) -0.00219(10) 0.07695(7)
Cl5 Cl 0.62761(11) -0.09273(9) 0.21375(8)
Cl6 Cl 0.44465(13) 0.03881(11) 0.19326(8)
C2 C 0.5761(4) 0.0104(4) 0.1575(3)
H2 H 0.628(4) 0.063(3) 0.154(2)
F1 F -0.6647(3) 0.6235(2) 0.39082(14)
F2 F -0.8158(2) 0.6888(2) 0.35155(14)
F3 F -0.6711(3) 0.7739(2) 0.34551(16)
N1 N -0.5102(3) 0.5997(3) -0.1750(2)
N2 N -0.6730(4) 0.7808(3) -0.0735(2)
N3 N -0.0522(3) 0.4048(2) -0.02309(19)
C3 C -0.5075(4) 0.6282(3) -0.1303(3)
C4 C -0.5080(4) 0.6635(3) -0.0732(2)
C5 C -0.4338(3) 0.6389(3) -0.0235(2)
C6 C -0.4549(3) 0.6719(3) 0.0371(2)
C7 C -0.3607(4) 0.7341(3) 0.0427(2)
C8 C -0.3127(4) 0.8025(3) -0.0206(3)
H3 H -0.341(4) 0.809(3) -0.063(3)
C9 C -0.2148(4) 0.8573(3) -0.0232(3)
C10 C -0.1824(4) 0.8508(3) 0.0406(2)
C11 C -0.2274(4) 0.7859(3) 0.1032(2)
C12 C -0.3126(4) 0.7192(3) 0.1056(2)
C13 C -0.3184(4) 0.6395(3) 0.1655(2)
H4 H -0.378(2) 0.5851(19) 0.1728(18)
C14 C -0.2363(4) 0.6236(4) 0.2143(3)
H5 H -0.247(4) 0.572(3) 0.253(3)
C15 C -0.1453(4) 0.6847(3) 0.2065(2)
C16 C -0.0391(4) 0.6708(3) 0.2331(3)
H6 H -0.032(4) 0.620(3) 0.272(2)
C17 C 0.0575(4) 0.7244(3) 0.2017(3)
H7 H 0.147(4) 0.704(3) 0.215(3)
C18 C 0.0566(4) 0.7993(3) 0.1375(3)
C19 C -0.0526(4) 0.8229(3) 0.1183(2)
C20 C -0.1490(4) 0.7703(3) 0.1501(2)
C21 C 0.1489(4) 0.8373(3) 0.0846(3)
H8 H 0.235(2) 0.822(3) 0.096(2)
C22 C 0.1261(4) 0.8858(3) 0.0172(3)
H9 H 0.195(4) 0.900(3) -0.022(3)
C23 C 0.0146(4) 0.8989(3) -0.0037(3)
C24 C -0.0687(4) 0.8731(3) 0.0491(2)
C25 C -0.0207(5) 0.9219(3) -0.0736(3)
H10 H 0.037(4) 0.945(3) -0.117(3)
C26 C -0.1314(5) 0.9019(3) -0.0797(3)
H11 H -0.171(4) 0.904(3) -0.116(3)
C27 C -0.5996(4) 0.7287(3) -0.0710(2)
C28 C -0.3350(3) 0.5796(3) -0.0258(2)
C29 C -0.2948(4) 0.5235(3) 0.0370(2)
H12 H -0.341(3) 0.524(2) 0.0838(13)
C30 C -0.2046(4) 0.4650(3) 0.0376(2)
H13 H -0.188(3) 0.425(3) 0.079(2)
C31 C -0.1450(3) 0.4598(3) -0.0234(2)
C32 C -0.1841(4) 0.5174(3) -0.0869(2)
H14 H -0.145(3) 0.513(3) -0.1334(13)
C33 C -0.2756(4) 0.5731(3) -0.0872(2)
H15 H -0.297(3) 0.617(3) -0.130(2)
C34 C -0.0214(5) 0.3379(4) 0.0416(3)
H16 H -0.092(3) 0.287(3) 0.066(2)
H17 H -0.006(3) 0.371(3) 0.073(2)
H18 H 0.047(4) 0.306(3) 0.033(2)
C35 C 0.0066(5) 0.3996(4) -0.0863(3)
H19 H 0.082(3) 0.356(3) -0.078(3)
H20 H -0.036(3) 0.370(3) -0.109(2)
H21 H 0.033(4) 0.462(4) -0.119(2)
C36 C -0.5484(4) 0.6411(3) 0.0803(2)
H22 H -0.598(3) 0.594(2) 0.0681(17)
C37 C -0.5884(3) 0.6599(3) 0.1444(2)
C38 C -0.6447(4) 0.5867(3) 0.1987(2)
H23 H -0.656(3) 0.532(3) 0.190(2)
C39 C -0.6796(4) 0.5984(3) 0.2606(2)
H24 H -0.716(3) 0.543(3) 0.302(2)
C40 C -0.6625(3) 0.6839(3) 0.2706(2)
C41 C -0.6113(4) 0.7578(3) 0.2171(2)
H25 H -0.602(3) 0.8235(18) 0.223(2)
C42 C -0.5744(4) 0.7456(3) 0.1554(3)
H26 H -0.543(3) 0.793(3) 0.116(2)
C43 C -0.7026(4) 0.6945(4) 0.3386(3)
F4 F 0.5862(2) 0.62233(17) 0.44008(14)
F5 F 0.5816(2) 0.66483(16) 0.32975(13)
F6 F 0.7365(2) 0.61816(16) 0.37478(13)
N4 N 0.5677(3) -0.1460(3) 0.4011(2)
N5 N 0.6938(4) 0.1337(3) 0.2797(3)
N6 N 0.0488(3) -0.1076(3) 0.5531(2)
C44 C 0.5524(4) -0.0662(3) 0.3869(2)
C45 C 0.5389(4) 0.0339(3) 0.3715(2)
C46 C 0.4514(3) 0.0735(3) 0.4000(2)
C47 C 0.4550(3) 0.1773(3) 0.3878(2)
C48 C 0.3611(3) 0.2311(3) 0.3510(2)
C49 C 0.3266(4) 0.2039(3) 0.2969(2)
H27 H 0.371(3) 0.161(3) 0.284(2)
C50 C 0.2319(4) 0.2454(3) 0.2598(2)
C51 C 0.1893(4) 0.3229(3) 0.2737(2)
C52 C 0.2215(4) 0.3510(3) 0.3285(3)
C53 C 0.2998(3) 0.3021(3) 0.3731(2)
C54 C 0.2910(4) 0.3179(3) 0.4380(3)
H28 H 0.354(2) 0.291(2) 0.4709(16)
C55 C 0.2014(5) 0.3691(4) 0.4568(4)
H29 H 0.196(4) 0.370(3) 0.498(2)
C56 C 0.1128(4) 0.4069(3) 0.4143(4)
C57 C 0.1313(4) 0.4014(3) 0.3482(3)
C58 C -0.0005(5) 0.4308(4) 0.4323(5)
H30 H -0.014(4) 0.439(3) 0.475(2)
C59 C -0.0887(5) 0.4321(4) 0.3911(5)
H31 H -0.170(5) 0.444(4) 0.410(3)
C60 C -0.0690(5) 0.4105(4) 0.3293(4)
C61 C 0.0443(4) 0.4027(3) 0.3066(3)
C62 C 0.0777(4) 0.3537(4) 0.2613(3)
C63 C -0.1479(5) 0.3749(5) 0.2934(5)
H32 H -0.230(3) 0.388(4) 0.315(3)
C64 C -0.1120(6) 0.3266(5) 0.2495(5)
H33 H -0.153(5) 0.294(4) 0.228(3)
C65 C 0.0053(5) 0.3081(4) 0.2347(3)
C66 C 0.0544(6) 0.2365(5) 0.2103(3)
H34 H 0.022(4) 0.203(3) 0.192(2)
C67 C 0.1632(5) 0.2064(4) 0.2220(2)
H35 H 0.186(4) 0.149(4) 0.208(3)
C68 C 0.6256(4) 0.0911(3) 0.3215(3)
C69 C 0.3517(3) 0.0219(3) 0.4408(2)
C70 C 0.2935(3) 0.0538(3) 0.4912(2)
H36 H 0.325(3) 0.110(2) 0.503(2)
C71 C 0.1976(4) 0.0093(3) 0.5305(2)
H37 H 0.154(3) 0.038(3) 0.5649(17)
C72 C 0.1491(4) -0.0682(3) 0.5185(2)
C73 C 0.2073(4) -0.1001(3) 0.4672(2)
H38 H 0.179(3) -0.153(3) 0.457(2)
C74 C 0.3049(4) -0.0570(3) 0.4296(2)
H39 H 0.344(3) -0.085(3) 0.3926(17)
C75 C -0.0024(5) -0.0815(4) 0.6107(3)
H40 H 0.040(3) -0.100(3) 0.648(2)
H41 H -0.009(3) -0.008(3) 0.596(2)
H42 H -0.076(4) -0.111(3) 0.625(2)
C76 C 0.0020(5) -0.1905(4) 0.5430(3)
H43 H -0.081(2) -0.197(3) 0.571(2)
H44 H -0.010(4) -0.178(3) 0.491(3)
H45 H 0.042(4) -0.241(4) 0.556(3)
C77 C 0.5392(4) 0.2137(3) 0.4108(2)
H46 H 0.584(4) 0.177(3) 0.435(2)
C78 C 0.5601(3) 0.3131(3) 0.4026(2)
C79 C 0.5987(4) 0.3371(3) 0.4561(2)
H47 H 0.612(3) 0.289(3) 0.495(2)
C80 C 0.6159(3) 0.4308(3) 0.4506(2)
H48 H 0.642(3) 0.447(2) 0.4928(14)
C81 C 0.5974(3) 0.5017(3) 0.3898(2)
C82 C 0.5603(3) 0.4792(3) 0.3354(2)
H49 H 0.547(3) 0.527(3) 0.293(2)
C83 C 0.5425(3) 0.3856(3) 0.3412(2)
H50 H 0.516(3) 0.365(2) 0.3014(14)
C84 C 0.6239(4) 0.6012(3) 0.3835(2)
loop_
_geom_bond_atom_site_label_1
_geom_bond_atom_site_label_2
_geom_bond_site_symmetry_1
_geom_bond_site_symmetry_2
Cl1 C1 1_555 1_555
Cl2 C1 1_555 1_555
Cl3 C1 1_555 1_555
C1 H1 1_555 1_555
Cl4 C2 1_555 1_555
Cl5 C2 1_555 1_555
Cl6 C2 1_555 1_555
C2 H2 1_555 1_555
F1 C43 1_555 1_555
F2 C43 1_555 1_555
F3 C43 1_555 1_555
N1 C3 1_555 1_555
N2 C27 1_555 1_555
N3 C31 1_555 1_555
C3 C4 1_555 1_555
C4 C5 1_555 1_555
C5 C6 1_555 1_555
C6 C7 1_555 1_555
C7 C8 1_555 1_555
C8 H3 1_555 1_555
C9 C8 1_555 1_555
C10 C9 1_555 1_555
C11 C10 1_555 1_555
C12 C7 1_555 1_555
C13 C12 1_555 1_555
H4 C13 1_555 1_555
C14 C13 1_555 1_555
H5 C14 1_555 1_555
C15 C14 1_555 1_555
C16 C15 1_555 1_555
H6 C16 1_555 1_555
C17 C16 1_555 1_555
H7 C17 1_555 1_555
C18 C17 1_555 1_555
C19 C18 1_555 1_555
C20 C11 1_555 1_555
C21 C18 1_555 1_555
H8 C21 1_555 1_555
C22 C21 1_555 1_555
H9 C22 1_555 1_555
C23 C22 1_555 1_555
C24 C10 1_555 1_555
C25 C23 1_555 1_555
H10 C25 1_555 1_555
C26 C9 1_555 1_555
H11 C26 1_555 1_555
C27 C4 1_555 1_555
C28 C5 1_555 1_555
C29 C28 1_555 1_555
H12 C29 1_555 1_555
C30 C29 1_555 1_555
H13 C30 1_555 1_555
C31 C30 1_555 1_555
C32 C31 1_555 1_555
H14 C32 1_555 1_555
C33 C28 1_555 1_555
H15 C33 1_555 1_555
C34 N3 1_555 1_555
H16 C34 1_555 1_555
H17 C34 1_555 1_555
H18 C34 1_555 1_555
C35 N3 1_555 1_555
H19 C35 1_555 1_555
H20 C35 1_555 1_555
H21 C35 1_555 1_555
C36 C6 1_555 1_555
H22 C36 1_555 1_555
C37 C36 1_555 1_555
C38 C37 1_555 1_555
H23 C38 1_555 1_555
C39 C38 1_555 1_555
H24 C39 1_555 1_555
C40 C39 1_555 1_555
C41 C40 1_555 1_555
H25 C41 1_555 1_555
C42 C37 1_555 1_555
H26 C42 1_555 1_555
C43 C40 1_555 1_555
F4 C84 1_555 1_555
F5 C84 1_555 1_555
F6 C84 1_555 1_555
N4 C44 1_555 1_555
N5 C68 1_555 1_555
N6 C72 1_555 1_555
C44 C45 1_555 1_555
C45 C46 1_555 1_555
C46 C47 1_555 1_555
C47 C48 1_555 1_555
C48 C49 1_555 1_555
C49 H27 1_555 1_555
C50 C49 1_555 1_555
C51 C50 1_555 1_555
C52 C51 1_555 1_555
C53 C48 1_555 1_555
C54 C53 1_555 1_555
H28 C54 1_555 1_555
C55 C54 1_555 1_555
H29 C55 1_555 1_555
C56 C55 1_555 1_555
C57 C52 1_555 1_555
C58 C56 1_555 1_555
H30 C58 1_555 1_555
C59 C58 1_555 1_555
H31 C59 1_555 1_555
C60 C59 1_555 1_555
C61 C57 1_555 1_555
C62 C51 1_555 1_555
C63 C60 1_555 1_555
H32 C63 1_555 1_555
C64 C63 1_555 1_555
H33 C64 1_555 1_555
C65 C62 1_555 1_555
C66 C65 1_555 1_555
H34 C66 1_555 1_555
C67 C50 1_555 1_555
H35 C67 1_555 1_555
C68 C45 1_555 1_555
C69 C46 1_555 1_555
C70 C69 1_555 1_555
H36 C70 1_555 1_555
C71 C70 1_555 1_555
H37 C71 1_555 1_555
C72 C71 1_555 1_555
C73 C72 1_555 1_555
H38 C73 1_555 1_555
C74 C69 1_555 1_555
H39 C74 1_555 1_555
C75 N6 1_555 1_555
H40 C75 1_555 1_555
H41 C75 1_555 1_555
H42 C75 1_555 1_555
C76 N6 1_555 1_555
H43 C76 1_555 1_555
H44 C76 1_555 1_555
H45 C76 1_555 1_555
C77 C47 1_555 1_555
H46 C77 1_555 1_555
C78 C77 1_555 1_555
C79 C78 1_555 1_555
H47 C79 1_555 1_555
C80 C79 1_555 1_555
H48 C80 1_555 1_555
C81 C80 1_555 1_555
C82 C81 1_555 1_555
H49 C82 1_555 1_555
C83 C78 1_555 1_555
H50 C83 1_555 1_555
C84 C81 1_555 1_555
C11 C12 1_555 1_555
C15 C20 1_555 1_555
C19 C20 1_555 1_555
C19 C24 1_555 1_555
C23 C24 1_555 1_555
C25 C26 1_555 1_555
C32 C33 1_555 1_555
C41 C42 1_555 1_555
C52 C53 1_555 1_555
C56 C57 1_555 1_555
C60 C61 1_555 1_555
C61 C62 1_555 1_555
C64 C65 1_555 1_555
C66 C67 1_555 1_555
C73 C74 1_555 1_555
C82 C83 1_555 1_555

#END
