
#######################################################################
#
#                 Cambridge Crystallographic Data Centre
#                                CCDC 
#
#######################################################################
#
# If this CIF has been generated from an entry in the Cambridge 
# Structural Database, then it will include bibliographic, chemical, 
# crystal, experimental, refinement or atomic coordinate data resulting 
# from the CCDC's data processing and validation procedures.
#
#######################################################################

data_KIMPAA
_chemical_formula_moiety         'C14 H18 O4'
_chemical_name_systematic        
'ethyl 1-(3-methylbut-2-en-1-yl)-7-oxo-6-oxatricyclo[3.2.0.0^2,4^]heptane-3-carboxylate'
_symmetry_cell_setting           monoclinic
_symmetry_space_group_name_H-M   'I 2/a'
_symmetry_Int_Tables_number      15
_space_group_name_Hall           '-I 2ya'
loop_
_symmetry_equiv_pos_site_id
_symmetry_equiv_pos_as_xyz
1 x,y,z
2 1/2-x,y,-z
3 1/2+x,1/2+y,1/2+z
4 -x,1/2+y,1/2-z
5 -x,-y,-z
6 1/2+x,-y,z
7 1/2-x,1/2-y,1/2-z
8 x,1/2-y,1/2+z
_cell_length_a                   11.867(2)
_cell_length_b                   5.3190(10)
_cell_length_c                   43.735(8)
_cell_angle_alpha                90
_cell_angle_beta                 93.82(2)
_cell_angle_gamma                90
_cell_volume                     2754.45
_exptl_crystal_colour            colorless
_exptl_crystal_description       platelets
_cell_formula_units_Z            8
loop_
_atom_site_label
_atom_site_type_symbol
_atom_site_fract_x
_atom_site_fract_y
_atom_site_fract_z
O1 O 0.29591(14) 0.4652(3) 0.11941(5)
O2 O 0.43550(14) 0.7264(4) 0.13863(5)
O3 O 0.09664(16) 1.0684(5) 0.04035(4)
O4 O -0.07150(14) 1.0899(4) 0.06046(4)
C1 C 0.07598(19) 0.9097(5) 0.09041(6)
H1 H 0.0242 0.9062 0.1070
C2 C 0.20067(18) 0.9362(4) 0.09882(5)
H2 H 0.2521 1.0433 0.0880
C3 C 0.15341(19) 0.6873(5) 0.08691(6)
H3 H 0.1699 0.6113 0.0673
C4 C 0.1799(2) 0.5697(5) 0.11754(6)
H4 H 0.1202 0.4827 0.1278
C5 C 0.3391(2) 0.6845(5) 0.13106(6)
C6 C 0.22734(18) 0.8238(4) 0.13065(5)
C7 C 0.1979(2) 0.9517(5) 0.15987(6)
H5 H 0.2472 1.0953 0.1637
H6 H 0.1208 1.0130 0.1575
C8 C 0.2095(3) 0.7783(6) 0.18655(6)
H7 H 0.2828 0.7340 0.1932
C9 C 0.1291(3) 0.6806(7) 0.20170(7)
C10 C 0.1540(5) 0.4962(9) 0.22733(10)
H8 H 0.1183 0.3384 0.2222
H9 H 0.1253 0.5602 0.2458
H10 H 0.2341 0.4722 0.2304
C11 C 0.0065(4) 0.7394(10) 0.19493(10)
H11 H -0.0035 0.8238 0.1755
H12 H -0.0193 0.8461 0.2107
H13 H -0.0362 0.5861 0.1942
C12 C 0.0375(2) 1.0312(5) 0.06116(6)
C13 C -0.1226(2) 1.1998(6) 0.03213(6)
H14 H -0.2023 1.1576 0.0300
H15 H -0.0868 1.1305 0.0147
C14 C -0.1091(3) 1.4768(7) 0.03257(9)
H16 H -0.1403 1.5440 0.0505
H17 H -0.1478 1.5475 0.0146
H18 H -0.0303 1.5183 0.0328
loop_
_geom_bond_atom_site_label_1
_geom_bond_atom_site_label_2
_geom_bond_site_symmetry_1
_geom_bond_site_symmetry_2
O1 C4 1_555 1_555
O2 C5 1_555 1_555
O3 C12 1_555 1_555
O4 C12 1_555 1_555
C1 H1 1_555 1_555
C2 C1 1_555 1_555
H2 C2 1_555 1_555
C3 C1 1_555 1_555
H3 C3 1_555 1_555
C4 C3 1_555 1_555
H4 C4 1_555 1_555
C5 O1 1_555 1_555
C6 C2 1_555 1_555
C7 C6 1_555 1_555
H5 C7 1_555 1_555
H6 C7 1_555 1_555
C8 C7 1_555 1_555
H7 C8 1_555 1_555
C9 C8 1_555 1_555
C10 C9 1_555 1_555
H8 C10 1_555 1_555
H9 C10 1_555 1_555
H10 C10 1_555 1_555
C11 C9 1_555 1_555
H11 C11 1_555 1_555
H12 C11 1_555 1_555
H13 C11 1_555 1_555
C12 C1 1_555 1_555
C13 O4 1_555 1_555
H14 C13 1_555 1_555
H15 C13 1_555 1_555
C14 C13 1_555 1_555
H16 C14 1_555 1_555
H17 C14 1_555 1_555
H18 C14 1_555 1_555
C2 C3 1_555 1_555
C4 C6 1_555 1_555
C5 C6 1_555 1_555

#END
