
#######################################################################
#
#                 Cambridge Crystallographic Data Centre
#                                CCDC 
#
#######################################################################
#
# If this CIF has been generated from an entry in the Cambridge 
# Structural Database, then it will include bibliographic, chemical, 
# crystal, experimental, refinement or atomic coordinate data resulting 
# from the CCDC's data processing and validation procedures.
#
#######################################################################

data_KIMPUU
_chemical_formula_moiety         'C28 H18 N2'
_chemical_name_systematic        
cis-4,4'-(1,2-diphenylethene-1,2-diyl)dibenzonitrile
_symmetry_cell_setting           monoclinic
_symmetry_space_group_name_H-M   'P 21/n'
_symmetry_Int_Tables_number      14
_space_group_name_Hall           '-P 2yn'
loop_
_symmetry_equiv_pos_site_id
_symmetry_equiv_pos_as_xyz
1 x,y,z
2 1/2-x,1/2+y,1/2-z
3 -x,-y,-z
4 1/2+x,1/2-y,1/2+z
_cell_length_a                   11.664(2)
_cell_length_b                   9.7483(19)
_cell_length_c                   18.725(4)
_cell_angle_alpha                90
_cell_angle_beta                 90.544(3)
_cell_angle_gamma                90
_cell_volume                     2129.01
_exptl_crystal_colour            colorless
_exptl_crystal_description       Block
_cell_formula_units_Z            4
_exptl_crystal_recrystallization_method dichloromethane/methanol
_exptl_crystal_preparation       Luminescent
loop_
_atom_site_label
_atom_site_type_symbol
_atom_site_fract_x
_atom_site_fract_y
_atom_site_fract_z
C1 C 0.53992(19) 0.2815(3) -0.03081(14)
N1 N 0.55039(19) 0.3318(2) -0.08516(12)
C2 C 0.52533(18) 0.2156(2) 0.03734(11)
N2 N -0.1287(2) -0.0239(3) 0.08311(13)
C3 C 0.58934(17) 0.1004(2) 0.05561(11)
H1 H 0.6417 0.0642 0.0236
C4 C 0.57477(17) 0.0398(2) 0.12148(11)
H2 H 0.6191 -0.0360 0.1338
C5 C 0.49540(17) 0.0896(2) 0.16990(11)
C6 C 0.43351(17) 0.2059(2) 0.15102(11)
H3 H 0.3810 0.2421 0.1830
C7 C 0.44844(18) 0.2690(2) 0.08566(12)
H4 H 0.4067 0.3474 0.0742
C8 C 0.48224(18) 0.02754(19) 0.24175(11)
C9 C 0.38129(18) -0.00987(19) 0.27045(11)
C10 C 0.27143(18) -0.01563(19) 0.22975(11)
C11 C 0.16867(19) 0.0236(2) 0.26140(11)
H5 H 0.1697 0.0539 0.3085
C12 C 0.06553(19) 0.0187(2) 0.22463(13)
H6 H -0.0016 0.0454 0.2471
C13 C 0.0617(2) -0.0257(2) 0.15497(14)
C14 C 0.1622(2) -0.0680(2) 0.12234(12)
H7 H 0.1605 -0.0992 0.0754
C15 C 0.26455(18) -0.0636(2) 0.15967(11)
H8 H 0.3310 -0.0936 0.1375
C16 C -0.0454(2) -0.0254(3) 0.11486(14)
C17 C 0.37203(16) -0.0430(2) 0.34787(11)
C18 C 0.3811(2) 0.0598(2) 0.39813(13)
H9 H 0.3967 0.1489 0.3834
C19 C 0.3675(2) 0.0328(3) 0.46957(15)
H10 H 0.3714 0.1041 0.5025
C20 C 0.3482(2) -0.0985(4) 0.49242(14)
H11 H 0.3406 -0.1171 0.5409
C21 C 0.34029(19) -0.2019(3) 0.44363(15)
H12 H 0.3283 -0.2915 0.4589
C22 C 0.34998(18) -0.1743(2) 0.37167(12)
H13 H 0.3415 -0.2451 0.3388
C23 C 0.59290(18) 0.0140(2) 0.28166(10)
C24 C 0.6676(2) 0.1246(2) 0.28773(11)
H14 H 0.6466 0.2088 0.2682
C25 C 0.7724(2) 0.1122(3) 0.32209(12)
H15 H 0.8207 0.1878 0.3259
C26 C 0.8052(2) -0.0110(3) 0.35055(12)
H16 H 0.8758 -0.0192 0.3737
C27 C 0.7335(2) -0.1229(3) 0.34477(12)
H17 H 0.7558 -0.2071 0.3637
C28 C 0.62821(19) -0.1097(2) 0.31068(11)
H18 H 0.5802 -0.1856 0.3072
loop_
_geom_bond_atom_site_label_1
_geom_bond_atom_site_label_2
_geom_bond_site_symmetry_1
_geom_bond_site_symmetry_2
C1 N1 1_555 1_555
C2 C1 1_555 1_555
N2 C16 1_555 1_555
C3 C2 1_555 1_555
H1 C3 1_555 1_555
C4 C3 1_555 1_555
H2 C4 1_555 1_555
C5 C4 1_555 1_555
C6 C5 1_555 1_555
H3 C6 1_555 1_555
C7 C2 1_555 1_555
H4 C7 1_555 1_555
C8 C5 1_555 1_555
C9 C8 1_555 1_555
C10 C9 1_555 1_555
C11 C10 1_555 1_555
H5 C11 1_555 1_555
C12 C11 1_555 1_555
H6 C12 1_555 1_555
C13 C12 1_555 1_555
C14 C13 1_555 1_555
H7 C14 1_555 1_555
C15 C10 1_555 1_555
H8 C15 1_555 1_555
C16 C13 1_555 1_555
C17 C9 1_555 1_555
C18 C17 1_555 1_555
H9 C18 1_555 1_555
C19 C18 1_555 1_555
H10 C19 1_555 1_555
C20 C19 1_555 1_555
H11 C20 1_555 1_555
C21 C20 1_555 1_555
H12 C21 1_555 1_555
C22 C17 1_555 1_555
H13 C22 1_555 1_555
C23 C8 1_555 1_555
C24 C23 1_555 1_555
H14 C24 1_555 1_555
C25 C24 1_555 1_555
H15 C25 1_555 1_555
C26 C25 1_555 1_555
H16 C26 1_555 1_555
C27 C26 1_555 1_555
H17 C27 1_555 1_555
C28 C23 1_555 1_555
H18 C28 1_555 1_555
C6 C7 1_555 1_555
C14 C15 1_555 1_555
C21 C22 1_555 1_555
C27 C28 1_555 1_555

#END
