
#######################################################################
#
#                 Cambridge Crystallographic Data Centre
#                                CCDC 
#
#######################################################################
#
# If this CIF has been generated from an entry in the Cambridge 
# Structural Database, then it will include bibliographic, chemical, 
# crystal, experimental, refinement or atomic coordinate data resulting 
# from the CCDC's data processing and validation procedures.
#
#######################################################################

data_KIMXIQ
_chemical_formula_moiety         'C19 H18 O2'
_chemical_name_systematic        
2,9a-dimethyl-9-phenyl-9,9a-dihydro-3aH-furo[3,2-b][1]benzopyran
_symmetry_cell_setting           triclinic
_symmetry_space_group_name_H-M   'P -1'
_symmetry_Int_Tables_number      2
_space_group_name_Hall           '-P 1'
loop_
_symmetry_equiv_pos_site_id
_symmetry_equiv_pos_as_xyz
1 x,y,z
2 -x,-y,-z
_cell_length_a                   6.6772(9)
_cell_length_b                   10.0010(11)
_cell_length_c                   11.4885(12)
_cell_angle_alpha                84.746(9)
_cell_angle_beta                 87.646(10)
_cell_angle_gamma                80.462(10)
_cell_volume                     753.14
_exptl_crystal_colour            colorless
_exptl_crystal_description       block
_cell_formula_units_Z            2
loop_
_atom_site_label
_atom_site_type_symbol
_atom_site_fract_x
_atom_site_fract_y
_atom_site_fract_z
C1 C 0.1794(4) 0.8437(2) 0.31309(19)
C2 C 0.0083(4) 0.9222(2) 0.3564(2)
H1 H -0.0085 1.0166 0.3449
C3 C -0.1381(4) 0.8588(3) 0.4172(2)
H2 H -0.2530 0.9107 0.4483
C4 C -0.1137(4) 0.7190(2) 0.4315(2)
H3 H -0.2124 0.6765 0.4722
C5 C 0.0572(3) 0.6415(2) 0.38568(18)
H4 H 0.0707 0.5471 0.3944
C6 C 0.2084(3) 0.7024(2) 0.32706(17)
C7 C 0.4112(3) 0.6296(2) 0.28463(18)
H5 H 0.5115 0.6527 0.3361
C8 C 0.4388(3) 0.4757(2) 0.29574(17)
C9 C 0.5856(4) 0.4017(2) 0.36908(19)
H6 H 0.6661 0.4479 0.4099
C10 C 0.6145(4) 0.2616(2) 0.3826(2)
H7 H 0.7142 0.2143 0.4319
C11 C 0.4967(4) 0.1916(2) 0.3235(2)
H8 H 0.5157 0.0970 0.3325
C12 C 0.3500(4) 0.2631(2) 0.2507(2)
H9 H 0.2697 0.2161 0.2105
C13 C 0.3205(4) 0.4035(2) 0.2367(2)
H10 H 0.2205 0.4502 0.1873
C14 C 0.4617(4) 0.6938(2) 0.1620(2)
C15 C 0.4333(4) 0.8502(2) 0.1599(2)
H11 H 0.5660 0.8796 0.1474
C16 C 0.3116(5) 0.8928(3) 0.0541(2)
H12 H 0.2845 0.9813 0.0193
C17 C 0.2472(4) 0.7880(3) 0.0165(2)
C18 C 0.1175(4) 0.7745(3) -0.0825(2)
H13 H 0.0619 0.8633 -0.1169
H14 H 0.0090 0.7271 -0.0544
H15 H 0.1979 0.7244 -0.1402
C19 C 0.6702(4) 0.6363(3) 0.1149(2)
H16 H 0.6763 0.5413 0.1054
H17 H 0.7712 0.6473 0.1687
H18 H 0.6954 0.6838 0.0406
O1 O 0.3150(3) 0.66714(16) 0.07994(13)
O2 O 0.3339(3) 0.90734(16) 0.26369(15)
loop_
_geom_bond_atom_site_label_1
_geom_bond_atom_site_label_2
_geom_bond_site_symmetry_1
_geom_bond_site_symmetry_2
C1 C2 1_555 1_555
C2 H1 1_555 1_555
C3 C2 1_555 1_555
H2 C3 1_555 1_555
C4 C3 1_555 1_555
H3 C4 1_555 1_555
C5 C4 1_555 1_555
H4 C5 1_555 1_555
C6 C1 1_555 1_555
C7 C6 1_555 1_555
H5 C7 1_555 1_555
C8 C7 1_555 1_555
C9 C8 1_555 1_555
H6 C9 1_555 1_555
C10 C9 1_555 1_555
H7 C10 1_555 1_555
C11 C10 1_555 1_555
H8 C11 1_555 1_555
C12 C11 1_555 1_555
H9 C12 1_555 1_555
C13 C8 1_555 1_555
H10 C13 1_555 1_555
C14 C7 1_555 1_555
C15 C14 1_555 1_555
H11 C15 1_555 1_555
C16 C15 1_555 1_555
H12 C16 1_555 1_555
C17 C16 1_555 1_555
C18 C17 1_555 1_555
H13 C18 1_555 1_555
H14 C18 1_555 1_555
H15 C18 1_555 1_555
C19 C14 1_555 1_555
H16 C19 1_555 1_555
H17 C19 1_555 1_555
H18 C19 1_555 1_555
O1 C14 1_555 1_555
O2 C1 1_555 1_555
C5 C6 1_555 1_555
C12 C13 1_555 1_555
C15 O2 1_555 1_555
C17 O1 1_555 1_555

#END
