
#######################################################################
#
#                 Cambridge Crystallographic Data Centre
#                                CCDC 
#
#######################################################################
#
# If this CIF has been generated from an entry in the Cambridge 
# Structural Database, then it will include bibliographic, chemical, 
# crystal, experimental, refinement or atomic coordinate data resulting 
# from the CCDC's data processing and validation procedures.
#
#######################################################################

data_KINHEX
_chemical_formula_moiety         'C46 H32 N4'
_chemical_name_systematic        
10-[6-(2,6-diphenylpyrimidin-4-yl)pyridin-3-yl]-9,9-diphenyl-9,10-dihydroacridine
_symmetry_cell_setting           triclinic
_symmetry_space_group_name_H-M   'P -1'
_symmetry_Int_Tables_number      2
_space_group_name_Hall           '-P 1'
loop_
_symmetry_equiv_pos_site_id
_symmetry_equiv_pos_as_xyz
1 x,y,z
2 -x,-y,-z
_cell_length_a                   9.3671(2)
_cell_length_b                   10.36880(10)
_cell_length_c                   18.1087(3)
_cell_angle_alpha                98.1520(10)
_cell_angle_beta                 91.5310(10)
_cell_angle_gamma                109.2750(10)
_cell_volume                     1638.36
_exptl_crystal_colour            white
_exptl_crystal_description       block
_cell_formula_units_Z            2
loop_
_atom_site_label
_atom_site_type_symbol
_atom_site_fract_x
_atom_site_fract_y
_atom_site_fract_z
C1 C 0.4670(2) 0.0515(2) -0.10957(11)
H1 H 0.3964 0.0386 -0.0738
C2 C 0.4552(2) -0.0562(2) -0.16717(12)
H2 H 0.3770 -0.1404 -0.1699
C3 C 0.5601(2) -0.0379(2) -0.22038(10)
H3 H 0.5526 -0.1098 -0.2590
C4 C 0.6755(2) 0.0869(2) -0.21627(10)
H4 H 0.7461 0.0988 -0.2521
C5 C 0.68736(19) 0.1956(2) -0.15879(10)
H5 H 0.7652 0.2798 -0.1566
C6 C 0.58247(18) 0.17792(19) -0.10460(9)
C7 C 0.59869(18) 0.29268(18) -0.04211(9)
C8 C 0.73190(18) 0.51398(18) 0.01423(8)
C9 C 0.86216(18) 0.64232(19) 0.01370(9)
C10 C 0.97192(19) 0.6459(2) -0.03699(10)
H6 H 0.9625 0.5670 -0.0711
C11 C 1.0945(2) 0.7645(2) -0.03751(12)
H7 H 1.1665 0.7658 -0.0720
C12 C 1.1093(3) 0.8812(3) 0.01352(14)
H8 H 1.1928 0.9608 0.0141
C13 C 1.0007(3) 0.8802(3) 0.06397(15)
H9 H 1.0107 0.9599 0.0976
C14 C 0.8771(2) 0.7614(2) 0.06464(11)
H10 H 0.8046 0.7610 0.0988
C15 C 0.50169(15) 0.27444(15) 0.01371(8)
H11 H 0.4234 0.1911 0.0133
C16 C 0.52423(16) 0.38283(16) 0.06975(8)
C17 C 0.42154(15) 0.36803(15) 0.13172(8)
C18 C 0.44385(16) 0.47946(15) 0.18629(8)
H12 H 0.5200 0.5631 0.1842
C19 C 0.35215(18) 0.46540(17) 0.24385(9)
H13 H 0.3642 0.5409 0.2809
C20 C 0.22217(18) 0.23108(16) 0.19041(9)
H14 H 0.1463 0.1468 0.1917
C21 C 0.24135(16) 0.34002(15) 0.24782(8)
C22 C 0.19930(16) 0.30669(14) 0.37871(8)
C23 C 0.35383(16) 0.33547(15) 0.39671(8)
H15 H 0.4227 0.3599 0.3608
C24 C 0.40457(16) 0.32769(15) 0.46791(9)
H16 H 0.5073 0.3456 0.4794
C25 C 0.30310(17) 0.29337(15) 0.52217(8)
H17 H 0.3378 0.2920 0.5706
C26 C 0.14910(16) 0.26103(15) 0.50355(8)
H18 H 0.0810 0.2369 0.5398
C27 C 0.09441(15) 0.26393(14) 0.43188(8)
C28 C -0.07459(15) 0.20689(14) 0.40560(8)
C29 C -0.17100(15) 0.20248(14) 0.47323(8)
C30 C -0.16998(17) 0.32678(15) 0.51556(8)
H19 H -0.1147 0.4104 0.5011
C31 C -0.25018(18) 0.32699(16) 0.57878(9)
H20 H -0.2479 0.4106 0.6063
C32 C -0.33375(17) 0.20339(17) 0.60123(8)
H21 H -0.3885 0.2036 0.6433
C33 C -0.33467(17) 0.07976(16) 0.56032(9)
H22 H -0.3895 -0.0036 0.5753
C34 C -0.25393(16) 0.07945(15) 0.49683(8)
H23 H -0.2556 -0.0044 0.4698
C35 C -0.11230(16) 0.05962(14) 0.35944(8)
C36 C -0.01593(16) -0.01702(15) 0.36030(8)
H24 H 0.0771 0.0211 0.3883
C37 C -0.05642(18) -0.15036(15) 0.31986(9)
H25 H 0.0095 -0.2004 0.3210
C38 C -0.19470(19) -0.20839(16) 0.27805(9)
H26 H -0.2220 -0.2973 0.2510
C39 C -0.29212(19) -0.13304(17) 0.27673(9)
H27 H -0.3852 -0.1714 0.2488
C40 C -0.25098(17) -0.00031(16) 0.31710(9)
H28 H -0.3172 0.0495 0.3159
C41 C -0.10329(15) 0.29928(14) 0.35207(8)
C42 C -0.23667(17) 0.33024(15) 0.34648(8)
H29 H -0.3084 0.3039 0.3809
C43 C -0.26463(18) 0.39965(17) 0.29046(9)
H30 H -0.3540 0.4199 0.2878
C44 C -0.15874(18) 0.43843(16) 0.23868(9)
H31 H -0.1785 0.4824 0.2003
C45 C -0.02365(17) 0.41196(15) 0.24392(8)
H32 H 0.0478 0.4395 0.2095
C46 C 0.00558(16) 0.34378(14) 0.30089(8)
N1 N 0.71248(15) 0.41114(15) -0.04312(7)
N2 N 0.63912(15) 0.50346(15) 0.07187(8)
N3 N 0.31164(16) 0.24441(14) 0.13225(8)
N4 N 0.14423(13) 0.31962(13) 0.30784(7)
loop_
_geom_bond_atom_site_label_1
_geom_bond_atom_site_label_2
_geom_bond_site_symmetry_1
_geom_bond_site_symmetry_2
C1 H1 1_555 1_555
C2 C1 1_555 1_555
H2 C2 1_555 1_555
C3 C2 1_555 1_555
H3 C3 1_555 1_555
C4 C3 1_555 1_555
H4 C4 1_555 1_555
C5 C4 1_555 1_555
H5 C5 1_555 1_555
C6 C1 1_555 1_555
C7 C6 1_555 1_555
C8 C9 1_555 1_555
C9 C10 1_555 1_555
C10 H6 1_555 1_555
C11 C10 1_555 1_555
H7 C11 1_555 1_555
C12 C11 1_555 1_555
H8 C12 1_555 1_555
C13 C12 1_555 1_555
H9 C13 1_555 1_555
C14 C9 1_555 1_555
H10 C14 1_555 1_555
C15 C7 1_555 1_555
H11 C15 1_555 1_555
C16 C15 1_555 1_555
C17 C16 1_555 1_555
C18 C17 1_555 1_555
H12 C18 1_555 1_555
C19 C18 1_555 1_555
H13 C19 1_555 1_555
C20 H14 1_555 1_555
C21 C19 1_555 1_555
C22 C23 1_555 1_555
C23 H15 1_555 1_555
C24 C23 1_555 1_555
H16 C24 1_555 1_555
C25 C24 1_555 1_555
H17 C25 1_555 1_555
C26 C25 1_555 1_555
H18 C26 1_555 1_555
C27 C22 1_555 1_555
C28 C27 1_555 1_555
C29 C28 1_555 1_555
C30 C29 1_555 1_555
H19 C30 1_555 1_555
C31 C30 1_555 1_555
H20 C31 1_555 1_555
C32 C31 1_555 1_555
H21 C32 1_555 1_555
C33 C32 1_555 1_555
H22 C33 1_555 1_555
C34 C29 1_555 1_555
H23 C34 1_555 1_555
C35 C28 1_555 1_555
C36 C35 1_555 1_555
H24 C36 1_555 1_555
C37 C36 1_555 1_555
H25 C37 1_555 1_555
C38 C37 1_555 1_555
H26 C38 1_555 1_555
C39 C38 1_555 1_555
H27 C39 1_555 1_555
C40 C35 1_555 1_555
H28 C40 1_555 1_555
C41 C28 1_555 1_555
C42 C41 1_555 1_555
H29 C42 1_555 1_555
C43 C42 1_555 1_555
H30 C43 1_555 1_555
C44 C43 1_555 1_555
H31 C44 1_555 1_555
C45 C44 1_555 1_555
H32 C45 1_555 1_555
C46 C41 1_555 1_555
N1 C7 1_555 1_555
N2 C8 1_555 1_555
N3 C17 1_555 1_555
N4 C21 1_555 1_555
C5 C6 1_555 1_555
C8 N1 1_555 1_555
C13 C14 1_555 1_555
C16 N2 1_555 1_555
C20 C21 1_555 1_555
C20 N3 1_555 1_555
C22 N4 1_555 1_555
C26 C27 1_555 1_555
C33 C34 1_555 1_555
C39 C40 1_555 1_555
C45 C46 1_555 1_555
C46 N4 1_555 1_555

#END
