
#######################################################################
#
#                 Cambridge Crystallographic Data Centre
#                                CCDC 
#
#######################################################################
#
# If this CIF has been generated from an entry in the Cambridge 
# Structural Database, then it will include bibliographic, chemical, 
# crystal, experimental, refinement or atomic coordinate data resulting 
# from the CCDC's data processing and validation procedures.
#
#######################################################################

data_KINSIL01
_chemical_formula_moiety         'C11 H14 N2 O2'
_chemical_name_systematic        N\a-Acetyl-L-phenylalaninamide
_symmetry_cell_setting           orthorhombic
_symmetry_space_group_name_H-M   'P 21 21 21'
_symmetry_Int_Tables_number      19
_space_group_name_Hall           'P 2ac 2ab'
loop_
_symmetry_equiv_pos_site_id
_symmetry_equiv_pos_as_xyz
1 x,y,z
2 1/2-x,-y,1/2+z
3 -x,1/2+y,1/2-z
4 1/2+x,1/2-y,-z
_cell_length_a                   5.0837(7)
_cell_length_b                   8.2864(12)
_cell_length_c                   25.802(4)
_cell_angle_alpha                90
_cell_angle_beta                 90
_cell_angle_gamma                90
_cell_volume                     1086.92
_exptl_crystal_colour            colorless
_exptl_crystal_description       needle
_cell_formula_units_Z            4
loop_
_atom_site_label
_atom_site_type_symbol
_atom_site_fract_x
_atom_site_fract_y
_atom_site_fract_z
C1 C 0.7629(3) 0.60636(17) 0.06449(6)
C2 C 0.7439(3) 0.49482(17) 0.11172(5)
H1 H 0.5636 0.5045 0.1269
C3 C 0.9453(4) 0.53985(19) 0.15309(6)
H2 H 0.9308 0.4634 0.1824
H3 H 1.1244 0.5297 0.1384
C4 C 0.9066(3) 0.7098(2) 0.17289(6)
C5 C 1.0442(9) 0.8451(5) 0.15244(15)
H4 H 1.1653 0.8302 0.1248
C6 C 1.004(4) 0.9985(13) 0.1724(8)
H5 H 1.0890 1.0886 0.1571
C7 C 0.838(3) 1.0209(14) 0.2148(5)
H6 H 0.8208 1.1248 0.2300
C8 C 0.7008(11) 0.8924(7) 0.23453(18)
H7 H 0.5779 0.9092 0.2617
C9 C 0.7397(11) 0.7382(7) 0.21506(17)
H8 H 0.6511 0.6499 0.2307
C10 C 0.5772(3) 0.2361(2) 0.08045(6)
C11 C 0.6456(4) 0.0721(2) 0.05946(8)
H9 H 0.5622 -0.0112 0.0809
H10 H 0.8369 0.0576 0.0601
H11 H 0.5823 0.0628 0.0237
N1 N 0.5372(3) 0.64820(18) 0.04274(6)
H12 H 0.531(4) 0.706(2) 0.0145(8)
H13 H 0.384(4) 0.613(3) 0.0529(8)
N2 N 0.7818(3) 0.32997(16) 0.09374(5)
H14 H 0.942(4) 0.294(3) 0.0884(8)
O1 O 0.9803(2) 0.64868(14) 0.04811(4)
O2 O 0.3479(2) 0.28090(17) 0.08540(6)
C12? C 0.9066(3) 0.7098(2) 0.17289(6)
C13? C 1.0859(9) 0.8260(5) 0.16150(15)
H15? H 1.2403 0.7992 0.1426
C14? C 1.043(4) 0.9850(13) 0.1775(8)
H16? H 1.1704 1.0658 0.1701
C15? C 0.815(3) 1.0255(14) 0.2044(5)
H17? H 0.7808 1.1344 0.2137
C16? C 0.6397(11) 0.9056(7) 0.21717(18)
H18? H 0.4907 0.9305 0.2379
C17? C 0.6785(11) 0.7492(7) 0.20011(18)
H19? H 0.5499 0.6687 0.2069
loop_
_geom_bond_atom_site_label_1
_geom_bond_atom_site_label_2
_geom_bond_site_symmetry_1
_geom_bond_site_symmetry_2
C1 C2 1_555 1_555
C2 H1 1_555 1_555
C3 C2 1_555 1_555
H2 C3 1_555 1_555
H3 C3 1_555 1_555
C4 C3 1_555 1_555
C5 C4 1_555 1_555
H4 C5 1_555 1_555
C6 C5 1_555 1_555
H5 C6 1_555 1_555
C7 C6 1_555 1_555
H6 C7 1_555 1_555
C8 C7 1_555 1_555
H7 C8 1_555 1_555
C9 C4 1_555 1_555
H8 C9 1_555 1_555
C10 C11 1_555 1_555
C11 H9 1_555 1_555
H10 C11 1_555 1_555
H11 C11 1_555 1_555
N1 C1 1_555 1_555
H12 N1 1_555 1_555
H13 N1 1_555 1_555
N2 C2 1_555 1_555
H14 N2 1_555 1_555
O1 C1 1_555 1_555
O2 C10 1_555 1_555
C8 C9 1_555 1_555
C10 N2 1_555 1_555

#END
