
#######################################################################
#
#                 Cambridge Crystallographic Data Centre
#                                CCDC 
#
#######################################################################
#
# If this CIF has been generated from an entry in the Cambridge 
# Structural Database, then it will include bibliographic, chemical, 
# crystal, experimental, refinement or atomic coordinate data resulting 
# from the CCDC's data processing and validation procedures.
#
#######################################################################

data_KINSIL
_chemical_formula_moiety         'C11 H14 N2 O2'
_chemical_name_systematic        N\a-Acetyl-L-phenylalaninamide
_symmetry_cell_setting           orthorhombic
_symmetry_space_group_name_H-M   'P 21 21 21'
_symmetry_Int_Tables_number      19
_space_group_name_Hall           'P 2ac 2ab'
loop_
_symmetry_equiv_pos_site_id
_symmetry_equiv_pos_as_xyz
1 x,y,z
2 1/2-x,-y,1/2+z
3 -x,1/2+y,1/2-z
4 1/2+x,1/2-y,-z
_cell_length_a                   5.073(4)
_cell_length_b                   8.309(7)
_cell_length_c                   26.37(2)
_cell_angle_alpha                90
_cell_angle_beta                 90
_cell_angle_gamma                90
_cell_volume                     1111.54
_exptl_crystal_colour            colorless
_exptl_crystal_description       needle
_cell_formula_units_Z            4
loop_
_atom_site_label
_atom_site_type_symbol
_atom_site_fract_x
_atom_site_fract_y
_atom_site_fract_z
C1 C 0.7909(4) 0.6080(2) 0.06376(8)
C2 C 0.7681(4) 0.4964(2) 0.10934(7)
H1 H 0.5897 0.5059 0.1233
C3 C 0.9645(5) 0.5402(3) 0.15055(8)
H2 H 0.9500 0.4631 0.1780
H3 H 1.1417 0.5328 0.1369
C4 C 0.9219(5) 0.7065(3) 0.17116(9)
C5 C 1.0509(12) 0.8437(7) 0.1519(2)
H4 H 1.1673 0.8350 0.1248
C6 C 1.000(6) 0.9932(18) 0.1743(15)
H5 H 1.0887 1.0839 0.1624
C7 C 0.826(15) 1.009(4) 0.213(3)
H6 H 0.7941 1.1092 0.2268
C8 C 0.698(5) 0.877(3) 0.2306(8)
H7 H 0.5779 0.8877 0.2570
C9 C 0.746(4) 0.728(3) 0.2099(9)
H8 H 0.6565 0.6395 0.2226
C10 C 0.6040(5) 0.2394(3) 0.07868(10)
C11 C 0.6741(7) 0.0775(3) 0.05782(13)
H9 H 0.6116 -0.0048 0.0804
H10 H 0.8621 0.0692 0.0545
H11 H 0.5936 0.0640 0.0251
N1 N 0.5689(4) 0.6506(3) 0.04227(9)
H12 H 0.568(5) 0.711(3) 0.0149(10)
H13 H 0.415(6) 0.617(3) 0.0523(9)
N2 N 0.8056(4) 0.3335(2) 0.09189(8)
H14 H 0.956(5) 0.296(3) 0.0869(10)
O1 O 1.0079(3) 0.6495(2) 0.04809(6)
O2 O 0.3764(3) 0.2832(2) 0.08337(9)
C12? C 0.9219(5) 0.7065(3) 0.17116(9)
C13? C 1.1023(12) 0.8235(8) 0.1613(2)
H15? H 1.2561 0.7988 0.1438
C14? C 1.056(6) 0.9815(18) 0.1778(15)
H16? H 1.1715 1.0634 0.1687
C15? C 0.843(15) 1.015(4) 0.207(3)
H17? H 0.8157 1.1189 0.2188
C16? C 0.669(5) 0.897(3) 0.2185(8)
H18? H 0.5223 0.9197 0.2385
C17? C 0.707(4) 0.743(3) 0.2009(9)
H19? H 0.5869 0.6624 0.2092
loop_
_geom_bond_atom_site_label_1
_geom_bond_atom_site_label_2
_geom_bond_site_symmetry_1
_geom_bond_site_symmetry_2
C1 C2 1_555 1_555
C2 H1 1_555 1_555
C3 C2 1_555 1_555
H2 C3 1_555 1_555
H3 C3 1_555 1_555
C4 C3 1_555 1_555
C5 C4 1_555 1_555
H4 C5 1_555 1_555
C6 C5 1_555 1_555
H5 C6 1_555 1_555
C7 C6 1_555 1_555
H6 C7 1_555 1_555
C8 C7 1_555 1_555
H7 C8 1_555 1_555
C9 C4 1_555 1_555
H8 C9 1_555 1_555
C10 C11 1_555 1_555
C11 H9 1_555 1_555
H10 C11 1_555 1_555
H11 C11 1_555 1_555
N1 C1 1_555 1_555
H12 N1 1_555 1_555
H13 N1 1_555 1_555
N2 C2 1_555 1_555
H14 N2 1_555 1_555
O1 C1 1_555 1_555
O2 C10 1_555 1_555
C8 C9 1_555 1_555
C10 N2 1_555 1_555

#END
