
#######################################################################
#
#                 Cambridge Crystallographic Data Centre
#                                CCDC 
#
#######################################################################
#
# If this CIF has been generated from an entry in the Cambridge 
# Structural Database, then it will include bibliographic, chemical, 
# crystal, experimental, refinement or atomic coordinate data resulting 
# from the CCDC's data processing and validation procedures.
#
#######################################################################

data_KINVUB
_chemical_formula_moiety         'C32 H25 N1 O2'
_chemical_name_systematic        
"3-(benzenecarbonyl)-1'-methyl-4,5-diphenyl-1',3'-dihydro-2H-spiro[cyclopent-3-ene-1,2'-indol]-2-one unknown solvate"
_symmetry_cell_setting           monoclinic
_symmetry_space_group_name_H-M   'P 21/c'
_symmetry_Int_Tables_number      14
_space_group_name_Hall           '-P 2ybc'
loop_
_symmetry_equiv_pos_site_id
_symmetry_equiv_pos_as_xyz
1 x,y,z
2 -x,1/2+y,1/2-z
3 -x,-y,-z
4 x,1/2-y,1/2+z
_cell_length_a                   13.1322(4)
_cell_length_b                   18.0792(5)
_cell_length_c                   11.7504(3)
_cell_angle_alpha                90
_cell_angle_beta                 102.6540(10)
_cell_angle_gamma                90
_cell_volume                     2722.01
_exptl_crystal_colour            red
_exptl_crystal_description       prismatic
_cell_formula_units_Z            4
loop_
_atom_site_label
_atom_site_type_symbol
_atom_site_fract_x
_atom_site_fract_y
_atom_site_fract_z
N1 N 0.52015(11) 0.31843(8) 0.14406(13)
O1 O 0.61273(10) 0.20697(7) 0.31629(12)
O2 O 0.81125(11) 0.21893(8) 0.53109(12)
C1 C 0.42436(14) 0.31183(10) 0.17709(16)
C2 C 0.33176(15) 0.28267(11) 0.11271(19)
H1 H 0.3273 0.2634 0.0366
C3 C 0.24554(16) 0.28275(12) 0.1640(2)
H2 H 0.1816 0.2624 0.1220
C4 C 0.25033(17) 0.31147(12) 0.2739(2)
H3 H 0.1903 0.3107 0.3066
C5 C 0.34384(17) 0.34168(11) 0.3370(2)
H4 H 0.3476 0.3623 0.4121
C6 C 0.43067(14) 0.34106(10) 0.28853(17)
C7 C 0.53907(14) 0.37055(10) 0.33294(15)
H5 H 0.5675 0.3549 0.4144
H6 H 0.5404 0.4252 0.3286
C8 C 0.60087(13) 0.33494(9) 0.24803(14)
C9 C 0.69385(13) 0.38152(10) 0.22382(15)
H7 H 0.7038 0.3667 0.1450
C10 C 0.78683(14) 0.35154(10) 0.31253(15)
C11 C 0.76536(14) 0.28561(10) 0.35684(15)
C12 C 0.65533(14) 0.26589(9) 0.30925(14)
C13 C 0.83475(14) 0.23391(10) 0.43854(16)
C14 C 0.92610(14) 0.20007(10) 0.40357(16)
C15 C 0.99299(16) 0.15570(12) 0.48478(19)
H8 H 0.9804 0.1489 0.5607
C16 C 1.07778(18) 0.12169(14) 0.4539(2)
H9 H 1.1230 0.0913 0.5089
C17 C 1.09699(17) 0.13163(14) 0.3441(2)
H10 H 1.1551 0.1081 0.3235
C18 C 1.03170(17) 0.17581(14) 0.2643(2)
H11 H 1.0456 0.1832 0.1891
C19 C 0.94548(16) 0.20972(12) 0.29293(18)
H12 H 0.9001 0.2394 0.2370
C20 C 0.88877(14) 0.38888(10) 0.33775(17)
C21 C 0.92191(16) 0.42845(11) 0.24991(19)
H13 H 0.8767 0.4339 0.1753
C22 C 1.02053(17) 0.45953(12) 0.2718(2)
H14 H 1.0434 0.4853 0.2115
C23 C 1.08620(17) 0.45337(13) 0.3810(2)
H15 H 1.1540 0.4745 0.3952
C24 C 1.05303(18) 0.41651(13) 0.4690(2)
H16 H 1.0976 0.4131 0.5443
C25 C 0.95468(16) 0.38438(11) 0.44785(18)
H17 H 0.9322 0.3592 0.5089
C26 C 0.67586(14) 0.46413(9) 0.22028(16)
C27 C 0.63094(15) 0.49727(10) 0.11478(16)
H18 H 0.6164 0.4682 0.0457
C28 C 0.60685(16) 0.57236(11) 0.10836(18)
H19 H 0.5762 0.5942 0.0353
C29 C 0.62758(15) 0.61524(11) 0.20852(19)
H20 H 0.6102 0.6663 0.2049
C30 C 0.67396(16) 0.58276(11) 0.31438(18)
H21 H 0.6894 0.6121 0.3831
C31 C 0.69788(15) 0.50780(11) 0.32047(16)
H22 H 0.7294 0.4862 0.3934
C32 C 0.54405(15) 0.26555(11) 0.05995(16)
H23 H 0.5343 0.2151 0.0863
H24 H 0.6166 0.2720 0.0533
H25 H 0.4973 0.2739 -0.0162
loop_
_geom_bond_atom_site_label_1
_geom_bond_atom_site_label_2
_geom_bond_site_symmetry_1
_geom_bond_site_symmetry_2
N1 C1 1_555 1_555
O1 C12 1_555 1_555
O2 C13 1_555 1_555
C1 C2 1_555 1_555
C2 H1 1_555 1_555
C3 C2 1_555 1_555
H2 C3 1_555 1_555
C4 C3 1_555 1_555
H3 C4 1_555 1_555
C5 C4 1_555 1_555
H4 C5 1_555 1_555
C6 C1 1_555 1_555
C7 C6 1_555 1_555
H5 C7 1_555 1_555
H6 C7 1_555 1_555
C8 N1 1_555 1_555
C9 C8 1_555 1_555
H7 C9 1_555 1_555
C10 C9 1_555 1_555
C11 C10 1_555 1_555
C12 C8 1_555 1_555
C13 C11 1_555 1_555
C14 C13 1_555 1_555
C15 C14 1_555 1_555
H8 C15 1_555 1_555
C16 C15 1_555 1_555
H9 C16 1_555 1_555
C17 C16 1_555 1_555
H10 C17 1_555 1_555
C18 C17 1_555 1_555
H11 C18 1_555 1_555
C19 C14 1_555 1_555
H12 C19 1_555 1_555
C20 C10 1_555 1_555
C21 C20 1_555 1_555
H13 C21 1_555 1_555
C22 C21 1_555 1_555
H14 C22 1_555 1_555
C23 C22 1_555 1_555
H15 C23 1_555 1_555
C24 C23 1_555 1_555
H16 C24 1_555 1_555
C25 C20 1_555 1_555
H17 C25 1_555 1_555
C26 C9 1_555 1_555
C27 C26 1_555 1_555
H18 C27 1_555 1_555
C28 C27 1_555 1_555
H19 C28 1_555 1_555
C29 C28 1_555 1_555
H20 C29 1_555 1_555
C30 C29 1_555 1_555
H21 C30 1_555 1_555
C31 C26 1_555 1_555
H22 C31 1_555 1_555
C32 N1 1_555 1_555
H23 C32 1_555 1_555
H24 C32 1_555 1_555
H25 C32 1_555 1_555
C5 C6 1_555 1_555
C7 C8 1_555 1_555
C11 C12 1_555 1_555
C18 C19 1_555 1_555
C24 C25 1_555 1_555
C30 C31 1_555 1_555

#END
