
#######################################################################
#
#                 Cambridge Crystallographic Data Centre
#                                CCDC 
#
#######################################################################
#
# If this CIF has been generated from an entry in the Cambridge 
# Structural Database, then it will include bibliographic, chemical, 
# crystal, experimental, refinement or atomic coordinate data resulting 
# from the CCDC's data processing and validation procedures.
#
#######################################################################

data_KINVOV
_chemical_formula_moiety         'C32 H25 N1 O2'
_chemical_name_systematic        
2-[hydroxy(phenyl)methylidene]-1-(1-methyl-1H-indol-2-yl)-3,4-diphenylbut-3-en-1-one
_symmetry_cell_setting           monoclinic
_symmetry_space_group_name_H-M   'P 21/n'
_symmetry_Int_Tables_number      14
_space_group_name_Hall           '-P 2yn'
loop_
_symmetry_equiv_pos_site_id
_symmetry_equiv_pos_as_xyz
1 x,y,z
2 1/2-x,1/2+y,1/2-z
3 -x,-y,-z
4 1/2+x,1/2-y,1/2+z
_cell_length_a                   12.5424(4)
_cell_length_b                   9.1677(3)
_cell_length_c                   22.0679(8)
_cell_angle_alpha                90
_cell_angle_beta                 104.0200(10)
_cell_angle_gamma                90
_cell_volume                     2461.89
_exptl_crystal_colour            yellow
_exptl_crystal_description       prismatic
_cell_formula_units_Z            4
loop_
_atom_site_label
_atom_site_type_symbol
_atom_site_fract_x
_atom_site_fract_y
_atom_site_fract_z
N1 N 0.58700(13) 0.54915(17) 0.71419(7)
O1 O 0.40296(11) 0.71518(19) 0.73001(6)
O2 O 0.21720(12) 0.8041(2) 0.68770(7)
H1 H 0.2754 0.7861 0.7129
C1 C 0.68802(15) 0.54077(19) 0.70095(8)
C2 C 0.78168(19) 0.4617(2) 0.73049(10)
H2 H 0.7816 0.4007 0.7642
C3 C 0.87326(19) 0.4776(3) 0.70790(13)
H3 H 0.9367 0.4266 0.7268
C4 C 0.87429(17) 0.5678(3) 0.65751(13)
H4 H 0.9387 0.5774 0.6441
C5 C 0.78281(15) 0.6427(2) 0.62718(10)
H5 H 0.7841 0.7016 0.5931
C6 C 0.68685(13) 0.62869(18) 0.64871(8)
C7 C 0.57856(13) 0.68589(19) 0.62897(8)
H6 H 0.5524 0.7458 0.5946
C8 C 0.52008(13) 0.6371(2) 0.66950(8)
C9 C 0.41060(14) 0.6837(2) 0.67505(8)
C10 C 0.31902(13) 0.69891(19) 0.62208(7)
C11 C 0.22263(15) 0.7594(2) 0.63194(8)
C12 C 0.11795(14) 0.7811(2) 0.58500(9)
C13 C 0.04818(16) 0.8931(2) 0.59452(10)
H7 H 0.0703 0.9548 0.6287
C14 C -0.05258(17) 0.9130(3) 0.55393(12)
H8 H -0.0977 0.9888 0.5605
C15 C -0.08700(16) 0.8224(3) 0.50399(12)
H9 H -0.1559 0.8353 0.4771
C16 C -0.01968(15) 0.7121(2) 0.49360(11)
H10 H -0.0429 0.6509 0.4593
C17 C 0.08238(14) 0.6914(2) 0.53374(10)
H11 H 0.1275 0.6165 0.5262
C18 C 0.32944(12) 0.64868(19) 0.55936(7)
C19 C 0.35253(13) 0.50914(19) 0.54974(8)
H12 H 0.3666 0.4874 0.5113
C20 C 0.35806(14) 0.38663(19) 0.59344(8)
C21 C 0.27649(16) 0.3613(2) 0.62501(9)
H13 H 0.2176 0.4255 0.6199
C22 C 0.2816(2) 0.2422(3) 0.66387(10)
H14 H 0.2249 0.2248 0.6834
C23 C 0.3704(2) 0.1491(3) 0.67378(11)
H15 H 0.3748 0.0702 0.7008
C24 C 0.4517(2) 0.1734(2) 0.64367(11)
H16 H 0.5121 0.1114 0.6506
C25 C 0.44520(17) 0.2891(2) 0.60322(9)
H17 H 0.5002 0.3021 0.5820
C26 C 0.32140(12) 0.75982(18) 0.50928(7)
C27 C 0.35343(13) 0.90316(19) 0.52339(8)
H18 H 0.3777 0.9312 0.5650
C28 C 0.34995(14) 1.0047(2) 0.47696(9)
H19 H 0.3733 1.0997 0.4874
C29 C 0.31227(15) 0.9667(2) 0.41545(9)
H20 H 0.3101 1.0354 0.3842
C30 C 0.27782(16) 0.8266(2) 0.40036(9)
H21 H 0.2514 0.8006 0.3587
C31 C 0.28212(14) 0.7239(2) 0.44653(8)
H22 H 0.2584 0.6292 0.4356
C32 C 0.5546(2) 0.4635(3) 0.76230(10)
H23 H 0.5931 0.3722 0.7674
H24 H 0.4769 0.4457 0.7502
H25 H 0.5723 0.5162 0.8011
loop_
_geom_bond_atom_site_label_1
_geom_bond_atom_site_label_2
_geom_bond_site_symmetry_1
_geom_bond_site_symmetry_2
N1 C1 1_555 1_555
O1 C9 1_555 1_555
O2 H1 1_555 1_555
C1 C2 1_555 1_555
C2 H2 1_555 1_555
C3 C2 1_555 1_555
H3 C3 1_555 1_555
C4 C3 1_555 1_555
H4 C4 1_555 1_555
C5 C4 1_555 1_555
H5 C5 1_555 1_555
C6 C1 1_555 1_555
C7 C6 1_555 1_555
H6 C7 1_555 1_555
C8 N1 1_555 1_555
C9 C8 1_555 1_555
C10 C9 1_555 1_555
C11 O2 1_555 1_555
C12 C11 1_555 1_555
C13 C12 1_555 1_555
H7 C13 1_555 1_555
C14 C13 1_555 1_555
H8 C14 1_555 1_555
C15 C14 1_555 1_555
H9 C15 1_555 1_555
C16 C15 1_555 1_555
H10 C16 1_555 1_555
C17 C12 1_555 1_555
H11 C17 1_555 1_555
C18 C10 1_555 1_555
C19 C18 1_555 1_555
H12 C19 1_555 1_555
C20 C19 1_555 1_555
C21 C20 1_555 1_555
H13 C21 1_555 1_555
C22 C21 1_555 1_555
H14 C22 1_555 1_555
C23 C22 1_555 1_555
H15 C23 1_555 1_555
C24 C23 1_555 1_555
H16 C24 1_555 1_555
C25 C20 1_555 1_555
H17 C25 1_555 1_555
C26 C18 1_555 1_555
C27 C26 1_555 1_555
H18 C27 1_555 1_555
C28 C27 1_555 1_555
H19 C28 1_555 1_555
C29 C28 1_555 1_555
H20 C29 1_555 1_555
C30 C29 1_555 1_555
H21 C30 1_555 1_555
C31 C26 1_555 1_555
H22 C31 1_555 1_555
C32 N1 1_555 1_555
H23 C32 1_555 1_555
H24 C32 1_555 1_555
H25 C32 1_555 1_555
C5 C6 1_555 1_555
C7 C8 1_555 1_555
C10 C11 1_555 1_555
C16 C17 1_555 1_555
C24 C25 1_555 1_555
C30 C31 1_555 1_555

#END
