
#######################################################################
#
#                 Cambridge Crystallographic Data Centre
#                                CCDC 
#
#######################################################################
#
# If this CIF has been generated from an entry in the Cambridge 
# Structural Database, then it will include bibliographic, chemical, 
# crystal, experimental, refinement or atomic coordinate data resulting 
# from the CCDC's data processing and validation procedures.
#
#######################################################################

data_KINVIP
_chemical_formula_moiety         'C32 H23 N1 O2'
_chemical_name_systematic        
(1-hydroxy-9-methyl-3,4-diphenyl-9H-carbazol-2-yl)(phenyl)methanone
_symmetry_cell_setting           monoclinic
_symmetry_space_group_name_H-M   'P 21/c'
_symmetry_Int_Tables_number      14
_space_group_name_Hall           '-P 2ybc'
loop_
_symmetry_equiv_pos_site_id
_symmetry_equiv_pos_as_xyz
1 x,y,z
2 -x,1/2+y,1/2-z
3 -x,-y,-z
4 x,1/2-y,1/2+z
_cell_length_a                   12.3437(14)
_cell_length_b                   8.8269(10)
_cell_length_c                   21.695(2)
_cell_angle_alpha                90
_cell_angle_beta                 90.191(3)
_cell_angle_gamma                90
_cell_volume                     2363.8
_exptl_crystal_colour            colorless
_exptl_crystal_description       prismatic
_cell_formula_units_Z            4
loop_
_atom_site_label
_atom_site_type_symbol
_atom_site_fract_x
_atom_site_fract_y
_atom_site_fract_z
N1 N 0.09852(11) 0.11926(15) 1.06620(6)
O1 O 0.32727(11) 0.07478(15) 1.04390(6)
O2 O 0.46442(11) 0.06109(18) 0.94301(8)
C1 C -0.00872(13) 0.15584(17) 1.05731(7)
C2 C -0.09566(14) 0.1314(2) 1.09663(8)
H1 H -0.0861 0.0831 1.1344
C3 C -0.19527(16) 0.1804(2) 1.07827(9)
H2 H -0.2545 0.1650 1.1039
C4 C -0.21030(15) 0.2526(2) 1.02215(9)
H3 H -0.2792 0.2853 1.0109
C5 C -0.12505(13) 0.2767(2) 0.98302(8)
H4 H -0.1362 0.3248 0.9454
C6 C -0.02171(13) 0.22866(17) 0.99996(7)
C7 C 0.08448(12) 0.23350(17) 0.97211(7)
C8 C 0.15494(13) 0.16418(17) 1.01446(7)
C9 C 0.26404(13) 0.14250(18) 1.00067(7)
C10 C 0.30218(13) 0.19685(18) 0.94477(8)
C11 C 0.23145(13) 0.26363(18) 0.90072(7)
C12 C 0.12238(13) 0.28233(17) 0.91418(7)
C13 C 0.04489(12) 0.34462(18) 0.86781(7)
C14 C 0.01751(14) 0.2624(2) 0.81596(7)
H5 H 0.0504 0.1691 0.8092
C15 C -0.05707(15) 0.3153(2) 0.77415(8)
H6 H -0.0752 0.2573 0.7398
C16 C -0.10477(15) 0.4537(2) 0.78306(9)
H7 H -0.1558 0.4899 0.7551
C17 C -0.07664(15) 0.5382(2) 0.83349(10)
H8 H -0.1077 0.6332 0.8392
C18 C -0.00290(14) 0.48450(19) 0.87586(8)
H9 H 0.0148 0.5428 0.9101
C19 C 0.27659(13) 0.3068(2) 0.83955(8)
C20 C 0.33288(15) 0.2008(3) 0.80528(8)
H10 H 0.3373 0.1013 0.8192
C21 C 0.38260(19) 0.2407(4) 0.75079(10)
H11 H 0.4216 0.1687 0.7288
C22 C 0.3748(2) 0.3845(4) 0.72914(10)
H12 H 0.4085 0.4110 0.6924
C23 C 0.3172(2) 0.4909(3) 0.76149(11)
H13 H 0.3112 0.5892 0.7464
C24 C 0.26812(15) 0.4523(2) 0.81644(9)
H14 H 0.2290 0.5249 0.8381
C25 C 0.42009(14) 0.1831(2) 0.93369(8)
C26 C 0.48572(14) 0.3174(3) 0.91695(8)
C27 C 0.58834(16) 0.2951(3) 0.89329(10)
H15 H 0.6133 0.1977 0.8852
C28 C 0.6530(2) 0.4184(5) 0.88185(13)
H16 H 0.7218 0.4039 0.8656
C29 C 0.6179(3) 0.5626(5) 0.89394(13)
H17 H 0.6632 0.6447 0.8865
C30 C 0.5165(2) 0.5854(3) 0.91684(10)
H18 H 0.4923 0.6831 0.9248
C31 C 0.44994(18) 0.4628(3) 0.92813(9)
H19 H 0.3805 0.4784 0.9434
C32 C 0.13942(16) 0.0420(2) 1.12026(8)
H20 H 0.0923 0.0612 1.1545
H21 H 0.2108 0.0784 1.1297
H22 H 0.1423 -0.0650 1.1124
H23 H 0.388(2) 0.044(3) 1.0261(11)
loop_
_geom_bond_atom_site_label_1
_geom_bond_atom_site_label_2
_geom_bond_site_symmetry_1
_geom_bond_site_symmetry_2
N1 C1 1_555 1_555
O1 C9 1_555 1_555
O2 C25 1_555 1_555
C1 C2 1_555 1_555
C2 H1 1_555 1_555
C3 C2 1_555 1_555
H2 C3 1_555 1_555
C4 C3 1_555 1_555
H3 C4 1_555 1_555
C5 C4 1_555 1_555
H4 C5 1_555 1_555
C6 C1 1_555 1_555
C7 C6 1_555 1_555
C8 N1 1_555 1_555
C9 C8 1_555 1_555
C10 C9 1_555 1_555
C11 C10 1_555 1_555
C12 C7 1_555 1_555
C13 C12 1_555 1_555
C14 C13 1_555 1_555
H5 C14 1_555 1_555
C15 C14 1_555 1_555
H6 C15 1_555 1_555
C16 C15 1_555 1_555
H7 C16 1_555 1_555
C17 C16 1_555 1_555
H8 C17 1_555 1_555
C18 C13 1_555 1_555
H9 C18 1_555 1_555
C19 C11 1_555 1_555
C20 C19 1_555 1_555
H10 C20 1_555 1_555
C21 C20 1_555 1_555
H11 C21 1_555 1_555
C22 C21 1_555 1_555
H12 C22 1_555 1_555
C23 C22 1_555 1_555
H13 C23 1_555 1_555
C24 C19 1_555 1_555
H14 C24 1_555 1_555
C25 C10 1_555 1_555
C26 C25 1_555 1_555
C27 C26 1_555 1_555
H15 C27 1_555 1_555
C28 C27 1_555 1_555
H16 C28 1_555 1_555
C29 C28 1_555 1_555
H17 C29 1_555 1_555
C30 C29 1_555 1_555
H18 C30 1_555 1_555
C31 C26 1_555 1_555
H19 C31 1_555 1_555
C32 N1 1_555 1_555
H20 C32 1_555 1_555
H21 C32 1_555 1_555
H22 C32 1_555 1_555
H23 O1 1_555 1_555
C5 C6 1_555 1_555
C7 C8 1_555 1_555
C11 C12 1_555 1_555
C17 C18 1_555 1_555
C23 C24 1_555 1_555
C30 C31 1_555 1_555

#END
