
#######################################################################
#
#                 Cambridge Crystallographic Data Centre
#                                CCDC 
#
#######################################################################
#
# If this CIF has been generated from an entry in the Cambridge 
# Structural Database, then it will include bibliographic, chemical, 
# crystal, experimental, refinement or atomic coordinate data resulting 
# from the CCDC's data processing and validation procedures.
#
#######################################################################

data_KINVEL
_chemical_formula_moiety         'C32 H23 N1 O2'
_chemical_name_systematic        
(4-hydroxy-9-methyl-1,2-diphenyl-9H-carbazol-3-yl)(phenyl)methanone
_symmetry_cell_setting           orthorhombic
_symmetry_space_group_name_H-M   'P b c a'
_symmetry_Int_Tables_number      61
_space_group_name_Hall           '-P 2ac 2ab'
loop_
_symmetry_equiv_pos_site_id
_symmetry_equiv_pos_as_xyz
1 x,y,z
2 1/2-x,-y,1/2+z
3 -x,1/2+y,1/2-z
4 1/2+x,1/2-y,-z
5 -x,-y,-z
6 1/2+x,y,1/2-z
7 x,1/2-y,1/2+z
8 1/2-x,1/2+y,z
_cell_length_a                   12.2322(13)
_cell_length_b                   15.6754(16)
_cell_length_c                   24.857(3)
_cell_angle_alpha                90
_cell_angle_beta                 90
_cell_angle_gamma                90
_cell_volume                     4766.2
_exptl_crystal_colour            colorless
_exptl_crystal_description       prismatic
_cell_formula_units_Z            8
loop_
_atom_site_label
_atom_site_type_symbol
_atom_site_fract_x
_atom_site_fract_y
_atom_site_fract_z
N1 N 0.59007(14) -0.10635(11) 0.46226(7)
O1 O 0.86255(12) 0.09596(10) 0.45935(7)
H1 H 0.8862 0.1374 0.4429
O2 O 0.85330(12) 0.21930(10) 0.38971(7)
C1 C 0.67424(18) -0.12799(14) 0.49718(9)
C2 C 0.6832(2) -0.19906(15) 0.53072(10)
H2 H 0.6295 -0.2410 0.5315
C3 C 0.7750(2) -0.20450(17) 0.56259(11)
H3 H 0.7826 -0.2510 0.5855
C4 C 0.8564(2) -0.14315(17) 0.56173(10)
H4 H 0.9169 -0.1489 0.5841
C5 C 0.84865(18) -0.07318(16) 0.52781(9)
H5 H 0.9041 -0.0326 0.5266
C6 C 0.75579(17) -0.06501(13) 0.49555(8)
C7 C 0.71851(15) -0.00235(13) 0.45742(8)
C8 C 0.61668(16) -0.03012(13) 0.43704(8)
C9 C 0.56269(16) 0.01324(13) 0.39450(8)
C10 C 0.61045(15) 0.08853(13) 0.37621(8)
C11 C 0.70838(16) 0.12187(13) 0.39975(8)
C12 C 0.76436(15) 0.07279(13) 0.43842(8)
C13 C 0.75302(17) 0.20656(14) 0.38693(8)
C14 C 0.68089(17) 0.28104(14) 0.37681(9)
C15 C 0.7167(2) 0.34696(18) 0.34395(11)
H6 H 0.7828 0.3420 0.3257
C16 C 0.6542(3) 0.42007(19) 0.33823(13)
H7 H 0.6783 0.4635 0.3156
C17 C 0.5580(3) 0.42927(18) 0.36523(13)
H8 H 0.5164 0.4785 0.3610
C18 C 0.5231(2) 0.36568(18) 0.39841(13)
H9 H 0.4582 0.3720 0.4175
C19 C 0.58355(19) 0.29196(16) 0.40387(10)
H10 H 0.5581 0.2487 0.4262
C20 C 0.56988(18) 0.12601(14) 0.32450(9)
C21 C 0.6371(2) 0.12102(16) 0.27995(10)
H11 H 0.7077 0.0997 0.2838
C22 C 0.6014(3) 0.1472(2) 0.22956(11)
H12 H 0.6472 0.1425 0.1998
C23 C 0.4986(3) 0.1797(2) 0.22400(14)
H13 H 0.4742 0.1969 0.1903
C24 C 0.4312(3) 0.18726(19) 0.26761(15)
H14 H 0.3618 0.2107 0.2636
C25 C 0.4664(2) 0.15981(16) 0.31799(11)
H15 H 0.4199 0.1643 0.3475
C26 C 0.46513(16) -0.02417(13) 0.36663(8)
C27 C 0.4775(2) -0.07816(16) 0.32317(10)
H16 H 0.5472 -0.0903 0.3103
C28 C 0.3876(3) -0.11434(19) 0.29864(13)
H17 H 0.3975 -0.1515 0.2699
C29 C 0.2847(3) -0.09627(18) 0.31599(14)
H18 H 0.2244 -0.1212 0.2994
C30 C 0.2710(2) -0.0418(2) 0.35749(13)
H19 H 0.2009 -0.0285 0.3692
C31 C 0.36029(18) -0.00591(17) 0.38258(11)
H20 H 0.3492 0.0316 0.4110
C32 C 0.48860(19) -0.15440(15) 0.45831(10)
H21 H 0.4959 -0.2073 0.4775
H22 H 0.4729 -0.1659 0.4212
H23 H 0.4300 -0.1217 0.4737
loop_
_geom_bond_atom_site_label_1
_geom_bond_atom_site_label_2
_geom_bond_site_symmetry_1
_geom_bond_site_symmetry_2
N1 C1 1_555 1_555
O1 H1 1_555 1_555
O2 C13 1_555 1_555
C1 C2 1_555 1_555
C2 H2 1_555 1_555
C3 C2 1_555 1_555
H3 C3 1_555 1_555
C4 C3 1_555 1_555
H4 C4 1_555 1_555
C5 C4 1_555 1_555
H5 C5 1_555 1_555
C6 C1 1_555 1_555
C7 C6 1_555 1_555
C8 N1 1_555 1_555
C9 C8 1_555 1_555
C10 C9 1_555 1_555
C11 C10 1_555 1_555
C12 O1 1_555 1_555
C13 C11 1_555 1_555
C14 C13 1_555 1_555
C15 C14 1_555 1_555
H6 C15 1_555 1_555
C16 C15 1_555 1_555
H7 C16 1_555 1_555
C17 C16 1_555 1_555
H8 C17 1_555 1_555
C18 C17 1_555 1_555
H9 C18 1_555 1_555
C19 C14 1_555 1_555
H10 C19 1_555 1_555
C20 C10 1_555 1_555
C21 C20 1_555 1_555
H11 C21 1_555 1_555
C22 C21 1_555 1_555
H12 C22 1_555 1_555
C23 C22 1_555 1_555
H13 C23 1_555 1_555
C24 C23 1_555 1_555
H14 C24 1_555 1_555
C25 C20 1_555 1_555
H15 C25 1_555 1_555
C26 C9 1_555 1_555
C27 C26 1_555 1_555
H16 C27 1_555 1_555
C28 C27 1_555 1_555
H17 C28 1_555 1_555
C29 C28 1_555 1_555
H18 C29 1_555 1_555
C30 C29 1_555 1_555
H19 C30 1_555 1_555
C31 C26 1_555 1_555
H20 C31 1_555 1_555
C32 N1 1_555 1_555
H21 C32 1_555 1_555
H22 C32 1_555 1_555
H23 C32 1_555 1_555
C5 C6 1_555 1_555
C7 C8 1_555 1_555
C7 C12 1_555 1_555
C11 C12 1_555 1_555
C18 C19 1_555 1_555
C24 C25 1_555 1_555
C30 C31 1_555 1_555

#END
