
#######################################################################
#
#                 Cambridge Crystallographic Data Centre
#                                CCDC 
#
#######################################################################
#
# If this CIF has been generated from an entry in the Cambridge 
# Structural Database, then it will include bibliographic, chemical, 
# crystal, experimental, refinement or atomic coordinate data resulting 
# from the CCDC's data processing and validation procedures.
#
#######################################################################

data_KIPFUN
_chemical_formula_moiety         'C11 H15 N5 O4 S1,0.5(H2 O1)'
_chemical_name_systematic        
'2-(6-amino-2-(methylsulfanyl)-9H-purin-9-yl)-5-(hydroxymethyl)tetrahydrofuran-3,4-diol hemihydrate'
_symmetry_cell_setting           orthorhombic
_symmetry_space_group_name_H-M   'P 21 21 2'
_symmetry_Int_Tables_number      18
_space_group_name_Hall           'P 2 2ab'
loop_
_symmetry_equiv_pos_site_id
_symmetry_equiv_pos_as_xyz
1 x,y,z
2 -x,-y,z
3 1/2-x,1/2+y,-z
4 1/2+x,1/2-y,-z
_cell_length_a                   17.757(7)
_cell_length_b                   7.045(3)
_cell_length_c                   10.957(5)
_cell_angle_alpha                90
_cell_angle_beta                 90
_cell_angle_gamma                90
_cell_volume                     1370.7
_exptl_crystal_colour            colorless
_exptl_crystal_description       block
_cell_formula_units_Z            4
loop_
_atom_site_label
_atom_site_type_symbol
_atom_site_fract_x
_atom_site_fract_y
_atom_site_fract_z
S1 S -0.02344(8) 0.7492(4) 0.98279(14)
O1 O 0.2359(2) 0.5285(6) 0.6734(4)
O2 O 0.2033(2) 0.2654(7) 0.8668(4)
H1 H 0.1603 0.2721 0.8400
O3 O 0.3791(2) 0.7325(8) 0.7254(4)
H2 H 0.4030 0.8269 0.7457
O4 O 0.2731(3) 1.0243(6) 0.7148(5)
H3 H 0.2362 1.0927 0.7057
N1 N 0.1460(2) 0.7482(9) 0.6049(4)
N2 N 0.0503(3) 0.7523(10) 0.4704(5)
N3 N 0.0735(2) 0.7454(9) 0.7960(4)
N4 N -0.0604(2) 0.7452(9) 0.7549(4)
N5 N -0.1117(3) 0.7518(12) 0.5615(5)
H4 H -0.1559 0.7495 0.5934
H5 H -0.1066 0.7550 0.4835
C1 C 0.2495(3) 0.8409(8) 0.7504(6)
H6 H 0.2089 0.8500 0.8107
C2 C 0.3131(3) 0.7168(9) 0.7994(6)
H7 H 0.3239 0.7447 0.8853
C3 C 0.2808(3) 0.5197(9) 0.7836(6)
H8 H 0.3222 0.4294 0.7715
C4 C 0.2239(3) 0.7247(9) 0.6420(6)
H9 H 0.2563 0.7559 0.5724
C5 C 0.0802(3) 0.7527(10) 0.6734(5)
C6 C 0.0012(3) 0.7471(10) 0.8276(5)
C7 C -0.0508(3) 0.7503(10) 0.6333(5)
C8 C 0.0237(3) 0.7526(11) 0.5875(5)
C9 C 0.1236(3) 0.7494(12) 0.4852(5)
H10 H 0.1573 0.7483 0.4203
C10 C 0.2318(4) 0.4515(9) 0.8871(6)
H11 H 0.2608 0.4525 0.9621
H12 H 0.1899 0.5384 0.8972
C11 C 0.0662(4) 0.7601(16) 1.0586(6)
H13 H 0.0586 0.7618 1.1453
H14 H 0.0922 0.8734 1.0342
H15 H 0.0957 0.6511 1.0367
O5 O 0.5000 1.0000 0.7168(6)
loop_
_geom_bond_atom_site_label_1
_geom_bond_atom_site_label_2
_geom_bond_site_symmetry_1
_geom_bond_site_symmetry_2
S1 C6 1_555 1_555
O1 C3 1_555 1_555
O2 H1 1_555 1_555
O3 H2 1_555 1_555
O4 H3 1_555 1_555
N1 C4 1_555 1_555
N2 C8 1_555 1_555
N3 C5 1_555 1_555
N4 C6 1_555 1_555
N5 H4 1_555 1_555
H5 N5 1_555 1_555
C1 O4 1_555 1_555
H6 C1 1_555 1_555
C2 O3 1_555 1_555
H7 C2 1_555 1_555
C3 C2 1_555 1_555
H8 C3 1_555 1_555
C4 O1 1_555 1_555
H9 C4 1_555 1_555
C5 N1 1_555 1_555
C6 N3 1_555 1_555
C7 N4 1_555 1_555
C8 C5 1_555 1_555
C9 N1 1_555 1_555
H10 C9 1_555 1_555
C10 O2 1_555 1_555
H11 C10 1_555 1_555
H12 C10 1_555 1_555
C11 S1 1_555 1_555
H13 C11 1_555 1_555
H14 C11 1_555 1_555
H15 C11 1_555 1_555
N2 C9 1_555 1_555
N5 C7 1_555 1_555
C1 C2 1_555 1_555
C1 C4 1_555 1_555
C3 C10 1_555 1_555
C7 C8 1_555 1_555

#END
