
#######################################################################
#
#                 Cambridge Crystallographic Data Centre
#                                CCDC 
#
#######################################################################
#
# If this CIF has been generated from an entry in the Cambridge 
# Structural Database, then it will include bibliographic, chemical, 
# crystal, experimental, refinement or atomic coordinate data resulting 
# from the CCDC's data processing and validation procedures.
#
#######################################################################

data_KIPGOI
_chemical_formula_moiety         'C15 H10 O5,C6 H6 N2 O1'
_chemical_name_systematic        
'pyridine-2-carboxamide 1,3,8-trihydroxy-6-methylanthracene-9,10-dione'
_symmetry_cell_setting           monoclinic
_symmetry_space_group_name_H-M   'C 2/c'
_symmetry_Int_Tables_number      15
_space_group_name_Hall           '-C 2yn'
loop_
_symmetry_equiv_pos_site_id
_symmetry_equiv_pos_as_xyz
1 x,y,z
2 -x,y,1/2-z
3 1/2+x,1/2+y,z
4 1/2-x,1/2+y,1/2-z
5 -x,-y,-z
6 x,-y,1/2+z
7 1/2-x,1/2-y,-z
8 1/2+x,1/2-y,1/2+z
_cell_length_a                   41.163(5)
_cell_length_b                   3.7630(5)
_cell_length_c                   22.521(3)
_cell_angle_alpha                90
_cell_angle_beta                 100.080(9)
_cell_angle_gamma                90
_cell_volume                     3434.58
_exptl_crystal_colour            orange
_exptl_crystal_description       needle
_cell_formula_units_Z            8
loop_
_atom_site_label
_atom_site_type_symbol
_atom_site_fract_x
_atom_site_fract_y
_atom_site_fract_z
O1 O 0.09621(5) 0.8813(7) 0.50247(11)
H1 H 0.0771(6) 0.914(10) 0.4752(14)
O2 O 0.20523(6) 0.4696(7) 0.52894(10)
H2 H 0.2199(9) 0.364(11) 0.5080(16)
O3 O 0.10499(5) 0.3033(6) 0.30277(9)
O4 O 0.22587(5) 0.1691(7) 0.43901(9)
O5 O 0.24803(5) -0.1230(7) 0.34886(10)
C1 C 0.12030(8) 0.7138(9) 0.47832(14)
C2 C 0.11458(7) 0.5923(9) 0.41853(14)
H3 H 0.0936 0.6236 0.3939
C3 C 0.13981(7) 0.4261(8) 0.39571(13)
C4 C 0.13278(7) 0.2900(9) 0.33307(14)
C5 C 0.16042(7) 0.1306(8) 0.30773(13)
C6 C 0.15493(7) 0.0196(9) 0.24842(14)
H4 H 0.1336 0.0460 0.2248
C7 C 0.18008(8) -0.1303(9) 0.22251(13)
C8 C 0.17452(8) -0.2438(9) 0.15808(13)
H5 H 0.1905 -0.1248 0.1372
H6 H 0.1521 -0.1795 0.1388
H7 H 0.1773 -0.5018 0.1559
C9 C 0.15053(8) 0.6681(9) 0.51401(14)
H8 H 0.1540 0.7494 0.5546
C10 C 0.17625(8) 0.5035(9) 0.49152(14)
C11 C 0.17148(7) 0.3824(9) 0.43101(13)
C12 C 0.19201(7) 0.0915(8) 0.34401(13)
C13 C 0.19784(7) 0.2101(9) 0.40671(14)
C14 C 0.21720(7) -0.0648(9) 0.31805(14)
C15 C 0.21092(8) -0.1703(9) 0.25784(14)
H9 H 0.2282 -0.2723 0.2406
H10 H 0.2472(12) -0.024(14) 0.391(2)
N1 N 1.03841(8) 1.0601(9) 0.32094(16)
C16 C 1.02737(8) 1.0172(10) 0.37239(17)
N2 N 0.97545(6) 0.8343(8) 0.31178(12)
O6 O 1.04358(6) 1.0896(8) 0.42280(12)
C17 C 0.99328(8) 0.8645(9) 0.36737(16)
C18 C 0.94470(8) 0.7011(10) 0.30849(18)
H11 H 0.9313 0.6766 0.2698
C19 C 0.93179(9) 0.5992(10) 0.3582(2)
H12 H 0.9100 0.5072 0.3536
C20 C 0.95044(10) 0.6309(11) 0.41423(19)
H13 H 0.9419 0.5617 0.4491
C21 C 0.98202(9) 0.7658(11) 0.41931(17)
H14 H 0.9957 0.7902 0.4577
H15 H 1.0246(10) 1.005(12) 0.281(2)
H16 H 1.0572(11) 1.151(12) 0.3228(18)
loop_
_geom_bond_atom_site_label_1
_geom_bond_atom_site_label_2
_geom_bond_site_symmetry_1
_geom_bond_site_symmetry_2
O1 H1 1_555 1_555
O2 H2 1_555 1_555
O3 C4 1_555 1_555
O4 C13 1_555 1_555
O5 C14 1_555 1_555
C1 O1 1_555 1_555
C2 C1 1_555 1_555
H3 C2 1_555 1_555
C3 C2 1_555 1_555
C4 C3 1_555 1_555
C5 C4 1_555 1_555
C6 C5 1_555 1_555
H4 C6 1_555 1_555
C7 C6 1_555 1_555
C8 C7 1_555 1_555
H5 C8 1_555 1_555
H6 C8 1_555 1_555
H7 C8 1_555 1_555
C9 C1 1_555 1_555
H8 C9 1_555 1_555
C10 O2 1_555 1_555
C11 C3 1_555 1_555
C12 C5 1_555 1_555
C13 C11 1_555 1_555
C14 C12 1_555 1_555
C15 C7 1_555 1_555
H9 C15 1_555 1_555
H10 O5 1_555 1_555
N1 C16 1_555 1_555
C16 O6 1_555 1_555
N2 C17 1_555 1_555
C17 C16 1_555 1_555
C18 N2 1_555 1_555
H11 C18 1_555 1_555
C19 C18 1_555 1_555
H12 C19 1_555 1_555
C20 C19 1_555 1_555
H13 C20 1_555 1_555
C21 C17 1_555 1_555
H14 C21 1_555 1_555
H15 N1 1_555 1_555
H16 N1 1_555 1_555
C9 C10 1_555 1_555
C10 C11 1_555 1_555
C12 C13 1_555 1_555
C14 C15 1_555 1_555
C20 C21 1_555 1_555

#END
