
#######################################################################
#
#                 Cambridge Crystallographic Data Centre
#                                CCDC 
#
#######################################################################
#
# If this CIF has been generated from an entry in the Cambridge 
# Structural Database, then it will include bibliographic, chemical, 
# crystal, experimental, refinement or atomic coordinate data resulting 
# from the CCDC's data processing and validation procedures.
#
#######################################################################

data_KIPGIC
_chemical_formula_moiety         'C15 H10 O5,C7 H7 N1 O1'
_chemical_name_systematic        
'benzamide 1,3,8-trihydroxy-6-methylanthracene-9,10-dione'
_symmetry_cell_setting           monoclinic
_symmetry_space_group_name_H-M   'P 21/n'
_symmetry_Int_Tables_number      14
_space_group_name_Hall           '-P 2yn'
loop_
_symmetry_equiv_pos_site_id
_symmetry_equiv_pos_as_xyz
1 x,y,z
2 1/2-x,1/2+y,1/2-z
3 -x,-y,-z
4 1/2+x,1/2-y,1/2+z
_cell_length_a                   8.9645(3)
_cell_length_b                   11.0115(4)
_cell_length_c                   18.4289(7)
_cell_angle_alpha                90
_cell_angle_beta                 101.114(2)
_cell_angle_gamma                90
_cell_volume                     1785.05
_exptl_crystal_colour            'reddish red'
_exptl_crystal_description       block
_cell_formula_units_Z            4
loop_
_atom_site_label
_atom_site_type_symbol
_atom_site_fract_x
_atom_site_fract_y
_atom_site_fract_z
O1 O 0.48967(11) 0.50209(9) 1.11923(5)
H1 H 0.390(2) 0.5159(17) 1.0958(10)
O2 O 0.89549(12) 0.23878(12) 1.11125(6)
H2 H 0.919(2) 0.171(2) 1.0876(12)
O3 O 0.85374(10) 0.06051(9) 1.01731(5)
O4 O 0.81436(11) -0.12003(10) 0.92625(6)
H3 H 0.861(2) -0.0680(18) 0.9638(11)
O5 O 0.28317(10) 0.21667(9) 0.91013(5)
C1 C 0.58127(16) -0.13279(12) 0.84246(7)
H4 H 0.6175 -0.2039 0.8223
C2 C 0.67538(15) -0.07287(12) 0.90090(7)
C3 C 0.62360(14) 0.03254(11) 0.93167(7)
C4 C 0.72073(14) 0.09795(12) 0.99199(7)
C5 C 0.66258(14) 0.20551(12) 1.02249(7)
C6 C 0.75187(15) 0.27057(13) 1.08168(7)
C7 C 0.69248(15) 0.37040(13) 1.11254(7)
H5 H 0.7538 0.4135 1.1520
C8 C 0.54431(15) 0.40736(12) 1.08602(7)
C9 C 0.47520(14) 0.07422(11) 0.90188(7)
C10 C 0.38350(15) 0.01370(12) 0.84395(7)
H6 H 0.2841 0.0431 0.8248
C11 C 0.43666(16) -0.09091(12) 0.81333(7)
C12 C 0.33750(17) -0.15450(14) 0.74936(8)
H7 H 0.3566 -0.1208 0.7028
H8 H 0.2304 -0.1426 0.7521
H9 H 0.3609 -0.2415 0.7515
C13 C 0.41364(14) 0.18259(12) 0.93374(7)
C14 C 0.51347(14) 0.24741(11) 0.99550(7)
C15 C 0.45486(14) 0.34666(12) 1.02605(7)
H10 H 0.3545 0.3738 1.0066
O6 O 0.69121(10) 0.94955(8) 0.56630(5)
N1 N 0.46026(14) 0.86384(12) 0.54569(7)
H11 H 0.427(2) 0.9170(14) 0.5132(9)
H12 H 0.3965(18) 0.8120(14) 0.5556(10)
C16 C 0.76037(16) 0.60130(13) 0.74757(7)
H13 H 0.7946 0.5438 0.7856
C17 C 0.62448(15) 0.58270(12) 0.69845(8)
H14 H 0.5663 0.5118 0.7025
C18 C 0.57294(15) 0.66733(12) 0.64331(7)
H15 H 0.4800 0.6538 0.6096
C19 C 0.65741(14) 0.77212(11) 0.63729(7)
C20 C 0.60422(14) 0.86802(12) 0.58023(7)
C21 C 0.84646(15) 0.70411(13) 0.74116(7)
H16 H 0.9405 0.7164 0.7743
C22 C 0.79513(14) 0.78899(12) 0.68635(7)
H17 H 0.8544 0.8593 0.6822
loop_
_geom_bond_atom_site_label_1
_geom_bond_atom_site_label_2
_geom_bond_site_symmetry_1
_geom_bond_site_symmetry_2
O1 H1 1_555 1_555
O2 H2 1_555 1_555
O3 C4 1_555 1_555
O4 H3 1_555 1_555
O5 C13 1_555 1_555
C1 H4 1_555 1_555
C2 O4 1_555 1_555
C3 C2 1_555 1_555
C4 C3 1_555 1_555
C5 C4 1_555 1_555
C6 O2 1_555 1_555
C7 C6 1_555 1_555
H5 C7 1_555 1_555
C8 O1 1_555 1_555
C9 C3 1_555 1_555
C10 C9 1_555 1_555
H6 C10 1_555 1_555
C11 C1 1_555 1_555
C12 C11 1_555 1_555
H7 C12 1_555 1_555
H8 C12 1_555 1_555
H9 C12 1_555 1_555
C13 C9 1_555 1_555
C14 C5 1_555 1_555
C15 C8 1_555 1_555
H10 C15 1_555 1_555
O6 C20 1_555 1_555
N1 H11 1_555 1_555
H12 N1 1_555 1_555
C16 H13 1_555 1_555
C17 C16 1_555 1_555
H14 C17 1_555 1_555
C18 C17 1_555 1_555
H15 C18 1_555 1_555
C19 C18 1_555 1_555
C20 N1 1_555 1_555
C21 C16 1_555 1_555
H16 C21 1_555 1_555
C22 C19 1_555 1_555
H17 C22 1_555 1_555
C1 C2 1_555 1_555
C5 C6 1_555 1_555
C7 C8 1_555 1_555
C10 C11 1_555 1_555
C13 C14 1_555 1_555
C14 C15 1_555 1_555
C19 C20 1_555 1_555
C21 C22 1_555 1_555

#END
