
#######################################################################
#
#                 Cambridge Crystallographic Data Centre
#                                CCDC 
#
#######################################################################
#
# If this CIF has been generated from an entry in the Cambridge 
# Structural Database, then it will include bibliographic, chemical, 
# crystal, experimental, refinement or atomic coordinate data resulting 
# from the CCDC's data processing and validation procedures.
#
#######################################################################

data_KIPGEY
_chemical_formula_moiety         'C27 H27 N1 O4'
_chemical_name_systematic        
'ethyl 4-hydroxy-3-(1-methyl-1H-indole-2-carbonyl)-2-phenylcyclo-octa-1,3-diene-1-carboxylate'
_symmetry_cell_setting           monoclinic
_symmetry_space_group_name_H-M   'P 21/c'
_symmetry_Int_Tables_number      14
_space_group_name_Hall           '-P 2ybc'
loop_
_symmetry_equiv_pos_site_id
_symmetry_equiv_pos_as_xyz
1 x,y,z
2 -x,1/2+y,1/2-z
3 -x,-y,-z
4 x,1/2-y,1/2+z
_cell_length_a                   10.8995(4)
_cell_length_b                   14.4221(5)
_cell_length_c                   14.4529(5)
_cell_angle_alpha                90
_cell_angle_beta                 101.4510(10)
_cell_angle_gamma                90
_cell_volume                     2226.68
_exptl_crystal_colour            colorless
_exptl_crystal_description       prismatic
_cell_formula_units_Z            4
loop_
_atom_site_label
_atom_site_type_symbol
_atom_site_fract_x
_atom_site_fract_y
_atom_site_fract_z
N1 N 0.50932(11) 0.83612(9) 0.60600(9)
O1 O 0.41467(12) 0.68145(9) 0.69143(8)
O2 O 0.29849(11) 0.53555(9) 0.68113(8)
H1 H 0.3469 0.5785 0.7046
O3 O 0.17712(11) 0.59741(9) 0.20956(8)
O4 O 0.02741(9) 0.61327(7) 0.29455(7)
C1 C 0.57479(13) 0.88058(10) 0.54741(10)
C2 C 0.64703(15) 0.96176(11) 0.56207(12)
H2 H 0.6579 0.9949 0.6199
C3 C 0.70122(15) 0.99124(12) 0.48967(13)
H3 H 0.7496 1.0465 0.4975
C4 C 0.68756(15) 0.94240(13) 0.40408(13)
H4 H 0.7279 0.9646 0.3559
C5 C 0.61688(15) 0.86319(12) 0.38897(12)
H5 H 0.6079 0.8305 0.3310
C6 C 0.55799(13) 0.83142(10) 0.46117(11)
C7 C 0.47668(13) 0.75679(11) 0.46895(10)
H6 H 0.4471 0.7119 0.4217
C8 C 0.44809(13) 0.76092(10) 0.55723(10)
C9 C 0.49435(16) 0.87073(12) 0.69798(11)
H7 H 0.5487 0.8355 0.7479
H8 H 0.4070 0.8635 0.7042
H9 H 0.5174 0.9365 0.7036
C10 C 0.38350(14) 0.69135(11) 0.60290(10)
C11 C 0.29172(13) 0.63045(10) 0.54720(10)
C12 C 0.25551(14) 0.55258(11) 0.59076(11)
C13 C 0.16809(16) 0.47898(12) 0.54321(13)
H10 H 0.1071 0.5074 0.4910
H11 H 0.1208 0.4532 0.5891
C14 C 0.23699(19) 0.39936(12) 0.50351(15)
H12 H 0.3201 0.3911 0.5451
H13 H 0.1892 0.3413 0.5059
C15 C 0.25540(18) 0.41355(12) 0.40313(15)
H14 H 0.1728 0.4099 0.3600
H15 H 0.3074 0.3622 0.3867
C16 C 0.31740(15) 0.50571(11) 0.38605(12)
H16 H 0.3899 0.5161 0.4383
H17 H 0.3498 0.5007 0.3269
C17 C 0.23208(13) 0.58909(10) 0.37887(10)
C18 C 0.23101(13) 0.65100(10) 0.44815(10)
C19 C 0.16009(13) 0.73994(10) 0.42970(10)
C20 C 0.17028(14) 0.79501(10) 0.35217(10)
H18 H 0.2283 0.7786 0.3138
C21 C 0.09650(15) 0.87337(10) 0.33062(11)
H19 H 0.1038 0.9102 0.2775
C22 C 0.01231(15) 0.89800(11) 0.38626(12)
H20 H -0.0396 0.9509 0.3706
C23 C 0.00387(16) 0.84567(12) 0.46456(12)
H21 H -0.0533 0.8631 0.5033
C24 C 0.07833(15) 0.76785(11) 0.48701(11)
H22 H 0.0735 0.7332 0.5421
C25 C 0.14625(14) 0.60086(10) 0.28498(11)
C26 C -0.06035(16) 0.64506(13) 0.21102(11)
H23 H -0.0889 0.5921 0.1686
H24 H -0.0193 0.6908 0.1760
C27 C -0.16831(16) 0.68826(13) 0.24253(14)
H25 H -0.2106 0.6417 0.2745
H26 H -0.2271 0.7125 0.1877
H27 H -0.1387 0.7391 0.2863
loop_
_geom_bond_atom_site_label_1
_geom_bond_atom_site_label_2
_geom_bond_site_symmetry_1
_geom_bond_site_symmetry_2
N1 C1 1_555 1_555
O1 C10 1_555 1_555
O2 H1 1_555 1_555
O3 C25 1_555 1_555
O4 C25 1_555 1_555
C1 C2 1_555 1_555
C2 H2 1_555 1_555
C3 C2 1_555 1_555
H3 C3 1_555 1_555
C4 C3 1_555 1_555
H4 C4 1_555 1_555
C5 C4 1_555 1_555
H5 C5 1_555 1_555
C6 C1 1_555 1_555
C7 C6 1_555 1_555
H6 C7 1_555 1_555
C8 N1 1_555 1_555
C9 N1 1_555 1_555
H7 C9 1_555 1_555
H8 C9 1_555 1_555
H9 C9 1_555 1_555
C10 C8 1_555 1_555
C11 C10 1_555 1_555
C12 O2 1_555 1_555
C13 C12 1_555 1_555
H10 C13 1_555 1_555
H11 C13 1_555 1_555
C14 C13 1_555 1_555
H12 C14 1_555 1_555
H13 C14 1_555 1_555
C15 C14 1_555 1_555
H14 C15 1_555 1_555
H15 C15 1_555 1_555
C16 C15 1_555 1_555
H16 C16 1_555 1_555
H17 C16 1_555 1_555
C17 C16 1_555 1_555
C18 C11 1_555 1_555
C19 C18 1_555 1_555
C20 C19 1_555 1_555
H18 C20 1_555 1_555
C21 C20 1_555 1_555
H19 C21 1_555 1_555
C22 C21 1_555 1_555
H20 C22 1_555 1_555
C23 C22 1_555 1_555
H21 C23 1_555 1_555
C24 C19 1_555 1_555
H22 C24 1_555 1_555
C25 C17 1_555 1_555
C26 O4 1_555 1_555
H23 C26 1_555 1_555
H24 C26 1_555 1_555
C27 C26 1_555 1_555
H25 C27 1_555 1_555
H26 C27 1_555 1_555
H27 C27 1_555 1_555
C5 C6 1_555 1_555
C7 C8 1_555 1_555
C11 C12 1_555 1_555
C17 C18 1_555 1_555
C23 C24 1_555 1_555

#END
