
#######################################################################
#
#                 Cambridge Crystallographic Data Centre
#                                CCDC 
#
#######################################################################
#
# If this CIF has been generated from an entry in the Cambridge 
# Structural Database, then it will include bibliographic, chemical, 
# crystal, experimental, refinement or atomic coordinate data resulting 
# from the CCDC's data processing and validation procedures.
#
#######################################################################

data_KIPHEZ
_chemical_formula_moiety         'C12 H13 Cl1 N4,C15 H10 O5'
_chemical_name_systematic        
'1,3,8-trihydroxy-6-methylanthracene-9,10-dione 5-(4-chlorophenyl)-6-ethylpyrimidine-2,4-diamine'
_symmetry_cell_setting           triclinic
_symmetry_space_group_name_H-M   'P -1'
_symmetry_Int_Tables_number      2
_space_group_name_Hall           '-P 1'
loop_
_symmetry_equiv_pos_site_id
_symmetry_equiv_pos_as_xyz
1 x,y,z
2 -x,-y,-z
_cell_length_a                   7.2615(3)
_cell_length_b                   12.0347(5)
_cell_length_c                   14.6154(6)
_cell_angle_alpha                107.975(2)
_cell_angle_beta                 103.065(2)
_cell_angle_gamma                91.962(2)
_cell_volume                     1175.97
_exptl_crystal_colour            'dark red'
_exptl_crystal_description       block
_cell_formula_units_Z            2
loop_
_atom_site_label
_atom_site_type_symbol
_atom_site_fract_x
_atom_site_fract_y
_atom_site_fract_z
Cl1 Cl -0.29097(6) -0.02441(4) 0.57541(3)
N1 N 0.9673(2) 0.15849(14) 1.08506(12)
H1 H 1.0509 0.1154 1.0595
H2 H 1.0104 0.2336 1.1030
N2 N 0.6971(2) 0.22746(13) 1.01465(11)
N3 N 0.7484(2) 0.02517(13) 0.95700(11)
N4 N 0.5286(2) -0.11067(13) 0.83144(12)
H3 H 0.6028 -0.1561 0.8562
H4 H 0.4097 -0.1312 0.8292
C1 C 0.7988(2) 0.13689(15) 1.01700(13)
C2 C 0.5291(3) 0.20409(15) 0.94478(13)
C3 C 0.4612(2) 0.09191(15) 0.88019(12)
C4 C 0.2748(2) 0.06302(15) 0.80466(13)
C5 C 0.2667(2) 0.01974(15) 0.70342(13)
H5 H 0.3816 0.0092 0.6826
C6 C 0.0939(3) -0.00829(15) 0.63238(13)
H6 H 0.0901 -0.0384 0.5637
C7 C -0.0724(2) 0.00852(15) 0.66350(13)
C8 C 0.1043(3) 0.07693(17) 0.83351(13)
H7 H 0.1073 0.1049 0.9022
C9 C -0.0697(3) 0.05071(17) 0.76367(14)
H8 H -0.1850 0.0614 0.7841
C10 C 0.5804(2) 0.00205(15) 0.88997(13)
C11 C 0.4247(3) 0.30975(16) 0.94254(13)
H9 H 0.3247 0.2893 0.8796
H10 H 0.5150 0.3743 0.9441
C12 C 0.3331(3) 0.35252(19) 1.02966(16)
H11 H 0.2698 0.4222 1.0259
H12 H 0.4314 0.3726 1.0922
H13 H 0.2393 0.2902 1.0267
O1 O 0.8327(2) 0.44531(12) 0.12993(10)
H14 H 0.7950 0.3733 0.1030
O2 O 0.7713(2) 0.67217(11) 0.73103(9)
H15 H 0.8017 0.7121 0.6975
O3 O 0.8321(2) 0.71015(11) 0.57750(10)
O4 O 0.6691(2) 0.24807(11) 0.36744(10)
O5 O 0.8957(2) 0.75530(11) 0.42547(10)
H16 H 0.8933 0.7698 0.4852
C13 C 0.8195(3) 0.47920(16) 0.22426(13)
C14 C 0.7676(3) 0.39934(15) 0.26975(13)
H17 H 0.7385 0.3180 0.2329
C15 C 0.7592(2) 0.43953(15) 0.36782(13)
C16 C 0.7046(2) 0.35285(15) 0.41420(13)
C17 C 0.6962(2) 0.39779(15) 0.52001(13)
C18 C 0.7388(2) 0.51899(15) 0.57394(13)
C19 C 0.7320(2) 0.55721(16) 0.67406(13)
C20 C 0.8016(2) 0.56051(15) 0.42455(13)
C21 C 0.7926(2) 0.60267(15) 0.52739(13)
C22 C 0.6855(3) 0.47612(17) 0.71830(13)
H18 H 0.6827 0.5028 0.7863
C23 C 0.6432(3) 0.35728(16) 0.66466(14)
C24 C 0.6483(2) 0.31862(16) 0.56468(13)
H19 H 0.6187 0.2375 0.5272
C25 C 0.5952(3) 0.27119(18) 0.71381(15)
H20 H 0.6015 0.3131 0.7837
H21 H 0.6865 0.2128 0.7095
H22 H 0.4665 0.2315 0.6802
C26 C 0.8535(3) 0.63903(15) 0.37758(14)
C27 C 0.8628(3) 0.59854(16) 0.27914(14)
H23 H 0.8988 0.6524 0.2489
loop_
_geom_bond_atom_site_label_1
_geom_bond_atom_site_label_2
_geom_bond_site_symmetry_1
_geom_bond_site_symmetry_2
Cl1 C7 1_555 1_555
N1 H1 1_555 1_555
H2 N1 1_555 1_555
N2 C1 1_555 1_555
N3 C1 1_555 1_555
N4 H3 1_555 1_555
H4 N4 1_555 1_555
C1 N1 1_555 1_555
C2 N2 1_555 1_555
C3 C2 1_555 1_555
C4 C3 1_555 1_555
C5 C4 1_555 1_555
H5 C5 1_555 1_555
C6 C5 1_555 1_555
H6 C6 1_555 1_555
C7 C6 1_555 1_555
C8 C4 1_555 1_555
H7 C8 1_555 1_555
C9 C7 1_555 1_555
H8 C9 1_555 1_555
C10 N3 1_555 1_555
C11 C2 1_555 1_555
H9 C11 1_555 1_555
H10 C11 1_555 1_555
C12 C11 1_555 1_555
H11 C12 1_555 1_555
H12 C12 1_555 1_555
H13 C12 1_555 1_555
O1 H14 1_555 1_555
O2 H15 1_555 1_555
O3 C21 1_555 1_555
O4 C16 1_555 1_555
O5 H16 1_555 1_555
C13 O1 1_555 1_555
C14 C13 1_555 1_555
H17 C14 1_555 1_555
C15 C14 1_555 1_555
C16 C15 1_555 1_555
C17 C16 1_555 1_555
C18 C17 1_555 1_555
C19 O2 1_555 1_555
C20 C15 1_555 1_555
C21 C18 1_555 1_555
C22 C19 1_555 1_555
H18 C22 1_555 1_555
C23 C22 1_555 1_555
C24 C17 1_555 1_555
H19 C24 1_555 1_555
C25 C23 1_555 1_555
H20 C25 1_555 1_555
H21 C25 1_555 1_555
H22 C25 1_555 1_555
C26 O5 1_555 1_555
C27 C13 1_555 1_555
H23 C27 1_555 1_555
N4 C10 1_555 1_555
C3 C10 1_555 1_555
C8 C9 1_555 1_555
C18 C19 1_555 1_555
C20 C21 1_555 1_555
C20 C26 1_555 1_555
C23 C24 1_555 1_555
C26 C27 1_555 1_555

#END
