
#######################################################################
#
#                 Cambridge Crystallographic Data Centre
#                                CCDC 
#
#######################################################################
#
# If this CIF has been generated from an entry in the Cambridge 
# Structural Database, then it will include bibliographic, chemical, 
# crystal, experimental, refinement or atomic coordinate data resulting 
# from the CCDC's data processing and validation procedures.
#
#######################################################################

data_KIPHAV
_chemical_formula_moiety         '2(C15 H10 O5),C6 H6 N2 O1'
_chemical_name_systematic        
'pyridine-3-carboxamide bis(1,3,8-trihydroxy-6-methylanthracene-9,10-dione)'
_symmetry_cell_setting           triclinic
_symmetry_space_group_name_H-M   'P -1'
_symmetry_Int_Tables_number      2
_space_group_name_Hall           '-P 1'
loop_
_symmetry_equiv_pos_site_id
_symmetry_equiv_pos_as_xyz
1 x,y,z
2 -x,-y,-z
_cell_length_a                   6.8744(3)
_cell_length_b                   20.6400(10)
_cell_length_c                   20.9563(10)
_cell_angle_alpha                87.964(3)
_cell_angle_beta                 84.880(3)
_cell_angle_gamma                86.135(3)
_cell_volume                     2953.54
_exptl_crystal_colour            orange
_exptl_crystal_description       prism
_cell_formula_units_Z            4
loop_
_atom_site_label
_atom_site_type_symbol
_atom_site_fract_x
_atom_site_fract_y
_atom_site_fract_z
O1 O -0.0054(4) 0.69803(11) 0.69954(11)
O2 O -0.1103(4) 0.67551(11) 0.81849(11)
H1 H -0.0898 0.6670 0.7795
O3 O 0.1025(4) 0.71781(11) 0.58013(11)
H2 H 0.0677 0.6959 0.6133
O4 O 0.0012(4) 0.95364(12) 0.74193(12)
O5 O -0.2523(5) 0.85199(12) 0.95216(12)
H3 H -0.2524 0.8927 0.9519
C1 C -0.0639(5) 0.78282(16) 0.77292(16)
C2 C 0.0467(5) 0.80343(16) 0.65680(16)
C3 C -0.0705(5) 0.84987(16) 0.78440(17)
C4 C 0.0482(5) 0.87075(17) 0.66694(17)
C5 C -0.0083(5) 0.75783(18) 0.71007(17)
C6 C -0.1323(5) 0.87349(17) 0.84316(17)
H4 H -0.1371 0.9189 0.8498
C7 C -0.0070(5) 0.89625(18) 0.73164(17)
C8 C 0.0985(6) 0.78139(18) 0.59440(19)
C9 C -0.1165(6) 0.74044(17) 0.82519(18)
C10 C 0.0999(5) 0.91291(17) 0.61699(17)
H5 H 0.1004 0.9580 0.6245
C11 C 0.1518(6) 0.89022(19) 0.55532(18)
C12 C -0.1779(6) 0.76464(17) 0.88495(17)
H6 H -0.2124 0.7358 0.9198
C13 C -0.1889(6) 0.83070(19) 0.89367(18)
C14 C 0.1488(6) 0.82487(19) 0.54505(18)
H7 H 0.1821 0.8093 0.5031
C15 C 0.2147(6) 0.93596(19) 0.50145(18)
H8 H 0.2095 0.9802 0.5172
H9 H 0.1268 0.9344 0.4673
H10 H 0.3488 0.9231 0.4846
O6 O 0.4871(4) 0.81919(11) 0.27287(11)
O7 O 0.4123(4) 0.80040(11) 0.39408(11)
H11 H 0.4310 0.8223 0.3598
O8 O 0.5726(5) 0.84109(11) 0.15293(12)
H12 H 0.5429 0.8502 0.1915
O9 O 0.5240(5) 0.56166(12) 0.23648(12)
O10 O 0.6884(5) 0.66512(13) 0.01856(13)
H13 H 0.6935 0.6243 0.0188
C16 C 0.5454(5) 0.73386(16) 0.20076(17)
C17 C 0.4659(5) 0.71374(16) 0.31909(17)
C18 C 0.4992(5) 0.75870(17) 0.26394(17)
C19 C 0.5588(5) 0.66607(16) 0.19081(17)
C20 C 0.4269(5) 0.73666(17) 0.38120(18)
C21 C 0.4478(5) 0.60406(17) 0.36223(18)
H14 H 0.4543 0.5586 0.3557
C22 C 0.4086(5) 0.62662(19) 0.42435(18)
C23 C 0.4773(5) 0.64600(17) 0.31002(17)
C24 C 0.3986(5) 0.69275(18) 0.43277(18)
H15 H 0.3719 0.7088 0.4748
C25 C 0.5204(6) 0.61971(18) 0.24519(18)
C26 C 0.5826(6) 0.77569(18) 0.14715(18)
C27 C 0.6072(6) 0.64301(18) 0.13034(18)
H16 H 0.6157 0.5975 0.1239
C28 C 0.6315(6) 0.75190(18) 0.08728(19)
H17 H 0.6571 0.7809 0.0518
C29 C 0.6438(6) 0.68568(19) 0.0785(2)
C30 C 0.3788(6) 0.58066(18) 0.48041(17)
H18 H 0.3531 0.5379 0.4654
H19 H 0.2670 0.5970 0.5090
H20 H 0.4966 0.5769 0.5037
O11 O 0.1292(4) 0.24269(11) 0.55847(12)
O12 O 0.1473(4) 0.36000(12) 0.50752(12)
H21 H 0.1520 0.3193 0.5070
O13 O 0.1165(5) 0.12520(11) 0.60909(12)
H22 H 0.1366 0.1534 0.5797
O14 O -0.0628(5) 0.34267(12) 0.79065(12)
O15 O -0.0621(5) 0.10223(12) 0.82978(13)
H23 H -0.0964 0.1245 0.8621
C31 C 0.0242(5) 0.36302(16) 0.68120(17)
C32 C 0.0715(5) 0.33604(16) 0.62072(17)
C33 C 0.0527(5) 0.22283(16) 0.66911(17)
C34 C 0.0879(5) 0.26552(17) 0.61306(18)
C35 C 0.0015(5) 0.24882(17) 0.73002(18)
C36 C 0.1047(5) 0.37941(18) 0.56814(18)
C37 C -0.0153(6) 0.31972(17) 0.73815(19)
C38 C 0.0468(6) 0.47198(17) 0.63673(19)
C39 C 0.0668(6) 0.15473(18) 0.66497(19)
C40 C 0.0916(6) 0.44607(18) 0.57716(19)
H24 H 0.1142 0.4746 0.5411
C41 C 0.0125(5) 0.42944(17) 0.68872(18)
H25 H -0.0196 0.4463 0.7302
C42 C -0.0358(6) 0.20903(18) 0.78341(18)
H26 H -0.0697 0.2276 0.8241
C43 C 0.0276(6) 0.11528(17) 0.7196(2)
H27 H 0.0369 0.0694 0.7163
C44 C -0.0241(6) 0.14231(19) 0.77810(19)
C45 C 0.0347(7) 0.54452(16) 0.6455(2)
H28 H 0.1671 0.5595 0.6454
H29 H -0.0397 0.5547 0.6864
H30 H -0.0310 0.5664 0.6103
O16 O 0.3969(4) 0.27204(11) 0.41350(12)
O17 O 0.3484(4) 0.15579(12) 0.46308(12)
H31 H 0.3426 0.1966 0.4634
O18 O 0.5888(4) 0.17165(12) 0.18115(12)
O19 O 0.4516(5) 0.38793(12) 0.36565(13)
H32 H 0.4196 0.3599 0.3940
O20 O 0.6691(5) 0.40998(13) 0.14762(14)
H33 H 0.6942 0.3878 0.1147
C46 C 0.4935(5) 0.15191(17) 0.29013(17)
C47 C 0.4453(5) 0.17883(16) 0.35104(17)
C48 C 0.4976(5) 0.29075(17) 0.30420(17)
C49 C 0.5510(5) 0.26516(17) 0.24349(18)
C50 C 0.4431(5) 0.24895(17) 0.35910(18)
C51 C 0.5483(5) 0.19421(17) 0.23430(18)
C52 C 0.3971(6) 0.13596(18) 0.40258(19)
C53 C 0.4913(6) 0.08544(17) 0.28167(18)
H34 H 0.5230 0.0684 0.2402
C54 C 0.5009(6) 0.35851(18) 0.30915(19)
C55 C 0.3972(6) 0.06972(18) 0.39272(19)
H35 H 0.3646 0.0415 0.4283
C56 C 0.4429(6) 0.04359(18) 0.3333(2)
C57 C 0.6082(6) 0.30396(18) 0.19158(19)
H36 H 0.6460 0.2853 0.1512
C58 C 0.6107(6) 0.37065(19) 0.1982(2)
C59 C 0.5565(6) 0.39772(18) 0.2565(2)
H37 H 0.5570 0.4434 0.2608
C60 C 0.4427(7) -0.02810(17) 0.3239(2)
H38 H 0.4685 -0.0369 0.2781
H39 H 0.3147 -0.0434 0.3397
H40 H 0.5446 -0.0508 0.3476
O21 O 0.8366(5) 0.16949(12) -0.05659(13)
N1 N 0.7465(5) -0.02626(14) -0.00884(15)
N2 N 0.7161(5) 0.19800(15) 0.04249(15)
H41 H 0.7243 0.2396 0.0329
H42 H 0.6709 0.1854 0.0812
C61 C 0.7560(6) 0.08461(17) 0.01981(17)
C62 C 0.7544(6) 0.03701(19) -0.02422(18)
H43 H 0.7593 0.0498 -0.0683
C63 C 0.7718(6) 0.15436(18) -0.0013(2)
C64 C 0.7421(6) 0.00013(19) 0.10045(18)
H44 H 0.7372 -0.0139 0.1442
C65 C 0.7409(6) -0.04325(18) 0.0531(2)
H45 H 0.7358 -0.0880 0.0649
C66 C 0.7507(6) 0.06503(18) 0.08319(19)
H46 H 0.7530 0.0963 0.1153
O22 O 0.7733(5) 0.34507(12) 1.03276(13)
N3 N 0.7421(5) 0.54227(15) 0.98165(16)
N4 N 0.8565(6) 0.31702(14) 0.93136(15)
H47 H 0.8595 0.2754 0.9422
H48 H 0.8833 0.3294 0.8911
C67 C 0.8058(6) 0.43136(18) 0.95370(18)
C68 C 0.8116(6) 0.36112(19) 0.9757(2)
C69 C 0.7518(6) 0.47889(19) 0.99637(19)
H49 H 0.7187 0.4659 1.0397
C70 C 0.7883(8) 0.5593(2) 0.9221(2)
H50 H 0.7820 0.6043 0.9107
C71 C 0.8541(10) 0.4536(2) 0.8919(2)
H51 H 0.8956 0.4230 0.8599
C72 C 0.8446(12) 0.5164(2) 0.8758(3)
H52 H 0.8765 0.5307 0.8328
loop_
_geom_bond_atom_site_label_1
_geom_bond_atom_site_label_2
_geom_bond_site_symmetry_1
_geom_bond_site_symmetry_2
O1 C5 1_555 1_555
O2 H1 1_555 1_555
O3 H2 1_555 1_555
O4 C7 1_555 1_555
O5 H3 1_555 1_555
C1 C3 1_555 1_555
C2 C4 1_555 1_555
C3 C6 1_555 1_555
C4 C7 1_555 1_555
C5 C1 1_555 1_555
C6 H4 1_555 1_555
C7 C3 1_555 1_555
C8 O3 1_555 1_555
C9 O2 1_555 1_555
C10 C4 1_555 1_555
H5 C10 1_555 1_555
C11 C10 1_555 1_555
C12 C9 1_555 1_555
H6 C12 1_555 1_555
C13 O5 1_555 1_555
C14 C8 1_555 1_555
H7 C14 1_555 1_555
C15 C11 1_555 1_555
H8 C15 1_555 1_555
H9 C15 1_555 1_555
H10 C15 1_555 1_555
O6 C18 1_555 1_555
O7 H11 1_555 1_555
O8 H12 1_555 1_555
O9 C25 1_555 1_555
O10 H13 1_555 1_555
C16 C18 1_555 1_555
C17 C18 1_555 1_555
C19 C16 1_555 1_555
C20 O7 1_555 1_555
C21 H14 1_555 1_555
C22 C21 1_555 1_555
C23 C17 1_555 1_555
C24 C20 1_555 1_555
H15 C24 1_555 1_555
C25 C19 1_555 1_555
C26 O8 1_555 1_555
C27 C19 1_555 1_555
H16 C27 1_555 1_555
C28 C26 1_555 1_555
H17 C28 1_555 1_555
C29 O10 1_555 1_555
C30 C22 1_555 1_555
H18 C30 1_555 1_555
H19 C30 1_555 1_555
H20 C30 1_555 1_555
O11 C34 1_555 1_555
O12 H21 1_555 1_555
O13 H22 1_555 1_555
O14 C37 1_555 1_555
O15 H23 1_555 1_555
C31 C32 1_555 1_555
C32 C34 1_555 1_555
C33 C34 1_555 1_555
C35 C33 1_555 1_555
C36 O12 1_555 1_555
C37 C31 1_555 1_555
C38 C40 1_555 1_555
C39 O13 1_555 1_555
C40 C36 1_555 1_555
H24 C40 1_555 1_555
C41 C31 1_555 1_555
H25 C41 1_555 1_555
C42 C35 1_555 1_555
H26 C42 1_555 1_555
C43 C39 1_555 1_555
H27 C43 1_555 1_555
C44 O15 1_555 1_555
C45 C38 1_555 1_555
H28 C45 1_555 1_555
H29 C45 1_555 1_555
H30 C45 1_555 1_555
O16 C50 1_555 1_555
O17 H31 1_555 1_555
O18 C51 1_555 1_555
O19 H32 1_555 1_555
O20 H33 1_555 1_555
C46 C47 1_555 1_555
C47 C50 1_555 1_555
C48 C49 1_555 1_555
C49 C51 1_555 1_555
C50 C48 1_555 1_555
C51 C46 1_555 1_555
C52 O17 1_555 1_555
C53 C46 1_555 1_555
H34 C53 1_555 1_555
C54 O19 1_555 1_555
C55 C52 1_555 1_555
H35 C55 1_555 1_555
C56 C53 1_555 1_555
C57 C49 1_555 1_555
H36 C57 1_555 1_555
C58 O20 1_555 1_555
C59 C54 1_555 1_555
H37 C59 1_555 1_555
C60 C56 1_555 1_555
H38 C60 1_555 1_555
H39 C60 1_555 1_555
H40 C60 1_555 1_555
O21 C63 1_555 1_555
N1 C62 1_555 1_555
N2 H41 1_555 1_555
H42 N2 1_555 1_555
C61 C62 1_555 1_555
C62 H43 1_555 1_555
C63 N2 1_555 1_555
C64 H44 1_555 1_555
C65 N1 1_555 1_555
H45 C65 1_555 1_555
C66 C61 1_555 1_555
H46 C66 1_555 1_555
O22 C68 1_555 1_555
N3 C69 1_555 1_555
N4 H47 1_555 1_555
H48 N4 1_555 1_555
C67 C68 1_555 1_555
C68 N4 1_555 1_555
C69 C67 1_555 1_555
H49 C69 1_555 1_555
C70 N3 1_555 1_555
H50 C70 1_555 1_555
C71 C67 1_555 1_555
H51 C71 1_555 1_555
C72 C70 1_555 1_555
H52 C72 1_555 1_555
C1 C9 1_555 1_555
C2 C5 1_555 1_555
C2 C8 1_555 1_555
C6 C13 1_555 1_555
C11 C14 1_555 1_555
C12 C13 1_555 1_555
C16 C26 1_555 1_555
C17 C20 1_555 1_555
C21 C23 1_555 1_555
C22 C24 1_555 1_555
C23 C25 1_555 1_555
C27 C29 1_555 1_555
C28 C29 1_555 1_555
C32 C36 1_555 1_555
C33 C39 1_555 1_555
C35 C37 1_555 1_555
C38 C41 1_555 1_555
C42 C44 1_555 1_555
C43 C44 1_555 1_555
C47 C52 1_555 1_555
C48 C54 1_555 1_555
C55 C56 1_555 1_555
C57 C58 1_555 1_555
C58 C59 1_555 1_555
C61 C63 1_555 1_555
C64 C65 1_555 1_555
C64 C66 1_555 1_555
C71 C72 1_555 1_555

#END
