
#######################################################################
#
#                 Cambridge Crystallographic Data Centre
#                                CCDC 
#
#######################################################################
#
# If this CIF has been generated from an entry in the Cambridge 
# Structural Database, then it will include bibliographic, chemical, 
# crystal, experimental, refinement or atomic coordinate data resulting 
# from the CCDC's data processing and validation procedures.
#
#######################################################################

data_KIPLIG
_chemical_name_common            valsartan
_chemical_formula_moiety         'C24 H29 N5 O3'
_chemical_name_systematic        
N-Pentanoyl-N-((2'-(1H-tetrazol-5-yl)biphenyl-4-yl)methyl)valine
_chemical_properties_biological  
'Valsartan is an angiotensin II receptor antagonist that acts on the AT1 receptor subtype.'
_symmetry_cell_setting           orthorhombic
_symmetry_space_group_name_H-M   'P 21 21 21'
_symmetry_Int_Tables_number      19
_space_group_name_Hall           'P 2ac 2ab'
loop_
_symmetry_equiv_pos_site_id
_symmetry_equiv_pos_as_xyz
1 x,y,z
2 1/2-x,-y,1/2+z
3 1/2+x,1/2-y,-z
4 -x,1/2+y,1/2-z
_cell_length_a                   7.3516(11)
_cell_length_b                   16.346(2)
_cell_length_c                   18.801(3)
_cell_angle_alpha                90
_cell_angle_beta                 90
_cell_angle_gamma                90
_cell_volume                     2259.3
_cell_formula_units_Z            4
loop_
_atom_site_label
_atom_site_type_symbol
_atom_site_fract_x
_atom_site_fract_y
_atom_site_fract_z
O1 O 0.4745(3) 0.9124(1) 0.0747(1)
O2 O 0.4096(2) 0.8499(1) 0.2847(1)
H1 H 0.3559 0.8651 0.3206
O3 O 0.6558(3) 0.8814(1) 0.3487(1)
N1 N 1.3165(3) 0.9529(1) -0.0467(1)
H2 H 1.3496 0.9310 -0.0072
N2 N 0.6406(3) 0.8833(1) 0.1717(1)
N3 N 1.2577(3) 0.9114(1) -0.1041(1)
N4 N 1.2214(3) 0.9664(2) -0.1517(1)
N5 N 1.2570(3) 1.0428(1) -0.1266(1)
C1 C 1.3158(3) 1.0324(2) -0.0600(1)
C2 C 1.3895(3) 1.0958(2) -0.0123(1)
C3 C 1.3310(3) 1.1070(2) 0.0587(1)
C4 C 1.1660(4) 1.0678(1) 0.0885(1)
C5 C 1.1586(4) 1.0458(2) 0.1605(1)
H3 H 1.2619 1.0514 0.1887
C6 C 1.0010(4) 1.0161(2) 0.1901(1)
H4 H 0.9990 1.0034 0.2383
C7 C 0.8451(4) 1.0044(1) 0.1501(1)
C8 C 0.6728(4) 0.9714(2) 0.1832(1)
H5 H 0.6770 0.9816 0.2340
H6 H 0.5703 1.0016 0.1642
C9 C 0.5318(3) 0.8600(2) 0.1165(1)
C10 C 0.4906(4) 0.7707(2) 0.1067(1)
H7 H 0.4273 0.7510 0.1486
H8 H 0.6045 0.7410 0.1032
C11 C 0.3758(4) 0.7519(2) 0.0413(1)
H9 H 0.4314 0.7770 0.0000
H10 H 0.2559 0.7756 0.0474
C12 C 0.3565(4) 0.6600(2) 0.0285(2)
H11 H 0.2836 0.6517 -0.0139
H12 H 0.4762 0.6374 0.0192
C13 C 0.2708(4) 0.6127(2) 0.0890(2)
H13 H 0.3464 0.6169 0.1305
H14 H 0.2590 0.5562 0.0757
H15 H 0.1528 0.6349 0.0992
C14 C 1.0074(4) 1.0574(1) 0.0484(1)
H16 H 1.0075 1.0722 0.0006
C15 C 0.8517(4) 1.0260(2) 0.0781(1)
H17 H 0.7489 1.0190 0.0499
C16 C 1.5339(4) 1.1410(2) -0.0390(1)
H18 H 1.5677 1.1343 -0.0863
C17 C 1.6288(4) 1.1959(2) 0.0030(1)
H19 H 1.7246 1.2261 -0.0158
C18 C 1.5779(4) 1.2049(2) 0.0737(2)
H20 H 1.6421 1.2402 0.1033
C19 C 1.4323(4) 1.1614(2) 0.1001(1)
H21 H 1.4001 1.1685 0.1475
C20 C 0.6937(4) 0.8273(2) 0.2292(1)
H22 H 0.6486 0.7729 0.2163
C21 C 0.5860(4) 0.8550(2) 0.2950(1)
C22 C 0.8975(4) 0.8195(2) 0.2404(1)
H23 H 0.9428 0.8700 0.2622
C23 C 0.9392(4) 0.7479(2) 0.2897(2)
H24 H 0.8988 0.6979 0.2681
H25 H 0.8773 0.7556 0.3342
H26 H 1.0680 0.7451 0.2979
C24 C 0.9964(4) 0.8059(2) 0.1701(1)
H27 H 1.1245 0.8004 0.1788
H28 H 0.9754 0.8517 0.1392
H29 H 0.9516 0.7569 0.1480
loop_
_geom_bond_atom_site_label_1
_geom_bond_atom_site_label_2
_geom_bond_site_symmetry_1
_geom_bond_site_symmetry_2
O1 C9 1_555 1_555
O2 H1 1_555 1_555
O3 C21 1_555 1_555
N1 H2 1_555 1_555
N2 C8 1_555 1_555
N3 N1 1_555 1_555
N4 N3 1_555 1_555
N5 N4 1_555 1_555
C1 N1 1_555 1_555
C2 C1 1_555 1_555
C3 C2 1_555 1_555
C4 C3 1_555 1_555
C5 C4 1_555 1_555
H3 C5 1_555 1_555
C6 C5 1_555 1_555
H4 C6 1_555 1_555
C7 C6 1_555 1_555
C8 C7 1_555 1_555
H5 C8 1_555 1_555
H6 C8 1_555 1_555
C9 N2 1_555 1_555
C10 C9 1_555 1_555
H7 C10 1_555 1_555
H8 C10 1_555 1_555
C11 C10 1_555 1_555
H9 C11 1_555 1_555
H10 C11 1_555 1_555
C12 C11 1_555 1_555
H11 C12 1_555 1_555
H12 C12 1_555 1_555
C13 C12 1_555 1_555
H13 C13 1_555 1_555
H14 C13 1_555 1_555
H15 C13 1_555 1_555
C14 C4 1_555 1_555
H16 C14 1_555 1_555
C15 C7 1_555 1_555
H17 C15 1_555 1_555
C16 C2 1_555 1_555
H18 C16 1_555 1_555
C17 C16 1_555 1_555
H19 C17 1_555 1_555
C18 C17 1_555 1_555
H20 C18 1_555 1_555
C19 C3 1_555 1_555
H21 C19 1_555 1_555
C20 N2 1_555 1_555
H22 C20 1_555 1_555
C21 O2 1_555 1_555
C22 C20 1_555 1_555
H23 C22 1_555 1_555
C23 C22 1_555 1_555
H24 C23 1_555 1_555
H25 C23 1_555 1_555
H26 C23 1_555 1_555
C24 C22 1_555 1_555
H27 C24 1_555 1_555
H28 C24 1_555 1_555
H29 C24 1_555 1_555
N5 C1 1_555 1_555
C14 C15 1_555 1_555
C18 C19 1_555 1_555
C20 C21 1_555 1_555

#END
