
#######################################################################
#
#                 Cambridge Crystallographic Data Centre
#                                CCDC 
#
#######################################################################
#
# If this CIF has been generated from an entry in the Cambridge 
# Structural Database, then it will include bibliographic, chemical, 
# crystal, experimental, refinement or atomic coordinate data resulting 
# from the CCDC's data processing and validation procedures.
#
#######################################################################

data_KIPLEC
_chemical_name_common            'valsartan ethanol solvate'
_chemical_formula_moiety         'C24 H29 N5 O3,C2 H6 O1'
_chemical_name_systematic        
"N-Pentanoyl-N-((2'-(1H-tetrazol-5-yl)biphenyl-4-yl)methyl)valine ethanol solvate"
_chemical_properties_biological  
'Valsartan is an angiotensin II receptor antagonist that acts on the AT1 receptor subtype'
_symmetry_cell_setting           orthorhombic
_symmetry_space_group_name_H-M   'P 21 21 21'
_symmetry_Int_Tables_number      19
_space_group_name_Hall           'P 2ac 2ab'
loop_
_symmetry_equiv_pos_site_id
_symmetry_equiv_pos_as_xyz
1 x,y,z
2 1/2+x,1/2-y,-z
3 -x,1/2+y,1/2-z
4 1/2-x,-y,1/2+z
_cell_length_a                   10.2475(3)
_cell_length_b                   12.7244(3)
_cell_length_c                   19.7838(5)
_cell_angle_alpha                90
_cell_angle_beta                 90
_cell_angle_gamma                90
_cell_volume                     2579.67
_exptl_crystal_colour            colorless
_exptl_crystal_description       block
_cell_formula_units_Z            4
loop_
_atom_site_label
_atom_site_type_symbol
_atom_site_fract_x
_atom_site_fract_y
_atom_site_fract_z
N1 N 0.42886(10) -0.14134(8) 0.20874(5)
N2 N -0.01333(10) 0.41380(9) 0.11851(6)
N3 N -0.04097(11) 0.43426(10) 0.18449(6)
N4 N 0.06419(11) 0.42859(10) 0.22101(6)
N5 N 0.16185(10) 0.40328(8) 0.17846(5)
O1 O 0.59214(9) -0.08917(8) 0.27734(5)
O2 O 0.47481(9) -0.11600(8) 0.06069(5)
O3 O 0.25812(9) -0.11377(7) 0.06628(5)
H1 H 0.2658 -0.0762 0.0316
C1 C 0.91901(17) -0.20561(18) 0.07222(9)
H2 H 0.8611 -0.1807 0.0362
H3 H 0.9817 -0.2559 0.0535
H4 H 0.9661 -0.1459 0.0917
C2 C 0.83822(15) -0.25914(13) 0.12709(8)
H5 H 0.7981 -0.3239 0.1086
H6 H 0.8957 -0.2794 0.1651
C3 C 0.73209(13) -0.18611(11) 0.15249(7)
H7 H 0.6771 -0.1647 0.1137
H8 H 0.7735 -0.1219 0.1710
C4 C 0.64429(13) -0.23403(10) 0.20699(7)
H9 H 0.5943 -0.2935 0.1877
H10 H 0.6985 -0.2612 0.2446
C5 C 0.55114(12) -0.15130(10) 0.23334(6)
C6 C 0.37481(12) -0.20642(10) 0.15375(6)
H11 H 0.4388 -0.2646 0.1462
C7 C 0.24424(12) -0.25941(10) 0.17142(7)
H12 H 0.1737 -0.2051 0.1722
C8 C 0.21293(14) -0.34093(11) 0.11719(8)
H13 H 0.2113 -0.3069 0.0728
H14 H 0.1275 -0.3723 0.1265
H15 H 0.2799 -0.3959 0.1175
C9 C 0.25133(15) -0.31328(12) 0.24050(8)
H16 H 0.1680 -0.3481 0.2501
H17 H 0.2690 -0.2606 0.2755
H18 H 0.3215 -0.3656 0.2402
C10 C 0.37424(12) -0.14045(10) 0.08829(6)
C11 C 0.34442(12) -0.05763(9) 0.23650(6)
H19 H 0.3817 -0.0333 0.2799
H20 H 0.2572 -0.0876 0.2460
C12 C 0.32872(12) 0.03571(9) 0.19012(6)
C13 C 0.43622(12) 0.08707(10) 0.16298(6)
H21 H 0.5215 0.0636 0.1743
C14 C 0.42146(12) 0.17187(9) 0.11970(6)
H22 H 0.4965 0.2059 0.1018
C15 C 0.29684(12) 0.20788(9) 0.10204(6)
C16 C 0.18935(12) 0.15748(10) 0.13063(6)
H23 H 0.1040 0.1817 0.1202
C17 C 0.20446(12) 0.07251(9) 0.17403(6)
H24 H 0.1297 0.0393 0.1928
C18 C 0.27988(12) 0.28989(9) 0.04914(6)
C19 C 0.35052(13) 0.27995(10) -0.01080(7)
H25 H 0.4144 0.2262 -0.0146
C20 C 0.32944(13) 0.34685(12) -0.06495(7)
H26 H 0.3778 0.3381 -0.1055
C21 C 0.23757(13) 0.42671(11) -0.05995(7)
H27 H 0.2225 0.4722 -0.0972
C22 C 0.16841(12) 0.43981(10) -0.00085(6)
H28 H 0.1063 0.4949 0.0026
C23 C 0.18882(12) 0.37264(9) 0.05422(6)
C24 C 0.11381(12) 0.39427(9) 0.11584(6)
H29 H 0.2497(18) 0.4035(13) 0.1950(9)
C25 C 0.54512(15) 0.50622(14) 0.06506(10)
H30 H 0.5649 0.5641 0.0961
H31 H 0.4678 0.4684 0.0811
H32 H 0.5283 0.5345 0.0198
C26 C 0.65804(14) 0.43294(13) 0.06231(8)
H33 H 0.6762 0.4053 0.1081
H34 H 0.6367 0.3728 0.0326
O4 O 0.77081(9) 0.48563(8) 0.03711(5)
H35 H 0.8381 0.4590 0.0543
loop_
_geom_bond_atom_site_label_1
_geom_bond_atom_site_label_2
_geom_bond_site_symmetry_1
_geom_bond_site_symmetry_2
N1 C5 1_555 1_555
N2 N3 1_555 1_555
N3 N4 1_555 1_555
N4 N5 1_555 1_555
N5 C24 1_555 1_555
O1 C5 1_555 1_555
O2 C10 1_555 1_555
O3 H1 1_555 1_555
C1 H2 1_555 1_555
H3 C1 1_555 1_555
H4 C1 1_555 1_555
C2 C1 1_555 1_555
H5 C2 1_555 1_555
H6 C2 1_555 1_555
C3 C2 1_555 1_555
H7 C3 1_555 1_555
H8 C3 1_555 1_555
C4 C3 1_555 1_555
H9 C4 1_555 1_555
H10 C4 1_555 1_555
C5 C4 1_555 1_555
C6 N1 1_555 1_555
H11 C6 1_555 1_555
C7 C6 1_555 1_555
H12 C7 1_555 1_555
C8 C7 1_555 1_555
H13 C8 1_555 1_555
H14 C8 1_555 1_555
H15 C8 1_555 1_555
C9 C7 1_555 1_555
H16 C9 1_555 1_555
H17 C9 1_555 1_555
H18 C9 1_555 1_555
C10 O3 1_555 1_555
C11 N1 1_555 1_555
H19 C11 1_555 1_555
H20 C11 1_555 1_555
C12 C11 1_555 1_555
C13 C12 1_555 1_555
H21 C13 1_555 1_555
C14 C13 1_555 1_555
H22 C14 1_555 1_555
C15 C14 1_555 1_555
C16 C15 1_555 1_555
H23 C16 1_555 1_555
C17 C12 1_555 1_555
H24 C17 1_555 1_555
C18 C15 1_555 1_555
C19 C18 1_555 1_555
H25 C19 1_555 1_555
C20 C19 1_555 1_555
H26 C20 1_555 1_555
C21 C20 1_555 1_555
H27 C21 1_555 1_555
C22 C21 1_555 1_555
H28 C22 1_555 1_555
C23 C18 1_555 1_555
C24 N2 1_555 1_555
H29 N5 1_555 1_555
C25 H30 1_555 1_555
H31 C25 1_555 1_555
H32 C25 1_555 1_555
C26 C25 1_555 1_555
H33 C26 1_555 1_555
H34 C26 1_555 1_555
O4 C26 1_555 1_555
H35 O4 1_555 1_555
C6 C10 1_555 1_555
C16 C17 1_555 1_555
C22 C23 1_555 1_555
C23 C24 1_555 1_555

#END
