
#######################################################################
#
#                 Cambridge Crystallographic Data Centre
#                                CCDC 
#
#######################################################################
#
# If this CIF has been generated from an entry in the Cambridge 
# Structural Database, then it will include bibliographic, chemical, 
# crystal, experimental, refinement or atomic coordinate data resulting 
# from the CCDC's data processing and validation procedures.
#
#######################################################################

data_KIPMAA
_chemical_name_common            'febuxostat imidazole monohydrate'
_chemical_formula_moiety         'C17 H17 N2 O3 S1 1-,C3 H5 N2 1+,H2 O1'
_chemical_name_systematic        
'1H-imidazol-3-ium 2-[3-cyano-4-(2,2-dimethylpropoxy)phenyl]-4-methyl-1,3-thiazole-5-carboxylate monohydrate'
_symmetry_cell_setting           triclinic
_symmetry_space_group_name_H-M   'P -1'
_symmetry_Int_Tables_number      2
_space_group_name_Hall           '-P 1'
loop_
_symmetry_equiv_pos_site_id
_symmetry_equiv_pos_as_xyz
1 x,y,z
2 -x,-y,-z
_cell_length_a                   9.0058(8)
_cell_length_b                   10.3017(7)
_cell_length_c                   13.0092(11)
_cell_angle_alpha                67.157(7)
_cell_angle_beta                 82.211(7)
_cell_angle_gamma                65.204(8)
_cell_volume                     1009.19
_exptl_crystal_colour            colorless
_exptl_crystal_description       block
_cell_formula_units_Z            2
loop_
_atom_site_label
_atom_site_type_symbol
_atom_site_fract_x
_atom_site_fract_y
_atom_site_fract_z
C1 C -0.2379(3) 0.1910(3) -0.1592(2)
C2 C -0.1259(3) 0.2436(3) -0.1282(2)
C3 C -0.0360(3) 0.3895(3) -0.3176(2)
H1 H -0.0559 0.4962 -0.3421
H2 H -0.1202 0.3794 -0.3480
H3 H 0.0685 0.3351 -0.3426
C4 C -0.0366(3) 0.3235(3) -0.1931(2)
C5 C 0.0440(3) 0.2879(3) -0.0275(2)
C6 C 0.1368(3) 0.2934(3) 0.0544(2)
C7 C 0.1125(3) 0.2404(3) 0.1666(2)
H4 H 0.0348 0.1986 0.1932
C8 C 0.2549(3) 0.3532(3) 0.0175(2)
H5 H 0.2732 0.3894 -0.0585
C9 C 0.2013(3) 0.2479(3) 0.2410(2)
C10 C 0.1732(3) 0.1917(3) 0.3576(2)
C11 C 0.3200(3) 0.3086(3) 0.2037(2)
C12 C 0.3463(3) 0.3602(3) 0.0911(2)
H6 H 0.4256 0.3998 0.0644
C13 C 0.5172(3) 0.3793(3) 0.2487(2)
H7 H 0.4648 0.4848 0.1974
H8 H 0.6062 0.3233 0.2110
C14 C 0.5821(4) 0.3753(5) 0.3509(3)
C15 C 0.6991(6) 0.4572(7) 0.3133(4)
H9 H 0.7333 0.4655 0.3765
H10 H 0.6442 0.5582 0.2587
H11 H 0.7932 0.3993 0.2812
C16 C 0.6638(8) 0.2349(6) 0.4278(5)
H12 H 0.6915 0.2456 0.4919
H13 H 0.7620 0.1811 0.3966
H14 H 0.5960 0.1780 0.4496
C17 C 0.4708(8) 0.4257(7) 0.4311(5)
N1 N 0.0591(2) 0.3479(2) -0.13547(17)
N2 N 0.1488(4) 0.1454(3) 0.4497(2)
O1 O -0.2341(2) 0.1938(2) -0.25623(15)
O2 O -0.3309(2) 0.1476(2) -0.08564(15)
O3 O 0.4009(2) 0.3097(2) 0.28307(15)
S1 S -0.09102(8) 0.19989(7) 0.01047(5)
C18 C 0.6294(3) 0.9691(3) 0.1602(2)
H15 H 0.6635 1.0020 0.0874
C19 C 0.4994(4) 0.8804(4) 0.3043(2)
H16 H 0.4268 0.8409 0.3486
C20 C 0.6096(4) 0.9102(3) 0.3392(2)
H17 H 0.6281 0.8958 0.4123
N3 N 0.5124(3) 0.9179(3) 0.19295(19)
N4 N 0.6894(3) 0.9653(3) 0.2487(2)
H18 H 0.440(4) 0.909(3) 0.152(3)
H19 H 0.762(4) 0.995(4) 0.245(3)
O4 O 0.9487(3) 0.9897(3) 0.31479(18)
H20 H 1.046(3) 0.932(4) 0.302(3)
H21 H 0.938(4) 0.960(4) 0.3869(16)
loop_
_geom_bond_atom_site_label_1
_geom_bond_atom_site_label_2
_geom_bond_site_symmetry_1
_geom_bond_site_symmetry_2
C1 C2 1_555 1_555
C2 C4 1_555 1_555
C3 H1 1_555 1_555
H2 C3 1_555 1_555
H3 C3 1_555 1_555
C4 C3 1_555 1_555
C5 C6 1_555 1_555
C6 C7 1_555 1_555
C7 H4 1_555 1_555
C8 C6 1_555 1_555
H5 C8 1_555 1_555
C9 C7 1_555 1_555
C10 C9 1_555 1_555
C11 C9 1_555 1_555
C12 C8 1_555 1_555
H6 C12 1_555 1_555
C13 H7 1_555 1_555
H8 C13 1_555 1_555
C14 C13 1_555 1_555
C15 C14 1_555 1_555
H9 C15 1_555 1_555
H10 C15 1_555 1_555
H11 C15 1_555 1_555
C16 C14 1_555 1_555
H12 C16 1_555 1_555
H13 C16 1_555 1_555
H14 C16 1_555 1_555
C17 C14 1_555 1_555
N1 C4 1_555 1_555
N2 C10 1_555 1_555
O1 C1 1_555 1_555
O2 C1 1_555 1_555
O3 C11 1_555 1_555
S1 C2 1_555 1_555
C18 H15 1_555 1_555
C19 H16 1_555 1_555
C20 C19 1_555 1_555
H17 C20 1_555 1_555
N3 C18 1_555 1_555
N4 C18 1_555 1_555
H18 N3 1_555 1_555
H19 N4 1_555 1_555
O4 H20 1_555 1_555
H21 O4 1_555 1_555
C5 N1 1_555 1_555
C5 S1 1_555 1_555
C11 C12 1_555 1_555
C13 O3 1_555 1_555
C19 N3 1_555 1_555
C20 N4 1_555 1_555

#END
