
#######################################################################
#
#                 Cambridge Crystallographic Data Centre
#                                CCDC 
#
#######################################################################
#
# If this CIF has been generated from an entry in the Cambridge 
# Structural Database, then it will include bibliographic, chemical, 
# crystal, experimental, refinement or atomic coordinate data resulting 
# from the CCDC's data processing and validation procedures.
#
#######################################################################

data_KIPROQ
_chemical_formula_moiety         'C26 H36 Si1'
_chemical_name_systematic        
trans-4-t-Butyl-1-(3,3-dimethylallyl)-1-(4-phenylphenyl)silacyclohexane
_symmetry_cell_setting           triclinic
_symmetry_space_group_name_H-M   'P -1'
_symmetry_Int_Tables_number      2
_space_group_name_Hall           '-P 1'
loop_
_symmetry_equiv_pos_site_id
_symmetry_equiv_pos_as_xyz
1 x,y,z
2 -x,-y,-z
_cell_length_a                   19.809(4)
_cell_length_b                   21.540(5)
_cell_length_c                   6.271(3)
_cell_angle_alpha                94.20(3)
_cell_angle_beta                 91.30(3)
_cell_angle_gamma                117.37(1)
_cell_volume                     2365.03
_exptl_crystal_colour            colorless
_exptl_crystal_description       prismatic
_cell_formula_units_Z            4
loop_
_atom_site_label
_atom_site_type_symbol
_atom_site_fract_x
_atom_site_fract_y
_atom_site_fract_z
Si1 Si 0.34011(6) 0.77598(5) 0.1277(2)
C1 C 0.4039(2) 0.8375(2) -0.0576(6)
C2 C 0.4726(2) 0.8997(2) 0.0621(6)
C3 C 0.5203(2) 0.8779(2) 0.2065(5)
C4 C 0.4752(2) 0.8411(2) 0.3945(6)
C5 C 0.4071(2) 0.7697(2) 0.3290(6)
C6 C 0.5998(2) 0.9391(2) 0.2771(6)
C7 C 0.5949(3) 0.9970(3) 0.4214(9)
C8 C 0.6434(3) 0.9710(3) 0.0824(9)
C9 C 0.6472(3) 0.9113(3) 0.3993(9)
C10 C 0.2769(3) 0.6888(2) -0.0201(8)
C11 C 0.2274(3) 0.6368(2) 0.1228(8)
C12 C 0.1534(3) 0.6124(2) 0.1375(9)
C13 C 0.1055(4) 0.6343(5) 0.011(1)
C14 C 0.1129(4) 0.5605(4) 0.299(1)
C15 C 0.2791(2) 0.8106(2) 0.2594(6)
C16 C 0.2589(2) 0.8562(2) 0.1596(6)
C17 C 0.2089(2) 0.8775(2) 0.2482(7)
C18 C 0.1768(2) 0.8565(2) 0.4392(6)
C19 C 0.1202(2) 0.8767(2) 0.5246(7)
C20 C 0.0951(3) 0.9146(4) 0.415(1)
C21 C 0.0389(4) 0.9302(4) 0.490(1)
C22 C 0.0078(3) 0.9100(3) 0.673(1)
C23 C 0.0315(3) 0.8731(3) 0.789(1)
C24 C 0.0881(3) 0.8569(3) 0.7139(9)
C25 C 0.1983(2) 0.8120(2) 0.5406(6)
C26 C 0.2483(2) 0.7911(2) 0.4530(6)
H1 H 0.2795 0.8725 0.0209
H2 H 0.1966 0.9096 0.1719
H3 H 0.1158 0.9308 0.2691
H4 H 0.0256 0.9623 0.4064
H5 H -0.0325 0.9220 0.7031
H6 H 0.0088 0.8599 0.9308
H7 H 0.1058 0.8301 0.8038
H8 H 0.1782 0.7967 0.6795
H9 H 0.2636 0.7613 0.5314
H19 H 0.2547 0.6209 0.2161
H21 H 0.4231 0.8137 -0.1583
H22 H 0.3762 0.8549 -0.1453
H23 H 0.5044 0.9303 -0.0397
H24 H 0.4535 0.9264 0.1485
H25 H 0.5095 0.8359 0.4966
H26 H 0.4571 0.8707 0.4675
H27 H 0.3805 0.7500 0.4573
H28 H 0.4255 0.7373 0.2743
H29 H 0.2449 0.6934 -0.1328
H30 H 0.3078 0.6706 -0.0993
H41 H 0.5286 0.8431 0.1203
H58 H 0.6444 1.0345 0.4703
H59 H 0.5677 1.0175 0.3498
H60 H 0.5683 0.9790 0.5489
H61 H 0.6489 0.9361 -0.0122
H62 H 0.6152 0.9885 -0.0058
H63 H 0.6926 1.0091 0.1169
H64 H 0.6215 0.8891 0.5283
H65 H 0.6530 0.8751 0.3158
H66 H 0.6967 0.9468 0.4522
H67 H 0.1238 0.6849 0.0227
H68 H 0.1087 0.6237 -0.1496
H69 H 0.0530 0.6125 0.0308
H70 H 0.0593 0.5474 0.3040
H71 H 0.1179 0.5187 0.2839
H72 H 0.1339 0.5817 0.4499
Si2 Si 0.26273(6) 0.46407(6) 0.7787(2)
C27 C 0.2988(2) 0.5401(2) 0.6104(6)
C28 C 0.3846(2) 0.5704(2) 0.5867(6)
C29 C 0.4335(2) 0.5940(2) 0.7993(6)
C30 C 0.4178(2) 0.5293(2) 0.9199(6)
C31 C 0.3378(2) 0.4926(2) 0.9978(6)
C32 C 0.5185(2) 0.6409(2) 0.7763(6)
C33 C 0.5307(3) 0.7071(2) 0.6638(9)
C34 C 0.5605(3) 0.6684(3) 0.9962(9)
C35 C 0.5547(3) 0.6030(3) 0.6485(10)
C36 C 0.1681(2) 0.4444(3) 0.8853(8)
C37 C 0.1094(3) 0.4229(3) 0.7243(9)
C38 C 0.0564(3) 0.3570(3) 0.642(1)
C39 C 0.0053(4) 0.3455(4) 0.450(1)
C40 C 0.0488(4) 0.2929(4) 0.737(1)
C41 C 0.2519(2) 0.3841(2) 0.6133(6)
C42 C 0.2203(2) 0.3690(2) 0.4050(6)
C43 C 0.2053(2) 0.3081(2) 0.2798(6)
C44 C 0.2219(2) 0.2579(2) 0.3594(6)
C45 C 0.2061(2) 0.1922(2) 0.2250(7)
C46 C 0.1697(4) 0.1760(2) 0.0288(8)
C47 C 0.1544(4) 0.1128(3) -0.0969(9)
C48 C 0.1771(3) 0.0678(3) -0.017(1)
C49 C 0.2135(4) 0.0839(3) 0.170(1)
C50 C 0.2282(3) 0.1449(3) 0.296(1)
C51 C 0.2543(2) 0.2728(2) 0.5647(7)
C52 C 0.2688(2) 0.3336(2) 0.6889(6)
H10 H 0.2090 0.4047 0.3439
H11 H 0.1843 0.3008 0.1307
H12 H 0.1519 0.2091 -0.0314
H13 H 0.1290 0.1029 -0.2452
H14 H 0.1693 0.0250 -0.1016
H15 H 0.2276 0.0488 0.2365
H16 H 0.2521 0.1537 0.4503
H17 H 0.2684 0.2393 0.6273
H18 H 0.2920 0.3421 0.8353
H20 H 0.1096 0.4630 0.6552
H31 H 0.2721 0.5254 0.4667
H32 H 0.2880 0.5770 0.6695
H33 H 0.3943 0.5360 0.5059
H34 H 0.4018 0.6108 0.5007
H35 H 0.4252 0.4955 0.8283
H36 H 0.4550 0.5431 1.0423
H37 H 0.3319 0.5243 1.1069
H38 H 0.3318 0.4522 1.0741
H39 H 0.1520 0.4041 0.9819
H40 H 0.1707 0.4825 0.9856
H42 H 0.4151 0.6215 0.8873
H43 H 0.5531 0.6296 1.0821
H44 H 0.6133 0.6976 0.9949
H45 H 0.5394 0.6949 1.0812
H46 H 0.5830 0.7388 0.6502
H47 H 0.5061 0.6938 0.5189
H48 H 0.5079 0.7328 0.7387
H49 H -0.0228 0.3712 0.4624
H50 H 0.0379 0.3648 0.3232
H51 H -0.0282 0.2980 0.3988
H52 H 0.0347 0.2959 0.9003
H53 H 0.0087 0.2493 0.6839
H54 H 0.0945 0.2893 0.7577
H55 H 0.5488 0.5614 0.7106
H56 H 0.5307 0.5872 0.5025
H57 H 0.6080 0.6316 0.6323
loop_
_geom_bond_atom_site_label_1
_geom_bond_atom_site_label_2
_geom_bond_site_symmetry_1
_geom_bond_site_symmetry_2
Si1 C1 1_555 1_555
Si2 C27 1_555 1_555
C1 C2 1_555 1_555
C2 C3 1_555 1_555
C3 C4 1_555 1_555
C4 C5 1_555 1_555
C5 Si1 1_555 1_555
C6 C3 1_555 1_555
C7 C6 1_555 1_555
C8 C6 1_555 1_555
C9 C6 1_555 1_555
C10 Si1 1_555 1_555
C11 C10 1_555 1_555
C12 C11 1_555 1_555
C13 C12 1_555 1_555
C14 C12 1_555 1_555
C15 Si1 1_555 1_555
C16 C15 1_555 1_555
C17 C16 1_555 1_555
C18 C17 1_555 1_555
C19 C18 1_555 1_555
C20 C19 1_555 1_555
C21 C20 1_555 1_555
C22 C21 1_555 1_555
C23 C22 1_555 1_555
C24 C19 1_555 1_555
C25 C18 1_555 1_555
C26 C15 1_555 1_555
C27 C28 1_555 1_555
C28 C29 1_555 1_555
C29 C30 1_555 1_555
C30 C31 1_555 1_555
C31 Si2 1_555 1_555
C32 C29 1_555 1_555
C33 C32 1_555 1_555
C34 C32 1_555 1_555
C35 C32 1_555 1_555
C36 Si2 1_555 1_555
C37 C36 1_555 1_555
C38 C37 1_555 1_555
C39 C38 1_555 1_555
C40 C38 1_555 1_555
C41 Si2 1_555 1_555
C42 C41 1_555 1_555
C43 C42 1_555 1_555
C44 C43 1_555 1_555
C45 C44 1_555 1_555
C46 C45 1_555 1_555
C47 C46 1_555 1_555
C48 C47 1_555 1_555
C49 C48 1_555 1_555
C50 C45 1_555 1_555
C51 C44 1_555 1_555
C52 C41 1_555 1_555
H1 C16 1_555 1_555
H2 C17 1_555 1_555
H3 C20 1_555 1_555
H4 C21 1_555 1_555
H5 C22 1_555 1_555
H6 C23 1_555 1_555
H7 C24 1_555 1_555
H8 C25 1_555 1_555
H9 C26 1_555 1_555
H10 C42 1_555 1_555
H11 C43 1_555 1_555
H12 C46 1_555 1_555
H13 C47 1_555 1_555
H14 C48 1_555 1_555
H15 C49 1_555 1_555
H16 C50 1_555 1_555
H17 C51 1_555 1_555
H18 C52 1_555 1_555
H19 C11 1_555 1_555
H20 C37 1_555 1_555
H21 C1 1_555 1_555
H22 C1 1_555 1_555
H23 C2 1_555 1_555
H24 C2 1_555 1_555
H25 C4 1_555 1_555
H26 C4 1_555 1_555
H27 C5 1_555 1_555
H28 C5 1_555 1_555
H29 C10 1_555 1_555
H30 C10 1_555 1_555
H31 C27 1_555 1_555
H32 C27 1_555 1_555
H33 C28 1_555 1_555
H34 C28 1_555 1_555
H35 C30 1_555 1_555
H36 C30 1_555 1_555
H37 C31 1_555 1_555
H38 C31 1_555 1_555
H39 C36 1_555 1_555
H40 C36 1_555 1_555
H41 C3 1_555 1_555
H42 C29 1_555 1_555
H43 C34 1_555 1_555
H44 C34 1_555 1_555
H45 C34 1_555 1_555
H46 C33 1_555 1_555
H47 C33 1_555 1_555
H48 C33 1_555 1_555
H49 C39 1_555 1_555
H50 C39 1_555 1_555
H51 C39 1_555 1_555
H52 C40 1_555 1_555
H53 C40 1_555 1_555
H54 C40 1_555 1_555
H55 C35 1_555 1_555
H56 C35 1_555 1_555
H57 C35 1_555 1_555
H58 C7 1_555 1_555
H59 C7 1_555 1_555
H60 C7 1_555 1_555
H61 C8 1_555 1_555
H62 C8 1_555 1_555
H63 C8 1_555 1_555
H64 C9 1_555 1_555
H65 C9 1_555 1_555
H66 C9 1_555 1_555
H67 C13 1_555 1_555
H68 C13 1_555 1_555
H69 C13 1_555 1_555
H70 C14 1_555 1_555
H71 C14 1_555 1_555
H72 C14 1_555 1_555
C23 C24 1_555 1_555
C25 C26 1_555 1_555
C49 C50 1_555 1_555
C51 C52 1_555 1_555

#END
