
#######################################################################
#
#                 Cambridge Crystallographic Data Centre
#                                CCDC 
#
#######################################################################
#
# If this CIF has been generated from an entry in the Cambridge 
# Structural Database, then it will include bibliographic, chemical, 
# crystal, experimental, refinement or atomic coordinate data resulting 
# from the CCDC's data processing and validation procedures.
#
#######################################################################

data_KIPSOR
_chemical_formula_moiety         'C46 H68 O8 Se1 Si2'
_chemical_name_systematic        
'(4S)-5-Dehydroxy-3,4-dihydro-5-oxo-4-(phenylselenyl)-7,13-di-O-(trimethylsilyl)avermectin B1a aglycone'
_symmetry_cell_setting           orthorhombic
_symmetry_space_group_name_H-M   'P 21 21 21'
_symmetry_Int_Tables_number      19
_space_group_name_Hall           'P 2ac 2ab'
loop_
_symmetry_equiv_pos_site_id
_symmetry_equiv_pos_as_xyz
1 x,y,z
2 1/2+x,1/2-y,-z
3 -x,1/2+y,1/2-z
4 1/2-x,-y,1/2+z
_cell_length_a                   9.885(1)
_cell_length_b                   21.300(3)
_cell_length_c                   23.574(4)
_cell_angle_alpha                90
_cell_angle_beta                 90
_cell_angle_gamma                90
_cell_volume                     4963.52
_exptl_crystal_colour            white
_chemical_melting_point          186-190deg.C
_cell_formula_units_Z            4
loop_
_atom_site_label
_atom_site_type_symbol
_atom_site_fract_x
_atom_site_fract_y
_atom_site_fract_z
C1 C 0.0594(6) 0.1876(2) -0.1440(2)
O1 O -0.0373(5) 0.1576(2) -0.1302(2)
C2 C 0.0809(6) 0.2167(2) -0.2031(2)
C3 C -0.0276(7) 0.2635(3) -0.2185(3)
C4 C 0.0269(7) 0.3054(3) -0.2656(3)
C5 C 0.1273(7) 0.2715(3) -0.3015(2)
O2 O 0.2208(5) 0.2973(2) -0.3244(2)
C6 C 0.1081(7) 0.2017(3) -0.3078(2)
O3 O 0.2144(6) 0.1715(2) -0.3368(2)
C7 C 0.0906(6) 0.1668(2) -0.2501(2)
O4 O -0.0261(4) 0.1296(2) -0.2480(2)
C8 C 0.2198(6) 0.1292(2) -0.2459(2)
C9 C 0.2468(6) 0.0862(2) -0.2061(2)
C10 C 0.3701(6) 0.0509(2) -0.1976(2)
C11 C 0.3895(6) 0.0092(2) -0.1576(2)
C12 C 0.5153(6) -0.0287(3) -0.1491(2)
C13 C 0.5381(6) -0.0447(3) -0.0858(2)
O5 O 0.4374(5) -0.0874(2) -0.0673(2)
C14 C 0.5402(6) 0.0142(2) -0.0487(2)
C15 C 0.4507(7) 0.0234(3) -0.0082(2)
C16 C 0.4357(8) 0.0822(3) 0.0271(2)
C17 C 0.3036(7) 0.1159(3) 0.0152(2)
O6 O 0.2973(4) 0.1687(2) 0.0536(2)
C18 C 0.2927(7) 0.1380(3) -0.0458(2)
C19 C 0.1641(7) 0.1747(3) -0.0533(2)
O7 O 0.1645(4) 0.1997(2) -0.1113(1)
C20 C 0.1589(7) 0.2281(3) -0.0124(2)
C21 C 0.1761(7) 0.2055(3) 0.0487(2)
O8 O 0.0615(4) 0.1701(2) 0.0619(1)
C22 C 0.1940(8) 0.2598(3) 0.0882(2)
C23 C 0.1165(9) 0.2679(3) 0.1327(2)
C24 C 0.0118(8) 0.2221(3) 0.1507(2)
C25 C 0.0422(7) 0.1599(2) 0.1216(2)
C26 C -0.0633(8) 0.1086(3) 0.1275(3)
C27 C -0.0130(11) 0.0466(3) 0.1046(3)
C28 C 0.0960(16) 0.0173(4) 0.1333(5)
C29 C 0.0887(9) 0.3664(3) -0.2458(4)
Se1 Se -0.1319(1) 0.3226(1) -0.3154(1)
C30 C -0.0544(8) 0.3791(4) -0.3711(3)
C31 C -0.0525(9) 0.4417(4) -0.3609(4)
C32 C -0.0017(10) 0.4815(4) -0.4032(4)
C33 C 0.0370(11) 0.4603(5) -0.4530(4)
C34 C 0.0349(11) 0.3967(6) -0.4637(4)
C35 C -0.0133(10) 0.3543(5) -0.4219(4)
Si1 Si -0.1117(2) 0.0844(1) -0.2906(1)
C36 C -0.2129(9) 0.0345(4) -0.2441(4)
C37 C -0.2359(11) 0.1333(5) -0.3326(5)
C38 C -0.0042(11) 0.0381(4) -0.3362(4)
C39 C 0.3079(7) 0.1476(3) -0.2954(3)
C40 C 0.5151(8) -0.0883(3) -0.1846(3)
Si2 Si 0.4597(2) -0.1537(1) -0.0328(1)
C41 C 0.3210(13) -0.1578(5) 0.0190(4)
C42 C 0.4548(14) -0.2204(3) -0.0822(4)
C43 C 0.6243(12) -0.1553(5) 0.0034(5)
C44 C 0.6504(8) 0.0605(3) -0.0632(3)
C45 C 0.0087(11) 0.2149(4) 0.2156(3)
C46 C -0.1989(8) 0.1270(4) 0.0994(3)
H1 H 0.1655 0.2386 -0.2006
H2 H -0.1064 0.2418 -0.2320
H3 H -0.0511 0.2883 -0.1859
H4 H 0.0276 0.1996 -0.3306
H5 H 0.1748 0.0775 -0.1799
H6 H 0.4439 0.0591 -0.2231
H7 H 0.3162 0.0020 -0.1317
H8 H 0.5892 -0.0030 -0.1617
H9 H 0.6260 -0.0634 -0.0817
H10 H 0.3894 -0.0104 -0.0003
H11 H 0.4381 0.0707 0.0665
H12 H 0.5093 0.1102 0.0190
H13 H 0.2290 0.0877 0.0204
H14 H 0.2930 0.1026 -0.0709
H15 H 0.3686 0.1646 -0.0543
H16 H 0.0875 0.1479 -0.0468
H17 H 0.2300 0.2572 -0.0212
H18 H 0.0730 0.2488 -0.0159
H19 H 0.2638 0.2900 0.0805
H20 H 0.1286 0.3051 0.1550
H21 H -0.0766 0.2363 0.1399
H22 H 0.1216 0.1452 0.1410
H23 H -0.0785 0.1038 0.1675
H24 H 0.0139 0.0532 0.0660
H25 H -0.0879 0.0179 0.1057
H26 H 0.0937 -0.0217 0.1130
H27 H 0.1125 0.0093 0.1728
H28 H 0.1670 0.0433 0.1184
H29 H 0.1306 0.3976 -0.2693
H30 H 0.1509 0.3533 -0.2169
H31 H 0.0092 0.3837 -0.2284
H32 H -0.0850 0.4583 -0.3256
H33 H 0.0049 0.5258 -0.3960
H34 H 0.0684 0.4884 -0.4819
H35 H 0.0639 0.3809 -0.4999
H36 H -0.0166 0.3098 -0.4287
H37 H -0.2546 -0.0025 -0.2594
H38 H -0.2816 0.0621 -0.2298
H39 H -0.1528 0.0229 -0.2139
H40 H -0.2758 0.1004 -0.3549
H41 H -0.1929 0.1631 -0.3573
H42 H -0.3051 0.1540 -0.3110
H43 H -0.0620 0.0116 -0.3586
H44 H 0.0554 0.0124 -0.3139
H45 H 0.0482 0.0645 -0.3608
H46 H 0.3549 0.1116 -0.3099
H47 H 0.3722 0.1792 -0.2847
H48 H 0.5964 -0.1108 -0.1755
H49 H 0.5112 -0.0811 -0.2248
H50 H 0.4380 -0.1125 -0.1731
H51 H 0.3463 -0.1883 0.0471
H52 H 0.2644 -0.1773 -0.0090
H53 H 0.2725 -0.1242 0.0369
H54 H 0.4711 -0.2597 -0.0634
H55 H 0.4950 -0.2213 -0.1192
H56 H 0.3591 -0.2138 -0.0857
H57 H 0.6482 -0.1891 0.0283
H58 H 0.5781 -0.1232 0.0245
H59 H 0.7047 -0.1380 -0.0132
H60 H 0.7096 0.0376 -0.0880
H61 H 0.7032 0.0832 -0.0358
H62 H 0.5974 0.0895 -0.0850
H63 H -0.0730 0.1928 0.2250
H64 H 0.0045 0.2568 0.2304
H65 H 0.0848 0.1933 0.2317
H66 H -0.2618 0.0936 0.1067
H67 H -0.1849 0.1307 0.0592
H68 H -0.2346 0.1657 0.1139
loop_
_geom_bond_atom_site_label_1
_geom_bond_atom_site_label_2
_geom_bond_site_symmetry_1
_geom_bond_site_symmetry_2
C1 O1 1_555 1_555
C2 C1 1_555 1_555
C3 C2 1_555 1_555
C4 C3 1_555 1_555
C5 C4 1_555 1_555
O2 C5 1_555 1_555
C6 C5 1_555 1_555
O3 C6 1_555 1_555
C7 C2 1_555 1_555
O4 C7 1_555 1_555
C8 C7 1_555 1_555
C9 C8 1_555 1_555
C10 C9 1_555 1_555
C11 C10 1_555 1_555
C12 C11 1_555 1_555
C13 C12 1_555 1_555
O5 C13 1_555 1_555
C14 C13 1_555 1_555
C15 C14 1_555 1_555
C16 C15 1_555 1_555
C17 C16 1_555 1_555
O6 C17 1_555 1_555
C18 C17 1_555 1_555
C19 C18 1_555 1_555
O7 C1 1_555 1_555
C20 C19 1_555 1_555
C21 O6 1_555 1_555
O8 C21 1_555 1_555
C22 C21 1_555 1_555
C23 C22 1_555 1_555
C24 C23 1_555 1_555
C25 O8 1_555 1_555
C26 C25 1_555 1_555
C27 C26 1_555 1_555
C28 C27 1_555 1_555
C29 C4 1_555 1_555
Se1 C4 1_555 1_555
C30 Se1 1_555 1_555
C31 C30 1_555 1_555
C32 C31 1_555 1_555
C33 C32 1_555 1_555
C34 C33 1_555 1_555
C35 C30 1_555 1_555
Si1 O4 1_555 1_555
C36 Si1 1_555 1_555
C37 Si1 1_555 1_555
C38 Si1 1_555 1_555
C39 O3 1_555 1_555
C40 C12 1_555 1_555
Si2 O5 1_555 1_555
C41 Si2 1_555 1_555
C42 Si2 1_555 1_555
C43 Si2 1_555 1_555
C44 C14 1_555 1_555
C45 C24 1_555 1_555
C46 C26 1_555 1_555
H1 C2 1_555 1_555
H2 C3 1_555 1_555
H3 C3 1_555 1_555
H4 C6 1_555 1_555
H5 C9 1_555 1_555
H6 C10 1_555 1_555
H7 C11 1_555 1_555
H8 C12 1_555 1_555
H9 C13 1_555 1_555
H10 C15 1_555 1_555
H11 C16 1_555 1_555
H12 C16 1_555 1_555
H13 C17 1_555 1_555
H14 C18 1_555 1_555
H15 C18 1_555 1_555
H16 C19 1_555 1_555
H17 C20 1_555 1_555
H18 C20 1_555 1_555
H19 C22 1_555 1_555
H20 C23 1_555 1_555
H21 C24 1_555 1_555
H22 C25 1_555 1_555
H23 C26 1_555 1_555
H24 C27 1_555 1_555
H25 C27 1_555 1_555
H26 C28 1_555 1_555
H27 C28 1_555 1_555
H28 C28 1_555 1_555
H29 C29 1_555 1_555
H30 C29 1_555 1_555
H31 C29 1_555 1_555
H32 C31 1_555 1_555
H33 C32 1_555 1_555
H34 C33 1_555 1_555
H35 C34 1_555 1_555
H36 C35 1_555 1_555
H37 C36 1_555 1_555
H38 C36 1_555 1_555
H39 C36 1_555 1_555
H40 C37 1_555 1_555
H41 C37 1_555 1_555
H42 C37 1_555 1_555
H43 C38 1_555 1_555
H44 C38 1_555 1_555
H45 C38 1_555 1_555
H46 C39 1_555 1_555
H47 C39 1_555 1_555
H48 C40 1_555 1_555
H49 C40 1_555 1_555
H50 C40 1_555 1_555
H51 C41 1_555 1_555
H52 C41 1_555 1_555
H53 C41 1_555 1_555
H54 C42 1_555 1_555
H55 C42 1_555 1_555
H56 C42 1_555 1_555
H57 C43 1_555 1_555
H58 C43 1_555 1_555
H59 C43 1_555 1_555
H60 C44 1_555 1_555
H61 C44 1_555 1_555
H62 C44 1_555 1_555
H63 C45 1_555 1_555
H64 C45 1_555 1_555
H65 C45 1_555 1_555
H66 C46 1_555 1_555
H67 C46 1_555 1_555
H68 C46 1_555 1_555
C6 C7 1_555 1_555
C8 C39 1_555 1_555
C19 O7 1_555 1_555
C20 C21 1_555 1_555
C24 C25 1_555 1_555
C34 C35 1_555 1_555

#END
