
#######################################################################
#
#                 Cambridge Crystallographic Data Centre
#                                CCDC 
#
#######################################################################
#
# If this CIF has been generated from an entry in the Cambridge 
# Structural Database, then it will include bibliographic, chemical, 
# crystal, experimental, refinement or atomic coordinate data resulting 
# from the CCDC's data processing and validation procedures.
#
#######################################################################

data_KIPWAK
_chemical_formula_moiety         'C15 H21 N1 O4 S1'
_chemical_name_systematic        
'(3-ethyl-2-oxopiperidin-3-yl)methyl 4-methylbenzene-1-sulfonate'
_symmetry_cell_setting           orthorhombic
_symmetry_space_group_name_H-M   'P 21 21 21'
_symmetry_Int_Tables_number      19
_space_group_name_Hall           'P 2ac 2ab'
loop_
_symmetry_equiv_pos_site_id
_symmetry_equiv_pos_as_xyz
1 x,y,z
2 1/2-x,-y,1/2+z
3 1/2+x,1/2-y,-z
4 -x,1/2+y,1/2-z
_cell_length_a                   7.6914(4)
_cell_length_b                   12.7329(8)
_cell_length_c                   15.9721(10)
_cell_angle_alpha                90
_cell_angle_beta                 90
_cell_angle_gamma                90
_cell_volume                     1564.21
_exptl_crystal_colour            colorless
_exptl_crystal_description       block
_cell_formula_units_Z            4
loop_
_atom_site_label
_atom_site_type_symbol
_atom_site_fract_x
_atom_site_fract_y
_atom_site_fract_z
S1 S 0.02564(6) 1.10299(4) 0.70789(3)
O1 O 0.13343(16) 1.08591(11) 0.79027(8)
O2 O -0.0302(2) 1.00435(13) 0.67517(10)
O3 O 0.1213(2) 1.18207(12) 0.96744(11)
O4 O 0.13473(19) 1.16837(15) 0.65798(10)
N1 N 0.4041(3) 1.14000(14) 0.97552(12)
C1 C 0.2389(3) 1.11824(14) 0.95643(11)
C2 C -0.1573(2) 1.17350(15) 0.74089(11)
C3 C 0.1956(2) 1.00786(14) 0.92400(10)
C4 C -0.4634(3) 1.20192(17) 0.73324(16)
H1 H -0.5718 1.1833 0.7121
C5 C -0.1405(3) 1.25837(16) 0.79490(14)
H2 H -0.0319 1.2778 0.8152
C6 C -0.4500(3) 1.28593(15) 0.78815(14)
C7 C 0.1092(3) 0.94948(16) 0.99856(13)
H3 H 0.1884 0.9519 1.0458
H4 H 0.0053 0.9877 1.0144
C8 C 0.0599(3) 1.01776(16) 0.85513(11)
H5 H 0.0330 0.9492 0.8320
H6 H -0.0463 1.0481 0.8773
C9 C 0.3586(3) 0.95207(16) 0.89039(13)
H7 H 0.3326 0.8784 0.8814
H8 H 0.3907 0.9825 0.8369
C10 C -0.3181(3) 1.14564(15) 0.70959(16)
H9 H -0.3285 1.0894 0.6728
C11 C -0.2870(3) 1.31315(17) 0.81787(13)
H10 H -0.2764 1.3698 0.8542
C12 C 0.5102(3) 0.96155(17) 0.95032(14)
H11 H 0.4791 0.9314 1.0040
H12 H 0.6093 0.9232 0.9285
C13 C 0.5573(3) 1.07538(19) 0.96127(16)
H13 H 0.6359 1.0825 1.0084
H14 H 0.6173 1.1000 0.9116
C14 C -0.6096(3) 1.3466(2) 0.8142(2)
H15 H -0.7103 1.3169 0.7877
H16 H -0.6227 1.3427 0.8739
H17 H -0.5974 1.4187 0.7976
C15 C 0.0595(5) 0.8360(2) 0.9835(2)
H18 H 0.0076 0.8076 1.0333
H19 H -0.0221 0.8322 0.9381
H20 H 0.1616 0.7963 0.9696
H21 H 0.429(4) 1.205(2) 0.9951(18)
loop_
_geom_bond_atom_site_label_1
_geom_bond_atom_site_label_2
_geom_bond_site_symmetry_1
_geom_bond_site_symmetry_2
S1 O1 1_555 1_555
O1 C8 1_555 1_555
O2 S1 1_555 1_555
O3 C1 1_555 1_555
O4 S1 1_555 1_555
N1 C1 1_555 1_555
C1 C3 1_555 1_555
C2 S1 1_555 1_555
C3 C7 1_555 1_555
C4 H1 1_555 1_555
C5 C2 1_555 1_555
H2 C5 1_555 1_555
C6 C4 1_555 1_555
C7 H3 1_555 1_555
H4 C7 1_555 1_555
C8 C3 1_555 1_555
H5 C8 1_555 1_555
H6 C8 1_555 1_555
C9 C3 1_555 1_555
H7 C9 1_555 1_555
H8 C9 1_555 1_555
C10 C2 1_555 1_555
H9 C10 1_555 1_555
C11 C5 1_555 1_555
H10 C11 1_555 1_555
C12 C9 1_555 1_555
H11 C12 1_555 1_555
H12 C12 1_555 1_555
C13 N1 1_555 1_555
H13 C13 1_555 1_555
H14 C13 1_555 1_555
C14 C6 1_555 1_555
H15 C14 1_555 1_555
H16 C14 1_555 1_555
H17 C14 1_555 1_555
C15 C7 1_555 1_555
H18 C15 1_555 1_555
H19 C15 1_555 1_555
H20 C15 1_555 1_555
H21 N1 1_555 1_555
C4 C10 1_555 1_555
C6 C11 1_555 1_555
C12 C13 1_555 1_555

#END
