
#######################################################################
#
#                 Cambridge Crystallographic Data Centre
#                                CCDC 
#
#######################################################################
#
# If this CIF has been generated from an entry in the Cambridge 
# Structural Database, then it will include bibliographic, chemical, 
# crystal, experimental, refinement or atomic coordinate data resulting 
# from the CCDC's data processing and validation procedures.
#
#######################################################################

data_KIQGOJ
_chemical_formula_moiety         'C11 H7 Cl2 N3 O1'
_chemical_name_systematic        N-(4,6-dichloropyrimidin-2-yl)benzamide
_symmetry_cell_setting           monoclinic
_symmetry_space_group_name_H-M   'P 21/c'
_symmetry_Int_Tables_number      14
_space_group_name_Hall           '-P 2ybc'
loop_
_symmetry_equiv_pos_site_id
_symmetry_equiv_pos_as_xyz
1 x,y,z
2 -x,1/2+y,1/2-z
3 -x,-y,-z
4 x,1/2-y,1/2+z
_cell_length_a                   14.9156(6)
_cell_length_b                   16.6291(8)
_cell_length_c                   14.4740(6)
_cell_angle_alpha                90
_cell_angle_beta                 95.160(2)
_cell_angle_gamma                90
_cell_volume                     3575.48
_exptl_crystal_colour            colorless
_exptl_crystal_description       prismatic
_cell_formula_units_Z            12
loop_
_atom_site_label
_atom_site_type_symbol
_atom_site_fract_x
_atom_site_fract_y
_atom_site_fract_z
Cl1 Cl 0.94380(11) 0.21725(10) 0.22641(13)
Cl2 Cl 0.58730(11) 0.21523(10) 0.25178(15)
N1 N 0.7700(2) 0.4629(3) 0.2492(3)
H1 H 0.8209 0.4832 0.2381
N2 N 0.8449(3) 0.3438(3) 0.2396(3)
N3 N 0.6867(3) 0.3431(3) 0.2488(3)
O1 O 0.6313(2) 0.4943(2) 0.2882(3)
C1 C 0.7046(3) 0.5172(3) 0.2671(3)
C2 C 0.7650(3) 0.3803(3) 0.2467(3)
C3 C 0.8418(3) 0.2653(4) 0.2354(3)
C4 C 0.7650(4) 0.2186(3) 0.2383(3)
H2 H 0.7650 0.1627 0.2354
C5 C 0.6892(3) 0.2640(3) 0.2460(3)
C6 C 0.7270(3) 0.6037(3) 0.2610(3)
C7 C 0.6744(3) 0.6577(3) 0.3067(4)
H3 H 0.6284 0.6386 0.3401
C8 C 0.6902(5) 0.7380(4) 0.3024(5)
H4 H 0.6560 0.7738 0.3340
C9 C 0.7566(5) 0.7661(4) 0.2516(5)
H5 H 0.7664 0.8212 0.2486
C10 C 0.8087(4) 0.7155(4) 0.2055(4)
H6 H 0.8530 0.7361 0.1708
C11 C 0.7955(3) 0.6333(4) 0.2101(4)
H7 H 0.8315 0.5982 0.1799
Cl3 Cl 0.58449(11) 0.65974(11) 0.56427(11)
Cl4 Cl 0.22702(11) 0.62282(14) 0.51709(13)
N4 N 0.4351(3) 0.5122(2) 0.3031(3)
H8 H 0.4902 0.5046 0.2920
N5 N 0.4986(3) 0.5811(2) 0.4299(3)
N6 N 0.3393(3) 0.5648(3) 0.4085(3)
O2 O 0.2913(2) 0.4828(3) 0.2502(3)
C12 C 0.3717(3) 0.4821(3) 0.2399(3)
C13 C 0.4218(3) 0.5541(3) 0.3840(3)
C14 C 0.4873(4) 0.6222(3) 0.5046(4)
C15 C 0.4065(4) 0.6378(4) 0.5383(4)
H9 H 0.4010 0.6671 0.5923
C16 C 0.3343(4) 0.6065(4) 0.4853(4)
C17 C 0.4049(3) 0.4474(3) 0.1544(3)
C18 C 0.3462(4) 0.4493(5) 0.0762(4)
H10 H 0.2895 0.4719 0.0786
C19 C 0.3708(6) 0.4178(6) -0.0066(5)
H11 H 0.3315 0.4207 -0.0601
C20 C 0.4551(6) 0.3817(5) -0.0089(5)
H12 H 0.4734 0.3614 -0.0640
C21 C 0.5091(5) 0.3770(5) 0.0702(5)
H13 H 0.5640 0.3505 0.0698
C22 C 0.4860(4) 0.4099(4) 0.1518(4)
H14 H 0.5255 0.4065 0.2052
Cl5 Cl 0.24891(12) 0.65332(14) -0.00751(12)
Cl6 Cl -0.11094(11) 0.62628(11) -0.03114(10)
N7 N 0.0935(2) 0.5126(2) 0.2239(3)
H15 H 0.1476 0.4964 0.2392
N8 N 0.1588(3) 0.5806(3) 0.1110(3)
N9 N -0.0010(3) 0.5670(2) 0.1009(3)
O3 O -0.0469(2) 0.5140(3) 0.2684(3)
C23 C 0.0319(3) 0.4929(3) 0.2837(4)
C24 C 0.0812(3) 0.5554(3) 0.1414(3)
C25 C 0.1490(4) 0.6209(4) 0.0324(4)
C26 C 0.0686(4) 0.6365(4) -0.0173(4)
H16 H 0.0641 0.6635 -0.0738
C27 C -0.0041(4) 0.6089(3) 0.0232(3)
C28 C 0.0627(2) 0.4463(2) 0.3678(2)
C29 C -0.00389(17) 0.4122(3) 0.4166(3)
H17 H -0.0642 0.4181 0.3951
C30 C 0.0196(3) 0.3693(3) 0.4976(3)
H18 H -0.0249 0.3466 0.5302
C31 C 0.1098(3) 0.3605(3) 0.5297(2)
H19 H 0.1255 0.3318 0.5839
C32 C 0.1763(2) 0.3946(3) 0.4809(3)
H20 H 0.2366 0.3887 0.5024
C33 C 0.15278(18) 0.4375(3) 0.3999(2)
H21 H 0.1973 0.4602 0.3673
loop_
_geom_bond_atom_site_label_1
_geom_bond_atom_site_label_2
_geom_bond_site_symmetry_1
_geom_bond_site_symmetry_2
Cl1 C3 1_555 1_555
Cl2 C5 1_555 1_555
N1 H1 1_555 1_555
N2 C2 1_555 1_555
N3 C2 1_555 1_555
O1 C1 1_555 1_555
C1 N1 1_555 1_555
C2 N1 1_555 1_555
C3 N2 1_555 1_555
C4 C3 1_555 1_555
H2 C4 1_555 1_555
C5 N3 1_555 1_555
C6 C1 1_555 1_555
C7 C6 1_555 1_555
H3 C7 1_555 1_555
C8 C7 1_555 1_555
H4 C8 1_555 1_555
C9 C8 1_555 1_555
H5 C9 1_555 1_555
C10 C9 1_555 1_555
H6 C10 1_555 1_555
C11 C6 1_555 1_555
H7 C11 1_555 1_555
Cl3 C14 1_555 1_555
Cl4 C16 1_555 1_555
N4 H8 1_555 1_555
N5 C13 1_555 1_555
N6 C13 1_555 1_555
O2 C12 1_555 1_555
C12 N4 1_555 1_555
C13 N4 1_555 1_555
C14 N5 1_555 1_555
C15 C14 1_555 1_555
H9 C15 1_555 1_555
C16 N6 1_555 1_555
C17 C12 1_555 1_555
C18 C17 1_555 1_555
H10 C18 1_555 1_555
C19 C18 1_555 1_555
H11 C19 1_555 1_555
C20 C19 1_555 1_555
H12 C20 1_555 1_555
C21 C20 1_555 1_555
H13 C21 1_555 1_555
C22 C17 1_555 1_555
H14 C22 1_555 1_555
Cl5 C25 1_555 1_555
Cl6 C27 1_555 1_555
N7 H15 1_555 1_555
N8 C24 1_555 1_555
N9 C24 1_555 1_555
O3 C23 1_555 1_555
C23 N7 1_555 1_555
C24 N7 1_555 1_555
C25 N8 1_555 1_555
C26 C25 1_555 1_555
H16 C26 1_555 1_555
C27 N9 1_555 1_555
C28 C23 1_555 1_555
C29 C28 1_555 1_555
H17 C29 1_555 1_555
C30 C29 1_555 1_555
H18 C30 1_555 1_555
C31 C30 1_555 1_555
H19 C31 1_555 1_555
C32 C31 1_555 1_555
H20 C32 1_555 1_555
C33 C28 1_555 1_555
H21 C33 1_555 1_555
C4 C5 1_555 1_555
C10 C11 1_555 1_555
C15 C16 1_555 1_555
C21 C22 1_555 1_555
C26 C27 1_555 1_555
C32 C33 1_555 1_555

#END
