
#######################################################################
#
#                 Cambridge Crystallographic Data Centre
#                                CCDC 
#
#######################################################################
#
# If this CIF has been generated from an entry in the Cambridge 
# Structural Database, then it will include bibliographic, chemical, 
# crystal, experimental, refinement or atomic coordinate data resulting 
# from the CCDC's data processing and validation procedures.
#
#######################################################################

data_KIQGIC
_chemical_formula_moiety         'C32 H50 F6 N2 O1 Si5'
_chemical_name_systematic        
2,3-bis(4-(trifluoromethyl)phenyl)-6,6,9,9-tetrakis(trimethylsilyl)-1,4-diaza-5-silaspiro[4.4]non-3-en-2-ol
_symmetry_cell_setting           triclinic
_symmetry_space_group_name_H-M   'P -1'
_symmetry_Int_Tables_number      2
_space_group_name_Hall           '-P 1'
loop_
_symmetry_equiv_pos_site_id
_symmetry_equiv_pos_as_xyz
1 x,y,z
2 -x,-y,-z
_cell_length_a                   11.9145(7)
_cell_length_b                   13.3510(8)
_cell_length_c                   14.5688(9)
_cell_angle_alpha                115.7100(10)
_cell_angle_beta                 108.8790(10)
_cell_angle_gamma                90.4120(10)
_cell_volume                     1945.89
_cell_formula_units_Z            2
loop_
_atom_site_label
_atom_site_type_symbol
_atom_site_fract_x
_atom_site_fract_y
_atom_site_fract_z
Si1 Si 0.67061(5) 0.65874(4) 0.38610(4)
Si2 Si 0.39357(6) 0.68732(5) 0.36609(6)
Si3 Si 0.51649(6) 0.77462(6) 0.24991(6)
Si4 Si 0.94672(5) 0.77632(5) 0.49441(6)
Si5 Si 0.81745(7) 0.75990(6) 0.64337(5)
N1 N 0.72057(15) 0.59991(13) 0.27474(14)
N2 N 0.63916(16) 0.52846(13) 0.37864(14)
H1 H 0.6032 0.5183 0.4173
O1 O 0.77595(16) 0.39792(15) 0.35721(15)
F1 F 0.2091(8) 0.0851(9) -0.0948(6)
F2 F 0.2266(14) 0.0352(13) 0.0380(15)
F3 F 0.3202(9) -0.0265(9) -0.0681(15)
F4 F 0.9394(9) 0.261(2) -0.1348(7)
F5 F 1.0034(19) 0.1731(11) -0.044(2)
F6 F 1.0911(7) 0.3284(8) -0.0005(10)
C1 C 0.54558(18) 0.74345(16) 0.37158(17)
C2 C 0.6027(2) 0.85783(17) 0.48084(19)
H2 H 0.5714 0.9198 0.4690
H3 H 0.5796 0.8546 0.5376
C3 C 0.7411(2) 0.87993(17) 0.5189(2)
H4 H 0.7742 0.9394 0.5938
H5 H 0.7646 0.9053 0.4736
C4 C 0.79430(18) 0.77010(16) 0.51174(17)
C5 C 0.3960(3) 0.6075(3) 0.4449(4)
H6 H 0.3158 0.5895 0.4408
H7 H 0.4470 0.6529 0.5199
H8 H 0.4265 0.5390 0.4144
C6 C 0.2890(3) 0.5876(3) 0.2265(3)
H9 H 0.2117 0.5711 0.2288
H10 H 0.3206 0.5190 0.1999
H11 H 0.2807 0.6210 0.1786
C7 C 0.3171(3) 0.8077(3) 0.4270(4)
H12 H 0.3173 0.8578 0.3956
H13 H 0.3594 0.8479 0.5046
H14 H 0.2356 0.7791 0.4119
C8 C 0.4825(3) 0.6448(3) 0.1165(2)
H15 H 0.4503 0.6635 0.0576
H16 H 0.4246 0.5893 0.1098
H17 H 0.5552 0.6151 0.1138
C9 C 0.3891(3) 0.8558(3) 0.2371(3)
H18 H 0.3792 0.8740 0.1783
H19 H 0.4069 0.9242 0.3041
H20 H 0.3162 0.8108 0.2223
C10 C 0.6443(3) 0.8684(3) 0.2642(3)
H21 H 0.7125 0.8306 0.2641
H22 H 0.6651 0.9368 0.3317
H23 H 0.6210 0.8862 0.2042
C11 C 0.9458(2) 0.8265(3) 0.3934(3)
H24 H 0.9249 0.9006 0.4162
H25 H 0.8877 0.7756 0.3230
H26 H 1.0243 0.8293 0.3889
C12 C 1.0704(3) 0.8767(3) 0.6238(3)
H27 H 1.1396 0.8896 0.6077
H28 H 1.0914 0.8450 0.6737
H29 H 1.0436 0.9469 0.6563
C13 C 1.0008(2) 0.6378(2) 0.4492(2)
H30 H 0.9629 0.5940 0.3713
H31 H 0.9808 0.5977 0.4843
H32 H 1.0866 0.6509 0.4687
C14 C 0.8902(4) 0.8994(3) 0.7673(3)
H33 H 0.8419 0.9555 0.7628
H34 H 0.9690 0.9212 0.7707
H35 H 0.8969 0.8927 0.8318
C15 C 0.9074(3) 0.6494(3) 0.6558(3)
H36 H 0.9087 0.6424 0.7190
H37 H 0.9882 0.6704 0.6631
H38 H 0.8714 0.5784 0.5916
C16 C 0.6757(3) 0.7219(3) 0.6577(3)
H39 H 0.6945 0.7192 0.7257
H40 H 0.6340 0.6493 0.5983
H41 H 0.6255 0.7776 0.6563
C17 C 0.67769(19) 0.43857(17) 0.30293(17)
C18 C 0.72383(17) 0.49528(16) 0.24492(16)
C19 C 0.78222(18) 0.43137(17) 0.16547(17)
C20 C 0.7897(2) 0.31808(18) 0.1308(2)
H42 H 0.7513 0.2764 0.1526
C21 C 0.8542(2) 0.2662(2) 0.0635(2)
H43 H 0.8585 0.1900 0.0404
C22 C 0.9110(2) 0.3264(2) 0.0314(2)
C23 C 0.9022(3) 0.4382(2) 0.0633(3)
H44 H 0.9401 0.4791 0.0405
C24 C 0.8374(3) 0.4901(2) 0.1293(2)
H45 H 0.8310 0.5655 0.1495
C25 C 0.57694(19) 0.33752(16) 0.22404(18)
C26 C 0.4825(2) 0.3446(2) 0.1443(2)
H46 H 0.4795 0.4121 0.1400
C27 C 0.3915(3) 0.2531(3) 0.0700(2)
H47 H 0.3287 0.2592 0.0158
C28 C 0.3938(3) 0.1545(2) 0.0760(3)
C29 C 0.4868(3) 0.1457(2) 0.1561(3)
H48 H 0.4878 0.0783 0.1607
C30 C 0.5791(3) 0.2365(2) 0.2302(3)
H49 H 0.6422 0.2298 0.2838
C31 C 0.9855(3) 0.2720(3) -0.0361(3)
C32 C 0.2956(4) 0.0548(3) -0.0052(4)
H50 H 0.825(4) 0.467(3) 0.423(3)
F7? F 1.000(3) 0.3166(11) -0.092(2)
F8? F 0.9527(15) 0.1695(8) -0.0967(14)
F9? F 1.0996(10) 0.284(2) 0.0383(11)
F10? F 0.1996(7) 0.0598(12) 0.0074(12)
F11? F 0.3345(10) -0.0436(7) 0.0115(10)
F12? F 0.2874(16) 0.0215(11) -0.0975(6)
loop_
_geom_bond_atom_site_label_1
_geom_bond_atom_site_label_2
_geom_bond_site_symmetry_1
_geom_bond_site_symmetry_2
Si1 N1 1_555 1_555
Si2 C1 1_555 1_555
Si3 C1 1_555 1_555
Si4 C4 1_555 1_555
Si5 C4 1_555 1_555
N1 C18 1_555 1_555
N2 Si1 1_555 1_555
H1 N2 1_555 1_555
O1 C17 1_555 1_555
F1 C32 1_555 1_555
F2 C32 1_555 1_555
F3 C32 1_555 1_555
F4 C31 1_555 1_555
F5 C31 1_555 1_555
F6 C31 1_555 1_555
C1 Si1 1_555 1_555
C2 C1 1_555 1_555
H2 C2 1_555 1_555
H3 C2 1_555 1_555
C3 C2 1_555 1_555
H4 C3 1_555 1_555
H5 C3 1_555 1_555
C4 Si1 1_555 1_555
C5 Si2 1_555 1_555
H6 C5 1_555 1_555
H7 C5 1_555 1_555
H8 C5 1_555 1_555
C6 Si2 1_555 1_555
H9 C6 1_555 1_555
H10 C6 1_555 1_555
H11 C6 1_555 1_555
C7 Si2 1_555 1_555
H12 C7 1_555 1_555
H13 C7 1_555 1_555
H14 C7 1_555 1_555
C8 Si3 1_555 1_555
H15 C8 1_555 1_555
H16 C8 1_555 1_555
H17 C8 1_555 1_555
C9 Si3 1_555 1_555
H18 C9 1_555 1_555
H19 C9 1_555 1_555
H20 C9 1_555 1_555
C10 Si3 1_555 1_555
H21 C10 1_555 1_555
H22 C10 1_555 1_555
H23 C10 1_555 1_555
C11 Si4 1_555 1_555
H24 C11 1_555 1_555
H25 C11 1_555 1_555
H26 C11 1_555 1_555
C12 Si4 1_555 1_555
H27 C12 1_555 1_555
H28 C12 1_555 1_555
H29 C12 1_555 1_555
C13 Si4 1_555 1_555
H30 C13 1_555 1_555
H31 C13 1_555 1_555
H32 C13 1_555 1_555
C14 Si5 1_555 1_555
H33 C14 1_555 1_555
H34 C14 1_555 1_555
H35 C14 1_555 1_555
C15 Si5 1_555 1_555
H36 C15 1_555 1_555
H37 C15 1_555 1_555
H38 C15 1_555 1_555
C16 Si5 1_555 1_555
H39 C16 1_555 1_555
H40 C16 1_555 1_555
H41 C16 1_555 1_555
C17 N2 1_555 1_555
C18 C17 1_555 1_555
C19 C18 1_555 1_555
C20 C19 1_555 1_555
H42 C20 1_555 1_555
C21 C20 1_555 1_555
H43 C21 1_555 1_555
C22 C21 1_555 1_555
C23 C22 1_555 1_555
H44 C23 1_555 1_555
C24 C19 1_555 1_555
H45 C24 1_555 1_555
C25 C17 1_555 1_555
C26 C25 1_555 1_555
H46 C26 1_555 1_555
C27 C26 1_555 1_555
H47 C27 1_555 1_555
C28 C27 1_555 1_555
C29 C28 1_555 1_555
H48 C29 1_555 1_555
C30 C25 1_555 1_555
H49 C30 1_555 1_555
C31 C22 1_555 1_555
C32 C28 1_555 1_555
H50 O1 1_555 1_555
C3 C4 1_555 1_555
C23 C24 1_555 1_555
C29 C30 1_555 1_555

#END
