
#######################################################################
#
#                 Cambridge Crystallographic Data Centre
#                                CCDC 
#
#######################################################################
#
# If this CIF has been generated from an entry in the Cambridge 
# Structural Database, then it will include bibliographic, chemical, 
# crystal, experimental, refinement or atomic coordinate data resulting 
# from the CCDC's data processing and validation procedures.
#
#######################################################################

data_KIQWAL
_chemical_compound_source        'isolated from the roots of Xylopia vielana'
_chemical_name_common            'xylopside A'
_chemical_formula_moiety         'C30 H38 O3'
_chemical_name_systematic        
1,7,11b,14-tetramethyl-4,10-bis(propan-2-ylidene)-4,5,5b,7,8,10,11,11b,12,12a-decahydro-1H-5a,12-ethenoazuleno[2,1-a]azulene-3,6,9(2H)-trione
_symmetry_cell_setting           triclinic
_symmetry_space_group_name_H-M   'P 1'
_symmetry_Int_Tables_number      1
_space_group_name_Hall           'P 1'
loop_
_symmetry_equiv_pos_site_id
_symmetry_equiv_pos_as_xyz
1 x,y,z
_cell_length_a                   7.865(4)
_cell_length_b                   8.240(5)
_cell_length_c                   10.747(7)
_cell_angle_alpha                100.15(3)
_cell_angle_beta                 96.10(4)
_cell_angle_gamma                112.36(4)
_cell_volume                     622.444
_exptl_crystal_colour            colorless
_exptl_crystal_description       block
_cell_formula_units_Z            1
loop_
_atom_site_label
_atom_site_type_symbol
_atom_site_fract_x
_atom_site_fract_y
_atom_site_fract_z
O1 O 0.2601(5) 0.2704(6) 0.0166(4)
C1 C 0.3204(5) 0.2057(5) 0.0954(3)
C2 C 0.5220(5) 0.2769(5) 0.1536(3)
O2 O 0.0806(3) 0.3613(4) 0.4910(3)
C3 C 0.5626(5) 0.2416(5) 0.2856(3)
H1 H 0.5325 0.1138 0.2753
H2 H 0.6956 0.3067 0.3204
O3 O 0.7514(5) 0.8872(7) 0.9731(3)
C4 C 0.4552(4) 0.2965(4) 0.3818(3)
C5 C 0.2699(4) 0.2534(4) 0.3673(3)
C6 C 0.1134(5) 0.1313(5) 0.2562(4)
H3 H 0.0501 0.2034 0.2266
C7 C 0.1836(5) 0.0560(5) 0.1424(4)
H4 H 0.2438 -0.0192 0.1682
H5 H 0.0782 -0.0187 0.0730
C8 C 0.4129(4) 0.4637(4) 0.5749(3)
H6 H 0.4043 0.4297 0.6577
C9 C 0.5631(4) 0.4174(4) 0.5125(3)
C10 C 0.2318(4) 0.3567(4) 0.4797(3)
C11 C 0.7082(4) 0.6095(4) 0.5065(3)
H7 H 0.8331 0.6180 0.4952
C12 C 0.6993(4) 0.7237(4) 0.6346(3)
H8 H 0.7182 0.6675 0.7049
C13 C 0.4869(4) 0.6745(4) 0.5942(3)
C14 C 0.3965(5) 0.7632(5) 0.6861(3)
H9 H 0.4208 0.8828 0.6727
H10 H 0.2621 0.6935 0.6654
C15 C 0.4652(5) 0.7798(5) 0.8262(3)
C16 C 0.6683(5) 0.8958(6) 0.8743(4)
C17 C 0.7748(6) 1.0198(5) 0.7952(4)
H11 H 0.8897 1.1103 0.8502
H12 H 0.7006 1.0820 0.7670
C18 C 0.8258(5) 0.9258(5) 0.6743(4)
H13 H 0.8054 0.9799 0.6031
C19 C -0.0317(6) -0.0237(6) 0.2988(4)
H14 H -0.1298 -0.0988 0.2265
H15 H -0.0837 0.0250 0.3651
H16 H 0.0276 -0.0942 0.3314
C20 C 0.6583(6) 0.3602(5) 0.0921(4)
C21 C 0.6227(8) 0.3838(7) -0.0438(4)
H17 H 0.7084 0.3555 -0.0914
H18 H 0.6407 0.5065 -0.0405
H19 H 0.4965 0.3043 -0.0853
C22 C 0.8633(6) 0.4398(8) 0.1496(6)
H20 H 0.9227 0.3720 0.1040
H21 H 0.8792 0.4354 0.2386
H22 H 0.9193 0.5630 0.1430
C23 C 0.6106(5) 0.6730(4) 0.4098(3)
H23 H 0.6380 0.6844 0.3289
C24 C 0.4783(4) 0.7098(4) 0.4601(3)
C25 C 0.3317(6) 0.7609(6) 0.3986(4)
H24 H 0.3501 0.7728 0.3132
H25 H 0.3416 0.8737 0.4488
H26 H 0.2098 0.6689 0.3942
C26 C 1.0319(6) 0.9571(7) 0.7002(5)
H27 H 1.0629 0.9052 0.6233
H28 H 1.0539 0.9014 0.7679
H29 H 1.1086 1.0844 0.7255
C27 C 0.3518(5) 0.6980(5) 0.9033(4)
C28 C 0.4107(7) 0.7240(7) 1.0447(4)
H30 H 0.4389 0.6250 1.0604
H31 H 0.3111 0.7289 1.0876
H32 H 0.5200 0.8349 1.0771
C29 C 0.1500(6) 0.5720(7) 0.8543(5)
H33 H 0.1283 0.5321 0.7623
H34 H 0.0720 0.6336 0.8773
H35 H 0.1207 0.4695 0.8919
C30 C 0.6546(5) 0.3204(5) 0.5871(4)
H36 H 0.5596 0.2120 0.5985
H37 H 0.7219 0.3981 0.6698
H38 H 0.7397 0.2903 0.5399
loop_
_geom_bond_atom_site_label_1
_geom_bond_atom_site_label_2
_geom_bond_site_symmetry_1
_geom_bond_site_symmetry_2
O1 C1 1_555 1_555
C1 C2 1_555 1_555
C2 C3 1_555 1_555
O2 C10 1_555 1_555
C3 H1 1_555 1_555
H2 C3 1_555 1_555
O3 C16 1_555 1_555
C4 C3 1_555 1_555
C5 C4 1_555 1_555
C6 C5 1_555 1_555
H3 C6 1_555 1_555
C7 C1 1_555 1_555
H4 C7 1_555 1_555
H5 C7 1_555 1_555
C8 H6 1_555 1_555
C9 C4 1_555 1_555
C10 C5 1_555 1_555
C11 C9 1_555 1_555
H7 C11 1_555 1_555
C12 C11 1_555 1_555
H8 C12 1_555 1_555
C13 C8 1_555 1_555
C14 C13 1_555 1_555
H9 C14 1_555 1_555
H10 C14 1_555 1_555
C15 C14 1_555 1_555
C16 C15 1_555 1_555
C17 C16 1_555 1_555
H11 C17 1_555 1_555
H12 C17 1_555 1_555
C18 C12 1_555 1_555
H13 C18 1_555 1_555
C19 C6 1_555 1_555
H14 C19 1_555 1_555
H15 C19 1_555 1_555
H16 C19 1_555 1_555
C20 C2 1_555 1_555
C21 C20 1_555 1_555
H17 C21 1_555 1_555
H18 C21 1_555 1_555
H19 C21 1_555 1_555
C22 C20 1_555 1_555
H20 C22 1_555 1_555
H21 C22 1_555 1_555
H22 C22 1_555 1_555
C23 C11 1_555 1_555
H23 C23 1_555 1_555
C24 C13 1_555 1_555
C25 C24 1_555 1_555
H24 C25 1_555 1_555
H25 C25 1_555 1_555
H26 C25 1_555 1_555
C26 C18 1_555 1_555
H27 C26 1_555 1_555
H28 C26 1_555 1_555
H29 C26 1_555 1_555
C27 C15 1_555 1_555
C28 C27 1_555 1_555
H30 C28 1_555 1_555
H31 C28 1_555 1_555
H32 C28 1_555 1_555
C29 C27 1_555 1_555
H33 C29 1_555 1_555
H34 C29 1_555 1_555
H35 C29 1_555 1_555
C30 C9 1_555 1_555
H36 C30 1_555 1_555
H37 C30 1_555 1_555
H38 C30 1_555 1_555
C6 C7 1_555 1_555
C8 C9 1_555 1_555
C8 C10 1_555 1_555
C12 C13 1_555 1_555
C17 C18 1_555 1_555
C23 C24 1_555 1_555

#END
