
#######################################################################
#
#                 Cambridge Crystallographic Data Centre
#                                CCDC 
#
#######################################################################
#
# If this CIF has been generated from an entry in the Cambridge 
# Structural Database, then it will include bibliographic, chemical, 
# crystal, experimental, refinement or atomic coordinate data resulting 
# from the CCDC's data processing and validation procedures.
#
#######################################################################

data_KIQWEP
_chemical_compound_source        'isolated from the roots of Xylopia vielana'
_chemical_name_common            'xylopside C'
_chemical_formula_moiety         'C30 H40 O2'
_chemical_name_systematic        
1,6,11,14-tetramethyl-4,8-bis(propan-2-ylidene)-4,5,7,8,10,11,11a,11b,12,12a-decahydro-1H-5a,12-ethenoazuleno[2,1-a]azulene-3,9(2H,5bH)-dione
_symmetry_cell_setting           triclinic
_symmetry_space_group_name_H-M   'P 1'
_symmetry_Int_Tables_number      1
_space_group_name_Hall           'P 1'
loop_
_symmetry_equiv_pos_site_id
_symmetry_equiv_pos_as_xyz
1 x,y,z
_cell_length_a                   7.6619(3)
_cell_length_b                   7.6737(3)
_cell_length_c                   21.9350(9)
_cell_angle_alpha                97.812(2)
_cell_angle_beta                 92.511(2)
_cell_angle_gamma                94.499(2)
_cell_volume                     1271.83
_exptl_crystal_colour            colorless
_exptl_crystal_description       blcok
_cell_formula_units_Z            2
loop_
_atom_site_label
_atom_site_type_symbol
_atom_site_fract_x
_atom_site_fract_y
_atom_site_fract_z
O1 O 1.3963(19) -0.0591(13) 0.0877(6)
C1 C 1.266(2) 0.0221(16) 0.0916(6)
O2 O 0.4236(9) 0.3614(8) 0.4208(4)
C2 C 1.286(2) 0.2196(15) 0.0958(6)
H1 H 1.1809 0.2603 0.0781
H2 H 1.3843 0.2555 0.0728
C3 C 1.3155(16) 0.3026(13) 0.1632(5)
H3 H 1.3881 0.2275 0.1845
C4 C 1.1436(13) 0.3149(11) 0.1951(4)
H4 H 1.0768 0.4051 0.1796
C5 C 1.0236(12) 0.1391(10) 0.1935(4)
C6 C 0.9566(17) 0.0382(14) 0.1312(4)
H5 H 0.8571 -0.0418 0.1379
H6 H 0.9136 0.1224 0.1062
C7 C 1.0835(18) -0.0675(14) 0.0943(4)
C8 C 1.1602(11) 0.3469(10) 0.2666(4)
H7 H 1.2405 0.4481 0.2848
C9 C 0.9631(11) 0.3609(9) 0.2809(3)
H8 H 0.9277 0.4780 0.2754
C10 C 0.8666(11) 0.2183(10) 0.2323(3)
H9 H 0.7854 0.2708 0.2058
C11 C 0.9105(10) 0.3126(9) 0.3445(3)
H10 H 1.0163 0.2903 0.3680
C12 C 0.8209(11) 0.4608(9) 0.3820(4)
H11 H 0.7312 0.5005 0.3551
C13 C 0.7698(11) 0.0946(10) 0.2680(4)
C14 C 0.7981(10) 0.1438(9) 0.3287(4)
C15 C 0.7313(11) 0.4005(11) 0.4385(4)
H12 H 0.8105 0.3330 0.4596
H13 H 0.7096 0.5039 0.4669
C16 C 0.5646(11) 0.0959(10) 0.4054(4)
C17 C 0.5624(12) 0.2908(11) 0.4217(4)
C18 C 0.7380(12) 0.0392(10) 0.3789(5)
H14 H 0.8285 0.0543 0.4120
H15 H 0.7228 -0.0851 0.3623
C19 C 1.414(2) 0.4861(16) 0.1679(8)
H16 H 1.5152 0.4792 0.1434
H17 H 1.4515 0.5272 0.2101
H18 H 1.3384 0.5667 0.1530
C20 C 1.043(2) -0.2342(16) 0.0645(5)
C21 C 1.162(3) -0.3344(17) 0.0218(6)
H19 H 1.0919 -0.4181 -0.0078
H20 H 1.2392 -0.3956 0.0452
H21 H 1.2293 -0.2531 0.0006
C22 C 0.861(3) -0.326(2) 0.0710(8)
H22 H 0.8247 -0.4029 0.0335
H23 H 0.7786 -0.2393 0.0790
H24 H 0.8662 -0.3946 0.1046
C23 C 1.1232(13) -0.1473(11) 0.2389(5)
H25 H 1.0037 -0.1953 0.2387
H26 H 1.1865 -0.1706 0.2752
H27 H 1.1763 -0.2010 0.2030
C24 C 0.6467(15) -0.0586(15) 0.2379(6)
H28 H 0.5724 -0.0201 0.2068
H29 H 0.5760 -0.1029 0.2683
H30 H 0.7134 -0.1504 0.2192
C25 C 0.9570(13) 0.6187(11) 0.4043(4)
H31 H 1.0030 0.6655 0.3693
H32 H 1.0508 0.5800 0.4281
H33 H 0.9016 0.7088 0.4293
C26 C 0.4329(11) -0.0214(10) 0.4161(4)
C27 C 0.4446(15) -0.2167(12) 0.4045(6)
H34 H 0.4776 -0.2499 0.3631
H35 H 0.3327 -0.2763 0.4101
H36 H 0.5309 -0.2493 0.4330
C28 C 0.2634(14) 0.0282(12) 0.4432(5)
H37 H 0.2689 0.1538 0.4549
H38 H 0.2450 -0.0294 0.4789
H39 H 0.1680 -0.0082 0.4132
C29 C 1.2105(10) 0.1686(10) 0.2806(4)
H40 H 1.2856 0.1493 0.3131
C30 C 1.1282(11) 0.0440(10) 0.2384(4)
O3 O 0.1652(8) 0.1822(8) 0.5911(3)
O4 O -0.0906(14) 1.3324(16) 0.9141(6)
C31 C 0.0869(10) 0.3121(10) 0.5856(3)
C32 C 0.1859(10) 0.4745(10) 0.5665(4)
H41 H 0.1044 0.5393 0.5452
H42 H 0.2733 0.4370 0.5379
C33 C 0.2766(9) 0.5972(10) 0.6217(4)
H43 H 0.3329 0.5250 0.6491
C34 C 0.1456(10) 0.7067(9) 0.6586(4)
H44 H 0.1096 0.7987 0.6350
C35 C -0.0144(10) 0.6001(10) 0.6738(4)
C36 C -0.1442(11) 0.5045(11) 0.6247(5)
H45 H -0.2581 0.4938 0.6422
H46 H -0.1541 0.5763 0.5918
C37 C -0.1020(10) 0.3259(10) 0.5976(4)
C38 C 0.2266(10) 0.7960(10) 0.7231(4)
H47 H 0.3473 0.7654 0.7293
C39 C 0.1110(11) 0.7268(10) 0.7710(4)
H48 H 0.1800 0.6616 0.7975
C40 C -0.0296(11) 0.6037(10) 0.7345(4)
C41 C 0.2170(11) 0.9997(10) 0.7377(4)
H49 H 0.3084 1.0715 0.7203
C42 C 0.2248(11) 1.0177(12) 0.8083(4)
H50 H 0.3246 0.9597 0.8232
C43 C 0.0520(11) 0.8994(11) 0.8104(4)
C44 C -0.0680(11) 0.9780(11) 0.7658(4)
C45 C 0.0331(11) 1.0399(10) 0.7231(4)
H51 H -0.0046 1.0968 0.6907
C46 C 0.2312(14) 1.2115(16) 0.8407(5)
H52 H 0.1429 1.2735 0.8206
C47 C 0.1892(16) 1.210(2) 0.9096(6)
H53 H 0.2363 1.1095 0.9249
H54 H 0.2416 1.3170 0.9345
C48 C -0.0104(16) 1.198(2) 0.9130(5)
C49 C -0.1014(15) 1.0153(19) 0.9096(5)
C50 C -0.0134(16) 0.8657(18) 0.8725(5)
H55 H 0.0854 0.8378 0.8975
H56 H -0.0964 0.7619 0.8657
C51 C 0.4183(12) 0.7201(12) 0.5987(4)
H57 H 0.5027 0.6511 0.5778
H58 H 0.4758 0.7971 0.6331
H59 H 0.3655 0.7893 0.5708
C52 C -0.2217(11) 0.1830(10) 0.5839(4)
C53 C -0.1779(13) 0.0048(12) 0.5568(5)
H60 H -0.2594 -0.0401 0.5227
H61 H -0.1850 -0.0731 0.5875
H62 H -0.0611 0.0123 0.5427
C54 C -0.4133(12) 0.1958(14) 0.5937(6)
H63 H -0.4596 0.2731 0.5673
H64 H -0.4280 0.2419 0.6360
H65 H -0.4747 0.0807 0.5843
C55 C -0.1682(16) 0.5000(13) 0.7651(6)
H66 H -0.2085 0.3940 0.7381
H67 H -0.2649 0.5703 0.7736
H68 H -0.1192 0.4701 0.8029
C56 C -0.2599(12) 0.9729(13) 0.7652(5)
H69 H -0.3025 1.0287 0.7315
H70 H -0.2942 1.0342 0.8033
H71 H -0.3086 0.8524 0.7603
C57 C 0.4121(16) 1.3065(17) 0.8367(7)
H72 H 0.4535 1.2746 0.7963
H73 H 0.4921 1.2727 0.8670
H74 H 0.4044 1.4318 0.8442
C58 C -0.2517(16) 0.987(2) 0.9386(5)
C59 C -0.354(3) 0.808(3) 0.9307(10)
H75 H -0.4475 0.8042 0.9000
H76 H -0.4008 0.7874 0.9691
H77 H -0.2769 0.7183 0.9179
C60 C -0.336(2) 1.127(3) 0.9798(7)
H78 H -0.4269 1.1723 0.9566
H79 H -0.2487 1.2219 0.9952
H80 H -0.3845 1.0771 1.0137
loop_
_geom_bond_atom_site_label_1
_geom_bond_atom_site_label_2
_geom_bond_site_symmetry_1
_geom_bond_site_symmetry_2
O1 C1 1_555 1_555
C1 C2 1_555 1_555
O2 C17 1_555 1_555
C2 H1 1_555 1_555
H2 C2 1_555 1_555
C3 C2 1_555 1_555
H3 C3 1_555 1_555
C4 C3 1_555 1_555
H4 C4 1_555 1_555
C5 C4 1_555 1_555
C6 C5 1_555 1_555
H5 C6 1_555 1_555
H6 C6 1_555 1_555
C7 C1 1_555 1_555
C8 C4 1_555 1_555
H7 C8 1_555 1_555
C9 C8 1_555 1_555
H8 C9 1_555 1_555
C10 C5 1_555 1_555
H9 C10 1_555 1_555
C11 C9 1_555 1_555
H10 C11 1_555 1_555
C12 C11 1_555 1_555
H11 C12 1_555 1_555
C13 C10 1_555 1_555
C14 C11 1_555 1_555
C15 C12 1_555 1_555
H12 C15 1_555 1_555
H13 C15 1_555 1_555
C16 C17 1_555 1_555
C17 C15 1_555 1_555
C18 C14 1_555 1_555
H14 C18 1_555 1_555
H15 C18 1_555 1_555
C19 C3 1_555 1_555
H16 C19 1_555 1_555
H17 C19 1_555 1_555
H18 C19 1_555 1_555
C20 C7 1_555 1_555
C21 C20 1_555 1_555
H19 C21 1_555 1_555
H20 C21 1_555 1_555
H21 C21 1_555 1_555
C22 C20 1_555 1_555
H22 C22 1_555 1_555
H23 C22 1_555 1_555
H24 C22 1_555 1_555
C23 H25 1_555 1_555
H26 C23 1_555 1_555
H27 C23 1_555 1_555
C24 C13 1_555 1_555
H28 C24 1_555 1_555
H29 C24 1_555 1_555
H30 C24 1_555 1_555
C25 C12 1_555 1_555
H31 C25 1_555 1_555
H32 C25 1_555 1_555
H33 C25 1_555 1_555
C26 C16 1_555 1_555
C27 C26 1_555 1_555
H34 C27 1_555 1_555
H35 C27 1_555 1_555
H36 C27 1_555 1_555
C28 C26 1_555 1_555
H37 C28 1_555 1_555
H38 C28 1_555 1_555
H39 C28 1_555 1_555
C29 C8 1_555 1_555
H40 C29 1_555 1_555
C30 C5 1_555 1_555
O3 C31 1_555 1_555
O4 C48 1_555 1_555
C31 C32 1_555 1_555
C32 H41 1_555 1_555
H42 C32 1_555 1_555
C33 C32 1_555 1_555
H43 C33 1_555 1_555
C34 C33 1_555 1_555
H44 C34 1_555 1_555
C35 C34 1_555 1_555
C36 C35 1_555 1_555
H45 C36 1_555 1_555
H46 C36 1_555 1_555
C37 C31 1_555 1_555
C38 C34 1_555 1_555
H47 C38 1_555 1_555
C39 C38 1_555 1_555
H48 C39 1_555 1_555
C40 C35 1_555 1_555
C41 C38 1_555 1_555
H49 C41 1_555 1_555
C42 C41 1_555 1_555
H50 C42 1_555 1_555
C43 C39 1_555 1_555
C44 C43 1_555 1_555
C45 C41 1_555 1_555
H51 C45 1_555 1_555
C46 C42 1_555 1_555
H52 C46 1_555 1_555
C47 C46 1_555 1_555
H53 C47 1_555 1_555
H54 C47 1_555 1_555
C48 C47 1_555 1_555
C49 C48 1_555 1_555
C50 C43 1_555 1_555
H55 C50 1_555 1_555
H56 C50 1_555 1_555
C51 C33 1_555 1_555
H57 C51 1_555 1_555
H58 C51 1_555 1_555
H59 C51 1_555 1_555
C52 C37 1_555 1_555
C53 C52 1_555 1_555
H60 C53 1_555 1_555
H61 C53 1_555 1_555
H62 C53 1_555 1_555
C54 C52 1_555 1_555
H63 C54 1_555 1_555
H64 C54 1_555 1_555
H65 C54 1_555 1_555
C55 C40 1_555 1_555
H66 C55 1_555 1_555
H67 C55 1_555 1_555
H68 C55 1_555 1_555
C56 C44 1_555 1_555
H69 C56 1_555 1_555
H70 C56 1_555 1_555
H71 C56 1_555 1_555
C57 C46 1_555 1_555
H72 C57 1_555 1_555
H73 C57 1_555 1_555
H74 C57 1_555 1_555
C58 C49 1_555 1_555
C59 C58 1_555 1_555
H75 C59 1_555 1_555
H76 C59 1_555 1_555
H77 C59 1_555 1_555
C60 C58 1_555 1_555
H78 C60 1_555 1_555
H79 C60 1_555 1_555
H80 C60 1_555 1_555
C6 C7 1_555 1_555
C9 C10 1_555 1_555
C13 C14 1_555 1_555
C16 C18 1_555 1_555
C23 C30 1_555 1_555
C29 C30 1_555 1_555
C36 C37 1_555 1_555
C39 C40 1_555 1_555
C42 C43 1_555 1_555
C44 C45 1_555 1_555
C49 C50 1_555 1_555

#END
