
#######################################################################
#
#                 Cambridge Crystallographic Data Centre
#                                CCDC 
#
#######################################################################
#
# If this CIF has been generated from an entry in the Cambridge 
# Structural Database, then it will include bibliographic, chemical, 
# crystal, experimental, refinement or atomic coordinate data resulting 
# from the CCDC's data processing and validation procedures.
#
#######################################################################

data_KIRGAV
_chemical_formula_moiety         'C28 H25 N1 O2 S1'
_chemical_name_systematic        
2-((4-Methylphenyl)sulfonyl)-1,4-diphenyl-1,2,3,4-tetrahydroisoquinoline
_symmetry_cell_setting           orthorhombic
_symmetry_space_group_name_H-M   'P 21 21 21'
_symmetry_Int_Tables_number      19
_space_group_name_Hall           'P 2ac 2ab'
loop_
_symmetry_equiv_pos_site_id
_symmetry_equiv_pos_as_xyz
1 x,y,z
2 1/2-x,-y,1/2+z
3 -x,1/2+y,1/2-z
4 1/2+x,1/2-y,-z
_cell_length_a                   10.096(2)
_cell_length_b                   11.421(3)
_cell_length_c                   20.313(4)
_cell_angle_alpha                90
_cell_angle_beta                 90
_cell_angle_gamma                90
_cell_volume                     2342.22
_exptl_crystal_colour            colorless
_exptl_crystal_description       block
_cell_formula_units_Z            4
loop_
_atom_site_label
_atom_site_type_symbol
_atom_site_fract_x
_atom_site_fract_y
_atom_site_fract_z
C1 C 0.15851(17) 0.08999(16) 0.86450(9)
H1 H 0.0732 0.0551 0.8547
H2 H 0.1678 0.0925 0.9120
C2 C 0.26805(17) 0.01125(15) 0.83608(8)
H3 H 0.2359 -0.0184 0.7937
C3 C 0.39465(16) 0.07815(16) 0.82249(8)
C4 C 0.40266(16) 0.19939(15) 0.82963(7)
C5 C 0.28600(16) 0.27093(15) 0.85238(8)
H4 H 0.2858 0.3437 0.8268
C6 C 0.28524(18) -0.09324(16) 0.88088(9)
C7 C 0.2197(3) -0.19658(19) 0.86843(12)
H5 H 0.1676 -0.2030 0.8308
C8 C 0.2298(3) -0.2906(2) 0.91064(15)
H6 H 0.1837 -0.3593 0.9016
C9 C 0.3071(3) -0.2838(2) 0.96578(14)
H7 H 0.3143 -0.3478 0.9939
C10 C 0.3739(2) -0.1823(2) 0.97930(12)
H8 H 0.4263 -0.1767 1.0168
C11 C 0.3632(2) -0.08788(18) 0.93682(11)
H9 H 0.4094 -0.0194 0.9461
C12 C 0.50616(18) 0.01865(18) 0.79902(9)
H10 H 0.5023 -0.0622 0.7938
C13 C 0.62081(19) 0.0765(2) 0.78350(10)
H11 H 0.6934 0.0351 0.7676
C14 C 0.62854(18) 0.1960(2) 0.79148(10)
H12 H 0.7065 0.2354 0.7814
C15 C 0.52062(16) 0.25656(18) 0.81432(8)
H13 H 0.5263 0.3373 0.8197
C16 C 0.29089(18) 0.30480(14) 0.92553(9)
C17 C 0.1987(2) 0.38448(18) 0.94930(12)
H14 H 0.1345 0.4155 0.9215
C18 C 0.2033(2) 0.4176(2) 1.01563(14)
H15 H 0.1416 0.4709 1.0317
C19 C 0.2971(3) 0.3727(2) 1.05716(12)
H16 H 0.2995 0.3958 1.1010
C20 C 0.3863(2) 0.2944(2) 1.03409(10)
H17 H 0.4497 0.2634 1.0624
C21 C 0.38399(19) 0.25992(17) 0.96827(8)
H18 H 0.4459 0.2061 0.9530
C22 C 0.16215(16) 0.17467(15) 0.70480(8)
C23 C 0.1258(2) 0.06446(18) 0.68331(10)
H19 H 0.0519 0.0273 0.7009
C24 C 0.2011(3) 0.01000(19) 0.63517(10)
H20 H 0.1765 -0.0640 0.6205
C25 C 0.3108(2) 0.0625(2) 0.60868(9)
C26 C 0.3447(2) 0.1729(2) 0.63030(10)
H21 H 0.4186 0.2098 0.6124
C27 C 0.27177(18) 0.22974(17) 0.67767(9)
H22 H 0.2957 0.3045 0.6914
C28 C 0.3931(3) 0.0025(3) 0.55644(12)
H23 H 0.4835 -0.0022 0.5709
H24 H 0.3887 0.0467 0.5163
H25 H 0.3594 -0.0749 0.5490
N1 N 0.15999(13) 0.21041(12) 0.83906(7)
O1 O -0.04671(12) 0.18612(17) 0.77745(8)
O2 O 0.08944(16) 0.36504(12) 0.76303(7)
S1 S 0.07958(4) 0.24099(5) 0.77111(2)
loop_
_geom_bond_atom_site_label_1
_geom_bond_atom_site_label_2
_geom_bond_site_symmetry_1
_geom_bond_site_symmetry_2
C1 H1 1_555 1_555
H2 C1 1_555 1_555
C2 C1 1_555 1_555
H3 C2 1_555 1_555
C3 C2 1_555 1_555
C4 C3 1_555 1_555
C5 C4 1_555 1_555
H4 C5 1_555 1_555
C6 C2 1_555 1_555
C7 C6 1_555 1_555
H5 C7 1_555 1_555
C8 C7 1_555 1_555
H6 C8 1_555 1_555
C9 C8 1_555 1_555
H7 C9 1_555 1_555
C10 C9 1_555 1_555
H8 C10 1_555 1_555
C11 C6 1_555 1_555
H9 C11 1_555 1_555
C12 C3 1_555 1_555
H10 C12 1_555 1_555
C13 C12 1_555 1_555
H11 C13 1_555 1_555
C14 C13 1_555 1_555
H12 C14 1_555 1_555
C15 C4 1_555 1_555
H13 C15 1_555 1_555
C16 C5 1_555 1_555
C17 C16 1_555 1_555
H14 C17 1_555 1_555
C18 C17 1_555 1_555
H15 C18 1_555 1_555
C19 C18 1_555 1_555
H16 C19 1_555 1_555
C20 C19 1_555 1_555
H17 C20 1_555 1_555
C21 C16 1_555 1_555
H18 C21 1_555 1_555
C22 C23 1_555 1_555
C23 H19 1_555 1_555
C24 C23 1_555 1_555
H20 C24 1_555 1_555
C25 C24 1_555 1_555
C26 C25 1_555 1_555
H21 C26 1_555 1_555
C27 C22 1_555 1_555
H22 C27 1_555 1_555
C28 C25 1_555 1_555
H23 C28 1_555 1_555
H24 C28 1_555 1_555
H25 C28 1_555 1_555
N1 C1 1_555 1_555
O1 S1 1_555 1_555
O2 S1 1_555 1_555
S1 C22 1_555 1_555
C5 N1 1_555 1_555
C10 C11 1_555 1_555
C14 C15 1_555 1_555
C20 C21 1_555 1_555
C26 C27 1_555 1_555
N1 S1 1_555 1_555

#END
