
#######################################################################
#
#                 Cambridge Crystallographic Data Centre
#                                CCDC 
#
#######################################################################
#
# If this CIF has been generated from an entry in the Cambridge 
# Structural Database, then it will include bibliographic, chemical, 
# crystal, experimental, refinement or atomic coordinate data resulting 
# from the CCDC's data processing and validation procedures.
#
#######################################################################

data_KIRGUP
_chemical_formula_moiety         'C6 H5 F6 N3 O1'
_chemical_name_systematic        
1,1,1,3,3,3-Hexafluoro-2-(1H-1,2,4-triazol-1-ylmethyl)propan-2-ol
_symmetry_cell_setting           orthorhombic
_symmetry_space_group_name_H-M   'I b a 2'
_symmetry_Int_Tables_number      45
_space_group_name_Hall           'I 2 -2c'
loop_
_symmetry_equiv_pos_site_id
_symmetry_equiv_pos_as_xyz
1 x,y,z
2 -x,-y,z
3 1/2+x,1/2-y,z
4 1/2-x,1/2+y,z
5 1/2+x,1/2+y,1/2+z
6 1/2-x,1/2-y,1/2+z
7 x,-y,1/2+z
8 -x,y,1/2+z
_cell_length_a                   11.0321(13)
_cell_length_b                   18.171(2)
_cell_length_c                   9.5916(12)
_cell_angle_alpha                90
_cell_angle_beta                 90
_cell_angle_gamma                90
_cell_volume                     1922.77
_exptl_crystal_colour            colorless
_exptl_crystal_description       parallelepiped
_cell_formula_units_Z            8
loop_
_atom_site_label
_atom_site_type_symbol
_atom_site_fract_x
_atom_site_fract_y
_atom_site_fract_z
O1 O -0.75133(16) 0.17912(9) 0.49834(18)
N1 N -0.98136(16) 0.12082(9) 0.4168(2)
F1 F -0.65775(14) 0.03939(10) 0.5647(2)
F2 F -0.54459(11) 0.10382(10) 0.4322(2)
C1 C -1.0163(2) 0.18373(12) 0.4746(3)
H1 H -0.971(2) 0.2095(12) 0.545(3)
N2 N -1.11826(17) 0.20651(10) 0.4177(2)
F3 F -0.64466(14) 0.01257(10) 0.3471(2)
F4 F -0.64793(13) 0.16197(10) 0.20858(17)
C2 C -1.1432(2) 0.15405(14) 0.3228(3)
H2 H -1.215(3) 0.1516(13) 0.269(3)
F5 F -0.79966(15) 0.09102(8) 0.17099(16)
N3 N -1.06331(17) 0.10033(11) 0.3171(2)
F6 F -0.82815(13) 0.20211(7) 0.23769(16)
C3 C -0.8738(2) 0.07698(13) 0.4445(3)
H3 H -0.8727(19) 0.0659(11) 0.547(3)
H4 H -0.8806(19) 0.0354(13) 0.393(2)
C4 C -0.75738(19) 0.11923(12) 0.4087(3)
C5 C -0.6494(2) 0.06831(15) 0.4375(3)
C6 C -0.7576(2) 0.14309(14) 0.2547(3)
H5 H -0.707(3) 0.2148(19) 0.465(4)
loop_
_geom_bond_atom_site_label_1
_geom_bond_atom_site_label_2
_geom_bond_site_symmetry_1
_geom_bond_site_symmetry_2
O1 C4 1_555 1_555
N1 C1 1_555 1_555
F1 C5 1_555 1_555
F2 C5 1_555 1_555
C1 H1 1_555 1_555
N2 C1 1_555 1_555
F3 C5 1_555 1_555
F4 C6 1_555 1_555
C2 N2 1_555 1_555
H2 C2 1_555 1_555
F5 C6 1_555 1_555
N3 N1 1_555 1_555
F6 C6 1_555 1_555
C3 N1 1_555 1_555
H3 C3 1_555 1_555
H4 C3 1_555 1_555
C4 C3 1_555 1_555
C5 C4 1_555 1_555
C6 C4 1_555 1_555
H5 O1 1_555 1_555
C2 N3 1_555 1_555

#END
