
#######################################################################
#
#                 Cambridge Crystallographic Data Centre
#                                CCDC 
#
#######################################################################
#
# If this CIF has been generated from an entry in the Cambridge 
# Structural Database, then it will include bibliographic, chemical, 
# crystal, experimental, refinement or atomic coordinate data resulting 
# from the CCDC's data processing and validation procedures.
#
#######################################################################

data_KIRGEZ
_chemical_formula_moiety         'C25 H23 F1 N2 O2 S1'
_chemical_name_systematic        
6-Fluoro-9-methyl-2-((4-methylphenyl)sulfonyl)-4-phenyl-2,3,4,9-tetrahydro-1H-\b-carboline
_symmetry_cell_setting           monoclinic
_symmetry_space_group_name_H-M   'P 21/c'
_symmetry_Int_Tables_number      14
_space_group_name_Hall           '-P 2ybc'
loop_
_symmetry_equiv_pos_site_id
_symmetry_equiv_pos_as_xyz
1 x,y,z
2 -x,1/2+y,1/2-z
3 -x,-y,-z
4 x,1/2-y,1/2+z
_cell_length_a                   6.096(3)
_cell_length_b                   23.371(11)
_cell_length_c                   15.284(7)
_cell_angle_alpha                90
_cell_angle_beta                 92.241(6)
_cell_angle_gamma                90
_cell_volume                     2175.84
_exptl_crystal_colour            colorless
_exptl_crystal_description       block
_cell_formula_units_Z            4
loop_
_atom_site_label
_atom_site_type_symbol
_atom_site_fract_x
_atom_site_fract_y
_atom_site_fract_z
C1 C 0.7510(5) 0.12763(12) 0.48179(18)
C2 C 0.6430(5) 0.17867(13) 0.48601(18)
C3 C 0.7659(5) 0.21317(13) 0.54765(18)
C4 C 0.9477(5) 0.18001(13) 0.57727(18)
C5 C 1.1067(6) 0.20083(15) 0.6368(2)
H1 H 1.2274 0.1786 0.6541
C6 C 1.0807(7) 0.25484(17) 0.6693(3)
H2 H 1.1835 0.2699 0.7095
C7 C 0.8996(7) 0.28691(15) 0.6417(2)
C8 C 0.7409(6) 0.26842(14) 0.5819(2)
H3 H 0.6223 0.2914 0.5650
C9 C 0.4400(5) 0.19138(13) 0.4307(2)
H4 H 0.3129 0.1883 0.4678
C10 C 0.4168(5) 0.14612(12) 0.3585(2)
H5 H 0.2699 0.1481 0.3319
H6 H 0.5200 0.1544 0.3135
C11 C 0.6837(5) 0.07743(13) 0.4264(2)
H7 H 0.7819 0.0732 0.3784
H8 H 0.6896 0.0427 0.4611
C12 C 1.0770(5) 0.07911(14) 0.5566(2)
H9 H 1.0408 0.0634 0.6123
H10 H 1.2274 0.0914 0.5590
H11 H 1.0565 0.0504 0.5121
C13 C 0.4395(5) 0.25028(13) 0.3904(2)
C14 C 0.2652(6) 0.28757(16) 0.4013(2)
H12 H 0.1483 0.2769 0.4350
C15 C 0.2672(9) 0.34174(18) 0.3607(3)
H13 H 0.1514 0.3670 0.3680
C16 C 0.4388(10) 0.35740(18) 0.3104(3)
H14 H 0.4385 0.3931 0.2834
C17 C 0.6083(8) 0.32108(17) 0.3001(3)
H15 H 0.7244 0.3318 0.2660
C18 C 0.6098(6) 0.26808(15) 0.3399(2)
H16 H 0.7284 0.2437 0.3326
C19 C 0.4658(5) 0.04153(12) 0.22785(19)
C20 C 0.6675(5) 0.01677(13) 0.2132(2)
H17 H 0.7392 -0.0051 0.2564
C21 C 0.7599(6) 0.02523(14) 0.1331(2)
H18 H 0.8952 0.0086 0.1228
C22 C 0.6586(6) 0.05729(15) 0.0682(2)
C23 C 0.4545(6) 0.08126(15) 0.0835(2)
H19 H 0.3823 0.1025 0.0396
C24 C 0.3582(5) 0.07390(14) 0.1628(2)
H20 H 0.2227 0.0904 0.1729
C25 C 0.7664(9) 0.0686(2) -0.0174(3)
H21 H 0.7440 0.1079 -0.0339
H22 H 0.7029 0.0441 -0.0620
H23 H 0.9210 0.0611 -0.0106
F1 F 0.8768(5) 0.33985(10) 0.67810(19)
N1 N 0.9355(4) 0.12757(11) 0.53619(16)
N2 N 0.4572(4) 0.08766(11) 0.39208(15)
O1 O 0.1221(4) 0.04662(11) 0.32072(17)
O2 O 0.4271(4) -0.01691(10) 0.37101(16)
S1 S 0.35309(12) 0.03557(3) 0.33158(5)
loop_
_geom_bond_atom_site_label_1
_geom_bond_atom_site_label_2
_geom_bond_site_symmetry_1
_geom_bond_site_symmetry_2
C1 C2 1_555 1_555
C2 C3 1_555 1_555
C3 C4 1_555 1_555
C4 C5 1_555 1_555
C5 H1 1_555 1_555
C6 C5 1_555 1_555
H2 C6 1_555 1_555
C7 C6 1_555 1_555
C8 C3 1_555 1_555
H3 C8 1_555 1_555
C9 C2 1_555 1_555
H4 C9 1_555 1_555
C10 C9 1_555 1_555
H5 C10 1_555 1_555
H6 C10 1_555 1_555
C11 C1 1_555 1_555
H7 C11 1_555 1_555
H8 C11 1_555 1_555
C12 H9 1_555 1_555
H10 C12 1_555 1_555
H11 C12 1_555 1_555
C13 C9 1_555 1_555
C14 C13 1_555 1_555
H12 C14 1_555 1_555
C15 C14 1_555 1_555
H13 C15 1_555 1_555
C16 C15 1_555 1_555
H14 C16 1_555 1_555
C17 C16 1_555 1_555
H15 C17 1_555 1_555
C18 C13 1_555 1_555
H16 C18 1_555 1_555
C19 C20 1_555 1_555
C20 H17 1_555 1_555
C21 C20 1_555 1_555
H18 C21 1_555 1_555
C22 C21 1_555 1_555
C23 C22 1_555 1_555
H19 C23 1_555 1_555
C24 C19 1_555 1_555
H20 C24 1_555 1_555
C25 C22 1_555 1_555
H21 C25 1_555 1_555
H22 C25 1_555 1_555
H23 C25 1_555 1_555
F1 C7 1_555 1_555
N1 C1 1_555 1_555
N2 C10 1_555 1_555
O1 S1 1_555 1_555
O2 S1 1_555 1_555
S1 C19 1_555 1_555
C4 N1 1_555 1_555
C7 C8 1_555 1_555
C11 N2 1_555 1_555
C12 N1 1_555 1_555
C17 C18 1_555 1_555
C23 C24 1_555 1_555
N2 S1 1_555 1_555

#END
