
#######################################################################
#
#                 Cambridge Crystallographic Data Centre
#                                CCDC 
#
#######################################################################
#
# If this CIF has been generated from an entry in the Cambridge 
# Structural Database, then it will include bibliographic, chemical, 
# crystal, experimental, refinement or atomic coordinate data resulting 
# from the CCDC's data processing and validation procedures.
#
#######################################################################

data_KIRHAW
_chemical_formula_moiety         'C7 H6 F6 N2 O1'
_chemical_name_systematic        
1,1,1,3,3,3-Hexafluoro-2-(1H-imidazol-1-ylmethyl)propan-2-ol
_symmetry_cell_setting           triclinic
_symmetry_space_group_name_H-M   'P -1'
_symmetry_Int_Tables_number      2
_space_group_name_Hall           '-P 1'
loop_
_symmetry_equiv_pos_site_id
_symmetry_equiv_pos_as_xyz
1 x,y,z
2 -x,-y,-z
_cell_length_a                   7.462(7)
_cell_length_b                   10.469(10)
_cell_length_c                   12.456(12)
_cell_angle_alpha                75.739(15)
_cell_angle_beta                 79.86(2)
_cell_angle_gamma                89.401(18)
_cell_volume                     927.79
_exptl_crystal_colour            colorless
_cell_formula_units_Z            4
loop_
_atom_site_label
_atom_site_type_symbol
_atom_site_fract_x
_atom_site_fract_y
_atom_site_fract_z
F1 F -0.2330(5) 0.1219(4) 0.2948(3)
F2 F -0.0858(6) -0.0076(3) 0.4006(3)
F3 F -0.1142(6) 0.1922(4) 0.4115(3)
F4 F 0.2728(5) 0.0130(3) 0.3629(3)
F5 F 0.2578(6) 0.2109(4) 0.3783(4)
F6 F 0.4007(5) 0.1674(4) 0.2280(3)
O1 O 0.0861(6) 0.0709(4) 0.1839(3)
N1 N -0.0615(7) 0.3421(4) 0.1338(4)
N2 N -0.2180(7) 0.3836(4) -0.0027(4)
C1 C -0.0672(9) 0.3356(5) 0.0281(5)
H1 H 0.0237 0.3015 -0.0172
C2 C -0.3096(8) 0.4252(5) 0.0861(5)
H2 H -0.4218 0.4649 0.0876
C3 C -0.2167(9) 0.4012(5) 0.1706(5)
H3 H -0.2503 0.4206 0.2402
C4 C 0.0881(8) 0.3012(5) 0.1933(5)
H4 H 0.0885 0.3523 0.2484
H5 H 0.2017 0.3217 0.1399
C5 C 0.0816(8) 0.1549(5) 0.2533(5)
C6 C -0.0891(10) 0.1157(6) 0.3406(6)
C7 C 0.2554(9) 0.1364(5) 0.3080(5)
H6 H 0.185(11) 0.100(7) 0.122(6)
F7 F -0.0384(5) 0.6573(4) 0.2407(3)
F8 F 0.0131(5) 0.4992(3) 0.3763(3)
F9 F 0.0029(5) 0.6967(4) 0.3956(3)
F10 F 0.3383(6) 0.4887(4) 0.4273(4)
F11 F 0.3586(7) 0.6908(5) 0.4293(4)
F12 F 0.5523(5) 0.6124(4) 0.3196(3)
O2 O 0.3095(6) 0.5616(3) 0.2037(3)
N3 N 0.4704(7) 0.8334(4) 0.1505(4)
N4 N 0.7040(8) 0.8751(5) 0.0131(4)
C8 C 0.5364(8) 0.8279(5) 0.0453(5)
H7 H 0.4715 0.7946 0.0003
C9 C 0.7427(9) 0.9165(5) 0.1028(5)
H8 H 0.8522 0.9572 0.1041
C10 C 0.6029(9) 0.8908(5) 0.1873(5)
H9 H 0.5964 0.9083 0.2575
C11 C 0.2870(8) 0.7929(5) 0.2101(5)
H10 H 0.2044 0.8128 0.1566
H11 H 0.2527 0.8449 0.2646
C12 C 0.2608(8) 0.6449(5) 0.2724(5)
C13 C 0.0600(9) 0.6247(5) 0.3225(5)
C14 C 0.3788(9) 0.6078(6) 0.3639(5)
H12 H 0.255(16) 0.605(10) 0.130(9)
loop_
_geom_bond_atom_site_label_1
_geom_bond_atom_site_label_2
_geom_bond_site_symmetry_1
_geom_bond_site_symmetry_2
F1 C6 1_555 1_555
F2 C6 1_555 1_555
F3 C6 1_555 1_555
F4 C7 1_555 1_555
F5 C7 1_555 1_555
F6 C7 1_555 1_555
O1 C5 1_555 1_555
N1 C1 1_555 1_555
N2 C1 1_555 1_555
C1 H1 1_555 1_555
C2 N2 1_555 1_555
H2 C2 1_555 1_555
C3 N1 1_555 1_555
H3 C3 1_555 1_555
C4 N1 1_555 1_555
H4 C4 1_555 1_555
H5 C4 1_555 1_555
C5 C4 1_555 1_555
C6 C5 1_555 1_555
C7 C5 1_555 1_555
H6 O1 1_555 1_555
F7 C13 1_555 1_555
F8 C13 1_555 1_555
F9 C13 1_555 1_555
F10 C14 1_555 1_555
F11 C14 1_555 1_555
F12 C14 1_555 1_555
O2 C12 1_555 1_555
N3 C8 1_555 1_555
N4 C8 1_555 1_555
C8 H7 1_555 1_555
C9 N4 1_555 1_555
H8 C9 1_555 1_555
C10 N3 1_555 1_555
H9 C10 1_555 1_555
C11 N3 1_555 1_555
H10 C11 1_555 1_555
H11 C11 1_555 1_555
C12 C11 1_555 1_555
C13 C12 1_555 1_555
C14 C12 1_555 1_555
H12 O2 1_555 1_555
C2 C3 1_555 1_555
C9 C10 1_555 1_555

#END
