
#######################################################################
#
#                 Cambridge Crystallographic Data Centre
#                                CCDC 
#
#######################################################################
#
# If this CIF has been generated from an entry in the Cambridge 
# Structural Database, then it will include bibliographic, chemical, 
# crystal, experimental, refinement or atomic coordinate data resulting 
# from the CCDC's data processing and validation procedures.
#
#######################################################################

data_KIRJON
_chemical_formula_moiety         'C31 H31 O1 P1'
_chemical_name_systematic        
'[4-cyclohexyl-3-(phenylethynyl)penta-1,3-dien-2-yl](oxo)diphenyl-phosphane'
_symmetry_cell_setting           triclinic
_symmetry_space_group_name_H-M   'P -1'
_symmetry_Int_Tables_number      2
_space_group_name_Hall           '-P 1'
loop_
_symmetry_equiv_pos_site_id
_symmetry_equiv_pos_as_xyz
1 x,y,z
2 -x,-y,-z
_cell_length_a                   8.772(2)
_cell_length_b                   10.624(2)
_cell_length_c                   14.027(3)
_cell_angle_alpha                84.502(6)
_cell_angle_beta                 82.426(6)
_cell_angle_gamma                82.751(7)
_cell_volume                     1281.29
_exptl_crystal_colour            colorless
_exptl_crystal_description       Block
_cell_formula_units_Z            2
loop_
_atom_site_label
_atom_site_type_symbol
_atom_site_fract_x
_atom_site_fract_y
_atom_site_fract_z
C1 C 0.10764(19) 0.78433(18) 0.40675(12)
C2 C 0.0047(2) 0.8945(2) 0.41407(15)
H1 H 0.0422 0.9734 0.4054
C3 C -0.1533(2) 0.8883(2) 0.43415(17)
H2 H -0.2213 0.9625 0.4394
C4 C -0.2089(2) 0.7716(2) 0.44623(15)
H3 H -0.3147 0.7671 0.4607
C5 C -0.1094(2) 0.6620(2) 0.43706(14)
H4 H -0.1482 0.5837 0.4438
C6 C 0.0497(2) 0.6673(2) 0.41769(13)
H5 H 0.1170 0.5926 0.4121
C7 C 0.33994(18) 0.94307(16) 0.32697(12)
C8 C 0.4331(2) 1.02315(19) 0.35915(14)
H6 H 0.4842 0.9964 0.4128
C9 C 0.4502(3) 1.1412(2) 0.31245(19)
H7 H 0.5128 1.1938 0.3345
C10 C 0.3755(3) 1.1813(2) 0.2337(2)
H8 H 0.3874 1.2613 0.2023
C11 C 0.2826(3) 1.1042(2) 0.20020(17)
H9 H 0.2318 1.1323 0.1466
C12 C 0.2646(2) 0.98432(19) 0.24659(13)
H10 H 0.2023 0.9320 0.2239
C13 C 0.41525(18) 0.66532(15) 0.33051(11)
C14 C 0.5092(2) 0.5818(2) 0.37795(15)
H11 H 0.5628 0.5123 0.3478
H12 H 0.5214 0.5927 0.4414
C15 C 0.39402(18) 0.64914(14) 0.22786(12)
C16 C 0.2788(2) 0.56832(16) 0.21797(13)
C17 C 0.1830(2) 0.49899(16) 0.21494(13)
C18 C 0.0626(2) 0.42033(15) 0.21089(13)
C19 C -0.0131(3) 0.3654(2) 0.29428(15)
H13 H 0.0161 0.3769 0.3539
C20 C -0.1319(3) 0.2936(2) 0.28933(19)
H14 H -0.1826 0.2571 0.3456
C21 C -0.1751(3) 0.2761(2) 0.2021(2)
H15 H -0.2564 0.2288 0.1992
C22 C -0.0995(3) 0.3277(2) 0.11891(19)
H16 H -0.1280 0.3140 0.0595
C23 C 0.0187(2) 0.40011(18) 0.12297(15)
H17 H 0.0694 0.4356 0.0662
C24 C 0.4831(2) 0.69823(15) 0.15054(12)
C25 C 0.4601(3) 0.6728(2) 0.04994(15)
H18 H 0.3892 0.6102 0.0532
H19 H 0.5577 0.6418 0.0158
H20 H 0.4187 0.7502 0.0167
C26 C 0.61166(18) 0.77563(15) 0.16083(11)
H21 H 0.5938 0.8046 0.2261
C27 C 0.6161(2) 0.89388(17) 0.08951(14)
H22 H 0.6322 0.8680 0.0241
H23 H 0.5173 0.9465 0.0980
C28 C 0.7439(3) 0.97077(19) 0.10405(17)
H24 H 0.7452 1.0436 0.0568
H25 H 0.7234 1.0022 0.1677
C29 C 0.9000(2) 0.8921(2) 0.09415(16)
H26 H 0.9783 0.9422 0.1080
H27 H 0.9259 0.8685 0.0284
C30 C 0.8989(2) 0.7733(2) 0.16259(17)
H28 H 0.8867 0.7972 0.2284
H29 H 0.9975 0.7211 0.1514
C31 C 0.7695(2) 0.69599(17) 0.15030(15)
H30 H 0.7691 0.6239 0.1983
H31 H 0.7885 0.6633 0.0871
O1 O 0.36916(15) 0.79282(14) 0.49343(8)
P1 P 0.31328(5) 0.79530(5) 0.39768(3)
loop_
_geom_bond_atom_site_label_1
_geom_bond_atom_site_label_2
_geom_bond_site_symmetry_1
_geom_bond_site_symmetry_2
C1 C2 1_555 1_555
C2 H1 1_555 1_555
C3 C2 1_555 1_555
H2 C3 1_555 1_555
C4 C3 1_555 1_555
H3 C4 1_555 1_555
C5 C4 1_555 1_555
H4 C5 1_555 1_555
C6 C1 1_555 1_555
H5 C6 1_555 1_555
C7 C8 1_555 1_555
C8 H6 1_555 1_555
C9 C8 1_555 1_555
H7 C9 1_555 1_555
C10 C9 1_555 1_555
H8 C10 1_555 1_555
C11 C10 1_555 1_555
H9 C11 1_555 1_555
C12 C7 1_555 1_555
H10 C12 1_555 1_555
C13 C14 1_555 1_555
C14 H11 1_555 1_555
H12 C14 1_555 1_555
C15 C13 1_555 1_555
C16 C15 1_555 1_555
C17 C16 1_555 1_555
C18 C17 1_555 1_555
C19 C18 1_555 1_555
H13 C19 1_555 1_555
C20 C19 1_555 1_555
H14 C20 1_555 1_555
C21 C20 1_555 1_555
H15 C21 1_555 1_555
C22 C21 1_555 1_555
H16 C22 1_555 1_555
C23 C18 1_555 1_555
H17 C23 1_555 1_555
C24 C15 1_555 1_555
C25 C24 1_555 1_555
H18 C25 1_555 1_555
H19 C25 1_555 1_555
H20 C25 1_555 1_555
C26 C24 1_555 1_555
H21 C26 1_555 1_555
C27 C26 1_555 1_555
H22 C27 1_555 1_555
H23 C27 1_555 1_555
C28 C27 1_555 1_555
H24 C28 1_555 1_555
H25 C28 1_555 1_555
C29 C28 1_555 1_555
H26 C29 1_555 1_555
H27 C29 1_555 1_555
C30 C29 1_555 1_555
H28 C30 1_555 1_555
H29 C30 1_555 1_555
C31 C26 1_555 1_555
H30 C31 1_555 1_555
H31 C31 1_555 1_555
O1 P1 1_555 1_555
P1 C1 1_555 1_555
C5 C6 1_555 1_555
C7 P1 1_555 1_555
C11 C12 1_555 1_555
C13 P1 1_555 1_555
C22 C23 1_555 1_555
C30 C31 1_555 1_555

#END
