
#######################################################################
#
#                 Cambridge Crystallographic Data Centre
#                                CCDC 
#
#######################################################################
#
# If this CIF has been generated from an entry in the Cambridge 
# Structural Database, then it will include bibliographic, chemical, 
# crystal, experimental, refinement or atomic coordinate data resulting 
# from the CCDC's data processing and validation procedures.
#
#######################################################################

data_KIRRIM
_chemical_name_common            
"bis(2,8,14,20-tetrakis(2-phenylethyl)-6,10:12,16:18,22:24,4-O,O'-tetramethylenecalix[4]resorcinarene-5,11,17,23-tetrayl) tetrakis(benzene-1,3-dicarboxylate) nitrobenzene clathrate"
_chemical_formula_moiety         'C160 H120 O32,C2 H2 Cl4,2(C6 H5 N1 O2)'
_chemical_name_systematic        
'Hemicarciplex tetrachloroethane nitrobenzene clathrate'
_symmetry_cell_setting           triclinic
_symmetry_space_group_name_H-M   'P -1'
_symmetry_Int_Tables_number      2
_space_group_name_Hall           '-P 1'
loop_
_symmetry_equiv_pos_site_id
_symmetry_equiv_pos_as_xyz
1 x,y,z
2 -x,-y,-z
_cell_length_a                   15.884(7)
_cell_length_b                   15.985(7)
_cell_length_c                   21.691(11)
_cell_angle_alpha                101.878(8)
_cell_angle_beta                 108.085(9)
_cell_angle_gamma                96.142(9)
_cell_volume                     5036.1
_exptl_crystal_colour            colorless
_cell_formula_units_Z            1
loop_
_atom_site_label
_atom_site_type_symbol
_atom_site_fract_x
_atom_site_fract_y
_atom_site_fract_z
O3 O 0.378(20) 0.719(2) 0.319(1)
O4 O 0.269(20) 0.611(2) 0.305(1)
N2 N 0.311(2) 0.661(2) 0.292(2)
C7 C 0.315(1) 0.715(1) 0.188(1)
C8 C 0.289(1) 0.699(1) 0.118(1)
C9 C 0.230(1) 0.623(1) 0.078(1)
C10 C 0.197(1) 0.563(1) 0.106(1)
C11 C 0.223(1) 0.579(1) 0.176(1)
C12 C 0.282(1) 0.655(1) 0.217(1)
H6 H 0.361 0.775 0.219
H7 H 0.315 0.746 0.096
H8 H 0.210 0.611 0.024
H9 H 0.152 0.504 0.075
H10 H 0.197 0.532 0.198
O5 O 0.219(2) 0.697(2) 0.838(1)
O6 O 0.234(2) 0.637(2) 0.922(1)
N3 N 0.199(2) 0.646(2) 0.865(2)
C13 C 0.094(1) 0.508(1) 0.851(1)
C14 C 0.018(1) 0.445(1) 0.811(1)
C15 C -0.031(1) 0.451(1) 0.747(1)
C16 C -0.004(1) 0.519(1) 0.722(1)
C17 C 0.072(1) 0.581(1) 0.762(1)
C18 C 0.121(1) 0.576(1) 0.826(1)
H11 H 0.132 0.504 0.901
H12 H -0.004 0.393 0.831
H13 H -0.091 0.402 0.717
H14 H -0.042 0.523 0.672
H15 H 0.093 0.634 0.742
O7 O 0.316(20) 0.829(2) 0.607(1)
O8 O 0.309(2) 0.736(2) 0.667(2)
N4 N 0.324(2) 0.765(2) 0.630(2)
C19 C 0.388(1) 0.730(1) 0.532(1)
C20 C 0.423(1) 0.672(1) 0.493(1)
C21 C 0.431(1) 0.590(1) 0.504(1)
C22 C 0.403(1) 0.566(1) 0.554(1)
C23 C 0.368(1) 0.623(1) 0.593(1)
C24 C 0.361(1) 0.705(1) 0.582(1)
H16 H 0.382 0.794 0.524
H17 H 0.444 0.691 0.455
H18 H 0.458 0.545 0.474
H19 H 0.409 0.502 0.563
H20 H 0.347 0.604 0.632
O9 O 0.122(3) -0.703(4) 0.660(2)
O10 O 0.102(3) -0.612(3) 0.615(3)
N5 N 0.129(4) -0.647(4) 0.657(3)
C25 C 0.220(2) -0.500(2) 0.695(1)
C26 C 0.290(2) -0.442(2) 0.747(1)
C27 C 0.334(2) -0.468(2) 0.805(1)
C28 C 0.308(2) -0.552(2) 0.809(1)
C29 C 0.239(2) -0.610(2) 0.757(1)
C30 C 0.195(2) -0.584(2) 0.699(1)
C31 C -0.026(2) -0.102(2) 0.210(1)
C32 C -0.086(2) -0.048(2) 0.222(1)
C33 C -0.078(2) 0.037(2) 0.221(1)
C34 C -0.004(2) 0.073(2) 0.207(1)
C35 C 0.058(2) 0.022(1) 0.194(1)
H21 H 0.113 0.050 0.181
C36 C 0.049(1) -0.066(1) 0.196(1)
C37 C 0.119(2) -0.118(2) 0.184(1)
H22 H 0.085 -0.183 0.154
C38 C 0.168(1) -0.094(1) 0.137(1)
H23 H 0.199 -0.026 0.155
H24 H 0.219 -0.133 0.136
C39 C 0.098(2) -0.110(2) 0.067(1)
H25 H 0.069 -0.178 0.049
H26 H 0.045 -0.073 0.069
C40 C 0.134(1) -0.004(1) 0.002(1)
C41 C 0.173(1) 0.021(1) -0.043(1)
C42 C 0.222(1) -0.033(1) -0.071(1)
C43 C 0.232(1) -0.112(1) -0.054(1)
C44 C 0.194(1) -0.137(1) -0.009(1)
C45 C 0.144(1) -0.083(1) 0.018(1)
H27 H 0.096 0.038 0.023
H28 H 0.165 0.082 -0.056
H29 H 0.252 -0.014 -0.105
H30 H 0.270 -0.154 -0.076
H31 H 0.202 -0.198 0.004
O11 O -0.041(1) -0.190(1) 0.208(1)
C46 C 0.010(2) -0.213(2) 0.267(1)
H32 H 0.023 -0.159 0.310
H33 H -0.029 -0.269 0.272
O12 O 0.094(1) -0.235(1) 0.263(1)
C47 C 0.168(2) -0.172(1) 0.291(1)
C48 C 0.186(2) -0.112(2) 0.253(1)
C49 C 0.265(2) -0.050(1) 0.283(1)
H34 H 0.281 -0.008 0.253
C50 C 0.324(1) -0.040(1) 0.349(1)
C51 C 0.301(2) -0.100(1) 0.385(1)
C52 C 0.229(2) -0.163(1) 0.354(1)
O13 O 0.214(1) -0.231(1) 0.386(1)
C53 C 0.166(2) -0.218(2) 0.428(1)
O14 O 0.141(1) -0.150(1) 0.442(1)
C54 C 0.157(1) -0.296(1) 0.454(1)
C55 C 0.187(1) -0.370(1) 0.435(1)
H35 H 0.225 -0.372 0.401
C56 C 0.175(1) -0.441(1) 0.459(1)
H36 H 0.200 -0.499 0.445
C57 C 0.128(1) -0.436(2) 0.503(1)
H37 H 0.118 -0.491 0.523
C58 C 0.092(1) -0.363(1) 0.524(1)
C59 C 0.107(1) -0.292(1) 0.498(1)
H38 H 0.081 -0.233 0.513
O15 O 0.357(1) -0.095(1) 0.449(1)
C60 C 0.348(1) -0.027(1) 0.500(1)
H39 H 0.282 -0.010 0.481
H40 H 0.352 -0.051 0.544
O16 O 0.416(1) 0.048(1) 0.517(1)
C61 C 0.390(1) 0.115(1) 0.485(1)
C62 C 0.373(1) 0.189(2) 0.523(1)
O17 O 0.388(1) 0.198(1) 0.594(1)
C63 C 0.320(2) 0.164(2) 0.610(1)
O18 O 0.253(1) 0.120(1) 0.570(1)
C64 C 0.343(2) 0.183(2) 0.686(1)
C65 C 0.422(2) 0.235(1) 0.727(1)
H41 H 0.471 0.261 0.708
C66 C 0.437(2) 0.252(2) 0.797(1)
H42 H 0.499 0.292 0.833
C67 C 0.377(2) 0.218(2) 0.821(1)
H43 H 0.390 0.229 0.874
C68 C 0.295(2) 0.168(2) 0.776(1)
C69 C 0.277(2) 0.149(1) 0.706(1)
H44 H 0.216 0.107 0.671
C70 C 0.225(2) 0.135(2) 0.804(1)
O19 O 0.238(1) 0.147(1) 0.863(1)
O20 O -0.153(1) -0.086(1) 0.244(1)
C71 C 0.345(2) 0.255(2) 0.492(1)
C72 C 0.337(1) 0.248(1) 0.426(1)
C73 C 0.361(1) 0.177(1) 0.392(1)
H45 H 0.360 0.175 0.342
C74 C 0.386(1) 0.108(1) 0.421(1)
C75 C 0.409(1) 0.028(1) 0.380(1)
H46 H 0.460 0.003 0.413
C76 C 0.453(1) 0.048(1) 0.330(1)
H47 H 0.403 0.064 0.290
H48 H 0.507 0.103 0.356
C77 C 0.492(2) -0.029(1) 0.301(1)
H49 H 0.554 -0.033 0.338
H50 H 0.444 -0.088 0.289
C78 C 0.598(1) 0.016(1) 0.241(1)
C79 C 0.615(1) 0.023(1) 0.183(1)
C80 C 0.546(1) -0.005(1) 0.121(1)
C81 C 0.460(1) -0.040(1) 0.117(1)
C82 C 0.443(1) -0.048(1) 0.175(1)
C83 C 0.512(1) -0.020(1) 0.237(1)
H51 H 0.652 0.037 0.289
H52 H 0.682 0.051 0.186
H53 H 0.560 0.001 0.076
H54 H 0.407 -0.062 0.069
H55 H 0.376 -0.075 0.172
O21 O 0.326(1) 0.326(1) 0.533(1)
C84 C 0.234(1) 0.324(1) 0.528(1)
H56 H 0.201 0.258 0.516
H57 H 0.231 0.360 0.575
O22 O 0.191(1) 0.365(1) 0.475(1)
C85 C 0.151(2) 0.315(1) 0.409(1)
C86 C 0.059(2) 0.288(1) 0.387(1)
C87 C 0.012(2) 0.245(1) 0.320(1)
C88 C 0.059(2) 0.224(1) 0.278(1)
C89 C 0.151(1) 0.250(1) 0.301(1)
H58 H 0.188 0.235 0.266
C90 C 0.198(1) 0.294(1) 0.365(1)
C91 C 0.300(1) 0.321(1) 0.395(1)
H59 H 0.318 0.382 0.433
C92 C 0.344(1) 0.341(1) 0.345(1)
H60 H 0.417 0.353 0.368
H61 H 0.324 0.286 0.302
C93 C 0.317(2) 0.422(2) 0.321(1)
H62 H 0.337 0.477 0.364
H63 H 0.244 0.410 0.298
C94 C 0.320(1) 0.395(1) 0.204(1)
C95 C 0.360(1) 0.413(1) 0.158(1)
C96 C 0.437(1) 0.476(1) 0.180(1)
C97 C 0.475(1) 0.521(1) 0.247(1)
C98 C 0.435(1) 0.504(1) 0.293(1)
C99 C 0.358(1) 0.441(1) 0.272(1)
H64 H 0.259 0.346 0.188
H65 H 0.330 0.378 0.106
H66 H 0.468 0.490 0.144
H67 H 0.536 0.570 0.264
H68 H 0.465 0.539 0.345
O23 O 0.010(1) 0.298(1) 0.433(1)
C100 C 0.038(2) -0.361(2) 0.569(1)
O24 O 0.039(1) -0.412(1) 0.604(1)
O25 O -0.084(1) 0.225(1) 0.297(1)
C101 C -0.124(2) 0.141(2) 0.296(1)
H69 H -0.078 0.117 0.333
H70 H -0.186 0.145 0.306
O26 O -0.143(1) 0.083(1) 0.232(1)
C102 C 0.009(2) 0.170(1) 0.206(1)
H71 H -0.054 0.193 0.189
C103 C 0.048(1) 0.186(1) 0.150(1)
H72 H 0.010 0.139 0.103
H73 H 0.117 0.177 0.165
C104 C 0.046(1) 0.279(1) 0.140(1)
H74 H 0.096 0.324 0.183
H75 H -0.020 0.293 0.136
C105 C 0.015(1) 0.343(1) 0.042(1)
C106 C 0.031(1) 0.356(1) -0.015(1)
C107 C 0.097(1) 0.319(1) -0.035(1)
C108 C 0.147(1) 0.269(1) 0.003(1)
C109 C 0.131(1) 0.255(1) 0.060(1)
C110 C 0.065(1) 0.292(1) 0.080(1)
H76 H -0.037 0.372 0.057
H77 H -0.008 0.395 -0.044
H78 H 0.110 0.329 -0.079
H79 H 0.198 0.240 -0.012
H80 H 0.169 0.216 0.089
O20A O 0.153(1) 0.086(1) 0.756(1)
C70A C -0.225(2) -0.135(2) 0.196(1)
C100A C -0.038(2) 0.361(2) 0.431(1)
O23A O -0.010(1) -0.298(1) 0.567(1)
C32A C 0.086(2) 0.048(2) 0.778(1)
C68A C -0.295(2) -0.168(2) 0.224(1)
O19A O -0.238(1) -0.147(1) 0.137(1)
C58A C -0.092(1) 0.363(1) 0.476(1)
O24A O -0.039(1) 0.412(1) 0.396(1)
C86A C -0.059(2) -0.288(1) 0.613(1)
C31A C 0.026(2) 0.102(2) 0.790(1)
C33A C 0.078(2) -0.037(2) 0.779(1)
C67A C -0.377(2) -0.218(2) 0.179(1)
C69A C -0.277(2) -0.149(1) 0.294(1)
C57A C -0.128(1) 0.436(2) 0.497(1)
C59A C -0.107(1) 0.292(1) 0.502(1)
C85A C -0.151(2) -0.315(1) 0.591(1)
C87A C -0.012(2) -0.245(1) 0.680(1)
C36A C -0.049(1) 0.066(1) 0.804(1)
O11A O 0.041(1) 0.190(1) 0.792(1)
C34A C 0.004(2) -0.073(2) 0.793(1)
O26A O 0.143(1) -0.083(1) 0.768(1)
C66A C -0.437(2) -0.252(2) 0.203(1)
H43A H -0.390 -0.229 0.126
C64A C -0.343(2) -0.183(2) 0.314(1)
H44A H -0.216 -0.107 0.329
C56A C -0.175(1) 0.441(1) 0.541(1)
H37A H -0.118 0.491 0.477
C54A C -0.157(1) 0.296(1) 0.546(1)
H38A H -0.081 0.233 0.487
O22A O -0.191(1) -0.365(1) 0.525(1)
C90A C -0.198(1) -0.294(1) 0.635(1)
C88A C -0.059(2) -0.224(1) 0.722(1)
O25A O 0.084(1) -0.225(1) 0.703(1)
C35A C -0.058(2) -0.022(1) 0.806(1)
C37A C -0.119(2) 0.118(2) 0.816(1)
C46A C -0.010(2) 0.213(2) 0.733(1)
C102A C -0.009(2) -0.170(1) 0.794(1)
C101A C 0.124(2) -0.141(2) 0.704(1)
C65A C -0.422(2) -0.235(1) 0.273(1)
H42A H -0.499 -0.292 0.167
C63A C -0.320(2) -0.164(2) 0.390(1)
C55A C -0.187(1) 0.370(1) 0.565(1)
H36A H -0.200 0.499 0.555
C53A C -0.166(2) 0.218(2) 0.572(1)
C84A C -0.234(1) -0.324(1) 0.472(1)
C89A C -0.151(1) -0.250(1) 0.699(1)
C91A C -0.300(1) -0.321(1) 0.605(1)
H21A H -0.113 -0.050 0.819
H22A H -0.085 0.183 0.846
C38A C -0.168(1) 0.094(1) 0.863(1)
C48A C -0.186(2) 0.112(2) 0.747(1)
H32A H -0.023 0.159 0.690
H33A H 0.029 0.269 0.728
O12A O -0.094(1) 0.235(1) 0.737(1)
H71A H 0.054 -0.193 0.811
C103A C -0.048(1) -0.186(1) 0.850(1)
H69A H 0.078 -0.117 0.667
H70A H 0.186 -0.145 0.694
H41A H -0.471 -0.261 0.292
O17A O -0.388(1) -0.198(1) 0.406(1)
O18A O -0.253(1) -0.120(1) 0.430(1)
H35A H -0.225 0.372 0.599
O13A O -0.214(1) 0.231(1) 0.614(1)
O14A O -0.141(1) 0.150(1) 0.558(1)
O21A O -0.326(1) -0.326(1) 0.467(1)
H56A H -0.201 -0.258 0.484
H57A H -0.231 -0.360 0.425
H58A H -0.188 -0.235 0.734
C72A C -0.337(1) -0.248(1) 0.574(1)
H59A H -0.318 -0.382 0.567
C92A C -0.344(1) -0.341(1) 0.655(1)
H23A H -0.199 0.026 0.845
H24A H -0.219 0.133 0.864
C39A C -0.098(2) 0.110(2) 0.933(1)
C47A C -0.168(2) 0.172(1) 0.709(1)
C49A C -0.265(2) 0.050(1) 0.717(1)
H72A H -0.010 -0.139 0.897
H73A H -0.117 -0.177 0.835
C104A C -0.046(1) -0.279(1) 0.860(1)
C62A C -0.373(1) -0.189(2) 0.477(1)
C52A C -0.229(2) 0.163(1) 0.646(1)
C71A C -0.345(2) -0.255(2) 0.508(1)
C73A C -0.361(1) -0.177(1) 0.608(1)
H60A H -0.417 -0.353 0.632
H61A H -0.324 -0.286 0.698
C93A C -0.317(2) -0.422(2) 0.679(1)
H25A H -0.069 0.178 0.951
H26A H -0.045 0.073 0.931
C45A C -0.144(1) 0.083(1) 0.982(1)
H34A H -0.281 0.008 0.747
C50A C -0.324(1) 0.040(1) 0.651(1)
H74A H -0.096 -0.324 0.817
H75A H 0.020 -0.293 0.864
C110A C -0.065(1) -0.292(1) 0.920(1)
C61A C -0.390(1) -0.115(1) 0.515(1)
C51A C -0.301(2) 0.100(1) 0.615(1)
H45A H -0.360 -0.175 0.658
C74A C -0.386(1) -0.108(1) 0.579(1)
H62A H -0.337 -0.477 0.636
H63A H -0.244 -0.410 0.702
C99A C -0.358(1) -0.441(1) 0.728(1)
C40A C -0.134(1) 0.004(1) 0.998(1)
C44A C -0.194(1) 0.137(1) 1.009(1)
C75A C -0.409(1) -0.028(1) 0.620(1)
C105A C -0.015(1) -0.343(1) 0.958(1)
C109A C -0.131(1) -0.255(1) 0.940(1)
O16A O -0.416(1) -0.048(1) 0.483(1)
O15A O -0.357(1) 0.095(1) 0.551(1)
C94A C -0.320(1) -0.395(1) 0.796(1)
C98A C -0.435(1) -0.504(1) 0.707(1)
C41A C -0.173(1) -0.021(1) 1.043(1)
H27A H -0.096 -0.038 0.977
C43A C -0.232(1) 0.112(1) 1.054(1)
H31A H -0.202 0.198 0.996
H46A H -0.460 -0.003 0.587
C76A C -0.453(1) -0.048(1) 0.670(1)
C106A C -0.031(1) -0.356(1) 1.015(1)
H76A H 0.037 -0.372 0.943
C108A C -0.147(1) -0.269(1) 0.997(1)
H80A H -0.169 -0.216 0.911
C60A C -0.348(1) 0.027(1) 0.500(1)
C95A C -0.360(1) -0.413(1) 0.842(1)
H64A H -0.259 -0.346 0.812
C97A C -0.475(1) -0.521(1) 0.753(1)
H68A H -0.465 -0.539 0.655
C42A C -0.222(1) 0.033(1) 1.071(1)
H28A H -0.165 -0.082 1.056
H30A H -0.270 0.154 1.076
H47A H -0.403 -0.064 0.710
H48A H -0.507 -0.103 0.644
C77A C -0.492(2) 0.029(1) 0.699(1)
C107A C -0.097(1) -0.319(1) 1.035(1)
H77A H 0.008 -0.395 1.044
H79A H -0.198 -0.240 1.012
H39A H -0.282 0.010 0.519
H40A H -0.352 0.051 0.456
C96A C -0.437(1) -0.476(1) 0.820(1)
H65A H -0.330 -0.378 0.894
H67A H -0.536 -0.570 0.736
H29A H -0.252 0.014 1.105
H49A H -0.554 0.033 0.662
H50A H -0.444 0.088 0.711
C83A C -0.512(1) 0.020(1) 0.763(1)
H78A H -0.110 -0.329 1.079
H66A H -0.468 -0.490 0.856
C78A C -0.598(1) -0.016(1) 0.759(1)
C82A C -0.443(1) 0.048(1) 0.825(1)
C79A C -0.615(1) -0.023(1) 0.817(1)
H51A H -0.652 -0.037 0.711
C81A C -0.460(1) 0.040(1) 0.883(1)
H55A H -0.376 0.075 0.828
C80A C -0.546(1) 0.005(1) 0.879(1)
H52A H -0.682 -0.051 0.814
H54A H -0.407 0.062 0.931
H53A H -0.560 -0.001 0.924
O1 O 0.446(2) 0.212(2) 0.252(1)
O2 O 0.315(2) 0.153(2) 0.180(1)
N1 N 0.386(2) 0.180(2) 0.203(2)
C1 C 0.519(1) 0.219(1) 0.162(1)
C2 C 0.554(1) 0.223(1) 0.111(1)
C3 C 0.498(1) 0.195(1) 0.044(1)
C4 C 0.406(1) 0.162(1) 0.029(1)
C5 C 0.371(1) 0.159(1) 0.080(1)
C6 C 0.428(1) 0.187(1) 0.147(1)
H1 H 0.563 0.241 0.214
H2 H 0.625 0.248 0.123
H3 H 0.524 0.198 0.004
H4 H 0.363 0.140 -0.023
H5 H 0.301 0.134 0.068
C111? C 0.445(5) 0.529(4) -0.003(3)
C112? C 0.514(5) 0.597(4) 0.010(3)
C113? C 0.352(5) 0.492(5) -0.004(4)
C114? C 0.367(4) 0.410(4) -0.017(3)
C115? C -0.028(4) -0.069(4) 0.465(3)
Cl1? Cl 0.050(3) 0.050(4) 0.425(3)
Cl2? Cl 0.051(3) 0.130(3) 0.487(3)
Cl3? Cl 0.079(5) 0.145(6) 0.597(4)
C116? C 0.020(5) 0.015(5) 0.486(4)
Cl4? Cl -0.011(4) -0.024(5) 0.417(3)
loop_
_geom_bond_atom_site_label_1
_geom_bond_atom_site_label_2
_geom_bond_site_symmetry_1
_geom_bond_site_symmetry_2
O1 N1 1_555 1_555
O2 N1 1_555 1_555
N1 C6 1_555 1_555
C1 C2 1_555 1_555
C2 C3 1_555 1_555
C3 C4 1_555 1_555
C4 C5 1_555 1_555
C5 C6 1_555 1_555
C6 C1 1_555 1_555
H1 C1 1_555 1_555
H2 C2 1_555 1_555
H3 C3 1_555 1_555
H4 C4 1_555 1_555
H5 C5 1_555 1_555
O3 N2 1_555 1_555
O4 N2 1_555 1_555
N2 C12 1_555 1_555
C7 C8 1_555 1_555
C8 C9 1_555 1_555
C9 C10 1_555 1_555
C10 C11 1_555 1_555
C11 C12 1_555 1_555
C12 C7 1_555 1_555
H6 C7 1_555 1_555
H7 C8 1_555 1_555
H8 C9 1_555 1_555
H9 C10 1_555 1_555
H10 C11 1_555 1_555
O5 N3 1_555 1_555
O6 N3 1_555 1_555
N3 C18 1_555 1_555
C13 C14 1_555 1_555
C14 C15 1_555 1_555
C15 C16 1_555 1_555
C16 C17 1_555 1_555
C17 C18 1_555 1_555
C18 C13 1_555 1_555
H11 C13 1_555 1_555
H12 C14 1_555 1_555
H13 C15 1_555 1_555
H14 C16 1_555 1_555
H15 C17 1_555 1_555
O7 N4 1_555 1_555
O8 N4 1_555 1_555
N4 C24 1_555 1_555
C19 C20 1_555 1_555
C20 C21 1_555 1_555
C21 C22 1_555 1_555
C22 C23 1_555 1_555
C23 C24 1_555 1_555
C24 C19 1_555 1_555
H16 C19 1_555 1_555
H17 C20 1_555 1_555
H18 C21 1_555 1_555
H19 C22 1_555 1_555
H20 C23 1_555 1_555
O9 N5 1_555 1_555
O10 N5 1_555 1_555
N5 C30 1_555 1_555
C25 C26 1_555 1_555
C26 C27 1_555 1_555
C27 C28 1_555 1_555
C28 C29 1_555 1_555
C29 C30 1_555 1_555
C30 C25 1_555 1_555
C31 C32 1_555 1_555
C32 C33 1_555 1_555
C33 C34 1_555 1_555
C34 C35 1_555 1_555
C35 H21 1_555 1_555
C36 C31 1_555 1_555
C37 C36 1_555 1_555
H22 C37 1_555 1_555
C38 C37 1_555 1_555
H23 C38 1_555 1_555
H24 C38 1_555 1_555
C39 C38 1_555 1_555
H25 C39 1_555 1_555
H26 C39 1_555 1_555
C40 C41 1_555 1_555
C41 C42 1_555 1_555
C42 C43 1_555 1_555
C43 C44 1_555 1_555
C44 C45 1_555 1_555
C45 C39 1_555 1_555
H27 C40 1_555 1_555
H28 C41 1_555 1_555
H29 C42 1_555 1_555
H30 C43 1_555 1_555
H31 C44 1_555 1_555
O11 C31 1_555 1_555
C46 O11 1_555 1_555
H32 C46 1_555 1_555
H33 C46 1_555 1_555
O12 C46 1_555 1_555
C47 O12 1_555 1_555
C48 C37 1_555 1_555
C49 C48 1_555 1_555
H34 C49 1_555 1_555
C50 C49 1_555 1_555
C51 C50 1_555 1_555
C52 C47 1_555 1_555
O13 C52 1_555 1_555
C53 O13 1_555 1_555
O14 C53 1_555 1_555
C54 C53 1_555 1_555
C55 C54 1_555 1_555
H35 C55 1_555 1_555
C56 C55 1_555 1_555
H36 C56 1_555 1_555
C57 C56 1_555 1_555
H37 C57 1_555 1_555
C58 C57 1_555 1_555
C59 C54 1_555 1_555
H38 C59 1_555 1_555
O15 C51 1_555 1_555
C60 O15 1_555 1_555
H39 C60 1_555 1_555
H40 C60 1_555 1_555
O16 C60 1_555 1_555
C61 O16 1_555 1_555
C62 C61 1_555 1_555
O17 C62 1_555 1_555
C63 O17 1_555 1_555
O18 C63 1_555 1_555
C64 C63 1_555 1_555
C65 C64 1_555 1_555
H41 C65 1_555 1_555
C66 C65 1_555 1_555
H42 C66 1_555 1_555
C67 C66 1_555 1_555
H43 C67 1_555 1_555
C68 C67 1_555 1_555
C69 C64 1_555 1_555
H44 C69 1_555 1_555
C70 C68 1_555 1_555
O19 C70 1_555 1_555
O20 C32 1_555 1_555
C71 C62 1_555 1_555
C72 C71 1_555 1_555
C73 C72 1_555 1_555
H45 C73 1_555 1_555
C74 C61 1_555 1_555
C75 C50 1_555 1_555
H46 C75 1_555 1_555
C76 C75 1_555 1_555
H47 C76 1_555 1_555
H48 C76 1_555 1_555
C77 C76 1_555 1_555
H49 C77 1_555 1_555
H50 C77 1_555 1_555
C78 C79 1_555 1_555
C79 C80 1_555 1_555
C80 C81 1_555 1_555
C81 C82 1_555 1_555
C82 C83 1_555 1_555
C83 C77 1_555 1_555
H51 C78 1_555 1_555
H52 C79 1_555 1_555
H53 C80 1_555 1_555
H54 C81 1_555 1_555
H55 C82 1_555 1_555
O21 C71 1_555 1_555
C84 O21 1_555 1_555
H56 C84 1_555 1_555
H57 C84 1_555 1_555
O22 C84 1_555 1_555
C85 O22 1_555 1_555
C86 C85 1_555 1_555
C87 C86 1_555 1_555
C88 C87 1_555 1_555
C89 C88 1_555 1_555
H58 C89 1_555 1_555
C90 C85 1_555 1_555
C91 C72 1_555 1_555
H59 C91 1_555 1_555
C92 C91 1_555 1_555
H60 C92 1_555 1_555
H61 C92 1_555 1_555
C93 C92 1_555 1_555
H62 C93 1_555 1_555
H63 C93 1_555 1_555
C94 C95 1_555 1_555
C95 C96 1_555 1_555
C96 C97 1_555 1_555
C97 C98 1_555 1_555
C98 C99 1_555 1_555
C99 C93 1_555 1_555
H64 C94 1_555 1_555
H65 C95 1_555 1_555
H66 C96 1_555 1_555
H67 C97 1_555 1_555
H68 C98 1_555 1_555
O23 C86 1_555 1_555
C100 C58 1_555 1_555
O24 C100 1_555 1_555
O25 C87 1_555 1_555
C101 O25 1_555 1_555
H69 C101 1_555 1_555
H70 C101 1_555 1_555
O26 C33 1_555 1_555
C102 C34 1_555 1_555
H71 C102 1_555 1_555
C103 C102 1_555 1_555
H72 C103 1_555 1_555
H73 C103 1_555 1_555
C104 C103 1_555 1_555
H74 C104 1_555 1_555
H75 C104 1_555 1_555
C105 C106 1_555 1_555
C106 C107 1_555 1_555
C107 C108 1_555 1_555
C108 C109 1_555 1_555
C109 C110 1_555 1_555
C110 C104 1_555 1_555
H76 C105 1_555 1_555
H77 C106 1_555 1_555
H78 C107 1_555 1_555
H79 C108 1_555 1_555
H80 C109 1_555 1_555
O20A C70 1_555 1_555
C70A O20 1_555 1_555
C100A O23 1_555 1_555
O23A C100 1_555 1_555
C32A O20A 1_555 1_555
C68A C70A 1_555 1_555
O19A C70A 1_555 1_555
C58A C100A 1_555 1_555
O24A C100A 1_555 1_555
C86A O23A 1_555 1_555
C31A C32A 1_555 1_555
C33A C32A 1_555 1_555
C67A C68A 1_555 1_555
C69A C68A 1_555 1_555
C57A C58A 1_555 1_555
C59A C58A 1_555 1_555
C85A C86A 1_555 1_555
C87A C86A 1_555 1_555
C36A C31A 1_555 1_555
O11A C31A 1_555 1_555
C34A C33A 1_555 1_555
O26A C33A 1_555 1_555
C66A C67A 1_555 1_555
H43A C67A 1_555 1_555
C64A C69A 1_555 1_555
H44A C69A 1_555 1_555
C56A C57A 1_555 1_555
H37A C57A 1_555 1_555
C54A C59A 1_555 1_555
H38A C59A 1_555 1_555
O22A C85A 1_555 1_555
C90A C85A 1_555 1_555
C88A C87A 1_555 1_555
O25A C87A 1_555 1_555
C35A C36A 1_555 1_555
C37A C36A 1_555 1_555
C46A O11A 1_555 1_555
C102A C34A 1_555 1_555
C101A O26A 1_555 1_555
C65A C66A 1_555 1_555
H42A C66A 1_555 1_555
C63A C64A 1_555 1_555
C55A C56A 1_555 1_555
H36A C56A 1_555 1_555
C53A C54A 1_555 1_555
C84A O22A 1_555 1_555
C89A C90A 1_555 1_555
C91A C90A 1_555 1_555
H21A C35A 1_555 1_555
H22A C37A 1_555 1_555
C38A C37A 1_555 1_555
C48A C37A 1_555 1_555
H32A C46A 1_555 1_555
H33A C46A 1_555 1_555
O12A C46A 1_555 1_555
H71A C102A 1_555 1_555
C103A C102A 1_555 1_555
H69A C101A 1_555 1_555
H70A C101A 1_555 1_555
H41A C65A 1_555 1_555
O17A C63A 1_555 1_555
O18A C63A 1_555 1_555
H35A C55A 1_555 1_555
O13A C53A 1_555 1_555
O14A C53A 1_555 1_555
O21A C84A 1_555 1_555
H56A C84A 1_555 1_555
H57A C84A 1_555 1_555
H58A C89A 1_555 1_555
C72A C91A 1_555 1_555
H59A C91A 1_555 1_555
C92A C91A 1_555 1_555
H23A C38A 1_555 1_555
H24A C38A 1_555 1_555
C39A C38A 1_555 1_555
C47A C48A 1_555 1_555
C49A C48A 1_555 1_555
H72A C103A 1_555 1_555
H73A C103A 1_555 1_555
C104A C103A 1_555 1_555
C62A O17A 1_555 1_555
C52A O13A 1_555 1_555
C71A O21A 1_555 1_555
C73A C72A 1_555 1_555
H60A C92A 1_555 1_555
H61A C92A 1_555 1_555
C93A C92A 1_555 1_555
H25A C39A 1_555 1_555
H26A C39A 1_555 1_555
C45A C39A 1_555 1_555
H34A C49A 1_555 1_555
C50A C49A 1_555 1_555
H74A C104A 1_555 1_555
H75A C104A 1_555 1_555
C110A C104A 1_555 1_555
C61A C62A 1_555 1_555
C51A C52A 1_555 1_555
H45A C73A 1_555 1_555
C74A C73A 1_555 1_555
H62A C93A 1_555 1_555
H63A C93A 1_555 1_555
C99A C93A 1_555 1_555
C40A C45A 1_555 1_555
C44A C45A 1_555 1_555
C75A C50A 1_555 1_555
C105A C110A 1_555 1_555
C109A C110A 1_555 1_555
O16A C61A 1_555 1_555
O15A C51A 1_555 1_555
C94A C99A 1_555 1_555
C98A C99A 1_555 1_555
C41A C40A 1_555 1_555
H27A C40A 1_555 1_555
C43A C44A 1_555 1_555
H31A C44A 1_555 1_555
H46A C75A 1_555 1_555
C76A C75A 1_555 1_555
C106A C105A 1_555 1_555
H76A C105A 1_555 1_555
C108A C109A 1_555 1_555
H80A C109A 1_555 1_555
C60A O16A 1_555 1_555
C95A C94A 1_555 1_555
H64A C94A 1_555 1_555
C97A C98A 1_555 1_555
H68A C98A 1_555 1_555
C42A C41A 1_555 1_555
H28A C41A 1_555 1_555
H30A C43A 1_555 1_555
H47A C76A 1_555 1_555
H48A C76A 1_555 1_555
C77A C76A 1_555 1_555
C107A C106A 1_555 1_555
H77A C106A 1_555 1_555
H79A C108A 1_555 1_555
H39A C60A 1_555 1_555
H40A C60A 1_555 1_555
C96A C95A 1_555 1_555
H65A C95A 1_555 1_555
H67A C97A 1_555 1_555
H29A C42A 1_555 1_555
H49A C77A 1_555 1_555
H50A C77A 1_555 1_555
C83A C77A 1_555 1_555
H78A C107A 1_555 1_555
H66A C96A 1_555 1_555
C78A C83A 1_555 1_555
C82A C83A 1_555 1_555
C79A C78A 1_555 1_555
H51A C78A 1_555 1_555
C81A C82A 1_555 1_555
H55A C82A 1_555 1_555
C80A C79A 1_555 1_555
H52A C79A 1_555 1_555
H54A C81A 1_555 1_555
H53A C80A 1_555 1_555
C35 C36 1_555 1_555
C40 C45 1_555 1_555
C47 C48 1_555 1_555
C51 C52 1_555 1_555
C58 C59 1_555 1_555
C68 C69 1_555 1_555
C73 C74 1_555 1_555
C74 C75 1_555 1_555
C78 C83 1_555 1_555
C88 C102 1_555 1_555
C89 C90 1_555 1_555
C90 C91 1_555 1_555
C94 C99 1_555 1_555
C101 O26 1_555 1_555
C105 C110 1_555 1_555
C34A C35A 1_555 1_555
C64A C65A 1_555 1_555
C54A C55A 1_555 1_555
C88A C102A 1_555 1_555
C88A C89A 1_555 1_555
O25A C101A 1_555 1_555
O12A C47A 1_555 1_555
C72A C71A 1_555 1_555
C47A C52A 1_555 1_555
C62A C71A 1_555 1_555
C50A C51A 1_555 1_555
C61A C74A 1_555 1_555
C74A C75A 1_555 1_555
O15A C60A 1_555 1_555
C43A C42A 1_555 1_555
C108A C107A 1_555 1_555
C97A C96A 1_555 1_555
C81A C80A 1_555 1_555

#END
