
#######################################################################
#
#                 Cambridge Crystallographic Data Centre
#                                CCDC 
#
#######################################################################
#
# If this CIF has been generated from an entry in the Cambridge 
# Structural Database, then it will include bibliographic, chemical, 
# crystal, experimental, refinement or atomic coordinate data resulting 
# from the CCDC's data processing and validation procedures.
#
#######################################################################

data_KIRTUA
_chemical_formula_moiety         'C76 H98 N6 O10,2(C4 H8 O1),H2 O1'
_chemical_name_systematic        
'Cholaphane tetrahydrofuran monohydrate clathrate'
_symmetry_cell_setting           orthorhombic
_symmetry_space_group_name_H-M   'C 2 2 21'
_symmetry_Int_Tables_number      20
_space_group_name_Hall           'C 2n 2'
loop_
_symmetry_equiv_pos_site_id
_symmetry_equiv_pos_as_xyz
1 x,y,z
2 1/2+x,1/2+y,z
3 x,-y,-z
4 1/2+x,1/2-y,-z
5 -x,y,1/2-z
6 1/2-x,1/2+y,1/2-z
7 -x,-y,1/2+z
8 1/2-x,1/2-y,1/2+z
_cell_length_a                   13.583(8)
_cell_length_b                   17.775(6)
_cell_length_c                   33.445(13)
_cell_angle_alpha                90
_cell_angle_beta                 90
_cell_angle_gamma                90
_cell_volume                     8074.89
_exptl_crystal_colour            colorless
_cell_formula_units_Z            4
loop_
_atom_site_label
_atom_site_type_symbol
_atom_site_fract_x
_atom_site_fract_y
_atom_site_fract_z
C1 C 0.6222(6) 0.6667(5) 0.7156(3)
C2 C 0.6401(7) 0.5841(5) 0.7040(3)
C3 C 0.7389(6) 0.5523(4) 0.7228(3)
C4 C 0.8212(6) 0.6084(4) 0.7108(3)
C5 C 0.8009(7) 0.6920(4) 0.7229(3)
C6 C 0.8912(7) 0.7395(5) 0.7100(3)
C7 C 0.9029(7) 0.7547(5) 0.6662(3)
O1 O 0.9299(4) 0.6874(3) 0.6444(2)
C8 C 0.8086(6) 0.7826(5) 0.6474(2)
C9 C 0.7167(6) 0.7347(4) 0.6585(3)
C10 C 0.7049(7) 0.7211(5) 0.7034(3)
C11 C 0.6236(6) 0.7636(5) 0.6376(3)
C12 C 0.6335(7) 0.7846(5) 0.5942(3)
O2 O 0.6411(4) 0.7142(3) 0.5712(2)
C13 C 0.7248(7) 0.8318(4) 0.5832(3)
C14 C 0.8162(6) 0.7941(5) 0.6030(3)
C15 C 0.9007(7) 0.8360(5) 0.5850(3)
C16 C 0.8693(7) 0.8600(5) 0.5438(3)
C17 C 0.7566(7) 0.8392(5) 0.5403(3)
C18 C 0.7040(8) 0.8919(6) 0.5109(3)
C19 C 0.7489(8) 0.8926(5) 0.4692(3)
C20 C 0.7431(8) 0.8174(5) 0.4465(3)
C21 C 0.7806(7) 0.8206(5) 0.4051(2)
O3 O 0.8032(5) 0.8803(3) 0.3873(2)
N1 N 0.7842(6) 0.7549(4) 0.3843(2)
C22 C 0.8164(7) 0.7483(5) 0.3448(3)
C23 C 0.7959(7) 0.6706(5) 0.3296(3)
C24 C 0.8706(6) 0.6200(5) 0.3211(3)
C25 C 0.8518(6) 0.5503(5) 0.3044(3)
C26 C 0.7593(6) 0.4745(4) 0.7046(2)
C27 C 0.6823(7) 0.4238(5) 0.6959(3)
C28 C 0.7037(7) 0.6473(5) 0.3196(3)
C29 C 0.7332(6) 0.5456(4) 0.7683(3)
C30 C 0.8226(7) 0.5162(5) 0.7853(3)
N2 N 0.8924(6) 0.4930(5) 0.7984(2)
C31 C 0.6500(7) 0.4976(6) 0.7825(3)
N3 N 0.5877(6) 0.4611(5) 0.7950(3)
C32 C 1.0230(9) 0.6616(5) 0.6465(4)
O4 O 1.0845(5) 0.6901(4) 0.6683(3)
C33 C 1.0378(7) 0.5954(5) 0.6217(3)
C34 C 0.6788(8) 0.7968(5) 0.7252(3)
C35 C 0.5585(8) 0.6862(6) 0.5536(3)
O5 O 0.4806(5) 0.7179(4) 0.5549(3)
C36 C 0.5814(9) 0.6168(6) 0.5297(4)
C37 C 0.7064(7) 0.9117(5) 0.6018(3)
C38 C 0.5965(10) 0.8789(7) 0.5091(4)
H1 H 0.6151 0.6691 0.7442
H2 H 0.5622 0.6830 0.7032
H3 H 0.5858 0.5543 0.7133
H4 H 0.6444 0.5808 0.6754
H5 H 0.8813 0.5926 0.7234
H6 H 0.8289 0.6063 0.6823
H7 H 0.7918 0.6961 0.7513
H8 H 0.9492 0.7135 0.7189
H9 H 0.8868 0.7872 0.7233
H10 H 0.9537 0.7922 0.6645
H11 H 0.7986 0.8314 0.6591
H12 H 0.7280 0.6851 0.6480
H13 H 0.6016 0.8075 0.6518
H14 H 0.5744 0.7250 0.6395
H15 H 0.5770 0.8151 0.5883
H16 H 0.8249 0.7415 0.5974
H17 H 0.9160 0.8794 0.6009
H18 H 0.9574 0.8040 0.5833
H19 H 0.8784 0.9132 0.5405
H20 H 0.9067 0.8336 0.5238
H21 H 0.7390 0.7926 0.5276
H22 H 0.7144 0.9411 0.5218
H23 H 0.7149 0.9299 0.4536
H24 H 0.8170 0.9062 0.4716
H25 H 0.6754 0.8019 0.4456
H26 H 0.7810 0.7809 0.4609
H27 H 0.7487(47) 0.7253(35) 0.4043(16)
H28 H 0.7823 0.7843 0.3284
H29 H 0.8859 0.7578 0.3435
H30 H 0.9375 0.6339 0.3269
H31 H 0.9065 0.5176 0.2990
H32 H 0.6151 0.4382 0.7007
H33 H 0.6502 0.6818 0.3235
H34 H 0.7227 0.5964 0.7771
H35 H 1.0992 0.5745 0.6130
H36 H 0.9979 0.6071 0.5988
H37 H 1.0042 0.5597 0.6383
H38 H 0.7224 0.8344 0.7147
H39 H 0.6827 0.7966 0.7539
H40 H 0.6126 0.8079 0.7171
H41 H 0.5620 0.6024 0.5033
H42 H 0.5486 0.5854 0.5489
H43 H 0.6513 0.6112 0.5325
H44 H 0.7618 0.9444 0.5980
H45 H 0.6893 0.9101 0.6296
H46 H 0.6515 0.9304 0.5866
H47 H 0.5609 0.8903 0.5331
H48 H 0.5835 0.8279 0.5013
H49 H 0.5758 0.9123 0.4882
C26B C 0.7593(6) 0.5255(4) 0.2954(2)
C25B C 0.8518(6) 0.4497(5) 0.6956(3)
C28B C 0.7037(7) 0.3527(5) 0.6804(3)
C27B C 0.6823(7) 0.5762(5) 0.3041(3)
C3B C 0.7389(6) 0.4477(4) 0.2772(3)
C24B C 0.8706(6) 0.3800(5) 0.6789(3)
H31B H 0.9065 0.4824 0.7010
C23B C 0.7959(7) 0.3294(5) 0.6704(3)
H33B H 0.6502 0.3182 0.6765
H32B H 0.6151 0.5618 0.2993
C2B C 0.6401(7) 0.4159(5) 0.2960(3)
C4B C 0.8212(6) 0.3916(4) 0.2892(3)
C29B C 0.7332(6) 0.4544(4) 0.2317(3)
H30B H 0.9375 0.3661 0.6731
C22B C 0.8164(7) 0.2517(5) 0.6552(3)
C1B C 0.6222(6) 0.3333(5) 0.2844(3)
H3B H 0.5858 0.4457 0.2867
H4B H 0.6444 0.4192 0.3246
C5B C 0.8009(7) 0.3080(4) 0.2771(3)
H5B H 0.8813 0.4074 0.2766
H6B H 0.8289 0.3937 0.3177
C30B C 0.8226(7) 0.4838(5) 0.2147(3)
C31B C 0.6500(7) 0.5024(6) 0.2175(3)
H34B H 0.7227 0.4036 0.2229
N1B N 0.7842(6) 0.2451(4) 0.6157(2)
H28B H 0.7823 0.2157 0.6716
H29B H 0.8859 0.2422 0.6565
C10B C 0.7049(7) 0.2789(5) 0.2966(3)
H1B H 0.6151 0.3309 0.2558
H2B H 0.5622 0.3170 0.2968
C6B C 0.8912(7) 0.2605(5) 0.2900(3)
H7B H 0.7918 0.3039 0.2487
N2B N 0.8924(6) 0.5070(5) 0.2016(2)
N3B N 0.5877(6) 0.5389(5) 0.2050(3)
C21B C 0.7806(7) 0.1794(5) 0.5949(2)
H27B H 0.7487(47) 0.2747(35) 0.5957(16)
C9B C 0.7167(6) 0.2653(4) 0.3415(3)
C34B C 0.6788(8) 0.2032(5) 0.2748(3)
C7B C 0.9029(7) 0.2453(5) 0.3338(3)
H8B H 0.9492 0.2865 0.2811
H9B H 0.8868 0.2128 0.2767
C20B C 0.7431(8) 0.1826(5) 0.5535(3)
O3B O 0.8032(5) 0.1197(3) 0.6127(2)
C8B C 0.8086(6) 0.2174(5) 0.3526(2)
C11B C 0.6236(6) 0.2364(5) 0.3624(3)
H12B H 0.7280 0.3149 0.3520
H38B H 0.7224 0.1656 0.2853
H39B H 0.6827 0.2034 0.2461
H40B H 0.6126 0.1921 0.2829
O1B O 0.9299(4) 0.3126(3) 0.3556(2)
H10B H 0.9537 0.2078 0.3355
C19B C 0.7489(8) 0.1074(5) 0.5308(3)
H25B H 0.6754 0.1981 0.5544
H26B H 0.7810 0.2191 0.5391
C14B C 0.8162(6) 0.2059(5) 0.3970(3)
H11B H 0.7986 0.1686 0.3409
C12B C 0.6335(7) 0.2154(5) 0.4058(3)
H13B H 0.6016 0.1925 0.3482
H14B H 0.5744 0.2750 0.3605
C32B C 1.0230(9) 0.3384(5) 0.3535(4)
C18B C 0.7040(8) 0.1081(6) 0.4891(3)
H23B H 0.7149 0.0701 0.5464
H24B H 0.8170 0.0938 0.5284
C13B C 0.7248(7) 0.1682(4) 0.4168(3)
C15B C 0.9007(7) 0.1640(5) 0.4150(3)
H16B H 0.8249 0.2585 0.4026
O2B O 0.6411(4) 0.2858(3) 0.4288(2)
H15B H 0.5770 0.1849 0.4117
O4B O 1.0845(5) 0.3099(4) 0.3317(3)
C33B C 1.0378(7) 0.4046(5) 0.3783(3)
C17B C 0.7566(7) 0.1608(5) 0.4597(3)
C38B C 0.5965(10) 0.1211(7) 0.4909(4)
H22B H 0.7144 0.0589 0.4782
C37B C 0.7064(7) 0.0883(5) 0.3982(3)
C16B C 0.8693(7) 0.1400(5) 0.4562(3)
H17B H 0.9160 0.1206 0.3991
H18B H 0.9574 0.1960 0.4167
C35B C 0.5585(8) 0.3138(6) 0.4464(3)
H35B H 1.0992 0.4255 0.3870
H36B H 0.9979 0.3929 0.4012
H37B H 1.0042 0.4403 0.3617
H21B H 0.7390 0.2074 0.4724
H47B H 0.5609 0.1097 0.4669
H48B H 0.5835 0.1721 0.4987
H49B H 0.5758 0.0877 0.5118
H44B H 0.7618 0.0556 0.4020
H45B H 0.6893 0.0899 0.3704
H46B H 0.6515 0.0696 0.4134
H19B H 0.8784 0.0868 0.4595
H20B H 0.9067 0.1664 0.4762
O5B O 0.4806(5) 0.2821(4) 0.4451(3)
C36B C 0.5814(9) 0.3832(6) 0.4703(4)
H41B H 0.5620 0.3976 0.4967
H42B H 0.5486 0.4146 0.4511
H43B H 0.6513 0.3888 0.4675
O6 O 0.7393(6) 0.6245(4) 0.4389(3)
C39 C 0.8308(10) 0.6035(8) 0.4577(4)
C40 C 0.8487(16) 0.5319(8) 0.4360(6)
C41 C 0.7692(11) 0.5021(9) 0.4115(5)
C42 C 0.6897(11) 0.5594(7) 0.4244(5)
H50 H 0.8819 0.6396 0.4528
H51 H 0.8235 0.5962 0.4860
H52 H 0.8633 0.4944 0.4558
H53 H 0.9051 0.5391 0.4191
H54 H 0.7840 0.5055 0.3835
H55 H 0.7520 0.4512 0.4181
H56 H 0.6498 0.5380 0.4451
H57 H 0.6489 0.5724 0.4020
O7 O 0.9880(9) 0.9520(8) 0.3803(4)
loop_
_geom_bond_atom_site_label_1
_geom_bond_atom_site_label_2
_geom_bond_site_symmetry_1
_geom_bond_site_symmetry_2
C1 C2 1_555 1_555
C2 C3 1_555 1_555
C3 C4 1_555 1_555
C4 C5 1_555 1_555
C5 C6 1_555 1_555
C6 C7 1_555 1_555
C7 O1 1_555 1_555
O1 C32 1_555 1_555
C8 C7 1_555 1_555
C9 C8 1_555 1_555
C10 C1 1_555 1_555
C11 C9 1_555 1_555
C12 C11 1_555 1_555
O2 C12 1_555 1_555
C13 C12 1_555 1_555
C14 C8 1_555 1_555
C15 C14 1_555 1_555
C16 C15 1_555 1_555
C17 C13 1_555 1_555
C18 C17 1_555 1_555
C19 C18 1_555 1_555
C20 C19 1_555 1_555
C21 C20 1_555 1_555
O3 C21 1_555 1_555
N1 C21 1_555 1_555
C22 N1 1_555 1_555
C23 C22 1_555 1_555
C24 C23 1_555 1_555
C25 C24 1_555 1_555
C26 C3 1_555 1_555
C27 C26 1_555 1_555
C28 C23 1_555 1_555
C29 C3 1_555 1_555
C30 C29 1_555 1_555
N2 C30 1_555 1_555
C31 C29 1_555 1_555
N3 C31 1_555 1_555
C32 O4 1_555 1_555
C33 C32 1_555 1_555
C34 C10 1_555 1_555
C35 O2 1_555 1_555
O5 C35 1_555 1_555
C36 C35 1_555 1_555
C37 C13 1_555 1_555
C38 C18 1_555 1_555
H1 C1 1_555 1_555
H2 C1 1_555 1_555
H3 C2 1_555 1_555
H4 C2 1_555 1_555
H5 C4 1_555 1_555
H6 C4 1_555 1_555
H7 C5 1_555 1_555
H8 C6 1_555 1_555
H9 C6 1_555 1_555
H10 C7 1_555 1_555
H11 C8 1_555 1_555
H12 C9 1_555 1_555
H13 C11 1_555 1_555
H14 C11 1_555 1_555
H15 C12 1_555 1_555
H16 C14 1_555 1_555
H17 C15 1_555 1_555
H18 C15 1_555 1_555
H19 C16 1_555 1_555
H20 C16 1_555 1_555
H21 C17 1_555 1_555
H22 C18 1_555 1_555
H23 C19 1_555 1_555
H24 C19 1_555 1_555
H25 C20 1_555 1_555
H26 C20 1_555 1_555
H27 N1 1_555 1_555
H28 C22 1_555 1_555
H29 C22 1_555 1_555
H30 C24 1_555 1_555
H31 C25 1_555 1_555
H32 C27 1_555 1_555
H33 C28 1_555 1_555
H34 C29 1_555 1_555
H35 C33 1_555 1_555
H36 C33 1_555 1_555
H37 C33 1_555 1_555
H38 C34 1_555 1_555
H39 C34 1_555 1_555
H40 C34 1_555 1_555
H41 C36 1_555 1_555
H42 C36 1_555 1_555
H43 C36 1_555 1_555
H44 C37 1_555 1_555
H45 C37 1_555 1_555
H46 C37 1_555 1_555
H47 C38 1_555 1_555
H48 C38 1_555 1_555
H49 C38 1_555 1_555
O6 C39 1_555 1_555
C39 C40 1_555 1_555
C40 C41 1_555 1_555
C41 C42 1_555 1_555
C42 O6 1_555 1_555
H50 C39 1_555 1_555
H51 C39 1_555 1_555
H52 C40 1_555 1_555
H53 C40 1_555 1_555
H54 C41 1_555 1_555
H55 C41 1_555 1_555
H56 C42 1_555 1_555
H57 C42 1_555 1_555
C26B C25 1_555 1_555
C25B C26 1_555 1_555
C28B C27 1_555 1_555
C27B C28 1_555 1_555
C3B C26B 1_555 1_555
C24B C25B 1_555 1_555
H31B C25B 1_555 1_555
C23B C28B 1_555 1_555
H33B C28B 1_555 1_555
H32B C27B 1_555 1_555
C2B C3B 1_555 1_555
C4B C3B 1_555 1_555
C29B C3B 1_555 1_555
H30B C24B 1_555 1_555
C22B C23B 1_555 1_555
C1B C2B 1_555 1_555
H3B C2B 1_555 1_555
H4B C2B 1_555 1_555
C5B C4B 1_555 1_555
H5B C4B 1_555 1_555
H6B C4B 1_555 1_555
C30B C29B 1_555 1_555
C31B C29B 1_555 1_555
H34B C29B 1_555 1_555
N1B C22B 1_555 1_555
H28B C22B 1_555 1_555
H29B C22B 1_555 1_555
C10B C1B 1_555 1_555
H1B C1B 1_555 1_555
H2B C1B 1_555 1_555
C6B C5B 1_555 1_555
H7B C5B 1_555 1_555
N2B C30B 1_555 1_555
N3B C31B 1_555 1_555
C21B N1B 1_555 1_555
H27B N1B 1_555 1_555
C9B C10B 1_555 1_555
C34B C10B 1_555 1_555
C7B C6B 1_555 1_555
H8B C6B 1_555 1_555
H9B C6B 1_555 1_555
C20B C21B 1_555 1_555
O3B C21B 1_555 1_555
C8B C9B 1_555 1_555
C11B C9B 1_555 1_555
H12B C9B 1_555 1_555
H38B C34B 1_555 1_555
H39B C34B 1_555 1_555
H40B C34B 1_555 1_555
O1B C7B 1_555 1_555
H10B C7B 1_555 1_555
C19B C20B 1_555 1_555
H25B C20B 1_555 1_555
H26B C20B 1_555 1_555
C14B C8B 1_555 1_555
H11B C8B 1_555 1_555
C12B C11B 1_555 1_555
H13B C11B 1_555 1_555
H14B C11B 1_555 1_555
C32B O1B 1_555 1_555
C18B C19B 1_555 1_555
H23B C19B 1_555 1_555
H24B C19B 1_555 1_555
C13B C14B 1_555 1_555
C15B C14B 1_555 1_555
H16B C14B 1_555 1_555
O2B C12B 1_555 1_555
H15B C12B 1_555 1_555
O4B C32B 1_555 1_555
C33B C32B 1_555 1_555
C17B C18B 1_555 1_555
C38B C18B 1_555 1_555
H22B C18B 1_555 1_555
C37B C13B 1_555 1_555
C16B C15B 1_555 1_555
H17B C15B 1_555 1_555
H18B C15B 1_555 1_555
C35B O2B 1_555 1_555
H35B C33B 1_555 1_555
H36B C33B 1_555 1_555
H37B C33B 1_555 1_555
H21B C17B 1_555 1_555
H47B C38B 1_555 1_555
H48B C38B 1_555 1_555
H49B C38B 1_555 1_555
H44B C37B 1_555 1_555
H45B C37B 1_555 1_555
H46B C37B 1_555 1_555
H19B C16B 1_555 1_555
H20B C16B 1_555 1_555
O5B C35B 1_555 1_555
C36B C35B 1_555 1_555
H41B C36B 1_555 1_555
H42B C36B 1_555 1_555
H43B C36B 1_555 1_555
C5 C10 1_555 1_555
C9 C10 1_555 1_555
C13 C14 1_555 1_555
C16 C17 1_555 1_555
C26B C27B 1_555 1_555
C24B C23B 1_555 1_555
C5B C10B 1_555 1_555
C7B C8B 1_555 1_555
C12B C13B 1_555 1_555
C13B C17B 1_555 1_555
C17B C16B 1_555 1_555

#END
