
#######################################################################
#
#                 Cambridge Crystallographic Data Centre
#                                CCDC 
#
#######################################################################
#
# If this CIF has been generated from an entry in the Cambridge 
# Structural Database, then it will include bibliographic, chemical, 
# crystal, experimental, refinement or atomic coordinate data resulting 
# from the CCDC's data processing and validation procedures.
#
#######################################################################

data_KIRVUD
_chemical_formula_moiety         'C8 H36 B6 Mg1 O2'
_chemical_name_systematic        
"cis-bis(Diethyl ether)-bis(octahydrotriborato-H,H')-magnesium(ii)"
_symmetry_cell_setting           orthorhombic
_symmetry_space_group_name_H-M   'P 21 21 2'
_symmetry_Int_Tables_number      18
_space_group_name_Hall           'P 2 2ab'
loop_
_symmetry_equiv_pos_site_id
_symmetry_equiv_pos_as_xyz
1 x,y,z
2 -x,-y,z
3 1/2-x,1/2+y,-z
4 1/2+x,1/2-y,-z
_cell_length_a                   7.337(4)
_cell_length_b                   15.586(8)
_cell_length_c                   8.332(4)
_cell_angle_alpha                90
_cell_angle_beta                 90
_cell_angle_gamma                90
_cell_volume                     952.802
_exptl_crystal_colour            colorless
_chemical_melting_point          '40 deg.C'
_cell_formula_units_Z            2
_exptl_crystal_recrystallization_method 'vacuum sublimation'
loop_
_atom_site_label
_atom_site_type_symbol
_atom_site_fract_x
_atom_site_fract_y
_atom_site_fract_z
Mg1 Mg 1.0000 1.0000 0.48538(18)
B1 B 0.9265(8) 1.1235(3) 0.2905(6)
H1 H 1.054(4) 1.0789(18) 0.303(3)
H2 H 0.972(7) 1.189(2) 0.328(5)
H3 H 0.919(6) 1.121(4) 0.168(5)
B2 B 0.7233(7) 1.0890(3) 0.3875(6)
H4 H 0.733(6) 1.0270(18) 0.465(4)
H5 H 0.660(6) 1.141(2) 0.460(5)
H6 H 0.627(6) 1.069(3) 0.307(5)
B3 B 0.7398(10) 1.0853(5) 0.1710(7)
H7 H 0.776(8) 1.027(2) 0.128(6)
H8 H 0.681(7) 1.134(3) 0.108(5)
O1 O 0.9232(4) 0.91241(16) 0.6517(3)
C1 C 1.0422(7) 0.8869(3) 0.7818(5)
H9 H 0.961(5) 0.899(2) 0.874(4)
H10 H 1.157(4) 0.918(2) 0.759(5)
C2 C 1.1080(10) 0.7956(3) 0.7693(8)
H11 H 1.147(7) 0.777(3) 0.673(4)
H12 H 1.008(5) 0.764(2) 0.791(5)
H13 H 1.172(7) 0.787(3) 0.860(4)
C3 C 0.7522(6) 0.8653(3) 0.6444(6)
H14 H 0.795(7) 0.8054(19) 0.628(6)
H15 H 0.681(6) 0.885(3) 0.550(5)
C4 C 0.6341(10) 0.8812(4) 0.7872(11)
H16 H 0.525(4) 0.857(3) 0.765(5)
H17 H 0.598(7) 0.9366(17) 0.787(6)
H18 H 0.665(15) 0.881(7) 0.892(5)
B1A B 1.0735(8) 0.8765(3) 0.2905(6)
H1A H 0.946(4) 0.9211(18) 0.303(3)
H2A H 1.028(7) 0.811(2) 0.328(5)
H3A H 1.081(6) 0.879(4) 0.168(5)
B2A B 1.2767(7) 0.9110(3) 0.3875(6)
H4A H 1.267(6) 0.9730(18) 0.465(4)
H5A H 1.340(6) 0.859(2) 0.460(5)
H6A H 1.373(6) 0.931(3) 0.307(5)
B3A B 1.2602(10) 0.9147(5) 0.1710(7)
H7A H 1.224(8) 0.973(2) 0.128(6)
H8A H 1.319(7) 0.866(3) 0.108(5)
O1A O 1.0768(4) 1.08759(16) 0.6517(3)
C1A C 0.9578(7) 1.1131(3) 0.7818(5)
H9A H 1.039(5) 1.101(2) 0.874(4)
H10A H 0.843(4) 1.082(2) 0.759(5)
C2A C 0.8920(10) 1.2044(3) 0.7693(8)
H11A H 0.853(7) 1.223(3) 0.673(4)
H12A H 0.992(5) 1.236(2) 0.791(5)
H13A H 0.828(7) 1.213(3) 0.860(4)
C3A C 1.2478(6) 1.1347(3) 0.6444(6)
H14A H 1.205(7) 1.1946(19) 0.628(6)
H15A H 1.319(6) 1.115(3) 0.550(5)
C4A C 1.3659(10) 1.1188(4) 0.7872(11)
H16A H 1.475(4) 1.143(3) 0.765(5)
H17A H 1.402(7) 1.0634(17) 0.787(6)
H18A H 1.335(15) 1.119(7) 0.892(5)
loop_
_geom_bond_atom_site_label_1
_geom_bond_atom_site_label_2
_geom_bond_site_symmetry_1
_geom_bond_site_symmetry_2
Mg1 H1 1_555 1_555
B1 H1 1_555 1_555
H2 B1 1_555 1_555
H3 B1 1_555 1_555
B2 B1 1_555 1_555
H4 Mg1 1_555 1_555
H5 B2 1_555 1_555
H6 B2 1_555 1_555
B3 B1 1_555 1_555
H7 B3 1_555 1_555
H8 B3 1_555 1_555
O1 Mg1 1_555 1_555
C1 O1 1_555 1_555
H9 C1 1_555 1_555
H10 C1 1_555 1_555
C2 C1 1_555 1_555
H11 C2 1_555 1_555
H12 C2 1_555 1_555
H13 C2 1_555 1_555
C3 O1 1_555 1_555
H14 C3 1_555 1_555
H15 C3 1_555 1_555
C4 C3 1_555 1_555
H16 C4 1_555 1_555
H17 C4 1_555 1_555
H18 C4 1_555 1_555
B1A H1A 1_555 1_555
H1A Mg1 1_555 1_555
H2A B1A 1_555 1_555
H3A B1A 1_555 1_555
B2A B1A 1_555 1_555
H4A Mg1 1_555 1_555
H5A B2A 1_555 1_555
H6A B2A 1_555 1_555
B3A B1A 1_555 1_555
H7A B3A 1_555 1_555
H8A B3A 1_555 1_555
O1A Mg1 1_555 1_555
C1A O1A 1_555 1_555
H9A C1A 1_555 1_555
H10A C1A 1_555 1_555
C2A C1A 1_555 1_555
H11A C2A 1_555 1_555
H12A C2A 1_555 1_555
H13A C2A 1_555 1_555
C3A O1A 1_555 1_555
H14A C3A 1_555 1_555
H15A C3A 1_555 1_555
C4A C3A 1_555 1_555
H16A C4A 1_555 1_555
H17A C4A 1_555 1_555
H18A C4A 1_555 1_555
H3 B3 1_555 1_555
B2 H4 1_555 1_555
B2 B3 1_555 1_555
H6 B3 1_555 1_555
H3A B3A 1_555 1_555
B2A H4A 1_555 1_555
B2A B3A 1_555 1_555
H6A B3A 1_555 1_555

#END
