
#######################################################################
#
#                 Cambridge Crystallographic Data Centre
#                                CCDC 
#
#######################################################################
#
# If this CIF has been generated from an entry in the Cambridge 
# Structural Database, then it will include bibliographic, chemical, 
# crystal, experimental, refinement or atomic coordinate data resulting 
# from the CCDC's data processing and validation procedures.
#
#######################################################################

data_KISBAS
_chemical_formula_moiety         'C25 H24 N2 O7 S2,C1 H1 Cl3'
_chemical_name_systematic        
'7-methoxy-1-[(4-methylphenyl)sulfonyl]-3-(2-oxo-2-phenylethyl)-1,2,3,10b-tetrahydro-5H-5\l^6^-imidazo[1,2-c][1,2,3]benzoxathiazine-5,5-dione chloroform solvate'
_symmetry_cell_setting           triclinic
_symmetry_space_group_name_H-M   'P -1'
_symmetry_Int_Tables_number      2
_space_group_name_Hall           '-P 1'
loop_
_symmetry_equiv_pos_site_id
_symmetry_equiv_pos_as_xyz
1 x,y,z
2 -x,-y,-z
_cell_length_a                   9.846(2)
_cell_length_b                   12.222(2)
_cell_length_c                   13.290(3)
_cell_angle_alpha                67.89(3)
_cell_angle_beta                 69.42(3)
_cell_angle_gamma                84.54(3)
_cell_volume                     1385.85
_exptl_crystal_colour            colorless
_exptl_crystal_description       block
_cell_formula_units_Z            2
loop_
_atom_site_label
_atom_site_type_symbol
_atom_site_fract_x
_atom_site_fract_y
_atom_site_fract_z
S1 S 0.54968(8) 0.40693(6) 0.14303(6)
C1 C 0.7775(3) 0.3552(3) 0.1972(2)
N1 N 0.5609(2) 0.5254(2) 0.1670(2)
O1 O 0.8210(2) 0.15340(19) 0.2537(2)
S2 S 0.70640(8) 0.79856(6) 0.10534(6)
O2 O 0.6367(2) 0.31512(17) 0.21802(18)
C2 C 0.8755(3) 0.2654(3) 0.2181(3)
N2 N 0.7006(3) 0.6552(2) 0.1824(2)
O3 O 0.6298(2) 0.42974(19) 0.02509(19)
C3 C 1.0151(3) 0.2978(3) 0.2014(3)
H1 H 1.083575 0.238892 0.215296
O4 O 0.4052(2) 0.35838(19) 0.1959(2)
C4 C 1.0554(3) 0.4168(3) 0.1642(3)
H2 H 1.151248 0.438149 0.153402
O5 O 0.3042(2) 0.5529(2) 0.48389(19)
C5 C 0.9583(3) 0.5035(3) 0.1429(3)
H3 H 0.987729 0.584108 0.116862
C6 C 0.8159(3) 0.4737(3) 0.1593(2)
O6 O 0.8206(2) 0.81539(18) -0.00265(19)
C7 C 0.7138(3) 0.5713(2) 0.1256(2)
H4 H 0.748816 0.613648 0.039777
O7 O 0.7152(2) 0.85638(19) 0.17880(19)
C8 C 0.9206(4) 0.0597(3) 0.2603(3)
H5 H 1.002326 0.080398 0.187114
H6 H 0.870951 -0.013314 0.274866
H7 H 0.956807 0.048076 0.323379
C9 C 0.5847(3) 0.6075(3) 0.2968(2)
H8 H 0.529989 0.672582 0.317716
H9 H 0.626923 0.561902 0.357080
C10 C 0.4835(3) 0.5262(2) 0.2856(2)
H10 H 0.477751 0.444669 0.344290
C11 C 0.3310(3) 0.5695(3) 0.2940(2)
H11 H 0.337532 0.647039 0.230930
H12 H 0.276229 0.513099 0.283563
C12 C 0.2493(3) 0.5819(3) 0.4091(3)
C13 C 0.1034(3) 0.6339(3) 0.4267(3)
C14 C 0.0341(3) 0.6608(3) 0.3457(3)
H13 H 0.080065 0.645755 0.276567
C15 C -0.1016(4) 0.7094(3) 0.3653(3)
H14 H -0.148400 0.727052 0.309850
C16 C -0.1683(4) 0.7320(3) 0.4652(3)
H15 H -0.260568 0.766218 0.478244
C17 C -0.1004(4) 0.7047(3) 0.5467(3)
H16 H -0.146881 0.719624 0.615863
C18 C 0.0342(3) 0.6561(3) 0.5277(3)
H17 H 0.080020 0.637644 0.583896
C19 C 0.5408(3) 0.8327(2) 0.0804(2)
C20 C 0.5185(3) 0.8097(3) -0.0075(3)
H18 H 0.594621 0.781491 -0.057986
C21 C 0.3839(4) 0.8285(3) -0.0203(3)
H19 H 0.368589 0.814181 -0.081047
C22 C 0.2699(3) 0.8681(3) 0.0543(3)
C23 C 0.2964(3) 0.8931(3) 0.1393(3)
H20 H 0.220671 0.922289 0.189171
C24 C 0.4305(3) 0.8767(3) 0.1530(3)
H21 H 0.447347 0.895044 0.211142
C25 C 0.1232(4) 0.8825(3) 0.0404(3)
H22 H 0.128071 0.950182 -0.030301
H23 H 0.051620 0.895985 0.107189
H24 H 0.094519 0.810701 0.035253
Cl1 Cl 0.39603(16) 0.79766(11) 0.47967(10)
Cl2 Cl 0.18613(15) 0.96395(17) 0.42625(14)
Cl3 Cl 0.48310(17) 1.04424(13) 0.35354(10)
C26 C 0.3456(4) 0.9434(3) 0.4600(3)
H25 H 0.324696 0.955220 0.534404
loop_
_geom_bond_atom_site_label_1
_geom_bond_atom_site_label_2
_geom_bond_site_symmetry_1
_geom_bond_site_symmetry_2
S1 N1 1_555 1_555
C1 O2 1_555 1_555
N1 C7 1_555 1_555
O1 C2 1_555 1_555
S2 N2 1_555 1_555
O2 S1 1_555 1_555
C2 C1 1_555 1_555
N2 C7 1_555 1_555
O3 S1 1_555 1_555
C3 C2 1_555 1_555
H1 C3 1_555 1_555
O4 S1 1_555 1_555
C4 C3 1_555 1_555
H2 C4 1_555 1_555
O5 C12 1_555 1_555
C5 C4 1_555 1_555
H3 C5 1_555 1_555
C6 C1 1_555 1_555
O6 S2 1_555 1_555
C7 C6 1_555 1_555
H4 C7 1_555 1_555
O7 S2 1_555 1_555
C8 O1 1_555 1_555
H5 C8 1_555 1_555
H6 C8 1_555 1_555
H7 C8 1_555 1_555
C9 N2 1_555 1_555
H8 C9 1_555 1_555
H9 C9 1_555 1_555
C10 N1 1_555 1_555
H10 C10 1_555 1_555
C11 C10 1_555 1_555
H11 C11 1_555 1_555
H12 C11 1_555 1_555
C12 C11 1_555 1_555
C13 C12 1_555 1_555
C14 C13 1_555 1_555
H13 C14 1_555 1_555
C15 C14 1_555 1_555
H14 C15 1_555 1_555
C16 C15 1_555 1_555
H15 C16 1_555 1_555
C17 C16 1_555 1_555
H16 C17 1_555 1_555
C18 C13 1_555 1_555
H17 C18 1_555 1_555
C19 S2 1_555 1_555
C20 C19 1_555 1_555
H18 C20 1_555 1_555
C21 C20 1_555 1_555
H19 C21 1_555 1_555
C22 C21 1_555 1_555
C23 C22 1_555 1_555
H20 C23 1_555 1_555
C24 C19 1_555 1_555
H21 C24 1_555 1_555
C25 C22 1_555 1_555
H22 C25 1_555 1_555
H23 C25 1_555 1_555
H24 C25 1_555 1_555
Cl1 C26 1_555 1_555
Cl2 C26 1_555 1_555
Cl3 C26 1_555 1_555
C26 H25 1_555 1_555
C5 C6 1_555 1_555
C9 C10 1_555 1_555
C17 C18 1_555 1_555
C23 C24 1_555 1_555

#END
