
#######################################################################
#
#                 Cambridge Crystallographic Data Centre
#                                CCDC 
#
#######################################################################
#
# If this CIF has been generated from an entry in the Cambridge 
# Structural Database, then it will include bibliographic, chemical, 
# crystal, experimental, refinement or atomic coordinate data resulting 
# from the CCDC's data processing and validation procedures.
#
#######################################################################

data_KISBEW
_chemical_formula_moiety         'C6 H4 N4 O3'
_chemical_name_systematic        2-nitroimidazo[1,2-a]pyrazin-8(7H)-one
_symmetry_cell_setting           orthorhombic
_symmetry_space_group_name_H-M   'F d d 2'
_symmetry_Int_Tables_number      43
_space_group_name_Hall           'F 2 -2d'
loop_
_symmetry_equiv_pos_site_id
_symmetry_equiv_pos_as_xyz
1 x,y,z
2 -x,-y,z
3 1/4+x,1/4-y,1/4+z
4 1/4-x,1/4+y,1/4+z
5 x,1/2+y,1/2+z
6 -x,1/2-y,1/2+z
7 1/4+x,3/4-y,3/4+z
8 1/4-x,3/4+y,3/4+z
9 1/2+x,y,1/2+z
10 1/2-x,-y,1/2+z
11 3/4+x,1/4-y,3/4+z
12 3/4-x,1/4+y,3/4+z
13 1/2+x,1/2+y,z
14 1/2-x,1/2-y,z
15 3/4+x,3/4-y,1/4+z
16 3/4-x,3/4+y,1/4+z
_cell_length_a                   33.132(3)
_cell_length_b                   21.9474(19)
_cell_length_c                   3.8253(4)
_cell_angle_alpha                90
_cell_angle_beta                 90
_cell_angle_gamma                90
_cell_volume                     2781.61
_exptl_crystal_colour            colorless
_exptl_crystal_description       prism
_cell_formula_units_Z            16
loop_
_atom_site_label
_atom_site_type_symbol
_atom_site_fract_x
_atom_site_fract_y
_atom_site_fract_z
C1 C 0.15420(8) 0.31919(13) -0.0829(10)
C2 C 0.14456(8) 0.37121(13) 0.0924(10)
H1 H 0.1607 0.4064 0.1285
C3 C 0.07970(9) 0.39735(13) 0.3990(9)
H2 H 0.0875 0.4367 0.4775
C4 C 0.04318(9) 0.37457(14) 0.4690(9)
H3 H 0.0245 0.3986 0.597
C5 C 0.05529(8) 0.27850(14) 0.1740(10)
C6 C 0.09536(8) 0.30339(13) 0.0929(9)
N1 N 0.12452(7) 0.27651(11) -0.0889(8)
N2 N 0.19263(7) 0.30772(12) -0.2528(8)
N3 N 0.10594(7) 0.36047(10) 0.2041(7)
N4 N 0.03185(7) 0.31695(11) 0.3604(8)
H4 H 0.0075 0.3044 0.4171
O1 O 0.19724(6) 0.26079(11) -0.4173(8)
O2 O 0.21803(6) 0.34820(11) -0.2252(9)
O3 O 0.04462(6) 0.22747(9) 0.0774(8)
loop_
_geom_bond_atom_site_label_1
_geom_bond_atom_site_label_2
_geom_bond_site_symmetry_1
_geom_bond_site_symmetry_2
C1 C2 1_555 1_555
C2 H1 1_555 1_555
C3 H2 1_555 1_555
C4 C3 1_555 1_555
H3 C4 1_555 1_555
C5 C6 1_555 1_555
C6 N1 1_555 1_555
N1 C1 1_555 1_555
N2 C1 1_555 1_555
N3 C2 1_555 1_555
N4 C4 1_555 1_555
H4 N4 1_555 1_555
O1 N2 1_555 1_555
O2 N2 1_555 1_555
O3 C5 1_555 1_555
C3 N3 1_555 1_555
C5 N4 1_555 1_555
C6 N3 1_555 1_555

#END
