
#######################################################################
#
#                 Cambridge Crystallographic Data Centre
#                                CCDC 
#
#######################################################################
#
# If this CIF has been generated from an entry in the Cambridge 
# Structural Database, then it will include bibliographic, chemical, 
# crystal, experimental, refinement or atomic coordinate data resulting 
# from the CCDC's data processing and validation procedures.
#
#######################################################################

data_KISCIZ
_chemical_formula_moiety         'C19 H20 O2'
_chemical_name_systematic        1,1'-Spirobitetralin-8,8'-diol
_symmetry_cell_setting           monoclinic
_symmetry_space_group_name_H-M   'C 2/c'
_symmetry_Int_Tables_number      15
_space_group_name_Hall           '-C 2yn'
loop_
_symmetry_equiv_pos_site_id
_symmetry_equiv_pos_as_xyz
1 x,y,z
2 1/2+x,1/2+y,z
3 -x,y,1/2-z
4 1/2-x,1/2+y,1/2-z
5 -x,-y,-z
6 1/2-x,1/2-y,-z
7 x,-y,1/2+z
8 1/2+x,1/2-y,1/2+z
_cell_length_a                   19.9674(17)
_cell_length_b                   10.7966(7)
_cell_length_c                   29.626(3)
_cell_angle_alpha                90
_cell_angle_beta                 112.373(3)
_cell_angle_gamma                90
_cell_volume                     5906.01
_exptl_crystal_colour            colorless
_exptl_crystal_description       prism
_chemical_melting_point          132-133deg.C
_cell_formula_units_Z            16
_exptl_crystal_recrystallization_method hexane
loop_
_atom_site_label
_atom_site_type_symbol
_atom_site_fract_x
_atom_site_fract_y
_atom_site_fract_z
O1 O 0.14843(6) 0.37653(11) 0.11154(4)
H1 H 0.1349(11) 0.308(2) 0.1179(8)
O2 O 0.26720(6) 0.09991(12) 0.15765(5)
H2 H 0.2818(12) 0.046(2) 0.1415(8)
C1 C 0.20184(8) 0.25167(14) 0.20730(6)
C2 C 0.24880(8) 0.33772(14) 0.18975(6)
C3 C 0.21902(8) 0.39835(14) 0.14426(6)
C4 C 0.25758(9) 0.48421(15) 0.12908(6)
H5 H 0.2357 0.5240 0.0983
C5 C 0.32838(9) 0.51148(15) 0.15912(6)
H6 H 0.3552 0.5707 0.1492
C6 C 0.35980(9) 0.45201(15) 0.20371(6)
H7 H 0.4086 0.4699 0.2239
C7 C 0.32082(9) 0.36599(15) 0.21953(6)
C8 C 0.35935(9) 0.30215(17) 0.26815(6)
H8 H 0.3934 0.3614 0.2910
H9 H 0.3881 0.2322 0.2635
C9 C 0.30794(10) 0.25356(17) 0.29074(6)
H10 H 0.2856 0.3237 0.3015
H11 H 0.3349 0.2022 0.3196
C10 C 0.24925(9) 0.17626(15) 0.25309(6)
H12 H 0.2176 0.1404 0.2686
H13 H 0.2723 0.1068 0.2426
C11 C 0.15899(9) 0.15481(15) 0.16870(6)
C12 C 0.19489(9) 0.07808(15) 0.14645(6)
C13 C 0.15951(10) -0.01745(16) 0.11479(6)
H14 H 0.1848 -0.0667 0.0999
C14 C 0.08730(10) -0.04011(17) 0.10521(6)
H15 H 0.0630 -0.1064 0.0843
C15 C 0.05053(10) 0.03402(17) 0.12609(7)
H16 H 0.0007 0.0185 0.1189
C16 C 0.08494(9) 0.13138(16) 0.15751(6)
C17 C 0.04106(10) 0.20995(18) 0.17872(7)
H17 H 0.0160 0.2759 0.1551
H18 H 0.0037 0.1575 0.1835
C18 C 0.08727(10) 0.26889(17) 0.22691(7)
H19 H 0.1063 0.2042 0.2523
H20 H 0.0577 0.3272 0.2373
C19 C 0.14982(9) 0.33791(16) 0.22081(6)
H21 H 0.1778 0.3816 0.2516
H22 H 0.1299 0.4012 0.1949
O3 O 0.32831(6) 0.04202(12) -0.00217(4)
H3 H 0.3608(12) 0.099(2) 0.0014(8)
O4 O 0.52880(6) 0.03242(11) 0.09668(4)
H4 H 0.5708(12) -0.013(2) 0.0973(8)
C20 C 0.40920(8) 0.18363(15) 0.08640(6)
C21 C 0.38268(8) 0.04964(15) 0.08715(6)
C22 C 0.34101(9) -0.00907(16) 0.04307(6)
C23 C 0.30862(10) -0.12311(17) 0.04199(7)
H23 H 0.2803 -0.1600 0.0116
C24 C 0.31736(11) -0.18331(17) 0.08506(7)
H24 H 0.2944 -0.2607 0.0844
C25 C 0.36014(10) -0.12941(16) 0.12937(7)
H25 H 0.3670 -0.1712 0.1590
C26 C 0.39319(9) -0.01462(15) 0.13078(6)
C27 C 0.44037(10) 0.04051(16) 0.17965(6)
H26 H 0.4910 0.0125 0.1883
H27 H 0.4236 0.0102 0.2051
C28 C 0.43807(9) 0.18128(16) 0.17859(6)
H28 H 0.3885 0.2101 0.1730
H29 H 0.4714 0.2145 0.2104
C29 C 0.46041(8) 0.22816(15) 0.13801(5)
H30 H 0.5102 0.1995 0.1443
H31 H 0.4610 0.3198 0.1386
C30 C 0.45147(8) 0.19619(15) 0.05261(6)
C31 C 0.51175(9) 0.11850(15) 0.05997(6)
C32 C 0.55264(10) 0.12830(17) 0.03133(7)
H32 H 0.5931 0.0754 0.0370
C33 C 0.53402(10) 0.21605(18) -0.00573(7)
H33 H 0.5613 0.2224 -0.0258
C34 C 0.47594(10) 0.29406(17) -0.01336(6)
H34 H 0.4639 0.3542 -0.0386
C35 C 0.43464(9) 0.28597(16) 0.01544(6)
C36 C 0.37237(10) 0.37592(18) 0.00589(7)
H35 H 0.3296 0.3451 -0.0218
H36 H 0.3860 0.4572 -0.0035
C37 C 0.35210(9) 0.39306(16) 0.04999(6)
H37 H 0.3073 0.4430 0.0408
H38 H 0.3913 0.4379 0.0760
C38 C 0.34034(8) 0.26703(15) 0.06888(6)
H39 H 0.3009 0.2234 0.0426
H40 H 0.3244 0.2795 0.0964
loop_
_geom_bond_atom_site_label_1
_geom_bond_atom_site_label_2
_geom_bond_site_symmetry_1
_geom_bond_site_symmetry_2
O1 H1 1_555 1_555
O2 H2 1_555 1_555
O3 H3 1_555 1_555
O4 H4 1_555 1_555
C1 C2 1_555 1_555
C2 C3 1_555 1_555
C3 O1 1_555 1_555
C4 C3 1_555 1_555
H5 C4 1_555 1_555
C5 C4 1_555 1_555
H6 C5 1_555 1_555
C6 C5 1_555 1_555
H7 C6 1_555 1_555
C7 C2 1_555 1_555
C8 C7 1_555 1_555
H8 C8 1_555 1_555
H9 C8 1_555 1_555
C9 C8 1_555 1_555
H10 C9 1_555 1_555
H11 C9 1_555 1_555
C10 C1 1_555 1_555
H12 C10 1_555 1_555
H13 C10 1_555 1_555
C11 C1 1_555 1_555
C12 O2 1_555 1_555
C13 C12 1_555 1_555
H14 C13 1_555 1_555
C14 C13 1_555 1_555
H15 C14 1_555 1_555
C15 C14 1_555 1_555
H16 C15 1_555 1_555
C16 C11 1_555 1_555
C17 C16 1_555 1_555
H17 C17 1_555 1_555
H18 C17 1_555 1_555
C18 C17 1_555 1_555
H19 C18 1_555 1_555
H20 C18 1_555 1_555
C19 C1 1_555 1_555
H21 C19 1_555 1_555
H22 C19 1_555 1_555
C20 C21 1_555 1_555
C21 C22 1_555 1_555
C22 O3 1_555 1_555
C23 C22 1_555 1_555
H23 C23 1_555 1_555
C24 C23 1_555 1_555
H24 C24 1_555 1_555
C25 C24 1_555 1_555
H25 C25 1_555 1_555
C26 C21 1_555 1_555
C27 C26 1_555 1_555
H26 C27 1_555 1_555
H27 C27 1_555 1_555
C28 C27 1_555 1_555
H28 C28 1_555 1_555
H29 C28 1_555 1_555
C29 C20 1_555 1_555
H30 C29 1_555 1_555
H31 C29 1_555 1_555
C30 C20 1_555 1_555
C31 O4 1_555 1_555
C32 C31 1_555 1_555
H32 C32 1_555 1_555
C33 C32 1_555 1_555
H33 C33 1_555 1_555
C34 C33 1_555 1_555
H34 C34 1_555 1_555
C35 C30 1_555 1_555
C36 C35 1_555 1_555
H35 C36 1_555 1_555
H36 C36 1_555 1_555
C37 C36 1_555 1_555
H37 C37 1_555 1_555
H38 C37 1_555 1_555
C38 C20 1_555 1_555
H39 C38 1_555 1_555
H40 C38 1_555 1_555
C6 C7 1_555 1_555
C9 C10 1_555 1_555
C11 C12 1_555 1_555
C15 C16 1_555 1_555
C18 C19 1_555 1_555
C25 C26 1_555 1_555
C28 C29 1_555 1_555
C30 C31 1_555 1_555
C34 C35 1_555 1_555
C37 C38 1_555 1_555

#END
