
#######################################################################
#
#                 Cambridge Crystallographic Data Centre
#                                CCDC 
#
#######################################################################
#
# If this CIF has been generated from an entry in the Cambridge 
# Structural Database, then it will include bibliographic, chemical, 
# crystal, experimental, refinement or atomic coordinate data resulting 
# from the CCDC's data processing and validation procedures.
#
#######################################################################

data_KISCIB
_chemical_formula_moiety         'C14 H10 F1 N3'
_chemical_name_systematic        8-fluoro-2-phenylquinazolin-4-amine
_symmetry_cell_setting           orthorhombic
_symmetry_space_group_name_H-M   'P c a 21'
_symmetry_Int_Tables_number      29
_space_group_name_Hall           'P 2c -2ac'
loop_
_symmetry_equiv_pos_site_id
_symmetry_equiv_pos_as_xyz
1 x,y,z
2 -x,-y,1/2+z
3 1/2-x,y,1/2+z
4 1/2+x,-y,z
_cell_length_a                   15.3460(18)
_cell_length_b                   5.6824(6)
_cell_length_c                   13.3043(12)
_cell_angle_alpha                90
_cell_angle_beta                 90
_cell_angle_gamma                90
_cell_volume                     1160.16
_exptl_crystal_colour            yellow
_exptl_crystal_description       prism
_cell_formula_units_Z            4
loop_
_atom_site_label
_atom_site_type_symbol
_atom_site_fract_x
_atom_site_fract_y
_atom_site_fract_z
F1 F 0.72672(7) 1.20179(17) -0.07655(7)
N1 N 0.80873(8) 0.8380(2) 0.01777(9)
N2 N 0.83473(8) 0.6209(2) 0.16893(9)
N3 N 0.76220(11) 0.6890(3) 0.31513(11)
H1 H 0.7286(15) 0.775(4) 0.359(2)
H2 H 0.7882(14) 0.560(4) 0.3380(16)
C1 C 1.03173(12) 0.2292(4) -0.07815(17)
H3 H 1.0706 0.1300 -0.1110
C2 C 1.00618(11) 0.4364(4) -0.12261(14)
H4 H 1.0289 0.4791 -0.1848
C3 C 0.94654(10) 0.5823(3) -0.07484(12)
H5 H 0.9292 0.7220 -0.1053
C4 C 0.91254(9) 0.5200(3) 0.01850(11)
C5 C 0.84760(9) 0.6717(3) 0.07038(10)
C6 C 0.75202(9) 0.9778(2) 0.07006(11)
C7 C 0.70997(10) 1.1668(3) 0.02260(11)
C8 C 0.65452(11) 1.3152(3) 0.07024(12)
H6 H 0.6293 1.4407 0.0360
C9 C 0.63600(12) 1.2763(3) 0.17153(12)
H7 H 0.5974 1.3755 0.2048
C10 C 0.94084(11) 0.3121(3) 0.06332(15)
H8 H 0.9198 0.2697 0.1263
C11 C 0.99994(12) 0.1685(3) 0.01471(19)
H9 H 1.0183 0.0298 0.0451
C12 C 0.73264(9) 0.9440(3) 0.17300(11)
C13 C 0.77714(9) 0.7498(3) 0.21928(11)
C14 C 0.67378(10) 1.0946(3) 0.22243(11)
H10 H 0.6606 1.0702 0.2899
loop_
_geom_bond_atom_site_label_1
_geom_bond_atom_site_label_2
_geom_bond_site_symmetry_1
_geom_bond_site_symmetry_2
F1 C7 1_555 1_555
N1 C5 1_555 1_555
N2 C5 1_555 1_555
N3 H1 1_555 1_555
H2 N3 1_555 1_555
C1 H3 1_555 1_555
C2 C1 1_555 1_555
H4 C2 1_555 1_555
C3 C2 1_555 1_555
H5 C3 1_555 1_555
C4 C3 1_555 1_555
C5 C4 1_555 1_555
C6 N1 1_555 1_555
C7 C6 1_555 1_555
C8 C7 1_555 1_555
H6 C8 1_555 1_555
C9 C8 1_555 1_555
H7 C9 1_555 1_555
C10 C4 1_555 1_555
H8 C10 1_555 1_555
C11 C1 1_555 1_555
H9 C11 1_555 1_555
C12 C6 1_555 1_555
C13 N2 1_555 1_555
C14 C9 1_555 1_555
H10 C14 1_555 1_555
N3 C13 1_555 1_555
C10 C11 1_555 1_555
C12 C13 1_555 1_555
C12 C14 1_555 1_555

#END
