
#######################################################################
#
#                 Cambridge Crystallographic Data Centre
#                                CCDC 
#
#######################################################################
#
# If this CIF has been generated from an entry in the Cambridge 
# Structural Database, then it will include bibliographic, chemical, 
# crystal, experimental, refinement or atomic coordinate data resulting 
# from the CCDC's data processing and validation procedures.
#
#######################################################################

data_KISGUP
_chemical_formula_moiety         'C16 H15 Cl1 O5'
_chemical_name_systematic        
'Dimethyl 2-(2-chlorophenyl)-3-formylcyclopent-3-ene-1,1-dicarboxylate'
_symmetry_cell_setting           monoclinic
_symmetry_space_group_name_H-M   'P 21'
_symmetry_Int_Tables_number      4
_space_group_name_Hall           'P 2yb'
loop_
_symmetry_equiv_pos_site_id
_symmetry_equiv_pos_as_xyz
1 x,y,z
2 -x,1/2+y,-z
_cell_length_a                   9.6813(8)
_cell_length_b                   8.0079(6)
_cell_length_c                   10.2988(8)
_cell_angle_alpha                90
_cell_angle_beta                 96.273(4)
_cell_angle_gamma                90
_cell_volume                     793.653
_exptl_crystal_colour            orange
_exptl_crystal_description       'triangular chip'
_cell_formula_units_Z            2
loop_
_atom_site_label
_atom_site_type_symbol
_atom_site_fract_x
_atom_site_fract_y
_atom_site_fract_z
Cl1 Cl 0.21132(6) 0.68692(5) 0.83358(5)
O1 O 0.44545(15) 0.11791(18) 0.82553(13)
O2 O 0.44553(10) 0.39253(14) 0.78164(10)
O3 O 0.25562(13) 0.41433(18) 0.47406(11)
O4 O 0.42862(10) 0.22976(15) 0.50686(9)
O5 O -0.15207(13) 0.4240(2) 0.68820(14)
C1 C 0.18282(14) 0.50744(18) 0.92073(13)
C2 C 0.19096(18) 0.5207(3) 1.05593(16)
H1 H 0.2110 0.6243 1.0966
C3 C 0.16980(18) 0.3828(3) 1.12971(14)
H2 H 0.1752 0.3918 1.2211
C4 C 0.14081(16) 0.2315(3) 1.07058(14)
H3 H 0.1263 0.1370 1.1215
C5 C 0.13289(15) 0.21764(19) 0.93533(13)
H4 H 0.1133 0.1133 0.8958
C6 C 0.15352(12) 0.35599(15) 0.85727(11)
C7 C 0.14734(12) 0.33728(14) 0.71013(10)
H5 H 0.1422 0.4487 0.6682
C8 C 0.27213(12) 0.23520(16) 0.66456(10)
C9 C 0.21563(16) 0.05696(17) 0.63519(15)
H6 H 0.2491 0.0120 0.5558
H7 H 0.2430 -0.0187 0.7083
C10 C 0.06179(16) 0.0817(2) 0.61703(14)
H8 H -0.0017 0.0003 0.5821
C11 C 0.02496(13) 0.23208(19) 0.65596(12)
C12 C 0.39854(13) 0.23743(19) 0.76689(11)
C13 C 0.55620(18) 0.4223(3) 0.88525(19)
H9 H 0.5422 0.3528 0.9598
H10 H 0.5558 0.5389 0.9107
H11 H 0.6448 0.3952 0.8547
C14 C 0.31549(13) 0.30756(17) 0.53824(11)
C15 C 0.4768(2) 0.2770(3) 0.38435(16)
H12 H 0.4093 0.2423 0.3129
H13 H 0.5652 0.2234 0.3761
H14 H 0.4882 0.3973 0.3817
C16 C -0.11902(15) 0.2884(2) 0.65245(14)
H15 H -0.1899 0.2141 0.6204
loop_
_geom_bond_atom_site_label_1
_geom_bond_atom_site_label_2
_geom_bond_site_symmetry_1
_geom_bond_site_symmetry_2
Cl1 C1 1_555 1_555
O1 C12 1_555 1_555
O2 C12 1_555 1_555
O3 C14 1_555 1_555
O4 C14 1_555 1_555
O5 C16 1_555 1_555
C1 C2 1_555 1_555
C2 H1 1_555 1_555
C3 C2 1_555 1_555
H2 C3 1_555 1_555
C4 C3 1_555 1_555
H3 C4 1_555 1_555
C5 C4 1_555 1_555
H4 C5 1_555 1_555
C6 C1 1_555 1_555
C7 C6 1_555 1_555
H5 C7 1_555 1_555
C8 C7 1_555 1_555
C9 C8 1_555 1_555
H6 C9 1_555 1_555
H7 C9 1_555 1_555
C10 C9 1_555 1_555
H8 C10 1_555 1_555
C11 C7 1_555 1_555
C12 C8 1_555 1_555
C13 O2 1_555 1_555
H9 C13 1_555 1_555
H10 C13 1_555 1_555
H11 C13 1_555 1_555
C14 C8 1_555 1_555
C15 O4 1_555 1_555
H12 C15 1_555 1_555
H13 C15 1_555 1_555
H14 C15 1_555 1_555
C16 C11 1_555 1_555
H15 C16 1_555 1_555
C5 C6 1_555 1_555
C10 C11 1_555 1_555

#END
