
#######################################################################
#
#                 Cambridge Crystallographic Data Centre
#                                CCDC 
#
#######################################################################
#
# If this CIF has been generated from an entry in the Cambridge 
# Structural Database, then it will include bibliographic, chemical, 
# crystal, experimental, refinement or atomic coordinate data resulting 
# from the CCDC's data processing and validation procedures.
#
#######################################################################

data_KISHEB
_chemical_formula_moiety         'C21 H16 Br1 N5 O1'
_chemical_name_systematic        
1-(4-Bromophenyl)-3,3-dimethyl-9-(pyrimidin-2-yl)-1H-pyrrolo[3',2':3,4]pyrrolo[1,2-a]pyrimidin-2(3H)-one
_symmetry_cell_setting           monoclinic
_symmetry_space_group_name_H-M   'P 21/c'
_symmetry_Int_Tables_number      14
_space_group_name_Hall           '-P 2ybc'
loop_
_symmetry_equiv_pos_site_id
_symmetry_equiv_pos_as_xyz
1 x,y,z
2 -x,1/2+y,1/2-z
3 -x,-y,-z
4 x,1/2-y,1/2+z
_cell_length_a                   7.8900(10)
_cell_length_b                   11.0100(14)
_cell_length_c                   21.592(2)
_cell_angle_alpha                90
_cell_angle_beta                 98.903(15)
_cell_angle_gamma                90
_cell_volume                     1853.07
_exptl_crystal_colour            colorless
_exptl_crystal_description       prism
_cell_formula_units_Z            4
loop_
_atom_site_label
_atom_site_type_symbol
_atom_site_fract_x
_atom_site_fract_y
_atom_site_fract_z
Br1 Br 0.20466(3) 0.169514(19) 0.224400(11)
N1 N 0.2605(2) 0.64802(15) 0.36578(8)
N2 N 0.2552(2) 0.67651(14) 0.53187(8)
N3 N 0.2429(2) 0.89572(16) 0.54462(8)
N4 N 0.3399(2) 0.39641(15) 0.45231(8)
N5 N 0.1924(2) 0.41717(16) 0.54087(8)
O1 O 0.26618(18) 0.77858(13) 0.28222(6)
C1 C 0.2462(2) 0.53725(17) 0.33167(9)
C2 C 0.1117(2) 0.45820(18) 0.33663(9)
H1 H 0.0280 0.4792 0.3621
C3 C 0.0993(2) 0.34870(18) 0.30454(10)
H2 H 0.0079 0.2940 0.3078
C4 C 0.2228(3) 0.32071(17) 0.26770(10)
C5 C 0.3563(3) 0.39900(19) 0.26122(10)
H3 H 0.4388 0.3781 0.2353
C6 C 0.3672(2) 0.50858(18) 0.29336(9)
H4 H 0.4571 0.5640 0.2892
C7 C 0.2595(2) 0.76218(18) 0.33746(9)
C8 C 0.2494(2) 0.86227(18) 0.38667(9)
C9 C 0.2489(2) 0.78668(17) 0.44404(9)
C10 C 0.2577(2) 0.66335(16) 0.43041(9)
C11 C 0.2619(2) 0.59259(17) 0.48388(9)
C12 C 0.0858(2) 0.93779(19) 0.36773(10)
H5 H -0.0146 0.8842 0.3631
H6 H 0.0913 0.9788 0.3278
H7 H 0.0762 0.9985 0.4002
C13 C 0.4084(2) 0.94380(18) 0.39010(10)
H8 H 0.4108 1.0013 0.4249
H9 H 0.4039 0.9887 0.3507
H10 H 0.5121 0.8935 0.3969
C14 C 0.2475(2) 0.79721(18) 0.50763(9)
C15 C 0.2772(2) 0.66017(18) 0.59540(10)
H11 H 0.2915 0.5810 0.6129
C16 C 0.2782(2) 0.7591(2) 0.63295(9)
H12 H 0.2932 0.7500 0.6772
C17 C 0.2569(2) 0.8758(2) 0.60548(10)
H13 H 0.2523 0.9437 0.6323
C18 C 0.2661(2) 0.46178(17) 0.49342(9)
C19 C 0.3282(3) 0.27556(19) 0.45707(10)
H14 H 0.3762 0.2262 0.4281
C20 C 0.2490(3) 0.21937(19) 0.50235(11)
H15 H 0.2383 0.1336 0.5045
C21 C 0.1863(3) 0.2959(2) 0.54429(11)
H16 H 0.1364 0.2605 0.5773
loop_
_geom_bond_atom_site_label_1
_geom_bond_atom_site_label_2
_geom_bond_site_symmetry_1
_geom_bond_site_symmetry_2
Br1 C4 1_555 1_555
N1 C1 1_555 1_555
N2 C11 1_555 1_555
N3 C14 1_555 1_555
N4 C18 1_555 1_555
N5 C18 1_555 1_555
O1 C7 1_555 1_555
C1 C2 1_555 1_555
C2 H1 1_555 1_555
C3 C2 1_555 1_555
H2 C3 1_555 1_555
C4 C3 1_555 1_555
C5 C4 1_555 1_555
H3 C5 1_555 1_555
C6 C1 1_555 1_555
H4 C6 1_555 1_555
C7 N1 1_555 1_555
C8 C7 1_555 1_555
C9 C8 1_555 1_555
C10 N1 1_555 1_555
C11 C10 1_555 1_555
C12 C8 1_555 1_555
H5 C12 1_555 1_555
H6 C12 1_555 1_555
H7 C12 1_555 1_555
C13 C8 1_555 1_555
H8 C13 1_555 1_555
H9 C13 1_555 1_555
H10 C13 1_555 1_555
C14 N2 1_555 1_555
C15 N2 1_555 1_555
H11 C15 1_555 1_555
C16 C15 1_555 1_555
H12 C16 1_555 1_555
C17 N3 1_555 1_555
H13 C17 1_555 1_555
C18 C11 1_555 1_555
C19 N4 1_555 1_555
H14 C19 1_555 1_555
C20 C19 1_555 1_555
H15 C20 1_555 1_555
C21 N5 1_555 1_555
H16 C21 1_555 1_555
C5 C6 1_555 1_555
C9 C10 1_555 1_555
C9 C14 1_555 1_555
C16 C17 1_555 1_555
C20 C21 1_555 1_555

#END
