
#######################################################################
#
#                 Cambridge Crystallographic Data Centre
#                                CCDC 
#
#######################################################################
#
# If this CIF has been generated from an entry in the Cambridge 
# Structural Database, then it will include bibliographic, chemical, 
# crystal, experimental, refinement or atomic coordinate data resulting 
# from the CCDC's data processing and validation procedures.
#
#######################################################################

data_KISHEC
_chemical_formula_moiety         'C72 H8 Cl1 N3,C6 H6'
_chemical_name_systematic        
'[2-(4-chlorophenyl)diazan-2-yl-1-ylidene](pyridin-2-yl)methyl-C60fullerene benzene solvate'
_symmetry_cell_setting           monoclinic
_symmetry_space_group_name_H-M   'P 21/c'
_symmetry_Int_Tables_number      14
_space_group_name_Hall           '-P 2ybc'
loop_
_symmetry_equiv_pos_site_id
_symmetry_equiv_pos_as_xyz
1 x,y,z
2 -x,1/2+y,1/2-z
3 -x,-y,-z
4 x,1/2-y,1/2+z
_cell_length_a                   19.9107(3)
_cell_length_b                   10.2319(2)
_cell_length_c                   20.5996(3)
_cell_angle_alpha                90
_cell_angle_beta                 91.1840(10)
_cell_angle_gamma                90
_cell_volume                     4195.74
_exptl_crystal_colour            'metallic dark black'
_exptl_crystal_description       block
_cell_formula_units_Z            4
loop_
_atom_site_label
_atom_site_type_symbol
_atom_site_fract_x
_atom_site_fract_y
_atom_site_fract_z
Cl1 Cl 0.55488(4) 0.20944(7) 0.25063(3)
N1 N 0.42181(9) 0.42722(19) 0.48124(9)
N2 N 0.41736(10) 0.34445(19) 0.53297(9)
N3 N 0.30573(13) 0.3474(2) 0.66514(10)
C1 C 0.32270(15) 1.0339(3) 0.42534(18)
C2 C 0.28684(15) 1.0900(2) 0.47479(18)
C3 C 0.21550(15) 1.1168(2) 0.46505(16)
C4 C 0.18220(15) 1.0912(3) 0.52583(15)
C5 C 0.23297(16) 1.0492(3) 0.57274(15)
C6 C 0.29720(15) 1.0476(3) 0.54143(17)
C7 C 0.34334(14) 0.9489(3) 0.55549(16)
C8 C 0.32764(15) 0.8490(3) 0.60190(14)
C9 C 0.26603(16) 0.8508(3) 0.63287(13)
C10 C 0.21766(16) 0.9527(3) 0.61743(14)
C11 C 0.15139(16) 0.8938(3) 0.61690(13)
C12 C 0.10300(14) 0.9345(3) 0.57136(13)
C13 C 0.11882(14) 1.0348(3) 0.52490(13)
C14 C 0.08629(13) 1.0018(3) 0.46355(13)
C15 C 0.05027(12) 0.8808(3) 0.47212(14)
C16 C 0.06038(13) 0.8390(3) 0.53881(14)
C17 C 0.06745(13) 0.7071(3) 0.55280(15)
C18 C 0.06521(13) 0.6114(3) 0.50095(17)
C19 C 0.11420(13) 0.5101(3) 0.51666(16)
C20 C 0.14654(13) 0.5439(3) 0.57689(14)
C21 C 0.11822(15) 0.6653(3) 0.60055(14)
C22 C 0.15871(16) 0.7566(3) 0.63146(12)
C23 C 0.23020(16) 0.7305(3) 0.64121(11)
C24 C 0.25744(14) 0.6144(3) 0.61821(11)
C25 C 0.21502(13) 0.5203(3) 0.58555(12)
C26 C 0.25296(12) 0.4577(2) 0.53621(11)
C27 C 0.32743(12) 0.4934(2) 0.54408(10)
C28 C 0.32213(13) 0.6117(2) 0.58918(10)
C29 C 0.36445(11) 0.5223(2) 0.47740(10)
C30 C 0.31952(11) 0.5073(2) 0.41631(10)
C31 C 0.33364(12) 0.6105(2) 0.37155(11)
C32 C 0.28583(14) 0.6509(3) 0.32526(11)
C33 C 0.27804(15) 0.7883(3) 0.31034(12)
C34 C 0.20710(16) 0.8143(3) 0.30051(12)
C35 C 0.17987(15) 0.9308(3) 0.32235(13)
C36 C 0.11549(14) 0.9308(3) 0.35392(13)
C37 C 0.11822(13) 1.0265(3) 0.40554(13)
C38 C 0.18394(15) 1.0859(3) 0.40619(15)
C39 C 0.22187(15) 1.0263(3) 0.35478(15)
C40 C 0.29033(15) 1.0013(3) 0.36374(16)
C41 C 0.37169(13) 0.9317(3) 0.44045(17)
C42 C 0.38950(12) 0.7528(2) 0.51832(13)
C43 C 0.38811(11) 0.6626(2) 0.46954(11)
C44 C 0.25673(12) 0.4538(2) 0.41654(11)
C45 C 0.20594(13) 0.4963(3) 0.36979(12)
C46 C 0.14171(13) 0.4967(3) 0.40107(14)
C47 C 0.09441(13) 0.5926(3) 0.38615(15)
C48 C 0.05574(13) 0.6516(3) 0.43717(16)
C49 C 0.04791(12) 0.7890(3) 0.42245(15)
C50 C 0.38124(13) 0.8902(3) 0.50399(16)
C51 C 0.35559(13) 0.7264(3) 0.58021(12)
C52 C 0.36899(13) 0.8373(3) 0.38884(14)
C53 C 0.31852(15) 0.8798(3) 0.34116(15)
C54 C 0.37546(12) 0.7057(2) 0.40381(12)
C55 C 0.36987(12) 0.3786(2) 0.57026(11)
C56 C 0.22253(12) 0.4269(2) 0.47800(12)
C57 C 0.08126(14) 0.8152(3) 0.36204(13)
C58 C 0.11004(15) 0.6933(3) 0.33955(13)
C59 C 0.15148(13) 0.4547(2) 0.46764(15)
C60 C 0.22032(14) 0.5922(3) 0.32457(11)
C61 C 0.17138(16) 0.6937(3) 0.30902(12)
C62 C 0.45275(10) 0.3746(2) 0.42524(11)
C63 C 0.45530(11) 0.2410(2) 0.41564(12)
H1 H 0.4358 0.1853 0.4455
C64 C 0.48650(12) 0.1895(2) 0.36205(12)
H2 H 0.4882 0.0995 0.3558
C65 C 0.51499(12) 0.2730(3) 0.31817(11)
C66 C 0.51378(11) 0.4069(2) 0.32707(12)
H3 H 0.5338 0.4621 0.2973
C67 C 0.48253(11) 0.4579(2) 0.38072(11)
H4 H 0.4814 0.5478 0.3871
C68 C 0.35886(13) 0.3093(2) 0.63130(11)
C69 C 0.40059(15) 0.2073(3) 0.65131(13)
H5 H 0.4374 0.1833 0.6270
C70 C 0.38608(18) 0.1427(3) 0.70791(14)
H6 H 0.4129 0.0736 0.7222
C71 C 0.3315(2) 0.1813(3) 0.74311(14)
H7 H 0.3210 0.1392 0.7816
C72 C 0.29307(19) 0.2829(3) 0.72032(14)
H8 H 0.2563 0.3086 0.7443
C73 C 0.9783(3) 0.6741(8) 0.2148(3)
H9 H 1.0069 0.6350 0.1854
C74 C 0.9577(3) 0.8027(7) 0.2055(2)
H10 H 0.9724 0.8496 0.1699
C75 C 0.9150(4) 0.8611(4) 0.2495(3)
H11 H 0.9012 0.9471 0.2432
C76 C 0.8929(3) 0.7910(7) 0.3028(3)
H12 H 0.8643 0.8301 0.3322
C77 C 0.9135(4) 0.6625(6) 0.3121(2)
H13 H 0.8988 0.6156 0.3477
C78 C 0.9562(4) 0.6040(4) 0.2681(4)
H14 H 0.9700 0.5180 0.2744
C79? C 0.8925(4) 0.6981(8) 0.3157(3)
H15? H 0.8668 0.6805 0.3518
C80? C 0.9354(4) 0.6032(4) 0.2919(4)
H16? H 0.9384 0.5220 0.3120
C81? C 0.9740(3) 0.6296(7) 0.2379(4)
H17? H 1.0027 0.5661 0.2220
C82? C 0.9696(3) 0.7510(9) 0.2078(2)
H18? H 0.9953 0.7687 0.1717
C83? C 0.9267(4) 0.8459(6) 0.2317(4)
H19? H 0.9237 0.9271 0.2115
C84? C 0.8881(3) 0.8195(6) 0.2856(4)
H20? H 0.8594 0.8830 0.3016
loop_
_geom_bond_atom_site_label_1
_geom_bond_atom_site_label_2
_geom_bond_site_symmetry_1
_geom_bond_site_symmetry_2
Cl1 C65 1_555 1_555
N1 N2 1_555 1_555
N2 C55 1_555 1_555
N3 C68 1_555 1_555
C1 C2 1_555 1_555
C2 C3 1_555 1_555
C3 C4 1_555 1_555
C4 C5 1_555 1_555
C5 C6 1_555 1_555
C6 C2 1_555 1_555
C7 C6 1_555 1_555
C8 C7 1_555 1_555
C9 C8 1_555 1_555
C10 C5 1_555 1_555
C11 C10 1_555 1_555
C12 C11 1_555 1_555
C13 C4 1_555 1_555
C14 C13 1_555 1_555
C15 C14 1_555 1_555
C16 C12 1_555 1_555
C17 C16 1_555 1_555
C18 C17 1_555 1_555
C19 C18 1_555 1_555
C20 C19 1_555 1_555
C21 C17 1_555 1_555
C22 C11 1_555 1_555
C23 C9 1_555 1_555
C24 C23 1_555 1_555
C25 C20 1_555 1_555
C26 C25 1_555 1_555
C27 C26 1_555 1_555
C28 C24 1_555 1_555
C29 N1 1_555 1_555
C30 C29 1_555 1_555
C31 C30 1_555 1_555
C32 C31 1_555 1_555
C33 C32 1_555 1_555
C34 C33 1_555 1_555
C35 C34 1_555 1_555
C36 C35 1_555 1_555
C37 C14 1_555 1_555
C38 C3 1_555 1_555
C39 C35 1_555 1_555
C40 C1 1_555 1_555
C41 C1 1_555 1_555
C42 C43 1_555 1_555
C43 C29 1_555 1_555
C44 C30 1_555 1_555
C45 C44 1_555 1_555
C46 C45 1_555 1_555
C47 C46 1_555 1_555
C48 C18 1_555 1_555
C49 C15 1_555 1_555
C50 C7 1_555 1_555
C51 C8 1_555 1_555
C52 C41 1_555 1_555
C53 C33 1_555 1_555
C54 C31 1_555 1_555
C55 C27 1_555 1_555
C56 C26 1_555 1_555
C57 C36 1_555 1_555
C58 C47 1_555 1_555
C59 C19 1_555 1_555
C60 C32 1_555 1_555
C61 C34 1_555 1_555
C62 N1 1_555 1_555
C63 C62 1_555 1_555
H1 C63 1_555 1_555
C64 C63 1_555 1_555
H2 C64 1_555 1_555
C65 C64 1_555 1_555
C66 C65 1_555 1_555
H3 C66 1_555 1_555
C67 C62 1_555 1_555
H4 C67 1_555 1_555
C68 C55 1_555 1_555
C69 C68 1_555 1_555
H5 C69 1_555 1_555
C70 C69 1_555 1_555
H6 C70 1_555 1_555
C71 C70 1_555 1_555
H7 C71 1_555 1_555
C72 N3 1_555 1_555
H8 C72 1_555 1_555
C73 H9 1_555 1_555
C74 C73 1_555 1_555
H10 C74 1_555 1_555
C75 C74 1_555 1_555
H11 C75 1_555 1_555
C76 C75 1_555 1_555
H12 C76 1_555 1_555
C77 C76 1_555 1_555
H13 C77 1_555 1_555
C78 C73 1_555 1_555
H14 C78 1_555 1_555
C9 C10 1_555 1_555
C12 C13 1_555 1_555
C15 C16 1_555 1_555
C20 C21 1_555 1_555
C21 C22 1_555 1_555
C22 C23 1_555 1_555
C24 C25 1_555 1_555
C27 C28 1_555 1_555
C27 C29 1_555 1_555
C28 C51 1_555 1_555
C36 C37 1_555 1_555
C37 C38 1_555 1_555
C38 C39 1_555 1_555
C39 C40 1_555 1_555
C40 C53 1_555 1_555
C41 C50 1_555 1_555
C42 C50 1_555 1_555
C42 C51 1_555 1_555
C43 C54 1_555 1_555
C44 C56 1_555 1_555
C45 C60 1_555 1_555
C46 C59 1_555 1_555
C47 C48 1_555 1_555
C48 C49 1_555 1_555
C49 C57 1_555 1_555
C52 C53 1_555 1_555
C52 C54 1_555 1_555
C56 C59 1_555 1_555
C57 C58 1_555 1_555
C58 C61 1_555 1_555
C60 C61 1_555 1_555
C66 C67 1_555 1_555
C71 C72 1_555 1_555
C77 C78 1_555 1_555

#END
