
#######################################################################
#
#                 Cambridge Crystallographic Data Centre
#                                CCDC 
#
#######################################################################
#
# If this CIF has been generated from an entry in the Cambridge 
# Structural Database, then it will include bibliographic, chemical, 
# crystal, experimental, refinement or atomic coordinate data resulting 
# from the CCDC's data processing and validation procedures.
#
#######################################################################

data_KISHIF
_chemical_formula_moiety         'C26 H18 S1'
_chemical_name_systematic        2-(4-(2-Naphthyl)biphenyl-2-yl)thiophene
_symmetry_cell_setting           orthorhombic
_symmetry_space_group_name_H-M   'P c a 21'
_symmetry_Int_Tables_number      29
_space_group_name_Hall           'P 2c -2ac'
loop_
_symmetry_equiv_pos_site_id
_symmetry_equiv_pos_as_xyz
1 x,y,z
2 -x,-y,1/2+z
3 1/2-x,y,1/2+z
4 1/2+x,-y,z
_cell_length_a                   25.3470(16)
_cell_length_b                   6.0008(3)
_cell_length_c                   12.0246(8)
_cell_angle_alpha                90
_cell_angle_beta                 90
_cell_angle_gamma                90
_cell_volume                     1828.97
_exptl_crystal_colour            colorless
_exptl_crystal_description       tabular
_cell_formula_units_Z            4
loop_
_atom_site_label
_atom_site_type_symbol
_atom_site_fract_x
_atom_site_fract_y
_atom_site_fract_z
S1 S 0.38044(3) 0.26033(14) 0.31092(9)
C1 C 0.73592(14) -0.3904(6) 0.4555(3)
H1 H 0.7634 -0.4914 0.4370
C2 C 0.68393(13) -0.4488(5) 0.4378(3)
H2 H 0.6759 -0.5911 0.4075
C3 C 0.64229(12) -0.3006(5) 0.4638(3)
C4 C 0.65475(12) -0.0894(5) 0.5111(3)
C5 C 0.61346(12) 0.0597(5) 0.5380(3)
H3 H 0.6217 0.1981 0.5722
C6 C 0.56133(12) 0.0083(5) 0.5156(3)
C7 C 0.51889(12) 0.1693(5) 0.5450(3)
C8 C 0.52082(13) 0.2776(5) 0.6482(3)
H4 H 0.5486 0.2473 0.6990
C9 C 0.48168(12) 0.4294(5) 0.6754(3)
H5 H 0.4830 0.5013 0.7458
C10 C 0.44016(12) 0.4804(5) 0.6023(3)
C11 C 0.39809(13) 0.6331(5) 0.6426(3)
C12 C 0.34565(13) 0.5675(5) 0.6431(3)
H6 H 0.3363 0.4248 0.6152
C13 C 0.30666(14) 0.7083(5) 0.6840(3)
H7 H 0.2709 0.6604 0.6848
C14 C 0.31952(15) 0.9167(5) 0.7235(3)
H8 H 0.2928 1.0135 0.7504
C15 C 0.74816(13) -0.1795(6) 0.5016(3)
H9 H 0.7840 -0.1395 0.5137
C16 C 0.70893(12) -0.0329(5) 0.5288(3)
H10 H 0.7178 0.1079 0.5598
C17 C 0.47894(12) 0.2231(5) 0.4705(3)
H11 H 0.4780 0.1511 0.4001
C18 C 0.43998(11) 0.3808(5) 0.4964(3)
C19 C 0.37185(15) 0.9841(5) 0.7236(3)
H12 H 0.3809 1.1278 0.7508
C20 C 0.41113(14) 0.8439(5) 0.6843(3)
H13 H 0.4469 0.8909 0.6857
C21 C 0.40151(12) 0.4479(5) 0.4102(3)
C22 C 0.34239(13) 0.4560(5) 0.2476(3)
H14 H 0.3211 0.4269 0.1843
C23 C 0.34576(12) 0.6565(5) 0.2971(3)
H15 H 0.3273 0.7844 0.2716
C24 C 0.37982(11) 0.6584(6) 0.3916(3)
H16 H 0.3868 0.7860 0.4360
C25 C 0.54910(13) -0.2023(5) 0.4672(3)
H17 H 0.5134 -0.2391 0.4514
C26 C 0.58804(13) -0.3510(5) 0.4434(3)
H18 H 0.5789 -0.4916 0.4125
loop_
_geom_bond_atom_site_label_1
_geom_bond_atom_site_label_2
_geom_bond_site_symmetry_1
_geom_bond_site_symmetry_2
S1 C21 1_555 1_555
C1 H1 1_555 1_555
C2 C1 1_555 1_555
H2 C2 1_555 1_555
C3 C2 1_555 1_555
C4 C3 1_555 1_555
C5 C4 1_555 1_555
H3 C5 1_555 1_555
C6 C5 1_555 1_555
C7 C6 1_555 1_555
C8 C7 1_555 1_555
H4 C8 1_555 1_555
C9 C8 1_555 1_555
H5 C9 1_555 1_555
C10 C9 1_555 1_555
C11 C10 1_555 1_555
C12 C11 1_555 1_555
H6 C12 1_555 1_555
C13 C12 1_555 1_555
H7 C13 1_555 1_555
C14 C13 1_555 1_555
H8 C14 1_555 1_555
C15 C1 1_555 1_555
H9 C15 1_555 1_555
C16 C4 1_555 1_555
H10 C16 1_555 1_555
C17 C7 1_555 1_555
H11 C17 1_555 1_555
C18 C10 1_555 1_555
C19 C14 1_555 1_555
H12 C19 1_555 1_555
C20 C11 1_555 1_555
H13 C20 1_555 1_555
C21 C18 1_555 1_555
C22 S1 1_555 1_555
H14 C22 1_555 1_555
C23 C22 1_555 1_555
H15 C23 1_555 1_555
C24 C21 1_555 1_555
H16 C24 1_555 1_555
C25 C6 1_555 1_555
H17 C25 1_555 1_555
C26 C3 1_555 1_555
H18 C26 1_555 1_555
C15 C16 1_555 1_555
C17 C18 1_555 1_555
C19 C20 1_555 1_555
C23 C24 1_555 1_555
C25 C26 1_555 1_555

#END
