
#######################################################################
#
#                 Cambridge Crystallographic Data Centre
#                                CCDC 
#
#######################################################################
#
# If this CIF has been generated from an entry in the Cambridge 
# Structural Database, then it will include bibliographic, chemical, 
# crystal, experimental, refinement or atomic coordinate data resulting 
# from the CCDC's data processing and validation procedures.
#
#######################################################################

data_KISNOQ
_chemical_formula_moiety         'C17 H32 N4 O4'
_chemical_name_systematic        N,N'-bis(butylcarbamoyl)heptanediamide
_symmetry_cell_setting           monoclinic
_symmetry_space_group_name_H-M   'C 2/c'
_symmetry_Int_Tables_number      15
_space_group_name_Hall           '-C 2yn'
loop_
_symmetry_equiv_pos_site_id
_symmetry_equiv_pos_as_xyz
1 x,y,z
2 1/2+x,1/2+y,z
3 -x,y,1/2-z
4 1/2-x,1/2+y,1/2-z
5 -x,-y,-z
6 1/2-x,1/2-y,-z
7 x,-y,1/2+z
8 1/2+x,1/2-y,1/2+z
_cell_length_a                   5.1831(5)
_cell_length_b                   8.8953(5)
_cell_length_c                   42.364(8)
_cell_angle_alpha                90
_cell_angle_beta                 92.914(9)
_cell_angle_gamma                90
_cell_volume                     1950.68
_exptl_crystal_colour            colorless
_exptl_crystal_description       plate
_chemical_melting_point          '180-181 deg.C'
_cell_formula_units_Z            4
loop_
_atom_site_label
_atom_site_type_symbol
_atom_site_fract_x
_atom_site_fract_y
_atom_site_fract_z
C1 C 0.4902(9) 0.3266(6) 0.03155(9)
H1 H 0.6071 0.3688 0.0166
H2 H 0.3070 0.3458 0.0257
H3 H 0.5194 0.2186 0.0330
C2 C 0.5440(7) 0.4053(6) 0.06358(9)
H4 H 0.5010 0.5134 0.0615
H5 H 0.4326 0.3611 0.0795
C3 C 0.8277(7) 0.3881(4) 0.07482(7)
H6 H 0.8714 0.2799 0.0760
H7 H 0.9379 0.4350 0.0592
C4 C 0.8865(5) 0.4603(3) 0.10713(5)
H8 H 1.0729 0.4484 0.1129
H9 H 0.8496 0.5694 0.1056
N1 N 0.7377(4) 0.3963(2) 0.13222(5)
H10 H 0.6067 0.4502 0.1397
C5 C 0.7916(4) 0.2584(2) 0.14315(5)
O1 O 0.9661(3) 0.17827(18) 0.13420(4)
N2 N 0.6351(4) 0.2017(2) 0.16681(5)
H11 H 0.6855 0.1095 0.1746
C6 C 0.4409(4) 0.2681(2) 0.18195(5)
O2 O 0.3753(3) 0.39951(16) 0.17722(4)
C7 C 0.3084(4) 0.1688(2) 0.20506(5)
H12 H 0.4404 0.1097 0.2174
H13 H 0.1938 0.0973 0.1932
C8 C 0.1500(4) 0.2580(2) 0.22772(5)
H14 H 0.0267 0.3224 0.2153
H15 H 0.2672 0.3249 0.2404
C9 C 0.0000 0.1616(3) 0.2500
H16 H -0.1260 0.0965 0.2391
C1B C -0.4902(9) 0.3266(6) 0.46845(9)
H1B H -0.6071 0.3688 0.4834
H2B H -0.3070 0.3458 0.4743
H3B H -0.5194 0.2186 0.4670
C2B C -0.5440(7) 0.4053(6) 0.43642(9)
H4B H -0.5010 0.5134 0.4385
H5B H -0.4326 0.3611 0.4205
C3B C -0.8277(7) 0.3881(4) 0.42518(7)
H6B H -0.8714 0.2799 0.4240
H7B H -0.9379 0.4350 0.4408
C4B C -0.8865(5) 0.4603(3) 0.39287(5)
H8B H -1.0729 0.4484 0.3871
H9B H -0.8496 0.5694 0.3944
N1B N -0.7377(4) 0.3963(2) 0.36778(5)
H10B H -0.6067 0.4502 0.3603
C5B C -0.7916(4) 0.2584(2) 0.35685(5)
O1B O -0.9661(3) 0.17827(18) 0.36580(4)
N2B N -0.6351(4) 0.2017(2) 0.33319(5)
H11B H -0.6855 0.1095 0.3254
C6B C -0.4409(4) 0.2681(2) 0.31805(5)
O2B O -0.3753(3) 0.39951(16) 0.32278(4)
C7B C -0.3084(4) 0.1688(2) 0.29494(5)
H12B H -0.4404 0.1097 0.2826
H13B H -0.1938 0.0973 0.3068
C8B C -0.1500(4) 0.2580(2) 0.27228(5)
H14B H -0.0267 0.3224 0.2847
H15B H -0.2672 0.3249 0.2596
H16B H 0.1260 0.0965 0.2609
loop_
_geom_bond_atom_site_label_1
_geom_bond_atom_site_label_2
_geom_bond_site_symmetry_1
_geom_bond_site_symmetry_2
C1 H1 1_555 1_555
H2 C1 1_555 1_555
H3 C1 1_555 1_555
C2 C1 1_555 1_555
H4 C2 1_555 1_555
H5 C2 1_555 1_555
C3 C2 1_555 1_555
H6 C3 1_555 1_555
H7 C3 1_555 1_555
C4 C3 1_555 1_555
H8 C4 1_555 1_555
H9 C4 1_555 1_555
N1 C4 1_555 1_555
H10 N1 1_555 1_555
C5 N1 1_555 1_555
O1 C5 1_555 1_555
N2 C5 1_555 1_555
H11 N2 1_555 1_555
C6 N2 1_555 1_555
O2 C6 1_555 1_555
C7 C6 1_555 1_555
H12 C7 1_555 1_555
H13 C7 1_555 1_555
C8 C7 1_555 1_555
H14 C8 1_555 1_555
H15 C8 1_555 1_555
C9 C8 1_555 1_555
H16 C9 1_555 1_555
C1B H1B 1_555 1_555
H2B C1B 1_555 1_555
H3B C1B 1_555 1_555
C2B C1B 1_555 1_555
H4B C2B 1_555 1_555
H5B C2B 1_555 1_555
C3B C2B 1_555 1_555
H6B C3B 1_555 1_555
H7B C3B 1_555 1_555
C4B C3B 1_555 1_555
H8B C4B 1_555 1_555
H9B C4B 1_555 1_555
N1B C4B 1_555 1_555
H10B N1B 1_555 1_555
C5B N1B 1_555 1_555
O1B C5B 1_555 1_555
N2B C5B 1_555 1_555
H11B N2B 1_555 1_555
C6B N2B 1_555 1_555
O2B C6B 1_555 1_555
C7B C6B 1_555 1_555
H12B C7B 1_555 1_555
H13B C7B 1_555 1_555
C8B C9 1_555 1_555
H14B C8B 1_555 1_555
H15B C8B 1_555 1_555
H16B C9 1_555 1_555
C7B C8B 1_555 1_555

#END
