
#######################################################################
#
#                 Cambridge Crystallographic Data Centre
#                                CCDC 
#
#######################################################################
#
# If this CIF has been generated from an entry in the Cambridge 
# Structural Database, then it will include bibliographic, chemical, 
# crystal, experimental, refinement or atomic coordinate data resulting 
# from the CCDC's data processing and validation procedures.
#
#######################################################################

data_KISNUW
_chemical_formula_moiety         'C26 H22 N2 O4 S4'
_chemical_name_systematic        
bi(6-n-butyl-5,7-dioxo-6,7-dihydro-5H-[1,3]dithiolo[4,5-f]isoindole-2-ylidene)
_symmetry_cell_setting           triclinic
_symmetry_space_group_name_H-M   'P -1'
_symmetry_Int_Tables_number      2
_space_group_name_Hall           '-P 1'
loop_
_symmetry_equiv_pos_site_id
_symmetry_equiv_pos_as_xyz
1 x,y,z
2 -x,-y,-z
_cell_length_a                   4.6243(8)
_cell_length_b                   5.982(9)
_cell_length_c                   22.213(4)
_cell_angle_alpha                88.391(9)
_cell_angle_beta                 84.219(8)
_cell_angle_gamma                85.904(8)
_cell_volume                     609.647
_exptl_crystal_colour            red
_exptl_crystal_description       prism
_cell_formula_units_Z            1
_exptl_crystal_recrystallization_method sublimation
loop_
_atom_site_label
_atom_site_type_symbol
_atom_site_fract_x
_atom_site_fract_y
_atom_site_fract_z
S1 S 0.2794(2) 0.77313(16) 0.47320(4)
S2 S 0.1454(2) 0.36725(15) 0.41039(4)
O1 O 1.1460(6) 1.0993(4) 0.28998(11)
O2 O 0.8958(6) 0.5010(4) 0.18778(10)
N1 N 1.0744(7) 0.8111(5) 0.22726(12)
C1 C 1.0253(8) 0.9326(6) 0.27973(15)
C2 C 0.7987(8) 0.8172(6) 0.31937(15)
C3 C 0.6716(8) 0.8696(6) 0.37605(15)
H1 H 0.7204 0.9969 0.3966
C4 C 0.4669(8) 0.7262(6) 0.40200(14)
C5 C 0.3991(8) 0.5382(6) 0.37177(15)
C6 C 0.5298(8) 0.4869(6) 0.31382(15)
H2 H 0.4833 0.3599 0.2929
C7 C 0.7297(8) 0.6312(6) 0.28890(15)
C8 C 0.9017(8) 0.6280(6) 0.22854(15)
C9 C 1.2741(8) 0.8756(6) 0.17511(15)
H3 H 1.3720 0.7388 0.1561
H4 H 1.4259 0.9645 0.1892
C10 C 1.1159(8) 1.0120(6) 0.12846(15)
H5 H 0.9940 0.9135 0.1082
H6 H 0.9852 1.1307 0.1491
C11 C 1.3244(9) 1.1182(7) 0.08159(17)
H7 H 1.4409 0.9987 0.0582
H8 H 1.4602 1.2031 0.1023
C12 C 1.1704(10) 1.2758(8) 0.03804(18)
H9 H 1.3154 1.3398 0.0085
H10 H 1.0585 1.3967 0.0608
H11 H 1.0384 1.1921 0.0168
C13 C 0.0902(8) 0.5275(6) 0.47600(15)
S1A S -0.2794(2) 0.22687(16) 0.52680(4)
S2A S -0.1454(2) 0.63275(15) 0.58961(4)
O1A O -1.1460(6) -0.0993(4) 0.71002(11)
O2A O -0.8958(6) 0.4990(4) 0.81222(10)
N1A N -1.0744(7) 0.1889(5) 0.77274(12)
C1A C -1.0253(8) 0.0674(6) 0.72027(15)
C2A C -0.7987(8) 0.1828(6) 0.68063(15)
C3A C -0.6716(8) 0.1304(6) 0.62395(15)
H1A H -0.7204 0.0031 0.6034
C4A C -0.4669(8) 0.2738(6) 0.59800(14)
C5A C -0.3991(8) 0.4618(6) 0.62823(15)
C6A C -0.5298(8) 0.5131(6) 0.68618(15)
H2A H -0.4833 0.6401 0.7071
C7A C -0.7297(8) 0.3688(6) 0.71110(15)
C8A C -0.9017(8) 0.3720(6) 0.77146(15)
C9A C -1.2741(8) 0.1244(6) 0.82489(15)
H3A H -1.3720 0.2612 0.8439
H4A H -1.4259 0.0355 0.8108
C10A C -1.1159(8) -0.0120(6) 0.87154(15)
H5A H -0.9940 0.0865 0.8918
H6A H -0.9852 -0.1307 0.8509
C11A C -1.3244(9) -0.1182(7) 0.91841(17)
H7A H -1.4409 0.0013 0.9418
H8A H -1.4602 -0.2031 0.8977
C12A C -1.1704(10) -0.2758(8) 0.96196(18)
H9A H -1.3154 -0.3398 0.9915
H10A H -1.0585 -0.3967 0.9392
H11A H -1.0384 -0.1921 0.9832
C13A C -0.0902(8) 0.4725(6) 0.52400(15)
loop_
_geom_bond_atom_site_label_1
_geom_bond_atom_site_label_2
_geom_bond_site_symmetry_1
_geom_bond_site_symmetry_2
S1 C4 1_555 1_555
S2 C5 1_555 1_555
O1 C1 1_555 1_555
O2 C8 1_555 1_555
N1 C1 1_555 1_555
C1 C2 1_555 1_555
C2 C3 1_555 1_555
C3 H1 1_555 1_555
C4 C3 1_555 1_555
C5 C4 1_555 1_555
C6 C5 1_555 1_555
H2 C6 1_555 1_555
C7 C2 1_555 1_555
C8 N1 1_555 1_555
C9 N1 1_555 1_555
H3 C9 1_555 1_555
H4 C9 1_555 1_555
C10 C9 1_555 1_555
H5 C10 1_555 1_555
H6 C10 1_555 1_555
C11 C10 1_555 1_555
H7 C11 1_555 1_555
H8 C11 1_555 1_555
C12 C11 1_555 1_555
H9 C12 1_555 1_555
H10 C12 1_555 1_555
H11 C12 1_555 1_555
C13 S1 1_555 1_555
S1A C4A 1_555 1_555
S2A C5A 1_555 1_555
O1A C1A 1_555 1_555
O2A C8A 1_555 1_555
N1A C1A 1_555 1_555
C1A C2A 1_555 1_555
C2A C3A 1_555 1_555
C3A H1A 1_555 1_555
C4A C3A 1_555 1_555
C5A C4A 1_555 1_555
C6A C5A 1_555 1_555
H2A C6A 1_555 1_555
C7A C2A 1_555 1_555
C8A N1A 1_555 1_555
C9A N1A 1_555 1_555
H3A C9A 1_555 1_555
H4A C9A 1_555 1_555
C10A C9A 1_555 1_555
H5A C10A 1_555 1_555
H6A C10A 1_555 1_555
C11A C10A 1_555 1_555
H7A C11A 1_555 1_555
H8A C11A 1_555 1_555
C12A C11A 1_555 1_555
H9A C12A 1_555 1_555
H10A C12A 1_555 1_555
H11A C12A 1_555 1_555
C13A C13 1_555 1_555
S2 C13 1_555 1_555
C6 C7 1_555 1_555
C7 C8 1_555 1_555
S1A C13A 1_555 1_555
S2A C13A 1_555 1_555
C6A C7A 1_555 1_555
C7A C8A 1_555 1_555

#END
