
#######################################################################
#
#                 Cambridge Crystallographic Data Centre
#                                CCDC 
#
#######################################################################
#
# If this CIF has been generated from an entry in the Cambridge 
# Structural Database, then it will include bibliographic, chemical, 
# crystal, experimental, refinement or atomic coordinate data resulting 
# from the CCDC's data processing and validation procedures.
#
#######################################################################

data_KISPEI
_chemical_formula_moiety         'C28 H32 N2 S4'
_chemical_name_systematic        
2,6-bis(4-hexylthiophen-2-yl)benzo[1,2-d:4,5-d']bis(thiazole)
_symmetry_cell_setting           triclinic
_symmetry_space_group_name_H-M   'P -1'
_symmetry_Int_Tables_number      2
_space_group_name_Hall           '-P 1'
loop_
_symmetry_equiv_pos_site_id
_symmetry_equiv_pos_as_xyz
1 x,y,z
2 -x,-y,-z
_cell_length_a                   5.343(6)
_cell_length_b                   12.912(12)
_cell_length_c                   20.07(3)
_cell_angle_alpha                73.5(2)
_cell_angle_beta                 88.67(18)
_cell_angle_gamma                78.32(14)
_cell_volume                     1299.23
_exptl_crystal_colour            'light yellow'
_exptl_crystal_description       Sheet
_chemical_melting_point          '204 deg.C'
_cell_formula_units_Z            2
_exptl_crystal_recrystallization_method dichloromethane
loop_
_atom_site_label
_atom_site_type_symbol
_atom_site_fract_x
_atom_site_fract_y
_atom_site_fract_z
C1 C 0.0662(6) 0.3839(3) 0.53878(17)
H1 H 0.1106 0.3078 0.5634
C2 C 0.1953(6) 0.4305(2) 0.48083(16)
C3 C -0.1294(6) 0.4547(2) 0.55819(16)
C4 C -0.4510(6) 0.5047(2) 0.61898(16)
C5 C -0.6423(6) 0.4958(2) 0.67115(17)
C6 C -0.8301(6) 0.5783(3) 0.68033(16)
H2 H -0.8538 0.6527 0.6524
C7 C -0.9874(6) 0.5403(3) 0.73660(17)
C8 C -0.9107(6) 0.4288(3) 0.76865(18)
H3 H -0.9936 0.3896 0.8071
C9 C -1.2059(6) 0.6180(3) 0.75506(17)
H4 H -1.1399 0.6785 0.7651
H5 H -1.3258 0.6510 0.7142
C10 C -1.3539(6) 0.5659(3) 0.81730(17)
H6 H -1.2352 0.5294 0.8581
H7 H -1.4331 0.5091 0.8066
C11 C -1.5589(6) 0.6533(3) 0.83381(18)
H8 H -1.4774 0.7097 0.8440
H9 H -1.6743 0.6900 0.7923
C12 C -1.7173(6) 0.6083(3) 0.89523(18)
H10 H -1.6029 0.5692 0.9366
H11 H -1.8071 0.5546 0.8845
C13 C -1.9101(6) 0.7002(3) 0.91075(18)
H12 H -1.8193 0.7544 0.9203
H13 H -2.0248 0.7383 0.8693
C14 C -2.0711(7) 0.6593(3) 0.9728(2)
H14 H -1.9585 0.6203 1.0139
H15 H -2.1883 0.7224 0.9819
H16 H -2.1698 0.6091 0.9626
N1 N -0.2778(5) 0.4210(2) 0.61506(13)
S1 S 0.44804(15) 0.36602(6) 0.44378(4)
S2 S -0.65291(16) 0.36904(7) 0.73211(5)
C1A C -0.0662(6) 0.6161(3) 0.46122(17)
H1A H -0.1106 0.6922 0.4366
C2A C -0.1953(6) 0.5695(2) 0.51917(16)
C3A C 0.1294(6) 0.5453(2) 0.44181(16)
C4A C 0.4510(6) 0.4953(2) 0.38102(16)
C5A C 0.6423(6) 0.5042(2) 0.32885(17)
C6A C 0.8301(6) 0.4217(3) 0.31967(16)
H2A H 0.8538 0.3473 0.3476
C7A C 0.9874(6) 0.4597(3) 0.26340(17)
C8A C 0.9107(6) 0.5712(3) 0.23135(18)
H3A H 0.9936 0.6104 0.1929
C9A C 1.2059(6) 0.3820(3) 0.24494(17)
H4A H 1.1399 0.3215 0.2349
H5A H 1.3258 0.3490 0.2858
C10A C 1.3539(6) 0.4341(3) 0.18270(17)
H6A H 1.2352 0.4706 0.1419
H7A H 1.4331 0.4909 0.1934
C11A C 1.5589(6) 0.3467(3) 0.16619(18)
H8A H 1.4774 0.2903 0.1560
H9A H 1.6743 0.3100 0.2077
C12A C 1.7173(6) 0.3917(3) 0.10477(18)
H10A H 1.6029 0.4308 0.0634
H11A H 1.8071 0.4454 0.1155
C13A C 1.9101(6) 0.2998(3) 0.08925(18)
H12A H 1.8193 0.2456 0.0797
H13A H 2.0248 0.2617 0.1307
C14A C 2.0711(7) 0.3407(3) 0.0272(2)
H14A H 1.9585 0.3797 -0.0139
H15A H 2.1883 0.2776 0.0181
H16A H 2.1698 0.3909 0.0374
N1A N 0.2778(5) 0.5790(2) 0.38494(13)
S1A S -0.44804(15) 0.63398(6) 0.55622(4)
S2A S 0.65291(16) 0.63096(7) 0.26789(5)
C15 C 0.9572(6) 1.1187(2) 0.47454(16)
H17 H 0.9300 1.1969 0.4585
C16 C 0.8137(6) 1.0609(2) 0.44806(16)
C17 C 1.1459(6) 1.0571(2) 0.52637(16)
C18 C 1.4618(6) 1.0258(2) 0.60425(17)
C19 C 1.6505(6) 1.0506(2) 0.64516(16)
C20 C 1.8276(6) 0.9811(3) 0.69582(17)
H18 H 1.8478 0.9031 0.7100
C21 C 1.9749(6) 1.0386(3) 0.72417(16)
C22 C 1.9047(6) 1.1510(3) 0.69316(16)
H19 H 1.9838 1.2031 0.7052
C23 C 2.1802(6) 0.9801(3) 0.78185(17)
H20 H 2.3084 0.9270 0.7652
H21 H 2.0993 0.9374 0.8224
C24 C 2.3176(6) 1.0560(3) 0.80558(17)
H22 H 2.4142 1.0936 0.7666
H23 H 2.1903 1.1132 0.8189
C25 C 2.5045(6) 0.9912(3) 0.86836(18)
H24 H 2.6202 0.9294 0.8563
H25 H 2.4050 0.9593 0.9084
C26 C 2.6647(7) 1.0623(3) 0.8898(2)
H26 H 2.7573 1.0970 0.8489
H27 H 2.7941 1.0139 0.9257
C27 C 2.5147(7) 1.1510(3) 0.91772(19)
H28 H 2.3798 1.1981 0.8830
H29 H 2.4302 1.1170 0.9604
C28 C 2.6853(8) 1.2218(4) 0.9343(2)
H30 H 2.7631 1.2582 0.8917
H31 H 2.5830 1.2777 0.9537
H32 H 2.8200 1.1752 0.9683
N2 N 1.3055(5) 1.1027(2) 0.55750(13)
S3 S 0.56689(15) 1.11204(6) 0.38401(4)
S4 S 1.66115(15) 1.18822(6) 0.63072(4)
C15A C 1.0428(6) 0.8813(2) 0.52546(16)
H17A H 1.0700 0.8031 0.5415
C16A C 1.1863(6) 0.9391(2) 0.55194(16)
C17A C 0.8541(6) 0.9429(2) 0.47363(16)
C18A C 0.5382(6) 0.9742(2) 0.39575(17)
C19A C 0.3495(6) 0.9494(2) 0.35484(16)
C20A C 0.1724(6) 1.0189(3) 0.30418(17)
H18A H 0.1522 1.0969 0.2900
C21A C 0.0251(6) 0.9614(3) 0.27583(16)
C22A C 0.0953(6) 0.8490(3) 0.30684(16)
H19A H 0.0162 0.7969 0.2948
C23A C -0.1802(6) 1.0199(3) 0.21815(17)
H20A H -0.3084 1.0730 0.2348
H21A H -0.0993 1.0626 0.1776
C24A C -0.3176(6) 0.9440(3) 0.19442(17)
H22A H -0.4142 0.9064 0.2334
H23A H -0.1903 0.8868 0.1811
C25A C -0.5045(6) 1.0088(3) 0.13164(18)
H24A H -0.6202 1.0706 0.1437
H25A H -0.4050 1.0407 0.0916
C26A C -0.6647(7) 0.9377(3) 0.1102(2)
H26A H -0.7573 0.9030 0.1511
H27A H -0.7941 0.9861 0.0743
C27A C -0.5147(7) 0.8490(3) 0.08228(19)
H28A H -0.3798 0.8019 0.1170
H29A H -0.4302 0.8830 0.0396
C28A C -0.6853(8) 0.7782(4) 0.0657(2)
H30A H -0.7631 0.7418 0.1083
H31A H -0.5830 0.7223 0.0463
H32A H -0.8200 0.8248 0.0317
N2A N 0.6945(5) 0.8973(2) 0.44250(13)
S3A S 1.43311(15) 0.88796(6) 0.61599(4)
S4A S 0.33885(15) 0.81178(6) 0.36928(4)
loop_
_geom_bond_atom_site_label_1
_geom_bond_atom_site_label_2
_geom_bond_site_symmetry_1
_geom_bond_site_symmetry_2
C1 H1 1_555 1_555
C2 C1 1_555 1_555
C3 C1 1_555 1_555
C4 C5 1_555 1_555
C5 C6 1_555 1_555
C6 H2 1_555 1_555
C7 C6 1_555 1_555
C8 C7 1_555 1_555
H3 C8 1_555 1_555
C9 C7 1_555 1_555
H4 C9 1_555 1_555
H5 C9 1_555 1_555
C10 C9 1_555 1_555
H6 C10 1_555 1_555
H7 C10 1_555 1_555
C11 C10 1_555 1_555
H8 C11 1_555 1_555
H9 C11 1_555 1_555
C12 C11 1_555 1_555
H10 C12 1_555 1_555
H11 C12 1_555 1_555
C13 C12 1_555 1_555
H12 C13 1_555 1_555
H13 C13 1_555 1_555
C14 C13 1_555 1_555
H14 C14 1_555 1_555
H15 C14 1_555 1_555
H16 C14 1_555 1_555
N1 C3 1_555 1_555
S1 C2 1_555 1_555
S2 C5 1_555 1_555
C15 H17 1_555 1_555
C16 C15 1_555 1_555
C17 C15 1_555 1_555
C18 C19 1_555 1_555
C19 C20 1_555 1_555
C20 H18 1_555 1_555
C21 C20 1_555 1_555
C22 C21 1_555 1_555
H19 C22 1_555 1_555
C23 C21 1_555 1_555
H20 C23 1_555 1_555
H21 C23 1_555 1_555
C24 C23 1_555 1_555
H22 C24 1_555 1_555
H23 C24 1_555 1_555
C25 C24 1_555 1_555
H24 C25 1_555 1_555
H25 C25 1_555 1_555
C26 C25 1_555 1_555
H26 C26 1_555 1_555
H27 C26 1_555 1_555
C27 C26 1_555 1_555
H28 C27 1_555 1_555
H29 C27 1_555 1_555
C28 C27 1_555 1_555
H30 C28 1_555 1_555
H31 C28 1_555 1_555
H32 C28 1_555 1_555
N2 C17 1_555 1_555
S3 C16 1_555 1_555
S4 C19 1_555 1_555
C1A H1A 1_555 1_555
C2A C3 1_555 1_555
C3A C2 1_555 1_555
C4A S1 1_555 1_555
C5A C4A 1_555 1_555
C6A C5A 1_555 1_555
H2A C6A 1_555 1_555
C7A C6A 1_555 1_555
C8A C7A 1_555 1_555
H3A C8A 1_555 1_555
C9A C7A 1_555 1_555
H4A C9A 1_555 1_555
H5A C9A 1_555 1_555
C10A C9A 1_555 1_555
H6A C10A 1_555 1_555
H7A C10A 1_555 1_555
C11A C10A 1_555 1_555
H8A C11A 1_555 1_555
H9A C11A 1_555 1_555
C12A C11A 1_555 1_555
H10A C12A 1_555 1_555
H11A C12A 1_555 1_555
C13A C12A 1_555 1_555
H12A C13A 1_555 1_555
H13A C13A 1_555 1_555
C14A C13A 1_555 1_555
H14A C14A 1_555 1_555
H15A C14A 1_555 1_555
H16A C14A 1_555 1_555
N1A C3A 1_555 1_555
S1A C4 1_555 1_555
S2A C5A 1_555 1_555
C15A H17A 1_555 1_555
C16A C17 1_555 1_555
C17A C16 1_555 1_555
C18A S3 1_555 1_555
C19A C18A 1_555 1_555
C20A C19A 1_555 1_555
H18A C20A 1_555 1_555
C21A C20A 1_555 1_555
C22A C21A 1_555 1_555
H19A C22A 1_555 1_555
C23A C21A 1_555 1_555
H20A C23A 1_555 1_555
H21A C23A 1_555 1_555
C24A C23A 1_555 1_555
H22A C24A 1_555 1_555
H23A C24A 1_555 1_555
C25A C24A 1_555 1_555
H24A C25A 1_555 1_555
H25A C25A 1_555 1_555
C26A C25A 1_555 1_555
H26A C26A 1_555 1_555
H27A C26A 1_555 1_555
C27A C26A 1_555 1_555
H28A C27A 1_555 1_555
H29A C27A 1_555 1_555
C28A C27A 1_555 1_555
H30A C28A 1_555 1_555
H31A C28A 1_555 1_555
H32A C28A 1_555 1_555
N2A C17A 1_555 1_555
S3A C18 1_555 1_555
S4A C19A 1_555 1_555
C4 N1 1_555 1_555
C8 S2 1_555 1_555
C18 N2 1_555 1_555
C22 S4 1_555 1_555
C1A C2A 1_555 1_555
C1A C3A 1_555 1_555
C2A S1A 1_555 1_555
C4A N1A 1_555 1_555
C8A S2A 1_555 1_555
C15A C16A 1_555 1_555
C15A C17A 1_555 1_555
C16A S3A 1_555 1_555
C18A N2A 1_555 1_555
C22A S4A 1_555 1_555

#END
