
#######################################################################
#
#                 Cambridge Crystallographic Data Centre
#                                CCDC 
#
#######################################################################
#
# If this CIF has been generated from an entry in the Cambridge 
# Structural Database, then it will include bibliographic, chemical, 
# crystal, experimental, refinement or atomic coordinate data resulting 
# from the CCDC's data processing and validation procedures.
#
#######################################################################

data_KISQUZ
_chemical_formula_moiety         'C52 H66 S4'
_chemical_name_systematic        
5,5'''-diphenyl-3,3'''-didodecyl-2,2':5',2'':5'',2'''-quaterthiophene
_symmetry_cell_setting           monoclinic
_symmetry_space_group_name_H-M   'P 21/c'
_symmetry_Int_Tables_number      14
_space_group_name_Hall           '-P 2ybc'
loop_
_symmetry_equiv_pos_site_id
_symmetry_equiv_pos_as_xyz
1 x,y,z
2 -x,1/2+y,1/2-z
3 -x,-y,-z
4 x,1/2-y,1/2+z
_cell_length_a                   19.1983(13)
_cell_length_b                   5.5487(3)
_cell_length_c                   23.1513(15)
_cell_angle_alpha                90
_cell_angle_beta                 108.542(5)
_cell_angle_gamma                90
_cell_volume                     2338.19
_exptl_crystal_colour            orange
_exptl_crystal_description       needle
_cell_formula_units_Z            2
_exptl_crystal_recrystallization_method hexane
loop_
_atom_site_label
_atom_site_type_symbol
_atom_site_fract_x
_atom_site_fract_y
_atom_site_fract_z
S1 S 0.06846(8) -0.1868(3) 0.45454(6)
C1 C 0.0086(3) 0.0135(9) 0.4727(2)
S2 S 0.08299(8) 0.0383(3) 0.27712(6)
C2 C -0.0154(3) 0.1763(10) 0.4272(2)
H1 H -0.0478 0.2999 0.4280
C3 C 0.0123(3) 0.1437(11) 0.3790(2)
H2 H -0.0003 0.2432 0.3449
C4 C 0.0596(3) -0.0470(10) 0.3859(2)
C5 C 0.0994(3) -0.1189(11) 0.3449(2)
C6 C 0.1520(3) -0.2954(11) 0.3503(3)
C7 C 0.1781(3) -0.2927(10) 0.2995(3)
H3 H 0.2142 -0.3987 0.2963
C8 C 0.1476(3) -0.1281(10) 0.2562(3)
C9 C 0.1636(3) -0.0781(12) 0.1996(3)
C10 C 0.1381(3) 0.1279(12) 0.1655(3)
H4 H 0.1093 0.2368 0.1784
C11 C 0.1550(4) 0.1741(11) 0.1126(3)
H5 H 0.1370 0.3121 0.0900
C12 C 0.1984(4) 0.0162(15) 0.0935(3)
H6 H 0.2107 0.0491 0.0585
C13 C 0.2235(4) -0.1895(13) 0.1261(3)
H7 H 0.2519 -0.2981 0.1127
C14 C 0.2069(3) -0.2375(10) 0.1791(3)
H8 H 0.2247 -0.3770 0.2011
C15 C 0.1805(3) -0.4606(10) 0.4042(2)
H9 H 0.1397 -0.5571 0.4074
H10 H 0.1972 -0.3621 0.4406
C16 C 0.2430(3) -0.6316(10) 0.4037(2)
H11 H 0.2266 -0.7355 0.3683
H12 H 0.2844 -0.5382 0.4007
C17 C 0.2674(3) -0.7858(10) 0.4611(2)
H13 H 0.2822 -0.6795 0.4961
H14 H 0.2255 -0.8779 0.4635
C18 C 0.3296(3) -0.9584(10) 0.4654(2)
H15 H 0.3718 -0.8676 0.4630
H16 H 0.3150 -1.0673 0.4309
C19 C 0.3520(3) -1.1049(10) 0.5235(2)
H17 H 0.3097 -1.1974 0.5250
H18 H 0.3646 -0.9945 0.5577
C20 C 0.4158(3) -1.2771(10) 0.5316(2)
H19 H 0.4586 -1.1859 0.5310
H20 H 0.4037 -1.3885 0.4976
C21 C 0.4347(3) -1.4200(10) 0.5907(2)
H21 H 0.3917 -1.5110 0.5910
H22 H 0.4460 -1.3075 0.6245
C22 C 0.4990(3) -1.5939(10) 0.6010(3)
H23 H 0.4880 -1.7056 0.5671
H24 H 0.5422 -1.5030 0.6013
C23 C 0.5165(3) -1.7366(10) 0.6594(2)
H25 H 0.4732 -1.8268 0.6592
H26 H 0.5278 -1.6250 0.6934
C24 C 0.5806(3) -1.9117(11) 0.6695(3)
H27 H 0.5694 -2.0237 0.6356
H28 H 0.6241 -1.8219 0.6699
C25 C 0.5972(4) -2.0528(12) 0.7280(3)
H29 H 0.5528 -2.1346 0.7287
H30 H 0.6111 -1.9411 0.7620
C26 C 0.6578(4) -2.2380(11) 0.7369(3)
H31 H 0.6651 -2.3212 0.7747
H32 H 0.7025 -2.1583 0.7377
H33 H 0.6442 -2.3515 0.7039
S1B S -0.06846(8) 0.1868(3) 0.54546(6)
C1B C -0.0086(3) -0.0135(9) 0.5273(2)
S2B S -0.08299(8) -0.0383(3) 0.72288(6)
C2B C 0.0154(3) -0.1763(10) 0.5728(2)
H1B H 0.0478 -0.2999 0.5720
C3B C -0.0123(3) -0.1437(11) 0.6210(2)
H2B H 0.0003 -0.2432 0.6551
C4B C -0.0596(3) 0.0470(10) 0.6141(2)
C5B C -0.0994(3) 0.1189(11) 0.6551(2)
C6B C -0.1520(3) 0.2954(11) 0.6497(3)
C7B C -0.1781(3) 0.2927(10) 0.7005(3)
H3B H -0.2142 0.3987 0.7037
C8B C -0.1476(3) 0.1281(10) 0.7438(3)
C9B C -0.1636(3) 0.0781(12) 0.8004(3)
C10B C -0.1381(3) -0.1279(12) 0.8345(3)
H4B H -0.1093 -0.2368 0.8216
C11B C -0.1550(4) -0.1741(11) 0.8874(3)
H5B H -0.1370 -0.3121 0.9100
C12B C -0.1984(4) -0.0162(15) 0.9065(3)
H6B H -0.2107 -0.0491 0.9415
C13B C -0.2235(4) 0.1895(13) 0.8739(3)
H7B H -0.2519 0.2981 0.8873
C14B C -0.2069(3) 0.2375(10) 0.8209(3)
H8B H -0.2247 0.3770 0.7989
C15B C -0.1805(3) 0.4606(10) 0.5958(2)
H9B H -0.1397 0.5571 0.5926
H10B H -0.1972 0.3621 0.5594
C16B C -0.2430(3) 0.6316(10) 0.5963(2)
H11B H -0.2266 0.7355 0.6317
H12B H -0.2844 0.5382 0.5993
C17B C -0.2674(3) 0.7858(10) 0.5389(2)
H13B H -0.2822 0.6795 0.5039
H14B H -0.2255 0.8779 0.5365
C18B C -0.3296(3) 0.9584(10) 0.5346(2)
H15B H -0.3718 0.8676 0.5370
H16B H -0.3150 1.0673 0.5691
C19B C -0.3520(3) 1.1049(10) 0.4765(2)
H17B H -0.3097 1.1974 0.4750
H18B H -0.3646 0.9945 0.4423
C20B C -0.4158(3) 1.2771(10) 0.4684(2)
H19B H -0.4586 1.1859 0.4690
H20B H -0.4037 1.3885 0.5024
C21B C -0.4347(3) 1.4200(10) 0.4093(2)
H21B H -0.3917 1.5110 0.4090
H22B H -0.4460 1.3075 0.3755
C22B C -0.4990(3) 1.5939(10) 0.3990(3)
H23B H -0.4880 1.7056 0.4329
H24B H -0.5422 1.5030 0.3987
C23B C -0.5165(3) 1.7366(10) 0.3406(2)
H25B H -0.4732 1.8268 0.3408
H26B H -0.5278 1.6250 0.3066
C24B C -0.5806(3) 1.9117(11) 0.3305(3)
H27B H -0.5694 2.0237 0.3644
H28B H -0.6241 1.8219 0.3301
C25B C -0.5972(4) 2.0528(12) 0.2720(3)
H29B H -0.5528 2.1346 0.2713
H30B H -0.6111 1.9411 0.2380
C26B C -0.6578(4) 2.2380(11) 0.2631(3)
H31B H -0.6651 2.3212 0.2253
H32B H -0.7025 2.1583 0.2623
H33B H -0.6442 2.3515 0.2961
loop_
_geom_bond_atom_site_label_1
_geom_bond_atom_site_label_2
_geom_bond_site_symmetry_1
_geom_bond_site_symmetry_2
S1 C1 1_555 1_555
C1 C2 1_555 1_555
S2 C5 1_555 1_555
C2 H1 1_555 1_555
C3 C2 1_555 1_555
H2 C3 1_555 1_555
C4 S1 1_555 1_555
C5 C4 1_555 1_555
C6 C5 1_555 1_555
C7 C6 1_555 1_555
H3 C7 1_555 1_555
C8 S2 1_555 1_555
C9 C8 1_555 1_555
C10 C9 1_555 1_555
H4 C10 1_555 1_555
C11 C10 1_555 1_555
H5 C11 1_555 1_555
C12 C11 1_555 1_555
H6 C12 1_555 1_555
C13 C12 1_555 1_555
H7 C13 1_555 1_555
C14 C9 1_555 1_555
H8 C14 1_555 1_555
C15 C6 1_555 1_555
H9 C15 1_555 1_555
H10 C15 1_555 1_555
C16 C15 1_555 1_555
H11 C16 1_555 1_555
H12 C16 1_555 1_555
C17 C16 1_555 1_555
H13 C17 1_555 1_555
H14 C17 1_555 1_555
C18 C17 1_555 1_555
H15 C18 1_555 1_555
H16 C18 1_555 1_555
C19 C18 1_555 1_555
H17 C19 1_555 1_555
H18 C19 1_555 1_555
C20 C19 1_555 1_555
H19 C20 1_555 1_555
H20 C20 1_555 1_555
C21 C20 1_555 1_555
H21 C21 1_555 1_555
H22 C21 1_555 1_555
C22 C21 1_555 1_555
H23 C22 1_555 1_555
H24 C22 1_555 1_555
C23 C22 1_555 1_555
H25 C23 1_555 1_555
H26 C23 1_555 1_555
C24 C23 1_555 1_555
H27 C24 1_555 1_555
H28 C24 1_555 1_555
C25 C24 1_555 1_555
H29 C25 1_555 1_555
H30 C25 1_555 1_555
C26 C25 1_555 1_555
H31 C26 1_555 1_555
H32 C26 1_555 1_555
H33 C26 1_555 1_555
S1B C1B 1_555 1_555
C1B C1 1_555 1_555
S2B C5B 1_555 1_555
C2B C1B 1_555 1_555
H1B C2B 1_555 1_555
C3B C2B 1_555 1_555
H2B C3B 1_555 1_555
C4B S1B 1_555 1_555
C5B C4B 1_555 1_555
C6B C5B 1_555 1_555
C7B C6B 1_555 1_555
H3B C7B 1_555 1_555
C8B S2B 1_555 1_555
C9B C8B 1_555 1_555
C10B C9B 1_555 1_555
H4B C10B 1_555 1_555
C11B C10B 1_555 1_555
H5B C11B 1_555 1_555
C12B C11B 1_555 1_555
H6B C12B 1_555 1_555
C13B C12B 1_555 1_555
H7B C13B 1_555 1_555
C14B C9B 1_555 1_555
H8B C14B 1_555 1_555
C15B C6B 1_555 1_555
H9B C15B 1_555 1_555
H10B C15B 1_555 1_555
C16B C15B 1_555 1_555
H11B C16B 1_555 1_555
H12B C16B 1_555 1_555
C17B C16B 1_555 1_555
H13B C17B 1_555 1_555
H14B C17B 1_555 1_555
C18B C17B 1_555 1_555
H15B C18B 1_555 1_555
H16B C18B 1_555 1_555
C19B C18B 1_555 1_555
H17B C19B 1_555 1_555
H18B C19B 1_555 1_555
C20B C19B 1_555 1_555
H19B C20B 1_555 1_555
H20B C20B 1_555 1_555
C21B C20B 1_555 1_555
H21B C21B 1_555 1_555
H22B C21B 1_555 1_555
C22B C21B 1_555 1_555
H23B C22B 1_555 1_555
H24B C22B 1_555 1_555
C23B C22B 1_555 1_555
H25B C23B 1_555 1_555
H26B C23B 1_555 1_555
C24B C23B 1_555 1_555
H27B C24B 1_555 1_555
H28B C24B 1_555 1_555
C25B C24B 1_555 1_555
H29B C25B 1_555 1_555
H30B C25B 1_555 1_555
C26B C25B 1_555 1_555
H31B C26B 1_555 1_555
H32B C26B 1_555 1_555
H33B C26B 1_555 1_555
C3 C4 1_555 1_555
C7 C8 1_555 1_555
C13 C14 1_555 1_555
C3B C4B 1_555 1_555
C7B C8B 1_555 1_555
C13B C14B 1_555 1_555

#END
