
#######################################################################
#
#                 Cambridge Crystallographic Data Centre
#                                CCDC 
#
#######################################################################
#
# If this CIF has been generated from an entry in the Cambridge 
# Structural Database, then it will include bibliographic, chemical, 
# crystal, experimental, refinement or atomic coordinate data resulting 
# from the CCDC's data processing and validation procedures.
#
#######################################################################

data_KISQOT
_chemical_formula_moiety         'C40 H56 Br2 S4'
_chemical_name_systematic        
5,5'''-dibromo-3,3'''-didodecyl-2,2':5',2'':5'',2'''-quaterthiophene
_symmetry_cell_setting           monoclinic
_symmetry_space_group_name_H-M   'P 21/c'
_symmetry_Int_Tables_number      14
_space_group_name_Hall           '-P 2ybc'
loop_
_symmetry_equiv_pos_site_id
_symmetry_equiv_pos_as_xyz
1 x,y,z
2 -x,1/2+y,1/2-z
3 -x,-y,-z
4 x,1/2-y,1/2+z
_cell_length_a                   22.6320(6)
_cell_length_b                   4.85210(10)
_cell_length_c                   18.5895(5)
_cell_angle_alpha                90
_cell_angle_beta                 91.473(2)
_cell_angle_gamma                90
_cell_volume                     2040.69
_exptl_crystal_colour            yellow
_exptl_crystal_description       plate
_cell_formula_units_Z            2
_exptl_crystal_recrystallization_method 2-propanol
loop_
_atom_site_label
_atom_site_type_symbol
_atom_site_fract_x
_atom_site_fract_y
_atom_site_fract_z
Br1 Br 0.33641(3) 0.25148(14) 0.42187(3)
S1 S 0.41103(5) 0.2388(2) 0.28478(6)
C1 C 0.3520(2) 0.3704(11) 0.3295(2)
S2 S 0.42827(5) 0.6041(3) 0.07117(6)
C2 C 0.32278(19) 0.5584(10) 0.2896(2)
H1 H 0.2896 0.6506 0.3058
C3 C 0.34660(18) 0.6054(9) 0.2207(2)
C4 C 0.39521(17) 0.4427(8) 0.2102(2)
C5 C 0.43544(17) 0.4187(9) 0.1496(2)
C6 C 0.4830(2) 0.2564(10) 0.1466(3)
H2 H 0.4945 0.1380 0.1837
C7 C 0.5140(2) 0.2799(11) 0.0825(3)
H3 H 0.5480 0.1793 0.0737
C8 C 0.49045(16) 0.4599(9) 0.0346(2)
C9 C 0.31745(18) 0.7973(8) 0.1666(2)
H4 H 0.3471 0.8681 0.1347
H5 H 0.3006 0.9525 0.1919
C10 C 0.26917(18) 0.6562(9) 0.1222(2)
H6 H 0.2871 0.5137 0.0934
H7 H 0.2423 0.5665 0.1547
C11 C 0.23361(18) 0.8447(9) 0.0727(2)
H8 H 0.2596 0.9192 0.0369
H9 H 0.2191 0.9981 0.1007
C12 C 0.18161(19) 0.7065(8) 0.0345(2)
H10 H 0.1966 0.5603 0.0044
H11 H 0.1571 0.6216 0.0704
C13 C 0.14348(18) 0.8925(9) -0.0114(2)
H12 H 0.1668 0.9626 -0.0504
H13 H 0.1316 1.0489 0.0174
C14 C 0.0887(2) 0.7561(8) -0.0429(2)
H14 H 0.1009 0.6010 -0.0719
H15 H 0.0660 0.6833 -0.0036
C15 C 0.04904(18) 0.9379(9) -0.0883(2)
H16 H 0.0718 1.0126 -0.1273
H17 H 0.0364 1.0917 -0.0592
C16 C -0.00526(18) 0.7975(8) -0.1203(2)
H18 H 0.0073 0.6396 -0.1480
H19 H -0.0288 0.7290 -0.0813
C17 C -0.04387(17) 0.9771(9) -0.1681(2)
H20 H -0.0198 1.0534 -0.2057
H21 H -0.0582 1.1299 -0.1397
C18 C -0.09670(18) 0.8321(9) -0.2032(2)
H22 H -0.0826 0.6742 -0.2298
H23 H -0.1218 0.7636 -0.1657
C19 C -0.1334(2) 1.0097(10) -0.2535(2)
H24 H -0.1079 1.0861 -0.2896
H25 H -0.1493 1.1624 -0.2264
C20 C -0.1841(2) 0.8598(12) -0.2912(3)
H26 H -0.2055 0.9860 -0.3219
H27 H -0.2102 0.7867 -0.2559
H28 H -0.1689 0.7118 -0.3195
Br1B Br 0.66359(3) 0.74852(14) -0.42187(3)
S1B S 0.58897(5) 0.7612(2) -0.28478(6)
C1B C 0.6480(2) 0.6296(11) -0.3295(2)
S2B S 0.57173(5) 0.3959(3) -0.07117(6)
C2B C 0.67722(19) 0.4416(10) -0.2896(2)
H1B H 0.7104 0.3494 -0.3058
C3B C 0.65340(18) 0.3946(9) -0.2207(2)
C4B C 0.60479(17) 0.5573(8) -0.2102(2)
C5B C 0.56456(17) 0.5813(9) -0.1496(2)
C6B C 0.5170(2) 0.7436(10) -0.1466(3)
H2B H 0.5055 0.8620 -0.1837
C7B C 0.4860(2) 0.7201(11) -0.0825(3)
H3B H 0.4520 0.8207 -0.0737
C8B C 0.50955(16) 0.5401(9) -0.0346(2)
C9B C 0.68255(18) 0.2027(8) -0.1666(2)
H4B H 0.6529 0.1319 -0.1347
H5B H 0.6994 0.0475 -0.1919
C10B C 0.73083(18) 0.3438(9) -0.1222(2)
H6B H 0.7129 0.4863 -0.0934
H7B H 0.7577 0.4335 -0.1547
C11B C 0.76639(18) 0.1553(9) -0.0727(2)
H8B H 0.7404 0.0808 -0.0369
H9B H 0.7809 0.0019 -0.1007
C12B C 0.81839(19) 0.2935(8) -0.0345(2)
H10B H 0.8034 0.4397 -0.0044
H11B H 0.8429 0.3784 -0.0704
C13B C 0.85652(18) 0.1075(9) 0.0114(2)
H12B H 0.8332 0.0374 0.0504
H13B H 0.8684 -0.0489 -0.0174
C14B C 0.9113(2) 0.2439(8) 0.0429(2)
H14B H 0.8991 0.3990 0.0719
H15B H 0.9340 0.3167 0.0036
C15B C 0.95096(18) 0.0621(9) 0.0883(2)
H16B H 0.9282 -0.0126 0.1273
H17B H 0.9636 -0.0917 0.0592
C16B C 1.00526(18) 0.2025(8) 0.1203(2)
H18B H 0.9927 0.3604 0.1480
H19B H 1.0288 0.2710 0.0813
C17B C 1.04387(17) 0.0229(9) 0.1681(2)
H20B H 1.0198 -0.0534 0.2057
H21B H 1.0582 -0.1299 0.1397
C18B C 1.09670(18) 0.1679(9) 0.2032(2)
H22B H 1.0826 0.3258 0.2298
H23B H 1.1218 0.2364 0.1657
C19B C 1.1334(2) -0.0097(10) 0.2535(2)
H24B H 1.1079 -0.0861 0.2896
H25B H 1.1493 -0.1624 0.2264
C20B C 1.1841(2) 0.1402(12) 0.2912(3)
H26B H 1.2055 0.0140 0.3219
H27B H 1.2102 0.2133 0.2559
H28B H 1.1689 0.2882 0.3195
loop_
_geom_bond_atom_site_label_1
_geom_bond_atom_site_label_2
_geom_bond_site_symmetry_1
_geom_bond_site_symmetry_2
Br1 C1 1_555 1_555
S1 C1 1_555 1_555
C1 C2 1_555 1_555
S2 C5 1_555 1_555
C2 H1 1_555 1_555
C3 C2 1_555 1_555
C4 S1 1_555 1_555
C5 C4 1_555 1_555
C6 C5 1_555 1_555
H2 C6 1_555 1_555
C7 C6 1_555 1_555
H3 C7 1_555 1_555
C8 S2 1_555 1_555
C9 C3 1_555 1_555
H4 C9 1_555 1_555
H5 C9 1_555 1_555
C10 C9 1_555 1_555
H6 C10 1_555 1_555
H7 C10 1_555 1_555
C11 C10 1_555 1_555
H8 C11 1_555 1_555
H9 C11 1_555 1_555
C12 C11 1_555 1_555
H10 C12 1_555 1_555
H11 C12 1_555 1_555
C13 C12 1_555 1_555
H12 C13 1_555 1_555
H13 C13 1_555 1_555
C14 C13 1_555 1_555
H14 C14 1_555 1_555
H15 C14 1_555 1_555
C15 C14 1_555 1_555
H16 C15 1_555 1_555
H17 C15 1_555 1_555
C16 C15 1_555 1_555
H18 C16 1_555 1_555
H19 C16 1_555 1_555
C17 C16 1_555 1_555
H20 C17 1_555 1_555
H21 C17 1_555 1_555
C18 C17 1_555 1_555
H22 C18 1_555 1_555
H23 C18 1_555 1_555
C19 C18 1_555 1_555
H24 C19 1_555 1_555
H25 C19 1_555 1_555
C20 C19 1_555 1_555
H26 C20 1_555 1_555
H27 C20 1_555 1_555
H28 C20 1_555 1_555
Br1B C1B 1_555 1_555
S1B C1B 1_555 1_555
C1B C2B 1_555 1_555
S2B C5B 1_555 1_555
C2B H1B 1_555 1_555
C3B C2B 1_555 1_555
C4B S1B 1_555 1_555
C5B C4B 1_555 1_555
C6B C5B 1_555 1_555
H2B C6B 1_555 1_555
C7B C6B 1_555 1_555
H3B C7B 1_555 1_555
C8B C8 1_555 1_555
C9B C3B 1_555 1_555
H4B C9B 1_555 1_555
H5B C9B 1_555 1_555
C10B C9B 1_555 1_555
H6B C10B 1_555 1_555
H7B C10B 1_555 1_555
C11B C10B 1_555 1_555
H8B C11B 1_555 1_555
H9B C11B 1_555 1_555
C12B C11B 1_555 1_555
H10B C12B 1_555 1_555
H11B C12B 1_555 1_555
C13B C12B 1_555 1_555
H12B C13B 1_555 1_555
H13B C13B 1_555 1_555
C14B C13B 1_555 1_555
H14B C14B 1_555 1_555
H15B C14B 1_555 1_555
C15B C14B 1_555 1_555
H16B C15B 1_555 1_555
H17B C15B 1_555 1_555
C16B C15B 1_555 1_555
H18B C16B 1_555 1_555
H19B C16B 1_555 1_555
C17B C16B 1_555 1_555
H20B C17B 1_555 1_555
H21B C17B 1_555 1_555
C18B C17B 1_555 1_555
H22B C18B 1_555 1_555
H23B C18B 1_555 1_555
C19B C18B 1_555 1_555
H24B C19B 1_555 1_555
H25B C19B 1_555 1_555
C20B C19B 1_555 1_555
H26B C20B 1_555 1_555
H27B C20B 1_555 1_555
H28B C20B 1_555 1_555
C3 C4 1_555 1_555
C7 C8 1_555 1_555
S2B C8B 1_555 1_555
C3B C4B 1_555 1_555
C7B C8B 1_555 1_555

#END
