
#######################################################################
#
#                 Cambridge Crystallographic Data Centre
#                                CCDC 
#
#######################################################################
#
# If this CIF has been generated from an entry in the Cambridge 
# Structural Database, then it will include bibliographic, chemical, 
# crystal, experimental, refinement or atomic coordinate data resulting 
# from the CCDC's data processing and validation procedures.
#
#######################################################################

data_KISQIN
_chemical_formula_moiety         'C54 H70 S4'
_chemical_name_systematic        
5,5'''-bis(p-methylphenyl)-3,3'''-didodecyl-2,2':5',2'':5'',2'''-quaterthiophene
_symmetry_cell_setting           monoclinic
_symmetry_space_group_name_H-M   'C 2/c'
_symmetry_Int_Tables_number      15
_space_group_name_Hall           '-C 2yn'
loop_
_symmetry_equiv_pos_site_id
_symmetry_equiv_pos_as_xyz
1 x,y,z
2 1/2+x,1/2+y,z
3 -x,y,1/2-z
4 1/2-x,1/2+y,1/2-z
5 -x,-y,-z
6 1/2-x,1/2-y,-z
7 x,-y,1/2+z
8 1/2+x,1/2-y,1/2+z
_cell_length_a                   23.6925(11)
_cell_length_b                   5.4780(3)
_cell_length_c                   37.2743(16)
_cell_angle_alpha                90
_cell_angle_beta                 91.578(2)
_cell_angle_gamma                90
_cell_volume                     4835.9
_exptl_crystal_colour            orange
_exptl_crystal_description       plate
_cell_formula_units_Z            4
_exptl_crystal_recrystallization_method 2-propanol
loop_
_atom_site_label
_atom_site_type_symbol
_atom_site_fract_x
_atom_site_fract_y
_atom_site_fract_z
S1 S 0.31491(4) -0.0036(2) 0.35436(3)
C1 C 0.37873(19) -0.3308(9) 0.18247(11)
H1 H 0.3632 -0.4747 0.1713
H2 H 0.4192 -0.3431 0.1838
H3 H 0.3680 -0.1899 0.1686
S2 S 0.23173(4) -0.0169(2) 0.45769(3)
C2 C 0.3564(2) -0.3068(11) 0.22000(13)
C3 C 0.3722(2) -0.1156(10) 0.24193(15)
H4 H 0.3970 0.0016 0.2335
C4 C 0.3520(2) -0.0941(9) 0.27642(13)
H5 H 0.3641 0.0363 0.2906
C5 C 0.31460(18) -0.2604(9) 0.29024(12)
C6 C 0.29894(18) -0.4510(9) 0.26793(14)
H6 H 0.2738 -0.5678 0.2761
C7 C 0.3196(2) -0.4724(9) 0.23391(14)
H7 H 0.3082 -0.6046 0.2198
C8 C 0.29236(18) -0.2344(7) 0.32595(11)
C9 C 0.25278(18) -0.3704(8) 0.34260(11)
H8 H 0.2350 -0.5030 0.3315
C10 C 0.24041(17) -0.2961(8) 0.37804(11)
C11 C 0.27197(17) -0.0979(8) 0.38823(11)
C12 C 0.27444(16) 0.0361(8) 0.42161(11)
C13 C 0.30879(17) 0.2307(9) 0.42959(11)
H9 H 0.3352 0.2894 0.4137
C14 C 0.30118(18) 0.3347(8) 0.46339(12)
H10 H 0.3219 0.4675 0.4720
C15 C 0.26031(17) 0.2222(7) 0.48260(9)
C16 C 0.19751(17) -0.4348(7) 0.39927(10)
H11 H 0.2088 -0.4281 0.4245
H12 H 0.1983 -0.6047 0.3920
C17 C 0.13728(18) -0.3423(7) 0.39518(10)
H13 H 0.1277 -0.3228 0.3699
H14 H 0.1346 -0.1835 0.4065
C18 C 0.09504(17) -0.5164(8) 0.41202(11)
H15 H 0.0572 -0.4609 0.4056
H16 H 0.0997 -0.6767 0.4015
C19 C 0.09947(18) -0.5421(8) 0.45235(12)
H17 H 0.0785 -0.6860 0.4592
H18 H 0.1388 -0.5699 0.4592
C20 C 0.07844(17) -0.3286(8) 0.47349(12)
H19 H 0.0391 -0.3000 0.4669
H20 H 0.0996 -0.1843 0.4670
C21 C 0.08364(17) -0.3642(8) 0.51398(13)
H21 H 0.0657 -0.5174 0.5200
H22 H 0.1234 -0.3783 0.5207
C22 C 0.05823(17) -0.1646(8) 0.53608(12)
H23 H 0.0752 -0.0106 0.5295
H24 H 0.0182 -0.1544 0.5301
C23 C 0.06533(18) -0.1972(8) 0.57598(13)
H25 H 0.1054 -0.2075 0.5819
H26 H 0.0485 -0.3518 0.5825
C24 C 0.04018(18) -0.0003(8) 0.59867(13)
H27 H 0.0001 0.0092 0.5928
H28 H 0.0568 0.1544 0.5920
C25 C 0.0475(2) -0.0308(9) 0.63886(14)
H29 H 0.0293 -0.1820 0.6456
H30 H 0.0875 -0.0479 0.6446
C26 C 0.0249(2) 0.1685(9) 0.66134(15)
H31 H -0.0145 0.1930 0.6546
H32 H 0.0449 0.3179 0.6558
C27 C 0.0295(2) 0.1266(11) 0.70167(13)
H33 H 0.0139 0.2644 0.7139
H34 H 0.0684 0.1071 0.7089
H35 H 0.0089 -0.0179 0.7077
S1E S 0.18509(4) 0.5036(2) 0.64564(3)
C1E C 0.12127(19) 0.8308(9) 0.81753(11)
H1E H 0.1368 0.9747 0.8287
H2E H 0.0808 0.8431 0.8162
H3E H 0.1320 0.6899 0.8314
S2E S 0.26827(4) 0.5169(2) 0.54231(3)
C2E C 0.1436(2) 0.8068(11) 0.78000(13)
C3E C 0.1278(2) 0.6156(10) 0.75807(15)
H4E H 0.1030 0.4984 0.7665
C4E C 0.1480(2) 0.5941(9) 0.72358(13)
H5E H 0.1359 0.4637 0.7094
C5E C 0.18540(18) 0.7604(9) 0.70976(12)
C6E C 0.20106(18) 0.9510(9) 0.73207(14)
H6E H 0.2262 1.0678 0.7239
C7E C 0.1804(2) 0.9724(9) 0.76609(14)
H7E H 0.1918 1.1046 0.7802
C8E C 0.20764(18) 0.7344(7) 0.67405(11)
C9E C 0.24722(18) 0.8704(8) 0.65740(11)
H8E H 0.2650 1.0030 0.6685
C10E C 0.25959(17) 0.7961(8) 0.62196(11)
C11E C 0.22803(17) 0.5979(8) 0.61177(11)
C12E C 0.22556(16) 0.4639(8) 0.57839(11)
C13E C 0.19121(17) 0.2693(9) 0.57041(11)
H9E H 0.1648 0.2106 0.5863
C14E C 0.19882(18) 0.1653(8) 0.53661(12)
H10E H 0.1781 0.0325 0.5280
C15E C 0.23969(17) 0.2778(7) 0.51740(9)
C16E C 0.30249(17) 0.9348(7) 0.60073(10)
H11E H 0.2912 0.9281 0.5755
H12E H 0.3017 1.1047 0.6080
C17E C 0.36272(18) 0.8423(7) 0.60482(10)
H13E H 0.3723 0.8228 0.6301
H14E H 0.3654 0.6835 0.5935
C18E C 0.40496(17) 1.0164(8) 0.58798(11)
H15E H 0.4428 0.9609 0.5944
H16E H 0.4003 1.1767 0.5985
C19E C 0.40053(18) 1.0421(8) 0.54765(12)
H17E H 0.4215 1.1860 0.5408
H18E H 0.3612 1.0699 0.5408
C20E C 0.42156(17) 0.8286(8) 0.52651(12)
H19E H 0.4609 0.8000 0.5331
H20E H 0.4004 0.6843 0.5330
C21E C 0.41636(17) 0.8642(8) 0.48602(13)
H21E H 0.4343 1.0174 0.4800
H22E H 0.3766 0.8783 0.4793
C22E C 0.44177(17) 0.6646(8) 0.46392(12)
H23E H 0.4248 0.5106 0.4705
H24E H 0.4818 0.6544 0.4699
C23E C 0.43467(18) 0.6972(8) 0.42402(13)
H25E H 0.3946 0.7075 0.4181
H26E H 0.4515 0.8518 0.4175
C24E C 0.45982(18) 0.5003(8) 0.40133(13)
H27E H 0.4999 0.4908 0.4072
H28E H 0.4432 0.3456 0.4080
C25E C 0.4525(2) 0.5308(9) 0.36114(14)
H29E H 0.4707 0.6820 0.3544
H30E H 0.4125 0.5479 0.3554
C26E C 0.4751(2) 0.3315(9) 0.33866(15)
H31E H 0.5145 0.3070 0.3454
H32E H 0.4551 0.1821 0.3442
C27E C 0.4705(2) 0.3734(11) 0.29833(13)
H33E H 0.4861 0.2356 0.2861
H34E H 0.4316 0.3929 0.2911
H35E H 0.4911 0.5179 0.2923
loop_
_geom_bond_atom_site_label_1
_geom_bond_atom_site_label_2
_geom_bond_site_symmetry_1
_geom_bond_site_symmetry_2
S1 C8 1_555 1_555
C1 H1 1_555 1_555
H2 C1 1_555 1_555
H3 C1 1_555 1_555
S2 C12 1_555 1_555
C2 C1 1_555 1_555
C3 C2 1_555 1_555
H4 C3 1_555 1_555
C4 C3 1_555 1_555
H5 C4 1_555 1_555
C5 C4 1_555 1_555
C6 C5 1_555 1_555
H6 C6 1_555 1_555
C7 C2 1_555 1_555
H7 C7 1_555 1_555
C8 C5 1_555 1_555
C9 C8 1_555 1_555
H8 C9 1_555 1_555
C10 C9 1_555 1_555
C11 S1 1_555 1_555
C12 C11 1_555 1_555
C13 C12 1_555 1_555
H9 C13 1_555 1_555
C14 C13 1_555 1_555
H10 C14 1_555 1_555
C15 S2 1_555 1_555
C16 C10 1_555 1_555
H11 C16 1_555 1_555
H12 C16 1_555 1_555
C17 C16 1_555 1_555
H13 C17 1_555 1_555
H14 C17 1_555 1_555
C18 C17 1_555 1_555
H15 C18 1_555 1_555
H16 C18 1_555 1_555
C19 C18 1_555 1_555
H17 C19 1_555 1_555
H18 C19 1_555 1_555
C20 C19 1_555 1_555
H19 C20 1_555 1_555
H20 C20 1_555 1_555
C21 C20 1_555 1_555
H21 C21 1_555 1_555
H22 C21 1_555 1_555
C22 C21 1_555 1_555
H23 C22 1_555 1_555
H24 C22 1_555 1_555
C23 C22 1_555 1_555
H25 C23 1_555 1_555
H26 C23 1_555 1_555
C24 C23 1_555 1_555
H27 C24 1_555 1_555
H28 C24 1_555 1_555
C25 C24 1_555 1_555
H29 C25 1_555 1_555
H30 C25 1_555 1_555
C26 C25 1_555 1_555
H31 C26 1_555 1_555
H32 C26 1_555 1_555
C27 C26 1_555 1_555
H33 C27 1_555 1_555
H34 C27 1_555 1_555
H35 C27 1_555 1_555
S1E C8E 1_555 1_555
C1E H1E 1_555 1_555
H2E C1E 1_555 1_555
H3E C1E 1_555 1_555
S2E C12E 1_555 1_555
C2E C1E 1_555 1_555
C3E C2E 1_555 1_555
H4E C3E 1_555 1_555
C4E C3E 1_555 1_555
H5E C4E 1_555 1_555
C5E C4E 1_555 1_555
C6E C5E 1_555 1_555
H6E C6E 1_555 1_555
C7E C2E 1_555 1_555
H7E C7E 1_555 1_555
C8E C5E 1_555 1_555
C9E C8E 1_555 1_555
H8E C9E 1_555 1_555
C10E C9E 1_555 1_555
C11E S1E 1_555 1_555
C12E C11E 1_555 1_555
C13E C12E 1_555 1_555
H9E C13E 1_555 1_555
C14E C13E 1_555 1_555
H10E C14E 1_555 1_555
C15E C15 1_555 1_555
C16E C10E 1_555 1_555
H11E C16E 1_555 1_555
H12E C16E 1_555 1_555
C17E C16E 1_555 1_555
H13E C17E 1_555 1_555
H14E C17E 1_555 1_555
C18E C17E 1_555 1_555
H15E C18E 1_555 1_555
H16E C18E 1_555 1_555
C19E C18E 1_555 1_555
H17E C19E 1_555 1_555
H18E C19E 1_555 1_555
C20E C19E 1_555 1_555
H19E C20E 1_555 1_555
H20E C20E 1_555 1_555
C21E C20E 1_555 1_555
H21E C21E 1_555 1_555
H22E C21E 1_555 1_555
C22E C21E 1_555 1_555
H23E C22E 1_555 1_555
H24E C22E 1_555 1_555
C23E C22E 1_555 1_555
H25E C23E 1_555 1_555
H26E C23E 1_555 1_555
C24E C23E 1_555 1_555
H27E C24E 1_555 1_555
H28E C24E 1_555 1_555
C25E C24E 1_555 1_555
H29E C25E 1_555 1_555
H30E C25E 1_555 1_555
C26E C25E 1_555 1_555
H31E C26E 1_555 1_555
H32E C26E 1_555 1_555
C27E C26E 1_555 1_555
H33E C27E 1_555 1_555
H34E C27E 1_555 1_555
H35E C27E 1_555 1_555
C6 C7 1_555 1_555
C10 C11 1_555 1_555
C14 C15 1_555 1_555
S2E C15E 1_555 1_555
C6E C7E 1_555 1_555
C10E C11E 1_555 1_555
C14E C15E 1_555 1_555

#END
