
#######################################################################
#
#                 Cambridge Crystallographic Data Centre
#                                CCDC 
#
#######################################################################
#
# If this CIF has been generated from an entry in the Cambridge 
# Structural Database, then it will include bibliographic, chemical, 
# crystal, experimental, refinement or atomic coordinate data resulting 
# from the CCDC's data processing and validation procedures.
#
#######################################################################

data_KISRIP
_chemical_formula_moiety         'C20 H20 N2 O3'
_chemical_name_systematic        
'Ethyl 2-(cyclohex-1-en-1-yl)-4-oxo-4,5-dihydro-3H-pyrrolo[2,3-c]quinoline-1-carboxylate'
_symmetry_cell_setting           monoclinic
_symmetry_space_group_name_H-M   'P 21/n'
_symmetry_Int_Tables_number      14
_space_group_name_Hall           '-P 2yn'
loop_
_symmetry_equiv_pos_site_id
_symmetry_equiv_pos_as_xyz
1 x,y,z
2 1/2-x,1/2+y,1/2-z
3 -x,-y,-z
4 1/2+x,1/2-y,1/2+z
_cell_length_a                   10.5781(17)
_cell_length_b                   8.4525(13)
_cell_length_c                   19.180(3)
_cell_angle_alpha                90
_cell_angle_beta                 92.848(4)
_cell_angle_gamma                90
_cell_volume                     1712.79
_exptl_crystal_colour            colorless
_exptl_crystal_description       block
_cell_formula_units_Z            4
loop_
_atom_site_label
_atom_site_type_symbol
_atom_site_fract_x
_atom_site_fract_y
_atom_site_fract_z
O1 O 0.36292(17) 0.5072(2) 0.05240(9)
O2 O 0.41628(19) 0.9153(2) 0.36181(9)
O3 O 0.58293(18) 0.7541(2) 0.36275(9)
N1 N 0.3013(2) 0.6012(3) 0.19449(10)
H1 H 0.580(3) 0.578(3) 0.0335(15)
N2 N 0.5591(2) 0.6119(3) 0.07592(11)
H2 H 0.240(3) 0.544(3) 0.1782(14)
C1 C 0.3109(2) 0.6624(3) 0.26024(12)
C2 C 0.4318(2) 0.7261(3) 0.27087(12)
C3 C 0.4976(2) 0.7002(3) 0.20864(12)
C4 C 0.4134(2) 0.6229(3) 0.16314(12)
C5 C 0.4392(2) 0.5758(3) 0.09354(12)
C6 C 0.6475(2) 0.6975(3) 0.11670(12)
C7 C 0.7618(3) 0.7384(3) 0.08836(15)
H3 H 0.7795 0.7044 0.0438
C8 C 0.8479(3) 0.8288(4) 0.12616(16)
H4 H 0.9238 0.8563 0.1069
C9 C 0.8230(3) 0.8795(4) 0.19268(15)
H5 H 0.8816 0.9421 0.2178
C10 C 0.7115(3) 0.8371(3) 0.22164(14)
H6 H 0.6962 0.8701 0.2667
C11 C 0.6206(2) 0.7455(3) 0.18478(12)
C12 C 0.4736(2) 0.8098(3) 0.33551(12)
C13 C 0.6365(3) 0.8294(4) 0.42597(15)
H7 H 0.7281 0.8237 0.4264
H8 H 0.6125 0.9402 0.4261
C14 C 0.5926(5) 0.7533(6) 0.48816(18)
H9 H 0.5017 0.7527 0.4864
H10 H 0.6237 0.8104 0.5288
H11 H 0.6233 0.6465 0.4905
C15 C 0.2083(2) 0.6491(3) 0.30878(12)
C16 C 0.0898(3) 0.6879(4) 0.28918(14)
H12 H 0.0738 0.7242 0.2438
C17 C -0.0190(3) 0.6764(4) 0.33589(17)
H13 H -0.0586 0.7796 0.3385
H14 H -0.0812 0.6041 0.3150
C18 C 0.0162(4) 0.6217(6) 0.40798(19)
H15 H 0.0176 0.7134 0.4384
H16 H -0.0506 0.5525 0.4227
C19 C 0.1336(4) 0.5403(7) 0.4194(2)
H17 H 0.1181 0.4290 0.4100
H18 H 0.1583 0.5494 0.4686
C20 C 0.2410(3) 0.5878(5) 0.38018(16)
H19 H 0.2968 0.4975 0.3763
H20 H 0.2875 0.6690 0.4064
loop_
_geom_bond_atom_site_label_1
_geom_bond_atom_site_label_2
_geom_bond_site_symmetry_1
_geom_bond_site_symmetry_2
O1 C5 1_555 1_555
O2 C12 1_555 1_555
O3 C12 1_555 1_555
N1 H2 1_555 1_555
H1 N2 1_555 1_555
N2 C5 1_555 1_555
C1 N1 1_555 1_555
C2 C1 1_555 1_555
C3 C2 1_555 1_555
C4 N1 1_555 1_555
C5 C4 1_555 1_555
C6 N2 1_555 1_555
C7 C6 1_555 1_555
H3 C7 1_555 1_555
C8 C7 1_555 1_555
H4 C8 1_555 1_555
C9 C8 1_555 1_555
H5 C9 1_555 1_555
C10 C9 1_555 1_555
H6 C10 1_555 1_555
C11 C3 1_555 1_555
C12 C2 1_555 1_555
C13 O3 1_555 1_555
H7 C13 1_555 1_555
H8 C13 1_555 1_555
C14 C13 1_555 1_555
H9 C14 1_555 1_555
H10 C14 1_555 1_555
H11 C14 1_555 1_555
C15 C1 1_555 1_555
C16 C15 1_555 1_555
H12 C16 1_555 1_555
C17 C16 1_555 1_555
H13 C17 1_555 1_555
H14 C17 1_555 1_555
C18 C17 1_555 1_555
H15 C18 1_555 1_555
H16 C18 1_555 1_555
C19 C18 1_555 1_555
H17 C19 1_555 1_555
H18 C19 1_555 1_555
C20 C15 1_555 1_555
H19 C20 1_555 1_555
H20 C20 1_555 1_555
C3 C4 1_555 1_555
C6 C11 1_555 1_555
C10 C11 1_555 1_555
C19 C20 1_555 1_555

#END
