
#######################################################################
#
#                 Cambridge Crystallographic Data Centre
#                                CCDC 
#
#######################################################################
#
# If this CIF has been generated from an entry in the Cambridge 
# Structural Database, then it will include bibliographic, chemical, 
# crystal, experimental, refinement or atomic coordinate data resulting 
# from the CCDC's data processing and validation procedures.
#
#######################################################################

data_KISTOX
_chemical_formula_moiety         'C21 H19 N1 O4'
_chemical_name_systematic        
'Ethyl 2-benzoyl-5-(4-methoxyphenyl)-1H-pyrrole-3-carboxylate'
_symmetry_cell_setting           triclinic
_symmetry_space_group_name_H-M   'P -1'
_symmetry_Int_Tables_number      2
_space_group_name_Hall           '-P 1'
loop_
_symmetry_equiv_pos_site_id
_symmetry_equiv_pos_as_xyz
1 x,y,z
2 -x,-y,-z
_cell_length_a                   7.8135(5)
_cell_length_b                   9.8878(7)
_cell_length_c                   11.9119(6)
_cell_angle_alpha                83.297(2)
_cell_angle_beta                 85.9210(10)
_cell_angle_gamma                83.924(2)
_cell_volume                     907.257
_exptl_crystal_colour            yellow
_exptl_crystal_description       chunk
_cell_formula_units_Z            2
loop_
_atom_site_label
_atom_site_type_symbol
_atom_site_fract_x
_atom_site_fract_y
_atom_site_fract_z
C1 C 0.0159(3) 0.3548(2) 0.65644(17)
C2 C 0.0354(3) 0.3208(2) 0.54580(17)
H1 H 0.1237 0.3548 0.4977
C3 C -0.0728(3) 0.2380(2) 0.50525(17)
H2 H -0.0559 0.2160 0.4312
C4 C -0.2060(3) 0.1882(2) 0.57490(19)
C5 C -0.2301(4) 0.2234(3) 0.6850(2)
H3 H -0.3204 0.1913 0.7323
C6 C -0.1219(3) 0.3051(3) 0.7245(2)
H4 H -0.1406 0.3280 0.7982
C7 C 0.1270(2) 0.4435(2) 0.70043(16)
C8 C 0.1001(3) 0.5104(2) 0.79740(16)
H5 H 0.0068 0.5040 0.8501
C9 C 0.2379(3) 0.5889(2) 0.80199(16)
C10 C 0.3503(3) 0.5680(2) 0.70807(16)
C11 C 0.5149(3) 0.6180(2) 0.66732(17)
C12 C 0.6179(3) 0.6780(2) 0.74635(17)
C13 C 0.7066(3) 0.7902(2) 0.7044(2)
H6 H 0.7016 0.8257 0.6288
C14 C 0.8021(3) 0.8485(3) 0.7760(3)
H7 H 0.8600 0.9241 0.7484
C15 C 0.8122(3) 0.7956(3) 0.8880(2)
H8 H 0.8760 0.8360 0.9356
C16 C 0.7278(3) 0.6830(3) 0.9293(2)
H9 H 0.7360 0.6466 1.0045
C17 C 0.6308(3) 0.6240(2) 0.85883(18)
H10 H 0.5741 0.5480 0.8869
C18 C -0.2877(3) 0.0551(3) 0.4369(2)
H11 H -0.3739 -0.0040 0.4264
H12 H -0.1756 0.0053 0.4318
H13 H -0.2936 0.1316 0.3793
C19 C 0.2399(3) 0.6863(2) 0.88703(17)
C20 C 0.2918(4) 0.9128(3) 0.9148(2)
H14 H 0.3863 0.8835 0.9634
H15 H 0.1864 0.9259 0.9621
C21 C 0.3242(6) 1.0411(3) 0.8447(3)
H16 H 0.3350 1.1108 0.8928
H17 H 0.2298 1.0693 0.7972
H18 H 0.4288 1.0271 0.7984
N1 N 0.2792(2) 0.47935(17) 0.64864(13)
H19 H 0.3247 0.4503 0.5869
O1 O -0.3173(2) 0.1027(2) 0.54486(15)
O2 O 0.5690(2) 0.61059(19) 0.56831(13)
O3 O 0.2762(2) 0.81033(16) 0.83913(12)
O4 O 0.2054(3) 0.66092(19) 0.98692(13)
loop_
_geom_bond_atom_site_label_1
_geom_bond_atom_site_label_2
_geom_bond_site_symmetry_1
_geom_bond_site_symmetry_2
C1 C2 1_555 1_555
C2 H1 1_555 1_555
C3 C2 1_555 1_555
H2 C3 1_555 1_555
C4 C3 1_555 1_555
C5 C4 1_555 1_555
H3 C5 1_555 1_555
C6 C1 1_555 1_555
H4 C6 1_555 1_555
C7 C1 1_555 1_555
C8 C7 1_555 1_555
H5 C8 1_555 1_555
C9 C8 1_555 1_555
C10 C9 1_555 1_555
C11 C10 1_555 1_555
C12 C11 1_555 1_555
C13 C12 1_555 1_555
H6 C13 1_555 1_555
C14 C13 1_555 1_555
H7 C14 1_555 1_555
C15 C14 1_555 1_555
H8 C15 1_555 1_555
C16 C15 1_555 1_555
H9 C16 1_555 1_555
C17 C12 1_555 1_555
H10 C17 1_555 1_555
C18 H11 1_555 1_555
H12 C18 1_555 1_555
H13 C18 1_555 1_555
C19 C9 1_555 1_555
C20 H14 1_555 1_555
H15 C20 1_555 1_555
C21 C20 1_555 1_555
H16 C21 1_555 1_555
H17 C21 1_555 1_555
H18 C21 1_555 1_555
N1 C7 1_555 1_555
H19 N1 1_555 1_555
O1 C4 1_555 1_555
O2 C11 1_555 1_555
O3 C19 1_555 1_555
O4 C19 1_555 1_555
C5 C6 1_555 1_555
C10 N1 1_555 1_555
C16 C17 1_555 1_555
C18 O1 1_555 1_555
C20 O3 1_555 1_555

#END
