
#######################################################################
#
#                 Cambridge Crystallographic Data Centre
#                                CCDC 
#
#######################################################################
#
# If this CIF has been generated from an entry in the Cambridge 
# Structural Database, then it will include bibliographic, chemical, 
# crystal, experimental, refinement or atomic coordinate data resulting 
# from the CCDC's data processing and validation procedures.
#
#######################################################################

data_KITDOI
_chemical_formula_moiety         'C38 H40 N4 O2'
_chemical_name_systematic        
"4,4'-(5,10,15,15,20,20-Hexamethyl-5,10,15,20,22,24-hexahydroporphyrin-5,10-diyl)diphenol unknown solvate"
_symmetry_cell_setting           monoclinic
_symmetry_space_group_name_H-M   'C 2/c'
_symmetry_Int_Tables_number      15
_space_group_name_Hall           '-C 2yn'
loop_
_symmetry_equiv_pos_site_id
_symmetry_equiv_pos_as_xyz
1 x,y,z
2 -x,y,1/2-z
3 1/2+x,1/2+y,z
4 1/2-x,1/2+y,1/2-z
5 -x,-y,-z
6 x,-y,1/2+z
7 1/2-x,1/2-y,-z
8 1/2+x,1/2-y,1/2+z
_cell_length_a                   18.327(4)
_cell_length_b                   10.935(2)
_cell_length_c                   45.246(10)
_cell_angle_alpha                90
_cell_angle_beta                 98.928(3)
_cell_angle_gamma                90
_cell_volume                     8957.7
_cell_formula_units_Z            8
loop_
_atom_site_label
_atom_site_type_symbol
_atom_site_fract_x
_atom_site_fract_y
_atom_site_fract_z
C1 C 0.16364(19) -0.1062(3) 0.13969(7)
H1 H 0.1645 -0.1415 0.1210
C2 C 0.22261(18) -0.1267(3) 0.16239(7)
H2 H 0.2624 -0.1742 0.1588
C3 C 0.22190(19) -0.0771(3) 0.18990(7)
C4 C 0.1623(2) -0.0066(3) 0.19495(7)
H3 H 0.1618 0.0279 0.2137
C5 C 0.10398(18) 0.0126(3) 0.17247(7)
H4 H 0.0638 0.0585 0.1763
C6 C 0.10411(16) -0.0358(3) 0.14382(6)
C7 C 0.03684(16) -0.0191(2) 0.11900(7)
C8 C -0.01466(19) -0.1329(3) 0.12118(8)
H5 H -0.0568 -0.1280 0.1057
H6 H -0.0308 -0.1335 0.1404
H7 H 0.0122 -0.2066 0.1188
C9 C -0.00741(16) 0.0953(3) 0.12364(6)
C10 C -0.07973(18) 0.1100(3) 0.12650(7)
H8 H -0.1151 0.0484 0.1255
C11 C -0.0913(2) 0.2349(3) 0.13127(8)
H9 H -0.1361 0.2702 0.1338
C12 C -0.02711(16) 0.2954(3) 0.13166(6)
C13 C -0.00770(16) 0.4299(3) 0.13657(7)
C14 C -0.07667(19) 0.4979(3) 0.14519(9)
H10 H -0.1193 0.4796 0.1307
H11 H -0.0679 0.5844 0.1456
H12 H -0.0851 0.4711 0.1646
C15 C 0.05540(17) 0.4481(3) 0.16170(7)
C16 C 0.09978(19) 0.5531(3) 0.16420(8)
H13 H 0.0922 0.6115 0.1491
C17 C 0.1535(2) 0.5724(3) 0.18796(8)
H14 H 0.1806 0.6446 0.1890
C18 C 0.1688(2) 0.4886(4) 0.21033(8)
C19 C 0.1261(2) 0.3855(4) 0.20997(8)
H15 H 0.1342 0.3297 0.2256
C20 C 0.0693(2) 0.3651(3) 0.18530(8)
H16 H 0.0407 0.2948 0.1849
C21 C 0.00970(17) 0.4878(3) 0.10716(7)
N1 N 0.07590(13) 0.4699(2) 0.09796(5)
H17 H 0.1118 0.4287 0.1076
C22 C 0.0776(2) 0.5277(3) 0.07057(7)
C23 C 0.0092(2) 0.5793(3) 0.06300(8)
H18 H -0.0066 0.6238 0.0457
C24 C 0.1489(2) 0.5384(3) 0.05770(7)
C25 C 0.1941(3) 0.6409(4) 0.07446(12)
H19 H 0.2123 0.6147 0.0945
H20 H 0.1635 0.7118 0.0750
H21 H 0.2350 0.6607 0.0644
C26 C 0.1263(3) 0.5744(4) 0.02435(9)
H22 H 0.0950 0.6451 0.0230
H23 H 0.1002 0.5077 0.0137
H24 H 0.1698 0.5925 0.0158
C27 C 0.1908(2) 0.4206(3) 0.05979(7)
C28 C 0.2621(2) 0.3931(4) 0.07034(8)
H25 H 0.2973 0.4480 0.0795
C29 C 0.2745(2) 0.2700(4) 0.06534(8)
H26 H 0.3193 0.2294 0.0702
C30 C 0.21035(19) 0.2193(3) 0.05222(7)
C31 C 0.19021(19) 0.0931(3) 0.03937(7)
C32 C 0.1727(2) 0.1007(4) 0.00512(7)
H27 H 0.2165 0.1234 -0.0028
H28 H 0.1350 0.1608 -0.0005
H29 H 0.1558 0.0224 -0.0028
C33 C 0.2593(2) 0.0086(4) 0.04757(10)
H30 H 0.2716 0.0027 0.0689
H31 H 0.3003 0.0425 0.0395
H32 H 0.2483 -0.0714 0.0393
C34 C 0.12624(18) 0.0385(3) 0.05190(7)
C35 C 0.07198(19) -0.0426(3) 0.03965(7)
H33 H 0.0637 -0.0699 0.0199
C36 C 0.03163(19) -0.0764(3) 0.06225(7)
H34 H -0.0081 -0.1303 0.0598
C37 C 0.05908(17) -0.0185(3) 0.08823(7)
N2 N 0.02397(13) 0.2093(2) 0.12638(5)
H35 H 0.0693 0.2248 0.1250
C38 C -0.0334(2) 0.5539(3) 0.08581(8)
H36 H -0.0819 0.5781 0.0861
N3 N 0.15805(14) 0.3119(2) 0.04864(5)
H37 H 0.1125 0.3034 0.0408
N4 N 0.11728(13) 0.0512(2) 0.08123(5)
H38 H 0.1446 0.0971 0.0939
O1 O 0.28234(14) -0.0966(2) 0.21246(5)
H39 H 0.3069 -0.1541 0.2078
O2 O 0.22376(17) 0.5043(3) 0.23444(6)
H40 H 0.2641 0.5017 0.2288
loop_
_geom_bond_atom_site_label_1
_geom_bond_atom_site_label_2
_geom_bond_site_symmetry_1
_geom_bond_site_symmetry_2
C1 H1 1_555 1_555
C2 C1 1_555 1_555
H2 C2 1_555 1_555
C3 C2 1_555 1_555
C4 C3 1_555 1_555
H3 C4 1_555 1_555
C5 C4 1_555 1_555
H4 C5 1_555 1_555
C6 C1 1_555 1_555
C7 C6 1_555 1_555
C8 C7 1_555 1_555
H5 C8 1_555 1_555
H6 C8 1_555 1_555
H7 C8 1_555 1_555
C9 C7 1_555 1_555
C10 C9 1_555 1_555
H8 C10 1_555 1_555
C11 C10 1_555 1_555
H9 C11 1_555 1_555
C12 C11 1_555 1_555
C13 C12 1_555 1_555
C14 C13 1_555 1_555
H10 C14 1_555 1_555
H11 C14 1_555 1_555
H12 C14 1_555 1_555
C15 C13 1_555 1_555
C16 C15 1_555 1_555
H13 C16 1_555 1_555
C17 C16 1_555 1_555
H14 C17 1_555 1_555
C18 C17 1_555 1_555
C19 C18 1_555 1_555
H15 C19 1_555 1_555
C20 C15 1_555 1_555
H16 C20 1_555 1_555
C21 C13 1_555 1_555
N1 C21 1_555 1_555
H17 N1 1_555 1_555
C22 N1 1_555 1_555
C23 C22 1_555 1_555
H18 C23 1_555 1_555
C24 C22 1_555 1_555
C25 C24 1_555 1_555
H19 C25 1_555 1_555
H20 C25 1_555 1_555
H21 C25 1_555 1_555
C26 C24 1_555 1_555
H22 C26 1_555 1_555
H23 C26 1_555 1_555
H24 C26 1_555 1_555
C27 C24 1_555 1_555
C28 C27 1_555 1_555
H25 C28 1_555 1_555
C29 C28 1_555 1_555
H26 C29 1_555 1_555
C30 C29 1_555 1_555
C31 C30 1_555 1_555
C32 C31 1_555 1_555
H27 C32 1_555 1_555
H28 C32 1_555 1_555
H29 C32 1_555 1_555
C33 C31 1_555 1_555
H30 C33 1_555 1_555
H31 C33 1_555 1_555
H32 C33 1_555 1_555
C34 C31 1_555 1_555
C35 C34 1_555 1_555
H33 C35 1_555 1_555
C36 C35 1_555 1_555
H34 C36 1_555 1_555
C37 C7 1_555 1_555
N2 C9 1_555 1_555
H35 N2 1_555 1_555
C38 C21 1_555 1_555
H36 C38 1_555 1_555
N3 C27 1_555 1_555
H37 N3 1_555 1_555
N4 C34 1_555 1_555
H38 N4 1_555 1_555
O1 C3 1_555 1_555
H39 O1 1_555 1_555
O2 C18 1_555 1_555
H40 O2 1_555 1_555
C5 C6 1_555 1_555
C12 N2 1_555 1_555
C19 C20 1_555 1_555
C23 C38 1_555 1_555
C30 N3 1_555 1_555
C36 C37 1_555 1_555
C37 N4 1_555 1_555

#END
