
#######################################################################
#
#                 Cambridge Crystallographic Data Centre
#                                CCDC 
#
#######################################################################
#
# If this CIF has been generated from an entry in the Cambridge 
# Structural Database, then it will include bibliographic, chemical, 
# crystal, experimental, refinement or atomic coordinate data resulting 
# from the CCDC's data processing and validation procedures.
#
#######################################################################

data_KITFAX
_chemical_formula_moiety         'C31 H26 Br2 O2'
_chemical_name_systematic        
4,4'-dibromo-3,3'-bis(4-methylphenyl)-2,2',3,3'-tetrahydro-1,1'-spirobi[indene]-7,7'-diol
_symmetry_cell_setting           monoclinic
_symmetry_space_group_name_H-M   'P 21'
_symmetry_Int_Tables_number      4
_space_group_name_Hall           'P 2yb'
loop_
_symmetry_equiv_pos_site_id
_symmetry_equiv_pos_as_xyz
1 x,y,z
2 -x,1/2+y,-z
_cell_length_a                   14.742(2)
_cell_length_b                   6.4661(9)
_cell_length_c                   14.719(2)
_cell_angle_alpha                90
_cell_angle_beta                 114.098(3)
_cell_angle_gamma                90
_cell_volume                     1280.78
_exptl_crystal_colour            colorless
_exptl_crystal_description       block
_cell_formula_units_Z            2
loop_
_atom_site_label
_atom_site_type_symbol
_atom_site_fract_x
_atom_site_fract_y
_atom_site_fract_z
Br1 Br 0.22949(5) 0.30951(10) 0.39579(5)
Br2 Br 0.77894(5) 0.63066(12) 1.10322(5)
O1 O 0.3781(3) 0.8377(8) 0.7845(3)
O2 O 0.5437(4) 0.8983(7) 0.6603(4)
H1 H 0.5881 0.9050 0.6385
C1 C 0.4725(5) 0.8126(10) 0.8532(4)
C2 C 0.6254(4) 0.6142(11) 0.9047(4)
C3 C 0.4447(4) 0.6009(10) 0.6412(4)
C4 C 0.5137(5) 0.9266(10) 0.9400(5)
H2 H 0.4767 1.0369 0.9510
C5 C 0.3696(5) 0.4681(10) 0.5829(4)
C6 C 0.4690(5) 0.7742(10) 0.6003(5)
C7 C 0.4998(5) 0.5155(8) 0.7456(5)
C8 C 0.7783(5) 0.4980(12) 0.8765(5)
C9 C 0.6622(5) 0.7204(10) 0.9954(4)
C10 C 0.2473(5) 0.2759(10) 0.6324(4)
C11 C 0.6014(4) 0.4232(10) 0.7580(5)
H3 H 0.5937 0.2753 0.7390
H4 H 0.6272 0.4974 0.7146
C12 C 0.5311(5) 0.6586(10) 0.8340(4)
C13 C 0.1980(5) 0.4506(12) 0.6447(5)
H5 H 0.2310 0.5804 0.6578
C14 C 0.3540(4) 0.2903(10) 0.6425(4)
H6 H 0.3747 0.1568 0.6224
C15 C 0.4134(5) 0.8189(12) 0.4991(5)
H7 H 0.4261 0.9417 0.4708
C16 C 0.3200(5) 0.5055(10) 0.4811(5)
C17 C 0.4263(5) 0.3481(10) 0.7513(4)
H8 H 0.3883 0.4027 0.7881
H9 H 0.4634 0.2241 0.7866
C18 C 0.6743(5) 0.4475(10) 0.8686(5)
H10 H 0.6763 0.3158 0.9050
C19 C 0.1977(5) 0.0853(12) 0.6130(5)
H11 H 0.2289 -0.0362 0.6033
C20 C 0.1007(5) 0.4380(14) 0.6382(5)
H12 H 0.0679 0.5597 0.6450
C21 C 0.6085(5) 0.8826(11) 1.0117(5)
H13 H 0.6361 0.9622 1.0710
C22 C 0.8058(6) 0.6959(12) 0.8679(6)
H14 H 0.7613 0.8058 0.8631
C23 C 0.8976(6) 0.7416(13) 0.8659(6)
H15 H 0.9150 0.8809 0.8601
C24 C 0.0522(6) 0.2503(14) 0.6220(6)
C25 C 0.3399(5) 0.6829(11) 0.4406(5)
H16 H 0.3029 0.7123 0.3720
C26 C 0.9351(6) 0.3828(14) 0.8806(7)
H17 H 0.9794 0.2724 0.8855
C27 C 0.8432(5) 0.3383(13) 0.8819(6)
H18 H 0.8250 0.1990 0.8864
C28 C 0.1007(6) 0.0784(14) 0.6083(6)
H19 H 0.0668 -0.0505 0.5951
C29 C 0.9634(5) 0.5820(14) 0.8724(6)
C30 C 1.0627(6) 0.631(2) 0.8675(8)
H20 H 1.0695 0.7814 0.8633
H21 H 1.0652 0.5655 0.8085
H22 H 1.1172 0.5786 0.9274
C31 C -0.0517(6) 0.2363(17) 0.6171(7)
H23 H -0.0816 0.3745 0.6063
H24 H -0.0494 0.1798 0.6798
H25 H -0.0918 0.1455 0.5620
H26 H 0.337(5) 0.908(11) 0.798(6)
loop_
_geom_bond_atom_site_label_1
_geom_bond_atom_site_label_2
_geom_bond_site_symmetry_1
_geom_bond_site_symmetry_2
Br1 C16 1_555 1_555
Br2 C9 1_555 1_555
O1 C1 1_555 1_555
O2 H1 1_555 1_555
C1 C4 1_555 1_555
C2 C9 1_555 1_555
C3 C5 1_555 1_555
C4 H2 1_555 1_555
C5 C14 1_555 1_555
C6 O2 1_555 1_555
C7 C3 1_555 1_555
C8 C18 1_555 1_555
C9 C21 1_555 1_555
C10 C13 1_555 1_555
C11 C7 1_555 1_555
H3 C11 1_555 1_555
H4 C11 1_555 1_555
C12 C1 1_555 1_555
C13 H5 1_555 1_555
C14 C10 1_555 1_555
H6 C14 1_555 1_555
C15 C6 1_555 1_555
H7 C15 1_555 1_555
C16 C5 1_555 1_555
C17 C7 1_555 1_555
H8 C17 1_555 1_555
H9 C17 1_555 1_555
C18 C2 1_555 1_555
H10 C18 1_555 1_555
C19 C10 1_555 1_555
H11 C19 1_555 1_555
C20 C13 1_555 1_555
H12 C20 1_555 1_555
C21 C4 1_555 1_555
H13 C21 1_555 1_555
C22 C8 1_555 1_555
H14 C22 1_555 1_555
C23 C22 1_555 1_555
H15 C23 1_555 1_555
C24 C20 1_555 1_555
C25 C15 1_555 1_555
H16 C25 1_555 1_555
C26 H17 1_555 1_555
C27 C8 1_555 1_555
H18 C27 1_555 1_555
C28 C19 1_555 1_555
H19 C28 1_555 1_555
C29 C23 1_555 1_555
C30 C29 1_555 1_555
H20 C30 1_555 1_555
H21 C30 1_555 1_555
H22 C30 1_555 1_555
C31 C24 1_555 1_555
H23 C31 1_555 1_555
H24 C31 1_555 1_555
H25 C31 1_555 1_555
H26 O1 1_555 1_555
C2 C12 1_555 1_555
C3 C6 1_555 1_555
C7 C12 1_555 1_555
C11 C18 1_555 1_555
C14 C17 1_555 1_555
C16 C25 1_555 1_555
C24 C28 1_555 1_555
C26 C27 1_555 1_555
C26 C29 1_555 1_555

#END
