
#######################################################################
#
#                 Cambridge Crystallographic Data Centre
#                                CCDC 
#
#######################################################################
#
# If this CIF has been generated from an entry in the Cambridge 
# Structural Database, then it will include bibliographic, chemical, 
# crystal, experimental, refinement or atomic coordinate data resulting 
# from the CCDC's data processing and validation procedures.
#
#######################################################################

data_KITFAW
_chemical_formula_moiety         'C42 H48 N4 O2,2(C1 H4 O1)'
_chemical_name_systematic        
"4,4'-(15,15,20,20-Tetraethyl-5,10-dimethyl-5,10,15,20,22,24-hexahydroporphyrin-5,10-diyl)diphenol methanol solvate"
_symmetry_cell_setting           monoclinic
_symmetry_space_group_name_H-M   'P 21/c'
_symmetry_Int_Tables_number      14
_space_group_name_Hall           '-P 2ybc'
loop_
_symmetry_equiv_pos_site_id
_symmetry_equiv_pos_as_xyz
1 x,y,z
2 -x,1/2+y,1/2-z
3 -x,-y,-z
4 x,1/2-y,1/2+z
_cell_length_a                   9.762(6)
_cell_length_b                   19.792(12)
_cell_length_c                   22.251(12)
_cell_angle_alpha                90
_cell_angle_beta                 104.21(2)
_cell_angle_gamma                90
_cell_volume                     4167.56
_cell_formula_units_Z            4
loop_
_atom_site_label
_atom_site_type_symbol
_atom_site_fract_x
_atom_site_fract_y
_atom_site_fract_z
C1 C 0.0143(2) 0.87948(11) 0.45548(9)
H1 H -0.0166 0.9056 0.4843
C2 C 0.0734(2) 0.91124(11) 0.41246(9)
H2 H 0.0822 0.9580 0.4127
C3 C 0.1192(2) 0.87323(11) 0.36919(9)
C4 C 0.1041(2) 0.80382(11) 0.36900(9)
H3 H 0.1340 0.7780 0.3397
C5 C 0.0446(2) 0.77264(11) 0.41216(9)
H4 H 0.0345 0.7259 0.4112
C6 C -0.0003(2) 0.80959(10) 0.45696(8)
C7 C -0.0741(2) 0.77552(10) 0.50262(8)
C8 C -0.2343(2) 0.77167(12) 0.47008(10)
H5 H -0.2847 0.7529 0.4981
H6 H -0.2478 0.7435 0.4339
H7 H -0.2694 0.8162 0.4581
C9 C -0.0561(2) 0.81781(10) 0.56109(8)
C10 C -0.1529(2) 0.84912(12) 0.58653(10)
H8 H -0.2506 0.8469 0.5718
C11 C -0.0785(2) 0.88570(11) 0.63942(10)
H9 H -0.1193 0.9115 0.6653
C12 C 0.0628(2) 0.87673(10) 0.64590(9)
C13 C 0.4231(2) 0.96389(11) 0.69596(10)
H10 H 0.4568 0.9460 0.7355
C14 C 0.5100(3) 1.00464(11) 0.67143(11)
H11 H 0.6017 1.0135 0.6940
C15 C 0.4601(3) 1.03228(12) 0.61304(11)
C16 C 0.3240(3) 1.01849(12) 0.57937(11)
H12 H 0.2904 1.0371 0.5401
C17 C 0.2378(2) 0.97696(10) 0.60417(10)
H13 H 0.1466 0.9678 0.5811
C18 C 0.2849(2) 0.94875(9) 0.66273(9)
C19 C 0.1904(2) 0.90452(10) 0.69346(8)
C20 C 0.1360(3) 0.94897(11) 0.73995(10)
H14 H 0.0800 0.9219 0.7607
H15 H 0.0793 0.9851 0.7181
H16 H 0.2150 0.9675 0.7700
C21 C 0.2808(2) 0.84815(10) 0.72901(8)
C22 C 0.2969(3) 0.82359(11) 0.78793(9)
H17 H 0.2455 0.8372 0.8159
C23 C 0.4049(3) 0.77407(12) 0.79898(9)
H18 H 0.4375 0.7501 0.8356
C24 C 0.4531(2) 0.76764(10) 0.74629(8)
C25 C 0.5762(2) 0.72967(10) 0.73231(9)
C26 C 0.6975(2) 0.78059(12) 0.73261(11)
H19 H 0.7764 0.7559 0.7240
H20 H 0.6650 0.8125 0.6990
C27 C 0.7507(3) 0.82016(16) 0.79214(14)
H21 H 0.6734 0.8440 0.8020
H22 H 0.8212 0.8519 0.7869
H23 H 0.7911 0.7896 0.8253
C28 C 0.6226(3) 0.67363(11) 0.78228(10)
H24 H 0.6496 0.6951 0.8227
H25 H 0.5416 0.6451 0.7819
C29 C 0.7433(3) 0.62912(14) 0.77486(13)
H26 H 0.7170 0.6062 0.7357
H27 H 0.7641 0.5965 0.8078
H28 H 0.8253 0.6564 0.7764
C30 C 0.5346(2) 0.69741(10) 0.66846(9)
C31 C 0.6037(2) 0.69299(12) 0.62187(11)
H29 H 0.6895 0.7134 0.6218
C32 C 0.5225(3) 0.65205(12) 0.57377(11)
H30 H 0.5461 0.6409 0.5370
C33 C 0.4034(2) 0.63171(11) 0.59084(9)
C34 C 0.2837(2) 0.58463(11) 0.56049(9)
C35 C 0.2838(3) 0.52322(12) 0.60432(13)
H31 H 0.2651 0.5396 0.6426
H32 H 0.2068 0.4933 0.5850
C36 C 0.4201(4) 0.48230(17) 0.62019(16)
H33 H 0.4366 0.4630 0.5830
H34 H 0.4121 0.4468 0.6486
H35 H 0.4976 0.5113 0.6390
C37 C 0.3048(3) 0.55745(16) 0.49816(11)
H36 H 0.4042 0.5467 0.5040
H37 H 0.2530 0.5153 0.4893
C38 C 0.2635(4) 0.5998(2) 0.44383(14)
H38 H 0.1637 0.6082 0.4350
H39 H 0.2857 0.5774 0.4091
H40 H 0.3136 0.6419 0.4513
C39 C 0.1409(2) 0.61961(11) 0.54874(9)
C40 C 0.0088(3) 0.59273(12) 0.54027(11)
H41 H -0.0117 0.5476 0.5460
C41 C -0.0916(3) 0.64465(12) 0.52143(11)
H42 H -0.1892 0.6397 0.5124
C42 C -0.0199(2) 0.70376(10) 0.51871(8)
N1 N 0.07572(16) 0.83445(8) 0.59808(7)
H43 H 0.1547 0.8204 0.5921
N2 N 0.37448(17) 0.81269(8) 0.70401(7)
H44 H 0.3831 0.8179 0.6667
N3 N 0.41268(17) 0.65981(8) 0.64874(7)
H45 H 0.3503 0.6545 0.6697
N4 N 0.12184(17) 0.68778(8) 0.53583(7)
H46 H 0.1893 0.7164 0.5382
O1 O 0.18197(17) 0.90722(8) 0.32865(7)
H47 H 0.1853 0.8824 0.2995
O2 O 0.5425(2) 1.07432(11) 0.58726(9)
H48 H 0.6228 1.0756 0.6097
C43 C 0.4006(3) 0.84144(14) 0.52325(12)
H49 H 0.4774 0.8693 0.5450
H50 H 0.3234 0.8696 0.5025
H51 H 0.4312 0.8142 0.4933
O3 O 0.35567(15) 0.79886(7) 0.56621(6)
H52 H 0.4156 0.7697 0.5787
C44 C 0.0492(3) 0.68388(16) 0.68963(13)
H53 H 0.0044 0.7148 0.7120
H54 H -0.0057 0.6432 0.6811
H55 H 0.0560 0.7042 0.6513
O4 O 0.18785(19) 0.66812(9) 0.72610(7)
H56 H 0.2293 0.7032 0.7393
loop_
_geom_bond_atom_site_label_1
_geom_bond_atom_site_label_2
_geom_bond_site_symmetry_1
_geom_bond_site_symmetry_2
C1 H1 1_555 1_555
C2 C1 1_555 1_555
H2 C2 1_555 1_555
C3 C2 1_555 1_555
C4 C3 1_555 1_555
H3 C4 1_555 1_555
C5 C4 1_555 1_555
H4 C5 1_555 1_555
C6 C1 1_555 1_555
C7 C6 1_555 1_555
C8 C7 1_555 1_555
H5 C8 1_555 1_555
H6 C8 1_555 1_555
H7 C8 1_555 1_555
C9 C7 1_555 1_555
C10 C9 1_555 1_555
H8 C10 1_555 1_555
C11 C10 1_555 1_555
H9 C11 1_555 1_555
C12 C11 1_555 1_555
C13 H10 1_555 1_555
C14 C13 1_555 1_555
H11 C14 1_555 1_555
C15 C14 1_555 1_555
C16 C15 1_555 1_555
H12 C16 1_555 1_555
C17 C16 1_555 1_555
H13 C17 1_555 1_555
C18 C13 1_555 1_555
C19 C12 1_555 1_555
C20 C19 1_555 1_555
H14 C20 1_555 1_555
H15 C20 1_555 1_555
H16 C20 1_555 1_555
C21 C19 1_555 1_555
C22 C21 1_555 1_555
H17 C22 1_555 1_555
C23 C22 1_555 1_555
H18 C23 1_555 1_555
C24 C23 1_555 1_555
C25 C24 1_555 1_555
C26 C25 1_555 1_555
H19 C26 1_555 1_555
H20 C26 1_555 1_555
C27 C26 1_555 1_555
H21 C27 1_555 1_555
H22 C27 1_555 1_555
H23 C27 1_555 1_555
C28 C25 1_555 1_555
H24 C28 1_555 1_555
H25 C28 1_555 1_555
C29 C28 1_555 1_555
H26 C29 1_555 1_555
H27 C29 1_555 1_555
H28 C29 1_555 1_555
C30 C25 1_555 1_555
C31 C30 1_555 1_555
H29 C31 1_555 1_555
C32 C31 1_555 1_555
H30 C32 1_555 1_555
C33 C32 1_555 1_555
C34 C33 1_555 1_555
C35 C34 1_555 1_555
H31 C35 1_555 1_555
H32 C35 1_555 1_555
C36 C35 1_555 1_555
H33 C36 1_555 1_555
H34 C36 1_555 1_555
H35 C36 1_555 1_555
C37 C34 1_555 1_555
H36 C37 1_555 1_555
H37 C37 1_555 1_555
C38 C37 1_555 1_555
H38 C38 1_555 1_555
H39 C38 1_555 1_555
H40 C38 1_555 1_555
C39 C34 1_555 1_555
C40 C39 1_555 1_555
H41 C40 1_555 1_555
C41 C40 1_555 1_555
H42 C41 1_555 1_555
C42 C7 1_555 1_555
N1 C9 1_555 1_555
H43 N1 1_555 1_555
N2 C21 1_555 1_555
H44 N2 1_555 1_555
N3 C30 1_555 1_555
H45 N3 1_555 1_555
N4 C39 1_555 1_555
H46 N4 1_555 1_555
O1 C3 1_555 1_555
H47 O1 1_555 1_555
O2 C15 1_555 1_555
H48 O2 1_555 1_555
C43 H49 1_555 1_555
H50 C43 1_555 1_555
H51 C43 1_555 1_555
O3 C43 1_555 1_555
H52 O3 1_555 1_555
C44 H53 1_555 1_555
H54 C44 1_555 1_555
H55 C44 1_555 1_555
O4 C44 1_555 1_555
H56 O4 1_555 1_555
C5 C6 1_555 1_555
C12 N1 1_555 1_555
C17 C18 1_555 1_555
C18 C19 1_555 1_555
C24 N2 1_555 1_555
C33 N3 1_555 1_555
C41 C42 1_555 1_555
C42 N4 1_555 1_555

#END
