
#######################################################################
#
#                 Cambridge Crystallographic Data Centre
#                                CCDC 
#
#######################################################################
#
# If this CIF has been generated from an entry in the Cambridge 
# Structural Database, then it will include bibliographic, chemical, 
# crystal, experimental, refinement or atomic coordinate data resulting 
# from the CCDC's data processing and validation procedures.
#
#######################################################################

data_KITLUV
_chemical_formula_moiety         'C10 H16 N1 O1 1+,C16 H11 O3 1-,0.5(H2 O1)'
_chemical_name_systematic        
'(-)-Ephedrinium (+-)-(9-anthryl)hydroxyacetate hemihydrate'
_symmetry_cell_setting           monoclinic
_symmetry_space_group_name_H-M   'P 21'
_symmetry_Int_Tables_number      4
_space_group_name_Hall           'P 2yb'
loop_
_symmetry_equiv_pos_site_id
_symmetry_equiv_pos_as_xyz
1 x,y,z
2 -x,1/2+y,-z
_cell_length_a                   9.484(1)
_cell_length_b                   21.915(4)
_cell_length_c                   10.988(2)
_cell_angle_alpha                90
_cell_angle_beta                 100.87(2)
_cell_angle_gamma                90
_cell_volume                     2242.79
_exptl_crystal_colour            'light yellow'
_cell_formula_units_Z            4
_exptl_crystal_recrystallization_method ethanol/water
loop_
_atom_site_label
_atom_site_type_symbol
_atom_site_fract_x
_atom_site_fract_y
_atom_site_fract_z
N1 N 1.1011(2) 0.56342(10) 0.50891(18)
H1 H 1.0364 0.5393 0.5357
H2 H 1.1889 0.5500 0.5444
O3 O 0.8248(2) 0.55058(12) 0.33396(18)
H3 H 0.8046 0.5652 0.3972
C17 C 1.0837(3) 0.62643(13) 0.5536(2)
H15 H 1.1352 0.6544 0.5109
H16 H 1.1209 0.6286 0.6411
H17 H 0.9837 0.6371 0.5379
C18 C 1.0999(4) 0.48797(16) 0.3471(3)
H18 H 1.1862 0.4729 0.3982
H19 H 1.1045 0.4819 0.2614
H20 H 1.0187 0.4664 0.3662
C19 C 1.0843(3) 0.55550(13) 0.3716(2)
H21 H 1.1631 0.5772 0.3441
C20 C 0.9427(2) 0.58225(13) 0.3033(2)
H22 H 0.9372 0.6250 0.3281
C21 C 0.9331(3) 0.57989(12) 0.1642(2)
C22 C 0.8167(3) 0.55700(14) 0.0861(3)
H23 H 0.7400 0.5417 0.1184
C23 C 0.8106(4) 0.55612(15) -0.0405(3)
H24 H 0.7301 0.5401 -0.0921
C24 C 0.9204(4) 0.57824(16) -0.0903(3)
H25 H 0.9166 0.5771 -0.1755
C25 C 1.0366(4) 0.60228(17) -0.0131(3)
H26 H 1.1121 0.6182 -0.0463
C26 C 1.0439(3) 0.60334(15) 0.1132(3)
H27 H 1.1239 0.6200 0.1644
O1 O 0.92645(18) 0.49201(9) 0.62341(17)
O2 O 1.12248(17) 0.47048(8) 0.76334(17)
O4 O 0.77786(17) 0.39777(8) 0.69406(19)
H4 H 0.7328 0.4292 0.6729
C1 C 0.9518(3) 0.35833(15) 1.0227(3)
H5 H 0.9059 0.3959 1.0086
C2 C 0.9605(3) 0.33061(18) 1.1346(3)
H6 H 0.9190 0.3494 1.1952
C3 C 1.0299(4) 0.27483(19) 1.1607(3)
H7 H 1.0315 0.2560 1.2368
C4 C 1.0940(4) 0.24849(15) 1.0764(3)
H8 H 1.1441 0.2123 1.0965
C5 C 1.1973(3) 0.23822(14) 0.6548(3)
H9 H 1.2532 0.2036 0.6763
C6 C 1.1786(3) 0.25934(16) 0.5380(3)
H10 H 1.2222 0.2398 0.4796
C7 C 1.0926(3) 0.31117(15) 0.5047(3)
H11 H 1.0780 0.3250 0.4233
C8 C 1.0306(3) 0.34139(13) 0.5880(3)
H12 H 0.9733 0.3752 0.5627
C9 C 0.9946(2) 0.35446(12) 0.8046(2)
C10 C 1.1493(3) 0.24580(13) 0.8664(3)
H13 H 1.2031 0.2106 0.8877
C11 C 1.1335(3) 0.26768(12) 0.7461(3)
C12 C 1.0515(3) 0.32242(12) 0.7133(2)
C13 C 1.0121(3) 0.33054(13) 0.9263(3)
C14 C 1.0881(3) 0.27431(13) 0.9553(3)
C15 C 0.9115(2) 0.41271(11) 0.7696(2)
H14 H 0.8903 0.4299 0.8464
C16 C 0.9939(3) 0.46144(12) 0.7127(2)
O5 O 0.59880(18) 0.50146(8) 0.68428(16)
O6 O 0.37710(17) 0.53083(9) 0.60600(16)
O8 O 0.71821(16) 0.58008(9) 0.54696(17)
H29 H 0.7527 0.5514 0.5905
C27 C 0.4635(3) 0.63015(13) 0.2710(2)
H32 H 0.5137 0.5935 0.2759
C28 C 0.4119(3) 0.65462(15) 0.1580(3)
H33 H 0.4272 0.6344 0.0872
C29 C 0.3348(4) 0.71066(16) 0.1460(3)
H34 H 0.3006 0.7271 0.0680
C30 C 0.3119(3) 0.73955(15) 0.2484(3)
H35 H 0.2600 0.7758 0.2402
C31 C 0.3716(4) 0.75699(16) 0.6991(4)
H36 H 0.3143 0.7917 0.6903
C32 C 0.4308(5) 0.73673(19) 0.8144(4)
H37 H 0.4099 0.7568 0.8834
C33 C 0.5234(4) 0.68562(18) 0.8308(3)
H38 H 0.5686 0.6740 0.9100
C34 C 0.5461(3) 0.65385(14) 0.7312(3)
H39 H 0.6050 0.6196 0.7433
C35 C 0.4963(3) 0.63619(11) 0.5024(3)
C36 C 0.3409(3) 0.74610(14) 0.4734(3)
H40 H 0.2853 0.7814 0.4639
C37 C 0.3965(3) 0.72556(13) 0.5920(3)
C38 C 0.4822(3) 0.67112(13) 0.6068(3)
C39 C 0.4425(2) 0.65926(12) 0.3827(2)
C40 C 0.3650(3) 0.71609(12) 0.3691(3)
C41 C 0.5657(2) 0.57401(12) 0.5184(2)
H41 H 0.5425 0.5537 0.4376
C42 C 0.5105(3) 0.53232(12) 0.6112(2)
O7 O 0.4729(2) 0.50655(9) 1.00558(19)
H28 H 0.4225 0.5296 0.9569
N2 N 0.3981(2) 0.42558(9) 0.80132(17)
H30 H 0.3072 0.4394 0.7886
H31 H 0.4552 0.4573 0.7918
C43 C 0.4097(3) 0.37945(13) 0.7048(2)
H42 H 0.5090 0.3707 0.7057
H43 H 0.3660 0.3951 0.6250
H44 H 0.3614 0.3427 0.7214
C44 C 0.5956(3) 0.38748(15) 0.9619(2)
H45 H 0.6158 0.3570 0.9047
H46 H 0.6199 0.3720 1.0449
H47 H 0.6513 0.4234 0.9544
C45 C 0.4376(3) 0.40333(12) 0.9328(2)
H48 H 0.3821 0.3664 0.9412
C46 C 0.3960(3) 0.45251(12) 1.0186(2)
H49 H 0.2930 0.4608 0.9948
C47 C 0.4284(3) 0.43079(13) 1.1519(2)
C48 C 0.5460(3) 0.45138(14) 1.2341(3)
H50 H 0.6050 0.4807 1.2084
C49 C 0.5786(4) 0.42957(17) 1.3541(3)
H51 H 0.6592 0.4439 1.4080
C50 C 0.4931(5) 0.3874(2) 1.3928(3)
H52 H 0.5143 0.3729 1.4738
C51 C 0.3747(4) 0.36596(19) 1.3125(4)
H53 H 0.3162 0.3367 1.3389
C52 C 0.3422(3) 0.38806(16) 1.1916(3)
H54 H 0.2615 0.3737 1.1377
O9 O 1.2881(3) 0.57261(11) 0.8324(2)
H55 H 1.223(4) 0.5467(17) 0.810(4)
H56 H 1.341(3) 0.5789(19) 0.781(3)
loop_
_geom_bond_atom_site_label_1
_geom_bond_atom_site_label_2
_geom_bond_site_symmetry_1
_geom_bond_site_symmetry_2
N1 H1 1_555 1_555
H2 N1 1_555 1_555
O1 C16 1_555 1_555
O2 C16 1_555 1_555
O3 H3 1_555 1_555
O4 H4 1_555 1_555
C1 H5 1_555 1_555
C2 C1 1_555 1_555
H6 C2 1_555 1_555
C3 C2 1_555 1_555
H7 C3 1_555 1_555
C4 C3 1_555 1_555
H8 C4 1_555 1_555
C5 H9 1_555 1_555
C6 C5 1_555 1_555
H10 C6 1_555 1_555
C7 C6 1_555 1_555
H11 C7 1_555 1_555
C8 C7 1_555 1_555
H12 C8 1_555 1_555
C9 C12 1_555 1_555
C10 H13 1_555 1_555
C11 C5 1_555 1_555
C12 C8 1_555 1_555
C13 C1 1_555 1_555
C14 C4 1_555 1_555
C15 O4 1_555 1_555
H14 C15 1_555 1_555
C16 C15 1_555 1_555
C17 N1 1_555 1_555
H15 C17 1_555 1_555
H16 C17 1_555 1_555
H17 C17 1_555 1_555
C18 H18 1_555 1_555
H19 C18 1_555 1_555
H20 C18 1_555 1_555
C19 N1 1_555 1_555
H21 C19 1_555 1_555
C20 O3 1_555 1_555
H22 C20 1_555 1_555
C21 C20 1_555 1_555
C22 C21 1_555 1_555
H23 C22 1_555 1_555
C23 C22 1_555 1_555
H24 C23 1_555 1_555
C24 C23 1_555 1_555
H25 C24 1_555 1_555
C25 C24 1_555 1_555
H26 C25 1_555 1_555
C26 C21 1_555 1_555
H27 C26 1_555 1_555
O5 C42 1_555 1_555
O6 C42 1_555 1_555
O7 H28 1_555 1_555
O8 H29 1_555 1_555
N2 H30 1_555 1_555
H31 N2 1_555 1_555
C27 H32 1_555 1_555
C28 C27 1_555 1_555
H33 C28 1_555 1_555
C29 C28 1_555 1_555
H34 C29 1_555 1_555
C30 C29 1_555 1_555
H35 C30 1_555 1_555
C31 H36 1_555 1_555
C32 C31 1_555 1_555
H37 C32 1_555 1_555
C33 C32 1_555 1_555
H38 C33 1_555 1_555
C34 C33 1_555 1_555
H39 C34 1_555 1_555
C35 C38 1_555 1_555
C36 H40 1_555 1_555
C37 C31 1_555 1_555
C38 C34 1_555 1_555
C39 C27 1_555 1_555
C40 C30 1_555 1_555
C41 O8 1_555 1_555
H41 C41 1_555 1_555
C42 C41 1_555 1_555
C43 N2 1_555 1_555
H42 C43 1_555 1_555
H43 C43 1_555 1_555
H44 C43 1_555 1_555
C44 H45 1_555 1_555
H46 C44 1_555 1_555
H47 C44 1_555 1_555
C45 N2 1_555 1_555
H48 C45 1_555 1_555
C46 O7 1_555 1_555
H49 C46 1_555 1_555
C47 C46 1_555 1_555
C48 C47 1_555 1_555
H50 C48 1_555 1_555
C49 C48 1_555 1_555
H51 C49 1_555 1_555
C50 C49 1_555 1_555
H52 C50 1_555 1_555
C51 C50 1_555 1_555
H53 C51 1_555 1_555
C52 C47 1_555 1_555
H54 C52 1_555 1_555
O9 H55 1_555 1_555
H56 O9 1_555 1_555
C9 C13 1_555 1_555
C9 C15 1_555 1_555
C10 C11 1_555 1_555
C10 C14 1_555 1_555
C11 C12 1_555 1_555
C13 C14 1_555 1_555
C18 C19 1_555 1_555
C19 C20 1_555 1_555
C25 C26 1_555 1_555
C35 C39 1_555 1_555
C35 C41 1_555 1_555
C36 C37 1_555 1_555
C36 C40 1_555 1_555
C37 C38 1_555 1_555
C39 C40 1_555 1_555
C44 C45 1_555 1_555
C45 C46 1_555 1_555
C51 C52 1_555 1_555

#END
