
#######################################################################
#
#                 Cambridge Crystallographic Data Centre
#                                CCDC 
#
#######################################################################
#
# If this CIF has been generated from an entry in the Cambridge 
# Structural Database, then it will include bibliographic, chemical, 
# crystal, experimental, refinement or atomic coordinate data resulting 
# from the CCDC's data processing and validation procedures.
#
#######################################################################

data_KITMUX
_chemical_formula_moiety         'C15 H18 N2 O1,0.5(C6 H14)'
_chemical_name_systematic        
'1-Amino-13-ethylidene-11-methyl-6-azatricyclo[7.3.1.0^2,7^]trideca-2(7),3,10-trien-5-one n-hexane solvate'
_symmetry_cell_setting           monoclinic
_symmetry_space_group_name_H-M   'P 21'
_symmetry_Int_Tables_number      4
_space_group_name_Hall           'P 2yb'
loop_
_symmetry_equiv_pos_site_id
_symmetry_equiv_pos_as_xyz
1 x,y,z
2 -x,1/2+y,-z
_cell_length_a                   8.0666(6)
_cell_length_b                   16.2940(12)
_cell_length_c                   12.7096(10)
_cell_angle_alpha                90
_cell_angle_beta                 94.054(4)
_cell_angle_gamma                90
_cell_volume                     1666.33
_exptl_crystal_colour            colorless
_exptl_crystal_description       column
_cell_formula_units_Z            4
loop_
_atom_site_label
_atom_site_type_symbol
_atom_site_fract_x
_atom_site_fract_y
_atom_site_fract_z
C1 C 0.6789(2) 0.50871(15) 0.70988(15)
H1 H 0.7575 0.4735 0.6756
H2 H 0.7276 0.5634 0.7214
H3 H 0.5757 0.5133 0.6647
C2 C 0.64201(17) 0.47206(9) 0.81368(12)
H4 H 0.7292 0.4741 0.8679
C3 C 0.50132(15) 0.43691(7) 0.83879(9)
C4 C 0.34630(15) 0.42581(7) 0.76621(9)
H5 H 0.3599 0.4566 0.6993
C5 C 0.32518(16) 0.33394(7) 0.74045(9)
H6 H 0.2122 0.3240 0.7073
H7 H 0.4064 0.3175 0.6895
C6 C 0.35129(14) 0.28298(7) 0.83877(9)
N1 N 0.30418(13) 0.20244(6) 0.82881(8)
H8 H 0.2608 0.1863 0.7668
C7 C 0.31907(14) 0.14467(7) 0.90780(9)
O1 O 0.27075(12) 0.07202(5) 0.88893(7)
C8 C 0.05360(18) 0.51633(10) 0.96811(12)
H9 H -0.0296 0.5322 0.9119
H10 H 0.0930 0.5653 1.0070
H11 H 0.0035 0.4782 1.0164
C9 C 0.19732(15) 0.47524(7) 0.92066(10)
C10 C 0.34345(15) 0.45450(7) 0.99619(9)
H12 H 0.3027 0.4250 1.0573
H13 H 0.3956 0.5062 1.0227
C11 C 0.47698(15) 0.40139(7) 0.94770(9)
C12 C 0.19799(15) 0.45988(7) 0.81784(10)
H14 H 0.0997 0.4710 0.7745
C13 C 0.38978(16) 0.17410(7) 1.00708(9)
H15 H 0.4042 0.1377 1.0654
C14 C 0.43694(15) 0.25473(7) 1.01844(9)
H16 H 0.4830 0.2730 1.0852
C15 C 0.41927(14) 0.31208(7) 0.93369(9)
N2 N 0.62229(14) 0.40222(7) 1.02355(9)
H17 H 0.6601 0.4552 1.0343
H18 H 0.7179 0.3739 0.9948
O2 O 1.15621(13) 1.15703(5) 0.63849(7)
C16 C 1.11495(15) 1.08402(7) 0.61557(9)
N3 N 1.12658(13) 1.02412(6) 0.69194(8)
H19 H 1.1626 1.0389 0.7561
C17 C 1.08629(14) 0.94320(6) 0.67553(9)
C18 C 1.10611(16) 0.88814(7) 0.77010(9)
H20 H 1.0594 0.9154 0.8310
H21 H 1.2257 0.8780 0.7883
C19 C 1.01633(16) 0.80561(7) 0.74780(9)
H22 H 1.0529 0.7651 0.8038
C20 C 0.82961(17) 0.81724(9) 0.74655(10)
H23 H 0.7811 0.8207 0.8124
C21 C 0.72926(16) 0.82289(8) 0.65890(11)
C22 C 0.54481(19) 0.83543(13) 0.66074(16)
H24 H 0.5143 0.8369 0.7340
H25 H 0.4863 0.7901 0.6234
H26 H 0.5136 0.8874 0.6260
C23 C 1.06485(15) 0.77507(7) 0.64250(9)
C24 C 0.98533(14) 0.82722(7) 0.55289(9)
C25 C 1.02970(14) 0.91703(6) 0.57647(9)
C26 C 1.05334(16) 1.05743(7) 0.51294(9)
H27 H 1.0410 1.0958 0.4567
C27 C 1.01217(15) 0.97690(7) 0.49563(9)
H28 H 0.9704 0.9606 0.4271
N4 N 1.03359(14) 0.80816(6) 0.44692(8)
C28 C 0.79476(15) 0.81653(8) 0.55145(10)
H29 H 0.7407 0.8590 0.5051
H30 H 0.7643 0.7622 0.5209
C29 C 1.17094(17) 0.71360(7) 0.62833(11)
H31 H 1.1943 0.7020 0.5576
C30 C 1.2572(2) 0.66092(9) 0.71279(14)
H32 H 1.2154 0.6745 0.7812
H33 H 1.3772 0.6711 0.7154
H34 H 1.2352 0.6029 0.6968
H35 H 0.9925 0.7588 0.4241
H36 H 1.1463 0.8056 0.4441
C31 C 0.9249(2) 0.25437(11) 0.93946(13)
H37 H 0.8362 0.2505 0.9881
H38 H 0.9824 0.3070 0.9497
H39 H 1.0041 0.2094 0.9534
C32 C 0.8501(2) 0.24844(9) 0.82649(12)
H40 H 0.7639 0.2913 0.8143
H41 H 0.9379 0.2587 0.7774
C33 C 0.77368(18) 0.16513(9) 0.80369(11)
H42 H 0.8611 0.1228 0.8152
H43 H 0.6886 0.1547 0.8545
C34 C 0.6953(2) 0.15624(10) 0.69489(14)
H44 H 0.7813 0.1652 0.6442
H45 H 0.6104 0.1997 0.6828
C35 C 0.6136(3) 0.07320(12) 0.67172(16)
H46 H 0.5231 0.0649 0.7194
H47 H 0.6966 0.0291 0.6858
C36 C 0.5409(3) 0.06728(17) 0.55453(18)
H48 H 0.4686 0.1146 0.5380
H49 H 0.4764 0.0165 0.5447
H50 H 0.6321 0.0670 0.5076
C37? C 0.6662(8) 0.2094(4) 0.6454(5)
loop_
_geom_bond_atom_site_label_1
_geom_bond_atom_site_label_2
_geom_bond_site_symmetry_1
_geom_bond_site_symmetry_2
C1 H1 1_555 1_555
H2 C1 1_555 1_555
H3 C1 1_555 1_555
C2 C1 1_555 1_555
H4 C2 1_555 1_555
C3 C2 1_555 1_555
C4 C3 1_555 1_555
H5 C4 1_555 1_555
C5 C4 1_555 1_555
H6 C5 1_555 1_555
H7 C5 1_555 1_555
C6 C5 1_555 1_555
N1 C6 1_555 1_555
H8 N1 1_555 1_555
C7 N1 1_555 1_555
O1 C7 1_555 1_555
C8 H9 1_555 1_555
H10 C8 1_555 1_555
H11 C8 1_555 1_555
C9 C8 1_555 1_555
C10 C9 1_555 1_555
H12 C10 1_555 1_555
H13 C10 1_555 1_555
C11 C3 1_555 1_555
C12 C4 1_555 1_555
H14 C12 1_555 1_555
C13 C7 1_555 1_555
H15 C13 1_555 1_555
C14 C13 1_555 1_555
H16 C14 1_555 1_555
C15 C6 1_555 1_555
N2 C11 1_555 1_555
H17 N2 1_555 1_555
H18 N2 1_555 1_555
O2 C16 1_555 1_555
C16 N3 1_555 1_555
N3 H19 1_555 1_555
C17 N3 1_555 1_555
C18 C17 1_555 1_555
H20 C18 1_555 1_555
H21 C18 1_555 1_555
C19 C18 1_555 1_555
H22 C19 1_555 1_555
C20 C19 1_555 1_555
H23 C20 1_555 1_555
C21 C20 1_555 1_555
C22 C21 1_555 1_555
H24 C22 1_555 1_555
H25 C22 1_555 1_555
H26 C22 1_555 1_555
C23 C19 1_555 1_555
C24 C23 1_555 1_555
C25 C17 1_555 1_555
C26 C16 1_555 1_555
H27 C26 1_555 1_555
C27 C25 1_555 1_555
H28 C27 1_555 1_555
N4 C24 1_555 1_555
C28 C21 1_555 1_555
H29 C28 1_555 1_555
H30 C28 1_555 1_555
C29 C23 1_555 1_555
H31 C29 1_555 1_555
C30 C29 1_555 1_555
H32 C30 1_555 1_555
H33 C30 1_555 1_555
H34 C30 1_555 1_555
H35 N4 1_555 1_555
H36 N4 1_555 1_555
C31 H37 1_555 1_555
H38 C31 1_555 1_555
H39 C31 1_555 1_555
C32 C31 1_555 1_555
H40 C32 1_555 1_555
H41 C32 1_555 1_555
C33 C32 1_555 1_555
H42 C33 1_555 1_555
H43 C33 1_555 1_555
C34 C33 1_555 1_555
H44 C34 1_555 1_555
H45 C34 1_555 1_555
C35 C34 1_555 1_555
H46 C35 1_555 1_555
H47 C35 1_555 1_555
C36 C35 1_555 1_555
H48 C36 1_555 1_555
H49 C36 1_555 1_555
H50 C36 1_555 1_555
C9 C12 1_555 1_555
C10 C11 1_555 1_555
C11 C15 1_555 1_555
C14 C15 1_555 1_555
C24 C25 1_555 1_555
C24 C28 1_555 1_555
C26 C27 1_555 1_555

#END
