
#######################################################################
#
#                 Cambridge Crystallographic Data Centre
#                                CCDC 
#
#######################################################################
#
# If this CIF has been generated from an entry in the Cambridge 
# Structural Database, then it will include bibliographic, chemical, 
# crystal, experimental, refinement or atomic coordinate data resulting 
# from the CCDC's data processing and validation procedures.
#
#######################################################################

data_KITMIL
_chemical_formula_moiety         'C15 H18 N2 O1,0.76(H2 O1)'
_chemical_name_systematic        
'1-amino-13-ethylidene-11-methyl-6-azatricyclo[7.3.1.0^2,7^]trideca-2(7),3,10-trien-5-one hydrate'
_symmetry_cell_setting           orthorhombic
_symmetry_space_group_name_H-M   'P 21 21 2'
_symmetry_Int_Tables_number      18
_space_group_name_Hall           'P 2 2ab'
loop_
_symmetry_equiv_pos_site_id
_symmetry_equiv_pos_as_xyz
1 x,y,z
2 -x,-y,z
3 1/2+x,1/2-y,-z
4 1/2-x,1/2+y,-z
_cell_length_a                   12.0653(5)
_cell_length_b                   29.4244(12)
_cell_length_c                   7.6893(3)
_cell_angle_alpha                90
_cell_angle_beta                 90
_cell_angle_gamma                90
_cell_volume                     2729.81
_exptl_crystal_colour            colorless
_exptl_crystal_description       block
_cell_formula_units_Z            8
loop_
_atom_site_label
_atom_site_type_symbol
_atom_site_fract_x
_atom_site_fract_y
_atom_site_fract_z
O1 O 0.72963(16) 1.11263(7) -0.1532(2)
N1 N 0.75579(17) 1.05266(8) 0.0304(2)
H1 H 0.7365 1.0697 0.1161
N2 N 0.94824(18) 0.92115(9) -0.1457(3)
H2 H 1.0029 0.9407 -0.1253
H3 H 0.9722 0.8930 -0.1267
C1 C 1.0053(2) 0.91217(12) 0.4233(3)
H4 H 1.0349 0.9409 0.4605
H5 H 1.0597 0.8888 0.4411
H6 H 0.9400 0.9053 0.4895
C2 C 0.9761(2) 0.91467(10) 0.2328(3)
H7 H 1.0314 0.9067 0.1542
C3 C 0.8801(2) 0.92709(10) 0.1668(3)
C4 C 0.8552(2) 0.93107(10) -0.0264(3)
C5 C 0.8179(2) 0.98004(9) -0.0628(3)
C6 C 0.7859(2) 1.00908(10) 0.0675(3)
C7 C 0.7539(2) 1.07160(10) -0.1334(3)
C8 C 0.7810(2) 0.94286(9) 0.2707(3)
H8 H 0.7912 0.9343 0.3929
C9 C 0.7777(2) 0.99504(9) 0.2562(3)
H9 H 0.7091 1.0064 0.3055
H10 H 0.8388 1.0081 0.3211
C10 C 0.6748(2) 0.92199(10) 0.2037(3)
H11 H 0.6121 0.9239 0.2738
C11 C 0.6650(2) 0.90114(10) 0.0518(3)
C12 C 0.7622(2) 0.89774(10) -0.0709(3)
H12 H 0.7368 0.9036 -0.1885
H13 H 0.7913 0.8670 -0.0674
C13 C 0.5590(3) 0.87896(12) -0.0066(4)
H14 H 0.5025 0.8839 0.0793
H15 H 0.5709 0.8469 -0.0209
H16 H 0.5360 0.8919 -0.1153
C14 C 0.8129(2) 0.99764(10) -0.2357(3)
H17 H 0.8318 0.9787 -0.3278
C15 C 0.7818(2) 1.04058(10) -0.2704(3)
H18 H 0.7782 1.0503 -0.3853
O2 O 0.0005(7) 0.4761(3) 0.4610(8)
O3 O 0.0000 0.5000 0.1304(5)
O4 O -0.0714(4) 0.45351(18) 0.3766(5)
O5 O 0.71860(16) 0.09783(6) 0.3473(2)
N3 N 0.69350(17) 0.15783(8) 0.5306(2)
H19 H 0.7124 0.1408 0.6165
N4 N 0.50122(18) 0.28825(8) 0.3496(2)
H20 H 0.4792 0.3169 0.3631
H21 H 0.4448 0.2696 0.3715
C16 C 0.8847(2) 0.33400(11) 0.5045(3)
H22 H 0.9363 0.3344 0.5996
H23 H 0.8684 0.3646 0.4696
H24 H 0.9166 0.3178 0.4084
C17 C 0.7796(2) 0.31073(10) 0.5607(3)
C18 C 0.6862(2) 0.31229(9) 0.4311(3)
H25 H 0.7155 0.3056 0.3164
H26 H 0.6560 0.3428 0.4284
C19 C 0.5921(2) 0.27859(10) 0.4721(3)
C20 C 0.6317(2) 0.23036(10) 0.4376(3)
C21 C 0.6643(2) 0.20133(10) 0.5673(3)
C22 C 0.6954(2) 0.13867(10) 0.3665(3)
C23 C 0.6376(2) 0.21311(10) 0.2649(3)
H27 H 0.6196 0.2323 0.1730
C24 C 0.6683(2) 0.16988(10) 0.2294(3)
H28 H 0.6719 0.1602 0.1143
C25 C 0.5622(2) 0.28234(10) 0.6648(3)
C26 C 0.4647(2) 0.29336(10) 0.7255(3)
H29 H 0.4111 0.3007 0.6433
C27 C 0.4288(2) 0.29564(12) 0.9137(3)
H30 H 0.4920 0.2912 0.9877
H31 H 0.3751 0.2723 0.9361
H32 H 0.3965 0.3248 0.9369
C28 C 0.6614(2) 0.26750(10) 0.7725(3)
H33 H 0.6477 0.2755 0.8943
C29 C 0.6694(2) 0.21517(9) 0.7583(3)
H34 H 0.7384 0.2048 0.8092
H35 H 0.6087 0.2012 0.8215
C30 C 0.7670(2) 0.29071(10) 0.7139(3)
H36 H 0.8268 0.2909 0.7902
O6? O -0.0293(5) 0.4878(2) 0.3264(8)
loop_
_geom_bond_atom_site_label_1
_geom_bond_atom_site_label_2
_geom_bond_site_symmetry_1
_geom_bond_site_symmetry_2
O1 C7 1_555 1_555
N1 H1 1_555 1_555
N2 H2 1_555 1_555
H3 N2 1_555 1_555
C1 H4 1_555 1_555
H5 C1 1_555 1_555
H6 C1 1_555 1_555
C2 C1 1_555 1_555
H7 C2 1_555 1_555
C3 C2 1_555 1_555
C4 N2 1_555 1_555
C5 C4 1_555 1_555
C6 N1 1_555 1_555
C7 N1 1_555 1_555
C8 C3 1_555 1_555
H8 C8 1_555 1_555
C9 C6 1_555 1_555
H9 C9 1_555 1_555
H10 C9 1_555 1_555
C10 C8 1_555 1_555
H11 C10 1_555 1_555
C11 C10 1_555 1_555
C12 C4 1_555 1_555
H12 C12 1_555 1_555
H13 C12 1_555 1_555
C13 C11 1_555 1_555
H14 C13 1_555 1_555
H15 C13 1_555 1_555
H16 C13 1_555 1_555
C14 C5 1_555 1_555
H17 C14 1_555 1_555
C15 C7 1_555 1_555
H18 C15 1_555 1_555
O5 C22 1_555 1_555
N3 H19 1_555 1_555
N4 H20 1_555 1_555
H21 N4 1_555 1_555
C16 H22 1_555 1_555
H23 C16 1_555 1_555
H24 C16 1_555 1_555
C17 C16 1_555 1_555
C18 C17 1_555 1_555
H25 C18 1_555 1_555
H26 C18 1_555 1_555
C19 N4 1_555 1_555
C20 C19 1_555 1_555
C21 N3 1_555 1_555
C22 N3 1_555 1_555
C23 C20 1_555 1_555
H27 C23 1_555 1_555
C24 C22 1_555 1_555
H28 C24 1_555 1_555
C25 C19 1_555 1_555
C26 C25 1_555 1_555
H29 C26 1_555 1_555
C27 C26 1_555 1_555
H30 C27 1_555 1_555
H31 C27 1_555 1_555
H32 C27 1_555 1_555
C28 C25 1_555 1_555
H33 C28 1_555 1_555
C29 C21 1_555 1_555
H34 C29 1_555 1_555
H35 C29 1_555 1_555
C30 C17 1_555 1_555
H36 C30 1_555 1_555
C3 C4 1_555 1_555
C5 C6 1_555 1_555
C8 C9 1_555 1_555
C11 C12 1_555 1_555
C14 C15 1_555 1_555
C18 C19 1_555 1_555
C20 C21 1_555 1_555
C23 C24 1_555 1_555
C28 C29 1_555 1_555
C28 C30 1_555 1_555

#END
