
#######################################################################
#
#                 Cambridge Crystallographic Data Centre
#                                CCDC 
#
#######################################################################
#
# If this CIF has been generated from an entry in the Cambridge 
# Structural Database, then it will include bibliographic, chemical, 
# crystal, experimental, refinement or atomic coordinate data resulting 
# from the CCDC's data processing and validation procedures.
#
#######################################################################

data_KITNEI
_chemical_formula_moiety         'C15 H18 N2 O1,C4 H8 O1'
_chemical_name_systematic        
'1-Amino-13-ethylidene-11-methyl-6-azatricyclo[7.3.1.0^2,7^]trideca-2(7),3,10-trien-5-one butan-2-one solvate'
_symmetry_cell_setting           monoclinic
_symmetry_space_group_name_H-M   'C 2'
_symmetry_Int_Tables_number      5
_space_group_name_Hall           'C 2y'
loop_
_symmetry_equiv_pos_site_id
_symmetry_equiv_pos_as_xyz
1 x,y,z
2 -x,y,-z
3 1/2+x,1/2+y,z
4 1/2-x,1/2+y,-z
_cell_length_a                   19.9216(4)
_cell_length_b                   7.47330(10)
_cell_length_c                   15.2146(3)
_cell_angle_alpha                90
_cell_angle_beta                 130.2740(10)
_cell_angle_gamma                90
_cell_volume                     1728.22
_exptl_crystal_colour            colorless
_exptl_crystal_description       chunk
_cell_formula_units_Z            4
loop_
_atom_site_label
_atom_site_type_symbol
_atom_site_fract_x
_atom_site_fract_y
_atom_site_fract_z
N1 N 0.29111(7) 0.51579(15) 0.93319(9)
H1 H 0.2753 0.4242 0.9502
O1 O 0.25347(7) 0.69534(13) 1.01674(9)
N2 N 0.45451(9) 0.73569(18) 0.83089(12)
H2 H 0.5005(9) 0.719(3) 0.9020(9)
H3 H 0.4700(13) 0.729(3) 0.7905(15)
C1 C 0.51637(10) 0.1660(2) 0.83599(14)
H4 H 0.4898 0.0881 0.8561
H5 H 0.5792 0.1576 0.8935
H6 H 0.4980 0.1312 0.7625
C2 C 0.48814(9) 0.3559(2) 0.82945(12)
H7 H 0.5291 0.4452 0.8525
C3 C 0.41051(9) 0.40794(18) 0.79403(11)
C4 C 0.33539(9) 0.28650(17) 0.75626(11)
H8 H 0.3496 0.1636 0.7508
C5 C 0.32575(9) 0.29424(17) 0.84902(11)
H9 H 0.2723 0.2332 0.8213
H10 H 0.3752 0.2339 0.9182
C6 C 0.32253(8) 0.48621(17) 0.87650(11)
C7 C 0.28306(8) 0.68210(17) 0.96485(11)
C8 C 0.38465(9) 0.60356(18) 0.78462(12)
C9 C 0.34915(8) 0.62731(17) 0.84838(11)
C10 C 0.34077(9) 0.80222(18) 0.87727(12)
H11 H 0.3570 0.9003 0.8570
C11 C 0.30964(9) 0.83006(17) 0.93376(12)
H12 H 0.3056 0.9459 0.9523
C12 C 0.31086(10) 0.64434(19) 0.65531(12)
H13 H 0.2844 0.7587 0.6475
H14 H 0.3365 0.6547 0.6189
C13 C 0.24013(9) 0.5040(2) 0.59334(11)
C14 C 0.15698(11) 0.5547(3) 0.47488(13)
H15 H 0.1699 0.5721 0.4246
H16 H 0.1338 0.6635 0.4796
H17 H 0.1144 0.4608 0.4451
C15 C 0.25130(9) 0.34342(19) 0.63996(12)
H18 H 0.2049 0.2625 0.5987
O2 O 0.38483(9) 0.4814(2) 0.41652(12)
C16 C 0.40208(12) 0.2196(3) 0.34049(17)
H19 H 0.4607 0.1739 0.3969
H20 H 0.3821 0.1975 0.2647
H21 H 0.3636 0.1609 0.3488
C17 C 0.40179(11) 0.4226(3) 0.35818(15)
C18 C 0.42295(13) 0.5390(3) 0.29959(17)
H22 H 0.3759 0.5286 0.2170
H23 H 0.4764 0.4950 0.3174
C19 C 0.43531(14) 0.7330(3) 0.33208(19)
H24 H 0.3872 0.7732 0.3271
H25 H 0.4372 0.8019 0.2804
H26 H 0.4895 0.7482 0.4095
loop_
_geom_bond_atom_site_label_1
_geom_bond_atom_site_label_2
_geom_bond_site_symmetry_1
_geom_bond_site_symmetry_2
N1 H1 1_555 1_555
O1 C7 1_555 1_555
N2 H2 1_555 1_555
H3 N2 1_555 1_555
C1 H4 1_555 1_555
H5 C1 1_555 1_555
H6 C1 1_555 1_555
C2 C1 1_555 1_555
H7 C2 1_555 1_555
C3 C2 1_555 1_555
C4 C3 1_555 1_555
H8 C4 1_555 1_555
C5 C4 1_555 1_555
H9 C5 1_555 1_555
H10 C5 1_555 1_555
C6 N1 1_555 1_555
C7 N1 1_555 1_555
C8 N2 1_555 1_555
C9 C6 1_555 1_555
C10 C9 1_555 1_555
H11 C10 1_555 1_555
C11 C7 1_555 1_555
H12 C11 1_555 1_555
C12 C8 1_555 1_555
H13 C12 1_555 1_555
H14 C12 1_555 1_555
C13 C12 1_555 1_555
C14 C13 1_555 1_555
H15 C14 1_555 1_555
H16 C14 1_555 1_555
H17 C14 1_555 1_555
C15 C4 1_555 1_555
H18 C15 1_555 1_555
O2 C17 1_555 1_555
C16 H19 1_555 1_555
H20 C16 1_555 1_555
H21 C16 1_555 1_555
C17 C16 1_555 1_555
C18 C17 1_555 1_555
H22 C18 1_555 1_555
H23 C18 1_555 1_555
C19 C18 1_555 1_555
H24 C19 1_555 1_555
H25 C19 1_555 1_555
H26 C19 1_555 1_555
C3 C8 1_555 1_555
C5 C6 1_555 1_555
C8 C9 1_555 1_555
C10 C11 1_555 1_555
C13 C15 1_555 1_555

#END
