
#######################################################################
#
#                 Cambridge Crystallographic Data Centre
#                                CCDC 
#
#######################################################################
#
# If this CIF has been generated from an entry in the Cambridge 
# Structural Database, then it will include bibliographic, chemical, 
# crystal, experimental, refinement or atomic coordinate data resulting 
# from the CCDC's data processing and validation procedures.
#
#######################################################################

data_KITRAH
_chemical_formula_moiety         'C23 H20 N2 O2 S1'
_chemical_name_systematic        
4-Methyl-N-(4-methyl-3-phenylquinolin-2(1H)-ylidene)benzenesulfonamide
_symmetry_cell_setting           triclinic
_symmetry_space_group_name_H-M   'P -1'
_symmetry_Int_Tables_number      2
_space_group_name_Hall           '-P 1'
loop_
_symmetry_equiv_pos_site_id
_symmetry_equiv_pos_as_xyz
1 x,y,z
2 -x,-y,-z
_cell_length_a                   10.5045(9)
_cell_length_b                   12.8986(10)
_cell_length_c                   15.4637(13)
_cell_angle_alpha                92.087(2)
_cell_angle_beta                 109.594(1)
_cell_angle_gamma                94.110(2)
_cell_volume                     1964.74
_exptl_crystal_colour            colorless
_exptl_crystal_description       prismatic
_chemical_melting_point          '196-197 deg.C'
_cell_formula_units_Z            4
loop_
_atom_site_label
_atom_site_type_symbol
_atom_site_fract_x
_atom_site_fract_y
_atom_site_fract_z
S1 S 0.54188(5) 0.13508(4) 0.84860(3)
O1 O 0.42131(13) 0.15142(12) 0.77360(10)
O2 O 0.55456(16) 0.02947(10) 0.87519(11)
N1 N 0.66905(16) 0.18854(12) 0.82796(11)
N2 N 0.80352(18) 0.04650(15) 0.85413(13)
C1 C 0.9248(2) 0.00299(18) 0.86708(15)
C2 C 0.9341(3) -0.10143(19) 0.88434(17)
H1 H 0.8595 -0.1423 0.8877
C3 C 1.0548(3) -0.1439(2) 0.8964(2)
H2 H 1.0624 -0.2137 0.9084
C4 C 1.1659(3) -0.0819(3) 0.8907(2)
H3 H 1.2466 -0.1115 0.8974
C5 C 1.1581(3) 0.0202(3) 0.8756(2)
C6 C 1.0364(2) 0.06783(19) 0.86444(15)
C7 C 1.0221(2) 0.17575(19) 0.85018(16)
C8 C 0.8994(2) 0.21430(17) 0.83744(14)
C9 C 0.78491(19) 0.14667(16) 0.84013(13)
C10 C 1.1440(2) 0.2469(2) 0.8529(2)
H4 H 1.1166 0.3152 0.8373
H5 H 1.1826 0.2199 0.8095
H6 H 1.2103 0.2508 0.9136
C11 C 0.8767(2) 0.32564(18) 0.82193(18)
C12 C 0.8444(3) 0.3617(2) 0.7345(2)
H7 H 0.8373 0.3156 0.6850
C13 C 0.8228(3) 0.4644(3) 0.7196(3)
H8 H 0.8020 0.4872 0.6605
C14 C 0.8317(3) 0.5327(3) 0.7908(4)
H9 H 0.8178 0.6022 0.7807
C15 C 0.8609(4) 0.4990(3) 0.8763(3)
H10 H 0.8664 0.5456 0.9250
C16 C 0.8829(3) 0.3948(2) 0.8925(2)
H11 H 0.9019 0.3725 0.9516
C17 C 0.53847(19) 0.21190(15) 0.94465(13)
C18 C 0.5767(3) 0.31714(18) 0.95356(18)
H12 H 0.6090 0.3483 0.9108
C19 C 0.5663(4) 0.3756(2) 1.0268(2)
H13 H 0.5944 0.4463 1.0339
C20 C 0.5153(3) 0.3319(2) 1.09017(16)
C21 C 0.4789(2) 0.22727(18) 1.08007(15)
H14 H 0.4455 0.1961 1.1224
C22 C 0.4908(2) 0.16669(16) 1.00774(14)
H15 H 0.4665 0.0954 1.0021
C23 C 0.5019(4) 0.3981(2) 1.1699(2)
H16 H 0.4097 0.3904 1.1685
H17 H 0.5273 0.4699 1.1643
H18 H 0.5604 0.3757 1.2270
H38 H 1.234(3) 0.065(2) 0.860(2)
H39 H 0.743(2) 0.0108(16) 0.8607(16)
S2 S 0.51600(5) 0.86850(4) 0.67057(3)
O3 O 0.62782(14) 0.84087(12) 0.74734(9)
O4 O 0.51664(15) 0.97660(10) 0.65010(10)
N3 N 0.37876(16) 0.82024(12) 0.68151(11)
N4 N 0.25560(18) 0.96908(13) 0.65357(12)
C24 C 0.1353(2) 1.01692(16) 0.63403(15)
C25 C 0.1364(3) 1.12288(18) 0.62130(18)
H19 H 0.2166 1.1621 0.6261
C26 C 0.0163(3) 1.1685(2) 0.6014(2)
H20 H 0.0157 1.2395 0.5928
C27 C -0.1022(3) 1.1114(2) 0.5941(2)
H21 H -0.1824 1.1438 0.5801
C28 C -0.1037(2) 1.0074(2) 0.60723(19)
H22 H -0.1844 0.9697 0.6035
C29 C 0.0171(2) 0.95616(18) 0.62643(16)
C30 C 0.0215(2) 0.84690(17) 0.63674(17)
C31 C 0.1416(2) 0.80311(16) 0.65325(15)
C32 C 0.26500(19) 0.86689(15) 0.66311(13)
C33 C -0.1086(2) 0.7803(2) 0.6255(2)
H23 H -0.0883 0.7102 0.6396
H24 H -0.1690 0.7806 0.5631
H25 H -0.1509 0.8080 0.6664
C34 C 0.1510(2) 0.68909(18) 0.6601(2)
C35 C 0.1462(3) 0.6411(2) 0.7375(3)
H26 H 0.1403 0.6817 0.7868
C36 C 0.1498(4) 0.5365(3) 0.7440(4)
H27 H 0.1485 0.5062 0.7974
C37 C 0.1553(4) 0.4766(3) 0.6710(5)
H28 H 0.1545 0.4047 0.6742
C38 C 0.1622(4) 0.5204(3) 0.5924(4)
H29 H 0.1674 0.4791 0.5434
C39 C 0.1612(3) 0.6295(2) 0.5884(2)
H30 H 0.1675 0.6609 0.5366
C40 C 0.51994(18) 0.79577(14) 0.57275(13)
C41 C 0.5564(2) 0.69459(15) 0.58068(15)
H31 H 0.5787 0.6646 0.6370
C42 C 0.5591(2) 0.63909(16) 0.50353(17)
H32 H 0.5844 0.5713 0.5088
C43 C 0.5253(2) 0.68098(17) 0.41853(16)
C44 C 0.4885(2) 0.78212(17) 0.41242(15)
H33 H 0.4649 0.8118 0.3559
C45 C 0.4863(2) 0.83937(15) 0.48874(14)
H34 H 0.4622 0.9074 0.4836
C46 C 0.5262(3) 0.6192(2) 0.33383(19)
H35 H 0.4383 0.6168 0.2871
H36 H 0.5479 0.5496 0.3492
H37 H 0.5930 0.6519 0.3114
H40 H 0.329(2) 1.0080(16) 0.6616(15)
loop_
_geom_bond_atom_site_label_1
_geom_bond_atom_site_label_2
_geom_bond_site_symmetry_1
_geom_bond_site_symmetry_2
S1 O1 1_555 1_555
S2 O3 1_555 1_555
O2 S1 1_555 1_555
O4 S2 1_555 1_555
N1 S1 1_555 1_555
N2 C1 1_555 1_555
N3 S2 1_555 1_555
N4 C24 1_555 1_555
C1 C2 1_555 1_555
C2 H1 1_555 1_555
C3 C2 1_555 1_555
H2 C3 1_555 1_555
C4 C3 1_555 1_555
H3 C4 1_555 1_555
C5 C4 1_555 1_555
C6 C1 1_555 1_555
C7 C6 1_555 1_555
C8 C7 1_555 1_555
C9 N1 1_555 1_555
C10 C7 1_555 1_555
H4 C10 1_555 1_555
H5 C10 1_555 1_555
H6 C10 1_555 1_555
C11 C8 1_555 1_555
C12 C11 1_555 1_555
H7 C12 1_555 1_555
C13 C12 1_555 1_555
H8 C13 1_555 1_555
C14 C13 1_555 1_555
H9 C14 1_555 1_555
C15 C14 1_555 1_555
H10 C15 1_555 1_555
C16 C11 1_555 1_555
H11 C16 1_555 1_555
C17 S1 1_555 1_555
C18 C17 1_555 1_555
H12 C18 1_555 1_555
C19 C18 1_555 1_555
H13 C19 1_555 1_555
C20 C19 1_555 1_555
C21 C20 1_555 1_555
H14 C21 1_555 1_555
C22 C17 1_555 1_555
H15 C22 1_555 1_555
C23 C20 1_555 1_555
H16 C23 1_555 1_555
H17 C23 1_555 1_555
H18 C23 1_555 1_555
C24 C25 1_555 1_555
C25 H19 1_555 1_555
C26 C25 1_555 1_555
H20 C26 1_555 1_555
C27 C26 1_555 1_555
H21 C27 1_555 1_555
C28 C27 1_555 1_555
H22 C28 1_555 1_555
C29 C24 1_555 1_555
C30 C29 1_555 1_555
C31 C30 1_555 1_555
C32 N3 1_555 1_555
C33 C30 1_555 1_555
H23 C33 1_555 1_555
H24 C33 1_555 1_555
H25 C33 1_555 1_555
C34 C31 1_555 1_555
C35 C34 1_555 1_555
H26 C35 1_555 1_555
C36 C35 1_555 1_555
H27 C36 1_555 1_555
C37 C36 1_555 1_555
H28 C37 1_555 1_555
C38 C37 1_555 1_555
H29 C38 1_555 1_555
C39 C34 1_555 1_555
H30 C39 1_555 1_555
C40 S2 1_555 1_555
C41 C40 1_555 1_555
H31 C41 1_555 1_555
C42 C41 1_555 1_555
H32 C42 1_555 1_555
C43 C42 1_555 1_555
C44 C43 1_555 1_555
H33 C44 1_555 1_555
C45 C40 1_555 1_555
H34 C45 1_555 1_555
C46 C43 1_555 1_555
H35 C46 1_555 1_555
H36 C46 1_555 1_555
H37 C46 1_555 1_555
H38 C5 1_555 1_555
H39 N2 1_555 1_555
H40 N4 1_555 1_555
N2 C9 1_555 1_555
N4 C32 1_555 1_555
C5 C6 1_555 1_555
C8 C9 1_555 1_555
C15 C16 1_555 1_555
C21 C22 1_555 1_555
C28 C29 1_555 1_555
C31 C32 1_555 1_555
C38 C39 1_555 1_555
C44 C45 1_555 1_555

#END
