
#######################################################################
#
#                 Cambridge Crystallographic Data Centre
#                                CCDC 
#
#######################################################################
#
# If this CIF has been generated from an entry in the Cambridge 
# Structural Database, then it will include bibliographic, chemical, 
# crystal, experimental, refinement or atomic coordinate data resulting 
# from the CCDC's data processing and validation procedures.
#
#######################################################################

data_KITTOX
_chemical_formula_moiety         'C19 H21 Cl1 O4'
_chemical_name_systematic        
'Ethyl 4,6-dimethyl-5-(2-chloroethyl)-3-phenoxysalicylate'
_symmetry_cell_setting           triclinic
_symmetry_space_group_name_H-M   'P -1'
_symmetry_Int_Tables_number      2
_space_group_name_Hall           '-P 1'
loop_
_symmetry_equiv_pos_site_id
_symmetry_equiv_pos_as_xyz
1 x,y,z
2 -x,-y,-z
_cell_length_a                   9.1581(2)
_cell_length_b                   9.3847(3)
_cell_length_c                   11.4211(3)
_cell_angle_alpha                73.691(2)
_cell_angle_beta                 75.225(2)
_cell_angle_gamma                68.448(2)
_cell_volume                     863.459
_exptl_crystal_colour            colorless
_exptl_crystal_description       prism
_chemical_melting_point          '348 K'
_cell_formula_units_Z            2
loop_
_atom_site_label
_atom_site_type_symbol
_atom_site_fract_x
_atom_site_fract_y
_atom_site_fract_z
Cl1 Cl 1.45012(8) 0.20116(8) 0.53650(6)
O1 O 0.57421(19) 0.0352(2) 0.87340(16)
O2 O 0.78233(19) -0.0779(2) 0.74233(19)
O3 O 0.68471(18) 0.08673(18) 1.04963(15)
O4 O 0.89010(17) 0.19046(17) 1.09918(14)
C1 C 0.8068(2) 0.1092(2) 0.8315(2)
C2 C 0.7913(2) 0.1285(2) 0.9517(2)
C3 C 0.8947(2) 0.1907(2) 0.9759(2)
C4 C 1.0077(2) 0.2397(2) 0.8842(2)
C5 C 1.0170(2) 0.2289(3) 0.7620(2)
C6 C 0.9170(2) 0.1640(2) 0.7343(2)
C7 C 0.7081(3) 0.0221(3) 0.8164(2)
C8 C 0.6957(3) -0.1752(4) 0.7290(4)
H1 H 0.6017 -0.1707 0.7957
H2 H 0.6575 -0.1340 0.6486
C9 C 0.7970(4) -0.3342(4) 0.7353(4)
H3 H 0.8932 -0.3378 0.6726
H4 H 0.7403 -0.3958 0.7198
H5 H 0.8268 -0.3779 0.8177
C10 C 1.1156(3) 0.3049(3) 0.9181(2)
H6 H 1.0949 0.2960 1.0080
H7 H 1.0952 0.4153 0.8766
H8 H 1.2270 0.2457 0.8918
C11 C 1.1436(3) 0.2792(3) 0.6617(2)
H9 H 1.1639 0.3660 0.6811
H10 H 1.1056 0.3176 0.5813
C12 C 1.2969(3) 0.1425(3) 0.6525(2)
H11 H 1.2769 0.0568 0.6313
H12 H 1.3331 0.1025 0.7337
C13 C 0.9219(3) 0.1611(3) 0.6017(2)
H13 H 0.9215 0.2635 0.5489
H14 H 0.8285 0.1376 0.5961
H15 H 1.0190 0.0804 0.5742
C14 C 0.7756(2) 0.3091(2) 1.1513(2)
C15 C 0.6684(3) 0.4328(3) 1.0875(2)
H16 H 0.6695 0.4397 1.0027
C16 C 0.5585(3) 0.5476(3) 1.1488(2)
H17 H 0.4839 0.6331 1.1054
C17 C 0.5562(3) 0.5391(3) 1.2717(2)
H18 H 0.4802 0.6179 1.3129
C18 C 0.6650(3) 0.4152(3) 1.3343(2)
H19 H 0.6643 0.4091 1.4188
C19 C 0.7751(3) 0.2998(3) 1.2750(2)
H20 H 0.8499 0.2148 1.3185
H21 H 0.617(4) 0.064(3) 1.022(3)
loop_
_geom_bond_atom_site_label_1
_geom_bond_atom_site_label_2
_geom_bond_site_symmetry_1
_geom_bond_site_symmetry_2
Cl1 C12 1_555 1_555
O1 C7 1_555 1_555
O2 C7 1_555 1_555
O3 C2 1_555 1_555
O4 C3 1_555 1_555
C1 C2 1_555 1_555
C2 C3 1_555 1_555
C3 C4 1_555 1_555
C4 C5 1_555 1_555
C5 C6 1_555 1_555
C6 C1 1_555 1_555
C7 C1 1_555 1_555
C8 O2 1_555 1_555
H1 C8 1_555 1_555
H2 C8 1_555 1_555
C9 C8 1_555 1_555
H3 C9 1_555 1_555
H4 C9 1_555 1_555
H5 C9 1_555 1_555
C10 C4 1_555 1_555
H6 C10 1_555 1_555
H7 C10 1_555 1_555
H8 C10 1_555 1_555
C11 C5 1_555 1_555
H9 C11 1_555 1_555
H10 C11 1_555 1_555
C12 C11 1_555 1_555
H11 C12 1_555 1_555
H12 C12 1_555 1_555
C13 C6 1_555 1_555
H13 C13 1_555 1_555
H14 C13 1_555 1_555
H15 C13 1_555 1_555
C14 O4 1_555 1_555
C15 C14 1_555 1_555
H16 C15 1_555 1_555
C16 C15 1_555 1_555
H17 C16 1_555 1_555
C17 C16 1_555 1_555
H18 C17 1_555 1_555
C18 C17 1_555 1_555
H19 C18 1_555 1_555
C19 C14 1_555 1_555
H20 C19 1_555 1_555
H21 O3 1_555 1_555
C18 C19 1_555 1_555

#END
