
#######################################################################
#
#                 Cambridge Crystallographic Data Centre
#                                CCDC 
#
#######################################################################
#
# If this CIF has been generated from an entry in the Cambridge 
# Structural Database, then it will include bibliographic, chemical, 
# crystal, experimental, refinement or atomic coordinate data resulting 
# from the CCDC's data processing and validation procedures.
#
#######################################################################

data_KITVEP
_chemical_formula_moiety         'C17 H17 Cl1 O4'
_chemical_name_systematic        
'Methyl 4,5,6-trimethyl-3-(4-chlorophenoxy)salicylate'
_symmetry_cell_setting           monoclinic
_symmetry_space_group_name_H-M   'P 21/c'
_symmetry_Int_Tables_number      14
_space_group_name_Hall           '-P 2ybc'
loop_
_symmetry_equiv_pos_site_id
_symmetry_equiv_pos_as_xyz
1 x,y,z
2 -x,1/2+y,1/2-z
3 -x,-y,-z
4 x,1/2-y,1/2+z
_cell_length_a                   14.384(3)
_cell_length_b                   14.157(3)
_cell_length_c                   15.968(3)
_cell_angle_alpha                90
_cell_angle_beta                 108.64(3)
_cell_angle_gamma                90
_cell_volume                     3081.07
_exptl_crystal_colour            colorless
_exptl_crystal_description       prism
_chemical_melting_point          '98 deg.C'
_cell_formula_units_Z            8
loop_
_atom_site_label
_atom_site_type_symbol
_atom_site_fract_x
_atom_site_fract_y
_atom_site_fract_z
C1 C 0.05752(17) 0.38075(15) 0.02271(15)
C2 C 0.14694(18) 0.38415(16) 0.09289(15)
C3 C 0.23397(18) 0.39724(17) 0.07489(15)
C4 C 0.23736(17) 0.40542(16) -0.01014(16)
C5 C 0.14874(18) 0.40253(16) -0.08083(15)
C6 C 0.05941(18) 0.39212(16) -0.06522(15)
C7 C 0.33525(18) 0.41717(19) -0.02463(17)
H1 H 0.3876 0.4170 0.0325
H2 H 0.3363 0.4772 -0.0549
H3 H 0.3456 0.3649 -0.0609
C8 C 0.1521(2) 0.4126(2) -0.17447(15)
H4 H 0.2204 0.4192 -0.1730
H5 H 0.1148 0.4687 -0.2020
H6 H 0.1232 0.3564 -0.2088
C9 C -0.03385(19) 0.3928(2) -0.14371(15)
H7 H -0.0173 0.4014 -0.1982
H8 H -0.0761 0.4447 -0.1373
H9 H -0.0684 0.3326 -0.1464
C10 C -0.03079(19) 0.36354(17) 0.04885(16)
C11 C -0.20162(18) 0.35232(19) 0.01570(17)
H10 H -0.2618 0.3576 -0.0349
H11 H -0.2026 0.3995 0.0603
H12 H -0.1975 0.2889 0.0413
C12 C 0.35925(17) 0.32920(17) 0.19607(15)
C13 C 0.33360(18) 0.23812(18) 0.16852(16)
H13 H 0.2839 0.2264 0.1138
C14 C 0.38068(19) 0.16362(19) 0.22100(18)
H14 H 0.3632 0.1004 0.2026
C15 C 0.45293(18) 0.1812(2) 0.29988(17)
C16 C 0.4771(2) 0.2720(2) 0.32806(17)
H15 H 0.5262 0.2834 0.3832
C17 C 0.43019(18) 0.34682(19) 0.27647(16)
H16 H 0.4465 0.4099 0.2959
Cl1 Cl 0.51681(5) 0.08761(6) 0.36347(5)
O1 O -0.11710(12) 0.36853(12) -0.01331(10)
O2 O -0.02630(13) 0.34556(14) 0.12459(11)
O3 O 0.15638(14) 0.37585(13) 0.17937(10)
O4 O 0.31981(11) 0.40830(12) 0.14676(10)
H33 H 0.0999(19) 0.3589(17) 0.1837(16)
C18 C 0.98627(17) 0.13702(16) 0.91330(15)
C19 C 0.89635(17) 0.13178(16) 0.84453(14)
C20 C 0.81080(18) 0.11390(16) 0.86410(15)
C21 C 0.80944(17) 0.10250(16) 0.94919(15)
C22 C 0.89838(19) 0.10909(16) 1.01880(15)
C23 C 0.98687(18) 0.12565(15) 1.00227(15)
C24 C 0.71282(18) 0.0842(2) 0.96468(17)
H17 H 0.6600 0.0826 0.9078
H18 H 0.6999 0.1347 1.0015
H19 H 0.7158 0.0234 0.9948
C25 C 0.8981(2) 0.0977(2) 1.11350(15)
H20 H 0.8309 0.0862 1.1135
H21 H 0.9233 0.1555 1.1468
H22 H 0.9398 0.0442 1.1411
C26 C 1.07963(19) 0.13265(19) 1.07992(15)
H23 H 1.0644 0.1221 1.1348
H24 H 1.1083 0.1956 1.0812
H25 H 1.1265 0.0848 1.0743
C27 C 1.07349(17) 0.15459(16) 0.88573(15)
C28 C 1.24395(18) 0.15496(19) 0.91338(18)
H26 H 1.3052 0.1429 0.9613
H27 H 1.2433 0.2204 0.8931
H28 H 1.2391 0.1118 0.8642
C29 C 0.68383(16) 0.18048(17) 0.74386(15)
C30 C 0.70930(18) 0.27184(17) 0.77186(15)
H29 H 0.7593 0.2833 0.8264
C31 C 0.66175(19) 0.34642(18) 0.72026(16)
H30 H 0.6790 0.4096 0.7389
C32 C 0.58938(18) 0.32864(18) 0.64185(16)
C33 C 0.56478(19) 0.23791(19) 0.61294(16)
H31 H 0.5153 0.2269 0.5579
C34 C 0.61228(18) 0.16258(18) 0.66415(15)
H32 H 0.5959 0.0995 0.6447
Cl2 Cl 0.52554(5) 0.42214(5) 0.57758(5)
O5 O 1.16100(12) 0.13985(12) 0.94543(11)
O6 O 1.06700(13) 0.17848(13) 0.81087(11)
O7 O 0.88514(13) 0.14207(12) 0.75809(10)
O8 O 0.72407(11) 0.10158(11) 0.79323(10)
H34 H 0.948(2) 0.1603(19) 0.7518(17)
loop_
_geom_bond_atom_site_label_1
_geom_bond_atom_site_label_2
_geom_bond_site_symmetry_1
_geom_bond_site_symmetry_2
C1 C2 1_555 1_555
C2 C3 1_555 1_555
C3 C4 1_555 1_555
C4 C5 1_555 1_555
C5 C6 1_555 1_555
C6 C1 1_555 1_555
C7 C4 1_555 1_555
H1 C7 1_555 1_555
H2 C7 1_555 1_555
H3 C7 1_555 1_555
C8 C5 1_555 1_555
H4 C8 1_555 1_555
H5 C8 1_555 1_555
H6 C8 1_555 1_555
C9 C6 1_555 1_555
H7 C9 1_555 1_555
H8 C9 1_555 1_555
H9 C9 1_555 1_555
C10 C1 1_555 1_555
C11 H10 1_555 1_555
H11 C11 1_555 1_555
H12 C11 1_555 1_555
C12 C13 1_555 1_555
C13 H13 1_555 1_555
C14 C13 1_555 1_555
H14 C14 1_555 1_555
C15 C14 1_555 1_555
C16 C15 1_555 1_555
H15 C16 1_555 1_555
C17 C12 1_555 1_555
H16 C17 1_555 1_555
C18 C19 1_555 1_555
C19 C20 1_555 1_555
C20 C21 1_555 1_555
C21 C22 1_555 1_555
C22 C23 1_555 1_555
C23 C18 1_555 1_555
C24 C21 1_555 1_555
H17 C24 1_555 1_555
H18 C24 1_555 1_555
H19 C24 1_555 1_555
C25 C22 1_555 1_555
H20 C25 1_555 1_555
H21 C25 1_555 1_555
H22 C25 1_555 1_555
C26 C23 1_555 1_555
H23 C26 1_555 1_555
H24 C26 1_555 1_555
H25 C26 1_555 1_555
C27 C18 1_555 1_555
C28 H26 1_555 1_555
H27 C28 1_555 1_555
H28 C28 1_555 1_555
C29 C30 1_555 1_555
C30 H29 1_555 1_555
C31 C30 1_555 1_555
H30 C31 1_555 1_555
C32 C31 1_555 1_555
C33 C32 1_555 1_555
H31 C33 1_555 1_555
C34 C29 1_555 1_555
H32 C34 1_555 1_555
Cl1 C15 1_555 1_555
Cl2 C32 1_555 1_555
O1 C10 1_555 1_555
O2 C10 1_555 1_555
O3 C2 1_555 1_555
O4 C3 1_555 1_555
O5 C27 1_555 1_555
O6 C27 1_555 1_555
O7 C19 1_555 1_555
O8 C20 1_555 1_555
H33 O3 1_555 1_555
H34 O7 1_555 1_555
C11 O1 1_555 1_555
C12 O4 1_555 1_555
C16 C17 1_555 1_555
C28 O5 1_555 1_555
C29 O8 1_555 1_555
C33 C34 1_555 1_555

#END
