
#######################################################################
#
#                 Cambridge Crystallographic Data Centre
#                                CCDC 
#
#######################################################################
#
# If this CIF has been generated from an entry in the Cambridge 
# Structural Database, then it will include bibliographic, chemical, 
# crystal, experimental, refinement or atomic coordinate data resulting 
# from the CCDC's data processing and validation procedures.
#
#######################################################################

data_KITZUI
_chemical_formula_moiety         'C15 H16 O4 S1'
_chemical_name_systematic        
'(+-)-3-Benzyloxy-2,3,3a,7a-tetrahydrobenzo(b)thiophen-5(4H)-one 1,1-dioxide'
_symmetry_cell_setting           orthorhombic
_symmetry_space_group_name_H-M   'P b c a'
_symmetry_Int_Tables_number      61
_space_group_name_Hall           '-P 2ac 2ab'
loop_
_symmetry_equiv_pos_site_id
_symmetry_equiv_pos_as_xyz
1 x,y,z
2 1/2-x,1/2+y,z
3 x,1/2-y,1/2+z
4 1/2-x,-y,1/2+z
5 -x,-y,-z
6 1/2+x,1/2-y,-z
7 -x,1/2+y,1/2-z
8 1/2+x,y,1/2-z
_cell_length_a                   5.9496(10)
_cell_length_b                   11.483(3)
_cell_length_c                   40.262(7)
_cell_angle_alpha                90
_cell_angle_beta                 90
_cell_angle_gamma                90
_cell_volume                     2750.67
_exptl_crystal_colour            colorless
_cell_formula_units_Z            8
loop_
_atom_site_label
_atom_site_type_symbol
_atom_site_fract_x
_atom_site_fract_y
_atom_site_fract_z
S1 S -0.18211(13) 0.56522(7) 0.64601(2)
C1 C -0.1823(6) 0.7098(3) 0.62929(8)
C2 C 0.0371(5) 0.7652(3) 0.64112(8)
C3 C 0.0944(5) 0.7148(3) 0.67519(7)
C4 C -0.0495(6) 0.7661(3) 0.70286(8)
C5 C -0.0270(5) 0.7017(3) 0.73513(8)
C6 C 0.0065(5) 0.5753(3) 0.73304(8)
C7 C 0.0420(5) 0.5207(3) 0.70452(8)
C8 C 0.0646(5) 0.5835(3) 0.67238(7)
O1 O -0.3785(4) 0.5475(2) 0.66641(6)
O2 O -0.1367(4) 0.4811(2) 0.62026(6)
O3 O -0.0457(4) 0.7509(2) 0.76195(5)
O4 O 0.2178(3) 0.7334(2) 0.61965(5)
C9 C 0.2273(7) 0.7995(3) 0.58951(8)
C10 C 0.3892(5) 0.7412(3) 0.56645(7)
C11 C 0.3805(7) 0.6220(3) 0.56194(9)
C12 C 0.5333(8) 0.5671(4) 0.54154(10)
C13 C 0.6943(7) 0.6300(4) 0.52514(9)
C14 C 0.7050(6) 0.7481(4) 0.52921(8)
C15 C 0.5538(6) 0.8034(3) 0.55001(8)
H1 H -0.199(6) 0.702(3) 0.6054(8)
H2 H -0.303(5) 0.746(3) 0.6371(7)
H3 H 0.025(5) 0.846(2) 0.6417(6)
H4 H 0.240(6) 0.728(3) 0.6789(6)
H5 H -0.205(6) 0.760(3) 0.6969(7)
H6 H -0.013(6) 0.845(3) 0.7075(7)
H7 H -0.004(5) 0.537(2) 0.7524(8)
H8 H 0.053(6) 0.439(3) 0.7032(8)
H9 H 0.166(4) 0.554(2) 0.6610(6)
H10 H 0.071(6) 0.801(3) 0.5792(7)
H11 H 0.280(5) 0.875(3) 0.5939(7)
H12 H 0.268(6) 0.584(3) 0.5723(8)
H13 H 0.516(7) 0.488(4) 0.5385(9)
H14 H 0.793(6) 0.594(3) 0.5122(8)
H15 H 0.824(6) 0.796(3) 0.5176(8)
H16 H 0.570(5) 0.878(3) 0.5529(7)
loop_
_geom_bond_atom_site_label_1
_geom_bond_atom_site_label_2
_geom_bond_site_symmetry_1
_geom_bond_site_symmetry_2
S1 C1 1_555 1_555
C1 C2 1_555 1_555
C2 C3 1_555 1_555
C3 C4 1_555 1_555
C4 C5 1_555 1_555
C5 C6 1_555 1_555
C6 C7 1_555 1_555
C7 C8 1_555 1_555
C8 S1 1_555 1_555
O1 S1 1_555 1_555
O2 S1 1_555 1_555
O3 C5 1_555 1_555
O4 C2 1_555 1_555
C9 O4 1_555 1_555
C10 C9 1_555 1_555
C11 C10 1_555 1_555
C12 C11 1_555 1_555
C13 C12 1_555 1_555
C14 C13 1_555 1_555
C15 C10 1_555 1_555
H1 C1 1_555 1_555
H2 C1 1_555 1_555
H3 C2 1_555 1_555
H4 C3 1_555 1_555
H5 C4 1_555 1_555
H6 C4 1_555 1_555
H7 C6 1_555 1_555
H8 C7 1_555 1_555
H9 C8 1_555 1_555
H10 C9 1_555 1_555
H11 C9 1_555 1_555
H12 C11 1_555 1_555
H13 C12 1_555 1_555
H14 C13 1_555 1_555
H15 C14 1_555 1_555
H16 C15 1_555 1_555
C3 C8 1_555 1_555
C14 C15 1_555 1_555

#END
