
#######################################################################
#
#                 Cambridge Crystallographic Data Centre
#                                CCDC 
#
#######################################################################
#
# If this CIF has been generated from an entry in the Cambridge 
# Structural Database, then it will include bibliographic, chemical, 
# crystal, experimental, refinement or atomic coordinate data resulting 
# from the CCDC's data processing and validation procedures.
#
#######################################################################

data_KIVGEE01
_chemical_formula_moiety         'C8 H14 N1 1+,Cl1 O4 1-'
_chemical_name_systematic        '3-methylenequinuclidinium perchlorate'
_symmetry_cell_setting           orthorhombic
_symmetry_space_group_name_H-M   'P n m a'
_symmetry_Int_Tables_number      62
_space_group_name_Hall           '-P 2ac 2n'
loop_
_symmetry_equiv_pos_site_id
_symmetry_equiv_pos_as_xyz
1 x,y,z
2 1/2-x,-y,1/2+z
3 -x,1/2+y,-z
4 1/2+x,1/2-y,1/2-z
5 -x,-y,-z
6 1/2+x,y,1/2-z
7 x,1/2-y,z
8 1/2-x,1/2+y,1/2+z
_cell_length_a                   12.6355(12)
_cell_length_b                   8.6920(7)
_cell_length_c                   9.6224(7)
_cell_angle_alpha                90
_cell_angle_beta                 90
_cell_angle_gamma                90
_cell_volume                     1056.81
_exptl_crystal_colour            colorless
_exptl_crystal_description       block
_cell_formula_units_Z            4
loop_
_atom_site_label
_atom_site_type_symbol
_atom_site_fract_x
_atom_site_fract_y
_atom_site_fract_z
Cl1 Cl 0.04113(15) 0.2500 0.71293(19)
O1 O -0.0071(16) 0.116(3) 0.645(2)
O2 O 0.1536(10) 0.2500 0.7010(14)
O3 O 0.0288(15) 0.2500 0.8564(17)
O1F O -0.0071(16) 0.384(3) 0.645(2)
N1 N 0.3312(5) 0.2500 0.0448(6)
H1 H 0.3832 0.2500 -0.0308
C1 C 0.2651(5) 0.1094(6) 0.0307(6)
H2 H 0.2316 0.1060 -0.0599
H3 H 0.3097 0.0192 0.0400
C2 C 0.1840(5) 0.1072(9) 0.1445(7)
H4 H 0.1902 0.0143 0.1997
H5 H 0.1142 0.1088 0.1026
C3 C 0.1978(6) 0.2500 0.2362(8)
H6 H 0.1455 0.2500 0.3113
C4 C 0.3076(6) 0.2500 0.2941(7)
C5 C 0.3878(5) 0.2500 0.1827(8)
H7 H 0.4323 0.3406 0.1901
C6 C 0.3311(8) 0.2500 0.4275(8)
H8 H 0.2786 0.2500 0.4952
H9 H 0.4021 0.2500 0.4533
C1F C 0.2651(5) 0.3906(6) 0.0307(6)
H2F H 0.2316 0.3940 -0.0599
H3F H 0.3097 0.4808 0.0400
C2F C 0.1840(5) 0.3928(9) 0.1445(7)
H4F H 0.1902 0.4857 0.1997
H5F H 0.1142 0.3912 0.1026
H7F H 0.4323 0.1594 0.1901
H10? H 0.4323 0.3406 0.1901
O4? O 0.0565(11) 0.2500 0.5715(17)
O5? O 0.0619(14) 0.121(3) 0.802(2)
O6? O -0.0752(13) 0.2500 0.7293(18)
loop_
_geom_bond_atom_site_label_1
_geom_bond_atom_site_label_2
_geom_bond_site_symmetry_1
_geom_bond_site_symmetry_2
Cl1 O1 1_555 1_555
O2 Cl1 1_555 1_555
O3 Cl1 1_555 1_555
N1 H1 1_555 1_555
C1 N1 1_555 1_555
H2 C1 1_555 1_555
H3 C1 1_555 1_555
C2 C1 1_555 1_555
H4 C2 1_555 1_555
H5 C2 1_555 1_555
C3 C2 1_555 1_555
H6 C3 1_555 1_555
C4 C3 1_555 1_555
C5 N1 1_555 1_555
H7 C5 1_555 1_555
C6 C4 1_555 1_555
H8 C6 1_555 1_555
H9 C6 1_555 1_555
O1F Cl1 1_555 1_555
C1F N1 1_555 1_555
H2F C1F 1_555 1_555
H3F C1F 1_555 1_555
C2F C3 1_555 1_555
H4F C2F 1_555 1_555
H5F C2F 1_555 1_555
H7F C5 1_555 1_555
C4 C5 1_555 1_555
C1F C2F 1_555 1_555

#END
