
#######################################################################
#
#                 Cambridge Crystallographic Data Centre
#                                CCDC 
#
#######################################################################
#
# If this CIF has been generated from an entry in the Cambridge 
# Structural Database, then it will include bibliographic, chemical, 
# crystal, experimental, refinement or atomic coordinate data resulting 
# from the CCDC's data processing and validation procedures.
#
#######################################################################

data_KIVKAE
_chemical_formula_moiety         'C14 H9 N3 S1'
_chemical_name_systematic        
2-(pyridin-2-yl)[1,3]thiazolo[3,2-a]benzimidazole
_symmetry_cell_setting           orthorhombic
_symmetry_space_group_name_H-M   'P c a 21'
_symmetry_Int_Tables_number      29
_space_group_name_Hall           'P 2c -2ac'
loop_
_symmetry_equiv_pos_site_id
_symmetry_equiv_pos_as_xyz
1 x,y,z
2 -x,-y,1/2+z
3 1/2+x,-y,z
4 1/2-x,y,1/2+z
_cell_length_a                   22.656(3)
_cell_length_b                   5.7765(7)
_cell_length_c                   17.163(2)
_cell_angle_alpha                90
_cell_angle_beta                 90
_cell_angle_gamma                90
_cell_volume                     2246.16
_exptl_crystal_colour            colorless
_exptl_crystal_description       Prism
_cell_formula_units_Z            8
loop_
_atom_site_label
_atom_site_type_symbol
_atom_site_fract_x
_atom_site_fract_y
_atom_site_fract_z
S1 S 0.61258(2) 0.36774(10) 0.92822(4)
N1 N 0.69257(9) 0.5703(4) 1.03453(12)
N2 N 0.52407(8) 0.6197(3) 0.89061(11)
N3 N 0.52173(9) 0.2871(4) 0.82090(13)
C1 C 0.73756(11) 0.6348(5) 1.08037(15)
H1 H 0.7699 0.5364 1.0848
C2 C 0.73824(12) 0.8397(5) 1.12122(14)
H2 H 0.7703 0.8788 1.1524
C3 C 0.69036(12) 0.9860(5) 1.11490(14)
H3 H 0.6898 1.1261 1.1416
C4 C 0.64318(13) 0.9217(5) 1.06841(14)
H4 H 0.6099 1.0154 1.0643
C5 C 0.64670(10) 0.7149(4) 1.02816(13)
C6 C 0.60146(10) 0.6383(4) 0.97321(14)
C7 C 0.55287(9) 0.7487(4) 0.94656(12)
H5 H 0.5404 0.8934 0.9638
C8 C 0.54910(10) 0.4082(4) 0.87378(14)
C9 C 0.47438(9) 0.6353(4) 0.84362(13)
C10 C 0.47420(10) 0.4280(4) 0.80107(14)
C11 C 0.42939(12) 0.3896(4) 0.74686(17)
H6 H 0.4285 0.2550 0.7172
C12 C 0.38667(11) 0.5567(5) 0.73867(15)
H7 H 0.3563 0.5324 0.7031
C13 C 0.38722(11) 0.7611(5) 0.78172(15)
H8 H 0.3574 0.8695 0.7745
C14 C 0.43168(10) 0.8051(4) 0.83521(14)
H9 H 0.4328 0.9415 0.8639
S2 S 0.26053(2) -0.10378(10) 0.93130(4)
N4 N 0.18174(10) 0.0939(4) 0.82261(13)
N5 N 0.35013(8) 0.1448(3) 0.96780(10)
N6 N 0.35155(9) -0.1863(4) 1.03853(13)
C15 C 0.13776(12) 0.1550(5) 0.77503(15)
H10 H 0.1065 0.0523 0.7687
C16 C 0.13599(12) 0.3608(5) 0.73489(16)
H11 H 0.1044 0.3961 0.7024
C17 C 0.18226(12) 0.5137(5) 0.74394(16)
H12 H 0.1825 0.6542 0.7175
C18 C 0.22845(11) 0.4545(5) 0.79318(14)
H13 H 0.2602 0.5544 0.8003
C19 C 0.22635(10) 0.2441(4) 0.83131(13)
C20 C 0.27176(10) 0.1683(4) 0.88610(12)
C21 C 0.32071(9) 0.2758(4) 0.91232(11)
H14 H 0.3333 0.4204 0.8952
C22 C 0.32379(10) -0.0666(4) 0.98501(13)
C23 C 0.39958(9) 0.1629(4) 1.01557(13)
C24 C 0.39908(10) -0.0458(4) 1.05879(13)
C25 C 0.44371(11) -0.0802(5) 1.11449(16)
H15 H 0.4451 -0.2151 1.1440
C26 C 0.48518(11) 0.0902(5) 1.12425(16)
H16 H 0.5145 0.0703 1.1616
C27 C 0.48484(10) 0.2928(5) 1.07979(16)
H17 H 0.5144 0.4022 1.0873
C28 C 0.44159(10) 0.3338(4) 1.02514(14)
H18 H 0.4407 0.4698 0.9961
loop_
_geom_bond_atom_site_label_1
_geom_bond_atom_site_label_2
_geom_bond_site_symmetry_1
_geom_bond_site_symmetry_2
S1 C6 1_555 1_555
N1 C1 1_555 1_555
N2 C7 1_555 1_555
N3 C8 1_555 1_555
C1 H1 1_555 1_555
C2 C1 1_555 1_555
H2 C2 1_555 1_555
C3 C2 1_555 1_555
H3 C3 1_555 1_555
C4 C3 1_555 1_555
H4 C4 1_555 1_555
C5 N1 1_555 1_555
C6 C5 1_555 1_555
C7 C6 1_555 1_555
H5 C7 1_555 1_555
C8 S1 1_555 1_555
C9 N2 1_555 1_555
C10 N3 1_555 1_555
C11 C10 1_555 1_555
H6 C11 1_555 1_555
C12 C11 1_555 1_555
H7 C12 1_555 1_555
C13 C12 1_555 1_555
H8 C13 1_555 1_555
C14 C9 1_555 1_555
H9 C14 1_555 1_555
S2 C20 1_555 1_555
N4 C15 1_555 1_555
N5 C21 1_555 1_555
N6 C22 1_555 1_555
C15 H10 1_555 1_555
C16 C15 1_555 1_555
H11 C16 1_555 1_555
C17 C16 1_555 1_555
H12 C17 1_555 1_555
C18 C17 1_555 1_555
H13 C18 1_555 1_555
C19 N4 1_555 1_555
C20 C19 1_555 1_555
C21 C20 1_555 1_555
H14 C21 1_555 1_555
C22 S2 1_555 1_555
C23 N5 1_555 1_555
C24 N6 1_555 1_555
C25 C24 1_555 1_555
H15 C25 1_555 1_555
C26 C25 1_555 1_555
H16 C26 1_555 1_555
C27 C26 1_555 1_555
H17 C27 1_555 1_555
C28 C23 1_555 1_555
H18 C28 1_555 1_555
N2 C8 1_555 1_555
C4 C5 1_555 1_555
C9 C10 1_555 1_555
C13 C14 1_555 1_555
N5 C22 1_555 1_555
C18 C19 1_555 1_555
C23 C24 1_555 1_555
C27 C28 1_555 1_555

#END
