
#######################################################################
#
#                 Cambridge Crystallographic Data Centre
#                                CCDC 
#
#######################################################################
#
# If this CIF has been generated from an entry in the Cambridge 
# Structural Database, then it will include bibliographic, chemical, 
# crystal, experimental, refinement or atomic coordinate data resulting 
# from the CCDC's data processing and validation procedures.
#
#######################################################################

data_KIVQEN
_chemical_formula_moiety         'C28 H26 N2 O4'
_chemical_name_systematic        
2,9-Dibutylisoindolo[5',6':5,6]cycloocta[1,2-f]isoindole-1,3,8,10(2H,9H)-tetrone
_symmetry_cell_setting           triclinic
_symmetry_space_group_name_H-M   'P -1'
_symmetry_Int_Tables_number      2
_space_group_name_Hall           '-P 1'
loop_
_symmetry_equiv_pos_site_id
_symmetry_equiv_pos_as_xyz
1 x,y,z
2 -x,-y,-z
_cell_length_a                   4.5989(7)
_cell_length_b                   15.949(2)
_cell_length_c                   16.229(2)
_cell_angle_alpha                72.109(5)
_cell_angle_beta                 89.344(6)
_cell_angle_gamma                86.388(6)
_cell_volume                     1130.51
_exptl_crystal_colour            colorless
_exptl_crystal_description       Prism
_cell_formula_units_Z            2
loop_
_atom_site_label
_atom_site_type_symbol
_atom_site_fract_x
_atom_site_fract_y
_atom_site_fract_z
O1 O 0.8985(2) 0.42081(7) 0.48444(7)
O2 O 0.7370(2) 1.09727(7) 0.32670(7)
O3 O 1.1288(2) 1.09978(7) 0.06587(7)
O4 O 1.2724(2) 0.45758(7) 0.21400(7)
C1 C 0.4045(3) 0.87514(9) 0.24058(9)
N1 N 1.1299(3) 0.42074(8) 0.35751(8)
C2 C 0.5120(3) 0.87978(9) 0.15791(9)
C3 C 0.7832(3) 1.00293(9) 0.15767(9)
C4 C 0.4631(3) 0.66344(9) 0.29073(9)
N2 N 0.9682(3) 1.11680(8) 0.19564(8)
C5 C 1.1572(3) 0.25790(10) 0.42338(10)
H1 H 0.9934 0.2659 0.4609
H2 H 1.0746 0.2470 0.3718
C6 C 0.4787(3) 0.93853(9) 0.27980(9)
H3 H 0.3995 0.9382 0.3342
C7 C 0.8939(3) 0.54451(9) 0.26444(10)
C8 C 0.7858(3) 0.53471(9) 0.34666(9)
C9 C 0.4347(3) 0.73627(10) 0.12840(10)
H4 H 0.3565 0.7121 0.0874
C10 C 0.6683(3) 1.00098(9) 0.23774(9)
C11 C 0.5706(3) 0.59266(9) 0.36106(10)
H5 H 0.4963 0.5849 0.4176
C12 C 0.2007(3) 0.80951(10) 0.28858(10)
H6 H 0.0263 0.8333 0.3070
C13 C 1.3216(3) 0.34166(10) 0.39484(11)
H7 H 1.4262 0.3480 0.4454
H8 H 1.4688 0.3364 0.3514
C14 C 0.7034(3) 0.94452(9) 0.11598(10)
H9 H 0.7761 0.9479 0.0601
C15 C 0.9346(3) 0.45443(9) 0.40740(10)
C16 C 0.2264(3) 0.72194(10) 0.30970(10)
H10 H 0.0689 0.6924 0.3419
C17 C 1.1216(3) 0.47191(10) 0.27049(10)
C18 C 0.5661(3) 0.67169(10) 0.20651(10)
C19 C 0.9810(3) 1.07659(9) 0.13043(9)
C20 C 0.7852(3) 1.07464(9) 0.26284(9)
C21 C 0.9628(3) 1.27936(10) 0.16849(10)
H11 H 1.0820 1.3251 0.1782
H12 H 0.7875 1.2757 0.2051
C22 C 0.7838(3) 0.61105(10) 0.19374(10)
H13 H 0.8538 0.6159 0.1373
C23 C 0.4108(3) 0.82376(10) 0.10760(10)
H14 H 0.3173 0.8541 0.0539
C24 C 1.1375(3) 1.19098(10) 0.19729(10)
H15 H 1.3080 1.1935 0.1590
H16 H 1.2115 1.1806 0.2569
C25 C 1.1914(4) 0.09440(10) 0.50311(11)
H17 H 1.0337 0.1020 0.5418
H18 H 1.3265 0.0452 0.5343
H19 H 1.1095 0.0818 0.4530
C26 C 1.3535(3) 0.17849(10) 0.47240(11)
H20 H 1.4395 0.1902 0.5231
H21 H 1.5150 0.1700 0.4343
C27 C 0.8675(4) 1.30796(10) 0.07379(11)
H22 H 1.0412 1.3082 0.0371
H23 H 0.7371 1.2644 0.0647
C28 C 0.7102(4) 1.39883(11) 0.04528(12)
H24 H 0.5304 1.3980 0.0785
H25 H 0.6623 1.4152 -0.0166
H26 H 0.8361 1.4420 0.0555
loop_
_geom_bond_atom_site_label_1
_geom_bond_atom_site_label_2
_geom_bond_site_symmetry_1
_geom_bond_site_symmetry_2
O1 C15 1_555 1_555
O2 C20 1_555 1_555
O3 C19 1_555 1_555
O4 C17 1_555 1_555
C1 C2 1_555 1_555
N1 C13 1_555 1_555
C2 C14 1_555 1_555
C3 C10 1_555 1_555
C4 C11 1_555 1_555
N2 C19 1_555 1_555
C5 H1 1_555 1_555
H2 C5 1_555 1_555
C6 C1 1_555 1_555
H3 C6 1_555 1_555
C7 C8 1_555 1_555
C8 C11 1_555 1_555
C9 H4 1_555 1_555
C10 C6 1_555 1_555
C11 H5 1_555 1_555
C12 C1 1_555 1_555
H6 C12 1_555 1_555
C13 C5 1_555 1_555
H7 C13 1_555 1_555
H8 C13 1_555 1_555
C14 C3 1_555 1_555
H9 C14 1_555 1_555
C15 N1 1_555 1_555
C16 C4 1_555 1_555
H10 C16 1_555 1_555
C17 N1 1_555 1_555
C18 C4 1_555 1_555
C19 C3 1_555 1_555
C20 N2 1_555 1_555
C21 H11 1_555 1_555
H12 C21 1_555 1_555
C22 C7 1_555 1_555
H13 C22 1_555 1_555
C23 C2 1_555 1_555
H14 C23 1_555 1_555
C24 N2 1_555 1_555
H15 C24 1_555 1_555
H16 C24 1_555 1_555
C25 H17 1_555 1_555
H18 C25 1_555 1_555
H19 C25 1_555 1_555
C26 C5 1_555 1_555
H20 C26 1_555 1_555
H21 C26 1_555 1_555
C27 C21 1_555 1_555
H22 C27 1_555 1_555
H23 C27 1_555 1_555
C28 C27 1_555 1_555
H24 C28 1_555 1_555
H25 C28 1_555 1_555
H26 C28 1_555 1_555
C7 C17 1_555 1_555
C8 C15 1_555 1_555
C9 C18 1_555 1_555
C9 C23 1_555 1_555
C10 C20 1_555 1_555
C12 C16 1_555 1_555
C18 C22 1_555 1_555
C21 C24 1_555 1_555
C25 C26 1_555 1_555

#END
