
#######################################################################
#
#                 Cambridge Crystallographic Data Centre
#                                CCDC 
#
#######################################################################
#
# If this CIF has been generated from an entry in the Cambridge 
# Structural Database, then it will include bibliographic, chemical, 
# crystal, experimental, refinement or atomic coordinate data resulting 
# from the CCDC's data processing and validation procedures.
#
#######################################################################

data_KIVRAL
_chemical_formula_moiety         'C23 H16 Cl1 N1 O2 S1'
_chemical_name_systematic        
7-chloro-5-[(4-methylphenyl)sulfonyl]-5H-benzo[b]carbazole
_symmetry_cell_setting           triclinic
_symmetry_space_group_name_H-M   'P -1'
_symmetry_Int_Tables_number      2
_space_group_name_Hall           '-P 1'
loop_
_symmetry_equiv_pos_site_id
_symmetry_equiv_pos_as_xyz
1 x,y,z
2 -x,-y,-z
_cell_length_a                   8.2237(16)
_cell_length_b                   10.741(2)
_cell_length_c                   11.034(2)
_cell_angle_alpha                70.22(3)
_cell_angle_beta                 85.71(3)
_cell_angle_gamma                76.91(3)
_cell_volume                     893.304
_exptl_crystal_colour            colorless
_exptl_crystal_description       block
_cell_formula_units_Z            2
loop_
_atom_site_label
_atom_site_type_symbol
_atom_site_fract_x
_atom_site_fract_y
_atom_site_fract_z
S1 S 0.19329(5) 0.34889(4) 0.74287(4)
Cl1 Cl 0.67441(5) -0.03489(5) 0.59767(4)
O1 O 0.13345(15) 0.46118(11) 0.78719(12)
O2 O 0.34726(14) 0.33849(12) 0.67382(11)
N1 N 0.21683(16) 0.21121(13) 0.87237(13)
C1 C 0.03592(19) 0.33613(15) 0.65179(15)
C2 C -0.1298(2) 0.39060(17) 0.67249(16)
H1 H -0.157427 0.435409 0.734547
C3 C -0.2541(2) 0.37882(17) 0.60174(17)
H2 H -0.367351 0.415482 0.616211
C4 C -0.2164(2) 0.31434(16) 0.50984(16)
C5 C -0.0494(2) 0.25958(17) 0.49196(16)
H3 H -0.021669 0.214281 0.430281
C6 C 0.0766(2) 0.26964(17) 0.56186(16)
H4 H 0.189792 0.231550 0.548578
C7 C -0.3521(2) 0.30873(18) 0.42903(17)
H5 H -0.455351 0.304569 0.479311
H6 H -0.318628 0.228018 0.402839
H7 H -0.370857 0.389929 0.352282
C8 C 0.11235(19) 0.19603(16) 0.98407(15)
C9 C -0.0002(2) 0.29263(17) 1.02308(16)
H8 H -0.019976 0.385902 0.972593
C10 C -0.0829(2) 0.24748(18) 1.13888(17)
H9 H -0.161360 0.311353 1.167506
C11 C -0.0538(2) 0.11104(18) 1.21422(17)
H10 H -0.112958 0.083134 1.292627
C12 C 0.0606(2) 0.01630(17) 1.17540(16)
H11 H 0.081877 -0.076573 1.227226
C13 C 0.14390(19) 0.05848(16) 1.05977(15)
C14 C 0.26756(18) -0.01429(15) 0.99376(15)
C15 C 0.34427(19) -0.14917(16) 1.02589(16)
H12 H 0.319067 -0.212361 1.105095
C16 C 0.46065(19) -0.19281(16) 0.94021(16)
C17 C 0.5417(2) -0.33157(17) 0.97090(18)
H13 H 0.517433 -0.395426 1.049961
C18 C 0.6536(2) -0.37382(18) 0.88832(19)
H14 H 0.705699 -0.467046 0.909808
C19 C 0.6931(2) -0.28106(18) 0.77156(18)
H15 H 0.771724 -0.311365 0.714536
C20 C 0.6178(2) -0.14708(17) 0.74037(16)
C21 C 0.49789(19) -0.09645(16) 0.82206(15)
C22 C 0.42093(19) 0.04234(16) 0.79073(15)
H16 H 0.446336 0.107219 0.712776
C23 C 0.30817(19) 0.08019(15) 0.87688(15)
loop_
_geom_bond_atom_site_label_1
_geom_bond_atom_site_label_2
_geom_bond_site_symmetry_1
_geom_bond_site_symmetry_2
S1 O1 1_555 1_555
Cl1 C20 1_555 1_555
O2 S1 1_555 1_555
N1 S1 1_555 1_555
C1 S1 1_555 1_555
C2 C1 1_555 1_555
H1 C2 1_555 1_555
C3 C2 1_555 1_555
H2 C3 1_555 1_555
C4 C3 1_555 1_555
C5 C4 1_555 1_555
H3 C5 1_555 1_555
C6 C1 1_555 1_555
H4 C6 1_555 1_555
C7 C4 1_555 1_555
H5 C7 1_555 1_555
H6 C7 1_555 1_555
H7 C7 1_555 1_555
C8 N1 1_555 1_555
C9 C8 1_555 1_555
H8 C9 1_555 1_555
C10 C9 1_555 1_555
H9 C10 1_555 1_555
C11 C10 1_555 1_555
H10 C11 1_555 1_555
C12 C11 1_555 1_555
H11 C12 1_555 1_555
C13 C8 1_555 1_555
C14 C13 1_555 1_555
C15 C14 1_555 1_555
H12 C15 1_555 1_555
C16 C15 1_555 1_555
C17 C16 1_555 1_555
H13 C17 1_555 1_555
C18 C17 1_555 1_555
H14 C18 1_555 1_555
C19 C18 1_555 1_555
H15 C19 1_555 1_555
C20 C19 1_555 1_555
C21 C16 1_555 1_555
C22 C21 1_555 1_555
H16 C22 1_555 1_555
C23 N1 1_555 1_555
C5 C6 1_555 1_555
C12 C13 1_555 1_555
C14 C23 1_555 1_555
C20 C21 1_555 1_555
C22 C23 1_555 1_555

#END
