
#######################################################################
#
#                 Cambridge Crystallographic Data Centre
#                                CCDC 
#
#######################################################################
#
# If this CIF has been generated from an entry in the Cambridge 
# Structural Database, then it will include bibliographic, chemical, 
# crystal, experimental, refinement or atomic coordinate data resulting 
# from the CCDC's data processing and validation procedures.
#
#######################################################################

data_KIVREO
_chemical_formula_moiety         'C60 H50 N2 O4,0.67(C4 H8 O1),1.33(C3 H8 O1)'
_chemical_name_systematic        
"2,13-bis(2,6-diisopropylphenyl)pyrrolo[3''',4''':6'',7'']anthra[2'',3'':5',6']cycloocta[1',2':6,7]naphtho[2,3-f]isoindole-1,3,12,14(2H,13H)-tetrone propan-2-ol tetrahydrofuran solvate"
_symmetry_cell_setting           monoclinic
_symmetry_space_group_name_H-M   'P 21/c'
_symmetry_Int_Tables_number      14
_space_group_name_Hall           '-P 2ybc'
loop_
_symmetry_equiv_pos_site_id
_symmetry_equiv_pos_as_xyz
1 x,y,z
2 -x,1/2+y,1/2-z
3 -x,-y,-z
4 x,1/2-y,1/2+z
_cell_length_a                   12.9053(2)
_cell_length_b                   27.7235(5)
_cell_length_c                   15.4324(3)
_cell_angle_alpha                90
_cell_angle_beta                 102.3960(7)
_cell_angle_gamma                90
_cell_volume                     5392.69
_exptl_crystal_colour            yellow
_exptl_crystal_description       Platelet
_cell_formula_units_Z            4
loop_
_atom_site_label
_atom_site_type_symbol
_atom_site_fract_x
_atom_site_fract_y
_atom_site_fract_z
C1 C 0.9954(2) 0.04117(10) -0.34389(17)
H1 H 1.0496 0.0178 -0.3421
C2 C 0.9532(2) 0.05989(10) -0.42325(17)
H2 H 0.9822 0.0491 -0.4715
C3 C 0.8667(2) 0.09537(10) -0.44430(16)
C4 C 0.8736(2) 0.14306(10) -0.40576(17)
C5 C 0.9705(2) 0.16076(10) -0.34454(18)
H3 H 1.0039 0.1882 -0.3634
C6 C 1.0159(2) 0.14240(10) -0.26591(18)
H4 H 1.0794 0.1574 -0.2352
C7 C 0.9771(2) 0.10097(10) -0.22181(16)
C8 C 0.9669(2) 0.05290(10) -0.25830(16)
C9 C 0.7780(2) 0.08263(10) -0.50559(16)
H5 H 0.7762 0.0521 -0.5337
C10 C 0.6880(2) 0.11341(9) -0.52892(16)
C11 C 0.6943(2) 0.16064(10) -0.49111(16)
C12 C 0.7893(2) 0.17405(10) -0.43098(18)
H6 H 0.7950 0.2058 -0.4072
C13 C 0.9550(2) 0.10872(11) -0.13989(18)
H7 H 0.9633 0.1403 -0.1156
C14 C 0.9207(2) 0.07202(11) -0.09064(18)
C15 C 0.9107(2) 0.02385(10) -0.12655(17)
C16 C 0.9355(2) 0.01602(10) -0.21027(16)
H8 H 0.9304 -0.0157 -0.2341
C17 C 0.5943(2) 0.09831(9) -0.58583(16)
H9 H 0.5903 0.0667 -0.6102
C18 C 0.5064(2) 0.12895(9) -0.60759(15)
C19 C 0.5137(2) 0.17743(9) -0.57264(16)
C20 C 0.6075(2) 0.19198(10) -0.51439(18)
H10 H 0.6123 0.2236 -0.4903
C21 C 0.8947(2) 0.08166(11) -0.00880(19)
H11 H 0.8999 0.1136 0.0141
C22 C 0.8605(2) 0.04358(11) 0.03972(18)
C23 C 0.8494(2) -0.00464(10) 0.00332(17)
C24 C 0.8765(2) -0.01282(11) -0.07818(18)
H12 H 0.8712 -0.0447 -0.1015
C25 C 0.4109(2) 0.11304(9) -0.66407(16)
H13 H 0.4044 0.0810 -0.6863
C26 C 0.3287(2) 0.14476(9) -0.68579(16)
C27 C 0.3366(2) 0.19291(9) -0.65435(16)
C28 C 0.4258(2) 0.20942(10) -0.59839(17)
H14 H 0.4295 0.2416 -0.5769
C29 C 0.8283(2) 0.05334(10) 0.12052(17)
H15 H 0.8380 0.0844 0.1469
C30 C 0.7835(2) 0.01737(10) 0.15895(16)
C31 C 0.7708(2) -0.02964(10) 0.12277(17)
C32 C 0.8032(2) -0.04147(10) 0.04729(17)
H16 H 0.7952 -0.0734 0.0245
C33 C 0.2234(2) 0.13827(9) -0.74469(16)
N1 N 0.17209(17) 0.18267(8) -0.74659(14)
C34 C 0.2366(2) 0.21814(10) -0.69488(17)
O1 O 0.18519(16) 0.10250(7) -0.78435(13)
O2 O 0.21059(16) 0.25944(7) -0.68915(14)
C35 C 0.7308(2) 0.01892(10) 0.23516(17)
N2 N 0.68802(18) -0.02683(8) 0.24137(14)
C36 C 0.7087(2) -0.05823(10) 0.17502(19)
O3 O 0.72228(17) 0.05249(7) 0.28343(12)
O4 O 0.6771(2) -0.09893(8) 0.16416(15)
C37 C 0.0717(2) 0.19222(9) -0.80506(17)
C38 C 0.0707(2) 0.20399(9) -0.89294(18)
C39 C -0.0284(3) 0.21058(10) -0.94959(19)
H17 H -0.0319 0.2187 -1.0100
C40 C -0.1209(3) 0.20552(11) -0.9197(2)
H18 H -0.1873 0.2096 -0.9597
C41 C -0.1177(2) 0.19466(11) -0.8326(2)
H19 H -0.1822 0.1915 -0.8129
C42 C -0.0210(2) 0.18812(10) -0.77234(18)
C43 C 0.1719(3) 0.21003(11) -0.92631(19)
H20 H 0.2313 0.1953 -0.8818
C44 C 0.1969(3) 0.26371(12) -0.9351(3)
H21 H 0.1377 0.2793 -0.9759
H22 H 0.2616 0.2670 -0.9582
H23 H 0.2074 0.2792 -0.8767
C45 C 0.1661(3) 0.18475(14) -1.0148(3)
H24 H 0.1450 0.1511 -1.0101
H25 H 0.2358 0.1859 -1.0304
H26 H 0.1137 0.2010 -1.0610
C46 C -0.0175(3) 0.17583(13) -0.6757(2)
H27 H 0.0530 0.1865 -0.6402
C47 C -0.0261(3) 0.12162(14) -0.6627(2)
H28 H -0.0967 0.1105 -0.6931
H29 H -0.0152 0.1144 -0.5992
H30 H 0.0280 0.1050 -0.6875
C48 C -0.1032(3) 0.20186(17) -0.6391(3)
H31 H -0.1068 0.2357 -0.6580
H32 H -0.0859 0.2003 -0.5741
H33 H -0.1719 0.1863 -0.6616
C49 C 0.6025(2) -0.03417(10) 0.28766(18)
C50 C 0.5000(2) -0.02492(11) 0.2407(2)
C51 C 0.4172(3) -0.02954(12) 0.2869(2)
H34 H 0.3460 -0.0235 0.2571
C52 C 0.4396(3) -0.04270(13) 0.3746(2)
H35 H 0.3832 -0.0459 0.4049
C53 C 0.5425(3) -0.05138(12) 0.4198(2)
H36 H 0.5556 -0.0601 0.4807
C54 C 0.6274(2) -0.04757(10) 0.37732(19)
C55 C 0.4742(3) -0.00998(12) 0.1432(2)
H37 H 0.5426 -0.0082 0.1228
C56 C 0.4043(3) -0.04773(13) 0.0859(2)
H38 H 0.3373 -0.0510 0.1056
H39 H 0.4412 -0.0788 0.0917
H40 H 0.3896 -0.0375 0.0237
C57 C 0.4238(3) 0.03982(12) 0.1313(2)
H41 H 0.3573 0.0395 0.1523
H42 H 0.4090 0.0486 0.0683
H43 H 0.4725 0.0634 0.1655
C58 C 0.7398(2) -0.05964(11) 0.4247(2)
H44 H 0.7887 -0.0384 0.3996
C59 C 0.7643(3) -0.11163(12) 0.4045(3)
H45 H 0.7144 -0.1333 0.4250
H46 H 0.8369 -0.1196 0.4351
H47 H 0.7572 -0.1155 0.3404
C60 C 0.7633(3) -0.05157(13) 0.5249(2)
H48 H 0.7403 -0.0191 0.5375
H49 H 0.8396 -0.0549 0.5488
H50 H 0.7249 -0.0755 0.5526
C61 C 0.5597(4) 0.15701(19) 0.0893(3)
H51 H 0.5712 0.1224 0.0757
C62 C 0.4469(5) 0.1689(2) 0.0635(6)
H52 H 0.4341 0.2001 0.0895
H53 H 0.4053 0.1438 0.0851
H54 H 0.4257 0.1709 -0.0013
C63 C 0.5908(5) 0.1654(2) 0.1847(3)
H55 H 0.6647 0.1556 0.2061
H56 H 0.5449 0.1466 0.2150
H57 H 0.5834 0.1998 0.1969
O5 O 0.6162(3) 0.18624(16) 0.0446(3)
H58 H 0.5926 0.1833 -0.0103
C64 C 0.6713(10) 0.1934(8) 0.8371(9)
H59 H 0.7267 0.1743 0.8767
H60 H 0.6935 0.2277 0.8395
C65 C 0.6507(8) 0.1742(5) 0.7421(8)
H61 H 0.6746 0.1980 0.7026
H62 H 0.6900 0.1437 0.7399
C66 C 0.5330(8) 0.1657(4) 0.7129(6)
H63 H 0.5043 0.1814 0.6550
H64 H 0.5168 0.1308 0.7078
C67 C 0.4887(7) 0.1882(3) 0.7848(5)
H65 H 0.4645 0.2215 0.7686
H66 H 0.4280 0.1692 0.7961
O6 O 0.5731(5) 0.1882(3) 0.8605(3)
O7? O 0.5018(8) 0.1674(4) 0.8594(6)
H67? H 0.4741 0.1404 0.8645
C68? C 0.6650(8) 0.1838(11) 0.8157(13)
H68? H 0.7129 0.1609 0.7961
H69? H 0.6820 0.1858 0.8806
H70? H 0.6736 0.2157 0.7908
C69? C 0.5498(11) 0.1669(5) 0.7838(8)
H71? H 0.5487 0.1334 0.7596
C70? C 0.4875(13) 0.2005(5) 0.7135(7)
H72? H 0.4117 0.1979 0.7133
H73? H 0.4996 0.1913 0.6551
H74? H 0.5111 0.2337 0.7269
loop_
_geom_bond_atom_site_label_1
_geom_bond_atom_site_label_2
_geom_bond_site_symmetry_1
_geom_bond_site_symmetry_2
C1 H1 1_555 1_555
C2 C1 1_555 1_555
H2 C2 1_555 1_555
C3 C2 1_555 1_555
C4 C3 1_555 1_555
C5 C4 1_555 1_555
H3 C5 1_555 1_555
C6 C5 1_555 1_555
H4 C6 1_555 1_555
C7 C6 1_555 1_555
C8 C1 1_555 1_555
C9 C3 1_555 1_555
H5 C9 1_555 1_555
C10 C9 1_555 1_555
C11 C10 1_555 1_555
C12 C4 1_555 1_555
H6 C12 1_555 1_555
C13 C7 1_555 1_555
H7 C13 1_555 1_555
C14 C13 1_555 1_555
C15 C14 1_555 1_555
C16 C8 1_555 1_555
H8 C16 1_555 1_555
C17 C10 1_555 1_555
H9 C17 1_555 1_555
C18 C17 1_555 1_555
C19 C18 1_555 1_555
C20 C11 1_555 1_555
H10 C20 1_555 1_555
C21 C14 1_555 1_555
H11 C21 1_555 1_555
C22 C21 1_555 1_555
C23 C22 1_555 1_555
C24 C15 1_555 1_555
H12 C24 1_555 1_555
C25 C18 1_555 1_555
H13 C25 1_555 1_555
C26 C25 1_555 1_555
C27 C26 1_555 1_555
C28 C19 1_555 1_555
H14 C28 1_555 1_555
C29 C22 1_555 1_555
H15 C29 1_555 1_555
C30 C29 1_555 1_555
C31 C30 1_555 1_555
C32 C23 1_555 1_555
H16 C32 1_555 1_555
C33 C26 1_555 1_555
N1 C33 1_555 1_555
C34 C27 1_555 1_555
O1 C33 1_555 1_555
O2 C34 1_555 1_555
C35 C30 1_555 1_555
N2 C35 1_555 1_555
C36 C31 1_555 1_555
O3 C35 1_555 1_555
O4 C36 1_555 1_555
C37 N1 1_555 1_555
C38 C37 1_555 1_555
C39 C38 1_555 1_555
H17 C39 1_555 1_555
C40 C39 1_555 1_555
H18 C40 1_555 1_555
C41 C40 1_555 1_555
H19 C41 1_555 1_555
C42 C37 1_555 1_555
C43 C38 1_555 1_555
H20 C43 1_555 1_555
C44 C43 1_555 1_555
H21 C44 1_555 1_555
H22 C44 1_555 1_555
H23 C44 1_555 1_555
C45 C43 1_555 1_555
H24 C45 1_555 1_555
H25 C45 1_555 1_555
H26 C45 1_555 1_555
C46 C42 1_555 1_555
H27 C46 1_555 1_555
C47 C46 1_555 1_555
H28 C47 1_555 1_555
H29 C47 1_555 1_555
H30 C47 1_555 1_555
C48 C46 1_555 1_555
H31 C48 1_555 1_555
H32 C48 1_555 1_555
H33 C48 1_555 1_555
C49 N2 1_555 1_555
C50 C49 1_555 1_555
C51 C50 1_555 1_555
H34 C51 1_555 1_555
C52 C51 1_555 1_555
H35 C52 1_555 1_555
C53 C52 1_555 1_555
H36 C53 1_555 1_555
C54 C49 1_555 1_555
C55 C50 1_555 1_555
H37 C55 1_555 1_555
C56 C55 1_555 1_555
H38 C56 1_555 1_555
H39 C56 1_555 1_555
H40 C56 1_555 1_555
C57 C55 1_555 1_555
H41 C57 1_555 1_555
H42 C57 1_555 1_555
H43 C57 1_555 1_555
C58 C54 1_555 1_555
H44 C58 1_555 1_555
C59 C58 1_555 1_555
H45 C59 1_555 1_555
H46 C59 1_555 1_555
H47 C59 1_555 1_555
C60 C58 1_555 1_555
H48 C60 1_555 1_555
H49 C60 1_555 1_555
H50 C60 1_555 1_555
C61 H51 1_555 1_555
C62 C61 1_555 1_555
H52 C62 1_555 1_555
H53 C62 1_555 1_555
H54 C62 1_555 1_555
C63 C61 1_555 1_555
H55 C63 1_555 1_555
H56 C63 1_555 1_555
H57 C63 1_555 1_555
O5 C61 1_555 1_555
H58 O5 1_555 1_555
C64 H59 1_555 1_555
H60 C64 1_555 1_555
C65 C64 1_555 1_555
H61 C65 1_555 1_555
H62 C65 1_555 1_555
C66 C65 1_555 1_555
H63 C66 1_555 1_555
H64 C66 1_555 1_555
C67 C66 1_555 1_555
H65 C67 1_555 1_555
H66 C67 1_555 1_555
O6 C64 1_555 1_555
C7 C8 1_555 1_555
C11 C12 1_555 1_555
C15 C16 1_555 1_555
C19 C20 1_555 1_555
C23 C24 1_555 1_555
C27 C28 1_555 1_555
C31 C32 1_555 1_555
N1 C34 1_555 1_555
N2 C36 1_555 1_555
C41 C42 1_555 1_555
C53 C54 1_555 1_555
C67 O6 1_555 1_555

#END
