
#######################################################################
#
#                 Cambridge Crystallographic Data Centre
#                                CCDC 
#
#######################################################################
#
# If this CIF has been generated from an entry in the Cambridge 
# Structural Database, then it will include bibliographic, chemical, 
# crystal, experimental, refinement or atomic coordinate data resulting 
# from the CCDC's data processing and validation procedures.
#
#######################################################################

data_KIVREP
_chemical_formula_moiety         'C23 H16 Cl1 N1 O2 S1'
_chemical_name_systematic        
11-chloro-5-[(4-methylphenyl)sulfonyl]-5H-benzo[b]carbazole
_symmetry_cell_setting           triclinic
_symmetry_space_group_name_H-M   'P -1'
_symmetry_Int_Tables_number      2
_space_group_name_Hall           '-P 1'
loop_
_symmetry_equiv_pos_site_id
_symmetry_equiv_pos_as_xyz
1 x,y,z
2 -x,-y,-z
_cell_length_a                   8.3122(17)
_cell_length_b                   9.4570(19)
_cell_length_c                   13.042(3)
_cell_angle_alpha                104.29(3)
_cell_angle_beta                 93.15(3)
_cell_angle_gamma                115.00(3)
_cell_volume                     885.48
_exptl_crystal_colour            colorless
_exptl_crystal_description       block
_cell_formula_units_Z            2
loop_
_atom_site_label
_atom_site_type_symbol
_atom_site_fract_x
_atom_site_fract_y
_atom_site_fract_z
Cl1 Cl 0.38738(6) 1.30456(5) 1.10777(3)
S1 S 0.26453(6) 0.68783(5) 0.69166(3)
O1 O 0.40715(17) 0.70008(15) 0.63277(10)
O2 O 0.18126(18) 0.55334(14) 0.73339(10)
N1 N 0.34945(19) 0.85569(17) 0.79671(11)
C1 C 0.0954(2) 0.7022(2) 0.61409(12)
C2 C -0.0806(2) 0.6324(2) 0.63116(14)
H1 H -0.110141 0.575140 0.683247
C3 C -0.2131(2) 0.6467(2) 0.57183(14)
H2 H -0.333509 0.599940 0.584187
C4 C -0.1726(2) 0.7285(2) 0.49428(13)
C5 C 0.0043(2) 0.7964(2) 0.47878(14)
H3 H 0.033952 0.853185 0.426429
C6 C 0.1393(2) 0.7841(2) 0.53725(14)
H4 H 0.259796 0.830986 0.524987
C7 C -0.3201(3) 0.7367(2) 0.42711(16)
H5 H -0.361229 0.650202 0.358239
H6 H -0.273542 0.843499 0.414015
H7 H -0.421516 0.721859 0.465425
C8 C 0.4662(2) 1.0148(2) 0.79019(13)
C9 C 0.5744(2) 1.0576(2) 0.71481(14)
H8 H 0.577774 0.976713 0.656176
C10 C 0.6775(2) 1.2230(2) 0.72825(15)
H9 H 0.752481 1.255708 0.677656
C11 C 0.6735(2) 1.3412(2) 0.81377(14)
H10 H 0.743891 1.453434 0.820140
C12 C 0.5684(2) 1.2982(2) 0.89021(14)
H11 H 0.567896 1.379854 0.949498
C13 C 0.4635(2) 1.1331(2) 0.87853(13)
C14 C 0.3413(2) 1.04649(19) 0.94265(13)
C15 C 0.2910(2) 1.0977(2) 1.03741(13)
C16 C 0.1610(2) 0.9840(2) 1.08062(13)
C17 C 0.1005(2) 1.0325(2) 1.17670(14)
H12 H 0.149610 1.145180 1.215553
C18 C -0.0266(2) 0.9201(2) 1.21389(14)
H13 H -0.067285 0.955000 1.277556
C19 C -0.0991(3) 0.7513(2) 1.15856(15)
H14 H -0.187389 0.673235 1.185280
C20 C -0.0417(2) 0.7010(2) 1.06678(14)
H15 H -0.089775 0.587362 1.030742
C21 C 0.0880(2) 0.8145(2) 1.02391(13)
C22 C 0.1448(2) 0.7606(2) 0.92771(13)
H16 H 0.098596 0.647411 0.890906
C23 C 0.2682(2) 0.8760(2) 0.88925(13)
loop_
_geom_bond_atom_site_label_1
_geom_bond_atom_site_label_2
_geom_bond_site_symmetry_1
_geom_bond_site_symmetry_2
Cl1 C15 1_555 1_555
S1 O1 1_555 1_555
O2 S1 1_555 1_555
N1 S1 1_555 1_555
C1 S1 1_555 1_555
C2 C1 1_555 1_555
H1 C2 1_555 1_555
C3 C2 1_555 1_555
H2 C3 1_555 1_555
C4 C3 1_555 1_555
C5 C4 1_555 1_555
H3 C5 1_555 1_555
C6 C1 1_555 1_555
H4 C6 1_555 1_555
C7 C4 1_555 1_555
H5 C7 1_555 1_555
H6 C7 1_555 1_555
H7 C7 1_555 1_555
C8 N1 1_555 1_555
C9 C8 1_555 1_555
H8 C9 1_555 1_555
C10 C9 1_555 1_555
H9 C10 1_555 1_555
C11 C10 1_555 1_555
H10 C11 1_555 1_555
C12 C11 1_555 1_555
H11 C12 1_555 1_555
C13 C8 1_555 1_555
C14 C13 1_555 1_555
C15 C14 1_555 1_555
C16 C15 1_555 1_555
C17 C16 1_555 1_555
H12 C17 1_555 1_555
C18 C17 1_555 1_555
H13 C18 1_555 1_555
C19 C18 1_555 1_555
H14 C19 1_555 1_555
C20 C19 1_555 1_555
H15 C20 1_555 1_555
C21 C16 1_555 1_555
C22 C21 1_555 1_555
H16 C22 1_555 1_555
C23 N1 1_555 1_555
C5 C6 1_555 1_555
C12 C13 1_555 1_555
C14 C23 1_555 1_555
C20 C21 1_555 1_555
C22 C23 1_555 1_555

#END
