
#######################################################################
#
#                 Cambridge Crystallographic Data Centre
#                                CCDC 
#
#######################################################################
#
# If this CIF has been generated from an entry in the Cambridge 
# Structural Database, then it will include bibliographic, chemical, 
# crystal, experimental, refinement or atomic coordinate data resulting 
# from the CCDC's data processing and validation procedures.
#
#######################################################################

data_KIWBAT
_chemical_formula_moiety         'C20 H14 N2 S1'
_chemical_name_systematic        2-Benzyl-10H-phenothiazine-1-carbonitrile
_symmetry_cell_setting           monoclinic
_symmetry_space_group_name_H-M   'P 21/n'
_symmetry_Int_Tables_number      14
_space_group_name_Hall           '-P 2yn'
loop_
_symmetry_equiv_pos_site_id
_symmetry_equiv_pos_as_xyz
1 x,y,z
2 1/2-x,1/2+y,1/2-z
3 -x,-y,-z
4 1/2+x,1/2-y,1/2+z
_cell_length_a                   16.018(7)
_cell_length_b                   4.516(2)
_cell_length_c                   20.994(8)
_cell_angle_alpha                90
_cell_angle_beta                 100.11(1)
_cell_angle_gamma                90
_cell_volume                     1495.07
_exptl_crystal_colour            'dark brown'
_exptl_crystal_description       needles
_chemical_melting_point          166.0-166.5deg.C
_cell_formula_units_Z            4
loop_
_atom_site_label
_atom_site_type_symbol
_atom_site_fract_x
_atom_site_fract_y
_atom_site_fract_z
S1 S 0.6670(1) 0.0527(5) 0.8679(1)
C1 C 0.6066(4) 0.2231(21) 0.9733(3)
C2 C 0.6103(4) 0.3672(25) 1.0310(4)
C3 C 0.6857(4) 0.4814(22) 1.0618(3)
C4 C 0.7564(4) 0.4594(19) 1.0345(3)
N1 N 0.8268(3) 0.3003(12) 0.9492(2)
C5 C 0.9200(3) 0.0275(15) 0.8927(3)
C6 C 0.9351(4) -0.1769(14) 0.8466(3)
C7 C 0.8661(4) -0.3124(16) 0.8107(3)
C8 C 0.7859(4) -0.2535(16) 0.8208(3)
C9 C 0.6774(4) 0.2081(17) 0.9453(3)
C10 C 0.7537(3) 0.3157(16) 0.9761(3)
C11 C 0.8385(3) 0.0940(14) 0.9038(3)
C12 C 0.7707(3) -0.0432(16) 0.8648(3)
C13 C 0.9906(4) 0.1725(16) 0.9313(3)
N2 N 1.0461(3) 0.2876(15) 0.9619(2)
C14 C 1.0224(3) -0.2403(17) 0.8359(3)
C15 C 1.0573(3) -0.0247(15) 0.7930(3)
C16 C 1.1376(4) 0.0890(16) 0.8106(3)
C17 C 1.1704(4) 0.2814(18) 0.7713(3)
C18 C 1.1236(4) 0.3580(18) 0.7127(3)
C19 C 1.0444(4) 0.2477(18) 0.6949(3)
C20 C 1.0108(4) 0.0565(16) 0.7341(3)
H1 H 0.5551 0.1292 0.9526
H2 H 0.5601 0.3918 1.0496
H3 H 0.6892 0.5758 1.1031
H4 H 0.8086 0.5469 1.0556
H5 H 0.8817 0.3981 0.9782
H6 H 0.8743 -0.4548 0.7784
H7 H 0.7388 -0.3579 0.7961
H8 H 1.0221 -0.4328 0.8164
H9 H 1.0598 -0.2481 0.8769
H10 H 1.1713 0.0290 0.8510
H11 H 1.2263 0.3607 0.7847
H12 H 1.1461 0.4933 0.6848
H13 H 1.0113 0.3025 0.6540
H14 H 0.9547 -0.0216 0.7206
loop_
_geom_bond_atom_site_label_1
_geom_bond_atom_site_label_2
_geom_bond_site_symmetry_1
_geom_bond_site_symmetry_2
S1 C9 1_555 1_555
C1 C2 1_555 1_555
C2 C3 1_555 1_555
C3 C4 1_555 1_555
C4 C10 1_555 1_555
N1 C10 1_555 1_555
C5 C6 1_555 1_555
C6 C7 1_555 1_555
C7 C8 1_555 1_555
C8 C12 1_555 1_555
C9 C1 1_555 1_555
C10 C9 1_555 1_555
C11 N1 1_555 1_555
C12 S1 1_555 1_555
C13 C5 1_555 1_555
N2 C13 1_555 1_555
C14 C6 1_555 1_555
C15 C14 1_555 1_555
C16 C15 1_555 1_555
C17 C16 1_555 1_555
C18 C17 1_555 1_555
C19 C18 1_555 1_555
C20 C15 1_555 1_555
H1 C1 1_555 1_555
H2 C2 1_555 1_555
H3 C3 1_555 1_555
H4 C4 1_555 1_555
H5 N1 1_555 1_555
H6 C7 1_555 1_555
H7 C8 1_555 1_555
H8 C14 1_555 1_555
H9 C14 1_555 1_555
H10 C16 1_555 1_555
H11 C17 1_555 1_555
H12 C18 1_555 1_555
H13 C19 1_555 1_555
H14 C20 1_555 1_555
C5 C11 1_555 1_555
C11 C12 1_555 1_555
C19 C20 1_555 1_555

#END
