
#######################################################################
#
#                 Cambridge Crystallographic Data Centre
#                                CCDC 
#
#######################################################################
#
# If this CIF has been generated from an entry in the Cambridge 
# Structural Database, then it will include bibliographic, chemical, 
# crystal, experimental, refinement or atomic coordinate data resulting 
# from the CCDC's data processing and validation procedures.
#
#######################################################################

data_KIWCAW
_chemical_formula_moiety         'C13 H18 O7,H2 O1'
_chemical_name_systematic        
'2,3,4-Trihydroxypentyl 2,4-dihydroxy-6-methylbenzoate monohydrate'
_symmetry_cell_setting           triclinic
_symmetry_space_group_name_H-M   'P 1'
_symmetry_Int_Tables_number      1
_space_group_name_Hall           'P 1'
loop_
_symmetry_equiv_pos_site_id
_symmetry_equiv_pos_as_xyz
1 x,y,z
_cell_length_a                   7.1516(3)
_cell_length_b                   7.9646(4)
_cell_length_c                   13.0796(6)
_cell_angle_alpha                93.461(4)
_cell_angle_beta                 95.811(4)
_cell_angle_gamma                100.435(4)
_cell_volume                     726.56
_exptl_crystal_colour            colorless
_exptl_crystal_description       block
_cell_formula_units_Z            2
loop_
_atom_site_label
_atom_site_type_symbol
_atom_site_fract_x
_atom_site_fract_y
_atom_site_fract_z
O1 O 1.2437(5) 0.8419(4) 0.4346(2)
O2 O 1.3000(5) 0.8360(4) 0.2481(3)
H1 H 1.278(8) 0.868(7) 0.313(5)
O3 O 1.2344(5) 0.3158(5) 0.0516(3)
H2 H 1.244(7) 0.204(7) 0.060(5)
O4 O 1.1515(4) 0.6020(4) 0.5100(2)
O5 O 1.0970(5) 0.6959(4) 0.7790(3)
H3 H 1.198(9) 0.694(9) 0.816(5)
O6 O 1.3817(4) 0.4997(5) 0.7230(3)
H4 H 1.431(10) 0.554(10) 0.675(6)
O7 O 0.9055(5) 0.2731(4) 0.7539(3)
H5 H 0.845(8) 0.336(8) 0.790(5)
C1 C 1.2031(6) 0.6848(6) 0.4281(4)
C2 C 1.2061(6) 0.5770(6) 0.3333(3)
C3 C 1.2564(6) 0.6615(6) 0.2453(4)
C4 C 1.2631(6) 0.5727(6) 0.1527(3)
H6 H 1.2941 0.6315 0.0956
C5 C 1.2245(6) 0.3982(6) 0.1448(3)
C6 C 1.1748(6) 0.3099(6) 0.2292(3)
H7 H 1.1467 0.1908 0.2222
C7 C 1.1659(5) 0.3942(5) 0.3234(3)
C8 C 1.1139(7) 0.2848(6) 0.4100(4)
H8 H 1.2179 0.3055 0.4644
H9 H 1.0891 0.1662 0.3849
H10 H 1.0015 0.3129 0.4358
C9 C 1.1497(6) 0.7096(6) 0.6039(3)
H11 H 1.0649 0.7903 0.5914
H12 H 1.2773 0.7735 0.6271
C10 C 1.0801(6) 0.5921(5) 0.6840(3)
H13 H 0.9438 0.5464 0.6638
C11 C 1.1809(6) 0.4414(6) 0.6952(4)
H14 H 1.1618 0.3736 0.6286
C12 C 1.1098(6) 0.3253(6) 0.7763(4)
H15 H 1.1405 0.3880 0.8445
C13 C 1.1983(8) 0.1657(7) 0.7755(5)
H16 H 1.1480 0.0936 0.8264
H17 H 1.3347 0.1981 0.7911
H18 H 1.1682 0.1045 0.7086
O8 O 0.6658(5) 0.2409(5) 0.2009(3)
O9 O 0.5958(5) 0.2118(5) 0.3862(3)
H19 H 0.609(8) 0.181(8) 0.322(5)
O10 O 0.6311(5) 0.7040(5) 0.6071(3)
H20 H 0.677(13) 0.824(3) 0.613(8)
O11 O 0.7253(5) 0.4981(4) 0.1392(2)
O12 O 0.6746(5) 0.4483(4) -0.1388(3)
H21 H 0.572(7) 0.455(7) -0.180(4)
O13 O 0.9305(5) 0.7377(5) -0.0431(3)
H22 H 0.950(11) 0.710(11) -0.100(6)
O14 O 0.4282(5) 0.7839(5) -0.0845(3)
H23 H 0.405(8) 0.845(7) -0.050(4)
C14 C 0.6921(6) 0.3965(6) 0.2152(4)
C15 C 0.6858(6) 0.4875(6) 0.3158(4)
C16 C 0.6334(6) 0.3853(6) 0.3974(4)
C17 C 0.6177(6) 0.4605(6) 0.4939(4)
H24 H 0.5827 0.3922 0.5467
C18 C 0.6537(6) 0.6356(6) 0.5116(4)
C19 C 0.7075(6) 0.7381(6) 0.4336(4)
H25 H 0.7334 0.8565 0.4472
C20 C 0.7237(6) 0.6687(6) 0.3362(4)
C21 C 0.7833(7) 0.7956(6) 0.2597(4)
H26 H 0.8838 0.7614 0.2248
H27 H 0.8285 0.9069 0.2951
H28 H 0.6757 0.7996 0.2102
C22 C 0.7332(8) 0.4170(7) 0.0377(4)
H29 H 0.6613 0.3005 0.0310
H30 H 0.8648 0.4137 0.0268
C23 C 0.6463(6) 0.5233(5) -0.0408(3)
H31 H 0.5086 0.5098 -0.0359
C24 C 0.7334(6) 0.7112(6) -0.0293(3)
H32 H 0.7250 0.7527 0.0418
C25 C 0.6271(6) 0.8176(6) -0.0995(4)
H33 H 0.6398 0.7839 -0.1714
C26 C 0.7122(8) 1.0073(7) -0.0765(5)
H34 H 0.6479 1.0725 -0.1232
H35 H 0.8460 1.0266 -0.0849
H36 H 0.6964 1.0425 -0.0069
O15 O 1.2352(6) 0.9739(5) 0.0531(3)
H37 H 1.265(7) 0.947(7) 0.117(5)
H38 H 1.145(9) 0.918(8) 0.023(5)
O16 O 0.6614(8) 0.0406(6) 0.6120(5)
H39 H 0.6579 0.1166 0.5693
H40 H 0.7762 0.0458 0.6382
loop_
_geom_bond_atom_site_label_1
_geom_bond_atom_site_label_2
_geom_bond_site_symmetry_1
_geom_bond_site_symmetry_2
O1 C1 1_555 1_555
O2 H1 1_555 1_555
O3 H2 1_555 1_555
O4 C1 1_555 1_555
O5 H3 1_555 1_555
O6 H4 1_555 1_555
O7 H5 1_555 1_555
C1 C2 1_555 1_555
C2 C3 1_555 1_555
C3 O2 1_555 1_555
C4 C3 1_555 1_555
H6 C4 1_555 1_555
C5 O3 1_555 1_555
C6 C5 1_555 1_555
H7 C6 1_555 1_555
C7 C2 1_555 1_555
C8 C7 1_555 1_555
H8 C8 1_555 1_555
H9 C8 1_555 1_555
H10 C8 1_555 1_555
C9 O4 1_555 1_555
H11 C9 1_555 1_555
H12 C9 1_555 1_555
C10 O5 1_555 1_555
H13 C10 1_555 1_555
C11 O6 1_555 1_555
H14 C11 1_555 1_555
C12 O7 1_555 1_555
H15 C12 1_555 1_555
C13 C12 1_555 1_555
H16 C13 1_555 1_555
H17 C13 1_555 1_555
H18 C13 1_555 1_555
O8 C14 1_555 1_555
O9 H19 1_555 1_555
O10 H20 1_555 1_555
O11 C14 1_555 1_555
O12 H21 1_555 1_555
O13 H22 1_555 1_555
O14 H23 1_555 1_555
C14 C15 1_555 1_555
C15 C16 1_555 1_555
C16 O9 1_555 1_555
C17 C16 1_555 1_555
H24 C17 1_555 1_555
C18 O10 1_555 1_555
C19 C18 1_555 1_555
H25 C19 1_555 1_555
C20 C15 1_555 1_555
C21 C20 1_555 1_555
H26 C21 1_555 1_555
H27 C21 1_555 1_555
H28 C21 1_555 1_555
C22 O11 1_555 1_555
H29 C22 1_555 1_555
H30 C22 1_555 1_555
C23 O12 1_555 1_555
H31 C23 1_555 1_555
C24 O13 1_555 1_555
H32 C24 1_555 1_555
C25 O14 1_555 1_555
H33 C25 1_555 1_555
C26 C25 1_555 1_555
H34 C26 1_555 1_555
H35 C26 1_555 1_555
H36 C26 1_555 1_555
O15 H37 1_555 1_555
H38 O15 1_555 1_555
O16 H39 1_555 1_555
H40 O16 1_555 1_555
C4 C5 1_555 1_555
C6 C7 1_555 1_555
C9 C10 1_555 1_555
C10 C11 1_555 1_555
C11 C12 1_555 1_555
C17 C18 1_555 1_555
C19 C20 1_555 1_555
C22 C23 1_555 1_555
C23 C24 1_555 1_555
C24 C25 1_555 1_555

#END
