
#######################################################################
#
#                 Cambridge Crystallographic Data Centre
#                                CCDC 
#
#######################################################################
#
# If this CIF has been generated from an entry in the Cambridge 
# Structural Database, then it will include bibliographic, chemical, 
# crystal, experimental, refinement or atomic coordinate data resulting 
# from the CCDC's data processing and validation procedures.
#
#######################################################################

data_KIWCEB
_chemical_formula_moiety         'C58 H58 O4,2(C1 H2 Cl2)'
_chemical_name_systematic        
"3,4,16,17-tetrabutyl-2,5,15,18-tetrahydronaphtho[2,1-c]naphtho[1''',2''':5'',6'']pyrano[4'',3'':5',6'][2]benzopyrano[3',4':6,7][1]benzopyrano[4,3-f][2]benzopyran dichloromethane solvate"
_symmetry_cell_setting           triclinic
_symmetry_space_group_name_H-M   'P -1'
_symmetry_Int_Tables_number      2
_space_group_name_Hall           '-P 1'
loop_
_symmetry_equiv_pos_site_id
_symmetry_equiv_pos_as_xyz
1 x,y,z
2 -x,-y,-z
_cell_length_a                   10.5793(2)
_cell_length_b                   11.7854(2)
_cell_length_c                   11.8556(2)
_cell_angle_alpha                77.5160(10)
_cell_angle_beta                 72.2900(10)
_cell_angle_gamma                69.8940(10)
_cell_volume                     1311.98
_exptl_crystal_colour            yellow
_exptl_crystal_description       block
_cell_formula_units_Z            1
_exptl_crystal_recrystallization_method 
'Re-crystallisation from solvent: dichloromethane/n-hexane'
loop_
_atom_site_label
_atom_site_type_symbol
_atom_site_fract_x
_atom_site_fract_y
_atom_site_fract_z
Cl1 Cl -0.03957(16) 0.77808(17) 0.43842(12)
C1 C 0.1049(8) 0.8157(9) 0.3583(6)
H1 H 0.1843 0.7402 0.3556
H2 H 0.0956 0.8443 0.2755
Cl2 Cl 0.1477(5) 0.9208(4) 0.4018(4)
O1 O 0.5494(2) 0.69350(19) 0.11896(18)
O2 O -0.09066(17) 0.80051(15) 0.03097(15)
C2 C 0.3740(4) 0.9964(3) -0.3525(3)
H5 H 0.3633 1.0479 -0.4248
C3 C 0.2864(3) 0.9226(3) -0.2984(2)
H6 H 0.2191 0.9219 -0.3358
C4 C 0.2979(3) 0.8515(2) -0.1918(2)
H7 H 0.2390 0.8013 -0.1569
C5 C 0.3957(3) 0.8515(2) -0.1329(2)
C6 C 0.4888(3) 0.9216(2) -0.1918(3)
C7 C 0.4734(3) 0.9941(3) -0.3016(3)
H8 H 0.5341 1.0422 -0.3403
C8 C 0.4080(3) 0.7824(2) -0.0193(2)
C9 C 0.5225(3) 0.7719(2) 0.0196(3)
C10 C 0.6141(3) 0.8412(3) -0.0381(3)
H9 H 0.6886 0.8356 -0.0061
C11 C 0.5954(3) 0.9161(3) -0.1397(3)
H10 H 0.6546 0.9658 -0.1767
C12 C 0.3082(3) 0.7182(2) 0.0607(2)
C13 C 0.3656(3) 0.6098(2) 0.1286(2)
C14 C 0.5167(3) 0.5831(3) 0.1259(3)
H11 H 0.5365 0.5288 0.1989
H12 H 0.5763 0.5404 0.0561
C15 C 0.1632(3) 0.7591(2) 0.0760(2)
C16 C 0.0860(3) 0.6777(2) 0.1364(2)
C17 C 0.1459(3) 0.5647(2) 0.1952(2)
C18 C 0.2869(3) 0.5322(2) 0.1956(2)
C19 C 0.0824(2) 0.8843(2) 0.0396(2)
C20 C -0.0445(2) 0.9004(2) 0.0150(2)
C21 C -0.0665(3) 0.7219(2) 0.1380(2)
H13 H -0.1000 0.6509 0.1464
H14 H -0.1200 0.7664 0.2079
C22 C 0.1235(2) 0.9878(2) 0.0271(2)
H15 H 0.2061 0.9812 0.0477
C23 C 0.3541(3) 0.4160(2) 0.2672(3)
H16 H 0.4542 0.3863 0.2270
H17 H 0.3111 0.3529 0.2692
C24 C 0.3388(3) 0.4343(3) 0.3945(3)
H18 H 0.3750 0.5020 0.3923
H19 H 0.2388 0.4579 0.4363
C25 C 0.4149(4) 0.3213(3) 0.4645(3)
H20 H 0.3763 0.2545 0.4690
H21 H 0.5142 0.2960 0.4210
C26 C 0.4046(5) 0.3396(4) 0.5890(3)
H22 H 0.4171 0.4186 0.5875
H23 H 0.4770 0.2745 0.6204
H24 H 0.3130 0.3376 0.6402
C27 C 0.0588(3) 0.4804(2) 0.2590(2)
H25 H -0.0385 0.5297 0.2894
H26 H 0.0939 0.4316 0.3284
C28 C 0.0614(4) 0.3943(3) 0.1775(3)
H27 H 0.0248 0.4435 0.1090
H28 H 0.1590 0.3467 0.1457
C29 C -0.0231(5) 0.3064(3) 0.2400(3)
H29 H -0.0099 0.2498 0.1837
H30 H 0.0139 0.2573 0.3083
C30 C -0.1720(6) 0.3647(6) 0.2835(7)
H31 H -0.2203 0.3024 0.3115
H32 H -0.2078 0.4211 0.2186
H33 H -0.1876 0.4097 0.3495
O1A O -0.5494(2) 1.30650(19) -0.11896(18)
O2A O 0.09066(17) 1.19949(15) -0.03097(15)
C2A C -0.3740(4) 1.0036(3) 0.3525(3)
H5A H -0.3633 0.9521 0.4248
C3A C -0.2864(3) 1.0774(3) 0.2984(2)
H6A H -0.2191 1.0781 0.3358
C4A C -0.2979(3) 1.1485(2) 0.1918(2)
H7A H -0.2390 1.1987 0.1569
C5A C -0.3957(3) 1.1485(2) 0.1329(2)
C6A C -0.4888(3) 1.0784(2) 0.1918(3)
C7A C -0.4734(3) 1.0059(3) 0.3016(3)
H8A H -0.5341 0.9578 0.3403
C8A C -0.4080(3) 1.2176(2) 0.0193(2)
C9A C -0.5225(3) 1.2281(2) -0.0196(3)
C10A C -0.6141(3) 1.1588(3) 0.0381(3)
H9A H -0.6886 1.1644 0.0061
C11A C -0.5954(3) 1.0839(3) 0.1397(3)
H10A H -0.6546 1.0342 0.1767
C12A C -0.3082(3) 1.2818(2) -0.0607(2)
C13A C -0.3656(3) 1.3902(2) -0.1286(2)
C14A C -0.5167(3) 1.4169(3) -0.1259(3)
H11A H -0.5365 1.4712 -0.1989
H12A H -0.5763 1.4596 -0.0561
C15A C -0.1632(3) 1.2409(2) -0.0760(2)
C16A C -0.0860(3) 1.3223(2) -0.1364(2)
C17A C -0.1459(3) 1.4353(2) -0.1952(2)
C18A C -0.2869(3) 1.4678(2) -0.1956(2)
C19A C -0.0824(2) 1.1157(2) -0.0396(2)
C20A C 0.0445(2) 1.0996(2) -0.0150(2)
C21A C 0.0665(3) 1.2781(2) -0.1380(2)
H13A H 0.1000 1.3491 -0.1464
H14A H 0.1200 1.2336 -0.2079
C22A C -0.1235(2) 1.0122(2) -0.0271(2)
H15A H -0.2061 1.0188 -0.0477
C23A C -0.3541(3) 1.5840(2) -0.2672(3)
H16A H -0.4542 1.6137 -0.2270
H17A H -0.3111 1.6471 -0.2692
C24A C -0.3388(3) 1.5657(3) -0.3945(3)
H18A H -0.3750 1.4980 -0.3923
H19A H -0.2388 1.5421 -0.4363
C25A C -0.4149(4) 1.6787(3) -0.4645(3)
H20A H -0.3763 1.7455 -0.4690
H21A H -0.5142 1.7040 -0.4210
C26A C -0.4046(5) 1.6604(4) -0.5890(3)
H22A H -0.4171 1.5814 -0.5875
H23A H -0.4770 1.7255 -0.6204
H24A H -0.3130 1.6624 -0.6402
C27A C -0.0588(3) 1.5196(2) -0.2590(2)
H25A H 0.0385 1.4703 -0.2894
H26A H -0.0939 1.5684 -0.3284
C28A C -0.0614(4) 1.6057(3) -0.1775(3)
H27A H -0.0248 1.5565 -0.1090
H28A H -0.1590 1.6533 -0.1457
C29A C 0.0231(5) 1.6936(3) -0.2400(3)
H29A H 0.0099 1.7502 -0.1837
H30A H -0.0139 1.7427 -0.3083
C30A C 0.1720(6) 1.6353(6) -0.2835(7)
H31A H 0.2203 1.6976 -0.3115
H32A H 0.2078 1.5789 -0.2186
H33A H 0.1876 1.5903 -0.3495
H3? H 0.0738 0.8929 0.3072
H4? H 0.1583 0.7529 0.3039
Cl3? Cl 0.2168(5) 0.8333(6) 0.4185(7)
loop_
_geom_bond_atom_site_label_1
_geom_bond_atom_site_label_2
_geom_bond_site_symmetry_1
_geom_bond_site_symmetry_2
Cl1 C1 1_555 1_555
C1 H1 1_555 1_555
H2 C1 1_555 1_555
Cl2 C1 1_555 1_555
O1 C9 1_555 1_555
O2 C20 1_555 1_555
C2 H5 1_555 1_555
C3 C2 1_555 1_555
H6 C3 1_555 1_555
C4 C3 1_555 1_555
H7 C4 1_555 1_555
C5 C4 1_555 1_555
C6 C5 1_555 1_555
C7 C2 1_555 1_555
H8 C7 1_555 1_555
C8 C5 1_555 1_555
C9 C8 1_555 1_555
C10 C9 1_555 1_555
H9 C10 1_555 1_555
C11 C6 1_555 1_555
H10 C11 1_555 1_555
C12 C8 1_555 1_555
C13 C12 1_555 1_555
C14 O1 1_555 1_555
H11 C14 1_555 1_555
H12 C14 1_555 1_555
C15 C12 1_555 1_555
C16 C15 1_555 1_555
C17 C16 1_555 1_555
C18 C13 1_555 1_555
C19 C15 1_555 1_555
C20 C19 1_555 1_555
C21 O2 1_555 1_555
H13 C21 1_555 1_555
H14 C21 1_555 1_555
C22 C19 1_555 1_555
H15 C22 1_555 1_555
C23 C18 1_555 1_555
H16 C23 1_555 1_555
H17 C23 1_555 1_555
C24 C23 1_555 1_555
H18 C24 1_555 1_555
H19 C24 1_555 1_555
C25 C24 1_555 1_555
H20 C25 1_555 1_555
H21 C25 1_555 1_555
C26 C25 1_555 1_555
H22 C26 1_555 1_555
H23 C26 1_555 1_555
H24 C26 1_555 1_555
C27 C17 1_555 1_555
H25 C27 1_555 1_555
H26 C27 1_555 1_555
C28 C27 1_555 1_555
H27 C28 1_555 1_555
H28 C28 1_555 1_555
C29 C28 1_555 1_555
H29 C29 1_555 1_555
H30 C29 1_555 1_555
C30 C29 1_555 1_555
H31 C30 1_555 1_555
H32 C30 1_555 1_555
H33 C30 1_555 1_555
O1A C9A 1_555 1_555
O2A C20A 1_555 1_555
C2A H5A 1_555 1_555
C3A C2A 1_555 1_555
H6A C3A 1_555 1_555
C4A C3A 1_555 1_555
H7A C4A 1_555 1_555
C5A C4A 1_555 1_555
C6A C5A 1_555 1_555
C7A C2A 1_555 1_555
H8A C7A 1_555 1_555
C8A C5A 1_555 1_555
C9A C8A 1_555 1_555
C10A C9A 1_555 1_555
H9A C10A 1_555 1_555
C11A C6A 1_555 1_555
H10A C11A 1_555 1_555
C12A C8A 1_555 1_555
C13A C12A 1_555 1_555
C14A O1A 1_555 1_555
H11A C14A 1_555 1_555
H12A C14A 1_555 1_555
C15A C12A 1_555 1_555
C16A C15A 1_555 1_555
C17A C16A 1_555 1_555
C18A C13A 1_555 1_555
C19A C15A 1_555 1_555
C20A C22 1_555 1_555
C21A O2A 1_555 1_555
H13A C21A 1_555 1_555
H14A C21A 1_555 1_555
C22A C20 1_555 1_555
H15A C22A 1_555 1_555
C23A C18A 1_555 1_555
H16A C23A 1_555 1_555
H17A C23A 1_555 1_555
C24A C23A 1_555 1_555
H18A C24A 1_555 1_555
H19A C24A 1_555 1_555
C25A C24A 1_555 1_555
H20A C25A 1_555 1_555
H21A C25A 1_555 1_555
C26A C25A 1_555 1_555
H22A C26A 1_555 1_555
H23A C26A 1_555 1_555
H24A C26A 1_555 1_555
C27A C17A 1_555 1_555
H25A C27A 1_555 1_555
H26A C27A 1_555 1_555
C28A C27A 1_555 1_555
H27A C28A 1_555 1_555
H28A C28A 1_555 1_555
C29A C28A 1_555 1_555
H29A C29A 1_555 1_555
H30A C29A 1_555 1_555
C30A C29A 1_555 1_555
H31A C30A 1_555 1_555
H32A C30A 1_555 1_555
H33A C30A 1_555 1_555
C6 C7 1_555 1_555
C10 C11 1_555 1_555
C13 C14 1_555 1_555
C16 C21 1_555 1_555
C17 C18 1_555 1_555
C6A C7A 1_555 1_555
C10A C11A 1_555 1_555
C13A C14A 1_555 1_555
C16A C21A 1_555 1_555
C17A C18A 1_555 1_555
C19A C20A 1_555 1_555
C19A C22A 1_555 1_555

#END
