
#######################################################################
#
#                 Cambridge Crystallographic Data Centre
#                                CCDC 
#
#######################################################################
#
# If this CIF has been generated from an entry in the Cambridge 
# Structural Database, then it will include bibliographic, chemical, 
# crystal, experimental, refinement or atomic coordinate data resulting 
# from the CCDC's data processing and validation procedures.
#
#######################################################################

data_KIWDIF
_chemical_formula_moiety         'C15 H16 N2 S1'
_chemical_name_systematic        1-(2,5-dimethylphenyl)-3-phenylthiourea
_symmetry_cell_setting           monoclinic
_symmetry_space_group_name_H-M   'P 21/c'
_symmetry_Int_Tables_number      14
_space_group_name_Hall           '-P 2ybc'
loop_
_symmetry_equiv_pos_site_id
_symmetry_equiv_pos_as_xyz
1 x,y,z
2 -x,1/2+y,1/2-z
3 -x,-y,-z
4 x,1/2-y,1/2+z
_cell_length_a                   8.6797(3)
_cell_length_b                   7.7370(3)
_cell_length_c                   21.0197(9)
_cell_angle_alpha                90
_cell_angle_beta                 101.7760(10)
_cell_angle_gamma                90
_cell_volume                     1381.87
_cell_formula_units_Z            4
loop_
_atom_site_label
_atom_site_type_symbol
_atom_site_fract_x
_atom_site_fract_y
_atom_site_fract_z
S1 S 0.20349(5) 0.10434(7) 1.071710(19)
N1 N 0.35045(16) 0.2778(2) 0.99146(6)
H1 H 0.3394 0.3327 0.9552
C1 C 0.22748(18) 0.1805(2) 0.99947(7)
N2 N 0.11954(16) 0.1469(2) 0.94512(6)
H2 H 0.0320 0.1024 0.9502
C2 C 0.49666(19) 0.3010(2) 1.03564(7)
C3 C 0.1362(2) 0.1779(2) 0.87977(7)
C4 C 0.2672(2) 0.1152(2) 0.85905(8)
H3 H 0.3410 0.0497 0.8873
C5 C 0.5067(2) 0.3673(3) 1.09723(9)
H4 H 0.4162 0.3961 1.1121
C6 C 0.2903(3) 0.1486(3) 0.79665(9)
C7 C 0.6311(2) 0.2630(3) 1.01333(10)
H5 H 0.6237 0.2199 0.9715
C8 C 0.0187(2) 0.2693(3) 0.83814(9)
C9 C 0.7772(2) 0.2886(3) 1.05295(12)
H6 H 0.8679 0.2644 1.0376
C10 C 0.6545(3) 0.3902(3) 1.13672(9)
H7 H 0.6629 0.4336 1.1785
C11 C 0.1740(3) 0.2409(3) 0.75537(8)
H8 H 0.1862 0.2651 0.7133
C12 C 0.0419(3) 0.2972(3) 0.77506(9)
H9 H -0.0348 0.3559 0.7456
C13 C -0.1233(3) 0.3387(3) 0.86039(12)
H10 H -0.1878 0.2443 0.8690
H11 H -0.1827 0.4109 0.8271
H12 H -0.0900 0.4053 0.8993
C14 C 0.7882(2) 0.3494(3) 1.11457(11)
H13 H 0.8865 0.3632 1.1417
C15 C 0.4353(3) 0.0847(4) 0.77633(11)
H14 H 0.4301 -0.0388 0.7718
H15 H 0.5261 0.1156 0.8086
H16 H 0.4428 0.1361 0.7355
loop_
_geom_bond_atom_site_label_1
_geom_bond_atom_site_label_2
_geom_bond_site_symmetry_1
_geom_bond_site_symmetry_2
S1 C1 1_555 1_555
N1 H1 1_555 1_555
C1 N1 1_555 1_555
N2 C1 1_555 1_555
H2 N2 1_555 1_555
C2 N1 1_555 1_555
C3 N2 1_555 1_555
C4 C3 1_555 1_555
H3 C4 1_555 1_555
C5 C2 1_555 1_555
H4 C5 1_555 1_555
C6 C4 1_555 1_555
C7 C2 1_555 1_555
H5 C7 1_555 1_555
C8 C3 1_555 1_555
C9 C7 1_555 1_555
H6 C9 1_555 1_555
C10 C5 1_555 1_555
H7 C10 1_555 1_555
C11 C6 1_555 1_555
H8 C11 1_555 1_555
C12 C8 1_555 1_555
H9 C12 1_555 1_555
C13 C8 1_555 1_555
H10 C13 1_555 1_555
H11 C13 1_555 1_555
H12 C13 1_555 1_555
C14 C9 1_555 1_555
H13 C14 1_555 1_555
C15 C6 1_555 1_555
H14 C15 1_555 1_555
H15 C15 1_555 1_555
H16 C15 1_555 1_555
C10 C14 1_555 1_555
C11 C12 1_555 1_555

#END
