
#######################################################################
#
#                 Cambridge Crystallographic Data Centre
#                                CCDC 
#
#######################################################################
#
# If this CIF has been generated from an entry in the Cambridge 
# Structural Database, then it will include bibliographic, chemical, 
# crystal, experimental, refinement or atomic coordinate data resulting 
# from the CCDC's data processing and validation procedures.
#
#######################################################################

data_KIWGUV01
_chemical_formula_moiety         'C13 H7 B1 F3 N3 O1'
_chemical_name_systematic        
6,6,10-trifluoro-6H,8H-5,6-pyrido[1',2':3,4][1,3,2]diazaborolo[5,1-b]quinazolin-8-one
_symmetry_cell_setting           monoclinic
_symmetry_space_group_name_H-M   'P 21/n'
_symmetry_Int_Tables_number      14
_space_group_name_Hall           '-P 2yn'
loop_
_symmetry_equiv_pos_site_id
_symmetry_equiv_pos_as_xyz
1 x,y,z
2 1/2-x,1/2+y,1/2-z
3 -x,-y,-z
4 1/2+x,1/2-y,1/2+z
_cell_length_a                   6.7210(9)
_cell_length_b                   13.7715(16)
_cell_length_c                   12.9173(18)
_cell_angle_alpha                90
_cell_angle_beta                 94.879(12)
_cell_angle_gamma                90
_cell_volume                     1191.27
_exptl_crystal_colour            colorless
_exptl_crystal_description       block
_cell_formula_units_Z            4
loop_
_atom_site_label
_atom_site_type_symbol
_atom_site_fract_x
_atom_site_fract_y
_atom_site_fract_z
B1 B 0.7371(14) 0.2652(6) 0.6377(7)
C1 C 0.7543(11) 0.5155(5) 0.4455(6)
C2 C 0.7626(12) 0.6021(5) 0.3888(6)
H1 H 0.7659 0.6614 0.4234
C3 C 0.7656(12) 0.6002(6) 0.2827(6)
H2 H 0.7691 0.6576 0.2450
C4 C 0.7635(14) 0.5111(7) 0.2329(6)
C5 C 0.7562(13) 0.4245(6) 0.2845(6)
H3 H 0.7550 0.3658 0.2489
C6 C 0.7507(12) 0.4271(5) 0.3925(6)
C7 C 0.7461(13) 0.3360(5) 0.4506(6)
C8 C 0.7403(11) 0.4391(5) 0.5994(5)
C9 C 0.7415(11) 0.4281(5) 0.7124(6)
C10 C 0.7413(13) 0.4997(6) 0.7867(6)
H4 H 0.7422 0.5649 0.7681
C11 C 0.7396(17) 0.4729(7) 0.8884(7)
H5 H 0.7406 0.5201 0.9400
C12 C 0.736(2) 0.3756(8) 0.9148(7)
H6 H 0.7338 0.3567 0.9838
C13 C 0.7369(17) 0.3076(7) 0.8380(7)
H7 H 0.7374 0.2421 0.8555
F1 F 0.9064(8) 0.2101(3) 0.6439(4)
F2 F 0.5693(8) 0.2095(3) 0.6306(4)
F3 F 0.7674(12) 0.5094(5) 0.1286(4)
N1 N 0.7459(9) 0.5217(4) 0.5530(5)
N2 N 0.7391(10) 0.3480(4) 0.5563(5)
N3 N 0.7368(10) 0.3330(4) 0.7380(5)
O1 O 0.7445(13) 0.2552(4) 0.4112(5)
loop_
_geom_bond_atom_site_label_1
_geom_bond_atom_site_label_2
_geom_bond_site_symmetry_1
_geom_bond_site_symmetry_2
B1 F1 1_555 1_555
C1 C2 1_555 1_555
C2 H1 1_555 1_555
C3 C2 1_555 1_555
H2 C3 1_555 1_555
C4 C3 1_555 1_555
C5 C4 1_555 1_555
H3 C5 1_555 1_555
C6 C1 1_555 1_555
C7 C6 1_555 1_555
C8 C9 1_555 1_555
C9 C10 1_555 1_555
C10 H4 1_555 1_555
C11 C10 1_555 1_555
H5 C11 1_555 1_555
C12 C11 1_555 1_555
H6 C12 1_555 1_555
C13 C12 1_555 1_555
H7 C13 1_555 1_555
F2 B1 1_555 1_555
F3 C4 1_555 1_555
N1 C1 1_555 1_555
N2 B1 1_555 1_555
N3 B1 1_555 1_555
O1 C7 1_555 1_555
C5 C6 1_555 1_555
C7 N2 1_555 1_555
C8 N1 1_555 1_555
C8 N2 1_555 1_555
C9 N3 1_555 1_555
C13 N3 1_555 1_555

#END
