
#######################################################################
#
#                 Cambridge Crystallographic Data Centre
#                                CCDC 
#
#######################################################################
#
# If this CIF has been generated from an entry in the Cambridge 
# Structural Database, then it will include bibliographic, chemical, 
# crystal, experimental, refinement or atomic coordinate data resulting 
# from the CCDC's data processing and validation procedures.
#
#######################################################################

data_KIWGUV
_chemical_formula_moiety         'C13 H7 B1 F3 N3 O1'
_chemical_name_systematic        
6,6,10-trifluoro-8-oxo-6,8-dihydropyrido[1',2':3,4][1,3,2]diazaborolo[5,1-b]quinazolin-5-ium-6-ide
_symmetry_cell_setting           monoclinic
_symmetry_space_group_name_H-M   'P 21/n'
_symmetry_Int_Tables_number      14
_space_group_name_Hall           '-P 2yn'
loop_
_symmetry_equiv_pos_site_id
_symmetry_equiv_pos_as_xyz
1 x,y,z
2 1/2-x,1/2+y,1/2-z
3 -x,-y,-z
4 1/2+x,1/2-y,1/2+z
_cell_length_a                   6.7210(9)
_cell_length_b                   13.7715(16)
_cell_length_c                   12.9173(18)
_cell_angle_alpha                90
_cell_angle_beta                 94.879(12)
_cell_angle_gamma                90
_cell_volume                     1191.27
_exptl_crystal_colour            colorless
_exptl_crystal_description       needle
_cell_formula_units_Z            4
loop_
_atom_site_label
_atom_site_type_symbol
_atom_site_fract_x
_atom_site_fract_y
_atom_site_fract_z
B1 B 0.7372(15) 0.2652(6) 0.6377(7)
C1 C 0.7546(11) 0.5156(5) 0.4457(6)
C2 C 0.7624(12) 0.6020(6) 0.3886(7)
H1 H 0.7653 0.6613 0.4230
C3 C 0.7656(13) 0.6002(7) 0.2827(7)
H2 H 0.7693 0.6576 0.2451
C4 C 0.7634(15) 0.5110(7) 0.2329(7)
C5 C 0.7564(13) 0.4246(6) 0.2846(6)
H3 H 0.7553 0.3659 0.2490
C6 C 0.7508(12) 0.4271(5) 0.3923(6)
C7 C 0.7464(13) 0.3361(6) 0.4506(6)
C8 C 0.7401(12) 0.4391(5) 0.5995(6)
C9 C 0.7416(12) 0.4281(5) 0.7123(6)
C10 C 0.7412(14) 0.4997(6) 0.7868(7)
H4 H 0.7422 0.5649 0.7682
C11 C 0.7395(18) 0.4729(8) 0.8883(8)
H5 H 0.7406 0.5201 0.9398
C12 C 0.736(2) 0.3754(8) 0.9147(8)
H6 H 0.7336 0.3566 0.9837
C13 C 0.7369(18) 0.3078(8) 0.8379(7)
H7 H 0.7375 0.2423 0.8554
F1 F 0.9063(8) 0.2101(3) 0.6438(4)
F2 F 0.5692(8) 0.2095(3) 0.6306(4)
F3 F 0.7673(12) 0.5094(5) 0.1286(4)
N1 N 0.7456(10) 0.5217(4) 0.5529(5)
N2 N 0.7391(11) 0.3479(4) 0.5563(5)
N3 N 0.7366(11) 0.3331(5) 0.7379(5)
O1 O 0.7445(14) 0.2552(4) 0.4113(5)
loop_
_geom_bond_atom_site_label_1
_geom_bond_atom_site_label_2
_geom_bond_site_symmetry_1
_geom_bond_site_symmetry_2
B1 F1 1_555 1_555
C1 C2 1_555 1_555
C2 H1 1_555 1_555
C3 C2 1_555 1_555
H2 C3 1_555 1_555
C4 C3 1_555 1_555
C5 C4 1_555 1_555
H3 C5 1_555 1_555
C6 C1 1_555 1_555
C7 C6 1_555 1_555
C8 C9 1_555 1_555
C9 C10 1_555 1_555
C10 H4 1_555 1_555
C11 C10 1_555 1_555
H5 C11 1_555 1_555
C12 C11 1_555 1_555
H6 C12 1_555 1_555
C13 C12 1_555 1_555
H7 C13 1_555 1_555
F2 B1 1_555 1_555
F3 C4 1_555 1_555
N1 C1 1_555 1_555
N2 B1 1_555 1_555
N3 B1 1_555 1_555
O1 C7 1_555 1_555
C5 C6 1_555 1_555
C7 N2 1_555 1_555
C8 N1 1_555 1_555
C8 N2 1_555 1_555
C9 N3 1_555 1_555
C13 N3 1_555 1_555

#END
