
#######################################################################
#
#                 Cambridge Crystallographic Data Centre
#                                CCDC 
#
#######################################################################
#
# If this CIF has been generated from an entry in the Cambridge 
# Structural Database, then it will include bibliographic, chemical, 
# crystal, experimental, refinement or atomic coordinate data resulting 
# from the CCDC's data processing and validation procedures.
#
#######################################################################

data_KIWJOQ
_chemical_formula_moiety         'C18 H21 Cl1 N2 O3 S1'
_chemical_name_systematic        
'Ethyl 6-(2-chlorophenyl)-4-methyl-1-(3-oxobutyl)-2-thioxo-1,2,3,6-tetrahydropyrimidine-5-carboxylate'
_symmetry_cell_setting           triclinic
_symmetry_space_group_name_H-M   'P -1'
_symmetry_Int_Tables_number      2
_space_group_name_Hall           '-P 1'
loop_
_symmetry_equiv_pos_site_id
_symmetry_equiv_pos_as_xyz
1 x,y,z
2 -x,-y,-z
_cell_length_a                   7.5227(12)
_cell_length_b                   9.7163(15)
_cell_length_c                   14.122(2)
_cell_angle_alpha                72.617(6)
_cell_angle_beta                 87.300(6)
_cell_angle_gamma                71.296(6)
_cell_volume                     931.695
_exptl_crystal_colour            colorless
_cell_formula_units_Z            2
_exptl_crystal_recrystallization_method ethanol
loop_
_atom_site_label
_atom_site_type_symbol
_atom_site_fract_x
_atom_site_fract_y
_atom_site_fract_z
S1 S 0.25983(17) 0.52291(14) 0.37234(9)
O1 O 0.7923(10) 0.7889(6) 0.2047(5)
O2 O 0.8601(5) 0.1943(6) 0.0850(3)
O3 O 0.5997(6) 0.2278(9) 0.0057(4)
N1 N 0.3016(5) 0.4024(4) 0.2256(3)
H1 H 0.1825 0.4189 0.2292
N2 N 0.5775(4) 0.3883(3) 0.2963(2)
C1 C 0.8823(5) 0.5327(4) 0.2014(3)
H2 H 0.9549 0.5776 0.1513
H3 H 0.7960 0.5018 0.1711
H4 H 0.9648 0.4454 0.2493
C2 C 0.7956(6) 0.6248(5) 0.2423(3)
C3 C 0.6902(6) 0.5833(5) 0.3336(3)
H5 H 0.5616 0.6516 0.3216
H6 H 0.7460 0.6000 0.3879
C4 C 0.6868(6) 0.4203(5) 0.3656(3)
H7 H 0.8149 0.3517 0.3723
H8 H 0.6343 0.3996 0.4305
C5 C 0.3905(6) 0.4316(4) 0.2959(3)
C6 C 0.6876(5) 0.2780(4) 0.2443(3)
H9 H 0.8000 0.3051 0.2207
C7 C 0.5756(5) 0.2891(5) 0.1551(3)
C8 C 0.3864(6) 0.3488(5) 0.1495(3)
C9 C 0.7517(5) 0.1179(4) 0.3180(3)
C10 C 0.9391(6) 0.0352(5) 0.3471(3)
C11 C 0.9937(7) -0.1097(5) 0.4149(4)
H10 H 1.1203 -0.1630 0.4321
C12 C 0.8584(8) -0.1737(5) 0.4565(3)
H11 H 0.8933 -0.2703 0.5024
C13 C 0.6712(7) -0.0942(5) 0.4298(3)
H12 H 0.5795 -0.1369 0.4579
C14 C 0.6203(6) 0.0488(5) 0.3613(3)
H13 H 0.4936 0.1007 0.3436
C15 C 0.6936(7) 0.2331(7) 0.0796(4)
C16 C 0.7039(13) 0.2207(11) -0.0952(7)
H14 H 0.6242 0.2818 -0.1548
H15 H 0.8217 0.2422 -0.0982
C17 C 0.7245(14) 0.0746(11) -0.0715(10)
H16 H 0.7894 0.0232 -0.0074
H17 H 0.7959 0.0327 -0.1203
H18 H 0.6031 0.0613 -0.0695
C18 C 0.2496(6) 0.3672(6) 0.0690(4)
H19 H 0.3173 0.3394 0.0146
H20 H 0.1700 0.4714 0.0463
H21 H 0.1742 0.3025 0.0947
Cl1 Cl 1.11691(15) 0.11100(15) 0.30064(10)
loop_
_geom_bond_atom_site_label_1
_geom_bond_atom_site_label_2
_geom_bond_site_symmetry_1
_geom_bond_site_symmetry_2
S1 C5 1_555 1_555
O1 C2 1_555 1_555
O2 C15 1_555 1_555
O3 C15 1_555 1_555
N1 H1 1_555 1_555
N2 C4 1_555 1_555
C1 H2 1_555 1_555
H3 C1 1_555 1_555
H4 C1 1_555 1_555
C2 C1 1_555 1_555
C3 C2 1_555 1_555
H5 C3 1_555 1_555
H6 C3 1_555 1_555
C4 C3 1_555 1_555
H7 C4 1_555 1_555
H8 C4 1_555 1_555
C5 N1 1_555 1_555
C6 N2 1_555 1_555
H9 C6 1_555 1_555
C7 C6 1_555 1_555
C8 N1 1_555 1_555
C9 C6 1_555 1_555
C10 C9 1_555 1_555
C11 C10 1_555 1_555
H10 C11 1_555 1_555
C12 C11 1_555 1_555
H11 C12 1_555 1_555
C13 C12 1_555 1_555
H12 C13 1_555 1_555
C14 C9 1_555 1_555
H13 C14 1_555 1_555
C15 C7 1_555 1_555
C16 O3 1_555 1_555
H14 C16 1_555 1_555
H15 C16 1_555 1_555
C17 C16 1_555 1_555
H16 C17 1_555 1_555
H17 C17 1_555 1_555
H18 C17 1_555 1_555
C18 C8 1_555 1_555
H19 C18 1_555 1_555
H20 C18 1_555 1_555
H21 C18 1_555 1_555
Cl1 C10 1_555 1_555
N2 C5 1_555 1_555
C7 C8 1_555 1_555
C13 C14 1_555 1_555

#END
