
#######################################################################
#
#                 Cambridge Crystallographic Data Centre
#                                CCDC 
#
#######################################################################
#
# If this CIF has been generated from an entry in the Cambridge 
# Structural Database, then it will include bibliographic, chemical, 
# crystal, experimental, refinement or atomic coordinate data resulting 
# from the CCDC's data processing and validation procedures.
#
#######################################################################

data_KIWKIL
_chemical_formula_moiety         'C6 H15 N2 O2 1+,C2 F3 O2 1-'
_chemical_name_systematic        'L-Lysinium trifluoroacetate'
_symmetry_cell_setting           monoclinic
_symmetry_space_group_name_H-M   'P 21'
_symmetry_Int_Tables_number      4
_space_group_name_Hall           'P 2yb'
loop_
_symmetry_equiv_pos_site_id
_symmetry_equiv_pos_as_xyz
1 x,y,z
2 -x,1/2+y,-z
_cell_length_a                   5.6985(2)
_cell_length_b                   23.5430(8)
_cell_length_c                   8.5007(3)
_cell_angle_alpha                90
_cell_angle_beta                 91.630(2)
_cell_angle_gamma                90
_cell_volume                     1139.99
_exptl_crystal_colour            colorless
_exptl_crystal_description       prism
_cell_formula_units_Z            4
_exptl_crystal_recrystallization_method water
loop_
_atom_site_label
_atom_site_type_symbol
_atom_site_fract_x
_atom_site_fract_y
_atom_site_fract_z
C1 C 0.2035(7) 0.19654(15) 0.9377(4)
H1 H 0.0417 0.2088 0.9236
H2 H 0.2078 0.1557 0.9233
C2 C 0.3517(7) 0.22473(15) 0.8138(4)
H3 H 0.2868 0.2149 0.7106
H4 H 0.5091 0.2091 0.8218
C3 C 0.3684(6) 0.28929(15) 0.8256(4)
H5 H 0.4339 0.2994 0.9284
H6 H 0.4753 0.3029 0.7473
C4 C 0.1328(6) 0.31898(14) 0.8015(4)
H7 H 0.0210 0.3020 0.8715
H8 H 0.0763 0.3124 0.6944
C5 C 0.1405(5) 0.38324(12) 0.8314(3)
H9 H 0.1926 0.3898 0.9408
C6 C -0.1062(5) 0.40846(13) 0.8071(4)
N1 N 0.3086(4) 0.41146(12) 0.7262(3)
H19 H 0.4547 0.4054 0.7622
H20 H 0.2802 0.4486 0.7238
H21 H 0.2917 0.3973 0.6295
N2 N 0.2873(5) 0.21051(13) 1.0996(3)
H22 H 0.4418 0.2052 1.1077
H23 H 0.2162 0.1881 1.1678
H24 H 0.2544 0.2466 1.1204
O7 O -0.1433(4) 0.43812(12) 0.6875(3)
O8 O -0.2560(4) 0.39525(12) 0.9057(3)
C7 C 0.8434(7) 0.56316(15) 0.4189(4)
H10 H 1.0015 0.5512 0.3955
H11 H 0.8324 0.6036 0.3988
C8 C 0.6728(7) 0.53266(16) 0.3112(4)
H12 H 0.7097 0.5418 0.2034
H13 H 0.5164 0.5470 0.3296
C9 C 0.6694(6) 0.46783(15) 0.3289(4)
H14 H 0.6187 0.4584 0.4337
H15 H 0.5552 0.4522 0.2540
C10 C 0.9055(6) 0.44005(14) 0.3031(4)
H16 H 1.0215 0.4572 0.3741
H17 H 0.9523 0.4478 0.1964
C11 C 0.9066(5) 0.37617(13) 0.3288(3)
H18 H 0.8574 0.3684 0.4362
C12 C 1.1556(5) 0.35209(13) 0.3097(4)
N3 N 0.7381(4) 0.34760(12) 0.2158(3)
H25 H 0.5918 0.3535 0.2461
H26 H 0.7672 0.3105 0.2144
H27 H 0.7550 0.3619 0.1199
N4 N 0.8017(6) 0.55253(14) 0.5879(4)
H28 H 0.6511 0.5587 0.6072
H29 H 0.8906 0.5759 0.6465
H30 H 0.8383 0.5167 0.6113
O5 O 1.3033(4) 0.36431(13) 0.4147(3)
O6 O 1.1940(4) 0.32512(12) 0.1873(3)
C13 C 0.2120(7) 0.5547(2) 0.9656(5)
C14 C 0.3551(6) 0.56626(15) 0.8184(5)
F1 F 0.2737(7) 0.50496(14) 1.0285(4)
F2 F -0.0167(5) 0.5514(2) 0.9324(3)
F3 F 0.2391(8) 0.59289(17) 1.0789(4)
O1 O 0.3110(5) 0.53384(12) 0.7075(4)
O2 O 0.4978(6) 0.60529(15) 0.8282(5)
C15 C 0.1624(6) 0.69327(14) 0.6885(4)
C16 C 0.3002(6) 0.69936(14) 0.5366(4)
O3 O 0.0036(5) 0.65772(12) 0.6844(4)
O4 O 0.2218(5) 0.72643(11) 0.7963(3)
F7 F 0.3461(18) 0.6491(2) 0.4707(10)
F8 F 0.5098(11) 0.7221(5) 0.5632(9)
F9 F 0.1885(16) 0.7293(6) 0.4287(9)
F4? F 0.240(3) 0.6636(6) 0.4230(12)
F5? F 0.5288(10) 0.6952(6) 0.5549(13)
F6? F 0.263(2) 0.7512(4) 0.4766(16)
loop_
_geom_bond_atom_site_label_1
_geom_bond_atom_site_label_2
_geom_bond_site_symmetry_1
_geom_bond_site_symmetry_2
C1 H1 1_555 1_555
H2 C1 1_555 1_555
C2 C1 1_555 1_555
H3 C2 1_555 1_555
H4 C2 1_555 1_555
C3 C2 1_555 1_555
H5 C3 1_555 1_555
H6 C3 1_555 1_555
C4 C3 1_555 1_555
H7 C4 1_555 1_555
H8 C4 1_555 1_555
C5 C4 1_555 1_555
H9 C5 1_555 1_555
C6 C5 1_555 1_555
C7 H10 1_555 1_555
H11 C7 1_555 1_555
C8 C7 1_555 1_555
H12 C8 1_555 1_555
H13 C8 1_555 1_555
C9 C8 1_555 1_555
H14 C9 1_555 1_555
H15 C9 1_555 1_555
C10 C9 1_555 1_555
H16 C10 1_555 1_555
H17 C10 1_555 1_555
C11 C10 1_555 1_555
H18 C11 1_555 1_555
C12 C11 1_555 1_555
C13 C14 1_555 1_555
C14 O1 1_555 1_555
C15 C16 1_555 1_555
C16 F7 1_555 1_555
F1 C13 1_555 1_555
F2 C13 1_555 1_555
F3 C13 1_555 1_555
N1 C5 1_555 1_555
H19 N1 1_555 1_555
H20 N1 1_555 1_555
H21 N1 1_555 1_555
N2 C1 1_555 1_555
H22 N2 1_555 1_555
H23 N2 1_555 1_555
H24 N2 1_555 1_555
N3 C11 1_555 1_555
H25 N3 1_555 1_555
H26 N3 1_555 1_555
H27 N3 1_555 1_555
N4 C7 1_555 1_555
H28 N4 1_555 1_555
H29 N4 1_555 1_555
H30 N4 1_555 1_555
O2 C14 1_555 1_555
O3 C15 1_555 1_555
O4 C15 1_555 1_555
O5 C12 1_555 1_555
O6 C12 1_555 1_555
O7 C6 1_555 1_555
O8 C6 1_555 1_555
F8 C16 1_555 1_555
F9 C16 1_555 1_555

#END
