
#######################################################################
#
#                 Cambridge Crystallographic Data Centre
#                                CCDC 
#
#######################################################################
#
# If this CIF has been generated from an entry in the Cambridge 
# Structural Database, then it will include bibliographic, chemical, 
# crystal, experimental, refinement or atomic coordinate data resulting 
# from the CCDC's data processing and validation procedures.
#
#######################################################################

data_KIWNIQ
_chemical_formula_moiety         'C29 H27 N3 O7'
_chemical_name_systematic        
"dimethyl 1',3'-dimethyl-3-(3-methylphenyl)-2',4',6'-trioxo-1',3',4',6'-tetrahydro-2'H,3H,4aH-spiro[pyrido[1,2-a]quinoline-4,5'-pyrimidine]-1,2-dicarboxylate"
_symmetry_cell_setting           triclinic
_symmetry_space_group_name_H-M   'P -1'
_symmetry_Int_Tables_number      2
_space_group_name_Hall           '-P 1'
loop_
_symmetry_equiv_pos_site_id
_symmetry_equiv_pos_as_xyz
1 x,y,z
2 -x,-y,-z
_cell_length_a                   8.7298(17)
_cell_length_b                   11.660(2)
_cell_length_c                   13.707(2)
_cell_angle_alpha                109.567(5)
_cell_angle_beta                 93.065(6)
_cell_angle_gamma                97.353(6)
_cell_volume                     1296.9
_exptl_crystal_colour            colorless
_exptl_crystal_description       block
_chemical_melting_point          '197-198 deg.C'
_cell_formula_units_Z            2
loop_
_atom_site_label
_atom_site_type_symbol
_atom_site_fract_x
_atom_site_fract_y
_atom_site_fract_z
C1 C 1.2673(3) 1.1325(2) 0.27524(18)
C2 C 1.2124(3) 1.2369(2) 0.3356(2)
H1 H 1.1060 1.2383 0.3343
C3 C 1.3150(4) 1.3393(3) 0.3981(3)
H2 H 1.2770 1.4100 0.4364
C4 C 1.4729(4) 1.3375(3) 0.4041(3)
H3 H 1.5418 1.4076 0.4434
C5 C 1.5265(3) 1.2303(3) 0.3509(2)
H4 H 1.6322 1.2270 0.3582
C6 C 1.4272(3) 1.1271(2) 0.2867(2)
C7 C 1.4812(3) 1.0113(3) 0.2374(2)
H5 H 1.5871 1.0082 0.2424
C8 C 1.3836(3) 0.9095(2) 0.1853(2)
H6 H 1.4223 0.8354 0.1623
C9 C 1.2150(3) 0.9083(2) 0.16198(18)
H7 H 1.1955 0.8814 0.0860
C10 C 1.0178(3) 1.0339(2) 0.16919(17)
C11 C 0.9858(3) 1.1532(2) 0.15777(18)
C12 C 0.8303(4) 1.3089(3) 0.2024(3)
H8 H 0.9123 1.3770 0.2342
H9 H 0.7371 1.3266 0.2347
H10 H 0.8125 1.2960 0.1295
C13 C 0.9123(3) 0.9302(2) 0.13368(17)
C14 C 0.7739(3) 0.9272(2) 0.06483(18)
C15 C 0.5545(3) 0.8001(3) -0.0441(2)
H11 H 0.4984 0.8687 -0.0249
H12 H 0.4853 0.7258 -0.0522
H13 H 0.5972 0.7931 -0.1086
C16 C 0.7551(3) 0.8286(3) 0.2853(2)
H14 H 0.7878 0.9133 0.3091
C17 C 0.6454(3) 0.7789(3) 0.3379(2)
C18 C 0.5815(5) 0.8617(4) 0.4290(3)
H15 H 0.4807 0.8234 0.4362
H16 H 0.5730 0.9383 0.4189
H17 H 0.6496 0.8770 0.4909
C19 C 0.6007(4) 0.6532(3) 0.2991(3)
H18 H 0.5289 0.6180 0.3328
C20 C 0.6557(4) 0.5779(3) 0.2143(3)
H19 H 0.6212 0.4934 0.1905
C21 C 0.7638(3) 0.6278(3) 0.1633(2)
H20 H 0.8024 0.5769 0.1051
C22 C 0.8148(3) 0.7554(2) 0.1998(2)
C23 C 0.9379(3) 0.8083(2) 0.14544(18)
H21 H 0.9308 0.7488 0.0746
C24 C 1.1103(3) 0.8559(2) 0.31390(18)
C25 C 1.1055(3) 0.8144(2) 0.19641(17)
C26 C 1.1517(3) 0.6881(2) 0.1454(2)
C27 C 1.0911(5) 0.8014(3) 0.4703(2)
H22 H 1.0388 0.7307 0.4827
H23 H 1.0282 0.8657 0.4876
H24 H 1.1889 0.8299 0.5126
C28 C 1.1460(4) 0.6495(3) 0.3095(2)
C29 C 1.2100(4) 0.4929(3) 0.1526(3)
H25 H 1.1233 0.4428 0.1046
H26 H 1.2332 0.4557 0.2033
H27 H 1.2988 0.4997 0.1153
N1 N 1.1695(2) 1.03132(17) 0.20221(14)
N2 N 1.1179(3) 0.76740(19) 0.35978(16)
N3 N 1.1710(3) 0.61679(17) 0.20557(16)
O1 O 1.0554(2) 1.20163(15) 0.10554(13)
O2 O 0.87400(19) 1.19899(15) 0.21549(13)
O3 O 0.7500(2) 1.00958(16) 0.03441(14)
O4 O 0.67883(19) 0.81917(15) 0.03640(13)
O5 O 1.0987(2) 0.95967(16) 0.36633(13)
O6 O 1.1695(3) 0.65055(17) 0.05367(14)
O7 O 1.1527(4) 0.5780(2) 0.35531(19)
loop_
_geom_bond_atom_site_label_1
_geom_bond_atom_site_label_2
_geom_bond_site_symmetry_1
_geom_bond_site_symmetry_2
C1 C2 1_555 1_555
C2 H1 1_555 1_555
C3 C2 1_555 1_555
H2 C3 1_555 1_555
C4 C3 1_555 1_555
H3 C4 1_555 1_555
C5 C4 1_555 1_555
H4 C5 1_555 1_555
C6 C1 1_555 1_555
C7 C6 1_555 1_555
H5 C7 1_555 1_555
C8 C7 1_555 1_555
H6 C8 1_555 1_555
C9 C8 1_555 1_555
H7 C9 1_555 1_555
C10 C11 1_555 1_555
C11 O1 1_555 1_555
C12 H8 1_555 1_555
H9 C12 1_555 1_555
H10 C12 1_555 1_555
C13 C10 1_555 1_555
C14 C13 1_555 1_555
C15 H11 1_555 1_555
H12 C15 1_555 1_555
H13 C15 1_555 1_555
C16 H14 1_555 1_555
C17 C16 1_555 1_555
C18 C17 1_555 1_555
H15 C18 1_555 1_555
H16 C18 1_555 1_555
H17 C18 1_555 1_555
C19 C17 1_555 1_555
H18 C19 1_555 1_555
C20 C19 1_555 1_555
H19 C20 1_555 1_555
C21 C20 1_555 1_555
H20 C21 1_555 1_555
C22 C16 1_555 1_555
C23 C13 1_555 1_555
H21 C23 1_555 1_555
C24 C25 1_555 1_555
C25 C9 1_555 1_555
C26 C25 1_555 1_555
C27 H22 1_555 1_555
H23 C27 1_555 1_555
H24 C27 1_555 1_555
C28 N2 1_555 1_555
C29 H25 1_555 1_555
H26 C29 1_555 1_555
H27 C29 1_555 1_555
N1 C1 1_555 1_555
N2 C24 1_555 1_555
N3 C26 1_555 1_555
O2 C11 1_555 1_555
O3 C14 1_555 1_555
O4 C14 1_555 1_555
O5 C24 1_555 1_555
O6 C26 1_555 1_555
O7 C28 1_555 1_555
C5 C6 1_555 1_555
C9 N1 1_555 1_555
C10 N1 1_555 1_555
C12 O2 1_555 1_555
C15 O4 1_555 1_555
C21 C22 1_555 1_555
C22 C23 1_555 1_555
C23 C25 1_555 1_555
C27 N2 1_555 1_555
C28 N3 1_555 1_555
C29 N3 1_555 1_555

#END
