
#######################################################################
#
#                 Cambridge Crystallographic Data Centre
#                                CCDC 
#
#######################################################################
#
# If this CIF has been generated from an entry in the Cambridge 
# Structural Database, then it will include bibliographic, chemical, 
# crystal, experimental, refinement or atomic coordinate data resulting 
# from the CCDC's data processing and validation procedures.
#
#######################################################################

data_KIWNAI
_chemical_formula_moiety         'C31 H22 N2 O8'
_chemical_name_systematic        
"dimethyl 3'-(4-nitrophenyl)-1,3-dioxo-1,3-dihydro-3'H,4a'H-spiro[indene-2,4'-pyrido[1,2-a]quinoline]-1',2'-dicarboxylate unknown solvate"
_symmetry_cell_setting           monoclinic
_symmetry_space_group_name_H-M   'P 21/c'
_symmetry_Int_Tables_number      14
_space_group_name_Hall           '-P 2ybc'
loop_
_symmetry_equiv_pos_site_id
_symmetry_equiv_pos_as_xyz
1 x,y,z
2 -x,1/2+y,1/2-z
3 -x,-y,-z
4 x,1/2-y,1/2+z
_cell_length_a                   11.4996(15)
_cell_length_b                   14.480(2)
_cell_length_c                   18.349(3)
_cell_angle_alpha                90
_cell_angle_beta                 97.851(5)
_cell_angle_gamma                90
_cell_volume                     3026.73
_exptl_crystal_colour            yellow
_exptl_crystal_description       block
_chemical_melting_point          '170-172 deg.C'
_cell_formula_units_Z            4
loop_
_atom_site_label
_atom_site_type_symbol
_atom_site_fract_x
_atom_site_fract_y
_atom_site_fract_z
C1 C 0.8388(2) 0.59846(19) 0.11630(15)
H1 H 0.8490 0.5354 0.0989
C2 C 0.8314(3) 0.5918(2) 0.19661(17)
H2 H 0.7731 0.5549 0.2118
C3 C 0.9032(3) 0.6356(2) 0.24723(18)
H3 H 0.8994 0.6235 0.2966
C4 C 0.9875(3) 0.7018(2) 0.22797(16)
C5 C 1.0489(3) 0.7604(3) 0.27920(19)
H4 H 1.0425 0.7523 0.3288
C6 C 1.1182(3) 0.8292(3) 0.2590(2)
H5 H 1.1613 0.8660 0.2945
C7 C 1.1237(3) 0.8437(2) 0.1855(2)
H6 H 1.1676 0.8928 0.1713
C8 C 1.0651(2) 0.7863(2) 0.13231(18)
H7 H 1.0692 0.7969 0.0827
C9 C 1.0007(2) 0.7133(2) 0.15364(16)
C10 C 0.9658(2) 0.64433(17) 0.03071(15)
C11 C 1.0948(2) 0.6447(2) 0.02072(15)
C12 C 1.2401(2) 0.7089(2) -0.03979(18)
H8 H 1.2915 0.7284 0.0031
H9 H 1.2482 0.7500 -0.0799
H10 H 1.2603 0.6473 -0.0527
C13 C 0.8782(2) 0.62493(17) -0.02349(15)
C14 C 0.9079(2) 0.59097(18) -0.09494(15)
C15 C 0.8300(3) 0.5469(3) -0.21562(17)
H11 H 0.8882 0.5818 -0.2366
H12 H 0.7573 0.5484 -0.2483
H13 H 0.8558 0.4841 -0.2085
C16 C 0.7034(2) 0.7358(2) 0.09465(16)
C17 C 0.5906(2) 0.7337(2) 0.12407(16)
C18 C 0.5347(3) 0.8038(2) 0.15645(18)
H14 H 0.5684 0.8621 0.1635
C19 C 0.4271(3) 0.7844(3) 0.1780(2)
H15 H 0.3873 0.8309 0.1994
C20 C 0.3770(3) 0.6980(3) 0.16871(19)
H16 H 0.3042 0.6873 0.1838
C21 C 0.4327(3) 0.6280(2) 0.13771(17)
H17 H 0.3988 0.5697 0.1313
C22 C 0.5409(2) 0.6462(2) 0.11606(15)
C23 C 0.6198(2) 0.5844(2) 0.08250(15)
C24 C 0.7288(2) 0.63864(18) 0.06794(15)
C25 C 0.7492(2) 0.62957(19) -0.01337(14)
H18 H 0.7140 0.5707 -0.0312
C26 C 0.6852(2) 0.70438(19) -0.06066(15)
C27 C 0.5669(3) 0.6952(2) -0.08640(17)
H19 H 0.5281 0.6409 -0.0775
C28 C 0.5060(3) 0.7658(3) -0.12514(18)
H20 H 0.4260 0.7603 -0.1412
C29 C 0.5656(4) 0.8443(3) -0.13945(18)
C30 C 0.6813(3) 0.8550(2) -0.11645(19)
H21 H 0.7202 0.9085 -0.1273
C31 C 0.7404(3) 0.7850(2) -0.07668(18)
H22 H 0.8199 0.7921 -0.0601
N1 N 0.94320(18) 0.65051(15) 0.10268(12)
N2 N 0.5003(5) 0.9202(3) -0.1793(2)
O1 O 1.16411(16) 0.59204(14) 0.05270(11)
O2 O 1.12074(15) 0.71061(13) -0.02466(10)
O3 O 1.00435(16) 0.56893(13) -0.10615(10)
O4 O 0.81284(16) 0.58666(14) -0.14553(10)
O5 O 0.76697(18) 0.80225(14) 0.09324(12)
O6 O 0.60508(18) 0.50347(15) 0.06862(13)
O7 O 0.5590(4) 0.9798(3) -0.2057(2)
O8 O 0.3948(4) 0.9190(3) -0.18568(19)
loop_
_geom_bond_atom_site_label_1
_geom_bond_atom_site_label_2
_geom_bond_site_symmetry_1
_geom_bond_site_symmetry_2
C1 H1 1_555 1_555
C2 C1 1_555 1_555
H2 C2 1_555 1_555
C3 C2 1_555 1_555
H3 C3 1_555 1_555
C4 C3 1_555 1_555
C5 C4 1_555 1_555
H4 C5 1_555 1_555
C6 C5 1_555 1_555
H5 C6 1_555 1_555
C7 C6 1_555 1_555
H6 C7 1_555 1_555
C8 C7 1_555 1_555
H7 C8 1_555 1_555
C9 C4 1_555 1_555
C10 C11 1_555 1_555
C11 O1 1_555 1_555
C12 H8 1_555 1_555
H9 C12 1_555 1_555
H10 C12 1_555 1_555
C13 C10 1_555 1_555
C14 C13 1_555 1_555
C15 H11 1_555 1_555
H12 C15 1_555 1_555
H13 C15 1_555 1_555
C16 C17 1_555 1_555
C17 C18 1_555 1_555
C18 H14 1_555 1_555
C19 C18 1_555 1_555
H15 C19 1_555 1_555
C20 C19 1_555 1_555
H16 C20 1_555 1_555
C21 C20 1_555 1_555
H17 C21 1_555 1_555
C22 C17 1_555 1_555
C23 C22 1_555 1_555
C24 C1 1_555 1_555
C25 C13 1_555 1_555
H18 C25 1_555 1_555
C26 C25 1_555 1_555
C27 C26 1_555 1_555
H19 C27 1_555 1_555
C28 C27 1_555 1_555
H20 C28 1_555 1_555
C29 C28 1_555 1_555
C30 C29 1_555 1_555
H21 C30 1_555 1_555
C31 C26 1_555 1_555
H22 C31 1_555 1_555
N1 C1 1_555 1_555
N2 C29 1_555 1_555
O2 C11 1_555 1_555
O3 C14 1_555 1_555
O4 C14 1_555 1_555
O5 C16 1_555 1_555
O6 C23 1_555 1_555
O7 N2 1_555 1_555
O8 N2 1_555 1_555
C8 C9 1_555 1_555
C9 N1 1_555 1_555
C10 N1 1_555 1_555
C12 O2 1_555 1_555
C15 O4 1_555 1_555
C16 C24 1_555 1_555
C21 C22 1_555 1_555
C23 C24 1_555 1_555
C24 C25 1_555 1_555
C30 C31 1_555 1_555

#END
