
#######################################################################
#
#                 Cambridge Crystallographic Data Centre
#                                CCDC 
#
#######################################################################
#
# If this CIF has been generated from an entry in the Cambridge 
# Structural Database, then it will include bibliographic, chemical, 
# crystal, experimental, refinement or atomic coordinate data resulting 
# from the CCDC's data processing and validation procedures.
#
#######################################################################

data_KIWPEO
_chemical_formula_moiety         
'C44 H44 Ca1 O14 S2 2+,2(Cl1 O4 1-),2(C2 H3 N1)'
_chemical_name_systematic        
'bis(6,7,9,10,12,13,15,16-octahydro-11H,22H-1,21-methanodibenzo[n,q][1,4,10,13,7]tetraoxathiacyclooctadecine-11,22,23-trione)-calcium(ii) diperchlorate acetonitrile solvate'
_symmetry_cell_setting           triclinic
_symmetry_space_group_name_H-M   'P -1'
_symmetry_Int_Tables_number      2
_space_group_name_Hall           '-P 1'
loop_
_symmetry_equiv_pos_site_id
_symmetry_equiv_pos_as_xyz
1 x,y,z
2 -x,-y,-z
_cell_length_a                   12.659(3)
_cell_length_b                   15.229(3)
_cell_length_c                   16.025(3)
_cell_angle_alpha                111.652(2)
_cell_angle_beta                 110.057(2)
_cell_angle_gamma                93.202(2)
_cell_volume                     2637.72
_exptl_crystal_colour            yellow
_exptl_crystal_description       block
_cell_formula_units_Z            2
loop_
_atom_site_label
_atom_site_type_symbol
_atom_site_fract_x
_atom_site_fract_y
_atom_site_fract_z
C1 C 0.3285(3) 0.2721(2) 0.0223(2)
C2 C 0.4143(3) 0.3565(3) 0.0738(3)
H1 H 0.3966 0.4151 0.1047
C3 C 0.5252(3) 0.3533(3) 0.0789(3)
H2 H 0.5808 0.4102 0.1112
C4 C 0.5543(3) 0.2667(3) 0.0369(3)
H3 H 0.6298 0.2648 0.0429
C5 C 0.4704(3) 0.1824(3) -0.0146(3)
C6 C 0.5036(3) 0.0894(3) -0.0601(3)
C7 C 0.4156(3) -0.0008(3) -0.1136(3)
C8 C 0.4480(3) -0.0866(3) -0.1541(3)
H4 H 0.5240 -0.0866 -0.1471
C9 C 0.3669(3) -0.1722(3) -0.2051(3)
H5 H 0.3895 -0.2299 -0.2309
C10 C 0.2534(3) -0.1737(3) -0.2184(3)
H6 H 0.2001 -0.2320 -0.2533
C11 C 0.2179(3) -0.0879(2) -0.1795(2)
C12 C 0.2995(3) 0.0008(2) -0.1258(2)
C13 C 0.2652(3) 0.0939(2) -0.0891(2)
C14 C 0.3555(3) 0.1830(2) -0.0250(2)
C15 C 0.2434(3) 0.1532(2) -0.2637(2)
C16 C 0.3614(3) 0.1748(3) -0.2393(3)
H7 H 0.4029 0.2377 -0.1988
C17 C 0.4171(3) 0.1034(3) -0.2752(3)
H8 H 0.4959 0.1187 -0.2582
C18 C 0.3580(3) 0.0105(3) -0.3351(3)
H9 H 0.3963 -0.0368 -0.3590
C19 C 0.2410(3) -0.0128(3) -0.3601(3)
C20 C 0.1793(3) -0.1151(3) -0.4240(3)
C21 C 0.0521(3) -0.1393(3) -0.4583(3)
C22 C -0.0036(4) -0.2340(3) -0.5201(3)
H10 H 0.0379 -0.2801 -0.5406
C23 C -0.1216(4) -0.2598(3) -0.5513(3)
H11 H -0.1590 -0.3234 -0.5930
C24 C -0.1847(3) -0.1927(3) -0.5216(3)
H12 H -0.2642 -0.2111 -0.5444
C25 C -0.1291(3) -0.0966(3) -0.4570(2)
C26 C -0.0090(3) -0.0685(2) -0.4242(2)
C27 C 0.0552(3) 0.0292(2) -0.3492(2)
C28 C 0.1796(3) 0.0575(2) -0.3253(2)
C29 C 0.1998(3) 0.3578(2) 0.0865(3)
H13 H 0.1950 0.4103 0.0658
H14 H 0.2625 0.3797 0.1499
C30 C 0.0887(3) 0.3260(2) 0.0915(2)
H15 H 0.0938 0.2731 0.1118
H16 H 0.0722 0.3790 0.1385
C31 C -0.1138(3) 0.2764(3) -0.0045(3)
H17 H -0.1704 0.2705 -0.0663
H18 H -0.1220 0.3308 0.0470
C32 C -0.1378(3) 0.1849(3) 0.0093(3)
H19 H -0.2203 0.1612 -0.0180
H20 H -0.1096 0.2007 0.0786
C33 C -0.1742(3) -0.0118(3) -0.0622(3)
H21 H -0.1461 -0.0219 -0.0027
H22 H -0.2477 0.0068 -0.0687
C34 C -0.1955(3) -0.1069(3) -0.1462(3)
H23 H -0.2317 -0.1577 -0.1360
H24 H -0.2477 -0.1051 -0.2059
C35 C -0.0919(3) -0.1477(3) -0.2504(3)
H25 H -0.1021 -0.0912 -0.2643
H26 H -0.1550 -0.2008 -0.2997
C36 C 0.0208(3) -0.1732(2) -0.2524(3)
H27 H 0.0379 -0.2225 -0.2280
H28 H 0.0177 -0.1974 -0.3185
C37 C 0.2447(3) 0.3234(2) -0.1867(3)
H29 H 0.2875 0.3322 -0.2240
H30 H 0.2978 0.3434 -0.1196
C38 C 0.1530(3) 0.3810(2) -0.1918(3)
H31 H 0.1873 0.4493 -0.1618
H32 H 0.1033 0.3637 -0.2594
C39 C 0.0053(3) 0.4228(3) -0.1313(3)
H33 H 0.0457 0.4895 -0.1029
H34 H -0.0263 0.4149 -0.0867
C40 C -0.0927(3) 0.4029(3) -0.2271(3)
H35 H -0.0676 0.3848 -0.2808
H36 H -0.1290 0.4579 -0.2238
C41 C -0.2946(3) 0.2712(3) -0.3623(3)
H37 H -0.3354 0.3228 -0.3651
H38 H -0.2590 0.2558 -0.4093
C42 C -0.3694(3) 0.1842(3) -0.3740(3)
H39 H -0.3591 0.1865 -0.3104
H40 H -0.4495 0.1836 -0.4079
C43 C -0.3487(3) 0.0252(3) -0.3957(3)
H41 H -0.4280 0.0056 -0.4058
H42 H -0.3018 0.0492 -0.3265
C44 C -0.3091(3) -0.0590(3) -0.4515(3)
H43 H -0.3232 -0.1130 -0.4356
H44 H -0.3504 -0.0791 -0.5210
O1 O 0.6036(2) 0.0883(2) -0.0524(2)
O2 O 0.16371(19) 0.09836(16) -0.11514(17)
O3 O 0.21827(19) 0.27413(16) 0.01597(17)
O4 O -0.00003(19) 0.29542(17) -0.00325(17)
O5 O -0.0786(3) 0.08495(19) -0.1348(2)
O6 O -0.0911(2) -0.12845(18) -0.15638(19)
O7 O 0.1069(2) -0.08595(16) -0.19099(18)
O8 O 0.2331(2) -0.17751(19) -0.4460(2)
O9 O 0.0058(2) 0.08524(17) -0.30558(17)
O10 O 0.1867(2) 0.22276(16) -0.22772(17)
O11 O 0.0869(2) 0.36071(16) -0.14085(17)
O12 O -0.1393(2) 0.23277(18) -0.22482(19)
O13 O -0.3396(2) 0.09885(19) -0.42829(19)
O14 O -0.1874(2) -0.02922(18) -0.42454(18)
S1 S -0.17563(10) 0.08246(9) -0.10853(9)
S2 S -0.14403(8) 0.27308(7) -0.29887(7)
Ca1 Ca 0.03631(6) 0.19770(5) -0.14886(5)
C45 C 0.2155(5) 0.4459(5) 0.3844(4)
C46 C 0.1707(6) 0.4317(6) 0.4509(5)
H45 H 0.0902 0.4027 0.4168
H46 H 0.1812 0.4929 0.5032
H47 H 0.2108 0.3901 0.4771
N1 N 0.2520(6) 0.4518(7) 0.3327(5)
O15 O 0.6280(2) 0.28719(19) 0.8619(2)
O16 O 0.6672(4) 0.4181(2) 0.8263(3)
O17 O 0.5200(3) 0.4068(2) 0.8790(3)
O18 O 0.7099(3) 0.4424(3) 0.9851(3)
Cl1 Cl 0.63173(8) 0.38820(6) 0.88883(7)
O19 O 0.8763(4) 0.3925(3) 0.2159(3)
O20 O 0.8781(4) 0.3942(2) 0.3621(3)
O21 O 0.9642(3) 0.5313(2) 0.3603(2)
O22 O 0.7663(3) 0.4863(3) 0.2895(3)
Cl2 Cl 0.87120(11) 0.44985(7) 0.30638(7)
C47 C 0.5563(8) 0.6142(7) 0.4041(7)
N2 N 0.5768(9) 0.6862(8) 0.4843(8)
C48 C 0.5275(10) 0.5289(9) 0.3265(9)
H48 H 0.5386 0.4780 0.3483
H49 H 0.5751 0.5298 0.2912
H50 H 0.4483 0.5180 0.2846
S3? S -0.0733(2) 0.09090(19) -0.0463(2)
S4? S -0.1903(8) 0.2986(7) -0.2371(7)
loop_
_geom_bond_atom_site_label_1
_geom_bond_atom_site_label_2
_geom_bond_site_symmetry_1
_geom_bond_site_symmetry_2
C1 C2 1_555 1_555
C2 H1 1_555 1_555
C3 C2 1_555 1_555
H2 C3 1_555 1_555
C4 C3 1_555 1_555
H3 C4 1_555 1_555
C5 C4 1_555 1_555
C6 C5 1_555 1_555
C7 C6 1_555 1_555
C8 C7 1_555 1_555
H4 C8 1_555 1_555
C9 C8 1_555 1_555
H5 C9 1_555 1_555
C10 C9 1_555 1_555
H6 C10 1_555 1_555
C11 C10 1_555 1_555
C12 C7 1_555 1_555
C13 C12 1_555 1_555
C14 C1 1_555 1_555
C15 C16 1_555 1_555
C16 H7 1_555 1_555
C17 C16 1_555 1_555
H8 C17 1_555 1_555
C18 C17 1_555 1_555
H9 C18 1_555 1_555
C19 C18 1_555 1_555
C20 C19 1_555 1_555
C21 C20 1_555 1_555
C22 C21 1_555 1_555
H10 C22 1_555 1_555
C23 C22 1_555 1_555
H11 C23 1_555 1_555
C24 C23 1_555 1_555
H12 C24 1_555 1_555
C25 C24 1_555 1_555
C26 C21 1_555 1_555
C27 C26 1_555 1_555
C28 C15 1_555 1_555
C29 H13 1_555 1_555
H14 C29 1_555 1_555
C30 C29 1_555 1_555
H15 C30 1_555 1_555
H16 C30 1_555 1_555
C31 H17 1_555 1_555
H18 C31 1_555 1_555
C32 C31 1_555 1_555
H19 C32 1_555 1_555
H20 C32 1_555 1_555
C33 H21 1_555 1_555
H22 C33 1_555 1_555
C34 C33 1_555 1_555
H23 C34 1_555 1_555
H24 C34 1_555 1_555
C35 H25 1_555 1_555
H26 C35 1_555 1_555
C36 C35 1_555 1_555
H27 C36 1_555 1_555
H28 C36 1_555 1_555
C37 H29 1_555 1_555
H30 C37 1_555 1_555
C38 C37 1_555 1_555
H31 C38 1_555 1_555
H32 C38 1_555 1_555
C39 H33 1_555 1_555
H34 C39 1_555 1_555
C40 C39 1_555 1_555
H35 C40 1_555 1_555
H36 C40 1_555 1_555
C41 H37 1_555 1_555
H38 C41 1_555 1_555
C42 C41 1_555 1_555
H39 C42 1_555 1_555
H40 C42 1_555 1_555
C43 H41 1_555 1_555
H42 C43 1_555 1_555
C44 C43 1_555 1_555
H43 C44 1_555 1_555
H44 C44 1_555 1_555
O1 C6 1_555 1_555
O2 C13 1_555 1_555
O3 C1 1_555 1_555
O4 C30 1_555 1_555
O5 S1 1_555 1_555
O6 C34 1_555 1_555
O7 C11 1_555 1_555
O8 C20 1_555 1_555
O9 C27 1_555 1_555
O10 C15 1_555 1_555
O11 C38 1_555 1_555
O12 S2 1_555 1_555
O13 C42 1_555 1_555
O14 C25 1_555 1_555
S1 C32 1_555 1_555
S2 C40 1_555 1_555
Ca1 O2 1_555 1_555
C45 C46 1_555 1_555
C46 H45 1_555 1_555
H46 C46 1_555 1_555
H47 C46 1_555 1_555
N1 C45 1_555 1_555
O15 Cl1 1_555 1_555
O16 Cl1 1_555 1_555
O17 Cl1 1_555 1_555
O18 Cl1 1_555 1_555
O19 Cl2 1_555 1_555
O20 Cl2 1_555 1_555
O21 Cl2 1_555 1_555
O22 Cl2 1_555 1_555
C47 N2 1_555 1_555
C48 C47 1_555 1_555
H48 C48 1_555 1_555
H49 C48 1_555 1_555
H50 C48 1_555 1_555
C5 C14 1_555 1_555
C11 C12 1_555 1_555
C13 C14 1_555 1_555
C19 C28 1_555 1_555
C25 C26 1_555 1_555
C27 C28 1_555 1_555
C29 O3 1_555 1_555
C31 O4 1_555 1_555
C33 S1 1_555 1_555
C35 O6 1_555 1_555
C36 O7 1_555 1_555
C37 O10 1_555 1_555
C39 O11 1_555 1_555
C41 S2 1_555 1_555
C43 O13 1_555 1_555
C44 O14 1_555 1_555
O3 Ca1 1_555 1_555
O4 Ca1 1_555 1_555
O5 Ca1 1_555 1_555
O9 Ca1 1_555 1_555
O10 Ca1 1_555 1_555
O11 Ca1 1_555 1_555
O12 Ca1 1_555 1_555

#END
