
#######################################################################
#
#                 Cambridge Crystallographic Data Centre
#                                CCDC 
#
#######################################################################
#
# If this CIF has been generated from an entry in the Cambridge 
# Structural Database, then it will include bibliographic, chemical, 
# crystal, experimental, refinement or atomic coordinate data resulting 
# from the CCDC's data processing and validation procedures.
#
#######################################################################

data_KIWREN
_chemical_formula_moiety         'C46 H102 N14 P6'
_chemical_name_systematic        
5,11-Diethylamino-4,6,10,12-tetrakis((diethylamino)phosphino)-4,6,10,12-tetra-aza-5,11-diphosphatricyclo(7.3.0.0^3,7^)dodeca-1,3(7),8-triene
_symmetry_cell_setting           monoclinic
_symmetry_space_group_name_H-M   'P 21/c'
_symmetry_Int_Tables_number      14
_space_group_name_Hall           '-P 2ybc'
loop_
_symmetry_equiv_pos_site_id
_symmetry_equiv_pos_as_xyz
1 x,y,z
2 -x,1/2+y,1/2-z
3 -x,-y,-z
4 x,1/2-y,1/2+z
_cell_length_a                   12.573(3)
_cell_length_b                   16.976(3)
_cell_length_c                   15.455(3)
_cell_angle_alpha                90
_cell_angle_beta                 111.55(2)
_cell_angle_gamma                90
_cell_volume                     3068.12
_exptl_crystal_colour            yellow
_chemical_melting_point          170-173deg.C
_cell_formula_units_Z            2
loop_
_atom_site_label
_atom_site_type_symbol
_atom_site_fract_x
_atom_site_fract_y
_atom_site_fract_z
P1 P 0.1794(1) 0.5701(1) 0.4580(1)
P2 P 0.2257(1) 0.4909(1) 0.2956(1)
P3 P 0.4240(1) 0.4468(1) 0.2313(1)
N1 N 0.2691(2) 0.5345(2) 0.4052(2)
N2 N 0.3686(2) 0.4808(2) 0.3113(2)
N3 N 0.2405(3) 0.6579(2) 0.4942(2)
N4 N 0.0597(3) 0.5811(2) 0.3614(2)
N5 N 0.1811(3) 0.4008(2) 0.3094(2)
N6 N 0.5109(4) 0.5227(3) 0.2336(3)
N7 N 0.3057(3) 0.4492(2) 0.1344(2)
C1 C 0.3856(3) 0.5192(2) 0.4598(2)
C2 C 0.4440(3) 0.4890(2) 0.4059(2)
C3 C 0.4411(3) 0.5309(2) 0.5553(2)
C4 C 0.2908(5) 0.7082(3) 0.4454(4)
C5 C 0.4064(5) 0.7393(4) 0.4964(5)
C7 C 0.2432(5) 0.6847(3) 0.5853(4)
C8 C 0.1839(7) 0.7561(4) 0.5893(7)
C9 C 0.0507(4) 0.6413(3) 0.2904(3)
C10 C -0.0373(4) 0.6219(3) 0.1955(3)
C11 C -0.0463(3) 0.5638(3) 0.3772(3)
C12 C -0.0921(4) 0.6311(3) 0.4171(4)
C13 C 0.0722(3) 0.3729(3) 0.2422(3)
C14 C -0.0209(4) 0.3647(3) 0.2801(4)
C15 C 0.2425(4) 0.3456(2) 0.3835(3)
C16 C 0.2977(4) 0.2779(3) 0.3526(4)
C17 C 0.4832(6) 0.6071(4) 0.2419(4)
C18 C 0.5733(7) 0.6527(4) 0.3168(4)
C19 C 0.6224(5) 0.4974(5) 0.2222(4)
C20 C 0.6218(8) 0.5141(7) 0.1303(6)
C21 C 0.2526(5) 0.5250(3) 0.0891(3)
C22 C 0.1353(5) 0.5224(4) 0.0323(4)
C24 C 0.2972(4) 0.3832(3) 0.0673(3)
C25 C 0.2091(5) 0.3277(3) 0.0668(4)
H1 H 0.4013 0.5518 0.5927
H2 H 0.2691 0.6839 0.3853
H4 H 0.4558 0.6971 0.5287
H5 H 0.4031 0.7782 0.5405
H6 H 0.4358 0.7629 0.4533
H10 H 0.3220 0.6920 0.6242
H11 H 0.2109 0.6433 0.6103
H12 H 0.1922 0.7664 0.6525
H13 H 0.1042 0.7505 0.5517
H14 H 0.2155 0.7991 0.5663
H15 H 0.0300 0.6904 0.3106
H16 H 0.1239 0.6464 0.2848
H17 H -0.0394 0.6633 0.1526
H18 H -0.1113 0.6167 0.1998
H19 H -0.0172 0.5732 0.1737
H20 H -0.1039 0.5493 0.3186
H21 H -0.0318 0.5202 0.4195
H22 H -0.1615 0.6150 0.4245
H23 H -0.1075 0.6754 0.3757
H24 H -0.0366 0.6456 0.4766
H25 H 0.0472 0.4096 0.1913
H26 H 0.0847 0.3223 0.2198
H27 H -0.0893 0.3463 0.2318
H28 H -0.0353 0.4149 0.3022
H29 H 0.0021 0.3276 0.3305
H30 H 0.3012 0.3741 0.4311
H31 H 0.1892 0.3244 0.4087
H32 H 0.3365 0.2446 0.4048
H33 H 0.3517 0.2980 0.3275
H34 H 0.2400 0.2481 0.3057
H35 H 0.4710 0.6324 0.1834
H36 H 0.4140 0.6092 0.2546
H37 H 0.5486 0.7063 0.3166
H38 H 0.6433 0.6517 0.3053
H39 H 0.5855 0.6293 0.3762
H40 H 0.6327 0.4418 0.2335
H41 H 0.6849 0.5253 0.2670
H42 H 0.5997 0.5679 0.1143
H43 H 0.5685 0.4797 0.0859
H44 H 0.6970 0.5056 0.1296
H46 H 0.2776 0.5629 0.1386
H47 H 0.0924 0.5028 0.0678
H48 H 0.1245 0.4883 -0.0197
H49 H 0.1095 0.5745 0.0103
H53 H 0.3693 0.3563 0.0858
H54 H 0.2785 0.4045 0.0060
H55 H 0.2052 0.2856 0.0242
H56 H 0.1366 0.3542 0.0477
H57 H 0.2271 0.3066 0.1282
C3B C 0.5589(3) 0.4691(2) 0.4447(2)
C2B C 0.5560(3) 0.5110(2) 0.5941(2)
C1B C 0.6144(3) 0.4808(2) 0.5402(2)
H1B H 0.5987 0.4482 0.4073
N2B N 0.6314(2) 0.5192(2) 0.6887(2)
N1B N 0.7309(2) 0.4655(2) 0.5948(2)
P2B P 0.7743(1) 0.5091(1) 0.7044(1)
P3B P 0.5760(1) 0.5532(1) 0.7687(1)
P1B P 0.8206(1) 0.4299(1) 0.5420(1)
N5B N 0.8189(3) 0.5992(2) 0.6906(2)
N6B N 0.4891(4) 0.4773(3) 0.7664(3)
N7B N 0.6943(3) 0.5508(2) 0.8656(2)
N3B N 0.7595(3) 0.3421(2) 0.5058(2)
N4B N 0.9403(3) 0.4189(2) 0.6386(2)
C13B C 0.9278(3) 0.6271(3) 0.7578(3)
C15B C 0.7575(4) 0.6544(2) 0.6165(3)
C17B C 0.5168(6) 0.3929(4) 0.7581(4)
C19B C 0.3776(5) 0.5026(5) 0.7778(4)
C21B C 0.7474(5) 0.4750(3) 0.9109(3)
C24B C 0.7028(4) 0.6168(3) 0.9327(3)
C4B C 0.7092(5) 0.2918(3) 0.5546(4)
C7B C 0.7568(5) 0.3153(3) 0.4147(4)
C9B C 0.9493(4) 0.3587(3) 0.7096(3)
C11B C 1.0463(3) 0.4362(3) 0.6228(3)
C14B C 1.0209(4) 0.6353(3) 0.7199(4)
H25B H 0.9528 0.5904 0.8087
H26B H 0.9153 0.6777 0.7802
C16B C 0.7023(4) 0.7221(3) 0.6474(4)
H30B H 0.6988 0.6259 0.5689
H31B H 0.8108 0.6756 0.5913
C18B C 0.4267(7) 0.3473(4) 0.6832(4)
H35B H 0.5290 0.3676 0.8166
H36B H 0.5860 0.3908 0.7454
C20B C 0.3782(8) 0.4859(7) 0.8697(6)
H40B H 0.3673 0.5582 0.7665
H41B H 0.3151 0.4747 0.7330
C22B C 0.8647(5) 0.4776(4) 0.9677(4)
H46B H 0.7224 0.4371 0.8614
C25B C 0.7909(5) 0.6723(3) 0.9332(4)
H53B H 0.6307 0.6437 0.9142
H54B H 0.7215 0.5955 0.9940
C5B C 0.5936(5) 0.2607(4) 0.5036(5)
H2B H 0.7309 0.3161 0.6147
C8B C 0.8161(7) 0.2439(4) 0.4107(7)
H10B H 0.6780 0.3080 0.3758
H11B H 0.7891 0.3567 0.3897
C10B C 1.0373(4) 0.3781(3) 0.8045(3)
H15B H 0.9700 0.3096 0.6894
H16B H 0.8761 0.3536 0.7152
C12B C 1.0921(4) 0.3689(3) 0.5829(4)
H20B H 1.1039 0.4507 0.6814
H21B H 1.0318 0.4798 0.5805
H27B H 1.0893 0.6537 0.7682
H28B H 1.0353 0.5851 0.6978
H29B H 0.9979 0.6724 0.6695
H32B H 0.6635 0.7554 0.5952
H33B H 0.6483 0.7020 0.6725
H34B H 0.7600 0.7519 0.6943
H37B H 0.4514 0.2937 0.6834
H38B H 0.3567 0.3483 0.6947
H39B H 0.4145 0.3707 0.6238
H42B H 0.4003 0.4321 0.8857
H43B H 0.4315 0.5203 0.9141
H44B H 0.3030 0.4944 0.8704
H47B H 0.9076 0.4972 0.9322
H48B H 0.8755 0.5117 1.0197
H49B H 0.8905 0.4255 0.9897
H55B H 0.7948 0.7144 0.9758
H56B H 0.8634 0.6458 0.9523
H57B H 0.7729 0.6934 0.8718
H4B H 0.5442 0.3029 0.4713
H5B H 0.5969 0.2218 0.4595
H6B H 0.5642 0.2371 0.5467
H12B H 0.8078 0.2336 0.3475
H13B H 0.8958 0.2495 0.4483
H14B H 0.7845 0.2009 0.4337
H17B H 1.0394 0.3367 0.8474
H18B H 1.1113 0.3833 0.8002
H19B H 1.0172 0.4268 0.8263
H22B H 1.1615 0.3850 0.5755
H23B H 1.1075 0.3246 0.6243
H24B H 1.0366 0.3544 0.5234
C6? C 0.2817(20) 0.7813(11) 0.4270(14)
C23? C 0.2350(19) 0.5486(10) 0.0042(11)
H3? H 0.3714 0.7014 0.4786
H7? H 0.2046 0.7928 0.3868
H8? H 0.3331 0.7955 0.3966
H9? H 0.3002 0.8108 0.4837
H45? H 0.2921 0.4761 0.1100
H50? H 0.3066 0.5631 -0.0002
H51? H 0.1846 0.5932 -0.0106
H52? H 0.2010 0.5067 -0.0388
loop_
_geom_bond_atom_site_label_1
_geom_bond_atom_site_label_2
_geom_bond_site_symmetry_1
_geom_bond_site_symmetry_2
P1 N1 1_555 1_555
P2 N1 1_555 1_555
P3 N2 1_555 1_555
N1 C1 1_555 1_555
N2 P2 1_555 1_555
N3 P1 1_555 1_555
N4 P1 1_555 1_555
N5 P2 1_555 1_555
N6 P3 1_555 1_555
N7 P3 1_555 1_555
C1 C2 1_555 1_555
C2 N2 1_555 1_555
C3 C1 1_555 1_555
C4 N3 1_555 1_555
C5 C4 1_555 1_555
C7 N3 1_555 1_555
C8 C7 1_555 1_555
C9 N4 1_555 1_555
C10 C9 1_555 1_555
C11 N4 1_555 1_555
C12 C11 1_555 1_555
C13 N5 1_555 1_555
C14 C13 1_555 1_555
C15 N5 1_555 1_555
C16 C15 1_555 1_555
C17 N6 1_555 1_555
C18 C17 1_555 1_555
C19 N6 1_555 1_555
C20 C19 1_555 1_555
C21 N7 1_555 1_555
C22 C21 1_555 1_555
C24 N7 1_555 1_555
C25 C24 1_555 1_555
H1 C3 1_555 1_555
H2 C4 1_555 1_555
H4 C5 1_555 1_555
H5 C5 1_555 1_555
H6 C5 1_555 1_555
H10 C7 1_555 1_555
H11 C7 1_555 1_555
H12 C8 1_555 1_555
H13 C8 1_555 1_555
H14 C8 1_555 1_555
H15 C9 1_555 1_555
H16 C9 1_555 1_555
H17 C10 1_555 1_555
H18 C10 1_555 1_555
H19 C10 1_555 1_555
H20 C11 1_555 1_555
H21 C11 1_555 1_555
H22 C12 1_555 1_555
H23 C12 1_555 1_555
H24 C12 1_555 1_555
H25 C13 1_555 1_555
H26 C13 1_555 1_555
H27 C14 1_555 1_555
H28 C14 1_555 1_555
H29 C14 1_555 1_555
H30 C15 1_555 1_555
H31 C15 1_555 1_555
H32 C16 1_555 1_555
H33 C16 1_555 1_555
H34 C16 1_555 1_555
H35 C17 1_555 1_555
H36 C17 1_555 1_555
H37 C18 1_555 1_555
H38 C18 1_555 1_555
H39 C18 1_555 1_555
H40 C19 1_555 1_555
H41 C19 1_555 1_555
H42 C20 1_555 1_555
H43 C20 1_555 1_555
H44 C20 1_555 1_555
H46 C21 1_555 1_555
H47 C22 1_555 1_555
H48 C22 1_555 1_555
H49 C22 1_555 1_555
H53 C24 1_555 1_555
H54 C24 1_555 1_555
H55 C25 1_555 1_555
H56 C25 1_555 1_555
H57 C25 1_555 1_555
C3B C2 1_555 1_555
C2B C3 1_555 1_555
C1B C3B 1_555 1_555
H1B C3B 1_555 1_555
N2B C2B 1_555 1_555
N1B C1B 1_555 1_555
P2B N2B 1_555 1_555
P3B N2B 1_555 1_555
P1B N1B 1_555 1_555
N5B P2B 1_555 1_555
N6B P3B 1_555 1_555
N7B P3B 1_555 1_555
N3B P1B 1_555 1_555
N4B P1B 1_555 1_555
C13B N5B 1_555 1_555
C15B N5B 1_555 1_555
C17B N6B 1_555 1_555
C19B N6B 1_555 1_555
C21B N7B 1_555 1_555
C24B N7B 1_555 1_555
C4B N3B 1_555 1_555
C7B N3B 1_555 1_555
C9B N4B 1_555 1_555
C11B N4B 1_555 1_555
C14B C13B 1_555 1_555
H25B C13B 1_555 1_555
H26B C13B 1_555 1_555
C16B C15B 1_555 1_555
H30B C15B 1_555 1_555
H31B C15B 1_555 1_555
C18B C17B 1_555 1_555
H35B C17B 1_555 1_555
H36B C17B 1_555 1_555
C20B C19B 1_555 1_555
H40B C19B 1_555 1_555
H41B C19B 1_555 1_555
C22B C21B 1_555 1_555
H46B C21B 1_555 1_555
C25B C24B 1_555 1_555
H53B C24B 1_555 1_555
H54B C24B 1_555 1_555
C5B C4B 1_555 1_555
H2B C4B 1_555 1_555
C8B C7B 1_555 1_555
H10B C7B 1_555 1_555
H11B C7B 1_555 1_555
C10B C9B 1_555 1_555
H15B C9B 1_555 1_555
H16B C9B 1_555 1_555
C12B C11B 1_555 1_555
H20B C11B 1_555 1_555
H21B C11B 1_555 1_555
H27B C14B 1_555 1_555
H28B C14B 1_555 1_555
H29B C14B 1_555 1_555
H32B C16B 1_555 1_555
H33B C16B 1_555 1_555
H34B C16B 1_555 1_555
H37B C18B 1_555 1_555
H38B C18B 1_555 1_555
H39B C18B 1_555 1_555
H42B C20B 1_555 1_555
H43B C20B 1_555 1_555
H44B C20B 1_555 1_555
H47B C22B 1_555 1_555
H48B C22B 1_555 1_555
H49B C22B 1_555 1_555
H55B C25B 1_555 1_555
H56B C25B 1_555 1_555
H57B C25B 1_555 1_555
H4B C5B 1_555 1_555
H5B C5B 1_555 1_555
H6B C5B 1_555 1_555
H12B C8B 1_555 1_555
H13B C8B 1_555 1_555
H14B C8B 1_555 1_555
H17B C10B 1_555 1_555
H18B C10B 1_555 1_555
H19B C10B 1_555 1_555
H22B C12B 1_555 1_555
H23B C12B 1_555 1_555
H24B C12B 1_555 1_555
C2B C1B 1_555 1_555
N1B P2B 1_555 1_555

#END
