
#######################################################################
#
#                 Cambridge Crystallographic Data Centre
#                                CCDC 
#
#######################################################################
#
# If this CIF has been generated from an entry in the Cambridge 
# Structural Database, then it will include bibliographic, chemical, 
# crystal, experimental, refinement or atomic coordinate data resulting 
# from the CCDC's data processing and validation procedures.
#
#######################################################################

data_KIWXAR
_chemical_formula_moiety         'C34 H49 B1 N4,C7 H8'
_chemical_name_systematic        
'3,5-Di-t-butyl-1-(2,6-dimethylphenyl)-2-((2,6-dimethylphenyl)imino)-3-(1,3,4,5-tetramethyl-1H-imidazol-3-ium-2-yl)-1,3-dihydro-1,2-azaborol-2-ide toluene solvate'
_symmetry_cell_setting           orthorhombic
_symmetry_space_group_name_H-M   'P 21 21 21'
_symmetry_Int_Tables_number      19
_space_group_name_Hall           'P 2ac 2ab'
loop_
_symmetry_equiv_pos_site_id
_symmetry_equiv_pos_as_xyz
1 x,y,z
2 1/2-x,-y,1/2+z
3 -x,1/2+y,1/2-z
4 1/2+x,1/2-y,-z
_cell_length_a                   10.379(6)
_cell_length_b                   17.822(9)
_cell_length_c                   19.778(10)
_cell_angle_alpha                90
_cell_angle_beta                 90
_cell_angle_gamma                90
_cell_volume                     3658.43
_exptl_crystal_colour            colorless
_exptl_crystal_description       block
_cell_formula_units_Z            4
_exptl_crystal_recrystallization_method toluene
loop_
_atom_site_label
_atom_site_type_symbol
_atom_site_fract_x
_atom_site_fract_y
_atom_site_fract_z
B1 B 0.97121(16) 0.88032(9) 0.11978(8)
N1 N 0.83981(11) 0.87588(6) 0.15155(6)
N2 N 1.01505(11) 0.92726(7) 0.07119(6)
N3 N 1.23705(12) 0.88939(7) 0.20184(6)
N4 N 1.17228(12) 0.80098(6) 0.26781(6)
C1 C 1.05215(14) 0.80737(8) 0.15315(7)
C2 C 0.93840(14) 0.76930(8) 0.18811(7)
H1 H 0.9462 0.7219 0.2097
C3 C 0.82709(14) 0.80710(8) 0.18639(7)
C4 C 1.11031(15) 0.75239(8) 0.09790(8)
C5 C 1.16222(17) 0.68060(8) 0.13087(8)
H2 H 1.0927 0.6557 0.1558
H3 H 1.2321 0.6934 0.1621
H4 H 1.1950 0.6468 0.0958
C6 C 1.21974(16) 0.78763(9) 0.05755(8)
H5 H 1.2464 0.7532 0.0215
H6 H 1.2929 0.7974 0.0876
H7 H 1.1903 0.8349 0.0376
C7 C 1.00192(16) 0.73117(9) 0.04884(8)
H8 H 0.9683 0.7766 0.0272
H9 H 0.9325 0.7061 0.0738
H10 H 1.0357 0.6972 0.0142
C8 C 0.69868(15) 0.77569(8) 0.21157(8)
C9 C 0.70958(17) 0.69091(9) 0.22267(10)
H11 H 0.7709 0.6809 0.2593
H12 H 0.7399 0.6669 0.1810
H13 H 0.6250 0.6706 0.2348
C10 C 0.65874(17) 0.81003(10) 0.27941(8)
H14 H 0.5764 0.7884 0.2938
H15 H 0.6494 0.8645 0.2744
H16 H 0.7248 0.7992 0.3134
C11 C 0.59152(15) 0.78839(10) 0.15900(9)
H17 H 0.6165 0.7653 0.1160
H18 H 0.5786 0.8424 0.1524
H19 H 0.5113 0.7656 0.1751
C12 C 0.76526(13) 0.94138(8) 0.16686(7)
C13 C 0.78564(14) 0.97865(8) 0.22905(8)
C14 C 0.71596(15) 1.04287(8) 0.24320(8)
H20 H 0.7262 1.0669 0.2857
C15 C 0.63110(15) 1.07264(8) 0.19595(8)
H21 H 0.5848 1.1173 0.2059
C16 C 0.61405(15) 1.03731(8) 0.13440(8)
H22 H 0.5564 1.0582 0.1021
C17 C 0.68031(13) 0.97147(8) 0.11905(7)
C18 C 0.88832(16) 0.95277(9) 0.27794(8)
H23 H 0.9732 0.9572 0.2566
H24 H 0.8726 0.9003 0.2903
H25 H 0.8857 0.9840 0.3187
C19 C 0.66026(15) 0.93598(9) 0.05064(7)
H26 H 0.5690 0.9233 0.0449
H27 H 0.7123 0.8903 0.0473
H28 H 0.6864 0.9713 0.0152
C20 C 0.96696(13) 0.98646(8) 0.03441(7)
C21 C 0.95490(14) 1.05951(8) 0.06174(7)
C22 C 0.90513(16) 1.11693(9) 0.02200(8)
H29 H 0.8962 1.1656 0.0410
C23 C 0.86803(16) 1.10515(10) -0.04479(8)
H30 H 0.8298 1.1443 -0.0704
C24 C 0.88807(14) 1.03522(9) -0.07296(8)
H31 H 0.8661 1.0271 -0.1190
C25 C 0.93931(14) 0.97671(8) -0.03579(7)
C26 C 0.99702(16) 1.07610(9) 0.13323(8)
H32 H 1.0434 1.1240 0.1343
H33 H 1.0538 1.0359 0.1492
H34 H 0.9212 1.0792 0.1626
C27 C 0.96556(16) 0.90285(9) -0.06831(8)
H35 H 0.9052 0.8653 -0.0507
H36 H 1.0540 0.8873 -0.0582
H37 H 0.9547 0.9074 -0.1174
C28 C 1.15325(14) 0.83124(8) 0.20527(7)
C29 C 1.39978(17) 0.95704(10) 0.27335(9)
H38 H 1.4387 0.9514 0.3182
H39 H 1.3560 1.0057 0.2705
H40 H 1.4671 0.9544 0.2387
C30 C 1.30579(15) 0.89647(9) 0.26224(8)
C31 C 1.26602(15) 0.84108(9) 0.30342(8)
C32 C 1.31009(16) 0.82024(9) 0.37295(8)
H41 H 1.3709 0.8581 0.3895
H42 H 1.3526 0.7712 0.3716
H43 H 1.2356 0.8178 0.4033
C33 C 1.26898(16) 0.93751(9) 0.14408(8)
H44 H 1.3535 0.9233 0.1261
H45 H 1.2712 0.9900 0.1587
H46 H 1.2036 0.9314 0.1088
C34 C 1.10956(16) 0.73620(9) 0.29900(8)
H47 H 1.0239 0.7507 0.3152
H48 H 1.1616 0.7185 0.3372
H49 H 1.1012 0.6959 0.2656
C35 C 0.3556(2) -0.01769(11) 0.93249(12)
H50 H 0.2929 -0.0483 0.9572
H51 H 0.4363 -0.0457 0.9276
H52 H 0.3213 -0.0056 0.8876
C36 C 0.38045(17) 0.05358(9) 0.97087(9)
C37 C 0.48961(18) 0.09582(10) 0.95829(9)
H53 H 0.5507 0.0787 0.9260
C38 C 0.51112(18) 0.16248(10) 0.99196(10)
H54 H 0.5862 0.1911 0.9825
C39 C 0.42425(19) 0.18736(10) 1.03904(9)
H55 H 0.4390 0.2332 1.0623
C40 C 0.3167(2) 0.14621(12) 1.05244(9)
H56 H 0.2565 0.1635 1.0851
C41 C 0.29488(16) 0.07987(11) 1.01895(9)
H57 H 0.2197 0.0516 1.0290
loop_
_geom_bond_atom_site_label_1
_geom_bond_atom_site_label_2
_geom_bond_site_symmetry_1
_geom_bond_site_symmetry_2
B1 N1 1_555 1_555
N1 C3 1_555 1_555
N2 B1 1_555 1_555
N3 C28 1_555 1_555
N4 C28 1_555 1_555
C1 B1 1_555 1_555
C2 C1 1_555 1_555
H1 C2 1_555 1_555
C3 C2 1_555 1_555
C4 C1 1_555 1_555
C5 C4 1_555 1_555
H2 C5 1_555 1_555
H3 C5 1_555 1_555
H4 C5 1_555 1_555
C6 C4 1_555 1_555
H5 C6 1_555 1_555
H6 C6 1_555 1_555
H7 C6 1_555 1_555
C7 C4 1_555 1_555
H8 C7 1_555 1_555
H9 C7 1_555 1_555
H10 C7 1_555 1_555
C8 C3 1_555 1_555
C9 C8 1_555 1_555
H11 C9 1_555 1_555
H12 C9 1_555 1_555
H13 C9 1_555 1_555
C10 C8 1_555 1_555
H14 C10 1_555 1_555
H15 C10 1_555 1_555
H16 C10 1_555 1_555
C11 C8 1_555 1_555
H17 C11 1_555 1_555
H18 C11 1_555 1_555
H19 C11 1_555 1_555
C12 N1 1_555 1_555
C13 C12 1_555 1_555
C14 C13 1_555 1_555
H20 C14 1_555 1_555
C15 C14 1_555 1_555
H21 C15 1_555 1_555
C16 C15 1_555 1_555
H22 C16 1_555 1_555
C17 C12 1_555 1_555
C18 C13 1_555 1_555
H23 C18 1_555 1_555
H24 C18 1_555 1_555
H25 C18 1_555 1_555
C19 C17 1_555 1_555
H26 C19 1_555 1_555
H27 C19 1_555 1_555
H28 C19 1_555 1_555
C20 N2 1_555 1_555
C21 C20 1_555 1_555
C22 C21 1_555 1_555
H29 C22 1_555 1_555
C23 C22 1_555 1_555
H30 C23 1_555 1_555
C24 C23 1_555 1_555
H31 C24 1_555 1_555
C25 C20 1_555 1_555
C26 C21 1_555 1_555
H32 C26 1_555 1_555
H33 C26 1_555 1_555
H34 C26 1_555 1_555
C27 C25 1_555 1_555
H35 C27 1_555 1_555
H36 C27 1_555 1_555
H37 C27 1_555 1_555
C28 C1 1_555 1_555
C29 H38 1_555 1_555
H39 C29 1_555 1_555
H40 C29 1_555 1_555
C30 N3 1_555 1_555
C31 N4 1_555 1_555
C32 C31 1_555 1_555
H41 C32 1_555 1_555
H42 C32 1_555 1_555
H43 C32 1_555 1_555
C33 N3 1_555 1_555
H44 C33 1_555 1_555
H45 C33 1_555 1_555
H46 C33 1_555 1_555
C34 N4 1_555 1_555
H47 C34 1_555 1_555
H48 C34 1_555 1_555
H49 C34 1_555 1_555
C35 H50 1_555 1_555
H51 C35 1_555 1_555
H52 C35 1_555 1_555
C36 C35 1_555 1_555
C37 C36 1_555 1_555
H53 C37 1_555 1_555
C38 C37 1_555 1_555
H54 C38 1_555 1_555
C39 C38 1_555 1_555
H55 C39 1_555 1_555
C40 C39 1_555 1_555
H56 C40 1_555 1_555
C41 C36 1_555 1_555
H57 C41 1_555 1_555
C16 C17 1_555 1_555
C24 C25 1_555 1_555
C29 C30 1_555 1_555
C30 C31 1_555 1_555
C40 C41 1_555 1_555

#END
