
#######################################################################
#
#                 Cambridge Crystallographic Data Centre
#                                CCDC 
#
#######################################################################
#
# If this CIF has been generated from an entry in the Cambridge 
# Structural Database, then it will include bibliographic, chemical, 
# crystal, experimental, refinement or atomic coordinate data resulting 
# from the CCDC's data processing and validation procedures.
#
#######################################################################

data_KIWYUN
_chemical_formula_moiety         'C15 H15 Br1 F3 N1 O3'
_chemical_name_systematic        
'ethyl 1-acetyl-5-bromo-3-(2,2,2-trifluoroethyl)-2,3-dihydro-1H-indole-3-carboxylate'
_symmetry_cell_setting           monoclinic
_symmetry_space_group_name_H-M   'P 21/c'
_symmetry_Int_Tables_number      14
_space_group_name_Hall           '-P 2ybc'
loop_
_symmetry_equiv_pos_site_id
_symmetry_equiv_pos_as_xyz
1 x,y,z
2 -x,1/2+y,1/2-z
3 -x,-y,-z
4 x,1/2-y,1/2+z
_cell_length_a                   8.9486(4)
_cell_length_b                   17.7085(8)
_cell_length_c                   10.5821(5)
_cell_angle_alpha                90
_cell_angle_beta                 104.565(5)
_cell_angle_gamma                90
_cell_volume                     1623.02
_exptl_crystal_colour            colorless
_exptl_crystal_description       block
_cell_formula_units_Z            4
loop_
_atom_site_label
_atom_site_type_symbol
_atom_site_fract_x
_atom_site_fract_y
_atom_site_fract_z
Br1 Br 0.31524(5) 0.52758(3) 0.06916(4)
F1 F 0.7720(4) 0.81876(15) 0.5231(4)
F2 F 0.9370(3) 0.82059(15) 0.4165(3)
F3 F 0.9787(5) 0.76109(17) 0.5919(3)
O1 O 0.8992(3) 0.40977(15) 0.6010(3)
O2 O 0.5932(3) 0.70282(13) 0.6481(2)
O3 O 0.4967(3) 0.72467(14) 0.4360(2)
N1 N 0.8164(3) 0.52985(13) 0.5701(2)
C1 C 0.4758(4) 0.52534(19) 0.2258(3)
C2 C 0.5319(4) 0.59225(19) 0.2853(3)
H1 H 0.4946 0.6385 0.2488
C3 C 0.6454(4) 0.58853(17) 0.4009(3)
C4 C 0.7026(3) 0.51928(16) 0.4534(3)
C5 C 0.6441(4) 0.45265(19) 0.3918(4)
H2 H 0.6815 0.4062 0.4271
C6 C 0.5297(4) 0.45636(19) 0.2775(3)
H3 H 0.4887 0.4122 0.2352
C7 C 0.9106(4) 0.47516(19) 0.6385(4)
C8 C 1.0260(4) 0.4994(2) 0.7604(4)
H4 H 1.1050 0.5292 0.7376
H5 H 1.0718 0.4557 0.8083
H6 H 0.9752 0.5290 0.8133
C9 C 0.8332(4) 0.61039(18) 0.6026(3)
H7 H 0.9388 0.6266 0.6111
H8 H 0.8062 0.6202 0.6843
C10 C 0.7221(3) 0.65286(16) 0.4890(3)
C11 C 0.8037(4) 0.70679(17) 0.4145(3)
H9 H 0.8844 0.6790 0.3885
H10 H 0.7296 0.7228 0.3355
C12 C 0.8738(5) 0.7754(2) 0.4874(4)
C13 C 0.5986(4) 0.69567(16) 0.5367(3)
C14 C 0.3719(5) 0.7696(3) 0.4601(4)
H11 H 0.4108 0.8173 0.5002
H12 H 0.3215 0.7430 0.5181
C15 C 0.2629(4) 0.7825(3) 0.3328(4)
H13 H 0.3175 0.8018 0.2725
H14 H 0.1861 0.8183 0.3425
H15 H 0.2137 0.7357 0.3003
loop_
_geom_bond_atom_site_label_1
_geom_bond_atom_site_label_2
_geom_bond_site_symmetry_1
_geom_bond_site_symmetry_2
Br1 C1 1_555 1_555
F1 C12 1_555 1_555
F2 C12 1_555 1_555
F3 C12 1_555 1_555
O1 C7 1_555 1_555
O2 C13 1_555 1_555
O3 C13 1_555 1_555
N1 C4 1_555 1_555
C1 C2 1_555 1_555
C2 H1 1_555 1_555
C3 C2 1_555 1_555
C4 C3 1_555 1_555
C5 C4 1_555 1_555
H2 C5 1_555 1_555
C6 C1 1_555 1_555
H3 C6 1_555 1_555
C7 N1 1_555 1_555
C8 C7 1_555 1_555
H4 C8 1_555 1_555
H5 C8 1_555 1_555
H6 C8 1_555 1_555
C9 N1 1_555 1_555
H7 C9 1_555 1_555
H8 C9 1_555 1_555
C10 C3 1_555 1_555
C11 C10 1_555 1_555
H9 C11 1_555 1_555
H10 C11 1_555 1_555
C12 C11 1_555 1_555
C13 C10 1_555 1_555
C14 O3 1_555 1_555
H11 C14 1_555 1_555
H12 C14 1_555 1_555
C15 C14 1_555 1_555
H13 C15 1_555 1_555
H14 C15 1_555 1_555
H15 C15 1_555 1_555
C5 C6 1_555 1_555
C9 C10 1_555 1_555

#END
