
#######################################################################
#
#                 Cambridge Crystallographic Data Centre
#                                CCDC 
#
#######################################################################
#
# If this CIF has been generated from an entry in the Cambridge 
# Structural Database, then it will include bibliographic, chemical, 
# crystal, experimental, refinement or atomic coordinate data resulting 
# from the CCDC's data processing and validation procedures.
#
#######################################################################

data_KIXCEA
_chemical_formula_moiety         'C64 H66 B4 N4 O8,2(C6 H5 N1 O2)'
_chemical_name_systematic        
'5,10,15,20-tetrakis(4-(5,5-dimethyl-1,3,2-dioxaborinan-2-yl)phenyl)porphyrin bis(nitrobenzene) clathrate'
_symmetry_cell_setting           monoclinic
_symmetry_space_group_name_H-M   'P 21/c'
_symmetry_Int_Tables_number      14
_space_group_name_Hall           '-P 2ybc'
loop_
_symmetry_equiv_pos_site_id
_symmetry_equiv_pos_as_xyz
1 x,y,z
2 -x,1/2+y,1/2-z
3 -x,-y,-z
4 x,1/2-y,1/2+z
_cell_length_a                   18.6511(7)
_cell_length_b                   9.2969(3)
_cell_length_c                   20.7606(9)
_cell_angle_alpha                90
_cell_angle_beta                 110.1016(13)
_cell_angle_gamma                90
_cell_volume                     3380.55
_exptl_crystal_colour            red
_exptl_crystal_description       needle
_cell_formula_units_Z            2
_exptl_crystal_recrystallization_method chloroform/methanol
loop_
_atom_site_label
_atom_site_type_symbol
_atom_site_fract_x
_atom_site_fract_y
_atom_site_fract_z
C1 C 0.10510(17) 0.5143(3) 0.65093(16)
C2 C 0.18541(17) 0.5290(4) 0.69390(17)
H1 H 0.2057 0.5270 0.7426
C3 C 0.22466(17) 0.5456(4) 0.65163(16)
H2 H 0.2783 0.5588 0.6646
C4 C 0.17045(17) 0.5400(3) 0.58224(16)
C5 C 0.19049(17) 0.5500(3) 0.52301(16)
C6 C 0.14025(17) 0.5423(3) 0.45521(16)
C7 C 0.15951(18) 0.5447(3) 0.39453(16)
H3 H 0.2097 0.5520 0.3929
C8 C 0.09429(17) 0.5348(3) 0.33938(16)
H4 H 0.0909 0.5337 0.2927
C9 C 0.03186(17) 0.5263(3) 0.36369(16)
C10 C 0.04624(17) 0.4899(3) 0.67665(16)
N1 N 0.09793(13) 0.5214(3) 0.58305(13)
H5 H 0.0555 0.5152 0.5474
N2 N 0.06145(13) 0.5309(3) 0.43427(12)
C11 C 0.27299(17) 0.5745(4) 0.53271(16)
C12 C 0.29634(18) 0.7053(4) 0.51442(17)
H7 H 0.2599 0.7788 0.4952
C13 C 0.37279(17) 0.7289(4) 0.52416(16)
H8 H 0.3873 0.8184 0.5103
C14 C 0.42939(17) 0.6260(4) 0.55364(16)
C15 C 0.40478(18) 0.4951(4) 0.57136(16)
H9 H 0.4414 0.4219 0.5908
C16 C 0.32822(17) 0.4682(4) 0.56145(16)
H10 H 0.3134 0.3778 0.5742
B1 B 0.5161(2) 0.6565(4) 0.56741(18)
O1 O 0.53311(12) 0.7843(3) 0.54225(11)
O2 O 0.56859(12) 0.5640(2) 0.60577(12)
C17 C 0.61162(17) 0.8256(4) 0.55784(18)
H11 H 0.6158 0.9316 0.5617
H12 H 0.6288 0.7956 0.5197
C18 C 0.66384(18) 0.7579(4) 0.62469(18)
C19 C 0.64878(18) 0.5974(4) 0.61875(19)
H13 H 0.6639 0.5584 0.5809
H14 H 0.6805 0.5498 0.6618
C20 C 0.6479(2) 0.8194(4) 0.68656(18)
H15 H 0.5943 0.8028 0.6813
H16 H 0.6583 0.9230 0.6897
H17 H 0.6809 0.7719 0.7284
C21 C 0.74636(18) 0.7868(4) 0.6306(2)
H18 H 0.7809 0.7401 0.6719
H19 H 0.7558 0.8908 0.6335
H20 H 0.7554 0.7483 0.5901
C22 C 0.06432(17) 0.4811(4) 0.75254(16)
C23 C 0.09710(17) 0.5978(4) 0.79524(16)
H21 H 0.1109 0.6819 0.7762
C24 C 0.10962(18) 0.5915(4) 0.86525(17)
H22 H 0.1312 0.6724 0.8932
C25 C 0.09133(17) 0.4695(4) 0.89527(16)
C26 C 0.06084(17) 0.3526(4) 0.85270(16)
H23 H 0.0484 0.2675 0.8719
C27 C 0.04825(17) 0.3580(4) 0.78260(16)
H24 H 0.0283 0.2759 0.7550
B2 B 0.1020(2) 0.4665(4) 0.9733(2)
O3 O 0.13593(13) 0.5819(3) 1.01263(11)
O4 O 0.07314(13) 0.3531(3) 0.99739(11)
C28 C 0.1408(2) 0.5862(4) 1.08389(16)
H25 H 0.1862 0.6429 1.1107
H26 H 0.0950 0.6348 1.0872
C29 C 0.14665(19) 0.4366(4) 1.11408(17)
C30 C 0.07898(19) 0.3493(4) 1.06852(17)
H27 H 0.0313 0.3878 1.0728
H28 H 0.0845 0.2482 1.0845
C31 C 0.1406(2) 0.4462(4) 1.18535(18)
H29 H 0.0924 0.4931 1.1822
H30 H 0.1420 0.3492 1.2042
H31 H 0.1835 0.5025 1.2154
C32 C 0.22227(19) 0.3656(4) 1.11809(19)
H32 H 0.2256 0.3604 1.0720
H33 H 0.2649 0.4228 1.1479
H34 H 0.2246 0.2684 1.1369
C1B C -0.10510(17) 0.4857(3) 0.34907(16)
C2B C -0.18541(17) 0.4710(4) 0.30610(17)
H1B H -0.2057 0.4730 0.2574
C3B C -0.22466(17) 0.4544(4) 0.34837(16)
H2B H -0.2783 0.4412 0.3354
C4B C -0.17045(17) 0.4600(3) 0.41776(16)
C5B C -0.19049(17) 0.4500(3) 0.47699(16)
C6B C -0.14025(17) 0.4577(3) 0.54479(16)
C7B C -0.15951(18) 0.4553(3) 0.60547(16)
H3B H -0.2097 0.4480 0.6071
C8B C -0.09429(17) 0.4652(3) 0.66062(16)
H4B H -0.0909 0.4663 0.7073
C9B C -0.03186(17) 0.4737(3) 0.63631(16)
C10B C -0.04624(17) 0.5101(3) 0.32335(16)
N1B N -0.09793(13) 0.4786(3) 0.41695(13)
H5B H -0.0555 0.4848 0.4526
N2B N -0.06145(13) 0.4691(3) 0.56573(12)
C11B C -0.27299(17) 0.4255(4) 0.46729(16)
C12B C -0.29634(18) 0.2947(4) 0.48558(17)
H7B H -0.2599 0.2212 0.5048
C13B C -0.37279(17) 0.2711(4) 0.47584(16)
H8B H -0.3873 0.1816 0.4897
C14B C -0.42939(17) 0.3740(4) 0.44636(16)
C15B C -0.40478(18) 0.5049(4) 0.42864(16)
H9B H -0.4414 0.5781 0.4092
C16B C -0.32822(17) 0.5318(4) 0.43855(16)
H10B H -0.3134 0.6222 0.4258
B1B B -0.5161(2) 0.3435(4) 0.43259(18)
O1B O -0.53311(12) 0.2157(3) 0.45775(11)
O2B O -0.56859(12) 0.4360(2) 0.39423(12)
C17B C -0.61162(17) 0.1744(4) 0.44216(18)
H11B H -0.6158 0.0684 0.4383
H12B H -0.6288 0.2044 0.4803
C18B C -0.66384(18) 0.2421(4) 0.37531(18)
C19B C -0.64878(18) 0.4026(4) 0.38125(19)
H13B H -0.6639 0.4416 0.4191
H14B H -0.6805 0.4502 0.3382
C20B C -0.6479(2) 0.1806(4) 0.31344(18)
H15B H -0.5943 0.1972 0.3187
H16B H -0.6583 0.0770 0.3103
H17B H -0.6809 0.2281 0.2716
C21B C -0.74636(18) 0.2132(4) 0.3694(2)
H18B H -0.7809 0.2599 0.3281
H19B H -0.7558 0.1092 0.3665
H20B H -0.7554 0.2517 0.4099
C22B C -0.06432(17) 0.5189(4) 0.24746(16)
C23B C -0.09710(17) 0.4022(4) 0.20476(16)
H21B H -0.1109 0.3181 0.2238
C24B C -0.10962(18) 0.4085(4) 0.13475(17)
H22B H -0.1312 0.3276 0.1068
C25B C -0.09133(17) 0.5305(4) 0.10473(16)
C26B C -0.06084(17) 0.6474(4) 0.14730(16)
H23B H -0.0484 0.7325 0.1281
C27B C -0.04825(17) 0.6420(4) 0.21740(16)
H24B H -0.0283 0.7241 0.2450
B2B B -0.1020(2) 0.5335(4) 0.0267(2)
O3B O -0.13593(13) 0.4181(3) -0.01263(11)
O4B O -0.07314(13) 0.6469(3) 0.00261(11)
C28B C -0.1408(2) 0.4138(4) -0.08389(16)
H25B H -0.1862 0.3571 -0.1107
H26B H -0.0950 0.3652 -0.0872
C29B C -0.14665(19) 0.5634(4) -0.11408(17)
C30B C -0.07898(19) 0.6507(4) -0.06852(17)
H27B H -0.0313 0.6122 -0.0728
H28B H -0.0845 0.7518 -0.0845
C31B C -0.1406(2) 0.5538(4) -0.18535(18)
H29B H -0.0924 0.5069 -0.1822
H30B H -0.1420 0.6508 -0.2042
H31B H -0.1835 0.4975 -0.2154
C32B C -0.22227(19) 0.6344(4) -0.11809(19)
H32B H -0.2256 0.6396 -0.0720
H33B H -0.2649 0.5772 -0.1479
H34B H -0.2246 0.7316 -0.1369
C33 C 0.5819(2) 0.2984(4) 0.20101(19)
C34 C 0.5573(2) 0.3314(4) 0.2545(2)
H35 H 0.5848 0.2991 0.2997
C35 C 0.4916(2) 0.4124(5) 0.2412(2)
H36 H 0.4738 0.4383 0.2773
C36 C 0.4521(2) 0.4556(4) 0.1743(2)
H37 H 0.4068 0.5108 0.1648
C37 C 0.4774(3) 0.4199(5) 0.1220(2)
H38 H 0.4498 0.4506 0.0766
C38 C 0.5433(2) 0.3390(4) 0.1349(2)
H39 H 0.5611 0.3126 0.0988
N3 N 0.6536(2) 0.2180(4) 0.2153(2)
O5 O 0.67506(17) 0.1430(4) 0.26750(19)
O6 O 0.68842(18) 0.2308(4) 0.17540(18)
H6? H 0.0346 0.5272 0.4617
loop_
_geom_bond_atom_site_label_1
_geom_bond_atom_site_label_2
_geom_bond_site_symmetry_1
_geom_bond_site_symmetry_2
C1 C2 1_555 1_555
C2 H1 1_555 1_555
C3 C2 1_555 1_555
H2 C3 1_555 1_555
C4 C3 1_555 1_555
C5 C4 1_555 1_555
C6 C5 1_555 1_555
C7 C6 1_555 1_555
H3 C7 1_555 1_555
C8 C7 1_555 1_555
H4 C8 1_555 1_555
C9 C8 1_555 1_555
C10 C1 1_555 1_555
N1 C1 1_555 1_555
H5 N1 1_555 1_555
N2 C6 1_555 1_555
C11 C5 1_555 1_555
C12 C11 1_555 1_555
H7 C12 1_555 1_555
C13 C12 1_555 1_555
H8 C13 1_555 1_555
C14 C13 1_555 1_555
C15 C14 1_555 1_555
H9 C15 1_555 1_555
C16 C11 1_555 1_555
H10 C16 1_555 1_555
B1 C14 1_555 1_555
O1 B1 1_555 1_555
O2 B1 1_555 1_555
C17 O1 1_555 1_555
H11 C17 1_555 1_555
H12 C17 1_555 1_555
C18 C17 1_555 1_555
C19 O2 1_555 1_555
H13 C19 1_555 1_555
H14 C19 1_555 1_555
C20 C18 1_555 1_555
H15 C20 1_555 1_555
H16 C20 1_555 1_555
H17 C20 1_555 1_555
C21 C18 1_555 1_555
H18 C21 1_555 1_555
H19 C21 1_555 1_555
H20 C21 1_555 1_555
C22 C10 1_555 1_555
C23 C22 1_555 1_555
H21 C23 1_555 1_555
C24 C23 1_555 1_555
H22 C24 1_555 1_555
C25 C24 1_555 1_555
C26 C25 1_555 1_555
H23 C26 1_555 1_555
C27 C22 1_555 1_555
H24 C27 1_555 1_555
B2 C25 1_555 1_555
O3 B2 1_555 1_555
O4 B2 1_555 1_555
C28 O3 1_555 1_555
H25 C28 1_555 1_555
H26 C28 1_555 1_555
C29 C28 1_555 1_555
C30 O4 1_555 1_555
H27 C30 1_555 1_555
H28 C30 1_555 1_555
C31 C29 1_555 1_555
H29 C31 1_555 1_555
H30 C31 1_555 1_555
H31 C31 1_555 1_555
C32 C29 1_555 1_555
H32 C32 1_555 1_555
H33 C32 1_555 1_555
H34 C32 1_555 1_555
C33 C34 1_555 1_555
C34 H35 1_555 1_555
C35 C34 1_555 1_555
H36 C35 1_555 1_555
C36 C35 1_555 1_555
H37 C36 1_555 1_555
C37 C36 1_555 1_555
H38 C37 1_555 1_555
C38 C33 1_555 1_555
H39 C38 1_555 1_555
N3 C33 1_555 1_555
O5 N3 1_555 1_555
O6 N3 1_555 1_555
C1B C2B 1_555 1_555
C2B H1B 1_555 1_555
C3B C2B 1_555 1_555
H2B C3B 1_555 1_555
C4B C3B 1_555 1_555
C5B C4B 1_555 1_555
C6B C5B 1_555 1_555
C7B C6B 1_555 1_555
H3B C7B 1_555 1_555
C8B C7B 1_555 1_555
H4B C8B 1_555 1_555
C9B C10 1_555 1_555
C10B C9 1_555 1_555
N1B C1B 1_555 1_555
H5B N1B 1_555 1_555
N2B C6B 1_555 1_555
C11B C5B 1_555 1_555
C12B C11B 1_555 1_555
H7B C12B 1_555 1_555
C13B C12B 1_555 1_555
H8B C13B 1_555 1_555
C14B C13B 1_555 1_555
C15B C14B 1_555 1_555
H9B C15B 1_555 1_555
C16B C11B 1_555 1_555
H10B C16B 1_555 1_555
B1B C14B 1_555 1_555
O1B B1B 1_555 1_555
O2B B1B 1_555 1_555
C17B O1B 1_555 1_555
H11B C17B 1_555 1_555
H12B C17B 1_555 1_555
C18B C17B 1_555 1_555
C19B O2B 1_555 1_555
H13B C19B 1_555 1_555
H14B C19B 1_555 1_555
C20B C18B 1_555 1_555
H15B C20B 1_555 1_555
H16B C20B 1_555 1_555
H17B C20B 1_555 1_555
C21B C18B 1_555 1_555
H18B C21B 1_555 1_555
H19B C21B 1_555 1_555
H20B C21B 1_555 1_555
C22B C10B 1_555 1_555
C23B C22B 1_555 1_555
H21B C23B 1_555 1_555
C24B C23B 1_555 1_555
H22B C24B 1_555 1_555
C25B C24B 1_555 1_555
C26B C25B 1_555 1_555
H23B C26B 1_555 1_555
C27B C22B 1_555 1_555
H24B C27B 1_555 1_555
B2B C25B 1_555 1_555
O3B B2B 1_555 1_555
O4B B2B 1_555 1_555
C28B O3B 1_555 1_555
H25B C28B 1_555 1_555
H26B C28B 1_555 1_555
C29B C28B 1_555 1_555
C30B O4B 1_555 1_555
H27B C30B 1_555 1_555
H28B C30B 1_555 1_555
C31B C29B 1_555 1_555
H29B C31B 1_555 1_555
H30B C31B 1_555 1_555
H31B C31B 1_555 1_555
C32B C29B 1_555 1_555
H32B C32B 1_555 1_555
H33B C32B 1_555 1_555
H34B C32B 1_555 1_555
C4 N1 1_555 1_555
C9 N2 1_555 1_555
C15 C16 1_555 1_555
C18 C19 1_555 1_555
C26 C27 1_555 1_555
C29 C30 1_555 1_555
C37 C38 1_555 1_555
C1B C10B 1_555 1_555
C4B N1B 1_555 1_555
C8B C9B 1_555 1_555
C9B N2B 1_555 1_555
C15B C16B 1_555 1_555
C18B C19B 1_555 1_555
C26B C27B 1_555 1_555
C29B C30B 1_555 1_555

#END
