
#######################################################################
#
#                 Cambridge Crystallographic Data Centre
#                                CCDC 
#
#######################################################################
#
# If this CIF has been generated from an entry in the Cambridge 
# Structural Database, then it will include bibliographic, chemical, 
# crystal, experimental, refinement or atomic coordinate data resulting 
# from the CCDC's data processing and validation procedures.
#
#######################################################################

data_KIXFOM
_chemical_formula_moiety         'C24 H20 F1 N4 O1 P1'
_chemical_name_systematic        
1-Benzyl-2-(p-fluorophenyl)-3-methyl-7-phenylpyrazolo(3,4-d)(1,3,2)diazaphosphorin-4-one
_chemical_properties_biological  'potential herbicidal activity'
_symmetry_cell_setting           monoclinic
_symmetry_space_group_name_H-M   'P 21/c'
_symmetry_Int_Tables_number      14
_space_group_name_Hall           '-P 2ybc'
loop_
_symmetry_equiv_pos_site_id
_symmetry_equiv_pos_as_xyz
1 x,y,z
2 -x,1/2+y,1/2-z
3 -x,-y,-z
4 x,1/2-y,1/2+z
_cell_length_a                   11.874(2)
_cell_length_b                   12.986(2)
_cell_length_c                   14.587(2)
_cell_angle_alpha                90
_cell_angle_beta                 106.21(1)
_cell_angle_gamma                90
_cell_volume                     2159.83
_exptl_crystal_colour            colorless
_chemical_melting_point          135-137deg.C
_cell_formula_units_Z            4
loop_
_atom_site_label
_atom_site_type_symbol
_atom_site_fract_x
_atom_site_fract_y
_atom_site_fract_z
P1 P 0.4380(2) 0.2060(2) 0.7712(1)
F1 F 0.1995(6) -0.1676(5) 0.5822(5)
O1 O 0.4328(5) 0.1327(5) 1.0287(4)
N1 N 0.4794(5) 0.1757(5) 0.8923(4)
N2 N 0.3200(4) 0.2862(4) 0.7624(4)
N3 N 0.1336(4) 0.2843(4) 0.8051(4)
N4 N 0.0937(5) 0.2467(5) 0.8800(4)
C1 C 0.3100(6) 0.3826(5) 0.7068(5)
C2 C 0.2486(5) 0.2594(5) 0.8194(5)
C3 C 0.2843(5) 0.2036(6) 0.9030(4)
C4 C 0.1852(6) 0.1999(6) 0.9382(5)
C5 C 0.4013(6) 0.1668(6) 0.9480(5)
C6 C 0.6040(6) 0.1428(7) 0.9346(6)
C7 C 0.3607(6) 0.0878(5) 0.7194(5)
C8 C 0.2960(8) 0.0965(7) 0.6237(6)
C9 C 0.2382(9) 0.0100(8) 0.5755(7)
C10 C 0.2524(8) -0.0811(7) 0.6284(7)
C11 C 0.3221(7) -0.0944(7) 0.7224(6)
C12 C 0.3754(6) -0.0063(6) 0.7688(5)
C13 C 0.3016(5) 0.4772(5) 0.7651(4)
C14 C 0.2092(6) 0.5460(6) 0.7235(6)
C15 C 0.1999(8) 0.6385(7) 0.7718(7)
C16 C 0.2804(9) 0.6587(7) 0.8589(7)
C17 C 0.3730(9) 0.5921(8) 0.8999(7)
C18 C 0.3849(7) 0.4977(6) 0.8514(5)
C19 C 0.0508(5) 0.3308(5) 0.7257(5)
C20 C 0.0386(6) 0.2929(6) 0.6342(5)
C21 C -0.0431(7) 0.3406(7) 0.5560(5)
C22 C -0.1113(7) 0.4230(8) 0.5729(7)
C23 C -0.1006(7) 0.4577(7) 0.6671(7)
C24 C -0.0172(6) 0.4119(6) 0.7457(6)
loop_
_geom_bond_atom_site_label_1
_geom_bond_atom_site_label_2
_geom_bond_site_symmetry_1
_geom_bond_site_symmetry_2
P1 N1 1_555 1_555
F1 C10 1_555 1_555
O1 C5 1_555 1_555
N1 C5 1_555 1_555
N2 P1 1_555 1_555
N3 N4 1_555 1_555
N4 C4 1_555 1_555
C1 N2 1_555 1_555
C2 N2 1_555 1_555
C3 C2 1_555 1_555
C4 C3 1_555 1_555
C5 C3 1_555 1_555
C6 N1 1_555 1_555
C7 P1 1_555 1_555
C8 C7 1_555 1_555
C9 C8 1_555 1_555
C10 C9 1_555 1_555
C11 C10 1_555 1_555
C12 C7 1_555 1_555
C13 C1 1_555 1_555
C14 C13 1_555 1_555
C15 C14 1_555 1_555
C16 C15 1_555 1_555
C17 C16 1_555 1_555
C18 C13 1_555 1_555
C19 N3 1_555 1_555
C20 C19 1_555 1_555
C21 C20 1_555 1_555
C22 C21 1_555 1_555
C23 C22 1_555 1_555
C24 C19 1_555 1_555
N3 C2 1_555 1_555
C11 C12 1_555 1_555
C17 C18 1_555 1_555
C23 C24 1_555 1_555

#END
