
#######################################################################
#
#                 Cambridge Crystallographic Data Centre
#                                CCDC 
#
#######################################################################
#
# If this CIF has been generated from an entry in the Cambridge 
# Structural Database, then it will include bibliographic, chemical, 
# crystal, experimental, refinement or atomic coordinate data resulting 
# from the CCDC's data processing and validation procedures.
#
#######################################################################

data_KIXHIJ
_chemical_formula_moiety         'C14 H12 Cl1 N1 O1'
_chemical_name_systematic        2-Benzyliminomethyl-4-chlorophenol
_symmetry_cell_setting           monoclinic
_symmetry_space_group_name_H-M   'P 21/c'
_symmetry_Int_Tables_number      14
_space_group_name_Hall           '-P 2ybc'
loop_
_symmetry_equiv_pos_site_id
_symmetry_equiv_pos_as_xyz
1 x,y,z
2 -x,1/2+y,1/2-z
3 -x,-y,-z
4 x,1/2-y,1/2+z
_cell_length_a                   14.3693(18)
_cell_length_b                   6.0401(8)
_cell_length_c                   14.777(2)
_cell_angle_alpha                90
_cell_angle_beta                 103.911(2)
_cell_angle_gamma                90
_cell_volume                     1244.91
_exptl_crystal_colour            yellow
_exptl_crystal_description       rod
_cell_formula_units_Z            4
loop_
_atom_site_label
_atom_site_type_symbol
_atom_site_fract_x
_atom_site_fract_y
_atom_site_fract_z
Cl1 Cl 0.24166(8) 0.1883(2) 0.07747(9)
N1 N 0.6895(2) 0.0444(5) 0.2091(2)
O1 O 0.60143(16) -0.2928(4) 0.11796(16)
H1 H 0.6468 -0.2203 0.1478
C1 C 0.6093(3) 0.1388(6) 0.1982(2)
H2 H 0.6070 0.2803 0.2223
C2 C 0.5198(2) 0.0337(6) 0.1488(2)
C3 C 0.5196(3) -0.1769(6) 0.1098(2)
C4 C 0.4338(3) -0.2717(6) 0.0612(2)
H3 H 0.4337 -0.4118 0.0350
C5 C 0.3499(3) -0.1585(7) 0.0520(2)
H4 H 0.2927 -0.2222 0.0194
C6 C 0.3489(3) 0.0483(7) 0.0904(2)
C7 C 0.4331(3) 0.1431(6) 0.1383(2)
H5 H 0.4320 0.2831 0.1642
C8 C 0.7753(3) 0.1670(8) 0.2583(3)
H6 H 0.8064 0.0884 0.3147
H7 H 0.7567 0.3121 0.2759
C9 C 0.8432(2) 0.1917(8) 0.1974(3)
C10 C 0.8429(3) 0.3790(7) 0.1443(3)
H8 H 0.8002 0.4932 0.1469
C11 C 0.9053(3) 0.3980(8) 0.0877(3)
H9 H 0.9042 0.5248 0.0517
C12 C 0.9683(3) 0.2347(11) 0.0834(3)
H10 H 1.0110 0.2503 0.0454
C13 C 0.9693(3) 0.0497(9) 0.1342(4)
H11 H 1.0120 -0.0640 0.1308
C14 C 0.9075(3) 0.0294(7) 0.1905(3)
H12 H 0.9091 -0.0991 0.2255
loop_
_geom_bond_atom_site_label_1
_geom_bond_atom_site_label_2
_geom_bond_site_symmetry_1
_geom_bond_site_symmetry_2
Cl1 C6 1_555 1_555
N1 C1 1_555 1_555
O1 H1 1_555 1_555
C1 H2 1_555 1_555
C2 C1 1_555 1_555
C3 O1 1_555 1_555
C4 C3 1_555 1_555
H3 C4 1_555 1_555
C5 C4 1_555 1_555
H4 C5 1_555 1_555
C6 C5 1_555 1_555
C7 C2 1_555 1_555
H5 C7 1_555 1_555
C8 N1 1_555 1_555
H6 C8 1_555 1_555
H7 C8 1_555 1_555
C9 C8 1_555 1_555
C10 C9 1_555 1_555
H8 C10 1_555 1_555
C11 C10 1_555 1_555
H9 C11 1_555 1_555
C12 C11 1_555 1_555
H10 C12 1_555 1_555
C13 C12 1_555 1_555
H11 C13 1_555 1_555
C14 C9 1_555 1_555
H12 C14 1_555 1_555
C2 C3 1_555 1_555
C6 C7 1_555 1_555
C13 C14 1_555 1_555

#END
