
#######################################################################
#
#                 Cambridge Crystallographic Data Centre
#                                CCDC 
#
#######################################################################
#
# If this CIF has been generated from an entry in the Cambridge 
# Structural Database, then it will include bibliographic, chemical, 
# crystal, experimental, refinement or atomic coordinate data resulting 
# from the CCDC's data processing and validation procedures.
#
#######################################################################

data_KIXJOS
_chemical_formula_moiety         'C28 H38 B1 Br3 N2,0.5(C7 H8)'
_chemical_name_systematic        
'((1,3-bis(2,6-diisopropylphenyl)-1H-imidazol-3-ium-2-yl)methyl)(tribromo)borate toluene solvate'
_symmetry_cell_setting           monoclinic
_symmetry_space_group_name_H-M   'P 21/c'
_symmetry_Int_Tables_number      14
_space_group_name_Hall           '-P 2ybc'
loop_
_symmetry_equiv_pos_site_id
_symmetry_equiv_pos_as_xyz
1 x,y,z
2 -x,1/2+y,1/2-z
3 -x,-y,-z
4 x,1/2-y,1/2+z
_cell_length_a                   21.7846(12)
_cell_length_b                   16.6820(9)
_cell_length_c                   21.6974(12)
_cell_angle_alpha                90
_cell_angle_beta                 119.3940(10)
_cell_angle_gamma                90
_cell_volume                     6869.98
_exptl_crystal_colour            colorless
_exptl_crystal_description       plate
_cell_formula_units_Z            8
loop_
_atom_site_label
_atom_site_type_symbol
_atom_site_fract_x
_atom_site_fract_y
_atom_site_fract_z
B1 B -0.0812(5) 0.4909(7) 0.1753(7)
Br1 Br -0.1336(2) 0.4091(3) 0.1988(5)
Br2 Br 0.0214(4) 0.4790(4) 0.2433(5)
Br3 Br -0.0982(3) 0.4205(4) 0.0943(3)
N1 N -0.0408(4) 0.6944(5) 0.1622(4)
N2 N -0.0558(4) 0.6856(5) 0.2534(4)
C1 C -0.1145(5) 0.5775(6) 0.1606(5)
H1 H -0.1397 0.5847 0.1097
H2 H -0.1496 0.5774 0.1758
C2 C -0.0702(5) 0.6509(5) 0.1916(5)
C3 C -0.0061(5) 0.7579(7) 0.2068(6)
H3 H 0.0196 0.7973 0.1990
C4 C -0.0155(5) 0.7531(6) 0.2623(6)
H4 H 0.0016 0.7886 0.3002
C5 C -0.0885(7) 0.6640(7) 0.2956(6)
C6 C -0.1588(8) 0.6892(9) 0.2699(8)
C7 C -0.1911(10) 0.6624(13) 0.3071(12)
H5 H -0.2381 0.6756 0.2905
C8 C -0.1591(18) 0.6197(15) 0.3640(16)
H6 H -0.1838 0.6044 0.3869
C9 C -0.0921(16) 0.5965(12) 0.3914(11)
H7 H -0.0716 0.5641 0.4314
C10 C -0.0510(10) 0.6227(8) 0.3576(8)
C11 C 0.0277(11) 0.6069(9) 0.3895(8)
H8 H 0.0394 0.6130 0.3516
C12 C 0.0704(9) 0.6709(11) 0.4468(8)
H9 H 0.0585 0.7234 0.4261
H10 H 0.1199 0.6616 0.4653
H11 H 0.0593 0.6672 0.4844
C13 C 0.0497(14) 0.5220(11) 0.4198(9)
H12 H 0.0250 0.4834 0.3830
H13 H 0.0383 0.5140 0.4569
H14 H 0.0995 0.5157 0.4385
C14 C -0.1944(7) 0.7471(12) 0.2101(8)
H15 H -0.1680 0.7482 0.1843
C15 C -0.2688(8) 0.7174(16) 0.1595(11)
H16 H -0.2917 0.7542 0.1208
H17 H -0.2951 0.7139 0.1843
H18 H -0.2664 0.6654 0.1418
C16 C -0.1940(11) 0.8316(12) 0.2373(10)
H19 H -0.1463 0.8487 0.2671
H20 H -0.2186 0.8316 0.2638
H21 H -0.2170 0.8676 0.1979
C17 C -0.0512(6) 0.6853(6) 0.0901(6)
C18 C -0.1156(7) 0.7099(7) 0.0346(6)
C19 C -0.1236(8) 0.7009(9) -0.0328(7)
H22 H -0.1658 0.7160 -0.0720
C20 C -0.0716(11) 0.6710(11) -0.0420(8)
H23 H -0.0788 0.6647 -0.0876
C21 C -0.0076(9) 0.6492(10) 0.0146(9)
H24 H 0.0279 0.6296 0.0067
C22 C 0.0040(7) 0.6561(7) 0.0824(7)
C23 C 0.0749(6) 0.6354(8) 0.1434(7)
H25 H 0.0704 0.6307 0.1860
C24 C 0.1014(8) 0.5535(11) 0.1308(9)
H26 H 0.0675 0.5125 0.1235
H27 H 0.1457 0.5403 0.1713
H28 H 0.1071 0.5573 0.0897
C25 C 0.1285(8) 0.6994(11) 0.1560(9)
H29 H 0.1120 0.7500 0.1634
H30 H 0.1353 0.7032 0.1156
H31 H 0.1724 0.6860 0.1971
C26 C -0.1735(6) 0.7478(7) 0.0453(6)
H32 H -0.1669 0.7286 0.0908
C27 C -0.2463(8) 0.7244(10) -0.0098(8)
H33 H -0.2509 0.6672 -0.0104
H34 H -0.2548 0.7426 -0.0553
H35 H -0.2799 0.7485 0.0010
C28 C -0.1642(10) 0.8375(9) 0.0510(9)
H36 H -0.1170 0.8502 0.0869
H37 H -0.1970 0.8606 0.0634
H38 H -0.1726 0.8589 0.0064
B2 B 0.5463(8) 0.8735(9) 0.7229(8)
Br4 Br 0.46769(7) 0.84890(8) 0.74523(8)
Br5 Br 0.54613(9) 0.79331(8) 0.65221(8)
Br6 Br 0.63726(7) 0.85177(8) 0.81510(8)
N3 N 0.4505(4) 1.0653(5) 0.6709(5)
N4 N 0.5430(5) 1.0699(5) 0.7733(5)
C29 C 0.5401(6) 0.9599(6) 0.6910(6)
H39 H 0.5869 0.9753 0.7006
H40 H 0.5115 0.9551 0.6400
C30 C 0.5111(6) 1.0288(6) 0.7130(6)
C31 C 0.4452(6) 1.1312(7) 0.7054(7)
H41 H 0.4080 1.1675 0.6874
C32 C 0.5012(7) 1.1346(6) 0.7678(7)
H42 H 0.5110 1.1734 0.8022
C33 C 0.6136(7) 1.0577(7) 0.8361(7)
C34 C 0.6730(7) 1.0798(7) 0.8316(7)
C35 C 0.7381(9) 1.0698(11) 0.8898(11)
H43 H 0.7785 1.0818 0.8873
C36 C 0.7432(11) 1.0423(14) 0.9510(13)
H44 H 0.7873 1.0375 0.9910
C37 C 0.6850(12) 1.0218(11) 0.9545(8)
H45 H 0.6907 1.0013 0.9969
C38 C 0.6151(9) 1.0299(8) 0.8965(7)
C39 C 0.5487(9) 1.0091(9) 0.8993(8)
H46 H 0.5097 1.0045 0.8507
C40 C 0.5565(10) 0.9303(10) 0.9362(8)
H47 H 0.5660 0.8887 0.9114
H48 H 0.5137 0.9183 0.9368
H49 H 0.5948 0.9337 0.9838
C41 C 0.5297(12) 1.0716(10) 0.9375(9)
H50 H 0.4868 1.0564 0.9366
H51 H 0.5234 1.1225 0.9145
H52 H 0.5669 1.0756 0.9856
C42 C 0.6687(7) 1.1157(8) 0.7648(8)
H53 H 0.6205 1.1087 0.7259
C43 C 0.7189(9) 1.0731(13) 0.7448(11)
H54 H 0.7065 1.0174 0.7360
H55 H 0.7664 1.0780 0.7829
H56 H 0.7152 1.0973 0.7029
C44 C 0.6844(11) 1.2083(10) 0.7765(11)
H57 H 0.6495 1.2337 0.7846
H58 H 0.6832 1.2311 0.7353
H59 H 0.7302 1.2165 0.8168
C45 C 0.4033(6) 1.0504(6) 0.5969(6)
C46 C 0.4223(6) 1.0830(6) 0.5491(6)
C47 C 0.3769(7) 1.0668(7) 0.4764(7)
H60 H 0.3874 1.0868 0.4427
C48 C 0.3172(7) 1.0214(8) 0.4560(8)
H61 H 0.2879 1.0098 0.4083
C49 C 0.3006(7) 0.9930(8) 0.5055(10)
H62 H 0.2594 0.9635 0.4904
C50 C 0.3432(6) 1.0069(7) 0.5770(7)
C51 C 0.3192(7) 0.9790(8) 0.6273(8)
H63 H 0.3609 0.9769 0.6745
C52 C 0.2680(8) 1.0401(11) 0.6308(9)
H64 H 0.2899 1.0919 0.6425
H65 H 0.2565 1.0238 0.6663
H66 H 0.2258 1.0425 0.5856
C53 C 0.2849(8) 0.8955(10) 0.6123(10)
H67 H 0.3173 0.8565 0.6123
H68 H 0.2429 0.8958 0.5669
H69 H 0.2730 0.8823 0.6482
C54 C 0.4854(6) 1.1372(7) 0.5722(6)
H70 H 0.5111 1.1382 0.6241
C55 C 0.4625(8) 1.2225(8) 0.5466(8)
H71 H 0.4317 1.2414 0.5633
H72 H 0.4381 1.2234 0.4958
H73 H 0.5032 1.2565 0.5643
C56 C 0.5370(6) 1.1069(8) 0.5469(7)
H74 H 0.5521 1.0535 0.5640
H75 H 0.5772 1.1417 0.5649
H76 H 0.5135 1.1070 0.4961
C57 C 0.3301(10) 0.6133(17) 0.3586(12)
C58 C 0.3234(12) 0.6862(14) 0.3857(11)
H77 H 0.3592 0.7241 0.4009
C59 C 0.2631(16) 0.7025(12) 0.3902(11)
H78 H 0.2586 0.7512 0.4084
C60 C 0.2096(11) 0.6458(17) 0.3675(11)
H79 H 0.1692 0.6567 0.3705
C61 C 0.2163(10) 0.5729(14) 0.3403(9)
H80 H 0.1804 0.5351 0.3251
C62 C 0.2766(13) 0.5567(11) 0.3359(10)
H81 H 0.2811 0.5079 0.3177
C63 C 0.373(3) 0.576(4) 0.330(4)
H82 H 0.4147 0.6082 0.3438
H83 H 0.3462 0.5737 0.2796
H84 H 0.3870 0.5232 0.3491
Br7? Br -0.1146(4) 0.4383(4) 0.2405(5)
Br8? Br 0.0313(5) 0.5020(6) 0.2454(6)
Br9? Br -0.0879(3) 0.4616(6) 0.0776(4)
loop_
_geom_bond_atom_site_label_1
_geom_bond_atom_site_label_2
_geom_bond_site_symmetry_1
_geom_bond_site_symmetry_2
B1 Br1 1_555 1_555
Br2 B1 1_555 1_555
Br3 B1 1_555 1_555
N1 C2 1_555 1_555
N2 C2 1_555 1_555
C1 B1 1_555 1_555
H1 C1 1_555 1_555
H2 C1 1_555 1_555
C2 C1 1_555 1_555
C3 N1 1_555 1_555
H3 C3 1_555 1_555
C4 N2 1_555 1_555
H4 C4 1_555 1_555
C5 N2 1_555 1_555
C6 C5 1_555 1_555
C7 C6 1_555 1_555
H5 C7 1_555 1_555
C8 C7 1_555 1_555
H6 C8 1_555 1_555
C9 C8 1_555 1_555
H7 C9 1_555 1_555
C10 C5 1_555 1_555
C11 C10 1_555 1_555
H8 C11 1_555 1_555
C12 C11 1_555 1_555
H9 C12 1_555 1_555
H10 C12 1_555 1_555
H11 C12 1_555 1_555
C13 C11 1_555 1_555
H12 C13 1_555 1_555
H13 C13 1_555 1_555
H14 C13 1_555 1_555
C14 C6 1_555 1_555
H15 C14 1_555 1_555
C15 C14 1_555 1_555
H16 C15 1_555 1_555
H17 C15 1_555 1_555
H18 C15 1_555 1_555
C16 C14 1_555 1_555
H19 C16 1_555 1_555
H20 C16 1_555 1_555
H21 C16 1_555 1_555
C17 N1 1_555 1_555
C18 C17 1_555 1_555
C19 C18 1_555 1_555
H22 C19 1_555 1_555
C20 C19 1_555 1_555
H23 C20 1_555 1_555
C21 C20 1_555 1_555
H24 C21 1_555 1_555
C22 C17 1_555 1_555
C23 C22 1_555 1_555
H25 C23 1_555 1_555
C24 C23 1_555 1_555
H26 C24 1_555 1_555
H27 C24 1_555 1_555
H28 C24 1_555 1_555
C25 C23 1_555 1_555
H29 C25 1_555 1_555
H30 C25 1_555 1_555
H31 C25 1_555 1_555
C26 C18 1_555 1_555
H32 C26 1_555 1_555
C27 C26 1_555 1_555
H33 C27 1_555 1_555
H34 C27 1_555 1_555
H35 C27 1_555 1_555
C28 C26 1_555 1_555
H36 C28 1_555 1_555
H37 C28 1_555 1_555
H38 C28 1_555 1_555
B2 Br4 1_555 1_555
Br5 B2 1_555 1_555
Br6 B2 1_555 1_555
N3 C30 1_555 1_555
N4 C30 1_555 1_555
C29 B2 1_555 1_555
H39 C29 1_555 1_555
H40 C29 1_555 1_555
C30 C29 1_555 1_555
C31 N3 1_555 1_555
H41 C31 1_555 1_555
C32 N4 1_555 1_555
H42 C32 1_555 1_555
C33 N4 1_555 1_555
C34 C33 1_555 1_555
C35 C34 1_555 1_555
H43 C35 1_555 1_555
C36 C35 1_555 1_555
H44 C36 1_555 1_555
C37 C36 1_555 1_555
H45 C37 1_555 1_555
C38 C33 1_555 1_555
C39 C38 1_555 1_555
H46 C39 1_555 1_555
C40 C39 1_555 1_555
H47 C40 1_555 1_555
H48 C40 1_555 1_555
H49 C40 1_555 1_555
C41 C39 1_555 1_555
H50 C41 1_555 1_555
H51 C41 1_555 1_555
H52 C41 1_555 1_555
C42 C34 1_555 1_555
H53 C42 1_555 1_555
C43 C42 1_555 1_555
H54 C43 1_555 1_555
H55 C43 1_555 1_555
H56 C43 1_555 1_555
C44 C42 1_555 1_555
H57 C44 1_555 1_555
H58 C44 1_555 1_555
H59 C44 1_555 1_555
C45 N3 1_555 1_555
C46 C45 1_555 1_555
C47 C46 1_555 1_555
H60 C47 1_555 1_555
C48 C47 1_555 1_555
H61 C48 1_555 1_555
C49 C48 1_555 1_555
H62 C49 1_555 1_555
C50 C45 1_555 1_555
C51 C50 1_555 1_555
H63 C51 1_555 1_555
C52 C51 1_555 1_555
H64 C52 1_555 1_555
H65 C52 1_555 1_555
H66 C52 1_555 1_555
C53 C51 1_555 1_555
H67 C53 1_555 1_555
H68 C53 1_555 1_555
H69 C53 1_555 1_555
C54 C46 1_555 1_555
H70 C54 1_555 1_555
C55 C54 1_555 1_555
H71 C55 1_555 1_555
H72 C55 1_555 1_555
H73 C55 1_555 1_555
C56 C54 1_555 1_555
H74 C56 1_555 1_555
H75 C56 1_555 1_555
H76 C56 1_555 1_555
C57 C58 1_555 1_555
C58 H77 1_555 1_555
C59 C58 1_555 1_555
H78 C59 1_555 1_555
C60 C59 1_555 1_555
H79 C60 1_555 1_555
C61 C60 1_555 1_555
H80 C61 1_555 1_555
C62 C57 1_555 1_555
H81 C62 1_555 1_555
C63 C57 1_555 1_555
H82 C63 1_555 1_555
H83 C63 1_555 1_555
H84 C63 1_555 1_555
C3 C4 1_555 1_555
C9 C10 1_555 1_555
C21 C22 1_555 1_555
C31 C32 1_555 1_555
C37 C38 1_555 1_555
C49 C50 1_555 1_555
C61 C62 1_555 1_555

#END
