
#######################################################################
#
#                 Cambridge Crystallographic Data Centre
#                                CCDC 
#
#######################################################################
#
# If this CIF has been generated from an entry in the Cambridge 
# Structural Database, then it will include bibliographic, chemical, 
# crystal, experimental, refinement or atomic coordinate data resulting 
# from the CCDC's data processing and validation procedures.
#
#######################################################################

data_KIXJUY
_chemical_formula_moiety         'C36 H54 B1 Br2 N2 O2 1+,C7 H8,Br1 1-'
_chemical_name_systematic        
'2-((bis(4-bromobutoxy)boryl)methyl)-1,3-bis(2,6-diisopropylphenyl)-1H-imidazolium bromide toluene solvate'
_symmetry_cell_setting           triclinic
_symmetry_space_group_name_H-M   'P -1'
_symmetry_Int_Tables_number      2
_space_group_name_Hall           '-P 1'
loop_
_symmetry_equiv_pos_site_id
_symmetry_equiv_pos_as_xyz
1 x,y,z
2 -x,-y,-z
_cell_length_a                   10.7406(12)
_cell_length_b                   15.0071(17)
_cell_length_c                   16.4133(18)
_cell_angle_alpha                64.0300(10)
_cell_angle_beta                 89.490(2)
_cell_angle_gamma                83.418(2)
_cell_volume                     2360.24
_exptl_crystal_colour            colorless
_exptl_crystal_description       plate
_cell_formula_units_Z            2
loop_
_atom_site_label
_atom_site_type_symbol
_atom_site_fract_x
_atom_site_fract_y
_atom_site_fract_z
Br1 Br 0.20669(6) 0.45403(8) 0.29821(6)
B1 B 2.0507(9) -0.2756(9) 0.6602(8)
O1 O 2.0002(6) -0.2215(5) 0.5755(5)
O2 O 2.0513(6) -0.2301(5) 0.7144(4)
N1 N 2.3067(5) -0.4458(5) 0.8050(4)
N2 N 2.3377(5) -0.3932(5) 0.6622(4)
C1 C 2.1116(6) -0.3843(6) 0.7031(5)
H1 H 2.0711 -0.4193 0.7595
H2 H 2.0915 -0.4134 0.6631
C2 C 2.2480(7) -0.4065(6) 0.7232(5)
C3 C 2.4355(7) -0.4574(7) 0.7942(7)
H3 H 2.4976 -0.4832 0.8405
C4 C 2.4541(7) -0.4250(6) 0.7052(6)
H4 H 2.5307 -0.4242 0.6783
C5 C 2.3148(7) -0.3591(8) 0.5658(5)
C6 C 2.3275(9) -0.2565(9) 0.5095(7)
C7 C 2.3060(12) -0.2270(10) 0.4169(7)
H5 H 2.3174 -0.1619 0.3770
C8 C 2.2698(15) -0.2865(14) 0.3810(10)
H6 H 2.2515 -0.2623 0.3192
C9 C 2.2615(10) -0.3832(12) 0.4400(9)
H7 H 2.2395 -0.4251 0.4157
C10 C 2.2831(8) -0.4244(9) 0.5327(7)
C11 C 2.2800(10) -0.5341(9) 0.5952(8)
H8 H 2.2894 -0.5443 0.6581
C12 C 2.1513(11) -0.5644(10) 0.5815(10)
H9 H 2.1484 -0.6337 0.6216
H10 H 2.1405 -0.5540 0.5198
H11 H 2.0853 -0.5245 0.5946
C13 C 2.3846(12) -0.5961(10) 0.5774(10)
H12 H 2.3813 -0.6653 0.6175
H13 H 2.4632 -0.5771 0.5876
H14 H 2.3769 -0.5861 0.5156
C14 C 2.3698(10) -0.1862(8) 0.5484(8)
H15 H 2.3641 -0.2188 0.6145
C15 C 2.5055(10) -0.1686(10) 0.5267(9)
H16 H 2.5317 -0.1276 0.5531
H17 H 2.5123 -0.1356 0.4621
H18 H 2.5580 -0.2316 0.5511
C16 C 2.2820(11) -0.0876(8) 0.5100(10)
H19 H 2.1978 -0.1007 0.5266
H20 H 2.2850 -0.0556 0.4451
H21 H 2.3083 -0.0446 0.5342
C17 C 2.2498(8) -0.4795(8) 0.8929(5)
C18 C 2.2518(9) -0.4209(9) 0.9387(7)
C19 C 2.1996(11) -0.4628(11) 1.0249(7)
H22 H 2.1985 -0.4278 1.0596
C20 C 2.1511(11) -0.5509(12) 1.0600(8)
H23 H 2.1166 -0.5745 1.1168
C21 C 2.1539(11) -0.6044(10) 1.0103(8)
H24 H 2.1207 -0.6649 1.0336
C22 C 2.2037(9) -0.5708(9) 0.9287(7)
C23 C 2.2060(10) -0.6373(8) 0.8785(7)
H25 H 2.2297 -0.5967 0.8165
C24 C 2.3107(14) -0.7296(12) 0.9216(11)
H26 H 2.3894 -0.7068 0.9253
H27 H 2.3180 -0.7645 0.8844
H28 H 2.2884 -0.7738 0.9814
C25 C 2.0850(11) -0.6745(10) 0.8707(10)
H29 H 2.0206 -0.6188 0.8433
H30 H 2.0614 -0.7188 0.9300
H31 H 2.0955 -0.7095 0.8337
C26 C 2.3053(11) -0.3207(9) 0.8992(7)
H32 H 2.3245 -0.3030 0.8358
C27 C 2.2115(13) -0.2398(9) 0.9017(8)
H33 H 2.2468 -0.1778 0.8769
H34 H 2.1907 -0.2568 0.9634
H35 H 2.1371 -0.2330 0.8665
C28 C 2.4297(10) -0.3291(10) 0.9531(8)
H36 H 2.4628 -0.2662 0.9270
H37 H 2.4900 -0.3797 0.9499
H38 H 2.4122 -0.3465 1.0154
C29 C 1.9920(18) -0.2643(14) 0.5106(10)
H39 H 1.9356 -0.3153 0.5320
H40 H 2.0741 -0.2950 0.5051
C30 C 1.9430(18) -0.1809(17) 0.4183(12)
H41 H 2.0003 -0.1307 0.3986
H42 H 1.9445 -0.2086 0.3748
C31 C 1.812(2) -0.130(2) 0.4159(14)
H43 H 1.8087 -0.0966 0.4549
H44 H 1.7521 -0.1786 0.4362
C32 C 1.781(2) -0.0542(18) 0.3167(13)
H45 H 1.8553 -0.0226 0.2920
H46 H 1.7164 -0.0027 0.3153
Br2 Br 1.7251(4) -0.1092(3) 0.2400(3)
C33 C 1.990(2) -0.1280(15) 0.692(3)
H47 H 1.9770 -0.0913 0.6266
H48 H 2.0460 -0.0941 0.7115
C34 C 1.864(3) -0.1252(18) 0.735(2)
H49 H 1.8769 -0.1531 0.8008
H50 H 1.8253 -0.0566 0.7134
C35 C 1.7793(19) -0.185(2) 0.712(3)
H51 H 1.8282 -0.2464 0.7190
H52 H 1.7533 -0.1473 0.6481
C36 C 1.662(2) -0.2110(15) 0.766(3)
H53 H 1.6866 -0.2478 0.8296
H54 H 1.6202 -0.2541 0.7480
Br3 Br 1.5470(2) -0.0944(3) 0.7469(2)
C45 C 1.975(3) -0.013(2) 0.892(2)
H71 H 2.0535 0.0125 0.8869
H72 H 1.9679 -0.0398 0.8487
H73 H 1.9698 -0.0657 0.9522
C46 C 1.8665(18) 0.0710(17) 0.8736(14)
C47 C 1.755(3) 0.0283(12) 0.8929(13)
H74 H 1.7545 -0.0377 0.9031
C48 C 1.6449(17) 0.084(2) 0.8969(11)
H75 H 1.5704 0.0557 0.9098
C49 C 1.6459(17) 0.1829(19) 0.8816(11)
H76 H 1.5721 0.2203 0.8843
C50 C 1.757(2) 0.2255(12) 0.8623(11)
H77 H 1.7579 0.2915 0.8521
C51 C 1.8676(17) 0.1696(18) 0.8583(12)
H78 H 1.9421 0.1982 0.8454
C37? C 1.940(3) -0.265(3) 0.525(3)
H55? H 1.9068 -0.3259 0.5648
H56? H 1.9970 -0.2783 0.4842
C38? C 1.835(3) -0.181(3) 0.472(2)
H57? H 1.7579 -0.2087 0.4724
H58? H 1.8205 -0.1366 0.5013
C39? C 1.873(4) -0.123(4) 0.375(3)
H59? H 1.9176 -0.1658 0.3517
H60? H 1.9225 -0.0701 0.3691
C40? C 1.741(4) -0.082(4) 0.332(2)
H61? H 1.7152 -0.0144 0.3247
H62? H 1.6787 -0.1249 0.3642
Br4? Br 1.777(2) -0.0851(15) 0.2181(11)
C41? C 1.971(3) -0.1347(19) 0.690(4)
H63? H 1.9448 -0.1044 0.6262
H64? H 2.0166 -0.0887 0.7012
C42? C 1.856(4) -0.1576(19) 0.749(3)
H65? H 1.8818 -0.2048 0.8107
H66? H 1.8142 -0.0970 0.7489
C43? C 1.769(3) -0.202(4) 0.708(4)
H67? H 1.8103 -0.2655 0.7134
H68? H 1.7551 -0.1579 0.6434
C44? C 1.642(4) -0.218(2) 0.751(5)
H69? H 1.6540 -0.2655 0.8141
H70? H 1.5921 -0.2465 0.7208
Br5? Br 1.5526(17) -0.0945(13) 0.7403(14)
loop_
_geom_bond_atom_site_label_1
_geom_bond_atom_site_label_2
_geom_bond_site_symmetry_1
_geom_bond_site_symmetry_2
B1 O1 1_555 1_555
O1 C29 1_555 1_555
O2 B1 1_555 1_555
N1 C2 1_555 1_555
N2 C2 1_555 1_555
C1 B1 1_555 1_555
H1 C1 1_555 1_555
H2 C1 1_555 1_555
C2 C1 1_555 1_555
C3 N1 1_555 1_555
H3 C3 1_555 1_555
C4 N2 1_555 1_555
H4 C4 1_555 1_555
C5 N2 1_555 1_555
C6 C5 1_555 1_555
C7 C6 1_555 1_555
H5 C7 1_555 1_555
C8 C7 1_555 1_555
H6 C8 1_555 1_555
C9 C8 1_555 1_555
H7 C9 1_555 1_555
C10 C5 1_555 1_555
C11 C10 1_555 1_555
H8 C11 1_555 1_555
C12 C11 1_555 1_555
H9 C12 1_555 1_555
H10 C12 1_555 1_555
H11 C12 1_555 1_555
C13 C11 1_555 1_555
H12 C13 1_555 1_555
H13 C13 1_555 1_555
H14 C13 1_555 1_555
C14 C6 1_555 1_555
H15 C14 1_555 1_555
C15 C14 1_555 1_555
H16 C15 1_555 1_555
H17 C15 1_555 1_555
H18 C15 1_555 1_555
C16 C14 1_555 1_555
H19 C16 1_555 1_555
H20 C16 1_555 1_555
H21 C16 1_555 1_555
C17 N1 1_555 1_555
C18 C17 1_555 1_555
C19 C18 1_555 1_555
H22 C19 1_555 1_555
C20 C19 1_555 1_555
H23 C20 1_555 1_555
C21 C20 1_555 1_555
H24 C21 1_555 1_555
C22 C17 1_555 1_555
C23 C22 1_555 1_555
H25 C23 1_555 1_555
C24 C23 1_555 1_555
H26 C24 1_555 1_555
H27 C24 1_555 1_555
H28 C24 1_555 1_555
C25 C23 1_555 1_555
H29 C25 1_555 1_555
H30 C25 1_555 1_555
H31 C25 1_555 1_555
C26 C18 1_555 1_555
H32 C26 1_555 1_555
C27 C26 1_555 1_555
H33 C27 1_555 1_555
H34 C27 1_555 1_555
H35 C27 1_555 1_555
C28 C26 1_555 1_555
H36 C28 1_555 1_555
H37 C28 1_555 1_555
H38 C28 1_555 1_555
C29 H39 1_555 1_555
H40 C29 1_555 1_555
C30 C29 1_555 1_555
H41 C30 1_555 1_555
H42 C30 1_555 1_555
C31 C30 1_555 1_555
H43 C31 1_555 1_555
H44 C31 1_555 1_555
C32 C31 1_555 1_555
H45 C32 1_555 1_555
H46 C32 1_555 1_555
Br2 C32 1_555 1_555
C33 O2 1_555 1_555
H47 C33 1_555 1_555
H48 C33 1_555 1_555
C34 C33 1_555 1_555
H49 C34 1_555 1_555
H50 C34 1_555 1_555
C35 C34 1_555 1_555
H51 C35 1_555 1_555
H52 C35 1_555 1_555
C36 C35 1_555 1_555
H53 C36 1_555 1_555
H54 C36 1_555 1_555
Br3 C36 1_555 1_555
C45 H71 1_555 1_555
H72 C45 1_555 1_555
H73 C45 1_555 1_555
C46 C45 1_555 1_555
C47 C46 1_555 1_555
H74 C47 1_555 1_555
C48 C47 1_555 1_555
H75 C48 1_555 1_555
C49 C48 1_555 1_555
H76 C49 1_555 1_555
C50 C49 1_555 1_555
H77 C50 1_555 1_555
C51 C46 1_555 1_555
H78 C51 1_555 1_555
C3 C4 1_555 1_555
C9 C10 1_555 1_555
C21 C22 1_555 1_555
C50 C51 1_555 1_555

#END
