
#######################################################################
#
#                 Cambridge Crystallographic Data Centre
#                                CCDC 
#
#######################################################################
#
# If this CIF has been generated from an entry in the Cambridge 
# Structural Database, then it will include bibliographic, chemical, 
# crystal, experimental, refinement or atomic coordinate data resulting 
# from the CCDC's data processing and validation procedures.
#
#######################################################################

data_KIXJEH
_chemical_compound_source        
'the endophytic fungus No. B77 from the mangrove tree from the South China Sea coast'
_chemical_formula_moiety         'C9 H9 Cl2 N1 O2'
_chemical_name_systematic        1,3-bis(Chloromethyl)-2-methyl-5-nitrobenzene
_symmetry_cell_setting           monoclinic
_symmetry_space_group_name_H-M   'C 2/c'
_symmetry_Int_Tables_number      15
_space_group_name_Hall           '-C 2yn'
loop_
_symmetry_equiv_pos_site_id
_symmetry_equiv_pos_as_xyz
1 x,y,z
2 1/2+x,1/2+y,z
3 -x,y,1/2-z
4 1/2-x,1/2+y,1/2-z
5 -x,-y,-z
6 1/2-x,1/2-y,-z
7 x,-y,1/2+z
8 1/2+x,1/2-y,1/2+z
_cell_length_a                   8.921(3)
_cell_length_b                   16.141(6)
_cell_length_c                   7.511(3)
_cell_angle_alpha                90
_cell_angle_beta                 111.929(6)
_cell_angle_gamma                90
_cell_volume                     1003.29
_exptl_crystal_colour            colorless
_exptl_crystal_description       block
_cell_formula_units_Z            4
_exptl_crystal_recrystallization_method methanol
loop_
_atom_site_label
_atom_site_type_symbol
_atom_site_fract_x
_atom_site_fract_y
_atom_site_fract_z
Cl1 Cl 0.58497(5) 0.11383(3) -0.00170(7)
N1 N 1.0000 -0.17528(13) 0.2500
C1 C 0.86254(17) -0.04274(9) 0.2433(2)
H1 H 0.7713 -0.0721 0.2379
C2 C 1.0000 0.08774(13) 0.2500
C3 C 0.86253(17) 0.04352(9) 0.2446(2)
C4 C 1.0000 -0.08388(13) 0.2500
O1 O 0.8703(2) -0.21053(9) 0.2040(3)
C5 C 1.0000 0.18142(15) 0.2500
C6 C 0.71110(19) 0.08572(12) 0.2402(2)
H5 H 0.7393 0.1351 0.3195
H6 H 0.6520 0.0489 0.2925
Cl1B Cl 1.41503(5) 0.11383(3) 0.50170(7)
C1B C 1.13746(17) -0.04274(9) 0.2567(2)
H1B H 1.2287 -0.0721 0.2621
C3B C 1.13747(17) 0.04352(9) 0.2554(2)
O1B O 1.1297(2) -0.21053(9) 0.2960(3)
C6B C 1.28890(19) 0.08572(12) 0.2598(2)
H5B H 1.2607 0.1351 0.1805
H6B H 1.3480 0.0489 0.2075
H2? H 0.8974 0.2012 0.2461
H3? H 1.0186 0.2012 0.1395
H4? H 1.0840 0.2012 0.3644
loop_
_geom_bond_atom_site_label_1
_geom_bond_atom_site_label_2
_geom_bond_site_symmetry_1
_geom_bond_site_symmetry_2
Cl1 C6 1_555 1_555
N1 C4 1_555 1_555
C1 H1 1_555 1_555
C2 C3 1_555 1_555
C3 C1 1_555 1_555
C4 C1 1_555 1_555
O1 N1 1_555 1_555
C5 C2 1_555 1_555
C6 C3 1_555 1_555
H5 C6 1_555 1_555
H6 C6 1_555 1_555
Cl1B C6B 1_555 1_555
C1B C4 1_555 1_555
H1B C1B 1_555 1_555
C3B C2 1_555 1_555
O1B N1 1_555 1_555
C6B C3B 1_555 1_555
H5B C6B 1_555 1_555
H6B C6B 1_555 1_555
C1B C3B 1_555 1_555

#END
