
#######################################################################
#
#                 Cambridge Crystallographic Data Centre
#                                CCDC 
#
#######################################################################
#
# If this CIF has been generated from an entry in the Cambridge 
# Structural Database, then it will include bibliographic, chemical, 
# crystal, experimental, refinement or atomic coordinate data resulting 
# from the CCDC's data processing and validation procedures.
#
#######################################################################

data_KIXKAD03
_chemical_formula_moiety         'C19 H13 N1'
_chemical_name_systematic        9-phenylacridine
_symmetry_cell_setting           monoclinic
_symmetry_space_group_name_H-M   'P 21/n'
_symmetry_Int_Tables_number      14
_space_group_name_Hall           '-P 2yn'
loop_
_symmetry_equiv_pos_site_id
_symmetry_equiv_pos_as_xyz
1 x,y,z
2 1/2-x,1/2+y,1/2-z
3 -x,-y,-z
4 1/2+x,1/2-y,1/2+z
_cell_length_a                   8.5746(4)
_cell_length_b                   17.8599(8)
_cell_length_c                   9.1317(4)
_cell_angle_alpha                90
_cell_angle_beta                 107.7180(10)
_cell_angle_gamma                90
_cell_volume                     1332.11
_exptl_crystal_colour            colorless
_exptl_crystal_description       block
_cell_formula_units_Z            4
loop_
_atom_site_label
_atom_site_type_symbol
_atom_site_fract_x
_atom_site_fract_y
_atom_site_fract_z
N1 N 0.71188(15) 0.13923(7) 0.96924(15)
C1 C 0.72776(18) 0.15386(8) 0.83001(18)
C2 C 0.8817(2) 0.18035(10) 0.8230(2)
H1 H 0.9685 0.1847 0.9132
C3 C 0.9037(2) 0.19916(11) 0.6883(2)
H2 H 1.0049 0.2172 0.6866
C4 C 0.7752(2) 0.19188(10) 0.5492(2)
H3 H 0.7923 0.2052 0.4568
C5 C 0.6270(2) 0.16548(9) 0.54959(19)
H4 H 0.5438 0.1603 0.4570
C6 C 0.59677(17) 0.14559(8) 0.68940(17)
C7 C 0.44532(17) 0.11958(8) 0.69773(16)
C8 C 0.42676(17) 0.10572(8) 0.84210(16)
C9 C 0.27676(19) 0.08208(9) 0.86347(19)
H5 H 0.1855 0.0748 0.7782
C10 C 0.2647(2) 0.06998(11) 1.00592(19)
H6 H 0.1654 0.0547 1.0175
C11 C 0.4013(2) 0.08030(11) 1.13650(19)
H7 H 0.3916 0.0716 1.2337
C12 C 0.5456(2) 0.10264(10) 1.12245(18)
H8 H 0.6345 0.1091 1.2102
C13 C 0.56464(18) 0.11658(8) 0.97614(17)
C14 C 0.30551(17) 0.10619(8) 0.55481(16)
C15 C 0.21549(19) 0.16504(10) 0.47357(18)
H9 H 0.2421 0.2140 0.5066
C16 C 0.0853(2) 0.15126(11) 0.34274(19)
H10 H 0.0253 0.1912 0.2882
C17 C 0.0442(2) 0.07955(11) 0.29311(19)
H11 H -0.0438 0.0707 0.2057
C18 C 0.1333(2) 0.02088(11) 0.37286(19)
H12 H 0.1061 -0.0279 0.3393
C19 C 0.26351(19) 0.03402(9) 0.50307(17)
H13 H 0.3236 -0.0061 0.5565
loop_
_geom_bond_atom_site_label_1
_geom_bond_atom_site_label_2
_geom_bond_site_symmetry_1
_geom_bond_site_symmetry_2
N1 C1 1_555 1_555
C1 C2 1_555 1_555
C2 H1 1_555 1_555
C3 C2 1_555 1_555
H2 C3 1_555 1_555
C4 C3 1_555 1_555
H3 C4 1_555 1_555
C5 C4 1_555 1_555
H4 C5 1_555 1_555
C6 C1 1_555 1_555
C7 C6 1_555 1_555
C8 C7 1_555 1_555
C9 C8 1_555 1_555
H5 C9 1_555 1_555
C10 C9 1_555 1_555
H6 C10 1_555 1_555
C11 C10 1_555 1_555
H7 C11 1_555 1_555
C12 C11 1_555 1_555
H8 C12 1_555 1_555
C13 N1 1_555 1_555
C14 C7 1_555 1_555
C15 C14 1_555 1_555
H9 C15 1_555 1_555
C16 C15 1_555 1_555
H10 C16 1_555 1_555
C17 C16 1_555 1_555
H11 C17 1_555 1_555
C18 C17 1_555 1_555
H12 C18 1_555 1_555
C19 C14 1_555 1_555
H13 C19 1_555 1_555
C5 C6 1_555 1_555
C8 C13 1_555 1_555
C12 C13 1_555 1_555
C18 C19 1_555 1_555

#END
