
#######################################################################
#
#                 Cambridge Crystallographic Data Centre
#                                CCDC 
#
#######################################################################
#
# If this CIF has been generated from an entry in the Cambridge 
# Structural Database, then it will include bibliographic, chemical, 
# crystal, experimental, refinement or atomic coordinate data resulting 
# from the CCDC's data processing and validation procedures.
#
#######################################################################

data_KIXKIN
_chemical_formula_moiety         'C15 H24 B1 N1 O2'
_chemical_name_systematic        
1-benzyl-7,12-dioxa-1-azonia-6-borataspiro[5.6]dodecane
_symmetry_cell_setting           monoclinic
_symmetry_space_group_name_H-M   'P 21/c'
_symmetry_Int_Tables_number      14
_space_group_name_Hall           '-P 2ybc'
loop_
_symmetry_equiv_pos_site_id
_symmetry_equiv_pos_as_xyz
1 x,y,z
2 -x,1/2+y,1/2-z
3 -x,-y,-z
4 x,1/2-y,1/2+z
_cell_length_a                   20.1813(16)
_cell_length_b                   15.9646(12)
_cell_length_c                   9.3000(7)
_cell_angle_alpha                90
_cell_angle_beta                 102.7230(10)
_cell_angle_gamma                90
_cell_volume                     2922.76
_exptl_crystal_colour            colorless
_exptl_crystal_description       block
_cell_formula_units_Z            8
loop_
_atom_site_label
_atom_site_type_symbol
_atom_site_fract_x
_atom_site_fract_y
_atom_site_fract_z
O1 O 0.45063(4) 0.51216(5) 0.32829(8)
O2 O 0.33319(4) 0.55636(5) 0.31896(9)
N1 N 0.40191(5) 0.51389(6) 0.55443(10)
B1 B 0.40382(6) 0.56059(8) 0.39624(13)
C1 C 0.36262(6) 0.56513(7) 0.64130(13)
C2 C 0.39114(7) 0.65289(8) 0.67309(15)
C3 C 0.39347(7) 0.70152(7) 0.53381(15)
C4 C 0.43410(6) 0.65303(7) 0.44084(14)
C5 C 0.37445(6) 0.42629(7) 0.53326(13)
C6 C 0.37141(6) 0.38250(7) 0.67549(12)
C7 C 0.30954(7) 0.36832(8) 0.71308(15)
C8 C 0.30661(8) 0.32790(9) 0.84383(16)
C9 C 0.36512(8) 0.30091(8) 0.93747(16)
C10 C 0.42707(8) 0.31420(8) 0.90150(15)
C11 C 0.43035(7) 0.35501(8) 0.77138(14)
C12 C 0.42566(7) 0.46639(8) 0.19647(13)
C13 C 0.39579(7) 0.52096(9) 0.06357(13)
C14 C 0.32294(7) 0.54875(9) 0.05398(14)
C15 C 0.31284(6) 0.60050(9) 0.18380(14)
H1 H 0.4472(7) 0.5106(8) 0.6038(14)
H2 H 0.3624(7) 0.5357(9) 0.7344(16)
H3 H 0.3154(7) 0.5673(8) 0.5799(15)
H4 H 0.3633(8) 0.6813(10) 0.7311(17)
H5 H 0.4376(8) 0.6484(9) 0.7383(16)
H6 H 0.3473(7) 0.7090(8) 0.4771(14)
H7 H 0.4138(7) 0.7590(10) 0.5620(16)
H8 H 0.4375(7) 0.6860(9) 0.3494(15)
H9 H 0.4824(7) 0.6480(8) 0.4982(15)
H10 H 0.3284(7) 0.4311(8) 0.4715(15)
H11 H 0.4049(7) 0.3953(8) 0.4806(14)
H12 H 0.2687(8) 0.3874(9) 0.6458(17)
H13 H 0.2636(8) 0.3183(10) 0.8661(18)
H14 H 0.3630(8) 0.2734(10) 1.0264(19)
H15 H 0.4689(8) 0.2962(10) 0.9671(18)
H16 H 0.4724(7) 0.3652(9) 0.7476(15)
H17 H 0.3918(7) 0.4237(9) 0.2102(15)
H18 H 0.4659(7) 0.4352(9) 0.1753(15)
H19 H 0.3978(8) 0.4877(10) -0.0254(18)
H20 H 0.4252(7) 0.5691(9) 0.0636(15)
H21 H 0.3081(8) 0.5823(10) -0.0392(17)
H22 H 0.2937(8) 0.4979(10) 0.0440(17)
H23 H 0.3389(7) 0.6544(9) 0.1892(15)
H24 H 0.2646(8) 0.6153(9) 0.1745(15)
O3 O 0.06026(4) 0.56826(5) 0.45645(9)
O4 O 0.12090(4) 0.65198(6) 0.66459(11)
N2 N 0.01900(5) 0.57963(7) 0.69203(11)
B2 B 0.08618(7) 0.57463(9) 0.61669(16)
C16 C 0.04057(7) 0.57765(12) 0.85644(15)
C17 C 0.08056(8) 0.49965(14) 0.91172(18)
C18 C 0.14421(8) 0.49007(13) 0.84994(18)
C19 C 0.12507(7) 0.48974(9) 0.68165(16)
C20 C -0.02576(6) 0.65327(9) 0.64127(16)
C21 C -0.08864(6) 0.65617(8) 0.70434(14)
C22 C -0.13502(6) 0.59029(9) 0.68206(15)
C23 C -0.19261(6) 0.59281(10) 0.74094(15)
C24 C -0.20434(7) 0.66123(11) 0.82200(16)
C25 C -0.15896(8) 0.72720(12) 0.84448(19)
C26 C -0.10148(7) 0.72475(11) 0.78531(18)
C27 C 0.06766(7) 0.63710(9) 0.36441(17)
C28 C 0.14076(8) 0.65610(11) 0.3566(2)
C29 C 0.18081(8) 0.70599(10) 0.4855(2)
C30 C 0.18586(7) 0.66474(10) 0.6332(2)
H25 H -0.0055(7) 0.5329(9) 0.6604(15)
H26 H 0.0695(9) 0.6300(11) 0.8865(18)
H27 H -0.0005(8) 0.5831(9) 0.8982(16)
H28 H 0.0513(9) 0.4484(12) 0.884(2)
H29 H 0.0922(9) 0.5045(11) 1.021(2)
H30 H 0.1675(9) 0.4372(12) 0.8890(19)
H31 H 0.1763(9) 0.5389(12) 0.884(2)
H32 H 0.0959(8) 0.4401(10) 0.6453(17)
H33 H 0.1666(8) 0.4815(10) 0.6399(17)
H34 H -0.0387(7) 0.6491(9) 0.5332(17)
H35 H 0.0007(7) 0.7039(10) 0.6683(16)
H36 H -0.1263(8) 0.5413(10) 0.6275(17)
H37 H -0.2255(8) 0.5466(10) 0.7245(17)
H38 H -0.2448(9) 0.6625(10) 0.8614(18)
H39 H -0.1669(9) 0.7775(12) 0.899(2)
H40 H -0.0694(9) 0.7734(11) 0.8021(19)
H41 H 0.0410(7) 0.6228(9) 0.2639(17)
H42 H 0.0457(8) 0.6889(10) 0.3979(16)
H43 H 0.1651(9) 0.6031(12) 0.3489(18)
H44 H 0.1384(9) 0.6866(12) 0.264(2)
H45 H 0.2278(9) 0.7167(11) 0.4736(18)
H46 H 0.1599(9) 0.7615(12) 0.4873(19)
H47 H 0.2130(8) 0.7011(11) 0.7166(19)
H48 H 0.2101(8) 0.6123(10) 0.6350(16)
loop_
_geom_bond_atom_site_label_1
_geom_bond_atom_site_label_2
_geom_bond_site_symmetry_1
_geom_bond_site_symmetry_2
O1 B1 1_555 1_555
O2 B1 1_555 1_555
N1 B1 1_555 1_555
B1 C4 1_555 1_555
C1 N1 1_555 1_555
C2 C1 1_555 1_555
C3 C2 1_555 1_555
C4 C3 1_555 1_555
C5 N1 1_555 1_555
C6 C5 1_555 1_555
C7 C6 1_555 1_555
C8 C7 1_555 1_555
C9 C8 1_555 1_555
C10 C9 1_555 1_555
C11 C6 1_555 1_555
C12 O1 1_555 1_555
C13 C12 1_555 1_555
C14 C13 1_555 1_555
C15 O2 1_555 1_555
H1 N1 1_555 1_555
H2 C1 1_555 1_555
H3 C1 1_555 1_555
H4 C2 1_555 1_555
H5 C2 1_555 1_555
H6 C3 1_555 1_555
H7 C3 1_555 1_555
H8 C4 1_555 1_555
H9 C4 1_555 1_555
H10 C5 1_555 1_555
H11 C5 1_555 1_555
H12 C7 1_555 1_555
H13 C8 1_555 1_555
H14 C9 1_555 1_555
H15 C10 1_555 1_555
H16 C11 1_555 1_555
H17 C12 1_555 1_555
H18 C12 1_555 1_555
H19 C13 1_555 1_555
H20 C13 1_555 1_555
H21 C14 1_555 1_555
H22 C14 1_555 1_555
H23 C15 1_555 1_555
H24 C15 1_555 1_555
O3 B2 1_555 1_555
O4 B2 1_555 1_555
N2 B2 1_555 1_555
B2 C19 1_555 1_555
C16 N2 1_555 1_555
C17 C16 1_555 1_555
C18 C17 1_555 1_555
C19 C18 1_555 1_555
C20 N2 1_555 1_555
C21 C20 1_555 1_555
C22 C21 1_555 1_555
C23 C22 1_555 1_555
C24 C23 1_555 1_555
C25 C24 1_555 1_555
C26 C21 1_555 1_555
C27 O3 1_555 1_555
C28 C27 1_555 1_555
C29 C28 1_555 1_555
C30 O4 1_555 1_555
H25 N2 1_555 1_555
H26 C16 1_555 1_555
H27 C16 1_555 1_555
H28 C17 1_555 1_555
H29 C17 1_555 1_555
H30 C18 1_555 1_555
H31 C18 1_555 1_555
H32 C19 1_555 1_555
H33 C19 1_555 1_555
H34 C20 1_555 1_555
H35 C20 1_555 1_555
H36 C22 1_555 1_555
H37 C23 1_555 1_555
H38 C24 1_555 1_555
H39 C25 1_555 1_555
H40 C26 1_555 1_555
H41 C27 1_555 1_555
H42 C27 1_555 1_555
H43 C28 1_555 1_555
H44 C28 1_555 1_555
H45 C29 1_555 1_555
H46 C29 1_555 1_555
H47 C30 1_555 1_555
H48 C30 1_555 1_555
C10 C11 1_555 1_555
C14 C15 1_555 1_555
C25 C26 1_555 1_555
C29 C30 1_555 1_555

#END
