
#######################################################################
#
#                 Cambridge Crystallographic Data Centre
#                                CCDC 
#
#######################################################################
#
# If this CIF has been generated from an entry in the Cambridge 
# Structural Database, then it will include bibliographic, chemical, 
# crystal, experimental, refinement or atomic coordinate data resulting 
# from the CCDC's data processing and validation procedures.
#
#######################################################################

data_KIXLUA
_chemical_formula_moiety         'C14 H23 B1 N1 O2 1+,C1 F3 O3 S1 1-'
_chemical_name_systematic        
'N-benzyl-4-(1,3,2-dioxaborinan-2-yl)butan-1-aminium trifluoromethanesulfonate'
_symmetry_cell_setting           orthorhombic
_symmetry_space_group_name_H-M   'P 21 21 21'
_symmetry_Int_Tables_number      19
_space_group_name_Hall           'P 2ac 2ab'
loop_
_symmetry_equiv_pos_site_id
_symmetry_equiv_pos_as_xyz
1 x,y,z
2 1/2+x,1/2-y,-z
3 -x,1/2+y,1/2-z
4 1/2-x,-y,1/2+z
_cell_length_a                   5.2940(5)
_cell_length_b                   12.1478(12)
_cell_length_c                   28.785(3)
_cell_angle_alpha                90
_cell_angle_beta                 90
_cell_angle_gamma                90
_cell_volume                     1851.18
_exptl_crystal_colour            colorless
_exptl_crystal_description       needle
_cell_formula_units_Z            4
loop_
_atom_site_label
_atom_site_type_symbol
_atom_site_fract_x
_atom_site_fract_y
_atom_site_fract_z
O1 O 0.8286(3) 0.52456(13) 0.02500(4)
O2 O 1.1582(3) 0.65448(12) 0.03966(4)
N1 N 0.9151(3) 0.77033(13) 0.26359(5)
B1 B 0.9488(4) 0.59717(17) 0.05299(6)
C1 C 0.9256(4) 0.5007(2) -0.02075(6)
H1 H 0.8316 0.5444 -0.0441
H2 H 0.8996 0.4218 -0.0278
C2 C 1.2072(5) 0.5280(2) -0.02392(7)
H3 H 1.3049 0.4743 -0.0053
H4 H 1.2634 0.5222 -0.0566
C3 C 1.2563(5) 0.6389(2) -0.00685(7)
H5 H 1.4407 0.6525 -0.0068
H6 H 1.1769 0.6930 -0.0280
C4 C 0.8355(4) 0.61685(15) 0.10277(6)
H7 H 0.6612 0.6450 0.0991
H8 H 0.8243 0.5449 0.1187
C5 C 0.9803(3) 0.69616(15) 0.13418(5)
H9 H 0.9739 0.7710 0.1206
H10 H 1.1596 0.6733 0.1356
C6 C 0.8717(3) 0.69926(15) 0.18333(5)
H11 H 0.6932 0.7233 0.1819
H12 H 0.8752 0.6241 0.1966
C7 C 1.0169(3) 0.77622(14) 0.21498(5)
H13 H 1.1978 0.7556 0.2150
H14 H 1.0028 0.8526 0.2033
C8 C 1.0369(3) 0.84948(14) 0.29650(5)
H15 H 1.0025 0.9258 0.2862
H16 H 1.2221 0.8382 0.2962
C9 C 0.9380(3) 0.83365(14) 0.34512(5)
C10 C 0.7278(3) 0.89151(16) 0.36078(6)
H17 H 0.6449 0.9420 0.3407
C11 C 0.6386(4) 0.87560(17) 0.40581(6)
H18 H 0.4950 0.9151 0.4165
C12 C 0.7595(4) 0.80232(17) 0.43485(6)
H19 H 0.6985 0.7913 0.4655
C13 C 0.9682(4) 0.74490(16) 0.41967(6)
H20 H 1.0506 0.6946 0.4399
C14 C 1.0581(4) 0.76050(15) 0.37480(6)
H21 H 1.2023 0.7210 0.3644
H22 H 0.928(4) 0.6978(19) 0.2736(7)
H23 H 0.751(4) 0.7846(18) 0.2627(7)
S1 S 0.53422(7) 0.53465(3) 0.284071(12)
O3 O 0.80650(19) 0.54444(10) 0.28289(4)
O4 O 0.4021(2) 0.63714(10) 0.27807(4)
O5 O 0.4347(2) 0.44230(10) 0.25846(4)
C16 C 0.4732(3) 0.49753(14) 0.34462(5)
F1 F 0.5843(2) 0.40334(9) 0.35579(4)
F2 F 0.22549(19) 0.48684(10) 0.35261(3)
F3 F 0.5598(2) 0.57537(9) 0.37332(3)
H24? H 1.0189 0.4301 -0.0202
H25? H 0.7837 0.4935 -0.0430
C15? C 1.0919(19) 0.5882(9) -0.0356(3)
H26? H 1.1927 0.5584 -0.0617
H27? H 0.9828 0.6465 -0.0488
H28? H 1.3005 0.7116 -0.0201
H29? H 1.4131 0.5947 -0.0051
loop_
_geom_bond_atom_site_label_1
_geom_bond_atom_site_label_2
_geom_bond_site_symmetry_1
_geom_bond_site_symmetry_2
O1 B1 1_555 1_555
O2 B1 1_555 1_555
N1 C7 1_555 1_555
B1 C4 1_555 1_555
C1 O1 1_555 1_555
H1 C1 1_555 1_555
H2 C1 1_555 1_555
C2 C1 1_555 1_555
H3 C2 1_555 1_555
H4 C2 1_555 1_555
C3 O2 1_555 1_555
H5 C3 1_555 1_555
H6 C3 1_555 1_555
C4 H7 1_555 1_555
H8 C4 1_555 1_555
C5 C4 1_555 1_555
H9 C5 1_555 1_555
H10 C5 1_555 1_555
C6 C5 1_555 1_555
H11 C6 1_555 1_555
H12 C6 1_555 1_555
C7 C6 1_555 1_555
H13 C7 1_555 1_555
H14 C7 1_555 1_555
C8 N1 1_555 1_555
H15 C8 1_555 1_555
H16 C8 1_555 1_555
C9 C8 1_555 1_555
C10 C9 1_555 1_555
H17 C10 1_555 1_555
C11 C10 1_555 1_555
H18 C11 1_555 1_555
C12 C11 1_555 1_555
H19 C12 1_555 1_555
C13 C12 1_555 1_555
H20 C13 1_555 1_555
C14 C9 1_555 1_555
H21 C14 1_555 1_555
H22 N1 1_555 1_555
H23 N1 1_555 1_555
S1 O3 1_555 1_555
O4 S1 1_555 1_555
O5 S1 1_555 1_555
C16 S1 1_555 1_555
F1 C16 1_555 1_555
F2 C16 1_555 1_555
F3 C16 1_555 1_555
C2 C3 1_555 1_555
C13 C14 1_555 1_555

#END
