
#######################################################################
#
#                 Cambridge Crystallographic Data Centre
#                                CCDC 
#
#######################################################################
#
# If this CIF has been generated from an entry in the Cambridge 
# Structural Database, then it will include bibliographic, chemical, 
# crystal, experimental, refinement or atomic coordinate data resulting 
# from the CCDC's data processing and validation procedures.
#
#######################################################################

data_KIXMEM
_chemical_formula_moiety         'C13 H7 B1 F2 I1 N3 O1'
_chemical_name_systematic        
difluoro[6-iodo-2-(pyridin-2-yl)quinazolin-4(3H)-onato]boron
_symmetry_cell_setting           triclinic
_symmetry_space_group_name_H-M   'P -1'
_symmetry_Int_Tables_number      2
_space_group_name_Hall           '-P 1'
loop_
_symmetry_equiv_pos_site_id
_symmetry_equiv_pos_as_xyz
1 x,y,z
2 -x,-y,-z
_cell_length_a                   9.3175(2)
_cell_length_b                   11.9584(3)
_cell_length_c                   12.4885(3)
_cell_angle_alpha                106.399(2)
_cell_angle_beta                 98.357(2)
_cell_angle_gamma                90.381(2)
_cell_volume                     1319.05
_exptl_crystal_colour            colorless
_exptl_crystal_description       block
_cell_formula_units_Z            4
loop_
_atom_site_label
_atom_site_type_symbol
_atom_site_fract_x
_atom_site_fract_y
_atom_site_fract_z
I1 I 0.57658(2) 0.78847(2) 0.57874(2)
F1 F 0.0171(2) 0.32868(18) 0.75073(16)
F2 F 0.1849(2) 0.19923(17) 0.68885(18)
O1 O 0.3156(3) 0.4571(2) 0.73707(18)
N1 N 0.0887(3) 0.3861(2) 0.4155(2)
N2 N 0.1381(3) 0.3545(2) 0.5981(2)
N3 N -0.0365(3) 0.1989(2) 0.5594(2)
C1 C 0.2786(3) 0.5029(2) 0.5612(2)
C2 C 0.4158(3) 0.6520(2) 0.5206(3)
C3 C 0.1982(3) 0.4737(2) 0.4527(2)
C4 C 0.2495(3) 0.4386(3) 0.6412(2)
C5 C 0.3874(3) 0.5914(3) 0.5944(3)
H1 H 0.4409 0.6096 0.6666
C6 C -0.0412(3) 0.2363(3) 0.4667(3)
C7 C -0.1366(3) 0.1855(3) 0.3692(3)
H2 H -0.1396 0.2121 0.3058
C8 C 0.0678(3) 0.3339(2) 0.4897(2)
C9 C 0.3380(3) 0.6249(3) 0.4119(3)
H3 H 0.3583 0.6659 0.3622
C10 C 0.2301(3) 0.5365(3) 0.3780(3)
H4 H 0.1781 0.5183 0.3053
C11 C -0.2237(4) 0.0576(3) 0.4646(3)
H5 H -0.2867 -0.0030 0.4648
C12 C -0.2278(4) 0.0937(3) 0.3689(3)
H6 H -0.2920 0.0564 0.3040
C13 C -0.1269(4) 0.1109(3) 0.5599(3)
H7 H -0.1239 0.0862 0.6245
B1 B 0.0823(4) 0.2719(3) 0.6606(3)
I2 I 1.10375(3) 0.62947(2) 0.88887(2)
F3 F 0.5041(2) 1.1024(2) 0.71816(18)
F4 F 0.6948(3) 1.2340(2) 0.7857(2)
O2 O 0.8047(2) 0.9755(2) 0.73347(18)
N4 N 0.7033(3) 1.0438(2) 1.0544(2)
N5 N 0.6815(3) 1.0762(2) 0.8721(2)
N6 N 0.5202(3) 1.2287(2) 0.9107(2)
C14 C 0.7744(3) 0.9916(3) 0.8287(2)
C15 C 0.9757(3) 0.7716(3) 0.9449(3)
C16 C 0.8311(3) 0.9247(3) 0.9066(2)
C17 C 0.9185(3) 0.8313(3) 0.8703(3)
H8 H 0.9379 0.8096 0.7965
C18 C 0.7971(3) 0.9557(3) 1.0172(2)
C19 C 0.6523(3) 1.0956(3) 0.9806(2)
C20 C 0.5507(3) 1.1903(3) 1.0028(3)
C21 C 0.9476(4) 0.8038(3) 1.0559(3)
H9 H 0.9892 0.7644 1.1061
C22 C 0.8585(4) 0.8936(3) 1.0912(3)
H10 H 0.8386 0.9135 1.1650
C23 C 0.4916(4) 1.2380(3) 1.0997(3)
H11 H 0.5120 1.2098 1.1621
C24 C 0.4317(4) 1.3168(3) 0.9113(3)
H12 H 0.4108 1.3426 0.8474
C25 C 0.4010(4) 1.3295(3) 1.1008(3)
H13 H 0.3597 1.3641 1.1649
C26 C 0.3718(4) 1.3691(3) 1.0067(4)
H14 H 0.3118 1.4311 1.0077
B2 B 0.6020(4) 1.1590(3) 0.8092(3)
loop_
_geom_bond_atom_site_label_1
_geom_bond_atom_site_label_2
_geom_bond_site_symmetry_1
_geom_bond_site_symmetry_2
I1 C2 1_555 1_555
F1 B1 1_555 1_555
F2 B1 1_555 1_555
O1 C4 1_555 1_555
N1 C3 1_555 1_555
N2 C4 1_555 1_555
N3 C6 1_555 1_555
C1 C3 1_555 1_555
C2 C5 1_555 1_555
C3 C10 1_555 1_555
C4 C1 1_555 1_555
C5 C1 1_555 1_555
H1 C5 1_555 1_555
C6 C7 1_555 1_555
C7 H2 1_555 1_555
C8 N1 1_555 1_555
C9 C2 1_555 1_555
H3 C9 1_555 1_555
C10 C9 1_555 1_555
H4 C10 1_555 1_555
C11 H5 1_555 1_555
C12 C7 1_555 1_555
H6 C12 1_555 1_555
C13 N3 1_555 1_555
H7 C13 1_555 1_555
B1 N2 1_555 1_555
I2 C15 1_555 1_555
F3 B2 1_555 1_555
F4 B2 1_555 1_555
O2 C14 1_555 1_555
N4 C18 1_555 1_555
N5 C14 1_555 1_555
N6 C20 1_555 1_555
C14 C16 1_555 1_555
C15 C17 1_555 1_555
C16 C17 1_555 1_555
C17 H8 1_555 1_555
C18 C16 1_555 1_555
C19 N4 1_555 1_555
C20 C19 1_555 1_555
C21 C15 1_555 1_555
H9 C21 1_555 1_555
C22 C18 1_555 1_555
H10 C22 1_555 1_555
C23 C20 1_555 1_555
H11 C23 1_555 1_555
C24 N6 1_555 1_555
H12 C24 1_555 1_555
C25 C23 1_555 1_555
H13 C25 1_555 1_555
C26 C24 1_555 1_555
H14 C26 1_555 1_555
B2 N5 1_555 1_555
N2 C8 1_555 1_555
N3 B1 1_555 1_555
C6 C8 1_555 1_555
C11 C12 1_555 1_555
C11 C13 1_555 1_555
N5 C19 1_555 1_555
N6 B2 1_555 1_555
C21 C22 1_555 1_555
C25 C26 1_555 1_555

#END
