
#######################################################################
#
#                 Cambridge Crystallographic Data Centre
#                                CCDC 
#
#######################################################################
#
# If this CIF has been generated from an entry in the Cambridge 
# Structural Database, then it will include bibliographic, chemical, 
# crystal, experimental, refinement or atomic coordinate data resulting 
# from the CCDC's data processing and validation procedures.
#
#######################################################################

data_KIXTIU
_chemical_formula_moiety         'C22 H26 N2 O2'
_chemical_name_systematic        
6-(t-Butyl)-2-(p-tolyl)-7-phenyl-5-oxa-2,6-diazaspiro(3.4)octan-1-one
_symmetry_cell_setting           triclinic
_symmetry_space_group_name_H-M   'P -1'
_symmetry_Int_Tables_number      2
_space_group_name_Hall           '-P 1'
loop_
_symmetry_equiv_pos_site_id
_symmetry_equiv_pos_as_xyz
1 x,y,z
2 -x,-y,-z
_cell_length_a                   6.272(2)
_cell_length_b                   10.687(3)
_cell_length_c                   15.327(4)
_cell_angle_alpha                103.39(2)
_cell_angle_beta                 87.79(3)
_cell_angle_gamma                95.62(2)
_cell_volume                     994.486
_exptl_crystal_colour            colorless
_exptl_crystal_description       prism
_chemical_melting_point          413-414K
_cell_formula_units_Z            2
_exptl_crystal_recrystallization_method ethanol
loop_
_atom_site_label
_atom_site_type_symbol
_atom_site_fract_x
_atom_site_fract_y
_atom_site_fract_z
C1 C -0.1994(8) 0.4347(5) 0.2131(4)
N1 N -0.0159(6) 0.4667(4) 0.1686(3)
C2 C 0.1080(8) 0.3741(5) 0.1980(4)
H1 H 0.2347 0.4136 0.2317
H2 H 0.1414 0.3012 0.1504
C3 C -0.0863(7) 0.3453(5) 0.2568(4)
O1 O -0.1724(6) 0.2143(3) 0.2375(2)
N2 N -0.2273(7) 0.1752(4) 0.3217(3)
C4 C -0.2437(8) 0.2973(5) 0.3904(4)
H3 H -0.3840 0.3290 0.3873
C5 C -0.0689(9) 0.3857(5) 0.3569(4)
H4 H -0.0944 0.4757 0.3787
H5 H 0.0714 0.3727 0.3760
O2 O -0.3749(6) 0.4733(4) 0.2176(3)
C6 C 0.0466(8) 0.5618(5) 0.1223(3)
C7 C 0.2539(8) 0.5742(5) 0.0904(3)
H6 H 0.3499 0.5163 0.0972
C8 C 0.3184(9) 0.6717(6) 0.0488(4)
H7 H 0.4599 0.6793 0.0287
C9 C 0.1829(10) 0.7597(5) 0.0351(4)
C10 C -0.0235(9) 0.7441(5) 0.0671(4)
H8 H -0.1196 0.8017 0.0597
C11 C -0.0939(9) 0.6480(5) 0.1094(4)
H9 H -0.2354 0.6405 0.1294
C12 C 0.2563(12) 0.8674(6) -0.0087(5)
H10 H 0.4043 0.8621 -0.0264
H11 H 0.2404 0.9485 0.0327
H12 H 0.1716 0.8611 -0.0607
C13 C -0.2068(9) 0.2848(5) 0.4837(4)
C14 C -0.0380(11) 0.2271(6) 0.5033(5)
H13 H 0.0546 0.1917 0.4573
C15 C -0.0003(14) 0.2197(8) 0.5889(6)
H14 H 0.1201 0.1825 0.6007
C16 C -0.1362(18) 0.2657(8) 0.6565(5)
H15 H -0.1110 0.2584 0.7144
C17 C -0.3094(15) 0.3227(7) 0.6399(5)
H16 H -0.4027 0.3545 0.6867
C18 C -0.3485(10) 0.3340(5) 0.5527(5)
H17 H -0.4666 0.3736 0.5411
C19 C -0.4174(9) 0.0828(5) 0.3031(4)
C20 C -0.4862(12) 0.0422(6) 0.3885(4)
H18 H -0.3691 0.0079 0.4108
H19 H -0.6051 -0.0228 0.3766
H20 H -0.5284 0.1156 0.4324
C21 C -0.3510(12) -0.0330(6) 0.2315(4)
H21 H -0.3077 -0.0055 0.1776
H22 H -0.4700 -0.0978 0.2191
H23 H -0.2336 -0.0683 0.2529
C22 C -0.6016(11) 0.1379(8) 0.2661(5)
H24 H -0.5553 0.1633 0.2118
H25 H -0.6442 0.2117 0.3095
H26 H -0.7209 0.0733 0.2538
loop_
_geom_bond_atom_site_label_1
_geom_bond_atom_site_label_2
_geom_bond_site_symmetry_1
_geom_bond_site_symmetry_2
C1 N1 1_555 1_555
N1 C2 1_555 1_555
C2 H1 1_555 1_555
H2 C2 1_555 1_555
C3 C1 1_555 1_555
O1 C3 1_555 1_555
N2 O1 1_555 1_555
C4 N2 1_555 1_555
H3 C4 1_555 1_555
C5 C3 1_555 1_555
H4 C5 1_555 1_555
H5 C5 1_555 1_555
O2 C1 1_555 1_555
C6 N1 1_555 1_555
C7 C6 1_555 1_555
H6 C7 1_555 1_555
C8 C7 1_555 1_555
H7 C8 1_555 1_555
C9 C8 1_555 1_555
C10 C9 1_555 1_555
H8 C10 1_555 1_555
C11 C6 1_555 1_555
H9 C11 1_555 1_555
C12 C9 1_555 1_555
H10 C12 1_555 1_555
H11 C12 1_555 1_555
H12 C12 1_555 1_555
C13 C4 1_555 1_555
C14 C13 1_555 1_555
H13 C14 1_555 1_555
C15 C14 1_555 1_555
H14 C15 1_555 1_555
C16 C15 1_555 1_555
H15 C16 1_555 1_555
C17 C16 1_555 1_555
H16 C17 1_555 1_555
C18 C13 1_555 1_555
H17 C18 1_555 1_555
C19 N2 1_555 1_555
C20 C19 1_555 1_555
H18 C20 1_555 1_555
H19 C20 1_555 1_555
H20 C20 1_555 1_555
C21 C19 1_555 1_555
H21 C21 1_555 1_555
H22 C21 1_555 1_555
H23 C21 1_555 1_555
C22 C19 1_555 1_555
H24 C22 1_555 1_555
H25 C22 1_555 1_555
H26 C22 1_555 1_555
C2 C3 1_555 1_555
C4 C5 1_555 1_555
C10 C11 1_555 1_555
C17 C18 1_555 1_555

#END
