
#######################################################################
#
#                 Cambridge Crystallographic Data Centre
#                                CCDC 
#
#######################################################################
#
# If this CIF has been generated from an entry in the Cambridge 
# Structural Database, then it will include bibliographic, chemical, 
# crystal, experimental, refinement or atomic coordinate data resulting 
# from the CCDC's data processing and validation procedures.
#
#######################################################################

data_KIXVES
_chemical_formula_moiety         'C4 H5 N3,C10 H16 O4'
_chemical_name_systematic        '2-Aminopyrimidine (+)-camphoric acid'
_symmetry_cell_setting           orthorhombic
_symmetry_space_group_name_H-M   'P 21 21 21'
_symmetry_Int_Tables_number      19
_space_group_name_Hall           'P 2ac 2ab'
loop_
_symmetry_equiv_pos_site_id
_symmetry_equiv_pos_as_xyz
1 x,y,z
2 1/2-x,-y,1/2+z
3 -x,1/2+y,1/2-z
4 1/2+x,1/2-y,-z
_cell_length_a                   7.1460(10)
_cell_length_b                   10.5610(10)
_cell_length_c                   21.3060(10)
_cell_angle_alpha                90
_cell_angle_beta                 90
_cell_angle_gamma                90
_cell_volume                     1607.94
_exptl_crystal_colour            colorless
_exptl_crystal_description       needle
_cell_formula_units_Z            4
_exptl_crystal_recrystallization_method ethanol
loop_
_atom_site_label
_atom_site_type_symbol
_atom_site_fract_x
_atom_site_fract_y
_atom_site_fract_z
O1 O 0.6922(5) 0.4267(4) 0.45603(17)
O2 O 0.4145(5) 0.4109(3) 0.41117(15)
H1 H 0.3886 0.4656 0.4370
O3 O 0.7873(5) 0.2860(5) 0.16444(15)
O4 O 1.0585(5) 0.2685(3) 0.20989(14)
H2 H 1.0945 0.2899 0.1749
C1 C 0.6683(6) 0.3296(4) 0.30229(18)
C2 C 0.7920(7) 0.2255(4) 0.27164(18)
H5 H 0.7084 0.1544 0.2623
C3 C 0.9274(8) 0.1787(5) 0.3227(2)
H6 H 0.9292 0.0869 0.3241
H7 H 1.0533 0.2088 0.3146
C4 C 0.8537(7) 0.2329(5) 0.3847(2)
H8 H 0.8535 0.1684 0.4171
H9 H 0.9311 0.3030 0.3986
C5 C 0.6545(6) 0.2779(4) 0.37133(18)
C6 C 0.5924(7) 0.3788(5) 0.4171(2)
C7 C 0.8780(7) 0.2635(5) 0.2105(2)
C8 C 0.7717(8) 0.4569(4) 0.3023(2)
H10 H 0.7800 0.4884 0.2602
H11 H 0.8954 0.4455 0.3190
H12 H 0.7044 0.5165 0.3278
C9 C 0.4834(8) 0.3455(6) 0.2690(2)
H13 H 0.5047 0.3773 0.2274
H14 H 0.4068 0.4042 0.2919
H15 H 0.4210 0.2652 0.2666
C10 C 0.5158(8) 0.1670(5) 0.3766(2)
H16 H 0.5112 0.1381 0.4193
H17 H 0.5559 0.0990 0.3499
H18 H 0.3935 0.1948 0.3639
N1 N 0.2814(5) 0.6715(4) 0.59834(14)
N2 N 0.2747(5) 0.5576(3) 0.50153(16)
N3 N 0.5399(5) 0.5687(3) 0.56133(15)
H3 H 0.5999 0.5937 0.5940
H4 H 0.5954 0.5231 0.5335
C11 C 0.3612(6) 0.6005(4) 0.55374(19)
C12 C 0.1025(7) 0.7027(4) 0.5887(2)
H19 H 0.0431 0.7538 0.6181
C13 C 0.0023(7) 0.6634(4) 0.5376(2)
H20 H -0.1226 0.6854 0.5319
C14 C 0.0966(7) 0.5902(4) 0.4955(2)
H21 H 0.0320 0.5612 0.4605
loop_
_geom_bond_atom_site_label_1
_geom_bond_atom_site_label_2
_geom_bond_site_symmetry_1
_geom_bond_site_symmetry_2
O1 C6 1_555 1_555
O2 H1 1_555 1_555
O3 C7 1_555 1_555
O4 H2 1_555 1_555
N1 C11 1_555 1_555
N2 C11 1_555 1_555
N3 H3 1_555 1_555
H4 N3 1_555 1_555
C1 C2 1_555 1_555
C2 H5 1_555 1_555
C3 C2 1_555 1_555
H6 C3 1_555 1_555
H7 C3 1_555 1_555
C4 C3 1_555 1_555
H8 C4 1_555 1_555
H9 C4 1_555 1_555
C5 C1 1_555 1_555
C6 O2 1_555 1_555
C7 O4 1_555 1_555
C8 C1 1_555 1_555
H10 C8 1_555 1_555
H11 C8 1_555 1_555
H12 C8 1_555 1_555
C9 C1 1_555 1_555
H13 C9 1_555 1_555
H14 C9 1_555 1_555
H15 C9 1_555 1_555
C10 C5 1_555 1_555
H16 C10 1_555 1_555
H17 C10 1_555 1_555
H18 C10 1_555 1_555
C11 N3 1_555 1_555
C12 N1 1_555 1_555
H19 C12 1_555 1_555
C13 C12 1_555 1_555
H20 C13 1_555 1_555
C14 N2 1_555 1_555
H21 C14 1_555 1_555
C2 C7 1_555 1_555
C4 C5 1_555 1_555
C5 C6 1_555 1_555
C13 C14 1_555 1_555

#END
