
#######################################################################
#
#                 Cambridge Crystallographic Data Centre
#                                CCDC 
#
#######################################################################
#
# If this CIF has been generated from an entry in the Cambridge 
# Structural Database, then it will include bibliographic, chemical, 
# crystal, experimental, refinement or atomic coordinate data resulting 
# from the CCDC's data processing and validation procedures.
#
#######################################################################

data_KIYCOK
_chemical_name_common            
6,12-Di-t-butyl-2,8,14,14,16,16-hexaethyl-2,4;8,10-diethano-1,3,7,9-tetra-aza-2,8-diboratricyclo(7.3.0.0$3,7!)dodeca-3,6,10,12(1)-tetraene
_chemical_formula_moiety         'C26 H46 B2 N4'
_chemical_name_systematic        
bis(3-t-Butyl-8-ethyl-6,6-dimethyl-1,2-diaza-8-borabicyclo(3.3.0)octa-2,4-diene)
_symmetry_cell_setting           triclinic
_symmetry_space_group_name_H-M   'P -1'
_symmetry_Int_Tables_number      2
_space_group_name_Hall           '-P 1'
loop_
_symmetry_equiv_pos_site_id
_symmetry_equiv_pos_as_xyz
1 x,y,z
2 -x,-y,-z
_cell_length_a                   10.114(1)
_cell_length_b                   10.545(1)
_cell_length_c                   13.781(1)
_cell_angle_alpha                102.349(8)
_cell_angle_beta                 93.323(9)
_cell_angle_gamma                112.472(8)
_cell_volume                     1310.76
_chemical_melting_point          172-174deg.C
_cell_formula_units_Z            2
loop_
_atom_site_label
_atom_site_type_symbol
_atom_site_fract_x
_atom_site_fract_y
_atom_site_fract_z
N1 N 0.34030(13) 0.26630(12) 0.19916(9)
N2 N 0.34899(14) 0.40176(13) 0.21154(9)
N3 N 0.58816(13) 0.44013(12) 0.29988(9)
N4 N 0.58213(13) 0.30478(13) 0.28138(9)
B1 B 0.51361(19) 0.51728(18) 0.24152(14)
B2 B 0.45696(19) 0.19934(18) 0.18906(13)
C1 C 0.20264(17) 0.17414(16) 0.18541(11)
C2 C 0.11615(17) 0.24882(16) 0.18405(12)
H1 H 0.01223(17) 0.20990(16) 0.17390(12)
C3 C 0.21037(17) 0.39150(16) 0.19942(12)
C4 C 0.68105(16) 0.52233(15) 0.38277(11)
C5 C 0.74502(16) 0.44243(16) 0.41858(12)
H2 H 0.81874(16) 0.47396(16) 0.47601(12)
C6 C 0.68065(16) 0.30591(16) 0.35325(11)
C7 C 0.57203(18) 0.54676(17) 0.13887(12)
H3 H 0.52853(18) 0.60608(17) 0.11976(12)
H4 H 0.53869(18) 0.45856(17) 0.08819(12)
C8 C 0.52699(18) 0.20138(17) 0.08686(12)
H5 H 0.56887(18) 0.13278(17) 0.08042(12)
H6 H 0.60159(18) 0.29360(17) 0.09236(12)
C9 C 0.18647(17) 0.02456(16) 0.18067(12)
C10 C 0.10269(18) -0.02756(17) 0.26314(14)
H7 H 0.15372(18) 0.03483(17) 0.32740(14)
H8 H 0.09534(18) -0.12168(17) 0.26090(14)
H9 H 0.00736(18) -0.02894(17) 0.25323(14)
C11 C 0.10398(20) -0.07692(17) 0.07909(14)
H10 H 0.15238(20) -0.04597(17) 0.02519(14)
H11 H 0.00762(20) -0.08056(17) 0.07032(14)
H12 H 0.09936(20) -0.16964(17) 0.07880(14)
C12 C 0.34813(18) 0.04236(16) 0.19951(13)
H13 H 0.37048(18) 0.03343(16) 0.26572(13)
H14 H 0.36252(18) -0.02906(16) 0.15053(13)
C13 C 0.16472(17) 0.51411(16) 0.20217(12)
C14 C 0.01773(19) 0.45571(19) 0.13350(15)
H15 H -0.05561(19) 0.38845(19) 0.15967(15)
H16 H 0.02508(19) 0.41066(19) 0.06692(15)
H17 H -0.00761(19) 0.53408(19) 0.13121(15)
C15 C 0.14669(20) 0.57634(18) 0.30875(13)
H18 H 0.23590(20) 0.61362(18) 0.35439(13)
H19 H 0.07502(20) 0.50117(18) 0.32981(13)
H20 H 0.11378(20) 0.65047(18) 0.30852(13)
C16 C 0.27166(19) 0.63120(18) 0.16196(14)
H21 H 0.36350(19) 0.67472(18) 0.20521(14)
H22 H 0.23180(19) 0.70049(18) 0.16193(14)
H23 H 0.28466(19) 0.59468(18) 0.09484(14)
C17 C 0.67869(17) 0.66757(16) 0.41415(12)
C18 C 0.55119(17) 0.65548(16) 0.33679(13)
H24 H 0.46746(17) 0.64315(16) 0.36944(13)
H25 H 0.58082(17) 0.74237(16) 0.31616(13)
C19 C 0.64899(19) 0.69641(18) 0.52219(12)
H26 H 0.55797(19) 0.62446(18) 0.52694(12)
H27 H 0.64492(19) 0.78778(18) 0.54082(12)
H28 H 0.72475(19) 0.69491(18) 0.56665(12)
C20 C 0.82393(18) 0.78353(17) 0.40812(14)
H29 H 0.84714(18) 0.76670(17) 0.34130(14)
H30 H 0.89971(18) 0.78629(17) 0.45490(14)
H31 H 0.81462(18) 0.87259(17) 0.42493(14)
C21 C 0.71276(17) 0.17821(16) 0.36204(12)
C22 C 0.61369(18) 0.09789(17) 0.42867(13)
H32 H 0.51449(18) 0.05988(17) 0.39738(13)
H33 H 0.62557(18) 0.16007(17) 0.49361(13)
H34 H 0.63972(18) 0.02159(17) 0.43617(13)
C23 C 0.69612(18) 0.07830(17) 0.25950(12)
H35 H 0.59704(18) 0.03414(17) 0.22726(12)
H36 H 0.72851(18) 0.00654(17) 0.26868(12)
H37 H 0.75519(18) 0.13238(17) 0.21831(12)
C24 C 0.87019(18) 0.23201(18) 0.41329(14)
H38 H 0.88293(18) 0.29116(18) 0.47959(14)
H39 H 0.93617(18) 0.28494(18) 0.37477(14)
H40 H 0.88916(18) 0.15079(18) 0.41786(14)
C25 C 0.42182(21) 0.16152(18) -0.00979(13)
H41 H 0.47164(21) 0.17574(18) -0.06634(13)
H42 H 0.37023(21) 0.22183(18) 0.00139(13)
H43 H 0.35464(21) 0.06412(18) -0.02311(13)
C26 C 0.73397(20) 0.62108(22) 0.14184(15)
H44 H 0.75485(20) 0.61596(22) 0.07439(15)
H45 H 0.78150(20) 0.57431(22) 0.17406(15)
H46 H 0.76825(20) 0.71875(22) 0.17868(15)
loop_
_geom_bond_atom_site_label_1
_geom_bond_atom_site_label_2
_geom_bond_site_symmetry_1
_geom_bond_site_symmetry_2
N1 N2 1_555 1_555
N2 B1 1_555 1_555
N3 N4 1_555 1_555
N4 B2 1_555 1_555
B1 N3 1_555 1_555
B2 N1 1_555 1_555
C1 N1 1_555 1_555
C2 C1 1_555 1_555
H1 C2 1_555 1_555
C3 N2 1_555 1_555
C4 N3 1_555 1_555
C5 C4 1_555 1_555
H2 C5 1_555 1_555
C6 N4 1_555 1_555
C7 B1 1_555 1_555
H3 C7 1_555 1_555
H4 C7 1_555 1_555
C8 B2 1_555 1_555
H5 C8 1_555 1_555
H6 C8 1_555 1_555
C9 C1 1_555 1_555
C10 C9 1_555 1_555
H7 C10 1_555 1_555
H8 C10 1_555 1_555
H9 C10 1_555 1_555
C11 C9 1_555 1_555
H10 C11 1_555 1_555
H11 C11 1_555 1_555
H12 C11 1_555 1_555
C12 B2 1_555 1_555
H13 C12 1_555 1_555
H14 C12 1_555 1_555
C13 C3 1_555 1_555
C14 C13 1_555 1_555
H15 C14 1_555 1_555
H16 C14 1_555 1_555
H17 C14 1_555 1_555
C15 C13 1_555 1_555
H18 C15 1_555 1_555
H19 C15 1_555 1_555
H20 C15 1_555 1_555
C16 C13 1_555 1_555
H21 C16 1_555 1_555
H22 C16 1_555 1_555
H23 C16 1_555 1_555
C17 C4 1_555 1_555
C18 B1 1_555 1_555
H24 C18 1_555 1_555
H25 C18 1_555 1_555
C19 C17 1_555 1_555
H26 C19 1_555 1_555
H27 C19 1_555 1_555
H28 C19 1_555 1_555
C20 C17 1_555 1_555
H29 C20 1_555 1_555
H30 C20 1_555 1_555
H31 C20 1_555 1_555
C21 C6 1_555 1_555
C22 C21 1_555 1_555
H32 C22 1_555 1_555
H33 C22 1_555 1_555
H34 C22 1_555 1_555
C23 C21 1_555 1_555
H35 C23 1_555 1_555
H36 C23 1_555 1_555
H37 C23 1_555 1_555
C24 C21 1_555 1_555
H38 C24 1_555 1_555
H39 C24 1_555 1_555
H40 C24 1_555 1_555
C25 C8 1_555 1_555
H41 C25 1_555 1_555
H42 C25 1_555 1_555
H43 C25 1_555 1_555
C26 C7 1_555 1_555
H44 C26 1_555 1_555
H45 C26 1_555 1_555
H46 C26 1_555 1_555
C2 C3 1_555 1_555
C5 C6 1_555 1_555
C9 C12 1_555 1_555
C17 C18 1_555 1_555

#END
