
#######################################################################
#
#                 Cambridge Crystallographic Data Centre
#                                CCDC 
#
#######################################################################
#
# If this CIF has been generated from an entry in the Cambridge 
# Structural Database, then it will include bibliographic, chemical, 
# crystal, experimental, refinement or atomic coordinate data resulting 
# from the CCDC's data processing and validation procedures.
#
#######################################################################

data_KIYDUU
_chemical_formula_moiety         'C14 H12 N4 S1'
_chemical_name_systematic        
1-{[1-(thiophen-2-yl)ethylidene]hydrazinylidene}-1,2-dihydrophthalazine
_symmetry_cell_setting           monoclinic
_symmetry_space_group_name_H-M   'P 21/n'
_symmetry_Int_Tables_number      14
_space_group_name_Hall           '-P 2yn'
loop_
_symmetry_equiv_pos_site_id
_symmetry_equiv_pos_as_xyz
1 x,y,z
2 1/2-x,1/2+y,1/2-z
3 -x,-y,-z
4 1/2+x,1/2-y,1/2+z
_cell_length_a                   8.9210(2)
_cell_length_b                   11.6792(2)
_cell_length_c                   24.7020(4)
_cell_angle_alpha                90
_cell_angle_beta                 90.051(2)
_cell_angle_gamma                90
_cell_volume                     2573.7
_exptl_crystal_colour            'intense yellow'
_exptl_crystal_description       prism
_cell_formula_units_Z            8
loop_
_atom_site_label
_atom_site_type_symbol
_atom_site_fract_x
_atom_site_fract_y
_atom_site_fract_z
S1 S 0.94607(5) 0.48983(4) 0.18553(2)
N1 N 0.38700(18) 0.24390(13) 0.23474(6)
N2 N 0.49212(17) 0.28369(13) 0.19925(6)
N3 N 0.66086(16) 0.42226(12) 0.16566(6)
N4 N 0.68717(16) 0.34078(12) 0.12535(6)
C1 C 0.3446(2) 0.31335(17) 0.27251(8)
C2 C 0.39880(19) 0.42891(15) 0.27863(7)
C3 C 0.3449(2) 0.50298(17) 0.31884(7)
C4 C 0.3953(2) 0.61410(17) 0.32093(7)
C5 C 0.5009(2) 0.65325(16) 0.28398(8)
C6 C 0.5571(2) 0.58127(15) 0.24471(7)
C7 C 0.50579(18) 0.46846(14) 0.24163(6)
C8 C 0.55718(18) 0.38990(14) 0.19964(6)
C9 C 0.82401(19) 0.33588(14) 0.10820(6)
C10 C 0.95080(18) 0.39951(14) 0.12963(6)
C11 C 1.0950(2) 0.39353(15) 0.10989(7)
C12 C 1.1994(2) 0.45958(16) 0.13921(8)
C13 C 1.1348(2) 0.51514(16) 0.18139(8)
C14 C 0.8531(2) 0.25334(18) 0.06250(8)
H1 H 0.512(2) 0.2355(18) 0.1720(8)
H2 H 0.269(2) 0.2820(17) 0.2976(8)
H3 H 0.274(2) 0.4743(17) 0.3430(8)
H4 H 0.358(2) 0.6664(18) 0.3478(8)
H5 H 0.535(2) 0.7318(18) 0.2848(8)
H6 H 0.631(2) 0.6036(17) 0.2200(8)
H7 H 1.119(2) 0.3497(18) 0.0797(9)
H8 H 1.304(2) 0.4642(17) 0.1304(8)
H9 H 1.178(2) 0.5639(18) 0.2072(8)
H10 H 0.893(2) 0.2920(18) 0.0310(9)
H11 H 0.932(2) 0.1956(18) 0.0732(8)
H12 H 0.764(2) 0.2144(18) 0.0526(8)
S2 S 0.36400(5) -0.14245(4) 0.06118(2)
N5 N 0.41957(17) 0.39056(12) 0.03070(6)
N6 N 0.43791(16) 0.28603(12) 0.05466(6)
N7 N 0.38510(15) 0.08995(12) 0.06759(6)
N8 N 0.49714(16) 0.09992(12) 0.10701(6)
C15 C 0.3204(2) 0.39742(16) -0.00702(7)
C16 C 0.22946(19) 0.30252(15) -0.02516(7)
C17 C 0.1233(2) 0.31324(17) -0.06684(7)
C18 C 0.0420(2) 0.21961(18) -0.08347(7)
C19 C 0.0654(2) 0.11288(16) -0.05935(7)
C20 C 0.16841(19) 0.10032(15) -0.01843(7)
C21 C 0.25136(18) 0.19541(14) -0.00046(6)
C22 C 0.36158(18) 0.18738(14) 0.04280(6)
C23 C 0.54790(18) 0.00318(14) 0.12500(6)
C24 C 0.49778(18) -0.11113(14) 0.10992(6)
C25 C 0.5481(2) -0.21069(16) 0.13366(7)
C26 C 0.4792(2) -0.31014(17) 0.11303(8)
C27 C 0.3777(2) -0.28606(16) 0.07399(8)
C28 C 0.6704(2) 0.01133(18) 0.16641(8)
H13 H 0.512(2) 0.2829(17) 0.0797(8)
H14 H 0.310(2) 0.4713(18) -0.0238(8)
H15 H 0.110(2) 0.3875(18) -0.0833(8)
H16 H -0.029(2) 0.2277(17) -0.1119(8)
H17 H 0.008(2) 0.0479(18) -0.0722(8)
H18 H 0.184(2) 0.0280(18) -0.0021(8)
H19 H 0.623(2) -0.2118(17) 0.1613(8)
H20 H 0.499(2) -0.3842(18) 0.1251(8)
H21 H 0.318(2) -0.3381(18) 0.0541(8)
H22 H 0.639(2) -0.0227(17) 0.2010(9)
H23 H 0.696(2) 0.0877(18) 0.1720(8)
H24 H 0.759(2) -0.0329(17) 0.1540(8)
loop_
_geom_bond_atom_site_label_1
_geom_bond_atom_site_label_2
_geom_bond_site_symmetry_1
_geom_bond_site_symmetry_2
S1 C10 1_555 1_555
N1 N2 1_555 1_555
N2 C8 1_555 1_555
N3 N4 1_555 1_555
N4 C9 1_555 1_555
C1 N1 1_555 1_555
C2 C1 1_555 1_555
C3 C2 1_555 1_555
C4 C3 1_555 1_555
C5 C4 1_555 1_555
C6 C5 1_555 1_555
C7 C2 1_555 1_555
C8 N3 1_555 1_555
C9 C10 1_555 1_555
C10 C11 1_555 1_555
C11 C12 1_555 1_555
C12 C13 1_555 1_555
C13 S1 1_555 1_555
C14 C9 1_555 1_555
H1 N2 1_555 1_555
H2 C1 1_555 1_555
H3 C3 1_555 1_555
H4 C4 1_555 1_555
H5 C5 1_555 1_555
H6 C6 1_555 1_555
H7 C11 1_555 1_555
H8 C12 1_555 1_555
H9 C13 1_555 1_555
H10 C14 1_555 1_555
H11 C14 1_555 1_555
H12 C14 1_555 1_555
S2 C24 1_555 1_555
N5 N6 1_555 1_555
N6 C22 1_555 1_555
N7 N8 1_555 1_555
N8 C23 1_555 1_555
C15 N5 1_555 1_555
C16 C15 1_555 1_555
C17 C16 1_555 1_555
C18 C17 1_555 1_555
C19 C18 1_555 1_555
C20 C19 1_555 1_555
C21 C16 1_555 1_555
C22 N7 1_555 1_555
C23 C24 1_555 1_555
C24 C25 1_555 1_555
C25 C26 1_555 1_555
C26 C27 1_555 1_555
C27 S2 1_555 1_555
C28 C23 1_555 1_555
H13 N6 1_555 1_555
H14 C15 1_555 1_555
H15 C17 1_555 1_555
H16 C18 1_555 1_555
H17 C19 1_555 1_555
H18 C20 1_555 1_555
H19 C25 1_555 1_555
H20 C26 1_555 1_555
H21 C27 1_555 1_555
H22 C28 1_555 1_555
H23 C28 1_555 1_555
H24 C28 1_555 1_555
C6 C7 1_555 1_555
C7 C8 1_555 1_555
C20 C21 1_555 1_555
C21 C22 1_555 1_555

#END
