
#######################################################################
#
#                 Cambridge Crystallographic Data Centre
#                                CCDC 
#
#######################################################################
#
# If this CIF has been generated from an entry in the Cambridge 
# Structural Database, then it will include bibliographic, chemical, 
# crystal, experimental, refinement or atomic coordinate data resulting 
# from the CCDC's data processing and validation procedures.
#
#######################################################################

data_KIYGUW
_chemical_name_common            
'(7S,9S,10S,10aS)-decahydro-7,10-methanopyrido[1,2-a]azepin-9-yl (2-methoxyphenyl)carbamate'
_chemical_formula_moiety         'C19 H26 N2 O3'
_chemical_name_systematic        
'(1S,2S,9S,11S)-7-Azatricyclo[7.2.1.0^2,7^]dodec-11-yl (2-methoxyphenyl)carbamate'
_symmetry_cell_setting           orthorhombic
_symmetry_space_group_name_H-M   'P 21 21 21'
_symmetry_Int_Tables_number      19
_space_group_name_Hall           'P 2ac 2ab'
loop_
_symmetry_equiv_pos_site_id
_symmetry_equiv_pos_as_xyz
1 x,y,z
2 1/2-x,-y,1/2+z
3 -x,1/2+y,1/2-z
4 1/2+x,1/2-y,-z
_cell_length_a                   7.238(4)
_cell_length_b                   11.592(6)
_cell_length_c                   20.280(11)
_cell_angle_alpha                90
_cell_angle_beta                 90
_cell_angle_gamma                90
_cell_volume                     1701.55
_exptl_crystal_colour            colorless
_exptl_crystal_description       Irregular
_cell_formula_units_Z            4
loop_
_atom_site_label
_atom_site_type_symbol
_atom_site_fract_x
_atom_site_fract_y
_atom_site_fract_z
O1 O 0.19294(14) -0.10210(8) 0.35596(5)
O2 O 0.13945(17) 0.04314(9) 0.28309(5)
O3 O 0.08514(15) 0.14941(9) 0.51381(5)
N1 N 0.51157(17) -0.28953(11) 0.38653(6)
N2 N 0.13424(18) 0.07067(11) 0.39519(6)
H1 H 0.139(2) 0.0372(14) 0.4317(9)
C1 C 0.4684(2) -0.39828(12) 0.35340(7)
H2 H 0.4132 -0.4527 0.3855
H3 H 0.5837 -0.4332 0.3363
C2 C 0.3340(2) -0.37866(12) 0.29653(7)
H4 H 0.2900 -0.4532 0.2773
C3 C 0.1719(2) -0.30311(12) 0.31967(7)
H5 H 0.1521 -0.3111 0.3678
H6 H 0.0565 -0.3241 0.2964
C4 C 0.2328(2) -0.17963(12) 0.30192(7)
H7 H 0.1611 -0.1538 0.2624
C5 C 0.4386(2) -0.18869(13) 0.28254(7)
H8 H 0.4752 -0.1239 0.2527
C6 C 0.5766(2) -0.20148(12) 0.33999(7)
H9 H 0.6958 -0.2297 0.3209
C7 C 0.6177(2) -0.08859(13) 0.37621(8)
H10 H 0.5010 -0.0561 0.3937
H11 H 0.6706 -0.0322 0.3448
C8 C 0.7534(2) -0.10737(14) 0.43318(8)
H12 H 0.8751 -0.1312 0.4156
H13 H 0.7701 -0.0344 0.4578
C9 C 0.6789(2) -0.20041(15) 0.47927(7)
H14 H 0.7697 -0.2160 0.5147
H15 H 0.5626 -0.1738 0.5000
C10 C 0.6436(2) -0.30968(14) 0.44012(7)
H16 H 0.7616 -0.3379 0.4214
H17 H 0.5946 -0.3700 0.4699
C11 C 0.4296(2) -0.30322(13) 0.24458(7)
H18 H 0.3549 -0.2964 0.2039
H19 H 0.5542 -0.3325 0.2335
C12 C 0.15336(19) 0.00769(12) 0.33908(7)
C13 C 0.09478(19) 0.18947(12) 0.40051(7)
C14 C 0.07221(19) 0.23102(12) 0.46532(7)
C15 C 0.0416(2) 0.34721(14) 0.47618(8)
H20 H 0.0280 0.3757 0.5198
C16 C 0.0308(2) 0.42230(13) 0.42260(8)
H21 H 0.0113 0.5023 0.4300
C17 C 0.0483(2) 0.38152(13) 0.35894(8)
H22 H 0.0374 0.4330 0.3227
C18 C 0.0818(2) 0.26461(12) 0.34792(8)
H23 H 0.0956 0.2367 0.3042
C19 C 0.0843(2) 0.18965(13) 0.58091(7)
H24 H 0.1087 0.1248 0.6107
H25 H -0.0367 0.2231 0.5912
H26 H 0.1803 0.2485 0.5866
loop_
_geom_bond_atom_site_label_1
_geom_bond_atom_site_label_2
_geom_bond_site_symmetry_1
_geom_bond_site_symmetry_2
O1 C4 1_555 1_555
O2 C12 1_555 1_555
O3 C14 1_555 1_555
N1 C1 1_555 1_555
N2 H1 1_555 1_555
C1 H2 1_555 1_555
H3 C1 1_555 1_555
C2 C1 1_555 1_555
H4 C2 1_555 1_555
C3 C2 1_555 1_555
H5 C3 1_555 1_555
H6 C3 1_555 1_555
C4 C3 1_555 1_555
H7 C4 1_555 1_555
C5 C4 1_555 1_555
H8 C5 1_555 1_555
C6 N1 1_555 1_555
H9 C6 1_555 1_555
C7 C6 1_555 1_555
H10 C7 1_555 1_555
H11 C7 1_555 1_555
C8 C7 1_555 1_555
H12 C8 1_555 1_555
H13 C8 1_555 1_555
C9 C8 1_555 1_555
H14 C9 1_555 1_555
H15 C9 1_555 1_555
C10 N1 1_555 1_555
H16 C10 1_555 1_555
H17 C10 1_555 1_555
C11 C2 1_555 1_555
H18 C11 1_555 1_555
H19 C11 1_555 1_555
C12 O1 1_555 1_555
C13 N2 1_555 1_555
C14 C13 1_555 1_555
C15 C14 1_555 1_555
H20 C15 1_555 1_555
C16 C15 1_555 1_555
H21 C16 1_555 1_555
C17 C16 1_555 1_555
H22 C17 1_555 1_555
C18 C13 1_555 1_555
H23 C18 1_555 1_555
C19 O3 1_555 1_555
H24 C19 1_555 1_555
H25 C19 1_555 1_555
H26 C19 1_555 1_555
N2 C12 1_555 1_555
C5 C6 1_555 1_555
C5 C11 1_555 1_555
C9 C10 1_555 1_555
C17 C18 1_555 1_555

#END
