
#######################################################################
#
#                 Cambridge Crystallographic Data Centre
#                                CCDC 
#
#######################################################################
#
# If this CIF has been generated from an entry in the Cambridge 
# Structural Database, then it will include bibliographic, chemical, 
# crystal, experimental, refinement or atomic coordinate data resulting 
# from the CCDC's data processing and validation procedures.
#
#######################################################################

data_KIYGEG
_chemical_formula_moiety         'C22 H31 Cl1 N2 O3 S1'
_chemical_name_systematic        
4-Chloro-N-((8aR,9S,10R,12aS)-5-oxo-9-propyldecahydro-1H,5H-pyrrolo[2,1-k][1]benzazepin-10-yl)benzenesulfonamide
_symmetry_cell_setting           monoclinic
_symmetry_space_group_name_H-M   'P 21/n'
_symmetry_Int_Tables_number      14
_space_group_name_Hall           '-P 2yn'
loop_
_symmetry_equiv_pos_site_id
_symmetry_equiv_pos_as_xyz
1 x,y,z
2 1/2-x,1/2+y,1/2-z
3 -x,-y,-z
4 1/2+x,1/2-y,1/2+z
_cell_length_a                   13.4420(3)
_cell_length_b                   8.1038(2)
_cell_length_c                   20.1572(5)
_cell_angle_alpha                90
_cell_angle_beta                 104.2610(10)
_cell_angle_gamma                90
_cell_volume                     2128.08
_exptl_crystal_colour            colorless
_exptl_crystal_description       Thin
_chemical_melting_point          '480-481 K'
_cell_formula_units_Z            4
loop_
_atom_site_label
_atom_site_type_symbol
_atom_site_fract_x
_atom_site_fract_y
_atom_site_fract_z
Cl1 Cl 0.64826(3) 0.03443(5) -0.065332(17)
S1 S 0.58418(2) 0.37753(4) 0.199230(17)
O1 O 0.19440(7) -0.27075(12) 0.32947(5)
O2 O 0.68410(7) 0.40957(13) 0.24297(5)
O3 O 0.51294(8) 0.51095(12) 0.17854(5)
N1 N 0.36280(8) -0.22346(14) 0.34204(6)
N2 N 0.52764(9) 0.24231(14) 0.23647(6)
H1 H 0.4651(15) 0.232(2) 0.2148(10)
C1 C 0.26413(10) -0.17337(17) 0.32515(7)
C2 C 0.24071(11) 0.00569(18) 0.30806(8)
H2 H 0.2519(13) 0.032(2) 0.2639(9)
H3 H 0.1691(14) 0.018(2) 0.3057(9)
C3 C 0.30554(11) 0.12049(18) 0.36228(8)
H4 H 0.2698(13) 0.226(2) 0.3591(9)
H5 H 0.3107(13) 0.075(2) 0.4064(10)
C4 C 0.41215(11) 0.15695(17) 0.35204(7)
H6 H 0.4395(13) 0.240(2) 0.3833(9)
H7 H 0.4028(12) 0.204(2) 0.3062(9)
C5 C 0.49172(10) 0.01629(16) 0.36346(7)
H8 H 0.5094(12) -0.011(2) 0.4121(9)
C6 C 0.59233(10) 0.07592(17) 0.34521(7)
H9 H 0.6453(12) -0.013(2) 0.3589(8)
C7 C 0.58418(10) 0.09156(17) 0.26762(7)
H10 H 0.6547(13) 0.1045(19) 0.2637(8)
C8 C 0.54016(10) -0.06661(17) 0.23010(7)
H11 H 0.5915(13) -0.153(2) 0.2436(8)
H12 H 0.5282(13) -0.050(2) 0.1806(9)
C9 C 0.44055(10) -0.12360(17) 0.24753(7)
H13 H 0.3881(13) -0.042(2) 0.2312(8)
H14 H 0.4172(12) -0.227(2) 0.2254(9)
C10 C 0.45642(10) -0.14774(16) 0.32504(7)
C11 C 0.53636(11) -0.28673(17) 0.35219(8)
H15 H 0.5348(13) -0.368(2) 0.3154(10)
H16 H 0.6060(14) -0.244(2) 0.3685(9)
C12 C 0.49921(11) -0.37045(17) 0.40928(8)
H17 H 0.5313(12) -0.474(2) 0.4225(8)
H18 H 0.5110(12) -0.303(2) 0.4516(9)
C13 C 0.38528(11) -0.38394(17) 0.37685(8)
H19 H 0.3693(12) -0.474(2) 0.3439(9)
H20 H 0.3434(13) -0.397(2) 0.4090(9)
C14 C 0.63955(11) 0.23065(18) 0.38383(7)
H21 H 0.6995(14) 0.258(2) 0.3689(9)
H22 H 0.5938(13) 0.323(2) 0.3705(9)
C15 C 0.67060(12) 0.21068(19) 0.46175(8)
H23 H 0.6890(14) 0.316(3) 0.4816(10)
H24 H 0.6099(14) 0.175(2) 0.4802(9)
C16 C 0.75997(13) 0.0930(3) 0.48578(9)
H25 H 0.7873(16) 0.095(3) 0.5367(12)
H26 H 0.7385(18) -0.020(3) 0.4722(12)
H27 H 0.8160(17) 0.121(3) 0.4646(12)
C17 C 0.60378(10) 0.28547(17) 0.12369(7)
C18 C 0.53486(11) 0.31593(19) 0.06122(8)
H28 H 0.4802(14) 0.386(2) 0.0597(9)
C19 C 0.54817(12) 0.2398(2) 0.00230(8)
H29 H 0.5017(15) 0.260(2) -0.0409(10)
C20 C 0.63024(11) 0.13308(17) 0.00750(7)
C21 C 0.69920(11) 0.10191(18) 0.06976(8)
H30 H 0.7535(14) 0.032(2) 0.0715(9)
C22 C 0.68626(11) 0.17889(18) 0.12835(8)
H31 H 0.7324(14) 0.159(2) 0.1707(10)
loop_
_geom_bond_atom_site_label_1
_geom_bond_atom_site_label_2
_geom_bond_site_symmetry_1
_geom_bond_site_symmetry_2
Cl1 C20 1_555 1_555
S1 O2 1_555 1_555
O1 C1 1_555 1_555
O3 S1 1_555 1_555
N1 C1 1_555 1_555
N2 S1 1_555 1_555
H1 N2 1_555 1_555
C1 C2 1_555 1_555
C2 H2 1_555 1_555
H3 C2 1_555 1_555
C3 C2 1_555 1_555
H4 C3 1_555 1_555
H5 C3 1_555 1_555
C4 C3 1_555 1_555
H6 C4 1_555 1_555
H7 C4 1_555 1_555
C5 C4 1_555 1_555
H8 C5 1_555 1_555
C6 C5 1_555 1_555
H9 C6 1_555 1_555
C7 N2 1_555 1_555
H10 C7 1_555 1_555
C8 C7 1_555 1_555
H11 C8 1_555 1_555
H12 C8 1_555 1_555
C9 C8 1_555 1_555
H13 C9 1_555 1_555
H14 C9 1_555 1_555
C10 N1 1_555 1_555
C11 C10 1_555 1_555
H15 C11 1_555 1_555
H16 C11 1_555 1_555
C12 C11 1_555 1_555
H17 C12 1_555 1_555
H18 C12 1_555 1_555
C13 N1 1_555 1_555
H19 C13 1_555 1_555
H20 C13 1_555 1_555
C14 C6 1_555 1_555
H21 C14 1_555 1_555
H22 C14 1_555 1_555
C15 C14 1_555 1_555
H23 C15 1_555 1_555
H24 C15 1_555 1_555
C16 C15 1_555 1_555
H25 C16 1_555 1_555
H26 C16 1_555 1_555
H27 C16 1_555 1_555
C17 S1 1_555 1_555
C18 C17 1_555 1_555
H28 C18 1_555 1_555
C19 C18 1_555 1_555
H29 C19 1_555 1_555
C20 C19 1_555 1_555
C21 C20 1_555 1_555
H30 C21 1_555 1_555
C22 C17 1_555 1_555
H31 C22 1_555 1_555
C5 C10 1_555 1_555
C6 C7 1_555 1_555
C9 C10 1_555 1_555
C12 C13 1_555 1_555
C21 C22 1_555 1_555

#END
