
#######################################################################
#
#                 Cambridge Crystallographic Data Centre
#                                CCDC 
#
#######################################################################
#
# If this CIF has been generated from an entry in the Cambridge 
# Structural Database, then it will include bibliographic, chemical, 
# crystal, experimental, refinement or atomic coordinate data resulting 
# from the CCDC's data processing and validation procedures.
#
#######################################################################

data_KIYGAC
_chemical_name_common            
(8aS,9R,12aR)-9-Benzyloctahydrobenzo[b]pyrrolo[1,2-a]azepine-5,10(1H,6H)-dione
_chemical_formula_moiety         'C20 H25 N1 O2'
_chemical_name_systematic        
(8aS,9R,12aR)-9-Benzyloctahydro-1H,5H-pyrrolo[2,1-k][1]benzazepine-5,10(6H)-dione
_symmetry_cell_setting           triclinic
_symmetry_space_group_name_H-M   'P -1'
_symmetry_Int_Tables_number      2
_space_group_name_Hall           '-P 1'
loop_
_symmetry_equiv_pos_site_id
_symmetry_equiv_pos_as_xyz
1 x,y,z
2 -x,-y,-z
_cell_length_a                   8.1628(3)
_cell_length_b                   11.2261(4)
_cell_length_c                   18.4027(6)
_cell_angle_alpha                90.6260(10)
_cell_angle_beta                 100.0740(10)
_cell_angle_gamma                93.5530(10)
_cell_volume                     1656.76
_exptl_crystal_colour            colorless
_exptl_crystal_description       needle
_chemical_melting_point          '390-392 K'
_cell_formula_units_Z            4
_exptl_crystal_recrystallization_method 'ethyl acetate/hexanes'
loop_
_atom_site_label
_atom_site_type_symbol
_atom_site_fract_x
_atom_site_fract_y
_atom_site_fract_z
O1 O 0.59724(11) 0.50979(8) 0.38699(5)
O2 O 0.26241(12) -0.08695(8) 0.46119(5)
N1 N 0.38615(12) 0.38390(9) 0.40649(5)
C1 C 0.54594(15) 0.40657(11) 0.39731(6)
C2 C 0.66180(15) 0.30692(12) 0.39855(8)
H1 H 0.766(2) 0.3461(14) 0.3916(8)
H2 H 0.6831(19) 0.2720(14) 0.4478(9)
C3 C 0.60257(17) 0.21013(12) 0.33938(8)
H3 H 0.700(2) 0.1659(15) 0.3333(9)
H4 H 0.5585(19) 0.2475(14) 0.2905(9)
C4 C 0.46948(16) 0.12186(11) 0.35893(7)
H5 H 0.5121(18) 0.0886(13) 0.4081(8)
H6 H 0.4508(18) 0.0562(14) 0.3218(8)
C5 C 0.29836(14) 0.17017(10) 0.36044(6)
H7 H 0.2554(17) 0.2036(13) 0.3112(8)
C6 C 0.17597(15) 0.06399(10) 0.37305(6)
H8 H 0.0653(18) 0.0954(12) 0.3727(7)
C7 C 0.23259(14) 0.01673(11) 0.45023(6)
C8 C 0.25190(16) 0.10870(11) 0.51236(6)
H9 H 0.3060(19) 0.0721(14) 0.5577(8)
H10 H 0.1359(19) 0.1274(13) 0.5188(8)
C9 C 0.35094(15) 0.22401(11) 0.49733(6)
H11 H 0.3430(17) 0.2873(13) 0.5334(8)
H12 H 0.4721(19) 0.2082(13) 0.5038(8)
C10 C 0.29251(14) 0.26948(10) 0.41892(6)
C11 C 0.11333(14) 0.31174(11) 0.41101(7)
H13 H 0.0614(17) 0.3071(12) 0.3588(8)
H14 H 0.0450(19) 0.2622(13) 0.4383(8)
C12 C 0.13541(15) 0.44049(11) 0.43944(7)
H15 H 0.1590(18) 0.4431(13) 0.4939(8)
H16 H 0.036(2) 0.4857(14) 0.4222(8)
C13 C 0.28704(15) 0.48889(11) 0.40928(7)
H17 H 0.2558(17) 0.5186(13) 0.3583(8)
H18 H 0.3542(18) 0.5506(13) 0.4418(8)
C14 C 0.15239(16) -0.03498(11) 0.31274(7)
H19 H 0.1492(18) 0.0044(13) 0.2641(8)
H20 H 0.2481(19) -0.0875(14) 0.3211(8)
C15 C -0.00697(16) -0.11147(11) 0.31110(6)
C16 C -0.00548(16) -0.22667(11) 0.33915(6)
H21 H 0.101(2) -0.2593(14) 0.3583(8)
C17 C -0.15370(16) -0.29389(11) 0.34058(6)
H22 H -0.1537(19) -0.3741(14) 0.3605(8)
C18 C -0.30556(16) -0.24732(11) 0.31446(6)
H23 H -0.409(2) -0.2944(14) 0.3161(8)
C19 C -0.30878(16) -0.13364(11) 0.28507(6)
H24 H -0.416(2) -0.1031(14) 0.2649(8)
C20 C -0.16063(16) -0.06677(11) 0.28316(6)
H25 H -0.1654(18) 0.0135(14) 0.2613(8)
O3 O 0.72040(11) 1.00398(8) 0.09711(5)
O4 O 0.23803(11) 0.43069(8) 0.03387(5)
N2 N 0.48208(12) 0.89161(8) 0.09327(5)
C21 C 0.64455(14) 0.90498(11) 0.08612(6)
C22 C 0.73263(15) 0.79896(11) 0.06509(7)
H26 H 0.6795(18) 0.7674(13) 0.0163(8)
H27 H 0.844(2) 0.8307(14) 0.0608(8)
C23 C 0.74400(14) 0.69855(11) 0.12092(6)
H28 H 0.7812(16) 0.7346(12) 0.1713(7)
H29 H 0.8308(18) 0.6462(13) 0.1114(8)
C24 C 0.58322(14) 0.61972(10) 0.11570(6)
H30 H 0.5540(17) 0.5843(12) 0.0654(8)
H31 H 0.6058(18) 0.5523(13) 0.1498(8)
C25 C 0.42984(14) 0.67812(10) 0.13452(6)
H32 H 0.4583(15) 0.7095(11) 0.1860(7)
C26 C 0.28369(14) 0.58093(10) 0.13035(6)
H33 H 0.1858(17) 0.6222(12) 0.1405(7)
C27 C 0.23746(14) 0.53531(11) 0.05078(6)
C28 C 0.19165(16) 0.62998(12) -0.00588(7)
H34 H 0.079(2) 0.6533(14) -0.0013(8)
H35 H 0.1820(18) 0.5951(13) -0.0544(9)
C29 C 0.31554(15) 0.74039(11) 0.00398(6)
H36 H 0.4172(17) 0.7205(12) -0.0147(7)
H37 H 0.2688(18) 0.8069(13) -0.0259(8)
C30 C 0.36469(14) 0.78259(10) 0.08525(6)
C31 C 0.21371(16) 0.83337(11) 0.11291(7)
H38 H 0.2309(19) 0.8281(14) 0.1673(9)
H39 H 0.1098(19) 0.7888(13) 0.0918(8)
C32 C 0.21665(17) 0.96370(12) 0.09068(8)
H40 H 0.1769(19) 0.9687(13) 0.0386(9)
H41 H 0.151(2) 1.0116(15) 0.1178(9)
C33 C 0.40112(16) 1.00109(11) 0.10835(7)
H42 H 0.4356(19) 1.0655(14) 0.0770(9)
H43 H 0.4377(18) 1.0264(13) 0.1610(9)
C34 C 0.31452(14) 0.47928(11) 0.18546(6)
H44 H 0.3676(17) 0.5150(12) 0.2340(8)
H45 H 0.3931(18) 0.4239(13) 0.1702(8)
C35 C 0.15374(14) 0.40836(10) 0.19175(6)
C36 C 0.12457(15) 0.29006(11) 0.16629(6)
H46 H 0.2105(18) 0.2512(13) 0.1453(8)
C37 C -0.02579(15) 0.22647(11) 0.16937(6)
H47 H -0.0464(18) 0.1455(14) 0.1499(8)
C38 C -0.14925(15) 0.28032(12) 0.19839(6)
H48 H -0.256(2) 0.2360(14) 0.1986(8)
C39 C -0.12205(15) 0.39742(12) 0.22507(6)
H49 H -0.2066(19) 0.4364(13) 0.2461(8)
C40 C 0.02844(15) 0.46092(11) 0.22140(6)
H50 H 0.0444(17) 0.5438(13) 0.2405(8)
loop_
_geom_bond_atom_site_label_1
_geom_bond_atom_site_label_2
_geom_bond_site_symmetry_1
_geom_bond_site_symmetry_2
O1 C1 1_555 1_555
O2 C7 1_555 1_555
N1 C1 1_555 1_555
C1 C2 1_555 1_555
C2 H1 1_555 1_555
H2 C2 1_555 1_555
C3 C2 1_555 1_555
H3 C3 1_555 1_555
H4 C3 1_555 1_555
C4 C3 1_555 1_555
H5 C4 1_555 1_555
H6 C4 1_555 1_555
C5 C4 1_555 1_555
H7 C5 1_555 1_555
C6 C5 1_555 1_555
H8 C6 1_555 1_555
C7 C6 1_555 1_555
C8 C7 1_555 1_555
H9 C8 1_555 1_555
H10 C8 1_555 1_555
C9 C8 1_555 1_555
H11 C9 1_555 1_555
H12 C9 1_555 1_555
C10 N1 1_555 1_555
C11 C10 1_555 1_555
H13 C11 1_555 1_555
H14 C11 1_555 1_555
C12 C11 1_555 1_555
H15 C12 1_555 1_555
H16 C12 1_555 1_555
C13 N1 1_555 1_555
H17 C13 1_555 1_555
H18 C13 1_555 1_555
C14 C6 1_555 1_555
H19 C14 1_555 1_555
H20 C14 1_555 1_555
C15 C14 1_555 1_555
C16 C15 1_555 1_555
H21 C16 1_555 1_555
C17 C16 1_555 1_555
H22 C17 1_555 1_555
C18 C17 1_555 1_555
H23 C18 1_555 1_555
C19 C18 1_555 1_555
H24 C19 1_555 1_555
C20 C15 1_555 1_555
H25 C20 1_555 1_555
O3 C21 1_555 1_555
O4 C27 1_555 1_555
N2 C21 1_555 1_555
C21 C22 1_555 1_555
C22 H26 1_555 1_555
H27 C22 1_555 1_555
C23 C22 1_555 1_555
H28 C23 1_555 1_555
H29 C23 1_555 1_555
C24 C23 1_555 1_555
H30 C24 1_555 1_555
H31 C24 1_555 1_555
C25 C24 1_555 1_555
H32 C25 1_555 1_555
C26 C25 1_555 1_555
H33 C26 1_555 1_555
C27 C26 1_555 1_555
C28 C27 1_555 1_555
H34 C28 1_555 1_555
H35 C28 1_555 1_555
C29 C28 1_555 1_555
H36 C29 1_555 1_555
H37 C29 1_555 1_555
C30 N2 1_555 1_555
C31 C30 1_555 1_555
H38 C31 1_555 1_555
H39 C31 1_555 1_555
C32 C31 1_555 1_555
H40 C32 1_555 1_555
H41 C32 1_555 1_555
C33 N2 1_555 1_555
H42 C33 1_555 1_555
H43 C33 1_555 1_555
C34 C26 1_555 1_555
H44 C34 1_555 1_555
H45 C34 1_555 1_555
C35 C34 1_555 1_555
C36 C35 1_555 1_555
H46 C36 1_555 1_555
C37 C36 1_555 1_555
H47 C37 1_555 1_555
C38 C37 1_555 1_555
H48 C38 1_555 1_555
C39 C38 1_555 1_555
H49 C39 1_555 1_555
C40 C35 1_555 1_555
H50 C40 1_555 1_555
C5 C10 1_555 1_555
C9 C10 1_555 1_555
C12 C13 1_555 1_555
C19 C20 1_555 1_555
C25 C30 1_555 1_555
C29 C30 1_555 1_555
C32 C33 1_555 1_555
C39 C40 1_555 1_555

#END
