
#######################################################################
#
#                 Cambridge Crystallographic Data Centre
#                                CCDC 
#
#######################################################################
#
# If this CIF has been generated from an entry in the Cambridge 
# Structural Database, then it will include bibliographic, chemical, 
# crystal, experimental, refinement or atomic coordinate data resulting 
# from the CCDC's data processing and validation procedures.
#
#######################################################################

data_KIYHAD
_chemical_name_common            
'(6R,7S,9S,10S,10aS)-6-butyldecahydro-7,10-methanopyrido[1,2-a]azepin-9-yl (4-bromophenyl)carbamate'
_chemical_formula_moiety         'C22 H31 Br1 N2 O2'
_chemical_name_systematic        
'(1S,2S,8R,9S,11S)-8-Butyl-7-azatricyclo[7.2.1.0^2,7^]dodec-11-yl (4-bromophenyl)carbamate'
_symmetry_cell_setting           monoclinic
_symmetry_space_group_name_H-M   'P 21/c'
_symmetry_Int_Tables_number      14
_space_group_name_Hall           '-P 2ybc'
loop_
_symmetry_equiv_pos_site_id
_symmetry_equiv_pos_as_xyz
1 x,y,z
2 -x,1/2+y,1/2-z
3 -x,-y,-z
4 x,1/2-y,1/2+z
_cell_length_a                   12.5683(4)
_cell_length_b                   17.2000(6)
_cell_length_c                   9.5705(3)
_cell_angle_alpha                90
_cell_angle_beta                 91.0620(10)
_cell_angle_gamma                90
_cell_volume                     2068.55
_exptl_crystal_colour            colorless
_exptl_crystal_description       'Irregular chunk'
_cell_formula_units_Z            4
loop_
_atom_site_label
_atom_site_type_symbol
_atom_site_fract_x
_atom_site_fract_y
_atom_site_fract_z
Br1 Br -0.561455(12) 0.089393(9) 0.126028(16)
O1 O 0.05384(8) 0.24506(6) 0.06931(10)
O2 O -0.07958(8) 0.22724(6) -0.09050(10)
N1 N 0.21232(9) 0.38984(7) 0.17373(13)
N2 N -0.09954(10) 0.19588(7) 0.13960(13)
H1 H -0.0752(15) 0.2063(11) 0.215(2)
C1 C 0.31001(11) 0.38906(9) 0.08945(15)
H2 H 0.3276 0.4439 0.0643
C2 C 0.28973(12) 0.34338(9) -0.04663(15)
H3 H 0.3572 0.3357 -0.0987
C3 C 0.23603(12) 0.26445(9) -0.01449(16)
H4 H 0.2613 0.2232 -0.0780
H5 H 0.2505 0.2484 0.0834
C4 C 0.11703(11) 0.28105(9) -0.03943(15)
H6 H 0.0950 0.2581 -0.1315
C5 C 0.10733(12) 0.36976(9) -0.04954(15)
H7 H 0.0408 0.3850 -0.1015
C6 C 0.11890(12) 0.41523(8) 0.08832(16)
H8 H 0.1315 0.4708 0.0627
C7 C 0.01828(13) 0.41356(9) 0.17565(18)
H9 H -0.0429 0.4318 0.1178
H10 H 0.0036 0.3594 0.2046
C8 C 0.02942(13) 0.46477(10) 0.30539(18)
H11 H 0.0335 0.5201 0.2774
H12 H -0.0335 0.4581 0.3649
C9 C 0.12983(14) 0.44216(9) 0.38711(17)
H13 H 0.1414 0.4790 0.4654
H14 H 0.1211 0.3895 0.4269
C10 C 0.22574(13) 0.44320(9) 0.29296(16)
H15 H 0.2366 0.4967 0.2577
H16 H 0.2900 0.4281 0.3480
C11 C 0.20575(13) 0.38546(9) -0.13735(16)
H17 H 0.2209 0.4418 -0.1454
H18 H 0.1990 0.3623 -0.2318
C12 C 0.40690(12) 0.35373(9) 0.16663(17)
H19 H 0.3983 0.3599 0.2687
H20 H 0.4108 0.2974 0.1459
C13 C 0.51063(12) 0.39319(9) 0.12260(16)
H21 H 0.5053 0.4065 0.0221
H22 H 0.5198 0.4422 0.1757
C14 C 0.60798(12) 0.34199(9) 0.14762(16)
H23 H 0.6050 0.2977 0.0816
H24 H 0.6057 0.3206 0.2435
C15 C 0.71302(12) 0.38484(10) 0.12982(17)
H25 H 0.7723 0.3486 0.1452
H26 H 0.7182 0.4273 0.1978
H27 H 0.7161 0.4061 0.0350
C16 C -0.04483(11) 0.22339(8) 0.02859(14)
C17 C -0.20587(11) 0.16894(8) 0.13316(14)
C18 C -0.25073(12) 0.13581(9) 0.01297(15)
H28 H -0.2094 0.1304 -0.0686
C19 C -0.35572(12) 0.11073(9) 0.01229(15)
H29 H -0.3865 0.0883 -0.0696
C20 C -0.41526(11) 0.11867(8) 0.13176(16)
C21 C -0.37130(12) 0.14924(9) 0.25297(15)
H30 H -0.4124 0.1531 0.3350
C22 C -0.26613(12) 0.17439(8) 0.25369(15)
H31 H -0.2352 0.1954 0.3367
loop_
_geom_bond_atom_site_label_1
_geom_bond_atom_site_label_2
_geom_bond_site_symmetry_1
_geom_bond_site_symmetry_2
Br1 C20 1_555 1_555
O1 C4 1_555 1_555
O2 C16 1_555 1_555
N1 C1 1_555 1_555
N2 H1 1_555 1_555
C1 H2 1_555 1_555
C2 C1 1_555 1_555
H3 C2 1_555 1_555
C3 C2 1_555 1_555
H4 C3 1_555 1_555
H5 C3 1_555 1_555
C4 C3 1_555 1_555
H6 C4 1_555 1_555
C5 C4 1_555 1_555
H7 C5 1_555 1_555
C6 N1 1_555 1_555
H8 C6 1_555 1_555
C7 C6 1_555 1_555
H9 C7 1_555 1_555
H10 C7 1_555 1_555
C8 C7 1_555 1_555
H11 C8 1_555 1_555
H12 C8 1_555 1_555
C9 C8 1_555 1_555
H13 C9 1_555 1_555
H14 C9 1_555 1_555
C10 N1 1_555 1_555
H15 C10 1_555 1_555
H16 C10 1_555 1_555
C11 C2 1_555 1_555
H17 C11 1_555 1_555
H18 C11 1_555 1_555
C12 C1 1_555 1_555
H19 C12 1_555 1_555
H20 C12 1_555 1_555
C13 C12 1_555 1_555
H21 C13 1_555 1_555
H22 C13 1_555 1_555
C14 C13 1_555 1_555
H23 C14 1_555 1_555
H24 C14 1_555 1_555
C15 C14 1_555 1_555
H25 C15 1_555 1_555
H26 C15 1_555 1_555
H27 C15 1_555 1_555
C16 O1 1_555 1_555
C17 N2 1_555 1_555
C18 C17 1_555 1_555
H28 C18 1_555 1_555
C19 C18 1_555 1_555
H29 C19 1_555 1_555
C20 C19 1_555 1_555
C21 C20 1_555 1_555
H30 C21 1_555 1_555
C22 C17 1_555 1_555
H31 C22 1_555 1_555
N2 C16 1_555 1_555
C5 C6 1_555 1_555
C5 C11 1_555 1_555
C9 C10 1_555 1_555
C21 C22 1_555 1_555

#END
