
#######################################################################
#
#                 Cambridge Crystallographic Data Centre
#                                CCDC 
#
#######################################################################
#
# If this CIF has been generated from an entry in the Cambridge 
# Structural Database, then it will include bibliographic, chemical, 
# crystal, experimental, refinement or atomic coordinate data resulting 
# from the CCDC's data processing and validation procedures.
#
#######################################################################

data_KIYNIS
_chemical_formula_moiety         'C10 H7 Cl1 F3 N1 O1 S1'
_chemical_name_systematic        
2-chloro-5-methoxy-3-[(trifluoromethyl)sulfanyl]-1H-indole
_symmetry_cell_setting           monoclinic
_symmetry_space_group_name_H-M   'P 21/n'
_symmetry_Int_Tables_number      14
_space_group_name_Hall           '-P 2yn'
loop_
_symmetry_equiv_pos_site_id
_symmetry_equiv_pos_as_xyz
1 x,y,z
2 1/2-x,1/2+y,1/2-z
3 -x,-y,-z
4 1/2+x,1/2-y,1/2+z
_cell_length_a                   10.964(14)
_cell_length_b                   8.090(10)
_cell_length_c                   14.305(18)
_cell_angle_alpha                90
_cell_angle_beta                 110.88(2)
_cell_angle_gamma                90
_cell_volume                     1185.51
_cell_formula_units_Z            4
loop_
_atom_site_label
_atom_site_type_symbol
_atom_site_fract_x
_atom_site_fract_y
_atom_site_fract_z
Cl1 Cl 0.39602(8) 0.49043(12) 0.62833(7)
S1 S 0.20899(8) 0.45982(9) 0.37849(6)
F1 F 0.1849(3) 0.1561(3) 0.3125(2)
F2 F 0.3153(3) 0.3102(3) 0.2717(2)
F3 F 0.3689(3) 0.2077(4) 0.4160(2)
O1 O -0.25900(19) 0.1174(3) 0.34729(15)
N1 N 0.1856(2) 0.3417(3) 0.63683(17)
H1 H 0.2160 0.3412 0.7012
C1 C -0.3614(3) 0.0394(5) 0.3681(3)
H2 H -0.3929 0.1117 0.4077
H3 H -0.3299 -0.0611 0.4044
H4 H -0.4311 0.0144 0.3065
C2 C -0.1515(3) 0.1710(3) 0.4266(2)
C3 C -0.1382(3) 0.1465(3) 0.5262(2)
H5 H -0.2041 0.0934 0.5413
C4 C -0.0286(3) 0.2002(3) 0.60186(19)
H6 H -0.0191 0.1842 0.6685
C5 C 0.0666(3) 0.2782(3) 0.57696(18)
C6 C 0.0544(3) 0.3038(3) 0.47658(18)
C7 C -0.0564(3) 0.2490(3) 0.40106(19)
H7 H -0.0666 0.2644 0.3343
C8 C 0.1713(3) 0.3851(3) 0.47867(19)
C9 C 0.2455(3) 0.4051(3) 0.5774(2)
C10 C 0.2702(4) 0.2758(4) 0.3425(3)
loop_
_geom_bond_atom_site_label_1
_geom_bond_atom_site_label_2
_geom_bond_site_symmetry_1
_geom_bond_site_symmetry_2
Cl1 C9 1_555 1_555
S1 C8 1_555 1_555
F1 C10 1_555 1_555
F2 C10 1_555 1_555
F3 C10 1_555 1_555
O1 C1 1_555 1_555
N1 H1 1_555 1_555
C1 H2 1_555 1_555
H3 C1 1_555 1_555
H4 C1 1_555 1_555
C2 O1 1_555 1_555
C3 C2 1_555 1_555
H5 C3 1_555 1_555
C4 C3 1_555 1_555
H6 C4 1_555 1_555
C5 N1 1_555 1_555
C6 C5 1_555 1_555
C7 C2 1_555 1_555
H7 C7 1_555 1_555
C8 C6 1_555 1_555
C9 N1 1_555 1_555
C10 S1 1_555 1_555
C4 C5 1_555 1_555
C6 C7 1_555 1_555
C8 C9 1_555 1_555

#END
