
#######################################################################
#
#                 Cambridge Crystallographic Data Centre
#                                CCDC 
#
#######################################################################
#
# If this CIF has been generated from an entry in the Cambridge 
# Structural Database, then it will include bibliographic, chemical, 
# crystal, experimental, refinement or atomic coordinate data resulting 
# from the CCDC's data processing and validation procedures.
#
#######################################################################

data_KIYSIW
_chemical_formula_moiety         'C24 H17 N1 O4'
_chemical_name_systematic        
'Methyl 4-(2-(5-phenyl-1,2-oxazol-3-yl)benzoyl)benzoate'
_symmetry_cell_setting           triclinic
_symmetry_space_group_name_H-M   'P -1'
_symmetry_Int_Tables_number      2
_space_group_name_Hall           '-P 1'
loop_
_symmetry_equiv_pos_site_id
_symmetry_equiv_pos_as_xyz
1 x,y,z
2 -x,-y,-z
_cell_length_a                   6.2208(3)
_cell_length_b                   12.7931(5)
_cell_length_c                   13.3551(5)
_cell_angle_alpha                113.491(2)
_cell_angle_beta                 91.551(2)
_cell_angle_gamma                97.433(2)
_cell_volume                     962.947
_exptl_crystal_colour            colorless
_exptl_crystal_description       needle
_cell_formula_units_Z            2
_exptl_crystal_recrystallization_method 'ethyl acetate'
loop_
_atom_site_label
_atom_site_type_symbol
_atom_site_fract_x
_atom_site_fract_y
_atom_site_fract_z
C1 C 0.1575(4) 1.0359(2) 0.37979(17)
C2 C -0.0302(4) 0.8078(2) 0.32416(17)
C3 C 0.2832(4) 0.9553(2) 0.38248(18)
H1 H 0.4317 0.9773 0.4028
C4 C -0.1437(5) 0.6888(2) 0.30063(19)
C5 C -0.0171(4) 0.5912(2) 0.2792(2)
C6 C 0.1898(4) 0.8420(2) 0.35524(18)
H2 H 0.2759 0.7887 0.3579
C7 C -0.1548(4) 0.8887(2) 0.32045(19)
H3 H -0.3028 0.8664 0.2988
C8 C 0.1341(4) 0.5619(2) 0.2008(2)
C9 C 0.2507(5) 1.1588(2) 0.41084(19)
C10 C -0.0632(4) 1.0012(2) 0.34816(19)
H4 H -0.1496 1.0544 0.3457
C11 C 0.2530(4) 0.4744(2) 0.1921(2)
H5 H 0.3546 0.4548 0.1405
C12 C 0.3012(5) 0.7108(2) 0.0272(2)
C13 C -0.0504(4) 0.5291(2) 0.3444(2)
H6 H -0.1544 0.5464 0.3949
C14 C 0.1649(5) 0.62013(19) 0.12582(19)
C15 C 0.6373(5) 0.8150(2) 0.0003(2)
H7 H 0.7084 0.7991 0.0536
C16 C 0.3596(4) 0.6553(2) 0.0878(2)
H8 H 0.4989 0.6427 0.1020
C17 C 0.4177(5) 0.7745(2) -0.0291(2)
C18 C 0.3159(5) 0.7979(3) -0.1096(2)
H9 H 0.1693 0.7696 -0.1319
C19 C 0.0685(5) 0.4429(2) 0.3347(3)
H10 H 0.0458 0.4024 0.3789
C20 C 0.5755(4) 1.2953(2) 0.4616(2)
H11 H 0.5354 1.3231 0.4078
H12 H 0.7303 1.2972 0.4667
H13 H 0.5319 1.3433 0.5314
C21 C 0.7510(5) 0.8784(3) -0.0485(3)
H14 H 0.8991 0.9042 -0.0290
C22 C 0.6482(9) 0.9039(3) -0.1255(3)
H15 H 0.7253 0.9489 -0.1566
C23 C 0.2218(5) 0.4164(2) 0.2592(3)
H16 H 0.3046 0.3591 0.2537
C24 C 0.4322(8) 0.8635(3) -0.1570(3)
H17 H 0.3631 0.8800 -0.2104
N1 N -0.0041(3) 0.64945(17) 0.08786(17)
O1 O 0.4678(3) 1.17755(13) 0.42947(13)
O2 O -0.3401(3) 0.67343(14) 0.30705(15)
O3 O 0.1452(3) 1.23347(15) 0.41844(16)
O4 O 0.0817(3) 0.70851(14) 0.02486(13)
loop_
_geom_bond_atom_site_label_1
_geom_bond_atom_site_label_2
_geom_bond_site_symmetry_1
_geom_bond_site_symmetry_2
C1 C3 1_555 1_555
C2 C4 1_555 1_555
C3 H1 1_555 1_555
C4 C5 1_555 1_555
C5 C8 1_555 1_555
C6 C2 1_555 1_555
H2 C6 1_555 1_555
C7 C2 1_555 1_555
H3 C7 1_555 1_555
C8 C11 1_555 1_555
C9 C1 1_555 1_555
C10 C1 1_555 1_555
H4 C10 1_555 1_555
C11 H5 1_555 1_555
C12 C16 1_555 1_555
C13 C5 1_555 1_555
H6 C13 1_555 1_555
C14 C8 1_555 1_555
C15 H7 1_555 1_555
C16 C14 1_555 1_555
H8 C16 1_555 1_555
C17 C12 1_555 1_555
C18 C17 1_555 1_555
H9 C18 1_555 1_555
C19 C13 1_555 1_555
H10 C19 1_555 1_555
C20 H11 1_555 1_555
H12 C20 1_555 1_555
H13 C20 1_555 1_555
C21 C15 1_555 1_555
H14 C21 1_555 1_555
C22 C21 1_555 1_555
H15 C22 1_555 1_555
C23 C11 1_555 1_555
H16 C23 1_555 1_555
C24 C18 1_555 1_555
H17 C24 1_555 1_555
N1 C14 1_555 1_555
O1 C9 1_555 1_555
O2 C4 1_555 1_555
O3 C9 1_555 1_555
O4 C12 1_555 1_555
C3 C6 1_555 1_555
C7 C10 1_555 1_555
C15 C17 1_555 1_555
C19 C23 1_555 1_555
C20 O1 1_555 1_555
C22 C24 1_555 1_555
N1 O4 1_555 1_555

#END
