
#######################################################################
#
#                 Cambridge Crystallographic Data Centre
#                                CCDC 
#
#######################################################################
#
# If this CIF has been generated from an entry in the Cambridge 
# Structural Database, then it will include bibliographic, chemical, 
# crystal, experimental, refinement or atomic coordinate data resulting 
# from the CCDC's data processing and validation procedures.
#
#######################################################################

data_KIYSOC
_chemical_formula_moiety         'C23 H17 N1 O3'
_chemical_name_systematic        
(4-Methoxyphenyl)(2-(5-phenyl-1,2-oxazol-3-yl)phenyl)methanone
_symmetry_cell_setting           triclinic
_symmetry_space_group_name_H-M   'P -1'
_symmetry_Int_Tables_number      2
_space_group_name_Hall           '-P 1'
loop_
_symmetry_equiv_pos_site_id
_symmetry_equiv_pos_as_xyz
1 x,y,z
2 -x,-y,-z
_cell_length_a                   8.8993(11)
_cell_length_b                   10.4759(13)
_cell_length_c                   11.0032(14)
_cell_angle_alpha                70.643(7)
_cell_angle_beta                 72.001(5)
_cell_angle_gamma                73.148(7)
_cell_volume                     900.142
_exptl_crystal_colour            colorless
_exptl_crystal_description       needle
_cell_formula_units_Z            2
loop_
_atom_site_label
_atom_site_type_symbol
_atom_site_fract_x
_atom_site_fract_y
_atom_site_fract_z
O1 O 0.4231(10) 0.4168(8) -0.1320(8)
N1 N 0.4387(12) 0.3411(10) -0.0019(10)
O2 O 0.2925(11) 0.0678(10) 0.1842(10)
O3 O 1.0340(10) -0.2084(9) 0.1203(9)
C1 C 0.5655(15) 0.0175(12) 0.1970(12)
C2 C 0.8851(14) -0.1259(12) 0.1453(12)
C3 C 0.8466(15) -0.0169(12) 0.1940(13)
H1 H 0.9268 0.0091 0.2127
C4 C 0.7612(13) -0.1701(12) 0.1247(13)
H2 H 0.7859 -0.2497 0.0964
C5 C 0.6894(14) 0.0586(12) 0.2173(12)
H3 H 0.6664 0.1373 0.2467
C6 C 0.2902(13) 0.5174(12) -0.1267(12)
C7 C 0.3967(15) 0.0966(13) 0.2174(12)
C8 C 0.2943(14) 0.3501(12) 0.2207(13)
C9 C 0.2552(15) 0.6114(13) -0.2504(13)
C10 C 0.1080(16) 0.7064(13) -0.2529(13)
H4 H 0.0299 0.7072 -0.1740
C11 C 0.3144(13) 0.3983(11) 0.0804(13)
C12 C 0.0758(17) 0.7977(15) -0.3673(15)
H5 H -0.0236 0.8591 -0.3662
C13 C 0.6086(16) -0.0983(12) 0.1457(12)
H6 H 0.5298 -0.1251 0.1261
C14 C 0.2176(15) 0.5087(12) 0.0022(13)
H7 H 0.1212 0.5647 0.0345
C15 C 1.1646(16) -0.1688(15) 0.1400(15)
H8 H 1.1604 -0.0719 0.0985
H9 H 1.2656 -0.2211 0.1015
H10 H 1.1549 -0.1870 0.2332
C16 C 0.3451(15) 0.2109(13) 0.2856(13)
C17 C 0.3319(17) 0.1697(14) 0.4238(13)
H11 H 0.3691 0.0778 0.4661
C18 C 0.2229(17) 0.4433(15) 0.2962(15)
H12 H 0.1843 0.5350 0.2548
C19 C 0.3363(19) 0.7044(17) -0.4901(14)
H13 H 0.4123 0.7019 -0.5697
C20 C 0.192(2) 0.7991(14) -0.4868(14)
H14 H 0.1722 0.8645 -0.5643
C21 C 0.3661(19) 0.6096(16) -0.3677(15)
H15 H 0.4635 0.5454 -0.3683
C22 C 0.2069(19) 0.4042(15) 0.4320(15)
H16 H 0.1587 0.4698 0.4800
C23 C 0.2624(18) 0.2683(16) 0.4967(14)
H17 H 0.2536 0.2427 0.5876
loop_
_geom_bond_atom_site_label_1
_geom_bond_atom_site_label_2
_geom_bond_site_symmetry_1
_geom_bond_site_symmetry_2
O1 N1 1_555 1_555
N1 C11 1_555 1_555
O2 C7 1_555 1_555
O3 C2 1_555 1_555
C1 C5 1_555 1_555
C2 C3 1_555 1_555
C3 H1 1_555 1_555
C4 C2 1_555 1_555
H2 C4 1_555 1_555
C5 C3 1_555 1_555
H3 C5 1_555 1_555
C6 O1 1_555 1_555
C7 C1 1_555 1_555
C8 C11 1_555 1_555
C9 C6 1_555 1_555
C10 C9 1_555 1_555
H4 C10 1_555 1_555
C11 C14 1_555 1_555
C12 C10 1_555 1_555
H5 C12 1_555 1_555
C13 C1 1_555 1_555
H6 C13 1_555 1_555
C14 C6 1_555 1_555
H7 C14 1_555 1_555
C15 O3 1_555 1_555
H8 C15 1_555 1_555
H9 C15 1_555 1_555
H10 C15 1_555 1_555
C16 C7 1_555 1_555
C17 C16 1_555 1_555
H11 C17 1_555 1_555
C18 C8 1_555 1_555
H12 C18 1_555 1_555
C19 H13 1_555 1_555
C20 C12 1_555 1_555
H14 C20 1_555 1_555
C21 C9 1_555 1_555
H15 C21 1_555 1_555
C22 C18 1_555 1_555
H16 C22 1_555 1_555
C23 C17 1_555 1_555
H17 C23 1_555 1_555
C4 C13 1_555 1_555
C8 C16 1_555 1_555
C19 C20 1_555 1_555
C19 C21 1_555 1_555
C22 C23 1_555 1_555

#END
