
#######################################################################
#
#                 Cambridge Crystallographic Data Centre
#                                CCDC 
#
#######################################################################
#
# If this CIF has been generated from an entry in the Cambridge 
# Structural Database, then it will include bibliographic, chemical, 
# crystal, experimental, refinement or atomic coordinate data resulting 
# from the CCDC's data processing and validation procedures.
#
#######################################################################

data_KIYSUI
_chemical_formula_moiety         'C20 H24 Br1 N1 O3,H2 O1'
_chemical_name_systematic        
'5-Oxodecahydro-1H,5H-pyrrolo[2,1-k][1]benzazepin-10-yl 4-bromobenzoate monohydrate'
_symmetry_cell_setting           monoclinic
_symmetry_space_group_name_H-M   'P 21/c'
_symmetry_Int_Tables_number      14
_space_group_name_Hall           '-P 2ybc'
loop_
_symmetry_equiv_pos_site_id
_symmetry_equiv_pos_as_xyz
1 x,y,z
2 -x,1/2+y,1/2-z
3 -x,-y,-z
4 x,1/2-y,1/2+z
_cell_length_a                   15.7732(6)
_cell_length_b                   8.3002(3)
_cell_length_c                   15.3015(6)
_cell_angle_alpha                90
_cell_angle_beta                 111.867(2)
_cell_angle_gamma                90
_cell_volume                     1859.15
_exptl_crystal_colour            colorless
_exptl_crystal_description       'Triangular plate'
_cell_formula_units_Z            4
loop_
_atom_site_label
_atom_site_type_symbol
_atom_site_fract_x
_atom_site_fract_y
_atom_site_fract_z
Br1 Br 0.42982(5) -0.34668(8) -0.13015(4)
O1 O 0.0329(4) 0.7582(8) -0.1721(4)
O2 O 0.3001(3) 0.2090(5) 0.1225(3)
O3 O 0.4279(3) 0.1235(5) 0.2375(3)
N1 N 0.1138(4) 0.6962(6) -0.0216(4)
C1 C 0.0849(5) 0.6625(9) -0.1141(5)
C2 C 0.1147(5) 0.5088(10) -0.1480(4)
H1 H 0.0976 0.4145 -0.1185
H2 H 0.0834 0.4993 -0.2171
C3 C 0.2143(6) 0.5110(11) -0.1231(6)
H3 H 0.2333 0.6221 -0.1306
H4 H 0.2294 0.4413 -0.1678
C4 C 0.2694(6) 0.4538(11) -0.0221(5)
H5 H 0.3333 0.4357 -0.0165
H6 H 0.2446 0.3483 -0.0130
C5 C 0.2711(4) 0.5719(8) 0.0630(5)
H7 H 0.2990 0.6774 0.0569
C6 C 0.3297(4) 0.4928(7) 0.1575(4)
H8 H 0.3904 0.4670 0.1561
H9 H 0.3389 0.5719 0.2086
C7 C 0.2895(4) 0.3412(7) 0.1806(4)
H10 H 0.3240 0.3138 0.2482
C8 C 0.1896(5) 0.3551(8) 0.1647(5)
H11 H 0.1835 0.4154 0.2179
H12 H 0.1647 0.2456 0.1648
C9 C 0.1320(4) 0.4394(8) 0.0724(6)
H13 H 0.1275 0.3690 0.0186
H14 H 0.0695 0.4573 0.0710
C10 C 0.1739(4) 0.6014(7) 0.0619(4)
C11 C 0.1870(11) 0.7269(16) 0.1440(9)
H15 H 0.1947 0.6706 0.2036
H16 H 0.2411 0.7957 0.1543
C12 C 0.1017(11) 0.8251(16) 0.1113(7)
H17 H 0.1127 0.9329 0.1411
H18 H 0.0527 0.7708 0.1259
C13 C 0.0753(16) 0.839(3) 0.0000(15)
H19 H 0.0082 0.8416 -0.0337
H20 H 0.1023 0.9366 -0.0163
C14 C 0.3756(4) 0.1174(6) 0.1576(4)
C15 C 0.3850(4) 0.0050(6) 0.0856(4)
C16 C 0.4571(4) -0.1042(7) 0.1142(4)
H21 H 0.4972 -0.1068 0.1784
C17 C 0.4715(4) -0.2082(7) 0.0511(4)
H22 H 0.5207 -0.2828 0.0712
C18 C 0.4122(4) -0.2020(7) -0.0427(4)
C19 C 0.3389(5) -0.0964(7) -0.0725(4)
H23 H 0.2984 -0.0951 -0.1365
C20 C 0.3251(4) 0.0069(7) -0.0081(4)
H24 H 0.2748 0.0792 -0.0279
O4 O 0.1018(5) 1.0921(11) -0.1642(5)
H31 H 0.0813 0.9958 -0.1674
H32 H 0.0625 1.1385 -0.2118
C21? C 0.1739(4) 0.6014(7) 0.0619(4)
C22? C 0.156(2) 0.690(4) 0.135(2)
H25? H 0.2057 0.6739 0.1970
H26? H 0.0978 0.6526 0.1399
C23? C 0.148(2) 0.871(2) 0.1066(17)
H27? H 0.1231 0.9372 0.1452
H28? H 0.2076 0.9155 0.1105
C24? C 0.092(4) 0.859(9) 0.021(4)
H29? H 0.0980 0.9521 -0.0165
H30? H 0.0280 0.8563 0.0186
loop_
_geom_bond_atom_site_label_1
_geom_bond_atom_site_label_2
_geom_bond_site_symmetry_1
_geom_bond_site_symmetry_2
Br1 C18 1_555 1_555
O1 C1 1_555 1_555
O2 C7 1_555 1_555
O3 C14 1_555 1_555
N1 C1 1_555 1_555
C1 C2 1_555 1_555
C2 H1 1_555 1_555
H2 C2 1_555 1_555
C3 C2 1_555 1_555
H3 C3 1_555 1_555
H4 C3 1_555 1_555
C4 C3 1_555 1_555
H5 C4 1_555 1_555
H6 C4 1_555 1_555
C5 C4 1_555 1_555
H7 C5 1_555 1_555
C6 C5 1_555 1_555
H8 C6 1_555 1_555
H9 C6 1_555 1_555
C7 C6 1_555 1_555
H10 C7 1_555 1_555
C8 C7 1_555 1_555
H11 C8 1_555 1_555
H12 C8 1_555 1_555
C9 C8 1_555 1_555
H13 C9 1_555 1_555
H14 C9 1_555 1_555
C10 N1 1_555 1_555
C11 C10 1_555 1_555
H15 C11 1_555 1_555
H16 C11 1_555 1_555
C12 C11 1_555 1_555
H17 C12 1_555 1_555
H18 C12 1_555 1_555
C13 N1 1_555 1_555
H19 C13 1_555 1_555
H20 C13 1_555 1_555
C14 O2 1_555 1_555
C15 C14 1_555 1_555
C16 C15 1_555 1_555
H21 C16 1_555 1_555
C17 C16 1_555 1_555
H22 C17 1_555 1_555
C18 C17 1_555 1_555
C19 C18 1_555 1_555
H23 C19 1_555 1_555
C20 C15 1_555 1_555
H24 C20 1_555 1_555
O4 H31 1_555 1_555
H32 O4 1_555 1_555
C5 C10 1_555 1_555
C9 C10 1_555 1_555
C12 C13 1_555 1_555
C19 C20 1_555 1_555

#END
