
#######################################################################
#
#                 Cambridge Crystallographic Data Centre
#                                CCDC 
#
#######################################################################
#
# If this CIF has been generated from an entry in the Cambridge 
# Structural Database, then it will include bibliographic, chemical, 
# crystal, experimental, refinement or atomic coordinate data resulting 
# from the CCDC's data processing and validation procedures.
#
#######################################################################

data_KIYTIX
_chemical_name_common            
(8aS,9R,10S,12aR)-10-Hydroxy-9-methyldecahydrobenzo[b]pyrrolo[1,2-a]azepin-5(1H)-one
_chemical_formula_moiety         'C14 H23 N1 O2'
_chemical_name_systematic        
10-Hydroxy-9-methyldecahydro-1H,5H-pyrrolo[2,1-k][1]benzazepin-5-one
_symmetry_cell_setting           monoclinic
_symmetry_space_group_name_H-M   'P 21/n'
_symmetry_Int_Tables_number      14
_space_group_name_Hall           '-P 2yn'
loop_
_symmetry_equiv_pos_site_id
_symmetry_equiv_pos_as_xyz
1 x,y,z
2 1/2-x,1/2+y,1/2-z
3 -x,-y,-z
4 1/2+x,1/2-y,1/2+z
_cell_length_a                   8.6602(3)
_cell_length_b                   11.2410(4)
_cell_length_c                   12.9622(5)
_cell_angle_alpha                90
_cell_angle_beta                 94.2530(10)
_cell_angle_gamma                90
_cell_volume                     1258.39
_exptl_crystal_colour            colorless
_exptl_crystal_description       'Rectangular parallelepiped'
_cell_formula_units_Z            4
loop_
_atom_site_label
_atom_site_type_symbol
_atom_site_fract_x
_atom_site_fract_y
_atom_site_fract_z
O1 O 0.20637(10) 0.37859(8) 0.02285(6)
O2 O -0.24777(9) 0.06299(7) 0.31813(6)
H1 H -0.2706(18) 0.0833(15) 0.3798(14)
N1 N 0.18921(10) 0.21844(9) 0.12438(7)
C1 C 0.12418(13) 0.31156(10) 0.07212(8)
C2 C -0.04757(14) 0.33340(11) 0.07007(9)
H2 H -0.0772(15) 0.3539(12) 0.1391(11)
H3 H -0.0685(16) 0.4030(13) 0.0283(11)
C3 C -0.14395(13) 0.22810(11) 0.02770(9)
H4 H -0.0978(15) 0.1962(12) -0.0353(11)
H5 H -0.2482(17) 0.2577(13) 0.0049(11)
C4 C -0.16388(13) 0.12982(11) 0.10631(9)
H6 H -0.2126(15) 0.1640(12) 0.1670(11)
H7 H -0.2393(15) 0.0710(12) 0.0744(10)
C5 C -0.01898(12) 0.05861(10) 0.14394(8)
H8 H 0.0217(14) 0.0180(11) 0.0824(10)
C6 C -0.06094(12) -0.04017(10) 0.22119(8)
H9 H 0.0334(15) -0.0887(12) 0.2346(10)
C7 C -0.09828(12) 0.00834(10) 0.32759(8)
H10 H -0.1018(14) -0.0607(12) 0.3748(10)
C8 C 0.02543(13) 0.09456(11) 0.37330(8)
H11 H -0.0178(15) 0.1351(12) 0.4339(10)
H12 H 0.1148(16) 0.0472(12) 0.4010(10)
C9 C 0.07519(13) 0.18746(10) 0.29538(8)
H13 H -0.0106(15) 0.2441(12) 0.2790(10)
H14 H 0.1635(16) 0.2341(12) 0.3256(10)
C10 C 0.12046(12) 0.12886(10) 0.19462(8)
C11 C 0.26132(13) 0.04452(11) 0.21545(9)
H15 H 0.2583(16) 0.0008(13) 0.2803(11)
H16 H 0.2607(16) -0.0145(13) 0.1583(11)
C12 C 0.40280(14) 0.12374(13) 0.21222(10)
H17 H 0.4171(16) 0.1730(13) 0.2767(12)
H18 H 0.4977(18) 0.0793(14) 0.2023(12)
C13 C 0.35864(13) 0.20328(12) 0.12085(9)
H19 H 0.3793(16) 0.1640(13) 0.0555(11)
H20 H 0.4075(17) 0.2823(14) 0.1240(11)
C14 C -0.18766(14) -0.12411(11) 0.17637(10)
H21 H -0.1665(17) -0.1490(14) 0.1057(12)
H22 H -0.1903(17) -0.1964(14) 0.2195(12)
H23 H -0.2919(17) -0.0862(13) 0.1735(11)
loop_
_geom_bond_atom_site_label_1
_geom_bond_atom_site_label_2
_geom_bond_site_symmetry_1
_geom_bond_site_symmetry_2
O1 C1 1_555 1_555
O2 H1 1_555 1_555
N1 C1 1_555 1_555
C1 C2 1_555 1_555
C2 H2 1_555 1_555
H3 C2 1_555 1_555
C3 C2 1_555 1_555
H4 C3 1_555 1_555
H5 C3 1_555 1_555
C4 C3 1_555 1_555
H6 C4 1_555 1_555
H7 C4 1_555 1_555
C5 C4 1_555 1_555
H8 C5 1_555 1_555
C6 C5 1_555 1_555
H9 C6 1_555 1_555
C7 O2 1_555 1_555
H10 C7 1_555 1_555
C8 C7 1_555 1_555
H11 C8 1_555 1_555
H12 C8 1_555 1_555
C9 C8 1_555 1_555
H13 C9 1_555 1_555
H14 C9 1_555 1_555
C10 N1 1_555 1_555
C11 C10 1_555 1_555
H15 C11 1_555 1_555
H16 C11 1_555 1_555
C12 C11 1_555 1_555
H17 C12 1_555 1_555
H18 C12 1_555 1_555
C13 N1 1_555 1_555
H19 C13 1_555 1_555
H20 C13 1_555 1_555
C14 C6 1_555 1_555
H21 C14 1_555 1_555
H22 C14 1_555 1_555
H23 C14 1_555 1_555
C5 C10 1_555 1_555
C6 C7 1_555 1_555
C9 C10 1_555 1_555
C12 C13 1_555 1_555

#END
