
#######################################################################
#
#                 Cambridge Crystallographic Data Centre
#                                CCDC 
#
#######################################################################
#
# If this CIF has been generated from an entry in the Cambridge 
# Structural Database, then it will include bibliographic, chemical, 
# crystal, experimental, refinement or atomic coordinate data resulting 
# from the CCDC's data processing and validation procedures.
#
#######################################################################

data_KIYZEY
_chemical_formula_moiety         'C13 H11 Cl2 N5 S1'
_chemical_name_systematic        
5-Dichloromethyl-2-methylsulfanyl-7-(p-tolyl)(1,2,4)triazolo(1,5-a)(1,3,5)triazine
_symmetry_cell_setting           monoclinic
_symmetry_space_group_name_H-M   'P 21/n'
_symmetry_Int_Tables_number      14
_space_group_name_Hall           '-P 2yn'
loop_
_symmetry_equiv_pos_site_id
_symmetry_equiv_pos_as_xyz
1 x,y,z
2 1/2-x,1/2+y,1/2-z
3 -x,-y,-z
4 1/2+x,1/2-y,1/2+z
_cell_length_a                   6.7879(5)
_cell_length_b                   11.5213(9)
_cell_length_c                   19.230(1)
_cell_angle_alpha                90
_cell_angle_beta                 99.863(3)
_cell_angle_gamma                90
_cell_volume                     1481.66
_exptl_crystal_colour            colorless
_exptl_crystal_description       prism
_chemical_melting_point          '470-471 K'
_cell_formula_units_Z            4
loop_
_atom_site_label
_atom_site_type_symbol
_atom_site_fract_x
_atom_site_fract_y
_atom_site_fract_z
Cl1 Cl 0.0166(2) 0.42959(9) 0.40451(8)
Cl2 Cl 0.44711(19) 0.4093(1) 0.41074(6)
S1 S 0.24775(16) -0.0472(1) 0.73214(5)
N1 N 0.2382(5) 0.1517(3) 0.65764(16)
N2 N 0.2424(4) -0.0168(3) 0.59302(15)
N3 N 0.2425(4) 0.0787(3) 0.55079(15)
N4 N 0.2429(5) 0.2855(3) 0.56169(17)
N5 N 0.2441(5) 0.1879(3) 0.45150(16)
C1 C 0.2409(6) 0.0337(4) 0.65572(19)
C2 C 0.2394(5) 0.1797(3) 0.59102(19)
C3 C 0.2440(5) 0.2817(3) 0.4936(2)
C4 C 0.2433(5) 0.0837(3) 0.48005(17)
C5 C 0.2391(8) -0.1902(4) 0.6955(2)
C6 C 0.2469(6) 0.3999(4) 0.4594(2)
C7 C 0.2521(5) -0.0197(3) 0.43583(18)
C8 C 0.2514(5) -0.1352(3) 0.46095(18)
C9 C 0.2609(5) -0.2267(3) 0.4143(2)
C10 C 0.2710(5) -0.2083(3) 0.3441(2)
C11 C 0.2713(6) -0.0946(3) 0.31964(19)
C12 C 0.2630(6) -0.0006(3) 0.36456(19)
C13 C 0.2855(7) -0.3082(3) 0.2948(2)
H1 H 0.3270 -0.1919 0.6616
H2 H 0.2777 -0.2486 0.7329
H3 H 0.0975 -0.2071 0.6703
H4 H 0.2695 0.4603 0.4976
H5 H 0.2463 -0.1522 0.5114
H6 H 0.2582 -0.3075 0.4326
H7 H 0.2769 -0.0779 0.2673
H8 H 0.2671 0.0805 0.3466
H9 H 0.4255 -0.3397 0.3063
H10 H 0.2500 -0.2794 0.2417
H11 H 0.1900 -0.3707 0.3002
loop_
_geom_bond_atom_site_label_1
_geom_bond_atom_site_label_2
_geom_bond_site_symmetry_1
_geom_bond_site_symmetry_2
Cl1 C6 1_555 1_555
Cl2 C6 1_555 1_555
S1 C1 1_555 1_555
N1 C1 1_555 1_555
N2 N3 1_555 1_555
N3 C2 1_555 1_555
N4 C2 1_555 1_555
N5 C3 1_555 1_555
C1 N2 1_555 1_555
C2 N1 1_555 1_555
C3 N4 1_555 1_555
C4 N3 1_555 1_555
C5 S1 1_555 1_555
C6 C3 1_555 1_555
C7 C4 1_555 1_555
C8 C7 1_555 1_555
C9 C8 1_555 1_555
C10 C9 1_555 1_555
C11 C10 1_555 1_555
C12 C7 1_555 1_555
C13 C10 1_555 1_555
H1 C5 1_555 1_555
H2 C5 1_555 1_555
H3 C5 1_555 1_555
H4 C6 1_555 1_555
H5 C8 1_555 1_555
H6 C9 1_555 1_555
H7 C11 1_555 1_555
H8 C12 1_555 1_555
H9 C13 1_555 1_555
H10 C13 1_555 1_555
H11 C13 1_555 1_555
N5 C4 1_555 1_555
C11 C12 1_555 1_555

#END
