
#######################################################################
#
#                 Cambridge Crystallographic Data Centre
#                                CCDC 
#
#######################################################################
#
# If this CIF has been generated from an entry in the Cambridge 
# Structural Database, then it will include bibliographic, chemical, 
# crystal, experimental, refinement or atomic coordinate data resulting 
# from the CCDC's data processing and validation procedures.
#
#######################################################################

data_KIZGOP
_chemical_formula_moiety         'C24 H23 N1 O3 S2'
_chemical_name_systematic        
8-(2-Propenyloxy)-10-(p-tolylsulfonyl)-1-thia-10-aza(2.2)metacyclophane
_symmetry_cell_setting           monoclinic
_symmetry_space_group_name_H-M   'P 21'
_symmetry_Int_Tables_number      4
_space_group_name_Hall           'P 2yb'
loop_
_symmetry_equiv_pos_site_id
_symmetry_equiv_pos_as_xyz
1 x,y,z
2 -x,1/2+y,-z
_cell_length_a                   7.690(4)
_cell_length_b                   29.99(2)
_cell_length_c                   9.918(6)
_cell_angle_alpha                90
_cell_angle_beta                 105.94(4)
_cell_angle_gamma                90
_cell_volume                     2199.37
_exptl_crystal_colour            colorless
_cell_formula_units_Z            4
loop_
_atom_site_label
_atom_site_type_symbol
_atom_site_fract_x
_atom_site_fract_y
_atom_site_fract_z
N1 N 0.2932(5) 0.0000 0.4732(4)
C1 C 0.3002(6) -0.0458(2) 0.4127(5)
C2 C 0.4579(6) -0.0507(2) 0.3512(4)
C3 C 0.4436(6) -0.0339(2) 0.2167(4)
C4 C 0.5951(6) -0.0222(2) 0.1744(5)
C5 C 0.7645(7) -0.0345(2) 0.2609(6)
C6 C 0.7803(7) -0.0559(2) 0.3869(6)
C7 C 0.6301(7) -0.0617(2) 0.4341(5)
C8 C 0.5811(7) 0.0115(2) 0.0594(5)
S1 S 0.6095(2) 0.0691(1) 0.1301(1)
C9 C 0.4298(6) 0.0706(2) 0.2140(5)
C10 C 0.4458(6) 0.0463(2) 0.3343(4)
C11 C 0.2931(5) 0.0367(2) 0.3772(4)
C12 C 0.1295(6) 0.0576(2) 0.3111(5)
C13 C 0.1220(6) 0.0859(2) 0.2032(5)
C14 C 0.2667(7) 0.0917(2) 0.1481(5)
S2 S 0.3953(2) 0.0086(1) 0.6400(1)
O1 O 0.3789(5) -0.0323(2) 0.7109(3)
O2 O 0.5715(5) 0.0267(2) 0.6610(4)
C15 C 0.2564(7) 0.0497(2) 0.6837(4)
C16 C 0.0788(7) 0.0398(2) 0.6769(6)
C17 C -0.0254(8) 0.0712(3) 0.7207(6)
C18 C 0.0419(8) 0.1126(2) 0.7671(5)
C19 C 0.2170(8) 0.1223(2) 0.7690(6)
C20 C 0.3251(7) 0.0910(2) 0.7284(5)
C21 C -0.0767(9) 0.1458(3) 0.8140(7)
O3 O 0.2717(4) -0.0233(2) 0.1335(3)
C22 C 0.2027(7) -0.0527(2) 0.0174(5)
C23 C 0.0220(9) -0.0361(3) -0.0618(6)
C24 C -0.1188(8) -0.0577(3) -0.1157(7)
H1 H 0.1902 -0.0512 0.3406
H2 H 0.3098 -0.0678 0.4848
H3 H 0.8712 -0.0277 0.2325
H4 H 0.8951 -0.0673 0.4402
H5 H 0.6436 -0.0731 0.5269
H6 H 0.4645 -0.0090 -0.0073
H7 H 0.6715 0.0053 0.0118
H8 H 0.5630 0.0363 0.3878
H9 H 0.0239 0.0512 0.3415
H10 H 0.0130 0.1026 0.1651
H11 H 0.2572 0.1101 0.0672
H12 H 0.0303 0.0112 0.6424
H13 H -0.1487 0.0640 0.7158
H14 H 0.2642 0.1514 0.7985
H15 H 0.4481 0.0980 0.7316
H16 H -0.0112 0.1728 0.8450
H17 H -0.1808 0.1522 0.7374
H18 H -0.1148 0.1329 0.8899
H19 H 0.1906 -0.0824 0.0498
H20 H 0.2826 -0.0533 -0.0419
H21 H 0.0110 -0.0043 -0.0711
H22 H -0.1124 -0.0896 -0.1083
H23 H -0.2307 -0.0435 -0.1635
N2 N 0.5649(5) -0.2091(2) 1.2403(4)
C25 C 0.5766(6) -0.1630(2) 1.1853(5)
C26 C 0.7354(6) -0.1598(2) 1.1217(5)
C27 C 0.7143(6) -0.1745(2) 0.9838(5)
C28 C 0.8638(7) -0.1881(2) 0.9398(5)
C29 C 1.0356(7) -0.1793(2) 1.0252(6)
C30 C 1.0573(7) -0.1603(2) 1.1555(6)
C31 C 0.9091(7) -0.1519(2) 1.2056(6)
C32 C 0.8395(8) -0.2203(2) 0.8195(5)
S3 S 0.8577(2) -0.2786(1) 0.8834(2)
C33 C 0.6833(7) -0.2793(2) 0.9690(5)
C34 C 0.7078(6) -0.2552(2) 1.0955(4)
C35 C 0.5580(6) -0.2454(2) 1.1430(4)
C36 C 0.3930(6) -0.2656(2) 1.0829(5)
C37 C 0.3755(7) -0.2937(2) 0.9682(5)
C38 C 0.5161(6) -0.2989(2) 0.9083(5)
S4 S 0.6683(2) -0.2188(1) 1.4079(1)
O4 O 0.8387(5) -0.2396(2) 1.4247(4)
O5 O 0.6607(7) -0.1776(2) 1.4808(4)
C39 C 0.5241(7) -0.2583(2) 1.4516(5)
C40 C 0.3576(8) -0.2456(2) 1.4597(6)
C41 C 0.2469(8) -0.2756(3) 1.5002(7)
C42 C 0.3004(9) -0.3188(2) 1.5353(5)
C43 C 0.4689(10) -0.3307(2) 1.5254(5)
C44 C 0.5783(8) -0.3017(2) 1.4848(5)
C45 C 0.1776(10) -0.3499(3) 1.5826(7)
O6 O 0.5415(4) -0.1818(2) 0.8993(3)
C46 C 0.4745(7) -0.1477(2) 0.7962(6)
C47 C 0.2861(8) -0.1605(3) 0.7168(6)
C48 C 0.1504(10) -0.1368(3) 0.6805(7)
H24 H 0.5921 -0.1419 1.2603
H25 H 0.4666 -0.1560 1.1152
H26 H 1.1392 -0.1871 0.9939
H27 H 1.1760 -0.1525 1.2120
H28 H 0.9250 -0.1398 1.2979
H29 H 0.9292 -0.2147 0.7708
H30 H 0.7223 -0.2157 0.7553
H31 H 0.8265 -0.2457 1.1474
H32 H 0.2915 -0.2605 1.1197
H33 H 0.2652 -0.3100 0.9306
H34 H 0.4990 -0.3156 0.8231
H35 H 0.3181 -0.2155 1.4363
H36 H 0.1294 -0.2665 1.5060
H37 H 0.5104 -0.3606 1.5498
H38 H 0.6955 -0.3109 1.4788
H39 H 0.2362 -0.3784 1.6014
H40 H 0.1521 -0.3390 1.6661
H41 H 0.0666 -0.3530 1.5096
H42 H 0.5513 -0.1439 0.7354
H43 H 0.4695 -0.1200 0.8435
H44 H 0.2695 -0.1909 0.6857
H45 H 0.1616 -0.1062 0.7098
H46 H 0.0354 -0.1482 0.6271
loop_
_geom_bond_atom_site_label_1
_geom_bond_atom_site_label_2
_geom_bond_site_symmetry_1
_geom_bond_site_symmetry_2
N1 C1 1_555 1_555
C1 C2 1_555 1_555
C2 C3 1_555 1_555
C3 C4 1_555 1_555
C4 C5 1_555 1_555
C5 C6 1_555 1_555
C6 C7 1_555 1_555
C7 C2 1_555 1_555
C8 C4 1_555 1_555
S1 C8 1_555 1_555
C9 S1 1_555 1_555
C10 C9 1_555 1_555
C11 N1 1_555 1_555
C12 C11 1_555 1_555
C13 C12 1_555 1_555
C14 C9 1_555 1_555
S2 N1 1_555 1_555
O1 S2 1_555 1_555
O2 S2 1_555 1_555
C15 S2 1_555 1_555
C16 C15 1_555 1_555
C17 C16 1_555 1_555
C18 C17 1_555 1_555
C19 C18 1_555 1_555
C20 C15 1_555 1_555
C21 C18 1_555 1_555
O3 C3 1_555 1_555
C22 O3 1_555 1_555
C23 C22 1_555 1_555
C24 C23 1_555 1_555
H1 C1 1_555 1_555
H2 C1 1_555 1_555
H3 C5 1_555 1_555
H4 C6 1_555 1_555
H5 C7 1_555 1_555
H6 C8 1_555 1_555
H7 C8 1_555 1_555
H8 C10 1_555 1_555
H9 C12 1_555 1_555
H10 C13 1_555 1_555
H11 C14 1_555 1_555
H12 C16 1_555 1_555
H13 C17 1_555 1_555
H14 C19 1_555 1_555
H15 C20 1_555 1_555
H16 C21 1_555 1_555
H17 C21 1_555 1_555
H18 C21 1_555 1_555
H19 C22 1_555 1_555
H20 C22 1_555 1_555
H21 C23 1_555 1_555
H22 C24 1_555 1_555
H23 C24 1_555 1_555
N2 C25 1_555 1_555
C25 C26 1_555 1_555
C26 C27 1_555 1_555
C27 C28 1_555 1_555
C28 C29 1_555 1_555
C29 C30 1_555 1_555
C30 C31 1_555 1_555
C31 C26 1_555 1_555
C32 C28 1_555 1_555
S3 C32 1_555 1_555
C33 S3 1_555 1_555
C34 C33 1_555 1_555
C35 N2 1_555 1_555
C36 C35 1_555 1_555
C37 C36 1_555 1_555
C38 C33 1_555 1_555
S4 N2 1_555 1_555
O4 S4 1_555 1_555
O5 S4 1_555 1_555
C39 S4 1_555 1_555
C40 C39 1_555 1_555
C41 C40 1_555 1_555
C42 C41 1_555 1_555
C43 C42 1_555 1_555
C44 C39 1_555 1_555
C45 C42 1_555 1_555
O6 C27 1_555 1_555
C46 O6 1_555 1_555
C47 C46 1_555 1_555
C48 C47 1_555 1_555
H24 C25 1_555 1_555
H25 C25 1_555 1_555
H26 C29 1_555 1_555
H27 C30 1_555 1_555
H28 C31 1_555 1_555
H29 C32 1_555 1_555
H30 C32 1_555 1_555
H31 C34 1_555 1_555
H32 C36 1_555 1_555
H33 C37 1_555 1_555
H34 C38 1_555 1_555
H35 C40 1_555 1_555
H36 C41 1_555 1_555
H37 C43 1_555 1_555
H38 C44 1_555 1_555
H39 C45 1_555 1_555
H40 C45 1_555 1_555
H41 C45 1_555 1_555
H42 C46 1_555 1_555
H43 C46 1_555 1_555
H44 C47 1_555 1_555
H45 C48 1_555 1_555
H46 C48 1_555 1_555
C10 C11 1_555 1_555
C13 C14 1_555 1_555
C19 C20 1_555 1_555
C34 C35 1_555 1_555
C37 C38 1_555 1_555
C43 C44 1_555 1_555

#END
