
#######################################################################
#
#                 Cambridge Crystallographic Data Centre
#                                CCDC 
#
#######################################################################
#
# If this CIF has been generated from an entry in the Cambridge 
# Structural Database, then it will include bibliographic, chemical, 
# crystal, experimental, refinement or atomic coordinate data resulting 
# from the CCDC's data processing and validation procedures.
#
#######################################################################

data_KIZHAD
_chemical_formula_moiety         'C12 H14 N1 O4 1+,Cl1 1-'
_chemical_name_systematic        
'2-(2-Carboxy-3-phenylcyclopropyl)glycine hydrochloride'
_symmetry_cell_setting           monoclinic
_symmetry_space_group_name_H-M   'P 21/c'
_symmetry_Int_Tables_number      14
_space_group_name_Hall           '-P 2ybc'
loop_
_symmetry_equiv_pos_site_id
_symmetry_equiv_pos_as_xyz
1 x,y,z
2 -x,1/2+y,1/2-z
3 -x,-y,-z
4 x,1/2-y,1/2+z
_cell_length_a                   9.9985(13)
_cell_length_b                   7.1946(9)
_cell_length_c                   17.939(3)
_cell_angle_alpha                90
_cell_angle_beta                 94.453(4)
_cell_angle_gamma                90
_cell_volume                     1286.55
_exptl_crystal_colour            colorless
_exptl_crystal_description       prism
_cell_formula_units_Z            4
loop_
_atom_site_label
_atom_site_type_symbol
_atom_site_fract_x
_atom_site_fract_y
_atom_site_fract_z
Cl1 Cl 0.35498(4) 0.79627(5) 0.563317(18)
O1 O 0.52091(11) 1.27119(16) 0.73491(6)
O2 O 0.70831(11) 1.12823(15) 0.78326(6)
H1 H 0.6886 1.1805 0.8228
O3 O 0.67327(11) 0.51086(14) 0.60461(6)
O4 O 0.65524(11) 0.60792(14) 0.48528(6)
H2 H 0.6433 0.4939 0.4771
N1 N 0.54068(12) 1.14954(17) 0.59856(7)
H3 H 0.5204 1.2726 0.6010
H4 H 0.4687 1.0810 0.6101
H5 H 0.5618 1.1208 0.5515
C1 C 0.69461(14) 0.9041(2) 0.65071(8)
H6 H 0.6417 0.8200 0.6817
C2 C 0.73139(14) 0.8237(2) 0.57634(8)
H7 H 0.7360 0.9119 0.5336
C3 C 0.83736(14) 0.8437(2) 0.64168(8)
H8 H 0.8617 0.7233 0.6671
C4 C 0.65756(14) 1.1073(2) 0.65290(8)
H9 H 0.7360 1.1816 0.6385
C5 C 0.61931(15) 1.1766(2) 0.72878(8)
C6 C 0.68391(14) 0.6325(2) 0.55869(8)
C7 C 0.95183(14) 0.9751(2) 0.64037(8)
C8 C 0.95998(16) 1.1167(2) 0.58769(9)
H10 H 0.8907 1.1311 0.5488
C9 C 1.06970(17) 1.2370(2) 0.59210(10)
H11 H 1.0737 1.3349 0.5568
C10 C 1.17267(17) 1.2148(2) 0.64742(10)
H12 H 1.2469 1.2976 0.6503
C11 C 1.16737(16) 1.0718(2) 0.69860(9)
H13 H 1.2392 1.0545 0.7358
C12 C 1.05719(15) 0.9533(2) 0.69573(9)
H14 H 1.0534 0.8567 0.7316
loop_
_geom_bond_atom_site_label_1
_geom_bond_atom_site_label_2
_geom_bond_site_symmetry_1
_geom_bond_site_symmetry_2
O1 C5 1_555 1_555
O2 H1 1_555 1_555
O3 C6 1_555 1_555
O4 H2 1_555 1_555
N1 H3 1_555 1_555
H4 N1 1_555 1_555
H5 N1 1_555 1_555
C1 H6 1_555 1_555
C2 C1 1_555 1_555
H7 C2 1_555 1_555
C3 C1 1_555 1_555
H8 C3 1_555 1_555
C4 N1 1_555 1_555
H9 C4 1_555 1_555
C5 O2 1_555 1_555
C6 O4 1_555 1_555
C7 C3 1_555 1_555
C8 C7 1_555 1_555
H10 C8 1_555 1_555
C9 C8 1_555 1_555
H11 C9 1_555 1_555
C10 C9 1_555 1_555
H12 C10 1_555 1_555
C11 C10 1_555 1_555
H13 C11 1_555 1_555
C12 C7 1_555 1_555
H14 C12 1_555 1_555
C1 C4 1_555 1_555
C2 C3 1_555 1_555
C2 C6 1_555 1_555
C4 C5 1_555 1_555
C11 C12 1_555 1_555

#END
