
#######################################################################
#
#                 Cambridge Crystallographic Data Centre
#                                CCDC 
#
#######################################################################
#
# If this CIF has been generated from an entry in the Cambridge 
# Structural Database, then it will include bibliographic, chemical, 
# crystal, experimental, refinement or atomic coordinate data resulting 
# from the CCDC's data processing and validation procedures.
#
#######################################################################

data_KIZHUX
_chemical_formula_moiety         'C19 H25 N1 O5'
_chemical_name_systematic        
'(+-)-(S)-Methyl 2-((1S,2S,3R)-2-benzoyl-3-methylcyclopropyl)-2-(t-butoxycarbonylamino)ethanoate'
_symmetry_cell_setting           monoclinic
_symmetry_space_group_name_H-M   'C 2/c'
_symmetry_Int_Tables_number      15
_space_group_name_Hall           '-C 2yn'
loop_
_symmetry_equiv_pos_site_id
_symmetry_equiv_pos_as_xyz
1 x,y,z
2 1/2+x,1/2+y,z
3 -x,y,1/2-z
4 1/2-x,1/2+y,1/2-z
5 -x,-y,-z
6 1/2-x,1/2-y,-z
7 x,-y,1/2+z
8 1/2+x,1/2-y,1/2+z
_cell_length_a                   22.637(3)
_cell_length_b                   5.4494(6)
_cell_length_c                   29.986(3)
_cell_angle_alpha                90
_cell_angle_beta                 97.637(6)
_cell_angle_gamma                90
_cell_volume                     3666.2
_exptl_crystal_colour            colorless
_exptl_crystal_description       prism
_chemical_melting_point          '100-101 deg.C'
_cell_formula_units_Z            8
loop_
_atom_site_label
_atom_site_type_symbol
_atom_site_fract_x
_atom_site_fract_y
_atom_site_fract_z
O1 O 0.36593(13) 0.4672(7) 0.25684(9)
O2 O 0.41776(11) 0.7864(5) 0.23671(7)
O3 O 0.43066(9) 0.2385(4) 0.14086(8)
O4 O 0.48148(8) 0.5635(4) 0.11648(7)
O5 O 0.24931(11) 1.1136(4) 0.10641(8)
N1 N 0.40402(10) 0.6347(5) 0.15090(8)
H1 H 0.4098 0.7875 0.1430
C1 C 0.30746(12) 0.7620(6) 0.16726(9)
H2 H 0.3197 0.9383 0.1689
C2 C 0.26025(11) 0.7013(5) 0.12847(9)
H3 H 0.2618 0.5330 0.1154
C3 C 0.24570(12) 0.7167(6) 0.17672(10)
H4 H 0.2236 0.8683 0.1834
C4 C 0.35803(11) 0.5829(6) 0.17863(9)
H5 H 0.3427 0.4130 0.1718
C5 C 0.38103(13) 0.5992(7) 0.22834(10)
C6 C 0.44086(18) 0.8354(13) 0.28295(13)
H6 H 0.4084 0.8915 0.2991
H7 H 0.4716 0.9630 0.2842
H8 H 0.4583 0.6851 0.2970
C7 C 0.43841(12) 0.4563(6) 0.13663(9)
C8 C 0.52361(12) 0.4145(5) 0.09416(9)
C9 C 0.55958(14) 0.2504(6) 0.12792(11)
H9 H 0.5811 0.3508 0.1519
H10 H 0.5882 0.1563 0.1129
H11 H 0.5329 0.1373 0.1409
C10 C 0.56214(14) 0.6092(6) 0.07699(12)
H12 H 0.5377 0.7120 0.0549
H13 H 0.5938 0.5310 0.0627
H14 H 0.5799 0.7112 0.1022
C11 C 0.48984(14) 0.2729(6) 0.05575(11)
H15 H 0.4675 0.3874 0.0347
H16 H 0.4621 0.1591 0.0675
H17 H 0.5180 0.1801 0.0401
C12 C 0.23955(12) 0.8988(5) 0.09705(10)
C13 C 0.20458(11) 0.8310(5) 0.05308(9)
C14 C 0.17339(11) 0.6126(5) 0.04686(9)
H18 H 0.1757 0.4953 0.0705
C15 C 0.13893(12) 0.5659(6) 0.00616(10)
H19 H 0.1161 0.4194 0.0023
C16 C 0.13753(13) 0.7298(6) -0.02883(10)
H20 H 0.1147 0.6939 -0.0570
C17 C 0.16902(13) 0.9452(6) -0.02316(10)
H21 H 0.1681 1.0583 -0.0473
C18 C 0.20208(12) 0.9968(5) 0.01788(10)
H22 H 0.2233 1.1473 0.0220
C19 C 0.22701(14) 0.4900(7) 0.19951(12)
H23 H 0.1842 0.4983 0.2017
H24 H 0.2493 0.4783 0.2298
H25 H 0.2353 0.3452 0.1820
loop_
_geom_bond_atom_site_label_1
_geom_bond_atom_site_label_2
_geom_bond_site_symmetry_1
_geom_bond_site_symmetry_2
O1 C5 1_555 1_555
O2 C5 1_555 1_555
O3 C7 1_555 1_555
O4 C7 1_555 1_555
O5 C12 1_555 1_555
N1 H1 1_555 1_555
C1 H2 1_555 1_555
C2 C1 1_555 1_555
H3 C2 1_555 1_555
C3 C1 1_555 1_555
H4 C3 1_555 1_555
C4 N1 1_555 1_555
H5 C4 1_555 1_555
C5 C4 1_555 1_555
C6 O2 1_555 1_555
H6 C6 1_555 1_555
H7 C6 1_555 1_555
H8 C6 1_555 1_555
C7 N1 1_555 1_555
C8 O4 1_555 1_555
C9 C8 1_555 1_555
H9 C9 1_555 1_555
H10 C9 1_555 1_555
H11 C9 1_555 1_555
C10 C8 1_555 1_555
H12 C10 1_555 1_555
H13 C10 1_555 1_555
H14 C10 1_555 1_555
C11 C8 1_555 1_555
H15 C11 1_555 1_555
H16 C11 1_555 1_555
H17 C11 1_555 1_555
C12 C2 1_555 1_555
C13 C12 1_555 1_555
C14 C13 1_555 1_555
H18 C14 1_555 1_555
C15 C14 1_555 1_555
H19 C15 1_555 1_555
C16 C15 1_555 1_555
H20 C16 1_555 1_555
C17 C16 1_555 1_555
H21 C17 1_555 1_555
C18 C13 1_555 1_555
H22 C18 1_555 1_555
C19 C3 1_555 1_555
H23 C19 1_555 1_555
H24 C19 1_555 1_555
H25 C19 1_555 1_555
C1 C4 1_555 1_555
C2 C3 1_555 1_555
C17 C18 1_555 1_555

#END
