
#######################################################################
#
#                 Cambridge Crystallographic Data Centre
#                                CCDC 
#
#######################################################################
#
# If this CIF has been generated from an entry in the Cambridge 
# Structural Database, then it will include bibliographic, chemical, 
# crystal, experimental, refinement or atomic coordinate data resulting 
# from the CCDC's data processing and validation procedures.
#
#######################################################################

data_KIZLOX
_chemical_formula_moiety         'C42 H30 O2'
_chemical_name_systematic        
9,9'-[1,2-bis(4-methoxyphenyl)ethane-1,2-diylidene]bis(9H-fluorene)
_symmetry_cell_setting           monoclinic
_symmetry_space_group_name_H-M   'P 21/n'
_symmetry_Int_Tables_number      14
_space_group_name_Hall           '-P 2yn'
loop_
_symmetry_equiv_pos_site_id
_symmetry_equiv_pos_as_xyz
1 x,y,z
2 1/2-x,1/2+y,1/2-z
3 -x,-y,-z
4 1/2+x,1/2-y,1/2+z
_cell_length_a                   9.7556(9)
_cell_length_b                   13.2560(11)
_cell_length_c                   23.463(2)
_cell_angle_alpha                90
_cell_angle_beta                 97.874(3)
_cell_angle_gamma                90
_cell_volume                     3005.63
_exptl_crystal_colour            yellow
_exptl_crystal_description       block
_cell_formula_units_Z            4
_exptl_crystal_recrystallization_method 'Hexane, Ethyl acetate'
loop_
_atom_site_label
_atom_site_type_symbol
_atom_site_fract_x
_atom_site_fract_y
_atom_site_fract_z
C1 C 0.39949(13) 0.60307(10) 0.16732(6)
C2 C 0.37127(13) 0.56600(10) 0.10714(6)
C3 C 0.31990(15) 0.61352(12) 0.05575(6)
H1 H 0.2945 0.6812 0.0556
C4 C 0.30690(16) 0.55957(13) 0.00491(7)
H2 H 0.2727 0.5914 -0.0294
C5 C 0.34383(18) 0.45936(14) 0.00433(7)
H3 H 0.3318 0.4238 -0.0302
C6 C 0.39848(17) 0.41120(12) 0.05442(7)
H4 H 0.4244 0.3437 0.0539
C7 C 0.41418(14) 0.46491(10) 0.10556(6)
C8 C 0.47190(13) 0.43444(10) 0.16348(6)
C9 C 0.52399(15) 0.34156(11) 0.18350(8)
H5 H 0.5276 0.2879 0.1582
C10 C 0.57011(16) 0.32994(12) 0.24108(8)
H6 H 0.6074 0.2686 0.2548
C11 C 0.56127(16) 0.40906(13) 0.27856(7)
H7 H 0.5912 0.3998 0.3176
C12 C 0.50865(15) 0.50229(12) 0.25940(7)
H8 H 0.5020 0.5545 0.2853
C13 C 0.46605(13) 0.51642(10) 0.20096(6)
C14 C 0.36201(13) 0.69352(10) 0.18743(6)
C15 C 0.26655(13) 0.76187(10) 0.15035(6)
C16 C 0.33255(13) 0.85678(10) 0.13384(6)
C17 C 0.46130(16) 0.85487(11) 0.11539(8)
H9 H 0.5053 0.7932 0.1128
C18 C 0.52662(17) 0.94187(12) 0.10071(8)
H10 H 0.6122 0.9381 0.0875
C19 C 0.46419(16) 1.03410(11) 0.10571(7)
C20 C 0.33864(16) 1.03845(11) 0.12654(7)
H11 H 0.2977 1.1007 0.1313
C21 C 0.27366(15) 0.95137(10) 0.14024(6)
H12 H 0.1889 0.9556 0.1540
C22 C 0.6461(2) 1.12298(17) 0.06863(11)
H13 H 0.6726 1.1908 0.0607
H14 H 0.7164 1.0927 0.0959
H15 H 0.6352 1.0845 0.0336
C23 C 0.41250(13) 0.73358(10) 0.24549(6)
C24 C 0.55357(14) 0.73797(11) 0.26632(6)
H16 H 0.6177 0.7149 0.2435
C25 C 0.59874(14) 0.77575(12) 0.31992(7)
H17 H 0.6931 0.7780 0.3331
C26 C 0.50503(15) 0.81063(12) 0.35480(6)
C27 C 0.36522(15) 0.80935(12) 0.33437(7)
H18 H 0.3014 0.8331 0.3572
C28 C 0.32092(14) 0.77261(11) 0.27997(6)
H19 H 0.2270 0.7741 0.2661
C29 C 0.4687(2) 0.89126(18) 0.44212(9)
H20 H 0.5200 0.9128 0.4779
H21 H 0.4245 0.9485 0.4223
H22 H 0.3998 0.8431 0.4495
C30 C 0.13097(13) 0.73881(9) 0.13539(6)
C31 C 0.03094(14) 0.78632(10) 0.08961(6)
C32 C 0.04997(17) 0.85149(11) 0.04492(7)
H23 H 0.1373 0.8774 0.0419
C33 C -0.0624(2) 0.87734(13) 0.00506(8)
H24 H -0.0497 0.9199 -0.0253
C34 C -0.19323(19) 0.84115(13) 0.00954(8)
H25 H -0.2682 0.8621 -0.0166
C35 C -0.21326(16) 0.77416(11) 0.05252(7)
H26 H -0.3011 0.7491 0.0553
C36 C -0.10091(14) 0.74469(10) 0.09148(6)
C37 C -0.09039(14) 0.66848(10) 0.13675(6)
C38 C -0.19223(15) 0.60942(11) 0.15584(6)
H27 H -0.2840 0.6155 0.1391
C39 C -0.15576(16) 0.54164(12) 0.19986(7)
H28 H -0.2231 0.5015 0.2130
C40 C -0.01901(16) 0.53319(12) 0.22457(7)
H29 H 0.0045 0.4870 0.2541
C41 C 0.08332(15) 0.59216(11) 0.20616(6)
H30 H 0.1746 0.5860 0.2235
C42 C 0.04893(13) 0.66074(10) 0.16160(6)
O1 O 0.51872(14) 1.12446(8) 0.09170(6)
O2 O 0.56043(11) 0.84581(10) 0.40738(5)
loop_
_geom_bond_atom_site_label_1
_geom_bond_atom_site_label_2
_geom_bond_site_symmetry_1
_geom_bond_site_symmetry_2
C1 C2 1_555 1_555
C2 C3 1_555 1_555
C3 H1 1_555 1_555
C4 C3 1_555 1_555
H2 C4 1_555 1_555
C5 C4 1_555 1_555
H3 C5 1_555 1_555
C6 C5 1_555 1_555
H4 C6 1_555 1_555
C7 C2 1_555 1_555
C8 C7 1_555 1_555
C9 C8 1_555 1_555
H5 C9 1_555 1_555
C10 C9 1_555 1_555
H6 C10 1_555 1_555
C11 C10 1_555 1_555
H7 C11 1_555 1_555
C12 C11 1_555 1_555
H8 C12 1_555 1_555
C13 C1 1_555 1_555
C14 C1 1_555 1_555
C15 C14 1_555 1_555
C16 C15 1_555 1_555
C17 C16 1_555 1_555
H9 C17 1_555 1_555
C18 C17 1_555 1_555
H10 C18 1_555 1_555
C19 C18 1_555 1_555
C20 C19 1_555 1_555
H11 C20 1_555 1_555
C21 C16 1_555 1_555
H12 C21 1_555 1_555
C22 H13 1_555 1_555
H14 C22 1_555 1_555
H15 C22 1_555 1_555
C23 C14 1_555 1_555
C24 C23 1_555 1_555
H16 C24 1_555 1_555
C25 C24 1_555 1_555
H17 C25 1_555 1_555
C26 C25 1_555 1_555
C27 C26 1_555 1_555
H18 C27 1_555 1_555
C28 C23 1_555 1_555
H19 C28 1_555 1_555
C29 H20 1_555 1_555
H21 C29 1_555 1_555
H22 C29 1_555 1_555
C30 C15 1_555 1_555
C31 C30 1_555 1_555
C32 C31 1_555 1_555
H23 C32 1_555 1_555
C33 C32 1_555 1_555
H24 C33 1_555 1_555
C34 C33 1_555 1_555
H25 C34 1_555 1_555
C35 C34 1_555 1_555
H26 C35 1_555 1_555
C36 C31 1_555 1_555
C37 C36 1_555 1_555
C38 C37 1_555 1_555
H27 C38 1_555 1_555
C39 C38 1_555 1_555
H28 C39 1_555 1_555
C40 C39 1_555 1_555
H29 C40 1_555 1_555
C41 C40 1_555 1_555
H30 C41 1_555 1_555
C42 C30 1_555 1_555
O1 C19 1_555 1_555
O2 C26 1_555 1_555
C6 C7 1_555 1_555
C8 C13 1_555 1_555
C12 C13 1_555 1_555
C20 C21 1_555 1_555
C22 O1 1_555 1_555
C27 C28 1_555 1_555
C29 O2 1_555 1_555
C35 C36 1_555 1_555
C37 C42 1_555 1_555
C41 C42 1_555 1_555

#END
