
#######################################################################
#
#                 Cambridge Crystallographic Data Centre
#                                CCDC 
#
#######################################################################
#
# If this CIF has been generated from an entry in the Cambridge 
# Structural Database, then it will include bibliographic, chemical, 
# crystal, experimental, refinement or atomic coordinate data resulting 
# from the CCDC's data processing and validation procedures.
#
#######################################################################

data_KIZLAJ
_chemical_formula_moiety         'C22 H22'
_chemical_name_systematic        
1,1'-(1,2-dicyclobutylideneethane-1,2-diyl)dibenzene
_symmetry_cell_setting           tetragonal
_symmetry_space_group_name_H-M   'I -4'
_symmetry_Int_Tables_number      82
_space_group_name_Hall           'I -4'
loop_
_symmetry_equiv_pos_site_id
_symmetry_equiv_pos_as_xyz
1 x,y,z
2 -x,-y,z
3 y,-x,-z
4 -y,x,-z
5 1/2+x,1/2+y,1/2+z
6 1/2-x,1/2-y,1/2+z
7 1/2+y,1/2-x,1/2-z
8 1/2-y,1/2+x,1/2-z
_cell_length_a                   17.923(16)
_cell_length_b                   17.923(16)
_cell_length_c                   10.625(9)
_cell_angle_alpha                90
_cell_angle_beta                 90
_cell_angle_gamma                90
_cell_volume                     3413.11
_exptl_crystal_colour            colorless
_exptl_crystal_description       block
_cell_formula_units_Z            8
_exptl_crystal_recrystallization_method hexane
loop_
_atom_site_label
_atom_site_type_symbol
_atom_site_fract_x
_atom_site_fract_y
_atom_site_fract_z
C1 C 0.34517(15) 0.27365(16) 0.1071(3)
C2 C 0.3819(2) 0.32082(18) 0.0221(4)
H1 H 0.4024 0.3009 -0.0509
C3 C 0.3881(2) 0.39622(19) 0.0451(4)
H2 H 0.4124 0.4264 -0.0131
C4 C 0.3592(2) 0.4276(2) 0.1519(4)
H3 H 0.3636 0.4785 0.1666
C5 C 0.3235(3) 0.3824(2) 0.2367(4)
H4 H 0.3038 0.4029 0.3099
C6 C 0.3165(2) 0.3066(2) 0.2149(3)
H5 H 0.2920 0.2770 0.2739
C7 C 0.33660(15) 0.19206(16) 0.0833(2)
C8 C 0.36226(16) 0.15623(16) -0.0184(3)
C9 C 0.4040(2) 0.1737(2) -0.1406(3)
H6 H 0.4552 0.1893 -0.1279
H7 H 0.3777 0.2081 -0.1955
C10 C 0.3957(3) 0.0914(2) -0.1787(4)
H8 H 0.3636 0.0839 -0.2510
H9 H 0.4430 0.0659 -0.1897
C11 C 0.3576(2) 0.07432(18) -0.0525(3)
H10 H 0.3069 0.0560 -0.0610
H11 H 0.3867 0.0422 0.0022
C12 C 0.29410(16) 0.14611(16) 0.1791(2)
C13 C 0.33032(17) 0.11894(17) 0.2788(3)
C14 C 0.41032(19) 0.1277(2) 0.3219(3)
H12 H 0.4272 0.1791 0.3255
H13 H 0.4455 0.0968 0.2761
C15 C 0.3871(2) 0.0952(3) 0.4517(3)
H14 H 0.4156 0.0516 0.4765
H15 H 0.3861 0.1319 0.5187
C16 C 0.31006(19) 0.0766(2) 0.3987(3)
H16 H 0.3018 0.0237 0.3857
H17 H 0.2692 0.0988 0.4455
C17 C 0.21339(16) 0.13309(17) 0.1543(2)
C18 C 0.17252(18) 0.1828(2) 0.0808(3)
H18 H 0.1960 0.2247 0.0475
C19 C 0.0974(2) 0.1708(3) 0.0564(3)
H19 H 0.0711 0.2048 0.0073
C20 C 0.0616(2) 0.1093(3) 0.1042(3)
H20 H 0.0112 0.1016 0.0879
C21 C 0.1006(2) 0.0594(2) 0.1759(4)
H21 H 0.0766 0.0176 0.2080
C22 C 0.17549(19) 0.0708(2) 0.2012(3)
H22 H 0.2011 0.0363 0.2504
loop_
_geom_bond_atom_site_label_1
_geom_bond_atom_site_label_2
_geom_bond_site_symmetry_1
_geom_bond_site_symmetry_2
C1 C2 1_555 1_555
C2 H1 1_555 1_555
C3 C2 1_555 1_555
H2 C3 1_555 1_555
C4 C3 1_555 1_555
H3 C4 1_555 1_555
C5 C4 1_555 1_555
H4 C5 1_555 1_555
C6 C1 1_555 1_555
H5 C6 1_555 1_555
C7 C1 1_555 1_555
C8 C7 1_555 1_555
C9 C8 1_555 1_555
H6 C9 1_555 1_555
H7 C9 1_555 1_555
C10 C9 1_555 1_555
H8 C10 1_555 1_555
H9 C10 1_555 1_555
C11 C8 1_555 1_555
H10 C11 1_555 1_555
H11 C11 1_555 1_555
C12 C7 1_555 1_555
C13 C12 1_555 1_555
C14 C13 1_555 1_555
H12 C14 1_555 1_555
H13 C14 1_555 1_555
C15 C14 1_555 1_555
H14 C15 1_555 1_555
H15 C15 1_555 1_555
C16 C13 1_555 1_555
H16 C16 1_555 1_555
H17 C16 1_555 1_555
C17 C12 1_555 1_555
C18 C17 1_555 1_555
H18 C18 1_555 1_555
C19 C18 1_555 1_555
H19 C19 1_555 1_555
C20 C19 1_555 1_555
H20 C20 1_555 1_555
C21 C20 1_555 1_555
H21 C21 1_555 1_555
C22 C17 1_555 1_555
H22 C22 1_555 1_555
C5 C6 1_555 1_555
C10 C11 1_555 1_555
C15 C16 1_555 1_555
C21 C22 1_555 1_555

#END
