
#######################################################################
#
#                 Cambridge Crystallographic Data Centre
#                                CCDC 
#
#######################################################################
#
# If this CIF has been generated from an entry in the Cambridge 
# Structural Database, then it will include bibliographic, chemical, 
# crystal, experimental, refinement or atomic coordinate data resulting 
# from the CCDC's data processing and validation procedures.
#
#######################################################################

data_KIZNUE
_chemical_formula_moiety         'C9 H9 N3 O2 S1'
_chemical_name_systematic        '2-(Carbamothioylcarbohydrazonoyl)benzoic acid'
_symmetry_cell_setting           monoclinic
_symmetry_space_group_name_H-M   'C 2/c'
_symmetry_Int_Tables_number      15
_space_group_name_Hall           '-C 2yn'
loop_
_symmetry_equiv_pos_site_id
_symmetry_equiv_pos_as_xyz
1 x,y,z
2 -x,y,1/2-z
3 1/2+x,1/2+y,z
4 1/2-x,1/2+y,1/2-z
5 -x,-y,-z
6 x,-y,1/2+z
7 1/2-x,1/2-y,-z
8 1/2+x,1/2-y,1/2+z
_cell_length_a                   26.905(3)
_cell_length_b                   5.4193(6)
_cell_length_c                   17.7087(18)
_cell_angle_alpha                90
_cell_angle_beta                 128.713(2)
_cell_angle_gamma                90
_cell_volume                     2014.74
_exptl_crystal_colour            colorless
_exptl_crystal_description       needle
_cell_formula_units_Z            8
loop_
_atom_site_label
_atom_site_type_symbol
_atom_site_fract_x
_atom_site_fract_y
_atom_site_fract_z
S1 S 0.21114(4) 0.52206(19) 1.04843(7)
N1 N 0.09754(10) 0.7073(5) 0.96485(17)
H1 H 0.0921 0.5883 0.9912
N2 N 0.05004(10) 0.8789(5) 0.90860(16)
N3 N 0.15680(11) 0.9063(5) 0.93306(18)
H2 H 0.1252 1.0051 0.8966
H3 H 0.1911 0.9253 0.9397
O1 O -0.08121(9) 0.6796(4) 0.94052(15)
O2 O -0.17840(10) 0.8334(5) 0.85299(17)
H4 H -0.1827 0.7254 0.8810
C1 C 0.15269(13) 0.7272(6) 0.9784(2)
C2 C -0.11995(13) 0.8269(6) 0.8816(2)
C3 C 0.00144(12) 0.8585(6) 0.90508(19)
H5 H -0.0007 0.7331 0.9388
C4 C -0.05105(12) 1.0351(5) 0.84723(18)
C5 C -0.10860(12) 1.0185(5) 0.83400(18)
C6 C -0.15617(13) 1.1931(6) 0.7747(2)
H6 H -0.1941 1.1842 0.7657
C7 C -0.14872(15) 1.3766(6) 0.7295(2)
H7 H -0.1815 1.4884 0.6895
C8 C -0.09241(16) 1.3943(6) 0.7437(2)
H8 H -0.0868 1.5197 0.7139
C9 C -0.04454(14) 1.2267(6) 0.8020(2)
H9 H -0.0066 1.2422 0.8115
loop_
_geom_bond_atom_site_label_1
_geom_bond_atom_site_label_2
_geom_bond_site_symmetry_1
_geom_bond_site_symmetry_2
S1 C1 1_555 1_555
N1 H1 1_555 1_555
N2 N1 1_555 1_555
N3 H2 1_555 1_555
H3 N3 1_555 1_555
O1 C2 1_555 1_555
O2 H4 1_555 1_555
C1 N1 1_555 1_555
C2 O2 1_555 1_555
C3 N2 1_555 1_555
H5 C3 1_555 1_555
C4 C3 1_555 1_555
C5 C2 1_555 1_555
C6 C5 1_555 1_555
H6 C6 1_555 1_555
C7 C6 1_555 1_555
H7 C7 1_555 1_555
C8 C7 1_555 1_555
H8 C8 1_555 1_555
C9 C4 1_555 1_555
H9 C9 1_555 1_555
N3 C1 1_555 1_555
C4 C5 1_555 1_555
C8 C9 1_555 1_555

#END
