
#######################################################################
#
#                 Cambridge Crystallographic Data Centre
#                                CCDC 
#
#######################################################################
#
# If this CIF has been generated from an entry in the Cambridge 
# Structural Database, then it will include bibliographic, chemical, 
# crystal, experimental, refinement or atomic coordinate data resulting 
# from the CCDC's data processing and validation procedures.
#
#######################################################################

data_KIZQOB
_chemical_formula_moiety         'C17 H14 N4 O4,0.5(C3 H7 N1 O1)'
_chemical_name_systematic        
"N'-((2-hydroxy-1-naphthyl)methylene)-1-methyl-4-nitro-1H-pyrrole-2-carbohydrazide N,N-dimethylformamide solvate"
_symmetry_cell_setting           triclinic
_symmetry_space_group_name_H-M   'P -1'
_symmetry_Int_Tables_number      2
_space_group_name_Hall           '-P 1'
loop_
_symmetry_equiv_pos_site_id
_symmetry_equiv_pos_as_xyz
1 x,y,z
2 -x,-y,-z
_cell_length_a                   8.6240(10)
_cell_length_b                   13.3601(15)
_cell_length_c                   16.2989(18)
_cell_angle_alpha                104.831(2)
_cell_angle_beta                 90.1160(10)
_cell_angle_gamma                100.5800(10)
_cell_volume                     1782.12
_exptl_crystal_colour            yellow
_exptl_crystal_description       lamellar
_cell_formula_units_Z            4
loop_
_atom_site_label
_atom_site_type_symbol
_atom_site_fract_x
_atom_site_fract_y
_atom_site_fract_z
N1 N 0.6339(3) 0.1315(2) 0.57894(16)
H1 H 0.6047 0.1630 0.6277
N2 N 0.6052(3) 0.1633(2) 0.50756(15)
N3 N 0.8202(3) -0.0565(2) 0.65481(17)
N4 N 0.7113(4) 0.0131(3) 0.86964(19)
O1 O 0.7538(3) 0.00432(19) 0.50262(14)
O2 O 0.6493(3) 0.1638(2) 0.35258(14)
H2 H 0.6631 0.1484 0.3973
O3 O 0.6417(4) 0.0830(3) 0.90666(17)
O4 O 0.7668(3) -0.0436(2) 0.90570(15)
C1 C 0.7093(4) 0.0493(3) 0.5707(2)
C2 C 0.7321(4) 0.0187(2) 0.6501(2)
C3 C 0.6769(4) 0.0546(3) 0.7286(2)
H3 H 0.6141 0.1054 0.7440
C4 C 0.7329(4) 0.0004(3) 0.7811(2)
C5 C 0.8203(4) -0.0680(3) 0.7342(2)
H4 H 0.8704 -0.1140 0.7539
C6 C 0.9080(4) -0.1149(3) 0.5881(2)
H5 H 0.9660 -0.1567 0.6116
H6 H 0.9801 -0.0660 0.5656
H7 H 0.8354 -0.1601 0.5434
C7 C 0.5268(4) 0.2376(3) 0.5154(2)
H8 H 0.4908 0.2673 0.5681
C8 C 0.4935(4) 0.2759(3) 0.4429(2)
C9 C 0.5570(4) 0.2382(3) 0.3654(2)
C10 C 0.5296(5) 0.2762(3) 0.2952(2)
H9 H 0.5724 0.2495 0.2436
C11 C 0.4414(5) 0.3512(3) 0.3019(2)
H10 H 0.4250 0.3758 0.2548
C12 C 0.3734(4) 0.3933(3) 0.3787(2)
C13 C 0.3981(4) 0.3547(3) 0.4499(2)
C14 C 0.3244(4) 0.3968(3) 0.5246(2)
H11 H 0.3381 0.3730 0.5726
C15 C 0.2337(4) 0.4712(3) 0.5288(3)
H12 H 0.1860 0.4969 0.5789
C16 C 0.2117(5) 0.5092(3) 0.4582(3)
H13 H 0.1495 0.5599 0.4613
C17 C 0.2819(5) 0.4717(3) 0.3850(3)
H14 H 0.2692 0.4982 0.3385
N5 N 0.1961(3) 0.5255(2) 0.06145(16)
H15 H 0.1879 0.5413 0.0139
N6 N 0.1377(3) 0.5807(2) 0.13358(16)
N7 N 0.4201(3) 0.3140(2) -0.01532(16)
N8 N 0.4609(4) 0.3442(3) -0.22498(19)
O5 O 0.2727(3) 0.41793(19) 0.13382(14)
O6 O 0.0902(3) 0.6146(2) 0.29187(14)
H16 H 0.1260 0.5869 0.2469
O7 O 0.4110(3) 0.4030(2) -0.26040(15)
O8 O 0.5404(3) 0.2778(2) -0.26144(16)
C18 C 0.2677(4) 0.4448(3) 0.0677(2)
C19 C 0.3372(4) 0.3947(2) -0.01066(19)
C20 C 0.3431(4) 0.4181(2) -0.08759(19)
H17 H 0.2986 0.4696 -0.1027
C21 C 0.4290(4) 0.3497(3) -0.1389(2)
C22 C 0.4755(4) 0.2867(3) -0.0930(2)
H18 H 0.5346 0.2345 -0.1123
C23 C 0.4422(5) 0.2597(3) 0.0506(2)
H19 H 0.4998 0.2044 0.0285
H20 H 0.3410 0.2301 0.0673
H21 H 0.5004 0.3093 0.0990
C24 C 0.0754(4) 0.6592(3) 0.1297(2)
H22 H 0.0715 0.6780 0.0787
C25 C 0.0105(4) 0.7192(2) 0.20449(19)
C26 C 0.0200(4) 0.6936(3) 0.2813(2)
C27 C -0.0451(4) 0.7492(3) 0.3543(2)
H23 H -0.0343 0.7328 0.4058
C28 C -0.1230(4) 0.8264(3) 0.3493(2)
H24 H -0.1675 0.8614 0.3976
C29 C -0.1389(4) 0.8554(3) 0.2729(2)
C30 C -0.0686(4) 0.8028(2) 0.19954(19)
C31 C -0.0833(4) 0.8372(3) 0.1251(2)
H25 H -0.0360 0.8061 0.0763
C32 C -0.1654(4) 0.9150(3) 0.1229(2)
H26 H -0.1740 0.9355 0.0730
C33 C -0.2365(4) 0.9640(3) 0.1956(3)
H27 H -0.2935 1.0161 0.1937
C34 C -0.2221(4) 0.9352(3) 0.2684(2)
H28 H -0.2682 0.9689 0.3167
N9 N 0.9038(4) 0.2986(2) 0.16819(19)
O9 O 0.8237(3) 0.3709(2) 0.06840(17)
C35 C 0.8609(4) 0.3745(3) 0.1419(3)
H29 H 0.8584 0.4372 0.1827
C36 C 0.9586(5) 0.3130(3) 0.2553(2)
H30 H 0.9376 0.3785 0.2897
H31 H 1.0701 0.3140 0.2575
H32 H 0.9043 0.2559 0.2763
C37 C 0.9195(6) 0.2021(3) 0.1082(3)
H33 H 0.8524 0.1916 0.0585
H34 H 0.8893 0.1443 0.1333
H35 H 1.0273 0.2059 0.0926
loop_
_geom_bond_atom_site_label_1
_geom_bond_atom_site_label_2
_geom_bond_site_symmetry_1
_geom_bond_site_symmetry_2
N1 H1 1_555 1_555
N2 N1 1_555 1_555
N3 C2 1_555 1_555
N4 O3 1_555 1_555
O1 C1 1_555 1_555
O2 H2 1_555 1_555
O4 N4 1_555 1_555
C1 N1 1_555 1_555
C2 C1 1_555 1_555
C3 C2 1_555 1_555
H3 C3 1_555 1_555
C4 N4 1_555 1_555
C5 N3 1_555 1_555
H4 C5 1_555 1_555
C6 N3 1_555 1_555
H5 C6 1_555 1_555
H6 C6 1_555 1_555
H7 C6 1_555 1_555
C7 N2 1_555 1_555
H8 C7 1_555 1_555
C8 C7 1_555 1_555
C9 O2 1_555 1_555
C10 C9 1_555 1_555
H9 C10 1_555 1_555
C11 C10 1_555 1_555
H10 C11 1_555 1_555
C12 C11 1_555 1_555
C13 C8 1_555 1_555
C14 C13 1_555 1_555
H11 C14 1_555 1_555
C15 C14 1_555 1_555
H12 C15 1_555 1_555
C16 C15 1_555 1_555
H13 C16 1_555 1_555
C17 C12 1_555 1_555
H14 C17 1_555 1_555
N5 H15 1_555 1_555
N6 N5 1_555 1_555
N7 C19 1_555 1_555
N8 O7 1_555 1_555
O5 C18 1_555 1_555
O6 H16 1_555 1_555
O8 N8 1_555 1_555
C18 N5 1_555 1_555
C19 C18 1_555 1_555
C20 C19 1_555 1_555
H17 C20 1_555 1_555
C21 N8 1_555 1_555
C22 N7 1_555 1_555
H18 C22 1_555 1_555
C23 N7 1_555 1_555
H19 C23 1_555 1_555
H20 C23 1_555 1_555
H21 C23 1_555 1_555
C24 N6 1_555 1_555
H22 C24 1_555 1_555
C25 C24 1_555 1_555
C26 O6 1_555 1_555
C27 C26 1_555 1_555
H23 C27 1_555 1_555
C28 C27 1_555 1_555
H24 C28 1_555 1_555
C29 C28 1_555 1_555
C30 C25 1_555 1_555
C31 C30 1_555 1_555
H25 C31 1_555 1_555
C32 C31 1_555 1_555
H26 C32 1_555 1_555
C33 C32 1_555 1_555
H27 C33 1_555 1_555
C34 C29 1_555 1_555
H28 C34 1_555 1_555
N9 C35 1_555 1_555
O9 C35 1_555 1_555
C35 H29 1_555 1_555
C36 N9 1_555 1_555
H30 C36 1_555 1_555
H31 C36 1_555 1_555
H32 C36 1_555 1_555
C37 N9 1_555 1_555
H33 C37 1_555 1_555
H34 C37 1_555 1_555
H35 C37 1_555 1_555
C3 C4 1_555 1_555
C4 C5 1_555 1_555
C8 C9 1_555 1_555
C12 C13 1_555 1_555
C16 C17 1_555 1_555
C20 C21 1_555 1_555
C21 C22 1_555 1_555
C25 C26 1_555 1_555
C29 C30 1_555 1_555
C33 C34 1_555 1_555

#END
