
#######################################################################
#
#                 Cambridge Crystallographic Data Centre
#                                CCDC 
#
#######################################################################
#
# If this CIF has been generated from an entry in the Cambridge 
# Structural Database, then it will include bibliographic, chemical, 
# crystal, experimental, refinement or atomic coordinate data resulting 
# from the CCDC's data processing and validation procedures.
#
#######################################################################

data_KIZQUG
_chemical_formula_moiety         'C26 H20 Br1 N1 O1'
_chemical_name_systematic        2-Bromo-N-(trityl)benzamide
_symmetry_cell_setting           orthorhombic
_symmetry_space_group_name_H-M   'P c a 21'
_symmetry_Int_Tables_number      29
_space_group_name_Hall           'P 2c -2ac'
loop_
_symmetry_equiv_pos_site_id
_symmetry_equiv_pos_as_xyz
1 x,y,z
2 -x,-y,1/2+z
3 1/2+x,-y,z
4 1/2-x,y,1/2+z
_cell_length_a                   22.235(9)
_cell_length_b                   9.365(4)
_cell_length_c                   9.955(4)
_cell_angle_alpha                90
_cell_angle_beta                 90
_cell_angle_gamma                90
_cell_volume                     2072.94
_exptl_crystal_colour            colorless
_exptl_crystal_description       prismatic
_chemical_melting_point          '168-169 deg.C'
_cell_formula_units_Z            4
_exptl_crystal_recrystallization_method chloroform
loop_
_atom_site_label
_atom_site_type_symbol
_atom_site_fract_x
_atom_site_fract_y
_atom_site_fract_z
Br1 Br 0.75587(4) 0.59018(10) 0.8395(4)
N1 N 0.7168(2) 0.9724(6) 0.8300(10)
H1 H 0.7340 0.9958 0.7558
O1 O 0.7366(3) 0.9122(6) 1.0387(6)
C1 C 0.7519(3) 0.9112(8) 0.9256(10)
C2 C 0.6516(2) 1.0025(6) 0.8421(12)
C3 C 0.8104(3) 0.8609(9) 0.857(2)
C4 C 0.8595(3) 0.9580(9) 0.8485(18)
H2 H 0.8531 1.0561 0.8499
C5 C 0.9161(3) 0.9035(10) 0.8383(16)
H3 H 0.9486 0.9649 0.8277
C6 C 0.9256(4) 0.7603(11) 0.843(2)
H4 H 0.9647 0.7256 0.8488
C7 C 0.8782(4) 0.6656(9) 0.8406(18)
H5 H 0.8850 0.5677 0.8380
C8 C 0.8214(3) 0.7179(8) 0.8419(19)
C9 C 0.6221(2) 0.8539(6) 0.8384(13)
C10 C 0.6123(5) 0.7743(13) 0.7253(11)
H6 H 0.6201 0.8187 0.6435
C11 C 0.5930(5) 0.6420(13) 0.7200(12)
H7 H 0.5870 0.5977 0.6374
C12 C 0.5817(3) 0.5701(7) 0.8360(16)
H8 H 0.5678 0.4765 0.8339
C13 C 0.5915(6) 0.6393(14) 0.9591(14)
H9 H 0.5845 0.5905 1.0389
C14 C 0.6123(4) 0.7849(11) 0.9632(11)
H10 H 0.6189 0.8316 1.0442
C15 C 0.6337(5) 1.0953(10) 0.9589(9)
C16 C 0.5764(6) 1.0984(11) 1.0065(11)
H11 H 0.5497 1.0309 0.9729
C17 C 0.5552(7) 1.1911(19) 1.0981(12)
H12 H 0.5151 1.1900 1.1246
C18 C 0.5947(9) 1.2860(17) 1.1501(14)
H13 H 0.5824 1.3470 1.2186
C19 C 0.6523(8) 1.2935(13) 1.1034(14)
H14 H 0.6775 1.3663 1.1324
C20 C 0.6724(5) 1.1963(15) 1.0160(12)
H15 H 0.7129 1.1958 0.9926
C21 C 0.6342(5) 1.0961(11) 0.7186(9)
C22 C 0.5745(4) 1.0948(12) 0.6755(10)
H16 H 0.5477 1.0278 0.7095
C23 C 0.5556(6) 1.1937(13) 0.5818(13)
H17 H 0.5160 1.1902 0.5518
C24 C 0.5928(7) 1.2966(15) 0.5316(12)
H18 H 0.5780 1.3666 0.4741
C25 C 0.6555(6) 1.2947(14) 0.5694(12)
H19 H 0.6833 1.3557 0.5294
C26 C 0.6732(5) 1.1952(11) 0.6705(11)
H20 H 0.7121 1.1984 0.7041
loop_
_geom_bond_atom_site_label_1
_geom_bond_atom_site_label_2
_geom_bond_site_symmetry_1
_geom_bond_site_symmetry_2
Br1 C8 1_555 1_555
N1 H1 1_555 1_555
O1 C1 1_555 1_555
C1 N1 1_555 1_555
C2 N1 1_555 1_555
C3 C1 1_555 1_555
C4 C3 1_555 1_555
H2 C4 1_555 1_555
C5 C4 1_555 1_555
H3 C5 1_555 1_555
C6 C5 1_555 1_555
H4 C6 1_555 1_555
C7 C6 1_555 1_555
H5 C7 1_555 1_555
C8 C3 1_555 1_555
C9 C2 1_555 1_555
C10 C9 1_555 1_555
H6 C10 1_555 1_555
C11 C10 1_555 1_555
H7 C11 1_555 1_555
C12 C11 1_555 1_555
H8 C12 1_555 1_555
C13 C12 1_555 1_555
H9 C13 1_555 1_555
C14 C9 1_555 1_555
H10 C14 1_555 1_555
C15 C2 1_555 1_555
C16 C15 1_555 1_555
H11 C16 1_555 1_555
C17 C16 1_555 1_555
H12 C17 1_555 1_555
C18 C17 1_555 1_555
H13 C18 1_555 1_555
C19 C18 1_555 1_555
H14 C19 1_555 1_555
C20 C15 1_555 1_555
H15 C20 1_555 1_555
C21 C2 1_555 1_555
C22 C21 1_555 1_555
H16 C22 1_555 1_555
C23 C22 1_555 1_555
H17 C23 1_555 1_555
C24 C23 1_555 1_555
H18 C24 1_555 1_555
C25 C24 1_555 1_555
H19 C25 1_555 1_555
C26 C21 1_555 1_555
H20 C26 1_555 1_555
C7 C8 1_555 1_555
C13 C14 1_555 1_555
C19 C20 1_555 1_555
C25 C26 1_555 1_555

#END
