
#######################################################################
#
#                 Cambridge Crystallographic Data Centre
#                                CCDC 
#
#######################################################################
#
# If this CIF has been generated from an entry in the Cambridge 
# Structural Database, then it will include bibliographic, chemical, 
# crystal, experimental, refinement or atomic coordinate data resulting 
# from the CCDC's data processing and validation procedures.
#
#######################################################################

data_KIZQAM
_chemical_formula_moiety         'C26 H20 Cl1 N1 O1'
_chemical_name_systematic        N-(2-Chlorophenyl)-2,2,2-triphenylacetamide
_symmetry_cell_setting           triclinic
_symmetry_space_group_name_H-M   'P -1'
_symmetry_Int_Tables_number      2
_space_group_name_Hall           '-P 1'
loop_
_symmetry_equiv_pos_site_id
_symmetry_equiv_pos_as_xyz
1 x,y,z
2 -x,-y,-z
_cell_length_a                   9.4867(18)
_cell_length_b                   9.7306(18)
_cell_length_c                   12.954(2)
_cell_angle_alpha                73.327(4)
_cell_angle_beta                 75.438(4)
_cell_angle_gamma                65.863(3)
_cell_volume                     1033
_exptl_crystal_colour            colorless
_exptl_crystal_description       prismatic
_chemical_melting_point          '162-163 deg.C'
_cell_formula_units_Z            2
_exptl_crystal_recrystallization_method chloroform
loop_
_atom_site_label
_atom_site_type_symbol
_atom_site_fract_x
_atom_site_fract_y
_atom_site_fract_z
Cl1 Cl -0.1722(2) 0.65515(19) 0.07435(12)
O1 O 0.2553(4) 0.4436(4) 0.3102(3)
N1 N 0.0894(5) 0.4803(4) 0.1971(3)
C1 C 0.1620(5) 0.4054(5) 0.2884(3)
C2 C 0.1167(7) 0.5989(5) 0.1144(4)
C3 C 0.2552(8) 0.6249(7) 0.0913(4)
H1 H 0.3345 0.5643 0.1330
C4 C 0.2748(12) 0.7444(9) 0.0035(6)
H2 H 0.3672 0.7637 -0.0135
C5 C 0.1526(15) 0.8339(10) -0.0579(6)
H3 H 0.1636 0.9142 -0.1149
C6 C 0.0191(12) 0.8046(8) -0.0351(5)
H4 H -0.0590 0.8638 -0.0781
C7 C -0.0038(8) 0.6909(5) 0.0490(4)
C8 C 0.1163(4) 0.2656(4) 0.3571(3)
C9 C 0.2208(4) 0.1242(4) 0.3059(3)
C10 C 0.2236(4) -0.0220(4) 0.3618(3)
H5 H 0.1623 -0.0326 0.4299
C11 C 0.3140(5) -0.1513(5) 0.3197(4)
H6 H 0.3131 -0.2474 0.3591
C12 C 0.4060(6) -0.1383(6) 0.2190(4)
H7 H 0.4655 -0.2246 0.1889
C13 C 0.4082(6) 0.0053(6) 0.1634(4)
H8 H 0.4728 0.0146 0.0967
C14 C 0.3169(5) 0.1343(5) 0.2051(3)
H9 H 0.3190 0.2299 0.1655
C15 C 0.1558(4) 0.2280(4) 0.4741(3)
C16 C 0.0435(5) 0.2322(4) 0.5665(3)
H10 H -0.0607 0.2632 0.5589
C17 C 0.0835(5) 0.1909(4) 0.6705(3)
H11 H 0.0068 0.1924 0.7316
C18 C 0.2369(6) 0.1478(5) 0.6824(4)
H12 H 0.2640 0.1229 0.7514
C19 C 0.3490(5) 0.1418(4) 0.5920(4)
H13 H 0.4527 0.1112 0.6003
C20 C 0.3112(4) 0.1803(4) 0.4878(3)
H14 H 0.3894 0.1743 0.4274
C21 C -0.0584(4) 0.3045(4) 0.3578(3)
C22 C -0.1667(4) 0.4416(4) 0.3908(3)
H15 H -0.1308 0.5044 0.4111
C23 C -0.3253(5) 0.4833(5) 0.3932(4)
H16 H -0.3954 0.5734 0.4153
C24 C -0.3794(5) 0.3909(5) 0.3627(4)
H17 H -0.4860 0.4194 0.3639
C25 C -0.2784(5) 0.2599(5) 0.3312(4)
H18 H -0.3155 0.1975 0.3116
C26 C -0.1167(5) 0.2173(4) 0.3279(3)
H19 H -0.0481 0.1274 0.3049
H20 H 0.034(5) 0.443(6) 0.182(4)
loop_
_geom_bond_atom_site_label_1
_geom_bond_atom_site_label_2
_geom_bond_site_symmetry_1
_geom_bond_site_symmetry_2
Cl1 C7 1_555 1_555
O1 C1 1_555 1_555
N1 C1 1_555 1_555
C1 C8 1_555 1_555
C2 N1 1_555 1_555
C3 C2 1_555 1_555
H1 C3 1_555 1_555
C4 C3 1_555 1_555
H2 C4 1_555 1_555
C5 C4 1_555 1_555
H3 C5 1_555 1_555
C6 C5 1_555 1_555
H4 C6 1_555 1_555
C7 C2 1_555 1_555
C8 C9 1_555 1_555
C9 C10 1_555 1_555
C10 H5 1_555 1_555
C11 C10 1_555 1_555
H6 C11 1_555 1_555
C12 C11 1_555 1_555
H7 C12 1_555 1_555
C13 C12 1_555 1_555
H8 C13 1_555 1_555
C14 C9 1_555 1_555
H9 C14 1_555 1_555
C15 C8 1_555 1_555
C16 C15 1_555 1_555
H10 C16 1_555 1_555
C17 C16 1_555 1_555
H11 C17 1_555 1_555
C18 C17 1_555 1_555
H12 C18 1_555 1_555
C19 C18 1_555 1_555
H13 C19 1_555 1_555
C20 C15 1_555 1_555
H14 C20 1_555 1_555
C21 C8 1_555 1_555
C22 C21 1_555 1_555
H15 C22 1_555 1_555
C23 C22 1_555 1_555
H16 C23 1_555 1_555
C24 C23 1_555 1_555
H17 C24 1_555 1_555
C25 C24 1_555 1_555
H18 C25 1_555 1_555
C26 C21 1_555 1_555
H19 C26 1_555 1_555
H20 N1 1_555 1_555
C6 C7 1_555 1_555
C13 C14 1_555 1_555
C19 C20 1_555 1_555
C25 C26 1_555 1_555

#END
