
#######################################################################
#
#                 Cambridge Crystallographic Data Centre
#                                CCDC 
#
#######################################################################
#
# If this CIF has been generated from an entry in the Cambridge 
# Structural Database, then it will include bibliographic, chemical, 
# crystal, experimental, refinement or atomic coordinate data resulting 
# from the CCDC's data processing and validation procedures.
#
#######################################################################

data_KIZROB
_chemical_formula_moiety         'C26 H20 Cl1 N1 O1,0.25(C4 H10 O1)'
_chemical_name_systematic        
'4-Chloro-N-(trityl)benzamide diethyl ether solvate'
_symmetry_cell_setting           triclinic
_symmetry_space_group_name_H-M   'P -1'
_symmetry_Int_Tables_number      2
_space_group_name_Hall           '-P 1'
loop_
_symmetry_equiv_pos_site_id
_symmetry_equiv_pos_as_xyz
1 x,y,z
2 -x,-y,-z
_cell_length_a                   10.7778(12)
_cell_length_b                   13.2754(15)
_cell_length_c                   17.2895(19)
_cell_angle_alpha                70.540(2)
_cell_angle_beta                 73.205(2)
_cell_angle_gamma                78.971(2)
_cell_volume                     2220.55
_exptl_crystal_colour            colorless
_exptl_crystal_description       prismatic
_cell_formula_units_Z            4
loop_
_atom_site_label
_atom_site_type_symbol
_atom_site_fract_x
_atom_site_fract_y
_atom_site_fract_z
Cl2 Cl 0.56989(16) 0.41051(10) 0.24760(10)
N2 N 0.4616(3) 0.9388(2) 0.22759(19)
O2 O 0.6806(3) 0.9084(2) 0.18737(16)
C27 C 0.5740(4) 0.8756(3) 0.2089(2)
C28 C 0.5638(4) 0.7615(3) 0.2166(2)
C29 C 0.4556(4) 0.7077(3) 0.2605(2)
H20 H 0.3796 0.7447 0.2842
C30 C 0.4574(4) 0.6004(3) 0.2703(3)
H21 H 0.3839 0.5648 0.3008
C31 C 0.5680(5) 0.5472(3) 0.2346(3)
C32 C 0.6768(4) 0.5976(3) 0.1897(3)
H22 H 0.7516 0.5601 0.1653
C33 C 0.6747(4) 0.7051(3) 0.1807(2)
H23 H 0.7488 0.7400 0.1503
C34 C 0.4559(4) 1.0489(3) 0.2341(2)
C35 C 0.4832(4) 1.1324(3) 0.1455(2)
C36 C 0.5302(4) 1.1042(4) 0.0716(3)
H24 H 0.5493 1.0320 0.0740
C37 C 0.5491(5) 1.1827(5) -0.0063(3)
H25 H 0.5804 1.1628 -0.0558
C38 C 0.5220(6) 1.2893(5) -0.0106(4)
H26 H 0.5357 1.3417 -0.0629
C39 C 0.4746(5) 1.3185(4) 0.0624(3)
H27 H 0.4572 1.3908 0.0598
C40 C 0.4530(4) 1.2413(3) 0.1387(3)
H28 H 0.4172 1.2619 0.1877
C41 C 0.3145(3) 1.0783(3) 0.2800(2)
C42 C 0.2152(4) 1.0804(3) 0.2433(2)
H29 H 0.2348 1.0639 0.1926
C43 C 0.0875(4) 1.1068(3) 0.2816(3)
H30 H 0.0215 1.1077 0.2566
C44 C 0.0568(4) 1.1321(3) 0.3568(3)
H31 H -0.0294 1.1498 0.3826
C45 C 0.1541(4) 1.1308(3) 0.3926(3)
H32 H 0.1344 1.1480 0.4430
C46 C 0.2816(4) 1.1040(3) 0.3546(2)
H33 H 0.3471 1.1033 0.3800
C47 C 0.5509(3) 1.0470(3) 0.2866(2)
C48 C 0.6256(4) 1.1281(3) 0.2690(3)
H34 H 0.6264 1.1858 0.2202
C49 C 0.7005(4) 1.1249(4) 0.3232(3)
H35 H 0.7493 1.1815 0.3107
C50 C 0.7041(5) 1.0409(4) 0.3944(3)
H36 H 0.7554 1.0395 0.4298
C51 C 0.6301(5) 0.9581(4) 0.4130(3)
H37 H 0.6314 0.8999 0.4611
C52 C 0.5541(4) 0.9618(3) 0.3600(3)
H38 H 0.5037 0.9059 0.3736
H40 H 0.387(2) 0.920(3) 0.237(2)
Cl1 Cl 0.04879(13) -0.25070(9) 1.06131(7)
N1 N 0.0119(3) 0.1911(2) 0.72860(19)
O1 O -0.2004(3) 0.15577(19) 0.78158(15)
C1 C -0.0848(4) 0.1334(3) 0.7842(2)
C2 C -0.0441(4) 0.0375(3) 0.8503(2)
C3 C 0.0795(4) -0.0167(3) 0.8426(2)
H1 H 0.1441 0.0068 0.7936
C4 C 0.1084(4) -0.1057(3) 0.9072(2)
H2 H 0.1918 -0.1422 0.9015
C5 C 0.0129(4) -0.1395(3) 0.9794(2)
C6 C -0.1085(5) -0.0865(3) 0.9891(2)
H3 H -0.1714 -0.1092 1.0391
C7 C -0.1388(4) 0.0013(3) 0.9244(2)
H4 H -0.2228 0.0363 0.9305
C8 C -0.0014(3) 0.2906(3) 0.6572(2)
C9 C 0.1370(4) 0.3026(3) 0.5971(2)
C10 C 0.2416(4) 0.3042(3) 0.6291(3)
H5 H 0.2295 0.2918 0.6869
C11 C 0.3632(4) 0.3243(3) 0.5753(3)
H6 H 0.4315 0.3271 0.5971
C12 C 0.3842(4) 0.3402(3) 0.4898(3)
H7 H 0.4664 0.3523 0.4540
C13 C 0.2823(4) 0.3380(3) 0.4582(3)
H8 H 0.2959 0.3487 0.4005
C14 C 0.1592(4) 0.3200(3) 0.5108(2)
H9 H 0.0910 0.3197 0.4880
C15 C -0.0944(3) 0.2783(3) 0.6102(2)
C16 C -0.0955(4) 0.1802(3) 0.5972(2)
H10 H -0.0417 0.1208 0.6202
C17 C -0.1748(4) 0.1694(3) 0.5510(2)
H11 H -0.1755 0.1028 0.5444
C18 C -0.2529(4) 0.2571(4) 0.5145(3)
H12 H -0.3063 0.2502 0.4833
C19 C -0.2508(4) 0.3544(3) 0.5250(2)
H13 H -0.3023 0.4140 0.4998
C20 C -0.1729(4) 0.3658(3) 0.5727(2)
H14 H -0.1736 0.4326 0.5795
C21 C -0.0460(4) 0.3896(3) 0.6903(2)
C22 C 0.0112(4) 0.4842(3) 0.6490(2)
H15 H 0.0801 0.4875 0.6015
C23 C -0.0317(5) 0.5736(3) 0.6768(3)
H16 H 0.0081 0.6364 0.6479
C24 C -0.1331(5) 0.5704(4) 0.7471(3)
H17 H -0.1621 0.6307 0.7661
C25 C -0.1907(5) 0.4775(4) 0.7886(3)
H18 H -0.2596 0.4745 0.8361
C26 C -0.1474(4) 0.3886(3) 0.7607(2)
H19 H -0.1875 0.3260 0.7901
H39 H 0.086(2) 0.178(2) 0.7398(19)
O3? O 0.988(3) 0.4997(14) 1.0205(5)
C53? C 1.0294(13) 0.5852(11) 0.9266(7)
C54? C 0.8948(13) 0.6411(9) 0.9381(7)
loop_
_geom_bond_atom_site_label_1
_geom_bond_atom_site_label_2
_geom_bond_site_symmetry_1
_geom_bond_site_symmetry_2
Cl1 C5 1_555 1_555
Cl2 C31 1_555 1_555
N1 C1 1_555 1_555
N2 C27 1_555 1_555
O1 C1 1_555 1_555
O2 C27 1_555 1_555
C1 C2 1_555 1_555
C2 C3 1_555 1_555
C3 H1 1_555 1_555
C4 C3 1_555 1_555
H2 C4 1_555 1_555
C5 C4 1_555 1_555
C6 C5 1_555 1_555
H3 C6 1_555 1_555
C7 C2 1_555 1_555
H4 C7 1_555 1_555
C8 N1 1_555 1_555
C9 C8 1_555 1_555
C10 C9 1_555 1_555
H5 C10 1_555 1_555
C11 C10 1_555 1_555
H6 C11 1_555 1_555
C12 C11 1_555 1_555
H7 C12 1_555 1_555
C13 C12 1_555 1_555
H8 C13 1_555 1_555
C14 C9 1_555 1_555
H9 C14 1_555 1_555
C15 C8 1_555 1_555
C16 C15 1_555 1_555
H10 C16 1_555 1_555
C17 C16 1_555 1_555
H11 C17 1_555 1_555
C18 C17 1_555 1_555
H12 C18 1_555 1_555
C19 C18 1_555 1_555
H13 C19 1_555 1_555
C20 C15 1_555 1_555
H14 C20 1_555 1_555
C21 C8 1_555 1_555
C22 C21 1_555 1_555
H15 C22 1_555 1_555
C23 C22 1_555 1_555
H16 C23 1_555 1_555
C24 C23 1_555 1_555
H17 C24 1_555 1_555
C25 C24 1_555 1_555
H18 C25 1_555 1_555
C26 C21 1_555 1_555
H19 C26 1_555 1_555
C27 C28 1_555 1_555
C28 C29 1_555 1_555
C29 H20 1_555 1_555
C30 C29 1_555 1_555
H21 C30 1_555 1_555
C31 C30 1_555 1_555
C32 C31 1_555 1_555
H22 C32 1_555 1_555
C33 C28 1_555 1_555
H23 C33 1_555 1_555
C34 N2 1_555 1_555
C35 C34 1_555 1_555
C36 C35 1_555 1_555
H24 C36 1_555 1_555
C37 C36 1_555 1_555
H25 C37 1_555 1_555
C38 C37 1_555 1_555
H26 C38 1_555 1_555
C39 C38 1_555 1_555
H27 C39 1_555 1_555
C40 C35 1_555 1_555
H28 C40 1_555 1_555
C41 C34 1_555 1_555
C42 C41 1_555 1_555
H29 C42 1_555 1_555
C43 C42 1_555 1_555
H30 C43 1_555 1_555
C44 C43 1_555 1_555
H31 C44 1_555 1_555
C45 C44 1_555 1_555
H32 C45 1_555 1_555
C46 C41 1_555 1_555
H33 C46 1_555 1_555
C47 C34 1_555 1_555
C48 C47 1_555 1_555
H34 C48 1_555 1_555
C49 C48 1_555 1_555
H35 C49 1_555 1_555
C50 C49 1_555 1_555
H36 C50 1_555 1_555
C51 C50 1_555 1_555
H37 C51 1_555 1_555
C52 C47 1_555 1_555
H38 C52 1_555 1_555
H39 N1 1_555 1_555
H40 N2 1_555 1_555
C6 C7 1_555 1_555
C13 C14 1_555 1_555
C19 C20 1_555 1_555
C25 C26 1_555 1_555
C32 C33 1_555 1_555
C39 C40 1_555 1_555
C45 C46 1_555 1_555
C51 C52 1_555 1_555

#END
