
#######################################################################
#
#                 Cambridge Crystallographic Data Centre
#                                CCDC 
#
#######################################################################
#
# If this CIF has been generated from an entry in the Cambridge 
# Structural Database, then it will include bibliographic, chemical, 
# crystal, experimental, refinement or atomic coordinate data resulting 
# from the CCDC's data processing and validation procedures.
#
#######################################################################

data_KIZRIV
_chemical_formula_moiety         'C13 H10 I1 N1 O1'
_chemical_name_systematic        N-(2-Iodophenyl)benzamide
_symmetry_cell_setting           orthorhombic
_symmetry_space_group_name_H-M   'P b c a'
_symmetry_Int_Tables_number      61
_space_group_name_Hall           '-P 2ac 2ab'
loop_
_symmetry_equiv_pos_site_id
_symmetry_equiv_pos_as_xyz
1 x,y,z
2 1/2-x,-y,1/2+z
3 -x,1/2+y,1/2-z
4 1/2+x,1/2-y,-z
5 -x,-y,-z
6 1/2+x,y,1/2-z
7 x,1/2-y,1/2+z
8 1/2-x,1/2+y,z
_cell_length_a                   8.5661(7)
_cell_length_b                   9.3203(7)
_cell_length_c                   30.749(2)
_cell_angle_alpha                90
_cell_angle_beta                 90
_cell_angle_gamma                90
_cell_volume                     2454.96
_chemical_melting_point          '139-140 deg.C'
_cell_formula_units_Z            8
loop_
_atom_site_label
_atom_site_type_symbol
_atom_site_fract_x
_atom_site_fract_y
_atom_site_fract_z
I1 I 0.14046(4) 1.09111(3) 0.456545(9)
N1 N 0.2539(3) 0.9133(3) 0.37083(9)
O1 O 0.1792(3) 1.1296(2) 0.34500(9)
C1 C 0.3623(4) 1.0549(4) 0.43082(12)
C2 C 0.4919(6) 1.1107(5) 0.45213(14)
C3 C 0.6387(6) 1.0792(6) 0.4386(2)
C4 C 0.6595(5) 0.9902(5) 0.40326(18)
C5 C 0.5335(4) 0.9350(4) 0.38116(14)
C6 C 0.3832(4) 0.9688(3) 0.39457(10)
C7 C 0.1615(3) 0.9989(3) 0.34646(10)
C8 C 0.0358(3) 0.9282(3) 0.32080(10)
C9 C -0.0291(4) 0.7983(3) 0.33208(12)
C10 C -0.1467(4) 0.7389(4) 0.30703(16)
C11 C -0.1977(5) 0.8086(4) 0.27030(14)
C12 C -0.1311(4) 0.9376(4) 0.25830(15)
C13 C -0.0170(4) 0.9981(3) 0.28380(11)
H1 H 0.479(6) 1.163(6) 0.4781(15)
H2 H 0.716(9) 1.127(7) 0.4530(18)
H3 H 0.758(3) 0.979(6) 0.3930(17)
H4 H 0.543(5) 0.874(4) 0.3592(13)
H5 H 0.003(4) 0.755(3) 0.3563(12)
H6 H -0.190(5) 0.640(4) 0.3160(13)
H7 H -0.291(5) 0.760(4) 0.2553(14)
H8 H -0.155(4) 0.989(4) 0.2334(14)
H9 H 0.025(4) 1.085(2) 0.2773(12)
H10 H 0.255(4) 0.827(4) 0.3655(10)
loop_
_geom_bond_atom_site_label_1
_geom_bond_atom_site_label_2
_geom_bond_site_symmetry_1
_geom_bond_site_symmetry_2
I1 C1 1_555 1_555
N1 C6 1_555 1_555
O1 C7 1_555 1_555
C1 C2 1_555 1_555
C2 C3 1_555 1_555
C3 C4 1_555 1_555
C4 C5 1_555 1_555
C5 C6 1_555 1_555
C6 C1 1_555 1_555
C7 N1 1_555 1_555
C8 C7 1_555 1_555
C9 C8 1_555 1_555
C10 C9 1_555 1_555
C11 C10 1_555 1_555
C12 C11 1_555 1_555
C13 C8 1_555 1_555
H1 C2 1_555 1_555
H2 C3 1_555 1_555
H3 C4 1_555 1_555
H4 C5 1_555 1_555
H5 C9 1_555 1_555
H6 C10 1_555 1_555
H7 C11 1_555 1_555
H8 C12 1_555 1_555
H9 C13 1_555 1_555
H10 N1 1_555 1_555
C12 C13 1_555 1_555

#END
