
#######################################################################
#
#                 Cambridge Crystallographic Data Centre
#                                CCDC 
#
#######################################################################
#
# If this CIF has been generated from an entry in the Cambridge 
# Structural Database, then it will include bibliographic, chemical, 
# crystal, experimental, refinement or atomic coordinate data resulting 
# from the CCDC's data processing and validation procedures.
#
#######################################################################

data_KIZRER
_chemical_formula_moiety         'C13 H10 Cl2 N2 O1'
_chemical_name_systematic        3-Amino-2-chloro-N-(2-chlorophenyl)benzamide
_symmetry_cell_setting           monoclinic
_symmetry_space_group_name_H-M   'C c'
_symmetry_Int_Tables_number      9
_space_group_name_Hall           'C -2yc'
loop_
_symmetry_equiv_pos_site_id
_symmetry_equiv_pos_as_xyz
1 x,y,z
2 x,-y,1/2+z
3 1/2+x,1/2+y,z
4 1/2+x,1/2-y,1/2+z
_cell_length_a                   9.5284(16)
_cell_length_b                   40.632(7)
_cell_length_c                   9.8789(16)
_cell_angle_alpha                90
_cell_angle_beta                 95.384(4)
_cell_angle_gamma                90
_cell_volume                     3807.82
_exptl_crystal_colour            colorless
_chemical_melting_point          '156-158 deg.C'
_cell_formula_units_Z            12
loop_
_atom_site_label
_atom_site_type_symbol
_atom_site_fract_x
_atom_site_fract_y
_atom_site_fract_z
Cl1 Cl 0.7922(3) 0.79938(7) 1.0887(4)
Cl2 Cl 0.2249(3) 0.85809(7) 0.6779(4)
N1 N 0.5133(9) 0.81491(18) 0.9451(9)
H1 H 0.5068 0.8268 1.0163
N2 N 0.2464(9) 0.93000(19) 0.6737(9)
H2 H 0.2426 0.9511 0.6653
H3 H 0.1787 0.9180 0.6371
O1 O 0.4954(7) 0.81353(14) 0.7132(7)
C1 C 0.4957(10) 0.8291(2) 0.8239(11)
C2 C 0.4789(11) 0.8658(2) 0.8223(10)
C3 C 0.3661(11) 0.8816(2) 0.7541(10)
C4 C 0.3584(12) 0.9158(2) 0.7441(12)
C5 C 0.4659(13) 0.9338(2) 0.8024(12)
H10 H 0.4631 0.9566 0.7956
C6 C 0.5822(12) 0.9184(3) 0.8736(11)
H11 H 0.6562 0.9307 0.9156
C7 C 0.5836(12) 0.8848(2) 0.8795(11)
H12 H 0.6612 0.8745 0.9255
C8 C 0.5424(11) 0.7808(2) 0.9618(10)
C9 C 0.4436(11) 0.7577(2) 0.9180(12)
H13 H 0.3560 0.7642 0.8771
C10 C 0.4753(15) 0.7250(3) 0.9353(12)
H14 H 0.4084 0.7095 0.9034
C11 C 0.6000(14) 0.7142(3) 0.9967(11)
H15 H 0.6193 0.6919 1.0084
C12 C 0.6958(12) 0.7377(3) 1.0405(12)
H16 H 0.7829 0.7311 1.0819
C13 C 0.6689(11) 0.7710(2) 1.0258(11)
Cl3 Cl 0.8102(3) 0.85092(7) 0.5917(4)
Cl4 Cl 0.2016(3) 0.82206(6) 0.1713(3)
N3 N 0.5245(9) 0.84744(17) 0.4435(9)
H4 H 0.5120 0.8346 0.5105
N4 N 0.1498(8) 0.7501(2) 0.1499(9)
H5 H 0.0910 0.7650 0.1189
H6 H 0.1283 0.7296 0.1402
O2 O 0.5082(7) 0.85227(13) 0.2112(7)
C14 C 0.4919(10) 0.8362(2) 0.3138(11)
C15 C 0.4479(10) 0.8008(2) 0.3033(10)
C16 C 0.3191(10) 0.7914(2) 0.2342(10)
C17 C 0.2753(12) 0.7589(2) 0.2137(10)
C18 C 0.3745(13) 0.7356(2) 0.2744(12)
H17 H 0.3527 0.7134 0.2650
C19 C 0.4990(13) 0.7440(2) 0.3452(13)
H18 H 0.5580 0.7276 0.3841
C20 C 0.5374(11) 0.7762(2) 0.3593(11)
H19 H 0.6233 0.7818 0.4063
C21 C 0.5783(12) 0.8796(2) 0.4717(11)
C22 C 0.4966(12) 0.9065(3) 0.4297(12)
H20 H 0.4075 0.9032 0.3848
C23 C 0.5446(13) 0.9376(3) 0.4531(12)
H21 H 0.4904 0.9557 0.4242
C24 C 0.6784(16) 0.9414(2) 0.5222(13)
H22 H 0.7129 0.9625 0.5400
C25 C 0.7596(15) 0.9152(3) 0.5641(14)
H23 H 0.8493 0.9184 0.6078
C26 C 0.7094(12) 0.8842(2) 0.5419(11)
Cl5 Cl -0.2781(3) 0.97249(7) 0.1763(4)
Cl6 Cl 0.3133(3) 1.01722(7) 0.5971(4)
N5 N 0.0055(9) 0.98258(18) 0.3198(9)
H7 H 0.0115 0.9949 0.2497
N6 N 0.3281(10) 1.0888(2) 0.6150(10)
H8 H 0.3411 1.1094 0.6328
H9 H 0.3891 1.0746 0.6470
O3 O 0.0244(7) 0.97969(14) 0.5514(7)
C27 C 0.0317(11) 0.9958(2) 0.4408(13)
C28 C 0.0639(10) 1.0314(2) 0.4511(10)
C29 C 0.1832(11) 1.0439(2) 0.5266(11)
C30 C 0.2078(12) 1.0786(3) 0.5342(13)
C31 C 0.1006(14) 1.0990(2) 0.4758(12)
H24 H 0.1090 1.1216 0.4870
C32 C -0.0144(12) 1.0868(3) 0.4039(14)
H25 H -0.0819 1.1012 0.3640
C33 C -0.0346(11) 1.0531(2) 0.3879(12)
H26 H -0.1134 1.0451 0.3353
C34 C -0.0321(11) 0.9492(2) 0.2988(11)
C35 C 0.0550(12) 0.9239(3) 0.3418(12)
H27 H 0.1437 0.9292 0.3836
C36 C 0.0214(15) 0.8922(3) 0.3278(13)
H28 H 0.0831 0.8757 0.3607
C37 C -0.1107(16) 0.8849(2) 0.2615(12)
H29 H -0.1364 0.8629 0.2508
C38 C -0.2071(13) 0.9091(3) 0.2100(12)
H30 H -0.2942 0.9040 0.1643
C39 C -0.1600(12) 0.9419(2) 0.2338(12)
loop_
_geom_bond_atom_site_label_1
_geom_bond_atom_site_label_2
_geom_bond_site_symmetry_1
_geom_bond_site_symmetry_2
Cl1 C13 1_555 1_555
Cl2 C3 1_555 1_555
Cl3 C26 1_555 1_555
Cl4 C16 1_555 1_555
Cl5 C39 1_555 1_555
Cl6 C29 1_555 1_555
N1 H1 1_555 1_555
N2 H2 1_555 1_555
H3 N2 1_555 1_555
N3 H4 1_555 1_555
N4 H5 1_555 1_555
H6 N4 1_555 1_555
N5 H7 1_555 1_555
N6 H8 1_555 1_555
H9 N6 1_555 1_555
O1 C1 1_555 1_555
O2 C14 1_555 1_555
O3 C27 1_555 1_555
C1 N1 1_555 1_555
C2 C1 1_555 1_555
C3 C2 1_555 1_555
C4 N2 1_555 1_555
C5 C4 1_555 1_555
H10 C5 1_555 1_555
C6 C5 1_555 1_555
H11 C6 1_555 1_555
C7 C2 1_555 1_555
H12 C7 1_555 1_555
C8 N1 1_555 1_555
C9 C8 1_555 1_555
H13 C9 1_555 1_555
C10 C9 1_555 1_555
H14 C10 1_555 1_555
C11 C10 1_555 1_555
H15 C11 1_555 1_555
C12 C11 1_555 1_555
H16 C12 1_555 1_555
C13 C8 1_555 1_555
C14 N3 1_555 1_555
C15 C14 1_555 1_555
C16 C15 1_555 1_555
C17 N4 1_555 1_555
C18 C17 1_555 1_555
H17 C18 1_555 1_555
C19 C18 1_555 1_555
H18 C19 1_555 1_555
C20 C15 1_555 1_555
H19 C20 1_555 1_555
C21 N3 1_555 1_555
C22 C21 1_555 1_555
H20 C22 1_555 1_555
C23 C22 1_555 1_555
H21 C23 1_555 1_555
C24 C23 1_555 1_555
H22 C24 1_555 1_555
C25 C24 1_555 1_555
H23 C25 1_555 1_555
C26 C21 1_555 1_555
C27 N5 1_555 1_555
C28 C27 1_555 1_555
C29 C28 1_555 1_555
C30 N6 1_555 1_555
C31 C30 1_555 1_555
H24 C31 1_555 1_555
C32 C31 1_555 1_555
H25 C32 1_555 1_555
C33 C28 1_555 1_555
H26 C33 1_555 1_555
C34 N5 1_555 1_555
C35 C34 1_555 1_555
H27 C35 1_555 1_555
C36 C35 1_555 1_555
H28 C36 1_555 1_555
C37 C36 1_555 1_555
H29 C37 1_555 1_555
C38 C37 1_555 1_555
H30 C38 1_555 1_555
C39 C34 1_555 1_555
C3 C4 1_555 1_555
C6 C7 1_555 1_555
C12 C13 1_555 1_555
C16 C17 1_555 1_555
C19 C20 1_555 1_555
C25 C26 1_555 1_555
C29 C30 1_555 1_555
C32 C33 1_555 1_555
C38 C39 1_555 1_555

#END
