
#######################################################################
#
#                 Cambridge Crystallographic Data Centre
#                                CCDC 
#
#######################################################################
#
# If this CIF has been generated from an entry in the Cambridge 
# Structural Database, then it will include bibliographic, chemical, 
# crystal, experimental, refinement or atomic coordinate data resulting 
# from the CCDC's data processing and validation procedures.
#
#######################################################################

data_KIZTUJ
_chemical_formula_moiety         'C22 H21 N7'
_chemical_name_systematic        
(E)-N-((Quinoxalin-2-yl)methylene)-2-(2-(quinoxalin-3-yl)imidazolidin-1-yl)ethanamine
_symmetry_cell_setting           monoclinic
_symmetry_space_group_name_H-M   'P 21'
_symmetry_Int_Tables_number      4
_space_group_name_Hall           'P 2yb'
loop_
_symmetry_equiv_pos_site_id
_symmetry_equiv_pos_as_xyz
1 x,y,z
2 -x,1/2+y,-z
_cell_length_a                   7.0036(14)
_cell_length_b                   6.9151(14)
_cell_length_c                   19.701(4)
_cell_angle_alpha                90
_cell_angle_beta                 96.57(3)
_cell_angle_gamma                90
_cell_volume                     947.865
_exptl_crystal_colour            colorless
_exptl_crystal_description       lamellar
_chemical_melting_point          '132.3-134.1 deg.C'
_cell_formula_units_Z            2
_exptl_crystal_recrystallization_method ethanol
_exptl_crystal_preparation       'strongly fluorescent'
loop_
_atom_site_label
_atom_site_type_symbol
_atom_site_fract_x
_atom_site_fract_y
_atom_site_fract_z
N1 N 0.8208(3) 0.1558(3) 0.57970(9)
N2 N 0.6300(3) 0.0688(3) 0.40849(9)
N3 N 0.2790(3) 0.0884(3) 0.25099(8)
N4 N 0.1166(3) 0.1834(3) 0.14545(9)
H1 H 0.0866 0.2050 0.1015
N5 N 0.3207(3) -0.3890(3) 0.11796(9)
N6 N 0.5472(3) -0.0467(3) 0.12320(9)
C1 C 1.0014(3) 0.0817(4) 0.48670(10)
H2 H 0.9980 0.0599 0.4390
C2 C 1.1662(3) 0.1090(4) 0.59308(10)
C3 C 1.3385(3) 0.1017(4) 0.63658(12)
H3 H 1.4553 0.0706 0.6188
C4 C 1.3385(4) 0.1394(4) 0.70483(12)
H4 H 1.4555 0.1324 0.7344
C5 C 1.1672(3) 0.1883(4) 0.73167(11)
H5 H 1.1700 0.2154 0.7790
C6 C 0.9967(3) 0.1972(4) 0.69033(11)
H6 H 0.8821 0.2325 0.7088
C7 C 0.9915(3) 0.1534(3) 0.61995(10)
C8 C 0.8251(3) 0.1196(4) 0.51390(10)
C9 C 0.6416(3) 0.1210(4) 0.47007(11)
H7 H 0.5288 0.1622 0.4885
C10 C 0.4400(3) 0.0668(4) 0.36939(11)
H8 H 0.3553 0.1613 0.3890
H9 H 0.3819 -0.0632 0.3717
C11 C 0.4584(3) 0.1183(4) 0.29557(10)
H10 H 0.4972 0.2556 0.2930
H11 H 0.5607 0.0382 0.2791
C12 C 0.1217(3) 0.2141(4) 0.26513(12)
H12 H 0.1661 0.3488 0.2736
H13 H 0.0601 0.1675 0.3049
C13 C -0.0145(4) 0.1982(5) 0.19901(12)
H14 H -0.0969 0.0820 0.1994
H15 H -0.0974 0.3141 0.1920
C14 C 0.3047(3) 0.1262(4) 0.17894(10)
H16 H 0.3984 0.2342 0.1762
C15 C 0.3783(3) -0.0541(4) 0.14733(10)
C16 C 0.2673(3) -0.2263(4) 0.14414(11)
H17 H 0.1471 -0.2233 0.1621
C17 C 0.4979(3) -0.3850(4) 0.09249(10)
C18 C 0.5674(4) -0.5545(4) 0.06400(11)
H18 H 0.4938 -0.6702 0.0626
C19 C 0.7399(4) -0.5524(4) 0.03859(12)
H19 H 0.7862 -0.6668 0.0193
C20 C 0.8504(3) -0.3819(5) 0.04058(12)
H20 H 0.9703 -0.3824 0.0224
C21 C 0.7873(4) -0.2153(4) 0.06841(12)
H21 H 0.8635 -0.1014 0.0698
C22 C 0.6084(3) -0.2141(4) 0.09499(11)
N7 N 1.1675(3) 0.0754(3) 0.52430(10)
loop_
_geom_bond_atom_site_label_1
_geom_bond_atom_site_label_2
_geom_bond_site_symmetry_1
_geom_bond_site_symmetry_2
N1 C7 1_555 1_555
N2 C9 1_555 1_555
N3 C11 1_555 1_555
N4 H1 1_555 1_555
N5 C16 1_555 1_555
N6 C15 1_555 1_555
C1 H2 1_555 1_555
C2 C3 1_555 1_555
C3 H3 1_555 1_555
C4 C3 1_555 1_555
H4 C4 1_555 1_555
C5 C4 1_555 1_555
H5 C5 1_555 1_555
C6 C5 1_555 1_555
H6 C6 1_555 1_555
C7 C2 1_555 1_555
C8 N1 1_555 1_555
C9 C8 1_555 1_555
H7 C9 1_555 1_555
C10 N2 1_555 1_555
H8 C10 1_555 1_555
H9 C10 1_555 1_555
C11 C10 1_555 1_555
H10 C11 1_555 1_555
H11 C11 1_555 1_555
C12 N3 1_555 1_555
H12 C12 1_555 1_555
H13 C12 1_555 1_555
C13 N4 1_555 1_555
H14 C13 1_555 1_555
H15 C13 1_555 1_555
C14 N3 1_555 1_555
H16 C14 1_555 1_555
C15 C14 1_555 1_555
C16 C15 1_555 1_555
H17 C16 1_555 1_555
C17 N5 1_555 1_555
C18 C17 1_555 1_555
H18 C18 1_555 1_555
C19 C18 1_555 1_555
H19 C19 1_555 1_555
C20 C19 1_555 1_555
H20 C20 1_555 1_555
C21 C20 1_555 1_555
H21 C21 1_555 1_555
C22 N6 1_555 1_555
N7 C1 1_555 1_555
N4 C14 1_555 1_555
C1 C8 1_555 1_555
C2 N7 1_555 1_555
C6 C7 1_555 1_555
C12 C13 1_555 1_555
C17 C22 1_555 1_555
C21 C22 1_555 1_555

#END
