
#######################################################################
#
#                 Cambridge Crystallographic Data Centre
#                                CCDC 
#
#######################################################################
#
# If this CIF has been generated from an entry in the Cambridge 
# Structural Database, then it will include bibliographic, chemical, 
# crystal, experimental, refinement or atomic coordinate data resulting 
# from the CCDC's data processing and validation procedures.
#
#######################################################################

data_KIZTEU
_chemical_formula_moiety         'C12 H12 N2 O4,3(H2 O1)'
_chemical_name_systematic        
'(6-Carboxy-2,4-dimethyl-1H-3,1-benzimidazol-3-ium-1-yl)acetate trihydrate'
_symmetry_cell_setting           monoclinic
_symmetry_space_group_name_H-M   'C 2/c'
_symmetry_Int_Tables_number      15
_space_group_name_Hall           '-C 2yn'
loop_
_symmetry_equiv_pos_site_id
_symmetry_equiv_pos_as_xyz
1 x,y,z
2 -x,y,1/2-z
3 1/2+x,1/2+y,z
4 1/2-x,1/2+y,1/2-z
5 -x,-y,-z
6 x,-y,1/2+z
7 1/2-x,1/2-y,-z
8 1/2+x,1/2-y,1/2+z
_cell_length_a                   24.678(6)
_cell_length_b                   7.3698(19)
_cell_length_c                   16.045(4)
_cell_angle_alpha                90
_cell_angle_beta                 100.367(4)
_cell_angle_gamma                90
_cell_volume                     2870.5
_exptl_crystal_colour            colorless
_exptl_crystal_description       block
_cell_formula_units_Z            8
loop_
_atom_site_label
_atom_site_type_symbol
_atom_site_fract_x
_atom_site_fract_y
_atom_site_fract_z
O1 O 0.12502(10) -0.0367(4) 0.43237(16)
O2 O 0.17599(9) 0.0767(4) 0.34425(13)
H1 H 0.1458 0.0893 0.3137
O3 O 0.38100(13) -0.1243(4) 0.38386(16)
O4 O 0.40300(10) 0.1090(4) 0.30942(13)
N1 N 0.37138(10) 0.0889(3) 0.52000(13)
N2 N 0.36801(10) -0.0141(3) 0.64596(14)
H2 H 0.3781 -0.0458 0.6980
C1 C 0.16951(13) 0.0083(4) 0.41684(19)
C2 C 0.22153(12) -0.0052(4) 0.47931(17)
C3 C 0.21985(12) -0.0744(4) 0.56055(18)
H3 H 0.1863 -0.1143 0.5724
C4 C 0.26597(12) -0.0855(4) 0.62329(17)
C5 C 0.26469(14) -0.1604(5) 0.71028(19)
H4 H 0.2279 -0.1980 0.7135
H5 H 0.2763 -0.0683 0.7520
H6 H 0.2891 -0.2627 0.7208
C6 C 0.31475(12) -0.0260(4) 0.60066(16)
C7 C 0.31668(11) 0.0400(4) 0.52001(16)
C8 C 0.27053(12) 0.0531(4) 0.45747(17)
H7 H 0.2722 0.0984 0.4039
C9 C 0.40115(12) 0.0538(4) 0.59692(17)
C10 C 0.46033(13) 0.0894(6) 0.6243(2)
H8 H 0.4808 0.0261 0.5878
H9 H 0.4717 0.0480 0.6815
H10 H 0.4671 0.2173 0.6216
C11 C 0.39137(13) 0.1687(5) 0.44773(17)
H11 H 0.4285 0.2135 0.4666
H12 H 0.3683 0.2714 0.4270
C12 C 0.39163(12) 0.0350(5) 0.37487(18)
O5 O 0.09086(11) 0.1559(4) 0.23525(16)
H13 H 0.0905 0.0417 0.2188
H14 H 0.1032 0.2268 0.2006
O6 O 0.47646(14) 0.3790(5) 0.3159(2)
H15 H 0.4997 0.3846 0.3643
H16 H 0.4594 0.2769 0.3073
O7 O 0.02610(16) 0.8323(7) 0.4829(3)
H17 H 0.0263 0.9135 0.5204
H18 H 0.0588 0.7989 0.4717
loop_
_geom_bond_atom_site_label_1
_geom_bond_atom_site_label_2
_geom_bond_site_symmetry_1
_geom_bond_site_symmetry_2
O1 C1 1_555 1_555
O2 H1 1_555 1_555
O3 C12 1_555 1_555
O4 C12 1_555 1_555
N1 C7 1_555 1_555
N2 H2 1_555 1_555
C1 O2 1_555 1_555
C2 C1 1_555 1_555
C3 C2 1_555 1_555
H3 C3 1_555 1_555
C4 C3 1_555 1_555
C5 C4 1_555 1_555
H4 C5 1_555 1_555
H5 C5 1_555 1_555
H6 C5 1_555 1_555
C6 N2 1_555 1_555
C7 C6 1_555 1_555
C8 C2 1_555 1_555
H7 C8 1_555 1_555
C9 N1 1_555 1_555
C10 C9 1_555 1_555
H8 C10 1_555 1_555
H9 C10 1_555 1_555
H10 C10 1_555 1_555
C11 N1 1_555 1_555
H11 C11 1_555 1_555
H12 C11 1_555 1_555
C12 C11 1_555 1_555
O5 H13 1_555 1_555
H14 O5 1_555 1_555
O6 H15 1_555 1_555
H16 O6 1_555 1_555
O7 H17 1_555 1_555
H18 O7 1_555 1_555
N2 C9 1_555 1_555
C4 C6 1_555 1_555
C7 C8 1_555 1_555

#END
