
#######################################################################
#
#                 Cambridge Crystallographic Data Centre
#                                CCDC 
#
#######################################################################
#
# If this CIF has been generated from an entry in the Cambridge 
# Structural Database, then it will include bibliographic, chemical, 
# crystal, experimental, refinement or atomic coordinate data resulting 
# from the CCDC's data processing and validation procedures.
#
#######################################################################

data_KIZYOJ01
_chemical_formula_moiety         'C10 H8 N2,2(C8 H8 O3)'
_chemical_name_systematic        "4-methoxybenzoic acid 4,4'-bipyridine"
_symmetry_cell_setting           monoclinic
_symmetry_space_group_name_H-M   'P 21/c'
_symmetry_Int_Tables_number      14
_space_group_name_Hall           '-P 2ybc'
loop_
_symmetry_equiv_pos_site_id
_symmetry_equiv_pos_as_xyz
1 x,y,z
2 -x,1/2+y,1/2-z
3 -x,-y,-z
4 x,1/2-y,1/2+z
_cell_length_a                   9.0486(11)
_cell_length_b                   10.8727(13)
_cell_length_c                   23.603(3)
_cell_angle_alpha                90
_cell_angle_beta                 98.100(7)
_cell_angle_gamma                90
_cell_volume                     2298.96
_cell_formula_units_Z            4
loop_
_atom_site_label
_atom_site_type_symbol
_atom_site_fract_x
_atom_site_fract_y
_atom_site_fract_z
O1 O 0.95644(13) 0.36687(12) 0.62090(6)
O2 O 0.30647(13) 0.14282(11) 0.54312(5)
O3 O 0.27356(14) 0.34318(12) 0.52424(6)
C1 C 0.61240(18) 0.18630(15) 0.58426(7)
H1 H 0.5779 0.1058 0.5848
C2 C 0.76172(19) 0.21074(16) 0.60382(7)
H2 H 0.8266 0.1476 0.6173
C3 C 0.81234(18) 0.33164(16) 0.60277(7)
C4 C 0.71460(19) 0.42527(16) 0.58246(8)
H3 H 0.7490 0.5058 0.5818
C5 C 0.56692(19) 0.39952(16) 0.56330(7)
H4 H 0.5023 0.4628 0.5498
C6 C 0.51363(18) 0.27917(15) 0.56395(7)
C7 C 0.35501(19) 0.24733(16) 0.54322(7)
C8 C 1.0612(2) 0.27273(19) 0.64168(9)
H5 H 1.0308 0.2350 0.6750
H6 H 1.1584 0.3084 0.6515
H7 H 1.0644 0.2117 0.6125
H8 H 0.179(3) 0.314(2) 0.5079(11)
O4 O 0.31080(13) 0.46074(12) 0.71587(5)
O5 O 0.97424(15) 0.31662(13) 0.79886(6)
O6 O 0.96998(14) 0.47581(12) 0.85839(6)
C9 C 0.5503(2) 0.38153(16) 0.71740(7)
H9 H 0.5150 0.3401 0.6837
C10 C 0.69701(19) 0.36884(16) 0.74155(7)
H10 H 0.7604 0.3188 0.7240
C11 C 0.65601(19) 0.50690(15) 0.81698(7)
H11 H 0.6917 0.5497 0.8502
C12 C 0.50726(19) 0.52063(15) 0.79284(7)
H12 H 0.4440 0.5723 0.8097
C13 C 0.45480(18) 0.45626(15) 0.74333(7)
C14 C 0.75187(18) 0.43018(15) 0.79216(7)
C15 C 0.90879(19) 0.41150(16) 0.81996(7)
C16 C 0.2041(2) 0.53378(19) 0.73971(10)
H13 H 0.2330 0.6187 0.7395
H14 H 0.1996 0.5079 0.7783
H15 H 0.1077 0.5239 0.7173
H16 H 1.068(3) 0.311(2) 0.8180(11)
N1 N 1.00269(16) 0.29133(14) 0.47599(7)
N2 N 0.25240(16) 0.21474(14) 0.34860(7)
C17 C 0.3468(2) 0.28719(17) 0.32534(8)
H17 H 0.3113 0.3294 0.2919
C18 C 0.49430(19) 0.30237(16) 0.34855(8)
H18 H 0.5558 0.3542 0.3310
C19 C 0.45242(18) 0.16342(16) 0.42214(7)
H19 H 0.4853 0.1189 0.4552
C20 C 0.30615(19) 0.15411(17) 0.39652(8)
H20 H 0.2418 0.1034 0.4133
C21 C 0.55065(18) 0.23984(14) 0.39831(7)
C22 C 0.70797(18) 0.25632(15) 0.42492(7)
C23 C 0.77982(19) 0.36833(16) 0.42109(8)
H21 H 0.7302 0.4336 0.4013
C24 C 0.9255(2) 0.38188(17) 0.44692(8)
H22 H 0.9721 0.4574 0.4440
C25 C 0.9346(2) 0.18332(17) 0.47919(8)
H23 H 0.9877 0.1195 0.4988
C26 C 0.78888(19) 0.16160(16) 0.45468(7)
H24 H 0.7455 0.0849 0.4580
loop_
_geom_bond_atom_site_label_1
_geom_bond_atom_site_label_2
_geom_bond_site_symmetry_1
_geom_bond_site_symmetry_2
O1 C3 1_555 1_555
O2 C7 1_555 1_555
O3 C7 1_555 1_555
C1 H1 1_555 1_555
C2 C1 1_555 1_555
H2 C2 1_555 1_555
C3 C2 1_555 1_555
C4 C3 1_555 1_555
H3 C4 1_555 1_555
C5 C4 1_555 1_555
H4 C5 1_555 1_555
C6 C1 1_555 1_555
C7 C6 1_555 1_555
C8 O1 1_555 1_555
H5 C8 1_555 1_555
H6 C8 1_555 1_555
H7 C8 1_555 1_555
H8 O3 1_555 1_555
O4 C13 1_555 1_555
O5 C15 1_555 1_555
O6 C15 1_555 1_555
C9 H9 1_555 1_555
C10 C9 1_555 1_555
H10 C10 1_555 1_555
C11 H11 1_555 1_555
C12 C11 1_555 1_555
H12 C12 1_555 1_555
C13 C9 1_555 1_555
C14 C10 1_555 1_555
C15 C14 1_555 1_555
C16 O4 1_555 1_555
H13 C16 1_555 1_555
H14 C16 1_555 1_555
H15 C16 1_555 1_555
H16 O5 1_555 1_555
N1 C24 1_555 1_555
N2 C17 1_555 1_555
C17 H17 1_555 1_555
C18 C17 1_555 1_555
H18 C18 1_555 1_555
C19 H19 1_555 1_555
C20 N2 1_555 1_555
H20 C20 1_555 1_555
C21 C18 1_555 1_555
C22 C21 1_555 1_555
C23 C22 1_555 1_555
H21 C23 1_555 1_555
C24 C23 1_555 1_555
H22 C24 1_555 1_555
C25 N1 1_555 1_555
H23 C25 1_555 1_555
C26 C22 1_555 1_555
H24 C26 1_555 1_555
C5 C6 1_555 1_555
C11 C14 1_555 1_555
C12 C13 1_555 1_555
C19 C20 1_555 1_555
C19 C21 1_555 1_555
C25 C26 1_555 1_555

#END
