
#######################################################################
#
#                 Cambridge Crystallographic Data Centre
#                                CCDC 
#
#######################################################################
#
# If this CIF has been generated from an entry in the Cambridge 
# Structural Database, then it will include bibliographic, chemical, 
# crystal, experimental, refinement or atomic coordinate data resulting 
# from the CCDC's data processing and validation procedures.
#
#######################################################################

data_KOBJOD
_chemical_formula_moiety         'C44 H40 O12,2(C3 H6 O1)'
_chemical_name_systematic        
'3,9,15,21-tetraoxopentacyclo[20.2.2.2^4,7^.2^10,13^.2^16,19^]dotriaconta-1(24),4,6,10,12,16,18,22,25,27,29,31-dodecaene-2,8,14,20-tetrayl tetrapropanoate acetone solvate'
_symmetry_cell_setting           monoclinic
_symmetry_space_group_name_H-M   'P 21/n'
_symmetry_Int_Tables_number      14
_space_group_name_Hall           '-P 2yn'
loop_
_symmetry_equiv_pos_site_id
_symmetry_equiv_pos_as_xyz
1 x,y,z
2 1/2-x,1/2+y,1/2-z
3 -x,-y,-z
4 1/2+x,1/2-y,1/2+z
_cell_length_a                   16.8259(4)
_cell_length_b                   10.7519(3)
_cell_length_c                   24.8956(6)
_cell_angle_alpha                90
_cell_angle_beta                 94.1570(10)
_cell_angle_gamma                90
_cell_volume                     4492.02
_exptl_crystal_colour            colorless
_exptl_crystal_description       polyhedron
_cell_formula_units_Z            4
loop_
_atom_site_label
_atom_site_type_symbol
_atom_site_fract_x
_atom_site_fract_y
_atom_site_fract_z
C1 C 0.37477(11) -0.06194(18) 0.05585(7)
C2 C 0.40056(14) -0.17359(18) 0.02554(8)
H1 H 0.4386 -0.2231 0.0490
H2 H 0.4283 -0.1461 -0.0061
C3 C 0.32984(18) -0.2542(2) 0.00691(10)
H3 H 0.2921 -0.2053 -0.0163
H4 H 0.3034 -0.2839 0.0383
H5 H 0.3483 -0.3256 -0.0133
C4 C 0.39362(11) 0.05573(16) 0.13525(7)
H6 H 0.3344 0.0611 0.1361
C5 C 0.42462(10) 0.17154(16) 0.10727(7)
C6 C 0.39454(10) 0.29623(16) 0.12205(7)
C7 C 0.33637(10) 0.31433(16) 0.15859(7)
H7 H 0.3119 0.2445 0.1740
C8 C 0.31423(10) 0.43298(16) 0.17249(7)
H8 H 0.2748 0.4441 0.1975
C9 C 0.34912(10) 0.53664(16) 0.15022(7)
C10 C 0.32518(10) 0.66666(16) 0.16575(7)
H9 H 0.3541 0.7293 0.1448
C11 C 0.21011(11) 0.79218(16) 0.15111(8)
C12 C 0.12087(11) 0.79133(17) 0.14701(8)
H10 H 0.1012 0.7059 0.1392
H11 H 0.1005 0.8461 0.1171
C13 C 0.09036(13) 0.8369(2) 0.19995(9)
H12 H 0.1108 0.9208 0.2079
H13 H 0.1087 0.7805 0.2292
H14 H 0.0320 0.8388 0.1967
C14 C 0.34137(11) 0.69125(16) 0.22668(7)
C15 C 0.42456(11) 0.68872(15) 0.25091(7)
C16 C 0.49167(11) 0.68983(16) 0.22074(7)
H15 H 0.4852 0.6972 0.1827
C17 C 0.56716(11) 0.68031(16) 0.24605(7)
H16 H 0.6122 0.6804 0.2252
C18 C 0.57788(11) 0.67058(15) 0.30201(7)
C19 C 0.65982(11) 0.65407(16) 0.33025(7)
H17 H 0.6552 0.6463 0.3699
C20 C 0.77910(12) 0.76536(18) 0.34635(8)
C21 C 0.82400(13) 0.88110(19) 0.33394(10)
H18 H 0.8299 0.9342 0.3665
H19 H 0.7934 0.9285 0.3053
C22 C 0.90570(15) 0.8508(2) 0.31568(16)
H20 H 0.9000 0.7985 0.2834
H21 H 0.9367 0.8062 0.3444
H22 H 0.9332 0.9280 0.3074
C23 C 0.70116(11) 0.53803(17) 0.30945(7)
C24 C 0.67813(11) 0.41302(16) 0.32908(7)
C25 C 0.61667(11) 0.39316(17) 0.36291(7)
H23 H 0.5888 0.4621 0.3763
C26 C 0.59626(11) 0.27334(17) 0.37706(7)
H24 H 0.5540 0.2606 0.3997
C27 C 0.63717(11) 0.17156(16) 0.35836(7)
C28 C 0.61407(11) 0.04071(16) 0.37325(7)
H25 H 0.6499 -0.0204 0.3567
C29 C 0.62891(12) -0.08131(18) 0.45312(8)
C30 C 0.62820(14) -0.0747(2) 0.51368(8)
H26 H 0.5735 -0.0540 0.5229
H27 H 0.6412 -0.1582 0.5286
C31 C 0.68478(14) 0.0180(2) 0.54087(8)
H28 H 0.7396 -0.0038 0.5338
H29 H 0.6793 0.0167 0.5798
H30 H 0.6724 0.1014 0.5268
C32 C 0.52699(11) 0.00925(16) 0.35655(7)
C33 C 0.49686(11) 0.01499(15) 0.29837(7)
C34 C 0.41504(11) 0.00899(16) 0.28649(7)
H31 H 0.3810 -0.0042 0.3148
C35 C 0.38216(11) 0.02183(15) 0.23445(7)
H32 H 0.3260 0.0181 0.2273
C36 C 0.43120(11) 0.04029(15) 0.19222(7)
C37 C 0.51304(11) 0.04258(16) 0.20340(7)
H33 H 0.5469 0.0529 0.1748
C38 C 0.54632(11) 0.02991(16) 0.25595(7)
H34 H 0.6026 0.0314 0.2630
C39 C 0.70005(11) 0.19188(17) 0.32617(7)
H35 H 0.7296 0.1231 0.3144
C40 C 0.71995(11) 0.31057(17) 0.31120(7)
H36 H 0.7624 0.3228 0.2886
C41 C 0.51132(12) 0.67416(17) 0.33190(7)
H37 H 0.5180 0.6705 0.3701
C42 C 0.43610(12) 0.68287(17) 0.30698(7)
H38 H 0.3913 0.6850 0.3281
C43 C 0.40581(11) 0.51871(17) 0.11305(7)
H39 H 0.4296 0.5886 0.0972
C44 C 0.42782(11) 0.40034(17) 0.09903(7)
H40 H 0.4663 0.3895 0.0733
O1 O 0.41407(7) -0.05295(11) 0.10544(5)
O2 O 0.32541(9) 0.01237(14) 0.03954(6)
O3 O 0.47394(8) 0.16016(12) 0.07455(5)
O4 O 0.24083(7) 0.67598(11) 0.15229(5)
O5 O 0.25087(9) 0.88381(13) 0.15407(7)
O6 O 0.28538(8) 0.70846(14) 0.25390(6)
O7 O 0.70612(8) 0.76246(11) 0.31941(5)
O8 O 0.80317(9) 0.68338(14) 0.37613(7)
O9 O 0.75003(9) 0.54903(12) 0.27634(6)
O10 O 0.62571(8) 0.03418(12) 0.43122(5)
O11 O 0.63126(11) -0.17355(13) 0.42680(6)
O12 O 0.48227(9) -0.01593(14) 0.39089(5)
C45 C 0.62293(12) 0.7440(2) 0.07857(9)
C46 C 0.67929(17) 0.7023(3) 0.03879(10)
H41 H 0.6746 0.6122 0.0338
H42 H 0.7339 0.7231 0.0521
H43 H 0.6665 0.7443 0.0043
C47 C 0.61577(17) 0.8798(3) 0.08616(12)
H44 H 0.6690 0.9173 0.0891
H45 H 0.5892 0.8964 0.1192
H46 H 0.5844 0.9158 0.0553
O13 O 0.58557(12) 0.6703(2) 0.10340(9)
O14 O 0.0313(7) 0.0001(11) 0.0619(6)
C48 C 0.0855(2) 0.0358(4) 0.03707(14)
C49 C 0.1338(2) -0.0501(4) 0.00517(16)
H47 H 0.1045 -0.1281 -0.0015
H48 H 0.1847 -0.0675 0.0254
H49 H 0.1437 -0.0110 -0.0293
C50 C 0.1120(3) 0.1675(4) 0.03765(17)
H50 H 0.1141 0.1973 0.0006
H51 H 0.1651 0.1738 0.0564
H52 H 0.0744 0.2184 0.0563
O15? O 0.0238(18) 0.007(3) 0.0650(15)
C51? C 0.0613(5) 0.0829(8) 0.0421(4)
C52? C 0.1440(5) 0.0545(10) 0.0275(4)
H53? H 0.1523 -0.0357 0.0281
H54? H 0.1825 0.0940 0.0536
H55? H 0.1514 0.0865 -0.0086
C53? C 0.0314(7) 0.2071(8) 0.0257(4)
H56? H 0.0567 0.2337 -0.0066
H57? H 0.0442 0.2665 0.0549
H58? H -0.0265 0.2035 0.0179
loop_
_geom_bond_atom_site_label_1
_geom_bond_atom_site_label_2
_geom_bond_site_symmetry_1
_geom_bond_site_symmetry_2
C1 C2 1_555 1_555
C2 H1 1_555 1_555
H2 C2 1_555 1_555
C3 C2 1_555 1_555
H3 C3 1_555 1_555
H4 C3 1_555 1_555
H5 C3 1_555 1_555
C4 H6 1_555 1_555
C5 C4 1_555 1_555
C6 C5 1_555 1_555
C7 C6 1_555 1_555
H7 C7 1_555 1_555
C8 C7 1_555 1_555
H8 C8 1_555 1_555
C9 C8 1_555 1_555
C10 C9 1_555 1_555
H9 C10 1_555 1_555
C11 C12 1_555 1_555
C12 H10 1_555 1_555
H11 C12 1_555 1_555
C13 C12 1_555 1_555
H12 C13 1_555 1_555
H13 C13 1_555 1_555
H14 C13 1_555 1_555
C14 C10 1_555 1_555
C15 C14 1_555 1_555
C16 C15 1_555 1_555
H15 C16 1_555 1_555
C17 C16 1_555 1_555
H16 C17 1_555 1_555
C18 C17 1_555 1_555
C19 C18 1_555 1_555
H17 C19 1_555 1_555
C20 C21 1_555 1_555
C21 H18 1_555 1_555
H19 C21 1_555 1_555
C22 C21 1_555 1_555
H20 C22 1_555 1_555
H21 C22 1_555 1_555
H22 C22 1_555 1_555
C23 C19 1_555 1_555
C24 C23 1_555 1_555
C25 C24 1_555 1_555
H23 C25 1_555 1_555
C26 C25 1_555 1_555
H24 C26 1_555 1_555
C27 C26 1_555 1_555
C28 C27 1_555 1_555
H25 C28 1_555 1_555
C29 C30 1_555 1_555
C30 H26 1_555 1_555
H27 C30 1_555 1_555
C31 C30 1_555 1_555
H28 C31 1_555 1_555
H29 C31 1_555 1_555
H30 C31 1_555 1_555
C32 C28 1_555 1_555
C33 C32 1_555 1_555
C34 C33 1_555 1_555
H31 C34 1_555 1_555
C35 C34 1_555 1_555
H32 C35 1_555 1_555
C36 C4 1_555 1_555
C37 C36 1_555 1_555
H33 C37 1_555 1_555
C38 C33 1_555 1_555
H34 C38 1_555 1_555
C39 C27 1_555 1_555
H35 C39 1_555 1_555
C40 C24 1_555 1_555
H36 C40 1_555 1_555
C41 C18 1_555 1_555
H37 C41 1_555 1_555
C42 C15 1_555 1_555
H38 C42 1_555 1_555
C43 C9 1_555 1_555
H39 C43 1_555 1_555
C44 C6 1_555 1_555
H40 C44 1_555 1_555
O1 C1 1_555 1_555
O2 C1 1_555 1_555
O3 C5 1_555 1_555
O4 C10 1_555 1_555
O5 C11 1_555 1_555
O6 C14 1_555 1_555
O7 C19 1_555 1_555
O8 C20 1_555 1_555
O9 C23 1_555 1_555
O10 C28 1_555 1_555
O11 C29 1_555 1_555
O12 C32 1_555 1_555
C45 C46 1_555 1_555
C46 H41 1_555 1_555
H42 C46 1_555 1_555
H43 C46 1_555 1_555
C47 C45 1_555 1_555
H44 C47 1_555 1_555
H45 C47 1_555 1_555
H46 C47 1_555 1_555
O13 C45 1_555 1_555
O14 C48 1_555 1_555
C48 C49 1_555 1_555
C49 H47 1_555 1_555
H48 C49 1_555 1_555
H49 C49 1_555 1_555
C50 C48 1_555 1_555
H50 C50 1_555 1_555
H51 C50 1_555 1_555
H52 C50 1_555 1_555
C4 O1 1_555 1_555
C11 O4 1_555 1_555
C20 O7 1_555 1_555
C29 O10 1_555 1_555
C35 C36 1_555 1_555
C37 C38 1_555 1_555
C39 C40 1_555 1_555
C41 C42 1_555 1_555
C43 C44 1_555 1_555

#END
