
#######################################################################
#
#                 Cambridge Crystallographic Data Centre
#                                CCDC 
#
#######################################################################
#
# If this CIF has been generated from an entry in the Cambridge 
# Structural Database, then it will include bibliographic, chemical, 
# crystal, experimental, refinement or atomic coordinate data resulting 
# from the CCDC's data processing and validation procedures.
#
#######################################################################

data_KOCBUB
_chemical_formula_moiety         'C11 H21 B10 N1 S1'
_chemical_name_systematic        
N-(4-ethylphenyl)(1,2-dicarba-closo-dodecaborane-1-yl(11))carbothioamide
_symmetry_cell_setting           monoclinic
_symmetry_space_group_name_H-M   'P 21/c'
_symmetry_Int_Tables_number      14
_space_group_name_Hall           '-P 2ybc'
loop_
_symmetry_equiv_pos_site_id
_symmetry_equiv_pos_as_xyz
1 x,y,z
2 -x,1/2+y,1/2-z
3 -x,-y,-z
4 x,1/2-y,1/2+z
_cell_length_a                   11.4931(16)
_cell_length_b                   18.880(2)
_cell_length_c                   8.6737(10)
_cell_angle_alpha                90
_cell_angle_beta                 110.802(13)
_cell_angle_gamma                90
_cell_volume                     1759.42
_exptl_crystal_colour            yellow
_cell_formula_units_Z            4
loop_
_atom_site_label
_atom_site_type_symbol
_atom_site_fract_x
_atom_site_fract_y
_atom_site_fract_z
S1 S 0.57141(8) 0.64608(4) -0.11955(8)
N1 N 0.45435(19) 0.69415(11) 0.0715(2)
H1 H 0.4551 0.6998 0.1702
C1 C 0.5462(2) 0.65667(11) 0.0530(3)
C2 C 0.6298(2) 0.62213(11) 0.2118(3)
C3 C 0.3540(2) 0.72606(12) -0.0597(3)
C4 C 0.1523(3) 0.78765(14) -0.3058(3)
C5 C 0.7650(2) 0.59247(12) 0.2153(3)
H2 H 0.7922 0.5991 0.1067
C6 C 0.0380(4) 0.8942(2) -0.4687(4)
H3 H -0.0390 0.9072 -0.5534
H4 H 0.1062 0.9062 -0.5032
H5 H 0.0463 0.9191 -0.3689
C7 C 0.3372(3) 0.79767(13) -0.0624(3)
H6 H 0.3932 0.8260 0.0176
C8 C 0.1722(3) 0.71587(16) -0.2994(4)
H7 H 0.1170 0.6872 -0.3793
C9 C 0.2367(3) 0.82797(15) -0.1845(3)
H8 H 0.2258 0.8768 -0.1848
C10 C 0.0387(3) 0.81820(19) -0.4394(4)
H9 H 0.0293 0.7942 -0.5420
H10 H -0.0338 0.8068 -0.4119
C11 C 0.2711(3) 0.68531(14) -0.1788(4)
H11 H 0.2820 0.6365 -0.1780
B1 B 0.6512(3) 0.53177(14) 0.2006(4)
H12 H 0.6036 0.4989 0.0916
B2 B 0.7633(3) 0.66674(15) 0.3273(4)
H13 H 0.7874 0.7204 0.2996
B3 B 0.8773(3) 0.59964(17) 0.4045(4)
H14 H 0.9763 0.6098 0.4280
B4 B 0.8076(3) 0.51733(15) 0.3275(4)
H15 H 0.8623 0.4742 0.3015
B5 B 0.6871(3) 0.50079(16) 0.4016(4)
H16 H 0.6626 0.4467 0.4259
B6 B 0.5723(3) 0.56746(15) 0.3237(4)
H17 H 0.4726 0.5576 0.2958
B7 B 0.6422(3) 0.65020(15) 0.4034(3)
H18 H 0.5873 0.6937 0.4276
B8 B 0.7987(3) 0.63534(16) 0.5290(4)
H19 H 0.8466 0.6691 0.6363
B9 B 0.8267(3) 0.54296(16) 0.5292(4)
H20 H 0.8933 0.5164 0.6376
B10 B 0.6817(4) 0.57350(17) 0.5284(4)
H21 H 0.6535 0.5666 0.6361
loop_
_geom_bond_atom_site_label_1
_geom_bond_atom_site_label_2
_geom_bond_site_symmetry_1
_geom_bond_site_symmetry_2
S1 C1 1_555 1_555
N1 H1 1_555 1_555
C1 N1 1_555 1_555
C2 C1 1_555 1_555
C3 N1 1_555 1_555
C4 C8 1_555 1_555
C5 C2 1_555 1_555
H2 C5 1_555 1_555
C6 H3 1_555 1_555
H4 C6 1_555 1_555
H5 C6 1_555 1_555
C7 C3 1_555 1_555
H6 C7 1_555 1_555
C8 H7 1_555 1_555
C9 C4 1_555 1_555
H8 C9 1_555 1_555
C10 C4 1_555 1_555
H9 C10 1_555 1_555
H10 C10 1_555 1_555
C11 C3 1_555 1_555
H11 C11 1_555 1_555
B1 C2 1_555 1_555
H12 B1 1_555 1_555
B2 C2 1_555 1_555
H13 B2 1_555 1_555
B3 C5 1_555 1_555
H14 B3 1_555 1_555
B4 C5 1_555 1_555
H15 B4 1_555 1_555
B5 B1 1_555 1_555
H16 B5 1_555 1_555
B6 C2 1_555 1_555
H17 B6 1_555 1_555
B7 C2 1_555 1_555
H18 B7 1_555 1_555
B8 B2 1_555 1_555
H19 B8 1_555 1_555
B9 B3 1_555 1_555
H20 B9 1_555 1_555
B10 B5 1_555 1_555
H21 B10 1_555 1_555
C5 B1 1_555 1_555
C5 B2 1_555 1_555
C6 C10 1_555 1_555
C7 C9 1_555 1_555
C8 C11 1_555 1_555
B1 B4 1_555 1_555
B1 B6 1_555 1_555
B2 B3 1_555 1_555
B2 B7 1_555 1_555
B3 B4 1_555 1_555
B3 B8 1_555 1_555
B4 B5 1_555 1_555
B4 B9 1_555 1_555
B5 B6 1_555 1_555
B5 B9 1_555 1_555
B6 B7 1_555 1_555
B6 B10 1_555 1_555
B7 B8 1_555 1_555
B7 B10 1_555 1_555
B8 B9 1_555 1_555
B8 B10 1_555 1_555
B9 B10 1_555 1_555

#END
