
#######################################################################
#
#                 Cambridge Crystallographic Data Centre
#                                CCDC 
#
#######################################################################
#
# If this CIF has been generated from an entry in the Cambridge 
# Structural Database, then it will include bibliographic, chemical, 
# crystal, experimental, refinement or atomic coordinate data resulting 
# from the CCDC's data processing and validation procedures.
#
#######################################################################

data_KOCBAH
_chemical_formula_moiety         'C9 H16 B10 I1 N1 O1'
_chemical_name_systematic        
1-([(4-iodophenyl)amino]carbonyl)-1,2-closo-dicarbadodecaborane
_symmetry_cell_setting           monoclinic
_symmetry_space_group_name_H-M   'P 21/n'
_symmetry_Int_Tables_number      14
_space_group_name_Hall           '-P 2yn'
loop_
_symmetry_equiv_pos_site_id
_symmetry_equiv_pos_as_xyz
1 x,y,z
2 1/2-x,1/2+y,1/2-z
3 -x,-y,-z
4 1/2+x,1/2-y,1/2+z
_cell_length_a                   7.2249(2)
_cell_length_b                   22.8107(10)
_cell_length_c                   10.5504(4)
_cell_angle_alpha                90
_cell_angle_beta                 109.334(4)
_cell_angle_gamma                90
_cell_volume                     1640.7
_exptl_crystal_colour            colorless
_cell_formula_units_Z            4
loop_
_atom_site_label
_atom_site_type_symbol
_atom_site_fract_x
_atom_site_fract_y
_atom_site_fract_z
I1 I 1.17755(3) 0.570780(12) 0.41617(2)
N1 N 0.3058(3) 0.62851(11) 0.0839(2)
H1 H 0.2700 0.6640 0.0904
C1 C 0.1742(4) 0.59437(14) -0.0038(3)
O1 O 0.1897(4) 0.54212(11) -0.0161(3)
C2 C 0.4972(4) 0.61318(13) 0.1674(3)
C3 C -0.0050(4) 0.62646(12) -0.0946(3)
C4 C 0.8808(4) 0.58910(14) 0.3167(3)
C5 C 0.7511(5) 0.54381(14) 0.2677(3)
H2 H 0.7931 0.5052 0.2848
C6 C 0.6265(5) 0.65822(14) 0.2206(3)
H3 H 0.5837 0.6969 0.2058
C7 C 0.8190(5) 0.64648(15) 0.2958(3)
H4 H 0.9060 0.6770 0.3318
C8 C -0.1676(5) 0.58392(13) -0.1963(3)
H5 H -0.1444 0.5362 -0.1950
C9 C 0.5586(5) 0.55575(14) 0.1930(3)
H6 H 0.4705 0.5252 0.1599
B1 B -0.1121(5) 0.68470(15) -0.0466(4)
H7 H -0.0548 0.7065 0.0516
B2 B -0.2189(5) 0.61379(16) -0.0634(4)
H8 H -0.2311 0.5890 0.0229
B3 B -0.2278(5) 0.72350(16) -0.1971(4)
H9 H -0.2487 0.7713 -0.1980
B4 B 0.0053(5) 0.69220(15) -0.1684(4)
H10 H 0.1387 0.7189 -0.1487
B5 B -0.3973(5) 0.60941(17) -0.2237(5)
H11 H -0.5278 0.5816 -0.2416
B6 B -0.3659(6) 0.67547(18) -0.1313(4)
H12 H -0.4763 0.6918 -0.0889
B7 B -0.0264(6) 0.62613(19) -0.2623(4)
H13 H 0.0847 0.6093 -0.3034
B8 B -0.4059(6) 0.67704(17) -0.3066(4)
H14 H -0.5427 0.6942 -0.3786
B9 B -0.2813(7) 0.61687(19) -0.3465(4)
H15 H -0.3365 0.5941 -0.4438
B10 B -0.1744(6) 0.68747(19) -0.3286(4)
H16 H -0.1598 0.7116 -0.4150
loop_
_geom_bond_atom_site_label_1
_geom_bond_atom_site_label_2
_geom_bond_site_symmetry_1
_geom_bond_site_symmetry_2
I1 C4 1_555 1_555
N1 H1 1_555 1_555
C1 N1 1_555 1_555
O1 C1 1_555 1_555
C2 N1 1_555 1_555
C3 C1 1_555 1_555
C4 C5 1_555 1_555
C5 H2 1_555 1_555
C6 C2 1_555 1_555
H3 C6 1_555 1_555
C7 C4 1_555 1_555
H4 C7 1_555 1_555
C8 C3 1_555 1_555
H5 C8 1_555 1_555
C9 C2 1_555 1_555
H6 C9 1_555 1_555
B1 C3 1_555 1_555
H7 B1 1_555 1_555
B2 C3 1_555 1_555
H8 B2 1_555 1_555
B3 B1 1_555 1_555
H9 B3 1_555 1_555
B4 C3 1_555 1_555
H10 B4 1_555 1_555
B5 C8 1_555 1_555
H11 B5 1_555 1_555
B6 B1 1_555 1_555
H12 B6 1_555 1_555
B7 C3 1_555 1_555
H13 B7 1_555 1_555
B8 B3 1_555 1_555
H14 B8 1_555 1_555
B9 C8 1_555 1_555
H15 B9 1_555 1_555
B10 B3 1_555 1_555
H16 B10 1_555 1_555
C5 C9 1_555 1_555
C6 C7 1_555 1_555
C8 B2 1_555 1_555
C8 B7 1_555 1_555
B1 B2 1_555 1_555
B1 B4 1_555 1_555
B2 B5 1_555 1_555
B2 B6 1_555 1_555
B3 B4 1_555 1_555
B3 B6 1_555 1_555
B4 B7 1_555 1_555
B4 B10 1_555 1_555
B5 B6 1_555 1_555
B5 B8 1_555 1_555
B5 B9 1_555 1_555
B6 B8 1_555 1_555
B7 B9 1_555 1_555
B7 B10 1_555 1_555
B8 B9 1_555 1_555
B8 B10 1_555 1_555
B9 B10 1_555 1_555

#END
