
#######################################################################
#
#                 Cambridge Crystallographic Data Centre
#                                CCDC 
#
#######################################################################
#
# If this CIF has been generated from an entry in the Cambridge 
# Structural Database, then it will include bibliographic, chemical, 
# crystal, experimental, refinement or atomic coordinate data resulting 
# from the CCDC's data processing and validation procedures.
#
#######################################################################

data_KOCKAO02
_chemical_formula_moiety         'C26 H18 O2'
_chemical_name_systematic        9H,9'H-9,9'-Bixanthyl
_symmetry_cell_setting           orthorhombic
_symmetry_space_group_name_H-M   'P 21 21 2'
_symmetry_Int_Tables_number      18
_space_group_name_Hall           'P 2 2ab'
loop_
_symmetry_equiv_pos_site_id
_symmetry_equiv_pos_as_xyz
1 x,y,z
2 -x,-y,z
3 1/2-x,1/2+y,-z
4 1/2+x,1/2-y,-z
_cell_length_a                   10.6939(2)
_cell_length_b                   12.373
_cell_length_c                   6.86590(10)
_cell_angle_alpha                90
_cell_angle_beta                 90
_cell_angle_gamma                90
_cell_volume                     908.466
_exptl_crystal_colour            colorless
_cell_formula_units_Z            2
loop_
_atom_site_label
_atom_site_type_symbol
_atom_site_fract_x
_atom_site_fract_y
_atom_site_fract_z
O1 O 0.06582(8) 0.18197(7) 0.63250(13)
C1 C 0.02152(11) 0.21833(10) 0.8105(2)
C2 C -0.02707(12) 0.32272(11) 0.8109(2)
H1 H -0.02695(12) 0.36471(11) 0.6950(2)
C3 C -0.07549(13) 0.36465(11) 0.9816(2)
H2 H -0.10905(13) 0.43574(11) 0.9831(2)
C4 C -0.07524(13) 0.30318(12) 1.1510(2)
H3 H -0.10763(13) 0.33234(12) 1.2686(2)
C5 C -0.02754(12) 0.19924(11) 1.1473(2)
H4 H -0.02798(12) 0.15735(11) 1.2632(2)
C6 C 0.02140(11) 0.15451(10) 0.9760(2)
C7 C 0.06021(11) 0.03727(10) 0.9646(2)
H5 H 0.11029(11) 0.01995(10) 1.0836(2)
C8 C 0.14172(11) 0.01793(10) 0.7887(2)
C9 C 0.22202(12) -0.07115(10) 0.7740(2)
H6 H 0.23112(12) -0.11835(10) 0.8823(2)
C10 C 0.28853(13) -0.09177(11) 0.6046(2)
H7 H 0.34064(13) -0.15376(11) 0.5958(2)
C11 C 0.27855(12) -0.02129(11) 0.4477(2)
H8 H 0.32279(12) -0.03590(11) 0.3307(2)
C12 C 0.20441(12) 0.07011(10) 0.4614(2)
H9 H 0.19987(12) 0.11975(10) 0.3561(2)
C13 C 0.13671(11) 0.08837(10) 0.6309(2)
C7A C -0.06021(11) -0.03727(10) 0.9646(2)
C6A C -0.02140(11) -0.15451(10) 0.9760(2)
C1A C -0.02152(11) -0.21833(10) 0.8105(2)
O1A O -0.06582(8) -0.18197(7) 0.63250(13)
C13A C -0.13671(11) -0.08837(10) 0.6309(2)
C8A C -0.14172(11) -0.01793(10) 0.7887(2)
H5A H -0.11029(11) -0.01995(10) 1.0836(2)
C9A C -0.22202(12) 0.07115(10) 0.7740(2)
H6A H -0.23112(12) 0.11835(10) 0.8823(2)
C10A C -0.28853(13) 0.09177(11) 0.6046(2)
H7A H -0.34064(13) 0.15376(11) 0.5958(2)
C11A C -0.27855(12) 0.02129(11) 0.4477(2)
H8A H -0.32279(12) 0.03590(11) 0.3307(2)
C12A C -0.20441(12) -0.07011(10) 0.4614(2)
H9A H -0.19987(12) -0.11975(10) 0.3561(2)
C2A C 0.02707(12) -0.32272(11) 0.8109(2)
H1A H 0.02695(12) -0.36471(11) 0.6950(2)
C3A C 0.07549(13) -0.36465(11) 0.9816(2)
H2A H 0.10905(13) -0.43574(11) 0.9831(2)
C4A C 0.07524(13) -0.30318(12) 1.1510(2)
H3A H 0.10763(13) -0.33234(12) 1.2686(2)
C5A C 0.02754(12) -0.19924(11) 1.1473(2)
H4A H 0.02798(12) -0.15735(11) 1.2632(2)
loop_
_geom_bond_atom_site_label_1
_geom_bond_atom_site_label_2
_geom_bond_site_symmetry_1
_geom_bond_site_symmetry_2
O1 C1 1_555 1_555
C1 C2 1_555 1_555
C2 H1 1_555 1_555
C3 C2 1_555 1_555
H2 C3 1_555 1_555
C4 C3 1_555 1_555
H3 C4 1_555 1_555
C5 C4 1_555 1_555
H4 C5 1_555 1_555
C6 C1 1_555 1_555
C7 C6 1_555 1_555
H5 C7 1_555 1_555
C8 C7 1_555 1_555
C9 C8 1_555 1_555
H6 C9 1_555 1_555
C10 C9 1_555 1_555
H7 C10 1_555 1_555
C11 C10 1_555 1_555
H8 C11 1_555 1_555
C12 C11 1_555 1_555
H9 C12 1_555 1_555
C13 O1 1_555 1_555
C7A C7 1_555 1_555
C6A C7A 1_555 1_555
C1A C6A 1_555 1_555
O1A C1A 1_555 1_555
C13A O1A 1_555 1_555
C8A C7A 1_555 1_555
H5A C7A 1_555 1_555
C9A C8A 1_555 1_555
H6A C9A 1_555 1_555
C10A C9A 1_555 1_555
H7A C10A 1_555 1_555
C11A C10A 1_555 1_555
H8A C11A 1_555 1_555
C12A C13A 1_555 1_555
H9A C12A 1_555 1_555
C2A C1A 1_555 1_555
H1A C2A 1_555 1_555
C3A C2A 1_555 1_555
H2A C3A 1_555 1_555
C4A C3A 1_555 1_555
H3A C4A 1_555 1_555
C5A C6A 1_555 1_555
H4A C5A 1_555 1_555
C5 C6 1_555 1_555
C8 C13 1_555 1_555
C12 C13 1_555 1_555
C13A C8A 1_555 1_555
C11A C12A 1_555 1_555
C4A C5A 1_555 1_555

#END
