
#######################################################################
#
#                 Cambridge Crystallographic Data Centre
#                                CCDC 
#
#######################################################################
#
# If this CIF has been generated from an entry in the Cambridge 
# Structural Database, then it will include bibliographic, chemical, 
# crystal, experimental, refinement or atomic coordinate data resulting 
# from the CCDC's data processing and validation procedures.
#
#######################################################################

data_KOCLUM
_chemical_formula_moiety         'C21 H12 Cl1 N1 O1 S1'
_chemical_name_systematic        
'1-[2-(4-chlorophenyl)naphtho[2,1-b]furan-1-yl]ethenyl thiocyanate'
_symmetry_cell_setting           orthorhombic
_symmetry_space_group_name_H-M   'P b c n'
_symmetry_Int_Tables_number      60
_space_group_name_Hall           '-P 2n 2ab'
loop_
_symmetry_equiv_pos_site_id
_symmetry_equiv_pos_as_xyz
1 x,y,z
2 1/2-x,1/2-y,1/2+z
3 1/2+x,1/2-y,-z
4 -x,y,1/2-z
5 -x,-y,-z
6 1/2+x,1/2+y,1/2-z
7 1/2-x,1/2+y,z
8 x,-y,1/2+z
_cell_length_a                   19.1660(14)
_cell_length_b                   12.0176(6)
_cell_length_c                   14.9800(9)
_cell_angle_alpha                90
_cell_angle_beta                 90
_cell_angle_gamma                90
_cell_volume                     3450.33
_exptl_crystal_colour            colorless
_exptl_crystal_description       block
_cell_formula_units_Z            8
loop_
_atom_site_label
_atom_site_type_symbol
_atom_site_fract_x
_atom_site_fract_y
_atom_site_fract_z
Cl1 Cl 0.45249(8) 0.63557(11) 0.62887(8)
S1 S 0.59086(6) 0.62316(8) 0.18640(8)
O1 O 0.57026(13) 0.97140(19) 0.30887(15)
N1 N 0.6577(3) 0.4153(3) 0.2042(3)
C1 C 0.50211(19) 0.8580(3) 0.4420(2)
H1 H 0.488368 0.929550 0.426062
C2 C 0.4712(2) 0.8059(4) 0.5148(3)
H2 H 0.437056 0.842413 0.547791
C3 C 0.4916(2) 0.6996(4) 0.5377(2)
C4 C 0.5422(2) 0.6445(3) 0.4906(2)
H3 H 0.555826 0.573281 0.507500
C5 C 0.57292(19) 0.6956(3) 0.4175(2)
H4 H 0.606647 0.657858 0.384731
C6 C 0.55358(17) 0.8038(3) 0.3926(2)
C7 C 0.58538(18) 0.8594(3) 0.3154(2)
C8 C 0.62652(17) 0.8268(3) 0.2462(2)
C9 C 0.63822(17) 0.9241(3) 0.1907(2)
C10 C 0.60285(17) 1.0093(3) 0.2335(2)
C11 C 0.6005(2) 1.1194(3) 0.2031(3)
H5 H 0.576717 1.174390 0.234428
C12 C 0.6343(2) 1.1419(3) 0.1260(3)
H6 H 0.634308 1.214384 0.104398
C13 C 0.67006(18) 1.0579(3) 0.0770(2)
C14 C 0.67228(17) 0.9462(3) 0.1081(2)
C15 C 0.7064(2) 0.8657(3) 0.0557(3)
H7 H 0.708257 0.792227 0.074988
C16 C 0.7369(2) 0.8951(4) -0.0239(3)
H8 H 0.758776 0.840796 -0.058213
C17 C 0.7357(2) 1.0045(4) -0.0540(3)
H9 H 0.757235 1.023256 -0.107564
C18 C 0.7033(2) 1.0831(3) -0.0052(3)
H10 H 0.702646 1.155998 -0.025980
C19 C 0.65574(18) 0.7141(3) 0.2318(2)
C20 C 0.7207(2) 0.6854(3) 0.2477(3)
H11 H 0.752087 0.737670 0.269631
H12 H 0.735259 0.612830 0.236938
C21 C 0.6319(2) 0.4996(3) 0.1953(3)
loop_
_geom_bond_atom_site_label_1
_geom_bond_atom_site_label_2
_geom_bond_site_symmetry_1
_geom_bond_site_symmetry_2
Cl1 C3 1_555 1_555
S1 C19 1_555 1_555
O1 C7 1_555 1_555
N1 C21 1_555 1_555
C1 H1 1_555 1_555
C2 C1 1_555 1_555
H2 C2 1_555 1_555
C3 C2 1_555 1_555
C4 C3 1_555 1_555
H3 C4 1_555 1_555
C5 C4 1_555 1_555
H4 C5 1_555 1_555
C6 C1 1_555 1_555
C7 C6 1_555 1_555
C8 C7 1_555 1_555
C9 C8 1_555 1_555
C10 O1 1_555 1_555
C11 C10 1_555 1_555
H5 C11 1_555 1_555
C12 C11 1_555 1_555
H6 C12 1_555 1_555
C13 C12 1_555 1_555
C14 C9 1_555 1_555
C15 C14 1_555 1_555
H7 C15 1_555 1_555
C16 C15 1_555 1_555
H8 C16 1_555 1_555
C17 C16 1_555 1_555
H9 C17 1_555 1_555
C18 C13 1_555 1_555
H10 C18 1_555 1_555
C19 C8 1_555 1_555
C20 C19 1_555 1_555
H11 C20 1_555 1_555
H12 C20 1_555 1_555
C21 S1 1_555 1_555
C5 C6 1_555 1_555
C9 C10 1_555 1_555
C13 C14 1_555 1_555
C17 C18 1_555 1_555

#END
