
#######################################################################
#
#                 Cambridge Crystallographic Data Centre
#                                CCDC 
#
#######################################################################
#
# If this CIF has been generated from an entry in the Cambridge 
# Structural Database, then it will include bibliographic, chemical, 
# crystal, experimental, refinement or atomic coordinate data resulting 
# from the CCDC's data processing and validation procedures.
#
#######################################################################

data_KOCMAT
_chemical_formula_moiety         'C11 H10 O3 S1'
_chemical_name_systematic        
7-methoxy-3-(methylsulfanyl)-4H-1-benzopyran-4-one
_symmetry_cell_setting           orthorhombic
_symmetry_space_group_name_H-M   'P n m a'
_symmetry_Int_Tables_number      62
_space_group_name_Hall           '-P 2ac 2n'
loop_
_symmetry_equiv_pos_site_id
_symmetry_equiv_pos_as_xyz
1 x,y,z
2 1/2-x,-y,1/2+z
3 -x,1/2+y,-z
4 1/2+x,1/2-y,1/2-z
5 -x,-y,-z
6 1/2+x,y,1/2-z
7 x,1/2-y,z
8 1/2-x,1/2+y,1/2+z
_cell_length_a                   23.014(7)
_cell_length_b                   6.551(2)
_cell_length_c                   6.696(2)
_cell_angle_alpha                90
_cell_angle_beta                 90
_cell_angle_gamma                90
_cell_volume                     1009.52
_exptl_crystal_colour            colorless
_exptl_crystal_description       Block
_cell_formula_units_Z            4
loop_
_atom_site_label
_atom_site_type_symbol
_atom_site_fract_x
_atom_site_fract_y
_atom_site_fract_z
C1 C 0.93375(12) 0.7500 0.4812(4)
H1 H 0.9753 0.7500 0.4684
H2 H 0.9217 0.8696 0.5528
C2 C 0.76705(10) 0.7500 0.0613(3)
H3 H 0.7519 0.7500 -0.0675
C3 C 0.82542(11) 0.7500 0.0872(3)
H4 H 0.8499 0.7500 -0.0232
C4 C 0.84889(10) 0.7500 0.2800(3)
C5 C 0.81334(10) 0.7500 0.4445(3)
H5 H 0.8288 0.7500 0.5728
C6 C 0.75373(10) 0.7500 0.4139(3)
C7 C 0.72873(9) 0.7500 0.2256(3)
C8 C 0.66613(10) 0.7500 0.2042(3)
C9 C 0.63427(9) 0.7500 0.3916(3)
C10 C 0.66262(10) 0.7500 0.5664(3)
H6 H 0.6407 0.7500 0.6831
C11 C 0.53400(13) 0.7500 0.6175(4)
H7 H 0.4923 0.7500 0.6193
H8 H 0.5482 0.6304 0.6845
O1 O 0.64091(8) 0.7500 0.0429(2)
O2 O 0.72104(7) 0.7500 0.5832(2)
O3 O 0.90803(7) 0.7500 0.2881(3)
S1 S 0.55891(3) 0.7500 0.36541(9)
H2F H 0.9217 0.6304 0.5528
H8F H 0.5482 0.8696 0.6845
H9? H 0.9217 0.8696 0.5528
H10? H 0.5482 0.6304 0.6845
loop_
_geom_bond_atom_site_label_1
_geom_bond_atom_site_label_2
_geom_bond_site_symmetry_1
_geom_bond_site_symmetry_2
C1 H1 1_555 1_555
H2 C1 1_555 1_555
C2 H3 1_555 1_555
C3 C2 1_555 1_555
H4 C3 1_555 1_555
C4 C3 1_555 1_555
C5 C4 1_555 1_555
H5 C5 1_555 1_555
C6 C5 1_555 1_555
C7 C2 1_555 1_555
C8 C7 1_555 1_555
C9 C8 1_555 1_555
C10 C9 1_555 1_555
H6 C10 1_555 1_555
C11 H7 1_555 1_555
H8 C11 1_555 1_555
O1 C8 1_555 1_555
O2 C6 1_555 1_555
O3 C1 1_555 1_555
S1 C9 1_555 1_555
H2F C1 1_555 1_555
H8F C11 1_555 1_555
C4 O3 1_555 1_555
C6 C7 1_555 1_555
C10 O2 1_555 1_555
C11 S1 1_555 1_555

#END
