
#######################################################################
#
#                 Cambridge Crystallographic Data Centre
#                                CCDC 
#
#######################################################################
#
# If this CIF has been generated from an entry in the Cambridge 
# Structural Database, then it will include bibliographic, chemical, 
# crystal, experimental, refinement or atomic coordinate data resulting 
# from the CCDC's data processing and validation procedures.
#
#######################################################################

data_KOCNIC
_chemical_formula_moiety         'C23 H20 N2 O1'
_chemical_name_systematic        
'[(3^4^-methoxy[2^3^,2^4^,2^5^,2^6^-tetrahydro[1^1^,2^1^:2^2^,3^1^-terphenyl]]-1^4^-yl)methylidene]propanedinitrile'
_symmetry_cell_setting           monoclinic
_symmetry_space_group_name_H-M   'P 21/c'
_symmetry_Int_Tables_number      14
_space_group_name_Hall           '-P 2ybc'
loop_
_symmetry_equiv_pos_site_id
_symmetry_equiv_pos_as_xyz
1 x,y,z
2 -x,1/2+y,1/2-z
3 -x,-y,-z
4 x,1/2-y,1/2+z
_cell_length_a                   8.1645(16)
_cell_length_b                   17.838(4)
_cell_length_c                   13.102(3)
_cell_angle_alpha                90
_cell_angle_beta                 104.42(3)
_cell_angle_gamma                90
_cell_volume                     1848.04
_exptl_crystal_description       block
_cell_formula_units_Z            4
loop_
_atom_site_label
_atom_site_type_symbol
_atom_site_fract_x
_atom_site_fract_y
_atom_site_fract_z
O1 O 1.2618(2) 0.69119(8) 1.11776(11)
N1 N 0.5239(3) 0.58060(11) 0.87854(16)
N2 N 0.3343(3) 0.45322(11) 0.59242(15)
C1 C 1.3541(4) 0.62652(12) 1.10076(18)
H1 H 1.2824 0.5951 1.0461
H2 H 1.3889 0.5979 1.1664
H3 H 1.4546 0.6421 1.0780
C2 C 1.2116(3) 0.74187(11) 1.03725(16)
C3 C 1.1307(3) 0.80530(11) 1.06072(15)
H4 H 1.1141 0.8114 1.1295
C4 C 1.0739(3) 0.85976(11) 0.98599(15)
H5 H 1.0204 0.9032 1.0043
C5 C 1.0936(3) 0.85219(11) 0.88355(15)
C6 C 1.1771(3) 0.78868(11) 0.86098(15)
H6 H 1.1945 0.7827 0.7924
C7 C 1.2358(3) 0.73344(11) 0.93695(16)
H7 H 1.2920 0.6904 0.9199
C8 C 1.0324(3) 0.91148(10) 0.80218(15)
C9 C 1.1116(3) 0.98766(11) 0.83041(17)
H8 H 1.2316 0.9855 0.8276
H9 H 1.1090 0.9998 0.9037
C10 C 1.0234(3) 1.05003(11) 0.75797(18)
H10 H 0.9141 1.0621 0.7740
H11 H 1.0944 1.0957 0.7696
C11 C 0.9934(3) 1.02530(12) 0.64511(18)
H12 H 1.1026 1.0119 0.6299
H13 H 0.9429 1.0670 0.5978
C12 C 0.8756(3) 0.95796(11) 0.62438(16)
H14 H 0.8799 0.9350 0.5563
H15 H 0.7583 0.9753 0.6181
C13 C 0.9198(3) 0.89866(10) 0.71036(15)
C14 C 0.8222(3) 0.82753(10) 0.68712(14)
C15 C 0.7926(3) 0.79221(10) 0.58903(15)
H16 H 0.8401 0.8127 0.5359
C16 C 0.6956(3) 0.72814(11) 0.56810(15)
H17 H 0.6769 0.7056 0.5005
C17 C 0.6240(3) 0.69544(10) 0.64358(15)
C18 C 0.6501(3) 0.73154(11) 0.74174(15)
H18 H 0.6014 0.7114 0.7945
C19 C 0.7463(3) 0.79599(11) 0.76187(15)
H19 H 0.7614 0.8197 0.8285
C20 C 0.5302(3) 0.62638(11) 0.61578(16)
H20 H 0.4999 0.6154 0.5425
C21 C 0.4790(3) 0.57518(11) 0.67662(15)
C22 C 0.5053(3) 0.57933(11) 0.78881(18)
C23 C 0.3959(3) 0.50771(12) 0.62989(16)
loop_
_geom_bond_atom_site_label_1
_geom_bond_atom_site_label_2
_geom_bond_site_symmetry_1
_geom_bond_site_symmetry_2
O1 C1 1_555 1_555
N1 C22 1_555 1_555
N2 C23 1_555 1_555
C1 H1 1_555 1_555
H2 C1 1_555 1_555
H3 C1 1_555 1_555
C2 O1 1_555 1_555
C3 C2 1_555 1_555
H4 C3 1_555 1_555
C4 C3 1_555 1_555
H5 C4 1_555 1_555
C5 C4 1_555 1_555
C6 C5 1_555 1_555
H6 C6 1_555 1_555
C7 C2 1_555 1_555
H7 C7 1_555 1_555
C8 C5 1_555 1_555
C9 C8 1_555 1_555
H8 C9 1_555 1_555
H9 C9 1_555 1_555
C10 C9 1_555 1_555
H10 C10 1_555 1_555
H11 C10 1_555 1_555
C11 C10 1_555 1_555
H12 C11 1_555 1_555
H13 C11 1_555 1_555
C12 C11 1_555 1_555
H14 C12 1_555 1_555
H15 C12 1_555 1_555
C13 C8 1_555 1_555
C14 C13 1_555 1_555
C15 C14 1_555 1_555
H16 C15 1_555 1_555
C16 C15 1_555 1_555
H17 C16 1_555 1_555
C17 C16 1_555 1_555
C18 C17 1_555 1_555
H18 C18 1_555 1_555
C19 C14 1_555 1_555
H19 C19 1_555 1_555
C20 C17 1_555 1_555
H20 C20 1_555 1_555
C21 C20 1_555 1_555
C22 C21 1_555 1_555
C23 C21 1_555 1_555
C6 C7 1_555 1_555
C12 C13 1_555 1_555
C18 C19 1_555 1_555

#END
