
#######################################################################
#
#                 Cambridge Crystallographic Data Centre
#                                CCDC 
#
#######################################################################
#
# If this CIF has been generated from an entry in the Cambridge 
# Structural Database, then it will include bibliographic, chemical, 
# crystal, experimental, refinement or atomic coordinate data resulting 
# from the CCDC's data processing and validation procedures.
#
#######################################################################

data_KOCNOI
_chemical_formula_moiety         'C23 H16 N2 O1'
_chemical_name_systematic        
'[(3^4^-methoxy[1^1^,2^1^:2^2^,3^1^-terphenyl]-1^4^-yl)methylidene]propanedinitrile'
_symmetry_cell_setting           monoclinic
_symmetry_space_group_name_H-M   'P 21/c'
_symmetry_Int_Tables_number      14
_space_group_name_Hall           '-P 2ybc'
loop_
_symmetry_equiv_pos_site_id
_symmetry_equiv_pos_as_xyz
1 x,y,z
2 -x,1/2+y,1/2-z
3 -x,-y,-z
4 x,1/2-y,1/2+z
_cell_length_a                   7.7770(16)
_cell_length_b                   17.853(4)
_cell_length_c                   12.949(3)
_cell_angle_alpha                90
_cell_angle_beta                 101.44(3)
_cell_angle_gamma                90
_cell_volume                     1762.16
_exptl_crystal_description       plate
_cell_formula_units_Z            4
loop_
_atom_site_label
_atom_site_type_symbol
_atom_site_fract_x
_atom_site_fract_y
_atom_site_fract_z
O1 O 0.24723(12) 0.70089(5) 0.36846(7)
N1 N 1.14983(17) 0.44822(7) 0.90400(10)
N2 N 0.96095(18) 0.57066(7) 0.60837(10)
C1 C 0.29582(15) 0.74909(7) 0.45104(10)
C2 C 0.36844(16) 0.81645(8) 0.42630(10)
H1 H 0.3806 0.8260 0.3559
C3 C 0.42277(16) 0.86935(7) 0.50328(10)
H2 H 0.4711 0.9152 0.4851
C4 C 0.40799(15) 0.85668(7) 0.60749(9)
C5 C 0.33347(17) 0.78960(7) 0.63065(10)
H3 H 0.3207 0.7801 0.7009
C6 C 0.27686(16) 0.73577(7) 0.55329(10)
H4 H 0.2257 0.6903 0.5708
C7 C 0.46791(15) 0.91462(7) 0.68961(10)
C8 C 0.39835(16) 0.98670(7) 0.67333(11)
H5 H 0.3175 0.9974 0.6099
C9 C 0.44406(17) 1.04301(7) 0.74725(11)
H6 H 0.3957 1.0918 0.7342
C10 C 0.56022(18) 1.02782(8) 0.83988(12)
H7 H 0.5904 1.0659 0.8916
C11 C 0.63299(17) 0.95704(7) 0.85759(11)
H8 H 0.7136 0.9472 0.9215
C12 C 0.59007(15) 0.89994(7) 0.78322(10)
C13 C 0.68461(15) 0.82750(7) 0.80385(10)
C14 C 0.75727(16) 0.79249(7) 0.72572(10)
H9 H 0.7405 0.8144 0.6576
C15 C 0.85241(16) 0.72711(7) 0.74510(10)
H10 H 0.9004 0.7046 0.6906
C16 C 0.87860(15) 0.69362(7) 0.84512(10)
C17 C 0.81045(16) 0.72987(7) 0.92394(10)
H11 H 0.8307 0.7092 0.9929
C18 C 0.71432(16) 0.79513(7) 0.90361(10)
H12 H 0.6680 0.8182 0.9583
C19 C 0.96912(15) 0.62341(7) 0.87310(10)
H13 H 1.0020 0.6143 0.9467
C20 C 1.01445(15) 0.56871(7) 0.81150(10)
C21 C 1.09218(17) 0.50149(8) 0.86123(10)
C22 C 0.98458(17) 0.57009(7) 0.69869(11)
C23 C 0.17580(19) 0.62993(8) 0.38742(11)
H14 H 0.2648 0.6005 0.4345
H15 H 0.1396 0.6033 0.3205
H16 H 0.0739 0.6372 0.4203
loop_
_geom_bond_atom_site_label_1
_geom_bond_atom_site_label_2
_geom_bond_site_symmetry_1
_geom_bond_site_symmetry_2
O1 C1 1_555 1_555
N1 C21 1_555 1_555
N2 C22 1_555 1_555
C1 C2 1_555 1_555
C2 H1 1_555 1_555
C3 C2 1_555 1_555
H2 C3 1_555 1_555
C4 C3 1_555 1_555
C5 C4 1_555 1_555
H3 C5 1_555 1_555
C6 C1 1_555 1_555
H4 C6 1_555 1_555
C7 C4 1_555 1_555
C8 C7 1_555 1_555
H5 C8 1_555 1_555
C9 C8 1_555 1_555
H6 C9 1_555 1_555
C10 C9 1_555 1_555
H7 C10 1_555 1_555
C11 C10 1_555 1_555
H8 C11 1_555 1_555
C12 C7 1_555 1_555
C13 C12 1_555 1_555
C14 C13 1_555 1_555
H9 C14 1_555 1_555
C15 C14 1_555 1_555
H10 C15 1_555 1_555
C16 C15 1_555 1_555
C17 C16 1_555 1_555
H11 C17 1_555 1_555
C18 C13 1_555 1_555
H12 C18 1_555 1_555
C19 C16 1_555 1_555
H13 C19 1_555 1_555
C20 C19 1_555 1_555
C21 C20 1_555 1_555
C22 C20 1_555 1_555
C23 O1 1_555 1_555
H14 C23 1_555 1_555
H15 C23 1_555 1_555
H16 C23 1_555 1_555
C5 C6 1_555 1_555
C11 C12 1_555 1_555
C17 C18 1_555 1_555

#END
