
#######################################################################
#
#                 Cambridge Crystallographic Data Centre
#                                CCDC 
#
#######################################################################
#
# If this CIF has been generated from an entry in the Cambridge 
# Structural Database, then it will include bibliographic, chemical, 
# crystal, experimental, refinement or atomic coordinate data resulting 
# from the CCDC's data processing and validation procedures.
#
#######################################################################

data_KOCNEY
_chemical_formula_moiety         'C37 H28 N2 O3'
_chemical_name_systematic        
'[(4-(2,4,5-tris(4-methoxyphenyl)phenyl)phenyl)methylidene]propanedinitrile'
_symmetry_cell_setting           monoclinic
_symmetry_space_group_name_H-M   'P 21/c'
_symmetry_Int_Tables_number      14
_space_group_name_Hall           '-P 2ybc'
loop_
_symmetry_equiv_pos_site_id
_symmetry_equiv_pos_as_xyz
1 x,y,z
2 -x,1/2+y,1/2-z
3 -x,-y,-z
4 x,1/2-y,1/2+z
_cell_length_a                   10.465(2)
_cell_length_b                   15.416(3)
_cell_length_c                   18.321(4)
_cell_angle_alpha                90
_cell_angle_beta                 103.26(3)
_cell_angle_gamma                90
_cell_volume                     2876.9
_exptl_crystal_description       needle
_cell_formula_units_Z            4
loop_
_atom_site_label
_atom_site_type_symbol
_atom_site_fract_x
_atom_site_fract_y
_atom_site_fract_z
O1 O 0.4397(2) 0.08509(15) 0.91310(11)
O2 O -0.53904(18) 0.07190(14) 0.42043(11)
O3 O -0.2623(2) 0.43589(13) 0.22577(11)
N1 N 0.8702(3) 0.4157(3) 0.5959(2)
N2 N 1.0335(3) 0.47286(19) 0.83380(18)
C1 C 0.1480(3) 0.30941(18) 0.52734(15)
H1 H 0.1839 0.3560 0.5046
C2 C 0.0257(3) 0.27637(18) 0.49113(15)
C3 C -0.0259(3) 0.20646(18) 0.52459(15)
C4 C 0.0475(3) 0.17273(19) 0.59176(16)
H2 H 0.0130 0.1248 0.6136
C5 C 0.1682(3) 0.20575(18) 0.62814(15)
C6 C 0.2192(3) 0.27698(18) 0.59522(15)
C7 C 0.3467(3) 0.31727(17) 0.63183(15)
C8 C 0.3663(3) 0.35253(19) 0.70405(15)
H3 H 0.2958 0.3540 0.7287
C9 C 0.4868(3) 0.38503(18) 0.73933(16)
H4 H 0.4982 0.4084 0.7884
C10 C 0.5925(3) 0.38462(17) 0.70523(15)
C11 C 0.5718(3) 0.35227(18) 0.63212(16)
H5 H 0.6416 0.3526 0.6068
C12 C 0.4501(3) 0.31977(18) 0.59634(16)
H6 H 0.4373 0.2988 0.5464
C13 C 0.7178(3) 0.41586(17) 0.74824(16)
H7 H 0.7187 0.4285 0.7991
C14 C 0.8314(3) 0.43013(19) 0.72987(18)
C15 C 0.8526(3) 0.4210(2) 0.6563(2)
C16 C 0.9441(3) 0.4556(2) 0.78637(19)
C17 C 0.2395(3) 0.16913(18) 0.70144(16)
C18 C 0.3678(3) 0.13952(18) 0.71240(16)
H8 H 0.4087 0.1388 0.6711
C19 C 0.4381(3) 0.11098(18) 0.78188(17)
H9 H 0.5260 0.0914 0.7880
C20 C 0.3790(3) 0.11125(18) 0.84198(15)
C21 C 0.2502(3) 0.13821(19) 0.83185(16)
H10 H 0.2086 0.1372 0.8728
C22 C 0.1816(3) 0.16669(18) 0.76240(16)
H11 H 0.0931 0.1849 0.7562
C23 C 0.5739(3) 0.0586(2) 0.92573(18)
H12 H 0.5808 0.0082 0.8943
H13 H 0.6062 0.0432 0.9786
H14 H 0.6266 0.1064 0.9129
C24 C -0.1613(3) 0.17193(18) 0.49422(15)
C25 C -0.1852(3) 0.08345(18) 0.48116(16)
H15 H -0.1136 0.0440 0.4896
C26 C -0.3113(3) 0.05254(19) 0.45619(16)
H16 H -0.3256 -0.0077 0.4468
C27 C -0.4175(3) 0.10891(19) 0.44471(15)
C28 C -0.3954(3) 0.19622(19) 0.45703(16)
H17 H -0.4672 0.2355 0.4486
C29 C -0.2689(3) 0.22679(19) 0.48162(15)
H18 H -0.2552 0.2872 0.4902
C30 C -0.6517(3) 0.1268(2) 0.4115(2)
H19 H -0.6555 0.1519 0.4601
H20 H -0.7313 0.0927 0.3921
H21 H -0.6455 0.1736 0.3762
C31 C -0.0463(2) 0.31675(18) 0.41946(14)
C32 C -0.0969(3) 0.26710(18) 0.35606(15)
H22 H -0.0832 0.2061 0.3578
C33 C -0.1669(3) 0.30479(18) 0.29030(16)
H23 H -0.1999 0.2696 0.2476
C34 C -0.1887(3) 0.39309(18) 0.28661(15)
C35 C -0.1356(3) 0.44391(19) 0.34854(16)
H24 H -0.1471 0.5051 0.3460
C36 C -0.0660(3) 0.40577(18) 0.41400(15)
H25 H -0.0308 0.4413 0.4562
C37 C -0.3030(3) 0.3871(2) 0.15873(16)
H26 H -0.2257 0.3635 0.1439
H27 H -0.3517 0.4247 0.1188
H28 H -0.3596 0.3393 0.1672
loop_
_geom_bond_atom_site_label_1
_geom_bond_atom_site_label_2
_geom_bond_site_symmetry_1
_geom_bond_site_symmetry_2
O1 C20 1_555 1_555
O2 C27 1_555 1_555
O3 C34 1_555 1_555
N1 C15 1_555 1_555
N2 C16 1_555 1_555
C1 H1 1_555 1_555
C2 C1 1_555 1_555
C3 C2 1_555 1_555
C4 C3 1_555 1_555
H2 C4 1_555 1_555
C5 C4 1_555 1_555
C6 C1 1_555 1_555
C7 C6 1_555 1_555
C8 C7 1_555 1_555
H3 C8 1_555 1_555
C9 C8 1_555 1_555
H4 C9 1_555 1_555
C10 C9 1_555 1_555
C11 C10 1_555 1_555
H5 C11 1_555 1_555
C12 C7 1_555 1_555
H6 C12 1_555 1_555
C13 C10 1_555 1_555
H7 C13 1_555 1_555
C14 C13 1_555 1_555
C15 C14 1_555 1_555
C16 C14 1_555 1_555
C17 C5 1_555 1_555
C18 C17 1_555 1_555
H8 C18 1_555 1_555
C19 C18 1_555 1_555
H9 C19 1_555 1_555
C20 C19 1_555 1_555
C21 C20 1_555 1_555
H10 C21 1_555 1_555
C22 C17 1_555 1_555
H11 C22 1_555 1_555
C23 O1 1_555 1_555
H12 C23 1_555 1_555
H13 C23 1_555 1_555
H14 C23 1_555 1_555
C24 C3 1_555 1_555
C25 C24 1_555 1_555
H15 C25 1_555 1_555
C26 C25 1_555 1_555
H16 C26 1_555 1_555
C27 C26 1_555 1_555
C28 C27 1_555 1_555
H17 C28 1_555 1_555
C29 C24 1_555 1_555
H18 C29 1_555 1_555
C30 O2 1_555 1_555
H19 C30 1_555 1_555
H20 C30 1_555 1_555
H21 C30 1_555 1_555
C31 C2 1_555 1_555
C32 C31 1_555 1_555
H22 C32 1_555 1_555
C33 C32 1_555 1_555
H23 C33 1_555 1_555
C34 C33 1_555 1_555
C35 C34 1_555 1_555
H24 C35 1_555 1_555
C36 C31 1_555 1_555
H25 C36 1_555 1_555
C37 O3 1_555 1_555
H26 C37 1_555 1_555
H27 C37 1_555 1_555
H28 C37 1_555 1_555
C5 C6 1_555 1_555
C11 C12 1_555 1_555
C21 C22 1_555 1_555
C28 C29 1_555 1_555
C35 C36 1_555 1_555

#END
