
#######################################################################
#
#                 Cambridge Crystallographic Data Centre
#                                CCDC 
#
#######################################################################
#
# If this CIF has been generated from an entry in the Cambridge 
# Structural Database, then it will include bibliographic, chemical, 
# crystal, experimental, refinement or atomic coordinate data resulting 
# from the CCDC's data processing and validation procedures.
#
#######################################################################

data_KOCPUQ
_chemical_formula_moiety         'C29 H35 B1 N2 O6'
_chemical_name_systematic        
'ethyl 2-[1-(ethoxycarbonyl)-1H-indol-3-yl]-4-(4,4,5,5-tetramethyl-1,3,2-dioxaborolan-2-yl)-1,2,3,4-tetrahydroquinoline-3-carboxylate'
_symmetry_cell_setting           monoclinic
_symmetry_space_group_name_H-M   'P 21/c'
_symmetry_Int_Tables_number      14
_space_group_name_Hall           '-P 2ybc'
loop_
_symmetry_equiv_pos_site_id
_symmetry_equiv_pos_as_xyz
1 x,y,z
2 -x,1/2+y,1/2-z
3 -x,-y,-z
4 x,1/2-y,1/2+z
_cell_length_a                   16.0337(16)
_cell_length_b                   12.9982(13)
_cell_length_c                   14.0060(14)
_cell_angle_alpha                90
_cell_angle_beta                 99.941(3)
_cell_angle_gamma                90
_cell_volume                     2875.15
_exptl_crystal_colour            colorless
_exptl_crystal_description       block
_cell_formula_units_Z            4
loop_
_atom_site_label
_atom_site_type_symbol
_atom_site_fract_x
_atom_site_fract_y
_atom_site_fract_z
B1 B 0.89857(17) 0.66158(19) 0.2015(2)
C1 C 0.66025(13) 1.08203(14) -0.00759(14)
C2 C 0.67792(16) 1.17244(16) -0.05257(18)
H1 H 0.6487 1.2330 -0.0455
C3 C 0.74046(19) 1.1687(2) -0.1080(2)
H2 H 0.7543 1.2285 -0.1383
C4 C 0.78399(18) 1.0784(2) -0.1204(2)
H3 H 0.8249 1.0784 -0.1600
C5 C 0.76699(15) 0.98904(17) -0.07440(17)
H4 H 0.7963 0.9288 -0.0823
C6 C 0.70510(13) 0.99076(14) -0.01594(14)
C7 C 0.67232(13) 0.91321(14) 0.04124(14)
C8 C 0.61063(13) 0.95673(14) 0.08085(14)
H5 H 0.5788 0.9233 0.1210
C9 C 0.54461(13) 1.13010(15) 0.08096(15)
C10 C 0.44810(16) 1.1564(2) 0.18798(19)
H6 H 0.4101 1.1155 0.2194
H7 H 0.4141 1.1955 0.1364
C11 C 0.4964(2) 1.2286(3) 0.2597(2)
H8 H 0.5313 1.1899 0.3098
H9 H 0.4575 1.2702 0.2879
H10 H 0.5314 1.2720 0.2277
C12 C 0.70528(13) 0.80539(13) 0.05313(15)
H11 H 0.7197 0.7839 -0.0091
C13 C 0.78471(13) 0.78983(14) 0.13139(15)
H12 H 0.8280 0.8396 0.1203
C14 C 0.81887(13) 0.68076(14) 0.12115(17)
H13 H 0.8397 0.6801 0.0594
C15 C 0.74815(14) 0.60140(14) 0.11077(16)
C16 C 0.66367(13) 0.63126(14) 0.08750(15)
C17 C 0.59936(15) 0.55763(17) 0.07911(17)
H14 H 0.5430 0.5781 0.0641
C18 C 0.61905(18) 0.45441(17) 0.09299(19)
H15 H 0.5760 0.4058 0.0885
C19 C 0.7019(2) 0.42393(17) 0.1133(2)
H16 H 0.7153 0.3545 0.1216
C20 C 0.76523(17) 0.49641(16) 0.1215(2)
H17 H 0.8213 0.4747 0.1346
C21 C 1.01289(19) 0.5847(2) 0.2922(3)
C22 C 1.0172(2) 0.6992(2) 0.3103(3)
C23 C 0.9833(4) 0.7197(5) 0.4079(4)
H18 H 0.9693 0.7912 0.4119
H19 H 1.0262 0.7016 0.4619
H20 H 0.9337 0.6787 0.4092
C24 C 1.0306(3) 0.5109(3) 0.3710(4)
H21 H 0.9939 0.5237 0.4170
H22 H 1.0885 0.5178 0.4024
H23 H 1.0212 0.4425 0.3457
C25 C 1.0975(3) 0.7535(4) 0.3105(5)
H24 H 1.1136 0.7477 0.2478
H25 H 1.1407 0.7236 0.3585
H26 H 1.0908 0.8248 0.3255
C26 C 1.0713(3) 0.5529(6) 0.2190(6)
H27 H 1.1286 0.5467 0.2525
H28 H 1.0685 0.6043 0.1693
H29 H 1.0527 0.4881 0.1900
C27 C 0.76607(13) 0.80542(15) 0.23295(16)
C28 C 0.7268(2) 0.9254(2) 0.34444(19)
H30 H 0.6871 0.8749 0.3610
H31 H 0.7777 0.9226 0.3933
C29 C 0.6900(3) 1.0267(3) 0.3425(3)
H32 H 0.7241 1.0742 0.3134
H33 H 0.6876 1.0484 0.4075
H34 H 0.6338 1.0251 0.3053
N1 N 0.60109(10) 1.06046(12) 0.05273(12)
N2 N 0.64099(11) 0.73530(12) 0.07588(14)
H35 H 0.5893 0.7464 0.0405
O1 O 0.50481(10) 1.08873(12) 0.14707(11)
O2 O 0.53415(10) 1.21554(11) 0.04789(12)
O3 O 0.76841(14) 0.73863(13) 0.29225(13)
O4 O 0.74747(12) 0.90207(11) 0.25009(11)
O5 O 0.92734(11) 0.56999(13) 0.23996(16)
O6 O 0.95247(12) 0.73970(13) 0.23339(17)
loop_
_geom_bond_atom_site_label_1
_geom_bond_atom_site_label_2
_geom_bond_site_symmetry_1
_geom_bond_site_symmetry_2
B1 C14 1_555 1_555
C1 C2 1_555 1_555
C2 H1 1_555 1_555
C3 C2 1_555 1_555
H2 C3 1_555 1_555
C4 C3 1_555 1_555
H3 C4 1_555 1_555
C5 C4 1_555 1_555
H4 C5 1_555 1_555
C6 C1 1_555 1_555
C7 C6 1_555 1_555
C8 C7 1_555 1_555
H5 C8 1_555 1_555
C9 N1 1_555 1_555
C10 H6 1_555 1_555
H7 C10 1_555 1_555
C11 C10 1_555 1_555
H8 C11 1_555 1_555
H9 C11 1_555 1_555
H10 C11 1_555 1_555
C12 C7 1_555 1_555
H11 C12 1_555 1_555
C13 C12 1_555 1_555
H12 C13 1_555 1_555
C14 C13 1_555 1_555
H13 C14 1_555 1_555
C15 C14 1_555 1_555
C16 C15 1_555 1_555
C17 C16 1_555 1_555
H14 C17 1_555 1_555
C18 C17 1_555 1_555
H15 C18 1_555 1_555
C19 C18 1_555 1_555
H16 C19 1_555 1_555
C20 C15 1_555 1_555
H17 C20 1_555 1_555
C21 C22 1_555 1_555
C22 C23 1_555 1_555
C23 H18 1_555 1_555
H19 C23 1_555 1_555
H20 C23 1_555 1_555
C24 C21 1_555 1_555
H21 C24 1_555 1_555
H22 C24 1_555 1_555
H23 C24 1_555 1_555
C25 C22 1_555 1_555
H24 C25 1_555 1_555
H25 C25 1_555 1_555
H26 C25 1_555 1_555
C26 C21 1_555 1_555
H27 C26 1_555 1_555
H28 C26 1_555 1_555
H29 C26 1_555 1_555
C27 C13 1_555 1_555
C28 H30 1_555 1_555
H31 C28 1_555 1_555
C29 C28 1_555 1_555
H32 C29 1_555 1_555
H33 C29 1_555 1_555
H34 C29 1_555 1_555
N1 C1 1_555 1_555
N2 C12 1_555 1_555
H35 N2 1_555 1_555
O1 C9 1_555 1_555
O2 C9 1_555 1_555
O3 C27 1_555 1_555
O4 C27 1_555 1_555
O5 B1 1_555 1_555
O6 B1 1_555 1_555
C5 C6 1_555 1_555
C8 N1 1_555 1_555
C10 O1 1_555 1_555
C16 N2 1_555 1_555
C19 C20 1_555 1_555
C21 O5 1_555 1_555
C22 O6 1_555 1_555
C28 O4 1_555 1_555

#END
