
#######################################################################
#
#                 Cambridge Crystallographic Data Centre
#                                CCDC 
#
#######################################################################
#
# If this CIF has been generated from an entry in the Cambridge 
# Structural Database, then it will include bibliographic, chemical, 
# crystal, experimental, refinement or atomic coordinate data resulting 
# from the CCDC's data processing and validation procedures.
#
#######################################################################

data_KOCQUR
_chemical_formula_moiety         'C100 H132 K2 Mg2 N4 O6'
_chemical_name_systematic        
bis(\m-N^9^,N^10^-bis[2,6-diisopropylphenyl]phenanthrene-9,10-diaminato)-hexakis(tetrahydrofuran)-di-magnesium(i)-di-potassium
_symmetry_cell_setting           triclinic
_symmetry_space_group_name_H-M   'P -1'
_symmetry_Int_Tables_number      2
_space_group_name_Hall           '-P 1'
loop_
_symmetry_equiv_pos_site_id
_symmetry_equiv_pos_as_xyz
1 x,y,z
2 -x,-y,-z
_cell_length_a                   12.886(2)
_cell_length_b                   12.993(2)
_cell_length_c                   16.345(3)
_cell_angle_alpha                78.553(3)
_cell_angle_beta                 71.205(2)
_cell_angle_gamma                62.174(2)
_cell_volume                     2287.34
_exptl_crystal_colour            yellow
_exptl_crystal_description       block
_cell_formula_units_Z            1
loop_
_atom_site_label
_atom_site_type_symbol
_atom_site_fract_x
_atom_site_fract_y
_atom_site_fract_z
K1 K 0.67448(5) 0.21547(5) 0.25488(4)
Mg1 Mg 0.58538(6) 0.46027(6) 0.41476(4)
N1 N 0.59402(15) 0.48164(15) 0.28479(11)
N2 N 0.76251(15) 0.34709(16) 0.36501(11)
O1 O 0.86375(17) 0.01013(16) 0.21630(12)
O2 O 0.65111(18) 0.15422(16) 0.11424(13)
O3 O 0.51816(16) 0.14937(17) 0.37698(12)
C1 C 0.84465(18) 0.31353(18) 0.41620(13)
C2 C 0.71126(19) 0.42362(18) 0.23137(13)
C3 C 0.80157(19) 0.34985(19) 0.27490(13)
C4 C 0.84169(19) 0.22984(19) 0.48542(13)
C5 C 0.92287(19) 0.36720(19) 0.40360(14)
C6 C 0.92352(19) 0.27790(19) 0.22472(14)
C7 C 0.5273(2) 0.6836(2) 0.21977(13)
C8 C 0.74126(19) 0.42557(19) 0.13805(14)
C9 C 0.9211(2) 0.1958(2) 0.53700(14)
H1 H 0.9189 0.1397 0.5839
C10 C 0.38915(19) 0.59129(19) 0.26631(14)
C11 C 0.7548(2) 0.1741(2) 0.50104(14)
H2 H 0.6763 0.2373 0.4912
C12 C 1.0133(2) 0.18626(19) 0.26364(15)
H3 H 0.9906 0.1663 0.3237
C13 C 0.4368(2) 0.7812(2) 0.18956(14)
H4 H 0.4524 0.8466 0.1636
C14 C 1.0023(2) 0.3285(2) 0.45599(15)
H5 H 1.0569 0.3623 0.4467
C15 C 0.36170(19) 0.4871(2) 0.30443(14)
H6 H 0.4262 0.4327 0.3340
C16 C 0.9183(2) 0.4692(2) 0.33836(15)
H7 H 0.8578 0.4837 0.3065
C17 C 1.0035(2) 0.2425(2) 0.52096(15)
H8 H 1.0604 0.2154 0.5545
C18 C 0.3016(2) 0.6914(2) 0.23580(15)
H9 H 0.2240 0.6952 0.2422
C19 C 0.50506(19) 0.58533(19) 0.25534(13)
C20 C 0.9586(2) 0.2971(2) 0.13343(15)
C21 C 0.3257(2) 0.7852(2) 0.19642(15)
H10 H 0.2662 0.8518 0.1743
C22 C 0.6506(2) 0.4783(2) 0.09115(15)
H11 H 0.5671 0.5082 0.1223
C23 C 0.6443(2) 0.6882(2) 0.21770(15)
C24 C 0.8655(2) 0.3723(2) 0.08875(14)
C25 C 1.1308(2) 0.1266(2) 0.21688(16)
H12 H 1.1884 0.0666 0.2448
C26 C 0.6809(2) 0.4869(2) 0.00293(15)
H13 H 0.6186 0.5212 -0.0265
C27 C 0.8031(2) 0.0828(2) 0.43484(15)
H14 H 0.8741 0.0143 0.4475
H15 H 0.8266 0.1160 0.3765
H16 H 0.7394 0.0597 0.4383
C28 C 0.8738(2) 0.5791(2) 0.38521(17)
H17 H 0.7943 0.5946 0.4265
H18 H 0.8662 0.6455 0.3429
H19 H 0.9322 0.5676 0.4163
C29 C 1.0815(2) 0.2361(2) 0.08765(15)
H20 H 1.1060 0.2528 0.0271
C30 C 1.1665(2) 0.1534(2) 0.12856(17)
H21 H 1.2490 0.1147 0.0968
C31 C 0.2394(2) 0.5189(2) 0.37222(16)
H22 H 0.2361 0.5598 0.4180
H23 H 0.2301 0.4476 0.3973
H24 H 0.1735 0.5695 0.3449
C32 C 0.7260(2) 0.1225(2) 0.59239(15)
H25 H 0.7997 0.0557 0.6029
H26 H 0.6630 0.0969 0.5997
H27 H 0.6968 0.1817 0.6337
C33 C 0.6157(2) 0.7798(2) 0.27825(17)
H28 H 0.5609 0.8567 0.2586
H29 H 0.6914 0.7812 0.2775
H30 H 0.5765 0.7601 0.3373
C34 C 0.7139(2) 0.7130(2) 0.12581(16)
H31 H 0.7315 0.6540 0.0878
H32 H 0.7904 0.7102 0.1277
H33 H 0.6640 0.7904 0.1035
C35 C 0.3709(2) 0.4213(2) 0.23235(16)
H34 H 0.3077 0.4717 0.2025
H35 H 0.3595 0.3511 0.2575
H36 H 0.4512 0.3991 0.1909
C36 C 0.4514(2) 0.1891(2) 0.46318(18)
H37 H 0.4202 0.2747 0.4630
H38 H 0.5043 0.1515 0.5032
C37 C 0.8918(2) 0.3882(2) -0.00188(16)
H39 H 0.9745 0.3581 -0.0348
C38 C 0.8027(2) 0.4455(3) -0.04445(16)
H40 H 0.8235 0.4571 -0.1057
C39 C 0.3266(2) 0.1519(2) 0.4056(2)
H41 H 0.2873 0.1003 0.4105
H42 H 0.2763 0.2308 0.3840
C40 C 1.0413(2) 0.4461(2) 0.27098(17)
H43 H 1.1016 0.4349 0.3003
H44 H 1.0316 0.5129 0.2288
H45 H 1.0689 0.3759 0.2411
C41 C 0.5972(3) 0.2261(3) 0.04697(18)
H46 H 0.6565 0.2072 -0.0105
H47 H 0.5672 0.3096 0.0554
C42 C 0.3474(3) 0.1550(3) 0.4905(2)
H48 H 0.3700 0.0776 0.5222
H49 H 0.2740 0.2133 0.5276
C43 C 0.4548(3) 0.1032(3) 0.3485(2)
H50 H 0.4933 0.0170 0.3547
H51 H 0.4555 0.1277 0.2871
C44 C 0.9668(3) -0.1873(3) 0.18850(19)
H52 H 0.9052 -0.2057 0.1792
H53 H 1.0340 -0.2605 0.2026
C45 C 0.4936(3) 0.1979(3) 0.0548(2)
H54 H 0.4743 0.2118 -0.0015
H55 H 0.4197 0.2451 0.0983
C46 C 0.9109(3) -0.1026(3) 0.2590(2)
H56 H 0.8450 -0.1159 0.3042
H57 H 0.9730 -0.1109 0.2862
C47 C 0.6567(3) 0.0425(3) 0.1089(2)
H58 H 0.6580 -0.0025 0.1653
H59 H 0.7305 -0.0031 0.0646
C48 C 0.9528(3) 0.0037(3) 0.13508(19)
H60 H 1.0134 0.0263 0.1410
H61 H 0.9132 0.0570 0.0905
C49 C 0.5418(3) 0.0692(3) 0.0836(2)
H62 H 0.5614 0.0212 0.0359
H63 H 0.4815 0.0541 0.1336
C50 C 1.0140(3) -0.1211(3) 0.1097(2)
H64 H 1.1036 -0.1522 0.0958
H65 H 0.9918 -0.1267 0.0586
K1A K 0.32552(5) 0.78453(5) 0.74512(4)
Mg1A Mg 0.41462(6) 0.53973(6) 0.58524(4)
N1A N 0.40598(15) 0.51836(15) 0.71521(11)
N2A N 0.23749(15) 0.65291(16) 0.63499(11)
O1A O 0.13625(17) 0.98987(16) 0.78370(12)
O2A O 0.34889(18) 0.84578(16) 0.88576(13)
O3A O 0.48184(16) 0.85063(17) 0.62302(12)
C1A C 0.15535(18) 0.68647(18) 0.58380(13)
C2A C 0.28874(19) 0.57638(18) 0.76863(13)
C3A C 0.19843(19) 0.65015(19) 0.72510(13)
C4A C 0.15831(19) 0.77016(19) 0.51458(13)
C5A C 0.07713(19) 0.63280(19) 0.59640(14)
C6A C 0.07648(19) 0.72210(19) 0.77528(14)
C7A C 0.4727(2) 0.3164(2) 0.78023(13)
C8A C 0.25874(19) 0.57443(19) 0.86195(14)
C9A C 0.0789(2) 0.8042(2) 0.46300(14)
H1A H 0.0811 0.8603 0.4161
C10A C 0.61085(19) 0.40871(19) 0.73369(14)
C11A C 0.2452(2) 0.8259(2) 0.49896(14)
H2A H 0.3237 0.7627 0.5088
C12A C -0.0133(2) 0.81374(19) 0.73636(15)
H3A H 0.0094 0.8337 0.6763
C13A C 0.5632(2) 0.2188(2) 0.81044(14)
H4A H 0.5476 0.1534 0.8364
C14A C -0.0023(2) 0.6715(2) 0.54401(15)
H5A H -0.0569 0.6377 0.5533
C15A C 0.63830(19) 0.5129(2) 0.69557(14)
H6A H 0.5738 0.5673 0.6660
C16A C 0.0817(2) 0.5308(2) 0.66164(15)
H7A H 0.1422 0.5163 0.6935
C17A C -0.0035(2) 0.7575(2) 0.47904(15)
H8A H -0.0604 0.7846 0.4455
C18A C 0.6984(2) 0.3086(2) 0.76420(15)
H9A H 0.7760 0.3048 0.7578
C19A C 0.49494(19) 0.41467(19) 0.74466(13)
C20A C 0.0414(2) 0.7029(2) 0.86657(15)
C21A C 0.6743(2) 0.2148(2) 0.80358(15)
H10A H 0.7338 0.1482 0.8257
C22A C 0.3494(2) 0.5217(2) 0.90885(15)
H11A H 0.4329 0.4918 0.8777
C23A C 0.3557(2) 0.3118(2) 0.78230(15)
C24A C 0.1345(2) 0.6277(2) 0.91125(14)
C25A C -0.1308(2) 0.8734(2) 0.78312(16)
H12A H -0.1884 0.9334 0.7552
C26A C 0.3191(2) 0.5131(2) 0.99707(15)
H13A H 0.3814 0.4788 1.0265
C27A C 0.1969(2) 0.9172(2) 0.56516(15)
H14A H 0.1259 0.9857 0.5525
H15A H 0.1734 0.8840 0.6235
H16A H 0.2606 0.9403 0.5617
C28A C 0.1262(2) 0.4209(2) 0.61479(17)
H17A H 0.2057 0.4054 0.5735
H18A H 0.1338 0.3545 0.6571
H19A H 0.0678 0.4324 0.5837
C29A C -0.0815(2) 0.7639(2) 0.91235(15)
H20A H -0.1060 0.7472 0.9729
C30A C -0.1665(2) 0.8466(2) 0.87144(17)
H21A H -0.2490 0.8853 0.9032
C31A C 0.7606(2) 0.4811(2) 0.62778(16)
H22A H 0.7639 0.4402 0.5820
H23A H 0.7699 0.5524 0.6027
H24A H 0.8265 0.4305 0.6551
C32A C 0.2740(2) 0.8775(2) 0.40761(15)
H25A H 0.2003 0.9443 0.3971
H26A H 0.3370 0.9031 0.4003
H27A H 0.3032 0.8183 0.3663
C33A C 0.3843(2) 0.2202(2) 0.72175(17)
H28A H 0.4391 0.1433 0.7414
H29A H 0.3086 0.2188 0.7225
H30A H 0.4235 0.2399 0.6627
C34A C 0.2861(2) 0.2870(2) 0.87419(16)
H31A H 0.2685 0.3460 0.9122
H32A H 0.2096 0.2898 0.8723
H33A H 0.3360 0.2096 0.8965
C35A C 0.6291(2) 0.5787(2) 0.76765(16)
H34A H 0.6923 0.5283 0.7975
H35A H 0.6405 0.6489 0.7425
H36A H 0.5488 0.6009 0.8091
C36A C 0.5486(2) 0.8109(2) 0.53682(18)
H37A H 0.5798 0.7253 0.5370
H38A H 0.4957 0.8485 0.4968
C37A C 0.1082(2) 0.6118(2) 1.00188(16)
H39A H 0.0255 0.6419 1.0348
C38A C 0.1973(2) 0.5545(3) 1.04445(16)
H40A H 0.1765 0.5429 1.1057
C39A C 0.6734(2) 0.8481(2) 0.5944(2)
H41A H 0.7127 0.8997 0.5895
H42A H 0.7237 0.7692 0.6160
C40A C -0.0413(2) 0.5539(2) 0.72902(17)
H43A H -0.1016 0.5651 0.6997
H44A H -0.0316 0.4871 0.7712
H45A H -0.0689 0.6241 0.7589
C41A C 0.4028(3) 0.7739(3) 0.95303(18)
H46A H 0.3435 0.7928 1.0105
H47A H 0.4328 0.6904 0.9446
C42A C 0.6526(3) 0.8450(3) 0.5095(2)
H48A H 0.6300 0.9224 0.4778
H49A H 0.7260 0.7867 0.4724
C43A C 0.5452(3) 0.8968(3) 0.6515(2)
H50A H 0.5067 0.9830 0.6453
H51A H 0.5445 0.8723 0.7129
C44A C 0.0332(3) 1.1873(3) 0.81150(19)
H52A H 0.0948 1.2057 0.8208
H53A H -0.0340 1.2605 0.7974
C45A C 0.5064(3) 0.8021(3) 0.9452(2)
H54A H 0.5257 0.7882 1.0015
H55A H 0.5803 0.7549 0.9017
C46A C 0.0891(3) 1.1026(3) 0.7410(2)
H56A H 0.1550 1.1159 0.6958
H57A H 0.0270 1.1109 0.7138
C47A C 0.3433(3) 0.9575(3) 0.8911(2)
H58A H 0.3420 1.0025 0.8347
H59A H 0.2695 1.0031 0.9354
C48A C 0.0472(3) 0.9963(3) 0.86492(19)
H60A H -0.0134 0.9737 0.8590
H61A H 0.0868 0.9430 0.9095
C49A C 0.4582(3) 0.9308(3) 0.9164(2)
H62A H 0.4386 0.9788 0.9641
H63A H 0.5185 0.9459 0.8664
C50A C -0.0140(3) 1.1211(3) 0.8903(2)
H64A H -0.1036 1.1522 0.9042
H65A H 0.0082 1.1267 0.9414
loop_
_geom_bond_atom_site_label_1
_geom_bond_atom_site_label_2
_geom_bond_site_symmetry_1
_geom_bond_site_symmetry_2
K1 N1 1_555 1_555
Mg1 N1 1_555 1_555
N1 C2 1_555 1_555
N2 Mg1 1_555 1_555
O1 K1 1_555 1_555
O2 K1 1_555 1_555
O3 K1 1_555 1_555
C1 N2 1_555 1_555
C2 K1 1_555 1_555
C3 K1 1_555 1_555
C4 C1 1_555 1_555
C5 C1 1_555 1_555
C6 C3 1_555 1_555
C7 C13 1_555 1_555
C8 K1 1_555 1_555
C9 C4 1_555 1_555
H1 C9 1_555 1_555
C10 C15 1_555 1_555
C11 C4 1_555 1_555
H2 C11 1_555 1_555
C12 C6 1_555 1_555
H3 C12 1_555 1_555
C13 H4 1_555 1_555
C14 C5 1_555 1_555
H5 C14 1_555 1_555
C15 H6 1_555 1_555
C16 C5 1_555 1_555
H7 C16 1_555 1_555
C17 C9 1_555 1_555
H8 C17 1_555 1_555
C18 C10 1_555 1_555
H9 C18 1_555 1_555
C19 N1 1_555 1_555
C20 C6 1_555 1_555
C21 C13 1_555 1_555
H10 C21 1_555 1_555
C22 C8 1_555 1_555
H11 C22 1_555 1_555
C23 C7 1_555 1_555
C24 C8 1_555 1_555
C25 C12 1_555 1_555
H12 C25 1_555 1_555
C26 C22 1_555 1_555
H13 C26 1_555 1_555
C27 C11 1_555 1_555
H14 C27 1_555 1_555
H15 C27 1_555 1_555
H16 C27 1_555 1_555
C28 C16 1_555 1_555
H17 C28 1_555 1_555
H18 C28 1_555 1_555
H19 C28 1_555 1_555
C29 C20 1_555 1_555
H20 C29 1_555 1_555
C30 C25 1_555 1_555
H21 C30 1_555 1_555
C31 C15 1_555 1_555
H22 C31 1_555 1_555
H23 C31 1_555 1_555
H24 C31 1_555 1_555
C32 C11 1_555 1_555
H25 C32 1_555 1_555
H26 C32 1_555 1_555
H27 C32 1_555 1_555
C33 C23 1_555 1_555
H28 C33 1_555 1_555
H29 C33 1_555 1_555
H30 C33 1_555 1_555
C34 C23 1_555 1_555
H31 C34 1_555 1_555
H32 C34 1_555 1_555
H33 C34 1_555 1_555
C35 C15 1_555 1_555
H34 C35 1_555 1_555
H35 C35 1_555 1_555
H36 C35 1_555 1_555
C36 O3 1_555 1_555
H37 C36 1_555 1_555
H38 C36 1_555 1_555
C37 C24 1_555 1_555
H39 C37 1_555 1_555
C38 C26 1_555 1_555
H40 C38 1_555 1_555
C39 H41 1_555 1_555
H42 C39 1_555 1_555
C40 C16 1_555 1_555
H43 C40 1_555 1_555
H44 C40 1_555 1_555
H45 C40 1_555 1_555
C41 O2 1_555 1_555
H46 C41 1_555 1_555
H47 C41 1_555 1_555
C42 C36 1_555 1_555
H48 C42 1_555 1_555
H49 C42 1_555 1_555
C43 O3 1_555 1_555
H50 C43 1_555 1_555
H51 C43 1_555 1_555
C44 H52 1_555 1_555
H53 C44 1_555 1_555
C45 C41 1_555 1_555
H54 C45 1_555 1_555
H55 C45 1_555 1_555
C46 O1 1_555 1_555
H56 C46 1_555 1_555
H57 C46 1_555 1_555
C47 O2 1_555 1_555
H58 C47 1_555 1_555
H59 C47 1_555 1_555
C48 O1 1_555 1_555
H60 C48 1_555 1_555
H61 C48 1_555 1_555
C49 C45 1_555 1_555
H62 C49 1_555 1_555
H63 C49 1_555 1_555
C50 C44 1_555 1_555
H64 C50 1_555 1_555
H65 C50 1_555 1_555
K1A N1A 1_555 1_555
Mg1A Mg1 1_555 1_555
N1A Mg1A 1_555 1_555
N2A Mg1A 1_555 1_555
O1A K1A 1_555 1_555
O2A K1A 1_555 1_555
O3A K1A 1_555 1_555
C1A N2A 1_555 1_555
C2A K1A 1_555 1_555
C3A K1A 1_555 1_555
C4A C1A 1_555 1_555
C5A C1A 1_555 1_555
C6A C3A 1_555 1_555
C7A C13A 1_555 1_555
C8A K1A 1_555 1_555
C9A C4A 1_555 1_555
H1A C9A 1_555 1_555
C10A C15A 1_555 1_555
C11A C4A 1_555 1_555
H2A C11A 1_555 1_555
C12A C6A 1_555 1_555
H3A C12A 1_555 1_555
C13A H4A 1_555 1_555
C14A C5A 1_555 1_555
H5A C14A 1_555 1_555
C15A H6A 1_555 1_555
C16A C5A 1_555 1_555
H7A C16A 1_555 1_555
C17A C9A 1_555 1_555
H8A C17A 1_555 1_555
C18A C10A 1_555 1_555
H9A C18A 1_555 1_555
C19A N1A 1_555 1_555
C20A C6A 1_555 1_555
C21A C13A 1_555 1_555
H10A C21A 1_555 1_555
C22A C8A 1_555 1_555
H11A C22A 1_555 1_555
C23A C7A 1_555 1_555
C24A C8A 1_555 1_555
C25A C12A 1_555 1_555
H12A C25A 1_555 1_555
C26A C22A 1_555 1_555
H13A C26A 1_555 1_555
C27A C11A 1_555 1_555
H14A C27A 1_555 1_555
H15A C27A 1_555 1_555
H16A C27A 1_555 1_555
C28A C16A 1_555 1_555
H17A C28A 1_555 1_555
H18A C28A 1_555 1_555
H19A C28A 1_555 1_555
C29A C20A 1_555 1_555
H20A C29A 1_555 1_555
C30A C25A 1_555 1_555
H21A C30A 1_555 1_555
C31A C15A 1_555 1_555
H22A C31A 1_555 1_555
H23A C31A 1_555 1_555
H24A C31A 1_555 1_555
C32A C11A 1_555 1_555
H25A C32A 1_555 1_555
H26A C32A 1_555 1_555
H27A C32A 1_555 1_555
C33A C23A 1_555 1_555
H28A C33A 1_555 1_555
H29A C33A 1_555 1_555
H30A C33A 1_555 1_555
C34A C23A 1_555 1_555
H31A C34A 1_555 1_555
H32A C34A 1_555 1_555
H33A C34A 1_555 1_555
C35A C15A 1_555 1_555
H34A C35A 1_555 1_555
H35A C35A 1_555 1_555
H36A C35A 1_555 1_555
C36A O3A 1_555 1_555
H37A C36A 1_555 1_555
H38A C36A 1_555 1_555
C37A C24A 1_555 1_555
H39A C37A 1_555 1_555
C38A C26A 1_555 1_555
H40A C38A 1_555 1_555
C39A H41A 1_555 1_555
H42A C39A 1_555 1_555
C40A C16A 1_555 1_555
H43A C40A 1_555 1_555
H44A C40A 1_555 1_555
H45A C40A 1_555 1_555
C41A O2A 1_555 1_555
H46A C41A 1_555 1_555
H47A C41A 1_555 1_555
C42A C36A 1_555 1_555
H48A C42A 1_555 1_555
H49A C42A 1_555 1_555
C43A O3A 1_555 1_555
H50A C43A 1_555 1_555
H51A C43A 1_555 1_555
C44A H52A 1_555 1_555
H53A C44A 1_555 1_555
C45A C41A 1_555 1_555
H54A C45A 1_555 1_555
H55A C45A 1_555 1_555
C46A O1A 1_555 1_555
H56A C46A 1_555 1_555
H57A C46A 1_555 1_555
C47A O2A 1_555 1_555
H58A C47A 1_555 1_555
H59A C47A 1_555 1_555
C48A O1A 1_555 1_555
H60A C48A 1_555 1_555
H61A C48A 1_555 1_555
C49A C45A 1_555 1_555
H62A C49A 1_555 1_555
H63A C49A 1_555 1_555
C50A C44A 1_555 1_555
H64A C50A 1_555 1_555
H65A C50A 1_555 1_555
N2 C3 1_555 1_555
C2 C3 1_555 1_555
C2 C8 1_555 1_555
C7 C19 1_555 1_555
C10 C19 1_555 1_555
C14 C17 1_555 1_555
C18 C21 1_555 1_555
C20 C24 1_555 1_555
C29 C30 1_555 1_555
C37 C38 1_555 1_555
C39 C42 1_555 1_555
C39 C43 1_555 1_555
C44 C46 1_555 1_555
C47 C49 1_555 1_555
C48 C50 1_555 1_555
N1A C2A 1_555 1_555
N2A C3A 1_555 1_555
C2A C3A 1_555 1_555
C2A C8A 1_555 1_555
C7A C19A 1_555 1_555
C10A C19A 1_555 1_555
C14A C17A 1_555 1_555
C18A C21A 1_555 1_555
C20A C24A 1_555 1_555
C29A C30A 1_555 1_555
C37A C38A 1_555 1_555
C39A C42A 1_555 1_555
C39A C43A 1_555 1_555
C44A C46A 1_555 1_555
C47A C49A 1_555 1_555
C48A C50A 1_555 1_555

#END
