
#######################################################################
#
#                 Cambridge Crystallographic Data Centre
#                                CCDC 
#
#######################################################################
#
# If this CIF has been generated from an entry in the Cambridge 
# Structural Database, then it will include bibliographic, chemical, 
# crystal, experimental, refinement or atomic coordinate data resulting 
# from the CCDC's data processing and validation procedures.
#
#######################################################################

data_KOCXIJ
_chemical_formula_moiety         'C19 H20 Li1 N1 O6 S1'
_chemical_name_systematic        
'(Dibenzo-14-crown-4 2,11-diol)-isothiocyanato-lithium'
_symmetry_cell_setting           monoclinic
_symmetry_space_group_name_H-M   'P 21/n'
_symmetry_Int_Tables_number      14
_space_group_name_Hall           '-P 2yn'
loop_
_symmetry_equiv_pos_site_id
_symmetry_equiv_pos_as_xyz
1 x,y,z
2 1/2-x,1/2+y,1/2-z
3 -x,-y,-z
4 1/2+x,1/2-y,1/2+z
_cell_length_a                   13.118(6)
_cell_length_b                   9.977(2)
_cell_length_c                   15.122(3)
_cell_angle_alpha                90
_cell_angle_beta                 91.94(2)
_cell_angle_gamma                90
_cell_volume                     1978.01
_cell_formula_units_Z            4
loop_
_atom_site_label
_atom_site_type_symbol
_atom_site_fract_x
_atom_site_fract_y
_atom_site_fract_z
O1 O 0.0285(2) 0.9393(3) 0.3549(2)
C1 C -0.0679(3) 0.8691(5) 0.3552(3)
C2 C -0.1320(3) 0.9075(5) 0.2747(3)
O2 O -0.2242(3) 0.8353(4) 0.2824(2)
H1 H -0.2869 0.8991 0.2622
C3 C -0.0885(4) 0.8647(5) 0.1872(3)
O3 O 0.0037(3) 0.9367(3) 0.1718(2)
C4 C 0.0542(4) 0.9057(5) 0.0958(3)
C5 C 0.0191(4) 0.8176(5) 0.0318(3)
C6 C 0.0796(5) 0.7914(6) -0.0406(3)
C7 C 0.1723(5) 0.8528(6) -0.0471(4)
C8 C 0.2094(4) 0.9421(5) 0.0177(3)
C9 C 0.1488(4) 0.9679(5) 0.0888(3)
O4 O 0.1761(2) 1.0545(3) 0.1571(2)
C10 C 0.2789(4) 1.1062(5) 0.1594(3)
C11 C 0.2978(4) 1.1889(5) 0.2416(3)
O5 O 0.2345(3) 1.3045(4) 0.2437(2)
H2 H 0.1518 1.2717 0.2584
C12 C 0.2989(4) 1.1119(5) 0.3280(3)
O6 O 0.1982(2) 1.0629(3) 0.3443(2)
C13 C 0.1898(4) 0.9832(5) 0.4186(3)
C14 C 0.2646(4) 0.9684(5) 0.4834(3)
C15 C 0.2486(5) 0.8849(6) 0.5549(4)
C16 C 0.1570(4) 0.8167(6) 0.5598(3)
C17 C 0.0801(4) 0.8328(5) 0.4948(3)
C18 C 0.0974(3) 0.9168(5) 0.4242(3)
H3 H -0.0558 0.7741 0.3545
H4 H -0.1034 0.8925 0.4075
H5 H -0.1375 1.0035 0.2735
H6 H -0.1374 0.8831 0.1401
H7 H -0.0724 0.7703 0.1890
H8 H -0.0460 0.7747 0.0368
H9 H 0.0560 0.7302 -0.0859
H10 H 0.2129 0.8341 -0.0973
H11 H 0.2748 0.9841 0.0129
H12 H 0.3261 1.0327 0.1594
H13 H 0.2884 1.1611 0.1082
H14 H 0.3669 1.2190 0.2367
H15 H 0.3209 1.1702 0.3755
H16 H 0.3451 1.0376 0.3245
H17 H 0.3279 1.0158 0.4793
H18 H 0.3005 0.8745 0.6007
H19 H 0.1463 0.7573 0.6086
H20 H 0.0163 0.7864 0.4991
Li1 Li 0.0747(6) 1.0598(8) 0.2588(5)
S1 S -0.0715(1) 1.4976(2) 0.2796(1)
C19 C -0.0174(4) 1.3518(6) 0.2711(4)
N1 N 0.0195(3) 1.2465(5) 0.2652(3)
loop_
_geom_bond_atom_site_label_1
_geom_bond_atom_site_label_2
_geom_bond_site_symmetry_1
_geom_bond_site_symmetry_2
O1 C1 1_555 1_555
C1 C2 1_555 1_555
C2 O2 1_555 1_555
O2 H1 1_555 1_555
C3 C2 1_555 1_555
O3 C3 1_555 1_555
C4 O3 1_555 1_555
C5 C4 1_555 1_555
C6 C5 1_555 1_555
C7 C6 1_555 1_555
C8 C7 1_555 1_555
C9 C4 1_555 1_555
O4 C9 1_555 1_555
C10 O4 1_555 1_555
C11 C10 1_555 1_555
O5 C11 1_555 1_555
H2 O5 1_555 1_555
C12 C11 1_555 1_555
O6 C12 1_555 1_555
C13 O6 1_555 1_555
C14 C13 1_555 1_555
C15 C14 1_555 1_555
C16 C15 1_555 1_555
C17 C16 1_555 1_555
C18 O1 1_555 1_555
S1 C19 1_555 1_555
C19 N1 1_555 1_555
H3 C1 1_555 1_555
H4 C1 1_555 1_555
H5 C2 1_555 1_555
H6 C3 1_555 1_555
H7 C3 1_555 1_555
H8 C5 1_555 1_555
H9 C6 1_555 1_555
H10 C7 1_555 1_555
H11 C8 1_555 1_555
H12 C10 1_555 1_555
H13 C10 1_555 1_555
H14 C11 1_555 1_555
H15 C12 1_555 1_555
H16 C12 1_555 1_555
H17 C14 1_555 1_555
H18 C15 1_555 1_555
H19 C16 1_555 1_555
H20 C17 1_555 1_555
C8 C9 1_555 1_555
C13 C18 1_555 1_555
C17 C18 1_555 1_555

#END
