
#######################################################################
#
#                 Cambridge Crystallographic Data Centre
#                                CCDC 
#
#######################################################################
#
# If this CIF has been generated from an entry in the Cambridge 
# Structural Database, then it will include bibliographic, chemical, 
# crystal, experimental, refinement or atomic coordinate data resulting 
# from the CCDC's data processing and validation procedures.
#
#######################################################################

data_KOCXEF
_chemical_formula_moiety         'C19 H20 Li1 N1 O5 S1'
_chemical_name_systematic        
'(Dibenzo-14-crown-4 2-ol)-isothiocyanato-lithium'
_symmetry_cell_setting           monoclinic
_symmetry_space_group_name_H-M   'P 21/c'
_symmetry_Int_Tables_number      14
_space_group_name_Hall           '-P 2ybc'
loop_
_symmetry_equiv_pos_site_id
_symmetry_equiv_pos_as_xyz
1 x,y,z
2 -x,1/2+y,1/2-z
3 -x,-y,-z
4 x,1/2-y,1/2+z
_cell_length_a                   22.277(7)
_cell_length_b                   10.025(3)
_cell_length_c                   16.833(5)
_cell_angle_alpha                90
_cell_angle_beta                 96.75(2)
_cell_angle_gamma                90
_cell_volume                     3733.2
_cell_formula_units_Z            8
loop_
_atom_site_label
_atom_site_type_symbol
_atom_site_fract_x
_atom_site_fract_y
_atom_site_fract_z
O1 O 0.3091(1) 0.5353(3) 0.3449(2)
C1 C 0.2707(2) 0.6147(5) 0.3887(3)
C2 C 0.2894(2) 0.7612(3) 0.3823(3)
C3 C 0.3486(2) 0.7933(4) 0.4348(3)
O2 O 0.3964(1) 0.7229(3) 0.4030(2)
C4 C 0.4536(2) 0.7299(3) 0.4440(2)
C5 C 0.4707(2) 0.8134(4) 0.5068(2)
C6 C 0.5299(2) 0.8093(5) 0.5432(3)
C7 C 0.5703(2) 0.7222(5) 0.5173(2)
C8 C 0.5532(2) 0.6368(4) 0.4537(2)
C9 C 0.4954(2) 0.6442(4) 0.4163(2)
O3 O 0.4735(2) 0.5697(3) 0.3501(2)
C10 C 0.5140(2) 0.4774(4) 0.3189(2)
C11 C 0.4857(2) 0.4229(4) 0.2403(2)
O4 O 0.4753(2) 0.5224(4) 0.1832(2)
H1 H 0.4415 0.5929 0.2002
C12 C 0.4330(2) 0.3337(4) 0.2439(2)
O5 O 0.3850(1) 0.4037(2) 0.2757(2)
C13 C 0.3375(2) 0.3301(4) 0.2972(2)
C14 C 0.3288(2) 0.1967(4) 0.2841(3)
C15 C 0.2812(2) 0.1325(4) 0.3115(3)
C16 C 0.2415(2) 0.2022(5) 0.3517(3)
C17 C 0.2483(2) 0.3382(4) 0.3643(3)
C18 C 0.2960(2) 0.4017(4) 0.3368(2)
H3 H 0.2294 0.6038 0.3664
H4 H 0.2752 0.5878 0.4436
H5 H 0.2944 0.7802 0.3277
H6 H 0.2580 0.8164 0.3987
H7 H 0.3460 0.7654 0.4887
H8 H 0.3562 0.8874 0.4339
H9 H 0.4421 0.8739 0.5254
H10 H 0.5423 0.8683 0.5868
H11 H 0.6109 0.7198 0.5433
H12 H 0.5814 0.5740 0.4364
H13 H 0.5508 0.5223 0.3113
H14 H 0.5225 0.4055 0.3559
H15 H 0.5156 0.3638 0.2235
H16 H 0.4449 0.2589 0.2776
H17 H 0.4190 0.3028 0.1912
H18 H 0.3563 0.1477 0.2554
H19 H 0.2756 0.0387 0.3026
H20 H 0.2084 0.1568 0.3713
H21 H 0.2207 0.3870 0.3921
Li1 Li 0.3858(3) 0.5956(7) 0.3095(4)
S1 S 0.3182(1) 0.9136(1) 0.1257(1)
C19 C 0.3548(2) 0.7980(4) 0.1766(3)
N1 N 0.3797(2) 0.7142(4) 0.2129(2)
O6 O 0.0263(1) 0.3789(3) 0.1561(2)
C20 C 0.0146(2) 0.2384(4) 0.1577(2)
C21 C 0.0673(2) 0.1741(4) 0.2084(3)
C22 C 0.1260(2) 0.1744(4) 0.1727(3)
O8 O 0.1474(1) 0.3090(2) 0.1721(1)
C23 C 0.2002(2) 0.3323(4) 0.1394(2)
C24 C 0.2349(2) 0.2360(4) 0.1085(2)
C25 C 0.2871(2) 0.2748(5) 0.0772(3)
C26 C 0.3039(2) 0.4039(5) 0.0768(3)
C27 C 0.2690(2) 0.5024(5) 0.1061(2)
C28 C 0.2171(2) 0.4646(4) 0.1371(2)
O9 O 0.1773(1) 0.5523(3) 0.1679(2)
C29 C 0.1865(2) 0.6917(4) 0.1547(3)
C30 C 0.1372(2) 0.7696(4) 0.1857(4)
C31 C 0.0756(2) 0.7564(4) 0.1424(3)
O12 O 0.0551(1) 0.6226(3) 0.1488(2)
C32 C -0.0009(2) 0.5916(4) 0.1103(2)
C33 C -0.0402(2) 0.6824(5) 0.0720(3)
C34 C -0.0961(2) 0.6390(6) 0.0381(3)
C35 C -0.1127(2) 0.5088(6) 0.0416(3)
C36 C -0.0726(2) 0.4164(5) 0.0799(3)
C37 C -0.0169(2) 0.4594(4) 0.1151(2)
H22 H -0.0221 0.2221 0.1804
H23 H 0.0112 0.2029 0.1045
H24 H 0.0731 0.2120 0.2699
H25 H 0.0608 0.0806 0.2273
H26 H 0.1196 0.1408 0.1191
H27 H 0.1550 0.1197 0.2041
H28 H 0.2232 0.1440 0.1087
H29 H 0.3116 0.2087 0.0555
H30 H 0.3406 0.4279 0.0559
H31 H 0.2806 0.5943 0.1049
H32 H 0.2247 0.7184 0.1822
H33 H 0.1862 0.7079 0.0986
H34 H 0.1455 0.8817 0.1678
H35 H 0.0764 0.7785 0.0872
H36 H 0.0487 0.8157 0.1655
H37 H -0.0290 0.7744 0.0689
H38 H -0.1239 0.7019 0.0114
H39 H -0.1518 0.4807 0.0178
H40 H -0.0834 0.3240 0.0817
Li2 Li 0.1013(3) 0.4680(6) 0.2030(4)
S2 S 0.1190(1) 0.5349(2) 0.4815(1)
C38 C 0.1065(2) 0.5106(4) 0.3868(3)
N2 N 0.0997(2) 0.4955(4) 0.3187(2)
O7? O 0.0457 0.0390 0.2071
O10? O 0.1371(2) 0.7667(5) 0.2609(3)
H2? H 0.1247 0.6552 0.2815
O11? O 0.1620 0.8891 0.2178
loop_
_geom_bond_atom_site_label_1
_geom_bond_atom_site_label_2
_geom_bond_site_symmetry_1
_geom_bond_site_symmetry_2
O1 C1 1_555 1_555
C1 C2 1_555 1_555
C2 C3 1_555 1_555
C3 O2 1_555 1_555
O2 C4 1_555 1_555
C4 C5 1_555 1_555
C5 C6 1_555 1_555
C6 C7 1_555 1_555
C7 C8 1_555 1_555
C8 C9 1_555 1_555
C9 C4 1_555 1_555
O3 C9 1_555 1_555
C10 O3 1_555 1_555
C11 C10 1_555 1_555
O4 C11 1_555 1_555
H1 O4 1_555 1_555
C12 C11 1_555 1_555
O5 C12 1_555 1_555
C13 O5 1_555 1_555
C14 C13 1_555 1_555
C15 C14 1_555 1_555
C16 C15 1_555 1_555
C17 C16 1_555 1_555
C18 O1 1_555 1_555
S1 C19 1_555 1_555
C19 N1 1_555 1_555
O6 C20 1_555 1_555
C20 C21 1_555 1_555
C21 C22 1_555 1_555
C22 O8 1_555 1_555
O8 C23 1_555 1_555
C23 C24 1_555 1_555
C24 C25 1_555 1_555
C25 C26 1_555 1_555
C26 C27 1_555 1_555
C27 C28 1_555 1_555
C28 C23 1_555 1_555
O9 C28 1_555 1_555
C29 O9 1_555 1_555
C30 C29 1_555 1_555
C31 C30 1_555 1_555
O12 C31 1_555 1_555
C32 O12 1_555 1_555
C33 C32 1_555 1_555
C34 C33 1_555 1_555
C35 C34 1_555 1_555
C36 C35 1_555 1_555
C37 O6 1_555 1_555
S2 C38 1_555 1_555
C38 N2 1_555 1_555
H3 C1 1_555 1_555
H4 C1 1_555 1_555
H5 C2 1_555 1_555
H6 C2 1_555 1_555
H7 C3 1_555 1_555
H8 C3 1_555 1_555
H9 C5 1_555 1_555
H10 C6 1_555 1_555
H11 C7 1_555 1_555
H12 C8 1_555 1_555
H13 C10 1_555 1_555
H14 C10 1_555 1_555
H15 C11 1_555 1_555
H16 C12 1_555 1_555
H17 C12 1_555 1_555
H18 C14 1_555 1_555
H19 C15 1_555 1_555
H20 C16 1_555 1_555
H21 C17 1_555 1_555
H22 C20 1_555 1_555
H23 C20 1_555 1_555
H24 C21 1_555 1_555
H25 C21 1_555 1_555
H26 C22 1_555 1_555
H27 C22 1_555 1_555
H28 C24 1_555 1_555
H29 C25 1_555 1_555
H30 C26 1_555 1_555
H31 C27 1_555 1_555
H32 C29 1_555 1_555
H33 C29 1_555 1_555
H34 C30 1_555 1_555
H35 C31 1_555 1_555
H36 C31 1_555 1_555
H37 C33 1_555 1_555
H38 C34 1_555 1_555
H39 C35 1_555 1_555
H40 C36 1_555 1_555
C13 C18 1_555 1_555
C17 C18 1_555 1_555
C32 C37 1_555 1_555
C36 C37 1_555 1_555

#END
