
#######################################################################
#
#                 Cambridge Crystallographic Data Centre
#                                CCDC 
#
#######################################################################
#
# If this CIF has been generated from an entry in the Cambridge 
# Structural Database, then it will include bibliographic, chemical, 
# crystal, experimental, refinement or atomic coordinate data resulting 
# from the CCDC's data processing and validation procedures.
#
#######################################################################

data_KODRAY
_chemical_formula_moiety         'C21 H21 N3 O3,H2 O1'
_chemical_name_systematic        
"(S)-3,3-Dimethyl-11-(4-nitrophenyl)-2,3,4,5,10,11-hexahydro-1H-dibenzo[b,e][1,4]diazepin-1-one 5,5'-bis(chloroxiran-1-yl)-2,2'-bi(3\l^3^-chloratricyclo[2.1.0.0^1,3^]pentane)-4,4'-diene-2,2'-diol hydrate"
_symmetry_cell_setting           tetragonal
_symmetry_space_group_name_H-M   'P 41 21 2'
_symmetry_Int_Tables_number      92
_space_group_name_Hall           'P 4abw 2nw'
loop_
_symmetry_equiv_pos_site_id
_symmetry_equiv_pos_as_xyz
1 x,y,z
2 1/2-y,1/2+x,1/4+z
3 1/2+y,1/2-x,3/4+z
4 1/2+x,1/2-y,3/4-z
5 1/2-x,1/2+y,1/4-z
6 -x,-y,1/2+z
7 y,x,-z
8 -y,-x,1/2-z
_cell_length_a                   13.1069(10)
_cell_length_b                   13.1069(10)
_cell_length_c                   26.510(3)
_cell_angle_alpha                90
_cell_angle_beta                 90
_cell_angle_gamma                90
_cell_volume                     4554.17
_exptl_crystal_colour            yellow
_exptl_crystal_description       block
_cell_formula_units_Z            8
loop_
_atom_site_label
_atom_site_type_symbol
_atom_site_fract_x
_atom_site_fract_y
_atom_site_fract_z
N1 N 0.3693(3) 1.0500(3) 0.99804(13)
H1 H 0.3542 1.1154 0.9995
N2 N 0.4685(3) 0.9291(3) 0.92092(12)
H2 H 0.4855 0.9116 0.8900
N3 N 0.3113(5) 0.6830(6) 1.1530(2)
O1 O 0.6396(3) 1.0203(4) 1.07236(12)
O2 O 0.3334(6) 0.5976(5) 1.1421(2)
O3 O 0.2594(5) 0.7032(6) 1.18976(18)
C1 C 0.4512(4) 1.0083(3) 1.02866(13)
H3 H 0.4704 1.0638 1.0527
C2 C 0.5455(3) 0.9855(3) 0.99950(14)
C3 C 0.6383(4) 0.9979(4) 1.02672(15)
C4 C 0.7374(4) 0.9797(5) 1.00084(19)
H4 H 0.7594 0.9087 1.0076
H5 H 0.7893 1.0258 1.0156
C5 C 0.7347(4) 0.9961(5) 0.94431(18)
C6 C 0.6476(3) 0.9345(4) 0.92409(15)
H6 H 0.6652 0.8612 0.9267
H7 H 0.6388 0.9506 0.8879
C7 C 0.5484(3) 0.9524(3) 0.95064(13)
C8 C 0.3642(3) 0.9277(3) 0.92992(15)
C9 C 0.3063(4) 0.8684(4) 0.89716(19)
H8 H 0.3396 0.8287 0.8722
C10 C 0.2018(5) 0.8662(5) 0.9003(3)
H9 H 0.1629 0.8242 0.8783
C11 C 0.1540(4) 0.9273(5) 0.9364(3)
H10 H 0.0817 0.9306 0.9377
C12 C 0.2103(4) 0.9816(4) 0.96938(19)
H11 H 0.1765 1.0185 0.9953
C13 C 0.3155(3) 0.9855(3) 0.96667(15)
C14 C 0.4152(3) 0.9200(4) 1.06133(14)
C15 C 0.4320(5) 0.8222(4) 1.0485(2)
H12 H 0.4679 0.8076 1.0182
C16 C 0.3982(6) 0.7417(5) 1.0783(2)
H13 H 0.4116 0.6729 1.0692
C17 C 0.3453(4) 0.7648(5) 1.12101(18)
C18 C 0.3256(4) 0.8631(5) 1.13537(17)
H14 H 0.2892 0.8771 1.1656
C19 C 0.3600(3) 0.9415(4) 1.10486(14)
H15 H 0.3460 1.0103 1.1137
C20 C 0.8334(4) 0.9569(9) 0.9210(3)
H16 H 0.8571 0.8969 0.9397
H17 H 0.8855 1.0105 0.9225
H18 H 0.8212 0.9381 0.8857
C21 C 0.7220(5) 1.1071(6) 0.9308(3)
H19 H 0.7773 1.1469 0.9461
H20 H 0.6563 1.1318 0.9436
H21 H 0.7240 1.1150 0.8941
O4 O 0.6787(2) 0.6787(2) 0.0000
O5? O 0.6768(4) 0.5016(4) 0.0642(3)
C22? C 0.622(3) 0.492(3) 0.0498(8)
C23? C 0.6170(13) 0.2446(6) 0.0253(3)
C24? C 0.6503(10) 0.2955(14) 0.0426(7)
O6? O 0.4806(11) 0.3750(10) -0.0523(5)
C25? C 0.4470(12) 0.3524(17) -0.0050(12)
C26? C 0.526(3) 0.280(3) 0.0213(10)
Cl1? Cl 0.5386(5) 0.2659(7) 0.0152(3)
Cl2? Cl 0.6542(3) 0.4282(3) 0.06207(13)
loop_
_geom_bond_atom_site_label_1
_geom_bond_atom_site_label_2
_geom_bond_site_symmetry_1
_geom_bond_site_symmetry_2
N1 H1 1_555 1_555
N2 H2 1_555 1_555
N3 O2 1_555 1_555
O1 C3 1_555 1_555
O3 N3 1_555 1_555
C1 N1 1_555 1_555
H3 C1 1_555 1_555
C2 C1 1_555 1_555
C3 C2 1_555 1_555
C4 C3 1_555 1_555
H4 C4 1_555 1_555
H5 C4 1_555 1_555
C5 C4 1_555 1_555
C6 C5 1_555 1_555
H6 C6 1_555 1_555
H7 C6 1_555 1_555
C7 N2 1_555 1_555
C8 N2 1_555 1_555
C9 C8 1_555 1_555
H8 C9 1_555 1_555
C10 C9 1_555 1_555
H9 C10 1_555 1_555
C11 C10 1_555 1_555
H10 C11 1_555 1_555
C12 C11 1_555 1_555
H11 C12 1_555 1_555
C13 N1 1_555 1_555
C14 C1 1_555 1_555
C15 C14 1_555 1_555
H12 C15 1_555 1_555
C16 C15 1_555 1_555
H13 C16 1_555 1_555
C17 N3 1_555 1_555
C18 C17 1_555 1_555
H14 C18 1_555 1_555
C19 C14 1_555 1_555
H15 C19 1_555 1_555
C20 C5 1_555 1_555
H16 C20 1_555 1_555
H17 C20 1_555 1_555
H18 C20 1_555 1_555
C21 C5 1_555 1_555
H19 C21 1_555 1_555
H20 C21 1_555 1_555
H21 C21 1_555 1_555
C2 C7 1_555 1_555
C6 C7 1_555 1_555
C8 C13 1_555 1_555
C12 C13 1_555 1_555
C16 C17 1_555 1_555
C18 C19 1_555 1_555

#END
