
#######################################################################
#
#                 Cambridge Crystallographic Data Centre
#                                CCDC 
#
#######################################################################
#
# If this CIF has been generated from an entry in the Cambridge 
# Structural Database, then it will include bibliographic, chemical, 
# crystal, experimental, refinement or atomic coordinate data resulting 
# from the CCDC's data processing and validation procedures.
#
#######################################################################

data_KODTUS
_chemical_formula_moiety         'C20 H17 N1 O2'
_chemical_name_systematic        
5,10-Epoxy-1,6-(3-hexen-1,5-diyno)-6-methoxy-2-aza-1,2,5,6,7,8,9,10-octahydrobenzo(c)naphthalene
_symmetry_cell_setting           tetragonal
_symmetry_space_group_name_H-M   'P 42/n'
_symmetry_Int_Tables_number      86
_space_group_name_Hall           '-P 4bc'
loop_
_symmetry_equiv_pos_site_id
_symmetry_equiv_pos_as_xyz
1 x,y,z
2 -y,1/2+x,1/2+z
3 1/2-x,1/2-y,z
4 1/2+y,-x,1/2+z
5 -x,-y,-z
6 y,1/2-x,1/2-z
7 1/2+x,1/2+y,-z
8 1/2-y,x,1/2-z
_cell_length_a                   17.713(3)
_cell_length_b                   17.713(3)
_cell_length_c                   9.800(4)
_cell_angle_alpha                90
_cell_angle_beta                 90
_cell_angle_gamma                90
_cell_volume                     3074.75
_exptl_crystal_colour            colorless
_cell_formula_units_Z            8
loop_
_atom_site_label
_atom_site_type_symbol
_atom_site_fract_x
_atom_site_fract_y
_atom_site_fract_z
O1 O 0.0435(1) 0.2619(1) 0.1080(2)
O2 O -0.1224(1) 0.2323(1) 0.2389(2)
N1 N 0.1478(1) 0.3369(1) 0.2717(3)
C1 C 0.1040(1) 0.3080(1) 0.3774(3)
C2 C 0.1361(2) 0.2941(2) 0.5043(3)
C3 C 0.0937(2) 0.2636(2) 0.6083(3)
C4 C 0.0184(2) 0.2471(2) 0.5874(3)
C5 C -0.0138(2) 0.2599(1) 0.4615(3)
C6 C 0.0279(1) 0.2895(1) 0.3533(3)
C7 C -0.0031(1) 0.2995(1) 0.2119(3)
C8 C 0.0421(1) 0.3431(1) 0.1125(3)
C9 C 0.1089(1) 0.3850(2) 0.1747(3)
C10 C 0.0107(2) 0.3804(2) -0.0147(3)
C11 C -0.0744(2) 0.3862(2) -0.0151(3)
C12 C -0.1098(2) 0.3146(2) 0.0395(3)
C13 C -0.0890(2) 0.3000(2) 0.1900(3)
C14 C 0.0715(2) 0.4516(2) 0.2380(3)
C15 C 0.0272(2) 0.4917(2) 0.2931(3)
C16 C -0.0320(2) 0.5321(2) 0.3581(3)
C17 C -0.1001(2) 0.5012(2) 0.3753(3)
C18 C -0.1136(2) 0.4270(2) 0.3247(3)
C19 C -0.1133(2) 0.3656(2) 0.2732(3)
C20 C -0.1336(4) 0.1749(4) 0.1598(7)
H1 H 0.1880 0.3513 0.3025
H2 H 0.1883 0.3060 0.5197
H3 H 0.1166 0.2537 0.6954
H4 H -0.0115 0.2267 0.6604
H5 H -0.0662 0.2483 0.4479
H6 H 0.1476 0.3998 0.1116
H7 H 0.0260 0.3513 -0.0926
H8 H 0.0313 0.4304 -0.0212
H9 H -0.0894 0.4279 0.0410
H10 H -0.0915 0.3944 -0.1069
H11 H -0.1637 0.3189 0.0324
H12 H -0.0928 0.2727 -0.0144
H13 H -0.0229 0.5826 0.3902
H14 H -0.1394 0.5285 0.4212
H15 H -0.0860 0.1565 0.1269
H16 H -0.1644 0.1899 0.0839
H17 H -0.1588 0.1357 0.2099
C21? C -0.1909(5) 0.2150(5) 0.2245(9)
H18? H -0.2216 0.2490 0.2769
H19? H -0.1989 0.1642 0.2560
H20? H -0.2045 0.2185 0.1299
loop_
_geom_bond_atom_site_label_1
_geom_bond_atom_site_label_2
_geom_bond_site_symmetry_1
_geom_bond_site_symmetry_2
O1 C7 1_555 1_555
O2 C13 1_555 1_555
N1 C1 1_555 1_555
C1 C2 1_555 1_555
C2 C3 1_555 1_555
C3 C4 1_555 1_555
C4 C5 1_555 1_555
C5 C6 1_555 1_555
C6 C1 1_555 1_555
C7 C6 1_555 1_555
C8 O1 1_555 1_555
C9 N1 1_555 1_555
C10 C8 1_555 1_555
C11 C10 1_555 1_555
C12 C11 1_555 1_555
C13 C7 1_555 1_555
C14 C9 1_555 1_555
C15 C14 1_555 1_555
C16 C15 1_555 1_555
C17 C16 1_555 1_555
C18 C17 1_555 1_555
C19 C13 1_555 1_555
C20 O2 1_555 1_555
H1 N1 1_555 1_555
H2 C2 1_555 1_555
H3 C3 1_555 1_555
H4 C4 1_555 1_555
H5 C5 1_555 1_555
H6 C9 1_555 1_555
H7 C10 1_555 1_555
H8 C10 1_555 1_555
H9 C11 1_555 1_555
H10 C11 1_555 1_555
H11 C12 1_555 1_555
H12 C12 1_555 1_555
H13 C16 1_555 1_555
H14 C17 1_555 1_555
H15 C20 1_555 1_555
H16 C20 1_555 1_555
H17 C20 1_555 1_555
C7 C8 1_555 1_555
C8 C9 1_555 1_555
C12 C13 1_555 1_555
C18 C19 1_555 1_555

#END
