
#######################################################################
#
#                 Cambridge Crystallographic Data Centre
#                                CCDC 
#
#######################################################################
#
# If this CIF has been generated from an entry in the Cambridge 
# Structural Database, then it will include bibliographic, chemical, 
# crystal, experimental, refinement or atomic coordinate data resulting 
# from the CCDC's data processing and validation procedures.
#
#######################################################################

data_KODYEI
_chemical_formula_moiety         'C11 H14 Cl1 N1 O3'
_chemical_name_systematic        
N-(4-Chlorophenyl)-2-deoxy-\a-L-ribopyranosylamine
_symmetry_cell_setting           orthorhombic
_symmetry_space_group_name_H-M   'P 21 21 21'
_symmetry_Int_Tables_number      19
_space_group_name_Hall           'P 2ac 2ab'
loop_
_symmetry_equiv_pos_site_id
_symmetry_equiv_pos_as_xyz
1 x,y,z
2 1/2-x,-y,1/2+z
3 -x,1/2+y,1/2-z
4 1/2+x,1/2-y,-z
_cell_length_a                   6.5305(8)
_cell_length_b                   7.9857(9)
_cell_length_c                   22.496(3)
_cell_angle_alpha                90
_cell_angle_beta                 90
_cell_angle_gamma                90
_cell_volume                     1173.18
_exptl_crystal_colour            colorless
_exptl_crystal_description       prism
_cell_formula_units_Z            4
loop_
_atom_site_label
_atom_site_type_symbol
_atom_site_fract_x
_atom_site_fract_y
_atom_site_fract_z
Cl1 Cl 0.01956(18) -0.12260(10) 0.00675(4)
O1 O 0.3998(2) 0.56562(19) 0.16726(7)
O2 O 0.2117(3) 1.0211(2) 0.23361(8)
H1 H 0.2839 1.1049 0.2316
O3 O 0.5280(3) 0.7894(2) 0.25924(7)
H2 H 0.5420 0.8705 0.2812
N1 N 0.0604(3) 0.4754(3) 0.16049(9)
H3 H -0.0305 0.4823 0.1916
C1 C 0.1909(4) 0.6147(3) 0.15314(11)
H4 H 0.1850 0.6517 0.1116
C2 C 0.1280(4) 0.7577(3) 0.19294(12)
H5 H 0.1197 0.7179 0.2336
H6 H -0.0071 0.7960 0.1813
C3 C 0.2759(4) 0.9032(3) 0.19013(10)
H7 H 0.2653 0.9554 0.1508
C4 C 0.4948(4) 0.8459(3) 0.19940(10)
H8 H 0.5884 0.9386 0.1906
C5 C 0.5384(4) 0.7017(3) 0.15789(11)
H9 H 0.5270 0.7400 0.1171
H10 H 0.6776 0.6631 0.1641
C6 C 0.0505(4) 0.3402(3) 0.12239(11)
C7 C 0.2014(5) 0.3069(4) 0.08000(12)
H11 H 0.3118 0.3797 0.0761
C8 C 0.1893(5) 0.1674(4) 0.04379(12)
H12 H 0.2906 0.1472 0.0156
C9 C 0.0287(6) 0.0594(3) 0.04936(11)
C10 C -0.1245(5) 0.0904(4) 0.08970(12)
H13 H -0.2348 0.0172 0.0928
C11 C -0.1145(5) 0.2305(3) 0.12566(12)
H14 H -0.2198 0.2518 0.1525
loop_
_geom_bond_atom_site_label_1
_geom_bond_atom_site_label_2
_geom_bond_site_symmetry_1
_geom_bond_site_symmetry_2
Cl1 C9 1_555 1_555
O1 C1 1_555 1_555
O2 H1 1_555 1_555
O3 H2 1_555 1_555
N1 H3 1_555 1_555
C1 N1 1_555 1_555
H4 C1 1_555 1_555
C2 C1 1_555 1_555
H5 C2 1_555 1_555
H6 C2 1_555 1_555
C3 O2 1_555 1_555
H7 C3 1_555 1_555
C4 O3 1_555 1_555
H8 C4 1_555 1_555
C5 O1 1_555 1_555
H9 C5 1_555 1_555
H10 C5 1_555 1_555
C6 N1 1_555 1_555
C7 C6 1_555 1_555
H11 C7 1_555 1_555
C8 C7 1_555 1_555
H12 C8 1_555 1_555
C9 C8 1_555 1_555
C10 C9 1_555 1_555
H13 C10 1_555 1_555
C11 C6 1_555 1_555
H14 C11 1_555 1_555
C2 C3 1_555 1_555
C3 C4 1_555 1_555
C4 C5 1_555 1_555
C10 C11 1_555 1_555

#END
