
#######################################################################
#
#                 Cambridge Crystallographic Data Centre
#                                CCDC 
#
#######################################################################
#
# If this CIF has been generated from an entry in the Cambridge 
# Structural Database, then it will include bibliographic, chemical, 
# crystal, experimental, refinement or atomic coordinate data resulting 
# from the CCDC's data processing and validation procedures.
#
#######################################################################

data_KOFBEN
_chemical_formula_moiety         'C16 H14 O1'
_chemical_name_systematic        2-(4-Methoxyphenyl)-1H-indene
_symmetry_cell_setting           monoclinic
_symmetry_space_group_name_H-M   'P 21/c'
_symmetry_Int_Tables_number      14
_space_group_name_Hall           '-P 2ybc'
loop_
_symmetry_equiv_pos_site_id
_symmetry_equiv_pos_as_xyz
1 x,y,z
2 -x,1/2+y,1/2-z
3 -x,-y,-z
4 x,1/2-y,1/2+z
_cell_length_a                   5.8347(8)
_cell_length_b                   7.5584(10)
_cell_length_c                   26.135(4)
_cell_angle_alpha                90
_cell_angle_beta                 92.772(11)
_cell_angle_gamma                90
_cell_volume                     1151.23
_exptl_crystal_colour            colorless
_exptl_crystal_description       plate
_cell_formula_units_Z            4
_exptl_crystal_recrystallization_method dichloromethane
loop_
_atom_site_label
_atom_site_type_symbol
_atom_site_fract_x
_atom_site_fract_y
_atom_site_fract_z
O1 O 0.06468(18) 0.38400(14) 0.43568(4)
C1 C 0.0999(2) 0.37824(18) 0.38417(5)
C2 C -0.0458(2) 0.29441(18) 0.34780(5)
H1 H -0.1824 0.2384 0.3578
C3 C 0.0118(2) 0.29399(18) 0.29665(5)
H2 H -0.0875 0.2366 0.2720
C4 C 0.2110(2) 0.37525(17) 0.28040(5)
C5 C 0.3523(2) 0.46050(18) 0.31800(5)
H3 H 0.4884 0.5177 0.3082
C6 C 0.2972(2) 0.46277(18) 0.36889(5)
H4 H 0.3944 0.5223 0.3935
C7 C 0.2705(2) 0.37168(17) 0.22661(5)
C8 C 0.4701(2) 0.44705(18) 0.20655(5)
H5 H 0.5885 0.5082 0.2255
C9 C 0.4594(2) 0.41280(18) 0.15079(5)
C10 C 0.6102(3) 0.45594(19) 0.11311(5)
H6 H 0.7468 0.5203 0.1215
C11 C 0.5577(3) 0.40313(19) 0.06279(6)
H7 H 0.6602 0.4309 0.0368
C12 C 0.3566(3) 0.31006(19) 0.05014(5)
H8 H 0.3239 0.2747 0.0157
C13 C 0.2030(3) 0.26833(18) 0.08766(5)
H9 H 0.0648 0.2064 0.0790
C14 C 0.2559(2) 0.31909(17) 0.13805(5)
C15 C 0.1310(2) 0.29032(18) 0.18543(5)
H10 H -0.0226 0.3461 0.1824
H11 H 0.1118 0.1623 0.1919
C16 C -0.1393(3) 0.3029(2) 0.45282(6)
H12 H -0.1495 0.3227 0.4897
H13 H -0.1347 0.1755 0.4460
H14 H -0.2736 0.3548 0.4345
loop_
_geom_bond_atom_site_label_1
_geom_bond_atom_site_label_2
_geom_bond_site_symmetry_1
_geom_bond_site_symmetry_2
O1 C1 1_555 1_555
C1 C2 1_555 1_555
C2 H1 1_555 1_555
C3 C2 1_555 1_555
H2 C3 1_555 1_555
C4 C3 1_555 1_555
C5 C4 1_555 1_555
H3 C5 1_555 1_555
C6 C1 1_555 1_555
H4 C6 1_555 1_555
C7 C4 1_555 1_555
C8 C7 1_555 1_555
H5 C8 1_555 1_555
C9 C8 1_555 1_555
C10 C9 1_555 1_555
H6 C10 1_555 1_555
C11 C10 1_555 1_555
H7 C11 1_555 1_555
C12 C11 1_555 1_555
H8 C12 1_555 1_555
C13 C12 1_555 1_555
H9 C13 1_555 1_555
C14 C9 1_555 1_555
C15 C7 1_555 1_555
H10 C15 1_555 1_555
H11 C15 1_555 1_555
C16 O1 1_555 1_555
H12 C16 1_555 1_555
H13 C16 1_555 1_555
H14 C16 1_555 1_555
C5 C6 1_555 1_555
C13 C14 1_555 1_555
C14 C15 1_555 1_555

#END
