
#######################################################################
#
#                 Cambridge Crystallographic Data Centre
#                                CCDC 
#
#######################################################################
#
# If this CIF has been generated from an entry in the Cambridge 
# Structural Database, then it will include bibliographic, chemical, 
# crystal, experimental, refinement or atomic coordinate data resulting 
# from the CCDC's data processing and validation procedures.
#
#######################################################################

data_KOFBEO
_chemical_formula_moiety         'C31 H22 O1'
_chemical_name_systematic        
(2-(2-(1-naphthyl)-1-phenylvinyl)phenyl)(phenyl)methanone
_symmetry_cell_setting           monoclinic
_symmetry_space_group_name_H-M   'P 21/c'
_symmetry_Int_Tables_number      14
_space_group_name_Hall           '-P 2ybc'
loop_
_symmetry_equiv_pos_site_id
_symmetry_equiv_pos_as_xyz
1 x,y,z
2 -x,1/2+y,1/2-z
3 -x,-y,-z
4 x,1/2-y,1/2+z
_cell_length_a                   11.2685(19)
_cell_length_b                   9.1961(15)
_cell_length_c                   20.509(4)
_cell_angle_alpha                90
_cell_angle_beta                 92.368(6)
_cell_angle_gamma                90
_cell_volume                     2123.46
_exptl_crystal_colour            yellow
_exptl_crystal_description       block
_cell_formula_units_Z            4
loop_
_atom_site_label
_atom_site_type_symbol
_atom_site_fract_x
_atom_site_fract_y
_atom_site_fract_z
O1 O 0.38302(17) 0.3180(2) 0.13185(11)
C1 C 0.2910(3) 0.4809(3) 0.05603(14)
C2 C 0.1940(3) 0.4988(3) 0.01269(14)
H1 H 0.1238 0.4436 0.0180
C3 C 0.1995(3) 0.5970(4) -0.03814(16)
H2 H 0.1338 0.6067 -0.0684
C4 C 0.2996(3) 0.6811(3) -0.04543(16)
H3 H 0.3021 0.7494 -0.0801
C5 C 0.3963(3) 0.6658(3) -0.00210(16)
H4 H 0.4652 0.7235 -0.0070
C6 C 0.3922(3) 0.5658(3) 0.04845(16)
H5 H 0.4587 0.5551 0.0781
C7 C 0.2901(3) 0.3707(3) 0.10896(15)
C8 C 0.1735(2) 0.3275(3) 0.13633(13)
C9 C 0.0968(2) 0.4379(3) 0.15557(14)
H6 H 0.1164 0.5368 0.1479
C10 C -0.0075(3) 0.4036(3) 0.18572(14)
H7 H -0.0591 0.4788 0.1989
C11 C -0.0360(3) 0.2607(3) 0.19650(15)
H8 H -0.1075 0.2370 0.2171
C12 C 0.0393(2) 0.1508(3) 0.17737(14)
H9 H 0.0191 0.0523 0.1854
C13 C 0.1441(2) 0.1824(3) 0.14667(13)
C14 C 0.2175(2) 0.0582(3) 0.12395(14)
C15 C 0.2332(2) 0.0294(3) 0.06056(14)
H10 H 0.2870 -0.0473 0.0522
C16 C 0.1787(2) 0.1001(3) 0.00238(14)
C17 C 0.0635(2) 0.1510(3) 0.00075(15)
H11 H 0.0206 0.1493 0.0396
C18 C 0.0081(3) 0.2052(3) -0.05641(15)
H12 H -0.0707 0.2417 -0.0556
C19 C 0.0666(3) 0.2060(3) -0.11331(15)
H13 H 0.0276 0.2412 -0.1521
C20 C 0.1847(3) 0.1548(3) -0.11516(15)
C21 C 0.2452(3) 0.1509(3) -0.17397(15)
H14 H 0.2050 0.1805 -0.2134
C22 C 0.3606(3) 0.1055(4) -0.17535(17)
H15 H 0.4008 0.1060 -0.2152
C23 C 0.4192(3) 0.0578(4) -0.11739(16)
H16 H 0.4991 0.0252 -0.1182
C24 C 0.3622(2) 0.0581(3) -0.06010(15)
H17 H 0.4038 0.0271 -0.0214
C25 C 0.2427(2) 0.1034(3) -0.05675(14)
C26 C 0.2719(2) -0.0378(3) 0.17555(14)
C27 C 0.2829(2) -0.1876(3) 0.16623(15)
H18 H 0.2527 -0.2301 0.1267
C28 C 0.3370(3) -0.2746(3) 0.21330(15)
H19 H 0.3448 -0.3759 0.2056
C29 C 0.3802(3) -0.2155(3) 0.27190(15)
H20 H 0.4172 -0.2756 0.3045
C30 C 0.3685(3) -0.0686(4) 0.28186(15)
H21 H 0.3977 -0.0268 0.3217
C31 C 0.3148(3) 0.0192(3) 0.23451(14)
H22 H 0.3071 0.1205 0.2425
loop_
_geom_bond_atom_site_label_1
_geom_bond_atom_site_label_2
_geom_bond_site_symmetry_1
_geom_bond_site_symmetry_2
O1 C7 1_555 1_555
C1 C2 1_555 1_555
C2 H1 1_555 1_555
C3 C2 1_555 1_555
H2 C3 1_555 1_555
C4 C3 1_555 1_555
H3 C4 1_555 1_555
C5 C4 1_555 1_555
H4 C5 1_555 1_555
C6 C1 1_555 1_555
H5 C6 1_555 1_555
C7 C1 1_555 1_555
C8 C7 1_555 1_555
C9 C8 1_555 1_555
H6 C9 1_555 1_555
C10 C9 1_555 1_555
H7 C10 1_555 1_555
C11 C10 1_555 1_555
H8 C11 1_555 1_555
C12 C11 1_555 1_555
H9 C12 1_555 1_555
C13 C8 1_555 1_555
C14 C13 1_555 1_555
C15 C14 1_555 1_555
H10 C15 1_555 1_555
C16 C15 1_555 1_555
C17 C16 1_555 1_555
H11 C17 1_555 1_555
C18 C17 1_555 1_555
H12 C18 1_555 1_555
C19 C18 1_555 1_555
H13 C19 1_555 1_555
C20 C19 1_555 1_555
C21 C20 1_555 1_555
H14 C21 1_555 1_555
C22 C21 1_555 1_555
H15 C22 1_555 1_555
C23 C22 1_555 1_555
H16 C23 1_555 1_555
C24 C23 1_555 1_555
H17 C24 1_555 1_555
C25 C16 1_555 1_555
C26 C14 1_555 1_555
C27 C26 1_555 1_555
H18 C27 1_555 1_555
C28 C27 1_555 1_555
H19 C28 1_555 1_555
C29 C28 1_555 1_555
H20 C29 1_555 1_555
C30 C29 1_555 1_555
H21 C30 1_555 1_555
C31 C26 1_555 1_555
H22 C31 1_555 1_555
C5 C6 1_555 1_555
C12 C13 1_555 1_555
C20 C25 1_555 1_555
C24 C25 1_555 1_555
C30 C31 1_555 1_555

#END
