
#######################################################################
#
#                 Cambridge Crystallographic Data Centre
#                                CCDC 
#
#######################################################################
#
# If this CIF has been generated from an entry in the Cambridge 
# Structural Database, then it will include bibliographic, chemical, 
# crystal, experimental, refinement or atomic coordinate data resulting 
# from the CCDC's data processing and validation procedures.
#
#######################################################################

data_KOFFOB
_chemical_formula_moiety         'C11 H10 Cl1 N3 O2,C18 H15 O1 P1'
_chemical_name_systematic        
'3-Chloro-6-(3,5-dimethyl-1H-pyrazol-1-yl)picolinic acid triphenylphosphine oxide'
_symmetry_cell_setting           monoclinic
_symmetry_space_group_name_H-M   'P 21/c'
_symmetry_Int_Tables_number      14
_space_group_name_Hall           '-P 2ybc'
loop_
_symmetry_equiv_pos_site_id
_symmetry_equiv_pos_as_xyz
1 x,y,z
2 -x,1/2+y,1/2-z
3 -x,-y,-z
4 x,1/2-y,1/2+z
_cell_length_a                   16.6694(14)
_cell_length_b                   9.8176(11)
_cell_length_c                   18.272(2)
_cell_angle_alpha                90
_cell_angle_beta                 116.089(2)
_cell_angle_gamma                90
_cell_volume                     2685.6
_exptl_crystal_colour            colorless
_exptl_crystal_description       block
_cell_formula_units_Z            4
_exptl_crystal_recrystallization_method water
loop_
_atom_site_label
_atom_site_type_symbol
_atom_site_fract_x
_atom_site_fract_y
_atom_site_fract_z
P1 P 0.12197(5) 0.76008(8) 0.14024(4)
O1 O 0.16936(11) 0.88630(18) 0.18229(10)
C1 C 0.18622(17) 0.6094(3) 0.18123(18)
C2 C 0.24643(19) 0.6082(3) 0.2624(2)
H1 H 0.2538 0.6855 0.2941
C3 C 0.2960(2) 0.4923(4) 0.2970(2)
H2 H 0.3359 0.4920 0.3520
C4 C 0.2869(2) 0.3793(4) 0.2513(3)
H3 H 0.3216 0.3027 0.2745
C5 C 0.2266(2) 0.3784(3) 0.1711(2)
H4 H 0.2190 0.3003 0.1400
C6 C 0.17677(19) 0.4932(3) 0.13616(18)
H5 H 0.1362 0.4919 0.0813
C7 C 0.01884(17) 0.7409(3) 0.14774(15)
C8 C -0.0251(2) 0.6190(3) 0.13663(17)
H6 H -0.0013 0.5412 0.1247
C9 C -0.1048(2) 0.6108(3) 0.14302(19)
H7 H -0.1339 0.5277 0.1362
C10 C -0.1400(2) 0.7247(4) 0.15932(19)
H8 H -0.1939 0.7193 0.1627
C11 C -0.0977(2) 0.8459(4) 0.1707(2)
H9 H -0.1224 0.9235 0.1818
C12 C -0.0169(2) 0.8536(3) 0.16571(18)
H10 H 0.0130 0.9364 0.1747
C13 C 0.09431(19) 0.7625(3) 0.03445(16)
C14 C 0.16220(19) 0.7500(3) 0.01058(19)
H11 H 0.2203 0.7338 0.0496
C15 C 0.1448(2) 0.7614(3) -0.0703(2)
H12 H 0.1909 0.7529 -0.0857
C16 C 0.0600(3) 0.7849(3) -0.1274(2)
H13 H 0.0482 0.7926 -0.1819
C17 C -0.0077(2) 0.7974(3) -0.1057(2)
H14 H -0.0655 0.8133 -0.1453
C18 C 0.0090(2) 0.7866(3) -0.02499(19)
H15 H -0.0378 0.7956 -0.0106
O2 O 0.29030(12) 1.0307(2) 0.28946(12)
H16 H 0.2471 0.9901 0.2595
C19 C 0.32200(18) 0.9910(3) 0.36492(19)
O3 O 0.29977(14) 0.8882(2) 0.38566(13)
C20 C 0.38830(17) 1.0884(3) 0.42273(18)
N1 N 0.43821(15) 1.1548(2) 0.39350(13)
C21 C 0.39748(18) 1.1108(3) 0.49982(19)
Cl1 Cl 0.33173(5) 1.03306(10) 0.53878(5)
C22 C 0.4605(2) 1.2043(4) 0.5487(2)
H17 H 0.4674 1.2218 0.6011
C23 C 0.49929(19) 1.2413(3) 0.4415(2)
N2 N 0.55065(16) 1.3065(3) 0.4085(2)
C24 C 0.5116(2) 1.2697(3) 0.5199(2)
H18 H 0.5542 1.3326 0.5521
N3 N 0.60429(19) 1.4127(3) 0.45224(19)
C25 C 0.5594(2) 1.2799(4) 0.3382(3)
C26 C 0.5137(2) 1.1695(4) 0.27913(19)
H19 H 0.5310 1.1728 0.2355
H20 H 0.4502 1.1812 0.2574
H21 H 0.5302 1.0830 0.3061
C27 C 0.6186(3) 1.3730(5) 0.3377(3)
H22 H 0.638(2) 1.383(4) 0.298(2)
C28 C 0.6447(2) 1.4513(4) 0.4071(3)
C29 C 0.7108(2) 1.5670(4) 0.4364(3)
H23 H 0.7145 1.6011 0.4871
H24 H 0.6915 1.6386 0.3966
H25 H 0.7685 1.5349 0.4443
loop_
_geom_bond_atom_site_label_1
_geom_bond_atom_site_label_2
_geom_bond_site_symmetry_1
_geom_bond_site_symmetry_2
P1 O1 1_555 1_555
C1 P1 1_555 1_555
C2 C1 1_555 1_555
H1 C2 1_555 1_555
C3 C2 1_555 1_555
H2 C3 1_555 1_555
C4 C3 1_555 1_555
H3 C4 1_555 1_555
C5 C4 1_555 1_555
H4 C5 1_555 1_555
C6 C1 1_555 1_555
H5 C6 1_555 1_555
C7 P1 1_555 1_555
C8 C7 1_555 1_555
H6 C8 1_555 1_555
C9 C8 1_555 1_555
H7 C9 1_555 1_555
C10 C9 1_555 1_555
H8 C10 1_555 1_555
C11 C10 1_555 1_555
H9 C11 1_555 1_555
C12 C7 1_555 1_555
H10 C12 1_555 1_555
C13 P1 1_555 1_555
C14 C13 1_555 1_555
H11 C14 1_555 1_555
C15 C14 1_555 1_555
H12 C15 1_555 1_555
C16 C15 1_555 1_555
H13 C16 1_555 1_555
C17 C16 1_555 1_555
H14 C17 1_555 1_555
C18 C13 1_555 1_555
H15 C18 1_555 1_555
O2 H16 1_555 1_555
C19 O2 1_555 1_555
O3 C19 1_555 1_555
C20 C19 1_555 1_555
N1 C20 1_555 1_555
C21 C20 1_555 1_555
Cl1 C21 1_555 1_555
C22 C21 1_555 1_555
H17 C22 1_555 1_555
C23 N1 1_555 1_555
N2 C23 1_555 1_555
C24 C22 1_555 1_555
H18 C24 1_555 1_555
N3 N2 1_555 1_555
C25 N2 1_555 1_555
C26 C25 1_555 1_555
H19 C26 1_555 1_555
H20 C26 1_555 1_555
H21 C26 1_555 1_555
C27 C25 1_555 1_555
H22 C27 1_555 1_555
C28 N3 1_555 1_555
C29 C28 1_555 1_555
H23 C29 1_555 1_555
H24 C29 1_555 1_555
H25 C29 1_555 1_555
C5 C6 1_555 1_555
C11 C12 1_555 1_555
C17 C18 1_555 1_555
C23 C24 1_555 1_555
C27 C28 1_555 1_555

#END
