
#######################################################################
#
#                 Cambridge Crystallographic Data Centre
#                                CCDC 
#
#######################################################################
#
# If this CIF has been generated from an entry in the Cambridge 
# Structural Database, then it will include bibliographic, chemical, 
# crystal, experimental, refinement or atomic coordinate data resulting 
# from the CCDC's data processing and validation procedures.
#
#######################################################################

data_KOFGOC
_chemical_name_common            'Cinnarizine nitrate'
_chemical_formula_moiety         'C26 H29 N2 1+,N1 O3 1-'
_chemical_name_systematic        
'4-Benzhydryl-1-cinnamylpiperazin-1-ium nitrate'
_symmetry_cell_setting           monoclinic
_symmetry_space_group_name_H-M   'P 21/c'
_symmetry_Int_Tables_number      14
_space_group_name_Hall           '-P 2ybc'
loop_
_symmetry_equiv_pos_site_id
_symmetry_equiv_pos_as_xyz
1 x,y,z
2 -x,1/2+y,1/2-z
3 -x,-y,-z
4 x,1/2-y,1/2+z
_cell_length_a                   18.6368(17)
_cell_length_b                   10.899(1)
_cell_length_c                   12.0271(10)
_cell_angle_alpha                90
_cell_angle_beta                 107.397(2)
_cell_angle_gamma                90
_cell_volume                     2331.22
_exptl_crystal_colour            colorless
_exptl_crystal_description       block
_cell_formula_units_Z            4
loop_
_atom_site_label
_atom_site_type_symbol
_atom_site_fract_x
_atom_site_fract_y
_atom_site_fract_z
N1 N 0.31523(11) 0.58781(18) 0.45974(16)
N2 N 0.30973(11) 0.42385(18) 0.26651(16)
H1 H 0.3154 0.3503 0.3020
C1 C 0.31968(14) 0.6166(2) 0.5816(2)
H2 H 0.3244 0.5391 0.6244
C2 C 0.38828(13) 0.6943(2) 0.6397(2)
C3 C 0.42973(14) 0.6712(2) 0.7539(2)
H3 H 0.4148 0.6086 0.7947
C4 C 0.49302(15) 0.7395(3) 0.8085(2)
H4 H 0.5204 0.7228 0.8853
C5 C 0.51513(15) 0.8324(3) 0.7483(3)
H5 H 0.5581 0.8777 0.7840
C6 C 0.47373(16) 0.8579(3) 0.6358(2)
H6 H 0.4883 0.9218 0.5960
C7 C 0.41097(15) 0.7900(2) 0.5814(2)
H7 H 0.3834 0.8081 0.5050
C8 C 0.24792(14) 0.6793(2) 0.5869(2)
C9 C 0.21408(16) 0.7710(3) 0.5104(2)
H8 H 0.2360 0.7974 0.4546
C10 C 0.14769(17) 0.8243(3) 0.5158(3)
H9 H 0.1256 0.8865 0.4641
C11 C 0.11438(18) 0.7855(4) 0.5974(3)
H10 H 0.0689 0.8190 0.5993
C12 C 0.1490(2) 0.6975(4) 0.6754(3)
H11 H 0.1279 0.6736 0.7331
C13 C 0.21470(17) 0.6434(3) 0.6702(3)
H12 H 0.2369 0.5822 0.7232
C14 C 0.38274(14) 0.5241(2) 0.4509(2)
H13 H 0.3885 0.4472 0.4933
H14 H 0.4267 0.5741 0.4862
C15 C 0.37754(14) 0.4990(2) 0.3257(2)
H15 H 0.3752 0.5763 0.2848
H16 H 0.4224 0.4559 0.3224
C16 C 0.24141(14) 0.4834(2) 0.2819(2)
H17 H 0.1981 0.4309 0.2499
H18 H 0.2324 0.5605 0.2396
C17 C 0.25099(15) 0.5069(2) 0.4092(2)
H19 H 0.2056 0.5443 0.4175
H20 H 0.2586 0.4295 0.4510
C18 C 0.30351(17) 0.4038(3) 0.1408(2)
H21 H 0.2982 0.4827 0.1018
H22 H 0.3497 0.3665 0.1355
C19 C 0.23928(16) 0.3248(3) 0.0793(2)
H23 H 0.2316 0.2531 0.1161
C20 C 0.19265(16) 0.3493(3) -0.0233(2)
H24 H 0.1975 0.4255 -0.0550
C21 C 0.13313(17) 0.2680(3) -0.0937(3)
C22 C 0.10066(18) 0.2921(3) -0.2118(3)
H25 H 0.1139 0.3635 -0.2432
C23 C 0.0498(2) 0.2140(5) -0.2832(4)
H26 H 0.0300 0.2314 -0.3622
C24 C 0.0283(2) 0.1098(5) -0.2373(4)
H27 H -0.0062 0.0564 -0.2854
C25 C 0.0578(2) 0.0840(4) -0.1204(4)
H28 H 0.0431 0.0137 -0.0893
C26 C 0.10931(17) 0.1634(3) -0.0498(3)
H29 H 0.1285 0.1462 0.0293
O1 O 0.29203(17) 0.1418(2) 0.2790(2)
O2 O 0.35493(15) 0.0310(2) 0.4192(2)
O3 O 0.36372(13) 0.2268(2) 0.42714(19)
N3 N 0.33744(15) 0.1316(3) 0.3756(2)
loop_
_geom_bond_atom_site_label_1
_geom_bond_atom_site_label_2
_geom_bond_site_symmetry_1
_geom_bond_site_symmetry_2
N1 C1 1_555 1_555
N2 H1 1_555 1_555
C1 H2 1_555 1_555
C2 C1 1_555 1_555
C3 C2 1_555 1_555
H3 C3 1_555 1_555
C4 C3 1_555 1_555
H4 C4 1_555 1_555
C5 C4 1_555 1_555
H5 C5 1_555 1_555
C6 C5 1_555 1_555
H6 C6 1_555 1_555
C7 C2 1_555 1_555
H7 C7 1_555 1_555
C8 C1 1_555 1_555
C9 C8 1_555 1_555
H8 C9 1_555 1_555
C10 C9 1_555 1_555
H9 C10 1_555 1_555
C11 C10 1_555 1_555
H10 C11 1_555 1_555
C12 C11 1_555 1_555
H11 C12 1_555 1_555
C13 C8 1_555 1_555
H12 C13 1_555 1_555
C14 N1 1_555 1_555
H13 C14 1_555 1_555
H14 C14 1_555 1_555
C15 N2 1_555 1_555
H15 C15 1_555 1_555
H16 C15 1_555 1_555
C16 N2 1_555 1_555
H17 C16 1_555 1_555
H18 C16 1_555 1_555
C17 N1 1_555 1_555
H19 C17 1_555 1_555
H20 C17 1_555 1_555
C18 N2 1_555 1_555
H21 C18 1_555 1_555
H22 C18 1_555 1_555
C19 C18 1_555 1_555
H23 C19 1_555 1_555
C20 C19 1_555 1_555
H24 C20 1_555 1_555
C21 C20 1_555 1_555
C22 C21 1_555 1_555
H25 C22 1_555 1_555
C23 C22 1_555 1_555
H26 C23 1_555 1_555
C24 C23 1_555 1_555
H27 C24 1_555 1_555
C25 C24 1_555 1_555
H28 C25 1_555 1_555
C26 C21 1_555 1_555
H29 C26 1_555 1_555
O1 N3 1_555 1_555
O2 N3 1_555 1_555
O3 N3 1_555 1_555
C6 C7 1_555 1_555
C12 C13 1_555 1_555
C14 C15 1_555 1_555
C16 C17 1_555 1_555
C25 C26 1_555 1_555

#END
