
#######################################################################
#
#                 Cambridge Crystallographic Data Centre
#                                CCDC 
#
#######################################################################
#
# If this CIF has been generated from an entry in the Cambridge 
# Structural Database, then it will include bibliographic, chemical, 
# crystal, experimental, refinement or atomic coordinate data resulting 
# from the CCDC's data processing and validation procedures.
#
#######################################################################

data_KOFGIV
_chemical_formula_moiety         'C18 H15 Br1 O1'
_chemical_name_systematic        4-(4-Bromophenyl)-4-phenylcyclohex-2-en-1-one
_symmetry_cell_setting           monoclinic
_symmetry_space_group_name_H-M   'P 21/c'
_symmetry_Int_Tables_number      14
_space_group_name_Hall           '-P 2ybc'
loop_
_symmetry_equiv_pos_site_id
_symmetry_equiv_pos_as_xyz
1 x,y,z
2 -x,1/2+y,1/2-z
3 -x,-y,-z
4 x,1/2-y,1/2+z
_cell_length_a                   16.157(2)
_cell_length_b                   9.189(3)
_cell_length_c                   9.996(3)
_cell_angle_alpha                90
_cell_angle_beta                 95.80(2)
_cell_angle_gamma                90
_cell_volume                     1476.48
_cell_formula_units_Z            4
loop_
_atom_site_label
_atom_site_type_symbol
_atom_site_fract_x
_atom_site_fract_y
_atom_site_fract_z
Br1 Br -0.01924(3) 0.75880(6) 0.17480(6)
O1 O 0.4800(3) 0.7234(4) 0.0767(6)
C1 C 0.4272(5) 0.6260(10) 0.0666(10)
C2 C 0.4239(6) 0.5388(10) 0.1949(10)
C3 C 0.3670(3) 0.4339(5) 0.2120(6)
C4 C 0.2986(2) 0.4011(5) 0.0995(4)
C5 C 0.3336(3) 0.4401(5) -0.0333(5)
C6 C 0.3684(5) 0.5895(9) -0.0435(8)
C7 C 0.2206(3) 0.4896(4) 0.1187(4)
C8 C 0.1656(3) 0.5286(5) 0.0088(5)
C9 C 0.0932(3) 0.6068(5) 0.0265(5)
C10 C 0.0772(2) 0.6465(5) 0.1533(5)
C11 C 0.1292(3) 0.6062(6) 0.2632(5)
C12 C 0.2006(3) 0.5283(6) 0.2459(5)
C13 C 0.2810(3) 0.2365(4) 0.1010(4)
C14 C 0.2027(3) 0.1788(5) 0.1136(4)
C15 C 0.1898(3) 0.0289(5) 0.1187(5)
C16 C 0.2548(4) -0.0646(6) 0.1097(5)
C17 C 0.3327(4) -0.0105(6) 0.0951(6)
C18 C 0.3461(3) 0.1390(5) 0.0918(5)
H1 H 0.460 0.545(8) 0.280(8)
H2 H 0.360(2) 0.392(4) 0.293(4)
H3 H 0.299(3) 0.427(5) -0.114(5)
H4 H 0.380(4) 0.362(8) -0.067(7)
H5 H 0.406(3) 0.594(6) -0.112(5)
H6 H 0.326(4) 0.683(9) -0.039(6)
H7 H 0.181(3) 0.510(6) -0.079(6)
H8 H 0.059(2) 0.649(4) -0.048(4)
H9 H 0.118(3) 0.627(5) 0.342(5)
H10 H 0.236(3) 0.488(6) 0.321(6)
H11 H 0.156(3) 0.244(4) 0.116(5)
H12 H 0.133(2) -0.010(4) 0.150(4)
H13 H 0.249(2) -0.172(6) 0.117(4)
H14 H 0.375(2) -0.067(4) 0.099(4)
H15 H 0.397(3) 0.181(5) 0.083(4)
C19? C 0.4309 0.6247 0.0962
C20? C 0.4011(16) 0.5939(29) 0.2258(31)
C21? C 0.3965(14) 0.5509(23) -0.0169(22)
loop_
_geom_bond_atom_site_label_1
_geom_bond_atom_site_label_2
_geom_bond_site_symmetry_1
_geom_bond_site_symmetry_2
Br1 C10 1_555 1_555
O1 C1 1_555 1_555
C1 C2 1_555 1_555
C2 C3 1_555 1_555
C3 C4 1_555 1_555
C4 C5 1_555 1_555
C5 C6 1_555 1_555
C6 C1 1_555 1_555
C7 C4 1_555 1_555
C8 C7 1_555 1_555
C9 C8 1_555 1_555
C10 C9 1_555 1_555
C11 C10 1_555 1_555
C12 C7 1_555 1_555
C13 C4 1_555 1_555
C14 C13 1_555 1_555
C15 C14 1_555 1_555
C16 C15 1_555 1_555
C17 C16 1_555 1_555
C18 C13 1_555 1_555
H1 C2 1_555 1_555
H2 C3 1_555 1_555
H3 C5 1_555 1_555
H4 C5 1_555 1_555
H5 C6 1_555 1_555
H6 C6 1_555 1_555
H7 C8 1_555 1_555
H8 C9 1_555 1_555
H9 C11 1_555 1_555
H10 C12 1_555 1_555
H11 C14 1_555 1_555
H12 C15 1_555 1_555
H13 C16 1_555 1_555
H14 C17 1_555 1_555
H15 C18 1_555 1_555
C11 C12 1_555 1_555
C17 C18 1_555 1_555

#END
