
#######################################################################
#
#                 Cambridge Crystallographic Data Centre
#                                CCDC 
#
#######################################################################
#
# If this CIF has been generated from an entry in the Cambridge 
# Structural Database, then it will include bibliographic, chemical, 
# crystal, experimental, refinement or atomic coordinate data resulting 
# from the CCDC's data processing and validation procedures.
#
#######################################################################

data_KOFHOD
_chemical_formula_moiety         'C17 H10 O1'
_chemical_name_systematic        Benzo(a)fluoren-11-one
_symmetry_cell_setting           monoclinic
_symmetry_space_group_name_H-M   'P 21/c'
_symmetry_Int_Tables_number      14
_space_group_name_Hall           '-P 2ybc'
loop_
_symmetry_equiv_pos_site_id
_symmetry_equiv_pos_as_xyz
1 x,y,z
2 -x,1/2+y,1/2-z
3 -x,-y,-z
4 x,1/2-y,1/2+z
_cell_length_a                   9.3852(4)
_cell_length_b                   7.1165(3)
_cell_length_c                   16.8809(7)
_cell_angle_alpha                90
_cell_angle_beta                 99.278(5)
_cell_angle_gamma                90
_cell_volume                     1112.72
_exptl_crystal_colour            red
_exptl_crystal_description       prism
_cell_formula_units_Z            4
_exptl_crystal_recrystallization_method toluene
loop_
_atom_site_label
_atom_site_type_symbol
_atom_site_fract_x
_atom_site_fract_y
_atom_site_fract_z
O1 O 0.20866(13) 0.18498(17) -0.07292(8)
C1 C -0.02937(18) 0.4405(3) -0.16653(10)
H1 H -0.0396 0.3189 -0.1900
C2 C -0.11989(19) 0.5866(3) -0.19725(11)
H2 H -0.1930 0.5651 -0.2422
C3 C -0.10410(18) 0.7630(3) -0.16279(11)
H3 H -0.1668 0.8614 -0.1846
C4 C 0.00180(17) 0.7996(3) -0.09676(11)
H4 H 0.0125 0.9214 -0.0735
C5 C 0.26877(16) 0.7875(2) 0.05511(10)
H5 H 0.2280 0.9100 0.0512
C6 C 0.38358(17) 0.7465(2) 0.11267(10)
H6 H 0.4220 0.8422 0.1492
C7 C 0.56835(17) 0.5255(3) 0.17902(10)
H7 H 0.6054 0.6201 0.2164
C8 C 0.63221(18) 0.3530(3) 0.18308(11)
H8 H 0.7138 0.3288 0.2229
C9 C 0.57847(17) 0.2119(3) 0.12911(11)
H9 H 0.6246 0.0927 0.1321
C10 C 0.46019(17) 0.2432(3) 0.07188(11)
H10 H 0.4238 0.1450 0.0361
C11 C 0.18804(17) 0.3497(2) -0.05773(10)
C12 C 0.07505(15) 0.4757(2) -0.10158(9)
C13 C 0.09063(15) 0.6536(2) -0.06621(10)
C14 C 0.21217(16) 0.6458(2) 0.00190(9)
C15 C 0.27059(16) 0.4674(2) 0.00659(9)
C16 C 0.39179(16) 0.4204(2) 0.06560(9)
C17 C 0.44778(16) 0.5651(3) 0.11987(10)
loop_
_geom_bond_atom_site_label_1
_geom_bond_atom_site_label_2
_geom_bond_site_symmetry_1
_geom_bond_site_symmetry_2
O1 C11 1_555 1_555
C1 H1 1_555 1_555
C2 C1 1_555 1_555
H2 C2 1_555 1_555
C3 C2 1_555 1_555
H3 C3 1_555 1_555
C4 C3 1_555 1_555
H4 C4 1_555 1_555
C5 H5 1_555 1_555
C6 C5 1_555 1_555
H6 C6 1_555 1_555
C7 H7 1_555 1_555
C8 C7 1_555 1_555
H8 C8 1_555 1_555
C9 C8 1_555 1_555
H9 C9 1_555 1_555
C10 C9 1_555 1_555
H10 C10 1_555 1_555
C11 C12 1_555 1_555
C12 C1 1_555 1_555
C13 C4 1_555 1_555
C14 C5 1_555 1_555
C15 C11 1_555 1_555
C16 C10 1_555 1_555
C17 C6 1_555 1_555
C7 C17 1_555 1_555
C12 C13 1_555 1_555
C13 C14 1_555 1_555
C14 C15 1_555 1_555
C15 C16 1_555 1_555
C16 C17 1_555 1_555

#END
