
#######################################################################
#
#                 Cambridge Crystallographic Data Centre
#                                CCDC 
#
#######################################################################
#
# If this CIF has been generated from an entry in the Cambridge 
# Structural Database, then it will include bibliographic, chemical, 
# crystal, experimental, refinement or atomic coordinate data resulting 
# from the CCDC's data processing and validation procedures.
#
#######################################################################

data_KOFMIC
_chemical_formula_moiety         'C26 H41 N1 O7 Si1'
_chemical_name_systematic        
'(+-)-(R)-Methyl 2-(t-butoxycarbonylamino)-2-((1S,2R,3R)-2-((t-butyl(dimethyl)silyloxy)methyl)-3-(2-methoxybenzoyl)cyclopropyl)ethanoate'
_symmetry_cell_setting           triclinic
_symmetry_space_group_name_H-M   'P -1'
_symmetry_Int_Tables_number      2
_space_group_name_Hall           '-P 1'
loop_
_symmetry_equiv_pos_site_id
_symmetry_equiv_pos_as_xyz
1 x,y,z
2 -x,-y,-z
_cell_length_a                   8.148(2)
_cell_length_b                   10.579(3)
_cell_length_c                   17.328(5)
_cell_angle_alpha                74.484(12)
_cell_angle_beta                 80.766(15)
_cell_angle_gamma                88.909(16)
_cell_volume                     1420.1
_exptl_crystal_colour            colorless
_exptl_crystal_description       prism
_chemical_melting_point          '97-98 deg.C'
_cell_formula_units_Z            2
loop_
_atom_site_label
_atom_site_type_symbol
_atom_site_fract_x
_atom_site_fract_y
_atom_site_fract_z
Si1 Si 0.62436(10) 0.22844(9) 0.82092(5)
O1 O 0.0854(3) 0.6001(2) 0.61585(13)
O2 O -0.0101(2) 0.4001(2) 0.62051(12)
O3 O 0.1216(3) 0.4498(2) 0.81182(12)
O4 O 0.3339(2) 0.5970(2) 0.79677(12)
O5 O 0.4365(2) 0.33684(19) 0.43794(12)
O6 O 0.3001(3) -0.01346(19) 0.59007(12)
O7 O 0.6178(2) 0.2227(2) 0.72723(12)
N1 N 0.3317(3) 0.4863(2) 0.70447(14)
H1 H 0.4316 0.5184 0.6840
C1 C 0.3619(3) 0.3737(3) 0.59721(17)
H2 H 0.4057 0.4488 0.5509
C2 C 0.3212(4) 0.2495(3) 0.57537(17)
H3 H 0.2267 0.1943 0.6105
C3 C 0.4745(4) 0.2588(3) 0.61386(18)
H4 H 0.5802 0.2703 0.5753
C4 C 0.2453(3) 0.4082(3) 0.66535(17)
H5 H 0.2023 0.3260 0.7061
C5 C 0.0995(4) 0.4834(3) 0.63212(17)
C6 C -0.1546(4) 0.4607(3) 0.5874(2)
H6 H -0.2352 0.4785 0.6307
H7 H -0.2044 0.4017 0.5629
H8 H -0.1206 0.5423 0.5467
C7 C 0.2492(4) 0.5069(3) 0.77446(18)
C8 C 0.2748(4) 0.6273(3) 0.87526(18)
C9 C 0.1060(4) 0.6911(4) 0.8738(2)
H9 H 0.1137 0.7684 0.8280
H10 H 0.0721 0.7163 0.9238
H11 H 0.0247 0.6293 0.8687
C10 C 0.4097(5) 0.7240(4) 0.8770(2)
H12 H 0.4102 0.8016 0.8318
H13 H 0.5171 0.6832 0.8727
H14 H 0.3873 0.7489 0.9276
C11 C 0.2723(5) 0.5051(4) 0.9457(2)
H15 H 0.3821 0.4680 0.9442
H16 H 0.1928 0.4412 0.9414
H17 H 0.2402 0.5282 0.9965
C12 C 0.3537(3) 0.2468(3) 0.48908(18)
C13 C 0.2852(3) 0.1367(3) 0.46415(17)
C14 C 0.2564(4) 0.0096(3) 0.51501(18)
C15 C 0.1899(4) -0.0882(3) 0.4877(2)
H18 H 0.1708 -0.1738 0.5218
C16 C 0.1526(4) -0.0576(3) 0.4101(2)
H19 H 0.1065 -0.1230 0.3918
C17 C 0.1816(4) 0.0666(3) 0.3588(2)
H20 H 0.1565 0.0857 0.3058
C18 C 0.2480(4) 0.1633(3) 0.38574(18)
H21 H 0.2682 0.2482 0.3507
C19 C 0.2773(4) -0.1434(3) 0.64379(19)
H22 H 0.1606 -0.1694 0.6539
H23 H 0.3132 -0.1444 0.6947
H24 H 0.3426 -0.2042 0.6191
C20 C 0.4872(4) 0.1725(3) 0.69687(18)
H25 H 0.3817 0.1711 0.7334
H26 H 0.5109 0.0826 0.6940
C21 C 0.4134(4) 0.1903(3) 0.88339(19)
H27 H 0.3778 0.1027 0.8848
H28 H 0.3353 0.2535 0.8597
H29 H 0.4176 0.1951 0.9382
C22 C 0.6983(4) 0.3954(3) 0.8164(2)
H30 H 0.8079 0.4127 0.7837
H31 H 0.7039 0.4012 0.8708
H32 H 0.6216 0.4596 0.7923
C23 C 0.7769(4) 0.1030(3) 0.86416(18)
C24 C 0.9467(4) 0.1262(3) 0.80789(19)
H33 H 0.9329 0.1201 0.7544
H34 H 1.0234 0.0604 0.8301
H35 H 0.9905 0.2128 0.8038
C25 C 0.7102(4) -0.0358(3) 0.8716(2)
H36 H 0.6947 -0.0427 0.8185
H37 H 0.6047 -0.0519 0.9080
H38 H 0.7893 -0.1001 0.8929
C26 C 0.8011(4) 0.1132(3) 0.94814(18)
H39 H 0.8431 0.2004 0.9438
H40 H 0.8801 0.0486 0.9694
H41 H 0.6954 0.0969 0.9845
loop_
_geom_bond_atom_site_label_1
_geom_bond_atom_site_label_2
_geom_bond_site_symmetry_1
_geom_bond_site_symmetry_2
Si1 O7 1_555 1_555
O1 C5 1_555 1_555
O2 C5 1_555 1_555
O3 C7 1_555 1_555
O4 C7 1_555 1_555
O5 C12 1_555 1_555
O6 C14 1_555 1_555
O7 C20 1_555 1_555
N1 H1 1_555 1_555
C1 H2 1_555 1_555
C2 C1 1_555 1_555
H3 C2 1_555 1_555
C3 C1 1_555 1_555
H4 C3 1_555 1_555
C4 N1 1_555 1_555
H5 C4 1_555 1_555
C5 C4 1_555 1_555
C6 O2 1_555 1_555
H6 C6 1_555 1_555
H7 C6 1_555 1_555
H8 C6 1_555 1_555
C7 N1 1_555 1_555
C8 O4 1_555 1_555
C9 C8 1_555 1_555
H9 C9 1_555 1_555
H10 C9 1_555 1_555
H11 C9 1_555 1_555
C10 C8 1_555 1_555
H12 C10 1_555 1_555
H13 C10 1_555 1_555
H14 C10 1_555 1_555
C11 C8 1_555 1_555
H15 C11 1_555 1_555
H16 C11 1_555 1_555
H17 C11 1_555 1_555
C12 C2 1_555 1_555
C13 C12 1_555 1_555
C14 C13 1_555 1_555
C15 C14 1_555 1_555
H18 C15 1_555 1_555
C16 C15 1_555 1_555
H19 C16 1_555 1_555
C17 C16 1_555 1_555
H20 C17 1_555 1_555
C18 C13 1_555 1_555
H21 C18 1_555 1_555
C19 O6 1_555 1_555
H22 C19 1_555 1_555
H23 C19 1_555 1_555
H24 C19 1_555 1_555
C20 C3 1_555 1_555
H25 C20 1_555 1_555
H26 C20 1_555 1_555
C21 Si1 1_555 1_555
H27 C21 1_555 1_555
H28 C21 1_555 1_555
H29 C21 1_555 1_555
C22 Si1 1_555 1_555
H30 C22 1_555 1_555
H31 C22 1_555 1_555
H32 C22 1_555 1_555
C23 Si1 1_555 1_555
C24 C23 1_555 1_555
H33 C24 1_555 1_555
H34 C24 1_555 1_555
H35 C24 1_555 1_555
C25 C23 1_555 1_555
H36 C25 1_555 1_555
H37 C25 1_555 1_555
H38 C25 1_555 1_555
C26 C23 1_555 1_555
H39 C26 1_555 1_555
H40 C26 1_555 1_555
H41 C26 1_555 1_555
C1 C4 1_555 1_555
C2 C3 1_555 1_555
C17 C18 1_555 1_555

#END
