
#######################################################################
#
#                 Cambridge Crystallographic Data Centre
#                                CCDC 
#
#######################################################################
#
# If this CIF has been generated from an entry in the Cambridge 
# Structural Database, then it will include bibliographic, chemical, 
# crystal, experimental, refinement or atomic coordinate data resulting 
# from the CCDC's data processing and validation procedures.
#
#######################################################################

data_KOFPAW
_chemical_compound_source        'Streptomyces steffiburgensis and S.elgreteus'
_chemical_name_common            'PDB Chemical Component code: MPD'
_chemical_formula_moiety         'C28 H30 O13,C6 H14 O2,3(H2 O1)'
_chemical_name_systematic        
'Steffimycin 2-methyl-2,4-pentanediol trihydrate'
_chemical_properties_biological  'antibiotic and antitumour activity'
_symmetry_cell_setting           triclinic
_symmetry_space_group_name_H-M   'P 1'
_symmetry_Int_Tables_number      1
_space_group_name_Hall           'P 1'
loop_
_symmetry_equiv_pos_site_id
_symmetry_equiv_pos_as_xyz
1 x,y,z
_cell_length_a                   8.606(3)
_cell_length_b                   22.168(7)
_cell_length_c                   8.448(2)
_cell_angle_alpha                97.56(3)
_cell_angle_beta                 95.97(2)
_cell_angle_gamma                87.94(3)
_cell_volume                     1588.61
_exptl_crystal_colour            'light yellow-orange'
_cell_formula_units_Z            2
loop_
_atom_site_label
_atom_site_type_symbol
_atom_site_fract_x
_atom_site_fract_y
_atom_site_fract_z
O1 O 0.96596 0.72517 0.40683
O2 O 1.2945(12) 0.7100(4) 0.3272(12)
O3 O 1.3437(12) 0.6045(4) 0.4622(13)
O4 O 1.0319(14) 0.5628(4) 0.4349(13)
O5 O 1.7701(15) 1.1524(5) 1.0684(12)
O6 O 1.5504(12) 1.0526(5) 0.5632(12)
O7 O 1.3438(13) 0.9710(5) 0.5723(12)
O8 O 1.1532(13) 0.8888(4) 0.5738(11)
O9 O 1.0809(12) 0.7583(4) 0.6670(11)
O10 O 0.7786(13) 0.8359(6) 0.8803(13)
O11 O 0.8431(12) 0.7563(5) 1.0907(13)
O12 O 1.0547(14) 0.8372(5) 1.2243(12)
O13 O 1.4177(14) 1.0046(5) 1.2163(12)
C1 C 1.1068(19) 0.7507(8) 0.5026(18)
C2 C 1.2454(19) 0.7078(7) 0.4811(19)
C3 C 1.2199(20) 0.6427(8) 0.4984(18)
C4 C 1.0647(22) 0.6208(7) 0.3992(19)
C5 C 0.9308(20) 0.6658(6) 0.4348(17)
C6 C 1.5872(20) 1.0777(7) 1.0583(19)
C7 C 1.6781(21) 1.1118(6) 0.9691(20)
C8 C 1.6608(22) 1.1039(8) 0.8082(22)
C9 C 1.4734(17) 1.0241(6) 0.8060(17)
C10 C 1.5629(19) 1.0577(8) 0.7225(19)
C11 C 1.2847(19) 0.9389(7) 0.8123(18)
C12 C 1.3640(19) 0.9796(7) 0.7210(20)
C13 C 1.1031(19) 0.8560(7) 0.8186(18)
C14 C 1.1784(19) 0.8980(7) 0.7332(18)
C15 C 0.9967(17) 0.8093(6) 0.7303(16)
C16 C 0.8841(18) 0.7893(6) 0.8379(19)
C17 C 0.9660(18) 0.7706(7) 0.9960(18)
C18 C 1.1280(19) 0.8648(7) 0.9859(18)
C19 C 1.0500(20) 0.8258(6) 1.0823(17)
C20 C 1.3055(19) 0.9465(7) 0.9823(18)
C21 C 1.2316(20) 0.9120(6) 1.0665(18)
C22 C 1.4938(20) 1.0336(7) 0.9790(19)
C23 C 1.4030(20) 0.9987(8) 1.0726(18)
C24 C 1.0823(23) 0.7195(7) 0.9735(20)
C25 C 0.644(3) 0.8400(11) 0.775(3)
C26 C 1.8703(22) 1.1845(9) 0.984(3)
C27 C 1.3946(21) 0.7602(9) 0.3184(22)
C28 C 0.7792(19) 0.6471(8) 0.3347(20)
O14 O 0.5330(12) 0.3432(4) 0.1772(11)
O15 O 0.2137(14) 0.3701(5) 0.0245(13)
O16 O 0.1731(14) 0.4726(5) 0.2462(13)
O17 O 0.4929(14) 0.5072(5) 0.3022(13)
O18 O -0.2711(4) -0.0827(5) 0.4199(15)
O19 O -0.0543(13) 0.0068(5) 0.0073(12)
O20 O 0.1378(14) 0.0930(5) 0.1037(12)
O21 O 0.3222(14) 0.1802(5) 0.1878(11)
O22 O 0.3975(12) 0.3121(5) 0.3770(11)
O23 O 0.7200(13) 0.2315(6) 0.5803(15)
O24 O 0.6644(14) 0.3148(5) 0.8415(14)
O25 O 0.4635(15) 0.2325(5) 0.8930(13)
O26 O 0.0691(4) 0.0729(5) 0.7209(13)
C29 C 0.3870(18) 0.3213(6) 0.2089(18)
C30 C 0.2543(20) 0.3691(7) 0.1936(18)
C31 C 0.2960(20) 0.4294(7) 0.2748(19)
C32 C 0.4500(20) 0.4460(6) 0.2204(18)
C33 C 0.5789(16) 0.4024(6) 0.2602(17)
C34 C -0.0977(21) -0.0033(8) 0.4890(20)
C35 C -0.1764(19) -0.0435(7) 0.3652(22)
C36 C -0.1663(21) -0.0400(8) 0.2050(20)
C37 C 0.0185(18) 0.0444(7) 0.2860(18)
C38 C -0.0673(20) 0.0052(8) 0.1686(20)
C39 C 0.2005(21) 0.1287(7) 0.3757(18)
C40 C 0.1207(20) 0.0886(7) 0.2465(19)
C41 C 0.3836(19) 0.2111(7) 0.4604(18)
C42 C 0.2997(19) 0.1735(7) 0.3396(18)
C43 C 0.4893(19) 0.2570(8) 0.4163(18)
C44 C 0.6140(19) 0.2796(6) 0.5595(18)
C45 C 0.5412(20) 0.2979(7) 0.7172(19)
C46 C 0.3677(19) 0.2045(8) 0.6210(19)
C47 C 0.4577(21) 0.2430(7) 0.7553(18)
C48 C 0.1872(21) 0.1262(7) 0.5387(20)
C49 C 0.2683(20) 0.1619(7) 0.6583(19)
C50 C -0.0011(20) 0.0381(6) 0.4448(19)
C51 C 0.0829(2) 0.0763(8) 0.5769(19)
C52 C 0.4239(20) 0.3507(7) 0.7106(19)
C53 C 0.8470(3) 0.2269(12) 0.4920(3)
C54 C -0.3572(24) -0.1233(11) 0.3025(25)
C55 C 0.0990(3) 0.3280(10) -0.0500(23)
C56 C 0.7339(18) 0.4155(7) 0.2096(22)
O27 O 0.8490(14) 0.5635(6) 0.6833(14)
O28 O 1.1847(14) 0.5438(6) 1.0084(12)
C57 C 0.8258(25) 0.5406(12) 0.9423(21)
C58 C 0.8722(18) 0.5134(8) 0.7779(19)
C59 C 1.0331(21) 0.4907(8) 0.7760(19)
C60 C 1.1697(20) 0.5344(7) 0.8364(19)
C61 C 1.3187(23) 0.5205(9) 0.7816(24)
C62 C 0.7600(3) 0.4634(11) 0.7000(3)
O29 O 0.4362(14) 0.6143(6) 0.1362(13)
O30 O 0.5914(13) 0.6443(6) 0.6625(14)
O31 O 0.5518(16) 0.7044(6) 0.9596(15)
loop_
_geom_bond_atom_site_label_1
_geom_bond_atom_site_label_2
_geom_bond_site_symmetry_1
_geom_bond_site_symmetry_2
O1 C1 1_555 1_555
O2 C2 1_555 1_555
O3 C3 1_555 1_555
O4 C4 1_555 1_555
O5 C7 1_555 1_555
O6 C10 1_555 1_555
O7 C12 1_555 1_555
O8 C14 1_555 1_555
O9 C1 1_555 1_555
O10 C16 1_555 1_555
O11 C17 1_555 1_555
O12 C19 1_555 1_555
O13 C23 1_555 1_555
C1 C2 1_555 1_555
C2 C3 1_555 1_555
C3 C4 1_555 1_555
C4 C5 1_555 1_555
C5 O1 1_555 1_555
C6 C7 1_555 1_555
C7 C8 1_555 1_555
C8 C10 1_555 1_555
C9 C10 1_555 1_555
C11 C12 1_555 1_555
C12 C9 1_555 1_555
C13 C14 1_555 1_555
C14 C11 1_555 1_555
C15 O9 1_555 1_555
C16 C15 1_555 1_555
C17 C16 1_555 1_555
C18 C13 1_555 1_555
C19 C17 1_555 1_555
C20 C11 1_555 1_555
C21 C18 1_555 1_555
C22 C6 1_555 1_555
C23 C20 1_555 1_555
C24 C17 1_555 1_555
C25 O10 1_555 1_555
C26 O5 1_555 1_555
C27 O2 1_555 1_555
C28 C5 1_555 1_555
O14 C29 1_555 1_555
O15 C30 1_555 1_555
O16 C31 1_555 1_555
O17 C32 1_555 1_555
O18 C35 1_555 1_555
O19 C38 1_555 1_555
O20 C40 1_555 1_555
O21 C42 1_555 1_555
O22 C29 1_555 1_555
O23 C44 1_555 1_555
O24 C45 1_555 1_555
O25 C47 1_555 1_555
O26 C51 1_555 1_555
C29 C30 1_555 1_555
C30 C31 1_555 1_555
C31 C32 1_555 1_555
C32 C33 1_555 1_555
C33 O14 1_555 1_555
C34 C35 1_555 1_555
C35 C36 1_555 1_555
C36 C38 1_555 1_555
C37 C38 1_555 1_555
C39 C40 1_555 1_555
C40 C37 1_555 1_555
C41 C42 1_555 1_555
C42 C39 1_555 1_555
C43 O22 1_555 1_555
C44 C43 1_555 1_555
C45 C44 1_555 1_555
C46 C41 1_555 1_555
C47 C45 1_555 1_555
C48 C39 1_555 1_555
C49 C46 1_555 1_555
C50 C34 1_555 1_555
C51 C48 1_555 1_555
C52 C45 1_555 1_555
C53 O23 1_555 1_555
C54 O18 1_555 1_555
C55 O15 1_555 1_555
C56 C33 1_555 1_555
O27 C58 1_555 1_555
O28 C60 1_555 1_555
C57 C58 1_555 1_555
C58 C59 1_555 1_555
C59 C60 1_555 1_555
C60 C61 1_555 1_555
C62 C58 1_555 1_555
C9 C22 1_555 1_555
C13 C15 1_555 1_555
C18 C19 1_555 1_555
C20 C21 1_555 1_555
C22 C23 1_555 1_555
C37 C50 1_555 1_555
C41 C43 1_555 1_555
C46 C47 1_555 1_555
C48 C49 1_555 1_555
C50 C51 1_555 1_555

#END
