
#######################################################################
#
#                 Cambridge Crystallographic Data Centre
#                                CCDC 
#
#######################################################################
#
# If this CIF has been generated from an entry in the Cambridge 
# Structural Database, then it will include bibliographic, chemical, 
# crystal, experimental, refinement or atomic coordinate data resulting 
# from the CCDC's data processing and validation procedures.
#
#######################################################################

data_KOFTEG
_chemical_formula_moiety         'C17 H11 N3 O2 S1'
_chemical_name_systematic        
5-(4-nitrophenyl)-6-phenylimidazo[2,1-b][1,3]thiazole
_symmetry_cell_setting           trigonal
_symmetry_space_group_name_H-M   'P 32'
_symmetry_Int_Tables_number      145
_space_group_name_Hall           'P 32'
loop_
_symmetry_equiv_pos_site_id
_symmetry_equiv_pos_as_xyz
1 x,y,z
2 -y,x-y,2/3+z
3 -x+y,-x,1/3+z
_cell_length_a                   18.3921(7)
_cell_length_b                   18.3921(7)
_cell_length_c                   23.2883(17)
_cell_angle_alpha                90
_cell_angle_beta                 90
_cell_angle_gamma                120
_cell_volume                     6822.3
_exptl_crystal_colour            red
_exptl_crystal_description       prism
_chemical_melting_point          '154-156 deg.C'
_cell_formula_units_Z            18
loop_
_atom_site_label
_atom_site_type_symbol
_atom_site_fract_x
_atom_site_fract_y
_atom_site_fract_z
S1 S 0.10296(12) -0.32669(12) -0.42398(10)
O1 O -0.3336(5) -0.2020(5) -0.3952(4)
O2 O -0.4280(6) -0.3193(7) -0.4246(5)
N1 N -0.0589(4) -0.4694(4) -0.4164(3)
N2 N -0.0426(4) -0.3404(4) -0.4168(3)
N3 N -0.3585(6) -0.2733(7) -0.4096(4)
C1 C -0.2841(5) -0.5717(5) -0.3814(4)
H1 H -0.2841 -0.5277 -0.3618
C2 C -0.3555(5) -0.6506(6) -0.3808(4)
H2 H -0.4032 -0.6585 -0.3616
C3 C -0.3566(5) -0.7171(6) -0.4081(4)
H3 H -0.4051 -0.7695 -0.4085
C4 C -0.2851(5) -0.7053(5) -0.4349(4)
H4 H -0.2841 -0.7504 -0.4521
C5 C -0.2142(5) -0.6260(4) -0.4362(3)
H5 H -0.1664 -0.6189 -0.4548
C6 C -0.2125(4) -0.5576(4) -0.4109(3)
C7 C -0.1355(4) -0.4736(4) -0.4135(3)
C8 C -0.0058(4) -0.3888(4) -0.4188(3)
C9 C 0.0932(5) -0.2377(5) -0.4262(4)
H6 H 0.1387 -0.1837 -0.4303
C10 C 0.0143(5) -0.2544(5) -0.4215(4)
H7 H -0.0012 -0.2134 -0.4214
C11 C -0.1290(4) -0.3953(4) -0.4133(3)
C12 C -0.1881(5) -0.3646(4) -0.4119(3)
C13 C -0.1704(5) -0.2926(5) -0.3821(4)
H8 H -0.1201 -0.2644 -0.3619
C14 C -0.2248(6) -0.2606(6) -0.3813(4)
H9 H -0.2113 -0.2110 -0.3622
C15 C -0.2992(5) -0.3058(5) -0.4100(4)
C16 C -0.3211(5) -0.3778(6) -0.4384(4)
H10 H -0.3728 -0.4071 -0.4568
C17 C -0.2654(5) -0.4068(5) -0.4397(3)
H11 H -0.2797 -0.4560 -0.4596
S2 S -0.05254(12) -0.23003(12) -0.56042(10)
O3 O -0.6095(3) -0.6728(4) -0.6122(3)
O4 O -0.5922(4) -0.7562(5) -0.5574(5)
N4 N -0.0711(3) -0.3922(4) -0.5630(3)
N5 N -0.1833(3) -0.3749(3) -0.5712(3)
N6 N -0.5659(5) -0.6914(5) -0.5840(4)
C18 C -0.1924(5) -0.6166(5) -0.6012(3)
H12 H -0.2405 -0.6192 -0.6162
C19 C -0.1807(5) -0.6841(5) -0.6083(4)
H13 H -0.2197 -0.7316 -0.6281
C20 C -0.1092(6) -0.6795(6) -0.5850(5)
H14 H -0.1005 -0.7249 -0.5886
C21 C -0.0518(5) -0.6092(6) -0.5571(4)
H15 H -0.0038 -0.6069 -0.5421
C22 C -0.0636(4) -0.5421(5) -0.5509(3)
H16 H -0.0235 -0.4941 -0.5320
C23 C -0.1352(4) -0.5453(4) -0.5728(3)
C24 C -0.1437(4) -0.4692(4) -0.5682(3)
C25 C -0.0989(4) -0.3383(4) -0.5646(3)
C26 C -0.1509(5) -0.2399(5) -0.5659(3)
H17 H -0.1595 -0.1942 -0.5653
C27 C -0.2139(5) -0.3199(4) -0.5712(3)
H18 H -0.2704 -0.3359 -0.5743
C28 C -0.2144(4) -0.4623(4) -0.5724(3)
C29 C -0.3049(4) -0.5210(4) -0.5770(3)
C30 C -0.3404(4) -0.5939(4) -0.5440(3)
H19 H -0.3065 -0.6049 -0.5202
C31 C -0.4262(5) -0.6502(5) -0.5463(4)
H20 H -0.4500 -0.6995 -0.5249
C32 C -0.4748(4) -0.6316(5) -0.5809(4)
C33 C -0.4422(4) -0.5598(5) -0.6141(3)
H21 H -0.4766 -0.5486 -0.6374
C34 C -0.3565(4) -0.5052(4) -0.6115(3)
H22 H -0.3330 -0.4565 -0.6336
S3 S -0.85037(13) -1.05685(13) -0.54574(12)
O5 O -0.8381(5) -0.5172(4) -0.5573(4)
O6 O -0.7233(5) -0.5018(4) -0.5952(4)
N7 N -0.9952(4) -1.0396(3) -0.5474(3)
N8 N -0.8670(4) -0.9278(4) -0.5597(3)
N9 N -0.7932(6) -0.5436(5) -0.5754(4)
C35 C -1.1034(5) -0.9261(5) -0.5895(4)
H23 H -1.0606 -0.8816 -0.6096
C36 C -1.1855(6) -0.9406(6) -0.5925(4)
H24 H -1.1972 -0.9045 -0.6133
C37 C -1.2489(6) -1.0087(7) -0.5646(5)
H25 H -1.3040 -1.0202 -0.5680
C38 C -1.2314(6) -1.0591(6) -0.5320(4)
H26 H -1.2746 -1.1047 -0.5130
C39 C -1.1498(5) -1.0433(5) -0.5270(4)
H27 H -1.1382 -1.0771 -0.5035
C40 C -1.0858(5) -0.9778(5) -0.5567(4)
C41 C -1.0007(5) -0.9677(5) -0.5545(3)
C42 C -0.9141(5) -1.0135(4) -0.5514(4)
C43 C -0.7626(5) -0.9584(5) -0.5528(4)
H28 H -0.7081 -0.9493 -0.5520
C44 C -0.7802(4) -0.8962(5) -0.5594(4)
H29 H -0.7400 -0.8397 -0.5632
C45 C -0.9225(4) -0.8966(4) -0.5609(3)
C46 C -0.8916(4) -0.8061(4) -0.5679(3)
C47 C -0.8237(5) -0.7566(5) -0.6024(4)
H30 H -0.8003 -0.7814 -0.6250
C48 C -0.7898(5) -0.6701(5) -0.6036(4)
H31 H -0.7415 -0.6363 -0.6248
C49 C -0.8280(5) -0.6361(5) -0.5737(4)
C50 C -0.8982(5) -0.6842(5) -0.5401(3)
H32 H -0.9240 -0.6590 -0.5207
C51 C -0.9300(5) -0.7695(4) -0.5355(3)
H33 H -0.9755 -0.8021 -0.5118
S4 S -0.91745(13) -0.52391(13) -0.41451(12)
O7 O -1.0495(5) -1.0799(4) -0.3582(4)
O8 O -0.9391(5) -1.0671(4) -0.3995(4)
N10 N -0.7759(3) -0.5450(3) -0.4198(3)
N11 N -0.9029(3) -0.6540(3) -0.4000(3)
N12 N -0.9816(6) -1.0381(5) -0.3804(4)
C52 C -0.6640(5) -0.6515(5) -0.3787(4)
H34 H -0.7008 -0.6851 -0.3501
C53 C -0.5835(6) -0.6417(6) -0.3827(5)
H35 H -0.5663 -0.6672 -0.3557
C54 C -0.5304(6) -0.5956(7) -0.4255(5)
H36 H -0.4777 -0.5907 -0.4284
C55 C -0.5553(6) -0.5558(6) -0.4650(5)
H37 H -0.5193 -0.5244 -0.4947
C56 C -0.6332(5) -0.5627(5) -0.4604(4)
H38 H -0.6487 -0.5346 -0.4865
C57 C -0.6885(4) -0.6107(5) -0.4177(3)
C58 C -0.7713(4) -0.6182(4) -0.4124(3)
C59 C -0.8555(5) -0.5699(4) -0.4116(3)
C60 C -1.0061(5) -0.6212(5) -0.4027(4)
H39 H -1.0603 -0.6296 -0.4011
C61 C -0.9883(4) -0.6820(5) -0.3962(3)
H40 H -1.0287 -0.7378 -0.3898
C62 C -0.8488(4) -0.6865(4) -0.4004(3)
C63 C -0.8795(4) -0.7759(4) -0.3931(3)
C64 C -0.9480(4) -0.8239(4) -0.3577(3)
H41 H -0.9714 -0.7979 -0.3364
C65 C -0.9822(5) -0.9107(4) -0.3538(3)
H42 H -1.0290 -0.9431 -0.3310
C66 C -0.9452(5) -0.9467(5) -0.3845(4)
C67 C -0.8758(5) -0.9005(5) -0.4174(3)
H43 H -0.8506 -0.9267 -0.4365
C68 C -0.8434(5) -0.8164(4) -0.4225(3)
H44 H -0.7968 -0.7853 -0.4458
S5 S -0.37661(14) -0.12726(13) -0.25877(12)
O9 O -0.9403(4) -0.5604(5) -0.2246(4)
O10 O -0.9187(4) -0.6553(5) -0.2627(4)
N13 N -0.3983(4) -0.2906(4) -0.2521(3)
N14 N -0.5095(4) -0.2703(4) -0.2484(3)
N15 N -0.8947(5) -0.5845(6) -0.2432(4)
C69 C -0.5252(5) -0.5150(5) -0.2148(4)
H45 H -0.5718 -0.5153 -0.1989
C70 C -0.5164(6) -0.5852(5) -0.2091(4)
H46 H -0.5575 -0.6327 -0.1903
C71 C -0.4467(7) -0.5847(6) -0.2314(4)
H47 H -0.4388 -0.6305 -0.2265
C72 C -0.3896(6) -0.5152(6) -0.2607(4)
H48 H -0.3430 -0.5147 -0.2767
C73 C -0.3987(5) -0.4467(5) -0.2674(4)
H49 H -0.3587 -0.4008 -0.2881
C74 C -0.4662(5) -0.4446(4) -0.2438(3)
C75 C -0.4729(4) -0.3681(5) -0.2482(4)
C76 C -0.4245(4) -0.2363(5) -0.2530(4)
C77 C -0.4751(5) -0.1350(5) -0.2558(4)
H50 H -0.4827 -0.0888 -0.2580
C78 C -0.5380(5) -0.2134(4) -0.2503(3)
H51 H -0.5943 -0.2282 -0.2480
C79 C -0.5421(4) -0.3571(4) -0.2455(3)
C80 C -0.6332(4) -0.4160(5) -0.2441(3)
C81 C -0.6861(5) -0.3984(5) -0.2120(4)
H52 H -0.6638 -0.3494 -0.1903
C82 C -0.7710(5) -0.4528(5) -0.2120(4)
H53 H -0.8063 -0.4401 -0.1911
C83 C -0.8039(5) -0.5261(5) -0.2430(4)
C84 C -0.7538(5) -0.5458(5) -0.2745(4)
H54 H -0.7768 -0.5957 -0.2952
C85 C -0.6671(4) -0.4901(4) -0.2752(3)
H55 H -0.6322 -0.5028 -0.2966
S6 S -0.71967(13) -0.34643(13) -0.39672(13)
O11 O -0.1599(4) 0.1049(5) -0.4020(4)
O12 O -0.1888(4) 0.1971(4) -0.3729(3)
N16 N -0.7023(4) -0.1858(4) -0.4023(4)
N17 N -0.5885(4) -0.1996(4) -0.3980(3)
N18 N -0.2102(4) 0.1263(5) -0.3890(4)
C86 C -0.7070(5) -0.0338(5) -0.3767(4)
H56 H -0.7438 -0.0806 -0.3552
C87 C -0.7187(6) 0.0347(6) -0.3800(4)
H57 H -0.7640 0.0332 -0.3613
C88 C -0.6636(6) 0.1055(6) -0.4109(4)
H58 H -0.6713 0.1518 -0.4124
C89 C -0.5994(6) 0.1066(5) -0.4387(4)
H59 H -0.5623 0.1539 -0.4595
C90 C -0.5880(5) 0.0386(5) -0.4367(4)
H60 H -0.5436 0.0404 -0.4571
C91 C -0.6405(5) -0.0329(5) -0.4053(4)
C92 C -0.6304(4) -0.1074(5) -0.4027(4)
C93 C -0.6739(4) -0.2390(5) -0.4007(4)
C94 C -0.6214(5) -0.3362(5) -0.3913(4)
H61 H -0.6125 -0.3815 -0.3878
C95 C -0.5602(5) -0.2572(5) -0.3925(3)
H62 H -0.5037 -0.2413 -0.3901
C96 C -0.5584(4) -0.1139(4) -0.4000(3)
C97 C -0.4690(4) -0.0519(5) -0.3971(3)
C98 C -0.4419(4) 0.0262(4) -0.3718(3)
H63 H -0.4807 0.0389 -0.3560
C99 C -0.3570(5) 0.0848(5) -0.3701(3)
H64 H -0.3388 0.1378 -0.3548
C100 C -0.3000(4) 0.0644(5) -0.3911(4)
C101 C -0.3243(5) -0.0128(5) -0.4152(4)
H65 H -0.2847 -0.0260 -0.4286
C102 C -0.4101(4) -0.0706(5) -0.4189(3)
H66 H -0.4280 -0.1224 -0.4362
loop_
_geom_bond_atom_site_label_1
_geom_bond_atom_site_label_2
_geom_bond_site_symmetry_1
_geom_bond_site_symmetry_2
S1 C8 1_555 1_555
O1 N3 1_555 1_555
O2 N3 1_555 1_555
N1 C7 1_555 1_555
N2 C8 1_555 1_555
N3 C15 1_555 1_555
C1 H1 1_555 1_555
C2 C1 1_555 1_555
H2 C2 1_555 1_555
C3 C2 1_555 1_555
H3 C3 1_555 1_555
C4 C3 1_555 1_555
H4 C4 1_555 1_555
C5 C4 1_555 1_555
H5 C5 1_555 1_555
C6 C1 1_555 1_555
C7 C6 1_555 1_555
C8 N1 1_555 1_555
C9 S1 1_555 1_555
H6 C9 1_555 1_555
C10 N2 1_555 1_555
H7 C10 1_555 1_555
C11 N2 1_555 1_555
C12 C11 1_555 1_555
C13 C12 1_555 1_555
H8 C13 1_555 1_555
C14 C13 1_555 1_555
H9 C14 1_555 1_555
C15 C14 1_555 1_555
C16 C15 1_555 1_555
H10 C16 1_555 1_555
C17 C12 1_555 1_555
H11 C17 1_555 1_555
S2 C25 1_555 1_555
O3 N6 1_555 1_555
O4 N6 1_555 1_555
N4 C24 1_555 1_555
N5 C25 1_555 1_555
N6 C32 1_555 1_555
C18 H12 1_555 1_555
C19 C18 1_555 1_555
H13 C19 1_555 1_555
C20 C19 1_555 1_555
H14 C20 1_555 1_555
C21 C20 1_555 1_555
H15 C21 1_555 1_555
C22 C21 1_555 1_555
H16 C22 1_555 1_555
C23 C18 1_555 1_555
C24 C23 1_555 1_555
C25 N4 1_555 1_555
C26 S2 1_555 1_555
H17 C26 1_555 1_555
C27 N5 1_555 1_555
H18 C27 1_555 1_555
C28 N5 1_555 1_555
C29 C28 1_555 1_555
C30 C29 1_555 1_555
H19 C30 1_555 1_555
C31 C30 1_555 1_555
H20 C31 1_555 1_555
C32 C31 1_555 1_555
C33 C32 1_555 1_555
H21 C33 1_555 1_555
C34 C29 1_555 1_555
H22 C34 1_555 1_555
S3 C42 1_555 1_555
O5 N9 1_555 1_555
O6 N9 1_555 1_555
N7 C41 1_555 1_555
N8 C42 1_555 1_555
N9 C49 1_555 1_555
C35 H23 1_555 1_555
C36 C35 1_555 1_555
H24 C36 1_555 1_555
C37 C36 1_555 1_555
H25 C37 1_555 1_555
C38 C37 1_555 1_555
H26 C38 1_555 1_555
C39 C38 1_555 1_555
H27 C39 1_555 1_555
C40 C35 1_555 1_555
C41 C40 1_555 1_555
C42 N7 1_555 1_555
C43 S3 1_555 1_555
H28 C43 1_555 1_555
C44 N8 1_555 1_555
H29 C44 1_555 1_555
C45 N8 1_555 1_555
C46 C45 1_555 1_555
C47 C46 1_555 1_555
H30 C47 1_555 1_555
C48 C47 1_555 1_555
H31 C48 1_555 1_555
C49 C48 1_555 1_555
C50 C49 1_555 1_555
H32 C50 1_555 1_555
C51 C46 1_555 1_555
H33 C51 1_555 1_555
S4 C59 1_555 1_555
O7 N12 1_555 1_555
O8 N12 1_555 1_555
N10 C58 1_555 1_555
N11 C59 1_555 1_555
N12 C66 1_555 1_555
C52 H34 1_555 1_555
C53 C52 1_555 1_555
H35 C53 1_555 1_555
C54 C53 1_555 1_555
H36 C54 1_555 1_555
C55 C54 1_555 1_555
H37 C55 1_555 1_555
C56 C55 1_555 1_555
H38 C56 1_555 1_555
C57 C52 1_555 1_555
C58 C57 1_555 1_555
C59 N10 1_555 1_555
C60 S4 1_555 1_555
H39 C60 1_555 1_555
C61 N11 1_555 1_555
H40 C61 1_555 1_555
C62 N11 1_555 1_555
C63 C62 1_555 1_555
C64 C63 1_555 1_555
H41 C64 1_555 1_555
C65 C64 1_555 1_555
H42 C65 1_555 1_555
C66 C65 1_555 1_555
C67 C66 1_555 1_555
H43 C67 1_555 1_555
C68 C63 1_555 1_555
H44 C68 1_555 1_555
S5 C76 1_555 1_555
O9 N15 1_555 1_555
O10 N15 1_555 1_555
N13 C75 1_555 1_555
N14 C76 1_555 1_555
N15 C83 1_555 1_555
C69 H45 1_555 1_555
C70 C69 1_555 1_555
H46 C70 1_555 1_555
C71 C70 1_555 1_555
H47 C71 1_555 1_555
C72 C71 1_555 1_555
H48 C72 1_555 1_555
C73 C72 1_555 1_555
H49 C73 1_555 1_555
C74 C69 1_555 1_555
C75 C74 1_555 1_555
C76 N13 1_555 1_555
C77 S5 1_555 1_555
H50 C77 1_555 1_555
C78 N14 1_555 1_555
H51 C78 1_555 1_555
C79 N14 1_555 1_555
C80 C79 1_555 1_555
C81 C80 1_555 1_555
H52 C81 1_555 1_555
C82 C81 1_555 1_555
H53 C82 1_555 1_555
C83 C82 1_555 1_555
C84 C83 1_555 1_555
H54 C84 1_555 1_555
C85 C80 1_555 1_555
H55 C85 1_555 1_555
S6 C93 1_555 1_555
O11 N18 1_555 1_555
O12 N18 1_555 1_555
N16 C92 1_555 1_555
N17 C93 1_555 1_555
N18 C100 1_555 1_555
C86 H56 1_555 1_555
C87 C86 1_555 1_555
H57 C87 1_555 1_555
C88 C87 1_555 1_555
H58 C88 1_555 1_555
C89 C88 1_555 1_555
H59 C89 1_555 1_555
C90 C89 1_555 1_555
H60 C90 1_555 1_555
C91 C86 1_555 1_555
C92 C91 1_555 1_555
C93 N16 1_555 1_555
C94 S6 1_555 1_555
H61 C94 1_555 1_555
C95 N17 1_555 1_555
H62 C95 1_555 1_555
C96 N17 1_555 1_555
C97 C96 1_555 1_555
C98 C97 1_555 1_555
H63 C98 1_555 1_555
C99 C98 1_555 1_555
H64 C99 1_555 1_555
C100 C99 1_555 1_555
C101 C100 1_555 1_555
H65 C101 1_555 1_555
C102 C97 1_555 1_555
H66 C102 1_555 1_555
C5 C6 1_555 1_555
C7 C11 1_555 1_555
C9 C10 1_555 1_555
C16 C17 1_555 1_555
C22 C23 1_555 1_555
C24 C28 1_555 1_555
C26 C27 1_555 1_555
C33 C34 1_555 1_555
C39 C40 1_555 1_555
C41 C45 1_555 1_555
C43 C44 1_555 1_555
C50 C51 1_555 1_555
C56 C57 1_555 1_555
C58 C62 1_555 1_555
C60 C61 1_555 1_555
C67 C68 1_555 1_555
C73 C74 1_555 1_555
C75 C79 1_555 1_555
C77 C78 1_555 1_555
C84 C85 1_555 1_555
C90 C91 1_555 1_555
C92 C96 1_555 1_555
C94 C95 1_555 1_555
C101 C102 1_555 1_555

#END
