
#######################################################################
#
#                 Cambridge Crystallographic Data Centre
#                                CCDC 
#
#######################################################################
#
# If this CIF has been generated from an entry in the Cambridge 
# Structural Database, then it will include bibliographic, chemical, 
# crystal, experimental, refinement or atomic coordinate data resulting 
# from the CCDC's data processing and validation procedures.
#
#######################################################################

data_KOGBIR
_chemical_formula_moiety         'C10 H15 N3 O4'
_chemical_name_systematic        3'-Amino-3''-deoxythymidine
_symmetry_cell_setting           monoclinic
_symmetry_space_group_name_H-M   'C 2'
_symmetry_Int_Tables_number      5
_space_group_name_Hall           'C 2y'
loop_
_symmetry_equiv_pos_site_id
_symmetry_equiv_pos_as_xyz
1 x,y,z
2 1/2+x,1/2+y,z
3 -x,y,-z
4 1/2-x,1/2+y,-z
_cell_length_a                   18.750(5)
_cell_length_b                   8.388(2)
_cell_length_c                   7.435(2)
_cell_angle_alpha                90
_cell_angle_beta                 111.29(2)
_cell_angle_gamma                90
_cell_volume                     1089.54
_exptl_crystal_colour            colorless
_cell_formula_units_Z            4
loop_
_atom_site_label
_atom_site_type_symbol
_atom_site_fract_x
_atom_site_fract_y
_atom_site_fract_z
O1 O 0.8459(1) 0.9884(3) 0.6530(3)
O2 O 1.0271(1) 1.3742(3) 0.7857(3)
O3 O 0.9124(1) 0.7180(3) 0.4915(2)
O4 O 0.8422(1) 0.5685(3) 0.1238(2)
N1 N 0.9707(1) 0.9086(3) 0.7278(3)
N2 N 0.9390(1) 1.1776(3) 0.7285(3)
N3 N 0.8169(1) 0.4272(3) 0.6868(3)
C1 C 0.9131(1) 1.0214(4) 0.6993(3)
C2 C 1.0137(1) 1.2287(4) 0.7691(3)
C3 C 1.0686(1) 1.1074(4) 0.7872(3)
C4 C 1.0458(1) 0.9549(3) 0.7676(3)
C5 C 1.1509(1) 1.1517(4) 0.8255(5)
C6 C 0.9518(1) 0.7389(3) 0.6922(3)
C7 C 0.9018(1) 0.6654(4) 0.7958(3)
C8 C 0.8360(1) 0.5868(4) 0.6319(3)
C9 C 0.8676(1) 0.5763(4) 0.4697(3)
C10 C 0.8091(1) 0.5721(4) 0.2682(3)
H1 H 0.7658(1) 0.4034(4) 0.5774(3)
H2 H 0.8129(1) 0.4370(4) 0.8117(3)
H3 H 0.8798 0.4938 0.1696
H4 H 0.9065 1.2661 0.7226
H5 H 1.0818 0.8691 0.7881
H6 H 1.1767 1.0522 0.8290
H7 H 1.1688 1.1981 0.9521
H8 H 1.1614 1.2229 0.7371
H9 H 0.9985 0.6787 0.7299
H10 H 0.8806 0.7468 0.8522
H11 H 0.9302 0.5907 0.8935
H12 H 0.7917 0.6544 0.5888
H13 H 0.9014 0.4868 0.4891
H14 H 0.7786 0.4784 0.2565
H15 H 0.7763 0.6635 0.2477
loop_
_geom_bond_atom_site_label_1
_geom_bond_atom_site_label_2
_geom_bond_site_symmetry_1
_geom_bond_site_symmetry_2
O1 C1 1_555 1_555
O2 C2 1_555 1_555
O3 C6 1_555 1_555
O4 C10 1_555 1_555
N1 C1 1_555 1_555
N2 C1 1_555 1_555
N3 C8 1_555 1_555
C2 N2 1_555 1_555
C3 C2 1_555 1_555
C4 N1 1_555 1_555
C5 C3 1_555 1_555
C6 N1 1_555 1_555
C7 C6 1_555 1_555
C8 C7 1_555 1_555
C9 O3 1_555 1_555
C10 C9 1_555 1_555
H1 N3 1_555 1_555
H2 N3 1_555 1_555
H3 O4 1_555 1_555
H4 N2 1_555 1_555
H5 C4 1_555 1_555
H6 C5 1_555 1_555
H7 C5 1_555 1_555
H8 C5 1_555 1_555
H9 C6 1_555 1_555
H10 C7 1_555 1_555
H11 C7 1_555 1_555
H12 C8 1_555 1_555
H13 C9 1_555 1_555
H14 C10 1_555 1_555
H15 C10 1_555 1_555
C3 C4 1_555 1_555
C8 C9 1_555 1_555

#END
