
#######################################################################
#
#                 Cambridge Crystallographic Data Centre
#                                CCDC 
#
#######################################################################
#
# If this CIF has been generated from an entry in the Cambridge 
# Structural Database, then it will include bibliographic, chemical, 
# crystal, experimental, refinement or atomic coordinate data resulting 
# from the CCDC's data processing and validation procedures.
#
#######################################################################

data_KOGFUI
_chemical_formula_moiety         'C30 H19 P1 S2'
_chemical_name_systematic        
7,8,9-Triphenyl-8H-isophosphindolo[4,5-b:7,6-b']bisthiophene
_symmetry_cell_setting           triclinic
_symmetry_space_group_name_H-M   'P -1'
_symmetry_Int_Tables_number      2
_space_group_name_Hall           '-P 1'
loop_
_symmetry_equiv_pos_site_id
_symmetry_equiv_pos_as_xyz
1 x,y,z
2 -x,-y,-z
_cell_length_a                   9.930(2)
_cell_length_b                   10.098(2)
_cell_length_c                   12.819(3)
_cell_angle_alpha                85.808(9)
_cell_angle_beta                 87.573(10)
_cell_angle_gamma                63.481(5)
_cell_volume                     1147.01
_exptl_crystal_colour            orange
_exptl_crystal_description       block
_cell_formula_units_Z            2
_exptl_crystal_recrystallization_method dichloromethane/methanol
loop_
_atom_site_label
_atom_site_type_symbol
_atom_site_fract_x
_atom_site_fract_y
_atom_site_fract_z
S1 S 0.77191(7) 0.36733(7) -0.02402(5)
S2 S 0.81908(6) 0.51570(6) 0.43343(4)
P1 P 0.71591(7) 0.09646(7) 0.31577(5)
C1 C 0.7250(2) 0.1757(2) 0.18672(17)
C2 C 0.7586(2) 0.2921(2) 0.19264(16)
C3 C 0.7803(2) 0.3844(2) 0.10844(16)
C4 C 0.8071(2) 0.5041(2) 0.12562(17)
C5 C 0.8188(2) 0.5382(2) 0.23215(17)
C6 C 0.8025(2) 0.4518(2) 0.31531(16)
C7 C 0.7685(2) 0.3282(2) 0.30197(16)
C8 C 0.7388(2) 0.2408(2) 0.37654(16)
C9 C 0.8196(3) 0.5814(3) 0.03148(18)
H1 H 0.8368 0.6669 0.0290
C10 C 0.8040(3) 0.5191(3) -0.05452(19)
H2 H 0.8101 0.5556 -0.1241
C11 C 0.8440(3) 0.6570(3) 0.26513(19)
H3 H 0.8575 0.7276 0.2183
C12 C 0.8464(3) 0.6581(3) 0.37070(19)
H4 H 0.8616 0.7297 0.4061
C13 C 0.5150(2) 0.1450(2) 0.33300(16)
C14 C 0.4727(3) 0.0343(3) 0.36492(17)
H5 H 0.5474 -0.0647 0.3780
C15 C 0.3213(3) 0.0683(3) 0.37773(18)
H6 H 0.2927 -0.0078 0.3989
C16 C 0.2124(3) 0.2122(3) 0.35984(17)
H7 H 0.1090 0.2347 0.3684
C17 C 0.2532(3) 0.3238(3) 0.32935(17)
H8 H 0.1780 0.4231 0.3180
C18 C 0.4040(3) 0.2905(3) 0.31537(17)
H9 H 0.4320 0.3669 0.2937
C19 C 0.7108(2) 0.1130(2) 0.08901(17)
C20 C 0.5757(3) 0.1751(3) 0.0349(2)
H10 H 0.4909 0.2567 0.0616
C21 C 0.5642(3) 0.1182(3) -0.0579(2)
H11 H 0.4715 0.1610 -0.0942
C22 C 0.6860(3) 0.0005(3) -0.09753(19)
H12 H 0.6775 -0.0378 -0.1611
C23 C 0.8207(3) -0.0620(3) -0.04493(18)
H13 H 0.9054 -0.1424 -0.0729
C24 C 0.8331(3) -0.0075(3) 0.04904(18)
H14 H 0.9252 -0.0527 0.0860
C25 C 0.7373(2) 0.2492(2) 0.49179(16)
C26 C 0.8702(3) 0.1868(3) 0.54839(18)
H15 H 0.9642 0.1404 0.5128
C27 C 0.8664(3) 0.1919(3) 0.65629(18)
H16 H 0.9577 0.1498 0.6942
C28 C 0.7302(3) 0.2580(3) 0.70888(18)
H17 H 0.7278 0.2606 0.7829
C29 C 0.5976(3) 0.3201(3) 0.65352(18)
H18 H 0.5039 0.3662 0.6895
C30 C 0.6009(3) 0.3151(3) 0.54519(18)
H19 H 0.5093 0.3571 0.5075
loop_
_geom_bond_atom_site_label_1
_geom_bond_atom_site_label_2
_geom_bond_site_symmetry_1
_geom_bond_site_symmetry_2
S1 C3 1_555 1_555
S2 C6 1_555 1_555
P1 C1 1_555 1_555
C1 C2 1_555 1_555
C2 C3 1_555 1_555
C3 C4 1_555 1_555
C4 C5 1_555 1_555
C5 C6 1_555 1_555
C6 C7 1_555 1_555
C7 C2 1_555 1_555
C8 P1 1_555 1_555
C9 C4 1_555 1_555
H1 C9 1_555 1_555
C10 S1 1_555 1_555
H2 C10 1_555 1_555
C11 C5 1_555 1_555
H3 C11 1_555 1_555
C12 S2 1_555 1_555
H4 C12 1_555 1_555
C13 P1 1_555 1_555
C14 C13 1_555 1_555
H5 C14 1_555 1_555
C15 C14 1_555 1_555
H6 C15 1_555 1_555
C16 C15 1_555 1_555
H7 C16 1_555 1_555
C17 C16 1_555 1_555
H8 C17 1_555 1_555
C18 C13 1_555 1_555
H9 C18 1_555 1_555
C19 C1 1_555 1_555
C20 C19 1_555 1_555
H10 C20 1_555 1_555
C21 C20 1_555 1_555
H11 C21 1_555 1_555
C22 C21 1_555 1_555
H12 C22 1_555 1_555
C23 C22 1_555 1_555
H13 C23 1_555 1_555
C24 C19 1_555 1_555
H14 C24 1_555 1_555
C25 C8 1_555 1_555
C26 C25 1_555 1_555
H15 C26 1_555 1_555
C27 C26 1_555 1_555
H16 C27 1_555 1_555
C28 C27 1_555 1_555
H17 C28 1_555 1_555
C29 C28 1_555 1_555
H18 C29 1_555 1_555
C30 C25 1_555 1_555
H19 C30 1_555 1_555
C7 C8 1_555 1_555
C9 C10 1_555 1_555
C11 C12 1_555 1_555
C17 C18 1_555 1_555
C23 C24 1_555 1_555
C29 C30 1_555 1_555

#END
