
#######################################################################
#
#                 Cambridge Crystallographic Data Centre
#                                CCDC 
#
#######################################################################
#
# If this CIF has been generated from an entry in the Cambridge 
# Structural Database, then it will include bibliographic, chemical, 
# crystal, experimental, refinement or atomic coordinate data resulting 
# from the CCDC's data processing and validation procedures.
#
#######################################################################

data_KOGFUJ
_chemical_formula_moiety         'C30 H26 B1 F2 N3 O1'
_chemical_name_systematic        
1-((4-(5,5-difluoro-1,3,7,9-tetramethyl-5H-6,5-dipyrrolo[1,2-c:2',1'-f][1,3,2]diazaborinin-10-yl)phenyl)carbonoimidoyl)-2-naphthol
_symmetry_cell_setting           triclinic
_symmetry_space_group_name_H-M   'P -1'
_symmetry_Int_Tables_number      2
_space_group_name_Hall           '-P 1'
loop_
_symmetry_equiv_pos_site_id
_symmetry_equiv_pos_as_xyz
1 x,y,z
2 -x,-y,-z
_cell_length_a                   9.2908(7)
_cell_length_b                   10.8702(8)
_cell_length_c                   13.9066(12)
_cell_angle_alpha                102.090(7)
_cell_angle_beta                 94.075(7)
_cell_angle_gamma                114.538(7)
_cell_volume                     1229.41
_exptl_crystal_colour            red
_cell_formula_units_Z            2
loop_
_atom_site_label
_atom_site_type_symbol
_atom_site_fract_x
_atom_site_fract_y
_atom_site_fract_z
C1 C 1.26990(19) 1.93406(16) 1.00886(12)
H1 H 1.3558 2.0102 1.0527
C2 C 1.1561(2) 1.95565(17) 0.95820(13)
H2 H 1.1647 2.0457 0.9662
C3 C 1.0250(2) 1.84000(18) 0.89337(13)
H3 H 0.9455 1.8538 0.8592
C4 C 1.01265(18) 1.70800(16) 0.87985(11)
H4 H 0.9249 1.6334 0.8362
C5 C 1.12921(17) 1.68157(15) 0.93017(10)
C6 C 1.12417(16) 1.54425(14) 0.91563(10)
C7 C 1.24901(17) 1.52928(16) 0.96713(11)
C8 C 1.37905(18) 1.64853(17) 1.03270(12)
H5 H 1.4620 1.6381 1.0659
C9 C 1.38341(18) 1.77681(17) 1.04724(11)
H6 H 1.4687 1.8530 1.0916
C10 C 1.26111(17) 1.79880(15) 0.99660(10)
C11 C 0.99620(16) 1.42381(15) 0.84652(10)
H7 H 0.9143 1.4348 0.8125
C12 C 0.87180(16) 1.18197(14) 0.75953(10)
C13 C 0.74310(18) 1.18055(16) 0.70071(12)
H8 H 0.7298 1.2620 0.7075
C14 C 0.63516(17) 1.05811(15) 0.63224(11)
H9 H 0.5492 1.0582 0.5937
C15 C 0.65178(15) 0.93532(14) 0.61959(10)
C16 C 0.77952(17) 0.93654(15) 0.67857(11)
H10 H 0.7926 0.8550 0.6716
C17 C 0.88757(17) 1.05855(15) 0.74774(11)
H11 H 0.9723 1.0578 0.7870
C18 C 0.53623(15) 0.80103(14) 0.54642(10)
C19 C 0.57289(15) 0.76446(14) 0.45191(10)
C20 C 0.69505(16) 0.83956(15) 0.40176(11)
C21 C 0.81517(18) 0.99144(16) 0.43425(13)
H12 H 0.8894 1.0102 0.3885
H13 H 0.8728 1.0119 0.5001
H14 H 0.7600 1.0491 0.4348
C22 C 0.67578(18) 0.74712(17) 0.31168(12)
H15 H 0.7397 0.7670 0.2632
C23 C 0.54504(17) 0.61889(16) 0.30482(11)
C24 C 0.4805(2) 0.48697(17) 0.22273(12)
H16 H 0.4752 0.4111 0.2497
H17 H 0.5500 0.4980 0.1740
H18 H 0.3748 0.4668 0.1916
C25 C 0.18991(17) 0.50724(16) 0.56371(11)
C26 C 0.06716(18) 0.35896(16) 0.52178(13)
H19 H 0.0251 0.3452 0.4533
H20 H -0.0186 0.3390 0.5595
H21 H 0.1160 0.2973 0.5255
C27 C 0.21014(18) 0.59582(17) 0.65723(12)
H22 H 0.1454 0.5731 0.7049
C28 C 0.34077(17) 0.72195(16) 0.66763(11)
C29 C 0.4008(2) 0.8452(2) 0.75742(13)
H23 H 0.3387 0.8200 0.8086
H24 H 0.3903 0.9219 0.7392
H25 H 0.5118 0.8725 0.7820
C30 C 0.40228(16) 0.71035(14) 0.57673(10)
B1 B 0.32373(19) 0.51997(17) 0.40762(12)
N1 N 0.99198(14) 1.30087(12) 0.83049(9)
N2 N 0.48111(13) 0.62984(12) 0.38871(8)
N3 N 0.30403(13) 0.57603(11) 0.51432(8)
F1 F 0.32618(11) 0.39175(9) 0.39580(7)
F2 F 0.19482(9) 0.50448(9) 0.33946(6)
O1 O 1.25232(13) 1.40626(12) 0.95612(9)
H26 H 1.149(3) 1.336(2) 0.9081(18)
loop_
_geom_bond_atom_site_label_1
_geom_bond_atom_site_label_2
_geom_bond_site_symmetry_1
_geom_bond_site_symmetry_2
C1 H1 1_555 1_555
C2 C1 1_555 1_555
H2 C2 1_555 1_555
C3 C2 1_555 1_555
H3 C3 1_555 1_555
C4 C3 1_555 1_555
H4 C4 1_555 1_555
C5 C4 1_555 1_555
C6 C5 1_555 1_555
C7 C6 1_555 1_555
C8 C7 1_555 1_555
H5 C8 1_555 1_555
C9 C8 1_555 1_555
H6 C9 1_555 1_555
C10 C1 1_555 1_555
C11 C6 1_555 1_555
H7 C11 1_555 1_555
C12 C13 1_555 1_555
C13 H8 1_555 1_555
C14 C13 1_555 1_555
H9 C14 1_555 1_555
C15 C14 1_555 1_555
C16 C15 1_555 1_555
H10 C16 1_555 1_555
C17 C12 1_555 1_555
H11 C17 1_555 1_555
C18 C15 1_555 1_555
C19 C18 1_555 1_555
C20 C19 1_555 1_555
C21 C20 1_555 1_555
H12 C21 1_555 1_555
H13 C21 1_555 1_555
H14 C21 1_555 1_555
C22 C20 1_555 1_555
H15 C22 1_555 1_555
C23 C22 1_555 1_555
C24 C23 1_555 1_555
H16 C24 1_555 1_555
H17 C24 1_555 1_555
H18 C24 1_555 1_555
C25 C26 1_555 1_555
C26 H19 1_555 1_555
H20 C26 1_555 1_555
H21 C26 1_555 1_555
C27 C25 1_555 1_555
H22 C27 1_555 1_555
C28 C27 1_555 1_555
C29 C28 1_555 1_555
H23 C29 1_555 1_555
H24 C29 1_555 1_555
H25 C29 1_555 1_555
C30 C18 1_555 1_555
B1 N2 1_555 1_555
N1 C11 1_555 1_555
N2 C19 1_555 1_555
N3 C25 1_555 1_555
F1 B1 1_555 1_555
F2 B1 1_555 1_555
O1 C7 1_555 1_555
H26 O1 1_555 1_555
C5 C10 1_555 1_555
C9 C10 1_555 1_555
C12 N1 1_555 1_555
C16 C17 1_555 1_555
C23 N2 1_555 1_555
C28 C30 1_555 1_555
C30 N3 1_555 1_555
B1 N3 1_555 1_555

#END
