
#######################################################################
#
#                 Cambridge Crystallographic Data Centre
#                                CCDC 
#
#######################################################################
#
# If this CIF has been generated from an entry in the Cambridge 
# Structural Database, then it will include bibliographic, chemical, 
# crystal, experimental, refinement or atomic coordinate data resulting 
# from the CCDC's data processing and validation procedures.
#
#######################################################################

data_KOGPIG
_chemical_formula_moiety         'C18 H14 N4,H2 O1'
_chemical_name_systematic        "4,4'-bis(Imidazolyl)biphenyl monohydrate"
_symmetry_cell_setting           monoclinic
_symmetry_space_group_name_H-M   'C 2/c'
_symmetry_Int_Tables_number      15
_space_group_name_Hall           '-C 2yn'
loop_
_symmetry_equiv_pos_site_id
_symmetry_equiv_pos_as_xyz
1 x,y,z
2 1/2+x,1/2+y,z
3 -x,y,1/2-z
4 1/2-x,1/2+y,1/2-z
5 -x,-y,-z
6 1/2-x,1/2-y,-z
7 x,-y,1/2+z
8 1/2+x,1/2-y,1/2+z
_cell_length_a                   20.6024(13)
_cell_length_b                   9.3996(6)
_cell_length_c                   8.3612(5)
_cell_angle_alpha                90
_cell_angle_beta                 111.766(6)
_cell_angle_gamma                90
_cell_volume                     1503.74
_exptl_crystal_colour            colorless
_exptl_crystal_description       Plate
_cell_formula_units_Z            4
_exptl_crystal_preparation       'magnetic properties'
loop_
_atom_site_label
_atom_site_type_symbol
_atom_site_fract_x
_atom_site_fract_y
_atom_site_fract_z
C1 C 0.23086(9) 0.24306(19) 0.5599(2)
C2 C 0.16597(10) 0.3082(2) 0.5249(2)
H1 H 0.1463 0.3636 0.4233
C3 C 0.12957(10) 0.2944(2) 0.6340(2)
H2 H 0.0856 0.3398 0.6067
C4 C 0.15750(10) 0.21422(19) 0.7833(2)
C5 C 0.22182(10) 0.1488(2) 0.8217(2)
H3 H 0.2412 0.0937 0.9237
C6 C 0.25788(10) 0.1635(2) 0.7121(2)
H4 H 0.3021 0.1185 0.7408
C7 C 0.11973(11) 0.0827(2) 0.9957(3)
H5 H 0.1436 -0.0048 1.0018
C8 C 0.07823(11) 0.1182(2) 1.0832(3)
H6 H 0.0681 0.0576 1.1618
C9 C 0.07893(10) 0.2996(2) 0.9290(2)
H7 H 0.0700 0.3910 0.8768
N1 N 0.12021(8) 0.19970(16) 0.89586(19)
N2 N 0.05282(8) 0.25463(18) 1.0417(2)
C1E C 0.26914(9) 0.25694(19) 0.4401(2)
C2E C 0.33403(10) 0.1918(2) 0.4751(2)
H1E H 0.3537 0.1364 0.5767
C3E C 0.37043(10) 0.2056(2) 0.3660(2)
H2E H 0.4144 0.1602 0.3933
C4E C 0.34250(10) 0.28578(19) 0.2167(2)
C5E C 0.27818(10) 0.3512(2) 0.1783(2)
H3E H 0.2588 0.4063 0.0763
C6E C 0.24212(10) 0.3365(2) 0.2879(2)
H4E H 0.1979 0.3815 0.2592
C7E C 0.38027(11) 0.4173(2) 0.0043(3)
H5E H 0.3564 0.5048 -0.0018
C8E C 0.42177(11) 0.3818(2) -0.0832(3)
H6E H 0.4319 0.4424 -0.1618
C9E C 0.42107(10) 0.2004(2) 0.0710(2)
H7E H 0.4300 0.1090 0.1232
N1E N 0.37979(8) 0.30030(16) 0.10414(19)
N2E N 0.44718(8) 0.24537(18) -0.0417(2)
O1 O 0.0000 0.4214(2) 0.2500
H8 H 0.0138(11) 0.361(2) 0.182(3)
H8B H -0.0138(11) 0.361(2) 0.318(3)
loop_
_geom_bond_atom_site_label_1
_geom_bond_atom_site_label_2
_geom_bond_site_symmetry_1
_geom_bond_site_symmetry_2
C1 C2 1_555 1_555
C2 H1 1_555 1_555
C3 C2 1_555 1_555
H2 C3 1_555 1_555
C4 C3 1_555 1_555
C5 C4 1_555 1_555
H3 C5 1_555 1_555
C6 C1 1_555 1_555
H4 C6 1_555 1_555
C7 H5 1_555 1_555
C8 C7 1_555 1_555
H6 C8 1_555 1_555
C9 H7 1_555 1_555
N1 C4 1_555 1_555
N2 C8 1_555 1_555
O1 H8 1_555 1_555
C1E C1 1_555 1_555
C2E C1E 1_555 1_555
H1E C2E 1_555 1_555
C3E C2E 1_555 1_555
H2E C3E 1_555 1_555
C4E C3E 1_555 1_555
C5E C4E 1_555 1_555
H3E C5E 1_555 1_555
C6E C1E 1_555 1_555
H4E C6E 1_555 1_555
C7E H5E 1_555 1_555
C8E C7E 1_555 1_555
H6E C8E 1_555 1_555
C9E H7E 1_555 1_555
N1E C4E 1_555 1_555
N2E C8E 1_555 1_555
H8B O1 1_555 1_555
C5 C6 1_555 1_555
C7 N1 1_555 1_555
C9 N1 1_555 1_555
C9 N2 1_555 1_555
C5E C6E 1_555 1_555
C7E N1E 1_555 1_555
C9E N1E 1_555 1_555
C9E N2E 1_555 1_555

#END
