
#######################################################################
#
#                 Cambridge Crystallographic Data Centre
#                                CCDC 
#
#######################################################################
#
# If this CIF has been generated from an entry in the Cambridge 
# Structural Database, then it will include bibliographic, chemical, 
# crystal, experimental, refinement or atomic coordinate data resulting 
# from the CCDC's data processing and validation procedures.
#
#######################################################################

data_KOGPIG01
_chemical_formula_moiety         'C18 H14 N4,H2 O1'
_chemical_name_systematic        
"1,1'-(Biphenyl-4,4'-diyl)-bis(1H-imidazole) monohydrate"
_symmetry_cell_setting           monoclinic
_symmetry_space_group_name_H-M   'C 2/c'
_symmetry_Int_Tables_number      15
_space_group_name_Hall           '-C 2yn'
loop_
_symmetry_equiv_pos_site_id
_symmetry_equiv_pos_as_xyz
1 x,y,z
2 -x,y,1/2-z
3 1/2+x,1/2+y,z
4 1/2-x,1/2+y,1/2-z
5 -x,-y,-z
6 x,-y,1/2+z
7 1/2-x,1/2-y,-z
8 1/2+x,1/2-y,1/2+z
_cell_length_a                   20.588(3)
_cell_length_b                   9.481(3)
_cell_length_c                   8.455(3)
_cell_angle_alpha                90
_cell_angle_beta                 110.54(3)
_cell_angle_gamma                90
_cell_volume                     1545.45
_exptl_crystal_colour            colorless
_exptl_crystal_description       block
_cell_formula_units_Z            4
_exptl_crystal_recrystallization_method methanol
loop_
_atom_site_label
_atom_site_type_symbol
_atom_site_fract_x
_atom_site_fract_y
_atom_site_fract_z
O1 O 0.5000 0.9226(3) -0.2500
H1 H 0.4831(17) 0.867(3) -0.191(4)
H1A H 0.5169(17) 0.867(3) -0.309(4)
N1 N 0.38020(9) 0.7010(2) 0.1046(2)
N2 N 0.44701(11) 0.7549(3) -0.0411(3)
C1 C 0.36991(12) 0.7944(3) 0.3632(3)
H2 H 0.4127 0.8384 0.3884
C2 C 0.26930(11) 0.7433(3) 0.4402(3)
C3 C 0.34263(11) 0.7158(2) 0.2180(3)
C4 C 0.33289(12) 0.8073(3) 0.4716(3)
H3 H 0.3516 0.8610 0.5691
C5 C 0.24314(12) 0.6645(3) 0.2923(3)
H4 H 0.2004 0.6199 0.2668
C6 C 0.27935(13) 0.6509(3) 0.1822(3)
H5 H 0.2608 0.5978 0.0841
C7 C 0.42060(12) 0.7993(3) 0.0702(3)
H6 H 0.4288 0.8882 0.1197
C8 C 0.42242(15) 0.6212(3) -0.0789(4)
H7 H 0.4329 0.5621 -0.1543
C9 C 0.38115(15) 0.5862(3) 0.0067(3)
H8 H 0.3578 0.5013 0.0011
N1F N 0.11980(9) 0.7990(2) 0.8954(2)
N2F N 0.05299(11) 0.7451(3) 1.0411(3)
C1F C 0.13009(12) 0.7056(3) 0.6368(3)
H2F H 0.0873 0.6616 0.6116
C2F C 0.23070(11) 0.7567(3) 0.5598(3)
C3F C 0.15737(11) 0.7842(2) 0.7820(3)
C4F C 0.16711(12) 0.6927(3) 0.5284(3)
H3F H 0.1484 0.6390 0.4309
C5F C 0.25686(12) 0.8355(3) 0.7077(3)
H4F H 0.2996 0.8801 0.7332
C6F C 0.22065(13) 0.8491(3) 0.8178(3)
H5F H 0.2392 0.9022 0.9159
C7F C 0.07940(12) 0.7007(3) 0.9298(3)
H6F H 0.0712 0.6118 0.8803
C8F C 0.07758(15) 0.8788(3) 1.0789(4)
H7F H 0.0671 0.9379 1.1543
C9F C 0.11885(15) 0.9138(3) 0.9933(3)
H8F H 0.1422 0.9987 0.9989
loop_
_geom_bond_atom_site_label_1
_geom_bond_atom_site_label_2
_geom_bond_site_symmetry_1
_geom_bond_site_symmetry_2
O1 H1 1_555 1_555
N1 C3 1_555 1_555
N2 C7 1_555 1_555
C1 H2 1_555 1_555
C2 C4 1_555 1_555
C3 C1 1_555 1_555
C4 C1 1_555 1_555
H3 C4 1_555 1_555
C5 C2 1_555 1_555
H4 C5 1_555 1_555
C6 C3 1_555 1_555
H5 C6 1_555 1_555
C7 N1 1_555 1_555
H6 C7 1_555 1_555
C8 N2 1_555 1_555
H7 C8 1_555 1_555
C9 N1 1_555 1_555
H8 C9 1_555 1_555
H1A O1 1_555 1_555
N1F C3F 1_555 1_555
N2F C7F 1_555 1_555
C1F H2F 1_555 1_555
C2F C2 1_555 1_555
C3F C1F 1_555 1_555
C4F C1F 1_555 1_555
H3F C4F 1_555 1_555
C5F C2F 1_555 1_555
H4F C5F 1_555 1_555
C6F C3F 1_555 1_555
H5F C6F 1_555 1_555
C7F N1F 1_555 1_555
H6F C7F 1_555 1_555
C8F N2F 1_555 1_555
H7F C8F 1_555 1_555
C9F N1F 1_555 1_555
H8F C9F 1_555 1_555
C5 C6 1_555 1_555
C8 C9 1_555 1_555
C2F C4F 1_555 1_555
C5F C6F 1_555 1_555
C8F C9F 1_555 1_555

#END
