
#######################################################################
#
#                 Cambridge Crystallographic Data Centre
#                                CCDC 
#
#######################################################################
#
# If this CIF has been generated from an entry in the Cambridge 
# Structural Database, then it will include bibliographic, chemical, 
# crystal, experimental, refinement or atomic coordinate data resulting 
# from the CCDC's data processing and validation procedures.
#
#######################################################################

data_KOGWOS
_chemical_formula_moiety         'C21 H23 N2 O2'
_chemical_name_systematic        
1-(1,2,3,4-Tetrahydro-2,2,4,4-tetramethyl-3-oxy-\g-carbolin-9-yl)hexa-2,4-diyn-6-ol
_symmetry_cell_setting           triclinic
_symmetry_space_group_name_H-M   'P -1'
_symmetry_Int_Tables_number      2
_space_group_name_Hall           '-P 1'
loop_
_symmetry_equiv_pos_site_id
_symmetry_equiv_pos_as_xyz
1 x,y,z
2 -x,-y,-z
_cell_length_a                   7.3786(6)
_cell_length_b                   9.9210(8)
_cell_length_c                   13.287(1)
_cell_angle_alpha                77.639(6)
_cell_angle_beta                 88.801(6)
_cell_angle_gamma                99.838(6)
_cell_volume                     934.458
_exptl_crystal_colour            yellow
_cell_formula_units_Z            2
loop_
_atom_site_label
_atom_site_type_symbol
_atom_site_fract_x
_atom_site_fract_y
_atom_site_fract_z
O1 O 1.4240(2) -0.1670(2) 0.0896(1)
O2 O 0.3522(3) 0.5447(2) 0.1307(1)
N1 N 0.5765(2) 0.0795(2) 0.3414(1)
N2 N 0.3977(2) 0.4320(2) 0.1831(1)
C1 C 1.2699(3) -0.1369(3) 0.0344(2)
C2 C 1.1177(3) -0.1260(2) 0.1026(2)
C3 C 0.9933(3) -0.1124(2) 0.1550(2)
C4 C 0.8447(3) -0.0953(2) 0.2148(2)
C5 C 0.7171(3) -0.0804(2) 0.2650(2)
C6 C 0.5576(3) -0.0619(2) 0.3235(2)
C7 C 0.6819(3) 0.1278(2) 0.4151(1)
C8 C 0.7777(3) 0.0552(2) 0.4911(2)
C9 C 0.8731(3) 0.1303(3) 0.5546(2)
C10 C 0.8754(3) 0.2723(3) 0.5434(2)
C11 C 0.7807(3) 0.3453(2) 0.4682(2)
C12 C 0.6791(3) 0.2727(2) 0.4016(1)
C13 C 0.5677(3) 0.3088(2) 0.3165(1)
C14 C 0.5287(3) 0.4494(2) 0.2659(2)
C15 C 0.2752(3) 0.2972(2) 0.1780(2)
C16 C 0.3915(3) 0.1817(2) 0.1944(2)
C17 C 0.5106(3) 0.1905(2) 0.2820(1)
C18 C 0.7078(3) 0.5430(2) 0.2124(2)
C19 C 0.4419(4) 0.5200(3) 0.3421(2)
C20 C 0.2007(4) 0.3147(3) 0.0706(2)
C21 C 0.1194(3) 0.2672(3) 0.2617(2)
H1 H 1.239(2) -0.239(2) -0.001(1)
H2 H 1.311(3) -0.043(2) -0.015(2)
H3 H 0.451(2) -0.078(2) 0.280(1)
H4 H 0.551(2) -0.127(2) 0.390(1)
H5 H 0.782(2) -0.050(2) 0.495(1)
H6 H 0.940(2) 0.086(2) 0.604(1)
H7 H 0.939(3) 0.318(2) 0.590(1)
H8 H 0.769(2) 0.442(2) 0.458(1)
H9 H 0.317(2) 0.097(2) 0.205(1)
H10 H 0.471(3) 0.189(2) 0.131(1)
H11 H 0.766(3) 0.489(2) 0.160(2)
H12 H 0.687(3) 0.627(2) 0.180(1)
H13 H 0.807(3) 0.550(2) 0.262(2)
H14 H 0.329(3) 0.447(2) 0.387(2)
H15 H 0.406(2) 0.598(2) 0.305(1)
H16 H 0.536(3) 0.536(2) 0.395(2)
H17 H 0.112(3) 0.391(2) 0.063(2)
H18 H 0.141(3) 0.227(2) 0.065(2)
H19 H 0.306(3) 0.357(2) 0.017(2)
H20 H 0.169(3) 0.252(2) 0.338(1)
H21 H 0.045(3) 0.199(2) 0.253(1)
H22 H 0.060(3) 0.357(2) 0.255(2)
H23 H 1.360(5) -0.286(5) 0.114(2)
loop_
_geom_bond_atom_site_label_1
_geom_bond_atom_site_label_2
_geom_bond_site_symmetry_1
_geom_bond_site_symmetry_2
O1 C1 1_555 1_555
O2 N2 1_555 1_555
N1 C6 1_555 1_555
N2 C14 1_555 1_555
C1 C2 1_555 1_555
C2 C3 1_555 1_555
C3 C4 1_555 1_555
C4 C5 1_555 1_555
C5 C6 1_555 1_555
C6 H3 1_555 1_555
C7 N1 1_555 1_555
C8 C7 1_555 1_555
C9 C8 1_555 1_555
C10 C9 1_555 1_555
C11 C10 1_555 1_555
C12 C7 1_555 1_555
C13 C12 1_555 1_555
C14 C13 1_555 1_555
C15 N2 1_555 1_555
C16 C15 1_555 1_555
C17 N1 1_555 1_555
C18 C14 1_555 1_555
C19 C14 1_555 1_555
C20 C15 1_555 1_555
C21 C15 1_555 1_555
H1 C1 1_555 1_555
H2 C1 1_555 1_555
H4 C6 1_555 1_555
H5 C8 1_555 1_555
H6 C9 1_555 1_555
H7 C10 1_555 1_555
H8 C11 1_555 1_555
H9 C16 1_555 1_555
H10 C16 1_555 1_555
H11 C18 1_555 1_555
H12 C18 1_555 1_555
H13 C18 1_555 1_555
H14 C19 1_555 1_555
H15 C19 1_555 1_555
H16 C19 1_555 1_555
H17 C20 1_555 1_555
H18 C20 1_555 1_555
H19 C20 1_555 1_555
H20 C21 1_555 1_555
H21 C21 1_555 1_555
H22 C21 1_555 1_555
H23 O1 1_555 1_555
C11 C12 1_555 1_555
C13 C17 1_555 1_555
C16 C17 1_555 1_555

#END
