
#######################################################################
#
#                 Cambridge Crystallographic Data Centre
#                                CCDC 
#
#######################################################################
#
# If this CIF has been generated from an entry in the Cambridge 
# Structural Database, then it will include bibliographic, chemical, 
# crystal, experimental, refinement or atomic coordinate data resulting 
# from the CCDC's data processing and validation procedures.
#
#######################################################################

data_KOGWOT
_chemical_formula_moiety         'C21 H32 O5'
_chemical_name_systematic        
'15,16-Dioxo-16-methoxy-15,16-seco-ent-beyeran-19-oic acid'
_chemical_properties_biological  'androgen agonist activity'
_symmetry_cell_setting           monoclinic
_symmetry_space_group_name_H-M   'P 21'
_symmetry_Int_Tables_number      4
_space_group_name_Hall           'P 2yb'
loop_
_symmetry_equiv_pos_site_id
_symmetry_equiv_pos_as_xyz
1 x,y,z
2 -x,1/2+y,-z
_cell_length_a                   11.6522(3)
_cell_length_b                   14.4030(3)
_cell_length_c                   12.4585(3)
_cell_angle_alpha                90
_cell_angle_beta                 108.2860(10)
_cell_angle_gamma                90
_cell_volume                     1985.28
_exptl_crystal_description       acicular
_chemical_melting_point          247-249deg.C
_cell_formula_units_Z            4
_exptl_crystal_recrystallization_method 'n-hexane/ethyl acetate'
loop_
_atom_site_label
_atom_site_type_symbol
_atom_site_fract_x
_atom_site_fract_y
_atom_site_fract_z
O1 O 0.2807(2) 0.3625(2) -0.2605(2)
O2 O 0.4079(2) 0.25681(18) -0.1621(2)
H1 H 0.3472 0.2242 -0.1816
O3 O 0.4676(2) 0.25195(18) 0.2340(2)
O4 O 0.3620(4) 0.4778(3) 0.4296(3)
O5 O 0.4897(3) 0.3606(2) 0.4792(3)
C1 C 0.4070(3) 0.5696(2) -0.0322(3)
H2 H 0.3467 0.6015 -0.0070
H3 H 0.4797 0.6071 -0.0104
C2 C 0.3610(3) 0.5620(3) -0.1607(3)
H4 H 0.2830 0.5311 -0.1836
H5 H 0.3500 0.6237 -0.1933
C3 C 0.4485(4) 0.5079(3) -0.2056(3)
H6 H 0.5214 0.5444 -0.1931
H7 H 0.4123 0.5002 -0.2866
C4 C 0.4837(3) 0.4114(2) -0.1518(3)
C5 C 0.5259(3) 0.4220(2) -0.0193(3)
H8 H 0.5961 0.4634 -0.0028
C6 C 0.5754(3) 0.3334(2) 0.0476(3)
H9 H 0.5095 0.2902 0.0405
H10 H 0.6326 0.3040 0.0161
C7 C 0.6371(3) 0.3543(2) 0.1711(3)
H11 H 0.7070 0.3933 0.1783
H12 H 0.6654 0.2967 0.2109
C8 C 0.5531(3) 0.4034(2) 0.2262(3)
C9 C 0.5009(3) 0.4925(2) 0.1567(3)
H13 H 0.5721 0.5294 0.1584
C10 C 0.4352(3) 0.4746(2) 0.0289(3)
C11 C 0.4316(4) 0.5527(2) 0.2170(3)
H14 H 0.4048 0.6091 0.1739
H15 H 0.3606 0.5194 0.2206
C12 C 0.5096(4) 0.5780(3) 0.3365(3)
H16 H 0.5760 0.6168 0.3319
H17 H 0.4615 0.6143 0.3721
C13 C 0.5608(4) 0.4947(3) 0.4105(3)
C14 C 0.6266(3) 0.4315(3) 0.3495(3)
H18 H 0.6506 0.3753 0.3937
H19 H 0.6998 0.4628 0.3479
C15 C 0.4566(3) 0.3357(2) 0.2346(3)
H20 H 0.3848 0.3597 0.2406
C16 C 0.4601(4) 0.4451(3) 0.4401(3)
C17 C 0.6532(5) 0.5251(4) 0.5246(4)
H21 H 0.6140 0.5647 0.5643
H22 H 0.7186 0.5581 0.5104
H23 H 0.6842 0.4711 0.5696
C18 C 0.5890(3) 0.3754(3) -0.1908(3)
H24 H 0.5623 0.3692 -0.2716
H25 H 0.6151 0.3161 -0.1569
H26 H 0.6551 0.4185 -0.1683
C19 C 0.3790(3) 0.3433(2) -0.1971(3)
C20 C 0.3165(3) 0.4215(2) 0.0103(3)
H27 H 0.2642 0.4566 0.0413
H28 H 0.3332 0.3623 0.0473
H29 H 0.2777 0.4125 -0.0692
C21 C 0.3959(6) 0.3077(4) 0.5035(5)
H30 H 0.4265 0.2475 0.5314
H31 H 0.3287 0.3008 0.4357
H32 H 0.3700 0.3395 0.5596
O6 O -0.1832(3) 0.7426(3) -0.2466(3)
O7 O -0.2697(2) 0.63572(18) -0.1714(3)
H33 H -0.3266 0.6721 -0.1910
O8 O -0.2225(3) 0.6329(2) 0.2156(3)
O9 O -0.0638(9) 0.6874(7) 0.4822(5)
O10 O 0.0588(6) 0.8051(6) 0.4982(6)
C22 C 0.1195(3) 0.7445(3) 0.0213(4)
H34 H 0.1387 0.8045 0.0579
H35 H 0.1919 0.7066 0.0459
C23 C 0.0854(4) 0.7579(4) -0.1041(5)
H36 H 0.1540 0.7827 -0.1230
H37 H 0.0200 0.8026 -0.1279
C24 C 0.0458(4) 0.6672(4) -0.1669(4)
H38 H 0.1148 0.6257 -0.1496
H39 H 0.0208 0.6796 -0.2475
C25 C -0.0571(3) 0.6183(3) -0.1387(3)
C26 C -0.0197(3) 0.6072(2) -0.0079(3)
H40 H 0.0545 0.5702 0.0108
C27 C -0.1053(3) 0.5487(2) 0.0366(3)
H41 H -0.1803 0.5824 0.0255
H42 H -0.1242 0.4913 -0.0060
C28 C -0.0491(4) 0.5263(3) 0.1618(4)
H43 H 0.0211 0.4871 0.1717
H44 H -0.1070 0.4919 0.1877
C29 C -0.0113(3) 0.6135(3) 0.2338(3)
C30 C 0.0736(3) 0.6716(3) 0.1880(3)
H45 H 0.1413 0.6301 0.1915
C31 C 0.0199(3) 0.6983(2) 0.0602(3)
C32 C 0.1311(4) 0.7531(4) 0.2680(4)
H46 H 0.1859 0.7869 0.2375
H47 H 0.0681 0.7955 0.2727
C33 C 0.1991(6) 0.7178(5) 0.3843(6)
H48 H 0.2336 0.7703 0.4323
H49 H 0.2653 0.6791 0.3793
C34 C 0.1204(7) 0.6612(6) 0.4403(5)
C35 C 0.0580(5) 0.5848(4) 0.3582(4)
H50 H 0.0011 0.5540 0.3889
H51 H 0.1187 0.5393 0.3562
C36 C -0.1228(4) 0.6665(3) 0.2377(3)
H52 H -0.1136 0.7288 0.2585
C37 C 0.0289(12) 0.7190(12) 0.4758(6)
C38 C 0.2016(7) 0.6182(6) 0.5528(5)
H53 H 0.1525 0.5832 0.5874
H54 H 0.2423 0.6669 0.6030
H55 H 0.2603 0.5779 0.5376
C39 C -0.0785(5) 0.5222(3) -0.1975(4)
H56 H -0.1014 0.5304 -0.2779
H57 H -0.1418 0.4903 -0.1784
H58 H -0.0055 0.4863 -0.1725
C40 C -0.1749(3) 0.6729(3) -0.1907(3)
C41 C -0.0857(3) 0.7677(2) 0.0411(3)
H59 H -0.1170 0.7830 -0.0377
H60 H -0.0573 0.8232 0.0840
H61 H -0.1485 0.7402 0.0653
C42 C -0.0472(11) 0.8385(8) 0.5432(10)
H62 H -0.0362 0.9029 0.5636
H63 H -0.0463 0.8025 0.6083
H64 H -0.1232 0.8302 0.4850
loop_
_geom_bond_atom_site_label_1
_geom_bond_atom_site_label_2
_geom_bond_site_symmetry_1
_geom_bond_site_symmetry_2
O1 C19 1_555 1_555
O2 H1 1_555 1_555
O3 C15 1_555 1_555
O4 C16 1_555 1_555
O5 C16 1_555 1_555
C1 H2 1_555 1_555
H3 C1 1_555 1_555
C2 C1 1_555 1_555
H4 C2 1_555 1_555
H5 C2 1_555 1_555
C3 C2 1_555 1_555
H6 C3 1_555 1_555
H7 C3 1_555 1_555
C4 C3 1_555 1_555
C5 C4 1_555 1_555
H8 C5 1_555 1_555
C6 C5 1_555 1_555
H9 C6 1_555 1_555
H10 C6 1_555 1_555
C7 C6 1_555 1_555
H11 C7 1_555 1_555
H12 C7 1_555 1_555
C8 C7 1_555 1_555
C9 C8 1_555 1_555
H13 C9 1_555 1_555
C10 C1 1_555 1_555
C11 C9 1_555 1_555
H14 C11 1_555 1_555
H15 C11 1_555 1_555
C12 C11 1_555 1_555
H16 C12 1_555 1_555
H17 C12 1_555 1_555
C13 C12 1_555 1_555
C14 C8 1_555 1_555
H18 C14 1_555 1_555
H19 C14 1_555 1_555
C15 C8 1_555 1_555
H20 C15 1_555 1_555
C16 C13 1_555 1_555
C17 C13 1_555 1_555
H21 C17 1_555 1_555
H22 C17 1_555 1_555
H23 C17 1_555 1_555
C18 C4 1_555 1_555
H24 C18 1_555 1_555
H25 C18 1_555 1_555
H26 C18 1_555 1_555
C19 O2 1_555 1_555
C20 C10 1_555 1_555
H27 C20 1_555 1_555
H28 C20 1_555 1_555
H29 C20 1_555 1_555
C21 O5 1_555 1_555
H30 C21 1_555 1_555
H31 C21 1_555 1_555
H32 C21 1_555 1_555
O6 C40 1_555 1_555
O7 H33 1_555 1_555
O8 C36 1_555 1_555
O9 C37 1_555 1_555
O10 C37 1_555 1_555
C22 H34 1_555 1_555
H35 C22 1_555 1_555
C23 C22 1_555 1_555
H36 C23 1_555 1_555
H37 C23 1_555 1_555
C24 C23 1_555 1_555
H38 C24 1_555 1_555
H39 C24 1_555 1_555
C25 C24 1_555 1_555
C26 C25 1_555 1_555
H40 C26 1_555 1_555
C27 C26 1_555 1_555
H41 C27 1_555 1_555
H42 C27 1_555 1_555
C28 C27 1_555 1_555
H43 C28 1_555 1_555
H44 C28 1_555 1_555
C29 C28 1_555 1_555
C30 C29 1_555 1_555
H45 C30 1_555 1_555
C31 C22 1_555 1_555
C32 C30 1_555 1_555
H46 C32 1_555 1_555
H47 C32 1_555 1_555
C33 C32 1_555 1_555
H48 C33 1_555 1_555
H49 C33 1_555 1_555
C34 C33 1_555 1_555
C35 C29 1_555 1_555
H50 C35 1_555 1_555
H51 C35 1_555 1_555
C36 C29 1_555 1_555
H52 C36 1_555 1_555
C37 C34 1_555 1_555
C38 C34 1_555 1_555
H53 C38 1_555 1_555
H54 C38 1_555 1_555
H55 C38 1_555 1_555
C39 C25 1_555 1_555
H56 C39 1_555 1_555
H57 C39 1_555 1_555
H58 C39 1_555 1_555
C40 O7 1_555 1_555
C41 C31 1_555 1_555
H59 C41 1_555 1_555
H60 C41 1_555 1_555
H61 C41 1_555 1_555
C42 O10 1_555 1_555
H62 C42 1_555 1_555
H63 C42 1_555 1_555
H64 C42 1_555 1_555
C4 C19 1_555 1_555
C5 C10 1_555 1_555
C9 C10 1_555 1_555
C13 C14 1_555 1_555
C25 C40 1_555 1_555
C26 C31 1_555 1_555
C30 C31 1_555 1_555
C34 C35 1_555 1_555

#END
