
#######################################################################
#
#                 Cambridge Crystallographic Data Centre
#                                CCDC 
#
#######################################################################
#
# If this CIF has been generated from an entry in the Cambridge 
# Structural Database, then it will include bibliographic, chemical, 
# crystal, experimental, refinement or atomic coordinate data resulting 
# from the CCDC's data processing and validation procedures.
#
#######################################################################

data_KOGWUY
_chemical_formula_moiety         'C36 H40 N4 O2'
_chemical_name_systematic        
1,6-bis(1,2,3,4-Tetrahydro-2,2,4,4-tetramethyl-3-oxy-\g-carbolin-9-yl)hexa-2,4-diyne
_symmetry_cell_setting           orthorhombic
_symmetry_space_group_name_H-M   'P b c a'
_symmetry_Int_Tables_number      61
_space_group_name_Hall           '-P 2ac 2ab'
loop_
_symmetry_equiv_pos_site_id
_symmetry_equiv_pos_as_xyz
1 x,y,z
2 1/2-x,1/2+y,z
3 x,1/2-y,1/2+z
4 1/2-x,-y,1/2+z
5 -x,-y,-z
6 1/2+x,1/2-y,-z
7 -x,1/2+y,1/2-z
8 1/2+x,y,1/2-z
_cell_length_a                   15.331(2)
_cell_length_b                   10.597(2)
_cell_length_c                   19.194(2)
_cell_angle_alpha                90
_cell_angle_beta                 90
_cell_angle_gamma                90
_cell_volume                     3118.31
_exptl_crystal_colour            yellow
_cell_formula_units_Z            4
loop_
_atom_site_label
_atom_site_type_symbol
_atom_site_fract_x
_atom_site_fract_y
_atom_site_fract_z
O1 O 0.3778(3) -0.1886(3) 0.7712(2)
N1 N 0.4536(2) 0.1289(3) 0.5598(2)
N2 N 0.3936(3) -0.1065(3) 0.7233(2)
C1 C 0.5056(3) 0.4372(4) 0.5089(2)
C2 C 0.5158(3) 0.3315(4) 0.5258(2)
C3 C 0.5327(4) 0.1990(5) 0.5447(3)
C4 C 0.3850(3) 0.1105(4) 0.5140(2)
C5 C 0.3694(5) 0.1631(5) 0.4484(3)
C6 C 0.2962(6) 0.1282(8) 0.4134(4)
C7 C 0.2385(5) 0.0432(8) 0.4418(4)
C8 C 0.2525(4) -0.0122(6) 0.5062(3)
C9 C 0.3273(3) 0.0218(4) 0.5443(2)
C10 C 0.3651(3) -0.0133(4) 0.6097(2)
C11 C 0.3339(3) -0.1091(4) 0.6611(3)
C12 C 0.2408(4) -0.0821(7) 0.6860(4)
C13 C 0.3397(5) -0.2421(5) 0.6292(4)
C14 C 0.4488(3) 0.0045(4) 0.7428(2)
C15 C 0.5110(6) -0.0367(8) 0.7997(4)
C16 C 0.3902(5) 0.1103(6) 0.7692(3)
C17 C 0.5000(3) 0.0442(5) 0.6781(3)
C18 C 0.4403(3) 0.0516(4) 0.6169(2)
H1 H 0.574(3) 0.197(4) 0.585(2)
H2 H 0.559(3) 0.162(5) 0.510(3)
H3 H 0.409(3) 0.219(4) 0.429(2)
H4 H 0.277(3) 0.167(5) 0.373(3)
H5 H 0.190(4) 0.014(5) 0.416(3)
H6 H 0.215(3) -0.069(4) 0.527(2)
H7 H 0.242(4) 0.018(6) 0.710(3)
H8 H 0.196(3) -0.093(5) 0.644(3)
H9 H 0.230(3) -0.133(5) 0.734(3)
H10 H 0.301(3) -0.253(6) 0.592(3)
H11 H 0.401(3) -0.264(5) 0.622(3)
H12 H 0.319(3) -0.300(4) 0.664(2)
H13 H 0.472(4) -0.070(6) 0.844(4)
H14 H 0.540(4) 0.031(5) 0.813(3)
H15 H 0.545(3) -0.101(5) 0.785(3)
H16 H 0.352(3) 0.142(5) 0.731(3)
H17 H 0.344(3) 0.077(5) 0.811(3)
H18 H 0.427(3) 0.171(5) 0.790(3)
H19 H 0.523(2) 0.124(4) 0.686(2)
H20 H 0.554(3) -0.022(4) 0.663(2)
C1D C 0.4944(3) 0.5628(4) 0.4911(2)
C2D C 0.4842(3) 0.6685(4) 0.4742(2)
C3D C 0.4673(4) 0.8010(5) 0.4553(3)
N1D N 0.5464(2) 0.8711(3) 0.4402(2)
H1D H 0.426(3) 0.803(4) 0.415(2)
H2D H 0.441(3) 0.838(5) 0.490(3)
C4D C 0.6150(3) 0.8895(4) 0.4860(2)
C18D C 0.5597(3) 0.9484(4) 0.3831(2)
C5D C 0.6306(5) 0.8369(5) 0.5516(3)
C9D C 0.6727(3) 0.9782(4) 0.4557(2)
C10D C 0.6349(3) 1.0133(4) 0.3903(2)
C17D C 0.5000(3) 0.9558(5) 0.3219(3)
C6D C 0.7038(6) 0.8718(8) 0.5866(4)
H3D H 0.591(3) 0.781(4) 0.571(2)
C8D C 0.7475(4) 1.0122(6) 0.4938(3)
C11D C 0.6661(3) 1.1091(4) 0.3389(3)
C14D C 0.5512(3) 0.9955(4) 0.2572(2)
H19D H 0.477(2) 0.876(4) 0.314(2)
H20D H 0.446(3) 1.022(4) 0.337(2)
C7D C 0.7615(5) 0.9568(8) 0.5582(4)
H4D H 0.723(3) 0.833(5) 0.627(3)
H6D H 0.785(3) 1.069(4) 0.473(2)
N2D N 0.6064(3) 1.1065(3) 0.2767(2)
C12D C 0.7592(4) 1.0821(7) 0.3140(4)
C13D C 0.6603(5) 1.2421(5) 0.3708(4)
C15D C 0.4890(6) 1.0367(8) 0.2003(4)
C16D C 0.6098(5) 0.8897(6) 0.2308(3)
H5D H 0.810(4) 0.986(5) 0.584(3)
O1D O 0.6222(3) 1.1886(3) 0.2288(2)
H7D H 0.758(4) 0.982(6) 0.290(3)
H8D H 0.804(3) 1.093(5) 0.356(3)
H9D H 0.770(3) 1.133(5) 0.266(3)
H10D H 0.699(3) 1.253(6) 0.408(3)
H11D H 0.599(3) 1.264(5) 0.378(3)
H12D H 0.681(3) 1.300(4) 0.336(2)
H13D H 0.528(4) 1.070(6) 0.156(4)
H14D H 0.460(4) 0.969(5) 0.187(3)
H15D H 0.455(3) 1.101(5) 0.215(3)
H16D H 0.648(3) 0.858(5) 0.269(3)
H17D H 0.656(3) 0.923(5) 0.189(3)
H18D H 0.573(3) 0.829(5) 0.210(3)
loop_
_geom_bond_atom_site_label_1
_geom_bond_atom_site_label_2
_geom_bond_site_symmetry_1
_geom_bond_site_symmetry_2
O1 N2 1_555 1_555
N1 C3 1_555 1_555
N2 C11 1_555 1_555
C1 C2 1_555 1_555
C2 C3 1_555 1_555
C3 H1 1_555 1_555
C4 N1 1_555 1_555
C5 C4 1_555 1_555
C6 C5 1_555 1_555
C7 C6 1_555 1_555
C8 C7 1_555 1_555
C9 C4 1_555 1_555
C10 C9 1_555 1_555
C11 C10 1_555 1_555
C12 C11 1_555 1_555
C13 C11 1_555 1_555
C14 N2 1_555 1_555
C15 C14 1_555 1_555
C16 C14 1_555 1_555
C17 C14 1_555 1_555
C18 N1 1_555 1_555
H2 C3 1_555 1_555
H3 C5 1_555 1_555
H4 C6 1_555 1_555
H5 C7 1_555 1_555
H6 C8 1_555 1_555
H7 C12 1_555 1_555
H8 C12 1_555 1_555
H9 C12 1_555 1_555
H10 C13 1_555 1_555
H11 C13 1_555 1_555
H12 C13 1_555 1_555
H13 C15 1_555 1_555
H14 C15 1_555 1_555
H15 C15 1_555 1_555
H16 C16 1_555 1_555
H17 C16 1_555 1_555
H18 C16 1_555 1_555
H19 C17 1_555 1_555
H20 C17 1_555 1_555
C1D C1 1_555 1_555
C2D C1D 1_555 1_555
C3D C2D 1_555 1_555
N1D C3D 1_555 1_555
H1D C3D 1_555 1_555
H2D C3D 1_555 1_555
C4D N1D 1_555 1_555
C18D N1D 1_555 1_555
C5D C4D 1_555 1_555
C9D C4D 1_555 1_555
C10D C18D 1_555 1_555
C17D C18D 1_555 1_555
C6D C5D 1_555 1_555
H3D C5D 1_555 1_555
C8D C9D 1_555 1_555
C11D C10D 1_555 1_555
C14D C17D 1_555 1_555
H19D C17D 1_555 1_555
H20D C17D 1_555 1_555
C7D C6D 1_555 1_555
H4D C6D 1_555 1_555
H6D C8D 1_555 1_555
N2D C11D 1_555 1_555
C12D C11D 1_555 1_555
C13D C11D 1_555 1_555
C15D C14D 1_555 1_555
C16D C14D 1_555 1_555
H5D C7D 1_555 1_555
O1D N2D 1_555 1_555
H7D C12D 1_555 1_555
H8D C12D 1_555 1_555
H9D C12D 1_555 1_555
H10D C13D 1_555 1_555
H11D C13D 1_555 1_555
H12D C13D 1_555 1_555
H13D C15D 1_555 1_555
H14D C15D 1_555 1_555
H15D C15D 1_555 1_555
H16D C16D 1_555 1_555
H17D C16D 1_555 1_555
H18D C16D 1_555 1_555
C8 C9 1_555 1_555
C10 C18 1_555 1_555
C17 C18 1_555 1_555
C9D C10D 1_555 1_555
C8D C7D 1_555 1_555
C14D N2D 1_555 1_555

#END
