
#######################################################################
#
#                 Cambridge Crystallographic Data Centre
#                                CCDC 
#
#######################################################################
#
# If this CIF has been generated from an entry in the Cambridge 
# Structural Database, then it will include bibliographic, chemical, 
# crystal, experimental, refinement or atomic coordinate data resulting 
# from the CCDC's data processing and validation procedures.
#
#######################################################################

data_KOGXAF
_chemical_formula_moiety         'C33 H41 N1 O2'
_chemical_name_systematic        
'(-)-(2S,5R)-5-Methyl-2-(1-methyl-1-phenylethyl)cyclohexyl (3R,4S)-1-methyl-4-(2-naphthyl)piperidine-3-carboxylate'
_symmetry_cell_setting           monoclinic
_symmetry_space_group_name_H-M   'P 21'
_symmetry_Int_Tables_number      4
_space_group_name_Hall           'P 2yb'
loop_
_symmetry_equiv_pos_site_id
_symmetry_equiv_pos_as_xyz
1 x,y,z
2 -x,1/2+y,-z
_cell_length_a                   11.218(1)
_cell_length_b                   10.584(1)
_cell_length_c                   12.067(3)
_cell_angle_alpha                90
_cell_angle_beta                 91.09(1)
_cell_angle_gamma                90
_cell_volume                     1432.47
_exptl_crystal_description       prism
_cell_formula_units_Z            2
loop_
_atom_site_label
_atom_site_type_symbol
_atom_site_fract_x
_atom_site_fract_y
_atom_site_fract_z
O1 O 0.05226(14) 0.20680(16) 0.05711(12)
C1 C 0.1497(2) 0.2349(2) 0.22886(19)
H1 H 0.0950 0.3072 0.2264
O2 O 0.1281(2) 0.0323(2) 0.13579(16)
C2 C 0.2747(3) 0.2851(3) 0.2072(2)
H2 H 0.2780 0.3148 0.1313
H3 H 0.2905 0.3566 0.2556
N1 N 0.3671(2) 0.1905(3) 0.22526(19)
C3 C 0.4835(3) 0.2443(4) 0.2003(4)
H4 H 0.5442 0.1818 0.2130
H5 H 0.4985 0.3160 0.2473
H6 H 0.4841 0.2705 0.1241
C4 C 0.3667(3) 0.1462(3) 0.3384(2)
H7 H 0.3808 0.2167 0.3882
H8 H 0.4306 0.0856 0.3497
C5 C 0.2479(3) 0.0844(3) 0.3649(2)
H9 H 0.2493 0.0561 0.4414
H10 H 0.2359 0.0110 0.3178
C6 C 0.1445(2) 0.1775(3) 0.34660(19)
H11 H 0.1602 0.2478 0.3977
C7 C 0.0227(3) 0.1270(3) 0.3763(2)
C8 C -0.0592(3) 0.2048(3) 0.4237(2)
H12 H -0.0393 0.2891 0.4351
C9 C -0.1740(3) 0.1620(4) 0.4563(2)
C10 C -0.2535(4) 0.2399(5) 0.5126(3)
H13 H -0.2341 0.3240 0.5259
C11 C -0.3584(4) 0.1931(7) 0.5479(4)
H14 H -0.4105 0.2460 0.5848
C12 C -0.3897(4) 0.0686(8) 0.5303(4)
H15 H -0.4615 0.0386 0.5572
C13 C -0.3166(4) -0.0118(6) 0.4736(4)
H16 H -0.3394 -0.0949 0.4595
C14 C -0.2041(3) 0.0355(4) 0.4366(3)
C15 C -0.1202(4) -0.0421(4) 0.3850(4)
H17 H -0.1399 -0.1257 0.3697
C16 C -0.0104(4) 0.0019(3) 0.3567(3)
H18 H 0.0433 -0.0527 0.3236
C17 C 0.1105(2) 0.1443(3) 0.13806(18)
C18 C 0.0113(2) 0.1338(2) -0.03967(17)
H19 H 0.0028 0.0451 -0.0178
C19 C -0.1093(2) 0.1826(2) -0.07976(18)
H20 H -0.0991 0.2716 -0.0998
C20 C -0.1411(2) 0.1102(3) -0.1865(2)
H21 H -0.1572 0.0229 -0.1677
H22 H -0.2138 0.1456 -0.2184
C21 C -0.0452(2) 0.1133(3) -0.2736(2)
H23 H -0.0358 0.1992 -0.3000
H24 H -0.0700 0.0613 -0.3361
C22 C 0.0740(2) 0.0657(3) -0.22815(19)
C23 C 0.1711(3) 0.0677(4) -0.3151(3)
H25 H 0.2446 0.0378 -0.2827
H26 H 0.1816 0.1526 -0.3413
H27 H 0.1481 0.0141 -0.3761
C24 C 0.1074(2) 0.1430(3) -0.12628(19)
H28 H 0.1180 0.2306 -0.1473
H29 H 0.1824 0.1124 -0.0951
C25 C -0.2126(2) 0.1758(3) 0.0077(2)
C26 C -0.2122(3) 0.0469(3) 0.0659(3)
H30 H -0.2758 0.0439 0.1180
H31 H -0.1373 0.0349 0.1044
H32 H -0.2232 -0.0188 0.0118
C27 C -0.1964(3) 0.2786(4) 0.0966(3)
H33 H -0.2603 0.2734 0.1482
H34 H -0.1971 0.3602 0.0620
H35 H -0.1217 0.2662 0.1352
C28 C -0.3320(2) 0.2012(3) -0.0535(2)
C29 C -0.4199(3) 0.1113(3) -0.0660(3)
H36 H -0.4070 0.0308 -0.0373
C30 C -0.5273(3) 0.1376(4) -0.1204(4)
H37 H -0.5838 0.0741 -0.1301
C31 C -0.5501(3) 0.2553(5) -0.1593(4)
H38 H -0.6234 0.2739 -0.1927
C32 C -0.4641(3) 0.3471(4) -0.1489(3)
H39 H -0.4784 0.4275 -0.1772
C33 C -0.3562(3) 0.3205(3) -0.0965(3)
H40 H -0.2988 0.3836 -0.0900
loop_
_geom_bond_atom_site_label_1
_geom_bond_atom_site_label_2
_geom_bond_site_symmetry_1
_geom_bond_site_symmetry_2
O1 C17 1_555 1_555
C1 H1 1_555 1_555
O2 C17 1_555 1_555
C2 C1 1_555 1_555
H2 C2 1_555 1_555
H3 C2 1_555 1_555
N1 C2 1_555 1_555
C3 N1 1_555 1_555
H4 C3 1_555 1_555
H5 C3 1_555 1_555
H6 C3 1_555 1_555
C4 N1 1_555 1_555
H7 C4 1_555 1_555
H8 C4 1_555 1_555
C5 C4 1_555 1_555
H9 C5 1_555 1_555
H10 C5 1_555 1_555
C6 C1 1_555 1_555
H11 C6 1_555 1_555
C7 C6 1_555 1_555
C8 C7 1_555 1_555
H12 C8 1_555 1_555
C9 C8 1_555 1_555
C10 C9 1_555 1_555
H13 C10 1_555 1_555
C11 C10 1_555 1_555
H14 C11 1_555 1_555
C12 C11 1_555 1_555
H15 C12 1_555 1_555
C13 C12 1_555 1_555
H16 C13 1_555 1_555
C14 C9 1_555 1_555
C15 C14 1_555 1_555
H17 C15 1_555 1_555
C16 C7 1_555 1_555
H18 C16 1_555 1_555
C17 C1 1_555 1_555
C18 O1 1_555 1_555
H19 C18 1_555 1_555
C19 C18 1_555 1_555
H20 C19 1_555 1_555
C20 C19 1_555 1_555
H21 C20 1_555 1_555
H22 C20 1_555 1_555
C21 C20 1_555 1_555
H23 C21 1_555 1_555
H24 C21 1_555 1_555
C22 C21 1_555 1_555
C23 C22 1_555 1_555
H25 C23 1_555 1_555
H26 C23 1_555 1_555
H27 C23 1_555 1_555
C24 C18 1_555 1_555
H28 C24 1_555 1_555
H29 C24 1_555 1_555
C25 C19 1_555 1_555
C26 C25 1_555 1_555
H30 C26 1_555 1_555
H31 C26 1_555 1_555
H32 C26 1_555 1_555
C27 C25 1_555 1_555
H33 C27 1_555 1_555
H34 C27 1_555 1_555
H35 C27 1_555 1_555
C28 C25 1_555 1_555
C29 C28 1_555 1_555
H36 C29 1_555 1_555
C30 C29 1_555 1_555
H37 C30 1_555 1_555
C31 C30 1_555 1_555
H38 C31 1_555 1_555
C32 C31 1_555 1_555
H39 C32 1_555 1_555
C33 C28 1_555 1_555
H40 C33 1_555 1_555
C5 C6 1_555 1_555
C13 C14 1_555 1_555
C15 C16 1_555 1_555
C22 C24 1_555 1_555
C32 C33 1_555 1_555

#END
