
#######################################################################
#
#                 Cambridge Crystallographic Data Centre
#                                CCDC 
#
#######################################################################
#
# If this CIF has been generated from an entry in the Cambridge 
# Structural Database, then it will include bibliographic, chemical, 
# crystal, experimental, refinement or atomic coordinate data resulting 
# from the CCDC's data processing and validation procedures.
#
#######################################################################

data_KOHCUF
_chemical_formula_moiety         'C20 H38 N4'
_chemical_name_systematic        
anti-4,9-bis(t-Butyl)-5,10-dimethyl-4,5,9,10-tetra-azatetracyclo(6.2.2.2^3,6^.0^2,7^)tetradecane
_symmetry_cell_setting           orthorhombic
_symmetry_space_group_name_H-M   'P b c a'
_symmetry_Int_Tables_number      61
_space_group_name_Hall           '-P 2ac 2ab'
loop_
_symmetry_equiv_pos_site_id
_symmetry_equiv_pos_as_xyz
1 x,y,z
2 1/2-x,1/2+y,z
3 x,1/2-y,1/2+z
4 1/2-x,-y,1/2+z
5 -x,-y,-z
6 1/2+x,1/2-y,-z
7 -x,1/2+y,1/2-z
8 1/2+x,y,1/2-z
_cell_length_a                   14.333(3)
_cell_length_b                   15.165(3)
_cell_length_c                   17.936(4)
_cell_angle_alpha                90
_cell_angle_beta                 90
_cell_angle_gamma                90
_cell_volume                     3898.57
_exptl_crystal_colour            violet
_chemical_melting_point          168-169deg.C
_cell_formula_units_Z            8
loop_
_atom_site_label
_atom_site_type_symbol
_atom_site_fract_x
_atom_site_fract_y
_atom_site_fract_z
C1 C 0.1570(4) 0.9232(3) 0.0943(3)
C2 C 0.1070(4) 1.0004(4) 0.1346(3)
C3 C 0.0094(4) 0.9769(4) 0.1641(3)
C4 C 0.0220(4) 0.9052(4) 0.2241(3)
C5 C 0.1212(4) 0.8724(4) 0.2217(3)
C6 C 0.1534(4) 0.8409(3) 0.1439(3)
C7 C 0.1021(4) 0.7669(4) 0.1019(3)
C8 C 0.0083(4) 0.7941(4) 0.0696(3)
C9 C 0.0275(4) 0.8645(4) 0.0098(3)
C10 C 0.1282(4) 0.8936(4) 0.0154(3)
N1 N 0.1712(3) 1.0231(3) 0.1964(2)
C11 C 0.1527(5) 1.1061(4) 0.2404(3)
C12 C 0.2458(5) 1.1311(4) 0.2768(4)
C13 C 0.1258(5) 1.1777(4) 0.1861(4)
C14 C 0.0790(5) 1.0991(4) 0.3023(3)
N2 N 0.1831(3) 0.9461(3) 0.2462(3)
C15 C 0.2807(4) 0.9223(4) 0.2484(3)
N3 N 0.1687(3) 0.7405(3) 0.0417(3)
C16 C 0.1475(5) 0.6586(4) -0.0034(3)
C17 C 0.1168(5) 0.5859(4) 0.0488(4)
C18 C 0.0771(5) 0.6687(4) -0.0674(4)
C19 C 0.2391(5) 0.6312(4) -0.0389(4)
N4 N 0.1861(4) 0.8176(3) -0.0070(3)
C20 C 0.2847(5) 0.8369(4) -0.0054(4)
H1 H 0.2214 0.9402 0.0909
H2 H 0.1031 1.0496 0.1010
H3 H -0.0291 0.9556 0.1242
H4 H -0.0196 1.0282 0.1854
H5 H -0.0196 0.8569 0.2145
H6 H 0.0080 0.9287 0.2725
H7 H 0.1284 0.8244 0.2561
H8 H 0.2164 0.8205 0.1495
H9 H 0.0940 0.7181 0.1354
H10 H -0.0312 0.8173 0.1081
H11 H -0.0217 0.7439 0.0476
H12 H -0.0133 0.9139 0.0172
H13 H 0.0156 0.8408 -0.0389
H14 H 0.1387 0.9413 -0.0188
H15 H 0.2932 1.1356 0.2392
H16 H 0.2395 1.1866 0.3019
H17 H 0.2629 1.0863 0.3121
H18 H 0.1729 1.1826 0.1483
H19 H 0.0672 1.1630 0.1634
H20 H 0.1202 1.2329 0.2120
H21 H 0.0957 1.0538 0.3372
H22 H 0.0734 1.1544 0.3279
H23 H 0.0205 1.0845 0.2793
H24 H 0.2878 0.8719 0.2802
H25 H 0.3029 0.9083 0.1993
H26 H 0.3161 0.9707 0.2682
H27 H 0.1630 0.5790 0.0871
H28 H 0.0584 0.6025 0.0709
H29 H 0.1094 0.5311 0.0226
H30 H 0.0971 0.7138 -0.1015
H31 H 0.0696 0.6141 -0.0938
H32 H 0.0186 0.6855 -0.0455
H33 H 0.2843 0.6243 0.0001
H34 H 0.2316 0.5763 -0.0648
H35 H 0.2600 0.6756 -0.0732
H36 H 0.3194 0.7853 -0.0195
H37 H 0.2971 0.8835 -0.0402
H38 H 0.3032 0.8551 0.0437
loop_
_geom_bond_atom_site_label_1
_geom_bond_atom_site_label_2
_geom_bond_site_symmetry_1
_geom_bond_site_symmetry_2
C1 C2 1_555 1_555
C2 C3 1_555 1_555
C3 C4 1_555 1_555
C4 C5 1_555 1_555
C5 C6 1_555 1_555
C6 C1 1_555 1_555
C7 C6 1_555 1_555
C8 C7 1_555 1_555
C9 C8 1_555 1_555
C10 C1 1_555 1_555
N1 C2 1_555 1_555
C11 N1 1_555 1_555
C12 C11 1_555 1_555
C13 C11 1_555 1_555
C14 C11 1_555 1_555
N2 C5 1_555 1_555
C15 N2 1_555 1_555
N3 C7 1_555 1_555
C16 N3 1_555 1_555
C17 C16 1_555 1_555
C18 C16 1_555 1_555
C19 C16 1_555 1_555
N4 C10 1_555 1_555
C20 N4 1_555 1_555
H1 C1 1_555 1_555
H2 C2 1_555 1_555
H3 C3 1_555 1_555
H4 C3 1_555 1_555
H5 C4 1_555 1_555
H6 C4 1_555 1_555
H7 C5 1_555 1_555
H8 C6 1_555 1_555
H9 C7 1_555 1_555
H10 C8 1_555 1_555
H11 C8 1_555 1_555
H12 C9 1_555 1_555
H13 C9 1_555 1_555
H14 C10 1_555 1_555
H15 C12 1_555 1_555
H16 C12 1_555 1_555
H17 C12 1_555 1_555
H18 C13 1_555 1_555
H19 C13 1_555 1_555
H20 C13 1_555 1_555
H21 C14 1_555 1_555
H22 C14 1_555 1_555
H23 C14 1_555 1_555
H24 C15 1_555 1_555
H25 C15 1_555 1_555
H26 C15 1_555 1_555
H27 C17 1_555 1_555
H28 C17 1_555 1_555
H29 C17 1_555 1_555
H30 C18 1_555 1_555
H31 C18 1_555 1_555
H32 C18 1_555 1_555
H33 C19 1_555 1_555
H34 C19 1_555 1_555
H35 C19 1_555 1_555
H36 C20 1_555 1_555
H37 C20 1_555 1_555
H38 C20 1_555 1_555
C9 C10 1_555 1_555
N1 N2 1_555 1_555
N3 N4 1_555 1_555

#END
