
#######################################################################
#
#                 Cambridge Crystallographic Data Centre
#                                CCDC 
#
#######################################################################
#
# If this CIF has been generated from an entry in the Cambridge 
# Structural Database, then it will include bibliographic, chemical, 
# crystal, experimental, refinement or atomic coordinate data resulting 
# from the CCDC's data processing and validation procedures.
#
#######################################################################

data_KOHJEW
_chemical_formula_moiety         'C38 H36 N6 O6,C8 H12 N2 O3,0.5(C6 H12)'
_chemical_name_systematic        
'1,3,5,11,13,15-Tetra-aza-21,27-dioxabenzo(gh)dipyrido(bc,lm)naphtho(vwxy)dotriacontane-6,10,16,32-tetraone barbital clathrate cyclohexane solvate'
_symmetry_cell_setting           triclinic
_symmetry_space_group_name_H-M   'P -1'
_symmetry_Int_Tables_number      2
_space_group_name_Hall           '-P 1'
loop_
_symmetry_equiv_pos_site_id
_symmetry_equiv_pos_as_xyz
1 x,y,z
2 -x,-y,-z
_cell_length_a                   13.072(4)
_cell_length_b                   14.111(4)
_cell_length_c                   15.001(5)
_cell_angle_alpha                104.15(2)
_cell_angle_beta                 103.45(2)
_cell_angle_gamma                116.26(2)
_cell_volume                     2213.77
_cell_formula_units_Z            2
loop_
_atom_site_label
_atom_site_type_symbol
_atom_site_fract_x
_atom_site_fract_y
_atom_site_fract_z
N1 N 0.2750(5) 0.8132(4) 0.3546(4)
C1 C 0.2958(6) 0.8974(6) 0.4430(4)
N2 N 0.2326(4) 0.9485(4) 0.4257(3)
C2 C 0.3747(6) 0.9235(6) 0.5372(5)
C3 C 0.3917(7) 1.0115(6) 0.6148(5)
C4 C 0.3309(6) 1.0683(6) 0.6012(5)
C5 C 0.2527(6) 1.0336(5) 0.5054(4)
N3 N 0.1791(4) 1.0798(4) 0.4822(3)
C6 C 0.3206(6) 0.7423(6) 0.3531(5)
O1 O 0.3680(5) 0.7318(5) 0.4266(4)
C7 C 0.3088(6) 0.6750(5) 0.2523(5)
C8 C 0.2235(6) 0.6475(5) 0.1608(5)
C9 C 0.3907(6) 0.6366(5) 0.2552(5)
C10 C 0.3860(6) 0.5717(6) 0.1683(5)
C11 C 0.3007(5) 0.5436(5) 0.0772(5)
C12 C 0.2202(5) 0.5836(5) 0.0732(4)
C13 C 0.1315(6) 0.5464(6) -0.0305(5)
O2 O 0.1040(4) 0.4615(4) -0.0995(3)
N4 N 0.0846(4) 0.6148(4) -0.0428(4)
C14 C 0.0103(5) 0.6034(5) -0.1341(4)
N5 N -0.0546(4) 0.6544(4) -0.1255(3)
C15 C 0.0060(6) 0.5440(6) -0.2248(5)
C16 C -0.0705(6) 0.5381(6) -0.3106(5)
C17 C -0.1378(6) 0.5895(5) -0.3038(5)
C18 C -0.1251(5) 0.6483(5) -0.2105(4)
N6 N -0.1938(4) 0.7000(4) -0.1955(3)
C19 C -0.2225(6) 0.7555(5) -0.2519(4)
O3 O -0.1871(4) 0.7687(4) -0.3180(4)
C20 C -0.3035(6) 0.7980(6) -0.2240(5)
C21 C -0.3000(7) 0.8871(6) -0.2618(5)
C22 C -0.3871(6) 0.9275(5) -0.2442(5)
C23 C -0.3589(6) 0.9883(5) -0.1347(4)
O4 O -0.4182(4) 1.0534(4) -0.1306(4)
C24 C -0.3977(6) 1.1213(6) -0.0377(6)
C25 C -0.3344(6) 1.1280(5) 0.0505(5)
C26 C -0.4520(6) 1.1875(6) -0.0431(5)
C27 C -0.4386(6) 1.2600(6) 0.0437(5)
C28 C -0.3717(7) 1.2725(6) 0.1390(6)
C29 C -0.3186(5) 1.2029(5) 0.1409(5)
C30 C -0.2471(6) 1.2164(6) 0.2352(5)
C31 C -0.3545(6) 1.3473(6) 0.2290(6)
C32 C -0.2874(6) 1.3581(6) 0.3184(5)
C33 C -0.2330(6) 1.2903(6) 0.3201(5)
O5 O -0.1598(4) 1.3157(4) 0.4158(3)
C34 C -0.0862(6) 1.2641(6) 0.4244(5)
C35 C 0.0036(7) 1.3231(6) 0.5301(5)
C36 C 0.1096(9) 1.3031(8) 0.5472(6)
C37 C 0.0976(7) 1.2048(6) 0.5034(5)
C38 C 0.2023(7) 1.1840(6) 0.5375(5)
O6 O 0.2956(4) 1.2555(4) 0.6124(3)
H1 H 0.2196 0.8078 0.2796
H2 H 0.4149 0.8820 0.5473
H3 H 0.4479 1.0342 0.6808
H4 H 0.3426 1.1294 0.6561
H5 H 0.0859 1.0127 0.4169
H6 H 0.1665 0.6733 0.1583
H7 H 0.4505 0.6558 0.3182
H8 H 0.4424 0.5453 0.1707
H9 H 0.2969 0.4967 0.0166
H10 H 0.0962 0.6847 0.0227
H11 H 0.0537 0.5085 -0.2284
H12 H -0.0763 0.4976 -0.3749
H13 H -0.1921 0.5846 -0.3626
H14 H -0.1847 0.7250 -0.1177
H15 H -0.2750 0.8305 -0.1525
H16 H -0.3875 0.7338 -0.2520
H17 H -0.2169 0.9530 -0.2295
H18 H -0.3215 0.8559 -0.3325
H19 H -0.4701 0.8614 -0.2744
H20 H -0.3816 0.9799 -0.2761
H21 H -0.2710 1.0390 -0.0980
H22 H -0.3910 0.9325 -0.1068
H23 H -0.2993 1.0810 0.0518
H24 H -0.4974 1.1819 -0.1065
H25 H -0.4764 1.3046 0.0399
H26 H -0.2083 1.1726 0.2387
H27 H -0.3915 1.3927 0.2275
H28 H -0.2766 1.4103 0.3795
H29 H -0.1383 1.1832 0.4076
H30 H -0.0427 1.2750 0.3807
H31 H 0.0374 1.4044 0.5507
H32 H -0.0401 1.2955 0.5703
H33 H 0.1440 1.3224 0.6176
H34 H 0.1689 1.3573 0.5298
H35 H 0.0273 1.1474 0.5091
H36 H 0.0799 1.1923 0.4343
C39 C -0.1781(6) 0.7651(5) 0.0536(5)
O7 O -0.2642(4) 0.7179(4) -0.0277(3)
N7 N -0.0728(5) 0.7630(4) 0.0601(4)
C40 C 0.0247(6) 0.8043(5) 0.1470(5)
O8 O 0.1168(4) 0.8020(4) 0.1476(3)
N8 N 0.0183(4) 0.8559(4) 0.2340(4)
C41 C -0.0745(6) 0.8742(6) 0.2395(5)
O9 O -0.0664(4) 0.9285(4) 0.3212(3)
C42 C -0.1886(5) 0.8232(5) 0.1462(4)
C43 C -0.2019(6) 0.9235(5) 0.1350(5)
C44 C -0.0958(7) 1.0130(6) 0.1213(6)
C45 C -0.3011(6) 0.7357(6) 0.1576(5)
C46 C -0.2953(7) 0.6351(6) 0.1707(5)
H37 H -0.0601 0.7445 0.0008
H38 H 0.1031 0.8994 0.2937
H39 H -0.2089 0.9610 0.1939
H40 H -0.2764 0.8917 0.0778
H41 H -0.1111 1.0721 0.1153
H42 H -0.0882 0.9775 0.0619
H43 H -0.0203 1.0463 0.1780
H44 H -0.3732 0.7059 0.0990
H45 H -0.3090 0.7751 0.2151
H46 H -0.3698 0.5842 0.1765
H47 H -0.2250 0.6629 0.2301
H48 H -0.2876 0.5943 0.1138
C47 C 0.5003(10) 0.5854(9) 0.4966(8)
C48 C 0.5120(10) 0.5135(10) 0.4176(8)
C49 C 0.4483(11) 0.5490(11) 0.5538(10)
C49A C 0.5517(11) 0.4510(11) 0.4462(10)
C48A C 0.4880(10) 0.4865(10) 0.5824(8)
C47A C 0.4997(10) 0.4146(9) 0.5034(8)
loop_
_geom_bond_atom_site_label_1
_geom_bond_atom_site_label_2
_geom_bond_site_symmetry_1
_geom_bond_site_symmetry_2
N1 C1 1_555 1_555
C1 N2 1_555 1_555
N2 C5 1_555 1_555
C2 C1 1_555 1_555
C3 C2 1_555 1_555
C4 C3 1_555 1_555
C5 C4 1_555 1_555
N3 C5 1_555 1_555
C6 N1 1_555 1_555
O1 C6 1_555 1_555
C7 C6 1_555 1_555
C8 C7 1_555 1_555
C9 C7 1_555 1_555
C10 C9 1_555 1_555
C11 C10 1_555 1_555
C12 C8 1_555 1_555
C13 C12 1_555 1_555
O2 C13 1_555 1_555
N4 C13 1_555 1_555
C14 N4 1_555 1_555
N5 C14 1_555 1_555
C15 C14 1_555 1_555
C16 C15 1_555 1_555
C17 C16 1_555 1_555
C18 N5 1_555 1_555
N6 C18 1_555 1_555
C19 N6 1_555 1_555
O3 C19 1_555 1_555
C20 C19 1_555 1_555
C21 C20 1_555 1_555
C22 C21 1_555 1_555
C23 C22 1_555 1_555
O4 C23 1_555 1_555
C24 O4 1_555 1_555
C25 C24 1_555 1_555
C26 C24 1_555 1_555
C27 C26 1_555 1_555
C28 C27 1_555 1_555
C29 C25 1_555 1_555
C30 C29 1_555 1_555
C31 C28 1_555 1_555
C32 C31 1_555 1_555
C33 C30 1_555 1_555
O5 C33 1_555 1_555
C34 O5 1_555 1_555
C35 C34 1_555 1_555
C36 C35 1_555 1_555
C37 C36 1_555 1_555
C38 N3 1_555 1_555
O6 C38 1_555 1_555
C39 O7 1_555 1_555
N7 C39 1_555 1_555
C40 N7 1_555 1_555
O8 C40 1_555 1_555
N8 C40 1_555 1_555
C41 N8 1_555 1_555
O9 C41 1_555 1_555
C42 C39 1_555 1_555
C43 C42 1_555 1_555
C44 C43 1_555 1_555
C45 C42 1_555 1_555
C46 C45 1_555 1_555
C47 C48 1_555 1_555
C48 C49A 1_555 1_555
C49 C47 1_555 1_555
H1 N1 1_555 1_555
H2 C2 1_555 1_555
H3 C3 1_555 1_555
H4 C4 1_555 1_555
H5 N3 1_555 1_555
H6 C8 1_555 1_555
H7 C9 1_555 1_555
H8 C10 1_555 1_555
H9 C11 1_555 1_555
H10 N4 1_555 1_555
H11 C15 1_555 1_555
H12 C16 1_555 1_555
H13 C17 1_555 1_555
H14 N6 1_555 1_555
H15 C20 1_555 1_555
H16 C20 1_555 1_555
H17 C21 1_555 1_555
H18 C21 1_555 1_555
H19 C22 1_555 1_555
H20 C22 1_555 1_555
H21 C23 1_555 1_555
H22 C23 1_555 1_555
H23 C25 1_555 1_555
H24 C26 1_555 1_555
H25 C27 1_555 1_555
H26 C30 1_555 1_555
H27 C31 1_555 1_555
H28 C32 1_555 1_555
H29 C34 1_555 1_555
H30 C34 1_555 1_555
H31 C35 1_555 1_555
H32 C35 1_555 1_555
H33 C36 1_555 1_555
H34 C36 1_555 1_555
H35 C37 1_555 1_555
H36 C37 1_555 1_555
H37 N7 1_555 1_555
H38 N8 1_555 1_555
H39 C43 1_555 1_555
H40 C43 1_555 1_555
H41 C44 1_555 1_555
H42 C44 1_555 1_555
H43 C44 1_555 1_555
H44 C45 1_555 1_555
H45 C45 1_555 1_555
H46 C46 1_555 1_555
H47 C46 1_555 1_555
H48 C46 1_555 1_555
C49A C47A 1_555 1_555
C48A C49 1_555 1_555
C47A C48A 1_555 1_555
C11 C12 1_555 1_555
C17 C18 1_555 1_555
C28 C29 1_555 1_555
C32 C33 1_555 1_555
C37 C38 1_555 1_555
C41 C42 1_555 1_555

#END
