
#######################################################################
#
#                 Cambridge Crystallographic Data Centre
#                                CCDC 
#
#######################################################################
#
# If this CIF has been generated from an entry in the Cambridge 
# Structural Database, then it will include bibliographic, chemical, 
# crystal, experimental, refinement or atomic coordinate data resulting 
# from the CCDC's data processing and validation procedures.
#
#######################################################################

data_KOHVEK
_chemical_formula_moiety         'C20 H20 N2 O2'
_chemical_name_systematic        
2-Methoxy-N-(2-(pyridin-2-yl)propan-2-yl)-1-naphthamide
_symmetry_cell_setting           orthorhombic
_symmetry_space_group_name_H-M   'P 21 21 21'
_symmetry_Int_Tables_number      19
_space_group_name_Hall           'P 2ac 2ab'
loop_
_symmetry_equiv_pos_site_id
_symmetry_equiv_pos_as_xyz
1 x,y,z
2 1/2-x,-y,1/2+z
3 1/2+x,1/2-y,-z
4 -x,1/2+y,1/2-z
_cell_length_a                   10.2550(10)
_cell_length_b                   10.8108(12)
_cell_length_c                   15.4763(16)
_cell_angle_alpha                90
_cell_angle_beta                 90
_cell_angle_gamma                90
_cell_volume                     1715.78
_exptl_crystal_colour            colorless
_exptl_crystal_description       block
_cell_formula_units_Z            4
loop_
_atom_site_label
_atom_site_type_symbol
_atom_site_fract_x
_atom_site_fract_y
_atom_site_fract_z
O1 O 0.8666(3) 0.4167(3) 0.75964(16)
O2 O 0.9636(3) 0.2108(3) 0.60784(19)
N1 N 0.8787(3) 0.6223(3) 0.48261(19)
N2 N 0.8726(3) 0.4901(3) 0.62227(19)
H1 H 0.8457 0.4747 0.5707
C1 C 0.8836(4) 0.6766(4) 0.4046(2)
H2 H 0.8294 0.6470 0.3611
C2 C 0.9650(5) 0.7734(4) 0.3863(3)
H3 H 0.9669 0.8085 0.3314
C3 C 1.0435(5) 0.8171(4) 0.4508(3)
H4 H 1.1003 0.8824 0.4400
C4 C 1.0385(4) 0.7651(4) 0.5307(3)
H5 H 1.0898 0.7961 0.5753
C5 C 0.9563(3) 0.6654(3) 0.5452(2)
C6 C 0.9478(4) 0.6036(3) 0.6335(2)
C7 C 0.8770(4) 0.6910(4) 0.6949(3)
H6 H 0.8693 0.6528 0.7507
H7 H 0.7916 0.7087 0.6726
H8 H 0.9255 0.7666 0.7001
C8 C 1.0840(4) 0.5720(4) 0.6674(3)
H9 H 1.1298 0.5237 0.6251
H10 H 1.0764 0.5256 0.7200
H11 H 1.1313 0.6471 0.6784
C9 C 0.8406(3) 0.4073(4) 0.6828(2)
C10 C 0.7659(4) 0.2978(3) 0.6482(2)
C11 C 0.8322(4) 0.1994(4) 0.6128(2)
C12 C 0.7627(4) 0.0944(4) 0.5842(3)
H12 H 0.8073 0.0267 0.5618
C13 C 0.6323(5) 0.0927(4) 0.5896(3)
H13 H 0.5886 0.0222 0.5709
C14 C 0.5580(4) 0.1913(4) 0.6219(3)
C15 C 0.6278(4) 0.2970(4) 0.6536(2)
C16 C 0.5558(4) 0.3976(4) 0.6863(2)
H14 H 0.6000 0.4662 0.7077
C17 C 0.4227(4) 0.3969(5) 0.6874(3)
H15 H 0.3772 0.4643 0.7095
C18 C 0.3549(5) 0.2945(5) 0.6551(3)
H16 H 0.2642 0.2946 0.6542
C19 C 0.4219(5) 0.1948(5) 0.6249(3)
H17 H 0.3753 0.1263 0.6056
C20 C 1.0363(5) 0.1135(5) 0.5674(3)
H18 H 1.0244 0.0381 0.5992
H19 H 1.1272 0.1349 0.5667
H20 H 1.0061 0.1024 0.5092
loop_
_geom_bond_atom_site_label_1
_geom_bond_atom_site_label_2
_geom_bond_site_symmetry_1
_geom_bond_site_symmetry_2
O1 C9 1_555 1_555
O2 C11 1_555 1_555
N1 C1 1_555 1_555
N2 H1 1_555 1_555
C1 H2 1_555 1_555
C2 C1 1_555 1_555
H3 C2 1_555 1_555
C3 C2 1_555 1_555
H4 C3 1_555 1_555
C4 C3 1_555 1_555
H5 C4 1_555 1_555
C5 N1 1_555 1_555
C6 N2 1_555 1_555
C7 C6 1_555 1_555
H6 C7 1_555 1_555
H7 C7 1_555 1_555
H8 C7 1_555 1_555
C8 C6 1_555 1_555
H9 C8 1_555 1_555
H10 C8 1_555 1_555
H11 C8 1_555 1_555
C9 N2 1_555 1_555
C10 C9 1_555 1_555
C11 C10 1_555 1_555
C12 C11 1_555 1_555
H12 C12 1_555 1_555
C13 C12 1_555 1_555
H13 C13 1_555 1_555
C14 C13 1_555 1_555
C15 C10 1_555 1_555
C16 C15 1_555 1_555
H14 C16 1_555 1_555
C17 C16 1_555 1_555
H15 C17 1_555 1_555
C18 C17 1_555 1_555
H16 C18 1_555 1_555
C19 C14 1_555 1_555
H17 C19 1_555 1_555
C20 O2 1_555 1_555
H18 C20 1_555 1_555
H19 C20 1_555 1_555
H20 C20 1_555 1_555
C4 C5 1_555 1_555
C5 C6 1_555 1_555
C14 C15 1_555 1_555
C18 C19 1_555 1_555

#END
