
#######################################################################
#
#                 Cambridge Crystallographic Data Centre
#                                CCDC 
#
#######################################################################
#
# If this CIF has been generated from an entry in the Cambridge 
# Structural Database, then it will include bibliographic, chemical, 
# crystal, experimental, refinement or atomic coordinate data resulting 
# from the CCDC's data processing and validation procedures.
#
#######################################################################

data_KOHZEN
_chemical_formula_moiety         'C22 H22 N2 P2 Se3'
_chemical_name_systematic        
N-Methyl-2,5-diphenyl-N-(2-phenylethyl)-2,5-dihydro-1,3,2,5-selenazadiphosphol-4-amine-2,5-diselenide
_symmetry_cell_setting           orthorhombic
_symmetry_space_group_name_H-M   'P b c a'
_symmetry_Int_Tables_number      61
_space_group_name_Hall           '-P 2ac 2ab'
loop_
_symmetry_equiv_pos_site_id
_symmetry_equiv_pos_as_xyz
1 x,y,z
2 1/2-x,-y,1/2+z
3 -x,1/2+y,1/2-z
4 1/2+x,1/2-y,-z
5 -x,-y,-z
6 1/2+x,y,1/2-z
7 x,1/2-y,1/2+z
8 1/2-x,1/2+y,z
_cell_length_a                   18.865(7)
_cell_length_b                   10.616(3)
_cell_length_c                   23.670(8)
_cell_angle_alpha                90
_cell_angle_beta                 90
_cell_angle_gamma                90
_cell_volume                     4740.41
_exptl_crystal_colour            colorless
_exptl_crystal_description       Prism
_cell_formula_units_Z            8
loop_
_atom_site_label
_atom_site_type_symbol
_atom_site_fract_x
_atom_site_fract_y
_atom_site_fract_z
Se1 Se 0.43736(4) 0.46751(8) 0.91319(4)
P1 P 0.52829(8) 0.57666(16) 0.90617(7)
Se2 Se 0.53939(4) 0.74298(6) 0.96281(3)
Se3 Se 0.56406(4) 1.03407(8) 0.89048(4)
P2 P 0.50375(9) 0.87062(16) 0.89166(7)
N1 N 0.5101(3) 0.7806(5) 0.8363(2)
C1 C 0.5304(3) 0.6638(6) 0.8369(3)
N2 N 0.5459(3) 0.6029(5) 0.7899(2)
C2 C 0.5460(4) 0.6713(7) 0.7369(3)
H1 H 0.5003 0.7165 0.7330
H2 H 0.5493 0.6102 0.7054
C3 C 0.6067(6) 0.7667(9) 0.7314(4)
H3 H 0.6044 0.8052 0.6933
H4 H 0.5992 0.8347 0.7594
C4 C 0.6795(4) 0.7138(8) 0.7398(3)
C5 C 0.7234(7) 0.7634(9) 0.7798(4)
H5 H 0.7068 0.8302 0.8030
C6 C 0.7922(7) 0.7184(12) 0.7874(4)
H6 H 0.8224 0.7540 0.8153
C7 C 0.8149(6) 0.6221(12) 0.7540(5)
H7 H 0.8616 0.5899 0.7586
C8 C 0.7728(7) 0.5736(12) 0.7155(5)
H8 H 0.7890 0.5057 0.6927
C9 C 0.7068(6) 0.6197(11) 0.7081(4)
H9 H 0.6781 0.5842 0.6793
C10 C 0.5616(4) 0.4699(7) 0.7862(3)
H10 H 0.6130 0.4573 0.7882
H11 H 0.5437 0.4366 0.7503
H12 H 0.5388 0.4256 0.8176
C11 C 0.6107(3) 0.4935(7) 0.9147(3)
C12 C 0.6117(4) 0.3762(7) 0.9379(3)
H13 H 0.5687 0.3360 0.9483
C13 C 0.6758(6) 0.3162(8) 0.9460(4)
H14 H 0.6770 0.2356 0.9634
C14 C 0.7376(5) 0.3721(10) 0.9293(4)
H15 H 0.7815 0.3299 0.9343
C15 C 0.7357(4) 0.4878(10) 0.9056(4)
H16 H 0.7784 0.5258 0.8929
C16 C 0.6730(4) 0.5504(8) 0.8997(3)
H17 H 0.6726 0.6338 0.8852
C17 C 0.4108(3) 0.8988(7) 0.9034(3)
C18 C 0.3918(5) 1.0014(11) 0.9333(4)
H18 H 0.4270 1.0591 0.9458
C19 C 0.3210(6) 1.0226(15) 0.9458(4)
H19 H 0.3074 1.0951 0.9667
C20 C 0.2715(5) 0.9394(16) 0.9281(6)
H20 H 0.2230 0.9532 0.9368
C21 C 0.2904(5) 0.8381(13) 0.8983(5)
H21 H 0.2553 0.7808 0.8853
C22 C 0.3615(4) 0.8161(9) 0.8862(4)
H22 H 0.3750 0.7428 0.8658
loop_
_geom_bond_atom_site_label_1
_geom_bond_atom_site_label_2
_geom_bond_site_symmetry_1
_geom_bond_site_symmetry_2
Se1 P1 1_555 1_555
P1 Se2 1_555 1_555
Se2 P2 1_555 1_555
Se3 P2 1_555 1_555
P2 N1 1_555 1_555
N1 C1 1_555 1_555
C1 P1 1_555 1_555
N2 C1 1_555 1_555
C2 N2 1_555 1_555
H1 C2 1_555 1_555
H2 C2 1_555 1_555
C3 C2 1_555 1_555
H3 C3 1_555 1_555
H4 C3 1_555 1_555
C4 C3 1_555 1_555
C5 C4 1_555 1_555
H5 C5 1_555 1_555
C6 C5 1_555 1_555
H6 C6 1_555 1_555
C7 C6 1_555 1_555
H7 C7 1_555 1_555
C8 C7 1_555 1_555
H8 C8 1_555 1_555
C9 C4 1_555 1_555
H9 C9 1_555 1_555
C10 N2 1_555 1_555
H10 C10 1_555 1_555
H11 C10 1_555 1_555
H12 C10 1_555 1_555
C11 P1 1_555 1_555
C12 C11 1_555 1_555
H13 C12 1_555 1_555
C13 C12 1_555 1_555
H14 C13 1_555 1_555
C14 C13 1_555 1_555
H15 C14 1_555 1_555
C15 C14 1_555 1_555
H16 C15 1_555 1_555
C16 C11 1_555 1_555
H17 C16 1_555 1_555
C17 P2 1_555 1_555
C18 C17 1_555 1_555
H18 C18 1_555 1_555
C19 C18 1_555 1_555
H19 C19 1_555 1_555
C20 C19 1_555 1_555
H20 C20 1_555 1_555
C21 C20 1_555 1_555
H21 C21 1_555 1_555
C22 C17 1_555 1_555
H22 C22 1_555 1_555
C8 C9 1_555 1_555
C15 C16 1_555 1_555
C21 C22 1_555 1_555

#END
