
#######################################################################
#
#                 Cambridge Crystallographic Data Centre
#                                CCDC 
#
#######################################################################
#
# If this CIF has been generated from an entry in the Cambridge 
# Structural Database, then it will include bibliographic, chemical, 
# crystal, experimental, refinement or atomic coordinate data resulting 
# from the CCDC's data processing and validation procedures.
#
#######################################################################

data_KOHZOX
_chemical_formula_moiety         'C16 H19 N2 P1 Se2'
_chemical_name_systematic        
"N'-Phenethyl-N'-(methyl)carbamidoyl(phenyl)phosphinodiselenoic acid"
_symmetry_cell_setting           monoclinic
_symmetry_space_group_name_H-M   'P 21/n'
_symmetry_Int_Tables_number      14
_space_group_name_Hall           '-P 2yn'
loop_
_symmetry_equiv_pos_site_id
_symmetry_equiv_pos_as_xyz
1 x,y,z
2 1/2-x,1/2+y,1/2-z
3 -x,-y,-z
4 1/2+x,1/2-y,1/2+z
_cell_length_a                   21.784(3)
_cell_length_b                   6.8434(7)
_cell_length_c                   23.320(4)
_cell_angle_alpha                90
_cell_angle_beta                 98.307(4)
_cell_angle_gamma                90
_cell_volume                     3439.99
_exptl_crystal_colour            colorless
_exptl_crystal_description       Prism
_cell_formula_units_Z            8
loop_
_atom_site_label
_atom_site_type_symbol
_atom_site_fract_x
_atom_site_fract_y
_atom_site_fract_z
Se1 Se 0.05849(2) 0.40907(7) 0.45405(2)
Se3 Se 0.14574(2) -0.02621(7) 0.42051(2)
P1 P 0.12492(6) 0.18696(17) 0.48142(5)
C1 C 0.0892(2) 0.0506(7) 0.5395(2)
N2 N 0.07955(18) 0.1234(6) 0.58974(17)
C5 C 0.2928(2) 0.2283(8) 0.5835(2)
H6 H 0.3204 0.1430 0.6067
C6 C 0.1968(2) 0.2846(7) 0.5208(2)
N3 N 0.0713(2) -0.1279(6) 0.52458(19)
C10 C 0.1475(2) 0.3284(7) 0.6611(2)
H10 H 0.1399 0.2267 0.6894
H11 H 0.1868 0.2959 0.6466
C12 C 0.1190(2) 0.5671(8) 0.7355(2)
H14 H 0.0893 0.4754 0.7449
C13 C 0.2695(2) 0.5481(8) 0.5426(2)
H15 H 0.2814 0.6800 0.5378
C16 C 0.1544(2) 0.5232(7) 0.6913(2)
C18 C 0.2368(2) 0.1597(7) 0.5557(2)
H18 H 0.2254 0.0272 0.5603
C19 C 0.1972(2) 0.6637(8) 0.6783(2)
H19 H 0.2210 0.6389 0.6480
C20 C 0.1704(3) 0.8755(8) 0.7532(2)
H20 H 0.1768 0.9931 0.7749
C21 C 0.0942(2) 0.3245(7) 0.6099(2)
H21 H 0.0568 0.3848 0.6220
H22 H 0.1061 0.4028 0.5775
C24 C 0.3087(2) 0.4243(8) 0.5772(2)
H25 H 0.3468 0.4726 0.5969
C25 C 0.2125(2) 0.4809(7) 0.5146(2)
H26 H 0.1848 0.5670 0.4917
C28 C 0.0487(2) 0.0009(8) 0.6292(2)
H28 H 0.0061 -0.0275 0.6111
H29 H 0.0478 0.0707 0.6657
H30 H 0.0716 -0.1218 0.6368
C29 C 0.2054(3) 0.8372(8) 0.7086(3)
H31 H 0.2346 0.9305 0.6991
C31 C 0.1268(3) 0.7425(8) 0.7657(2)
H33 H 0.1021 0.7707 0.7950
H35 H 0.041(2) -0.210(7) 0.541(3)
H36 H 0.079(3) -0.153(8) 0.4848(9)
Se2 Se 0.48678(2) 0.32741(6) 0.60277(2)
Se4 Se 0.41519(2) -0.15836(8) 0.58817(3)
P2 P 0.49372(6) 0.01983(17) 0.61743(6)
N1 N 0.61668(19) -0.0280(6) 0.58769(18)
C2 C 0.6615(3) -0.1195(8) 0.5537(2)
H1 H 0.6553 -0.2613 0.5525
H2 H 0.7039 -0.0901 0.5719
H3 H 0.6550 -0.0675 0.5141
C3 C 0.5522(2) 0.0629(8) 0.7922(2)
H4 H 0.5613 0.1638 0.8202
C4 C 0.7819(3) 0.6419(9) 0.6797(3)
H5 H 0.8250 0.6701 0.6827
C7 C 0.5355(2) 0.1105(7) 0.7340(2)
H7 H 0.5343 0.2434 0.7221
C8 C 0.6841(3) 0.6985(8) 0.7106(3)
H8 H 0.6599 0.7646 0.7353
C9 C 0.5557(2) -0.1308(8) 0.8096(2)
H9 H 0.5683 -0.1629 0.8492
C11 C 0.6628(3) 0.3034(7) 0.5955(2)
H12 H 0.6928 0.2609 0.5699
H13 H 0.6263 0.3596 0.5707
N4 N 0.5390(2) -0.2103(6) 0.5380(2)
C14 C 0.6923(2) 0.4580(7) 0.6365(2)
C15 C 0.6424(2) 0.1266(7) 0.6279(2)
H16 H 0.6784 0.0745 0.6542
H17 H 0.6106 0.1676 0.6519
C17 C 0.5204(2) -0.0378(7) 0.6933(2)
C22 C 0.6565(2) 0.5593(7) 0.6721(2)
H23 H 0.6135 0.5326 0.6698
C23 C 0.5408(2) -0.2777(7) 0.7691(2)
H24 H 0.5435 -0.4105 0.7810
C26 C 0.5583(3) -0.0804(7) 0.5782(2)
C27 C 0.7563(3) 0.4996(8) 0.6411(2)
H27 H 0.7816 0.4308 0.6180
C30 C 0.5220(2) -0.2330(7) 0.7113(2)
H32 H 0.5102 -0.3342 0.6840
C32 C 0.7464(3) 0.7421(8) 0.7135(2)
H34 H 0.7645 0.8415 0.7389
H37 H 0.563(2) -0.242(9) 0.5067(18)
H38 H 0.4949(8) -0.246(9) 0.533(3)
loop_
_geom_bond_atom_site_label_1
_geom_bond_atom_site_label_2
_geom_bond_site_symmetry_1
_geom_bond_site_symmetry_2
Se1 P1 1_555 1_555
Se2 P2 1_555 1_555
Se3 P1 1_555 1_555
Se4 P2 1_555 1_555
P1 C1 1_555 1_555
P2 C17 1_555 1_555
N1 C2 1_555 1_555
C1 N2 1_555 1_555
N2 C21 1_555 1_555
C2 H1 1_555 1_555
H2 C2 1_555 1_555
H3 C2 1_555 1_555
C3 H4 1_555 1_555
C4 H5 1_555 1_555
C5 H6 1_555 1_555
C6 P1 1_555 1_555
C7 C3 1_555 1_555
H7 C7 1_555 1_555
C8 H8 1_555 1_555
C9 C3 1_555 1_555
H9 C9 1_555 1_555
N3 C1 1_555 1_555
C10 H10 1_555 1_555
H11 C10 1_555 1_555
C11 H12 1_555 1_555
H13 C11 1_555 1_555
N4 C26 1_555 1_555
C12 H14 1_555 1_555
C13 H15 1_555 1_555
C14 C11 1_555 1_555
C15 N1 1_555 1_555
H16 C15 1_555 1_555
H17 C15 1_555 1_555
C16 C10 1_555 1_555
C17 C7 1_555 1_555
C18 C5 1_555 1_555
H18 C18 1_555 1_555
C19 C16 1_555 1_555
H19 C19 1_555 1_555
C20 H20 1_555 1_555
C21 C10 1_555 1_555
H21 C21 1_555 1_555
H22 C21 1_555 1_555
C22 C8 1_555 1_555
H23 C22 1_555 1_555
C23 C9 1_555 1_555
H24 C23 1_555 1_555
C24 C5 1_555 1_555
H25 C24 1_555 1_555
C25 C6 1_555 1_555
H26 C25 1_555 1_555
C26 P2 1_555 1_555
C27 C4 1_555 1_555
H27 C27 1_555 1_555
C28 N2 1_555 1_555
H28 C28 1_555 1_555
H29 C28 1_555 1_555
H30 C28 1_555 1_555
C29 C19 1_555 1_555
H31 C29 1_555 1_555
C30 C17 1_555 1_555
H32 C30 1_555 1_555
C31 C12 1_555 1_555
H33 C31 1_555 1_555
C32 C4 1_555 1_555
H34 C32 1_555 1_555
H35 N3 1_555 1_555
H36 N3 1_555 1_555
H37 N4 1_555 1_555
H38 N4 1_555 1_555
N1 C26 1_555 1_555
C6 C18 1_555 1_555
C8 C32 1_555 1_555
C11 C15 1_555 1_555
C12 C16 1_555 1_555
C13 C24 1_555 1_555
C13 C25 1_555 1_555
C14 C22 1_555 1_555
C14 C27 1_555 1_555
C20 C29 1_555 1_555
C20 C31 1_555 1_555
C23 C30 1_555 1_555

#END
