
#######################################################################
#
#                 Cambridge Crystallographic Data Centre
#                                CCDC 
#
#######################################################################
#
# If this CIF has been generated from an entry in the Cambridge 
# Structural Database, then it will include bibliographic, chemical, 
# crystal, experimental, refinement or atomic coordinate data resulting 
# from the CCDC's data processing and validation procedures.
#
#######################################################################

data_KOJFIZ
_chemical_formula_moiety         'C14 H23 N1 O8'
_chemical_name_systematic        
9,10,11-Trihydroxy-8-(hydroxymethyl)-3-methyl-4-(tetrahydrofuran-2-yl)-1,7-dioxa-3-azaspiro(5.5)undecan-2-one
_chemical_properties_biological  
'slight cytotoxicity against the Hela cell line'
_symmetry_cell_setting           monoclinic
_symmetry_space_group_name_H-M   'P 21'
_symmetry_Int_Tables_number      4
_space_group_name_Hall           'P 2yb'
loop_
_symmetry_equiv_pos_site_id
_symmetry_equiv_pos_as_xyz
1 x,y,z
2 -x,1/2+y,-z
_cell_length_a                   11.198(2)
_cell_length_b                   6.0684(12)
_cell_length_c                   12.405(3)
_cell_angle_alpha                90
_cell_angle_beta                 112.54(3)
_cell_angle_gamma                90
_cell_volume                     778.576
_exptl_crystal_colour            colorless
_exptl_crystal_description       Block
_chemical_melting_point          '222-224 deg.C'
_cell_formula_units_Z            2
_exptl_crystal_recrystallization_method water/ethanol
loop_
_atom_site_label
_atom_site_type_symbol
_atom_site_fract_x
_atom_site_fract_y
_atom_site_fract_z
O1 O 0.18470(15) 0.4478(3) 0.79709(14)
O2 O 0.47267(16) 0.1002(3) 0.91427(14)
H1 H 0.4630 0.0422 0.8518
O3 O 0.26526(16) 0.1933(3) 0.70114(14)
C1 C 0.2579(2) 0.0327(4) 0.9154(2)
H2 H 0.2358 -0.0724 0.8506
O4 O 0.03826(19) 0.0021(3) 0.90289(18)
H3 H 0.0217 0.0140 0.9615
O5 O 0.30670(18) -0.0821(3) 1.02251(15)
H4 H 0.3632 -0.1680 1.0225
C2 C 0.2965(2) 0.3434(4) 0.7982(2)
C3 C 0.0865(2) 0.3012(5) 0.8028(2)
H5 H 0.0575 0.2078 0.7331
C4 C 0.3550(2) 0.1998(5) 0.9062(2)
H6 H 0.3760 0.2980 0.9737
O6 O 0.1665(2) 0.1526(4) 0.51180(17)
C5 C 0.1381(2) 0.1538(4) 0.9092(2)
H7 H 0.1589 0.2444 0.9795
O7 O 0.49901(17) 0.8936(4) 0.72937(18)
N1 N 0.2426(2) 0.4913(4) 0.57779(17)
C6 C 0.2220(3) 0.2768(5) 0.5909(2)
C7 C 0.3219(2) 0.6411(4) 0.6709(2)
H8 H 0.2651 0.7544 0.6818
C8 C 0.3847(2) 0.5171(4) 0.7848(2)
H9 H 0.4639 0.4489 0.7871
H10 H 0.4068 0.6199 0.8494
C9 C 0.4224(3) 0.7548(5) 0.6343(2)
H11 H 0.3778 0.8466 0.5656
C10 C -0.0248(3) 0.4442(5) 0.7987(3)
H12 H -0.0469 0.5442 0.7329
H13 H -0.0995 0.3523 0.7873
C11 C 0.5177(3) 0.6060(6) 0.6096(3)
H14 H 0.5013 0.4526 0.6212
H15 H 0.5118 0.6253 0.5301
C12 C 0.1663(3) 0.5902(6) 0.4652(2)
H16 H 0.2183 0.6024 0.4193
H17 H 0.1380 0.7342 0.4772
H18 H 0.0924 0.4993 0.4249
C13 C 0.6284(3) 0.8912(7) 0.7405(3)
H19 H 0.6859 0.9083 0.8216
H20 H 0.6447 1.0099 0.6956
C14 C 0.6485(4) 0.6766(8) 0.6957(4)
H21 H 0.6819 0.5705 0.7587
H22 H 0.7094 0.6895 0.6576
O8 O 0.0054(3) 0.5663(4) 0.9016(2)
H23 H 0.0356 0.6859 0.8943
loop_
_geom_bond_atom_site_label_1
_geom_bond_atom_site_label_2
_geom_bond_site_symmetry_1
_geom_bond_site_symmetry_2
O1 C2 1_555 1_555
O2 H1 1_555 1_555
O3 C2 1_555 1_555
C1 H2 1_555 1_555
O4 H3 1_555 1_555
O5 C1 1_555 1_555
H4 O5 1_555 1_555
C2 C4 1_555 1_555
C3 O1 1_555 1_555
H5 C3 1_555 1_555
C4 O2 1_555 1_555
H6 C4 1_555 1_555
O6 C6 1_555 1_555
C5 C1 1_555 1_555
H7 C5 1_555 1_555
O7 C9 1_555 1_555
N1 C6 1_555 1_555
C6 O3 1_555 1_555
C7 N1 1_555 1_555
H8 C7 1_555 1_555
C8 C2 1_555 1_555
H9 C8 1_555 1_555
H10 C8 1_555 1_555
C9 C7 1_555 1_555
H11 C9 1_555 1_555
C10 C3 1_555 1_555
H12 C10 1_555 1_555
H13 C10 1_555 1_555
C11 C9 1_555 1_555
H14 C11 1_555 1_555
H15 C11 1_555 1_555
C12 N1 1_555 1_555
H16 C12 1_555 1_555
H17 C12 1_555 1_555
H18 C12 1_555 1_555
C13 O7 1_555 1_555
H19 C13 1_555 1_555
H20 C13 1_555 1_555
C14 C11 1_555 1_555
H21 C14 1_555 1_555
H22 C14 1_555 1_555
O8 C10 1_555 1_555
H23 O8 1_555 1_555
C1 C4 1_555 1_555
O4 C5 1_555 1_555
C3 C5 1_555 1_555
C7 C8 1_555 1_555
C13 C14 1_555 1_555

#END
