
#######################################################################
#
#                 Cambridge Crystallographic Data Centre
#                                CCDC 
#
#######################################################################
#
# If this CIF has been generated from an entry in the Cambridge 
# Structural Database, then it will include bibliographic, chemical, 
# crystal, experimental, refinement or atomic coordinate data resulting 
# from the CCDC's data processing and validation procedures.
#
#######################################################################

data_KOJJID
_chemical_formula_moiety         'C30 H21 N1 S1'
_chemical_name_systematic        
6-(Benzo(b)thien-3-yl)-5-benzyl-5,6-dihydroindeno(2,1-b)indole
_symmetry_cell_setting           monoclinic
_symmetry_space_group_name_H-M   'P 21/c'
_symmetry_Int_Tables_number      14
_space_group_name_Hall           '-P 2ybc'
loop_
_symmetry_equiv_pos_site_id
_symmetry_equiv_pos_as_xyz
1 x,y,z
2 -x,1/2+y,1/2-z
3 -x,-y,-z
4 x,1/2-y,1/2+z
_cell_length_a                   10.2560(10)
_cell_length_b                   23.007(2)
_cell_length_c                   9.6842(10)
_cell_angle_alpha                90
_cell_angle_beta                 97.023(2)
_cell_angle_gamma                90
_cell_volume                     2267.94
_chemical_melting_point          '184-185 deg.C'
_cell_formula_units_Z            4
loop_
_atom_site_label
_atom_site_type_symbol
_atom_site_fract_x
_atom_site_fract_y
_atom_site_fract_z
S1 S 0.9593(1) 0.3819(1) 0.2819(1)
N1 N 0.4443(2) 0.4131(1) 0.0489(2)
C1 C 0.5394(2) 0.4257(1) -0.0353(2)
C2 C 0.6802(2) 0.4459(1) -0.0100(2)
C3 C 0.7078(2) 0.4517(1) -0.1624(2)
C4 C 0.5944(2) 0.4391(1) -0.2557(2)
C5 C 0.4896(2) 0.4241(1) -0.1721(2)
C6 C 0.5985(2) 0.4436(1) -0.3978(2)
C7 C 0.7150(3) 0.4615(1) -0.4454(3)
C8 C 0.8240(3) 0.4748(1) -0.3538(3)
C9 C 0.8219(2) 0.4698(1) -0.2110(3)
C10 C 0.3527(2) 0.4101(1) -0.1799(2)
C11 C 0.2479(2) 0.4031(1) -0.2857(2)
C12 C 0.1259(2) 0.3893(1) -0.2528(3)
C13 C 0.1031(2) 0.3826(1) -0.1134(3)
C14 C 0.2026(2) 0.3898(1) -0.0055(2)
C15 C 0.3271(2) 0.4033(1) -0.0388(2)
C16 C 0.7771(2) 0.4096(1) 0.0834(2)
C17 C 0.8583(2) 0.4319(1) 0.1929(2)
C18 C 0.8946(2) 0.3266(1) 0.1713(2)
C19 C 0.7976(2) 0.3481(1) 0.0687(2)
C20 C 0.7351(3) 0.3092(1) -0.0295(3)
C21 C 0.7695(3) 0.2517(1) -0.0203(3)
C22 C 0.8634(4) 0.2313(2) 0.0814(4)
C23 C 0.9291(3) 0.2678(2) 0.1771(3)
C24 C 0.4617(2) 0.4106(1) 0.2006(2)
C25 C 0.4193(2) 0.3531(1) 0.2560(2)
C26 C 0.4667(3) 0.3008(1) 0.2112(2)
C27 C 0.4247(3) 0.2488(1) 0.2618(3)
C28 C 0.3373(4) 0.2486(1) 0.3588(3)
C29 C 0.2905(3) 0.2998(1) 0.4047(3)
C30 C 0.3319(3) 0.3520(1) 0.3531(2)
H1 H 0.6804 0.4851 0.0296
H2 H 0.5249 0.4348 -0.4603
H3 H 0.7190 0.4645 -0.5405
H4 H 0.9002 0.4873 -0.3878
H5 H 0.8962 0.4784 -0.1494
H6 H 0.2614 0.4079 -0.3783
H7 H 0.0569 0.3843 -0.3236
H8 H 0.0192 0.3731 -0.0936
H9 H 0.1870 0.3858 0.0866
H10 H 0.8586 0.4711 0.2170
H11 H 0.6716 0.3222 -0.0995
H12 H 0.7280 0.2257 -0.0849
H13 H 0.8825 0.1917 0.0853
H14 H 0.9947 0.2540 0.2438
H15 H 0.4113 0.4416 0.2365
H16 H 0.5536 0.4171 0.2342
H17 H 0.5270 0.3008 0.1469
H18 H 0.4557 0.2138 0.2303
H19 H 0.3098 0.2135 0.3932
H20 H 0.2313 0.2996 0.4701
H21 H 0.3001 0.3868 0.3845
loop_
_geom_bond_atom_site_label_1
_geom_bond_atom_site_label_2
_geom_bond_site_symmetry_1
_geom_bond_site_symmetry_2
S1 C17 1_555 1_555
N1 C1 1_555 1_555
C1 C2 1_555 1_555
C2 C3 1_555 1_555
C3 C4 1_555 1_555
C4 C5 1_555 1_555
C5 C1 1_555 1_555
C6 C4 1_555 1_555
C7 C6 1_555 1_555
C8 C7 1_555 1_555
C9 C3 1_555 1_555
C10 C5 1_555 1_555
C11 C10 1_555 1_555
C12 C11 1_555 1_555
C13 C12 1_555 1_555
C14 C13 1_555 1_555
C15 N1 1_555 1_555
C16 C2 1_555 1_555
C17 C16 1_555 1_555
C18 S1 1_555 1_555
C19 C16 1_555 1_555
C20 C19 1_555 1_555
C21 C20 1_555 1_555
C22 C21 1_555 1_555
C23 C18 1_555 1_555
C24 N1 1_555 1_555
C25 C24 1_555 1_555
C26 C25 1_555 1_555
C27 C26 1_555 1_555
C28 C27 1_555 1_555
C29 C28 1_555 1_555
C30 C25 1_555 1_555
H1 C2 1_555 1_555
H2 C6 1_555 1_555
H3 C7 1_555 1_555
H4 C8 1_555 1_555
H5 C9 1_555 1_555
H6 C11 1_555 1_555
H7 C12 1_555 1_555
H8 C13 1_555 1_555
H9 C14 1_555 1_555
H10 C17 1_555 1_555
H11 C20 1_555 1_555
H12 C21 1_555 1_555
H13 C22 1_555 1_555
H14 C23 1_555 1_555
H15 C24 1_555 1_555
H16 C24 1_555 1_555
H17 C26 1_555 1_555
H18 C27 1_555 1_555
H19 C28 1_555 1_555
H20 C29 1_555 1_555
H21 C30 1_555 1_555
C8 C9 1_555 1_555
C10 C15 1_555 1_555
C14 C15 1_555 1_555
C18 C19 1_555 1_555
C22 C23 1_555 1_555
C29 C30 1_555 1_555

#END
