
#######################################################################
#
#                 Cambridge Crystallographic Data Centre
#                                CCDC 
#
#######################################################################
#
# If this CIF has been generated from an entry in the Cambridge 
# Structural Database, then it will include bibliographic, chemical, 
# crystal, experimental, refinement or atomic coordinate data resulting 
# from the CCDC's data processing and validation procedures.
#
#######################################################################

data_KOJMUR
_chemical_formula_moiety         'C48 H48 N14,4(H2 O1)'
_chemical_name_systematic        
'1,4,8,11,15,18,21,25,28,32,37,41,44,48-Tetradeca-azaoctacyclo(16.16.16.2^6,9^.2^10,13^.2^23,26^.2^27,30^.2^39,42^.2^43,46^)dohexacontatetracosa-4,6,8,10,12,14,21,23,25,27,29,31,37,39,41,43,45,47,51,53,55,57,59,61-ene tetrahydrate'
_symmetry_cell_setting           monoclinic
_symmetry_space_group_name_H-M   'P 21/c'
_symmetry_Int_Tables_number      14
_space_group_name_Hall           '-P 2ybc'
loop_
_symmetry_equiv_pos_site_id
_symmetry_equiv_pos_as_xyz
1 x,y,z
2 -x,1/2+y,1/2-z
3 -x,-y,-z
4 x,1/2-y,1/2+z
_cell_length_a                   17.216(3)
_cell_length_b                   16.310(2)
_cell_length_c                   17.196(3)
_cell_angle_alpha                90
_cell_angle_beta                 97.98(4)
_cell_angle_gamma                90
_cell_volume                     4781.76
_exptl_crystal_colour            colorless
_chemical_melting_point          280deg.C
_cell_formula_units_Z            4
loop_
_atom_site_label
_atom_site_type_symbol
_atom_site_fract_x
_atom_site_fract_y
_atom_site_fract_z
O1 O 0.2828(1) -0.0639(1) 0.8067(1)
O2 O 0.4154(2) -0.1656(2) 0.7915(2)
O3 O 0.2416(2) 0.1037(2) 0.7624(2)
O4 O 0.0895(2) 0.1841(2) 0.7496(2)
N1 N 0.4368(2) 0.1210(2) 0.5946(2)
N2 N 0.3915(2) 0.1801(2) 0.7519(2)
N3 N 0.3721(2) 0.4721(2) 0.7873(2)
N4 N 0.1823(2) 0.5460(2) 0.8162(2)
N5 N 0.1429(2) 0.8374(2) 0.7979(2)
N6 N 0.0444(1) 0.9153(1) 0.6578(1)
N7 N 0.1686(2) 0.8927(2) 0.5501(2)
N8 N 0.3644(2) 0.6833(2) 0.6019(2)
N9 N 0.3501(2) 0.5192(2) 0.4617(2)
N10 N 0.5052(2) 0.2841(2) 0.5524(2)
N11 N 0.2814(2) 0.1575(2) 0.5001(2)
N12 N 0.1304(2) 0.3641(2) 0.6089(2)
N13 N 0.1027(2) 0.5478(2) 0.4956(2)
N14 N -0.0401(2) 0.7582(2) 0.6097(2)
C1 C 0.4286(2) 0.0712(2) 0.6643(2)
C2 C 0.4471(2) 0.1141(2) 0.7419(2)
C3 C 0.4201(2) 0.2514(2) 0.7646(2)
C4 C 0.3721(2) 0.3244(2) 0.7749(2)
C5 C 0.4092(2) 0.4004(2) 0.7815(2)
C6 C 0.2949(2) 0.4696(2) 0.7889(2)
C7 C 0.2537(2) 0.5492(2) 0.7941(2)
C8 C 0.1428(2) 0.6158(2) 0.8188(3)
C9 C 0.1704(2) 0.6921(2) 0.7995(2)
C10 C 0.1191(2) 0.7638(2) 0.8023(2)
C11 C 0.0845(2) 0.9021(2) 0.8024(2)
C12 C 0.0766(2) 0.9565(2) 0.7308(2)
C13 C 0.0557(2) 0.9655(2) 0.5900(2)
C14 C 0.1399(2) 0.9717(2) 0.5737(2)
C15 C 0.2317(2) 0.8659(2) 0.5888(2)
C16 C 0.2659(2) 0.7874(2) 0.5683(2)
C17 C 0.3317(2) 0.7560(2) 0.6139(2)
C18 C 0.3305(2) 0.6386(2) 0.5414(2)
C19 C 0.3657(2) 0.5561(2) 0.5320(2)
C20 C 0.3810(2) 0.4445(2) 0.4552(2)
C21 C 0.4261(2) 0.4034(2) 0.5148(2)
C22 C 0.4587(2) 0.3210(2) 0.5017(2)
C23 C 0.5346(2) 0.2045(2) 0.5316(2)
C24 C 0.5200(2) 0.1396(2) 0.5919(2)
C25 C 0.4031(2) 0.0775(2) 0.5231(2)
C26 C 0.3141(2) 0.0749(2) 0.5111(2)
C27 C 0.2450(2) 0.1847(2) 0.5524(2)
C28 C 0.2102(2) 0.2667(2) 0.5494(2)
C29 C 0.1644(3) 0.2902(2) 0.6054(2)
C30 C 0.1424(2) 0.4180(2) 0.5528(2)
C31 C 0.1050(2) 0.4995(2) 0.5586(2)
C32 C 0.0677(2) 0.6205(2) 0.4995(2)
C33 C 0.0357(2) 0.6495(2) 0.5631(2)
C34 C -0.0028(2) 0.7302(2) 0.5581(2)
C35 C -0.0754(2) 0.8392(2) 0.5952(2)
C36 C -0.0396(2) 0.8995(2) 0.6580(2)
C37 C 0.2920(2) 0.3234(2) 0.7780(3)
C38 C 0.2535(2) 0.3959(2) 0.7850(3)
C39 C 0.2877(2) 0.6229(2) 0.7759(2)
C40 C 0.2447(2) 0.6944(2) 0.7786(2)
C41 C 0.2329(2) 0.7403(2) 0.5052(2)
C42 C 0.2651(2) 0.6658(2) 0.4907(2)
C43 C 0.4094(2) 0.5187(2) 0.5954(2)
C44 C 0.4408(2) 0.4422(2) 0.5865(2)
C45 C 0.2191(2) 0.3225(2) 0.4901(2)
C46 C 0.1842(2) 0.3990(2) 0.4921(2)
C47 C 0.0757(2) 0.5234(2) 0.6260(2)
C48 C 0.0400(2) 0.5989(2) 0.6282(2)
H1 H 0.4635 0.0231 0.6631
H2 H 0.3721 0.0520 0.6579
H3 H 0.4448 0.0726 0.7837
H4 H 0.5002 0.1379 0.7448
H5 H 0.4781 0.2572 0.7674
H6 H 0.4682 0.4017 0.7832
H7 H 0.0878 0.6135 0.8339
H8 H 0.0626 0.7548 0.8075
H9 H 0.0995 0.9370 0.8495
H10 H 0.0317 0.8764 0.8055
H11 H 0.0404 1.0033 0.7385
H12 H 0.1292 0.9783 0.7243
H13 H 0.0353 1.0212 0.5984
H14 H 0.0235 0.9398 0.5427
H15 H 0.1727 0.9917 0.6222
H16 H 0.1414 1.0126 0.5303
H17 H 0.2605 0.8980 0.6348
H18 H 0.3554 0.7904 0.6598
H19 H 0.3687 0.4169 0.4018
H20 H 0.4451 0.2920 0.4505
H21 H 0.5916 0.2086 0.5290
H22 H 0.5059 0.1893 0.4788
H23 H 0.5421 0.1597 0.6455
H24 H 0.5459 0.0880 0.5798
H25 H 0.4257 0.0210 0.5263
H26 H 0.4223 0.1073 0.4778
H27 H 0.2966 0.0484 0.5579
H28 H 0.2971 0.0403 0.4633
H29 H 0.2376 0.1489 0.5977
H30 H 0.1575 0.2488 0.6474
H31 H 0.0647 0.6558 0.4520
H32 H 0.0000 0.7652 0.5104
H33 H -0.1335 0.8349 0.5961
H34 H -0.0660 0.8588 0.5420
H35 H -0.0676 0.9529 0.6511
H36 H -0.0456 0.8764 0.7114
H37 H 0.2613 0.2710 0.7730
H38 H 0.1953 0.3961 0.7871
H39 H 0.3428 0.6246 0.7616
H40 H 0.2672 0.7482 0.7640
H41 H 0.1855 0.7607 0.4699
H42 H 0.2403 0.6316 0.4443
H43 H 0.4176 0.5478 0.6483
H44 H 0.4747 0.4162 0.6324
H45 H 0.2517 0.3076 0.4472
H46 H 0.1882 0.4402 0.4493
H47 H 0.0821 0.4859 0.6732
H48 H 0.0186 0.6169 0.6767
loop_
_geom_bond_atom_site_label_1
_geom_bond_atom_site_label_2
_geom_bond_site_symmetry_1
_geom_bond_site_symmetry_2
N1 C1 1_555 1_555
N2 C2 1_555 1_555
N3 C5 1_555 1_555
N4 C7 1_555 1_555
N5 C10 1_555 1_555
N6 C12 1_555 1_555
N7 C14 1_555 1_555
N8 C17 1_555 1_555
N9 C19 1_555 1_555
N10 C22 1_555 1_555
N11 C26 1_555 1_555
N12 C29 1_555 1_555
N13 C31 1_555 1_555
N14 C34 1_555 1_555
C1 C2 1_555 1_555
C2 H3 1_555 1_555
C3 N2 1_555 1_555
C4 C3 1_555 1_555
C5 C4 1_555 1_555
C6 N3 1_555 1_555
C7 C6 1_555 1_555
C8 N4 1_555 1_555
C9 C8 1_555 1_555
C10 C9 1_555 1_555
C11 N5 1_555 1_555
C12 C11 1_555 1_555
C13 N6 1_555 1_555
C14 C13 1_555 1_555
C15 N7 1_555 1_555
C16 C15 1_555 1_555
C17 C16 1_555 1_555
C18 N8 1_555 1_555
C19 C18 1_555 1_555
C20 N9 1_555 1_555
C21 C20 1_555 1_555
C22 C21 1_555 1_555
C23 N10 1_555 1_555
C24 N1 1_555 1_555
C25 N1 1_555 1_555
C26 C25 1_555 1_555
C27 N11 1_555 1_555
C28 C27 1_555 1_555
C29 C28 1_555 1_555
C30 N12 1_555 1_555
C31 C30 1_555 1_555
C32 N13 1_555 1_555
C33 C32 1_555 1_555
C34 C33 1_555 1_555
C35 N14 1_555 1_555
C36 N6 1_555 1_555
C37 C4 1_555 1_555
C38 C6 1_555 1_555
C39 C7 1_555 1_555
C40 C9 1_555 1_555
C41 C16 1_555 1_555
C42 C18 1_555 1_555
C43 C19 1_555 1_555
C44 C21 1_555 1_555
C45 C28 1_555 1_555
C46 C30 1_555 1_555
C47 C31 1_555 1_555
C48 C33 1_555 1_555
H1 C1 1_555 1_555
H2 C1 1_555 1_555
H4 C2 1_555 1_555
H5 C3 1_555 1_555
H6 C5 1_555 1_555
H7 C8 1_555 1_555
H8 C10 1_555 1_555
H9 C11 1_555 1_555
H10 C11 1_555 1_555
H11 C12 1_555 1_555
H12 C12 1_555 1_555
H13 C13 1_555 1_555
H14 C13 1_555 1_555
H15 C14 1_555 1_555
H16 C14 1_555 1_555
H17 C15 1_555 1_555
H18 C17 1_555 1_555
H19 C20 1_555 1_555
H20 C22 1_555 1_555
H21 C23 1_555 1_555
H22 C23 1_555 1_555
H23 C24 1_555 1_555
H24 C24 1_555 1_555
H25 C25 1_555 1_555
H26 C25 1_555 1_555
H27 C26 1_555 1_555
H28 C26 1_555 1_555
H29 C27 1_555 1_555
H30 C29 1_555 1_555
H31 C32 1_555 1_555
H32 C34 1_555 1_555
H33 C35 1_555 1_555
H34 C35 1_555 1_555
H35 C36 1_555 1_555
H36 C36 1_555 1_555
H37 C37 1_555 1_555
H38 C38 1_555 1_555
H39 C39 1_555 1_555
H40 C40 1_555 1_555
H41 C41 1_555 1_555
H42 C42 1_555 1_555
H43 C43 1_555 1_555
H44 C44 1_555 1_555
H45 C45 1_555 1_555
H46 C46 1_555 1_555
H47 C47 1_555 1_555
H48 C48 1_555 1_555
C23 C24 1_555 1_555
C35 C36 1_555 1_555
C37 C38 1_555 1_555
C39 C40 1_555 1_555
C41 C42 1_555 1_555
C43 C44 1_555 1_555
C45 C46 1_555 1_555
C47 C48 1_555 1_555

#END
