
#######################################################################
#
#                 Cambridge Crystallographic Data Centre
#                                CCDC 
#
#######################################################################
#
# If this CIF has been generated from an entry in the Cambridge 
# Structural Database, then it will include bibliographic, chemical, 
# crystal, experimental, refinement or atomic coordinate data resulting 
# from the CCDC's data processing and validation procedures.
#
#######################################################################

data_KOJVUC
_chemical_formula_moiety         'C20 H20 N2 O2'
_chemical_name_systematic        
't-butyl (1-(pyridin-2-yl)-2-naphthyl)carbamate'
_symmetry_cell_setting           monoclinic
_symmetry_space_group_name_H-M   'P 21/n'
_symmetry_Int_Tables_number      14
_space_group_name_Hall           '-P 2yn'
loop_
_symmetry_equiv_pos_site_id
_symmetry_equiv_pos_as_xyz
1 x,y,z
2 1/2-x,1/2+y,1/2-z
3 -x,-y,-z
4 1/2+x,1/2-y,1/2+z
_cell_length_a                   9.5080(4)
_cell_length_b                   10.4245(4)
_cell_length_c                   17.1939(7)
_cell_angle_alpha                90
_cell_angle_beta                 98.3970(17)
_cell_angle_gamma                90
_cell_volume                     1685.92
_exptl_crystal_colour            white
_exptl_crystal_description       block
_cell_formula_units_Z            4
loop_
_atom_site_label
_atom_site_type_symbol
_atom_site_fract_x
_atom_site_fract_y
_atom_site_fract_z
O1 O 0.55381(8) 0.30298(8) 0.48115(4)
O2 O 0.73790(9) 0.17673(9) 0.53528(5)
N1 N 0.80086(10) 0.48049(9) 0.30001(5)
N2 N 0.74061(10) 0.28444(9) 0.41946(6)
H1 H 0.6934 0.3401 0.3871
C1 C 0.87209(12) 0.23928(11) 0.40116(6)
C2 C 0.68162(12) 0.24750(11) 0.48398(6)
C3 C 1.08916(12) 0.27204(10) 0.34388(6)
C4 C 0.92051(12) 0.45780(10) 0.35018(6)
C5 C 1.12848(12) 0.14223(11) 0.36157(6)
C6 C 0.95946(12) 0.32046(10) 0.36596(6)
C7 C 1.03636(13) 0.06355(11) 0.39842(6)
H2 H 1.0622 -0.0230 0.4104
C8 C 0.91134(12) 0.10956(11) 0.41711(7)
H3 H 0.8503 0.0546 0.4409
C9 C 1.25918(13) 0.09469(12) 0.34291(7)
H4 H 1.2850 0.0080 0.3545
C10 C 0.76935(13) 0.60341(12) 0.28149(7)
H5 H 0.6853 0.6205 0.2459
C11 C 1.00656(12) 0.55628(11) 0.38510(7)
H6 H 1.0881 0.5374 0.4222
C12 C 1.18292(13) 0.34803(11) 0.30553(7)
H7 H 1.1576 0.4339 0.2912
C13 C 0.47254(12) 0.29046(11) 0.54823(6)
C14 C 1.34849(13) 0.17176(13) 0.30850(7)
H8 H 1.4371 0.1395 0.2977
C15 C 1.30877(13) 0.29925(12) 0.28902(7)
H9 H 1.3703 0.3521 0.2641
C16 C 0.97154(14) 0.68231(12) 0.36493(8)
H10 H 1.0290 0.7510 0.3878
C17 C 0.85179(14) 0.70657(11) 0.31107(7)
H11 H 0.8268 0.7917 0.2948
C18 C 0.34061(12) 0.36939(12) 0.51998(7)
H12 H 0.2878 0.3295 0.4730
H13 H 0.3687 0.4565 0.5073
H14 H 0.2802 0.3731 0.5615
C19 C 0.55726(14) 0.34906(15) 0.62146(7)
H15 H 0.5801 0.4385 0.6109
H16 H 0.6455 0.3005 0.6359
H17 H 0.5008 0.3460 0.6648
C20 C 0.43268(14) 0.15104(13) 0.55925(8)
H18 H 0.3789 0.1184 0.5103
H19 H 0.3741 0.1449 0.6015
H20 H 0.5193 0.1000 0.5730
loop_
_geom_bond_atom_site_label_1
_geom_bond_atom_site_label_2
_geom_bond_site_symmetry_1
_geom_bond_site_symmetry_2
O1 C2 1_555 1_555
O2 C2 1_555 1_555
N1 C4 1_555 1_555
N2 H1 1_555 1_555
C1 N2 1_555 1_555
C2 N2 1_555 1_555
C3 C5 1_555 1_555
C4 C6 1_555 1_555
C5 C7 1_555 1_555
C6 C1 1_555 1_555
C7 H2 1_555 1_555
C8 C1 1_555 1_555
H3 C8 1_555 1_555
C9 C5 1_555 1_555
H4 C9 1_555 1_555
C10 N1 1_555 1_555
H5 C10 1_555 1_555
C11 C4 1_555 1_555
H6 C11 1_555 1_555
C12 C3 1_555 1_555
H7 C12 1_555 1_555
C13 O1 1_555 1_555
C14 C9 1_555 1_555
H8 C14 1_555 1_555
C15 C12 1_555 1_555
H9 C15 1_555 1_555
C16 C11 1_555 1_555
H10 C16 1_555 1_555
C17 C10 1_555 1_555
H11 C17 1_555 1_555
C18 C13 1_555 1_555
H12 C18 1_555 1_555
H13 C18 1_555 1_555
H14 C18 1_555 1_555
C19 C13 1_555 1_555
H15 C19 1_555 1_555
H16 C19 1_555 1_555
H17 C19 1_555 1_555
C20 C13 1_555 1_555
H18 C20 1_555 1_555
H19 C20 1_555 1_555
H20 C20 1_555 1_555
C3 C6 1_555 1_555
C7 C8 1_555 1_555
C14 C15 1_555 1_555
C16 C17 1_555 1_555

#END
