
#######################################################################
#
#                 Cambridge Crystallographic Data Centre
#                                CCDC 
#
#######################################################################
#
# If this CIF has been generated from an entry in the Cambridge 
# Structural Database, then it will include bibliographic, chemical, 
# crystal, experimental, refinement or atomic coordinate data resulting 
# from the CCDC's data processing and validation procedures.
#
#######################################################################

data_KOJVEM
_chemical_formula_moiety         'C19 H17 F1 N2 O2'
_chemical_name_systematic        
N-(4-fluoro-2-(4-(4-methylphenyl)-5-oxa-6-azaspiro[2.4]hept-6-en-7-yl)phenyl)formamide
_symmetry_cell_setting           orthorhombic
_symmetry_space_group_name_H-M   'P b c a'
_symmetry_Int_Tables_number      61
_space_group_name_Hall           '-P 2ac 2ab'
loop_
_symmetry_equiv_pos_site_id
_symmetry_equiv_pos_as_xyz
1 x,y,z
2 1/2-x,-y,1/2+z
3 -x,1/2+y,1/2-z
4 1/2+x,1/2-y,-z
5 -x,-y,-z
6 1/2+x,y,1/2-z
7 x,1/2-y,1/2+z
8 1/2-x,1/2+y,z
_cell_length_a                   7.512(3)
_cell_length_b                   16.751(6)
_cell_length_c                   26.703(10)
_cell_angle_alpha                90
_cell_angle_beta                 90
_cell_angle_gamma                90
_cell_volume                     3360.13
_exptl_crystal_colour            colorless
_exptl_crystal_description       block
_cell_formula_units_Z            8
loop_
_atom_site_label
_atom_site_type_symbol
_atom_site_fract_x
_atom_site_fract_y
_atom_site_fract_z
F1 F 0.9704(2) 0.36702(8) 0.24308(4)
N1 N 0.4415(2) 0.35712(9) 0.08953(6)
N2 N 0.7917(2) 0.28313(9) 0.04999(6)
O1 O 0.31254(16) 0.40938(8) 0.06871(5)
O2 O 1.01429(19) 0.19928(9) 0.02439(5)
C1 C 0.7353(2) 0.35854(10) 0.12513(6)
C2 C 0.8427(2) 0.30470(10) 0.09890(6)
C3 C 0.9939(3) 0.27449(12) 0.12158(7)
H1 H 1.0665 0.2393 0.1040
C4 C 1.0382(3) 0.29587(13) 0.16983(8)
H2 H 1.1408 0.2760 0.1848
C5 C 0.9293(3) 0.34650(13) 0.19513(7)
C6 C 0.7812(3) 0.37906(12) 0.17382(7)
H3 H 0.7113 0.4148 0.1918
C7 C 0.5785(2) 0.39777(10) 0.10235(6)
C8 C 0.5643(2) 0.48355(11) 0.09034(7)
C9 C 0.6680(3) 0.54810(12) 0.11523(9)
H4 H 0.6101 0.5993 0.1198
H5 H 0.7483 0.5329 0.1420
C10 C 0.7165(3) 0.52464(13) 0.06368(9)
H6 H 0.8259 0.4948 0.0590
H7 H 0.6874 0.5613 0.0368
C11 C 0.3718(3) 0.49220(11) 0.07434(7)
H8 H 0.3665 0.5192 0.0418
C12 C 0.2543(2) 0.53530(10) 0.11103(7)
C13 C 0.1766(2) 0.60665(11) 0.09837(8)
H9 H 0.1913 0.6267 0.0662
C14 C 0.0767(3) 0.64929(12) 0.13279(10)
H10 H 0.0280 0.6981 0.1234
C15 C 0.0482(3) 0.62146(13) 0.17985(9)
C16 C 0.1235(3) 0.54966(14) 0.19248(8)
H11 H 0.1064 0.5295 0.2246
C17 C 0.2243(3) 0.50667(13) 0.15866(8)
H12 H 0.2725 0.4578 0.1682
C18 C -0.0629(3) 0.66775(16) 0.21702(11)
H13 H -0.0505 0.6444 0.2497
H14 H -0.1856 0.6661 0.2070
H15 H -0.0231 0.7222 0.2180
C19 C 0.8749(3) 0.23443(11) 0.01759(7)
H16 H 0.8200 0.2268 -0.0133
H17 H 0.689(3) 0.3029(11) 0.0386(7)
loop_
_geom_bond_atom_site_label_1
_geom_bond_atom_site_label_2
_geom_bond_site_symmetry_1
_geom_bond_site_symmetry_2
F1 C5 1_555 1_555
N1 O1 1_555 1_555
N2 C2 1_555 1_555
O1 C11 1_555 1_555
O2 C19 1_555 1_555
C1 C2 1_555 1_555
C2 C3 1_555 1_555
C3 H1 1_555 1_555
C4 C3 1_555 1_555
H2 C4 1_555 1_555
C5 C4 1_555 1_555
C6 C1 1_555 1_555
H3 C6 1_555 1_555
C7 N1 1_555 1_555
C8 C7 1_555 1_555
C9 C8 1_555 1_555
H4 C9 1_555 1_555
H5 C9 1_555 1_555
C10 C8 1_555 1_555
H6 C10 1_555 1_555
H7 C10 1_555 1_555
C11 C8 1_555 1_555
H8 C11 1_555 1_555
C12 C11 1_555 1_555
C13 C12 1_555 1_555
H9 C13 1_555 1_555
C14 C13 1_555 1_555
H10 C14 1_555 1_555
C15 C14 1_555 1_555
C16 C15 1_555 1_555
H11 C16 1_555 1_555
C17 C12 1_555 1_555
H12 C17 1_555 1_555
C18 C15 1_555 1_555
H13 C18 1_555 1_555
H14 C18 1_555 1_555
H15 C18 1_555 1_555
C19 N2 1_555 1_555
H16 C19 1_555 1_555
H17 N2 1_555 1_555
C1 C7 1_555 1_555
C5 C6 1_555 1_555
C9 C10 1_555 1_555
C16 C17 1_555 1_555

#END
