
#######################################################################
#
#                 Cambridge Crystallographic Data Centre
#                                CCDC 
#
#######################################################################
#
# If this CIF has been generated from an entry in the Cambridge 
# Structural Database, then it will include bibliographic, chemical, 
# crystal, experimental, refinement or atomic coordinate data resulting 
# from the CCDC's data processing and validation procedures.
#
#######################################################################

data_KOJWEN
_chemical_formula_moiety         'C23 H23 N1 O6'
_chemical_name_systematic        
"ethyl 1'-acetyl-2'-oxo-5-(2-oxopropyl)-1',2',4,7-tetrahydro-5H-spiro[1-benzofuran-6,3'-indole]-7-carboxylate"
_symmetry_cell_setting           orthorhombic
_symmetry_space_group_name_H-M   'P 21 21 21'
_symmetry_Int_Tables_number      19
_space_group_name_Hall           'P 2ac 2ab'
loop_
_symmetry_equiv_pos_site_id
_symmetry_equiv_pos_as_xyz
1 x,y,z
2 1/2-x,-y,1/2+z
3 1/2+x,1/2-y,-z
4 -x,1/2+y,1/2-z
_cell_length_a                   7.42320(10)
_cell_length_b                   16.13800(10)
_cell_length_c                   16.73780(10)
_cell_angle_alpha                90
_cell_angle_beta                 90
_cell_angle_gamma                90
_cell_volume                     2005.11
_exptl_crystal_colour            colorless
_exptl_crystal_description       block
_cell_formula_units_Z            4
loop_
_atom_site_label
_atom_site_type_symbol
_atom_site_fract_x
_atom_site_fract_y
_atom_site_fract_z
O1 O 0.37081(15) 0.87789(6) 0.51394(5)
O2 O -0.01091(15) 1.14059(6) 0.57362(6)
O3 O 0.04324(14) 0.88738(6) 0.64144(6)
O4 O -0.08170(16) 1.00472(7) 0.68734(7)
N1 N 0.44629(16) 0.84490(7) 0.64518(6)
O5 O 0.76650(19) 0.94291(9) 0.50743(7)
O6 O 0.5263(2) 0.72087(7) 0.69616(8)
C1 C 0.35595(18) 0.98408(7) 0.61704(7)
C2 C 0.37285(18) 0.96880(8) 0.70590(7)
C3 C 0.6619(2) 0.97847(9) 0.46458(9)
C4 C 0.50763(18) 1.04437(8) 0.58702(7)
H1 H 0.6211 1.0256 0.6109
C5 C 0.39082(18) 0.89730(8) 0.58268(7)
C6 C 0.5331(2) 1.04327(8) 0.49599(7)
H2 H 0.4164 1.0345 0.4712
H3 H 0.5758 1.0974 0.4793
C7 C 0.42674(18) 0.88733(9) 0.71981(8)
C8 C 0.3394(2) 1.02113(9) 0.76935(8)
H4 H 0.3021 1.0754 0.7604
C9 C 0.16136(18) 1.01088(8) 0.59092(8)
H5 H 0.1408 0.9911 0.5363
C10 C 0.2830(2) 1.15814(8) 0.60088(8)
C11 C 0.1503(2) 1.10241(8) 0.59059(8)
C12 C 0.4483(2) 0.85728(10) 0.79644(8)
H6 H 0.4832 0.8027 0.8055
C13 C 0.3623(2) 0.99188(10) 0.84668(8)
H7 H 0.3413 1.0268 0.8899
C14 C 0.4983(2) 0.76146(9) 0.63720(9)
C15 C 0.6557(3) 0.96237(14) 0.37645(10)
H8 H 0.6761 1.0132 0.3481
H9 H 0.5397 0.9405 0.3623
H10 H 0.7475 0.9230 0.3624
C16 C 0.4732(2) 1.13309(8) 0.61733(8)
H11 H 0.4962 1.1357 0.6743
H12 H 0.5549 1.1712 0.5909
C17 C 0.02414(19) 0.96961(9) 0.64553(8)
C18 C 0.4160(3) 0.91125(11) 0.85965(9)
H13 H 0.4311 0.8925 0.9118
C19 C 0.5240(3) 0.72690(10) 0.55572(11)
H14 H 0.5908 0.6761 0.5591
H15 H 0.5892 0.7660 0.5235
H16 H 0.4086 0.7163 0.5319
C20 C 0.1995(3) 1.23808(9) 0.59090(10)
H17 H 0.2553 1.2895 0.5949
C21 C 0.0263(3) 1.22370(10) 0.57470(11)
H18 H -0.0585 1.2650 0.5653
C22 C -0.0620(3) 0.83943(12) 0.69817(14)
H19 H -0.1895 0.8459 0.6871
H20 H -0.0388 0.8587 0.7521
C23 C -0.0098(3) 0.75098(12) 0.69045(14)
H21 H -0.0249 0.7336 0.6360
H22 H -0.0847 0.7178 0.7246
H23 H 0.1140 0.7444 0.7058
loop_
_geom_bond_atom_site_label_1
_geom_bond_atom_site_label_2
_geom_bond_site_symmetry_1
_geom_bond_site_symmetry_2
O1 C5 1_555 1_555
O2 C11 1_555 1_555
O3 C17 1_555 1_555
O4 C17 1_555 1_555
N1 C5 1_555 1_555
O5 C3 1_555 1_555
O6 C14 1_555 1_555
C1 C2 1_555 1_555
C2 C7 1_555 1_555
C3 C6 1_555 1_555
C4 C1 1_555 1_555
H1 C4 1_555 1_555
C5 C1 1_555 1_555
C6 C4 1_555 1_555
H2 C6 1_555 1_555
H3 C6 1_555 1_555
C7 N1 1_555 1_555
C8 C2 1_555 1_555
H4 C8 1_555 1_555
C9 C1 1_555 1_555
H5 C9 1_555 1_555
C10 C11 1_555 1_555
C11 C9 1_555 1_555
C12 C7 1_555 1_555
H6 C12 1_555 1_555
C13 C8 1_555 1_555
H7 C13 1_555 1_555
C14 N1 1_555 1_555
C15 C3 1_555 1_555
H8 C15 1_555 1_555
H9 C15 1_555 1_555
H10 C15 1_555 1_555
C16 C4 1_555 1_555
H11 C16 1_555 1_555
H12 C16 1_555 1_555
C17 C9 1_555 1_555
C18 C12 1_555 1_555
H13 C18 1_555 1_555
C19 C14 1_555 1_555
H14 C19 1_555 1_555
H15 C19 1_555 1_555
H16 C19 1_555 1_555
C20 C10 1_555 1_555
H17 C20 1_555 1_555
C21 O2 1_555 1_555
H18 C21 1_555 1_555
C22 O3 1_555 1_555
H19 C22 1_555 1_555
H20 C22 1_555 1_555
C23 C22 1_555 1_555
H21 C23 1_555 1_555
H22 C23 1_555 1_555
H23 C23 1_555 1_555
C10 C16 1_555 1_555
C13 C18 1_555 1_555
C20 C21 1_555 1_555

#END
