
#######################################################################
#
#                 Cambridge Crystallographic Data Centre
#                                CCDC 
#
#######################################################################
#
# If this CIF has been generated from an entry in the Cambridge 
# Structural Database, then it will include bibliographic, chemical, 
# crystal, experimental, refinement or atomic coordinate data resulting 
# from the CCDC's data processing and validation procedures.
#
#######################################################################

data_KOKBOD
_chemical_formula_moiety         'C38 H64 Li2 N2 O2 Si3'
_chemical_name_systematic        
(\m~2~-\h^5^,\h^5^-1,1-bis(Diethylamino)-3,4-diphenyl-2,5-bis(trimethylsilyl)-2,5-dihydro-1H-silole-diyl)-bis(tetrahydrofuran)-di-lithium
_symmetry_cell_setting           triclinic
_symmetry_space_group_name_H-M   'P -1'
_symmetry_Int_Tables_number      2
_space_group_name_Hall           '-P 1'
loop_
_symmetry_equiv_pos_site_id
_symmetry_equiv_pos_as_xyz
1 x,y,z
2 -x,-y,-z
_cell_length_a                   20.718(3)
_cell_length_b                   21.050(3)
_cell_length_c                   22.539(4)
_cell_angle_alpha                82.093(12)
_cell_angle_beta                 70.700(9)
_cell_angle_gamma                63.880(9)
_cell_volume                     8329.35
_cell_formula_units_Z            8
loop_
_atom_site_label
_atom_site_type_symbol
_atom_site_fract_x
_atom_site_fract_y
_atom_site_fract_z
Si1 Si -0.02276(4) 0.28484(4) 0.17592(3)
Si2 Si 0.07787(4) 0.37028(4) 0.08856(4)
Si3 Si -0.09108(4) 0.17261(4) 0.16650(4)
Li1 Li 0.0909(3) 0.1697(3) 0.1611(2)
Li2 Li -0.0274(2) 0.2938(2) 0.0598(2)
N1 N 0.02187(12) 0.24394(12) 0.23670(10)
N2 N -0.10471(12) 0.35808(12) 0.21116(10)
O1 O 0.16463(10) 0.08096(10) 0.17454(9)
O2 O -0.07425(11) 0.33949(11) -0.00307(10)
C1 C 0.04920(13) 0.29740(13) 0.10760(12)
C2 C 0.08257(13) 0.23318(13) 0.06701(11)
C3 C 0.04252(14) 0.19130(13) 0.08138(11)
C4 C -0.02563(13) 0.21449(13) 0.13777(12)
C5 C 0.15661(15) 0.36388(15) 0.11728(14)
H1 H 0.1395 0.3667 0.1633
H2 H 0.1707 0.4030 0.1000
H3 H 0.2005 0.3187 0.1034
C6 C -0.00319(15) 0.45577(14) 0.12482(13)
H4 H -0.0406 0.4720 0.1021
H5 H 0.0156 0.4917 0.1222
H6 H -0.0267 0.4480 0.1690
C7 C 0.10962(16) 0.38832(15) 0.00161(12)
H7 H 0.1590 0.3504 -0.0182
H8 H 0.1135 0.4337 -0.0042
H9 H 0.0728 0.3902 -0.0177
C8 C -0.15978(16) 0.20951(17) 0.24626(14)
H10 H -0.1358 0.1860 0.2790
H11 H -0.2047 0.2012 0.2535
H12 H -0.1744 0.2605 0.2476
C9 C -0.04425(17) 0.07424(15) 0.17563(16)
H13 H -0.0094 0.0524 0.1349
H14 H -0.0827 0.0557 0.1907
H15 H -0.0162 0.0633 0.2060
C10 C -0.15473(16) 0.18689(16) 0.11781(14)
H16 H -0.1761 0.2369 0.1064
H17 H -0.1957 0.1735 0.1422
H18 H -0.1256 0.1577 0.0795
C11 C 0.15248(14) 0.21716(13) 0.01207(12)
C12 C 0.21961(14) 0.20850(13) 0.02051(12)
H19 H 0.2209 0.2121 0.0616
C13 C 0.28461(15) 0.19473(14) -0.03004(12)
H20 H 0.3295 0.1894 -0.0231
C14 C 0.28468(16) 0.18872(15) -0.09024(13)
H21 H 0.3294 0.1786 -0.1247
C15 C 0.21800(16) 0.19776(15) -0.09946(13)
H22 H 0.2171 0.1945 -0.1408
C16 C 0.15255(15) 0.21158(14) -0.04906(12)
H23 H 0.1077 0.2172 -0.0563
C17 C 0.06452(14) 0.12886(14) 0.04220(12)
C18 C 0.12971(15) 0.06711(14) 0.03949(13)
H24 H 0.1626 0.0652 0.0614
C19 C 0.14759(17) 0.00862(16) 0.00557(14)
H25 H 0.1920 -0.0332 0.0050
C20 C 0.10174(18) 0.01052(18) -0.02719(16)
H26 H 0.1137 -0.0302 -0.0496
C21 C 0.03756(18) 0.07205(18) -0.02769(15)
H27 H 0.0063 0.0743 -0.0514
C22 C 0.02015(16) 0.12996(16) 0.00705(14)
H28 H -0.0237 0.1720 0.0068
C23 C 0.05131(15) 0.28627(16) 0.25827(13)
H29 H 0.0266 0.2954 0.3040
H30 H 0.0377 0.3325 0.2368
C24 C 0.13656(16) 0.25016(17) 0.24551(14)
H31 H 0.1499 0.2072 0.2707
H32 H 0.1533 0.2824 0.2568
H33 H 0.1613 0.2377 0.2008
C25 C -0.00602(16) 0.19997(16) 0.28617(13)
H34 H -0.0192 0.1699 0.2664
H35 H -0.0530 0.2318 0.3168
C26 C 0.04871(17) 0.15230(16) 0.32198(14)
H36 H 0.0974 0.1239 0.2920
H37 H 0.0283 0.1208 0.3493
H38 H 0.0556 0.1815 0.3476
C27 C -0.13568(16) 0.37498(15) 0.27843(13)
H39 H -0.1062 0.3347 0.3010
H40 H -0.1882 0.3797 0.2931
C28 C -0.13577(18) 0.44193(17) 0.29656(15)
H41 H -0.0844 0.4389 0.2809
H42 H -0.1541 0.4471 0.3424
H43 H -0.1689 0.4830 0.2780
C29 C -0.15081(15) 0.40744(15) 0.17389(14)
H44 H -0.1208 0.3992 0.1290
H45 H -0.1625 0.4561 0.1847
C30 C -0.22435(18) 0.40286(18) 0.18228(19)
H46 H -0.2138 0.3547 0.1725
H47 H -0.2502 0.4362 0.1539
H48 H -0.2566 0.4148 0.2259
C31 C 0.15591(18) 0.01678(16) 0.19770(16)
H49 H 0.1574 -0.0091 0.1634
H50 H 0.1074 0.0276 0.2314
C32 C 0.2209(2) -0.0258(2) 0.2225(2)
H51 H 0.2103 -0.0107 0.2658
H52 H 0.2336 -0.0769 0.2223
C33 C 0.2816(2) -0.0093(2) 0.1776(2)
H53 H 0.3040 -0.0380 0.1386
H54 H 0.3218 -0.0181 0.1962
C34 C 0.24139(17) 0.06920(17) 0.16437(18)
H55 H 0.2439 0.0987 0.1934
H56 H 0.2643 0.0804 0.1206
C35 C -0.0671(2) 0.3996(2) -0.0370(2)
H57 H -0.0225 0.3848 -0.0749
H58 H -0.0619 0.4296 -0.0103
C36 C -0.1372(3) 0.4385(2) -0.0547(3)
H59 H -0.1706 0.4815 -0.0282
H60 H -0.1251 0.4532 -0.0992
C37 C -0.17401(19) 0.3940(2) -0.0463(2)
H61 H -0.1743 0.3826 -0.0873
H62 H -0.2268 0.4175 -0.0192
C38 C -0.1320(2) 0.3293(2) -0.0165(2)
H63 H -0.1662 0.3204 0.0229
H64 H -0.1092 0.2882 -0.0450
Si4 Si 0.48375(4) 0.28952(4) 0.16016(3)
Si5 Si 0.58788(4) 0.36695(4) 0.06478(4)
Si6 Si 0.41653(4) 0.17086(4) 0.16144(4)
Li3 Li 0.5743(3) 0.1617(3) 0.1711(2)
Li4 Li 0.4850(3) 0.2836(3) 0.0440(2)
N3 N 0.52462(12) 0.25910(12) 0.22372(10)
N4 N 0.39556(12) 0.35762(11) 0.19173(10)
O3 O 0.65473(10) 0.08112(10) 0.18667(10)
O4 O 0.43621(12) 0.32418(11) -0.01818(10)
C39 C 0.55776(14) 0.29595(13) 0.09075(12)
C40 C 0.59337(14) 0.22616(14) 0.05831(12)
C41 C 0.55227(14) 0.18549(13) 0.07618(12)
C42 C 0.48102(13) 0.21408(13) 0.12955(12)
C43 C 0.50713(15) 0.45435(14) 0.09708(15)
H65 H 0.4659 0.4643 0.0799
H66 H 0.5244 0.4921 0.0850
H67 H 0.4891 0.4520 0.1430
C44 C 0.66831(15) 0.36398(15) 0.08908(15)
H68 H 0.6548 0.3639 0.1351
H69 H 0.6780 0.4056 0.0727
H70 H 0.7138 0.3210 0.0720
C45 C 0.62146(16) 0.37625(16) -0.02370(13)
H71 H 0.6705 0.3368 -0.0412
H72 H 0.6264 0.4210 -0.0337
H73 H 0.5848 0.3758 -0.0420
C46 C 0.35050(16) 0.20598(16) 0.24207(13)
H74 H 0.3784 0.1879 0.2729
H75 H 0.3098 0.1905 0.2532
H76 H 0.3290 0.2578 0.2420
C47 C 0.35130(15) 0.18380(16) 0.11459(15)
H77 H 0.3232 0.2345 0.1086
H78 H 0.3158 0.1632 0.1373
H79 H 0.3810 0.1604 0.0735
C48 C 0.46418(17) 0.07208(15) 0.17140(16)
H80 H 0.4979 0.0498 0.1306
H81 H 0.4259 0.0535 0.1882
H82 H 0.4935 0.0617 0.2007
C49 C 0.66632(14) 0.20417(13) 0.00629(12)
C50 C 0.73093(14) 0.19884(14) 0.01700(13)
H83 H 0.7283 0.2079 0.0581
C51 C 0.79887(16) 0.18077(15) -0.03048(14)
H84 H 0.8420 0.1779 -0.0218
C52 C 0.80407(17) 0.16693(16) -0.09054(14)
H85 H 0.8505 0.1547 -0.1234
C53 C 0.74091(17) 0.17109(16) -0.10225(14)
H86 H 0.7442 0.1611 -0.1433
C54 C 0.67282(16) 0.18971(15) -0.05462(13)
H87 H 0.6299 0.1927 -0.0636
C55 C 0.57550(15) 0.11823(14) 0.04237(13)
C56 C 0.63899(15) 0.05647(14) 0.04629(14)
H88 H 0.6702 0.0576 0.0686
C57 C 0.65698(18) -0.00635(16) 0.01810(16)
H89 H 0.6997 -0.0478 0.0219
C58 C 0.61315(18) -0.00877(17) -0.01540(17)
H90 H 0.6249 -0.0521 -0.0337
C59 C 0.55175(18) 0.05225(18) -0.02223(15)
H91 H 0.5220 0.0514 -0.0462
C60 C 0.53433(16) 0.11480(16) 0.00654(14)
H92 H 0.4927 0.1566 0.0013
C61 C 0.59027(16) 0.26875(15) 0.22431(13)
H93 H 0.6247 0.2627 0.1808
H94 H 0.6174 0.2306 0.2498
C62 C 0.57380(17) 0.33985(16) 0.24987(14)
H95 H 0.5503 0.3781 0.2233
H96 H 0.6211 0.3400 0.2497
H97 H 0.5395 0.3469 0.2929
C63 C 0.47758(17) 0.25129(16) 0.28716(13)
H98 H 0.4264 0.2630 0.2855
H99 H 0.4728 0.2858 0.3159
C64 C 0.5088(2) 0.17748(18) 0.31390(15)
H100 H 0.5112 0.1432 0.2869
H101 H 0.4758 0.1763 0.3564
H102 H 0.5596 0.1654 0.3156
C65 C 0.38206(15) 0.40902(15) 0.23687(13)
H103 H 0.3778 0.4541 0.2148
H104 H 0.4264 0.3916 0.2524
C66 C 0.31181(18) 0.42383(18) 0.29308(15)
H105 H 0.2669 0.4473 0.2789
H106 H 0.3099 0.4546 0.3231
H107 H 0.3134 0.3791 0.3134
C67 C 0.33296(15) 0.37559(15) 0.16710(15)
H108 H 0.2881 0.3786 0.2027
H109 H 0.3459 0.3365 0.1393
C68 C 0.31149(17) 0.44485(16) 0.13027(16)
H110 H 0.2975 0.4843 0.1574
H111 H 0.2686 0.4525 0.1162
H112 H 0.3546 0.4419 0.0937
C69 C 0.72673(16) 0.08321(17) 0.17461(17)
H113 H 0.7201 0.1258 0.1943
H114 H 0.7511 0.0843 0.1288
C70 C 0.7730(2) 0.0183(2) 0.2022(2)
H115 H 0.8268 0.0005 0.1770
H116 H 0.7680 0.0271 0.2459
C71 C 0.7424(2) -0.0315(2) 0.2007(3)
H117 H 0.7482 -0.0651 0.2360
H118 H 0.7691 -0.0588 0.1608
C72 C 0.66130(17) 0.01094(16) 0.20638(17)
H119 H 0.6457 -0.0088 0.1790
H120 H 0.6295 0.0116 0.2503
C73 C 0.44175(18) 0.38473(17) -0.05414(16)
H121 H 0.4867 0.3697 -0.0918
H122 H 0.4455 0.4167 -0.0284
C74 C 0.3705(2) 0.4213(2) -0.0729(2)
H123 H 0.3459 0.4724 -0.0623
H124 H 0.3819 0.4160 -0.1187
C75 C 0.3218(2) 0.3873(2) -0.0378(2)
H125 H 0.2930 0.3836 -0.0635
H126 H 0.2857 0.4144 0.0010
C76 C 0.3727(2) 0.3167(2) -0.02259(19)
H127 H 0.3474 0.3003 0.0178
H128 H 0.3886 0.2822 -0.0560
Si7 Si -0.03167(4) 0.82419(4) 0.38090(4)
Si8 Si 0.08703(4) 0.77098(5) 0.46672(4)
Si9 Si -0.05467(4) 0.77367(4) 0.25877(4)
Li5 Li 0.0964(3) 0.7284(3) 0.3131(2)
Li6 Li -0.0614(3) 0.7479(3) 0.4745(2)
N5 N -0.02118(13) 0.90203(12) 0.35807(11)
N6 N -0.12262(12) 0.85016(12) 0.43979(11)
O5 O 0.19324(11) 0.69775(11) 0.25076(10)
O6 O -0.11116(11) 0.70292(11) 0.53864(9)
C77 C 0.04138(14) 0.75778(14) 0.41526(12)
C78 C 0.04814(14) 0.68797(14) 0.39923(12)
C79 C 0.01144(13) 0.69045(14) 0.35655(12)
C80 C -0.02425(14) 0.76042(14) 0.32852(12)
C81 C 0.08459(17) 0.71600(17) 0.54027(13)
H129 H 0.0324 0.7239 0.5631
H130 H 0.1053 0.7297 0.5671
H131 H 0.1149 0.6658 0.5289
C82 C 0.18979(16) 0.75313(19) 0.43048(15)
H132 H 0.2200 0.7025 0.4210
H133 H 0.2066 0.7675 0.4601
H134 H 0.1960 0.7801 0.3916
C83 C 0.04193(18) 0.86538(16) 0.49459(15)
H135 H 0.0357 0.8972 0.4588
H136 H 0.0741 0.8727 0.5139
H137 H -0.0076 0.8754 0.5256
C84 C -0.06620(17) 0.86243(17) 0.22317(15)
H138 H -0.0990 0.8993 0.2555
H139 H -0.0889 0.8707 0.1894
H140 H -0.0167 0.8637 0.2060
C85 C 0.0138(2) 0.70800(19) 0.19314(15)
H141 H 0.0632 0.7090 0.1817
H142 H -0.0048 0.7205 0.1565
H143 H 0.0184 0.6604 0.2071
C86 C -0.14735(18) 0.76998(18) 0.26917(16)
H144 H -0.1437 0.7226 0.2830
H145 H -0.1587 0.7803 0.2291
H146 H -0.1877 0.8051 0.3008
C87 C 0.09225(15) 0.61995(14) 0.42649(13)
C88 C 0.17024(16) 0.59478(16) 0.41322(14)
H147 H 0.1960 0.6197 0.3845
C89 C 0.21062(18) 0.53419(17) 0.44116(16)
H148 H 0.2636 0.5180 0.4315
C90 C 0.1747(2) 0.49710(18) 0.48277(17)
H149 H 0.2025 0.4561 0.5027
C91 C 0.0985(2) 0.51972(18) 0.49531(17)
H150 H 0.0735 0.4937 0.5233
C92 C 0.05741(17) 0.58066(16) 0.46717(15)
H151 H 0.0047 0.5955 0.4760
C93 C 0.01446(15) 0.62501(14) 0.33493(12)
C94 C 0.08323(16) 0.57142(15) 0.30222(14)
H152 H 0.1290 0.5755 0.2957
C95 C 0.08528(18) 0.51251(17) 0.27924(16)
H153 H 0.1322 0.4771 0.2564
C96 C 0.01966(19) 0.50484(17) 0.28920(19)
H154 H 0.0215 0.4644 0.2732
C97 C -0.04872(18) 0.55625(17) 0.32253(17)
H155 H -0.0940 0.5509 0.3303
C98 C -0.05079(16) 0.61586(16) 0.34450(14)
H156 H -0.0981 0.6514 0.3667
C99 C 0.05453(17) 0.89916(16) 0.32726(14)
H157 H 0.0910 0.8585 0.3442
H158 H 0.0553 0.9427 0.3384
C100 C 0.08097(17) 0.89214(17) 0.25557(14)
H159 H 0.0830 0.8480 0.2439
H160 H 0.1313 0.8916 0.2387
H161 H 0.0456 0.9323 0.2381
C101 C -0.08281(17) 0.96949(15) 0.35032(15)
H162 H -0.1311 0.9649 0.3682
H163 H -0.0753 0.9791 0.3049
C102 C -0.0886(2) 1.03272(17) 0.38186(19)
H164 H -0.0919 1.0222 0.4262
H165 H -0.1338 1.0747 0.3788
H166 H -0.0438 1.0416 0.3607
C103 C -0.14545(17) 0.90318(16) 0.48781(13)
H167 H -0.1896 0.9458 0.4823
H168 H -0.1037 0.9171 0.4810
C104 C -0.1657(2) 0.87726(18) 0.55542(14)
H169 H -0.2073 0.8637 0.5628
H170 H -0.1811 0.9153 0.5848
H171 H -0.1216 0.8363 0.5620
C105 C -0.18653(15) 0.84483(16) 0.43019(14)
H172 H -0.2188 0.8375 0.4716
H173 H -0.1668 0.8022 0.4042
C106 C -0.23630(17) 0.90813(18) 0.39889(17)
H174 H -0.2540 0.9515 0.4225
H175 H -0.2798 0.9010 0.3985
H176 H -0.2070 0.9125 0.3556
C107 C 0.24968(16) 0.71728(17) 0.25438(14)
H177 H 0.2555 0.7083 0.2970
H178 H 0.2356 0.7682 0.2451
C108 C 0.32251(16) 0.67252(16) 0.20609(14)
H179 H 0.3322 0.6992 0.1669
H180 H 0.3659 0.6558 0.2227
C109 C 0.30792(19) 0.61235(17) 0.19524(16)
H181 H 0.3167 0.5761 0.2283
H182 H 0.3400 0.5900 0.1536
C110 C 0.22546(19) 0.64834(18) 0.19859(16)
H183 H 0.2185 0.6734 0.1591
H184 H 0.2028 0.6140 0.2074
C111 C -0.1036(2) 0.6806(2) 0.60060(15)
H185 H -0.1211 0.7218 0.6276
H186 H -0.0504 0.6490 0.5980
C112 C -0.1534(3) 0.6412(2) 0.62598(19)
H187 H -0.1234 0.5898 0.6177
H188 H -0.1778 0.6491 0.6718
C113 C -0.2100(3) 0.6704(3) 0.5924(2)
H189 H -0.2527 0.7145 0.6127
H190 H -0.2296 0.6359 0.5900
C114 C -0.16599(19) 0.6843(2) 0.52931(16)
H191 H -0.1406 0.6416 0.5022
H192 H -0.1996 0.7236 0.5089
Si10 Si 0.49482(4) 0.81509(4) 0.38933(4)
Si11 Si 0.61924(4) 0.72989(5) 0.46954(4)
Si12 Si 0.44787(4) 0.78820(5) 0.27103(4)
Li7 Li 0.6048(3) 0.7050(2) 0.3221(2)
Li8 Li 0.4426(3) 0.7510(3) 0.4825(2)
N7 N 0.52816(13) 0.87960(12) 0.36323(11)
N8 N 0.40615(13) 0.85705(13) 0.44968(11)
O7 O 0.69835(10) 0.65270(10) 0.26260(9)
O8 O 0.37310(11) 0.72359(11) 0.54717(8)
C115 C 0.55754(14) 0.73676(14) 0.42456(11)
C116 C 0.54584(13) 0.67638(14) 0.40973(12)
C117 C 0.50390(13) 0.69060(14) 0.36793(12)
C118 C 0.48191(14) 0.76234(14) 0.33969(13)
C119 C 0.60130(19) 0.81914(17) 0.49454(14)
H193 H 0.6035 0.8500 0.4578
H194 H 0.6398 0.8140 0.5133
H195 H 0.5513 0.8401 0.5255
C120 C 0.72331(15) 0.68920(17) 0.42546(13)
H196 H 0.7371 0.6434 0.4077
H197 H 0.7522 0.6823 0.4544
H198 H 0.7346 0.7207 0.3915
C121 C 0.60805(16) 0.67792(17) 0.54411(13)
H199 H 0.5548 0.6972 0.5695
H200 H 0.6384 0.6813 0.5680
H201 H 0.6251 0.6282 0.5338
C122 C 0.45608(19) 0.87142(18) 0.23474(17)
H202 H 0.4258 0.9102 0.2656
H203 H 0.4377 0.8836 0.1980
H204 H 0.5090 0.8638 0.2217
C123 C 0.50302(18) 0.72095(19) 0.20518(14)
H205 H 0.5554 0.7152 0.1899
H206 H 0.4806 0.7372 0.1708
H207 H 0.5018 0.6755 0.2206
C124 C 0.34647(16) 0.80691(17) 0.28310(15)
H208 H 0.3386 0.7642 0.2985
H209 H 0.3352 0.8209 0.2431
H210 H 0.3131 0.8453 0.3140
C125 C 0.57914(14) 0.60502(14) 0.43804(12)
C126 C 0.65629(15) 0.56248(15) 0.41742(13)
H211 H 0.6875 0.5769 0.3824
C127 C 0.68838(16) 0.49948(15) 0.44707(13)
H212 H 0.7414 0.4720 0.4330
C128 C 0.64415(16) 0.47644(15) 0.49670(13)
H213 H 0.6665 0.4337 0.5175
C129 C 0.56712(16) 0.51585(15) 0.51606(14)
H214 H 0.5359 0.4999 0.5497
C130 C 0.53534(15) 0.57883(14) 0.48625(12)
H215 H 0.4821 0.6049 0.4991
C131 C 0.48773(14) 0.63508(14) 0.34939(12)
C132 C 0.54531(15) 0.57147(15) 0.32068(13)
H216 H 0.5964 0.5625 0.3136
C133 C 0.52888(17) 0.52114(16) 0.30236(15)
H217 H 0.5689 0.4785 0.2826
C134 C 0.45514(17) 0.53251(16) 0.31262(15)
H218 H 0.4442 0.4979 0.3001
C135 C 0.39764(16) 0.59451(16) 0.34113(14)
H219 H 0.3467 0.6028 0.3484
C136 C 0.41357(15) 0.64518(15) 0.35939(12)
H220 H 0.3731 0.6876 0.3791
C137 C 0.4798(2) 0.95464(16) 0.35786(16)
H221 H 0.4264 0.9623 0.3764
H222 H 0.4881 0.9667 0.3127
C138 C 0.4934(3) 1.00469(19) 0.38990(19)
H223 H 0.4945 0.9880 0.4325
H224 H 0.4527 1.0523 0.3921
H225 H 0.5418 1.0060 0.3657
C139 C 0.60833(16) 0.86029(16) 0.33063(13)
H226 H 0.6382 0.8138 0.3463
H227 H 0.6222 0.8956 0.3416
C140 C 0.63037(17) 0.85593(16) 0.25912(13)
H228 H 0.6217 0.8178 0.2474
H229 H 0.6838 0.8462 0.2409
H230 H 0.5997 0.9010 0.2431
C141 C 0.33260(19) 0.8710(2) 0.44098(16)
H231 H 0.3403 0.8299 0.4183
H232 H 0.2963 0.8728 0.4831
C142 C 0.2972(2) 0.9355(2) 0.4072(2)
H233 H 0.2916 0.9768 0.4274
H234 H 0.2474 0.9407 0.4083
H235 H 0.3290 0.9320 0.3634
C143 C 0.39907(19) 0.90325(16) 0.49650(15)
H236 H 0.3659 0.9525 0.4887
H237 H 0.4495 0.9013 0.4904
C144 C 0.3678(2) 0.88543(18) 0.56443(15)
H238 H 0.3194 0.8839 0.5705
H239 H 0.3603 0.9217 0.5922
H240 H 0.4034 0.8392 0.5744
C145 C 0.76703(16) 0.66186(17) 0.25062(15)
H241 H 0.7903 0.6401 0.2846
H242 H 0.7558 0.7128 0.2487
C146 C 0.81950(17) 0.62619(17) 0.18867(15)
H243 H 0.8593 0.5799 0.1950
H244 H 0.8436 0.6562 0.1623
C147 C 0.76860(18) 0.61678(17) 0.15908(14)
H245 H 0.7965 0.5749 0.1308
H246 H 0.7455 0.6592 0.1351
C148 C 0.70949(16) 0.60645(16) 0.21555(13)
H247 H 0.6621 0.6196 0.2056
H248 H 0.7277 0.5567 0.2296
C149 C 0.37817(18) 0.69582(18) 0.60895(13)
H249 H 0.3552 0.7348 0.6399
H250 H 0.4315 0.6673 0.6076
C150 C 0.33512(17) 0.65016(17) 0.62598(14)
H251 H 0.3137 0.6479 0.6721
H252 H 0.3678 0.6015 0.6089
C151 C 0.27295(16) 0.68884(17) 0.59479(14)
H253 H 0.2544 0.6563 0.5857
H254 H 0.2300 0.7287 0.6213
C152 C 0.31351(17) 0.71487(19) 0.53516(15)
H255 H 0.3346 0.6802 0.5006
H256 H 0.2782 0.7605 0.5227
loop_
_geom_bond_atom_site_label_1
_geom_bond_atom_site_label_2
_geom_bond_site_symmetry_1
_geom_bond_site_symmetry_2
Si1 Li1 1_555 1_555
Si2 C1 1_555 1_555
Si3 C4 1_555 1_555
Li1 N1 1_555 1_555
Li2 Si1 1_555 1_555
N1 Si1 1_555 1_555
N2 Si1 1_555 1_555
O1 Li1 1_555 1_555
O2 Li2 1_555 1_555
C1 Si1 1_555 1_555
C2 Li1 1_555 1_555
C3 Li1 1_555 1_555
C4 Si1 1_555 1_555
C5 Si2 1_555 1_555
H1 C5 1_555 1_555
H2 C5 1_555 1_555
H3 C5 1_555 1_555
C6 Si2 1_555 1_555
H4 C6 1_555 1_555
H5 C6 1_555 1_555
H6 C6 1_555 1_555
C7 Si2 1_555 1_555
H7 C7 1_555 1_555
H8 C7 1_555 1_555
H9 C7 1_555 1_555
C8 Si3 1_555 1_555
H10 C8 1_555 1_555
H11 C8 1_555 1_555
H12 C8 1_555 1_555
C9 Si3 1_555 1_555
H13 C9 1_555 1_555
H14 C9 1_555 1_555
H15 C9 1_555 1_555
C10 Si3 1_555 1_555
H16 C10 1_555 1_555
H17 C10 1_555 1_555
H18 C10 1_555 1_555
C11 C2 1_555 1_555
C12 C11 1_555 1_555
H19 C12 1_555 1_555
C13 C12 1_555 1_555
H20 C13 1_555 1_555
C14 C13 1_555 1_555
H21 C14 1_555 1_555
C15 C14 1_555 1_555
H22 C15 1_555 1_555
C16 C11 1_555 1_555
H23 C16 1_555 1_555
C17 C3 1_555 1_555
C18 C17 1_555 1_555
H24 C18 1_555 1_555
C19 C18 1_555 1_555
H25 C19 1_555 1_555
C20 C19 1_555 1_555
H26 C20 1_555 1_555
C21 C20 1_555 1_555
H27 C21 1_555 1_555
C22 C17 1_555 1_555
H28 C22 1_555 1_555
C23 N1 1_555 1_555
H29 C23 1_555 1_555
H30 C23 1_555 1_555
C24 C23 1_555 1_555
H31 C24 1_555 1_555
H32 C24 1_555 1_555
H33 C24 1_555 1_555
C25 N1 1_555 1_555
H34 C25 1_555 1_555
H35 C25 1_555 1_555
C26 C25 1_555 1_555
H36 C26 1_555 1_555
H37 C26 1_555 1_555
H38 C26 1_555 1_555
C27 N2 1_555 1_555
H39 C27 1_555 1_555
H40 C27 1_555 1_555
C28 C27 1_555 1_555
H41 C28 1_555 1_555
H42 C28 1_555 1_555
H43 C28 1_555 1_555
C29 N2 1_555 1_555
H44 C29 1_555 1_555
H45 C29 1_555 1_555
C30 C29 1_555 1_555
H46 C30 1_555 1_555
H47 C30 1_555 1_555
H48 C30 1_555 1_555
C31 O1 1_555 1_555
H49 C31 1_555 1_555
H50 C31 1_555 1_555
C32 C31 1_555 1_555
H51 C32 1_555 1_555
H52 C32 1_555 1_555
C33 C32 1_555 1_555
H53 C33 1_555 1_555
H54 C33 1_555 1_555
C34 O1 1_555 1_555
H55 C34 1_555 1_555
H56 C34 1_555 1_555
C35 O2 1_555 1_555
H57 C35 1_555 1_555
H58 C35 1_555 1_555
C36 C35 1_555 1_555
H59 C36 1_555 1_555
H60 C36 1_555 1_555
C37 C36 1_555 1_555
H61 C37 1_555 1_555
H62 C37 1_555 1_555
C38 O2 1_555 1_555
H63 C38 1_555 1_555
H64 C38 1_555 1_555
Si4 Li3 1_555 1_555
Si5 C39 1_555 1_555
Si6 C42 1_555 1_555
Li3 N3 1_555 1_555
Li4 Si4 1_555 1_555
N3 Si4 1_555 1_555
N4 Si4 1_555 1_555
O3 Li3 1_555 1_555
O4 Li4 1_555 1_555
C39 Si4 1_555 1_555
C40 Li3 1_555 1_555
C41 Li3 1_555 1_555
C42 Si4 1_555 1_555
C43 Si5 1_555 1_555
H65 C43 1_555 1_555
H66 C43 1_555 1_555
H67 C43 1_555 1_555
C44 Si5 1_555 1_555
H68 C44 1_555 1_555
H69 C44 1_555 1_555
H70 C44 1_555 1_555
C45 Si5 1_555 1_555
H71 C45 1_555 1_555
H72 C45 1_555 1_555
H73 C45 1_555 1_555
C46 Si6 1_555 1_555
H74 C46 1_555 1_555
H75 C46 1_555 1_555
H76 C46 1_555 1_555
C47 Si6 1_555 1_555
H77 C47 1_555 1_555
H78 C47 1_555 1_555
H79 C47 1_555 1_555
C48 Si6 1_555 1_555
H80 C48 1_555 1_555
H81 C48 1_555 1_555
H82 C48 1_555 1_555
C49 C40 1_555 1_555
C50 C49 1_555 1_555
H83 C50 1_555 1_555
C51 C50 1_555 1_555
H84 C51 1_555 1_555
C52 C51 1_555 1_555
H85 C52 1_555 1_555
C53 C52 1_555 1_555
H86 C53 1_555 1_555
C54 C49 1_555 1_555
H87 C54 1_555 1_555
C55 C41 1_555 1_555
C56 C55 1_555 1_555
H88 C56 1_555 1_555
C57 C56 1_555 1_555
H89 C57 1_555 1_555
C58 C57 1_555 1_555
H90 C58 1_555 1_555
C59 C58 1_555 1_555
H91 C59 1_555 1_555
C60 C55 1_555 1_555
H92 C60 1_555 1_555
C61 N3 1_555 1_555
H93 C61 1_555 1_555
H94 C61 1_555 1_555
C62 C61 1_555 1_555
H95 C62 1_555 1_555
H96 C62 1_555 1_555
H97 C62 1_555 1_555
C63 N3 1_555 1_555
H98 C63 1_555 1_555
H99 C63 1_555 1_555
C64 C63 1_555 1_555
H100 C64 1_555 1_555
H101 C64 1_555 1_555
H102 C64 1_555 1_555
C65 N4 1_555 1_555
H103 C65 1_555 1_555
H104 C65 1_555 1_555
C66 C65 1_555 1_555
H105 C66 1_555 1_555
H106 C66 1_555 1_555
H107 C66 1_555 1_555
C67 N4 1_555 1_555
H108 C67 1_555 1_555
H109 C67 1_555 1_555
C68 C67 1_555 1_555
H110 C68 1_555 1_555
H111 C68 1_555 1_555
H112 C68 1_555 1_555
C69 O3 1_555 1_555
H113 C69 1_555 1_555
H114 C69 1_555 1_555
C70 C69 1_555 1_555
H115 C70 1_555 1_555
H116 C70 1_555 1_555
C71 C70 1_555 1_555
H117 C71 1_555 1_555
H118 C71 1_555 1_555
C72 O3 1_555 1_555
H119 C72 1_555 1_555
H120 C72 1_555 1_555
C73 O4 1_555 1_555
H121 C73 1_555 1_555
H122 C73 1_555 1_555
C74 C73 1_555 1_555
H123 C74 1_555 1_555
H124 C74 1_555 1_555
C75 C74 1_555 1_555
H125 C75 1_555 1_555
H126 C75 1_555 1_555
C76 O4 1_555 1_555
H127 C76 1_555 1_555
H128 C76 1_555 1_555
Si7 Li5 1_555 1_555
Si8 C77 1_555 1_555
Si9 C80 1_555 1_555
Li5 O5 1_555 1_555
Li6 Si7 1_555 1_555
N5 Si7 1_555 1_555
N6 Si7 1_555 1_555
O5 C107 1_555 1_555
O6 Li6 1_555 1_555
C77 Si7 1_555 1_555
C78 Li5 1_555 1_555
C79 Li5 1_555 1_555
C80 Si7 1_555 1_555
C81 Si8 1_555 1_555
H129 C81 1_555 1_555
H130 C81 1_555 1_555
H131 C81 1_555 1_555
C82 Si8 1_555 1_555
H132 C82 1_555 1_555
H133 C82 1_555 1_555
H134 C82 1_555 1_555
C83 Si8 1_555 1_555
H135 C83 1_555 1_555
H136 C83 1_555 1_555
H137 C83 1_555 1_555
C84 Si9 1_555 1_555
H138 C84 1_555 1_555
H139 C84 1_555 1_555
H140 C84 1_555 1_555
C85 Si9 1_555 1_555
H141 C85 1_555 1_555
H142 C85 1_555 1_555
H143 C85 1_555 1_555
C86 Si9 1_555 1_555
H144 C86 1_555 1_555
H145 C86 1_555 1_555
H146 C86 1_555 1_555
C87 C78 1_555 1_555
C88 C87 1_555 1_555
H147 C88 1_555 1_555
C89 C88 1_555 1_555
H148 C89 1_555 1_555
C90 C89 1_555 1_555
H149 C90 1_555 1_555
C91 C90 1_555 1_555
H150 C91 1_555 1_555
C92 C87 1_555 1_555
H151 C92 1_555 1_555
C93 C79 1_555 1_555
C94 C93 1_555 1_555
H152 C94 1_555 1_555
C95 C94 1_555 1_555
H153 C95 1_555 1_555
C96 C95 1_555 1_555
H154 C96 1_555 1_555
C97 C96 1_555 1_555
H155 C97 1_555 1_555
C98 C93 1_555 1_555
H156 C98 1_555 1_555
C99 N5 1_555 1_555
H157 C99 1_555 1_555
H158 C99 1_555 1_555
C100 C99 1_555 1_555
H159 C100 1_555 1_555
H160 C100 1_555 1_555
H161 C100 1_555 1_555
C101 N5 1_555 1_555
H162 C101 1_555 1_555
H163 C101 1_555 1_555
C102 C101 1_555 1_555
H164 C102 1_555 1_555
H165 C102 1_555 1_555
H166 C102 1_555 1_555
C103 N6 1_555 1_555
H167 C103 1_555 1_555
H168 C103 1_555 1_555
C104 C103 1_555 1_555
H169 C104 1_555 1_555
H170 C104 1_555 1_555
H171 C104 1_555 1_555
C105 N6 1_555 1_555
H172 C105 1_555 1_555
H173 C105 1_555 1_555
C106 C105 1_555 1_555
H174 C106 1_555 1_555
H175 C106 1_555 1_555
H176 C106 1_555 1_555
C107 H177 1_555 1_555
H178 C107 1_555 1_555
C108 C107 1_555 1_555
H179 C108 1_555 1_555
H180 C108 1_555 1_555
C109 C108 1_555 1_555
H181 C109 1_555 1_555
H182 C109 1_555 1_555
C110 O5 1_555 1_555
H183 C110 1_555 1_555
H184 C110 1_555 1_555
C111 O6 1_555 1_555
H185 C111 1_555 1_555
H186 C111 1_555 1_555
C112 C111 1_555 1_555
H187 C112 1_555 1_555
H188 C112 1_555 1_555
C113 C112 1_555 1_555
H189 C113 1_555 1_555
H190 C113 1_555 1_555
C114 O6 1_555 1_555
H191 C114 1_555 1_555
H192 C114 1_555 1_555
Si10 Li7 1_555 1_555
Si11 C115 1_555 1_555
Si12 C118 1_555 1_555
Li7 O7 1_555 1_555
Li8 Si10 1_555 1_555
N7 Si10 1_555 1_555
N8 Si10 1_555 1_555
O7 C145 1_555 1_555
O8 Li8 1_555 1_555
C115 Si10 1_555 1_555
C116 Li7 1_555 1_555
C117 Li7 1_555 1_555
C118 Si10 1_555 1_555
C119 Si11 1_555 1_555
H193 C119 1_555 1_555
H194 C119 1_555 1_555
H195 C119 1_555 1_555
C120 Si11 1_555 1_555
H196 C120 1_555 1_555
H197 C120 1_555 1_555
H198 C120 1_555 1_555
C121 Si11 1_555 1_555
H199 C121 1_555 1_555
H200 C121 1_555 1_555
H201 C121 1_555 1_555
C122 Si12 1_555 1_555
H202 C122 1_555 1_555
H203 C122 1_555 1_555
H204 C122 1_555 1_555
C123 Si12 1_555 1_555
H205 C123 1_555 1_555
H206 C123 1_555 1_555
H207 C123 1_555 1_555
C124 Si12 1_555 1_555
H208 C124 1_555 1_555
H209 C124 1_555 1_555
H210 C124 1_555 1_555
C125 C116 1_555 1_555
C126 C125 1_555 1_555
H211 C126 1_555 1_555
C127 C126 1_555 1_555
H212 C127 1_555 1_555
C128 C127 1_555 1_555
H213 C128 1_555 1_555
C129 C128 1_555 1_555
H214 C129 1_555 1_555
C130 C125 1_555 1_555
H215 C130 1_555 1_555
C131 C117 1_555 1_555
C132 C131 1_555 1_555
H216 C132 1_555 1_555
C133 C132 1_555 1_555
H217 C133 1_555 1_555
C134 C133 1_555 1_555
H218 C134 1_555 1_555
C135 C134 1_555 1_555
H219 C135 1_555 1_555
C136 C131 1_555 1_555
H220 C136 1_555 1_555
C137 N7 1_555 1_555
H221 C137 1_555 1_555
H222 C137 1_555 1_555
C138 C137 1_555 1_555
H223 C138 1_555 1_555
H224 C138 1_555 1_555
H225 C138 1_555 1_555
C139 N7 1_555 1_555
H226 C139 1_555 1_555
H227 C139 1_555 1_555
C140 C139 1_555 1_555
H228 C140 1_555 1_555
H229 C140 1_555 1_555
H230 C140 1_555 1_555
C141 N8 1_555 1_555
H231 C141 1_555 1_555
H232 C141 1_555 1_555
C142 C141 1_555 1_555
H233 C142 1_555 1_555
H234 C142 1_555 1_555
H235 C142 1_555 1_555
C143 N8 1_555 1_555
H236 C143 1_555 1_555
H237 C143 1_555 1_555
C144 C143 1_555 1_555
H238 C144 1_555 1_555
H239 C144 1_555 1_555
H240 C144 1_555 1_555
C145 H241 1_555 1_555
H242 C145 1_555 1_555
C146 C145 1_555 1_555
H243 C146 1_555 1_555
H244 C146 1_555 1_555
C147 C146 1_555 1_555
H245 C147 1_555 1_555
H246 C147 1_555 1_555
C148 O7 1_555 1_555
H247 C148 1_555 1_555
H248 C148 1_555 1_555
C149 O8 1_555 1_555
H249 C149 1_555 1_555
H250 C149 1_555 1_555
C150 C149 1_555 1_555
H251 C150 1_555 1_555
H252 C150 1_555 1_555
C151 C150 1_555 1_555
H253 C151 1_555 1_555
H254 C151 1_555 1_555
C152 O8 1_555 1_555
H255 C152 1_555 1_555
H256 C152 1_555 1_555
Li1 C1 1_555 1_555
Li1 C4 1_555 1_555
Li2 C1 1_555 1_555
Li2 C2 1_555 1_555
Li2 C3 1_555 1_555
Li2 C4 1_555 1_555
C1 C2 1_555 1_555
C2 C3 1_555 1_555
C3 C4 1_555 1_555
C15 C16 1_555 1_555
C21 C22 1_555 1_555
C33 C34 1_555 1_555
C37 C38 1_555 1_555
Li3 C39 1_555 1_555
Li3 C42 1_555 1_555
Li4 C39 1_555 1_555
Li4 C40 1_555 1_555
Li4 C41 1_555 1_555
Li4 C42 1_555 1_555
C39 C40 1_555 1_555
C40 C41 1_555 1_555
C41 C42 1_555 1_555
C53 C54 1_555 1_555
C59 C60 1_555 1_555
C71 C72 1_555 1_555
C75 C76 1_555 1_555
Li5 C77 1_555 1_555
Li5 C80 1_555 1_555
Li6 N6 1_555 1_555
Li6 C77 1_555 1_555
Li6 C78 1_555 1_555
Li6 C79 1_555 1_555
Li6 C80 1_555 1_555
C77 C78 1_555 1_555
C78 C79 1_555 1_555
C79 C80 1_555 1_555
C91 C92 1_555 1_555
C97 C98 1_555 1_555
C109 C110 1_555 1_555
C113 C114 1_555 1_555
Li7 C115 1_555 1_555
Li7 C118 1_555 1_555
Li8 N8 1_555 1_555
Li8 C115 1_555 1_555
Li8 C116 1_555 1_555
Li8 C117 1_555 1_555
Li8 C118 1_555 1_555
C115 C116 1_555 1_555
C116 C117 1_555 1_555
C117 C118 1_555 1_555
C129 C130 1_555 1_555
C135 C136 1_555 1_555
C147 C148 1_555 1_555
C151 C152 1_555 1_555

#END
