
#######################################################################
#
#                 Cambridge Crystallographic Data Centre
#                                CCDC 
#
#######################################################################
#
# If this CIF has been generated from an entry in the Cambridge 
# Structural Database, then it will include bibliographic, chemical, 
# crystal, experimental, refinement or atomic coordinate data resulting 
# from the CCDC's data processing and validation procedures.
#
#######################################################################

data_KOKCUI
_chemical_formula_moiety         'C6 H4 N1 S2 1+,Cl1 1-'
_chemical_name_systematic        '1,3,2-Benzodithiazolium chloride'
_symmetry_cell_setting           orthorhombic
_symmetry_space_group_name_H-M   'P 21 n b'
_symmetry_Int_Tables_number      33
_space_group_name_Hall           'P -2bc 2a'
loop_
_symmetry_equiv_pos_site_id
_symmetry_equiv_pos_as_xyz
1 x,y,z
2 1/2+x,1/2-y,1/2+z
3 x,1/2+y,1/2-z
4 1/2+x,-y,-z
_cell_length_a                   5.013(1)
_cell_length_b                   9.272(2)
_cell_length_c                   15.618(5)
_cell_angle_alpha                90
_cell_angle_beta                 90
_cell_angle_gamma                90
_cell_volume                     725.933
_cell_formula_units_Z            4
loop_
_atom_site_label
_atom_site_type_symbol
_atom_site_fract_x
_atom_site_fract_y
_atom_site_fract_z
C1 C 0.1875(8) 0.7663(3) 0.3988(2)
C2 C -0.1572(10) 0.6276(4) 0.4629(2)
C3 C -0.0376(8) 0.5797(4) 0.3149(2)
S1 S 0.4322 0.8951(1) 0.3939(1)
H1 H 0.063(13) 0.7917(61) 0.5281(31)
H2 H -0.260(17) 0.6116(52) 0.5068(29)
C4 C 0.0284(10) 0.7347(4) 0.4704(2)
C5 C -0.1847(9) 0.5479(4) 0.3864(2)
C6 C 0.1525(8) 0.6917(4) 0.3209(2)
S2 S 0.3594(4) 0.7527(1) 0.2416(1)
N1 N 0.5222(8) 0.8730(2) 0.2970(2)
H3 H -0.315(16) 0.4632(59) 0.3847(31)
H4 H -0.079(12) 0.5358(50) 0.2593(31)
Cl1 Cl -0.0208(3) 0.1258(1) 0.3966(1)
loop_
_geom_bond_atom_site_label_1
_geom_bond_atom_site_label_2
_geom_bond_site_symmetry_1
_geom_bond_site_symmetry_2
C1 S1 1_555 1_555
C2 H2 1_555 1_555
C3 C5 1_555 1_555
S1 N1 1_555 1_555
H1 C4 1_555 1_555
C4 C1 1_555 1_555
C5 C2 1_555 1_555
C6 C1 1_555 1_555
S2 C6 1_555 1_555
N1 S2 1_555 1_555
H3 C5 1_555 1_555
H4 C3 1_555 1_555
C2 C4 1_555 1_555
C3 C6 1_555 1_555

#END
