
#######################################################################
#
#                 Cambridge Crystallographic Data Centre
#                                CCDC 
#
#######################################################################
#
# If this CIF has been generated from an entry in the Cambridge 
# Structural Database, then it will include bibliographic, chemical, 
# crystal, experimental, refinement or atomic coordinate data resulting 
# from the CCDC's data processing and validation procedures.
#
#######################################################################

data_KOKGUO
_chemical_formula_moiety         'C19 H19 O5 P1'
_chemical_name_systematic        
'diethyl (2-oxo-4-phenyl-2H-chromen-3-yl)phosphonate'
_symmetry_cell_setting           monoclinic
_symmetry_space_group_name_H-M   'P 21/n'
_symmetry_Int_Tables_number      14
_space_group_name_Hall           '-P 2yn'
loop_
_symmetry_equiv_pos_site_id
_symmetry_equiv_pos_as_xyz
1 x,y,z
2 1/2-x,1/2+y,1/2-z
3 -x,-y,-z
4 1/2+x,1/2-y,1/2+z
_cell_length_a                   10.365(4)
_cell_length_b                   11.3720(12)
_cell_length_c                   15.121(2)
_cell_angle_alpha                90
_cell_angle_beta                 96.49(2)
_cell_angle_gamma                90
_cell_volume                     1770.9
_exptl_crystal_colour            yellow
_cell_formula_units_Z            4
_exptl_crystal_recrystallization_method 'ethyl acetate/pentane'
loop_
_atom_site_label
_atom_site_type_symbol
_atom_site_fract_x
_atom_site_fract_y
_atom_site_fract_z
P1 P 0.30149(5) 1.02761(5) 0.39710(4)
O1 O 0.61691(13) 0.87386(13) 0.30579(10)
O2 O 0.55559(15) 1.05735(13) 0.31201(12)
O3 O 0.31911(15) 1.06704(14) 0.48935(10)
O4 O 0.17074(13) 0.96383(12) 0.36326(10)
O5 O 0.30238(14) 1.13025(12) 0.32770(10)
C1 C 0.5140(2) 0.60097(19) 0.40478(15)
H1 H 0.4480 0.5712 0.4352
C2 C 0.6141(2) 0.5283(2) 0.38688(17)
H2 H 0.6154 0.4503 0.4056
C3 C 0.7131(2) 0.5707(2) 0.34110(16)
H3 H 0.7798 0.5209 0.3285
C4 C 0.7128(2) 0.6862(2) 0.31427(15)
H4 H 0.7792 0.7150 0.2838
C5 C 0.61227(19) 0.75908(19) 0.33320(13)
C6 C 0.50970(18) 0.71926(17) 0.37801(13)
C7 C 0.40781(17) 0.80176(17) 0.39567(12)
C8 C 0.41826(18) 0.91707(17) 0.37250(12)
C9 C 0.53173(19) 0.95723(19) 0.33014(14)
C10 C 0.29494(18) 0.75365(17) 0.43865(13)
C11 C 0.2108(2) 0.67391(18) 0.39200(16)
H5 H 0.2257 0.6502 0.3352
C12 C 0.1055(2) 0.6298(2) 0.4296(2)
H6 H 0.0489 0.5781 0.3973
C13 C 0.0836(3) 0.6613(2) 0.5135(2)
H7 H 0.0127 0.6311 0.5386
C14 C 0.1674(3) 0.7383(2) 0.56096(17)
H8 H 0.1534 0.7590 0.6186
C15 C 0.2735(2) 0.78585(19) 0.52375(14)
H9 H 0.3290 0.8386 0.5560
C16 C 0.0470(2) 1.0210(2) 0.3695(2)
H10 H 0.0307 1.0789 0.3224
H11 H 0.0490 1.0613 0.4262
C17 C -0.0575(2) 0.9321(3) 0.3614(2)
H12 H -0.0380 0.8723 0.4056
H13 H -0.0639 0.8972 0.3032
H14 H -0.1384 0.9690 0.3700
C18 C 0.3588(3) 1.2447(2) 0.3513(2)
H15 H 0.4052 1.2734 0.3034
H16 H 0.4203 1.2377 0.4044
C19 C 0.2554(3) 1.3289(2) 0.3676(2)
H17 H 0.2200 1.3078 0.4214
H18 H 0.1879 1.3267 0.3186
H19 H 0.2910 1.4068 0.3733
loop_
_geom_bond_atom_site_label_1
_geom_bond_atom_site_label_2
_geom_bond_site_symmetry_1
_geom_bond_site_symmetry_2
P1 O3 1_555 1_555
O1 C5 1_555 1_555
O2 C9 1_555 1_555
O4 P1 1_555 1_555
O5 P1 1_555 1_555
C1 H1 1_555 1_555
C2 C1 1_555 1_555
H2 C2 1_555 1_555
C3 C2 1_555 1_555
H3 C3 1_555 1_555
C4 C3 1_555 1_555
H4 C4 1_555 1_555
C5 C4 1_555 1_555
C6 C1 1_555 1_555
C7 C6 1_555 1_555
C8 P1 1_555 1_555
C9 O1 1_555 1_555
C10 C7 1_555 1_555
C11 C10 1_555 1_555
H5 C11 1_555 1_555
C12 C11 1_555 1_555
H6 C12 1_555 1_555
C13 C12 1_555 1_555
H7 C13 1_555 1_555
C14 C13 1_555 1_555
H8 C14 1_555 1_555
C15 C10 1_555 1_555
H9 C15 1_555 1_555
C16 O4 1_555 1_555
H10 C16 1_555 1_555
H11 C16 1_555 1_555
C17 C16 1_555 1_555
H12 C17 1_555 1_555
H13 C17 1_555 1_555
H14 C17 1_555 1_555
C18 O5 1_555 1_555
H15 C18 1_555 1_555
H16 C18 1_555 1_555
C19 C18 1_555 1_555
H17 C19 1_555 1_555
H18 C19 1_555 1_555
H19 C19 1_555 1_555
C5 C6 1_555 1_555
C7 C8 1_555 1_555
C8 C9 1_555 1_555
C14 C15 1_555 1_555

#END
