
#######################################################################
#
#                 Cambridge Crystallographic Data Centre
#                                CCDC 
#
#######################################################################
#
# If this CIF has been generated from an entry in the Cambridge 
# Structural Database, then it will include bibliographic, chemical, 
# crystal, experimental, refinement or atomic coordinate data resulting 
# from the CCDC's data processing and validation procedures.
#
#######################################################################

data_KOKMIH
_chemical_formula_moiety         'C30 H16 F6 O2'
_chemical_name_systematic        
3,3'-bis(4-(Trifluoromethyl)phenyl)-1,1'-bi(isobenzofuran)
_symmetry_cell_setting           monoclinic
_symmetry_space_group_name_H-M   'P 21/c'
_symmetry_Int_Tables_number      14
_space_group_name_Hall           '-P 2ybc'
loop_
_symmetry_equiv_pos_site_id
_symmetry_equiv_pos_as_xyz
1 x,y,z
2 -x,1/2+y,1/2-z
3 -x,-y,-z
4 x,1/2-y,1/2+z
_cell_length_a                   12.13(2)
_cell_length_b                   5.926(11)
_cell_length_c                   15.66(3)
_cell_angle_alpha                90
_cell_angle_beta                 102.295(11)
_cell_angle_gamma                90
_cell_volume                     1099.86
_exptl_crystal_colour            red
_exptl_crystal_description       needle
_cell_formula_units_Z            2
_exptl_crystal_preparation       'sublimed above 300 deg.C'
loop_
_atom_site_label
_atom_site_type_symbol
_atom_site_fract_x
_atom_site_fract_y
_atom_site_fract_z
C1 C 0.2234(3) -0.0108(5) 0.60210(19)
O1 O 0.11353(18) 0.3027(4) 0.53502(14)
C2 C 0.1187(3) 0.1150(5) 0.5883(2)
C3 C -0.0535(3) 0.2827(5) 0.57620(19)
C4 C -0.0273(3) -0.0607(6) 0.6695(2)
H1 H 0.0177 -0.1824 0.6970
C5 C 0.2336(3) -0.2264(6) 0.64066(19)
H2 H 0.1706 -0.2920 0.6583
C6 C 0.3349(3) -0.3445(6) 0.6532(2)
H3 H 0.3407 -0.4896 0.6796
C7 C 0.0093(3) 0.4032(5) 0.5271(2)
F1 F 0.53184(18) -0.5872(4) 0.66406(19)
C8 C 0.4188(3) -0.0391(6) 0.5880(2)
H4 H 0.4818 0.0249 0.5698
F2 F 0.61681(18) -0.2818(4) 0.70419(17)
C9 C -0.1648(3) 0.3097(6) 0.59091(19)
H5 H -0.2106 0.4326 0.5656
C10 C -0.2045(3) 0.1562(6) 0.6420(2)
H6 H -0.2787 0.1730 0.6519
C11 C -0.1362(3) -0.0309(6) 0.6811(2)
H7 H -0.1666 -0.1361 0.7157
F3 F 0.5836(2) -0.3745(6) 0.56974(15)
C12 C 0.4285(3) -0.2502(6) 0.6269(2)
C13 C 0.5380(3) -0.3740(6) 0.6409(2)
C14 C 0.0162(3) 0.0957(5) 0.6152(2)
C15 C 0.3186(3) 0.0791(6) 0.5754(2)
H8 H 0.3136 0.2233 0.5484
C1B C -0.2234(3) 1.0108(5) 0.39790(19)
O1B O -0.11353(18) 0.6973(4) 0.46498(14)
C2B C -0.1187(3) 0.8850(5) 0.4117(2)
C3B C 0.0535(3) 0.7173(5) 0.42380(19)
C4B C 0.0273(3) 1.0607(6) 0.3305(2)
H1B H -0.0177 1.1824 0.3030
C5B C -0.2336(3) 1.2264(6) 0.35934(19)
H2B H -0.1706 1.2920 0.3417
C6B C -0.3349(3) 1.3445(6) 0.3468(2)
H3B H -0.3407 1.4896 0.3204
C7B C -0.0093(3) 0.5968(5) 0.4729(2)
F1B F -0.53184(18) 1.5872(4) 0.33594(19)
C8B C -0.4188(3) 1.0391(6) 0.4120(2)
H4B H -0.4818 0.9751 0.4302
F2B F -0.61681(18) 1.2818(4) 0.29581(17)
C9B C 0.1648(3) 0.6903(6) 0.40909(19)
H5B H 0.2106 0.5674 0.4344
C10B C 0.2045(3) 0.8438(6) 0.3580(2)
H6B H 0.2787 0.8270 0.3481
C11B C 0.1362(3) 1.0309(6) 0.3189(2)
H7B H 0.1666 1.1361 0.2843
F3B F -0.5836(2) 1.3745(6) 0.43026(15)
C12B C -0.4285(3) 1.2502(6) 0.3731(2)
C13B C -0.5380(3) 1.3740(6) 0.3591(2)
C14B C -0.0162(3) 0.9043(5) 0.3848(2)
C15B C -0.3186(3) 0.9209(6) 0.4246(2)
H8B H -0.3136 0.7767 0.4516
loop_
_geom_bond_atom_site_label_1
_geom_bond_atom_site_label_2
_geom_bond_site_symmetry_1
_geom_bond_site_symmetry_2
C1 C2 1_555 1_555
O1 C2 1_555 1_555
C2 C14 1_555 1_555
C3 C7 1_555 1_555
C4 H1 1_555 1_555
C5 C1 1_555 1_555
H2 C5 1_555 1_555
C6 C5 1_555 1_555
H3 C6 1_555 1_555
C7 O1 1_555 1_555
F1 C13 1_555 1_555
C8 H4 1_555 1_555
F2 C13 1_555 1_555
C9 C3 1_555 1_555
H5 C9 1_555 1_555
C10 C9 1_555 1_555
H6 C10 1_555 1_555
C11 C4 1_555 1_555
H7 C11 1_555 1_555
F3 C13 1_555 1_555
C12 C6 1_555 1_555
C13 C12 1_555 1_555
C14 C3 1_555 1_555
C15 C1 1_555 1_555
H8 C15 1_555 1_555
C1B C2B 1_555 1_555
O1B C2B 1_555 1_555
C2B C14B 1_555 1_555
C3B C7B 1_555 1_555
C4B H1B 1_555 1_555
C5B C1B 1_555 1_555
H2B C5B 1_555 1_555
C6B C5B 1_555 1_555
H3B C6B 1_555 1_555
C7B C7 1_555 1_555
F1B C13B 1_555 1_555
C8B H4B 1_555 1_555
F2B C13B 1_555 1_555
C9B C3B 1_555 1_555
H5B C9B 1_555 1_555
C10B C9B 1_555 1_555
H6B C10B 1_555 1_555
C11B C4B 1_555 1_555
H7B C11B 1_555 1_555
F3B C13B 1_555 1_555
C12B C6B 1_555 1_555
C13B C12B 1_555 1_555
C14B C3B 1_555 1_555
C15B C1B 1_555 1_555
H8B C15B 1_555 1_555
C4 C14 1_555 1_555
C8 C12 1_555 1_555
C8 C15 1_555 1_555
C10 C11 1_555 1_555
O1B C7B 1_555 1_555
C4B C14B 1_555 1_555
C8B C12B 1_555 1_555
C8B C15B 1_555 1_555
C10B C11B 1_555 1_555

#END
