
#######################################################################
#
#                 Cambridge Crystallographic Data Centre
#                                CCDC 
#
#######################################################################
#
# If this CIF has been generated from an entry in the Cambridge 
# Structural Database, then it will include bibliographic, chemical, 
# crystal, experimental, refinement or atomic coordinate data resulting 
# from the CCDC's data processing and validation procedures.
#
#######################################################################

data_KOKPUW
_chemical_formula_moiety         'C29 H19 F6 N2 1+,Cl1 1-,0.25(C1 H2 Cl2)'
_chemical_name_systematic        
'4,5-bis(4-Trifluoromethylphenyl)-1,3-diphenyl-1H-imidazolium chloride dichloromethane solvate'
_symmetry_cell_setting           triclinic
_symmetry_space_group_name_H-M   'P -1'
_symmetry_Int_Tables_number      2
_space_group_name_Hall           '-P 1'
loop_
_symmetry_equiv_pos_site_id
_symmetry_equiv_pos_as_xyz
1 x,y,z
2 -x,-y,-z
_cell_length_a                   10.757(3)
_cell_length_b                   15.673(5)
_cell_length_c                   15.764(5)
_cell_angle_alpha                98.285(5)
_cell_angle_beta                 90.679(5)
_cell_angle_gamma                95.983(5)
_cell_volume                     2614.68
_exptl_crystal_colour            colorless
_exptl_crystal_description       needle
_cell_formula_units_Z            4
loop_
_atom_site_label
_atom_site_type_symbol
_atom_site_fract_x
_atom_site_fract_y
_atom_site_fract_z
C1 C 0.136(2) 0.042(9) 0.367(4)
H1 H 0.0985 0.0970 0.3733
H2 H 0.0769 -0.0015 0.3308
Cl1 Cl 0.1341(2) 0.01052(16) 0.46610(14)
Cl2 Cl 0.26518(19) 0.05644(15) 0.30734(12)
C2 C 0.374(5) -0.100(9) 0.0705(9)
H3 H 0.4450 -0.0635 0.0505
H4 H 0.3940 -0.1604 0.0571
Cl3 Cl 0.38410(19) -0.07734(12) 0.17931(12)
Cl4 Cl 0.2531(7) -0.0933(3) 0.0019(3)
Cl5 Cl 0.0000 0.0000 0.0000
N1 N 0.1046(3) -0.1844(2) 0.2575(2)
N2 N 0.2764(3) -0.2033(2) 0.3206(2)
C4 C 0.1764(4) -0.1602(3) 0.3281(3)
H7 H 0.1589 -0.1191 0.3756
C5 C 0.1619(4) -0.2458(3) 0.2015(3)
C6 C 0.2706(4) -0.2576(3) 0.2425(3)
C7 C -0.0158(4) -0.1541(3) 0.2446(3)
C8 C -0.1008(5) -0.1566(3) 0.3097(3)
H8 H -0.0793 -0.1757 0.3619
C9 C -0.2185(5) -0.1304(4) 0.2969(3)
H9 H -0.2779 -0.1304 0.3410
C10 C -0.2487(4) -0.1042(3) 0.2194(4)
H10 H -0.3302 -0.0886 0.2099
C11 C -0.1619(5) -0.1007(3) 0.1564(3)
H11 H -0.1829 -0.0808 0.1045
C12 C -0.0433(4) -0.1263(3) 0.1682(3)
H12 H 0.0169 -0.1245 0.1247
C13 C 0.1168(4) -0.2847(3) 0.1154(3)
C14 C -0.0033(5) -0.3278(3) 0.0992(3)
H13 H -0.0596 -0.3311 0.1449
C15 C -0.0407(5) -0.3658(4) 0.0167(3)
H14 H -0.1225 -0.3950 0.0057
C16 C 0.0416(5) -0.3610(3) -0.0495(3)
C17 C 0.1612(5) -0.3192(3) -0.0335(3)
H15 H 0.2178 -0.3170 -0.0792
C18 C 0.1983(4) -0.2810(3) 0.0476(3)
H16 H 0.2801 -0.2517 0.0579
C19 C 0.0022(4) -0.4033(3) -0.1378(3)
F1 F -0.1073(7) -0.3827(7) -0.1647(6)
F2 F 0.0869(9) -0.3836(6) -0.1972(4)
F3 F -0.0065(8) -0.4895(2) -0.1457(4)
C21 C 0.3658(4) -0.3140(3) 0.2140(3)
C22 C 0.3319(4) -0.4029(3) 0.1845(3)
H17 H 0.2465 -0.4257 0.1842
C23 C 0.4195(4) -0.4567(3) 0.1566(3)
H18 H 0.3950 -0.5163 0.1369
C24 C 0.5453(4) -0.4239(3) 0.1572(3)
C25 C 0.5815(4) -0.3362(3) 0.1866(3)
H19 H 0.6672 -0.3141 0.1876
C26 C 0.4923(4) -0.2818(3) 0.2141(3)
H20 H 0.5170 -0.2220 0.2332
C27 C 0.6408(4) -0.4809(3) 0.1238(2)
F7 F 0.6661(15) -0.4747(12) 0.0416(4)
F8 F 0.6075(14) -0.5657(4) 0.1269(14)
F9 F 0.7500(8) -0.4603(11) 0.1666(9)
C29 C 0.3757(4) -0.1941(3) 0.3851(3)
C30 C 0.4444(4) -0.1141(3) 0.4071(3)
H21 H 0.4281 -0.0663 0.3794
C31 C 0.5380(4) -0.1050(3) 0.4707(3)
H22 H 0.5850 -0.0503 0.4874
C32 C 0.5624(4) -0.1746(3) 0.5093(3)
H23 H 0.6262 -0.1682 0.5526
C33 C 0.4938(5) -0.2545(3) 0.4850(3)
H24 H 0.5115 -0.3027 0.5116
C34 C 0.4001(5) -0.2648(3) 0.4228(3)
H25 H 0.3533 -0.3196 0.4063
N3 N -0.0084(3) -0.1713(2) -0.2501(2)
N4 N -0.1809(3) -0.1932(2) -0.1839(2)
C35 C -0.0687(4) -0.1478(3) -0.1789(3)
H26 H -0.0371 -0.1056 -0.1322
C36 C -0.0851(4) -0.2334(3) -0.3042(3)
C37 C -0.1933(4) -0.2470(3) -0.2628(3)
C38 C 0.1207(4) -0.1396(3) -0.2666(3)
C39 C 0.1463(4) -0.1102(3) -0.3440(3)
H27 H 0.0814 -0.1058 -0.3840
C40 C 0.2718(5) -0.0874(3) -0.3605(3)
H28 H 0.2930 -0.0682 -0.4134
C41 C 0.3666(5) -0.0925(3) -0.3007(4)
H29 H 0.4517 -0.0779 -0.3131
C42 C 0.3352(4) -0.1187(3) -0.2235(3)
H30 H 0.3992 -0.1193 -0.1816
C43 C 0.2117(4) -0.1445(3) -0.2052(3)
H31 H 0.1909 -0.1646 -0.1526
C44 C -0.0513(4) -0.2747(3) -0.3895(3)
C45 C 0.0577(4) -0.3166(3) -0.4003(3)
H32 H 0.1136 -0.3158 -0.3530
C46 C 0.0834(5) -0.3589(3) -0.4802(3)
H33 H 0.1576 -0.3868 -0.4880
C47 C 0.0007(4) -0.3607(3) -0.5493(3)
C48 C -0.1065(5) -0.3197(3) -0.5390(3)
H34 H -0.1631 -0.3215 -0.5861
C49 C -0.1311(4) -0.2753(3) -0.4584(3)
H35 H -0.2035 -0.2453 -0.4513
C50 C 0.0286(4) -0.4089(3) -0.6347(2)
F13 F 0.0065(13) -0.4948(2) -0.6362(7)
F14 F 0.1484(6) -0.3939(9) -0.6576(9)
F15 F -0.0425(15) -0.3898(9) -0.6982(5)
C52 C -0.3072(4) -0.3056(3) -0.2897(3)
C53 C -0.2973(4) -0.3926(3) -0.3203(3)
H36 H -0.2174 -0.4135 -0.3233
C54 C -0.4030(4) -0.4487(3) -0.3464(3)
H37 H -0.3958 -0.5080 -0.3670
C55 C -0.5201(4) -0.4180(3) -0.3425(3)
C56 C -0.5307(4) -0.3316(3) -0.3129(3)
H38 H -0.6105 -0.3107 -0.3105
C57 C -0.4240(4) -0.2757(3) -0.2868(3)
H39 H -0.4313 -0.2163 -0.2668
C58 C -0.6337(4) -0.4769(3) -0.3753(3)
F19 F -0.6495(14) -0.4856(12) -0.4607(3)
F20 F -0.6337(13) -0.5577(5) -0.3550(13)
F21 F -0.7373(7) -0.4471(9) -0.3422(9)
C60 C -0.2718(4) -0.1885(3) -0.1168(3)
C61 C -0.3145(5) -0.1108(4) -0.0880(3)
H40 H -0.2869 -0.0602 -0.1121
C62 C -0.4008(6) -0.1080(4) -0.0213(4)
H41 H -0.4304 -0.0545 0.0011
C63 C -0.4430(5) -0.1829(4) 0.0119(3)
H42 H -0.5012 -0.1802 0.0568
C64 C -0.4026(6) -0.2586(4) -0.0186(4)
H43 H -0.4330 -0.3094 0.0042
C65 C -0.3153(6) -0.2639(4) -0.0844(3)
H44 H -0.2866 -0.3178 -0.1063
C3? C 0.103(4) -0.072(5) 0.016(9)
H5? H 0.0942 -0.0741 0.0780
H6? H 0.0570 -0.1269 -0.0124
C20? C 0.0022(4) -0.4033(3) -0.1378(3)
F4? F -0.1240(5) -0.4165(11) -0.1432(9)
F5? F 0.0335(15) -0.3538(9) -0.1992(7)
F6? F 0.0404(16) -0.4806(6) -0.1632(10)
C28? C 0.6408(4) -0.4809(3) 0.1238(2)
F10? F 0.7596(11) -0.4504(16) 0.146(2)
F11? F 0.620(2) -0.5582(10) 0.1526(19)
F12? F 0.637(3) -0.499(2) 0.0384(4)
C51? C 0.0286(4) -0.4089(3) -0.6347(2)
F16? F -0.023(2) -0.4913(6) -0.6518(15)
F17? F 0.1536(5) -0.4125(17) -0.6392(15)
F18? F -0.003(2) -0.3699(14) -0.7006(9)
C59? C -0.6337(4) -0.4769(3) -0.3753(3)
F22? F -0.665(2) -0.4648(16) -0.4551(7)
F23? F -0.613(2) -0.5612(5) -0.381(2)
F24? F -0.7359(13) -0.469(2) -0.3291(13)
loop_
_geom_bond_atom_site_label_1
_geom_bond_atom_site_label_2
_geom_bond_site_symmetry_1
_geom_bond_site_symmetry_2
C1 H1 1_555 1_555
H2 C1 1_555 1_555
C2 H3 1_555 1_555
H4 C2 1_555 1_555
Cl1 C1 1_555 1_555
Cl2 C1 1_555 1_555
Cl3 C2 1_555 1_555
Cl4 C2 1_555 1_555
N1 C4 1_555 1_555
N2 C4 1_555 1_555
C4 H7 1_555 1_555
C5 N1 1_555 1_555
C6 N2 1_555 1_555
C7 N1 1_555 1_555
C8 C7 1_555 1_555
H8 C8 1_555 1_555
C9 C8 1_555 1_555
H9 C9 1_555 1_555
C10 C9 1_555 1_555
H10 C10 1_555 1_555
C11 C10 1_555 1_555
H11 C11 1_555 1_555
C12 C7 1_555 1_555
H12 C12 1_555 1_555
C13 C5 1_555 1_555
C14 C13 1_555 1_555
H13 C14 1_555 1_555
C15 C14 1_555 1_555
H14 C15 1_555 1_555
C16 C15 1_555 1_555
C17 C16 1_555 1_555
H15 C17 1_555 1_555
C18 C13 1_555 1_555
H16 C18 1_555 1_555
C19 C16 1_555 1_555
F1 C19 1_555 1_555
F2 C19 1_555 1_555
F3 C19 1_555 1_555
C21 C6 1_555 1_555
C22 C21 1_555 1_555
H17 C22 1_555 1_555
C23 C22 1_555 1_555
H18 C23 1_555 1_555
C24 C23 1_555 1_555
C25 C24 1_555 1_555
H19 C25 1_555 1_555
C26 C21 1_555 1_555
H20 C26 1_555 1_555
C27 C24 1_555 1_555
F7 C27 1_555 1_555
F8 C27 1_555 1_555
F9 C27 1_555 1_555
C29 N2 1_555 1_555
C30 C29 1_555 1_555
H21 C30 1_555 1_555
C31 C30 1_555 1_555
H22 C31 1_555 1_555
C32 C31 1_555 1_555
H23 C32 1_555 1_555
C33 C32 1_555 1_555
H24 C33 1_555 1_555
C34 C29 1_555 1_555
H25 C34 1_555 1_555
N3 C35 1_555 1_555
N4 C35 1_555 1_555
C35 H26 1_555 1_555
C36 N3 1_555 1_555
C37 N4 1_555 1_555
C38 N3 1_555 1_555
C39 C38 1_555 1_555
H27 C39 1_555 1_555
C40 C39 1_555 1_555
H28 C40 1_555 1_555
C41 C40 1_555 1_555
H29 C41 1_555 1_555
C42 C41 1_555 1_555
H30 C42 1_555 1_555
C43 C38 1_555 1_555
H31 C43 1_555 1_555
C44 C36 1_555 1_555
C45 C44 1_555 1_555
H32 C45 1_555 1_555
C46 C45 1_555 1_555
H33 C46 1_555 1_555
C47 C46 1_555 1_555
C48 C47 1_555 1_555
H34 C48 1_555 1_555
C49 C44 1_555 1_555
H35 C49 1_555 1_555
C50 C47 1_555 1_555
F13 C50 1_555 1_555
F14 C50 1_555 1_555
F15 C50 1_555 1_555
C52 C37 1_555 1_555
C53 C52 1_555 1_555
H36 C53 1_555 1_555
C54 C53 1_555 1_555
H37 C54 1_555 1_555
C55 C54 1_555 1_555
C56 C55 1_555 1_555
H38 C56 1_555 1_555
C57 C52 1_555 1_555
H39 C57 1_555 1_555
C58 C55 1_555 1_555
F19 C58 1_555 1_555
F20 C58 1_555 1_555
F21 C58 1_555 1_555
C60 N4 1_555 1_555
C61 C60 1_555 1_555
H40 C61 1_555 1_555
C62 C61 1_555 1_555
H41 C62 1_555 1_555
C63 C62 1_555 1_555
H42 C63 1_555 1_555
C64 C63 1_555 1_555
H43 C64 1_555 1_555
C65 C60 1_555 1_555
H44 C65 1_555 1_555
C5 C6 1_555 1_555
C11 C12 1_555 1_555
C17 C18 1_555 1_555
C25 C26 1_555 1_555
C33 C34 1_555 1_555
C36 C37 1_555 1_555
C42 C43 1_555 1_555
C48 C49 1_555 1_555
C56 C57 1_555 1_555
C64 C65 1_555 1_555

#END
