
#######################################################################
#
#                 Cambridge Crystallographic Data Centre
#                                CCDC 
#
#######################################################################
#
# If this CIF has been generated from an entry in the Cambridge 
# Structural Database, then it will include bibliographic, chemical, 
# crystal, experimental, refinement or atomic coordinate data resulting 
# from the CCDC's data processing and validation procedures.
#
#######################################################################

data_KOKRAF
_chemical_formula_moiety         'C24 H28 N2 O2 S1'
_chemical_name_systematic        
N-(1-allyl-3-(1-phenylprop-2-en-1-yl)piperidin-2-ylidene)-4-methylbenzenesulfonamide
_symmetry_cell_setting           orthorhombic
_symmetry_space_group_name_H-M   'P n a 21'
_symmetry_Int_Tables_number      33
_space_group_name_Hall           'P 2c -2n'
loop_
_symmetry_equiv_pos_site_id
_symmetry_equiv_pos_as_xyz
1 x,y,z
2 -x,-y,1/2+z
3 1/2-x,1/2+y,1/2+z
4 1/2+x,1/2-y,z
_cell_length_a                   17.774(10)
_cell_length_b                   9.199(5)
_cell_length_c                   13.762(7)
_cell_angle_alpha                90
_cell_angle_beta                 90
_cell_angle_gamma                90
_cell_volume                     2250.13
_cell_formula_units_Z            4
loop_
_atom_site_label
_atom_site_type_symbol
_atom_site_fract_x
_atom_site_fract_y
_atom_site_fract_z
S1 S 0.11817(6) 0.81464(15) 0.41781(11)
O1 O 0.0813(2) 0.8208(6) 0.5120(3)
O2 O 0.0995(2) 0.6896(4) 0.3598(5)
N1 N 0.2073(2) 0.8444(4) 0.4258(3)
N2 N 0.33066(19) 0.7895(4) 0.4308(3)
C1 C 0.0065(4) 1.3627(7) 0.2150(5)
H1 H -0.0453 1.3775 0.2321
H2 H 0.0109 1.3535 0.1458
H3 H 0.0358 1.4442 0.2367
C2 C 0.0355(3) 1.2236(6) 0.2638(4)
C3 C 0.0817(3) 1.2321(6) 0.3453(4)
H4 H 0.0944 1.3229 0.3700
C4 C 0.1090(3) 1.1087(6) 0.3903(4)
H5 H 0.1400 1.1169 0.4444
C5 C 0.0901(2) 0.9736(5) 0.3550(3)
C6 C 0.0447(3) 0.9607(6) 0.2725(4)
H6 H 0.0324 0.8697 0.2478
C7 C 0.0179(3) 1.0877(6) 0.2279(4)
H7 H -0.0123 1.0802 0.1729
C8 C 0.2607(2) 0.7458(5) 0.4407(3)
C9 C 0.2456(3) 0.5908(5) 0.4744(3)
H8 H 0.2035 0.5559 0.4347
C10 C 0.3111(3) 0.4908(6) 0.4516(4)
H9 H 0.3036 0.3990 0.4850
H10 H 0.3117 0.4712 0.3824
C11 C 0.3855(3) 0.5525(8) 0.4808(6)
H11 H 0.3879 0.5572 0.5512
H12 H 0.4251 0.4878 0.4589
C12 C 0.3990(3) 0.6986(7) 0.4408(5)
H13 H 0.4222 0.6886 0.3773
H14 H 0.4344 0.7489 0.4825
C13 C 0.3461(3) 0.9414(6) 0.3999(5)
H15 H 0.3924 0.9436 0.3625
H16 H 0.3057 0.9745 0.3580
C14 C 0.3530(4) 1.0405(7) 0.4828(6)
H17 H 0.3110 1.0479 0.5229
C15 C 0.4101(6) 1.1183(11) 0.5068(9)
H18 H 0.4537 1.1153 0.4694
H19 H 0.4079 1.1776 0.5614
C16 C 0.2161(3) 0.5902(5) 0.5828(3)
H20 H 0.1684 0.6435 0.5820
C17 C 0.2666(3) 0.6701(5) 0.6549(4)
H21 H 0.3108 0.6249 0.6747
C18 C 0.2515(6) 0.7951(7) 0.6897(8)
H22 H 0.2077 0.8429 0.6712
H23 H 0.2844 0.8386 0.7334
C19 C 0.1971(3) 0.4375(5) 0.6159(3)
C20 C 0.2471(3) 0.3471(5) 0.6633(4)
H24 H 0.2954 0.3796 0.6773
C21 C 0.2252(4) 0.2070(5) 0.6904(4)
H25 H 0.2596 0.1471 0.7219
C22 C 0.1555(4) 0.1565(6) 0.6719(5)
H26 H 0.1415 0.0633 0.6908
C23 C 0.1047(3) 0.2471(6) 0.6241(4)
H27 H 0.0563 0.2140 0.6110
C24 C 0.1254(3) 0.3848(5) 0.5961(3)
H28 H 0.0910 0.4435 0.5635
loop_
_geom_bond_atom_site_label_1
_geom_bond_atom_site_label_2
_geom_bond_site_symmetry_1
_geom_bond_site_symmetry_2
S1 O1 1_555 1_555
O2 S1 1_555 1_555
N1 S1 1_555 1_555
N2 C8 1_555 1_555
C1 H1 1_555 1_555
H2 C1 1_555 1_555
H3 C1 1_555 1_555
C2 C1 1_555 1_555
C3 C2 1_555 1_555
H4 C3 1_555 1_555
C4 C3 1_555 1_555
H5 C4 1_555 1_555
C5 S1 1_555 1_555
C6 C5 1_555 1_555
H6 C6 1_555 1_555
C7 C2 1_555 1_555
H7 C7 1_555 1_555
C8 N1 1_555 1_555
C9 C8 1_555 1_555
H8 C9 1_555 1_555
C10 C9 1_555 1_555
H9 C10 1_555 1_555
H10 C10 1_555 1_555
C11 C10 1_555 1_555
H11 C11 1_555 1_555
H12 C11 1_555 1_555
C12 N2 1_555 1_555
H13 C12 1_555 1_555
H14 C12 1_555 1_555
C13 N2 1_555 1_555
H15 C13 1_555 1_555
H16 C13 1_555 1_555
C14 C13 1_555 1_555
H17 C14 1_555 1_555
C15 C14 1_555 1_555
H18 C15 1_555 1_555
H19 C15 1_555 1_555
C16 C9 1_555 1_555
H20 C16 1_555 1_555
C17 C16 1_555 1_555
H21 C17 1_555 1_555
C18 C17 1_555 1_555
H22 C18 1_555 1_555
H23 C18 1_555 1_555
C19 C16 1_555 1_555
C20 C19 1_555 1_555
H24 C20 1_555 1_555
C21 C20 1_555 1_555
H25 C21 1_555 1_555
C22 C21 1_555 1_555
H26 C22 1_555 1_555
C23 C22 1_555 1_555
H27 C23 1_555 1_555
C24 C19 1_555 1_555
H28 C24 1_555 1_555
C4 C5 1_555 1_555
C6 C7 1_555 1_555
C11 C12 1_555 1_555
C23 C24 1_555 1_555

#END
