
#######################################################################
#
#                 Cambridge Crystallographic Data Centre
#                                CCDC 
#
#######################################################################
#
# If this CIF has been generated from an entry in the Cambridge 
# Structural Database, then it will include bibliographic, chemical, 
# crystal, experimental, refinement or atomic coordinate data resulting 
# from the CCDC's data processing and validation procedures.
#
#######################################################################

data_KOKYIT
_chemical_formula_moiety         'C25 H22 N2 O3'
_chemical_name_systematic        
cis-4-Benzyl-3-(1,4-diphenyl-2-oxo-3-azetidinyl)-1,3-oxazolidin-2-one
_symmetry_cell_setting           monoclinic
_symmetry_space_group_name_H-M   'P 21'
_symmetry_Int_Tables_number      4
_space_group_name_Hall           'P 2yb'
loop_
_symmetry_equiv_pos_site_id
_symmetry_equiv_pos_as_xyz
1 x,y,z
2 -x,1/2+y,-z
_cell_length_a                   12.950(2)
_cell_length_b                   5.8187(9)
_cell_length_c                   14.737(2)
_cell_angle_alpha                90
_cell_angle_beta                 114.730(3)
_cell_angle_gamma                90
_cell_volume                     1008.62
_exptl_crystal_colour            colorless
_exptl_crystal_description       needle
_cell_formula_units_Z            2
loop_
_atom_site_label
_atom_site_type_symbol
_atom_site_fract_x
_atom_site_fract_y
_atom_site_fract_z
O1 O 0.5721(2) -0.0932(5) 0.4176(2)
O2 O 0.6894(3) -0.2364(5) 0.3542(2)
O3 O 0.9351(2) -0.0849(6) 0.4086(2)
N1 N 0.6958(3) 0.1445(6) 0.3990(2)
N2 N 0.8233(3) 0.0960(6) 0.2553(2)
C1 C 0.6572(3) -0.0758(8) 0.3867(3)
C2 C 0.5430(4) 0.1345(7) 0.4387(3)
H1 H 0.5330 0.1347 0.5018
H2 H 0.4715 0.1879 0.3840
C3 C 0.6423(3) 0.2904(8) 0.4479(3)
H3 H 0.6126 0.4336 0.4079
C4 C 0.7234(4) 0.3529(7) 0.5549(3)
H4 H 0.7888 0.4382 0.5534
H5 H 0.6835 0.4568 0.5828
C5 C 0.7673(3) 0.1494(8) 0.6230(3)
C6 C 0.7209(4) 0.0856(9) 0.6890(3)
H6 H 0.6620 0.1759 0.6932
C7 C 0.7596(4) -0.1082(9) 0.7488(3)
H7 H 0.7264 -0.1495 0.7931
C8 C 0.8455(4) -0.2409(9) 0.7446(3)
H8 H 0.8715 -0.3738 0.7854
C9 C 0.8936(4) -0.1780(9) 0.6800(3)
H9 H 0.9532 -0.2677 0.6766
C10 C 0.8549(3) 0.0154(9) 0.6202(3)
H10 H 0.8888 0.0572 0.5766
C11 C 0.8609(3) 0.0412(8) 0.3546(3)
C12 C 0.7811(3) 0.2223(8) 0.3683(3)
H11 H 0.8254 0.3533 0.4107
C13 C 0.7416(3) 0.2763(7) 0.2533(3)
H12 H 0.7667 0.4325 0.2425
C14 C 0.6192(3) 0.2338(7) 0.1862(3)
C15 C 0.5807(3) 0.0290(8) 0.1343(3)
H13 H 0.6330 -0.0915 0.1413
C16 C 0.4657(4) -0.0005(8) 0.0722(3)
H14 H 0.4399 -0.1402 0.0364
C17 C 0.3888(3) 0.1749(8) 0.0626(3)
H15 H 0.3103 0.1545 0.0208
C18 C 0.4267(4) 0.3789(8) 0.1140(3)
H16 H 0.3743 0.4989 0.1074
C19 C 0.5409(3) 0.4084(8) 0.1751(3)
H17 H 0.5664 0.5493 0.2099
C20 C 0.8565(3) 0.0274(8) 0.1796(3)
C21 C 0.9193(3) -0.1744(8) 0.1924(3)
H18 H 0.9398 -0.2637 0.2514
C22 C 0.9513(4) -0.2428(8) 0.1171(3)
H19 H 0.9945 -0.3794 0.1250
C23 C 0.9205(3) -0.1123(8) 0.0306(3)
H20 H 0.9419 -0.1604 -0.0207
C24 C 0.8586(3) 0.0880(8) 0.0195(3)
H21 H 0.8386 0.1783 -0.0392
C25 C 0.8257(3) 0.1577(8) 0.0937(3)
H22 H 0.7822 0.2940 0.0855
loop_
_geom_bond_atom_site_label_1
_geom_bond_atom_site_label_2
_geom_bond_site_symmetry_1
_geom_bond_site_symmetry_2
O1 C1 1_555 1_555
O2 C1 1_555 1_555
O3 C11 1_555 1_555
N1 C1 1_555 1_555
N2 C11 1_555 1_555
C2 O1 1_555 1_555
H1 C2 1_555 1_555
H2 C2 1_555 1_555
C3 N1 1_555 1_555
H3 C3 1_555 1_555
C4 C3 1_555 1_555
H4 C4 1_555 1_555
H5 C4 1_555 1_555
C5 C4 1_555 1_555
C6 C5 1_555 1_555
H6 C6 1_555 1_555
C7 C6 1_555 1_555
H7 C7 1_555 1_555
C8 C7 1_555 1_555
H8 C8 1_555 1_555
C9 C8 1_555 1_555
H9 C9 1_555 1_555
C10 C5 1_555 1_555
H10 C10 1_555 1_555
C11 C12 1_555 1_555
C12 N1 1_555 1_555
H11 C12 1_555 1_555
C13 N2 1_555 1_555
H12 C13 1_555 1_555
C14 C13 1_555 1_555
C15 C14 1_555 1_555
H13 C15 1_555 1_555
C16 C15 1_555 1_555
H14 C16 1_555 1_555
C17 C16 1_555 1_555
H15 C17 1_555 1_555
C18 C17 1_555 1_555
H16 C18 1_555 1_555
C19 C14 1_555 1_555
H17 C19 1_555 1_555
C20 N2 1_555 1_555
C21 C20 1_555 1_555
H18 C21 1_555 1_555
C22 C21 1_555 1_555
H19 C22 1_555 1_555
C23 C22 1_555 1_555
H20 C23 1_555 1_555
C24 C23 1_555 1_555
H21 C24 1_555 1_555
C25 C20 1_555 1_555
H22 C25 1_555 1_555
C2 C3 1_555 1_555
C9 C10 1_555 1_555
C12 C13 1_555 1_555
C18 C19 1_555 1_555
C24 C25 1_555 1_555

#END
