
#######################################################################
#
#                 Cambridge Crystallographic Data Centre
#                                CCDC 
#
#######################################################################
#
# If this CIF has been generated from an entry in the Cambridge 
# Structural Database, then it will include bibliographic, chemical, 
# crystal, experimental, refinement or atomic coordinate data resulting 
# from the CCDC's data processing and validation procedures.
#
#######################################################################

data_KOKZOB
_chemical_formula_moiety         'C20 H23 B10 Cl1'
_chemical_name_systematic        
1,2-(2-(phenyl(2-chlorophenyl)methylene)cyclopent-4-ene-1,3-diyl)-1,2-dicarba-closo-dodecaborane
_symmetry_cell_setting           monoclinic
_symmetry_space_group_name_H-M   'P 21/c'
_symmetry_Int_Tables_number      14
_space_group_name_Hall           '-P 2ybc'
loop_
_symmetry_equiv_pos_site_id
_symmetry_equiv_pos_as_xyz
1 x,y,z
2 -x,1/2+y,1/2-z
3 -x,-y,-z
4 x,1/2-y,1/2+z
_cell_length_a                   7.5294(6)
_cell_length_b                   13.3184(11)
_cell_length_c                   22.267(2)
_cell_angle_alpha                90
_cell_angle_beta                 95.679(2)
_cell_angle_gamma                90
_cell_volume                     2221.97
_cell_formula_units_Z            4
loop_
_atom_site_label
_atom_site_type_symbol
_atom_site_fract_x
_atom_site_fract_y
_atom_site_fract_z
Cl1 Cl 0.27540(9) 1.12030(6) 0.28220(4)
B1 B 0.5316(4) 0.74430(19) 0.43478(13)
H1 H 0.3936 0.7205 0.4212
B2 B 0.7121(4) 0.6727(2) 0.41646(14)
H2 H 0.6921 0.6031 0.3900
B3 B 0.8977(4) 0.7530(2) 0.40746(13)
H3 H 0.9954 0.7349 0.3755
B4 B 0.8354(3) 0.87718(19) 0.42087(12)
H4 H 0.8956 0.9402 0.3982
B5 B 0.5866(4) 0.8109(2) 0.50209(13)
H5 H 0.4842 0.8323 0.5317
B6 B 0.6577(4) 0.6840(2) 0.49252(14)
H6 H 0.6041 0.6209 0.5170
B7 B 0.8836(4) 0.6868(2) 0.47649(14)
H7 H 0.9759 0.6250 0.4901
B8 B 0.9550(4) 0.8135(2) 0.47872(14)
H8 H 1.0935 0.8338 0.4944
B9 B 0.7708(4) 0.8906(2) 0.49366(13)
H9 H 0.7858 0.9625 0.5179
B10 B 0.8055(4) 0.7722(2) 0.53009(14)
H10 H 0.8465 0.7664 0.5788
C1 C 0.6815(3) 0.79068(16) 0.38628(10)
C2 C 0.6119(3) 0.86779(16) 0.43439(10)
C3 C 0.4939(3) 0.94244(17) 0.39184(11)
H11 H 0.4685 1.0076 0.4095
C4 C 0.3348(3) 0.88666(18) 0.36181(12)
H12 H 0.2168 0.8954 0.3698
C5 C 0.3913(3) 0.82344(18) 0.32246(12)
H13 H 0.3199 0.7805 0.2976
C6 C 0.5945(3) 0.83245(16) 0.32450(10)
H14 H 0.6480 0.8103 0.2884
C7 C 0.5974(3) 0.94560(16) 0.33676(10)
C8 C 0.6487(3) 1.02197(16) 0.30463(10)
C9 C 0.7442(3) 1.00780(16) 0.25012(10)
C10 C 0.6786(4) 1.04677(18) 0.19509(12)
H15 H 0.5716 1.0822 0.1918
C11 C 0.7702(4) 1.03375(19) 0.14452(13)
H16 H 0.7231 1.0600 0.1076
C12 C 0.9273(4) 0.9833(2) 0.14820(13)
H17 H 0.9888 0.9757 0.1143
C13 C 0.9949(4) 0.9434(2) 0.20294(14)
H18 H 1.1021 0.9082 0.2060
C14 C 0.9038(3) 0.9557(2) 0.25295(12)
H19 H 0.9505 0.9283 0.2896
C15 C 0.6241(3) 1.12768(16) 0.32528(10)
C16 C 0.4618(3) 1.17918(17) 0.31826(11)
C17 C 0.4457(3) 1.27632(18) 0.33816(11)
H20 H 0.3368 1.3095 0.3321
C18 C 0.5913(4) 1.32345(19) 0.36684(12)
H21 H 0.5809 1.3889 0.3807
C19 C 0.7527(4) 1.27520(19) 0.37543(13)
H22 H 0.8506 1.3076 0.3955
C20 C 0.7700(3) 1.17909(17) 0.35440(12)
H23 H 0.8808 1.1477 0.3596
loop_
_geom_bond_atom_site_label_1
_geom_bond_atom_site_label_2
_geom_bond_site_symmetry_1
_geom_bond_site_symmetry_2
Cl1 C16 1_555 1_555
B1 H1 1_555 1_555
B2 B1 1_555 1_555
H2 B2 1_555 1_555
B3 B2 1_555 1_555
H3 B3 1_555 1_555
B4 B3 1_555 1_555
H4 B4 1_555 1_555
B5 B1 1_555 1_555
H5 B5 1_555 1_555
B6 B1 1_555 1_555
H6 B6 1_555 1_555
B7 B2 1_555 1_555
H7 B7 1_555 1_555
B8 B3 1_555 1_555
H8 B8 1_555 1_555
B9 B4 1_555 1_555
H9 B9 1_555 1_555
B10 B5 1_555 1_555
H10 B10 1_555 1_555
C1 B1 1_555 1_555
C2 B1 1_555 1_555
C3 C2 1_555 1_555
H11 C3 1_555 1_555
C4 C3 1_555 1_555
H12 C4 1_555 1_555
C5 C4 1_555 1_555
H13 C5 1_555 1_555
C6 C1 1_555 1_555
H14 C6 1_555 1_555
C7 C3 1_555 1_555
C8 C7 1_555 1_555
C9 C8 1_555 1_555
C10 C9 1_555 1_555
H15 C10 1_555 1_555
C11 C10 1_555 1_555
H16 C11 1_555 1_555
C12 C11 1_555 1_555
H17 C12 1_555 1_555
C13 C12 1_555 1_555
H18 C13 1_555 1_555
C14 C9 1_555 1_555
H19 C14 1_555 1_555
C15 C8 1_555 1_555
C16 C15 1_555 1_555
C17 C16 1_555 1_555
H20 C17 1_555 1_555
C18 C17 1_555 1_555
H21 C18 1_555 1_555
C19 C18 1_555 1_555
H22 C19 1_555 1_555
C20 C15 1_555 1_555
H23 C20 1_555 1_555
B2 B6 1_555 1_555
B2 C1 1_555 1_555
B3 B7 1_555 1_555
B3 C1 1_555 1_555
B4 B8 1_555 1_555
B4 C1 1_555 1_555
B4 C2 1_555 1_555
B5 B6 1_555 1_555
B5 B9 1_555 1_555
B5 C2 1_555 1_555
B6 B7 1_555 1_555
B6 B10 1_555 1_555
B7 B8 1_555 1_555
B7 B10 1_555 1_555
B8 B9 1_555 1_555
B8 B10 1_555 1_555
B9 B10 1_555 1_555
B9 C2 1_555 1_555
C1 C2 1_555 1_555
C5 C6 1_555 1_555
C6 C7 1_555 1_555
C13 C14 1_555 1_555
C19 C20 1_555 1_555

#END
