
#######################################################################
#
#                 Cambridge Crystallographic Data Centre
#                                CCDC 
#
#######################################################################
#
# If this CIF has been generated from an entry in the Cambridge 
# Structural Database, then it will include bibliographic, chemical, 
# crystal, experimental, refinement or atomic coordinate data resulting 
# from the CCDC's data processing and validation procedures.
#
#######################################################################

data_KOLBUK
_chemical_formula_moiety         'C20 H24 B10 O2'
_chemical_name_systematic        
1,2-(2-(diphenylmethylene)-1,5-dioxopentane-2,4-diyl)-1,2-dicarba-closo-dodecaborane
_symmetry_cell_setting           monoclinic
_symmetry_space_group_name_H-M   'P 21/n'
_symmetry_Int_Tables_number      14
_space_group_name_Hall           '-P 2yn'
loop_
_symmetry_equiv_pos_site_id
_symmetry_equiv_pos_as_xyz
1 x,y,z
2 1/2-x,1/2+y,1/2-z
3 -x,-y,-z
4 1/2+x,1/2-y,1/2+z
_cell_length_a                   13.919(14)
_cell_length_b                   7.663(8)
_cell_length_c                   21.03(2)
_cell_angle_alpha                90
_cell_angle_beta                 93.24(2)
_cell_angle_gamma                90
_cell_volume                     2239.5
_cell_formula_units_Z            4
loop_
_atom_site_label
_atom_site_type_symbol
_atom_site_fract_x
_atom_site_fract_y
_atom_site_fract_z
B1 B 1.00005(19) 0.8266(4) 0.18790(12)
H1 H 0.9764 0.9477 0.2104
B2 B 1.01364(19) 0.6311(4) 0.23120(13)
H2 H 0.9994 0.6243 0.2821
B3 B 0.98422(19) 0.4550(4) 0.17893(14)
H3 H 0.9511 0.3346 0.1960
B4 B 0.95381(19) 0.5411(4) 0.10285(13)
H4 H 0.9006 0.4770 0.0700
B5 B 1.0823(2) 0.8296(5) 0.12703(14)
H5 H 1.1128 0.9518 0.1095
B6 B 1.1145(2) 0.7408(5) 0.20316(15)
H6 H 1.1677 0.8052 0.2360
B7 B 1.1059(2) 0.5116(5) 0.19796(17)
H7 H 1.1536 0.4256 0.2273
B8 B 1.0682(2) 0.4574(5) 0.11840(17)
H8 H 1.0915 0.3364 0.0957
B9 B 1.0531(2) 0.6530(5) 0.07526(14)
H9 H 1.0650 0.6617 0.0241
B10 B 1.1481(2) 0.6342(5) 0.13396(17)
H10 H 1.2238 0.6285 0.1215
C1 C 0.92751(14) 0.6494(3) 0.17069(9)
C2 C 0.96647(15) 0.7629(3) 0.11207(9)
C3 C 0.82075(14) 0.6866(3) 0.17214(9)
H11 H 0.7865 0.5751 0.1736
C4 C 0.79372(15) 0.7737(3) 0.10952(9)
C5 C 0.87997(16) 0.8603(3) 0.08235(11)
H12 H 0.8771 0.8393 0.0363
C6 C 0.79924(17) 0.7901(4) 0.23048(11)
H13 H 0.8246 0.7498 0.2696
C7 C 0.8832(3) 1.0561(4) 0.09343(17)
H14 H 0.9439 1.1129 0.0889
C8 C 0.70832(14) 0.7641(3) 0.07868(9)
C9 C 0.68943(15) 0.8459(3) 0.01491(10)
C10 C 0.6384(2) 0.9986(4) 0.00926(13)
H15 H 0.6151 1.0501 0.0454
C11 C 0.6211(2) 1.0765(4) -0.04901(15)
H16 H 0.5863 1.1800 -0.0523
C12 C 0.6550(2) 1.0024(5) -0.10158(13)
H17 H 0.6439 1.0560 -0.1410
C13 C 0.70506(18) 0.8502(4) -0.09731(11)
H18 H 0.7279 0.7996 -0.1337
C14 C 0.72190(16) 0.7708(3) -0.03896(10)
H19 H 0.7554 0.6659 -0.0361
C15 C 0.62577(15) 0.6681(3) 0.10322(10)
C16 C 0.57553(16) 0.7295(3) 0.15248(10)
H20 H 0.5946 0.8328 0.1727
C17 C 0.49701(17) 0.6399(4) 0.17234(12)
H21 H 0.4634 0.6831 0.2059
C18 C 0.46834(18) 0.4894(4) 0.14341(12)
H22 H 0.4155 0.4291 0.1573
C19 C 0.5168(2) 0.4269(4) 0.09422(15)
H23 H 0.4968 0.3239 0.0742
C20 C 0.59489(19) 0.5146(4) 0.07393(13)
H24 H 0.6277 0.4707 0.0401
O1 O 0.8153(3) 1.1488(4) 0.10692(19)
O2 O 0.75281(16) 0.9179(3) 0.23018(9)
O3? O 0.9366(10) 1.1113(16) 0.0488(6)
loop_
_geom_bond_atom_site_label_1
_geom_bond_atom_site_label_2
_geom_bond_site_symmetry_1
_geom_bond_site_symmetry_2
B1 H1 1_555 1_555
B2 B1 1_555 1_555
H2 B2 1_555 1_555
B3 B2 1_555 1_555
H3 B3 1_555 1_555
B4 B3 1_555 1_555
H4 B4 1_555 1_555
B5 B1 1_555 1_555
H5 B5 1_555 1_555
B6 B1 1_555 1_555
H6 B6 1_555 1_555
B7 B2 1_555 1_555
H7 B7 1_555 1_555
B8 B3 1_555 1_555
H8 B8 1_555 1_555
B9 B4 1_555 1_555
H9 B9 1_555 1_555
B10 B5 1_555 1_555
H10 B10 1_555 1_555
C1 B1 1_555 1_555
C2 B1 1_555 1_555
C3 C1 1_555 1_555
H11 C3 1_555 1_555
C4 C3 1_555 1_555
C5 C2 1_555 1_555
H12 C5 1_555 1_555
C6 C3 1_555 1_555
H13 C6 1_555 1_555
C7 C5 1_555 1_555
H14 C7 1_555 1_555
C8 C4 1_555 1_555
C9 C8 1_555 1_555
C10 C9 1_555 1_555
H15 C10 1_555 1_555
C11 C10 1_555 1_555
H16 C11 1_555 1_555
C12 C11 1_555 1_555
H17 C12 1_555 1_555
C13 C12 1_555 1_555
H18 C13 1_555 1_555
C14 C9 1_555 1_555
H19 C14 1_555 1_555
C15 C8 1_555 1_555
C16 C15 1_555 1_555
H20 C16 1_555 1_555
C17 C16 1_555 1_555
H21 C17 1_555 1_555
C18 C17 1_555 1_555
H22 C18 1_555 1_555
C19 C18 1_555 1_555
H23 C19 1_555 1_555
C20 C15 1_555 1_555
H24 C20 1_555 1_555
O1 C7 1_555 1_555
O2 C6 1_555 1_555
B2 B6 1_555 1_555
B2 C1 1_555 1_555
B3 B7 1_555 1_555
B3 C1 1_555 1_555
B4 B8 1_555 1_555
B4 C1 1_555 1_555
B4 C2 1_555 1_555
B5 B6 1_555 1_555
B5 B9 1_555 1_555
B5 C2 1_555 1_555
B6 B7 1_555 1_555
B6 B10 1_555 1_555
B7 B8 1_555 1_555
B7 B10 1_555 1_555
B8 B9 1_555 1_555
B8 B10 1_555 1_555
B9 B10 1_555 1_555
B9 C2 1_555 1_555
C1 C2 1_555 1_555
C4 C5 1_555 1_555
C13 C14 1_555 1_555
C19 C20 1_555 1_555

#END
