
#######################################################################
#
#                 Cambridge Crystallographic Data Centre
#                                CCDC 
#
#######################################################################
#
# If this CIF has been generated from an entry in the Cambridge 
# Structural Database, then it will include bibliographic, chemical, 
# crystal, experimental, refinement or atomic coordinate data resulting 
# from the CCDC's data processing and validation procedures.
#
#######################################################################

data_KOLBEU
_chemical_formula_moiety         'C20 H24 B10 O1'
_chemical_name_systematic        
1,2-(3-(diphenylmethylene)-6-oxabicyclo[3.1.0]hexane-2,4-diyl)-1,2-dicarba-closo-dodecaborane
_symmetry_cell_setting           monoclinic
_symmetry_space_group_name_H-M   'P 21/c'
_symmetry_Int_Tables_number      14
_space_group_name_Hall           '-P 2ybc'
loop_
_symmetry_equiv_pos_site_id
_symmetry_equiv_pos_as_xyz
1 x,y,z
2 -x,1/2+y,1/2-z
3 -x,-y,-z
4 x,1/2-y,1/2+z
_cell_length_a                   15.911(2)
_cell_length_b                   11.9373(15)
_cell_length_c                   11.6084(14)
_cell_angle_alpha                90
_cell_angle_beta                 109.358(3)
_cell_angle_gamma                90
_cell_volume                     2080.19
_cell_formula_units_Z            4
loop_
_atom_site_label
_atom_site_type_symbol
_atom_site_fract_x
_atom_site_fract_y
_atom_site_fract_z
O1 O -0.19241(10) -0.71556(12) -0.04854(13)
B1 B -0.22108(12) -0.51844(16) -0.40547(17)
H1 H -0.2783 -0.5680 -0.4617
B2 B -0.11594(14) -0.53586(17) -0.4178(2)
H2 H -0.1036 -0.5979 -0.4805
B3 B -0.03444(14) -0.50721(19) -0.2762(2)
H3 H 0.0301 -0.5510 -0.2477
B4 B -0.08667(13) -0.47007(18) -0.1718(2)
H4 H -0.0552 -0.4880 -0.0740
B5 B -0.23487(13) -0.38211(16) -0.36239(19)
H5 H -0.3012 -0.3430 -0.3884
B6 B -0.17900(14) -0.41159(18) -0.46823(19)
H6 H -0.2078 -0.3897 -0.5655
B7 B -0.06361(15) -0.40367(18) -0.3905(2)
H7 H -0.0169 -0.3775 -0.4371
B8 B -0.04743(15) -0.3651(2) -0.2392(2)
H8 H 0.0095 -0.3130 -0.1870
B9 B -0.15338(14) -0.35230(17) -0.2209(2)
H9 H -0.1673 -0.2938 -0.1562
B10 B -0.13717(15) -0.30848(17) -0.3569(2)
H10 H -0.1391 -0.2193 -0.3817
C1 C -0.13321(10) -0.56987(13) -0.28526(15)
C2 C -0.19923(10) -0.48248(13) -0.25279(14)
C3 C -0.25123(11) -0.55889(13) -0.19274(15)
H11 H -0.3077 -0.5286 -0.1898
C4 C -0.18598(13) -0.59907(16) -0.07052(17)
H12 H -0.1624 -0.5467 -0.0023
C5 C -0.12768(13) -0.67826(16) -0.10102(18)
H13 H -0.0640 -0.6807 -0.0538
C6 C -0.15949(11) -0.68266(14) -0.24020(17)
H14 H -0.1432 -0.7503 -0.2758
C7 C -0.25795(10) -0.66670(13) -0.26267(15)
C8 C -0.32613(10) -0.73500(14) -0.30652(15)
C9 C -0.31910(11) -0.84880(14) -0.35220(15)
C10 C -0.25387(12) -0.92290(14) -0.28843(17)
H15 H -0.2111 -0.9002 -0.2159
C11 C -0.25130(14) -1.02976(16) -0.33062(19)
H16 H -0.2063 -1.0784 -0.2871
C12 C -0.31412(15) -1.06517(16) -0.4358(2)
H17 H -0.3119 -1.1376 -0.4642
C13 C -0.38034(15) -0.99367(18) -0.4992(2)
H18 H -0.4239 -1.0178 -0.5703
C14 C -0.38268(12) -0.88640(17) -0.45805(18)
H19 H -0.4278 -0.8382 -0.5021
C15 C -0.41596(11) -0.70249(16) -0.30732(16)
C16 C -0.45574(14) -0.6040(2) -0.3583(2)
H20 H -0.4264 -0.5553 -0.3946
C17 C -0.53917(19) -0.5775(3) -0.3554(3)
H21 H -0.5663 -0.5112 -0.3909
C18 C -0.58223(17) -0.6471(4) -0.3015(3)
H22 H -0.6381 -0.6278 -0.2985
C19 C -0.54373(18) -0.7446(4) -0.2522(3)
H23 H -0.5734 -0.7926 -0.2156
C20 C -0.46145(15) -0.7731(2) -0.2558(2)
H24 H -0.4361 -0.8410 -0.2229
loop_
_geom_bond_atom_site_label_1
_geom_bond_atom_site_label_2
_geom_bond_site_symmetry_1
_geom_bond_site_symmetry_2
O1 C4 1_555 1_555
B1 H1 1_555 1_555
B2 B1 1_555 1_555
H2 B2 1_555 1_555
B3 B2 1_555 1_555
H3 B3 1_555 1_555
B4 B3 1_555 1_555
H4 B4 1_555 1_555
B5 B1 1_555 1_555
H5 B5 1_555 1_555
B6 B1 1_555 1_555
H6 B6 1_555 1_555
B7 B2 1_555 1_555
H7 B7 1_555 1_555
B8 B3 1_555 1_555
H8 B8 1_555 1_555
B9 B4 1_555 1_555
H9 B9 1_555 1_555
B10 B5 1_555 1_555
H10 B10 1_555 1_555
C1 B1 1_555 1_555
C2 B1 1_555 1_555
C3 C2 1_555 1_555
H11 C3 1_555 1_555
C4 C3 1_555 1_555
H12 C4 1_555 1_555
C5 O1 1_555 1_555
H13 C5 1_555 1_555
C6 C1 1_555 1_555
H14 C6 1_555 1_555
C7 C3 1_555 1_555
C8 C7 1_555 1_555
C9 C8 1_555 1_555
C10 C9 1_555 1_555
H15 C10 1_555 1_555
C11 C10 1_555 1_555
H16 C11 1_555 1_555
C12 C11 1_555 1_555
H17 C12 1_555 1_555
C13 C12 1_555 1_555
H18 C13 1_555 1_555
C14 C9 1_555 1_555
H19 C14 1_555 1_555
C15 C8 1_555 1_555
C16 C15 1_555 1_555
H20 C16 1_555 1_555
C17 C16 1_555 1_555
H21 C17 1_555 1_555
C18 C17 1_555 1_555
H22 C18 1_555 1_555
C19 C18 1_555 1_555
H23 C19 1_555 1_555
C20 C15 1_555 1_555
H24 C20 1_555 1_555
B2 B6 1_555 1_555
B2 C1 1_555 1_555
B3 B7 1_555 1_555
B3 C1 1_555 1_555
B4 B8 1_555 1_555
B4 C1 1_555 1_555
B4 C2 1_555 1_555
B5 B6 1_555 1_555
B5 B9 1_555 1_555
B5 C2 1_555 1_555
B6 B7 1_555 1_555
B6 B10 1_555 1_555
B7 B8 1_555 1_555
B7 B10 1_555 1_555
B8 B9 1_555 1_555
B8 B10 1_555 1_555
B9 B10 1_555 1_555
B9 C2 1_555 1_555
C1 C2 1_555 1_555
C4 C5 1_555 1_555
C5 C6 1_555 1_555
C6 C7 1_555 1_555
C13 C14 1_555 1_555
C19 C20 1_555 1_555

#END
