
#######################################################################
#
#                 Cambridge Crystallographic Data Centre
#                                CCDC 
#
#######################################################################
#
# If this CIF has been generated from an entry in the Cambridge 
# Structural Database, then it will include bibliographic, chemical, 
# crystal, experimental, refinement or atomic coordinate data resulting 
# from the CCDC's data processing and validation procedures.
#
#######################################################################

data_KOLBAQ
_chemical_formula_moiety         'C26 H28 B10'
_chemical_name_systematic        
1,2-(2-(diphenylmethylene)cyclopent-4-ene-1,3-diyl)-3-phenyl-1,2-dicarba-closo-dodecaborane
_symmetry_cell_setting           monoclinic
_symmetry_space_group_name_H-M   'P 21/c'
_symmetry_Int_Tables_number      14
_space_group_name_Hall           '-P 2ybc'
loop_
_symmetry_equiv_pos_site_id
_symmetry_equiv_pos_as_xyz
1 x,y,z
2 -x,1/2+y,1/2-z
3 -x,-y,-z
4 x,1/2-y,1/2+z
_cell_length_a                   15.5517(13)
_cell_length_b                   11.6121(10)
_cell_length_c                   14.5962(12)
_cell_angle_alpha                90
_cell_angle_beta                 106.158(2)
_cell_angle_gamma                90
_cell_volume                     2531.77
_cell_formula_units_Z            4
loop_
_atom_site_label
_atom_site_type_symbol
_atom_site_fract_x
_atom_site_fract_y
_atom_site_fract_z
B1 B 0.10647(11) 0.66236(13) 0.27537(11)
B2 B 0.18386(11) 0.77751(13) 0.29918(12)
H1 H 0.1700 0.8543 0.3368
B3 B 0.29526(12) 0.72952(14) 0.31727(13)
H2 H 0.3515 0.7754 0.3660
B4 B 0.29575(12) 0.57985(14) 0.30582(12)
H3 H 0.3536 0.5286 0.3456
B5 B 0.11997(12) 0.58507(15) 0.17560(12)
H4 H 0.0637 0.5345 0.1316
B6 B 0.12265(12) 0.73926(15) 0.18008(13)
H5 H 0.0682 0.7929 0.1365
B7 B 0.23503(13) 0.78438(15) 0.20390(13)
H6 H 0.2529 0.8671 0.1773
B8 B 0.30256(13) 0.66110(15) 0.20904(13)
H7 H 0.3635 0.6638 0.1849
B9 B 0.23142(12) 0.53724(15) 0.19341(12)
H8 H 0.2458 0.4569 0.1606
B10 B 0.19495(13) 0.66448(15) 0.12689(13)
H9 H 0.1862 0.6682 0.0495
C1 C 0.21746(9) 0.64922(11) 0.35472(10)
C2 C 0.18299(9) 0.54169(11) 0.28607(9)
C3 C 0.17705(9) 0.44319(11) 0.35848(9)
H10 H 0.1764 0.3642 0.3347
C4 C 0.10502(10) 0.47246(13) 0.40647(10)
H11 H 0.0508 0.4342 0.3976
C5 C 0.13264(10) 0.56168(13) 0.46312(10)
H12 H 0.1011 0.5968 0.5011
C6 C 0.22437(9) 0.59739(11) 0.45587(9)
H13 H 0.2613 0.6409 0.5102
C7 C 0.25527(10) 0.47401(12) 0.44520(10)
C8 C 0.31741(10) 0.41135(12) 0.50577(10)
C9 C 0.32535(10) 0.28492(12) 0.49531(9)
C10 C 0.40962(12) 0.23526(15) 0.51357(11)
H14 H 0.4604 0.2814 0.5318
C11 C 0.41838(16) 0.11789(19) 0.50486(14)
H15 H 0.4751 0.0857 0.5161
C12 C 0.34463(19) 0.04834(17) 0.47984(14)
H16 H 0.3512 -0.0307 0.4741
C13 C 0.26102(16) 0.09572(15) 0.46333(13)
H17 H 0.2108 0.0485 0.4469
C14 C 0.25098(12) 0.21322(13) 0.47090(11)
H18 H 0.1939 0.2446 0.4596
C15 C 0.38271(10) 0.46765(13) 0.58841(10)
C16 C 0.39854(12) 0.42331(16) 0.67985(11)
H19 H 0.3696 0.3564 0.6899
C17 C 0.45708(14) 0.4781(2) 0.75600(13)
H20 H 0.4668 0.4480 0.8171
C18 C 0.50102(13) 0.57612(19) 0.74278(13)
H21 H 0.5398 0.6129 0.7946
C19 C 0.48744(12) 0.61953(17) 0.65301(13)
H22 H 0.5176 0.6856 0.6435
C20 C 0.42916(11) 0.56558(14) 0.57650(11)
H23 H 0.4209 0.5956 0.5156
C21 C 0.01474(9) 0.66993(12) 0.30111(10)
C22 C -0.05665(11) 0.59750(14) 0.25999(12)
H24 H -0.0495 0.5411 0.2175
C23 C -0.13752(11) 0.60677(17) 0.28030(13)
H25 H -0.1839 0.5566 0.2521
C24 C -0.14991(12) 0.69035(17) 0.34238(14)
H26 H -0.2043 0.6963 0.3568
C25 C -0.08145(12) 0.76462(15) 0.38271(13)
H27 H -0.0897 0.8217 0.4242
C26 C -0.00033(11) 0.75528(13) 0.36215(12)
H28 H 0.0453 0.8070 0.3895
loop_
_geom_bond_atom_site_label_1
_geom_bond_atom_site_label_2
_geom_bond_site_symmetry_1
_geom_bond_site_symmetry_2
B1 B2 1_555 1_555
B2 H1 1_555 1_555
B3 B2 1_555 1_555
H2 B3 1_555 1_555
B4 B3 1_555 1_555
H3 B4 1_555 1_555
B5 B1 1_555 1_555
H4 B5 1_555 1_555
B6 B1 1_555 1_555
H5 B6 1_555 1_555
B7 B2 1_555 1_555
H6 B7 1_555 1_555
B8 B3 1_555 1_555
H7 B8 1_555 1_555
B9 B4 1_555 1_555
H8 B9 1_555 1_555
B10 B5 1_555 1_555
H9 B10 1_555 1_555
C1 B1 1_555 1_555
C2 B1 1_555 1_555
C3 C2 1_555 1_555
H10 C3 1_555 1_555
C4 C3 1_555 1_555
H11 C4 1_555 1_555
C5 C4 1_555 1_555
H12 C5 1_555 1_555
C6 C1 1_555 1_555
H13 C6 1_555 1_555
C7 C3 1_555 1_555
C8 C7 1_555 1_555
C9 C8 1_555 1_555
C10 C9 1_555 1_555
H14 C10 1_555 1_555
C11 C10 1_555 1_555
H15 C11 1_555 1_555
C12 C11 1_555 1_555
H16 C12 1_555 1_555
C13 C12 1_555 1_555
H17 C13 1_555 1_555
C14 C9 1_555 1_555
H18 C14 1_555 1_555
C15 C8 1_555 1_555
C16 C15 1_555 1_555
H19 C16 1_555 1_555
C17 C16 1_555 1_555
H20 C17 1_555 1_555
C18 C17 1_555 1_555
H21 C18 1_555 1_555
C19 C18 1_555 1_555
H22 C19 1_555 1_555
C20 C15 1_555 1_555
H23 C20 1_555 1_555
C21 B1 1_555 1_555
C22 C21 1_555 1_555
H24 C22 1_555 1_555
C23 C22 1_555 1_555
H25 C23 1_555 1_555
C24 C23 1_555 1_555
H26 C24 1_555 1_555
C25 C24 1_555 1_555
H27 C25 1_555 1_555
C26 C21 1_555 1_555
H28 C26 1_555 1_555
B2 B6 1_555 1_555
B2 C1 1_555 1_555
B3 B7 1_555 1_555
B3 C1 1_555 1_555
B4 B8 1_555 1_555
B4 C1 1_555 1_555
B4 C2 1_555 1_555
B5 B6 1_555 1_555
B5 B9 1_555 1_555
B5 C2 1_555 1_555
B6 B7 1_555 1_555
B6 B10 1_555 1_555
B7 B8 1_555 1_555
B7 B10 1_555 1_555
B8 B9 1_555 1_555
B8 B10 1_555 1_555
B9 B10 1_555 1_555
B9 C2 1_555 1_555
C1 C2 1_555 1_555
C5 C6 1_555 1_555
C6 C7 1_555 1_555
C13 C14 1_555 1_555
C19 C20 1_555 1_555
C25 C26 1_555 1_555

#END
