
#######################################################################
#
#                 Cambridge Crystallographic Data Centre
#                                CCDC 
#
#######################################################################
#
# If this CIF has been generated from an entry in the Cambridge 
# Structural Database, then it will include bibliographic, chemical, 
# crystal, experimental, refinement or atomic coordinate data resulting 
# from the CCDC's data processing and validation procedures.
#
#######################################################################

data_KOLFOI
_chemical_formula_moiety         'C11 H22 B10'
_chemical_name_systematic        
1,3-(1,3,5-trimethylcyclohexa-2,5-diene-1,4-diyl)-1,2-dicarba-closo-dodecaborane(10)
_symmetry_cell_setting           triclinic
_symmetry_space_group_name_H-M   'P -1'
_symmetry_Int_Tables_number      2
_space_group_name_Hall           '-P 1'
loop_
_symmetry_equiv_pos_site_id
_symmetry_equiv_pos_as_xyz
1 x,y,z
2 -x,-y,-z
_cell_length_a                   7.930(3)
_cell_length_b                   9.611(3)
_cell_length_c                   11.749(4)
_cell_angle_alpha                76.964(7)
_cell_angle_beta                 87.887(7)
_cell_angle_gamma                66.792(5)
_cell_volume                     800.429
_exptl_crystal_colour            colorless
_exptl_crystal_description       block
_cell_formula_units_Z            2
loop_
_atom_site_label
_atom_site_type_symbol
_atom_site_fract_x
_atom_site_fract_y
_atom_site_fract_z
C1 C 0.7789(3) 0.4334(3) 0.3149(2)
C2 C 0.8645(4) 0.4654(3) 0.1838(3)
H1 H 0.9877 0.3761 0.1588
C3 C 0.9661(4) 0.2432(4) 0.5036(3)
H2 H 1.0123 0.1371 0.5474
H3 H 0.8856 0.3091 0.5503
H4 H 1.0669 0.2737 0.4830
C4 C 0.8605(3) 0.2586(3) 0.3928(2)
C5 C 0.9755(3) 0.1562(3) 0.3130(2)
H5 H 1.1009 0.0978 0.3290
C6 C 0.8881(3) 0.1545(3) 0.2199(2)
C7 C 0.9711(5) 0.0681(3) 0.1268(3)
H6 H 1.1001 0.0087 0.1461
H7 H 0.9543 0.1410 0.0529
H8 H 0.9122 -0.0006 0.1217
C8 C 0.6821(3) 0.2580(3) 0.2077(2)
H9 H 0.6191 0.2476 0.1419
C9 C 0.6045(3) 0.2146(3) 0.3243(3)
C10 C 0.6957(4) 0.2149(3) 0.4161(2)
H10 H 0.6606 0.1894 0.4917
C11 C 0.4337(4) 0.1840(4) 0.3257(4)
H11 H 0.4023 0.1582 0.4051
H12 H 0.4541 0.0990 0.2896
H13 H 0.3350 0.2753 0.2832
B1 B 0.6633(4) 0.4355(3) 0.1961(3)
B2 B 0.5452(4) 0.5392(3) 0.3008(3)
H14 H 0.4460 0.5052 0.3556
B3 B 0.6912(5) 0.6063(3) 0.3605(3)
H15 H 0.6911 0.6128 0.4528
B4 B 0.8973(5) 0.5555(4) 0.2848(3)
H16 H 1.0312 0.5284 0.3276
B5 B 0.6940(6) 0.5753(4) 0.0778(3)
H17 H 0.6965 0.5628 -0.0131
B6 B 0.4881(5) 0.6254(4) 0.1530(3)
H18 H 0.3564 0.6460 0.1105
B7 B 0.5091(5) 0.7339(4) 0.2555(3)
H19 H 0.3891 0.8275 0.2792
B8 B 0.7245(6) 0.7463(4) 0.2447(4)
H20 H 0.7453 0.8468 0.2613
B9 B 0.8379(6) 0.6515(4) 0.1353(4)
H21 H 0.9338 0.6897 0.0801
B10 B 0.5989(7) 0.7591(4) 0.1170(4)
H22 H 0.5373 0.8684 0.0502
loop_
_geom_bond_atom_site_label_1
_geom_bond_atom_site_label_2
_geom_bond_site_symmetry_1
_geom_bond_site_symmetry_2
C1 C2 1_555 1_555
C2 H1 1_555 1_555
C3 H2 1_555 1_555
H3 C3 1_555 1_555
H4 C3 1_555 1_555
C4 C1 1_555 1_555
C5 C4 1_555 1_555
H5 C5 1_555 1_555
C6 C5 1_555 1_555
C7 C6 1_555 1_555
H6 C7 1_555 1_555
H7 C7 1_555 1_555
H8 C7 1_555 1_555
C8 C6 1_555 1_555
H9 C8 1_555 1_555
C9 C8 1_555 1_555
C10 C4 1_555 1_555
H10 C10 1_555 1_555
C11 C9 1_555 1_555
H11 C11 1_555 1_555
H12 C11 1_555 1_555
H13 C11 1_555 1_555
B1 C1 1_555 1_555
B2 C1 1_555 1_555
H14 B2 1_555 1_555
B3 C1 1_555 1_555
H15 B3 1_555 1_555
B4 C1 1_555 1_555
H16 B4 1_555 1_555
B5 C2 1_555 1_555
H17 B5 1_555 1_555
B6 B1 1_555 1_555
H18 B6 1_555 1_555
B7 B2 1_555 1_555
H19 B7 1_555 1_555
B8 B3 1_555 1_555
H20 B8 1_555 1_555
B9 C2 1_555 1_555
H21 B9 1_555 1_555
B10 B5 1_555 1_555
H22 B10 1_555 1_555
C2 B1 1_555 1_555
C2 B4 1_555 1_555
C3 C4 1_555 1_555
C8 B1 1_555 1_555
C9 C10 1_555 1_555
B1 B2 1_555 1_555
B1 B5 1_555 1_555
B2 B3 1_555 1_555
B2 B6 1_555 1_555
B3 B4 1_555 1_555
B3 B7 1_555 1_555
B4 B8 1_555 1_555
B4 B9 1_555 1_555
B5 B6 1_555 1_555
B5 B9 1_555 1_555
B6 B7 1_555 1_555
B6 B10 1_555 1_555
B7 B8 1_555 1_555
B7 B10 1_555 1_555
B8 B9 1_555 1_555
B8 B10 1_555 1_555
B9 B10 1_555 1_555

#END
