
#######################################################################
#
#                 Cambridge Crystallographic Data Centre
#                                CCDC 
#
#######################################################################
#
# If this CIF has been generated from an entry in the Cambridge 
# Structural Database, then it will include bibliographic, chemical, 
# crystal, experimental, refinement or atomic coordinate data resulting 
# from the CCDC's data processing and validation procedures.
#
#######################################################################

data_KOLKUT
_chemical_formula_moiety         'C30 H10 F8 S8'
_chemical_name_systematic        
2-(4,5-bis((2,4-difluorophenyl)sulfanyl)-1,3-dithiol-2-ylidene)-4,5-bis((2,4-difluorophenyl)sulfanyl)-1,3-dithiole
_symmetry_cell_setting           triclinic
_symmetry_space_group_name_H-M   'P -1'
_symmetry_Int_Tables_number      2
_space_group_name_Hall           '-P 1'
loop_
_symmetry_equiv_pos_site_id
_symmetry_equiv_pos_as_xyz
1 x,y,z
2 -x,-y,-z
_cell_length_a                   5.4430(5)
_cell_length_b                   11.5659(12)
_cell_length_c                   12.3744(18)
_cell_angle_alpha                81.546(10)
_cell_angle_beta                 86.631(10)
_cell_angle_gamma                83.023(8)
_cell_volume                     764.173
_exptl_crystal_colour            'dark orange'
_exptl_crystal_description       needle
_chemical_melting_point          '484 K'
_cell_formula_units_Z            1
loop_
_atom_site_label
_atom_site_type_symbol
_atom_site_fract_x
_atom_site_fract_y
_atom_site_fract_z
C1 C 0.4018(5) 0.0235(2) 0.0269(2)
C2 C 0.0595(5) 0.1653(2) 0.1091(2)
C3 C 0.0255(5) 0.0580(3) 0.1610(2)
C4 C 0.0374(5) 0.3828(3) 0.1752(2)
C5 C -0.0182(6) 0.5022(3) 0.1460(3)
C6 C 0.1141(7) 0.5829(3) 0.1814(3)
H1 H 0.0754 0.6633 0.1608
C7 C 0.3049(7) 0.5389(4) 0.2484(3)
C8 C 0.3664(6) 0.4222(4) 0.2801(3)
H2 H 0.4981 0.3957 0.3254
C9 C 0.2296(6) 0.3431(3) 0.2438(3)
C10 C -0.0925(5) -0.0963(3) 0.3402(2)
C11 C 0.1065(6) -0.0979(3) 0.4051(3)
C12 C 0.1946(6) -0.1953(4) 0.4742(3)
H3 H 0.3297 -0.1947 0.5167
C13 C 0.0771(7) -0.2931(3) 0.4785(3)
C14 C -0.1224(6) -0.2982(3) 0.4180(3)
H4 H -0.1996 -0.3664 0.4235
C15 C -0.2050(6) -0.1983(3) 0.3483(3)
H5 H -0.3396 -0.1996 0.3058
F1 F 0.4398(4) 0.6172(2) 0.2833(2)
F2 F 0.2195(4) 0.00072(19) 0.39907(17)
F3 F 0.1668(4) -0.3918(2) 0.54490(19)
S1 S 0.30212(13) 0.17529(6) 0.00906(7)
S2 S 0.22065(13) -0.06185(6) 0.12248(6)
S3 S -0.15024(14) 0.28927(7) 0.12474(8)
S4 S -0.22020(14) 0.03219(8) 0.25646(7)
F4 F -0.2136(4) 0.5429(2) 0.0847(2)
C1A C 0.5982(5) -0.0235(2) -0.0269(2)
C2A C 0.9405(5) -0.1653(2) -0.1091(2)
C3A C 0.9745(5) -0.0580(3) -0.1610(2)
C4A C 0.9626(5) -0.3828(3) -0.1752(2)
C5A C 1.0182(6) -0.5022(3) -0.1460(3)
C6A C 0.8859(7) -0.5829(3) -0.1814(3)
H1A H 0.9246 -0.6633 -0.1608
C7A C 0.6951(7) -0.5389(4) -0.2484(3)
C8A C 0.6336(6) -0.4222(4) -0.2801(3)
H2A H 0.5019 -0.3957 -0.3254
C9A C 0.7704(6) -0.3431(3) -0.2438(3)
C10A C 1.0925(5) 0.0963(3) -0.3402(2)
C11A C 0.8935(6) 0.0979(3) -0.4051(3)
C12A C 0.8054(6) 0.1953(4) -0.4742(3)
H3A H 0.6703 0.1947 -0.5167
C13A C 0.9229(7) 0.2931(3) -0.4785(3)
C14A C 1.1224(6) 0.2982(3) -0.4180(3)
H4A H 1.1996 0.3664 -0.4235
C15A C 1.2050(6) 0.1983(3) -0.3483(3)
H5A H 1.3396 0.1996 -0.3058
F1A F 0.5602(4) -0.6172(2) -0.2833(2)
F2A F 0.7805(4) -0.00072(19) -0.39907(17)
F3A F 0.8332(4) 0.3918(2) -0.54490(19)
S1A S 0.69788(13) -0.17529(6) -0.00906(7)
S2A S 0.77935(13) 0.06185(6) -0.12248(6)
S3A S 1.15024(14) -0.28927(7) -0.12474(8)
S4A S 1.22020(14) -0.03219(8) -0.25646(7)
F4A F 1.2136(4) -0.5429(2) -0.0847(2)
F5? F 0.2677(14) 0.2447(7) 0.2952(7)
loop_
_geom_bond_atom_site_label_1
_geom_bond_atom_site_label_2
_geom_bond_site_symmetry_1
_geom_bond_site_symmetry_2
C1 S1 1_555 1_555
C2 C3 1_555 1_555
C3 S2 1_555 1_555
C4 C5 1_555 1_555
C5 C6 1_555 1_555
C6 H1 1_555 1_555
C7 C6 1_555 1_555
C8 C7 1_555 1_555
H2 C8 1_555 1_555
C9 C4 1_555 1_555
C10 C11 1_555 1_555
C11 C12 1_555 1_555
C12 H3 1_555 1_555
C13 C12 1_555 1_555
C14 C13 1_555 1_555
H4 C14 1_555 1_555
C15 C10 1_555 1_555
H5 C15 1_555 1_555
F1 C7 1_555 1_555
F2 C11 1_555 1_555
F3 C13 1_555 1_555
S1 C2 1_555 1_555
S2 C1 1_555 1_555
S3 C2 1_555 1_555
S4 C3 1_555 1_555
F4 C5 1_555 1_555
C1A C1 1_555 1_555
C2A C3A 1_555 1_555
C3A S2A 1_555 1_555
C4A C5A 1_555 1_555
C5A C6A 1_555 1_555
C6A H1A 1_555 1_555
C7A C6A 1_555 1_555
C8A C7A 1_555 1_555
H2A C8A 1_555 1_555
C9A C4A 1_555 1_555
C10A C11A 1_555 1_555
C11A C12A 1_555 1_555
C12A H3A 1_555 1_555
C13A C12A 1_555 1_555
C14A C13A 1_555 1_555
H4A C14A 1_555 1_555
C15A C10A 1_555 1_555
H5A C15A 1_555 1_555
F1A C7A 1_555 1_555
F2A C11A 1_555 1_555
F3A C13A 1_555 1_555
S1A C1A 1_555 1_555
S2A C1A 1_555 1_555
S3A C2A 1_555 1_555
S4A C3A 1_555 1_555
F4A C5A 1_555 1_555
C4 S3 1_555 1_555
C8 C9 1_555 1_555
C10 S4 1_555 1_555
C14 C15 1_555 1_555
C2A S1A 1_555 1_555
C4A S3A 1_555 1_555
C8A C9A 1_555 1_555
C10A S4A 1_555 1_555
C14A C15A 1_555 1_555

#END
