
#######################################################################
#
#                 Cambridge Crystallographic Data Centre
#                                CCDC 
#
#######################################################################
#
# If this CIF has been generated from an entry in the Cambridge 
# Structural Database, then it will include bibliographic, chemical, 
# crystal, experimental, refinement or atomic coordinate data resulting 
# from the CCDC's data processing and validation procedures.
#
#######################################################################

data_KOLKOM
_chemical_formula_moiety         'C6 H13 N2 1+,C5 H10 N1 O1 S2 1-'
_chemical_name_systematic        
'4-Aza-1-azoniabicyclo(2.2.2)octane N-(2-hydroxyethyl)-N-ethyldithiocarbamate'
_symmetry_cell_setting           triclinic
_symmetry_space_group_name_H-M   'P -1'
_symmetry_Int_Tables_number      2
_space_group_name_Hall           '-P 1'
loop_
_symmetry_equiv_pos_site_id
_symmetry_equiv_pos_as_xyz
1 x,y,z
2 -x,-y,-z
_cell_length_a                   7.7319(2)
_cell_length_b                   9.5151(2)
_cell_length_c                   9.5940(2)
_cell_angle_alpha                84.292(1)
_cell_angle_beta                 77.195(1)
_cell_angle_gamma                85.278(1)
_cell_volume                     683.539
_exptl_crystal_colour            colorless
_exptl_crystal_description       block
_chemical_melting_point          '156-159 deg.C (dec.)'
_cell_formula_units_Z            2
loop_
_atom_site_label
_atom_site_type_symbol
_atom_site_fract_x
_atom_site_fract_y
_atom_site_fract_z
S1 S 0.81519(5) 0.41919(4) 0.22507(4)
S2 S 0.52145(5) 0.23312(4) 0.23615(4)
O1 O 0.69048(19) -0.19688(13) 0.43566(14)
H1 H 0.6326 -0.2173 0.5193
N1 N 0.85085(17) 0.13860(14) 0.25068(13)
C1 C 0.7407(2) 0.25409(16) 0.23938(16)
C2 C 0.7929(2) -0.00552(16) 0.26740(16)
H3 H 0.8892 -0.0689 0.2164
H4 H 0.6880 -0.0077 0.2246
C3 C 0.7461(2) -0.05701(17) 0.42456(17)
H5 H 0.8508 -0.0559 0.4679
H6 H 0.6494 0.0056 0.4762
C4 C 1.0416(2) 0.14807(17) 0.24343(17)
H7 H 1.0858 0.0650 0.2991
H8 H 1.0594 0.2341 0.2874
C5 C 1.1473(2) 0.1535(2) 0.09030(18)
H9 H 1.2735 0.1597 0.0893
H10 H 1.1053 0.2367 0.0354
H11 H 1.1315 0.0677 0.0470
N2 N 0.40050(18) 0.56798(14) 0.23804(14)
H2 H 0.4785 0.4879 0.2308
N3 N 0.18865(17) 0.78495(14) 0.25759(15)
C6 C 0.2667(2) 0.55572(19) 0.1512(2)
H12 H 0.1964 0.4725 0.1889
H13 H 0.3265 0.5436 0.0502
C7 C 0.1446(2) 0.69189(18) 0.1599(2)
H14 H 0.1569 0.7422 0.0632
H15 H 0.0194 0.6672 0.1938
C8 C 0.3140(3) 0.5801(2) 0.39140(19)
H16 H 0.4039 0.5941 0.4471
H17 H 0.2538 0.4927 0.4324
C9 C 0.1776(3) 0.7080(2) 0.39828(19)
H18 H 0.0564 0.6748 0.4341
H19 H 0.1997 0.7724 0.4665
C10 C 0.5022(2) 0.69511(18) 0.1820(2)
H20 H 0.5582 0.6896 0.0792
H21 H 0.5970 0.7012 0.2353
C11 C 0.3712(2) 0.82538(18) 0.2017(2)
H22 H 0.4047 0.8855 0.2688
H23 H 0.3783 0.8817 0.1083
loop_
_geom_bond_atom_site_label_1
_geom_bond_atom_site_label_2
_geom_bond_site_symmetry_1
_geom_bond_site_symmetry_2
S1 C1 1_555 1_555
S2 C1 1_555 1_555
O1 H1 1_555 1_555
N1 C1 1_555 1_555
N2 H2 1_555 1_555
N3 C7 1_555 1_555
C2 N1 1_555 1_555
H3 C2 1_555 1_555
H4 C2 1_555 1_555
C3 O1 1_555 1_555
H5 C3 1_555 1_555
H6 C3 1_555 1_555
C4 N1 1_555 1_555
H7 C4 1_555 1_555
H8 C4 1_555 1_555
C5 C4 1_555 1_555
H9 C5 1_555 1_555
H10 C5 1_555 1_555
H11 C5 1_555 1_555
C6 N2 1_555 1_555
H12 C6 1_555 1_555
H13 C6 1_555 1_555
C7 C6 1_555 1_555
H14 C7 1_555 1_555
H15 C7 1_555 1_555
C8 N2 1_555 1_555
H16 C8 1_555 1_555
H17 C8 1_555 1_555
C9 N3 1_555 1_555
H18 C9 1_555 1_555
H19 C9 1_555 1_555
C10 N2 1_555 1_555
H20 C10 1_555 1_555
H21 C10 1_555 1_555
C11 N3 1_555 1_555
H22 C11 1_555 1_555
H23 C11 1_555 1_555
C2 C3 1_555 1_555
C8 C9 1_555 1_555
C10 C11 1_555 1_555

#END
