
#######################################################################
#
#                 Cambridge Crystallographic Data Centre
#                                CCDC 
#
#######################################################################
#
# If this CIF has been generated from an entry in the Cambridge 
# Structural Database, then it will include bibliographic, chemical, 
# crystal, experimental, refinement or atomic coordinate data resulting 
# from the CCDC's data processing and validation procedures.
#
#######################################################################

data_KOLKIH
_chemical_formula_moiety         'C30 H16 F4 S8'
_chemical_name_systematic        
2-(4,5-bis((2-fluorophenyl)sulfanyl)-1,3-dithiol-2-ylidene)-4,5-bis((2-fluorophenyl)sulfanyl)-1,3-dithiole
_symmetry_cell_setting           monoclinic
_symmetry_space_group_name_H-M   'P 21/n'
_symmetry_Int_Tables_number      14
_space_group_name_Hall           '-P 2yn'
loop_
_symmetry_equiv_pos_site_id
_symmetry_equiv_pos_as_xyz
1 x,y,z
2 1/2-x,1/2+y,1/2-z
3 -x,-y,-z
4 1/2+x,1/2-y,1/2+z
_cell_length_a                   8.80800(10)
_cell_length_b                   9.4713(2)
_cell_length_c                   17.9297(4)
_cell_angle_alpha                90
_cell_angle_beta                 94.400(2)
_cell_angle_gamma                90
_cell_volume                     1491.34
_exptl_crystal_colour            red
_exptl_crystal_description       block
_chemical_melting_point          '476 K'
_cell_formula_units_Z            2
loop_
_atom_site_label
_atom_site_type_symbol
_atom_site_fract_x
_atom_site_fract_y
_atom_site_fract_z
C1 C 0.5690(3) 0.4700(2) 1.00408(12)
C2 C 0.8302(2) 0.3614(2) 0.97810(13)
C3 C 0.8000(3) 0.3126(2) 1.04561(13)
C4 C 0.9280(2) 0.3166(2) 0.84019(14)
C5 C 0.9926(3) 0.3988(3) 0.78740(15)
H1 H 1.0698 0.4619 0.8026
C6 C 0.9445(3) 0.3889(3) 0.71231(16)
H2 H 0.9897 0.4444 0.6774
C7 C 0.8304(3) 0.2973(3) 0.68950(16)
H3 H 0.7974 0.2913 0.6391
C8 C 0.7646(4) 0.2144(3) 0.74050(17)
H4 H 0.6862 0.1527 0.7251
C9 C 0.8153(3) 0.2234(3) 0.81438(16)
C10 C 0.8133(3) 0.0508(3) 1.10961(14)
C11 C 0.7239(3) -0.0049(3) 1.04972(17)
H5 H 0.7193 0.0395 1.0033
C12 C 0.6416(3) -0.1270(3) 1.0595(2)
H6 H 0.5801 -0.1633 1.0196
C13 C 0.6492(4) -0.1957(3) 1.1272(2)
H7 H 0.5937 -0.2780 1.1328
C14 C 0.7388(4) -0.1425(3) 1.18654(19)
H8 H 0.7450 -0.1881 1.2326
C15 C 0.8191(3) -0.0207(3) 1.17665(15)
F1 F 0.7531(3) 0.1402(2) 0.86504(11)
F2 F 0.9076(2) 0.0322(2) 1.23483(10)
S1 S 0.63567(7) 0.37509(7) 1.08424(3)
S2 S 0.70049(7) 0.48186(7) 0.93505(3)
S3 S 0.99757(7) 0.32484(8) 0.93524(4)
S4 S 0.92442(7) 0.20644(8) 1.10216(4)
C1B C 0.4310(3) 0.5300(2) 0.99592(12)
C2B C 0.1698(2) 0.6386(2) 1.02190(13)
C3B C 0.2000(3) 0.6874(2) 0.95439(13)
C4B C 0.0720(2) 0.6834(2) 1.15981(14)
C5B C 0.0074(3) 0.6012(3) 1.21260(15)
H1B H -0.0698 0.5381 1.1974
C6B C 0.0555(3) 0.6111(3) 1.28769(16)
H2B H 0.0103 0.5556 1.3226
C7B C 0.1696(3) 0.7027(3) 1.31050(16)
H3B H 0.2026 0.7087 1.3609
C8B C 0.2354(4) 0.7856(3) 1.25950(17)
H4B H 0.3138 0.8473 1.2749
C9B C 0.1847(3) 0.7766(3) 1.18562(16)
C10B C 0.1867(3) 0.9492(3) 0.89039(14)
C11B C 0.2761(3) 1.0049(3) 0.95028(17)
H5B H 0.2807 0.9605 0.9967
C12B C 0.3584(3) 1.1270(3) 0.9405(2)
H6B H 0.4199 1.1633 0.9804
C13B C 0.3508(4) 1.1957(3) 0.8728(2)
H7B H 0.4063 1.2780 0.8672
C14B C 0.2612(4) 1.1425(3) 0.81346(19)
H8B H 0.2550 1.1881 0.7674
C15B C 0.1809(3) 1.0207(3) 0.82335(15)
F1B F 0.2469(3) 0.8598(2) 1.13496(11)
F2B F 0.0924(2) 0.9678(2) 0.76517(10)
S1B S 0.36433(7) 0.62491(7) 0.91576(3)
S2B S 0.29951(7) 0.51814(7) 1.06495(3)
S3B S 0.00243(7) 0.67516(8) 1.06476(4)
S4B S 0.07558(7) 0.79356(8) 0.89784(4)
loop_
_geom_bond_atom_site_label_1
_geom_bond_atom_site_label_2
_geom_bond_site_symmetry_1
_geom_bond_site_symmetry_2
C1 S1 1_555 1_555
C2 C3 1_555 1_555
C3 S1 1_555 1_555
C4 C5 1_555 1_555
C5 H1 1_555 1_555
C6 C5 1_555 1_555
H2 C6 1_555 1_555
C7 C6 1_555 1_555
H3 C7 1_555 1_555
C8 C7 1_555 1_555
H4 C8 1_555 1_555
C9 C4 1_555 1_555
C10 C11 1_555 1_555
C11 H5 1_555 1_555
C12 C11 1_555 1_555
H6 C12 1_555 1_555
C13 C12 1_555 1_555
H7 C13 1_555 1_555
C14 C13 1_555 1_555
H8 C14 1_555 1_555
C15 C10 1_555 1_555
F1 C9 1_555 1_555
F2 C15 1_555 1_555
S2 C1 1_555 1_555
S3 C2 1_555 1_555
S4 C3 1_555 1_555
C1B C1 1_555 1_555
C2B C3B 1_555 1_555
C3B S1B 1_555 1_555
C4B C5B 1_555 1_555
C5B H1B 1_555 1_555
C6B C5B 1_555 1_555
H2B C6B 1_555 1_555
C7B C6B 1_555 1_555
H3B C7B 1_555 1_555
C8B C7B 1_555 1_555
H4B C8B 1_555 1_555
C9B C4B 1_555 1_555
C10B C11B 1_555 1_555
C11B H5B 1_555 1_555
C12B C11B 1_555 1_555
H6B C12B 1_555 1_555
C13B C12B 1_555 1_555
H7B C13B 1_555 1_555
C14B C13B 1_555 1_555
H8B C14B 1_555 1_555
C15B C10B 1_555 1_555
F1B C9B 1_555 1_555
F2B C15B 1_555 1_555
S1B C1B 1_555 1_555
S2B C1B 1_555 1_555
S3B C2B 1_555 1_555
S4B C3B 1_555 1_555
C2 S2 1_555 1_555
C4 S3 1_555 1_555
C8 C9 1_555 1_555
C10 S4 1_555 1_555
C14 C15 1_555 1_555
C2B S2B 1_555 1_555
C4B S3B 1_555 1_555
C8B C9B 1_555 1_555
C10B S4B 1_555 1_555
C14B C15B 1_555 1_555

#END
