
#######################################################################
#
#                 Cambridge Crystallographic Data Centre
#                                CCDC 
#
#######################################################################
#
# If this CIF has been generated from an entry in the Cambridge 
# Structural Database, then it will include bibliographic, chemical, 
# crystal, experimental, refinement or atomic coordinate data resulting 
# from the CCDC's data processing and validation procedures.
#
#######################################################################

data_KOLKIG
_chemical_formula_moiety         'C6 H13 N2 1+,C4 H8 N1 O1 S2 1-'
_chemical_name_systematic        
'4-Aza-1-azoniabicyclo(2.2.2)octane N-(2-hydroxyethyl)-N-methyldithiocarbamate'
_symmetry_cell_setting           monoclinic
_symmetry_space_group_name_H-M   'P 21/n'
_symmetry_Int_Tables_number      14
_space_group_name_Hall           '-P 2yn'
loop_
_symmetry_equiv_pos_site_id
_symmetry_equiv_pos_as_xyz
1 x,y,z
2 1/2-x,1/2+y,1/2-z
3 -x,-y,-z
4 1/2+x,1/2-y,1/2+z
_cell_length_a                   11.8425(4)
_cell_length_b                   9.3648(3)
_cell_length_c                   12.1634(4)
_cell_angle_alpha                90
_cell_angle_beta                 106.823(2)
_cell_angle_gamma                90
_cell_volume                     1291.22
_exptl_crystal_colour            colorless
_exptl_crystal_description       plate
_chemical_melting_point          '141-143 deg.C'
_cell_formula_units_Z            4
loop_
_atom_site_label
_atom_site_type_symbol
_atom_site_fract_x
_atom_site_fract_y
_atom_site_fract_z
S1 S 0.54638(5) 0.32495(6) 0.11555(5)
S2 S 0.61748(5) 0.27612(6) 0.36879(5)
O1 O 0.31762(15) 0.42714(16) 0.49690(13)
H1 H 0.3321 0.5024 0.5360
N1 N 0.39527(16) 0.31226(19) 0.23885(15)
C1 C 0.50906(19) 0.3065(2) 0.23989(18)
C2 C 0.35734(19) 0.3001(2) 0.34302(18)
H3 H 0.4145 0.2408 0.4004
H4 H 0.2795 0.2524 0.3243
C3 C 0.3489(2) 0.4462(2) 0.39318(18)
H5 H 0.4256 0.4963 0.4092
H6 H 0.2883 0.5043 0.3382
C4 C 0.3014(2) 0.3365(3) 0.13197(19)
H7 H 0.3191 0.4225 0.0941
H8 H 0.2261 0.3491 0.1492
H9 H 0.2960 0.2541 0.0810
N2 N 0.83539(16) 0.32986(18) 0.25274(15)
H2 H 0.7554 0.3294 0.2474
N3 N 1.05292(16) 0.33140(19) 0.26726(15)
C5 C 0.8846(2) 0.1831(2) 0.2848(2)
H10 H 0.8438 0.1131 0.2256
H11 H 0.8736 0.1540 0.3593
C6 C 1.0169(2) 0.1886(2) 0.2937(2)
H12 H 1.0634 0.1614 0.3724
H13 H 1.0339 0.1185 0.2396
C7 C 0.8974(2) 0.4336(2) 0.3444(2)
H14 H 0.8876 0.4049 0.4194
H15 H 0.8642 0.5306 0.3256
C8 C 1.02882(19) 0.4324(2) 0.3497(2)
H16 H 1.0527 0.5295 0.3332
H17 H 1.0765 0.4060 0.4283
C9 C 0.8502(2) 0.3738(3) 0.13954(19)
H18 H 0.8178 0.4708 0.1190
H19 H 0.8077 0.3068 0.0786
C10 C 0.9826(2) 0.3719(3) 0.1508(2)
H20 H 0.9977 0.3033 0.0948
H21 H 1.0072 0.4678 0.1323
loop_
_geom_bond_atom_site_label_1
_geom_bond_atom_site_label_2
_geom_bond_site_symmetry_1
_geom_bond_site_symmetry_2
S1 C1 1_555 1_555
S2 C1 1_555 1_555
O1 H1 1_555 1_555
N1 C1 1_555 1_555
N2 H2 1_555 1_555
N3 C6 1_555 1_555
C2 N1 1_555 1_555
H3 C2 1_555 1_555
H4 C2 1_555 1_555
C3 O1 1_555 1_555
H5 C3 1_555 1_555
H6 C3 1_555 1_555
C4 N1 1_555 1_555
H7 C4 1_555 1_555
H8 C4 1_555 1_555
H9 C4 1_555 1_555
C5 N2 1_555 1_555
H10 C5 1_555 1_555
H11 C5 1_555 1_555
C6 C5 1_555 1_555
H12 C6 1_555 1_555
H13 C6 1_555 1_555
C7 N2 1_555 1_555
H14 C7 1_555 1_555
H15 C7 1_555 1_555
C8 N3 1_555 1_555
H16 C8 1_555 1_555
H17 C8 1_555 1_555
C9 N2 1_555 1_555
H18 C9 1_555 1_555
H19 C9 1_555 1_555
C10 N3 1_555 1_555
H20 C10 1_555 1_555
H21 C10 1_555 1_555
C2 C3 1_555 1_555
C7 C8 1_555 1_555
C9 C10 1_555 1_555

#END
