
#######################################################################
#
#                 Cambridge Crystallographic Data Centre
#                                CCDC 
#
#######################################################################
#
# If this CIF has been generated from an entry in the Cambridge 
# Structural Database, then it will include bibliographic, chemical, 
# crystal, experimental, refinement or atomic coordinate data resulting 
# from the CCDC's data processing and validation procedures.
#
#######################################################################

data_KOLSUB
_chemical_formula_moiety         'C19 H18 F3 N1 O2'
_chemical_name_systematic        
2-benzyl-4-methyl-4-(2,2,2-trifluoroethyl)-2-azaspiro[4.5]deca-6,9-diene-3,8-dione
_symmetry_cell_setting           orthorhombic
_symmetry_space_group_name_H-M   'P 21 21 21'
_symmetry_Int_Tables_number      19
_space_group_name_Hall           'P 2ac 2ab'
loop_
_symmetry_equiv_pos_site_id
_symmetry_equiv_pos_as_xyz
1 x,y,z
2 1/2-x,-y,1/2+z
3 1/2+x,1/2-y,-z
4 -x,1/2+y,1/2-z
_cell_length_a                   6.4937(13)
_cell_length_b                   12.440(3)
_cell_length_c                   20.999(4)
_cell_angle_alpha                90
_cell_angle_beta                 90
_cell_angle_gamma                90
_cell_volume                     1696.33
_exptl_crystal_colour            colorless
_cell_formula_units_Z            4
loop_
_atom_site_label
_atom_site_type_symbol
_atom_site_fract_x
_atom_site_fract_y
_atom_site_fract_z
F1 F 0.7770(2) 0.60237(13) 0.03523(7)
F2 F 0.5646(3) 0.72264(14) 0.00573(10)
F3 F 0.5970(3) 0.68326(13) 0.10427(8)
O1 O 0.2325(2) 0.36137(13) 0.00260(7)
O2 O 0.2909(3) 0.76034(13) 0.26674(8)
N1 N 0.1651(3) 0.33378(13) 0.10846(8)
C1 C 0.6191(3) 0.40189(19) 0.08673(12)
H1 H 0.6027 0.3378 0.1134
H2 H 0.7271 0.4479 0.1046
H3 H 0.6577 0.3801 0.0435
C2 C 0.4152(3) 0.46426(16) 0.08461(10)
C3 C 0.3262(3) 0.48597(16) 0.15381(10)
C4 C 0.4825(4) 0.51538(19) 0.20267(11)
H4 H 0.5980 0.4694 0.2080
C5 C 0.4692(4) 0.6028(2) 0.23937(11)
H5 H 0.5728 0.6154 0.2704
C6 C 0.3013(4) 0.67887(18) 0.23323(11)
C7 C 0.1410(4) 0.65248(18) 0.18735(11)
H6 H 0.0246 0.6982 0.1835
C8 C 0.1547(4) 0.56550(17) 0.15082(11)
H7 H 0.0479 0.5532 0.1208
C9 C 0.2319(4) 0.37427(17) 0.16968(10)
H8 H 0.3362 0.3262 0.1890
H9 H 0.1141 0.3814 0.1993
C10 C 0.2583(3) 0.38246(17) 0.05907(10)
C11 C 0.0339(3) 0.24063(16) 0.10215(11)
H10 H -0.0249 0.2399 0.0587
H11 H -0.0820 0.2475 0.1325
C12 C 0.1401(3) 0.13511(16) 0.11383(10)
C13 C 0.0400(4) 0.0552(2) 0.14799(12)
H12 H -0.0932 0.0685 0.1650
C14 C 0.1328(5) -0.0442(2) 0.15764(14)
H13 H 0.0630 -0.0982 0.1813
C15 C 0.3257(5) -0.0648(2) 0.13311(12)
H14 H 0.3895 -0.1326 0.1398
C16 C 0.4249(4) 0.01376(19) 0.09883(11)
H15 H 0.5571 -0.0001 0.0813
C17 C 0.3333(3) 0.11300(19) 0.08963(10)
H16 H 0.4045 0.1668 0.0663
C18 C 0.4227(3) 0.55920(18) 0.03807(11)
H17 H 0.4351 0.5295 -0.0055
H18 H 0.2887 0.5969 0.0404
C19 C 0.5879(4) 0.64089(19) 0.04638(12)
loop_
_geom_bond_atom_site_label_1
_geom_bond_atom_site_label_2
_geom_bond_site_symmetry_1
_geom_bond_site_symmetry_2
F1 C19 1_555 1_555
F2 C19 1_555 1_555
F3 C19 1_555 1_555
O1 C10 1_555 1_555
O2 C6 1_555 1_555
N1 C9 1_555 1_555
C1 H1 1_555 1_555
H2 C1 1_555 1_555
H3 C1 1_555 1_555
C2 C1 1_555 1_555
C3 C2 1_555 1_555
C4 C3 1_555 1_555
H4 C4 1_555 1_555
C5 C4 1_555 1_555
H5 C5 1_555 1_555
C6 C5 1_555 1_555
C7 C6 1_555 1_555
H6 C7 1_555 1_555
C8 C3 1_555 1_555
H7 C8 1_555 1_555
C9 C3 1_555 1_555
H8 C9 1_555 1_555
H9 C9 1_555 1_555
C10 N1 1_555 1_555
C11 N1 1_555 1_555
H10 C11 1_555 1_555
H11 C11 1_555 1_555
C12 C11 1_555 1_555
C13 C12 1_555 1_555
H12 C13 1_555 1_555
C14 C13 1_555 1_555
H13 C14 1_555 1_555
C15 C14 1_555 1_555
H14 C15 1_555 1_555
C16 C15 1_555 1_555
H15 C16 1_555 1_555
C17 C12 1_555 1_555
H16 C17 1_555 1_555
C18 C2 1_555 1_555
H17 C18 1_555 1_555
H18 C18 1_555 1_555
C19 C18 1_555 1_555
C2 C10 1_555 1_555
C7 C8 1_555 1_555
C16 C17 1_555 1_555

#END
