
#######################################################################
#
#                 Cambridge Crystallographic Data Centre
#                                CCDC 
#
#######################################################################
#
# If this CIF has been generated from an entry in the Cambridge 
# Structural Database, then it will include bibliographic, chemical, 
# crystal, experimental, refinement or atomic coordinate data resulting 
# from the CCDC's data processing and validation procedures.
#
#######################################################################

data_KOLWIT
_chemical_formula_moiety         'C22 H12 Cl2 N2 O1'
_chemical_name_systematic        
2-(4-chlorobenzoyl)-3-(2-chlorophenyl)indolizine-1-carbonitrile
_symmetry_cell_setting           triclinic
_symmetry_space_group_name_H-M   'P -1'
_symmetry_Int_Tables_number      2
_space_group_name_Hall           '-P 1'
loop_
_symmetry_equiv_pos_site_id
_symmetry_equiv_pos_as_xyz
1 x,y,z
2 -x,-y,-z
_cell_length_a                   7.7221(12)
_cell_length_b                   9.0481(13)
_cell_length_c                   13.843(2)
_cell_angle_alpha                80.021(2)
_cell_angle_beta                 85.860(2)
_cell_angle_gamma                73.874(2)
_cell_volume                     914.805
_exptl_crystal_colour            yellow
_exptl_crystal_description       block
_cell_formula_units_Z            2
loop_
_atom_site_label
_atom_site_type_symbol
_atom_site_fract_x
_atom_site_fract_y
_atom_site_fract_z
C1 C 0.4930(5) 0.1357(4) 0.1516(3)
H1 H 0.4063 0.0992 0.1912
C2 C 0.6045(6) 0.0452(4) 0.0926(3)
H2 H 0.5934 -0.0542 0.0915
C3 C 0.7373(6) 0.0983(5) 0.0327(3)
H3 H 0.8117 0.0343 -0.0081
C4 C 0.7573(5) 0.2412(5) 0.0341(3)
H4 H 0.8461 0.2755 -0.0048
C5 C 0.6418(4) 0.3390(4) 0.0955(2)
C6 C 0.6284(4) 0.4865(4) 0.1155(2)
C7 C 0.4845(4) 0.5216(4) 0.1866(2)
C8 C 0.4133(4) 0.3953(4) 0.2081(2)
C9 C 0.4474(5) 0.6644(4) 0.2319(3)
C10 C 0.7379(5) 0.5834(4) 0.0710(3)
C11 C 0.2658(5) 0.7425(4) 0.2688(2)
C12 C 0.1076(5) 0.7302(4) 0.2338(3)
H5 H 0.1130 0.6658 0.1875
C13 C -0.0583(5) 0.8127(4) 0.2670(3)
H6 H -0.1643 0.8045 0.2434
C14 C -0.0636(5) 0.9076(4) 0.3362(3)
C15 C 0.0932(5) 0.9218(5) 0.3719(3)
H7 H 0.0878 0.9862 0.4183
C16 C 0.2555(5) 0.8398(4) 0.3379(3)
H8 H 0.3612 0.8491 0.3614
C17 C 0.2643(5) 0.3668(4) 0.2756(3)
C18 C 0.1081(5) 0.3462(5) 0.2349(4)
H9 H 0.1039 0.3430 0.1684
C19 C -0.0380(6) 0.3310(6) 0.2987(4)
H10 H -0.1413 0.3191 0.2740
C20 C -0.0303(6) 0.3336(6) 0.3962(4)
H11 H -0.1302 0.3248 0.4362
C21 C 0.1172(6) 0.3485(5) 0.4376(3)
H12 H 0.1197 0.3481 0.5048
C22 C 0.2665(5) 0.3646(4) 0.3753(3)
Cl1 Cl 0.45206(16) 0.38543(14) 0.42777(8)
Cl2 Cl -0.27106(16) 1.01073(16) 0.38002(10)
N1 N 0.5097(4) 0.2839(3) 0.15245(19)
N2 N 0.8268(5) 0.6600(4) 0.0333(3)
O1 O 0.5724(4) 0.7208(4) 0.2370(3)
loop_
_geom_bond_atom_site_label_1
_geom_bond_atom_site_label_2
_geom_bond_site_symmetry_1
_geom_bond_site_symmetry_2
C1 H1 1_555 1_555
C2 C1 1_555 1_555
H2 C2 1_555 1_555
C3 C2 1_555 1_555
H3 C3 1_555 1_555
C4 C3 1_555 1_555
H4 C4 1_555 1_555
C5 C4 1_555 1_555
C6 C5 1_555 1_555
C7 C6 1_555 1_555
C8 C7 1_555 1_555
C9 C7 1_555 1_555
C10 C6 1_555 1_555
C11 C9 1_555 1_555
C12 C11 1_555 1_555
H5 C12 1_555 1_555
C13 C12 1_555 1_555
H6 C13 1_555 1_555
C14 C13 1_555 1_555
C15 C14 1_555 1_555
H7 C15 1_555 1_555
C16 C11 1_555 1_555
H8 C16 1_555 1_555
C17 C8 1_555 1_555
C18 C17 1_555 1_555
H9 C18 1_555 1_555
C19 C18 1_555 1_555
H10 C19 1_555 1_555
C20 C19 1_555 1_555
H11 C20 1_555 1_555
C21 C20 1_555 1_555
H12 C21 1_555 1_555
C22 C17 1_555 1_555
Cl1 C22 1_555 1_555
Cl2 C14 1_555 1_555
N1 C1 1_555 1_555
N2 C10 1_555 1_555
O1 C9 1_555 1_555
C5 N1 1_555 1_555
C8 N1 1_555 1_555
C15 C16 1_555 1_555
C21 C22 1_555 1_555

#END
