
#######################################################################
#
#                 Cambridge Crystallographic Data Centre
#                                CCDC 
#
#######################################################################
#
# If this CIF has been generated from an entry in the Cambridge 
# Structural Database, then it will include bibliographic, chemical, 
# crystal, experimental, refinement or atomic coordinate data resulting 
# from the CCDC's data processing and validation procedures.
#
#######################################################################

data_KOMCOE
_chemical_formula_moiety         'C22 H24 S4'
_chemical_name_systematic        
Dispiro(bis(1,3-dithiane)-1,2':10,2''-(2.2)metacyclophane)
_symmetry_cell_setting           triclinic
_symmetry_space_group_name_H-M   'P -1'
_symmetry_Int_Tables_number      2
_space_group_name_Hall           '-P 1'
loop_
_symmetry_equiv_pos_site_id
_symmetry_equiv_pos_as_xyz
1 x,y,z
2 -x,-y,-z
_cell_length_a                   11.906(1)
_cell_length_b                   12.551(2)
_cell_length_c                   14.066(1)
_cell_angle_alpha                99.57(1)
_cell_angle_beta                 89.99(1)
_cell_angle_gamma                102.60(1)
_cell_volume                     2021.32
_exptl_crystal_colour            colorless
_cell_formula_units_Z            4
loop_
_atom_site_label
_atom_site_type_symbol
_atom_site_fract_x
_atom_site_fract_y
_atom_site_fract_z
S1 S 0.4756(1) 0.1017(1) 0.3086(1)
S2 S 0.6435(1) 0.3023(1) 0.2687(1)
S3 S 0.0823(1) 0.1566(1) 0.4624(1)
S4 S 0.0401(1) 0.3849(1) 0.4906(1)
C1 C 0.5214(2) 0.2523(2) 0.3399(2)
C2 C 0.5757(3) 0.2795(3) 0.4451(2)
C3 C 0.4901(3) 0.2484(3) 0.5196(2)
C4 C 0.4711(3) 0.1453(3) 0.5474(2)
C5 C 0.3732(3) 0.1081(3) 0.5959(2)
C6 C 0.2900(3) 0.1701(3) 0.6118(2)
C7 C 0.3085(3) 0.2747(3) 0.5866(2)
C8 C 0.4131(3) 0.3153(3) 0.5474(2)
C9 C 0.2123(3) 0.3333(3) 0.5811(2)
C10 C 0.1508(3) 0.3039(2) 0.4782(2)
C11 C 0.2382(2) 0.3347(2) 0.4011(2)
C12 C 0.2581(3) 0.4386(2) 0.3745(2)
C13 C 0.3548(3) 0.4758(3) 0.3258(3)
C14 C 0.4385(3) 0.4147(2) 0.3091(2)
C15 C 0.4211(2) 0.3102(2) 0.3343(2)
C16 C 0.3166(2) 0.2684(2) 0.3735(2)
C17 C 0.4411(3) 0.0867(3) 0.1815(2)
C18 C 0.5414(3) 0.1308(3) 0.1221(3)
C19 C 0.5844(3) 0.2548(3) 0.1481(2)
C20 C -0.0046(3) 0.1411(3) 0.3542(3)
C21 C -0.0924(3) 0.2133(4) 0.3602(3)
C22 C -0.0388(3) 0.3348(4) 0.3767(3)
H1 H 0.6089 0.3575 0.4605
H2 H 0.6365 0.2407 0.4476
H3 H 0.5258 0.0995 0.5322
H4 H 0.3641 0.0391 0.6192
H5 H 0.2187 0.1405 0.6395
H6 H 0.4324 0.3916 0.5395
H7 H 0.2408 0.4121 0.5971
H8 H 0.1570 0.3110 0.6276
H9 H 0.2038 0.4844 0.3909
H10 H 0.3632 0.5449 0.3029
H11 H 0.5088 0.4445 0.2800
H12 H 0.2980 0.1922 0.3820
H13 H 0.3814 0.1255 0.1742
H14 H 0.4109 0.0097 0.1566
H15 H 0.5183 0.1118 0.0550
H16 H 0.6035 0.0958 0.1322
H17 H 0.6419 0.2796 0.1040
H18 H 0.5210 0.2888 0.1403
H19 H -0.0426 0.0646 0.3365
H20 H 0.0454 0.1606 0.3033
H21 H -0.1389 0.1984 0.4142
H22 H -0.1417 0.1931 0.3032
H23 H 0.0129 0.3487 0.3256
H24 H -0.0978 0.3754 0.3728
S5 S 0.1583(1) 0.8935(1) 0.1868(1)
S6 S 0.2354(1) 0.6914(1) 0.2219(1)
S7 S -0.2599(1) 0.8419(1) 0.0413(1)
S8 S -0.4091(1) 0.6145(1) 0.0105(1)
C23 C 0.1344(2) 0.7435(2) 0.1541(2)
C24 C 0.1743(2) 0.7181(3) 0.0477(2)
C25 C 0.1022(2) 0.7515(3) -0.0244(2)
C26 C 0.1272(3) 0.8565(3) -0.0497(2)
C27 C 0.0463(3) 0.8938(3) -0.0966(2)
C28 C -0.0649(3) 0.8304(3) -0.1135(2)
C29 C -0.0926(3) 0.7246(3) -0.0898(2)
C30 C -0.0066(3) 0.6841(3) -0.0529(2)
C31 C -0.2155(3) 0.6656(3) -0.0828(2)
C32 C -0.2611(2) 0.6940(2) 0.0214(2)
C33 C -0.1869(2) 0.6615(2) 0.0959(2)
C34 C -0.2151(2) 0.5580(2) 0.1241(2)
C35 C -0.1353(3) 0.5211(2) 0.1725(2)
C36 C -0.0223(2) 0.5818(2) 0.1882(2)
C37 C 0.0077(2) 0.6851(2) 0.1615(2)
C38 C -0.0773(2) 0.7275(2) 0.1228(2)
C39 C 0.1372(3) 0.9075(3) 0.3148(2)
C40 C 0.2196(3) 0.8625(3) 0.3700(3)
C41 C 0.2046(3) 0.7388(3) 0.3448(2)
C42 C -0.3340(3) 0.8535(3) 0.1527(2)
C43 C -0.4565(3) 0.7851(3) 0.1474(3)
C44 C -0.4623(3) 0.6610(3) 0.1264(3)
H25 H 0.1708 0.6400 0.0311
H26 H 0.2530 0.7564 0.0447
H27 H 0.2028 0.9025 -0.0346
H28 H 0.0670 0.9647 -0.1167
H29 H -0.1229 0.8592 -0.1416
H30 H -0.0210 0.6076 -0.0457
H31 H -0.2223 0.5870 -0.0989
H32 H -0.2624 0.6872 -0.1284
H33 H -0.2914 0.5131 0.1102
H34 H -0.1574 0.4515 0.1948
H35 H 0.0345 0.5527 0.2178
H36 H -0.0605 0.8036 0.1141
H37 H 0.0601 0.8694 0.3247
H38 H 0.1443 0.9845 0.3405
H39 H 0.2097 0.8826 0.4379
H40 H 0.2971 0.8962 0.3566
H41 H 0.2526 0.7140 0.3874
H42 H 0.1260 0.7054 0.3551
H43 H -0.3350 0.9301 0.1736
H44 H -0.2914 0.8310 0.2009
H45 H -0.4983 0.8038 0.0966
H46 H -0.4932 0.8033 0.2068
H47 H -0.4173 0.6433 0.1757
H48 H -0.5405 0.6215 0.1300
loop_
_geom_bond_atom_site_label_1
_geom_bond_atom_site_label_2
_geom_bond_site_symmetry_1
_geom_bond_site_symmetry_2
S1 C1 1_555 1_555
S2 C1 1_555 1_555
S3 C10 1_555 1_555
S4 C10 1_555 1_555
C1 C2 1_555 1_555
C2 C3 1_555 1_555
C3 C4 1_555 1_555
C4 C5 1_555 1_555
C5 C6 1_555 1_555
C6 C7 1_555 1_555
C7 C8 1_555 1_555
C8 C3 1_555 1_555
C9 C7 1_555 1_555
C10 C9 1_555 1_555
C11 C10 1_555 1_555
C12 C11 1_555 1_555
C13 C12 1_555 1_555
C14 C13 1_555 1_555
C15 C1 1_555 1_555
C16 C11 1_555 1_555
C17 S1 1_555 1_555
C18 C17 1_555 1_555
C19 S2 1_555 1_555
C20 S3 1_555 1_555
C21 C20 1_555 1_555
C22 S4 1_555 1_555
H1 C2 1_555 1_555
H2 C2 1_555 1_555
H3 C4 1_555 1_555
H4 C5 1_555 1_555
H5 C6 1_555 1_555
H6 C8 1_555 1_555
H7 C9 1_555 1_555
H8 C9 1_555 1_555
H9 C12 1_555 1_555
H10 C13 1_555 1_555
H11 C14 1_555 1_555
H12 C16 1_555 1_555
H13 C17 1_555 1_555
H14 C17 1_555 1_555
H15 C18 1_555 1_555
H16 C18 1_555 1_555
H17 C19 1_555 1_555
H18 C19 1_555 1_555
H19 C20 1_555 1_555
H20 C20 1_555 1_555
H21 C21 1_555 1_555
H22 C21 1_555 1_555
H23 C22 1_555 1_555
H24 C22 1_555 1_555
S5 C23 1_555 1_555
S6 C23 1_555 1_555
S7 C32 1_555 1_555
S8 C32 1_555 1_555
C23 C24 1_555 1_555
C24 C25 1_555 1_555
C25 C26 1_555 1_555
C26 C27 1_555 1_555
C27 C28 1_555 1_555
C28 C29 1_555 1_555
C29 C30 1_555 1_555
C30 C25 1_555 1_555
C31 C29 1_555 1_555
C32 C31 1_555 1_555
C33 C32 1_555 1_555
C34 C33 1_555 1_555
C35 C34 1_555 1_555
C36 C35 1_555 1_555
C37 C23 1_555 1_555
C38 C33 1_555 1_555
C39 S5 1_555 1_555
C40 C39 1_555 1_555
C41 S6 1_555 1_555
C42 S7 1_555 1_555
C43 C42 1_555 1_555
C44 S8 1_555 1_555
H25 C24 1_555 1_555
H26 C24 1_555 1_555
H27 C26 1_555 1_555
H28 C27 1_555 1_555
H29 C28 1_555 1_555
H30 C30 1_555 1_555
H31 C31 1_555 1_555
H32 C31 1_555 1_555
H33 C34 1_555 1_555
H34 C35 1_555 1_555
H35 C36 1_555 1_555
H36 C38 1_555 1_555
H37 C39 1_555 1_555
H38 C39 1_555 1_555
H39 C40 1_555 1_555
H40 C40 1_555 1_555
H41 C41 1_555 1_555
H42 C41 1_555 1_555
H43 C42 1_555 1_555
H44 C42 1_555 1_555
H45 C43 1_555 1_555
H46 C43 1_555 1_555
H47 C44 1_555 1_555
H48 C44 1_555 1_555
C14 C15 1_555 1_555
C15 C16 1_555 1_555
C18 C19 1_555 1_555
C21 C22 1_555 1_555
C36 C37 1_555 1_555
C37 C38 1_555 1_555
C40 C41 1_555 1_555
C43 C44 1_555 1_555

#END
