
#######################################################################
#
#                 Cambridge Crystallographic Data Centre
#                                CCDC 
#
#######################################################################
#
# If this CIF has been generated from an entry in the Cambridge 
# Structural Database, then it will include bibliographic, chemical, 
# crystal, experimental, refinement or atomic coordinate data resulting 
# from the CCDC's data processing and validation procedures.
#
#######################################################################

data_KOMDOH
_chemical_formula_moiety         'C54 H110 N6 O6 Sr2'
_chemical_name_systematic        
bis(\m-1-((2-(diethylamino)ethyl)(2-(diethylamino)ethyl)amino)-2-methylpropan-2-olato)-bis(2,2,6,6-tetramethylheptane-3,5-dionato)-di-strontium
_symmetry_cell_setting           monoclinic
_symmetry_space_group_name_H-M   'P c'
_symmetry_Int_Tables_number      7
_space_group_name_Hall           'P -2yc'
loop_
_symmetry_equiv_pos_site_id
_symmetry_equiv_pos_as_xyz
1 x,y,z
2 x,-y,1/2+z
_cell_length_a                   17.275(4)
_cell_length_b                   10.216(2)
_cell_length_c                   19.675(4)
_cell_angle_alpha                90
_cell_angle_beta                 113.21(3)
_cell_angle_gamma                90
_cell_volume                     3191.25
_exptl_crystal_colour            colorless
_exptl_crystal_description       block
_cell_formula_units_Z            2
_chemical_properties_physical    
'Air-sensitive, Moisture-sensitive, Hygroscropic, Oxygen-sensitive'
loop_
_atom_site_label
_atom_site_type_symbol
_atom_site_fract_x
_atom_site_fract_y
_atom_site_fract_z
Sr1 Sr 0.574997(15) 0.31502(3) 0.680697(14)
Sr2 Sr 0.337970(16) 0.31929(3) 0.629710(15)
O1 O 0.69955(16) 0.4597(2) 0.73579(14)
O2 O 0.65734(16) 0.2507(2) 0.80800(14)
C1 C 0.7547(2) 0.4806(3) 0.7990(2)
C2 C 0.7678(2) 0.4016(3) 0.8612(2)
H1 H 0.7652 0.4616 0.8998
C3 C 0.7205(2) 0.2919(3) 0.8631(2)
C4 C 0.8125(2) 0.6010(3) 0.8084(2)
C5 C 0.7950(3) 0.6613(4) 0.7326(3)
H2 H 0.7361 0.6898 0.7100
H3 H 0.8055 0.5960 0.7008
H4 H 0.8321 0.7368 0.7384
C6 C 0.9045(3) 0.5611(5) 0.8417(3)
H5 H 0.9398 0.6374 0.8438
H6 H 0.9145 0.4930 0.8110
H7 H 0.9186 0.5272 0.8918
C7 C 0.7935(3) 0.7021(4) 0.8565(3)
H8 H 0.8079 0.6661 0.9061
H9 H 0.7335 0.7243 0.8345
H10 H 0.8270 0.7811 0.8597
C8 C 0.7410(3) 0.2130(3) 0.9353(2)
C9 C 0.7510(3) 0.0689(4) 0.9185(3)
H11 H 0.7578 0.0154 0.9618
H12 H 0.8007 0.0591 0.9067
H13 H 0.7008 0.0402 0.8762
C10 C 0.8219(3) 0.2562(5) 0.9992(2)
H14 H 0.8153 0.3461 1.0135
H15 H 0.8691 0.2525 0.9836
H16 H 0.8331 0.1978 1.0416
C11 C 0.6663(3) 0.2277(5) 0.9570(3)
H17 H 0.6162 0.1893 0.9186
H18 H 0.6563 0.3208 0.9625
H19 H 0.6783 0.1826 1.0040
O3 O 0.44695(16) 0.1846(2) 0.61970(14)
N1 N 0.6026(2) 0.0781(3) 0.61545(17)
N2 N 0.6025(2) 0.3585(3) 0.55423(16)
N3 N 0.8030(2) 0.1135(3) 0.68736(18)
C12 C 0.5194(3) 0.0111(3) 0.5872(2)
H20 H 0.5291 -0.0845 0.5926
H21 H 0.4906 0.0299 0.5336
C13 C 0.4596(2) 0.0494(3) 0.6252(2)
C14 C 0.6239(3) 0.1155(4) 0.5521(2)
H22 H 0.6109 0.0413 0.5170
H23 H 0.6851 0.1328 0.5703
C15 C 0.5761(3) 0.2362(4) 0.5116(2)
H24 H 0.5840 0.2458 0.4646
H25 H 0.5152 0.2227 0.4989
C16 C 0.6681(3) -0.0116(4) 0.6641(2)
H26 H 0.6838 -0.0728 0.6326
H27 H 0.6434 -0.0642 0.6929
C17 C 0.7483(3) 0.0538(4) 0.7181(2)
H28 H 0.7316 0.1221 0.7455
H29 H 0.7812 -0.0127 0.7546
C18 C 0.4960(3) 0.0085(4) 0.7063(2)
H30 H 0.5502 0.0523 0.7322
H31 H 0.5043 -0.0866 0.7098
H32 H 0.4569 0.0333 0.7291
C19 C 0.3768(3) -0.0226(4) 0.5853(3)
H33 H 0.3383 -0.0036 0.6097
H34 H 0.3874 -0.1170 0.5868
H35 H 0.3514 0.0066 0.5337
C20 C 0.5502(3) 0.4684(4) 0.5109(2)
H36 H 0.4914 0.4377 0.4854
H37 H 0.5707 0.4946 0.4725
C21 C 0.5511(3) 0.5866(4) 0.5573(3)
H38 H 0.5315 0.5614 0.5958
H39 H 0.5139 0.6542 0.5258
H40 H 0.6086 0.6210 0.5803
C22 C 0.6937(3) 0.3850(4) 0.5759(2)
H41 H 0.7260 0.3213 0.6146
H42 H 0.7061 0.4733 0.5984
C23 C 0.7263(3) 0.3787(4) 0.5143(3)
H43 H 0.7226 0.2885 0.4964
H44 H 0.7851 0.4077 0.5334
H45 H 0.6921 0.4359 0.4735
C24 C 0.8479(3) 0.0149(4) 0.6631(3)
H46 H 0.8065 -0.0473 0.6295
H47 H 0.8855 -0.0351 0.7068
C25 C 0.9001(3) 0.0725(5) 0.6235(3)
H48 H 0.8648 0.1306 0.5838
H49 H 0.9219 0.0015 0.6025
H50 H 0.9473 0.1223 0.6588
C26 C 0.8588(3) 0.2135(4) 0.7368(2)
H51 H 0.8235 0.2769 0.7497
H52 H 0.8866 0.2617 0.7089
C27 C 0.9268(4) 0.1629(5) 0.8082(3)
H53 H 0.9003 0.1169 0.8372
H54 H 0.9599 0.2367 0.8369
H55 H 0.9638 0.1025 0.7965
O4 O 0.29822(19) 0.2021(3) 0.71841(14)
O5 O 0.20488(17) 0.1983(2) 0.56510(14)
C28 C 0.2460(3) 0.1135(4) 0.7174(2)
C29 C 0.1847(3) 0.0625(4) 0.6537(2)
H56 H 0.1309 0.0709 0.6601
C30 C 0.1678(3) 0.1043(4) 0.5808(2)
C31 C 0.2583(3) 0.0619(4) 0.7944(2)
C32 C 0.3450(4) -0.0009(6) 0.8295(3)
H57 H 0.3477 -0.0770 0.8002
H58 H 0.3551 -0.0288 0.8799
H59 H 0.3881 0.0628 0.8310
C33 C 0.2538(5) 0.1767(4) 0.8418(3)
H60 H 0.2966 0.2417 0.8442
H61 H 0.2642 0.1457 0.8917
H62 H 0.1978 0.2167 0.8199
C34 C 0.1950(4) -0.0431(5) 0.7940(3)
H63 H 0.1384 -0.0047 0.7766
H64 H 0.2104 -0.0770 0.8443
H65 H 0.1954 -0.1147 0.7610
C35 C 0.0993(3) 0.0372(4) 0.5144(2)
C36 C 0.1403(4) -0.0077(6) 0.4637(3)
H66 H 0.1525 0.0684 0.4392
H67 H 0.1022 -0.0671 0.4264
H68 H 0.1928 -0.0536 0.4925
C37 C 0.0295(4) 0.1331(5) 0.4785(4)
H69 H 0.0493 0.2034 0.4555
H70 H 0.0117 0.1703 0.5160
H71 H -0.0183 0.0884 0.4406
C38 C 0.0610(3) -0.0866(5) 0.5346(3)
H72 H 0.0185 -0.1245 0.4896
H73 H 0.0347 -0.0627 0.5688
H74 H 0.1057 -0.1509 0.5583
O6 O 0.46630(15) 0.4492(2) 0.69130(13)
N4 N 0.30688(19) 0.5685(3) 0.67842(17)
N5 N 0.2668(2) 0.4932(3) 0.51433(17)
N6 N 0.1079(3) 0.5373(5) 0.6552(3)
C39 C 0.4639(2) 0.5268(3) 0.7492(2)
C40 C 0.3923(2) 0.6255(4) 0.7182(2)
H75 H 0.3912 0.6797 0.7596
H76 H 0.4047 0.6846 0.6839
C41 C 0.2599(3) 0.6474(3) 0.6115(2)
H77 H 0.2666 0.7413 0.6249
H78 H 0.1993 0.6258 0.5938
C42 C 0.2893(2) 0.6241(3) 0.5492(2)
H79 H 0.2643 0.6920 0.5108
H80 H 0.3513 0.6344 0.5688
C43 C 0.2615(3) 0.5676(5) 0.7279(2)
H81 H 0.2443 0.6584 0.7327
H82 H 0.3010 0.5389 0.7776
C44 C 0.1853(3) 0.4825(5) 0.7044(3)
H83 H 0.1966 0.4034 0.6807
H84 H 0.1778 0.4534 0.7494
C45 C 0.5462(3) 0.6057(4) 0.7843(2)
H85 H 0.5940 0.5454 0.8041
H86 H 0.5438 0.6602 0.8244
H87 H 0.5531 0.6618 0.7467
C46 C 0.4551(3) 0.4395(4) 0.8088(2)
H88 H 0.4039 0.3864 0.7871
H89 H 0.4514 0.4942 0.8484
H90 H 0.5042 0.3818 0.8293
C47 C 0.3088(3) 0.4745(4) 0.4631(2)
H91 H 0.3687 0.4998 0.4885
H92 H 0.2828 0.5343 0.4205
C48 C 0.3046(4) 0.3362(4) 0.4342(3)
H93 H 0.3320 0.2763 0.4757
H94 H 0.3335 0.3321 0.4003
H95 H 0.2455 0.3105 0.4079
C49 C 0.1749(3) 0.4741(4) 0.4777(2)
H96 H 0.1517 0.4727 0.5164
H97 H 0.1645 0.3867 0.4540
C50 C 0.1258(3) 0.5742(5) 0.4200(3)
H98 H 0.1320 0.6606 0.4431
H99 H 0.0661 0.5497 0.3985
H100 H 0.1476 0.5768 0.3809
C51 C 0.0558(6) 0.4116(8) 0.6328(5)
H101 H 0.0376 0.3856 0.6727
H102 H 0.0911 0.3404 0.6263
C52 C -0.0223(6) 0.4301(10) 0.5604(5)
H103 H -0.0613 0.4915 0.5688
H104 H -0.0503 0.3456 0.5442
H105 H -0.0050 0.4651 0.5222
C53 C 0.0727(6) 0.6510(7) 0.6624(5)
H106 H 0.0185 0.6653 0.6199
H107 H 0.1107 0.7254 0.6657
C54 C 0.0592(11) 0.6367(14) 0.7328(6)
H108 H 0.0207 0.5635 0.7281
H109 H 0.0347 0.7176 0.7425
H110 H 0.1132 0.6197 0.7739
C55? C 0.0262(7) 0.5128(15) 0.5958(8)
H111? H 0.0327 0.4991 0.5485
H112? H -0.0117 0.5884 0.5900
C56? C -0.0099(11) 0.3916(14) 0.6162(10)
H113? H 0.0286 0.3179 0.6226
H114? H -0.0647 0.3714 0.5768
H115? H -0.0171 0.4070 0.6625
C57? C 0.0790(12) 0.6097(16) 0.7077(10)
H116? H 0.1330 0.6390 0.7464
H117? H 0.0599 0.5374 0.7308
C58? C 0.0188(8) 0.7214(13) 0.7072(8)
H118? H 0.0214 0.7911 0.6739
H119? H 0.0357 0.7565 0.7574
H120? H -0.0388 0.6877 0.6901
H121? H 0.1965 -0.0325 0.6546
H122? H 0.8269 0.3712 0.8788
loop_
_geom_bond_atom_site_label_1
_geom_bond_atom_site_label_2
_geom_bond_site_symmetry_1
_geom_bond_site_symmetry_2
Sr1 O1 1_555 1_555
Sr2 O3 1_555 1_555
O1 C1 1_555 1_555
O2 Sr1 1_555 1_555
C1 C2 1_555 1_555
C2 H1 1_555 1_555
C3 O2 1_555 1_555
C4 C1 1_555 1_555
C5 C4 1_555 1_555
H2 C5 1_555 1_555
H3 C5 1_555 1_555
H4 C5 1_555 1_555
C6 C4 1_555 1_555
H5 C6 1_555 1_555
H6 C6 1_555 1_555
H7 C6 1_555 1_555
C7 C4 1_555 1_555
H8 C7 1_555 1_555
H9 C7 1_555 1_555
H10 C7 1_555 1_555
C8 C3 1_555 1_555
C9 C8 1_555 1_555
H11 C9 1_555 1_555
H12 C9 1_555 1_555
H13 C9 1_555 1_555
C10 C8 1_555 1_555
H14 C10 1_555 1_555
H15 C10 1_555 1_555
H16 C10 1_555 1_555
C11 C8 1_555 1_555
H17 C11 1_555 1_555
H18 C11 1_555 1_555
H19 C11 1_555 1_555
O3 Sr1 1_555 1_555
N1 Sr1 1_555 1_555
N2 Sr1 1_555 1_555
N3 C17 1_555 1_555
C12 N1 1_555 1_555
H20 C12 1_555 1_555
H21 C12 1_555 1_555
C13 O3 1_555 1_555
C14 N1 1_555 1_555
H22 C14 1_555 1_555
H23 C14 1_555 1_555
C15 N2 1_555 1_555
H24 C15 1_555 1_555
H25 C15 1_555 1_555
C16 N1 1_555 1_555
H26 C16 1_555 1_555
H27 C16 1_555 1_555
C17 C16 1_555 1_555
H28 C17 1_555 1_555
H29 C17 1_555 1_555
C18 C13 1_555 1_555
H30 C18 1_555 1_555
H31 C18 1_555 1_555
H32 C18 1_555 1_555
C19 C13 1_555 1_555
H33 C19 1_555 1_555
H34 C19 1_555 1_555
H35 C19 1_555 1_555
C20 N2 1_555 1_555
H36 C20 1_555 1_555
H37 C20 1_555 1_555
C21 C20 1_555 1_555
H38 C21 1_555 1_555
H39 C21 1_555 1_555
H40 C21 1_555 1_555
C22 N2 1_555 1_555
H41 C22 1_555 1_555
H42 C22 1_555 1_555
C23 C22 1_555 1_555
H43 C23 1_555 1_555
H44 C23 1_555 1_555
H45 C23 1_555 1_555
C24 N3 1_555 1_555
H46 C24 1_555 1_555
H47 C24 1_555 1_555
C25 C24 1_555 1_555
H48 C25 1_555 1_555
H49 C25 1_555 1_555
H50 C25 1_555 1_555
C26 N3 1_555 1_555
H51 C26 1_555 1_555
H52 C26 1_555 1_555
C27 C26 1_555 1_555
H53 C27 1_555 1_555
H54 C27 1_555 1_555
H55 C27 1_555 1_555
O4 Sr2 1_555 1_555
O5 Sr2 1_555 1_555
C28 O4 1_555 1_555
C29 C28 1_555 1_555
H56 C29 1_555 1_555
C30 O5 1_555 1_555
C31 C28 1_555 1_555
C32 C31 1_555 1_555
H57 C32 1_555 1_555
H58 C32 1_555 1_555
H59 C32 1_555 1_555
C33 C31 1_555 1_555
H60 C33 1_555 1_555
H61 C33 1_555 1_555
H62 C33 1_555 1_555
C34 C31 1_555 1_555
H63 C34 1_555 1_555
H64 C34 1_555 1_555
H65 C34 1_555 1_555
C35 C30 1_555 1_555
C36 C35 1_555 1_555
H66 C36 1_555 1_555
H67 C36 1_555 1_555
H68 C36 1_555 1_555
C37 C35 1_555 1_555
H69 C37 1_555 1_555
H70 C37 1_555 1_555
H71 C37 1_555 1_555
C38 C35 1_555 1_555
H72 C38 1_555 1_555
H73 C38 1_555 1_555
H74 C38 1_555 1_555
O6 Sr1 1_555 1_555
N4 Sr2 1_555 1_555
N5 Sr2 1_555 1_555
N6 C44 1_555 1_555
C39 O6 1_555 1_555
C40 N4 1_555 1_555
H75 C40 1_555 1_555
H76 C40 1_555 1_555
C41 N4 1_555 1_555
H77 C41 1_555 1_555
H78 C41 1_555 1_555
C42 N5 1_555 1_555
H79 C42 1_555 1_555
H80 C42 1_555 1_555
C43 N4 1_555 1_555
H81 C43 1_555 1_555
H82 C43 1_555 1_555
C44 C43 1_555 1_555
H83 C44 1_555 1_555
H84 C44 1_555 1_555
C45 C39 1_555 1_555
H85 C45 1_555 1_555
H86 C45 1_555 1_555
H87 C45 1_555 1_555
C46 C39 1_555 1_555
H88 C46 1_555 1_555
H89 C46 1_555 1_555
H90 C46 1_555 1_555
C47 N5 1_555 1_555
H91 C47 1_555 1_555
H92 C47 1_555 1_555
C48 C47 1_555 1_555
H93 C48 1_555 1_555
H94 C48 1_555 1_555
H95 C48 1_555 1_555
C49 N5 1_555 1_555
H96 C49 1_555 1_555
H97 C49 1_555 1_555
C50 C49 1_555 1_555
H98 C50 1_555 1_555
H99 C50 1_555 1_555
H100 C50 1_555 1_555
C51 N6 1_555 1_555
H101 C51 1_555 1_555
H102 C51 1_555 1_555
C52 C51 1_555 1_555
H103 C52 1_555 1_555
H104 C52 1_555 1_555
H105 C52 1_555 1_555
C53 N6 1_555 1_555
H106 C53 1_555 1_555
H107 C53 1_555 1_555
C54 C53 1_555 1_555
H108 C54 1_555 1_555
H109 C54 1_555 1_555
H110 C54 1_555 1_555
Sr2 O6 1_555 1_555
C2 C3 1_555 1_555
C12 C13 1_555 1_555
C14 C15 1_555 1_555
C29 C30 1_555 1_555
C39 C40 1_555 1_555
C41 C42 1_555 1_555

#END
