
#######################################################################
#
#                 Cambridge Crystallographic Data Centre
#                                CCDC 
#
#######################################################################
#
# If this CIF has been generated from an entry in the Cambridge 
# Structural Database, then it will include bibliographic, chemical, 
# crystal, experimental, refinement or atomic coordinate data resulting 
# from the CCDC's data processing and validation procedures.
#
#######################################################################

data_KOMDEV
_chemical_formula_moiety         'C24 H28 O4 S2'
_chemical_name_systematic        
"Ethyl 10',10'-dimethoxyspiro(1,3-dithiane)-2,1'-(2.2)metacyclophane-5'-carboxylate"
_symmetry_cell_setting           triclinic
_symmetry_space_group_name_H-M   'P -1'
_symmetry_Int_Tables_number      2
_space_group_name_Hall           '-P 1'
loop_
_symmetry_equiv_pos_site_id
_symmetry_equiv_pos_as_xyz
1 x,y,z
2 -x,-y,-z
_cell_length_a                   9.812(3)
_cell_length_b                   10.268(3)
_cell_length_c                   12.354(3)
_cell_angle_alpha                76.87(2)
_cell_angle_beta                 84.49(2)
_cell_angle_gamma                68.97(2)
_cell_volume                     1131.24
_exptl_crystal_colour            colorless
_cell_formula_units_Z            2
loop_
_atom_site_label
_atom_site_type_symbol
_atom_site_fract_x
_atom_site_fract_y
_atom_site_fract_z
S1 S 0.4386(1) 0.4225(1) 0.8952(1)
S2 S 0.4919(1) 0.2131(1) 0.7495(1)
O1 O 0.8649(2) 0.7637(2) 0.6217(1)
O2 O 0.6947(2) 0.7839(2) 0.7684(1)
O3 O 0.1403(2) 1.0787(2) 0.8027(2)
O4 O 0.0291(2) 0.9193(2) 0.8512(2)
C1 C 0.7319(2) 0.7465(2) 0.6642(2)
C2 C 0.6027(2) 0.8475(2) 0.5871(2)
C3 C 0.4610(2) 0.8237(2) 0.6238(2)
C4 C 0.3588(2) 0.9063(2) 0.6891(2)
C5 C 0.2434(2) 0.8641(2) 0.7383(2)
C6 C 0.2389(2) 0.7325(2) 0.7322(2)
C7 C 0.3405(2) 0.6487(2) 0.6676(2)
C8 C 0.4411(2) 0.7027(2) 0.6057(2)
C9 C 0.3615(2) 0.4933(2) 0.6770(2)
C10 C 0.4902(2) 0.3899(2) 0.7554(2)
C11 C 0.6322(2) 0.4153(2) 0.7133(2)
C12 C 0.7223(2) 0.3438(2) 0.6349(2)
C13 C 0.8269(3) 0.3945(3) 0.5768(2)
C14 C 0.8375(2) 0.5205(2) 0.5893(2)
C15 C 0.7506(2) 0.5920(2) 0.6676(2)
C16 C 0.6561(2) 0.5332(2) 0.7343(32)
C17 C 0.1271(2) 0.9540(3) 0.8034(2)
C18 C 0.0329(3) 1.1724(3) 0.8664(3)
C19 C 0.0703(4) 1.2989(3) 0.8607(3)
C20 C 0.8683(3) 0.9049(3) 0.6019(3)
C21 C 0.8032(3) 0.7083(3) 0.8513(2)
C22 C 0.5845(3) 0.2801(2) 0.9742(2)
C23 C 0.5897(4) 0.1330(3) 0.9672(2)
C24 C 0.6271(3) 0.1015(2) 0.8520(2)
H1 H 0.6259 0.8319 0.5128
H2 H 0.5908 0.9448 0.5860
H3 H 0.3670 0.9928 0.6999
H4 H 0.1644 0.6998 0.7721
H5 H 0.4967 0.6567 0.5481
H6 H 0.3800 0.4712 0.6044
H7 H 0.2729 0.4777 0.7057
H8 H 0.7119 0.2591 0.6219
H9 H 0.8919 0.3421 0.5259
H10 H 0.9061 0.5580 0.5449
H11 H 0.6072 0.5735 0.7964
H12 H 0.0299 1.1235 0.9422
H13 H -0.0619 1.2005 0.8353
H14 H -0.0007 1.3618 0.9020
H15 H 0.1649 1.2699 0.8924
H16 H 0.0724 1.3475 0.7847
H17 H 0.9631 0.9048 0.5741
H18 H 0.7960 0.9665 0.5481
H19 H 0.8477 0.9387 0.6701
H20 H 0.7701 0.7397 0.9197
H21 H 0.8206 0.6080 0.8626
H22 H 0.8922 0.7258 0.8270
H23 H 0.5726 0.2885 1.0506
H24 H 0.6759 0.2908 0.9476
H25 H 0.4965 0.1241 0.9898
H26 H 0.6610 0.0631 1.0183
H27 H 0.7184 0.1142 0.8285
H28 H 0.6400 0.0034 0.8554
loop_
_geom_bond_atom_site_label_1
_geom_bond_atom_site_label_2
_geom_bond_site_symmetry_1
_geom_bond_site_symmetry_2
S1 C10 1_555 1_555
S2 C10 1_555 1_555
O1 C1 1_555 1_555
O2 C1 1_555 1_555
O3 C17 1_555 1_555
O4 C17 1_555 1_555
C1 C2 1_555 1_555
C2 C3 1_555 1_555
C3 C4 1_555 1_555
C4 C5 1_555 1_555
C5 C6 1_555 1_555
C6 C7 1_555 1_555
C7 C8 1_555 1_555
C8 C3 1_555 1_555
C9 C7 1_555 1_555
C10 C9 1_555 1_555
C11 C10 1_555 1_555
C12 C11 1_555 1_555
C13 C12 1_555 1_555
C14 C13 1_555 1_555
C15 C1 1_555 1_555
C16 C11 1_555 1_555
C17 C5 1_555 1_555
C18 O3 1_555 1_555
C19 C18 1_555 1_555
C20 O1 1_555 1_555
C21 O2 1_555 1_555
C22 S1 1_555 1_555
C23 C22 1_555 1_555
C24 S2 1_555 1_555
H1 C2 1_555 1_555
H2 C2 1_555 1_555
H3 C4 1_555 1_555
H4 C6 1_555 1_555
H5 C8 1_555 1_555
H6 C9 1_555 1_555
H7 C9 1_555 1_555
H8 C12 1_555 1_555
H9 C13 1_555 1_555
H10 C14 1_555 1_555
H11 C16 1_555 1_555
H12 C18 1_555 1_555
H13 C18 1_555 1_555
H14 C19 1_555 1_555
H15 C19 1_555 1_555
H16 C19 1_555 1_555
H17 C20 1_555 1_555
H18 C20 1_555 1_555
H19 C20 1_555 1_555
H20 C21 1_555 1_555
H21 C21 1_555 1_555
H22 C21 1_555 1_555
H23 C22 1_555 1_555
H24 C22 1_555 1_555
H25 C23 1_555 1_555
H26 C23 1_555 1_555
H27 C24 1_555 1_555
H28 C24 1_555 1_555
C14 C15 1_555 1_555
C15 C16 1_555 1_555
C23 C24 1_555 1_555

#END
