
#######################################################################
#
#                 Cambridge Crystallographic Data Centre
#                                CCDC 
#
#######################################################################
#
# If this CIF has been generated from an entry in the Cambridge 
# Structural Database, then it will include bibliographic, chemical, 
# crystal, experimental, refinement or atomic coordinate data resulting 
# from the CCDC's data processing and validation procedures.
#
#######################################################################

data_KOMFAV
_chemical_formula_moiety         'C54 H110 N6 O6 Sr2'
_chemical_name_systematic        
bis(\m-1,7-bis(dimethylamino)-4-(3-(dimethylamino)propyl)heptan-4-olato)-bis(2,2,6,6-tetramethylheptane-3,5-dionato)-di-strontium
_symmetry_cell_setting           monoclinic
_symmetry_space_group_name_H-M   'P 21/c'
_symmetry_Int_Tables_number      14
_space_group_name_Hall           '-P 2ybc'
loop_
_symmetry_equiv_pos_site_id
_symmetry_equiv_pos_as_xyz
1 x,y,z
2 -x,1/2+y,1/2-z
3 -x,-y,-z
4 x,1/2-y,1/2+z
_cell_length_a                   29.008(6)
_cell_length_b                   11.542(2)
_cell_length_c                   19.150(4)
_cell_angle_alpha                90
_cell_angle_beta                 94.86(3)
_cell_angle_gamma                90
_cell_volume                     6388.57
_exptl_crystal_colour            colorless
_exptl_crystal_description       block
_cell_formula_units_Z            4
_chemical_properties_physical    
'Air-sensitive, Moisture-sensitive, Oxygen-sensitive'
loop_
_atom_site_label
_atom_site_type_symbol
_atom_site_fract_x
_atom_site_fract_y
_atom_site_fract_z
Sr1 Sr 0.191072(10) 0.41679(3) 0.325835(15)
Sr2 Sr 0.297455(10) 0.60142(3) 0.339125(16)
O1 O 0.25776(7) 0.4671(2) 0.40760(11)
N1 N 0.13829(9) 0.5094(3) 0.42154(15)
N2 N 0.41976(10) 0.2222(3) 0.43636(17)
N3 N 0.36187(10) 0.5512(3) 0.70011(15)
C1 C 0.16723(13) 0.5653(3) 0.47920(19)
H1 H 0.1475 0.6188 0.5040
H2 H 0.1912 0.6125 0.4586
C2 C 0.19100(12) 0.4837(3) 0.53229(18)
H3 H 0.1666 0.4461 0.5575
H4 H 0.2097 0.5316 0.5670
C3 C 0.22235(11) 0.3883(3) 0.50845(17)
H5 H 0.2038 0.3404 0.4736
H6 H 0.2309 0.3380 0.5494
C4 C 0.26771(11) 0.4226(3) 0.47599(16)
C5 C 0.29469(12) 0.5161(3) 0.52017(16)
H7 H 0.3219 0.5387 0.4954
H8 H 0.2746 0.5853 0.5218
C6 C 0.31171(12) 0.4839(3) 0.59567(17)
H9 H 0.2849 0.4789 0.6243
H10 H 0.3268 0.4069 0.5961
C7 C 0.34563(12) 0.5724(3) 0.62729(17)
H11 H 0.3727 0.5745 0.5991
H12 H 0.3308 0.6497 0.6239
C8 C 0.29688(11) 0.3113(3) 0.47242(18)
H13 H 0.2994 0.2746 0.5193
H14 H 0.2800 0.2567 0.4395
C9 C 0.34560(12) 0.3277(3) 0.44948(19)
H15 H 0.3438 0.3709 0.4047
H16 H 0.3640 0.3745 0.4850
C10 C 0.36979(12) 0.2128(3) 0.44017(19)
H17 H 0.3638 0.1615 0.4799
H18 H 0.3560 0.1757 0.3967
C11 C 0.11689(15) 0.6021(4) 0.3773(2)
H19 H 0.0997 0.5679 0.3361
H20 H 0.1410 0.6534 0.3621
H21 H 0.0957 0.6467 0.4041
C12 C 0.10206(14) 0.4357(4) 0.4457(2)
H22 H 0.1161 0.3679 0.4698
H23 H 0.0814 0.4103 0.4055
H24 H 0.0843 0.4794 0.4781
C13 C 0.43075(15) 0.2872(4) 0.3751(3)
H25 H 0.4157 0.2510 0.3328
H26 H 0.4643 0.2875 0.3723
H27 H 0.4197 0.3670 0.3787
C14 C 0.43990(15) 0.1069(4) 0.4347(2)
H28 H 0.4320 0.0630 0.4758
H29 H 0.4736 0.1133 0.4351
H30 H 0.4277 0.0668 0.3919
C15 C 0.38921(15) 0.6498(4) 0.7278(2)
H31 H 0.3996 0.6357 0.7771
H32 H 0.3702 0.7201 0.7241
H33 H 0.4162 0.6599 0.7008
C16 C 0.38907(17) 0.4468(4) 0.7077(2)
H34 H 0.3694 0.3798 0.6947
H35 H 0.4018 0.4388 0.7565
H36 H 0.4144 0.4507 0.6771
O2 O 0.15930(7) 0.2295(2) 0.36317(12)
O3 O 0.11866(8) 0.3747(2) 0.25490(12)
C17 C 0.12186(11) 0.1740(3) 0.35102(17)
C18 C 0.08769(12) 0.2013(3) 0.29682(18)
H37 H 0.0620 0.1503 0.2903
C19 C 0.08811(11) 0.2963(3) 0.25183(18)
C20 C 0.11369(12) 0.0698(3) 0.39811(19)
C21 C 0.04898(13) 0.3114(4) 0.1919(2)
C22 C 0.15294(14) 0.0599(4) 0.4562(2)
H38 H 0.1824 0.0514 0.4353
H39 H 0.1478 -0.0080 0.4852
H40 H 0.1538 0.1298 0.4852
C23 C 0.06821(14) 0.0857(4) 0.4324(2)
H41 H 0.0694 0.1581 0.4593
H42 H 0.0638 0.0204 0.4639
H43 H 0.0424 0.0887 0.3961
C24 C 0.11115(15) -0.0411(3) 0.3540(2)
H44 H 0.0844 -0.0370 0.3192
H45 H 0.1079 -0.1082 0.3846
H46 H 0.1395 -0.0491 0.3301
C25 C 0.00778(14) 0.2322(5) 0.1963(2)
H47 H -0.0157 0.2502 0.1581
H48 H -0.0053 0.2437 0.2414
H49 H 0.0177 0.1514 0.1924
C26 C 0.0313(2) 0.4344(5) 0.1968(5)
H50 H 0.0576 0.4875 0.2054
H51 H 0.0113 0.4400 0.2354
H52 H 0.0136 0.4554 0.1527
C27 C 0.0698(2) 0.2944(10) 0.1253(2)
H53 H 0.0801 0.2139 0.1219
H54 H 0.0963 0.3464 0.1233
H55 H 0.0468 0.3115 0.0862
O4 O 0.22525(7) 0.5806(2) 0.26809(11)
N4 N 0.23447(10) 0.2829(3) 0.23522(14)
N5 N 0.27690(10) 0.8262(3) 0.36122(17)
N6 N 0.06925(11) 0.8186(3) 0.07896(18)
C28 C 0.25289(12) 0.3585(3) 0.18237(19)
H56 H 0.2670 0.3099 0.1473
H57 H 0.2776 0.4079 0.2055
C29 C 0.21567(13) 0.4364(3) 0.14460(19)
H58 H 0.2091 0.4082 0.0959
H59 H 0.1868 0.4294 0.1684
C30 C 0.22947(12) 0.5645(3) 0.14260(18)
H60 H 0.2158 0.5986 0.0981
H61 H 0.2635 0.5694 0.1424
C31 C 0.21437(11) 0.6382(3) 0.20422(17)
C32 C 0.24142(13) 0.7543(3) 0.20270(19)
H62 H 0.2744 0.7373 0.2160
H63 H 0.2392 0.7820 0.1536
C33 C 0.22729(17) 0.8541(4) 0.2485(2)
H64 H 0.2454 0.9224 0.2355
H65 H 0.1945 0.8713 0.2335
C34 C 0.2309(2) 0.8496(6) 0.3247(3)
H66 H 0.2094 0.7890 0.3389
H67 H 0.2199 0.9245 0.3420
C35 C 0.16164(12) 0.6605(4) 0.19619(19)
H68 H 0.1459 0.5845 0.1979
H69 H 0.1536 0.7050 0.2377
C36 C 0.14106(12) 0.7241(4) 0.13108(19)
H70 H 0.1603 0.7927 0.1227
H71 H 0.1414 0.6724 0.0899
C37 C 0.09192(13) 0.7625(4) 0.1390(2)
H72 H 0.0735 0.6937 0.1502
H73 H 0.0922 0.8161 0.1794
C38 C 0.20290(14) 0.1948(3) 0.2030(2)
H74 H 0.1781 0.2328 0.1735
H75 H 0.1895 0.1502 0.2399
H76 H 0.2200 0.1426 0.1743
C39 C 0.27289(14) 0.2228(4) 0.2757(2)
H77 H 0.2890 0.1726 0.2444
H78 H 0.2606 0.1758 0.3125
H79 H 0.2946 0.2802 0.2972
C40 C 0.3104(4) 0.9122(13) 0.3535(6)
H80 H 0.3157 0.9199 0.3038
H81 H 0.3393 0.8904 0.3803
H82 H 0.2994 0.9862 0.3709
C41 C 0.2709(3) 0.8152(8) 0.4389(4)
H83 H 0.3012 0.8029 0.4647
H84 H 0.2507 0.7492 0.4466
H85 H 0.2570 0.8863 0.4556
C42 C 0.0287(2) 0.8800(6) 0.0953(4)
H86 H 0.0091 0.8289 0.1209
H87 H 0.0115 0.9058 0.0518
H88 H 0.0377 0.9476 0.1243
C43 C 0.05309(19) 0.7300(6) 0.0286(3)
H89 H 0.0797 0.6911 0.0108
H90 H 0.0343 0.7661 -0.0104
H91 H 0.0344 0.6731 0.0516
O5 O 0.34953(8) 0.5393(2) 0.25419(13)
O6 O 0.37584(8) 0.6466(2) 0.38384(13)
C44 C 0.39255(13) 0.5442(3) 0.2481(2)
C45 C 0.42562(12) 0.5858(3) 0.29952(19)
H92 H 0.4572 0.5818 0.2898
C46 C 0.41599(11) 0.6333(3) 0.36472(19)
C47 C 0.40804(14) 0.4993(4) 0.1772(2)
C48 C 0.45575(12) 0.6733(3) 0.4170(2)
C49 C 0.39535(18) 0.3715(4) 0.1711(3)
H93 H 0.4043 0.3411 0.1265
H94 H 0.3619 0.3626 0.1732
H95 H 0.4117 0.3287 0.2099
C50 C 0.3796(2) 0.5634(5) 0.1180(2)
H96 H 0.3858 0.5296 0.0728
H97 H 0.3882 0.6455 0.1189
H98 H 0.3466 0.5560 0.1246
C51 C 0.45881(17) 0.5148(6) 0.1680(3)
H99 H 0.4771 0.4700 0.2039
H100 H 0.4669 0.5970 0.1728
H101 H 0.4653 0.4874 0.1214
C52 C 0.50417(13) 0.6464(5) 0.3966(3)
H102 H 0.5090 0.6850 0.3523
H103 H 0.5076 0.5625 0.3911
H104 H 0.5271 0.6743 0.4333
C53 C 0.45077(17) 0.8027(4) 0.4268(3)
H105 H 0.4748 0.8301 0.4620
H106 H 0.4202 0.8197 0.4426
H107 H 0.4541 0.8422 0.3822
C54 C 0.44974(15) 0.6124(5) 0.4866(2)
H108 H 0.4492 0.5283 0.4794
H109 H 0.4206 0.6371 0.5044
H110 H 0.4756 0.6326 0.5208
H111? H 0.2164 0.9169 0.2159
H112? H 0.1998 0.8270 0.2710
C55? C 0.2547(5) 0.9039(12) 0.2986(7)
H113? H 0.2368 0.9664 0.3192
H114? H 0.2804 0.9414 0.2762
C56? C 0.3209(9) 0.900(3) 0.3840(17)
H115? H 0.3116 0.9717 0.4066
H116? H 0.3371 0.9197 0.3426
H117? H 0.3416 0.8557 0.4170
C57? C 0.2483(7) 0.8208(17) 0.4138(11)
H118? H 0.2472 0.8967 0.4366
H119? H 0.2600 0.7629 0.4483
H120? H 0.2172 0.7990 0.3945
loop_
_geom_bond_atom_site_label_1
_geom_bond_atom_site_label_2
_geom_bond_site_symmetry_1
_geom_bond_site_symmetry_2
Sr1 O1 1_555 1_555
Sr2 O1 1_555 1_555
O1 C4 1_555 1_555
N1 Sr1 1_555 1_555
N2 C10 1_555 1_555
N3 C7 1_555 1_555
C1 N1 1_555 1_555
H1 C1 1_555 1_555
H2 C1 1_555 1_555
C2 C1 1_555 1_555
H3 C2 1_555 1_555
H4 C2 1_555 1_555
C3 C2 1_555 1_555
H5 C3 1_555 1_555
H6 C3 1_555 1_555
C4 C3 1_555 1_555
C5 C4 1_555 1_555
H7 C5 1_555 1_555
H8 C5 1_555 1_555
C6 C5 1_555 1_555
H9 C6 1_555 1_555
H10 C6 1_555 1_555
C7 C6 1_555 1_555
H11 C7 1_555 1_555
H12 C7 1_555 1_555
C8 C4 1_555 1_555
H13 C8 1_555 1_555
H14 C8 1_555 1_555
C9 C8 1_555 1_555
H15 C9 1_555 1_555
H16 C9 1_555 1_555
C10 C9 1_555 1_555
H17 C10 1_555 1_555
H18 C10 1_555 1_555
C11 N1 1_555 1_555
H19 C11 1_555 1_555
H20 C11 1_555 1_555
H21 C11 1_555 1_555
C12 N1 1_555 1_555
H22 C12 1_555 1_555
H23 C12 1_555 1_555
H24 C12 1_555 1_555
C13 N2 1_555 1_555
H25 C13 1_555 1_555
H26 C13 1_555 1_555
H27 C13 1_555 1_555
C14 N2 1_555 1_555
H28 C14 1_555 1_555
H29 C14 1_555 1_555
H30 C14 1_555 1_555
C15 N3 1_555 1_555
H31 C15 1_555 1_555
H32 C15 1_555 1_555
H33 C15 1_555 1_555
C16 N3 1_555 1_555
H34 C16 1_555 1_555
H35 C16 1_555 1_555
H36 C16 1_555 1_555
O2 Sr1 1_555 1_555
O3 Sr1 1_555 1_555
C17 O2 1_555 1_555
C18 C17 1_555 1_555
H37 C18 1_555 1_555
C19 O3 1_555 1_555
C20 C17 1_555 1_555
C21 C19 1_555 1_555
C22 C20 1_555 1_555
H38 C22 1_555 1_555
H39 C22 1_555 1_555
H40 C22 1_555 1_555
C23 C20 1_555 1_555
H41 C23 1_555 1_555
H42 C23 1_555 1_555
H43 C23 1_555 1_555
C24 C20 1_555 1_555
H44 C24 1_555 1_555
H45 C24 1_555 1_555
H46 C24 1_555 1_555
C25 C21 1_555 1_555
H47 C25 1_555 1_555
H48 C25 1_555 1_555
H49 C25 1_555 1_555
C26 C21 1_555 1_555
H50 C26 1_555 1_555
H51 C26 1_555 1_555
H52 C26 1_555 1_555
C27 C21 1_555 1_555
H53 C27 1_555 1_555
H54 C27 1_555 1_555
H55 C27 1_555 1_555
O4 Sr1 1_555 1_555
N4 Sr1 1_555 1_555
N5 Sr2 1_555 1_555
N6 C37 1_555 1_555
C28 N4 1_555 1_555
H56 C28 1_555 1_555
H57 C28 1_555 1_555
C29 C28 1_555 1_555
H58 C29 1_555 1_555
H59 C29 1_555 1_555
C30 C29 1_555 1_555
H60 C30 1_555 1_555
H61 C30 1_555 1_555
C31 O4 1_555 1_555
C32 C31 1_555 1_555
H62 C32 1_555 1_555
H63 C32 1_555 1_555
C33 C32 1_555 1_555
H64 C33 1_555 1_555
H65 C33 1_555 1_555
C34 N5 1_555 1_555
H66 C34 1_555 1_555
H67 C34 1_555 1_555
C35 C31 1_555 1_555
H68 C35 1_555 1_555
H69 C35 1_555 1_555
C36 C35 1_555 1_555
H70 C36 1_555 1_555
H71 C36 1_555 1_555
C37 C36 1_555 1_555
H72 C37 1_555 1_555
H73 C37 1_555 1_555
C38 N4 1_555 1_555
H74 C38 1_555 1_555
H75 C38 1_555 1_555
H76 C38 1_555 1_555
C39 N4 1_555 1_555
H77 C39 1_555 1_555
H78 C39 1_555 1_555
H79 C39 1_555 1_555
C40 N5 1_555 1_555
H80 C40 1_555 1_555
H81 C40 1_555 1_555
H82 C40 1_555 1_555
C41 N5 1_555 1_555
H83 C41 1_555 1_555
H84 C41 1_555 1_555
H85 C41 1_555 1_555
C42 N6 1_555 1_555
H86 C42 1_555 1_555
H87 C42 1_555 1_555
H88 C42 1_555 1_555
C43 N6 1_555 1_555
H89 C43 1_555 1_555
H90 C43 1_555 1_555
H91 C43 1_555 1_555
O5 Sr2 1_555 1_555
O6 Sr2 1_555 1_555
C44 O5 1_555 1_555
C45 C44 1_555 1_555
H92 C45 1_555 1_555
C46 O6 1_555 1_555
C47 C44 1_555 1_555
C48 C46 1_555 1_555
C49 C47 1_555 1_555
H93 C49 1_555 1_555
H94 C49 1_555 1_555
H95 C49 1_555 1_555
C50 C47 1_555 1_555
H96 C50 1_555 1_555
H97 C50 1_555 1_555
H98 C50 1_555 1_555
C51 C47 1_555 1_555
H99 C51 1_555 1_555
H100 C51 1_555 1_555
H101 C51 1_555 1_555
C52 C48 1_555 1_555
H102 C52 1_555 1_555
H103 C52 1_555 1_555
H104 C52 1_555 1_555
C53 C48 1_555 1_555
H105 C53 1_555 1_555
H106 C53 1_555 1_555
H107 C53 1_555 1_555
C54 C48 1_555 1_555
H108 C54 1_555 1_555
H109 C54 1_555 1_555
H110 C54 1_555 1_555
Sr2 O4 1_555 1_555
C18 C19 1_555 1_555
C30 C31 1_555 1_555
C33 C34 1_555 1_555
C45 C46 1_555 1_555

#END
