
#######################################################################
#
#                 Cambridge Crystallographic Data Centre
#                                CCDC 
#
#######################################################################
#
# If this CIF has been generated from an entry in the Cambridge 
# Structural Database, then it will include bibliographic, chemical, 
# crystal, experimental, refinement or atomic coordinate data resulting 
# from the CCDC's data processing and validation procedures.
#
#######################################################################

data_KOMKUU
_chemical_formula_moiety         'C22 H13 Cl1 N2 O1'
_chemical_name_systematic        
2-benzoyl-1-(2-chlorophenyl)indolizine-3-carbonitrile
_symmetry_cell_setting           monoclinic
_symmetry_space_group_name_H-M   'C 2/c'
_symmetry_Int_Tables_number      15
_space_group_name_Hall           '-C 2yn'
loop_
_symmetry_equiv_pos_site_id
_symmetry_equiv_pos_as_xyz
1 x,y,z
2 -x,y,1/2-z
3 1/2+x,1/2+y,z
4 1/2-x,1/2+y,1/2-z
5 -x,-y,-z
6 x,-y,1/2+z
7 1/2-x,1/2-y,-z
8 1/2+x,1/2-y,1/2+z
_cell_length_a                   23.071(3)
_cell_length_b                   10.7768(13)
_cell_length_c                   14.3886(19)
_cell_angle_alpha                90
_cell_angle_beta                 102.951(4)
_cell_angle_gamma                90
_cell_volume                     3486.46
_exptl_crystal_colour            yellow
_exptl_crystal_description       block
_cell_formula_units_Z            8
loop_
_atom_site_label
_atom_site_type_symbol
_atom_site_fract_x
_atom_site_fract_y
_atom_site_fract_z
C1 C 0.71995(16) 0.6729(3) 0.7682(3)
H1 H 0.7401 0.5975 0.7779
C2 C 0.71736(18) 0.7384(4) 0.6867(3)
H2 H 0.7355 0.7073 0.6400
C3 C 0.68740(17) 0.8532(3) 0.6725(3)
H3 H 0.6862 0.8976 0.6167
C4 C 0.66061(15) 0.8989(3) 0.7386(2)
H4 H 0.6407 0.9745 0.7286
C5 C 0.66272(11) 0.8336(2) 0.82145(18)
C6 C 0.63791(14) 0.8634(3) 0.8979(2)
C7 C 0.65053(13) 0.7682(3) 0.9630(2)
C8 C 0.68376(14) 0.6773(3) 0.9255(2)
C9 C 0.63404(14) 0.7704(3) 1.0559(2)
C10 C 0.61484(14) 0.6563(3) 1.0981(2)
C11 C 0.58877(15) 0.5579(3) 1.0431(2)
H5 H 0.5847 0.5598 0.9773
C12 C 0.56868(18) 0.4563(3) 1.0854(3)
H6 H 0.5511 0.3904 1.0478
C13 C 0.57441(19) 0.4519(3) 1.1818(3)
H7 H 0.5606 0.3835 1.2099
C14 C 0.6007(2) 0.5491(4) 1.2371(3)
H8 H 0.6053 0.5459 1.3029
C15 C 0.62036(18) 0.6509(3) 1.1960(3)
H9 H 0.6375 0.7168 1.2340
C16 C 0.60260(15) 0.9778(3) 0.8974(2)
C17 C 0.63087(17) 1.0934(3) 0.9076(3)
H10 H 0.6720 1.0975 0.9157
C18 C 0.54121(15) 0.9759(3) 0.8854(2)
C19 C 0.5985(2) 1.2012(3) 0.9059(3)
H11 H 0.6179 1.2774 0.9143
C20 C 0.50876(18) 1.0840(4) 0.8815(3)
H12 H 0.4676 1.0813 0.8719
C21 C 0.5382(2) 1.1965(4) 0.8919(3)
H13 H 0.5167 1.2697 0.8893
C22 C 0.70684(16) 0.5632(3) 0.9658(3)
Cl1 Cl 0.50414(5) 0.83558(11) 0.87562(8)
N1 N 0.69174(14) 0.7205(3) 0.8380(2)
N2 N 0.72444(17) 0.4694(3) 0.9950(3)
O1 O 0.63530(13) 0.8695(2) 1.09841(17)
loop_
_geom_bond_atom_site_label_1
_geom_bond_atom_site_label_2
_geom_bond_site_symmetry_1
_geom_bond_site_symmetry_2
C1 H1 1_555 1_555
C2 C1 1_555 1_555
H2 C2 1_555 1_555
C3 C2 1_555 1_555
H3 C3 1_555 1_555
C4 C3 1_555 1_555
H4 C4 1_555 1_555
C5 C4 1_555 1_555
C6 C5 1_555 1_555
C7 C6 1_555 1_555
C8 C7 1_555 1_555
C9 C7 1_555 1_555
C10 C9 1_555 1_555
C11 C10 1_555 1_555
H5 C11 1_555 1_555
C12 C11 1_555 1_555
H6 C12 1_555 1_555
C13 C12 1_555 1_555
H7 C13 1_555 1_555
C14 C13 1_555 1_555
H8 C14 1_555 1_555
C15 C10 1_555 1_555
H9 C15 1_555 1_555
C16 C6 1_555 1_555
C17 C16 1_555 1_555
H10 C17 1_555 1_555
C18 C16 1_555 1_555
C19 C17 1_555 1_555
H11 C19 1_555 1_555
C20 C18 1_555 1_555
H12 C20 1_555 1_555
C21 C19 1_555 1_555
H13 C21 1_555 1_555
C22 C8 1_555 1_555
Cl1 C18 1_555 1_555
N1 C1 1_555 1_555
N2 C22 1_555 1_555
O1 C9 1_555 1_555
C5 N1 1_555 1_555
C8 N1 1_555 1_555
C14 C15 1_555 1_555
C20 C21 1_555 1_555

#END
