
#######################################################################
#
#                 Cambridge Crystallographic Data Centre
#                                CCDC 
#
#######################################################################
#
# If this CIF has been generated from an entry in the Cambridge 
# Structural Database, then it will include bibliographic, chemical, 
# crystal, experimental, refinement or atomic coordinate data resulting 
# from the CCDC's data processing and validation procedures.
#
#######################################################################

data_KOMLIJ
_chemical_formula_moiety         'C22 H28 B1 N1 O4 S1'
_chemical_name_systematic        
N-benzyl-N-(2-phenyl-1-(4,4,5,5-tetramethyl-1,3,2-dioxaborolan-2-yl)vinyl)methanesulfonamide
_symmetry_cell_setting           orthorhombic
_symmetry_space_group_name_H-M   'P b c a'
_symmetry_Int_Tables_number      61
_space_group_name_Hall           '-P 2ac 2ab'
loop_
_symmetry_equiv_pos_site_id
_symmetry_equiv_pos_as_xyz
1 x,y,z
2 1/2-x,-y,1/2+z
3 -x,1/2+y,1/2-z
4 1/2+x,1/2-y,-z
5 -x,-y,-z
6 1/2+x,y,1/2-z
7 x,1/2-y,1/2+z
8 1/2-x,1/2+y,z
_cell_length_a                   30.245(6)
_cell_length_b                   14.537(3)
_cell_length_c                   10.379(2)
_cell_angle_alpha                90
_cell_angle_beta                 90
_cell_angle_gamma                90
_cell_volume                     4563.35
_cell_formula_units_Z            8
loop_
_atom_site_label
_atom_site_type_symbol
_atom_site_fract_x
_atom_site_fract_y
_atom_site_fract_z
S1 S 0.36966(4) 0.35452(9) 0.12214(11)
N1 N 0.38891(11) 0.4550(2) 0.1587(3)
B1 B 0.32654(17) 0.5608(3) 0.0764(4)
O1 O 0.33212(8) 0.53922(19) -0.0492(2)
C1 C 0.29122(16) 0.5668(3) -0.1159(4)
O2 O 0.29054(9) 0.6135(2) 0.1003(2)
C2 C 0.27129(15) 0.6381(4) -0.0242(4)
O3 O 0.39614(11) 0.2869(2) 0.1870(3)
C3 C 0.30039(19) 0.5950(5) -0.2495(5)
H1 H 0.3177 0.6504 -0.2493
H2 H 0.2730 0.6057 -0.2937
H3 H 0.3165 0.5471 -0.2926
O4 O 0.32292(10) 0.3581(2) 0.1454(3)
C4 C 0.2623(2) 0.4785(4) -0.1189(6)
H4 H 0.2753 0.4344 -0.1763
H5 H 0.2331 0.4937 -0.1485
H6 H 0.2606 0.4529 -0.0338
C5 C 0.22196(16) 0.6382(5) -0.0099(5)
H7 H 0.2134 0.6860 0.0490
H8 H 0.2124 0.5798 0.0229
H9 H 0.2085 0.6491 -0.0923
C6 C 0.2875(2) 0.7351(4) -0.0523(5)
H10 H 0.2740 0.7774 0.0068
H11 H 0.2798 0.7517 -0.1390
H12 H 0.3191 0.7374 -0.0425
C7 C 0.35879(12) 0.5299(3) 0.1861(3)
C8 C 0.35898(12) 0.5730(3) 0.2991(3)
H13 H 0.3414 0.6253 0.3028
C9 C 0.38263(13) 0.5512(3) 0.4198(4)
C10 C 0.39789(13) 0.6228(3) 0.4965(4)
H14 H 0.3943 0.6834 0.4696
C11 C 0.41854(16) 0.6039(4) 0.6137(5)
H15 H 0.4292 0.6520 0.6639
C12 C 0.42337(18) 0.5149(5) 0.6559(5)
H16 H 0.4374 0.5029 0.7338
C13 C 0.40750(17) 0.4442(4) 0.5827(5)
H17 H 0.4099 0.3840 0.6121
C14 C 0.38774(15) 0.4621(3) 0.4638(4)
H18 H 0.3779 0.4134 0.4134
C15 C 0.43698(14) 0.4655(3) 0.1818(4)
H19 H 0.4525 0.4161 0.1382
H20 H 0.4426 0.4593 0.2734
C16 C 0.45562(13) 0.5561(3) 0.1365(4)
C17 C 0.44714(15) 0.5874(4) 0.0136(4)
H21 H 0.4280 0.5550 -0.0399
C18 C 0.46688(17) 0.6660(4) -0.0294(5)
H22 H 0.4612 0.6863 -0.1128
C19 C 0.49471(18) 0.7155(4) 0.0474(6)
H23 H 0.5081 0.7687 0.0164
C20 C 0.50279(15) 0.6862(4) 0.1704(6)
H24 H 0.5216 0.7196 0.2237
C21 C 0.48275(15) 0.6059(4) 0.2156(4)
H25 H 0.4878 0.5862 0.2996
C22 C 0.37797(15) 0.3395(3) -0.0463(4)
H26 H 0.3670 0.2803 -0.0720
H27 H 0.4090 0.3434 -0.0654
H28 H 0.3624 0.3867 -0.0925
loop_
_geom_bond_atom_site_label_1
_geom_bond_atom_site_label_2
_geom_bond_site_symmetry_1
_geom_bond_site_symmetry_2
S1 N1 1_555 1_555
N1 C7 1_555 1_555
B1 O1 1_555 1_555
O1 C1 1_555 1_555
C1 C2 1_555 1_555
O2 B1 1_555 1_555
C2 O2 1_555 1_555
O3 S1 1_555 1_555
C3 C1 1_555 1_555
H1 C3 1_555 1_555
H2 C3 1_555 1_555
H3 C3 1_555 1_555
O4 S1 1_555 1_555
C4 C1 1_555 1_555
H4 C4 1_555 1_555
H5 C4 1_555 1_555
H6 C4 1_555 1_555
C5 C2 1_555 1_555
H7 C5 1_555 1_555
H8 C5 1_555 1_555
H9 C5 1_555 1_555
C6 C2 1_555 1_555
H10 C6 1_555 1_555
H11 C6 1_555 1_555
H12 C6 1_555 1_555
C7 B1 1_555 1_555
C8 C7 1_555 1_555
H13 C8 1_555 1_555
C9 C8 1_555 1_555
C10 C9 1_555 1_555
H14 C10 1_555 1_555
C11 C10 1_555 1_555
H15 C11 1_555 1_555
C12 C11 1_555 1_555
H16 C12 1_555 1_555
C13 C12 1_555 1_555
H17 C13 1_555 1_555
C14 C9 1_555 1_555
H18 C14 1_555 1_555
C15 N1 1_555 1_555
H19 C15 1_555 1_555
H20 C15 1_555 1_555
C16 C15 1_555 1_555
C17 C16 1_555 1_555
H21 C17 1_555 1_555
C18 C17 1_555 1_555
H22 C18 1_555 1_555
C19 C18 1_555 1_555
H23 C19 1_555 1_555
C20 C19 1_555 1_555
H24 C20 1_555 1_555
C21 C16 1_555 1_555
H25 C21 1_555 1_555
C22 S1 1_555 1_555
H26 C22 1_555 1_555
H27 C22 1_555 1_555
H28 C22 1_555 1_555
C13 C14 1_555 1_555
C20 C21 1_555 1_555

#END
