
#######################################################################
#
#                 Cambridge Crystallographic Data Centre
#                                CCDC 
#
#######################################################################
#
# If this CIF has been generated from an entry in the Cambridge 
# Structural Database, then it will include bibliographic, chemical, 
# crystal, experimental, refinement or atomic coordinate data resulting 
# from the CCDC's data processing and validation procedures.
#
#######################################################################

data_KOMNUX
_chemical_formula_moiety         'C24 H33 I1 N2 O1'
_chemical_name_systematic        
8,11-di-t-butyl-9-(4-iodophenoxy)-7,10-diazatricyclo[4.3.3.0^1,6^]dodeca-7,10-diene
_symmetry_cell_setting           monoclinic
_symmetry_space_group_name_H-M   'P 21/c'
_symmetry_Int_Tables_number      14
_space_group_name_Hall           '-P 2ybc'
loop_
_symmetry_equiv_pos_site_id
_symmetry_equiv_pos_as_xyz
1 x,y,z
2 -x,1/2+y,1/2-z
3 -x,-y,-z
4 x,1/2-y,1/2+z
_cell_length_a                   13.574(3)
_cell_length_b                   13.719(3)
_cell_length_c                   13.329(3)
_cell_angle_alpha                90
_cell_angle_beta                 95.08(3)
_cell_angle_gamma                90
_cell_volume                     2472.4
_cell_formula_units_Z            4
loop_
_atom_site_label
_atom_site_type_symbol
_atom_site_fract_x
_atom_site_fract_y
_atom_site_fract_z
C1 C 0.6430(7) 0.1694(4) 0.1606(5)
C2 C 0.6608(5) 0.1749(4) 0.0535(5)
H1 H 0.6579 0.2431 0.0294
H2 H 0.6116 0.1357 0.0117
C3 C 0.7679(5) 0.1316(5) 0.0503(5)
C4 C 0.8031(5) -0.0212(6) 0.1136(5)
C5 C 0.8564(4) 0.0463(4) 0.1908(5)
H3 H 0.8470 0.0268 0.2616
C6 C 0.8091(5) 0.1442(4) 0.1625(5)
C7 C 0.5399(6) 0.1831(7) 0.1977(7)
C8 C 0.5433(6) 0.1875(7) 0.3105(6)
H4 H 0.5632 0.2530 0.3335
H5 H 0.5913 0.1397 0.3398
H6 H 0.4778 0.1725 0.3318
C9 C 0.4819(6) 0.0867(8) 0.1636(8)
H7 H 0.4119 0.0941 0.1749
H8 H 0.5099 0.0314 0.2028
H9 H 0.4879 0.0752 0.0918
C10 C 0.4900(6) 0.2608(7) 0.1410(7)
H10 H 0.4990 0.3220 0.1787
H11 H 0.4193 0.2459 0.1298
H12 H 0.5178 0.2675 0.0760
C11 C 0.8279(5) 0.1743(5) -0.0299(5)
H13 H 0.7842 0.1842 -0.0926
H14 H 0.8801 0.1273 -0.0448
C12 C 0.8761(6) 0.2716(5) 0.0026(5)
H15 H 0.9222 0.2912 -0.0473
H16 H 0.8241 0.3222 0.0030
C13 C 0.9317(6) 0.2670(5) 0.1050(6)
H17 H 0.9888 0.2226 0.1019
H18 H 0.9581 0.3327 0.1226
C14 C 0.8738(5) 0.2344(5) 0.1840(5)
H19 H 0.8304 0.2888 0.2012
H20 H 0.9196 0.2208 0.2444
C15 C 0.8050(7) -0.1314(5) 0.1242(7)
C16 C 0.7152(9) -0.1585(5) 0.1776(10)
H21 H 0.7050 -0.2291 0.1736
H22 H 0.6569 -0.1252 0.1453
H23 H 0.7255 -0.1386 0.2483
C17 C 0.7803(10) -0.1756(6) 0.0253(9)
H24 H 0.7268 -0.2229 0.0296
H25 H 0.8387 -0.2088 0.0035
H26 H 0.7590 -0.1248 -0.0235
C18 C 0.8921(7) -0.1726(5) 0.1762(8)
H27 H 0.9046 -0.1415 0.2423
H28 H 0.9488 -0.1616 0.1368
H29 H 0.8826 -0.2428 0.1850
C19 C 1.0351(5) 0.0412(4) 0.2464(6)
C20 C 1.1293(5) 0.0262(4) 0.2158(5)
H30 H 1.1380 0.0178 0.1464
C21 C 1.2093(5) 0.0236(4) 0.2854(7)
H31 H 1.2740 0.0156 0.2649
C22 C 1.1944(6) 0.0330(5) 0.3870(6)
C23 C 1.1031(6) 0.0471(4) 0.4166(5)
H32 H 1.0945 0.0532 0.4863
C24 C 1.0213(5) 0.0528(4) 0.3462(6)
H33 H 0.9572 0.0645 0.3670
I1 I 1.32145(4) 0.02354(4) 0.49491(5)
N1 N 0.7179(5) 0.1529(3) 0.2231(4)
N2 N 0.7562(4) 0.0240(4) 0.0368(4)
O1 O 0.9595(3) 0.0434(2) 0.1695(3)
loop_
_geom_bond_atom_site_label_1
_geom_bond_atom_site_label_2
_geom_bond_site_symmetry_1
_geom_bond_site_symmetry_2
C1 C2 1_555 1_555
C2 H1 1_555 1_555
H2 C2 1_555 1_555
C3 C2 1_555 1_555
C4 C5 1_555 1_555
C5 H3 1_555 1_555
C6 C3 1_555 1_555
C7 C1 1_555 1_555
C8 C7 1_555 1_555
H4 C8 1_555 1_555
H5 C8 1_555 1_555
H6 C8 1_555 1_555
C9 C7 1_555 1_555
H7 C9 1_555 1_555
H8 C9 1_555 1_555
H9 C9 1_555 1_555
C10 C7 1_555 1_555
H10 C10 1_555 1_555
H11 C10 1_555 1_555
H12 C10 1_555 1_555
C11 C3 1_555 1_555
H13 C11 1_555 1_555
H14 C11 1_555 1_555
C12 C11 1_555 1_555
H15 C12 1_555 1_555
H16 C12 1_555 1_555
C13 C12 1_555 1_555
H17 C13 1_555 1_555
H18 C13 1_555 1_555
C14 C6 1_555 1_555
H19 C14 1_555 1_555
H20 C14 1_555 1_555
C15 C4 1_555 1_555
C16 C15 1_555 1_555
H21 C16 1_555 1_555
H22 C16 1_555 1_555
H23 C16 1_555 1_555
C17 C15 1_555 1_555
H24 C17 1_555 1_555
H25 C17 1_555 1_555
H26 C17 1_555 1_555
C18 C15 1_555 1_555
H27 C18 1_555 1_555
H28 C18 1_555 1_555
H29 C18 1_555 1_555
C19 C20 1_555 1_555
C20 H30 1_555 1_555
C21 C20 1_555 1_555
H31 C21 1_555 1_555
C22 C21 1_555 1_555
C23 C22 1_555 1_555
H32 C23 1_555 1_555
C24 C19 1_555 1_555
H33 C24 1_555 1_555
I1 C22 1_555 1_555
N1 C1 1_555 1_555
N2 C3 1_555 1_555
O1 C5 1_555 1_555
C4 N2 1_555 1_555
C5 C6 1_555 1_555
C6 N1 1_555 1_555
C13 C14 1_555 1_555
C19 O1 1_555 1_555
C23 C24 1_555 1_555

#END
