
#######################################################################
#
#                 Cambridge Crystallographic Data Centre
#                                CCDC 
#
#######################################################################
#
# If this CIF has been generated from an entry in the Cambridge 
# Structural Database, then it will include bibliographic, chemical, 
# crystal, experimental, refinement or atomic coordinate data resulting 
# from the CCDC's data processing and validation procedures.
#
#######################################################################

data_KOMNIL
_chemical_formula_moiety         'C15 H10 Cl1 N1 O1,H2 O1'
_chemical_name_systematic        
'3-(4-Chlorobenzylidene)-1,3-dihydro-2H-indol-2-one monohydrate'
_symmetry_cell_setting           monoclinic
_symmetry_space_group_name_H-M   'C 2/c'
_symmetry_Int_Tables_number      15
_space_group_name_Hall           '-C 2yn'
loop_
_symmetry_equiv_pos_site_id
_symmetry_equiv_pos_as_xyz
1 x,y,z
2 -x,y,1/2-z
3 1/2+x,1/2+y,z
4 1/2-x,1/2+y,1/2-z
5 -x,-y,-z
6 x,-y,1/2+z
7 1/2-x,1/2-y,-z
8 1/2+x,1/2-y,1/2+z
_cell_length_a                   19.6553(12)
_cell_length_b                   4.0406(2)
_cell_length_c                   32.653(2)
_cell_angle_alpha                90
_cell_angle_beta                 101.378(2)
_cell_angle_gamma                90
_cell_volume                     2542.31
_exptl_crystal_colour            yellow
_exptl_crystal_description       rod
_cell_formula_units_Z            8
loop_
_atom_site_label
_atom_site_type_symbol
_atom_site_fract_x
_atom_site_fract_y
_atom_site_fract_z
Cl1 Cl 0.39632(3) 0.33333(14) 0.233887(16)
O1 O 0.32476(7) 1.1581(4) 0.47398(4)
N1 N 0.21169(8) 0.9751(4) 0.45900(5)
H1 H 0.1977 1.0598 0.4808
C1 C 0.27705(10) 1.0059(5) 0.45160(6)
C2 C 0.27828(10) 0.8277(5) 0.41134(6)
C3 C 0.20765(10) 0.6948(5) 0.39717(6)
C4 C 0.17516(11) 0.5034(5) 0.36353(6)
H2 H 0.1998 0.4343 0.3428
C5 C 0.10582(11) 0.4144(5) 0.36074(6)
H3 H 0.0830 0.2862 0.3377
C6 C 0.06974(11) 0.5116(5) 0.39138(6)
H4 H 0.0226 0.4480 0.3888
C7 C 0.10100(10) 0.6993(5) 0.42556(6)
H5 H 0.0765 0.7621 0.4467
C8 C 0.16952(10) 0.7910(5) 0.42748(6)
C9 C 0.33849(10) 0.8098(5) 0.39755(6)
H6 H 0.3783 0.8913 0.4162
C10 C 0.35058(10) 0.6805(5) 0.35742(6)
C11 C 0.30473(10) 0.7500(5) 0.31966(6)
H7 H 0.2632 0.8691 0.3201
C12 C 0.31933(11) 0.6471(5) 0.28189(6)
H8 H 0.2882 0.6960 0.2565
C13 C 0.37993(11) 0.4716(5) 0.28156(6)
C14 C 0.42656(11) 0.3995(5) 0.31833(6)
H9 H 0.4677 0.2778 0.3177
C15 C 0.41187(10) 0.5084(5) 0.35590(6)
H10 H 0.4440 0.4655 0.3811
O2 O 0.46730(12) 1.2496(10) 0.47613(9)
H11 H 0.4235(12) 1.232(15) 0.4780(17)
H12 H 0.485(4) 1.378(16) 0.4964(18)
H13? H 0.487(4) 1.069(14) 0.4849(19)
loop_
_geom_bond_atom_site_label_1
_geom_bond_atom_site_label_2
_geom_bond_site_symmetry_1
_geom_bond_site_symmetry_2
Cl1 C13 1_555 1_555
O1 C1 1_555 1_555
N1 H1 1_555 1_555
C1 N1 1_555 1_555
C2 C1 1_555 1_555
C3 C2 1_555 1_555
C4 C3 1_555 1_555
H2 C4 1_555 1_555
C5 C4 1_555 1_555
H3 C5 1_555 1_555
C6 C5 1_555 1_555
H4 C6 1_555 1_555
C7 C6 1_555 1_555
H5 C7 1_555 1_555
C8 N1 1_555 1_555
C9 C2 1_555 1_555
H6 C9 1_555 1_555
C10 C9 1_555 1_555
C11 C10 1_555 1_555
H7 C11 1_555 1_555
C12 C11 1_555 1_555
H8 C12 1_555 1_555
C13 C12 1_555 1_555
C14 C13 1_555 1_555
H9 C14 1_555 1_555
C15 C10 1_555 1_555
H10 C15 1_555 1_555
O2 H11 1_555 1_555
H12 O2 1_555 1_555
C3 C8 1_555 1_555
C7 C8 1_555 1_555
C14 C15 1_555 1_555

#END
