
#######################################################################
#
#                 Cambridge Crystallographic Data Centre
#                                CCDC 
#
#######################################################################
#
# If this CIF has been generated from an entry in the Cambridge 
# Structural Database, then it will include bibliographic, chemical, 
# crystal, experimental, refinement or atomic coordinate data resulting 
# from the CCDC's data processing and validation procedures.
#
#######################################################################

data_KOMNOR
_chemical_formula_moiety         'C15 H10 Br1 N1 O1,H2 O1'
_chemical_name_systematic        
'3-(4-Bromobenzylidene)-1,3-dihydro-2H-indol-2-one hydrate'
_symmetry_cell_setting           monoclinic
_symmetry_space_group_name_H-M   'C 2/c'
_symmetry_Int_Tables_number      15
_space_group_name_Hall           '-C 2yn'
loop_
_symmetry_equiv_pos_site_id
_symmetry_equiv_pos_as_xyz
1 x,y,z
2 -x,y,1/2-z
3 1/2+x,1/2+y,z
4 1/2-x,1/2+y,1/2-z
5 -x,-y,-z
6 x,-y,1/2+z
7 1/2-x,1/2-y,-z
8 1/2+x,1/2-y,1/2+z
_cell_length_a                   19.623(3)
_cell_length_b                   4.0710(5)
_cell_length_c                   32.979(4)
_cell_angle_alpha                90
_cell_angle_beta                 101.698(3)
_cell_angle_gamma                90
_cell_volume                     2579.82
_exptl_crystal_colour            yellow
_exptl_crystal_description       block
_cell_formula_units_Z            8
loop_
_atom_site_label
_atom_site_type_symbol
_atom_site_fract_x
_atom_site_fract_y
_atom_site_fract_z
C1 C 0.2772(4) -0.5058(18) 0.45224(19)
C2 C 0.2785(3) -0.3241(18) 0.41294(18)
C3 C 0.2090(3) -0.1948(18) 0.39908(18)
C4 C 0.1755(4) 0.0036(17) 0.3660(2)
H1 H 0.2001 0.0754 0.3456
C5 C 0.1064(4) 0.0943(18) 0.3631(2)
H2 H 0.0843 0.2284 0.3407
C6 C 0.0691(4) -0.0081(18) 0.3926(2)
H3 H 0.0214 0.0506 0.3896
C7 C 0.1011(4) -0.1959(19) 0.42634(19)
H4 H 0.0767 -0.2591 0.4472
C8 C 0.1699(3) -0.2880(17) 0.42859(18)
C9 C 0.3395(4) -0.3067(18) 0.3994(2)
H5 H 0.3796 -0.3884 0.4177
C10 C 0.3502(4) -0.1743(18) 0.35931(19)
C11 C 0.3038(4) -0.2444(17) 0.3226(2)
H6 H 0.2627 -0.3657 0.3234
C12 C 0.3166(4) -0.1394(17) 0.28475(19)
H7 H 0.2848 -0.1874 0.2597
C13 C 0.3770(4) 0.0373(18) 0.2846(2)
C14 C 0.4252(4) 0.1064(17) 0.3205(2)
H8 H 0.4665 0.2253 0.3196
C15 C 0.4113(4) -0.0033(19) 0.3581(2)
H9 H 0.4438 0.0387 0.3830
N1 N 0.2114(3) -0.4745(15) 0.45969(16)
H10 H 0.1972 -0.5597 0.4811
O1 O 0.3249(3) -0.6563(13) 0.47459(13)
Br1 Br 0.39394(4) 0.18889(19) 0.23279(2)
O2 O 0.4678(4) -0.746(3) 0.4769(2)
H11 H 0.426(3) -0.79(4) 0.479(5)
H12 H 0.494(5) -0.89(5) 0.492(11)
H13? H 0.477(7) -0.557(17) 0.488(5)
loop_
_geom_bond_atom_site_label_1
_geom_bond_atom_site_label_2
_geom_bond_site_symmetry_1
_geom_bond_site_symmetry_2
C1 C2 1_555 1_555
C2 C3 1_555 1_555
C3 C4 1_555 1_555
C4 H1 1_555 1_555
C5 C4 1_555 1_555
H2 C5 1_555 1_555
C6 C5 1_555 1_555
H3 C6 1_555 1_555
C7 C6 1_555 1_555
H4 C7 1_555 1_555
C8 C3 1_555 1_555
C9 C2 1_555 1_555
H5 C9 1_555 1_555
C10 C9 1_555 1_555
C11 C10 1_555 1_555
H6 C11 1_555 1_555
C12 C11 1_555 1_555
H7 C12 1_555 1_555
C13 C12 1_555 1_555
C14 C13 1_555 1_555
H8 C14 1_555 1_555
C15 C10 1_555 1_555
H9 C15 1_555 1_555
N1 C1 1_555 1_555
H10 N1 1_555 1_555
O1 C1 1_555 1_555
Br1 C13 1_555 1_555
O2 H11 1_555 1_555
H12 O2 1_555 1_555
C7 C8 1_555 1_555
C8 N1 1_555 1_555
C14 C15 1_555 1_555

#END
