
#######################################################################
#
#                 Cambridge Crystallographic Data Centre
#                                CCDC 
#
#######################################################################
#
# If this CIF has been generated from an entry in the Cambridge 
# Structural Database, then it will include bibliographic, chemical, 
# crystal, experimental, refinement or atomic coordinate data resulting 
# from the CCDC's data processing and validation procedures.
#
#######################################################################

data_KOMQAF
_chemical_formula_moiety         'C14 H16 O4'
_chemical_name_systematic        
'3-Oxo-3,3a,4,5,7,8,10a,10b-octahydro-1H-cyclohepta[de]isochromene-4-carboxylic acid'
_symmetry_cell_setting           monoclinic
_symmetry_space_group_name_H-M   'P 21/c'
_symmetry_Int_Tables_number      14
_space_group_name_Hall           '-P 2ybc'
loop_
_symmetry_equiv_pos_site_id
_symmetry_equiv_pos_as_xyz
1 x,y,z
2 -x,1/2+y,1/2-z
3 -x,-y,-z
4 x,1/2-y,1/2+z
_cell_length_a                   5.2941(2)
_cell_length_b                   15.2652(6)
_cell_length_c                   14.5546(5)
_cell_angle_alpha                90
_cell_angle_beta                 90.399(2)
_cell_angle_gamma                90
_cell_volume                     1176.21
_exptl_crystal_colour            colorless
_exptl_crystal_description       needle
_chemical_melting_point          '80-82 deg.C'
_cell_formula_units_Z            4
_exptl_crystal_recrystallization_method 'diethyl ether'
loop_
_atom_site_label
_atom_site_type_symbol
_atom_site_fract_x
_atom_site_fract_y
_atom_site_fract_z
O1 O 0.12239(18) 0.32422(6) 0.67268(6)
O2 O -0.10911(18) 0.20985(6) 0.70924(7)
O3 O 0.04216(19) 0.52438(6) 0.60956(7)
O4 O -0.2433(2) 0.43153(7) 0.54977(7)
C1 C -0.0757(3) 0.29712(9) 0.70070(8)
C2 C -0.3025(3) 0.35302(9) 0.72280(9)
C3 C -0.2461(3) 0.45116(9) 0.71094(9)
C4 C -0.0899(3) 0.48914(9) 0.78968(10)
C5 C -0.1862(3) 0.46002(10) 0.88142(10)
C6 C -0.3286(3) 0.38969(9) 0.89530(9)
C7 C -0.4185(3) 0.33121(9) 0.81796(9)
C8 C -0.3754(3) 0.23342(9) 0.84180(10)
C9 C -0.3404(3) 0.18197(10) 0.75370(10)
C10 C -0.4062(3) 0.36239(11) 0.99102(10)
C11 C -0.6762(3) 0.32701(10) 0.99914(10)
C12 C -0.7150(3) 0.23518(10) 0.96324(10)
C13 C -0.5860(3) 0.19529(10) 0.89805(10)
C14 C -0.1306(3) 0.47177(9) 0.61890(10)
H1 H -0.167(4) 0.4473(15) 0.4960(17)
H2 H -0.429(3) 0.3372(10) 0.6759(10)
H3 H -0.413(3) 0.4804(10) 0.7108(11)
H4 H 0.084(3) 0.4721(11) 0.7824(11)
H5 H -0.095(3) 0.5508(13) 0.7855(12)
H6 H -0.136(3) 0.4969(12) 0.9353(13)
H7 H -0.599(3) 0.3389(10) 0.8097(10)
H8 H -0.218(3) 0.2289(10) 0.8724(11)
H9 H -0.313(3) 0.1203(13) 0.7672(12)
H10 H -0.484(3) 0.1906(12) 0.7124(12)
H11 H -0.389(3) 0.4154(12) 1.0311(12)
H12 H -0.280(3) 0.3152(12) 1.0128(12)
H13 H -0.729(3) 0.3268(11) 1.0648(13)
H14 H -0.797(3) 0.3692(13) 0.9681(12)
H15 H -0.850(3) 0.2015(12) 0.9949(12)
H16 H -0.633(4) 0.1334(14) 0.8823(13)
loop_
_geom_bond_atom_site_label_1
_geom_bond_atom_site_label_2
_geom_bond_site_symmetry_1
_geom_bond_site_symmetry_2
O1 C1 1_555 1_555
O2 C1 1_555 1_555
O3 C14 1_555 1_555
O4 C14 1_555 1_555
C1 C2 1_555 1_555
C2 C3 1_555 1_555
C3 C4 1_555 1_555
C4 C5 1_555 1_555
C5 C6 1_555 1_555
C6 C7 1_555 1_555
C7 C2 1_555 1_555
C8 C7 1_555 1_555
C9 O2 1_555 1_555
C10 C6 1_555 1_555
C11 C10 1_555 1_555
C12 C11 1_555 1_555
C13 C8 1_555 1_555
C14 C3 1_555 1_555
H1 O4 1_555 1_555
H2 C2 1_555 1_555
H3 C3 1_555 1_555
H4 C4 1_555 1_555
H5 C4 1_555 1_555
H6 C5 1_555 1_555
H7 C7 1_555 1_555
H8 C8 1_555 1_555
H9 C9 1_555 1_555
H10 C9 1_555 1_555
H11 C10 1_555 1_555
H12 C10 1_555 1_555
H13 C11 1_555 1_555
H14 C11 1_555 1_555
H15 C12 1_555 1_555
H16 C13 1_555 1_555
C8 C9 1_555 1_555
C12 C13 1_555 1_555

#END
