
#######################################################################
#
#                 Cambridge Crystallographic Data Centre
#                                CCDC 
#
#######################################################################
#
# If this CIF has been generated from an entry in the Cambridge 
# Structural Database, then it will include bibliographic, chemical, 
# crystal, experimental, refinement or atomic coordinate data resulting 
# from the CCDC's data processing and validation procedures.
#
#######################################################################

data_KOMROT
_chemical_formula_moiety         'C15 H16 O2 Si1'
_chemical_name_systematic        (+-)-Diphenyl(1-hydroxyprop-2-enyl)silanol
_symmetry_cell_setting           orthorhombic
_symmetry_space_group_name_H-M   'P b c a'
_symmetry_Int_Tables_number      61
_space_group_name_Hall           '-P 2ac 2ab'
loop_
_symmetry_equiv_pos_site_id
_symmetry_equiv_pos_as_xyz
1 x,y,z
2 1/2-x,1/2+y,z
3 x,1/2-y,1/2+z
4 1/2-x,-y,1/2+z
5 -x,-y,-z
6 1/2+x,1/2-y,-z
7 -x,1/2+y,1/2-z
8 1/2+x,y,1/2-z
_cell_length_a                   6.132(2)
_cell_length_b                   20.191(6)
_cell_length_c                   22.782(6)
_cell_angle_alpha                90
_cell_angle_beta                 90
_cell_angle_gamma                90
_cell_volume                     2820.67
_exptl_crystal_colour            white
_chemical_melting_point          98-99deg.C
_cell_formula_units_Z            8
loop_
_atom_site_label
_atom_site_type_symbol
_atom_site_fract_x
_atom_site_fract_y
_atom_site_fract_z
Si1 Si 0.1847(1) 0.9033(1) 0.3571(1)
O1 O -0.2199(4) 0.8919(1) 0.3089(1)
O2 O 0.3384(4) 0.8720(1) 0.3057(1)
C1 C -0.0974(5) 0.8650(2) 0.3570(2)
C2 C -0.0901(6) 0.7915(2) 0.3565(2)
C3 C -0.1546(8) 0.7529(3) 0.3133(3)
C4 C 0.1613(6) 0.9948(2) 0.3485(2)
C5 C 0.3059(8) 1.0290(2) 0.3130(2)
C6 C 0.2860(10) 1.0964(2) 0.3055(2)
C7 C 0.1318(10) 1.1314(3) 0.3331(2)
C8 C -0.0118(9) 1.0996(3) 0.3685(2)
C9 C 0.0017(8) 1.0318(2) 0.3759(2)
C10 C 0.3277(5) 0.8783(2) 0.4260(1)
C11 C 0.4233(6) 0.8165(2) 0.4299(2)
C12 C 0.5405(7) 0.7966(3) 0.4784(2)
C13 C 0.5655(8) 0.8392(3) 0.5243(2)
C14 C 0.4734(10) 0.9004(3) 0.5224(2)
C15 C 0.3534(7) 0.9200(2) 0.4738(2)
H1 H 0.3208(82) 0.8779(22) 0.2737(17)
H2 H -0.3465(73) 0.8810(22) 0.3129(19)
H3 H -0.1632(64) 0.8797(20) 0.3940(17)
H4 H -0.0343(74) 0.7730(20) 0.3903(18)
H5 H -0.1390(70) 0.7062(21) 0.3204(17)
H6 H -0.2296(74) 0.7747(20) 0.2758(17)
H7 H 0.4155(70) 1.0064(21) 0.2974(19)
H8 H 0.3856(72) 1.1179(21) 0.2824(18)
H9 H 0.1169(71) 1.1787(22) 0.3277(17)
H10 H -0.1150(72) 1.1205(22) 0.3855(19)
H11 H -0.0939(70) 1.0075(20) 0.4009(18)
H12 H 0.4091(72) 0.7886(20) 0.3980(18)
H13 H 0.6056(66) 0.7514(20) 0.4788(17)
H14 H 0.6392(69) 0.8278(20) 0.5571(19)
H15 H 0.4798(77) 0.9295(21) 0.5484(19)
H16 H 0.2895(72) 0.9599(20) 0.4703(18)
loop_
_geom_bond_atom_site_label_1
_geom_bond_atom_site_label_2
_geom_bond_site_symmetry_1
_geom_bond_site_symmetry_2
Si1 O2 1_555 1_555
O1 C1 1_555 1_555
O2 H1 1_555 1_555
C1 Si1 1_555 1_555
C2 C1 1_555 1_555
C3 C2 1_555 1_555
C4 Si1 1_555 1_555
C5 C4 1_555 1_555
C6 C5 1_555 1_555
C7 C6 1_555 1_555
C8 C7 1_555 1_555
C9 C4 1_555 1_555
C10 Si1 1_555 1_555
C11 C10 1_555 1_555
C12 C11 1_555 1_555
C13 C12 1_555 1_555
C14 C13 1_555 1_555
C15 C10 1_555 1_555
H2 O1 1_555 1_555
H3 C1 1_555 1_555
H4 C2 1_555 1_555
H5 C3 1_555 1_555
H6 C3 1_555 1_555
H7 C5 1_555 1_555
H8 C6 1_555 1_555
H9 C7 1_555 1_555
H10 C8 1_555 1_555
H11 C9 1_555 1_555
H12 C11 1_555 1_555
H13 C12 1_555 1_555
H14 C13 1_555 1_555
H15 C14 1_555 1_555
H16 C15 1_555 1_555
C8 C9 1_555 1_555
C14 C15 1_555 1_555

#END
