
#######################################################################
#
#                 Cambridge Crystallographic Data Centre
#                                CCDC 
#
#######################################################################
#
# If this CIF has been generated from an entry in the Cambridge 
# Structural Database, then it will include bibliographic, chemical, 
# crystal, experimental, refinement or atomic coordinate data resulting 
# from the CCDC's data processing and validation procedures.
#
#######################################################################

data_KOMRIO
_chemical_name_common            carbazole
_chemical_formula_moiety         'C27 H26 N2 O1'
_chemical_name_systematic        
3-(2-(9-Ethyl-9H-carbazol-3-yl)-6-methyl-3-quinolyl)propan-1-ol
_symmetry_cell_setting           monoclinic
_symmetry_space_group_name_H-M   'P 21/c'
_symmetry_Int_Tables_number      14
_space_group_name_Hall           '-P 2ybc'
loop_
_symmetry_equiv_pos_site_id
_symmetry_equiv_pos_as_xyz
1 x,y,z
2 -x,1/2+y,1/2-z
3 -x,-y,-z
4 x,1/2-y,1/2+z
_cell_length_a                   13.6417(5)
_cell_length_b                   9.8599(3)
_cell_length_c                   16.3208(5)
_cell_angle_alpha                90
_cell_angle_beta                 109.658(2)
_cell_angle_gamma                90
_cell_volume                     2067.3
_exptl_crystal_colour            colorless
_exptl_crystal_description       Block
_cell_formula_units_Z            4
_exptl_crystal_recrystallization_method 'ethyl acetate'
loop_
_atom_site_label
_atom_site_type_symbol
_atom_site_fract_x
_atom_site_fract_y
_atom_site_fract_z
C1 C 0.93457(15) 1.0043(2) 0.38448(12)
C2 C 1.02298(17) 1.0150(3) 0.36015(14)
C3 C 1.0529(2) 0.9032(3) 0.32531(16)
C4 C 0.9975(2) 0.7822(3) 0.31265(16)
C5 C 0.90952(18) 0.7707(2) 0.33655(14)
C6 C 0.87763(14) 0.8820(2) 0.37340(11)
C7 C 0.79523(13) 0.90547(18) 0.40869(11)
C8 C 0.71771(14) 0.82534(18) 0.42123(12)
C9 C 0.65428(13) 0.87827(17) 0.46436(12)
C10 C 0.66606(15) 1.01400(19) 0.49038(14)
C11 C 0.74047(15) 1.09668(19) 0.47741(14)
C12 C 0.80606(14) 1.04043(19) 0.43802(12)
C13 C 0.92173(18) 1.2385(2) 0.44090(15)
H1 H 0.9950 1.2464 0.4479
H2 H 0.9135 1.2646 0.4955
C14 C 0.8608(2) 1.3349(3) 0.37111(17)
H3 H 0.8850 1.4257 0.3870
H4 H 0.7883 1.3291 0.3646
H5 H 0.8701 1.3114 0.3171
C15 C 0.57097(13) 0.79261(17) 0.47778(11)
C16 C 0.57191(13) 0.75609(17) 0.56270(11)
C17 C 0.49310(14) 0.67525(18) 0.56791(11)
C18 C 0.41231(13) 0.63336(16) 0.49268(11)
C19 C 0.41835(13) 0.67418(17) 0.41187(11)
C20 C 0.33782(17) 0.6347(2) 0.33508(13)
C21 C 0.25614(17) 0.5612(2) 0.33960(15)
C22 C 0.24826(15) 0.52069(19) 0.42029(14)
C23 C 0.32661(15) 0.55485(18) 0.49506(13)
C24 C 0.15449(18) 0.4418(2) 0.42195(18)
H6 H 0.1392 0.4643 0.4736
H7 H 0.1686 0.3464 0.4217
H8 H 0.0959 0.4643 0.3716
C25 C 0.65808(16) 0.7989(2) 0.64488(13)
H9 H 0.7222 0.8040 0.6317
H10 H 0.6669 0.7274 0.6876
C26 C 0.6451(2) 0.9318(3) 0.68702(16)
H11 H 0.7073 0.9479 0.7368
H12 H 0.6398 1.0046 0.6457
C27 C 0.5535(2) 0.9385(3) 0.71641(16)
H13 H 0.4904 0.9212 0.6677
H14 H 0.5594 0.8698 0.7604
N1 N 0.89013(12) 1.09912(16) 0.42253(11)
N2 N 0.49803(12) 0.75259(15) 0.40562(9)
O1 O 0.5485(2) 1.0718(2) 0.75206(12)
H15 H 0.5430 1.1294 0.7145
H16 H 0.8714(18) 0.687(3) 0.3262(15)
H17 H 0.7093(18) 0.729(2) 0.4023(15)
H18 H 0.7485(17) 1.189(3) 0.4958(14)
H19 H 0.3214(17) 0.525(2) 0.5550(15)
H20 H 1.061(2) 1.098(3) 0.3724(15)
H21 H 1.025(2) 0.702(3) 0.2924(18)
H22 H 0.621(2) 1.054(2) 0.5176(15)
H23 H 0.4891(16) 0.649(2) 0.6239(14)
H24 H 1.116(2) 0.910(3) 0.309(2)
H25 H 0.342(2) 0.653(3) 0.2771(19)
H26 H 0.196(2) 0.546(3) 0.2859(17)
loop_
_geom_bond_atom_site_label_1
_geom_bond_atom_site_label_2
_geom_bond_site_symmetry_1
_geom_bond_site_symmetry_2
C1 C2 1_555 1_555
C2 C3 1_555 1_555
C3 C4 1_555 1_555
C4 C5 1_555 1_555
C5 C6 1_555 1_555
C6 C1 1_555 1_555
C7 C6 1_555 1_555
C8 C7 1_555 1_555
C9 C8 1_555 1_555
C10 C9 1_555 1_555
C11 C10 1_555 1_555
C12 C7 1_555 1_555
C13 H1 1_555 1_555
H2 C13 1_555 1_555
C14 C13 1_555 1_555
H3 C14 1_555 1_555
H4 C14 1_555 1_555
H5 C14 1_555 1_555
C15 C9 1_555 1_555
C16 C15 1_555 1_555
C17 C16 1_555 1_555
C18 C17 1_555 1_555
C19 C18 1_555 1_555
C20 C19 1_555 1_555
C21 C20 1_555 1_555
C22 C21 1_555 1_555
C23 C18 1_555 1_555
C24 C22 1_555 1_555
H6 C24 1_555 1_555
H7 C24 1_555 1_555
H8 C24 1_555 1_555
C25 C16 1_555 1_555
H9 C25 1_555 1_555
H10 C25 1_555 1_555
C26 C25 1_555 1_555
H11 C26 1_555 1_555
H12 C26 1_555 1_555
C27 C26 1_555 1_555
H13 C27 1_555 1_555
H14 C27 1_555 1_555
N1 C1 1_555 1_555
N2 C15 1_555 1_555
O1 C27 1_555 1_555
H15 O1 1_555 1_555
H16 C5 1_555 1_555
H17 C8 1_555 1_555
H18 C11 1_555 1_555
H19 C23 1_555 1_555
H20 C2 1_555 1_555
H21 C4 1_555 1_555
H22 C10 1_555 1_555
H23 C17 1_555 1_555
H24 C3 1_555 1_555
H25 C20 1_555 1_555
H26 C21 1_555 1_555
C11 C12 1_555 1_555
C12 N1 1_555 1_555
C13 N1 1_555 1_555
C19 N2 1_555 1_555
C22 C23 1_555 1_555

#END
