
#######################################################################
#
#                 Cambridge Crystallographic Data Centre
#                                CCDC 
#
#######################################################################
#
# If this CIF has been generated from an entry in the Cambridge 
# Structural Database, then it will include bibliographic, chemical, 
# crystal, experimental, refinement or atomic coordinate data resulting 
# from the CCDC's data processing and validation procedures.
#
#######################################################################

data_KOMSEM
_chemical_formula_moiety         'C20 H20 N2'
_chemical_name_systematic        
2-benzyl-1-phenyl-1,2,3,4-tetrahydropyrrolo[1,2-a]pyrazine
_symmetry_cell_setting           orthorhombic
_symmetry_space_group_name_H-M   'P 21 21 21'
_symmetry_Int_Tables_number      19
_space_group_name_Hall           'P 2ac 2ab'
loop_
_symmetry_equiv_pos_site_id
_symmetry_equiv_pos_as_xyz
1 x,y,z
2 1/2+x,1/2-y,-z
3 -x,1/2+y,1/2-z
4 1/2-x,-y,1/2+z
_cell_length_a                   5.5121(3)
_cell_length_b                   14.4902(5)
_cell_length_c                   19.8662(9)
_cell_angle_alpha                90
_cell_angle_beta                 90
_cell_angle_gamma                90
_cell_volume                     1586.74
_exptl_crystal_colour            colorless
_exptl_crystal_description       prism
_cell_formula_units_Z            4
loop_
_atom_site_label
_atom_site_type_symbol
_atom_site_fract_x
_atom_site_fract_y
_atom_site_fract_z
N1 N 0.7874(7) 0.10244(18) 0.31678(15)
N2 N 0.4978(8) 0.1303(2) 0.20400(15)
C1 C 0.7859(9) 0.1970(2) 0.28778(18)
H1 H 0.9410 0.2063 0.2625
C2 C 0.5773(9) 0.2060(2) 0.23858(17)
C3 C 0.4586(10) 0.2815(2) 0.21512(19)
H2 H 0.4803 0.3433 0.2300
C4 C 0.2970(11) 0.2514(3) 0.1646(2)
H3 H 0.1900 0.2891 0.1391
C5 C 0.3230(11) 0.1579(3) 0.15915(19)
H4 H 0.2353 0.1188 0.1295
C6 C 0.5613(10) 0.0360(2) 0.22212(18)
H5 H 0.5783 -0.0018 0.1809
H6 H 0.4308 0.0088 0.2500
C7 C 0.7973(9) 0.0355(2) 0.26093(19)
H7 H 0.8277 -0.0270 0.2791
H8 H 0.9327 0.0516 0.2304
C8 C 1.0066(9) 0.0916(2) 0.35896(19)
H9 H 1.0197 0.1452 0.3897
H10 H 1.1517 0.0916 0.3296
C9 C 1.0039(9) 0.0039(2) 0.40011(17)
C10 C 0.8171(10) -0.0132(3) 0.4457(2)
H11 H 0.6818 0.0273 0.4480
C11 C 0.8290(11) -0.0897(3) 0.4877(2)
H12 H 0.7033 -0.1006 0.5195
C12 C 1.0233(11) -0.1503(3) 0.4837(2)
H13 H 1.0312 -0.2024 0.5126
C13 C 1.2043(11) -0.1344(3) 0.4375(2)
H14 H 1.3369 -0.1760 0.4340
C14 C 1.1930(10) -0.0573(3) 0.3959(2)
H15 H 1.3186 -0.0469 0.3641
C15 C 0.7707(9) 0.2702(2) 0.34280(18)
C16 C 0.5820(10) 0.2692(3) 0.3894(2)
H16 H 0.4596 0.2232 0.3868
C17 C 0.5734(10) 0.3357(3) 0.4399(2)
H17 H 0.4477 0.3334 0.4726
C18 C 0.7431(10) 0.4041(3) 0.4432(2)
H18 H 0.7322 0.4505 0.4769
C19 C 0.9324(10) 0.4055(3) 0.3968(2)
H19 H 1.0549 0.4515 0.3994
C20 C 0.9396(10) 0.3387(2) 0.3466(2)
H20 H 1.0657 0.3408 0.3140
loop_
_geom_bond_atom_site_label_1
_geom_bond_atom_site_label_2
_geom_bond_site_symmetry_1
_geom_bond_site_symmetry_2
N1 C1 1_555 1_555
N2 C2 1_555 1_555
C1 H1 1_555 1_555
C2 C1 1_555 1_555
C3 C2 1_555 1_555
H2 C3 1_555 1_555
C4 C3 1_555 1_555
H3 C4 1_555 1_555
C5 N2 1_555 1_555
H4 C5 1_555 1_555
C6 N2 1_555 1_555
H5 C6 1_555 1_555
H6 C6 1_555 1_555
C7 N1 1_555 1_555
H7 C7 1_555 1_555
H8 C7 1_555 1_555
C8 N1 1_555 1_555
H9 C8 1_555 1_555
H10 C8 1_555 1_555
C9 C8 1_555 1_555
C10 C9 1_555 1_555
H11 C10 1_555 1_555
C11 C10 1_555 1_555
H12 C11 1_555 1_555
C12 C11 1_555 1_555
H13 C12 1_555 1_555
C13 C12 1_555 1_555
H14 C13 1_555 1_555
C14 C9 1_555 1_555
H15 C14 1_555 1_555
C15 C1 1_555 1_555
C16 C15 1_555 1_555
H16 C16 1_555 1_555
C17 C16 1_555 1_555
H17 C17 1_555 1_555
C18 C17 1_555 1_555
H18 C18 1_555 1_555
C19 C18 1_555 1_555
H19 C19 1_555 1_555
C20 C15 1_555 1_555
H20 C20 1_555 1_555
C4 C5 1_555 1_555
C6 C7 1_555 1_555
C13 C14 1_555 1_555
C19 C20 1_555 1_555

#END
