
#######################################################################
#
#                 Cambridge Crystallographic Data Centre
#                                CCDC 
#
#######################################################################
#
# If this CIF has been generated from an entry in the Cambridge 
# Structural Database, then it will include bibliographic, chemical, 
# crystal, experimental, refinement or atomic coordinate data resulting 
# from the CCDC's data processing and validation procedures.
#
#######################################################################

data_KOMSUB02
_chemical_formula_moiety         'C19 H15 N1 O1'
_chemical_name_systematic        4-(diphenylamino)benzaldehyde
_symmetry_cell_setting           monoclinic
_symmetry_space_group_name_H-M   'P 21/c'
_symmetry_Int_Tables_number      14
_space_group_name_Hall           '-P 2ybc'
loop_
_symmetry_equiv_pos_site_id
_symmetry_equiv_pos_as_xyz
1 x,y,z
2 -x,1/2+y,1/2-z
3 -x,-y,-z
4 x,1/2-y,1/2+z
_cell_length_a                   12.070(5)
_cell_length_b                   11.426(5)
_cell_length_c                   10.930(5)
_cell_angle_alpha                90
_cell_angle_beta                 102.079(5)
_cell_angle_gamma                90
_cell_volume                     1474
_exptl_crystal_colour            blue
_exptl_crystal_description       block
_cell_formula_units_Z            4
loop_
_atom_site_label
_atom_site_type_symbol
_atom_site_fract_x
_atom_site_fract_y
_atom_site_fract_z
N1 N 0.68932(10) 0.25959(10) 0.45268(12)
C1 C 0.71589(11) 0.14333(11) 0.49708(13)
C2 C 0.75937(11) 0.35293(12) 0.50175(13)
C3 C 0.58222(11) 0.27941(12) 0.37238(13)
C4 C 0.63985(13) 0.07908(14) 0.54744(14)
H1 H 0.5705 0.1115 0.5533
O1 O 0.98456(11) 0.72770(11) 0.60157(15)
C5 C 0.90102(12) 0.53935(12) 0.59768(15)
C6 C 0.66655(14) -0.03355(14) 0.58926(15)
H2 H 0.6147 -0.0768 0.6227
C7 C 0.83190(12) 0.54629(13) 0.47972(16)
H3 H 0.8325 0.6138 0.4323
C8 C 0.82860(12) 0.34618(13) 0.61990(14)
H4 H 0.8278 0.2794 0.6683
C9 C 0.89841(13) 0.43795(13) 0.66563(15)
H5 H 0.9452 0.4316 0.7446
C10 C 0.76867(14) -0.08222(14) 0.58203(15)
H6 H 0.7865 -0.1579 0.6110
C11 C 0.84396(13) -0.01863(13) 0.53196(16)
H7 H 0.9134 -0.0514 0.5269
C12 C 0.51145(13) 0.36579(14) 0.39938(16)
H8 H 0.5351 0.4131 0.4692
C13 C 0.81848(12) 0.09365(13) 0.48865(15)
H9 H 0.8702 0.1358 0.4539
C14 C 0.76244(12) 0.45483(13) 0.43179(14)
H10 H 0.7170 0.4607 0.3520
C15 C 0.54630(14) 0.21010(15) 0.26905(14)
H11 H 0.5930 0.1514 0.2493
C16 C 0.97680(15) 0.63473(15) 0.6494(2)
H12 H 1.0237 0.6220 0.7273
C17 C 0.43960(16) 0.2285(2) 0.19427(15)
H13 H 0.4151 0.1817 0.1242
C18 C 0.37015(15) 0.31451(19) 0.22236(18)
H14 H 0.2987 0.3260 0.1720
C19 C 0.40642(14) 0.38290(17) 0.32438(19)
H15 H 0.3597 0.4418 0.3436
loop_
_geom_bond_atom_site_label_1
_geom_bond_atom_site_label_2
_geom_bond_site_symmetry_1
_geom_bond_site_symmetry_2
N1 C1 1_555 1_555
C1 C4 1_555 1_555
C2 N1 1_555 1_555
C3 N1 1_555 1_555
C4 H1 1_555 1_555
O1 C16 1_555 1_555
C5 C7 1_555 1_555
C6 C4 1_555 1_555
H2 C6 1_555 1_555
C7 H3 1_555 1_555
C8 C2 1_555 1_555
H4 C8 1_555 1_555
C9 C5 1_555 1_555
H5 C9 1_555 1_555
C10 C6 1_555 1_555
H6 C10 1_555 1_555
C11 C10 1_555 1_555
H7 C11 1_555 1_555
C12 C3 1_555 1_555
H8 C12 1_555 1_555
C13 C1 1_555 1_555
H9 C13 1_555 1_555
C14 C2 1_555 1_555
H10 C14 1_555 1_555
C15 C3 1_555 1_555
H11 C15 1_555 1_555
C16 C5 1_555 1_555
H12 C16 1_555 1_555
C17 C15 1_555 1_555
H13 C17 1_555 1_555
C18 C17 1_555 1_555
H14 C18 1_555 1_555
C19 C12 1_555 1_555
H15 C19 1_555 1_555
C7 C14 1_555 1_555
C8 C9 1_555 1_555
C11 C13 1_555 1_555
C18 C19 1_555 1_555

#END
