
#######################################################################
#
#                 Cambridge Crystallographic Data Centre
#                                CCDC 
#
#######################################################################
#
# If this CIF has been generated from an entry in the Cambridge 
# Structural Database, then it will include bibliographic, chemical, 
# crystal, experimental, refinement or atomic coordinate data resulting 
# from the CCDC's data processing and validation procedures.
#
#######################################################################

data_KOMSUB
_chemical_formula_moiety         'C19 H15 N1 O1'
_chemical_name_systematic        4-(Diphenylamino)benzaldehyde
_symmetry_cell_setting           monoclinic
_symmetry_space_group_name_H-M   'P 21/c'
_symmetry_Int_Tables_number      14
_space_group_name_Hall           '-P 2ybc'
loop_
_symmetry_equiv_pos_site_id
_symmetry_equiv_pos_as_xyz
1 x,y,z
2 -x,1/2+y,1/2-z
3 -x,-y,-z
4 x,1/2-y,1/2+z
_cell_length_a                   12.1188(8)
_cell_length_b                   11.4342(8)
_cell_length_c                   10.9560(7)
_cell_angle_alpha                90
_cell_angle_beta                 102.082(2)
_cell_angle_gamma                90
_cell_volume                     1484.53
_exptl_crystal_colour            colorless
_exptl_crystal_description       needle
_cell_formula_units_Z            4
_exptl_crystal_recrystallization_method chloroform
loop_
_atom_site_label
_atom_site_type_symbol
_atom_site_fract_x
_atom_site_fract_y
_atom_site_fract_z
C1 C 0.7834(2) 0.14287(18) 0.0025(2)
C2 C 0.6819(2) 0.09360(19) 0.0112(3)
H1 H 0.6307 0.1360 0.0460
C3 C 0.6555(2) -0.0192(2) -0.0318(3)
H2 H 0.5864 -0.0520 -0.0266
C4 C 0.7312(3) -0.0821(2) -0.0817(3)
H3 H 0.7136 -0.1578 -0.1102
C5 C 0.8329(3) -0.0340(2) -0.0896(3)
H4 H 0.8841 -0.0771 -0.1238
C6 C 0.8601(2) 0.0793(2) -0.0468(2)
H5 H 0.9295 0.1116 -0.0514
C7 C 0.9178(2) 0.27936(18) 0.1276(2)
C8 C 0.9540(2) 0.2101(2) 0.2309(3)
H6 H 0.9076 0.1514 0.2505
C9 C 1.0605(3) 0.2283(3) 0.3059(3)
H7 H 1.0850 0.1817 0.3759
C10 C 1.1294(3) 0.3147(3) 0.2769(3)
H8 H 1.2007 0.3263 0.3267
C11 C 1.0929(3) 0.3832(2) 0.1750(3)
H9 H 1.1392 0.4421 0.1555
C12 C 0.9878(2) 0.3656(2) 0.1008(3)
H10 H 0.9638 0.4128 0.0312
C13 C 0.7402(2) 0.35282(17) -0.0019(2)
C14 C 0.6713(2) 0.34636(19) -0.1196(3)
H11 H 0.6724 0.2797 -0.1679
C15 C 0.6009(2) 0.43842(19) -0.1657(3)
H12 H 0.5539 0.4320 -0.2442
C16 C 0.5989(2) 0.53936(19) -0.0979(3)
C17 C 0.6677(2) 0.5467(2) 0.0200(3)
H13 H 0.6668 0.6142 0.0673
C18 C 0.7375(2) 0.45501(19) 0.0682(3)
H14 H 0.7830 0.4610 0.1476
C19 C 0.5231(2) 0.6343(2) -0.1488(3)
H15 H 0.4757 0.6210 -0.2260
N1 N 0.81100(18) 0.25939(15) 0.0479(2)
O1 O 0.51528(17) 0.72793(15) -0.1018(2)
loop_
_geom_bond_atom_site_label_1
_geom_bond_atom_site_label_2
_geom_bond_site_symmetry_1
_geom_bond_site_symmetry_2
C1 C2 1_555 1_555
C2 H1 1_555 1_555
C3 C2 1_555 1_555
H2 C3 1_555 1_555
C4 C3 1_555 1_555
H3 C4 1_555 1_555
C5 C4 1_555 1_555
H4 C5 1_555 1_555
C6 C1 1_555 1_555
H5 C6 1_555 1_555
C7 C8 1_555 1_555
C8 H6 1_555 1_555
C9 C8 1_555 1_555
H7 C9 1_555 1_555
C10 C9 1_555 1_555
H8 C10 1_555 1_555
C11 C10 1_555 1_555
H9 C11 1_555 1_555
C12 C7 1_555 1_555
H10 C12 1_555 1_555
C13 C14 1_555 1_555
C14 H11 1_555 1_555
C15 C14 1_555 1_555
H12 C15 1_555 1_555
C16 C15 1_555 1_555
C17 C16 1_555 1_555
H13 C17 1_555 1_555
C18 C13 1_555 1_555
H14 C18 1_555 1_555
C19 C16 1_555 1_555
H15 C19 1_555 1_555
N1 C1 1_555 1_555
O1 C19 1_555 1_555
C5 C6 1_555 1_555
C7 N1 1_555 1_555
C11 C12 1_555 1_555
C13 N1 1_555 1_555
C17 C18 1_555 1_555

#END
