
#######################################################################
#
#                 Cambridge Crystallographic Data Centre
#                                CCDC 
#
#######################################################################
#
# If this CIF has been generated from an entry in the Cambridge 
# Structural Database, then it will include bibliographic, chemical, 
# crystal, experimental, refinement or atomic coordinate data resulting 
# from the CCDC's data processing and validation procedures.
#
#######################################################################

data_KOMTAJ
_chemical_formula_moiety         'C27 H17 Cl1 N2 O1'
_chemical_name_systematic        
2-(4-chlorobenzoyl)-1-(4-methylphenyl)pyrrolo[1,2-a]quinoline-3-carbonitrile
_symmetry_cell_setting           triclinic
_symmetry_space_group_name_H-M   'P -1'
_symmetry_Int_Tables_number      2
_space_group_name_Hall           '-P 1'
loop_
_symmetry_equiv_pos_site_id
_symmetry_equiv_pos_as_xyz
1 x,y,z
2 -x,-y,-z
_cell_length_a                   10.4826(16)
_cell_length_b                   10.6458(17)
_cell_length_c                   10.9600(15)
_cell_angle_alpha                71.680(5)
_cell_angle_beta                 73.572(4)
_cell_angle_gamma                67.431(5)
_cell_volume                     1053.67
_exptl_crystal_colour            white
_exptl_crystal_description       block
_cell_formula_units_Z            2
loop_
_atom_site_label
_atom_site_type_symbol
_atom_site_fract_x
_atom_site_fract_y
_atom_site_fract_z
C1 C 0.6547(2) 0.1443(2) 0.78818(19)
H1 H 0.5669 0.2083 0.7752
C2 C 0.6862(2) 0.0947(2) 0.9121(2)
H2 H 0.6211 0.1269 0.9823
Cl1 Cl 0.85296(8) -0.06926(8) 1.08713(6)
C3 C 0.8835(2) 0.0028(2) 0.7035(2)
H3 H 0.9508 -0.0266 0.6331
O1 O 0.81923(14) 0.16820(16) 0.45360(14)
C4 C 0.6905(2) 0.5650(2) 0.2382(2)
H4 H 0.7241 0.6264 0.2541
C5 C 0.1414(2) 0.2137(2) 0.4997(2)
H5 H 0.0658 0.1836 0.5100
C6 C 0.2428(2) 0.1363(2) 0.57003(19)
H6 H 0.2340 0.0567 0.6338
C7 C 0.5099(2) -0.0108(2) 0.69891(19)
N1 N 0.5282(2) -0.1131(2) 0.77769(18)
C8 C 0.2653(2) 0.3858(2) 0.38589(18)
C9 C 0.51561(19) 0.2957(2) 0.43160(18)
C10 C 0.7248(2) 0.1543(2) 0.54645(19)
C11 C 0.75351(19) 0.0991(2) 0.68250(18)
C12 C 0.8146(2) -0.0026(2) 0.9303(2)
C13 C 0.9138(2) -0.0497(2) 0.8275(2)
H7 H 1.0003 -0.1162 0.8417
C14 C 0.57821(19) 0.3890(2) 0.32206(18)
C15 C 0.63039(19) 0.4803(2) 0.3424(2)
H8 H 0.6249 0.4847 0.4273
C16 C 0.6504(3) 0.4688(3) 0.0912(2)
H9 H 0.6568 0.4642 0.0063
C17 C 0.0353(2) 0.4325(3) 0.3475(2)
H10 H -0.0420 0.4044 0.3589
C18 C 0.0362(3) 0.5615(3) 0.2710(3)
H11 H -0.0391 0.6197 0.2296
C19 C 0.1487(3) 0.6051(3) 0.2555(2)
H12 H 0.1474 0.6942 0.2058
C20 C 0.2634(2) 0.5182(2) 0.3127(2)
H13 H 0.3389 0.5485 0.3020
N2 N 0.38006(16) 0.29107(16) 0.44782(14)
C21 C 0.57930(19) 0.1899(2) 0.52807(18)
C22 C 0.7020(2) 0.5610(2) 0.1110(2)
C23 C 0.5898(3) 0.3838(3) 0.1943(2)
H14 H 0.5564 0.3224 0.1782
C24 C 0.7669(3) 0.6545(3) -0.0033(3)
H15 H 0.7256 0.7491 0.0065
H16 H 0.7500 0.6495 -0.0830
H17 H 0.8663 0.6242 -0.0060
C25 C 0.1486(2) 0.3421(2) 0.4088(2)
C26 C 0.3638(2) 0.1760(2) 0.54697(17)
C27 C 0.4848(2) 0.1147(2) 0.60040(18)
loop_
_geom_bond_atom_site_label_1
_geom_bond_atom_site_label_2
_geom_bond_site_symmetry_1
_geom_bond_site_symmetry_2
C1 H1 1_555 1_555
C2 C1 1_555 1_555
H2 C2 1_555 1_555
Cl1 C12 1_555 1_555
C3 H3 1_555 1_555
O1 C10 1_555 1_555
C4 H4 1_555 1_555
C5 H5 1_555 1_555
C6 C5 1_555 1_555
H6 C6 1_555 1_555
C7 N1 1_555 1_555
C8 C20 1_555 1_555
C9 C14 1_555 1_555
C10 C11 1_555 1_555
C11 C1 1_555 1_555
C12 C2 1_555 1_555
C13 C3 1_555 1_555
H7 C13 1_555 1_555
C14 C15 1_555 1_555
C15 C4 1_555 1_555
H8 C15 1_555 1_555
C16 H9 1_555 1_555
C17 H10 1_555 1_555
C18 C17 1_555 1_555
H11 C18 1_555 1_555
C19 C18 1_555 1_555
H12 C19 1_555 1_555
C20 C19 1_555 1_555
H13 C20 1_555 1_555
N2 C8 1_555 1_555
C21 C9 1_555 1_555
C22 C4 1_555 1_555
C23 C14 1_555 1_555
H14 C23 1_555 1_555
C24 C22 1_555 1_555
H15 C24 1_555 1_555
H16 C24 1_555 1_555
H17 C24 1_555 1_555
C25 C5 1_555 1_555
C26 C6 1_555 1_555
C27 C7 1_555 1_555
C3 C11 1_555 1_555
C8 C25 1_555 1_555
C9 N2 1_555 1_555
C10 C21 1_555 1_555
C12 C13 1_555 1_555
C16 C22 1_555 1_555
C16 C23 1_555 1_555
C17 C25 1_555 1_555
N2 C26 1_555 1_555
C21 C27 1_555 1_555
C26 C27 1_555 1_555

#END
