
#######################################################################
#
#                 Cambridge Crystallographic Data Centre
#                                CCDC 
#
#######################################################################
#
# If this CIF has been generated from an entry in the Cambridge 
# Structural Database, then it will include bibliographic, chemical, 
# crystal, experimental, refinement or atomic coordinate data resulting 
# from the CCDC's data processing and validation procedures.
#
#######################################################################

data_KOMTUB
_chemical_formula_moiety         'C19 H14 O3'
_chemical_name_systematic        1-(3-Pentynyloxy)anthraquinone
_symmetry_cell_setting           orthorhombic
_symmetry_space_group_name_H-M   'P 21 21 21'
_symmetry_Int_Tables_number      19
_space_group_name_Hall           'P 2ac 2ab'
loop_
_symmetry_equiv_pos_site_id
_symmetry_equiv_pos_as_xyz
1 x,y,z
2 1/2+x,1/2-y,-z
3 -x,1/2+y,1/2-z
4 1/2-x,-y,1/2+z
_cell_length_a                   4.11(2)
_cell_length_b                   14.261(7)
_cell_length_c                   24.340(6)
_cell_angle_alpha                90
_cell_angle_beta                 90
_cell_angle_gamma                90
_cell_volume                     1426.63
_exptl_crystal_colour            yellow
_cell_formula_units_Z            4
loop_
_atom_site_label
_atom_site_type_symbol
_atom_site_fract_x
_atom_site_fract_y
_atom_site_fract_z
O1 O -0.021(3) 0.3375(7) 0.2200(4)
O2 O 0.676(3) 0.4370(8) 0.4279(6)
O3 O 0.280(3) 0.2016(7) 0.2714(5)
C1 C -0.672(4) 0.385(1) -0.0059(7)
C2 C -0.549(4) 0.352(1) 0.0460(9)
C3 C -0.451(5) 0.325(1) 0.0872(8)
C4 C -0.307(4) 0.294(1) 0.1383(7)
C5 C -0.183(4) 0.374(1) 0.1734(6)
C6 C 0.096(4) 0.394(1) 0.2582(7)
C7 C 0.053(4) 0.493(1) 0.2553(7)
C8 C 0.178(4) 0.549(1) 0.2971(7)
C9 C 0.339(4) 0.516(1) 0.3419(7)
C10 C 0.594(4) 0.385(1) 0.3906(7)
C11 C 0.823(4) 0.247(1) 0.4399(7)
C12 C 0.876(4) 0.151(1) 0.4460(6)
C13 C 0.768(4) 0.093(1) 0.4049(6)
C14 C 0.609(4) 0.126(1) 0.3598(6)
C15 C 0.367(4) 0.255(1) 0.3065(7)
C16 C 0.281(4) 0.360(1) 0.3018(6)
C17 C 0.405(4) 0.418(1) 0.3435(6)
C18 C 0.653(4) 0.281(1) 0.3953(6)
C19 C 0.540(4) 0.223(1) 0.3541(6)
H1 H -0.510 0.372 -0.0356
H2 H -0.709 0.455 -0.0035
H3 H -0.881 0.353 -0.0144
H4 H -0.473 0.259 0.1601
H5 H -0.119 0.252 0.1300
H6 H -0.371 0.413 0.1851
H7 H -0.029 0.412 0.1511
H8 H -0.068 0.520 0.2237
H9 H 0.154 0.618 0.2933
H10 H 0.406 0.557 0.3728
H11 H 0.916 0.292 0.4672
H12 H 0.979 0.124 0.4797
H13 H 0.815 0.024 0.4076
H14 H 0.536 0.081 0.3304
loop_
_geom_bond_atom_site_label_1
_geom_bond_atom_site_label_2
_geom_bond_site_symmetry_1
_geom_bond_site_symmetry_2
O1 C5 1_555 1_555
O2 C10 1_555 1_555
O3 C15 1_555 1_555
C1 C2 1_555 1_555
C2 C3 1_555 1_555
C3 C4 1_555 1_555
C4 C5 1_555 1_555
C5 H6 1_555 1_555
C6 O1 1_555 1_555
C7 C6 1_555 1_555
C8 C7 1_555 1_555
C9 C8 1_555 1_555
C10 C17 1_555 1_555
C11 C12 1_555 1_555
C12 C13 1_555 1_555
C13 C14 1_555 1_555
C14 C19 1_555 1_555
C15 C16 1_555 1_555
C16 C6 1_555 1_555
C17 C9 1_555 1_555
C18 C10 1_555 1_555
C19 C15 1_555 1_555
H1 C1 1_555 1_555
H2 C1 1_555 1_555
H3 C1 1_555 1_555
H4 C4 1_555 1_555
H5 C4 1_555 1_555
H7 C5 1_555 1_555
H8 C7 1_555 1_555
H9 C8 1_555 1_555
H10 C9 1_555 1_555
H11 C11 1_555 1_555
H12 C12 1_555 1_555
H13 C13 1_555 1_555
H14 C14 1_555 1_555
C11 C18 1_555 1_555
C16 C17 1_555 1_555
C18 C19 1_555 1_555

#END
