
#######################################################################
#
#                 Cambridge Crystallographic Data Centre
#                                CCDC 
#
#######################################################################
#
# If this CIF has been generated from an entry in the Cambridge 
# Structural Database, then it will include bibliographic, chemical, 
# crystal, experimental, refinement or atomic coordinate data resulting 
# from the CCDC's data processing and validation procedures.
#
#######################################################################

data_KOMVAJ
_chemical_formula_moiety         'C20 H16 O3'
_chemical_name_systematic        1-(3-Hexynyloxy)anthraquinone
_symmetry_cell_setting           monoclinic
_symmetry_space_group_name_H-M   'I 2/a'
_symmetry_Int_Tables_number      15
_space_group_name_Hall           '-I 2ya'
loop_
_symmetry_equiv_pos_site_id
_symmetry_equiv_pos_as_xyz
1 x,y,z
2 1/2+x,1/2+y,1/2+z
3 1/2-x,y,-z
4 -x,1/2+y,1/2-z
5 -x,-y,-z
6 1/2-x,1/2-y,1/2-z
7 1/2+x,-y,z
8 x,1/2-y,1/2+z
_cell_length_a                   8.575(1)
_cell_length_b                   14.8162(9)
_cell_length_c                   24.071(3)
_cell_angle_alpha                90
_cell_angle_beta                 90.073(7)
_cell_angle_gamma                90
_cell_volume                     3058.19
_exptl_crystal_colour            yellow
_cell_formula_units_Z            8
loop_
_atom_site_label
_atom_site_type_symbol
_atom_site_fract_x
_atom_site_fract_y
_atom_site_fract_z
O1 O 0.0652(5) 0.9259(2) 0.2278(2)
O2 O -0.0556(5) 1.0613(2) 0.2816(2)
O3 O -0.3630(6) 0.8321(3) 0.4148(2)
C1 C 0.4838(9) 0.8522(5) -0.0168(3)
C2 C 0.5480(8) 0.8756(5) 0.0364(3)
C3 C 0.4358(8) 0.9099(4) 0.0781(3)
C4 C 0.3491(8) 0.9361(4) 0.1129(2)
C5 C 0.2427(7) 0.9666(4) 0.1570(2)
C6 C 0.1642(7) 0.8878(4) 0.1857(2)
C7 C -0.0143(6) 0.8695(4) 0.2617(2)
C8 C -0.1216(7) 1.0079(4) 0.3113(2)
C9 C -0.2289(7) 1.1332(4) 0.3672(2)
C10 C -0.3184(7) 1.1661(4) 0.4102(2)
C11 C -0.3998(7) 1.1088(4) 0.4447(2)
C12 C -0.3900(7) 1.0161(4) 0.4364(2)
C13 C -0.2916(7) 0.8834(4) 0.3841(2)
C14 C -0.1803(7) 0.7557(4) 0.3327(2)
C15 C -0.0872(6) 0.7204(4) 0.2919(2)
C16 C -0.0053(7) 0.7754(4) 0.2564(2)
C17 C -0.1083(6) 0.9077(3) 0.3032(2)
C18 C -0.2206(6) 1.0400(3) 0.3580(2)
C19 C -0.3025(6) 0.9824(3) 0.3927(2)
C20 C -0.1917(6) 0.8491(3) 0.3387(2)
H1 H 0.5690 0.8300 -0.0416
H2 H 0.4338 0.9065 -0.0338
H3 H 0.4039 0.8036 -0.0120
H4 H 0.5987 0.8205 0.0521
H5 H 0.6286 0.9234 0.0303
H6 H 0.3034 1.0018 0.1851
H7 H 0.1608 1.0061 0.1401
H8 H 0.2441 0.8475 0.2030
H9 H 0.1006 0.8525 0.1584
H10 H -0.1701 1.1757 0.3426
H11 H -0.3246 1.2327 0.4164
H12 H -0.4652 1.1336 0.4755
H13 H -0.4460 0.9739 0.4619
H14 H -0.2396 0.7148 0.3581
H15 H -0.0789 0.6534 0.2878
H16 H 0.0610 0.7482 0.2266
loop_
_geom_bond_atom_site_label_1
_geom_bond_atom_site_label_2
_geom_bond_site_symmetry_1
_geom_bond_site_symmetry_2
O1 C6 1_555 1_555
O2 C8 1_555 1_555
O3 C13 1_555 1_555
C1 C2 1_555 1_555
C2 C3 1_555 1_555
C3 C4 1_555 1_555
C4 C5 1_555 1_555
C5 C6 1_555 1_555
C6 H8 1_555 1_555
C7 O1 1_555 1_555
C8 C17 1_555 1_555
C9 C10 1_555 1_555
C10 C11 1_555 1_555
C11 C12 1_555 1_555
C12 C19 1_555 1_555
C13 C19 1_555 1_555
C14 C15 1_555 1_555
C15 C16 1_555 1_555
C16 C7 1_555 1_555
C17 C7 1_555 1_555
C18 C8 1_555 1_555
C19 C18 1_555 1_555
C20 C13 1_555 1_555
H1 C1 1_555 1_555
H2 C1 1_555 1_555
H3 C1 1_555 1_555
H4 C2 1_555 1_555
H5 C2 1_555 1_555
H6 C5 1_555 1_555
H7 C5 1_555 1_555
H9 C6 1_555 1_555
H10 C9 1_555 1_555
H11 C10 1_555 1_555
H12 C11 1_555 1_555
H13 C12 1_555 1_555
H14 C14 1_555 1_555
H15 C15 1_555 1_555
H16 C16 1_555 1_555
C9 C18 1_555 1_555
C14 C20 1_555 1_555
C17 C20 1_555 1_555

#END
