
#######################################################################
#
#                 Cambridge Crystallographic Data Centre
#                                CCDC 
#
#######################################################################
#
# If this CIF has been generated from an entry in the Cambridge 
# Structural Database, then it will include bibliographic, chemical, 
# crystal, experimental, refinement or atomic coordinate data resulting 
# from the CCDC's data processing and validation procedures.
#
#######################################################################

data_KOMVAK
_chemical_formula_moiety         'C20 H12 N2 S2'
_chemical_name_systematic        1,2-Bis(1,3-benzothiazol-2-yl)benzene
_symmetry_cell_setting           monoclinic
_symmetry_space_group_name_H-M   'P 21/c'
_symmetry_Int_Tables_number      14
_space_group_name_Hall           '-P 2ybc'
loop_
_symmetry_equiv_pos_site_id
_symmetry_equiv_pos_as_xyz
1 x,y,z
2 -x,1/2+y,1/2-z
3 -x,-y,-z
4 x,1/2-y,1/2+z
_cell_length_a                   10.748(2)
_cell_length_b                   19.148(4)
_cell_length_c                   8.1840(16)
_cell_angle_alpha                90
_cell_angle_beta                 100.77(3)
_cell_angle_gamma                90
_cell_volume                     1654.62
_exptl_crystal_colour            yellow
_exptl_crystal_description       block
_cell_formula_units_Z            4
_exptl_crystal_recrystallization_method ethanol
loop_
_atom_site_label
_atom_site_type_symbol
_atom_site_fract_x
_atom_site_fract_y
_atom_site_fract_z
C1 C 0.1724(9) 0.5336(4) 0.9897(12)
H1 H 0.1202 0.5630 1.0376
C2 C 0.1344(7) 0.5137(4) 0.8270(9)
H2 H 0.0583 0.5291 0.7640
C3 C 0.2149(6) 0.4693(3) 0.7600(7)
C4 C 0.3256(5) 0.4465(3) 0.8557(6)
C5 C 0.3633(6) 0.4661(3) 1.0209(7)
H3 H 0.4376 0.4496 1.0862
C6 C 0.2832(8) 0.5121(4) 1.0827(9)
H4 H 0.3064 0.5284 1.1911
C7 C 0.2792(4) 0.4036(3) 0.5708(6)
C8 C 0.2677(5) 0.3692(3) 0.4050(6)
C9 C 0.1489(5) 0.3646(3) 0.3069(7)
H5 H 0.0800 0.3835 0.3453
C10 C 0.1297(6) 0.3325(3) 0.1532(8)
H6 H 0.0485 0.3300 0.0897
C11 C 0.2287(6) 0.3044(3) 0.0938(8)
H7 H 0.2159 0.2832 -0.0102
C12 C 0.3461(6) 0.3079(3) 0.1882(8)
H8 H 0.4133 0.2888 0.1464
C13 C 0.3715(5) 0.3394(3) 0.3479(6)
C14 C 0.5036(5) 0.3402(3) 0.4373(6)
C15 C 0.6821(5) 0.3021(3) 0.5897(6)
C16 C 0.7649(6) 0.2577(3) 0.6947(8)
H9 H 0.7366 0.2153 0.7297
C17 C 0.8887(6) 0.2782(4) 0.7449(8)
H10 H 0.9447 0.2498 0.8157
C18 C 0.9307(6) 0.3412(4) 0.6907(7)
H11 H 1.0155 0.3532 0.7240
C19 C 0.8532(5) 0.3858(3) 0.5915(7)
H12 H 0.8835 0.4280 0.5583
C20 C 0.7256(4) 0.3666(3) 0.5396(6)
N1 N 0.1893(4) 0.4454(2) 0.5978(5)
N2 N 0.5565(4) 0.2888(2) 0.5286(5)
S1 S 0.40034(14) 0.39075(8) 0.73836(18)
S2 S 0.60337(13) 0.40998(7) 0.41671(19)
loop_
_geom_bond_atom_site_label_1
_geom_bond_atom_site_label_2
_geom_bond_site_symmetry_1
_geom_bond_site_symmetry_2
C1 H1 1_555 1_555
C2 C1 1_555 1_555
H2 C2 1_555 1_555
C3 C2 1_555 1_555
C4 C3 1_555 1_555
C5 C4 1_555 1_555
H3 C5 1_555 1_555
C6 C1 1_555 1_555
H4 C6 1_555 1_555
C7 C8 1_555 1_555
C8 C9 1_555 1_555
C9 H5 1_555 1_555
C10 C9 1_555 1_555
H6 C10 1_555 1_555
C11 C10 1_555 1_555
H7 C11 1_555 1_555
C12 C11 1_555 1_555
H8 C12 1_555 1_555
C13 C8 1_555 1_555
C14 C13 1_555 1_555
C15 C16 1_555 1_555
C16 H9 1_555 1_555
C17 C16 1_555 1_555
H10 C17 1_555 1_555
C18 C17 1_555 1_555
H11 C18 1_555 1_555
C19 C18 1_555 1_555
H12 C19 1_555 1_555
C20 C15 1_555 1_555
N1 C3 1_555 1_555
N2 C14 1_555 1_555
S1 C4 1_555 1_555
S2 C14 1_555 1_555
C5 C6 1_555 1_555
C7 N1 1_555 1_555
C7 S1 1_555 1_555
C12 C13 1_555 1_555
C15 N2 1_555 1_555
C19 C20 1_555 1_555
C20 S2 1_555 1_555

#END
