
#######################################################################
#
#                 Cambridge Crystallographic Data Centre
#                                CCDC 
#
#######################################################################
#
# If this CIF has been generated from an entry in the Cambridge 
# Structural Database, then it will include bibliographic, chemical, 
# crystal, experimental, refinement or atomic coordinate data resulting 
# from the CCDC's data processing and validation procedures.
#
#######################################################################

data_KOMWEQ
_chemical_formula_moiety         'C15 H10 N2 O3'
_chemical_name_systematic        
3-(4-Nitrobenzylidene)-1,3-dihydro-2H-indol-2-one
_symmetry_cell_setting           monoclinic
_symmetry_space_group_name_H-M   'P 21/c'
_symmetry_Int_Tables_number      14
_space_group_name_Hall           '-P 2ybc'
loop_
_symmetry_equiv_pos_site_id
_symmetry_equiv_pos_as_xyz
1 x,y,z
2 -x,1/2+y,1/2-z
3 -x,-y,-z
4 x,1/2-y,1/2+z
_cell_length_a                   9.9484(11)
_cell_length_b                   7.9134(10)
_cell_length_c                   16.013(2)
_cell_angle_alpha                90
_cell_angle_beta                 104.340(8)
_cell_angle_gamma                90
_cell_volume                     1221.36
_exptl_crystal_colour            yellow
_exptl_crystal_description       plate
_cell_formula_units_Z            4
loop_
_atom_site_label
_atom_site_type_symbol
_atom_site_fract_x
_atom_site_fract_y
_atom_site_fract_z
C1 C 0.3935(3) 0.7057(4) 0.0215(2)
C2 C 0.3223(3) 0.8745(4) 0.0188(2)
C3 C 0.3330(3) 0.9528(4) -0.0628(2)
C4 C 0.2857(3) 1.1022(4) -0.1065(2)
H1 H 0.2396 1.1846 -0.0805
C5 C 0.3058(4) 1.1302(4) -0.1876(2)
H2 H 0.2736 1.2322 -0.2171
C6 C 0.3730(3) 1.0101(5) -0.2269(2)
H3 H 0.3865 1.0319 -0.2826
C7 C 0.4205(3) 0.8593(4) -0.1855(2)
H4 H 0.4648 0.7763 -0.2122
C8 C 0.4009(3) 0.8349(4) -0.1044(2)
C9 C 0.2579(3) 0.9104(4) 0.0811(2)
H5 H 0.2631 0.8241 0.1230
C10 C 0.1806(3) 1.0618(4) 0.0948(2)
C11 C 0.2182(3) 1.2238(4) 0.0746(2)
H6 H 0.2960 1.2377 0.0508
C12 C 0.1442(3) 1.3646(4) 0.0887(2)
H7 H 0.1708 1.4747 0.0753
C13 C 0.0308(3) 1.3409(4) 0.1225(2)
C14 C -0.0082(3) 1.1833(4) 0.1454(2)
H8 H -0.0854 1.1711 0.1699
C15 C 0.0677(3) 1.0438(4) 0.1319(2)
H9 H 0.0430 0.9348 0.1480
N1 N 0.4382(3) 0.6926(3) -0.05165(18)
H10 H 0.4847 0.6058 -0.0644
N2 N -0.0483(3) 1.4891(4) 0.13815(19)
O1 O 0.4080(2) 0.5980(3) 0.07886(16)
O2 O 0.0013(3) 1.6293(3) 0.13161(19)
O3 O -0.1589(3) 1.4673(3) 0.1568(2)
loop_
_geom_bond_atom_site_label_1
_geom_bond_atom_site_label_2
_geom_bond_site_symmetry_1
_geom_bond_site_symmetry_2
C1 C2 1_555 1_555
C2 C3 1_555 1_555
C3 C4 1_555 1_555
C4 H1 1_555 1_555
C5 C4 1_555 1_555
H2 C5 1_555 1_555
C6 C5 1_555 1_555
H3 C6 1_555 1_555
C7 C6 1_555 1_555
H4 C7 1_555 1_555
C8 C3 1_555 1_555
C9 C2 1_555 1_555
H5 C9 1_555 1_555
C10 C9 1_555 1_555
C11 C10 1_555 1_555
H6 C11 1_555 1_555
C12 C11 1_555 1_555
H7 C12 1_555 1_555
C13 C12 1_555 1_555
C14 C13 1_555 1_555
H8 C14 1_555 1_555
C15 C10 1_555 1_555
H9 C15 1_555 1_555
N1 C1 1_555 1_555
H10 N1 1_555 1_555
N2 C13 1_555 1_555
O1 C1 1_555 1_555
O2 N2 1_555 1_555
O3 N2 1_555 1_555
C7 C8 1_555 1_555
C8 N1 1_555 1_555
C14 C15 1_555 1_555

#END
