
#######################################################################
#
#                 Cambridge Crystallographic Data Centre
#                                CCDC 
#
#######################################################################
#
# If this CIF has been generated from an entry in the Cambridge 
# Structural Database, then it will include bibliographic, chemical, 
# crystal, experimental, refinement or atomic coordinate data resulting 
# from the CCDC's data processing and validation procedures.
#
#######################################################################

data_KOMXEQ
_chemical_formula_moiety         'C20 H30 O5'
_chemical_name_systematic        
'4\a-Carboxy-13\a-hydroxy-13,16-seco-ent-7\a-hydroxy-19-norbeyeran-16-oic acid'
_chemical_properties_biological  'tested for androgen agonist activity'
_symmetry_cell_setting           orthorhombic
_symmetry_space_group_name_H-M   'P 21 21 21'
_symmetry_Int_Tables_number      19
_space_group_name_Hall           'P 2ac 2ab'
loop_
_symmetry_equiv_pos_site_id
_symmetry_equiv_pos_as_xyz
1 x,y,z
2 1/2-x,-y,1/2+z
3 -x,1/2+y,1/2-z
4 1/2+x,1/2-y,-z
_cell_length_a                   7.7583(2)
_cell_length_b                   14.2010(3)
_cell_length_c                   15.9128(3)
_cell_angle_alpha                90
_cell_angle_beta                 90
_cell_angle_gamma                90
_cell_volume                     1753.2
_exptl_crystal_description       cubic
_chemical_melting_point          289-290deg.C
_cell_formula_units_Z            4
_exptl_crystal_recrystallization_method 'n-hexane/ethyl acetate'
loop_
_atom_site_label
_atom_site_type_symbol
_atom_site_fract_x
_atom_site_fract_y
_atom_site_fract_z
O1 O -0.2644(2) 0.23092(14) 0.15591(12)
O2 O -0.2071(2) 0.38463(13) 0.15233(12)
H1 H -0.3119 0.3886 0.1578
O3 O 0.1608(2) 0.44978(15) 0.52395(10)
H2 H 0.2025 0.4381 0.5701
O4 O 0.4317(2) 0.42328(11) 0.49407(9)
O5 O 0.46326(19) 0.45266(11) 0.17370(9)
H3 H 0.4426 0.4778 0.1284
C1 C 0.2253(3) 0.16488(15) 0.23810(16)
H4 H 0.3364 0.1606 0.2103
H5 H 0.2323 0.1291 0.2899
C2 C 0.0887(3) 0.12118(16) 0.18186(16)
H6 H 0.1223 0.0572 0.1680
H7 H -0.0196 0.1183 0.2122
C3 C 0.0631(3) 0.17639(16) 0.10148(15)
H8 H -0.0310 0.1483 0.0701
H9 H 0.1665 0.1708 0.0675
C4 C 0.0235(3) 0.28208(15) 0.11500(13)
C5 C 0.1636(3) 0.32332(14) 0.17539(12)
H10 H 0.2725 0.3142 0.1452
C6 C 0.1536(3) 0.43015(14) 0.19027(13)
H11 H 0.1339 0.4619 0.1372
H12 H 0.0571 0.4440 0.2270
C7 C 0.3204(3) 0.46728(14) 0.23001(12)
H13 H 0.3076 0.5350 0.2399
C8 C 0.3581(3) 0.41881(14) 0.31458(12)
C9 C 0.3535(3) 0.30997(14) 0.30240(12)
H14 H 0.4480 0.2961 0.2634
C10 C 0.1885(3) 0.26905(14) 0.25948(12)
C11 C 0.4015(3) 0.25903(14) 0.38433(13)
H15 H 0.3094 0.2677 0.4248
H16 H 0.4116 0.1921 0.3732
C12 C 0.5692(3) 0.29431(15) 0.42213(14)
H17 H 0.6643 0.2761 0.3860
H18 H 0.5865 0.2648 0.4765
C13 C 0.5697(3) 0.40105(15) 0.43283(13)
C14 C 0.5351(3) 0.44789(14) 0.34883(13)
H19 H 0.6239 0.4300 0.3091
H20 H 0.5389 0.5157 0.3555
C15 C 0.2308(3) 0.45902(15) 0.37969(13)
H21 H 0.1335 0.4925 0.3633
C16 C 0.2707(3) 0.44185(15) 0.47051(13)
C17 C 0.7332(3) 0.43651(17) 0.47519(15)
H22 H 0.7283 0.5038 0.4801
H23 H 0.8315 0.4191 0.4420
H24 H 0.7428 0.4090 0.5301
C18 C 0.0361(3) 0.33072(18) 0.02878(14)
H25 H -0.0490 0.3048 -0.0084
H26 H 0.1489 0.3207 0.0056
H27 H 0.0163 0.3970 0.0353
C19 C -0.1624(3) 0.29420(17) 0.14428(14)
C20 C 0.0265(3) 0.27250(17) 0.31575(14)
H28 H -0.0700 0.2470 0.2856
H29 H 0.0027 0.3366 0.3309
H30 H 0.0462 0.2361 0.3657
loop_
_geom_bond_atom_site_label_1
_geom_bond_atom_site_label_2
_geom_bond_site_symmetry_1
_geom_bond_site_symmetry_2
O1 C19 1_555 1_555
O2 H1 1_555 1_555
O3 H2 1_555 1_555
O4 C13 1_555 1_555
O5 H3 1_555 1_555
C1 H4 1_555 1_555
H5 C1 1_555 1_555
C2 C1 1_555 1_555
H6 C2 1_555 1_555
H7 C2 1_555 1_555
C3 C2 1_555 1_555
H8 C3 1_555 1_555
H9 C3 1_555 1_555
C4 C3 1_555 1_555
C5 C4 1_555 1_555
H10 C5 1_555 1_555
C6 C5 1_555 1_555
H11 C6 1_555 1_555
H12 C6 1_555 1_555
C7 O5 1_555 1_555
H13 C7 1_555 1_555
C8 C7 1_555 1_555
C9 C8 1_555 1_555
H14 C9 1_555 1_555
C10 C1 1_555 1_555
C11 C9 1_555 1_555
H15 C11 1_555 1_555
H16 C11 1_555 1_555
C12 C11 1_555 1_555
H17 C12 1_555 1_555
H18 C12 1_555 1_555
C13 C12 1_555 1_555
C14 C8 1_555 1_555
H19 C14 1_555 1_555
H20 C14 1_555 1_555
C15 C8 1_555 1_555
H21 C15 1_555 1_555
C16 O3 1_555 1_555
C17 C13 1_555 1_555
H22 C17 1_555 1_555
H23 C17 1_555 1_555
H24 C17 1_555 1_555
C18 C4 1_555 1_555
H25 C18 1_555 1_555
H26 C18 1_555 1_555
H27 C18 1_555 1_555
C19 O2 1_555 1_555
C20 C10 1_555 1_555
H28 C20 1_555 1_555
H29 C20 1_555 1_555
H30 C20 1_555 1_555
O4 C16 1_555 1_555
C4 C19 1_555 1_555
C5 C10 1_555 1_555
C6 C7 1_555 1_555
C9 C10 1_555 1_555
C13 C14 1_555 1_555
C15 C16 1_555 1_555

#END
