
#######################################################################
#
#                 Cambridge Crystallographic Data Centre
#                                CCDC 
#
#######################################################################
#
# If this CIF has been generated from an entry in the Cambridge 
# Structural Database, then it will include bibliographic, chemical, 
# crystal, experimental, refinement or atomic coordinate data resulting 
# from the CCDC's data processing and validation procedures.
#
#######################################################################

data_KOMXAL
_chemical_formula_moiety         'C36 H42 N8,6(H2 O1)'
_chemical_name_systematic        
'6,16,25-Tribenza-1,4,8,11,14,18,23,27-octa-aza-tricyclo(9.9.9)nonacosa-4,7,14,17,23,26-hexaene hexahydrate'
_symmetry_cell_setting           rhombohedral
_symmetry_space_group_name_H-M   'R 3 2'
_symmetry_Int_Tables_number      155
_space_group_name_Hall           'R 3 2"'
loop_
_symmetry_equiv_pos_site_id
_symmetry_equiv_pos_as_xyz
1 x,y,z
2 1/3+x,2/3+y,2/3+z
3 2/3+x,1/3+y,1/3+z
4 -y,x-y,z
5 -x+y,-x,z
6 1/3-y,2/3+x-y,2/3+z
7 1/3-x+y,2/3-x,2/3+z
8 2/3-y,1/3+x-y,1/3+z
9 2/3-x+y,1/3-x,1/3+z
10 y,x,-z
11 2/3+y,1/3+x,1/3-z
12 1/3+y,2/3+x,2/3-z
13 x-y,-y,-z
14 -x,-x+y,-z
15 2/3+x-y,1/3-y,1/3-z
16 2/3-x,1/3-x+y,1/3-z
17 1/3+x-y,2/3-y,2/3-z
18 1/3-x,2/3-x+y,2/3-z
_cell_length_a                   14.834(14)
_cell_length_b                   14.834(14)
_cell_length_c                   15.594(16)
_cell_angle_alpha                90
_cell_angle_beta                 90
_cell_angle_gamma                120
_cell_volume                     2971.7
_cell_formula_units_Z            3
loop_
_atom_site_label
_atom_site_type_symbol
_atom_site_fract_x
_atom_site_fract_y
_atom_site_fract_z
N1 N 0.0000 0.0000 0.3378(3)
C1 C 0.0544(4) 0.1095(3) 0.3686(2)
C2 C 0.1593(4) 0.1764(4) 0.3279(3)
N2 N 0.1486(3) 0.1964(3) 0.2369(2)
C3 C 0.1875(3) 0.1637(3) 0.1821(3)
C4 C 0.1836(3) 0.1733(3) 0.0890(3)
C5 C 0.1381(4) 0.2249(4) 0.0520(3)
C6 C 0.2281(4) 0.1320(4) 0.0363(3)
H1 H 0.0119(4) 0.1390(4) 0.3561(2)
H2 H 0.0636(4) 0.1094(3) 0.4288(2)
H3 H 0.1982(4) 0.1416(4) 0.3316(3)
H4 H 0.1949(4) 0.2408(4) 0.3576(3)
H5 H 0.2225(3) 0.1293(3) 0.2032(3)
H6 H 0.1103(4) 0.2577(4) 0.0868(3)
H7 H 0.2610(4) 0.1042(4) 0.0711(3)
C1C C -0.1095(3) -0.0551(5) 0.3686(2)
C1D C 0.0551(5) -0.0544(4) 0.3686(2)
C6I C 0.1320(4) 0.2281(4) -0.0363(3)
C5I C 0.2249(4) 0.1381(4) -0.0520(3)
C2C C -0.1764(4) -0.0171(6) 0.3279(3)
H1C H -0.1390(4) -0.1271(6) 0.3561(2)
H2C H -0.1094(3) -0.0458(5) 0.4288(2)
C2D C 0.0171(6) -0.1593(4) 0.3279(3)
H1D H 0.1271(6) -0.0119(4) 0.3561(2)
H2D H 0.0458(5) -0.0636(4) 0.4288(2)
C4I C 0.1733(3) 0.1836(3) -0.0890(3)
H7I H 0.1042(4) 0.2610(4) -0.0711(3)
H6I H 0.2577(4) 0.1103(4) -0.0868(3)
N2C N -0.1964(3) -0.0478(4) 0.2369(2)
H3C H -0.1416(4) 0.0566(6) 0.3316(3)
H4C H -0.2408(4) -0.0459(6) 0.3576(3)
N2D N 0.0478(4) -0.1486(3) 0.2369(2)
H3D H -0.0566(6) -0.1982(4) 0.3316(3)
H4D H 0.0459(6) -0.1949(4) 0.3576(3)
C3I C 0.1637(3) 0.1875(3) -0.1821(3)
C3C C -0.1637(3) 0.0238(4) 0.1821(3)
C3D C -0.0238(4) -0.1875(3) 0.1821(3)
N2I N 0.1964(3) 0.1486(3) -0.2369(2)
H5I H 0.1293(3) 0.2225(3) -0.2032(3)
C4C C -0.1733(3) 0.0103(4) 0.0890(3)
H5C H -0.1293(3) 0.0932(4) 0.2032(3)
C4D C -0.0103(4) -0.1836(3) 0.0890(3)
H5D H -0.0932(4) -0.2225(3) 0.2032(3)
C2I C 0.1764(4) 0.1593(4) -0.3279(3)
C5C C -0.2249(4) -0.0868(6) 0.0520(3)
C6C C -0.1320(4) 0.0961(6) 0.0363(3)
C5D C 0.0868(6) -0.1381(4) 0.0520(3)
C6D C -0.0961(6) -0.2281(4) 0.0363(3)
C1I C 0.1095(3) 0.0544(4) -0.3686(2)
H3I H 0.1416(4) 0.1982(4) -0.3316(3)
H4I H 0.2408(4) 0.1949(4) -0.3576(3)
C6M C -0.2281(4) -0.0961(6) -0.0363(3)
H6C H -0.2577(4) -0.1474(6) 0.0868(3)
C5M C -0.1381(4) 0.0868(6) -0.0520(3)
H7C H -0.1042(4) 0.1568(6) 0.0711(3)
C6L C 0.0961(6) -0.1320(4) -0.0363(3)
H6D H 0.1474(6) -0.1103(4) 0.0868(3)
C5L C -0.0868(6) -0.2249(4) -0.0520(3)
H7D H -0.1568(6) -0.2610(4) 0.0711(3)
N1I N 0.0000 0.0000 -0.3378(3)
H1I H 0.1390(4) 0.0119(4) -0.3561(2)
H2I H 0.1094(3) 0.0636(4) -0.4288(2)
C4M C -0.1836(3) -0.0103(4) -0.0890(3)
H7M H -0.2610(4) -0.1568(6) -0.0711(3)
H6M H -0.1103(4) 0.1474(6) -0.0868(3)
C4L C 0.0103(4) -0.1733(3) -0.0890(3)
H7L H 0.1568(6) -0.1042(4) -0.0711(3)
H6L H -0.1474(6) -0.2577(4) -0.0868(3)
C1L C -0.0551(5) -0.1095(3) -0.3686(2)
C1M C -0.0544(4) 0.0551(5) -0.3686(2)
C3M C -0.1875(3) -0.0238(4) -0.1821(3)
C3L C 0.0238(4) -0.1637(3) -0.1821(3)
C2L C -0.0171(6) -0.1764(4) -0.3279(3)
H1L H -0.1271(6) -0.1390(4) -0.3561(2)
H2L H -0.0458(5) -0.1094(3) -0.4288(2)
C2M C -0.1593(4) 0.0171(6) -0.3279(3)
H1M H -0.0119(4) 0.1271(6) -0.3561(2)
H2M H -0.0636(4) 0.0458(5) -0.4288(2)
N2M N -0.1486(3) 0.0478(4) -0.2369(2)
H5M H -0.2225(3) -0.0932(4) -0.2032(3)
N2L N -0.0478(4) -0.1964(3) -0.2369(2)
H5L H 0.0932(4) -0.1293(3) -0.2032(3)
H3L H 0.0566(6) -0.1416(4) -0.3316(3)
H4L H -0.0459(6) -0.2408(4) -0.3576(3)
H3M H -0.1982(4) -0.0566(6) -0.3316(3)
H4M H -0.1949(4) 0.0459(6) -0.3576(3)
O1 O 0.0359(4) 0.3130(5) 0.2433(3)
H8 H 0.0389(20) 0.2792(18) 0.2393(17)
loop_
_geom_bond_atom_site_label_1
_geom_bond_atom_site_label_2
_geom_bond_site_symmetry_1
_geom_bond_site_symmetry_2
N1 C1 1_555 1_555
C1 C2 1_555 1_555
C2 N2 1_555 1_555
N2 C3 1_555 1_555
C3 C4 1_555 1_555
C4 C5 1_555 1_555
C5 H6 1_555 1_555
C6 C4 1_555 1_555
O1 H8 1_555 1_555
H1 C1 1_555 1_555
H2 C1 1_555 1_555
H3 C2 1_555 1_555
H4 C2 1_555 1_555
H5 C3 1_555 1_555
H7 C6 1_555 1_555
C1C N1 1_555 1_555
C1D N1 1_555 1_555
C6I C5 1_555 1_555
C5I C6 1_555 1_555
C2C C1C 1_555 1_555
H1C C1C 1_555 1_555
H2C C1C 1_555 1_555
C2D C1D 1_555 1_555
H1D C1D 1_555 1_555
H2D C1D 1_555 1_555
C4I C6I 1_555 1_555
H7I C6I 1_555 1_555
H6I C5I 1_555 1_555
N2C C2C 1_555 1_555
H3C C2C 1_555 1_555
H4C C2C 1_555 1_555
N2D C2D 1_555 1_555
H3D C2D 1_555 1_555
H4D C2D 1_555 1_555
C3I C4I 1_555 1_555
C3C N2C 1_555 1_555
C3D N2D 1_555 1_555
N2I C3I 1_555 1_555
H5I C3I 1_555 1_555
C4C C3C 1_555 1_555
H5C C3C 1_555 1_555
C4D C3D 1_555 1_555
H5D C3D 1_555 1_555
C2I N2I 1_555 1_555
C5C C4C 1_555 1_555
C6C C4C 1_555 1_555
C5D C4D 1_555 1_555
C6D C4D 1_555 1_555
C1I C2I 1_555 1_555
H3I C2I 1_555 1_555
H4I C2I 1_555 1_555
C6M C5C 1_555 1_555
H6C C5C 1_555 1_555
C5M C6C 1_555 1_555
H7C C6C 1_555 1_555
C6L C5D 1_555 1_555
H6D C5D 1_555 1_555
C5L C6D 1_555 1_555
H7D C6D 1_555 1_555
N1I C1I 1_555 1_555
H1I C1I 1_555 1_555
H2I C1I 1_555 1_555
C4M C6M 1_555 1_555
H7M C6M 1_555 1_555
H6M C5M 1_555 1_555
C4L C6L 1_555 1_555
H7L C6L 1_555 1_555
H6L C5L 1_555 1_555
C1L N1I 1_555 1_555
C1M N1I 1_555 1_555
C3M C4M 1_555 1_555
C3L C4L 1_555 1_555
C2L C1L 1_555 1_555
H1L C1L 1_555 1_555
H2L C1L 1_555 1_555
C2M C1M 1_555 1_555
H1M C1M 1_555 1_555
H2M C1M 1_555 1_555
N2M C3M 1_555 1_555
H5M C3M 1_555 1_555
N2L C3L 1_555 1_555
H5L C3L 1_555 1_555
H3L C2L 1_555 1_555
H4L C2L 1_555 1_555
H3M C2M 1_555 1_555
H4M C2M 1_555 1_555
C5I C4I 1_555 1_555
C5M C4M 1_555 1_555
C5L C4L 1_555 1_555
C2L N2L 1_555 1_555
C2M N2M 1_555 1_555

#END
