
#######################################################################
#
#                 Cambridge Crystallographic Data Centre
#                                CCDC 
#
#######################################################################
#
# If this CIF has been generated from an entry in the Cambridge 
# Structural Database, then it will include bibliographic, chemical, 
# crystal, experimental, refinement or atomic coordinate data resulting 
# from the CCDC's data processing and validation procedures.
#
#######################################################################

data_KOMYIV
_chemical_formula_moiety         'C19 H24 O8'
_chemical_name_systematic        
1\b,10\a:4\a,5\b-Diepoxy-6\b,8\a-diacetoxyglechomanolide
_symmetry_cell_setting           orthorhombic
_symmetry_space_group_name_H-M   'P 21 21 21'
_symmetry_Int_Tables_number      19
_space_group_name_Hall           'P 2ac 2ab'
loop_
_symmetry_equiv_pos_site_id
_symmetry_equiv_pos_as_xyz
1 x,y,z
2 1/2-x,-y,1/2+z
3 -x,1/2+y,1/2-z
4 1/2+x,1/2-y,-z
_cell_length_a                   8.5182(8)
_cell_length_b                   12.0916(12)
_cell_length_c                   18.2445(18)
_cell_angle_alpha                90
_cell_angle_beta                 90
_cell_angle_gamma                90
_cell_volume                     1879.16
_exptl_crystal_colour            colorless
_exptl_crystal_description       prismatic
_chemical_melting_point          '210-212 deg.C'
_cell_formula_units_Z            4
_exptl_crystal_recrystallization_method methanol
loop_
_atom_site_label
_atom_site_type_symbol
_atom_site_fract_x
_atom_site_fract_y
_atom_site_fract_z
O1 O -0.0972(2) 1.03828(16) 0.53552(11)
O2 O 0.2769(2) 0.72598(12) 0.65075(9)
O3 O 0.2734(2) 1.26462(14) 0.77804(12)
O4 O 0.06389(19) 1.16483(12) 0.74698(9)
O5 O 0.3268(2) 0.82725(13) 0.77980(8)
O6 O 0.2050(3) 0.84005(18) 0.88819(10)
O7 O -0.07614(19) 1.01564(13) 0.79679(9)
O8 O 0.0635(2) 1.09438(15) 0.88841(9)
C1 C 0.0007(3) 0.9445(2) 0.55078(14)
C2 C 0.1246(4) 0.9064(2) 0.49843(14)
H1 H 0.1995 0.9655 0.4900
H2 H 0.0770 0.8872 0.4518
C3 C 0.2086(4) 0.8059(2) 0.53023(12)
H3 H 0.1346 0.7451 0.5331
H4 H 0.2916 0.7841 0.4968
C4 C 0.2792(3) 0.82443(19) 0.60552(12)
C5 C 0.1746(3) 0.81433(18) 0.66877(12)
C6 C 0.1880(3) 0.86752(16) 0.74479(11)
C7 C 0.1828(3) 0.99180(16) 0.74525(11)
C8 C 0.0263(3) 1.05189(17) 0.73884(12)
C9 C -0.0745(3) 1.0390(2) 0.67050(13)
H5 H -0.1286 0.9685 0.6736
H6 H -0.1539 1.0965 0.6711
C10 C 0.0101(3) 1.0441(2) 0.59725(13)
C11 C 0.2933(3) 1.06606(18) 0.76139(11)
C12 C 0.2188(3) 1.1759(2) 0.76506(13)
C13 C 0.4650(3) 1.0569(2) 0.77902(16)
H7 H 0.5065 0.9904 0.7577
H8 H 0.4788 1.0548 0.8312
H9 H 0.5196 1.1197 0.7594
C14 C 0.1344(4) 1.1300(2) 0.58598(16)
H10 H 0.0919 1.2018 0.5965
H11 H 0.1699 1.1277 0.5361
H12 H 0.2211 1.1154 0.6182
C15 C 0.4287(3) 0.8876(2) 0.60899(15)
H13 H 0.5052 0.8531 0.5778
H14 H 0.4667 0.8882 0.6585
H15 H 0.4109 0.9621 0.5929
C16 C 0.3182(3) 0.8156(2) 0.85383(12)
C17 C 0.4675(4) 0.7714(3) 0.88409(17)
H16 H 0.4529 0.6957 0.8984
H17 H 0.4980 0.8143 0.9260
H18 H 0.5480 0.7756 0.8474
C18 C -0.0411(3) 1.0365(2) 0.86866(14)
C19 C -0.1556(4) 0.9774(2) 0.91642(17)
H19 H -0.1246 0.9849 0.9668
H20 H -0.1578 0.9004 0.9035
H21 H -0.2582 1.0086 0.9098
H22 H -0.056(3) 0.8817(16) 0.5709(12)
H23 H 0.071(3) 0.7952(16) 0.6606(12)
H24 H 0.098(2) 0.8400(14) 0.7731(11)
loop_
_geom_bond_atom_site_label_1
_geom_bond_atom_site_label_2
_geom_bond_site_symmetry_1
_geom_bond_site_symmetry_2
O1 C1 1_555 1_555
O2 C4 1_555 1_555
O3 C12 1_555 1_555
O4 C8 1_555 1_555
O5 C6 1_555 1_555
O6 C16 1_555 1_555
O7 C8 1_555 1_555
O8 C18 1_555 1_555
C1 C2 1_555 1_555
C2 H1 1_555 1_555
H2 C2 1_555 1_555
C3 C2 1_555 1_555
H3 C3 1_555 1_555
H4 C3 1_555 1_555
C4 C3 1_555 1_555
C5 O2 1_555 1_555
C6 C5 1_555 1_555
C7 C6 1_555 1_555
C8 C7 1_555 1_555
C9 C8 1_555 1_555
H5 C9 1_555 1_555
H6 C9 1_555 1_555
C10 O1 1_555 1_555
C11 C7 1_555 1_555
C12 O4 1_555 1_555
C13 C11 1_555 1_555
H7 C13 1_555 1_555
H8 C13 1_555 1_555
H9 C13 1_555 1_555
C14 C10 1_555 1_555
H10 C14 1_555 1_555
H11 C14 1_555 1_555
H12 C14 1_555 1_555
C15 C4 1_555 1_555
H13 C15 1_555 1_555
H14 C15 1_555 1_555
H15 C15 1_555 1_555
C16 O5 1_555 1_555
C17 C16 1_555 1_555
H16 C17 1_555 1_555
H17 C17 1_555 1_555
H18 C17 1_555 1_555
C18 O7 1_555 1_555
C19 C18 1_555 1_555
H19 C19 1_555 1_555
H20 C19 1_555 1_555
H21 C19 1_555 1_555
H22 C1 1_555 1_555
H23 C5 1_555 1_555
H24 C6 1_555 1_555
C1 C10 1_555 1_555
C4 C5 1_555 1_555
C9 C10 1_555 1_555
C11 C12 1_555 1_555

#END
