
#######################################################################
#
#                 Cambridge Crystallographic Data Centre
#                                CCDC 
#
#######################################################################
#
# If this CIF has been generated from an entry in the Cambridge 
# Structural Database, then it will include bibliographic, chemical, 
# crystal, experimental, refinement or atomic coordinate data resulting 
# from the CCDC's data processing and validation procedures.
#
#######################################################################

data_KONDIB
_chemical_compound_source        'aerial part of Caragana intermedia'
_chemical_formula_moiety         'C15 H26 O2'
_chemical_name_systematic        (-)-Alloaromadendrane-4\b,10\b-diol
_chemical_properties_biological  'anti-Pyricularia oryzae P-2b activity'
_symmetry_cell_setting           monoclinic
_symmetry_space_group_name_H-M   'P 21'
_symmetry_Int_Tables_number      4
_space_group_name_Hall           'P 2yb'
loop_
_symmetry_equiv_pos_site_id
_symmetry_equiv_pos_as_xyz
1 x,y,z
2 -x,1/2+y,-z
_cell_length_a                   17.4521(13)
_cell_length_b                   22.6316(17)
_cell_length_c                   21.4638(16)
_cell_angle_alpha                90
_cell_angle_beta                 91.1670(10)
_cell_angle_gamma                90
_cell_volume                     8475.78
_exptl_crystal_colour            colorless
_exptl_crystal_description       'long needles'
_chemical_melting_point          116.5-117deg.C
_cell_formula_units_Z            20
_exptl_crystal_recrystallization_method 'petroleum ether/ethyl acetate'
loop_
_atom_site_label
_atom_site_type_symbol
_atom_site_fract_x
_atom_site_fract_y
_atom_site_fract_z
O1 O 0.7136(2) 0.1587(2) 0.95854(17)
O2 O 0.9648(2) 0.15562(17) 0.99533(17)
C1 C 0.8325(3) 0.2141(3) 0.9570(3)
C2 C 0.7437(4) 0.2180(3) 0.9519(3)
C3 C 0.7109(4) 0.2396(3) 0.8893(3)
C4 C 0.7269(3) 0.2005(4) 0.8340(3)
C5 C 0.8036(4) 0.2110(4) 0.8061(3)
C6 C 0.8753(3) 0.2015(3) 0.8450(3)
C7 C 0.8777(3) 0.1790(3) 0.9117(3)
C8 C 0.9592(3) 0.1881(3) 0.9379(3)
C9 C 0.9599(4) 0.2536(3) 0.9536(3)
C10 C 0.8765(4) 0.2714(3) 0.9615(3)
C11 C 0.7129(5) 0.2560(4) 1.0041(3)
C12 C 0.8566(4) 0.1646(6) 0.7878(3)
C13 C 0.8363(5) 0.0991(5) 0.7949(4)
C14 C 0.9068(4) 0.1804(7) 0.7335(3)
C15 C 1.0243(4) 0.1661(4) 0.8963(3)
H1 H 0.6698 0.1604 0.9714
H2 H 1.0085 0.1582 1.0097
H3 H 0.8425 0.1946 0.9971
H4 H 0.6558 0.2437 0.8928
H5 H 0.7315 0.2786 0.8811
H6 H 0.7237 0.1595 0.8470
H7 H 0.6874 0.2070 0.8023
H8 H 0.8055 0.2462 0.7796
H9 H 0.9145 0.2315 0.8373
H10 H 0.8634 0.1372 0.9132
H11 H 0.9827 0.2761 0.9204
H12 H 0.9891 0.2606 0.9919
H13 H 0.8693 0.2901 1.0017
H14 H 0.8602 0.2986 0.9289
H15 H 0.6580 0.2532 1.0042
H16 H 0.7276 0.2964 0.9976
H17 H 0.7336 0.2425 1.0433
H18 H 0.7988 0.0946 0.8267
H19 H 0.8815 0.0772 0.8063
H20 H 0.8157 0.0843 0.7561
H21 H 0.9583 0.1676 0.7422
H22 H 0.9062 0.2225 0.7275
H23 H 0.8876 0.1613 0.6965
H24 H 1.0727 0.1787 0.9137
H25 H 1.0177 0.1822 0.8552
H26 H 1.0231 0.1237 0.8942
O3 O 0.2878(2) 0.28963(18) 0.56029(17)
O4 O 0.03542(19) 0.29794(15) 0.53188(17)
C16 C 0.1757(3) 0.3491(2) 0.5687(3)
C17 C 0.2622(3) 0.3484(3) 0.5756(3)
C18 C 0.2985(3) 0.3597(3) 0.6385(3)
C19 C 0.2801(3) 0.3157(4) 0.6893(3)
C20 C 0.2048(4) 0.3315(3) 0.7189(3)
C21 C 0.1325(3) 0.3318(3) 0.6824(3)
C22 C 0.1273(3) 0.3127(2) 0.6145(2)
C23 C 0.0445(3) 0.3277(3) 0.5905(3)
C24 C 0.0524(4) 0.3965(3) 0.5774(4)
C25 C 0.1363(4) 0.4096(3) 0.5705(3)
C26 C 0.2960(4) 0.3906(3) 0.5258(4)
C27 C 0.1444(4) 0.2875(4) 0.7352(3)
C28 C 0.0998(4) 0.2984(5) 0.7960(3)
C29 C 0.1536(5) 0.2231(3) 0.7231(3)
C30 C -0.0202(3) 0.3085(3) 0.6318(3)
H27 H 0.2654 0.2783 0.5285
H28 H -0.0086 0.3023 0.5186
H29 H 0.1641 0.3328 0.5273
H30 H 0.2828 0.3986 0.6523
H31 H 0.3537 0.3607 0.6338
H32 H 0.2768 0.2763 0.6717
H33 H 0.3208 0.3158 0.7208
H34 H 0.2091 0.3642 0.7487
H35 H 0.0982 0.3645 0.6927
H36 H 0.1378 0.2704 0.6104
H37 H 0.0243 0.4070 0.5396
H38 H 0.0319 0.4190 0.6117
H39 H 0.1556 0.4327 0.6055
H40 H 0.1451 0.4313 0.5324
H41 H 0.3498 0.3829 0.5219
H42 H 0.2886 0.4309 0.5384
H43 H 0.2705 0.3840 0.4863
H44 H 0.0531 0.2760 0.7948
H45 H 0.0882 0.3397 0.7996
H46 H 0.1307 0.2862 0.8312
H47 H 0.1862 0.2175 0.6881
H48 H 0.1044 0.2059 0.7142
H49 H 0.1762 0.2045 0.7592
H50 H -0.0684 0.3153 0.6106
H51 H -0.0183 0.3308 0.6698
H52 H -0.0149 0.2672 0.6412
O5 O 0.11531(19) 0.17306(16) 0.04058(17)
O6 O 0.3671(2) 0.15115(17) 0.04925(17)
C31 C 0.2302(3) 0.1931(2) 0.0998(2)
C32 C 0.1427(3) 0.1972(2) 0.1005(3)
C33 C 0.1081(3) 0.2590(3) 0.1038(3)
C34 C 0.1286(3) 0.3007(3) 0.0503(3)
C35 C 0.2003(3) 0.3310(3) 0.0626(3)
C36 C 0.2730(3) 0.2964(2) 0.0662(3)
C37 C 0.2783(3) 0.2308(2) 0.0546(2)
C38 C 0.3597(3) 0.2097(2) 0.0736(3)
C39 C 0.3572(3) 0.2061(3) 0.1450(3)
C40 C 0.2728(4) 0.2032(3) 0.1627(3)
C41 C 0.1120(4) 0.1608(3) 0.1520(3)
C42 C 0.2608(4) 0.3423(3) 0.0163(3)
C43 C 0.3060(4) 0.4001(3) 0.0211(4)
C44 C 0.2486(4) 0.3231(4) -0.0493(4)
C45 C 0.4241(4) 0.2456(3) 0.0481(4)
H53 H 0.0887 0.1978 0.0224
H54 H 0.4086 0.1373 0.0605
H55 H 0.2412 0.1520 0.0887
H56 H 0.1248 0.2771 0.1428
H57 H 0.0528 0.2552 0.1047
H58 H 0.1324 0.2781 0.0121
H59 H 0.0880 0.3296 0.0445
H60 H 0.1969 0.3617 0.0946
H61 H 0.3077 0.3098 0.0998
H62 H 0.2660 0.2212 0.0110
H63 H 0.3841 0.1712 0.1598
H64 H 0.3814 0.2406 0.1636
H65 H 0.2566 0.2398 0.1819
H66 H 0.2638 0.1708 0.1912
H67 H 0.0571 0.1597 0.1487
H68 H 0.1272 0.1778 0.1913
H69 H 0.1319 0.1214 0.1493
H70 H 0.3126 0.4109 0.0641
H71 H 0.2786 0.4308 -0.0007
H72 H 0.3554 0.3949 0.0029
H73 H 0.2972 0.3196 -0.0691
H74 H 0.2177 0.3518 -0.0711
H75 H 0.2230 0.2856 -0.0501
H76 H 0.4721 0.2278 0.0599
H77 H 0.4219 0.2850 0.0646
H78 H 0.4194 0.2471 0.0035
O7 O 0.68401(18) 0.20104(15) 0.55557(16)
O8 O 0.43352(19) 0.23987(16) 0.55685(15)
C46 C 0.5743(3) 0.2162(2) 0.6203(2)
C47 C 0.6616(3) 0.2075(2) 0.6193(2)
C48 C 0.6937(3) 0.1526(3) 0.6512(3)
C49 C 0.6684(3) 0.0951(2) 0.6246(3)
C50 C 0.5927(3) 0.0757(2) 0.6509(3)
C51 C 0.5218(3) 0.1121(2) 0.6394(2)
C52 C 0.5202(3) 0.1666(2) 0.5983(2)
C53 C 0.4405(3) 0.1969(2) 0.6056(2)
C54 C 0.4518(3) 0.2293(3) 0.6692(2)
C55 C 0.5377(3) 0.2357(3) 0.6814(2)
C56 C 0.7008(3) 0.2623(3) 0.6472(3)
C57 C 0.5265(3) 0.0499(2) 0.6139(3)
C58 C 0.4755(4) 0.0051(3) 0.6484(4)
C59 C 0.5324(4) 0.0386(3) 0.5475(3)
C60 C 0.3715(3) 0.1567(3) 0.6016(3)
H79 H 0.6731 0.2312 0.5362
H80 H 0.3911 0.2554 0.5579
H81 H 0.5642 0.2488 0.5912
H82 H 0.7492 0.1543 0.6499
H83 H 0.6796 0.1537 0.6946
H84 H 0.7069 0.0653 0.6338
H85 H 0.6632 0.0985 0.5797
H86 H 0.5971 0.0603 0.6935
H87 H 0.4893 0.1155 0.6759
H88 H 0.5291 0.1562 0.5547
H89 H 0.4276 0.2679 0.6676
H90 H 0.4288 0.2066 0.7023
H91 H 0.5546 0.2107 0.7157
H92 H 0.5509 0.2764 0.6911
H93 H 0.7523 0.2649 0.6325
H94 H 0.7018 0.2594 0.6918
H95 H 0.6728 0.2970 0.6347
H96 H 0.4225 0.0145 0.6407
H97 H 0.4866 0.0071 0.6924
H98 H 0.4858 -0.0341 0.6337
H99 H 0.4821 0.0392 0.5285
H100 H 0.5554 0.0007 0.5412
H101 H 0.5634 0.0687 0.5290
H102 H 0.3256 0.1798 0.6044
H103 H 0.3737 0.1288 0.6353
H104 H 0.3713 0.1359 0.5627
O9 O 0.51530(19) 0.10783(17) 0.07106(16)
O10 O 0.7675(2) 0.08710(18) 0.05108(16)
C61 C 0.6304(3) 0.0573(2) 0.1070(2)
C62 C 0.5413(3) 0.0589(3) 0.1092(3)
C63 C 0.5055(3) 0.0690(3) 0.1724(3)
C64 C 0.5246(3) 0.1305(3) 0.2008(3)
C65 C 0.6002(3) 0.1328(3) 0.2335(3)
C66 C 0.6724(3) 0.1224(3) 0.1993(2)
C67 C 0.6776(3) 0.1094(3) 0.1310(2)
C68 C 0.7588(3) 0.0874(3) 0.1178(2)
C69 C 0.7557(3) 0.0233(3) 0.1410(3)
C70 C 0.6712(3) 0.0047(3) 0.1384(3)
C71 C 0.5102(4) -0.0001(3) 0.0834(3)
C72 C 0.6558(4) 0.1818(4) 0.2276(3)
C73 C 0.6381(5) 0.2328(3) 0.1860(4)
C74 C 0.7024(4) 0.1982(5) 0.2854(4)
C75 C 0.8238(3) 0.1258(3) 0.1465(3)
H105 H 0.5345 0.1055 0.0366
H106 H 0.8124 0.0807 0.0429
H107 H 0.6423 0.0540 0.0627
H108 H 0.5235 0.0385 0.2010
H109 H 0.4503 0.0651 0.1681
H110 H 0.5237 0.1597 0.1677
H111 H 0.4851 0.1410 0.2300
H112 H 0.6002 0.1150 0.2751
H113 H 0.7100 0.0999 0.2241
H114 H 0.6659 0.1449 0.1064
H115 H 0.7858 -0.0022 0.1146
H116 H 0.7760 0.0206 0.1834
H117 H 0.6520 -0.0018 0.1800
H118 H 0.6642 -0.0310 0.1141
H119 H 0.4552 0.0012 0.0816
H120 H 0.5267 -0.0318 0.1102
H121 H 0.5294 -0.0064 0.0423
H122 H 0.6060 0.2199 0.1518
H123 H 0.6849 0.2486 0.1703
H124 H 0.6121 0.2627 0.2091
H125 H 0.7498 0.2160 0.2734
H126 H 0.7130 0.1633 0.3096
H127 H 0.6740 0.2257 0.3100
H128 H 0.8724 0.1079 0.1381
H129 H 0.8175 0.1286 0.1908
H130 H 0.8218 0.1646 0.1285
O11 O 0.3103(2) 0.08741(19) 0.95070(17)
O12 O 0.56142(19) 0.11629(16) 0.95053(15)
C76 C 0.4202(3) 0.1085(3) 0.8888(2)
C77 C 0.3323(3) 0.1050(3) 0.8882(3)
C78 C 0.2939(4) 0.0578(5) 0.8470(3)
C79 C 0.3158(4) -0.0062(4) 0.8612(4)
C80 C 0.3863(5) -0.0241(4) 0.8330(3)
C81 C 0.4618(4) 0.0067(3) 0.8516(3)
C82 C 0.4701(3) 0.0546(2) 0.9005(2)
C83 C 0.5492(3) 0.0810(3) 0.8957(2)
C84 C 0.5419(3) 0.1221(3) 0.8386(3)
C85 C 0.4548(3) 0.1358(3) 0.8296(3)
C86 C 0.2971(4) 0.1633(4) 0.8732(4)
C87 C 0.4495(5) -0.0596(4) 0.8669(4)
C88 C 0.4389(6) -0.0774(4) 0.9306(4)
C89 C 0.4928(6) -0.1023(4) 0.8276(5)
C90 C 0.6166(3) 0.0378(3) 0.8919(3)
H131 H 0.3411 0.1009 0.9763
H132 H 0.6026 0.1335 0.9484
H133 H 0.4336 0.1361 0.9226
H134 H 0.2389 0.0617 0.8506
H135 H 0.3063 0.0661 0.8040
H136 H 0.3208 -0.0112 0.9060
H137 H 0.2748 -0.0320 0.8465
H138 H 0.3812 -0.0330 0.7884
H139 H 0.4955 0.0127 0.8162
H140 H 0.4621 0.0386 0.9423
H141 H 0.5617 0.1029 0.8019
H142 H 0.5705 0.1584 0.8458
H143 H 0.4455 0.1780 0.8274
H144 H 0.4341 0.1172 0.7921
H145 H 0.2423 0.1602 0.8748
H146 H 0.3115 0.1752 0.8321
H147 H 0.3149 0.1922 0.9030
H148 H 0.4166 -0.1162 0.9314
H149 H 0.4053 -0.0499 0.9505
H150 H 0.4875 -0.0779 0.9523
H151 H 0.5383 -0.1148 0.8498
H152 H 0.5066 -0.0835 0.7894
H153 H 0.4611 -0.1361 0.8185
H154 H 0.6639 0.0595 0.8927
H155 H 0.6123 0.0157 0.8538
H156 H 0.6157 0.0112 0.9267
O13 O 0.47832(18) 0.25946(15) 0.43697(14)
O14 O 0.22649(18) 0.23856(16) 0.45378(15)
C91 C 0.3623(3) 0.2208(2) 0.3893(2)
C92 C 0.4505(3) 0.2233(2) 0.3859(2)
C93 C 0.4823(3) 0.2521(2) 0.3296(2)
C94 C 0.4630(3) 0.3164(3) 0.3202(2)
C95 C 0.3890(3) 0.3240(3) 0.2847(2)
C96 C 0.3151(3) 0.3026(2) 0.3150(2)
C97 C 0.3148(3) 0.2766(2) 0.3790(2)
C98 C 0.2323(3) 0.2509(3) 0.3893(2)
C99 C 0.2363(3) 0.1916(3) 0.3526(3)
C100 C 0.3209(3) 0.1758(3) 0.3484(3)
C101 C 0.4834(4) 0.1614(3) 0.3932(3)
C102 C 0.3257(3) 0.3668(3) 0.3000(3)
C103 C 0.3351(4) 0.4106(3) 0.3524(3)
C104 C 0.2779(5) 0.3905(4) 0.2438(4)
C105 C 0.1640(3) 0.2922(3) 0.3706(3)
H157 H 0.4683 0.2434 0.4701
H158 H 0.1935 0.2133 0.4590
H159 H 0.3519 0.2085 0.4321
H160 H 0.4642 0.2304 0.2931
H161 H 0.5377 0.2482 0.3316
H162 H 0.4593 0.3356 0.3605
H163 H 0.5038 0.3355 0.2977
H164 H 0.3921 0.3145 0.2403
H165 H 0.2802 0.2824 0.2857
H166 H 0.3276 0.3065 0.4105
H167 H 0.2089 0.1607 0.3743
H168 H 0.2136 0.1961 0.3113
H169 H 0.3303 0.1360 0.3635
H170 H 0.3378 0.1786 0.3057
H171 H 0.5381 0.1638 0.3985
H172 H 0.4710 0.1385 0.3567
H173 H 0.4619 0.1429 0.4291
H174 H 0.2861 0.4182 0.3704
H175 H 0.3558 0.4468 0.3366
H176 H 0.3694 0.3948 0.3837
H177 H 0.2809 0.3633 0.2097
H178 H 0.2976 0.4282 0.2313
H179 H 0.2254 0.3949 0.2555
H180 H 0.1165 0.2719 0.3769
H181 H 0.1677 0.3030 0.3275
H182 H 0.1658 0.3272 0.3959
O15 O 0.88272(19) 0.30558(15) 0.48979(18)
O16 O 0.63028(19) 0.28407(14) 0.47191(17)
C106 C 0.7691(3) 0.3325(2) 0.4325(3)
C107 C 0.8563(3) 0.3349(2) 0.4340(3)
C108 C 0.8929(3) 0.3959(3) 0.4361(4)
C109 C 0.8754(3) 0.4311(3) 0.4932(4)
C110 C 0.8017(3) 0.4638(2) 0.4891(3)
C111 C 0.7285(3) 0.4301(2) 0.4844(3)
C112 C 0.7228(3) 0.3620(2) 0.4817(3)
C113 C 0.6394(3) 0.3466(2) 0.4616(3)
C114 C 0.6446(3) 0.3574(3) 0.3894(3)
C115 C 0.7278(3) 0.3537(3) 0.3734(3)
C116 C 0.8871(4) 0.3024(3) 0.3789(3)
C117 C 0.7428(4) 0.4662(3) 0.5394(4)
C118 C 0.6974(4) 0.5232(3) 0.5432(5)
C119 C 0.7579(5) 0.4379(4) 0.5981(5)
C120 C 0.5762(3) 0.3785(3) 0.4932(3)
H183 H 0.8658 0.2718 0.4903
H184 H 0.5846 0.2756 0.4704
H185 H 0.7564 0.2905 0.4356
H186 H 0.9481 0.3914 0.4337
H187 H 0.8757 0.4180 0.3997
H188 H 0.8741 0.4046 0.5287
H189 H 0.9165 0.4592 0.5007
H190 H 0.8030 0.4991 0.4627
H191 H 0.6917 0.4489 0.4556
H192 H 0.7350 0.3449 0.5227
H193 H 0.6154 0.3277 0.3667
H194 H 0.6242 0.3960 0.3786
H195 H 0.7468 0.3921 0.3610
H196 H 0.7352 0.3261 0.3396
H197 H 0.9418 0.2993 0.3830
H198 H 0.8739 0.3235 0.3414
H199 H 0.8652 0.2635 0.3771
H200 H 0.7026 0.5450 0.5052
H201 H 0.7165 0.5464 0.5775
H202 H 0.6443 0.5142 0.5492
H203 H 0.7111 0.4220 0.6138
H204 H 0.7786 0.4662 0.6272
H205 H 0.7942 0.4065 0.5927
H206 H 0.5287 0.3580 0.4856
H207 H 0.5723 0.4179 0.4770
H208 H 0.5868 0.3799 0.5372
O17 O 1.08011(18) 0.19664(14) 0.47440(16)
O18 O 0.83287(19) 0.19208(15) 0.51232(16)
C121 C 0.9756(3) 0.1375(2) 0.5091(2)
C122 C 1.0631(3) 0.1400(2) 0.5008(2)
C123 C 1.0996(3) 0.0959(2) 0.4575(3)
C124 C 1.0730(3) 0.0990(2) 0.3909(3)
C125 C 0.9994(3) 0.0651(2) 0.3786(2)
C126 C 0.9280(3) 0.0831(2) 0.4103(2)
C127 C 0.9210(3) 0.1372(2) 0.4528(2)
C128 C 0.8434(3) 0.1343(2) 0.4838(2)
C129 C 0.8577(3) 0.0883(2) 0.5367(3)
C130 C 0.9442(3) 0.0846(3) 0.5485(3)
C131 C 1.1033(4) 0.1350(3) 0.5652(3)
C132 C 0.9327(3) 0.0868(2) 0.3400(2)
C133 C 0.8863(4) 0.0423(3) 0.3034(3)
C134 C 0.9373(4) 0.1465(3) 0.3096(3)
C135 C 0.7760(3) 0.1213(3) 0.4407(3)
H209 H 1.0611 0.2227 0.4956
H210 H 0.7936 0.1919 0.5327
H211 H 0.9628 0.1732 0.5326
H212 H 1.1547 0.1018 0.4592
H213 H 1.0895 0.0564 0.4730
H214 H 1.1127 0.0833 0.3647
H215 H 1.0651 0.1401 0.3795
H216 H 1.0066 0.0222 0.3767
H217 H 0.8976 0.0493 0.4243
H218 H 0.9259 0.1738 0.4288
H219 H 0.8322 0.1006 0.5743
H220 H 0.8377 0.0500 0.5242
H221 H 0.9645 0.0472 0.5342
H222 H 0.9570 0.0894 0.5924
H223 H 1.1577 0.1390 0.5606
H224 H 1.0923 0.0971 0.5831
H225 H 1.0851 0.1656 0.5920
H226 H 0.8342 0.0558 0.2993
H227 H 0.8874 0.0050 0.3247
H228 H 0.9075 0.0378 0.2628
H229 H 0.9553 0.1421 0.2679
H230 H 0.9721 0.1711 0.3331
H231 H 0.8874 0.1644 0.3085
H232 H 0.7296 0.1222 0.4639
H233 H 0.7822 0.0829 0.4226
H234 H 0.7735 0.1505 0.4083
O19 O 1.0803(2) 0.54790(16) 0.96442(18)
O20 O 0.83093(19) 0.56506(16) 0.99508(17)
C136 C 0.9648(3) 0.4988(3) 0.9986(3)
C137 C 1.0531(3) 0.4937(3) 0.9932(3)
C138 C 1.0824(4) 0.4446(3) 0.9506(4)
C139 C 1.0590(4) 0.4497(3) 0.8846(4)
C140 C 0.9832(4) 0.4206(3) 0.8708(3)
C141 C 0.9120(3) 0.4443(3) 0.9001(3)
C142 C 0.9120(3) 0.5004(2) 0.9390(3)
C143 C 0.8340(3) 0.5061(3) 0.9700(3)
C144 C 0.8393(4) 0.4618(3) 1.0253(3)
C145 C 0.9248(4) 0.4519(3) 1.0387(3)
C146 C 1.0885(4) 0.4880(4) 1.0588(3)
C147 C 0.9190(4) 0.4436(3) 0.8312(4)
C148 C 0.9244(5) 0.4982(4) 0.7941(3)
C149 C 0.8707(5) 0.3970(4) 0.7956(4)
C150 C 0.7652(3) 0.4964(3) 0.9272(3)
H235 H 1.0753 0.5755 0.9887
H236 H 0.7864 0.5735 1.0026
H237 H 0.9559 0.5365 1.0197
H238 H 1.1379 0.4442 0.9533
H239 H 1.0644 0.4070 0.9662
H240 H 1.0979 0.4317 0.8591
H241 H 1.0557 0.4912 0.8734
H242 H 0.9859 0.3773 0.8713
H243 H 0.8781 0.4134 0.9159
H244 H 0.9229 0.5351 0.9134
H245 H 0.8147 0.4780 1.0616
H246 H 0.8144 0.4248 1.0142
H247 H 0.9400 0.4123 1.0267
H248 H 0.9370 0.4576 1.0825
H249 H 1.1434 0.4886 1.0565
H250 H 1.0724 0.4515 1.0772
H251 H 1.0719 0.5205 1.0840
H252 H 0.9564 0.5262 0.8158
H253 H 0.8742 0.5147 0.7878
H254 H 0.9462 0.4893 0.7544
H255 H 0.8641 0.3629 0.8216
H256 H 0.8966 0.3857 0.7584
H257 H 0.8215 0.4133 0.7847
H258 H 0.7194 0.4964 0.9512
H259 H 0.7701 0.4591 0.9063
H260 H 0.7625 0.5275 0.8968
loop_
_geom_bond_atom_site_label_1
_geom_bond_atom_site_label_2
_geom_bond_site_symmetry_1
_geom_bond_site_symmetry_2
O1 C2 1_555 1_555
O2 C8 1_555 1_555
C1 C2 1_555 1_555
C2 C3 1_555 1_555
C3 C4 1_555 1_555
C4 C5 1_555 1_555
C5 C6 1_555 1_555
C6 C7 1_555 1_555
C7 C1 1_555 1_555
C8 C7 1_555 1_555
C9 C8 1_555 1_555
C10 C1 1_555 1_555
C11 C2 1_555 1_555
C12 C5 1_555 1_555
C13 C12 1_555 1_555
C14 C12 1_555 1_555
C15 C8 1_555 1_555
H1 O1 1_555 1_555
H2 O2 1_555 1_555
H3 C1 1_555 1_555
H4 C3 1_555 1_555
H5 C3 1_555 1_555
H6 C4 1_555 1_555
H7 C4 1_555 1_555
H8 C5 1_555 1_555
H9 C6 1_555 1_555
H10 C7 1_555 1_555
H11 C9 1_555 1_555
H12 C9 1_555 1_555
H13 C10 1_555 1_555
H14 C10 1_555 1_555
H15 C11 1_555 1_555
H16 C11 1_555 1_555
H17 C11 1_555 1_555
H18 C13 1_555 1_555
H19 C13 1_555 1_555
H20 C13 1_555 1_555
H21 C14 1_555 1_555
H22 C14 1_555 1_555
H23 C14 1_555 1_555
H24 C15 1_555 1_555
H25 C15 1_555 1_555
H26 C15 1_555 1_555
O3 C17 1_555 1_555
O4 C23 1_555 1_555
C16 C17 1_555 1_555
C17 C18 1_555 1_555
C18 C19 1_555 1_555
C19 C20 1_555 1_555
C20 C21 1_555 1_555
C21 C22 1_555 1_555
C22 C16 1_555 1_555
C23 C22 1_555 1_555
C24 C23 1_555 1_555
C25 C16 1_555 1_555
C26 C17 1_555 1_555
C27 C20 1_555 1_555
C28 C27 1_555 1_555
C29 C27 1_555 1_555
C30 C23 1_555 1_555
H27 O3 1_555 1_555
H28 O4 1_555 1_555
H29 C16 1_555 1_555
H30 C18 1_555 1_555
H31 C18 1_555 1_555
H32 C19 1_555 1_555
H33 C19 1_555 1_555
H34 C20 1_555 1_555
H35 C21 1_555 1_555
H36 C22 1_555 1_555
H37 C24 1_555 1_555
H38 C24 1_555 1_555
H39 C25 1_555 1_555
H40 C25 1_555 1_555
H41 C26 1_555 1_555
H42 C26 1_555 1_555
H43 C26 1_555 1_555
H44 C28 1_555 1_555
H45 C28 1_555 1_555
H46 C28 1_555 1_555
H47 C29 1_555 1_555
H48 C29 1_555 1_555
H49 C29 1_555 1_555
H50 C30 1_555 1_555
H51 C30 1_555 1_555
H52 C30 1_555 1_555
O5 C32 1_555 1_555
O6 C38 1_555 1_555
C31 C32 1_555 1_555
C32 C33 1_555 1_555
C33 C34 1_555 1_555
C34 C35 1_555 1_555
C35 C36 1_555 1_555
C36 C37 1_555 1_555
C37 C31 1_555 1_555
C38 C37 1_555 1_555
C39 C38 1_555 1_555
C40 C31 1_555 1_555
C41 C32 1_555 1_555
C42 C35 1_555 1_555
C43 C42 1_555 1_555
C44 C42 1_555 1_555
C45 C38 1_555 1_555
H53 O5 1_555 1_555
H54 O6 1_555 1_555
H55 C31 1_555 1_555
H56 C33 1_555 1_555
H57 C33 1_555 1_555
H58 C34 1_555 1_555
H59 C34 1_555 1_555
H60 C35 1_555 1_555
H61 C36 1_555 1_555
H62 C37 1_555 1_555
H63 C39 1_555 1_555
H64 C39 1_555 1_555
H65 C40 1_555 1_555
H66 C40 1_555 1_555
H67 C41 1_555 1_555
H68 C41 1_555 1_555
H69 C41 1_555 1_555
H70 C43 1_555 1_555
H71 C43 1_555 1_555
H72 C43 1_555 1_555
H73 C44 1_555 1_555
H74 C44 1_555 1_555
H75 C44 1_555 1_555
H76 C45 1_555 1_555
H77 C45 1_555 1_555
H78 C45 1_555 1_555
O7 C47 1_555 1_555
O8 C53 1_555 1_555
C46 C47 1_555 1_555
C47 C48 1_555 1_555
C48 C49 1_555 1_555
C49 C50 1_555 1_555
C50 C51 1_555 1_555
C51 C52 1_555 1_555
C52 C46 1_555 1_555
C53 C52 1_555 1_555
C54 C53 1_555 1_555
C55 C46 1_555 1_555
C56 C47 1_555 1_555
C57 C50 1_555 1_555
C58 C57 1_555 1_555
C59 C57 1_555 1_555
C60 C53 1_555 1_555
H79 O7 1_555 1_555
H80 O8 1_555 1_555
H81 C46 1_555 1_555
H82 C48 1_555 1_555
H83 C48 1_555 1_555
H84 C49 1_555 1_555
H85 C49 1_555 1_555
H86 C50 1_555 1_555
H87 C51 1_555 1_555
H88 C52 1_555 1_555
H89 C54 1_555 1_555
H90 C54 1_555 1_555
H91 C55 1_555 1_555
H92 C55 1_555 1_555
H93 C56 1_555 1_555
H94 C56 1_555 1_555
H95 C56 1_555 1_555
H96 C58 1_555 1_555
H97 C58 1_555 1_555
H98 C58 1_555 1_555
H99 C59 1_555 1_555
H100 C59 1_555 1_555
H101 C59 1_555 1_555
H102 C60 1_555 1_555
H103 C60 1_555 1_555
H104 C60 1_555 1_555
O9 C62 1_555 1_555
O10 C68 1_555 1_555
C61 C62 1_555 1_555
C62 C63 1_555 1_555
C63 C64 1_555 1_555
C64 C65 1_555 1_555
C65 C66 1_555 1_555
C66 C67 1_555 1_555
C67 C61 1_555 1_555
C68 C67 1_555 1_555
C69 C68 1_555 1_555
C70 C61 1_555 1_555
C71 C62 1_555 1_555
C72 C65 1_555 1_555
C73 C72 1_555 1_555
C74 C72 1_555 1_555
C75 C68 1_555 1_555
H105 O9 1_555 1_555
H106 O10 1_555 1_555
H107 C61 1_555 1_555
H108 C63 1_555 1_555
H109 C63 1_555 1_555
H110 C64 1_555 1_555
H111 C64 1_555 1_555
H112 C65 1_555 1_555
H113 C66 1_555 1_555
H114 C67 1_555 1_555
H115 C69 1_555 1_555
H116 C69 1_555 1_555
H117 C70 1_555 1_555
H118 C70 1_555 1_555
H119 C71 1_555 1_555
H120 C71 1_555 1_555
H121 C71 1_555 1_555
H122 C73 1_555 1_555
H123 C73 1_555 1_555
H124 C73 1_555 1_555
H125 C74 1_555 1_555
H126 C74 1_555 1_555
H127 C74 1_555 1_555
H128 C75 1_555 1_555
H129 C75 1_555 1_555
H130 C75 1_555 1_555
O11 C77 1_555 1_555
O12 C83 1_555 1_555
C76 C77 1_555 1_555
C77 C78 1_555 1_555
C78 C79 1_555 1_555
C79 C80 1_555 1_555
C80 C81 1_555 1_555
C81 C82 1_555 1_555
C82 C76 1_555 1_555
C83 C82 1_555 1_555
C84 C83 1_555 1_555
C85 C76 1_555 1_555
C86 C77 1_555 1_555
C87 C80 1_555 1_555
C88 C87 1_555 1_555
C89 C87 1_555 1_555
C90 C83 1_555 1_555
H131 O11 1_555 1_555
H132 O12 1_555 1_555
H133 C76 1_555 1_555
H134 C78 1_555 1_555
H135 C78 1_555 1_555
H136 C79 1_555 1_555
H137 C79 1_555 1_555
H138 C80 1_555 1_555
H139 C81 1_555 1_555
H140 C82 1_555 1_555
H141 C84 1_555 1_555
H142 C84 1_555 1_555
H143 C85 1_555 1_555
H144 C85 1_555 1_555
H145 C86 1_555 1_555
H146 C86 1_555 1_555
H147 C86 1_555 1_555
H148 C88 1_555 1_555
H149 C88 1_555 1_555
H150 C88 1_555 1_555
H151 C89 1_555 1_555
H152 C89 1_555 1_555
H153 C89 1_555 1_555
H154 C90 1_555 1_555
H155 C90 1_555 1_555
H156 C90 1_555 1_555
O13 C92 1_555 1_555
O14 C98 1_555 1_555
C91 C92 1_555 1_555
C92 C93 1_555 1_555
C93 C94 1_555 1_555
C94 C95 1_555 1_555
C95 C96 1_555 1_555
C96 C97 1_555 1_555
C97 C91 1_555 1_555
C98 C97 1_555 1_555
C99 C98 1_555 1_555
C100 C91 1_555 1_555
C101 C92 1_555 1_555
C102 C95 1_555 1_555
C103 C102 1_555 1_555
C104 C102 1_555 1_555
C105 C98 1_555 1_555
H157 O13 1_555 1_555
H158 O14 1_555 1_555
H159 C91 1_555 1_555
H160 C93 1_555 1_555
H161 C93 1_555 1_555
H162 C94 1_555 1_555
H163 C94 1_555 1_555
H164 C95 1_555 1_555
H165 C96 1_555 1_555
H166 C97 1_555 1_555
H167 C99 1_555 1_555
H168 C99 1_555 1_555
H169 C100 1_555 1_555
H170 C100 1_555 1_555
H171 C101 1_555 1_555
H172 C101 1_555 1_555
H173 C101 1_555 1_555
H174 C103 1_555 1_555
H175 C103 1_555 1_555
H176 C103 1_555 1_555
H177 C104 1_555 1_555
H178 C104 1_555 1_555
H179 C104 1_555 1_555
H180 C105 1_555 1_555
H181 C105 1_555 1_555
H182 C105 1_555 1_555
O15 C107 1_555 1_555
O16 C113 1_555 1_555
C106 C107 1_555 1_555
C107 C108 1_555 1_555
C108 C109 1_555 1_555
C109 C110 1_555 1_555
C110 C111 1_555 1_555
C111 C112 1_555 1_555
C112 C106 1_555 1_555
C113 C112 1_555 1_555
C114 C113 1_555 1_555
C115 C106 1_555 1_555
C116 C107 1_555 1_555
C117 C110 1_555 1_555
C118 C117 1_555 1_555
C119 C117 1_555 1_555
C120 C113 1_555 1_555
H183 O15 1_555 1_555
H184 O16 1_555 1_555
H185 C106 1_555 1_555
H186 C108 1_555 1_555
H187 C108 1_555 1_555
H188 C109 1_555 1_555
H189 C109 1_555 1_555
H190 C110 1_555 1_555
H191 C111 1_555 1_555
H192 C112 1_555 1_555
H193 C114 1_555 1_555
H194 C114 1_555 1_555
H195 C115 1_555 1_555
H196 C115 1_555 1_555
H197 C116 1_555 1_555
H198 C116 1_555 1_555
H199 C116 1_555 1_555
H200 C118 1_555 1_555
H201 C118 1_555 1_555
H202 C118 1_555 1_555
H203 C119 1_555 1_555
H204 C119 1_555 1_555
H205 C119 1_555 1_555
H206 C120 1_555 1_555
H207 C120 1_555 1_555
H208 C120 1_555 1_555
O17 C122 1_555 1_555
O18 C128 1_555 1_555
C121 C122 1_555 1_555
C122 C123 1_555 1_555
C123 C124 1_555 1_555
C124 C125 1_555 1_555
C125 C126 1_555 1_555
C126 C127 1_555 1_555
C127 C121 1_555 1_555
C128 C127 1_555 1_555
C129 C128 1_555 1_555
C130 C121 1_555 1_555
C131 C122 1_555 1_555
C132 C125 1_555 1_555
C133 C132 1_555 1_555
C134 C132 1_555 1_555
C135 C128 1_555 1_555
H209 O17 1_555 1_555
H210 O18 1_555 1_555
H211 C121 1_555 1_555
H212 C123 1_555 1_555
H213 C123 1_555 1_555
H214 C124 1_555 1_555
H215 C124 1_555 1_555
H216 C125 1_555 1_555
H217 C126 1_555 1_555
H218 C127 1_555 1_555
H219 C129 1_555 1_555
H220 C129 1_555 1_555
H221 C130 1_555 1_555
H222 C130 1_555 1_555
H223 C131 1_555 1_555
H224 C131 1_555 1_555
H225 C131 1_555 1_555
H226 C133 1_555 1_555
H227 C133 1_555 1_555
H228 C133 1_555 1_555
H229 C134 1_555 1_555
H230 C134 1_555 1_555
H231 C134 1_555 1_555
H232 C135 1_555 1_555
H233 C135 1_555 1_555
H234 C135 1_555 1_555
O19 C137 1_555 1_555
O20 C143 1_555 1_555
C136 C137 1_555 1_555
C137 C138 1_555 1_555
C138 C139 1_555 1_555
C139 C140 1_555 1_555
C140 C141 1_555 1_555
C141 C142 1_555 1_555
C142 C136 1_555 1_555
C143 C142 1_555 1_555
C144 C143 1_555 1_555
C145 C136 1_555 1_555
C146 C137 1_555 1_555
C147 C140 1_555 1_555
C148 C147 1_555 1_555
C149 C147 1_555 1_555
C150 C143 1_555 1_555
H235 O19 1_555 1_555
H236 O20 1_555 1_555
H237 C136 1_555 1_555
H238 C138 1_555 1_555
H239 C138 1_555 1_555
H240 C139 1_555 1_555
H241 C139 1_555 1_555
H242 C140 1_555 1_555
H243 C141 1_555 1_555
H244 C142 1_555 1_555
H245 C144 1_555 1_555
H246 C144 1_555 1_555
H247 C145 1_555 1_555
H248 C145 1_555 1_555
H249 C146 1_555 1_555
H250 C146 1_555 1_555
H251 C146 1_555 1_555
H252 C148 1_555 1_555
H253 C148 1_555 1_555
H254 C148 1_555 1_555
H255 C149 1_555 1_555
H256 C149 1_555 1_555
H257 C149 1_555 1_555
H258 C150 1_555 1_555
H259 C150 1_555 1_555
H260 C150 1_555 1_555
C6 C12 1_555 1_555
C9 C10 1_555 1_555
C21 C27 1_555 1_555
C24 C25 1_555 1_555
C36 C42 1_555 1_555
C39 C40 1_555 1_555
C51 C57 1_555 1_555
C54 C55 1_555 1_555
C66 C72 1_555 1_555
C69 C70 1_555 1_555
C81 C87 1_555 1_555
C84 C85 1_555 1_555
C96 C102 1_555 1_555
C99 C100 1_555 1_555
C111 C117 1_555 1_555
C114 C115 1_555 1_555
C126 C132 1_555 1_555
C129 C130 1_555 1_555
C141 C147 1_555 1_555
C144 C145 1_555 1_555

#END
