
#######################################################################
#
#                 Cambridge Crystallographic Data Centre
#                                CCDC 
#
#######################################################################
#
# If this CIF has been generated from an entry in the Cambridge 
# Structural Database, then it will include bibliographic, chemical, 
# crystal, experimental, refinement or atomic coordinate data resulting 
# from the CCDC's data processing and validation procedures.
#
#######################################################################

data_KONJOO
_chemical_formula_moiety         'C18 H23 Cl1 N2 O3'
_chemical_name_systematic        
N-t-butyl-2-(4-chlorobenzoyl)-1-isopropyl-4-oxoazetidine-2-carboxamide
_symmetry_cell_setting           triclinic
_symmetry_space_group_name_H-M   'P -1'
_symmetry_Int_Tables_number      2
_space_group_name_Hall           '-P 1'
loop_
_symmetry_equiv_pos_site_id
_symmetry_equiv_pos_as_xyz
1 x,y,z
2 -x,-y,-z
_cell_length_a                   6.8083(17)
_cell_length_b                   11.074(3)
_cell_length_c                   12.607(3)
_cell_angle_alpha                80.438(4)
_cell_angle_beta                 83.901(4)
_cell_angle_gamma                84.695(4)
_cell_volume                     929.279
_exptl_crystal_colour            colorless
_exptl_crystal_description       block
_cell_formula_units_Z            2
loop_
_atom_site_label
_atom_site_type_symbol
_atom_site_fract_x
_atom_site_fract_y
_atom_site_fract_z
C1 C 0.1132(5) 0.2111(3) 0.2980(3)
C2 C 0.2495(7) 0.2678(4) 0.2226(4)
H1 H 0.2924 0.2348 0.1602
C3 C 0.3216(6) 0.3734(3) 0.2399(3)
H2 H 0.4130 0.4123 0.1885
C4 C 0.2606(4) 0.4234(3) 0.3330(2)
C5 C 0.1194(5) 0.3653(3) 0.4074(3)
H3 H 0.0738 0.3990 0.4691
C6 C 0.0471(5) 0.2595(3) 0.3910(3)
H4 H -0.0454 0.2205 0.4417
C7 C 0.3389(4) 0.5350(3) 0.3592(2)
C8 C 0.4918(4) 0.6022(3) 0.2777(2)
C9 C 0.7066(4) 0.5378(3) 0.2821(3)
H5 H 0.7190 0.4666 0.3380
H6 H 0.7700 0.5209 0.2129
C10 C 0.7586(4) 0.6573(3) 0.3137(2)
C11 C 0.4362(4) 0.6436(3) 0.1614(2)
C12 C 0.1810(5) 0.7526(3) 0.0452(2)
C13 C 0.3126(7) 0.8528(4) -0.0106(4)
H7 H 0.3106 0.9149 0.0344
H8 H 0.2644 0.8887 -0.0785
H9 H 0.4458 0.8178 -0.0228
C14 C 0.1762(8) 0.6525(4) -0.0236(4)
H10 H 0.3059 0.6112 -0.0321
H11 H 0.1357 0.6886 -0.0932
H12 H 0.0840 0.5945 0.0113
C15 C -0.0266(5) 0.8118(4) 0.0676(3)
H13 H -0.1135 0.7496 0.0997
H14 H -0.0737 0.8536 0.0010
H15 H -0.0235 0.8697 0.1161
C16 C 0.4697(5) 0.8216(3) 0.3415(3)
H16 H 0.3283 0.8197 0.3339
C17 C 0.5454(7) 0.9274(4) 0.2601(4)
H17 H 0.6861 0.9279 0.2616
H18 H 0.4818 1.0034 0.2780
H19 H 0.5165 0.9180 0.1892
C18 C 0.4893(7) 0.8357(5) 0.4583(4)
H20 H 0.4434 0.7650 0.5059
H21 H 0.4112 0.9080 0.4750
H22 H 0.6257 0.8431 0.4673
Cl1 Cl 0.0225(2) 0.07573(12) 0.27745(14)
N1 N 0.2538(4) 0.6983(2) 0.15061(19)
H23 H 0.1747 0.7020 0.2081
N2 N 0.5678(4) 0.7051(2) 0.3176(2)
O1 O 0.2913(3) 0.5705(2) 0.44438(18)
O2 O 0.5604(3) 0.6315(3) 0.08595(18)
O3 O 0.9121(3) 0.6984(3) 0.32783(19)
loop_
_geom_bond_atom_site_label_1
_geom_bond_atom_site_label_2
_geom_bond_site_symmetry_1
_geom_bond_site_symmetry_2
C1 C2 1_555 1_555
C2 H1 1_555 1_555
C3 C2 1_555 1_555
H2 C3 1_555 1_555
C4 C3 1_555 1_555
C5 C4 1_555 1_555
H3 C5 1_555 1_555
C6 C1 1_555 1_555
H4 C6 1_555 1_555
C7 C4 1_555 1_555
C8 C7 1_555 1_555
C9 C8 1_555 1_555
H5 C9 1_555 1_555
H6 C9 1_555 1_555
C10 C9 1_555 1_555
C11 C8 1_555 1_555
C12 C13 1_555 1_555
C13 H7 1_555 1_555
H8 C13 1_555 1_555
H9 C13 1_555 1_555
C14 C12 1_555 1_555
H10 C14 1_555 1_555
H11 C14 1_555 1_555
H12 C14 1_555 1_555
C15 C12 1_555 1_555
H13 C15 1_555 1_555
H14 C15 1_555 1_555
H15 C15 1_555 1_555
C16 H16 1_555 1_555
C17 C16 1_555 1_555
H17 C17 1_555 1_555
H18 C17 1_555 1_555
H19 C17 1_555 1_555
C18 C16 1_555 1_555
H20 C18 1_555 1_555
H21 C18 1_555 1_555
H22 C18 1_555 1_555
Cl1 C1 1_555 1_555
N1 C11 1_555 1_555
H23 N1 1_555 1_555
N2 C8 1_555 1_555
O1 C7 1_555 1_555
O2 C11 1_555 1_555
O3 C10 1_555 1_555
C5 C6 1_555 1_555
C10 N2 1_555 1_555
C12 N1 1_555 1_555
C16 N2 1_555 1_555

#END
