
#######################################################################
#
#                 Cambridge Crystallographic Data Centre
#                                CCDC 
#
#######################################################################
#
# If this CIF has been generated from an entry in the Cambridge 
# Structural Database, then it will include bibliographic, chemical, 
# crystal, experimental, refinement or atomic coordinate data resulting 
# from the CCDC's data processing and validation procedures.
#
#######################################################################

data_KONMEH
_chemical_formula_moiety         'C19 H18 N2'
_chemical_name_systematic        
2-methyl-8-(4-methylbenzyl)-8H-pyrazolo[5,1-a]isoindole
_symmetry_cell_setting           monoclinic
_symmetry_space_group_name_H-M   'P 21/c'
_symmetry_Int_Tables_number      14
_space_group_name_Hall           '-P 2ybc'
loop_
_symmetry_equiv_pos_site_id
_symmetry_equiv_pos_as_xyz
1 x,y,z
2 -x,1/2+y,1/2-z
3 -x,-y,-z
4 x,1/2-y,1/2+z
_cell_length_a                   16.487(3)
_cell_length_b                   9.0040(15)
_cell_length_c                   20.750(3)
_cell_angle_alpha                90
_cell_angle_beta                 90.418(2)
_cell_angle_gamma                90
_cell_volume                     3080.23
_exptl_crystal_description       block
_cell_formula_units_Z            8
loop_
_atom_site_label
_atom_site_type_symbol
_atom_site_fract_x
_atom_site_fract_y
_atom_site_fract_z
C1 C 0.25334(13) 1.1401(3) 0.38823(12)
H1 H 0.2174 1.1096 0.3561
C2 C 0.27088(15) 1.2895(3) 0.39688(14)
H2 H 0.2469 1.3595 0.3698
C3 C 0.32292(16) 1.3359(3) 0.44460(14)
H3 H 0.3324 1.4368 0.4505
C4 C 0.36127(13) 1.2336(3) 0.48386(11)
H4 H 0.3976 1.2649 0.5155
C5 C 0.34516(11) 1.0851(2) 0.47567(9)
C6 C 0.29035(11) 1.0375(2) 0.42822(10)
C7 C 0.37540(11) 0.9530(2) 0.50822(9)
C8 C 0.42657(12) 0.8957(3) 0.55461(9)
H5 H 0.4617 0.9480 0.5816
C9 C 0.41450(12) 0.7425(3) 0.55250(10)
C10 C 0.28135(12) 0.8705(2) 0.42904(9)
H6 H 0.2260 0.8442 0.4415
C11 C 0.45462(14) 0.6260(3) 0.59268(13)
H7 H 0.4231 0.6087 0.6307
H8 H 0.5080 0.6587 0.6049
H9 H 0.4586 0.5356 0.5683
C12 C 0.30321(12) 0.7899(3) 0.36693(10)
H10 H 0.3000 0.6837 0.3745
H11 H 0.2632 0.8147 0.3342
C13 C 0.38609(13) 0.8256(2) 0.34142(9)
C14 C 0.45417(13) 0.7510(2) 0.36251(10)
H12 H 0.4490 0.6776 0.3937
C15 C 0.52952(14) 0.7829(2) 0.33830(10)
H13 H 0.5742 0.7297 0.3533
C16 C 0.54074(14) 0.8909(3) 0.29264(10)
C17 C 0.47273(16) 0.9669(3) 0.27235(11)
H14 H 0.4781 1.0417 0.2418
C18 C 0.39729(15) 0.9354(3) 0.29603(10)
H15 H 0.3527 0.9891 0.2812
C19 C 0.62308(15) 0.9251(3) 0.26506(13)
H16 H 0.6611 0.9415 0.2996
H17 H 0.6196 1.0127 0.2388
H18 H 0.6409 0.8430 0.2393
N1 N 0.33736(9) 0.83591(18) 0.48197(7)
N2 N 0.35968(10) 0.70396(19) 0.50752(8)
C20 C 0.24067(13) 1.0126(3) 0.14540(12)
H19 H 0.2784 0.9861 0.1144
C21 C 0.21798(15) 1.1600(3) 0.15369(13)
H20 H 0.2411 1.2332 0.1280
C22 C 0.16196(16) 1.1991(3) 0.19925(13)
H21 H 0.1485 1.2986 0.2045
C23 C 0.12522(13) 1.0932(2) 0.23741(11)
H22 H 0.0865 1.1204 0.2676
C24 C 0.14718(11) 0.9458(2) 0.22983(9)
C25 C 0.20592(11) 0.9070(2) 0.18423(10)
C26 C 0.22192(12) 0.7409(2) 0.18630(10)
H23 H 0.2773 0.7237 0.2022
C27 C 0.12192(11) 0.8106(2) 0.26195(9)
C28 C 0.09229(12) 0.5946(2) 0.30604(10)
C29 C 0.07382(12) 0.7464(2) 0.30792(10)
H24 H 0.0368 0.7936 0.3346
C30 C 0.05756(14) 0.4709(3) 0.34486(11)
H25 H 0.0546 0.3827 0.3190
H26 H 0.0041 0.4976 0.3588
H27 H 0.0916 0.4528 0.3818
C31 C 0.20960(12) 0.6558(2) 0.12369(10)
H28 H 0.2526 0.6829 0.0943
H29 H 0.2151 0.5505 0.1327
C32 C 0.12960(12) 0.6808(2) 0.09031(9)
C33 C 0.12258(14) 0.7815(2) 0.04069(11)
H30 H 0.1675 0.8374 0.0288
C34 C 0.05000(16) 0.8009(3) 0.00821(11)
H31 H 0.0471 0.8699 -0.0251
C35 C -0.01811(15) 0.7210(3) 0.02372(11)
C36 C -0.01156(14) 0.6212(3) 0.07371(11)
H32 H -0.0566 0.5657 0.0856
C37 C 0.06059(13) 0.6022(2) 0.10648(10)
H33 H 0.0630 0.5348 0.1404
C38 C -0.09634(15) 0.7414(3) -0.01337(12)
H34 H -0.1297 0.6549 -0.0083
H35 H -0.0846 0.7556 -0.0582
H36 H -0.1245 0.8268 0.0028
N3 N 0.16487(9) 0.69860(17) 0.23602(7)
N4 N 0.14903(10) 0.56484(18) 0.26206(8)
loop_
_geom_bond_atom_site_label_1
_geom_bond_atom_site_label_2
_geom_bond_site_symmetry_1
_geom_bond_site_symmetry_2
C1 H1 1_555 1_555
C2 C1 1_555 1_555
H2 C2 1_555 1_555
C3 C2 1_555 1_555
H3 C3 1_555 1_555
C4 C3 1_555 1_555
H4 C4 1_555 1_555
C5 C4 1_555 1_555
C6 C1 1_555 1_555
C7 C5 1_555 1_555
C8 C7 1_555 1_555
H5 C8 1_555 1_555
C9 C8 1_555 1_555
C10 C6 1_555 1_555
H6 C10 1_555 1_555
C11 C9 1_555 1_555
H7 C11 1_555 1_555
H8 C11 1_555 1_555
H9 C11 1_555 1_555
C12 C10 1_555 1_555
H10 C12 1_555 1_555
H11 C12 1_555 1_555
C13 C12 1_555 1_555
C14 C13 1_555 1_555
H12 C14 1_555 1_555
C15 C14 1_555 1_555
H13 C15 1_555 1_555
C16 C15 1_555 1_555
C17 C16 1_555 1_555
H14 C17 1_555 1_555
C18 C13 1_555 1_555
H15 C18 1_555 1_555
C19 C16 1_555 1_555
H16 C19 1_555 1_555
H17 C19 1_555 1_555
H18 C19 1_555 1_555
N1 C7 1_555 1_555
N2 C9 1_555 1_555
C20 H19 1_555 1_555
C21 C20 1_555 1_555
H20 C21 1_555 1_555
C22 C21 1_555 1_555
H21 C22 1_555 1_555
C23 C22 1_555 1_555
H22 C23 1_555 1_555
C24 C23 1_555 1_555
C25 C20 1_555 1_555
C26 C25 1_555 1_555
H23 C26 1_555 1_555
C27 C24 1_555 1_555
C28 C29 1_555 1_555
C29 C27 1_555 1_555
H24 C29 1_555 1_555
C30 C28 1_555 1_555
H25 C30 1_555 1_555
H26 C30 1_555 1_555
H27 C30 1_555 1_555
C31 C26 1_555 1_555
H28 C31 1_555 1_555
H29 C31 1_555 1_555
C32 C31 1_555 1_555
C33 C32 1_555 1_555
H30 C33 1_555 1_555
C34 C33 1_555 1_555
H31 C34 1_555 1_555
C35 C34 1_555 1_555
C36 C35 1_555 1_555
H32 C36 1_555 1_555
C37 C32 1_555 1_555
H33 C37 1_555 1_555
C38 C35 1_555 1_555
H34 C38 1_555 1_555
H35 C38 1_555 1_555
H36 C38 1_555 1_555
N3 C26 1_555 1_555
N4 C28 1_555 1_555
C5 C6 1_555 1_555
C10 N1 1_555 1_555
C17 C18 1_555 1_555
N1 N2 1_555 1_555
C24 C25 1_555 1_555
C27 N3 1_555 1_555
C36 C37 1_555 1_555
N3 N4 1_555 1_555

#END
