
#######################################################################
#
#                 Cambridge Crystallographic Data Centre
#                                CCDC 
#
#######################################################################
#
# If this CIF has been generated from an entry in the Cambridge 
# Structural Database, then it will include bibliographic, chemical, 
# crystal, experimental, refinement or atomic coordinate data resulting 
# from the CCDC's data processing and validation procedures.
#
#######################################################################

data_KONMIL
_chemical_formula_moiety         'C19 H18 N2'
_chemical_name_systematic        
8-benzyl-2,6-dimethyl-8H-pyrazolo[5,1-a]isoindole
_symmetry_cell_setting           monoclinic
_symmetry_space_group_name_H-M   'P 21/n'
_symmetry_Int_Tables_number      14
_space_group_name_Hall           '-P 2yn'
loop_
_symmetry_equiv_pos_site_id
_symmetry_equiv_pos_as_xyz
1 x,y,z
2 1/2-x,1/2+y,1/2-z
3 -x,-y,-z
4 1/2+x,1/2-y,1/2+z
_cell_length_a                   8.7959(16)
_cell_length_b                   15.595(3)
_cell_length_c                   11.203(2)
_cell_angle_alpha                90
_cell_angle_beta                 101.217(2)
_cell_angle_gamma                90
_cell_volume                     1507.38
_exptl_crystal_description       block
_cell_formula_units_Z            4
loop_
_atom_site_label
_atom_site_type_symbol
_atom_site_fract_x
_atom_site_fract_y
_atom_site_fract_z
C1 C 0.9074(2) 0.03051(15) 1.19495(17)
H1 H 0.9837 0.0741 1.1918
H2 H 0.9583 -0.0235 1.2153
H3 H 0.8485 0.0453 1.2556
C2 C 0.80091(19) 0.02371(12) 1.07308(16)
C3 C 0.6993(2) 0.09012(12) 1.02870(16)
H4 H 0.6970 0.1396 1.0747
C4 C 0.60309(18) 0.08264(10) 0.91760(15)
C5 C 0.60298(18) 0.00815(10) 0.84723(14)
C6 C 0.70292(19) -0.05840(11) 0.89006(16)
H5 H 0.7043 -0.1082 0.8446
C7 C 0.8004(2) -0.04918(12) 1.00173(16)
H6 H 0.8685 -0.0935 1.0304
C8 C 0.48755(19) 0.14677(11) 0.85133(15)
H7 H 0.4055 0.1564 0.8978
C9 C 0.5557(2) 0.23291(11) 0.82321(18)
H8 H 0.4761 0.2653 0.7697
H9 H 0.5843 0.2650 0.8984
C10 C 0.6956(2) 0.22578(10) 0.76453(16)
C11 C 0.8422(2) 0.23647(13) 0.83200(19)
H10 H 0.8548 0.2494 0.9144
C12 C 0.9712(2) 0.22842(15) 0.7801(2)
H11 H 1.0695 0.2362 0.8272
C13 C 0.9544(3) 0.20892(13) 0.6585(2)
H12 H 1.0412 0.2027 0.6233
C14 C 0.8101(3) 0.19885(13) 0.5904(2)
H13 H 0.7982 0.1862 0.5079
C15 C 0.6807(2) 0.20727(12) 0.64254(18)
H14 H 0.5825 0.2003 0.5947
C16 C 0.48890(17) 0.01890(10) 0.73629(15)
C17 C 0.31194(19) 0.04697(11) 0.57301(16)
C18 C 0.41636(19) -0.01601(11) 0.62716(15)
H15 H 0.4331 -0.0698 0.5962
C19 C 0.2027(2) 0.04293(14) 0.45359(18)
H16 H 0.1038 0.0655 0.4622
H17 H 0.1907 -0.0156 0.4268
H18 H 0.2430 0.0763 0.3948
N1 N 0.42553(15) 0.09750(8) 0.74168(13)
N2 N 0.31731(15) 0.11737(9) 0.64260(13)
loop_
_geom_bond_atom_site_label_1
_geom_bond_atom_site_label_2
_geom_bond_site_symmetry_1
_geom_bond_site_symmetry_2
C1 H1 1_555 1_555
H2 C1 1_555 1_555
H3 C1 1_555 1_555
C2 C1 1_555 1_555
C3 C2 1_555 1_555
H4 C3 1_555 1_555
C4 C3 1_555 1_555
C5 C4 1_555 1_555
C6 C5 1_555 1_555
H5 C6 1_555 1_555
C7 C2 1_555 1_555
H6 C7 1_555 1_555
C8 C4 1_555 1_555
H7 C8 1_555 1_555
C9 C8 1_555 1_555
H8 C9 1_555 1_555
H9 C9 1_555 1_555
C10 C9 1_555 1_555
C11 C10 1_555 1_555
H10 C11 1_555 1_555
C12 C11 1_555 1_555
H11 C12 1_555 1_555
C13 C12 1_555 1_555
H12 C13 1_555 1_555
C14 C13 1_555 1_555
H13 C14 1_555 1_555
C15 C10 1_555 1_555
H14 C15 1_555 1_555
C16 C5 1_555 1_555
C17 C18 1_555 1_555
C18 C16 1_555 1_555
H15 C18 1_555 1_555
C19 C17 1_555 1_555
H16 C19 1_555 1_555
H17 C19 1_555 1_555
H18 C19 1_555 1_555
N1 C8 1_555 1_555
N2 C17 1_555 1_555
C6 C7 1_555 1_555
C14 C15 1_555 1_555
C16 N1 1_555 1_555
N1 N2 1_555 1_555

#END
