
#######################################################################
#
#                 Cambridge Crystallographic Data Centre
#                                CCDC 
#
#######################################################################
#
# If this CIF has been generated from an entry in the Cambridge 
# Structural Database, then it will include bibliographic, chemical, 
# crystal, experimental, refinement or atomic coordinate data resulting 
# from the CCDC's data processing and validation procedures.
#
#######################################################################

data_KONTIQ
_chemical_compound_source        'Geum japonicum'
_chemical_name_common            'gallic acid monohydrate'
_chemical_formula_moiety         'C7 H6 O5,H2 O1'
_chemical_name_systematic        '3,4,5-Trihydroxybenzoic acid monohydrate'
_chemical_properties_biological  
'agent which exhibits antibacterial and antiviral activity'
_symmetry_cell_setting           monoclinic
_symmetry_space_group_name_H-M   'P 21/c'
_symmetry_Int_Tables_number      14
_space_group_name_Hall           '-P 2ybc'
loop_
_symmetry_equiv_pos_site_id
_symmetry_equiv_pos_as_xyz
1 x,y,z
2 -x,1/2+y,1/2-z
3 -x,-y,-z
4 x,1/2-y,1/2+z
_cell_length_a                   5.794(4)
_cell_length_b                   4.719(5)
_cell_length_c                   28.688(5)
_cell_angle_alpha                90
_cell_angle_beta                 95.08(3)
_cell_angle_gamma                90
_cell_volume                     781.303
_exptl_crystal_colour            yellow
_exptl_crystal_description       prism
_cell_formula_units_Z            4
loop_
_atom_site_label
_atom_site_type_symbol
_atom_site_fract_x
_atom_site_fract_y
_atom_site_fract_z
O1 O 0.7751(3) 0.5779(4) 0.28320(5)
H1 H 0.8645 0.7584 0.2911
H2 H 0.7931 0.5493 0.2503
O2 O 0.9971(3) 0.9452(4) 0.11455(6)
H3 H 0.9772 1.0534 0.0922
O3 O 0.9880(3) 0.6028(4) 0.18947(5)
H4 H 1.0507 0.7586 0.1898
O4 O 0.6535(3) 0.2416(4) 0.19812(5)
H5 H 0.5315 0.1563 0.2002
O5 O 0.2646(3) 0.7063(4) 0.01282(6)
H6 H 0.1471 0.6871 -0.0050
O6 O 0.1029(3) 0.3531(4) 0.04903(5)
C1 C 0.4555(4) 0.5521(5) 0.08415(7)
C2 C 0.6327(4) 0.7460(5) 0.07956(8)
H7 H 0.6308 0.8615 0.0533
C3 C 0.8119(4) 0.7646(5) 0.11470(8)
C4 C 0.8137(4) 0.5936(5) 0.15374(7)
C5 C 0.6362(4) 0.4022(5) 0.15812(7)
C6 C 0.4571(4) 0.3782(5) 0.12326(8)
H8 H 0.3390 0.2473 0.1259
C7 C 0.2599(4) 0.5274(5) 0.04787(7)
loop_
_geom_bond_atom_site_label_1
_geom_bond_atom_site_label_2
_geom_bond_site_symmetry_1
_geom_bond_site_symmetry_2
O1 H1 1_555 1_555
H2 O1 1_555 1_555
O2 H3 1_555 1_555
O3 H4 1_555 1_555
O4 H5 1_555 1_555
O5 H6 1_555 1_555
O6 C7 1_555 1_555
C1 C2 1_555 1_555
C2 H7 1_555 1_555
C3 O2 1_555 1_555
C4 O3 1_555 1_555
C5 O4 1_555 1_555
C6 C1 1_555 1_555
H8 C6 1_555 1_555
C7 O5 1_555 1_555
C1 C7 1_555 1_555
C2 C3 1_555 1_555
C3 C4 1_555 1_555
C4 C5 1_555 1_555
C5 C6 1_555 1_555

#END
