
#######################################################################
#
#                 Cambridge Crystallographic Data Centre
#                                CCDC 
#
#######################################################################
#
# If this CIF has been generated from an entry in the Cambridge 
# Structural Database, then it will include bibliographic, chemical, 
# crystal, experimental, refinement or atomic coordinate data resulting 
# from the CCDC's data processing and validation procedures.
#
#######################################################################

data_KONYOD
_chemical_formula_moiety         'C20 H15 N3 O2'
_chemical_name_systematic        
'methyl 5-(1-naphthyl)-1-phenyl-1H-1,2,3-triazole-4-carboxylate'
_symmetry_cell_setting           orthorhombic
_symmetry_space_group_name_H-M   'P c a 21'
_symmetry_Int_Tables_number      29
_space_group_name_Hall           'P 2c -2ac'
loop_
_symmetry_equiv_pos_site_id
_symmetry_equiv_pos_as_xyz
1 x,y,z
2 -x,-y,1/2+z
3 1/2-x,y,1/2+z
4 1/2+x,-y,z
_cell_length_a                   18.9625(10)
_cell_length_b                   8.7607(5)
_cell_length_c                   19.5836(10)
_cell_angle_alpha                90
_cell_angle_beta                 90
_cell_angle_gamma                90
_cell_volume                     3253.32
_exptl_crystal_colour            colorless
_exptl_crystal_description       block
_cell_formula_units_Z            8
loop_
_atom_site_label
_atom_site_type_symbol
_atom_site_fract_x
_atom_site_fract_y
_atom_site_fract_z
O1 O 0.2093(3) 1.0157(8) 0.4749(3)
O2 O 0.2765(3) 1.1338(7) 0.3963(3)
N1 N 0.0691(4) 1.0192(7) 0.3082(4)
N2 N 0.1159(3) 1.0816(8) 0.2643(4)
N3 N 0.1739(3) 1.1058(8) 0.2990(3)
C1 C 0.1640(4) 1.0617(8) 0.3648(4)
C2 C 0.0975(5) 1.0029(9) 0.3708(5)
C3 C 0.0581(4) 0.9194(10) 0.4249(4)
C4 C 0.0528(5) 0.7630(10) 0.4222(6)
H1 H 0.0746 0.7125 0.3848
C5 C 0.0179(5) 0.6727(11) 0.4701(5)
H2 H 0.0167 0.5647 0.4660
C6 C -0.0171(7) 0.7521(13) 0.5276(8)
H3 H -0.0407 0.6962 0.5624
C7 C -0.0145(5) 0.9159(11) 0.5293(4)
C8 C 0.0252(5) 0.9956(12) 0.4765(5)
C9 C 0.0286(4) 1.1621(9) 0.4822(4)
H4 H 0.0556 1.2224 0.4515
C10 C -0.0109(6) 1.2284(13) 0.5362(5)
H5 H -0.0103 1.3362 0.5411
C11 C -0.0485(7) 1.147(2) 0.5802(6)
H6 H -0.0759 1.1959 0.6143
C12 C -0.0474(6) 0.9940(18) 0.5759(7)
H7 H -0.0727 0.9384 0.6097
C13 C -0.0026(4) 0.9816(9) 0.2860(5)
C14 C -0.0569(4) 1.0690(10) 0.3084(5)
H8 H -0.0494 1.1549 0.3371
C15 C -0.1241(4) 1.0271(13) 0.2871(6)
H9 H -0.1635 1.0829 0.3037
C16 C -0.1356(4) 0.9090(10) 0.2434(5)
H10 H -0.1820 0.8849 0.2288
C17 C -0.0787(5) 0.8245(11) 0.2206(6)
H11 H -0.0857 0.7426 0.1895
C18 C -0.0108(4) 0.8604(10) 0.2435(5)
H12 H 0.0287 0.8013 0.2296
C19 C 0.2180(4) 1.0689(8) 0.4188(4)
C20 C 0.3339(4) 1.1455(12) 0.4439(5)
H13 H 0.3441 1.0446 0.4631
H14 H 0.3210 1.2159 0.4807
H15 H 0.3759 1.1841 0.4202
O3 O 0.0415(4) 0.4968(8) 0.1603(4)
O4 O -0.0253(3) 0.3760(7) 0.2371(3)
N4 N 0.1806(3) 0.4962(6) 0.3289(3)
N5 N 0.1313(3) 0.4354(8) 0.3724(3)
N6 N 0.0744(3) 0.4085(7) 0.3364(3)
C21 C 0.0861(4) 0.4559(8) 0.2710(4)
C22 C 0.1541(4) 0.5106(8) 0.2662(5)
C23 C 0.1916(4) 0.5977(9) 0.2121(5)
C24 C 0.1967(4) 0.7534(9) 0.2129(5)
H16 H 0.1742 0.8039 0.2499
C25 C 0.2307(5) 0.8465(11) 0.1659(5)
H17 H 0.2328 0.9545 0.1694
C26 C 0.2617(5) 0.7630(14) 0.1127(5)
H18 H 0.2831 0.8193 0.0768
C27 C 0.2638(4) 0.6033(9) 0.1081(4)
C28 C 0.2259(4) 0.5206(12) 0.1588(5)
C29 C 0.2248(4) 0.3538(11) 0.1561(4)
H19 H 0.2005 0.2940 0.1890
C30 C 0.2600(4) 0.2915(12) 0.1045(4)
H20 H 0.2583 0.1834 0.1009
C31 C 0.2998(6) 0.3699(15) 0.0541(5)
H21 H 0.3252 0.3152 0.0202
C32 C 0.3008(5) 0.5190(16) 0.0553(5)
H22 H 0.3261 0.5731 0.0211
C33 C 0.2486(4) 0.5308(9) 0.3534(4)
C34 C 0.2574(5) 0.6465(9) 0.4021(5)
H23 H 0.2177 0.7014 0.4186
C35 C 0.3239(5) 0.6799(10) 0.4257(6)
H24 H 0.3303 0.7577 0.4589
C36 C 0.3824(5) 0.5988(11) 0.4006(5)
H25 H 0.4282 0.6216 0.4173
C37 C 0.3740(5) 0.4887(11) 0.3530(6)
H26 H 0.4138 0.4343 0.3365
C38 C 0.3070(4) 0.4548(11) 0.3279(4)
H27 H 0.3014 0.3796 0.2934
C39 C 0.0330(4) 0.4466(9) 0.2169(4)
C40 C -0.0815(4) 0.3612(12) 0.1860(5)
H28 H -0.0734 0.2695 0.1584
H29 H -0.0814 0.4513 0.1563
H30 H -0.1272 0.3531 0.2091
loop_
_geom_bond_atom_site_label_1
_geom_bond_atom_site_label_2
_geom_bond_site_symmetry_1
_geom_bond_site_symmetry_2
O1 C19 1_555 1_555
O2 C19 1_555 1_555
N1 N2 1_555 1_555
N2 N3 1_555 1_555
N3 C1 1_555 1_555
C1 C2 1_555 1_555
C2 N1 1_555 1_555
C3 C2 1_555 1_555
C4 C3 1_555 1_555
H1 C4 1_555 1_555
C5 C4 1_555 1_555
H2 C5 1_555 1_555
C6 C5 1_555 1_555
H3 C6 1_555 1_555
C7 C6 1_555 1_555
C8 C3 1_555 1_555
C9 C8 1_555 1_555
H4 C9 1_555 1_555
C10 C9 1_555 1_555
H5 C10 1_555 1_555
C11 C10 1_555 1_555
H6 C11 1_555 1_555
C12 C7 1_555 1_555
H7 C12 1_555 1_555
C13 N1 1_555 1_555
C14 C13 1_555 1_555
H8 C14 1_555 1_555
C15 C14 1_555 1_555
H9 C15 1_555 1_555
C16 C15 1_555 1_555
H10 C16 1_555 1_555
C17 C16 1_555 1_555
H11 C17 1_555 1_555
C18 C13 1_555 1_555
H12 C18 1_555 1_555
C19 C1 1_555 1_555
C20 O2 1_555 1_555
H13 C20 1_555 1_555
H14 C20 1_555 1_555
H15 C20 1_555 1_555
O3 C39 1_555 1_555
O4 C39 1_555 1_555
N4 N5 1_555 1_555
N5 N6 1_555 1_555
N6 C21 1_555 1_555
C21 C22 1_555 1_555
C22 N4 1_555 1_555
C23 C22 1_555 1_555
C24 C23 1_555 1_555
H16 C24 1_555 1_555
C25 C24 1_555 1_555
H17 C25 1_555 1_555
C26 C25 1_555 1_555
H18 C26 1_555 1_555
C27 C26 1_555 1_555
C28 C23 1_555 1_555
C29 C28 1_555 1_555
H19 C29 1_555 1_555
C30 C29 1_555 1_555
H20 C30 1_555 1_555
C31 C30 1_555 1_555
H21 C31 1_555 1_555
C32 C27 1_555 1_555
H22 C32 1_555 1_555
C33 N4 1_555 1_555
C34 C33 1_555 1_555
H23 C34 1_555 1_555
C35 C34 1_555 1_555
H24 C35 1_555 1_555
C36 C35 1_555 1_555
H25 C36 1_555 1_555
C37 C36 1_555 1_555
H26 C37 1_555 1_555
C38 C33 1_555 1_555
H27 C38 1_555 1_555
C39 C21 1_555 1_555
C40 O4 1_555 1_555
H28 C40 1_555 1_555
H29 C40 1_555 1_555
H30 C40 1_555 1_555
C7 C8 1_555 1_555
C11 C12 1_555 1_555
C17 C18 1_555 1_555
C27 C28 1_555 1_555
C31 C32 1_555 1_555
C37 C38 1_555 1_555

#END
