
#######################################################################
#
#                 Cambridge Crystallographic Data Centre
#                                CCDC 
#
#######################################################################
#
# If this CIF has been generated from an entry in the Cambridge 
# Structural Database, then it will include bibliographic, chemical, 
# crystal, experimental, refinement or atomic coordinate data resulting 
# from the CCDC's data processing and validation procedures.
#
#######################################################################

data_KOPLAE
_chemical_formula_moiety         'C27 H22 N2 O4,0.5(H2 O1)'
_chemical_name_systematic        
'methyl 10-benzyl-1-(4-methoxyphenyl)-4-oxo-1,4-dihydropyrimido[1,2-a]indole-3-carboxylate hemihydrate'
_symmetry_cell_setting           monoclinic
_symmetry_space_group_name_H-M   'C 2/c'
_symmetry_Int_Tables_number      15
_space_group_name_Hall           '-C 2yn'
loop_
_symmetry_equiv_pos_site_id
_symmetry_equiv_pos_as_xyz
1 x,y,z
2 -x,y,1/2-z
3 1/2+x,1/2+y,z
4 1/2-x,1/2+y,1/2-z
5 -x,-y,-z
6 x,-y,1/2+z
7 1/2-x,1/2-y,-z
8 1/2+x,1/2-y,1/2+z
_cell_length_a                   33.549(2)
_cell_length_b                   9.3700(7)
_cell_length_c                   14.0658(8)
_cell_angle_alpha                90
_cell_angle_beta                 91.900(6)
_cell_angle_gamma                90
_cell_volume                     4419.21
_exptl_crystal_colour            colorless
_exptl_crystal_description       block
_cell_formula_units_Z            8
loop_
_atom_site_label
_atom_site_type_symbol
_atom_site_fract_x
_atom_site_fract_y
_atom_site_fract_z
O1 O 0.04758(5) -0.01007(16) 0.58857(10)
O2 O -0.02551(5) 0.35291(18) 0.53722(12)
O3 O -0.01522(4) 0.15910(16) 0.62674(10)
O4 O 0.12152(5) 0.67635(17) 0.11724(10)
N1 N 0.08724(5) 0.06655(17) 0.47179(10)
N2 N 0.07441(5) 0.28025(17) 0.38619(11)
C1 C 0.11609(6) -0.0413(2) 0.47828(13)
C2 C 0.11788(7) -0.1647(2) 0.53299(14)
H1 H 0.0979 -0.1871 0.5748
C3 C 0.15037(7) -0.2528(2) 0.52285(15)
H2 H 0.1523 -0.3365 0.5582
C4 C 0.18042(7) -0.2190(3) 0.46085(15)
H3 H 0.2022 -0.2795 0.4565
C5 C 0.17842(6) -0.0978(2) 0.40607(15)
H4 H 0.1987 -0.0764 0.3648
C6 C 0.14554(6) -0.0068(2) 0.41309(13)
C7 C 0.13467(6) 0.1232(2) 0.36469(13)
C8 C 0.09932(6) 0.1637(2) 0.40274(12)
C9 C 0.04152(6) 0.2973(2) 0.43722(14)
H5 H 0.0257 0.3769 0.4245
C10 C 0.02986(6) 0.2059(2) 0.50628(13)
C11 C 0.05340(6) 0.0805(2) 0.52870(14)
C12 C 0.15899(6) 0.1885(2) 0.28804(14)
H6 H 0.1409 0.2387 0.2444
H7 H 0.1710 0.1116 0.2527
C13 C 0.19192(6) 0.2911(2) 0.31921(15)
C14 C 0.20378(8) 0.3117(3) 0.41192(18)
H8 H 0.1919 0.2588 0.4592
C15 C 0.23332(9) 0.4101(3) 0.4373(2)
H9 H 0.2411 0.4211 0.5009
C16 C 0.25081(8) 0.4899(3) 0.3700(3)
H10 H 0.2707 0.5551 0.3870
C17 C 0.23893(8) 0.4733(3) 0.2771(2)
H11 H 0.2501 0.5297 0.2306
C18 C 0.21035(7) 0.3732(3) 0.25158(18)
H12 H 0.2033 0.3607 0.1876
C19 C 0.08545(6) 0.3872(2) 0.31755(13)
C20 C 0.11330(6) 0.4881(2) 0.34417(14)
H13 H 0.1236 0.4899 0.4064
C21 C 0.12615(6) 0.5868(2) 0.27928(13)
H14 H 0.1453 0.6545 0.2971
C22 C 0.11021(6) 0.5840(2) 0.18694(13)
C23 C 0.08135(7) 0.4845(2) 0.16093(14)
H15 H 0.0704 0.4842 0.0993
C24 C 0.06883(6) 0.3859(2) 0.22609(14)
H16 H 0.0494 0.3191 0.2089
C25 C 0.14957(8) 0.7846(3) 0.14431(19)
H17 H 0.1553 0.8421 0.0899
H18 H 0.1737 0.7409 0.1685
H19 H 0.1386 0.8436 0.1927
C26 C -0.00604(6) 0.2477(2) 0.55689(14)
C27 C -0.04866(7) 0.2021(3) 0.68257(15)
H20 H -0.0716 0.2169 0.6413
H21 H -0.0422 0.2891 0.7156
H22 H -0.0543 0.1287 0.7278
O5 O 0.0000 0.1216(3) 0.2500
H23 H -0.0086 0.0686 0.2938
H23A H 0.0086 0.0686 0.2062
loop_
_geom_bond_atom_site_label_1
_geom_bond_atom_site_label_2
_geom_bond_site_symmetry_1
_geom_bond_site_symmetry_2
O1 C11 1_555 1_555
O2 C26 1_555 1_555
O3 C26 1_555 1_555
O4 C22 1_555 1_555
N1 C1 1_555 1_555
N2 C8 1_555 1_555
C1 C2 1_555 1_555
C2 H1 1_555 1_555
C3 C2 1_555 1_555
H2 C3 1_555 1_555
C4 C3 1_555 1_555
H3 C4 1_555 1_555
C5 C4 1_555 1_555
H4 C5 1_555 1_555
C6 C1 1_555 1_555
C7 C6 1_555 1_555
C8 N1 1_555 1_555
C9 N2 1_555 1_555
H5 C9 1_555 1_555
C10 C9 1_555 1_555
C11 N1 1_555 1_555
C12 C7 1_555 1_555
H6 C12 1_555 1_555
H7 C12 1_555 1_555
C13 C12 1_555 1_555
C14 C13 1_555 1_555
H8 C14 1_555 1_555
C15 C14 1_555 1_555
H9 C15 1_555 1_555
C16 C15 1_555 1_555
H10 C16 1_555 1_555
C17 C16 1_555 1_555
H11 C17 1_555 1_555
C18 C13 1_555 1_555
H12 C18 1_555 1_555
C19 N2 1_555 1_555
C20 C19 1_555 1_555
H13 C20 1_555 1_555
C21 C20 1_555 1_555
H14 C21 1_555 1_555
C22 C21 1_555 1_555
C23 C22 1_555 1_555
H15 C23 1_555 1_555
C24 C19 1_555 1_555
H16 C24 1_555 1_555
C25 O4 1_555 1_555
H17 C25 1_555 1_555
H18 C25 1_555 1_555
H19 C25 1_555 1_555
C26 C10 1_555 1_555
C27 O3 1_555 1_555
H20 C27 1_555 1_555
H21 C27 1_555 1_555
H22 C27 1_555 1_555
O5 H23 1_555 1_555
H23A O5 1_555 1_555
C5 C6 1_555 1_555
C7 C8 1_555 1_555
C10 C11 1_555 1_555
C17 C18 1_555 1_555
C23 C24 1_555 1_555

#END
