
#######################################################################
#
#                 Cambridge Crystallographic Data Centre
#                                CCDC 
#
#######################################################################
#
# If this CIF has been generated from an entry in the Cambridge 
# Structural Database, then it will include bibliographic, chemical, 
# crystal, experimental, refinement or atomic coordinate data resulting 
# from the CCDC's data processing and validation procedures.
#
#######################################################################

data_KOPNEI
_chemical_formula_moiety         'C12 H14 Br1 Cl3 N2 Si1'
_chemical_name_systematic        Bromotrichlorobis(4-methypyridine)silicon
_symmetry_cell_setting           orthorhombic
_symmetry_space_group_name_H-M   'P m n a'
_symmetry_Int_Tables_number      53
_space_group_name_Hall           '-P 2ac 2'
loop_
_symmetry_equiv_pos_site_id
_symmetry_equiv_pos_as_xyz
1 x,y,z
2 1/2+x,y,1/2-z
3 1/2+x,-y,1/2+z
4 -x,y,z
5 -x,-y,-z
6 1/2-x,-y,1/2+z
7 1/2-x,y,1/2-z
8 x,-y,-z
_cell_length_a                   7.1770(10)
_cell_length_b                   7.9620(10)
_cell_length_c                   13.5570(10)
_cell_angle_alpha                90
_cell_angle_beta                 90
_cell_angle_gamma                90
_cell_volume                     774.691
_exptl_crystal_colour            colorless
_exptl_crystal_description       plate
_cell_formula_units_Z            2
_exptl_crystal_recrystallization_method chloroform
loop_
_atom_site_label
_atom_site_type_symbol
_atom_site_fract_x
_atom_site_fract_y
_atom_site_fract_z
Br1 Br 0.7267(10) 0.1751(10) 0.4254(6)
Cl1 Cl 0.7230(7) 0.1548(8) 0.4385(5)
Si1 Si 0.5000 0.0000 0.5000
N1 N 0.5000 0.1414(4) 0.6195(2)
C1 C 0.5000 0.3104(5) 0.6123(3)
H1 H 0.5000 0.3600 0.5486
C2 C 0.5000 0.4138(5) 0.6940(3)
H2 H 0.5000 0.5323 0.6857
C3 C 0.5000 0.3448(5) 0.7886(3)
C4 C 0.5000 0.4528(6) 0.8791(3)
H3 H 0.5000 0.5667 0.8613
H4 H 0.3975 0.4223 0.9200
C5 C 0.5000 0.1699(5) 0.7956(3)
H7 H 0.5000 0.1174 0.8585
C6 C 0.5000 0.0735(5) 0.7111(3)
H8 H 0.5000 -0.0454 0.7173
Br1C Br 0.2733(10) 0.1751(10) 0.4254(6)
Cl1C Cl 0.2770(7) 0.1548(8) 0.4385(5)
Br1D Br 0.2733(10) -0.1751(10) 0.5746(6)
Cl1D Cl 0.2770(7) -0.1548(8) 0.5615(5)
Br1G Br 0.7267(10) -0.1751(10) 0.5746(6)
Cl1G Cl 0.7230(7) -0.1548(8) 0.5615(5)
H4C H 0.6025 0.4223 0.9200
N1D N 0.5000 -0.1414(4) 0.3805(2)
C1D C 0.5000 -0.3104(5) 0.3877(3)
H1D H 0.5000 -0.3600 0.4514
C2D C 0.5000 -0.4138(5) 0.3060(3)
H2D H 0.5000 -0.5323 0.3143
C3D C 0.5000 -0.3448(5) 0.2114(3)
C4D C 0.5000 -0.4528(6) 0.1209(3)
H3D H 0.5000 -0.5667 0.1387
H4D H 0.6025 -0.4223 0.0800
H4G H 0.3975 -0.4223 0.0800
C5D C 0.5000 -0.1699(5) 0.2044(3)
H7D H 0.5000 -0.1174 0.1415
C6D C 0.5000 -0.0735(5) 0.2889(3)
H8D H 0.5000 0.0454 0.2827
H5? H 0.5000 0.3880 0.9384
H6? H 0.3929 0.5222 0.8774
loop_
_geom_bond_atom_site_label_1
_geom_bond_atom_site_label_2
_geom_bond_site_symmetry_1
_geom_bond_site_symmetry_2
Br1 Cl1 1_555 1_555
Cl1 Si1 1_555 1_555
Si1 Br1 1_555 1_555
N1 Si1 1_555 1_555
C1 N1 1_555 1_555
H1 C1 1_555 1_555
C2 C1 1_555 1_555
H2 C2 1_555 1_555
C3 C2 1_555 1_555
C4 C3 1_555 1_555
H3 C4 1_555 1_555
H4 C4 1_555 1_555
C5 C3 1_555 1_555
H7 C5 1_555 1_555
C6 N1 1_555 1_555
H8 C6 1_555 1_555
Br1C Si1 1_555 1_555
Cl1C Si1 1_555 1_555
Br1D Si1 1_555 1_555
Cl1D Si1 1_555 1_555
Br1G Si1 1_555 1_555
Cl1G Si1 1_555 1_555
H4C C4 1_555 1_555
N1D Si1 1_555 1_555
C1D N1D 1_555 1_555
H1D C1D 1_555 1_555
C2D C1D 1_555 1_555
H2D C2D 1_555 1_555
C3D C2D 1_555 1_555
C4D C3D 1_555 1_555
H3D C4D 1_555 1_555
H4D C4D 1_555 1_555
H4G C4D 1_555 1_555
C5D C3D 1_555 1_555
H7D C5D 1_555 1_555
C6D N1D 1_555 1_555
H8D C6D 1_555 1_555
C5 C6 1_555 1_555
Br1C Cl1C 1_555 1_555
Br1D Cl1D 1_555 1_555
Br1G Cl1G 1_555 1_555
C5D C6D 1_555 1_555

#END
