
#######################################################################
#
#                 Cambridge Crystallographic Data Centre
#                                CCDC 
#
#######################################################################
#
# If this CIF has been generated from an entry in the Cambridge 
# Structural Database, then it will include bibliographic, chemical, 
# crystal, experimental, refinement or atomic coordinate data resulting 
# from the CCDC's data processing and validation procedures.
#
#######################################################################

data_KOPQEL
_chemical_formula_moiety         'C12 H14 Br3 Cl1 N2 Si1'
_chemical_name_systematic        Tribromochlorobis(4-methypyridine)silicon
_symmetry_cell_setting           orthorhombic
_symmetry_space_group_name_H-M   'P m n a'
_symmetry_Int_Tables_number      53
_space_group_name_Hall           '-P 2ac 2'
loop_
_symmetry_equiv_pos_site_id
_symmetry_equiv_pos_as_xyz
1 x,y,z
2 1/2+x,y,1/2-z
3 1/2+x,-y,1/2+z
4 -x,y,z
5 -x,-y,-z
6 1/2-x,-y,1/2+z
7 1/2-x,y,1/2-z
8 x,-y,-z
_cell_length_a                   7.2960(10)
_cell_length_b                   8.2110(10)
_cell_length_c                   13.4720(10)
_cell_angle_alpha                90
_cell_angle_beta                 90
_cell_angle_gamma                90
_cell_volume                     807.073
_exptl_crystal_colour            colorless
_exptl_crystal_description       block
_cell_formula_units_Z            2
_exptl_crystal_recrystallization_method chloroform
loop_
_atom_site_label
_atom_site_type_symbol
_atom_site_fract_x
_atom_site_fract_y
_atom_site_fract_z
Br1 Br 0.7312(2) 0.1639(3) 0.4262(2)
Cl1 Cl 0.7222(18) 0.151(2) 0.4391(15)
Si1 Si 0.5000 0.0000 0.5000
N1 N 0.5000 0.1418(3) 0.61899(19)
C1 C 0.5000 0.3059(4) 0.6099(2)
H1 H 0.5000 0.3521 0.5452
C2 C 0.5000 0.4091(4) 0.6909(2)
H2 H 0.5000 0.5237 0.6813
C3 C 0.5000 0.3451(4) 0.7868(3)
C4 C 0.5000 0.4524(4) 0.8769(3)
H3 H 0.5000 0.5660 0.8608
H4 H 0.3975 0.4217 0.9195
C5 C 0.5000 0.1763(4) 0.7955(2)
H7 H 0.5000 0.1276 0.8595
C6 C 0.5000 0.0793(4) 0.7124(2)
H8 H 0.5000 -0.0356 0.7205
Br1C Br 0.2688(2) 0.1639(3) 0.4262(2)
Cl1C Cl 0.2778(18) 0.151(2) 0.4391(15)
Br1D Br 0.2688(2) -0.1639(3) 0.5738(2)
Cl1D Cl 0.2778(18) -0.151(2) 0.5609(15)
Br1G Br 0.7312(2) -0.1639(3) 0.5738(2)
Cl1G Cl 0.7222(18) -0.151(2) 0.5609(15)
H4C H 0.6025 0.4217 0.9195
N1D N 0.5000 -0.1418(3) 0.38101(19)
C1D C 0.5000 -0.3059(4) 0.3901(2)
H1D H 0.5000 -0.3521 0.4548
C2D C 0.5000 -0.4091(4) 0.3091(2)
H2D H 0.5000 -0.5237 0.3187
C3D C 0.5000 -0.3451(4) 0.2132(3)
C4D C 0.5000 -0.4524(4) 0.1231(3)
H3D H 0.5000 -0.5660 0.1392
H4D H 0.6025 -0.4217 0.0805
H4G H 0.3975 -0.4217 0.0805
C5D C 0.5000 -0.1763(4) 0.2045(2)
H7D H 0.5000 -0.1276 0.1405
C6D C 0.5000 -0.0793(4) 0.2876(2)
H8D H 0.5000 0.0356 0.2795
H5? H 0.5000 0.3873 0.9378
H6? H 0.3929 0.5216 0.8769
loop_
_geom_bond_atom_site_label_1
_geom_bond_atom_site_label_2
_geom_bond_site_symmetry_1
_geom_bond_site_symmetry_2
Br1 Cl1 1_555 1_555
Cl1 Si1 1_555 1_555
Si1 Br1 1_555 1_555
N1 Si1 1_555 1_555
C1 N1 1_555 1_555
H1 C1 1_555 1_555
C2 C1 1_555 1_555
H2 C2 1_555 1_555
C3 C2 1_555 1_555
C4 C3 1_555 1_555
H3 C4 1_555 1_555
H4 C4 1_555 1_555
C5 C3 1_555 1_555
H7 C5 1_555 1_555
C6 N1 1_555 1_555
H8 C6 1_555 1_555
Br1C Si1 1_555 1_555
Cl1C Si1 1_555 1_555
Br1D Si1 1_555 1_555
Cl1D Si1 1_555 1_555
Br1G Si1 1_555 1_555
Cl1G Si1 1_555 1_555
H4C C4 1_555 1_555
N1D Si1 1_555 1_555
C1D N1D 1_555 1_555
H1D C1D 1_555 1_555
C2D C1D 1_555 1_555
H2D C2D 1_555 1_555
C3D C2D 1_555 1_555
C4D C3D 1_555 1_555
H3D C4D 1_555 1_555
H4D C4D 1_555 1_555
H4G C4D 1_555 1_555
C5D C3D 1_555 1_555
H7D C5D 1_555 1_555
C6D N1D 1_555 1_555
H8D C6D 1_555 1_555
C5 C6 1_555 1_555
Br1C Cl1C 1_555 1_555
Br1D Cl1D 1_555 1_555
Br1G Cl1G 1_555 1_555
C5D C6D 1_555 1_555

#END
