
#######################################################################
#
#                 Cambridge Crystallographic Data Centre
#                                CCDC 
#
#######################################################################
#
# If this CIF has been generated from an entry in the Cambridge 
# Structural Database, then it will include bibliographic, chemical, 
# crystal, experimental, refinement or atomic coordinate data resulting 
# from the CCDC's data processing and validation procedures.
#
#######################################################################

data_KOQHEF
_chemical_formula_moiety         'C24 H21 N1 O3 S1'
_chemical_name_systematic        
(1-((4-methylphenyl)sulfonyl)-3-vinyl-2,3-dihydro-1H-indol-2-yl)(phenyl)methanone
_symmetry_cell_setting           triclinic
_symmetry_space_group_name_H-M   'P 1'
_symmetry_Int_Tables_number      1
_space_group_name_Hall           'P 1'
loop_
_symmetry_equiv_pos_site_id
_symmetry_equiv_pos_as_xyz
1 x,y,z
_cell_length_a                   9.0039(13)
_cell_length_b                   10.2313(15)
_cell_length_c                   12.1255(18)
_cell_angle_alpha                105.165(2)
_cell_angle_beta                 95.419(2)
_cell_angle_gamma                97.879(2)
_cell_volume                     1057.98
_cell_formula_units_Z            2
loop_
_atom_site_label
_atom_site_type_symbol
_atom_site_fract_x
_atom_site_fract_y
_atom_site_fract_z
C1 C 0.7513(3) 0.5135(2) 0.18412(19)
C2 C 0.8624(4) 0.5742(3) 0.2780(2)
H1 H 0.9638 0.5697 0.2715
C3 C 0.8192(5) 0.6414(3) 0.3814(2)
H2 H 0.8923 0.6823 0.4451
C4 C 0.6690(5) 0.6485(3) 0.3912(2)
H3 H 0.6426 0.6947 0.4615
C5 C 0.5572(4) 0.5885(3) 0.2988(2)
H4 H 0.4560 0.5940 0.3053
C6 C 0.6018(3) 0.5193(2) 0.19535(18)
C7 C 0.7693(3) 0.4334(2) 0.0631(2)
H5 H 0.8461 0.4852 0.0316
C8 C 0.6082(3) 0.4216(2) -0.00325(17)
H6 H 0.5741 0.3279 -0.0532
C9 C 0.8098(5) 0.2961(4) 0.0641(4)
H7 H 0.7481 0.2398 0.0964
C10 C 0.9262(5) 0.2524(6) 0.0223(5)
H8 H 0.9896 0.3068 -0.0104
H9 H 0.9466 0.1665 0.0249
C11 C 0.6084(3) 0.5252(2) -0.07565(18)
C12 C 0.6996(3) 0.5068(2) -0.17227(17)
C13 C 0.7535(3) 0.3853(2) -0.2192(2)
H10 H 0.7331 0.3109 -0.1892
C14 C 0.8367(4) 0.3752(3) -0.3101(3)
H11 H 0.8726 0.2942 -0.3407
C15 C 0.8667(4) 0.4839(3) -0.3554(3)
H12 H 0.9235 0.4763 -0.4163
C16 C 0.8140(4) 0.6032(3) -0.3121(3)
H13 H 0.8330 0.6759 -0.3443
C17 C 0.7319(3) 0.6153(3) -0.2196(2)
H14 H 0.6981 0.6974 -0.1889
C18 C 0.4258(3) 0.1973(2) 0.10935(18)
C19 C 0.4454(3) 0.0865(2) 0.0204(2)
H15 H 0.4168 0.0836 -0.0561
C20 C 0.5079(4) -0.0193(3) 0.0470(3)
H16 H 0.5207 -0.0941 -0.0121
C21 C 0.5523(4) -0.0152(3) 0.1619(3)
C22 C 0.5304(4) 0.0948(3) 0.2482(2)
H17 H 0.5582 0.0975 0.3247
C23 C 0.4674(3) 0.2026(2) 0.22346(19)
H18 H 0.4535 0.2768 0.2826
C24 C 0.6184(6) -0.1308(3) 0.1916(5)
H19 H 0.5533 -0.2164 0.1531
H20 H 0.6273 -0.1174 0.2734
H21 H 0.7166 -0.1325 0.1671
N1 N 0.5072(2) 0.45387(18) 0.08745(14)
O1 O 0.2765(2) 0.3966(2) 0.17208(16)
O2 O 0.2859(2) 0.2975(2) -0.03705(16)
O3 O 0.5393(3) 0.61946(19) -0.05122(17)
S1 S 0.35732(6) 0.33807(5) 0.08014(4)
C27 C 0.0234(5) 0.1727(4) 0.4152(4)
H25 H 0.0843 0.2432 0.4728
C28 C -0.0572(7) 0.2042(6) 0.3351(5)
H26 H -0.1189 0.1353 0.2766
H27 H -0.0535 0.2957 0.3358
C29 C 0.1087(2) -0.0005(2) 0.60483(17)
C30 C 0.0980(3) -0.0133(3) 0.7151(2)
H28 H 0.1825 -0.0195 0.7626
C31 C -0.0431(4) -0.0165(3) 0.7515(3)
H29 H -0.0527 -0.0218 0.8260
C32 C -0.1700(4) -0.0121(3) 0.6804(3)
H30 H -0.2639 -0.0164 0.7066
C33 C -0.1580(3) -0.0013(3) 0.5710(2)
H31 H -0.2434 0.0021 0.5230
C34 C -0.0183(3) 0.0043(2) 0.53276(19)
C35 C 0.0230(3) 0.0223(2) 0.41950(18)
H32 H -0.0434 -0.0433 0.3540
N2 N 0.2385(2) 0.0027(2) 0.54564(14)
C36 C 0.2002(3) -0.1481(2) 0.34624(19)
C37 C 0.1720(2) -0.1729(2) 0.21815(18)
C38 C 0.1829(3) -0.3023(3) 0.1497(2)
H33 H 0.2090 -0.3690 0.1837
C39 C 0.1549(4) -0.3322(3) 0.0306(3)
H34 H 0.1641 -0.4185 -0.0151
C40 C 0.1135(4) -0.2348(4) -0.0203(2)
H35 H 0.0905 -0.2559 -0.1000
C41 C 0.1063(4) -0.1048(4) 0.0487(2)
H36 H 0.0812 -0.0378 0.0146
C42 C 0.1356(3) -0.0740(3) 0.1660(2)
H37 H 0.1312 0.0139 0.2111
C43 C 0.3774(2) 0.2702(3) 0.62313(17)
C44 C 0.4317(3) 0.3395(3) 0.5484(2)
H38 H 0.4869 0.2984 0.4919
C45 C 0.4032(5) 0.4709(4) 0.5585(3)
H39 H 0.4380 0.5168 0.5067
C46 C 0.3243(4) 0.5368(3) 0.6435(3)
C47 C 0.2721(4) 0.4639(3) 0.7175(2)
H40 H 0.2184 0.5054 0.7750
C48 C 0.2969(3) 0.3327(3) 0.70873(19)
H41 H 0.2604 0.2860 0.7595
C49 C 0.2959(8) 0.6836(5) 0.6580(4)
H42 H 0.1904 0.6824 0.6358
H43 H 0.3547 0.7248 0.6101
H44 H 0.3247 0.7358 0.7372
C50 C 0.1887(2) -0.0057(2) 0.42331(16)
H45 H 0.2525 0.0654 0.4001
O4 O 0.5043(2) 0.0653(3) 0.52436(18)
O5 O 0.4319(2) 0.0786(2) 0.71859(16)
O6 O 0.2285(3) -0.2381(2) 0.38805(17)
S2 S 0.40233(6) 0.09875(6) 0.60721(5)
C25? C 0.851(4) 0.310(3) 0.035(3)
H22? H 0.8944 0.2898 -0.0324
C26? C 0.860(5) 0.229(5) 0.108(4)
H23? H 0.8163 0.2483 0.1758
H24? H 0.9099 0.1536 0.0899
C51? C -0.0336(18) 0.1375(14) 0.3894(13)
H46? H -0.1379 0.1322 0.3748
C52? C 0.051(2) 0.2448(17) 0.3819(17)
H47? H 0.1554 0.2533 0.3959
H48? H 0.0074 0.3146 0.3623
loop_
_geom_bond_atom_site_label_1
_geom_bond_atom_site_label_2
_geom_bond_site_symmetry_1
_geom_bond_site_symmetry_2
C1 C2 1_555 1_555
C2 H1 1_555 1_555
C3 C2 1_555 1_555
H2 C3 1_555 1_555
C4 C3 1_555 1_555
H3 C4 1_555 1_555
C5 C4 1_555 1_555
H4 C5 1_555 1_555
C6 C1 1_555 1_555
C7 C1 1_555 1_555
H5 C7 1_555 1_555
C8 C7 1_555 1_555
H6 C8 1_555 1_555
C9 C7 1_555 1_555
H7 C9 1_555 1_555
C10 C9 1_555 1_555
H8 C10 1_555 1_555
H9 C10 1_555 1_555
C11 C8 1_555 1_555
C12 C11 1_555 1_555
C13 C12 1_555 1_555
H10 C13 1_555 1_555
C14 C13 1_555 1_555
H11 C14 1_555 1_555
C15 C14 1_555 1_555
H12 C15 1_555 1_555
C16 C15 1_555 1_555
H13 C16 1_555 1_555
C17 C12 1_555 1_555
H14 C17 1_555 1_555
C18 C19 1_555 1_555
C19 H15 1_555 1_555
C20 C19 1_555 1_555
H16 C20 1_555 1_555
C21 C20 1_555 1_555
C22 C21 1_555 1_555
H17 C22 1_555 1_555
C23 C18 1_555 1_555
H18 C23 1_555 1_555
C24 C21 1_555 1_555
H19 C24 1_555 1_555
H20 C24 1_555 1_555
H21 C24 1_555 1_555
N1 C6 1_555 1_555
O1 S1 1_555 1_555
O2 S1 1_555 1_555
O3 C11 1_555 1_555
S1 C18 1_555 1_555
C27 H25 1_555 1_555
C28 C27 1_555 1_555
H26 C28 1_555 1_555
H27 C28 1_555 1_555
C29 C30 1_555 1_555
C30 H28 1_555 1_555
C31 C30 1_555 1_555
H29 C31 1_555 1_555
C32 C31 1_555 1_555
H30 C32 1_555 1_555
C33 C32 1_555 1_555
H31 C33 1_555 1_555
C34 C29 1_555 1_555
C35 C27 1_555 1_555
H32 C35 1_555 1_555
N2 C29 1_555 1_555
C36 C37 1_555 1_555
C37 C38 1_555 1_555
C38 H33 1_555 1_555
C39 C38 1_555 1_555
H34 C39 1_555 1_555
C40 C39 1_555 1_555
H35 C40 1_555 1_555
C41 C40 1_555 1_555
H36 C41 1_555 1_555
C42 C37 1_555 1_555
H37 C42 1_555 1_555
C43 C44 1_555 1_555
C44 H38 1_555 1_555
C45 C44 1_555 1_555
H39 C45 1_555 1_555
C46 C45 1_555 1_555
C47 C46 1_555 1_555
H40 C47 1_555 1_555
C48 C43 1_555 1_555
H41 C48 1_555 1_555
C49 C46 1_555 1_555
H42 C49 1_555 1_555
H43 C49 1_555 1_555
H44 C49 1_555 1_555
C50 C35 1_555 1_555
H45 C50 1_555 1_555
O4 S2 1_555 1_555
O5 S2 1_555 1_555
O6 C36 1_555 1_555
S2 N2 1_555 1_555
C5 C6 1_555 1_555
C8 N1 1_555 1_555
C16 C17 1_555 1_555
C22 C23 1_555 1_555
N1 S1 1_555 1_555
C33 C34 1_555 1_555
C34 C35 1_555 1_555
N2 C50 1_555 1_555
C36 C50 1_555 1_555
C41 C42 1_555 1_555
C43 S2 1_555 1_555
C47 C48 1_555 1_555

#END
