
#######################################################################
#
#                 Cambridge Crystallographic Data Centre
#                                CCDC 
#
#######################################################################
#
# If this CIF has been generated from an entry in the Cambridge 
# Structural Database, then it will include bibliographic, chemical, 
# crystal, experimental, refinement or atomic coordinate data resulting 
# from the CCDC's data processing and validation procedures.
#
#######################################################################

data_KORCAX
_chemical_formula_moiety         'C26 H26 F3 N3 O2'
_chemical_name_systematic        
1-(2,2-dimethylpropanoyl)-N-quinolin-8-yl-3-(4-(trifluoromethyl)phenyl)prolinamide
_symmetry_cell_setting           monoclinic
_symmetry_space_group_name_H-M   'C 2/c'
_symmetry_Int_Tables_number      15
_space_group_name_Hall           '-C 2yn'
loop_
_symmetry_equiv_pos_site_id
_symmetry_equiv_pos_as_xyz
1 x,y,z
2 -x,y,1/2-z
3 1/2+x,1/2+y,z
4 1/2-x,1/2+y,1/2-z
5 -x,-y,-z
6 x,-y,1/2+z
7 1/2-x,1/2-y,-z
8 1/2+x,1/2-y,1/2+z
_cell_length_a                   35.698(2)
_cell_length_b                   7.1647(3)
_cell_length_c                   21.4230(15)
_cell_angle_alpha                90
_cell_angle_beta                 120.760(9)
_cell_angle_gamma                90
_cell_volume                     4708.43
_exptl_crystal_colour            colorless
_exptl_crystal_description       block
_cell_formula_units_Z            8
loop_
_atom_site_label
_atom_site_type_symbol
_atom_site_fract_x
_atom_site_fract_y
_atom_site_fract_z
F1 F 0.77504(6) -0.2493(2) 0.95860(9)
F2 F 0.76926(6) 0.0118(2) 0.99918(10)
F3 F 0.83174(5) -0.1050(3) 1.03574(8)
O1 O 0.86221(4) 0.50552(18) 0.90195(7)
O2 O 0.87932(4) 0.75302(17) 0.77433(7)
N1 N 0.97855(5) 0.2485(2) 0.87333(8)
N2 N 0.90682(4) 0.35507(19) 0.87173(7)
H1 H 0.9081 0.3164 0.8349
N3 N 0.85329(4) 0.47248(19) 0.72756(7)
C1 C 1.01441(7) 0.2022(3) 0.87335(13)
H2 H 1.0130 0.1936 0.8289
C2 C 1.05439(7) 0.1655(3) 0.93638(15)
H3 H 1.0788 0.1356 0.9334
C3 C 1.05714(6) 0.1739(3) 1.00153(14)
H4 H 1.0835 0.1484 1.0437
C4 C 1.02022(6) 0.2213(2) 1.00566(10)
C5 C 0.98143(5) 0.2603(2) 0.93919(9)
C6 C 0.94339(5) 0.3160(2) 0.94007(8)
C7 C 0.94441(6) 0.3279(3) 1.00479(9)
H5 H 0.9196 0.3638 1.0056
C8 C 0.98322(7) 0.2857(3) 1.07009(10)
H6 H 0.9835 0.2925 1.1137
C9 C 1.01999(7) 0.2356(3) 1.07127(10)
H7 H 1.0452 0.2104 1.1153
C10 C 0.86989(5) 0.4453(2) 0.85621(9)
C11 C 0.83546(5) 0.4590(2) 0.77593(8)
H8 H 0.8172 0.5686 0.7684
C12 C 0.80578(5) 0.2822(2) 0.74779(9)
H9 H 0.7766 0.3233 0.7103
C13 C 0.82493(7) 0.1716(3) 0.71005(10)
H10 H 0.8501 0.1002 0.7449
H11 H 0.8035 0.0870 0.6742
C14 C 0.83773(7) 0.3198(3) 0.67419(10)
H12 H 0.8606 0.2757 0.6662
H13 H 0.8129 0.3587 0.6282
C15 C 0.87493(5) 0.6321(2) 0.73050(9)
C16 C 0.89553(7) 0.6558(3) 0.68290(11)
C17 C 0.91575(9) 0.8511(4) 0.69756(15)
H14 H 0.9371 0.8634 0.7483
H15 H 0.8933 0.9432 0.6841
H16 H 0.9295 0.8692 0.6695
C18 C 0.86166(9) 0.6389(4) 0.60165(12)
H17 H 0.8365 0.7126 0.5905
H18 H 0.8532 0.5106 0.5898
H19 H 0.8740 0.6830 0.5738
C19 C 0.93211(9) 0.5127(4) 0.70616(16)
H20 H 0.9198 0.3896 0.6935
H21 H 0.9516 0.5201 0.7578
H22 H 0.9479 0.5385 0.6819
C20 C 0.80121(5) 0.1822(2) 0.80566(9)
C21 C 0.77691(6) 0.2618(3) 0.83245(11)
H23 H 0.7624 0.3735 0.8126
C22 C 0.77371(7) 0.1795(3) 0.88785(12)
H24 H 0.7575 0.2364 0.9054
C23 C 0.79461(6) 0.0131(3) 0.91685(10)
C24 C 0.81793(6) -0.0719(3) 0.88971(10)
H25 H 0.8314 -0.1862 0.9084
C25 C 0.82134(6) 0.0122(2) 0.83480(10)
H26 H 0.8373 -0.0458 0.8171
C26 C 0.79248(8) -0.0805(3) 0.97658(12)
loop_
_geom_bond_atom_site_label_1
_geom_bond_atom_site_label_2
_geom_bond_site_symmetry_1
_geom_bond_site_symmetry_2
F1 C26 1_555 1_555
F2 C26 1_555 1_555
F3 C26 1_555 1_555
O1 C10 1_555 1_555
O2 C15 1_555 1_555
N1 C1 1_555 1_555
N2 H1 1_555 1_555
N3 C11 1_555 1_555
C1 H2 1_555 1_555
C2 C1 1_555 1_555
H3 C2 1_555 1_555
C3 C2 1_555 1_555
H4 C3 1_555 1_555
C4 C3 1_555 1_555
C5 N1 1_555 1_555
C6 N2 1_555 1_555
C7 C6 1_555 1_555
H5 C7 1_555 1_555
C8 C7 1_555 1_555
H6 C8 1_555 1_555
C9 C4 1_555 1_555
H7 C9 1_555 1_555
C10 N2 1_555 1_555
C11 C10 1_555 1_555
H8 C11 1_555 1_555
C12 C11 1_555 1_555
H9 C12 1_555 1_555
C13 C12 1_555 1_555
H10 C13 1_555 1_555
H11 C13 1_555 1_555
C14 N3 1_555 1_555
H12 C14 1_555 1_555
H13 C14 1_555 1_555
C15 N3 1_555 1_555
C16 C15 1_555 1_555
C17 C16 1_555 1_555
H14 C17 1_555 1_555
H15 C17 1_555 1_555
H16 C17 1_555 1_555
C18 C16 1_555 1_555
H17 C18 1_555 1_555
H18 C18 1_555 1_555
H19 C18 1_555 1_555
C19 C16 1_555 1_555
H20 C19 1_555 1_555
H21 C19 1_555 1_555
H22 C19 1_555 1_555
C20 C12 1_555 1_555
C21 C20 1_555 1_555
H23 C21 1_555 1_555
C22 C21 1_555 1_555
H24 C22 1_555 1_555
C23 C22 1_555 1_555
C24 C23 1_555 1_555
H25 C24 1_555 1_555
C25 C20 1_555 1_555
H26 C25 1_555 1_555
C26 C23 1_555 1_555
C4 C5 1_555 1_555
C5 C6 1_555 1_555
C8 C9 1_555 1_555
C13 C14 1_555 1_555
C24 C25 1_555 1_555

#END
