
#######################################################################
#
#                 Cambridge Crystallographic Data Centre
#                                CCDC 
#
#######################################################################
#
# If this CIF has been generated from an entry in the Cambridge 
# Structural Database, then it will include bibliographic, chemical, 
# crystal, experimental, refinement or atomic coordinate data resulting 
# from the CCDC's data processing and validation procedures.
#
#######################################################################

data_KORFOO
_chemical_formula_moiety         'C27 H24 B1 F2 N3'
_chemical_name_systematic        
(N'-(1,2-diphenyl-2-(pyridin-2-yl)vinyl)-N,N-dimethylbenzene-1,4-diaminato)(difluoro)borate
_symmetry_cell_setting           triclinic
_symmetry_space_group_name_H-M   'P -1'
_symmetry_Int_Tables_number      2
_space_group_name_Hall           '-P 1'
loop_
_symmetry_equiv_pos_site_id
_symmetry_equiv_pos_as_xyz
1 x,y,z
2 -x,-y,-z
_cell_length_a                   12.2723(9)
_cell_length_b                   14.7050(16)
_cell_length_c                   14.7883(16)
_cell_angle_alpha                69.664(10)
_cell_angle_beta                 67.961(8)
_cell_angle_gamma                82.665(7)
_cell_volume                     2319.55
_exptl_crystal_colour            yellow
_exptl_crystal_description       block
_cell_formula_units_Z            4
loop_
_atom_site_label
_atom_site_type_symbol
_atom_site_fract_x
_atom_site_fract_y
_atom_site_fract_z
B1 B 0.4450(4) 1.0614(3) 0.2995(4)
F1 F 0.3925(2) 1.13768(16) 0.24340(18)
F2 F 0.5364(2) 1.10089(17) 0.30712(18)
N1 N 0.4973(3) 0.9904(2) 0.2383(3)
N2 N 0.3580(3) 1.0097(2) 0.4050(2)
N3 N 0.1592(4) 1.2686(3) 0.6300(4)
C1 C 0.5825(5) 1.0262(4) 0.1450(4)
H1 H 0.6034 1.0913 0.1215
C2 C 0.6384(6) 0.9714(4) 0.0847(4)
H2 H 0.6969 0.9980 0.0209
C3 C 0.6071(5) 0.8748(4) 0.1193(4)
H3 H 0.6446 0.8356 0.0789
C4 C 0.5218(4) 0.8377(3) 0.2121(3)
H4 H 0.5014 0.7726 0.2353
C5 C 0.4638(3) 0.8953(3) 0.2738(3)
C6 C 0.3749(3) 0.8591(3) 0.3734(3)
C7 C 0.3380(3) 0.7549(3) 0.4091(3)
C8 C 0.2740(4) 0.7265(3) 0.3655(4)
H5 H 0.2535 0.7724 0.3127
C9 C 0.2383(4) 0.6309(3) 0.3977(5)
H6 H 0.1974 0.6127 0.3650
C10 C 0.2640(5) 0.5642(3) 0.4776(4)
H7 H 0.2384 0.5004 0.5015
C11 C 0.3264(5) 0.5908(3) 0.5219(4)
H8 H 0.3442 0.5449 0.5762
C12 C 0.3647(4) 0.6855(3) 0.4881(4)
H9 H 0.4089 0.7022 0.5191
C13 C 0.3269(3) 0.9153(3) 0.4354(3)
C14 C 0.2387(3) 0.8725(3) 0.5411(3)
C15 C 0.2735(4) 0.8437(3) 0.6245(3)
H10 H 0.3495 0.8571 0.6158
C16 C 0.1966(5) 0.7950(4) 0.7214(4)
H11 H 0.2208 0.7761 0.7779
C17 C 0.0850(5) 0.7743(3) 0.7348(4)
H12 H 0.0336 0.7403 0.7998
C18 C 0.0498(4) 0.8040(4) 0.6522(4)
H13 H -0.0265 0.7910 0.6613
C19 C 0.1259(4) 0.8530(3) 0.5553(3)
H14 H 0.1008 0.8729 0.4994
C20 C 0.3011(4) 1.0695(3) 0.4698(3)
C21 C 0.2008(4) 1.1197(3) 0.4642(3)
H15 H 0.1642 1.1102 0.4234
C22 C 0.1529(4) 1.1841(3) 0.5178(3)
H16 H 0.0844 1.2169 0.5126
C23 C 0.2043(4) 1.2009(3) 0.5786(3)
C24 C 0.3059(4) 1.1487(3) 0.5848(3)
H17 H 0.3420 1.1570 0.6266
C25 C 0.3540(4) 1.0853(3) 0.5303(3)
H18 H 0.4231 1.0528 0.5343
C26 C 0.0497(5) 1.3141(4) 0.6309(4)
H19 H 0.0543 1.3494 0.5614
H20 H 0.0316 1.3581 0.6697
H21 H -0.0109 1.2657 0.6622
C27 C 0.2092(6) 1.2809(5) 0.6971(5)
H22 H 0.2028 1.2214 0.7530
H23 H 0.1682 1.3313 0.7241
H24 H 0.2906 1.2984 0.6597
B2 B 0.6661(5) 0.5699(4) 1.1619(4)
F3 F 0.6028(3) 0.64729(19) 1.1811(2)
F4 F 0.7429(3) 0.5446(3) 1.2153(2)
N4 N 0.5817(3) 0.4824(2) 1.2061(2)
N5 N 0.7313(3) 0.5889(2) 1.0476(2)
N6 N 0.9137(4) 0.9699(3) 0.8422(3)
C28 C 0.4998(4) 0.4685(3) 1.3015(3)
H25 H 0.4904 0.5159 1.3321
C29 C 0.4310(4) 0.3887(3) 1.3540(3)
H26 H 0.3755 0.3811 1.4195
C30 C 0.4446(4) 0.3184(3) 1.3084(3)
H27 H 0.3998 0.2619 1.3437
C31 C 0.5246(4) 0.3326(3) 1.2109(3)
H28 H 0.5332 0.2856 1.1798
C32 C 0.5937(3) 0.4165(3) 1.1571(3)
C33 C 0.6761(3) 0.4359(3) 1.0537(3)
C34 C 0.6921(4) 0.3613(3) 1.0029(3)
C35 C 0.7912(4) 0.3044(3) 0.9885(3)
H29 H 0.8494 0.3122 1.0113
C36 C 0.8055(6) 0.2361(4) 0.9407(4)
H30 H 0.8734 0.1987 0.9315
C37 C 0.7225(8) 0.2223(4) 0.9066(4)
H31 H 0.7331 0.1760 0.8744
C38 C 0.6240(7) 0.2773(5) 0.9203(5)
H32 H 0.5664 0.2687 0.8973
C39 C 0.6084(5) 0.3464(4) 0.9686(4)
H33 H 0.5401 0.3833 0.9779
C40 C 0.7383(3) 0.5220(3) 1.0018(3)
C41 C 0.8169(3) 0.5405(3) 0.8917(3)
C42 C 0.9377(4) 0.5354(3) 0.8642(4)
H34 H 0.9714 0.5244 0.9139
C43 C 1.0088(4) 0.5466(4) 0.7627(4)
H35 H 1.0900 0.5418 0.7449
C44 C 0.9604(5) 0.5646(4) 0.6890(4)
H36 H 1.0088 0.5727 0.6211
C45 C 0.8423(5) 0.5709(4) 0.7141(4)
H37 H 0.8094 0.5836 0.6636
C46 C 0.7712(4) 0.5583(3) 0.8151(3)
H38 H 0.6900 0.5619 0.8321
C47 C 0.7821(3) 0.6840(3) 0.9903(3)
C48 C 0.8633(4) 0.7151(3) 1.0175(3)
H39 H 0.8891 0.6726 1.0687
C49 C 0.9069(4) 0.8094(3) 0.9688(3)
H40 H 0.9607 0.8295 0.9886
C50 C 0.8709(4) 0.8741(3) 0.8908(3)
C51 C 0.7891(4) 0.8420(3) 0.8657(3)
H41 H 0.7629 0.8842 0.8146
C52 C 0.7450(3) 0.7486(3) 0.9146(3)
H42 H 0.6895 0.7290 0.8961
C53 C 1.0196(6) 0.9935(4) 0.8492(6)
H43 H 1.0079 0.9826 0.9200
H44 H 1.0391 1.0605 0.8099
H45 H 1.0825 0.9533 0.8221
C54 C 0.8941(6) 1.0265(4) 0.7477(5)
H46 H 0.9336 0.9965 0.6957
H47 H 0.9244 1.0909 0.7246
H48 H 0.8113 1.0296 0.7601
loop_
_geom_bond_atom_site_label_1
_geom_bond_atom_site_label_2
_geom_bond_site_symmetry_1
_geom_bond_site_symmetry_2
B1 F1 1_555 1_555
F2 B1 1_555 1_555
N1 B1 1_555 1_555
N2 B1 1_555 1_555
N3 C23 1_555 1_555
C1 N1 1_555 1_555
H1 C1 1_555 1_555
C2 C1 1_555 1_555
H2 C2 1_555 1_555
C3 C2 1_555 1_555
H3 C3 1_555 1_555
C4 C3 1_555 1_555
H4 C4 1_555 1_555
C5 N1 1_555 1_555
C6 C5 1_555 1_555
C7 C6 1_555 1_555
C8 C7 1_555 1_555
H5 C8 1_555 1_555
C9 C8 1_555 1_555
H6 C9 1_555 1_555
C10 C9 1_555 1_555
H7 C10 1_555 1_555
C11 C10 1_555 1_555
H8 C11 1_555 1_555
C12 C7 1_555 1_555
H9 C12 1_555 1_555
C13 N2 1_555 1_555
C14 C13 1_555 1_555
C15 C14 1_555 1_555
H10 C15 1_555 1_555
C16 C15 1_555 1_555
H11 C16 1_555 1_555
C17 C16 1_555 1_555
H12 C17 1_555 1_555
C18 C17 1_555 1_555
H13 C18 1_555 1_555
C19 C14 1_555 1_555
H14 C19 1_555 1_555
C20 N2 1_555 1_555
C21 C20 1_555 1_555
H15 C21 1_555 1_555
C22 C21 1_555 1_555
H16 C22 1_555 1_555
C23 C22 1_555 1_555
C24 C23 1_555 1_555
H17 C24 1_555 1_555
C25 C20 1_555 1_555
H18 C25 1_555 1_555
C26 N3 1_555 1_555
H19 C26 1_555 1_555
H20 C26 1_555 1_555
H21 C26 1_555 1_555
C27 N3 1_555 1_555
H22 C27 1_555 1_555
H23 C27 1_555 1_555
H24 C27 1_555 1_555
B2 F3 1_555 1_555
F4 B2 1_555 1_555
N4 B2 1_555 1_555
N5 B2 1_555 1_555
N6 C50 1_555 1_555
C28 N4 1_555 1_555
H25 C28 1_555 1_555
C29 C28 1_555 1_555
H26 C29 1_555 1_555
C30 C29 1_555 1_555
H27 C30 1_555 1_555
C31 C30 1_555 1_555
H28 C31 1_555 1_555
C32 N4 1_555 1_555
C33 C32 1_555 1_555
C34 C33 1_555 1_555
C35 C34 1_555 1_555
H29 C35 1_555 1_555
C36 C35 1_555 1_555
H30 C36 1_555 1_555
C37 C36 1_555 1_555
H31 C37 1_555 1_555
C38 C37 1_555 1_555
H32 C38 1_555 1_555
C39 C34 1_555 1_555
H33 C39 1_555 1_555
C40 N5 1_555 1_555
C41 C40 1_555 1_555
C42 C41 1_555 1_555
H34 C42 1_555 1_555
C43 C42 1_555 1_555
H35 C43 1_555 1_555
C44 C43 1_555 1_555
H36 C44 1_555 1_555
C45 C44 1_555 1_555
H37 C45 1_555 1_555
C46 C41 1_555 1_555
H38 C46 1_555 1_555
C47 N5 1_555 1_555
C48 C47 1_555 1_555
H39 C48 1_555 1_555
C49 C48 1_555 1_555
H40 C49 1_555 1_555
C50 C49 1_555 1_555
C51 C50 1_555 1_555
H41 C51 1_555 1_555
C52 C47 1_555 1_555
H42 C52 1_555 1_555
C53 N6 1_555 1_555
H43 C53 1_555 1_555
H44 C53 1_555 1_555
H45 C53 1_555 1_555
C54 N6 1_555 1_555
H46 C54 1_555 1_555
H47 C54 1_555 1_555
H48 C54 1_555 1_555
C4 C5 1_555 1_555
C6 C13 1_555 1_555
C11 C12 1_555 1_555
C18 C19 1_555 1_555
C24 C25 1_555 1_555
C31 C32 1_555 1_555
C33 C40 1_555 1_555
C38 C39 1_555 1_555
C45 C46 1_555 1_555
C51 C52 1_555 1_555

#END
