
#######################################################################
#
#                 Cambridge Crystallographic Data Centre
#                                CCDC 
#
#######################################################################
#
# If this CIF has been generated from an entry in the Cambridge 
# Structural Database, then it will include bibliographic, chemical, 
# crystal, experimental, refinement or atomic coordinate data resulting 
# from the CCDC's data processing and validation procedures.
#
#######################################################################

data_KORFII
_chemical_formula_moiety         'C25 H19 B1 F2 N2'
_chemical_name_systematic        
(N-(1,2-diphenyl-2-(pyridin-2-yl)vinyl)anilinato)(difluoro)borate
_symmetry_cell_setting           orthorhombic
_symmetry_space_group_name_H-M   'P 21 21 21'
_symmetry_Int_Tables_number      19
_space_group_name_Hall           'P 2ac 2ab'
loop_
_symmetry_equiv_pos_site_id
_symmetry_equiv_pos_as_xyz
1 x,y,z
2 1/2-x,-y,1/2+z
3 1/2+x,1/2-y,-z
4 -x,1/2+y,1/2-z
_cell_length_a                   10.9427(7)
_cell_length_b                   12.7077(7)
_cell_length_c                   14.9474(11)
_cell_angle_alpha                90
_cell_angle_beta                 90
_cell_angle_gamma                90
_cell_volume                     2078.53
_exptl_crystal_colour            yellow
_exptl_crystal_description       block
_cell_formula_units_Z            4
loop_
_atom_site_label
_atom_site_type_symbol
_atom_site_fract_x
_atom_site_fract_y
_atom_site_fract_z
B1 B 0.8388(3) 0.6364(2) 0.1994(3)
F1 F 0.82248(17) 0.58138(12) 0.11981(13)
F2 F 0.95953(15) 0.67273(12) 0.20235(14)
N1 N 0.7474(2) 0.72494(15) 0.20860(17)
N2 N 0.8220(2) 0.55881(17) 0.27898(18)
C1 C 0.7127(3) 0.77961(19) 0.1285(2)
C2 C 0.8025(3) 0.8163(2) 0.0722(2)
H1 H 0.8841 0.8070 0.0876
C3 C 0.7731(4) 0.8668(3) -0.0071(3)
H2 H 0.8347 0.8915 -0.0445
C4 C 0.6528(5) 0.8804(3) -0.0302(3)
H3 H 0.6329 0.9131 -0.0839
C5 C 0.5617(4) 0.8458(3) 0.0257(3)
H4 H 0.4803 0.8572 0.0108
C6 C 0.5912(3) 0.7938(2) 0.1045(2)
H5 H 0.5294 0.7683 0.1413
C7 C 0.7048(3) 0.75373(19) 0.2906(2)
C8 C 0.6314(3) 0.8520(2) 0.2975(2)
C9 C 0.6797(3) 0.9483(2) 0.2727(2)
H6 H 0.7600 0.9530 0.2527
C10 C 0.6072(5) 1.0381(3) 0.2780(3)
H7 H 0.6395 1.1036 0.2633
C11 C 0.4879(5) 1.0297(3) 0.3051(3)
H8 H 0.4390 1.0895 0.3065
C12 C 0.4397(4) 0.9353(3) 0.3301(3)
H9 H 0.3590 0.9307 0.3492
C13 C 0.5122(3) 0.8465(3) 0.3264(3)
H10 H 0.4800 0.7820 0.3439
C14 C 0.7250(3) 0.6938(2) 0.3659(2)
C15 C 0.6931(3) 0.7364(2) 0.4562(2)
C16 C 0.7554(3) 0.8228(2) 0.4893(2)
H11 H 0.8181 0.8521 0.4555
C17 C 0.7271(4) 0.8665(3) 0.5708(3)
H12 H 0.7708 0.9244 0.5914
C18 C 0.6346(4) 0.8250(3) 0.6220(3)
H13 H 0.6156 0.8543 0.6773
C19 C 0.5708(4) 0.7403(3) 0.5907(3)
H14 H 0.5077 0.7123 0.6249
C20 C 0.5990(3) 0.6957(2) 0.5087(3)
H15 H 0.5546 0.6380 0.4885
C21 C 0.7782(3) 0.5905(2) 0.3592(2)
C22 C 0.7834(3) 0.5199(2) 0.4317(2)
H16 H 0.7578 0.5414 0.4881
C23 C 0.8260(4) 0.4200(3) 0.4193(3)
H17 H 0.8276 0.3732 0.4672
C24 C 0.8664(4) 0.3883(3) 0.3366(3)
H18 H 0.8941 0.3200 0.3274
C25 C 0.8648(3) 0.4589(2) 0.2690(2)
H19 H 0.8942 0.4384 0.2133
loop_
_geom_bond_atom_site_label_1
_geom_bond_atom_site_label_2
_geom_bond_site_symmetry_1
_geom_bond_site_symmetry_2
B1 F1 1_555 1_555
F2 B1 1_555 1_555
N1 B1 1_555 1_555
N2 B1 1_555 1_555
C1 N1 1_555 1_555
C2 C1 1_555 1_555
H1 C2 1_555 1_555
C3 C2 1_555 1_555
H2 C3 1_555 1_555
C4 C3 1_555 1_555
H3 C4 1_555 1_555
C5 C4 1_555 1_555
H4 C5 1_555 1_555
C6 C1 1_555 1_555
H5 C6 1_555 1_555
C7 N1 1_555 1_555
C8 C7 1_555 1_555
C9 C8 1_555 1_555
H6 C9 1_555 1_555
C10 C9 1_555 1_555
H7 C10 1_555 1_555
C11 C10 1_555 1_555
H8 C11 1_555 1_555
C12 C11 1_555 1_555
H9 C12 1_555 1_555
C13 C8 1_555 1_555
H10 C13 1_555 1_555
C14 C7 1_555 1_555
C15 C14 1_555 1_555
C16 C15 1_555 1_555
H11 C16 1_555 1_555
C17 C16 1_555 1_555
H12 C17 1_555 1_555
C18 C17 1_555 1_555
H13 C18 1_555 1_555
C19 C18 1_555 1_555
H14 C19 1_555 1_555
C20 C15 1_555 1_555
H15 C20 1_555 1_555
C21 N2 1_555 1_555
C22 C21 1_555 1_555
H16 C22 1_555 1_555
C23 C22 1_555 1_555
H17 C23 1_555 1_555
C24 C23 1_555 1_555
H18 C24 1_555 1_555
C25 N2 1_555 1_555
H19 C25 1_555 1_555
C5 C6 1_555 1_555
C12 C13 1_555 1_555
C14 C21 1_555 1_555
C19 C20 1_555 1_555
C24 C25 1_555 1_555

#END
