
#######################################################################
#
#                 Cambridge Crystallographic Data Centre
#                                CCDC 
#
#######################################################################
#
# If this CIF has been generated from an entry in the Cambridge 
# Structural Database, then it will include bibliographic, chemical, 
# crystal, experimental, refinement or atomic coordinate data resulting 
# from the CCDC's data processing and validation procedures.
#
#######################################################################

data_KORKEJ
_chemical_formula_moiety         'C19 H14 Br1 N1 O3'
_chemical_name_systematic        
'methyl 3-benzoyl-4-bromo-1H-1-benzazepine-1-carboxylate'
_symmetry_cell_setting           monoclinic
_symmetry_space_group_name_H-M   'P 21/n'
_symmetry_Int_Tables_number      14
_space_group_name_Hall           '-P 2yn'
loop_
_symmetry_equiv_pos_site_id
_symmetry_equiv_pos_as_xyz
1 x,y,z
2 1/2-x,1/2+y,1/2-z
3 -x,-y,-z
4 1/2+x,1/2-y,1/2+z
_cell_length_a                   12.7969(11)
_cell_length_b                   9.4201(8)
_cell_length_c                   14.4117(12)
_cell_angle_alpha                90
_cell_angle_beta                 103.505(2)
_cell_angle_gamma                90
_cell_volume                     1689.27
_exptl_crystal_colour            colorless
_exptl_crystal_description       prismatic
_cell_formula_units_Z            4
loop_
_atom_site_label
_atom_site_type_symbol
_atom_site_fract_x
_atom_site_fract_y
_atom_site_fract_z
Br1 Br 0.45025(2) 0.99355(2) 0.15125(2)
N1 N 0.32284(15) 0.5405(2) 0.10500(13)
O1 O 0.55073(15) 0.73426(18) -0.02584(12)
O2 O 0.15417(14) 0.4482(2) 0.07861(12)
O3 O 0.21945(15) 0.5367(2) -0.04093(12)
C1 C 0.35112(18) 0.5023(2) 0.20463(16)
C2 C 0.34691(19) 0.3621(3) 0.23040(19)
H1 H 0.3311 0.2920 0.1838
C3 C 0.3662(2) 0.3262(4) 0.3253(2)
H2 H 0.3649 0.2315 0.3433
C4 C 0.3876(2) 0.4315(4) 0.3940(2)
H3 H 0.3965 0.4076 0.4580
C5 C 0.3958(2) 0.5712(4) 0.36872(18)
H4 H 0.4115 0.6407 0.4158
C6 C 0.38071(18) 0.6092(3) 0.27274(16)
C7 C 0.39652(18) 0.7560(3) 0.24744(16)
H5 H 0.3784 0.8268 0.2859
C8 C 0.43470(17) 0.7964(2) 0.17379(16)
C9 C 0.46278(17) 0.7075(2) 0.09978(15)
C10 C 0.40510(18) 0.5943(2) 0.06499(16)
H6 H 0.4196 0.5487 0.0121
C11 C 0.55788(19) 0.7427(2) 0.05973(17)
C12 C 0.66113(19) 0.7782(2) 0.12661(18)
C13 C 0.6852(2) 0.7276(3) 0.21944(19)
H7 H 0.6343 0.6752 0.2414
C14 C 0.7842(2) 0.7544(4) 0.2796(2)
H8 H 0.8002 0.7183 0.3414
C15 C 0.8581(2) 0.8335(4) 0.2488(3)
H9 H 0.9241 0.8533 0.2899
C16 C 0.8356(3) 0.8838(4) 0.1576(3)
H10 H 0.8867 0.9375 0.1369
C17 C 0.7378(2) 0.8562(3) 0.0955(2)
H11 H 0.7237 0.8899 0.0332
C18 C 0.2253(2) 0.5013(2) 0.04972(16)
C19 C 0.1188(3) 0.5052(3) -0.1071(2)
H12 H 0.0994 0.4083 -0.0993
H13 H 0.1263 0.5194 -0.1712
H14 H 0.0638 0.5669 -0.0950
loop_
_geom_bond_atom_site_label_1
_geom_bond_atom_site_label_2
_geom_bond_site_symmetry_1
_geom_bond_site_symmetry_2
Br1 C8 1_555 1_555
N1 C1 1_555 1_555
O1 C11 1_555 1_555
O2 C18 1_555 1_555
O3 C18 1_555 1_555
C1 C2 1_555 1_555
C2 H1 1_555 1_555
C3 C2 1_555 1_555
H2 C3 1_555 1_555
C4 C3 1_555 1_555
H3 C4 1_555 1_555
C5 C4 1_555 1_555
H4 C5 1_555 1_555
C6 C1 1_555 1_555
C7 C6 1_555 1_555
H5 C7 1_555 1_555
C8 C7 1_555 1_555
C9 C8 1_555 1_555
C10 N1 1_555 1_555
H6 C10 1_555 1_555
C11 C9 1_555 1_555
C12 C11 1_555 1_555
C13 C12 1_555 1_555
H7 C13 1_555 1_555
C14 C13 1_555 1_555
H8 C14 1_555 1_555
C15 C14 1_555 1_555
H9 C15 1_555 1_555
C16 C15 1_555 1_555
H10 C16 1_555 1_555
C17 C12 1_555 1_555
H11 C17 1_555 1_555
C18 N1 1_555 1_555
C19 O3 1_555 1_555
H12 C19 1_555 1_555
H13 C19 1_555 1_555
H14 C19 1_555 1_555
C5 C6 1_555 1_555
C9 C10 1_555 1_555
C16 C17 1_555 1_555

#END
