
#######################################################################
#
#                 Cambridge Crystallographic Data Centre
#                                CCDC 
#
#######################################################################
#
# If this CIF has been generated from an entry in the Cambridge 
# Structural Database, then it will include bibliographic, chemical, 
# crystal, experimental, refinement or atomic coordinate data resulting 
# from the CCDC's data processing and validation procedures.
#
#######################################################################

data_KORKOT
_chemical_formula_moiety         'C18 H25 N1 O6'
_chemical_name_systematic        
'methyl 3-(3,4,5-trimethoxybenzoyl)azepane-1-carboxylate'
_symmetry_cell_setting           monoclinic
_symmetry_space_group_name_H-M   'C 2/c'
_symmetry_Int_Tables_number      15
_space_group_name_Hall           '-C 2yn'
loop_
_symmetry_equiv_pos_site_id
_symmetry_equiv_pos_as_xyz
1 x,y,z
2 -x,y,1/2-z
3 1/2+x,1/2+y,z
4 1/2-x,1/2+y,1/2-z
5 -x,-y,-z
6 x,-y,1/2+z
7 1/2-x,1/2-y,-z
8 1/2+x,1/2-y,1/2+z
_cell_length_a                   25.344(4)
_cell_length_b                   8.9573(12)
_cell_length_c                   16.248(2)
_cell_angle_alpha                90
_cell_angle_beta                 97.122(5)
_cell_angle_gamma                90
_cell_volume                     3660.06
_exptl_crystal_colour            colorless
_exptl_crystal_description       prismatic
_cell_formula_units_Z            8
loop_
_atom_site_label
_atom_site_type_symbol
_atom_site_fract_x
_atom_site_fract_y
_atom_site_fract_z
N1 N 1.08538(9) 0.6416(3) 0.06151(16)
O1 O 0.95727(9) 0.9822(2) 0.08740(18)
O2 O 0.77341(8) 0.7901(3) 0.10342(14)
O3 O 0.78471(8) 0.5014(3) 0.14180(14)
O4 O 0.88009(8) 0.3723(2) 0.16781(14)
O5 O 1.04472(8) 0.4367(2) 0.10588(14)
O6 O 1.13201(8) 0.4328(2) 0.09244(14)
C1 C 1.13505(14) 0.7206(4) 0.0500(3)
H1 H 1.1370 0.7310 -0.0089
H2 H 1.1649 0.6596 0.0730
C2 C 1.14047(14) 0.8697(4) 0.0887(2)
H3 H 1.1229 0.9419 0.0501
H4 H 1.1779 0.8956 0.0975
C3 C 1.11784(13) 0.8843(4) 0.1710(2)
H5 H 1.1232 0.7909 0.2011
H6 H 1.1373 0.9613 0.2039
C4 C 1.05952(13) 0.9225(4) 0.1610(2)
H7 H 1.0536 1.0058 0.1228
H8 H 1.0503 0.9556 0.2142
C5 C 1.02163(10) 0.7957(3) 0.12940(17)
H9 H 1.0226 0.7189 0.1725
C6 C 1.03582(12) 0.7243(3) 0.05043(18)
H10 H 1.0074 0.6573 0.0289
H11 H 1.0383 0.8018 0.0094
C7 C 0.96511(11) 0.8539(3) 0.11112(18)
C8 C 0.91905(10) 0.7550(3) 0.12004(16)
C9 C 0.86854(11) 0.8194(3) 0.10607(17)
H12 H 0.8650 0.9195 0.0912
C10 C 0.82404(11) 0.7353(4) 0.11428(17)
C11 C 0.82917(11) 0.5852(4) 0.13599(17)
C12 C 0.87932(11) 0.5204(3) 0.14884(17)
C13 C 0.92426(11) 0.6054(3) 0.14099(17)
H13 H 0.9578 0.5619 0.1498
C14 C 0.76579(14) 0.9350(5) 0.0689(3)
H14 H 0.7829 1.0072 0.1069
H15 H 0.7284 0.9564 0.0588
H16 H 0.7809 0.9395 0.0175
C15 C 0.77036(16) 0.4897(7) 0.2218(2)
H17 H 0.8011 0.4648 0.2599
H18 H 0.7440 0.4130 0.2229
H19 H 0.7561 0.5833 0.2375
C16 C 0.93073(13) 0.3018(4) 0.1839(2)
H20 H 0.9502 0.3169 0.1376
H21 H 0.9259 0.1968 0.1922
H22 H 0.9501 0.3443 0.2329
C17 C 1.08397(11) 0.4998(3) 0.08783(18)
C18 C 1.13277(14) 0.2785(3) 0.1150(2)
H23 H 1.1229 0.2683 0.1699
H24 H 1.1679 0.2391 0.1138
H25 H 1.1080 0.2245 0.0765
loop_
_geom_bond_atom_site_label_1
_geom_bond_atom_site_label_2
_geom_bond_site_symmetry_1
_geom_bond_site_symmetry_2
N1 C1 1_555 1_555
O1 C7 1_555 1_555
O2 C10 1_555 1_555
O3 C11 1_555 1_555
O4 C12 1_555 1_555
O5 C17 1_555 1_555
O6 C17 1_555 1_555
C1 H1 1_555 1_555
H2 C1 1_555 1_555
C2 C1 1_555 1_555
H3 C2 1_555 1_555
H4 C2 1_555 1_555
C3 C2 1_555 1_555
H5 C3 1_555 1_555
H6 C3 1_555 1_555
C4 C3 1_555 1_555
H7 C4 1_555 1_555
H8 C4 1_555 1_555
C5 C4 1_555 1_555
H9 C5 1_555 1_555
C6 N1 1_555 1_555
H10 C6 1_555 1_555
H11 C6 1_555 1_555
C7 C5 1_555 1_555
C8 C7 1_555 1_555
C9 C8 1_555 1_555
H12 C9 1_555 1_555
C10 C9 1_555 1_555
C11 C10 1_555 1_555
C12 C11 1_555 1_555
C13 C8 1_555 1_555
H13 C13 1_555 1_555
C14 O2 1_555 1_555
H14 C14 1_555 1_555
H15 C14 1_555 1_555
H16 C14 1_555 1_555
C15 O3 1_555 1_555
H17 C15 1_555 1_555
H18 C15 1_555 1_555
H19 C15 1_555 1_555
C16 O4 1_555 1_555
H20 C16 1_555 1_555
H21 C16 1_555 1_555
H22 C16 1_555 1_555
C17 N1 1_555 1_555
C18 O6 1_555 1_555
H23 C18 1_555 1_555
H24 C18 1_555 1_555
H25 C18 1_555 1_555
C5 C6 1_555 1_555
C12 C13 1_555 1_555

#END
