
#######################################################################
#
#                 Cambridge Crystallographic Data Centre
#                                CCDC 
#
#######################################################################
#
# If this CIF has been generated from an entry in the Cambridge 
# Structural Database, then it will include bibliographic, chemical, 
# crystal, experimental, refinement or atomic coordinate data resulting 
# from the CCDC's data processing and validation procedures.
#
#######################################################################

data_KORKIN
_chemical_formula_moiety         'C17 H13 N1 O3 S1'
_chemical_name_systematic        
'methyl 1-(2-thienylcarbonyl)-3H-3-benzazepine-3-carboxylate'
_symmetry_cell_setting           monoclinic
_symmetry_space_group_name_H-M   'P c'
_symmetry_Int_Tables_number      7
_space_group_name_Hall           'P -2yc'
loop_
_symmetry_equiv_pos_site_id
_symmetry_equiv_pos_as_xyz
1 x,y,z
2 x,-y,1/2+z
_cell_length_a                   7.936(3)
_cell_length_b                   13.528(4)
_cell_length_c                   7.177(2)
_cell_angle_alpha                90
_cell_angle_beta                 102.787(6)
_cell_angle_gamma                90
_cell_volume                     751.401
_exptl_crystal_colour            green
_exptl_crystal_description       prismatic
_cell_formula_units_Z            2
loop_
_atom_site_label
_atom_site_type_symbol
_atom_site_fract_x
_atom_site_fract_y
_atom_site_fract_z
S1 S 0.66295(12) 0.44648(7) 1.35040(13)
N1 N 0.8176(3) 0.07034(17) 1.0246(4)
O1 O 0.9624(3) 0.40110(17) 1.1829(3)
O2 O 0.5491(3) 0.03337(18) 1.0660(4)
O3 O 0.7294(3) -0.08674(17) 1.0159(4)
C1 C 0.9822(3) 0.2555(2) 0.8910(4)
C2 C 0.9790(4) 0.3411(2) 0.7826(4)
H1 H 0.9062 0.3927 0.7991
C3 C 1.0815(5) 0.3510(3) 0.6511(5)
H2 H 1.0773 0.4087 0.5798
C4 C 1.1887(5) 0.2759(3) 0.6265(5)
H3 H 1.2558 0.2818 0.5360
C5 C 1.1985(4) 0.1911(2) 0.7349(5)
H4 H 1.2758 0.1416 0.7201
C6 C 1.0949(4) 0.1782(2) 0.8661(4)
C7 C 1.1091(4) 0.0836(2) 0.9671(5)
H5 H 1.2176 0.0540 0.9917
C8 C 0.9867(4) 0.0345(2) 1.0281(5)
H6 H 1.0138 -0.0285 1.0772
C9 C 0.7971(4) 0.1685(2) 1.0820(4)
H7 H 0.7235 0.1779 1.1649
C10 C 0.8708(3) 0.2485(2) 1.0309(4)
C11 C 0.8456(4) 0.3421(2) 1.1342(4)
C12 C 0.6748(4) 0.3618(2) 1.1777(4)
C13 C 0.5080(3) 0.3239(2) 1.0843(4)
H8 H 0.4852 0.2785 0.9847
C14 C 0.3825(4) 0.3700(3) 1.1747(6)
H9 H 0.2652 0.3555 1.1399
C15 C 0.4466(5) 0.4344(3) 1.3107(6)
H10 H 0.3788 0.4696 1.3780
C16 C 0.6846(4) 0.0067(2) 1.0394(5)
C17 C 0.5982(6) -0.1580(3) 1.0271(7)
H11 H 0.5742 -0.1563 1.1524
H12 H 0.6376 -0.2228 1.0027
H13 H 0.4949 -0.1426 0.9337
loop_
_geom_bond_atom_site_label_1
_geom_bond_atom_site_label_2
_geom_bond_site_symmetry_1
_geom_bond_site_symmetry_2
S1 C12 1_555 1_555
N1 C8 1_555 1_555
O1 C11 1_555 1_555
O2 C16 1_555 1_555
O3 C16 1_555 1_555
C1 C2 1_555 1_555
C2 H1 1_555 1_555
C3 C2 1_555 1_555
H2 C3 1_555 1_555
C4 C3 1_555 1_555
H3 C4 1_555 1_555
C5 C4 1_555 1_555
H4 C5 1_555 1_555
C6 C1 1_555 1_555
C7 C6 1_555 1_555
H5 C7 1_555 1_555
C8 C7 1_555 1_555
H6 C8 1_555 1_555
C9 N1 1_555 1_555
H7 C9 1_555 1_555
C10 C1 1_555 1_555
C11 C10 1_555 1_555
C12 C11 1_555 1_555
C13 C12 1_555 1_555
H8 C13 1_555 1_555
C14 C13 1_555 1_555
H9 C14 1_555 1_555
C15 S1 1_555 1_555
H10 C15 1_555 1_555
C16 N1 1_555 1_555
C17 O3 1_555 1_555
H11 C17 1_555 1_555
H12 C17 1_555 1_555
H13 C17 1_555 1_555
C5 C6 1_555 1_555
C9 C10 1_555 1_555
C14 C15 1_555 1_555

#END
