
#######################################################################
#
#                 Cambridge Crystallographic Data Centre
#                                CCDC 
#
#######################################################################
#
# If this CIF has been generated from an entry in the Cambridge 
# Structural Database, then it will include bibliographic, chemical, 
# crystal, experimental, refinement or atomic coordinate data resulting 
# from the CCDC's data processing and validation procedures.
#
#######################################################################

data_KORKEH
_chemical_formula_moiety         'C26 H32 O2'
_chemical_name_systematic        6,15-Di-t-butyl(3.3)metacyclophane-2,11-dione
_symmetry_cell_setting           triclinic
_symmetry_space_group_name_H-M   'P -1'
_symmetry_Int_Tables_number      2
_space_group_name_Hall           '-P 1'
loop_
_symmetry_equiv_pos_site_id
_symmetry_equiv_pos_as_xyz
1 x,y,z
2 -x,-y,-z
_cell_length_a                   6.465(1)
_cell_length_b                   8.680(1)
_cell_length_c                   10.005(2)
_cell_angle_alpha                83.08(1)
_cell_angle_beta                 78.45(1)
_cell_angle_gamma                85.47(1)
_cell_volume                     545.197
_exptl_crystal_colour            colorless
_chemical_melting_point          176-179deg.C
_cell_formula_units_Z            1
loop_
_atom_site_label
_atom_site_type_symbol
_atom_site_fract_x
_atom_site_fract_y
_atom_site_fract_z
O1 O -0.09764(38) 0.94424(21) 0.18537(24)
C1 C -0.25065(37) 0.71788(26) 0.15481(22)
H1 H -0.37948(37) 0.78124(26) 0.17376(22)
H2 H -0.25009(37) 0.63972(26) 0.23131(22)
C2 C -0.06726(39) 0.81835(22) 0.14481(21)
C3 C 0.15321(38) 0.76625(24) 0.08115(26)
H3 H 0.24975(38) 0.80973(24) 0.12585(26)
H4 H 0.17943(38) 0.80959(24) -0.01319(26)
C4 C 0.20546(31) 0.59376(22) 0.08491(21)
C5 C 0.22920(30) 0.52115(23) -0.03380(21)
H5 H 0.22784(30) 0.58255(23) -0.12014(21)
C6 C -0.25254(30) 0.63857(23) 0.02870(19)
C7 C -0.26461(31) 0.72571(22) -0.09486(20)
H6 H -0.28469(31) 0.83672(22) -0.09744(20)
C8 C -0.25073(31) 0.65677(22) -0.21543(20)
C9 C 0.21826(31) 0.50407(22) 0.20722(21)
H7 H 0.20495(31) 0.55466(22) 0.28897(21)
C10 C -0.26091(36) 0.75198(25) -0.35334(21)
C11 C -0.33580(58) 0.91925(31) -0.33844(30)
H8 H -0.24401(58) 0.96607(31) -0.29244(30)
H9 H -0.47718(58) 0.92313(31) -0.28565(30)
H10 H -0.33427(58) 0.97487(31) -0.42756(30)
C12 C -0.03880(54) 0.75174(42) -0.44053(32)
H11 H 0.05257(54) 0.79713(42) -0.39325(32)
H12 H -0.04151(54) 0.81189(42) -0.52728(32)
H13 H 0.01289(54) 0.64722(42) -0.45542(32)
C13 C -0.40555(60) 0.68036(38) -0.42710(31)
H14 H -0.35949(60) 0.57385(38) -0.43755(31)
H15 H -0.40374(60) 0.73691(38) -0.51587(31)
H16 H -0.54665(60) 0.68517(38) -0.37397(31)
C5A C -0.22920(30) 0.47885(23) 0.03380(21)
C4A C -0.20546(31) 0.40624(22) -0.08491(21)
C3A C -0.15321(38) 0.23375(24) -0.08115(26)
C2A C 0.06726(39) 0.18165(22) -0.14481(21)
O1A O 0.09764(38) 0.05576(21) -0.18537(24)
C1A C 0.25065(37) 0.28212(26) -0.15481(22)
H1A H 0.37948(37) 0.21876(26) -0.17376(22)
H2A H 0.25009(37) 0.36028(26) -0.23131(22)
C6A C 0.25254(30) 0.36143(23) -0.02870(19)
C8A C 0.25073(31) 0.34323(22) 0.21543(20)
C7A C 0.26461(31) 0.27429(22) 0.09486(20)
H6A H 0.28469(31) 0.16328(22) 0.09744(20)
C10A C 0.26091(36) 0.24802(25) 0.35334(21)
C11A C 0.33580(58) 0.08075(31) 0.33844(30)
H8A H 0.24401(58) 0.03393(31) 0.29244(30)
H9A H 0.47718(58) 0.07687(31) 0.28565(30)
H10A H 0.33427(58) 0.02513(31) 0.42756(30)
C12A C 0.03880(54) 0.24826(42) 0.44053(32)
H11A H -0.05257(54) 0.20287(42) 0.39325(32)
H12A H 0.04151(54) 0.18811(42) 0.52728(32)
H13A H -0.01289(54) 0.35278(42) 0.45542(32)
C13A C 0.40555(60) 0.31964(38) 0.42710(31)
H14A H 0.35949(60) 0.42615(38) 0.43755(31)
H15A H 0.40374(60) 0.26309(38) 0.51587(31)
H16A H 0.54665(60) 0.31483(38) 0.37397(31)
H3A H -0.24975(38) 0.19027(24) -0.12585(26)
H4A H -0.17943(38) 0.19041(24) 0.01319(26)
C9A C -0.21826(31) 0.49593(22) -0.20722(21)
H7A H -0.20495(31) 0.44534(22) -0.28897(21)
H5A H -0.22784(30) 0.41745(23) 0.12014(21)
loop_
_geom_bond_atom_site_label_1
_geom_bond_atom_site_label_2
_geom_bond_site_symmetry_1
_geom_bond_site_symmetry_2
O1 C2 1_555 1_555
C1 H1 1_555 1_555
H2 C1 1_555 1_555
C2 C1 1_555 1_555
C3 C2 1_555 1_555
H3 C3 1_555 1_555
H4 C3 1_555 1_555
C4 C3 1_555 1_555
C5 C4 1_555 1_555
H5 C5 1_555 1_555
C6 C1 1_555 1_555
C7 C6 1_555 1_555
H6 C7 1_555 1_555
C8 C7 1_555 1_555
C9 C4 1_555 1_555
H7 C9 1_555 1_555
C10 C8 1_555 1_555
C11 C10 1_555 1_555
H8 C11 1_555 1_555
H9 C11 1_555 1_555
H10 C11 1_555 1_555
C12 C10 1_555 1_555
H11 C12 1_555 1_555
H12 C12 1_555 1_555
H13 C12 1_555 1_555
C13 C10 1_555 1_555
H14 C13 1_555 1_555
H15 C13 1_555 1_555
H16 C13 1_555 1_555
C5A C6 1_555 1_555
C4A C5A 1_555 1_555
C3A C4A 1_555 1_555
C2A C3A 1_555 1_555
O1A C2A 1_555 1_555
C1A C2A 1_555 1_555
H1A C1A 1_555 1_555
H2A C1A 1_555 1_555
C6A C5 1_555 1_555
C8A C9 1_555 1_555
C7A C6A 1_555 1_555
H6A C7A 1_555 1_555
C10A C8A 1_555 1_555
C11A C10A 1_555 1_555
H8A C11A 1_555 1_555
H9A C11A 1_555 1_555
H10A C11A 1_555 1_555
C12A C10A 1_555 1_555
H11A C12A 1_555 1_555
H12A C12A 1_555 1_555
H13A C12A 1_555 1_555
C13A C10A 1_555 1_555
H14A C13A 1_555 1_555
H15A C13A 1_555 1_555
H16A C13A 1_555 1_555
H3A C3A 1_555 1_555
H4A C3A 1_555 1_555
C9A C8 1_555 1_555
H7A C9A 1_555 1_555
H5A C5A 1_555 1_555
C4A C9A 1_555 1_555
C1A C6A 1_555 1_555
C8A C7A 1_555 1_555

#END
