
#######################################################################
#
#                 Cambridge Crystallographic Data Centre
#                                CCDC 
#
#######################################################################
#
# If this CIF has been generated from an entry in the Cambridge 
# Structural Database, then it will include bibliographic, chemical, 
# crystal, experimental, refinement or atomic coordinate data resulting 
# from the CCDC's data processing and validation procedures.
#
#######################################################################

data_KORNUC
_chemical_formula_moiety         'C20 H19 N1 O3 S1'
_chemical_name_systematic        
3-((4-methylphenyl)sulfonyl)-3a,4,5,9b-tetrahydro-3H-benzo[e]indole-1-carbaldehyde
_symmetry_cell_setting           monoclinic
_symmetry_space_group_name_H-M   'P 21/c'
_symmetry_Int_Tables_number      14
_space_group_name_Hall           '-P 2ybc'
loop_
_symmetry_equiv_pos_site_id
_symmetry_equiv_pos_as_xyz
1 x,y,z
2 -x,1/2+y,1/2-z
3 -x,-y,-z
4 x,1/2-y,1/2+z
_cell_length_a                   8.86096(16)
_cell_length_b                   14.2469(2)
_cell_length_c                   13.5072(3)
_cell_angle_alpha                90
_cell_angle_beta                 90.1203(18)
_cell_angle_gamma                90
_cell_volume                     1705.16
_exptl_crystal_colour            'light colorless'
_exptl_crystal_description       block
_cell_formula_units_Z            4
loop_
_atom_site_label
_atom_site_type_symbol
_atom_site_fract_x
_atom_site_fract_y
_atom_site_fract_z
S1 S 0.13132(6) 0.22641(3) 0.54361(4)
O1 O 0.1811(2) 0.21581(12) 0.64328(11)
O2 O -0.01917(18) 0.20264(12) 0.51712(14)
N1 N 0.24364(18) 0.15921(11) 0.47606(11)
C1 C 0.3933(2) 0.14651(13) 0.50306(14)
H1 H 0.4299 0.1562 0.5668
C2 C 0.3665(2) 0.00668(13) 0.30093(12)
C3 C 0.4789(2) 0.11876(13) 0.42720(14)
C4 C 0.23416(19) 0.15754(12) 0.36460(13)
H2 H 0.2349 0.2222 0.3397
C5 C 0.0957(2) 0.00502(14) 0.35592(15)
H3 H 0.0992 -0.0007 0.4274
H4 H 0.0044 -0.0254 0.3325
C6 C 0.2310(2) -0.04202(13) 0.31148(13)
O3 O 0.72387(17) 0.08742(15) 0.36771(15)
C7 C 0.2739(3) 0.39538(17) 0.55360(16)
H5 H 0.3265 0.3703 0.6071
C8 C 0.38406(18) 0.10852(12) 0.33469(13)
H6 H 0.4312 0.1446 0.2813
C9 C 0.2287(3) 0.52372(16) 0.44164(18)
C10 C 0.2226(3) -0.13472(15) 0.27734(16)
H7 H 0.1326 -0.1677 0.2840
C11 C 0.0898(3) 0.37925(17) 0.42519(18)
H8 H 0.0165 0.3440 0.3928
C12 C 0.6409(2) 0.10514(16) 0.43621(18)
H9 H 0.6837 0.1104 0.4989
C13 C 0.1226(3) 0.46892(18) 0.39417(19)
H10 H 0.0718 0.4933 0.3396
C14 C 0.0931(2) 0.10813(14) 0.32714(14)
H11 H 0.0874 0.1137 0.2557
H12 H 0.0044 0.1379 0.3550
C15 C 0.2621(4) 0.62212(19) 0.4080(3)
H13 H 0.2158 0.6328 0.3446
H14 H 0.3693 0.6304 0.4025
H15 H 0.2226 0.6660 0.4552
C16 C 0.1670(2) 0.34223(14) 0.50486(14)
C17 C 0.4893(2) -0.03803(15) 0.25682(15)
H16 H 0.5798 -0.0057 0.2494
C18 C 0.3024(3) 0.48556(17) 0.52271(18)
H17 H 0.3725 0.5217 0.5570
C19 C 0.3445(3) -0.17794(15) 0.23419(18)
H18 H 0.3368 -0.2395 0.2119
C20 C 0.4782(3) -0.12960(17) 0.22405(17)
H19 H 0.5611 -0.1587 0.1951
loop_
_geom_bond_atom_site_label_1
_geom_bond_atom_site_label_2
_geom_bond_site_symmetry_1
_geom_bond_site_symmetry_2
S1 O1 1_555 1_555
O2 S1 1_555 1_555
N1 S1 1_555 1_555
C1 N1 1_555 1_555
H1 C1 1_555 1_555
C2 C6 1_555 1_555
C3 C1 1_555 1_555
C4 N1 1_555 1_555
H2 C4 1_555 1_555
C5 H3 1_555 1_555
H4 C5 1_555 1_555
C6 C5 1_555 1_555
O3 C12 1_555 1_555
C7 H5 1_555 1_555
C8 C2 1_555 1_555
H6 C8 1_555 1_555
C9 C13 1_555 1_555
C10 C6 1_555 1_555
H7 C10 1_555 1_555
C11 H8 1_555 1_555
C12 C3 1_555 1_555
H9 C12 1_555 1_555
C13 C11 1_555 1_555
H10 C13 1_555 1_555
C14 C4 1_555 1_555
H11 C14 1_555 1_555
H12 C14 1_555 1_555
C15 C9 1_555 1_555
H13 C15 1_555 1_555
H14 C15 1_555 1_555
H15 C15 1_555 1_555
C16 S1 1_555 1_555
C17 C2 1_555 1_555
H16 C17 1_555 1_555
C18 C7 1_555 1_555
H17 C18 1_555 1_555
C19 C10 1_555 1_555
H18 C19 1_555 1_555
C20 C17 1_555 1_555
H19 C20 1_555 1_555
C3 C8 1_555 1_555
C4 C8 1_555 1_555
C5 C14 1_555 1_555
C7 C16 1_555 1_555
C9 C18 1_555 1_555
C11 C16 1_555 1_555
C19 C20 1_555 1_555

#END
