
#######################################################################
#
#                 Cambridge Crystallographic Data Centre
#                                CCDC 
#
#######################################################################
#
# If this CIF has been generated from an entry in the Cambridge 
# Structural Database, then it will include bibliographic, chemical, 
# crystal, experimental, refinement or atomic coordinate data resulting 
# from the CCDC's data processing and validation procedures.
#
#######################################################################

data_KORPAK
_chemical_formula_moiety         'C20 H23 N1 O3 S1'
_chemical_name_systematic        
(3-((4-methylphenyl)sulfonyl)-2,3,3a,4,5,9b-hexahydro-1H-benzo[e]indol-1-yl)methanol
_symmetry_cell_setting           monoclinic
_symmetry_space_group_name_H-M   'P 21/c'
_symmetry_Int_Tables_number      14
_space_group_name_Hall           '-P 2ybc'
loop_
_symmetry_equiv_pos_site_id
_symmetry_equiv_pos_as_xyz
1 x,y,z
2 -x,1/2+y,1/2-z
3 -x,-y,-z
4 x,1/2-y,1/2+z
_cell_length_a                   14.8999(10)
_cell_length_b                   14.8474(9)
_cell_length_c                   7.9533(5)
_cell_angle_alpha                90
_cell_angle_beta                 97.161(7)
_cell_angle_gamma                90
_cell_volume                     1745.74
_cell_formula_units_Z            4
loop_
_atom_site_label
_atom_site_type_symbol
_atom_site_fract_x
_atom_site_fract_y
_atom_site_fract_z
S1 S 0.30292(5) 0.50254(5) 0.08977(9)
O1 O 0.34350(16) 0.24605(14) -0.3315(4)
O2 O 0.22868(15) 0.51122(14) 0.1875(2)
O3 O 0.38239(15) 0.45322(13) 0.1581(3)
N1 N 0.26510(15) 0.45202(14) -0.0854(3)
C1 C 0.17212(18) 0.46732(17) -0.1704(3)
H1 H 0.1570 0.5314 -0.1644
C2 C 0.10296(18) 0.41206(19) -0.0915(3)
H2 H 0.0999 0.4326 0.0234
H3 H 0.1211 0.3493 -0.0868
C3 C 0.01062(19) 0.4212(2) -0.1949(4)
H4 H -0.0330 0.3849 -0.1442
H5 H -0.0089 0.4835 -0.1943
C4 C 0.01424(18) 0.39121(17) -0.3733(3)
C5 C 0.09413(18) 0.39813(16) -0.4473(3)
C6 C 0.17902(17) 0.44116(16) -0.3561(3)
H6 H 0.1885 0.4973 -0.4165
C7 C 0.26754(17) 0.38630(17) -0.3514(3)
H7 H 0.2926 0.3940 -0.4588
C8 C 0.32835(18) 0.43281(19) -0.2105(3)
H8 H 0.3771 0.3936 -0.1632
H9 H 0.3537 0.4879 -0.2503
C9 C -0.0620(2) 0.35468(19) -0.4685(4)
H10 H -0.1158 0.3512 -0.4208
C10 C -0.0600(2) 0.3236(2) -0.6311(4)
H11 H -0.1115 0.2987 -0.6915
C11 C 0.0192(2) 0.32965(19) -0.7034(4)
H12 H 0.0215 0.3085 -0.8129
C12 C 0.0952(2) 0.36725(18) -0.6128(3)
H13 H 0.1481 0.3721 -0.6630
C13 C 0.25920(19) 0.28647(17) -0.3140(4)
H14 H 0.2443 0.2779 -0.1998
H15 H 0.2118 0.2596 -0.3929
C14 C 0.33849(18) 0.61220(17) 0.0460(3)
C15 C 0.2844(2) 0.68543(19) 0.0654(4)
H16 H 0.2260 0.6771 0.0925
C16 C 0.3164(2) 0.77125(19) 0.0449(4)
H17 H 0.2793 0.8203 0.0592
C17 C 0.4026(2) 0.78577(19) 0.0036(3)
C18 C 0.4552(2) 0.71147(19) -0.0214(4)
H18 H 0.5127 0.7198 -0.0532
C19 C 0.42440(19) 0.62566(19) -0.0003(4)
H19 H 0.4610 0.5765 -0.0170
C20 C 0.4401(3) 0.8799(2) -0.0095(4)
H20 H 0.3910 0.9221 -0.0281
H21 H 0.4753 0.8825 -0.1025
H22 H 0.4776 0.8947 0.0937
loop_
_geom_bond_atom_site_label_1
_geom_bond_atom_site_label_2
_geom_bond_site_symmetry_1
_geom_bond_site_symmetry_2
S1 O2 1_555 1_555
O1 C13 1_555 1_555
O3 S1 1_555 1_555
N1 S1 1_555 1_555
C1 N1 1_555 1_555
H1 C1 1_555 1_555
C2 C1 1_555 1_555
H2 C2 1_555 1_555
H3 C2 1_555 1_555
C3 C2 1_555 1_555
H4 C3 1_555 1_555
H5 C3 1_555 1_555
C4 C3 1_555 1_555
C5 C4 1_555 1_555
C6 C1 1_555 1_555
H6 C6 1_555 1_555
C7 C6 1_555 1_555
H7 C7 1_555 1_555
C8 N1 1_555 1_555
H8 C8 1_555 1_555
H9 C8 1_555 1_555
C9 C4 1_555 1_555
H10 C9 1_555 1_555
C10 C9 1_555 1_555
H11 C10 1_555 1_555
C11 C10 1_555 1_555
H12 C11 1_555 1_555
C12 C5 1_555 1_555
H13 C12 1_555 1_555
C13 C7 1_555 1_555
H14 C13 1_555 1_555
H15 C13 1_555 1_555
C14 S1 1_555 1_555
C15 C14 1_555 1_555
H16 C15 1_555 1_555
C16 C15 1_555 1_555
H17 C16 1_555 1_555
C17 C16 1_555 1_555
C18 C17 1_555 1_555
H18 C18 1_555 1_555
C19 C14 1_555 1_555
H19 C19 1_555 1_555
C20 C17 1_555 1_555
H20 C20 1_555 1_555
H21 C20 1_555 1_555
H22 C20 1_555 1_555
C5 C6 1_555 1_555
C7 C8 1_555 1_555
C11 C12 1_555 1_555
C18 C19 1_555 1_555

#END
