
#######################################################################
#
#                 Cambridge Crystallographic Data Centre
#                                CCDC 
#
#######################################################################
#
# If this CIF has been generated from an entry in the Cambridge 
# Structural Database, then it will include bibliographic, chemical, 
# crystal, experimental, refinement or atomic coordinate data resulting 
# from the CCDC's data processing and validation procedures.
#
#######################################################################

data_KORPEO
_chemical_formula_moiety         'C22 H23 N1 O3 S1'
_chemical_name_systematic        
2-((4-methylphenyl)sulfonyl)-2,2a,3,4,9,10,10a,10b-octahydro-2-azanaphtho[2,1,8-cde]azulen-8(1H)-one
_symmetry_cell_setting           tetragonal
_symmetry_space_group_name_H-M   'P -4 21 c'
_symmetry_Int_Tables_number      114
_space_group_name_Hall           'P -4 2n'
loop_
_symmetry_equiv_pos_site_id
_symmetry_equiv_pos_as_xyz
1 x,y,z
2 y,-x,-z
3 -x,-y,z
4 -y,x,-z
5 1/2+x,1/2-y,1/2-z
6 1/2-x,1/2+y,1/2-z
7 1/2-y,1/2-x,1/2+z
8 1/2+y,1/2+x,1/2+z
_cell_length_a                   18.6024(7)
_cell_length_b                   18.6024(7)
_cell_length_c                   10.9010(7)
_cell_angle_alpha                90
_cell_angle_beta                 90
_cell_angle_gamma                90
_cell_volume                     3772.28
_exptl_crystal_colour            'light colorless'
_exptl_crystal_description       block
_cell_formula_units_Z            8
loop_
_atom_site_label
_atom_site_type_symbol
_atom_site_fract_x
_atom_site_fract_y
_atom_site_fract_z
S1 S 0.20402(8) 0.16190(8) 0.10568(16)
O1 O 0.1118(2) 0.51307(19) -0.2507(4)
C1 C 0.1937(2) 0.4143(2) -0.0120(4)
O2 O 0.28074(18) 0.15395(19) 0.1210(4)
C2 C 0.1148(2) 0.2728(3) 0.0691(4)
H1 H 0.1050 0.3072 0.1338
H2 H 0.0811 0.2332 0.0761
N1 N 0.18995(18) 0.2467(2) 0.0757(4)
C3 C 0.2348(2) 0.2822(2) -0.0214(5)
H3 H 0.2461 0.2474 -0.0861
C4 C 0.0466(2) 0.3590(3) -0.0721(5)
H4 H 0.0426 0.3887 0.0007
H5 H 0.0027 0.3312 -0.0794
C5 C 0.1540(3) 0.4732(3) -0.0591(5)
C6 C 0.1603(3) 0.5414(3) -0.0046(5)
H6 H 0.1350 0.5802 -0.0367
C7 C 0.2036(3) 0.5507(3) 0.0956(6)
H7 H 0.2050 0.5949 0.1353
C8 C 0.1853(2) 0.3410(2) -0.0728(4)
H8 H 0.1951 0.3463 -0.1607
C9 C 0.2453(3) 0.4945(3) 0.1379(5)
H9 H 0.2773 0.5024 0.2021
C10 C 0.1095(2) 0.3082(2) -0.0570(5)
H10 H 0.1042 0.2698 -0.1180
O3 O 0.1555(2) 0.1436(2) 0.2043(3)
C11 C 0.1370(4) 0.0391(3) -0.2369(7)
C12 C 0.0872(4) 0.0612(3) -0.1510(6)
H11 H 0.0387 0.0523 -0.1652
C13 C 0.1073(3) 0.0963(3) -0.0444(6)
H12 H 0.0731 0.1086 0.0141
C14 C 0.1789(3) 0.1127(3) -0.0264(6)
C15 C 0.1076(3) 0.4681(3) -0.1712(6)
C16 C 0.2405(3) 0.4263(3) 0.0862(5)
C17 C 0.2083(4) 0.0551(3) -0.2158(6)
H13 H 0.2426 0.0412 -0.2732
C18 C 0.0541(3) 0.4074(3) -0.1843(5)
H14 H 0.0682 0.3780 -0.2537
H15 H 0.0074 0.4279 -0.2029
C19 C 0.2876(2) 0.3669(3) 0.1313(5)
H16 H 0.2641 0.3428 0.1992
H17 H 0.3323 0.3870 0.1613
C20 C 0.3040(2) 0.3122(3) 0.0313(5)
H18 H 0.3316 0.3349 -0.0333
H19 H 0.3325 0.2734 0.0652
C21 C 0.2302(3) 0.0912(3) -0.1121(6)
H20 H 0.2786 0.1012 -0.0993
C22 C 0.1160(4) 0.0002(3) -0.3539(6)
H21 H 0.1066 -0.0494 -0.3359
H22 H 0.1545 0.0035 -0.4123
H23 H 0.0735 0.0219 -0.3876
loop_
_geom_bond_atom_site_label_1
_geom_bond_atom_site_label_2
_geom_bond_site_symmetry_1
_geom_bond_site_symmetry_2
S1 O2 1_555 1_555
O1 C15 1_555 1_555
C1 C5 1_555 1_555
C2 H1 1_555 1_555
H2 C2 1_555 1_555
N1 S1 1_555 1_555
C3 N1 1_555 1_555
H3 C3 1_555 1_555
C4 H4 1_555 1_555
H5 C4 1_555 1_555
C5 C6 1_555 1_555
C6 H6 1_555 1_555
C7 C6 1_555 1_555
H7 C7 1_555 1_555
C8 C1 1_555 1_555
H8 C8 1_555 1_555
C9 C7 1_555 1_555
H9 C9 1_555 1_555
C10 C2 1_555 1_555
H10 C10 1_555 1_555
O3 S1 1_555 1_555
C11 C12 1_555 1_555
C12 H11 1_555 1_555
C13 C12 1_555 1_555
H12 C13 1_555 1_555
C14 S1 1_555 1_555
C15 C5 1_555 1_555
C16 C1 1_555 1_555
C17 C11 1_555 1_555
H13 C17 1_555 1_555
C18 C4 1_555 1_555
H14 C18 1_555 1_555
H15 C18 1_555 1_555
C19 C16 1_555 1_555
H16 C19 1_555 1_555
H17 C19 1_555 1_555
C20 C3 1_555 1_555
H18 C20 1_555 1_555
H19 C20 1_555 1_555
C21 C14 1_555 1_555
H20 C21 1_555 1_555
C22 C11 1_555 1_555
H21 C22 1_555 1_555
H22 C22 1_555 1_555
H23 C22 1_555 1_555
C2 N1 1_555 1_555
C3 C8 1_555 1_555
C4 C10 1_555 1_555
C8 C10 1_555 1_555
C9 C16 1_555 1_555
C13 C14 1_555 1_555
C15 C18 1_555 1_555
C17 C21 1_555 1_555
C19 C20 1_555 1_555

#END
