
#######################################################################
#
#                 Cambridge Crystallographic Data Centre
#                                CCDC 
#
#######################################################################
#
# If this CIF has been generated from an entry in the Cambridge 
# Structural Database, then it will include bibliographic, chemical, 
# crystal, experimental, refinement or atomic coordinate data resulting 
# from the CCDC's data processing and validation procedures.
#
#######################################################################

data_KORROY
_chemical_formula_moiety         'C16 H13 Br1 O2'
_chemical_name_systematic        4-Bromo-4'-methoxy-chalcone
_symmetry_cell_setting           monoclinic
_symmetry_space_group_name_H-M   'P c'
_symmetry_Int_Tables_number      7
_space_group_name_Hall           'P -2yc'
loop_
_symmetry_equiv_pos_site_id
_symmetry_equiv_pos_as_xyz
1 x,y,z
2 x,-y,1/2+z
_cell_length_a                   15.869(3)
_cell_length_b                   7.146(2)
_cell_length_c                   5.991(1)
_cell_angle_alpha                90
_cell_angle_beta                 82.85(1)
_cell_angle_gamma                90
_cell_volume                     674.096
_exptl_crystal_colour            colorless
_cell_formula_units_Z            2
loop_
_atom_site_label
_atom_site_type_symbol
_atom_site_fract_x
_atom_site_fract_y
_atom_site_fract_z
Br1 Br 0.6320 0.7997(1) 1.1110
O1 O 1.0900(4) 0.760(1) 0.102(1)
O2 O 1.4502(4) 0.761(1) 0.434(1)
C1 C 0.9607(5) 0.717(1) 0.461(2)
C2 C 1.0389(6) 0.761(1) 0.486(2)
C3 C 1.1071(6) 0.758(1) 0.298(2)
C4 C 1.4801(7) 0.696(2) 0.636(2)
C5 C 0.7349(5) 0.771(1) 0.917(2)
C6 C 0.7322(5) 0.694(1) 0.704(1)
C7 C 0.8076(5) 0.668(1) 0.563(1)
C8 C 0.8850(5) 0.730(1) 0.626(1)
C9 C 0.8852(5) 0.806(1) 0.851(1)
C10 C 0.8108(5) 0.829(1) 0.987(1)
C11 C 1.3659(5) 0.753(1) 0.420(1)
C12 C 1.3423(6) 0.825(1) 0.215(2)
C13 C 1.2591(6) 0.826(1) 0.180(1)
C14 C 1.1968(5) 0.757(1) 0.341(1)
C15 C 1.2201(6) 0.686(1) 0.545(2)
C16 C 1.3047(5) 0.684(1) 0.580(1)
H1 H 0.6790 0.6564 0.6582
H2 H 0.8071 0.6072 0.4193
H3 H 0.9374 0.8456 0.9010
H4 H 0.8105 0.8805 1.1336
H5 H 1.3848 0.8736 0.1064
H6 H 1.2433 0.8755 0.0407
H7 H 1.1767 0.6462 0.6601
H8 H 1.3209 0.6296 0.7165
H9 H 0.9514 0.6684 0.3161
H10 H 1.0514 0.7988 0.6321
H11 H 1.5396 0.7051 0.6235
H12 H 1.4538 0.7589 0.7617
H13 H 1.4654 0.5624 0.6521
loop_
_geom_bond_atom_site_label_1
_geom_bond_atom_site_label_2
_geom_bond_site_symmetry_1
_geom_bond_site_symmetry_2
Br1 C5 1_555 1_555
O1 C3 1_555 1_555
O2 C4 1_555 1_555
C1 C2 1_555 1_555
C2 C3 1_555 1_555
C3 C14 1_555 1_555
C4 H11 1_555 1_555
C5 C6 1_555 1_555
C6 C7 1_555 1_555
C7 C8 1_555 1_555
C8 C1 1_555 1_555
C9 C8 1_555 1_555
C10 C5 1_555 1_555
C11 O2 1_555 1_555
C12 C11 1_555 1_555
C13 C12 1_555 1_555
C14 C13 1_555 1_555
C15 C14 1_555 1_555
C16 C11 1_555 1_555
H1 C6 1_555 1_555
H2 C7 1_555 1_555
H3 C9 1_555 1_555
H4 C10 1_555 1_555
H5 C12 1_555 1_555
H6 C13 1_555 1_555
H7 C15 1_555 1_555
H8 C16 1_555 1_555
H9 C1 1_555 1_555
H10 C2 1_555 1_555
H12 C4 1_555 1_555
H13 C4 1_555 1_555
C9 C10 1_555 1_555
C15 C16 1_555 1_555

#END
