
#######################################################################
#
#                 Cambridge Crystallographic Data Centre
#                                CCDC 
#
#######################################################################
#
# If this CIF has been generated from an entry in the Cambridge 
# Structural Database, then it will include bibliographic, chemical, 
# crystal, experimental, refinement or atomic coordinate data resulting 
# from the CCDC's data processing and validation procedures.
#
#######################################################################

data_KORXOG
_chemical_formula_moiety         'C12 H14 O4 S1'
_chemical_name_systematic        
'methyl 3-phenyltetrahydrothiophene-2-carboxylate 1,1-dioxide'
_symmetry_cell_setting           monoclinic
_symmetry_space_group_name_H-M   'P 21'
_symmetry_Int_Tables_number      4
_space_group_name_Hall           'P 2yb'
loop_
_symmetry_equiv_pos_site_id
_symmetry_equiv_pos_as_xyz
1 x,y,z
2 -x,1/2+y,-z
_cell_length_a                   6.70370(10)
_cell_length_b                   10.0938(2)
_cell_length_c                   9.5452(2)
_cell_angle_alpha                90
_cell_angle_beta                 108.1320(10)
_cell_angle_gamma                90
_cell_volume                     613.81
_exptl_crystal_colour            colorless
_exptl_crystal_description       block
_cell_formula_units_Z            2
loop_
_atom_site_label
_atom_site_type_symbol
_atom_site_fract_x
_atom_site_fract_y
_atom_site_fract_z
S1 S 0.11517(7) 0.60986(5) 0.43726(6)
O1 O 0.4858(3) 0.47378(16) 0.32220(18)
O2 O 0.3061(3) 0.30364(18) 0.3733(2)
O3 O 0.1791(3) 0.74480(18) 0.4717(2)
O4 O 0.0078(3) 0.5758(2) 0.2872(2)
C1 C 0.5220(5) 0.3983(3) 0.2038(3)
H1 H 0.5920 0.3159 0.2425
H2 H 0.6094 0.4492 0.1595
H3 H 0.3887 0.3792 0.1299
C2 C 0.3750(3) 0.4142(2) 0.3973(2)
C3 C 0.3462(3) 0.5051(2) 0.5149(2)
H4 H 0.4720 0.5619 0.5525
C4 C 0.3054(3) 0.4322(2) 0.6449(2)
H5 H 0.2352 0.3475 0.6066
C5 C 0.5037(3) 0.3991(2) 0.7690(2)
C6 C 0.5350(4) 0.2711(3) 0.8217(3)
H6 H 0.4359 0.2052 0.7785
C7 C 0.7132(5) 0.2389(3) 0.9387(3)
H7 H 0.7341 0.1511 0.9730
C8 C 0.8565(4) 0.3334(4) 1.0035(3)
H8 H 0.9756 0.3113 1.0828
C9 C -0.0236(3) 0.5551(3) 0.5580(3)
H9 H -0.1100 0.6265 0.5782
H10 H -0.1139 0.4793 0.5162
C10 C 0.1486(3) 0.5160(2) 0.6961(3)
H11 H 0.0911 0.4642 0.7615
H12 H 0.2178 0.5949 0.7494
C11 C 0.6508(4) 0.4950(3) 0.8357(3)
H13 H 0.6314 0.5829 0.8016
C12 C 0.8260(4) 0.4618(4) 0.9523(3)
H14 H 0.9250 0.5274 0.9968
loop_
_geom_bond_atom_site_label_1
_geom_bond_atom_site_label_2
_geom_bond_site_symmetry_1
_geom_bond_site_symmetry_2
S1 O3 1_555 1_555
O1 C1 1_555 1_555
O2 C2 1_555 1_555
O4 S1 1_555 1_555
C1 H1 1_555 1_555
H2 C1 1_555 1_555
H3 C1 1_555 1_555
C2 O1 1_555 1_555
C3 S1 1_555 1_555
H4 C3 1_555 1_555
C4 C3 1_555 1_555
H5 C4 1_555 1_555
C5 C4 1_555 1_555
C6 C5 1_555 1_555
H6 C6 1_555 1_555
C7 C6 1_555 1_555
H7 C7 1_555 1_555
C8 C7 1_555 1_555
H8 C8 1_555 1_555
C9 S1 1_555 1_555
H9 C9 1_555 1_555
H10 C9 1_555 1_555
C10 C4 1_555 1_555
H11 C10 1_555 1_555
H12 C10 1_555 1_555
C11 C5 1_555 1_555
H13 C11 1_555 1_555
C12 C8 1_555 1_555
H14 C12 1_555 1_555
C2 C3 1_555 1_555
C9 C10 1_555 1_555
C11 C12 1_555 1_555

#END
