
#######################################################################
#
#                 Cambridge Crystallographic Data Centre
#                                CCDC 
#
#######################################################################
#
# If this CIF has been generated from an entry in the Cambridge 
# Structural Database, then it will include bibliographic, chemical, 
# crystal, experimental, refinement or atomic coordinate data resulting 
# from the CCDC's data processing and validation procedures.
#
#######################################################################

data_KOSDIH
_chemical_formula_moiety         'C13 H14 N2 O2'
_chemical_name_systematic        'ethyl 4-(1H-pyrazol-1-ylmethyl)benzoate'
_symmetry_cell_setting           triclinic
_symmetry_space_group_name_H-M   'P -1'
_symmetry_Int_Tables_number      2
_space_group_name_Hall           '-P 1'
loop_
_symmetry_equiv_pos_site_id
_symmetry_equiv_pos_as_xyz
1 x,y,z
2 -x,-y,-z
_cell_length_a                   8.1338(12)
_cell_length_b                   8.1961(9)
_cell_length_c                   10.7933(11)
_cell_angle_alpha                74.013(9)
_cell_angle_beta                 83.308(10)
_cell_angle_gamma                64.734(13)
_cell_volume                     625.539
_exptl_crystal_colour            colorless
_exptl_crystal_description       block
_cell_formula_units_Z            2
loop_
_atom_site_label
_atom_site_type_symbol
_atom_site_fract_x
_atom_site_fract_y
_atom_site_fract_z
C1 C -0.3321(5) 0.2354(4) 0.0922(3)
H1 H -0.4412 0.3219 0.0516
C2 C -0.3185(4) 0.0903(5) 0.1964(3)
H2 H -0.4119 0.0606 0.2394
C3 C -0.1386(4) -0.0001(4) 0.2228(3)
H3 H -0.0841 -0.1068 0.2885
C4 C 0.1384(4) 0.0519(4) 0.1369(3)
H4 H 0.1766 0.0861 0.0486
H5 H 0.2091 -0.0805 0.1712
C5 C 0.1753(3) 0.1603(4) 0.2163(2)
C6 C 0.2157(4) 0.0834(4) 0.3464(3)
H6 H 0.2269 -0.0374 0.3842
C7 C 0.2396(4) 0.1856(4) 0.4205(2)
H7 H 0.2671 0.1326 0.5077
C8 C 0.2227(3) 0.3657(3) 0.3656(2)
C9 C 0.1870(4) 0.4413(4) 0.2343(3)
H8 H 0.1784 0.5611 0.1959
C10 C 0.1643(4) 0.3379(4) 0.1609(3)
H9 H 0.1413 0.3888 0.0731
C11 C 0.2393(4) 0.4838(4) 0.4420(3)
C12 C 0.2906(4) 0.5017(5) 0.6500(3)
H10 H 0.1747 0.6050 0.6552
H11 H 0.3805 0.5512 0.6164
C13 C 0.3460(6) 0.3720(6) 0.7790(4)
H12 H 0.2574 0.3219 0.8103
H13 H 0.3544 0.4378 0.8374
H14 H 0.4622 0.2722 0.7729
N1 N -0.0526(3) 0.0895(3) 0.13866(19)
N2 N -0.1716(4) 0.2383(3) 0.0558(2)
O1 O 0.2758(3) 0.3958(3) 0.56635(18)
O2 O 0.2213(3) 0.6418(3) 0.3986(2)
loop_
_geom_bond_atom_site_label_1
_geom_bond_atom_site_label_2
_geom_bond_site_symmetry_1
_geom_bond_site_symmetry_2
C1 H1 1_555 1_555
C2 C1 1_555 1_555
H2 C2 1_555 1_555
C3 C2 1_555 1_555
H3 C3 1_555 1_555
C4 H4 1_555 1_555
H5 C4 1_555 1_555
C5 C4 1_555 1_555
C6 C5 1_555 1_555
H6 C6 1_555 1_555
C7 C6 1_555 1_555
H7 C7 1_555 1_555
C8 C7 1_555 1_555
C9 C8 1_555 1_555
H8 C9 1_555 1_555
C10 C5 1_555 1_555
H9 C10 1_555 1_555
C11 C8 1_555 1_555
C12 H10 1_555 1_555
H11 C12 1_555 1_555
C13 C12 1_555 1_555
H12 C13 1_555 1_555
H13 C13 1_555 1_555
H14 C13 1_555 1_555
N1 C3 1_555 1_555
N2 C1 1_555 1_555
O1 C11 1_555 1_555
O2 C11 1_555 1_555
C4 N1 1_555 1_555
C9 C10 1_555 1_555
C12 O1 1_555 1_555
N1 N2 1_555 1_555

#END
