
#######################################################################
#
#                 Cambridge Crystallographic Data Centre
#                                CCDC 
#
#######################################################################
#
# If this CIF has been generated from an entry in the Cambridge 
# Structural Database, then it will include bibliographic, chemical, 
# crystal, experimental, refinement or atomic coordinate data resulting 
# from the CCDC's data processing and validation procedures.
#
#######################################################################

data_KOSDED
_chemical_formula_moiety         '2(C9 H9 N3),H1 Cl1 O4'
_chemical_name_systematic        
'bis(1-benzyl-1H-1,2,4-triazole) perchloric acid'
_symmetry_cell_setting           monoclinic
_symmetry_space_group_name_H-M   'P 21'
_symmetry_Int_Tables_number      4
_space_group_name_Hall           'P 2yb'
loop_
_symmetry_equiv_pos_site_id
_symmetry_equiv_pos_as_xyz
1 x,y,z
2 -x,1/2+y,-z
_cell_length_a                   5.7173(10)
_cell_length_b                   7.7671(12)
_cell_length_c                   21.955(4)
_cell_angle_alpha                90
_cell_angle_beta                 95.136(4)
_cell_angle_gamma                90
_cell_volume                     971.038
_exptl_crystal_colour            colorless
_exptl_crystal_description       rectangle
_cell_formula_units_Z            2
loop_
_atom_site_label
_atom_site_type_symbol
_atom_site_fract_x
_atom_site_fract_y
_atom_site_fract_z
Cl1 Cl 0.22466(15) 0.25879(13) 0.75737(4)
O1 O -0.0268(4) 0.2501(5) 0.75956(13)
O2 O 0.3257(5) 0.0851(3) 0.75971(14)
H1 H 0.2975 0.0380 0.7917
O3 O 0.2712(5) 0.3307(4) 0.69478(12)
O4 O 0.3397(5) 0.3708(4) 0.80363(14)
N1 N 0.1586(5) 0.2466(5) 0.33197(15)
C1 C 0.1887(8) 0.5483(7) 0.5465(2)
H3 H 0.1552 0.5518 0.5871
N2 N 0.4745(6) 0.0982(5) 0.31116(16)
C2 C 0.2415(8) 0.0996(6) 0.3156(2)
H4 H 0.1473 0.0032 0.3076
N3 N 0.3519(6) 0.3489(4) 0.33810(14)
C3 C 0.3406(8) 0.5273(5) 0.35882(18)
H5 H 0.2189 0.5877 0.3336
H6 H 0.4891 0.5838 0.3539
C4 C 0.0396(8) 0.6210(7) 0.5020(2)
H7 H -0.0967 0.6744 0.5125
C5 C 0.2893(7) 0.5377(5) 0.42460(18)
C6 C 0.5381(6) 0.2598(7) 0.32578(17)
H8 H 0.6903 0.3026 0.3271
C7 C 0.3899(8) 0.4693(6) 0.53045(19)
H9 H 0.4927 0.4191 0.5605
C8 C 0.0878(7) 0.6168(6) 0.4414(2)
H10 H -0.0161 0.6675 0.4117
C9 C 0.4401(7) 0.4640(6) 0.4706(2)
H11 H 0.5770 0.4104 0.4606
N4 N 0.7031(5) 0.7708(5) 0.83783(15)
N5 N 0.8811(6) 0.6541(4) 0.84658(14)
C10 C 0.7984(7) 0.9014(6) 0.81290(17)
H12 H 0.7188 1.0027 0.8019
C11 C 0.9431(7) 0.5756(6) 0.98327(19)
H13 H 1.0821 0.6247 0.9726
N6 N 1.0286(6) 0.8733(4) 0.80462(14)
C12 C 0.7924(6) 0.4980(5) 0.93922(17)
C13 C 0.5874(7) 0.4219(6) 0.95742(18)
H14 H 0.4834 0.3681 0.9284
C14 C 0.8470(8) 0.4849(5) 0.87376(19)
H15 H 0.9882 0.4167 0.8716
H16 H 0.7192 0.4259 0.8503
C15 C 0.6861(8) 0.5066(6) 1.0598(2)
H17 H 0.6493 0.5113 1.1002
C16 C 1.0749(7) 0.7164(5) 0.82694(18)
H18 H 1.2192 0.6605 0.8284
C17 C 0.8882(8) 0.5809(6) 1.0437(2)
H19 H 0.9894 0.6352 1.0732
C18 C 0.5389(8) 0.4258(6) 1.01696(19)
H20 H 0.4038 0.3727 1.0284
H2? H 0.3440 0.4193 0.7039
loop_
_geom_bond_atom_site_label_1
_geom_bond_atom_site_label_2
_geom_bond_site_symmetry_1
_geom_bond_site_symmetry_2
Cl1 O1 1_555 1_555
O2 Cl1 1_555 1_555
H1 O2 1_555 1_555
O3 Cl1 1_555 1_555
O4 Cl1 1_555 1_555
N1 C2 1_555 1_555
C1 H3 1_555 1_555
N2 C2 1_555 1_555
C2 H4 1_555 1_555
N3 N1 1_555 1_555
C3 N3 1_555 1_555
H5 C3 1_555 1_555
H6 C3 1_555 1_555
C4 C1 1_555 1_555
H7 C4 1_555 1_555
C5 C3 1_555 1_555
C6 N2 1_555 1_555
H8 C6 1_555 1_555
C7 C1 1_555 1_555
H9 C7 1_555 1_555
C8 C4 1_555 1_555
H10 C8 1_555 1_555
C9 C5 1_555 1_555
H11 C9 1_555 1_555
N4 N5 1_555 1_555
N5 C14 1_555 1_555
C10 N4 1_555 1_555
H12 C10 1_555 1_555
C11 H13 1_555 1_555
N6 C10 1_555 1_555
C12 C11 1_555 1_555
C13 C12 1_555 1_555
H14 C13 1_555 1_555
C14 C12 1_555 1_555
H15 C14 1_555 1_555
H16 C14 1_555 1_555
C15 H17 1_555 1_555
C16 N5 1_555 1_555
H18 C16 1_555 1_555
C17 C11 1_555 1_555
H19 C17 1_555 1_555
C18 C13 1_555 1_555
H20 C18 1_555 1_555
N3 C6 1_555 1_555
C5 C8 1_555 1_555
C7 C9 1_555 1_555
N6 C16 1_555 1_555
C15 C17 1_555 1_555
C15 C18 1_555 1_555

#END
