
#######################################################################
#
#                 Cambridge Crystallographic Data Centre
#                                CCDC 
#
#######################################################################
#
# If this CIF has been generated from an entry in the Cambridge 
# Structural Database, then it will include bibliographic, chemical, 
# crystal, experimental, refinement or atomic coordinate data resulting 
# from the CCDC's data processing and validation procedures.
#
#######################################################################

data_KOSHOR
_chemical_formula_moiety         'C21 H27 Cl1 O5'
_chemical_name_systematic        
3-acetyl-3-(t-butylperoxy)-6-chloro-4-cyclohexylchroman-2-one
_symmetry_cell_setting           monoclinic
_symmetry_space_group_name_H-M   'P 21/n'
_symmetry_Int_Tables_number      14
_space_group_name_Hall           '-P 2yn'
loop_
_symmetry_equiv_pos_site_id
_symmetry_equiv_pos_as_xyz
1 x,y,z
2 1/2-x,1/2+y,1/2-z
3 -x,-y,-z
4 1/2+x,1/2-y,1/2+z
_cell_length_a                   17.6306(4)
_cell_length_b                   6.5284(2)
_cell_length_c                   18.1875(4)
_cell_angle_alpha                90
_cell_angle_beta                 96.7010(10)
_cell_angle_gamma                90
_cell_volume                     2079.07
_exptl_crystal_colour            colorless
_exptl_crystal_description       needle
_cell_formula_units_Z            4
loop_
_atom_site_label
_atom_site_type_symbol
_atom_site_fract_x
_atom_site_fract_y
_atom_site_fract_z
Cl1 Cl -0.00224(3) 0.14465(10) 1.09669(3)
C1 C 0.23752(10) 0.3351(3) 0.96411(10)
H1 H 0.2521 0.1951 0.9792
C2 C 0.21361(10) 0.3297(3) 0.87889(10)
H2 H 0.2587 0.2883 0.8557
C3 C 0.12117(10) 0.2572(3) 1.03050(10)
H3 H 0.1244 0.1198 1.0177
C4 C 0.17361(10) 0.3978(3) 1.00836(10)
C5 C 0.06421(11) 0.3224(3) 1.07152(11)
C6 C 0.30666(10) 0.4750(3) 0.99090(10)
C7 C 0.15260(11) 0.1645(3) 0.86041(11)
H4 H 0.1726 0.0335 0.8789
H5 H 0.1084 0.1965 0.8855
C8 C 0.16720(11) 0.5993(3) 1.02974(10)
C9 C 0.28433(12) 0.7019(3) 0.98342(11)
C10 C 0.18612(12) 0.5336(3) 0.84393(11)
H6 H 0.2272 0.6330 0.8516
H7 H 0.1439 0.5841 0.8685
C11 C 0.09962(12) 0.3502(4) 0.74451(12)
H8 H 0.0871 0.3361 0.6914
H9 H 0.0537 0.3908 0.7653
C12 C 0.12758(12) 0.1463(4) 0.77735(12)
H10 H 0.1703 0.0990 0.7527
H11 H 0.0870 0.0457 0.7689
C13 C 0.37688(11) 0.4196(3) 0.95155(12)
C14 C 0.05904(12) 0.5240(4) 1.09273(12)
H12 H 0.0208 0.5656 1.1206
C15 C 0.16038(13) 0.5137(4) 0.76083(12)
H13 H 0.1403 0.6443 0.7419
H14 H 0.2041 0.4799 0.7354
C16 C 0.11136(12) 0.6629(4) 1.07210(12)
H15 H 0.1092 0.7992 1.0866
C17 C 0.43116(13) 0.2646(4) 0.98814(14)
H16 H 0.4688 0.2313 0.9559
H17 H 0.4036 0.1431 0.9984
H18 H 0.4560 0.3198 1.0336
O1 O 0.31992(7) 0.4330(2) 1.06860(7)
C18 C 0.37919(13) 0.6033(4) 1.17598(12)
C19 C 0.44436(17) 0.7553(5) 1.19369(15)
H19 H 0.4906 0.6982 1.1794
H20 H 0.4509 0.7832 1.2459
H21 H 0.4326 0.8803 1.1670
C20 C 0.3972(2) 0.3985(5) 1.21254(16)
H22 H 0.3559 0.3052 1.1989
H23 H 0.4040 0.4154 1.2653
H24 H 0.4433 0.3446 1.1966
C21 C 0.30377(18) 0.6875(7) 1.19349(18)
H25 H 0.2924 0.8116 1.1660
H26 H 0.3066 0.7159 1.2455
H27 H 0.2642 0.5887 1.1800
O2 O 0.21633(8) 0.7513(2) 1.00909(8)
O3 O 0.37934(8) 0.5839(2) 1.09674(8)
O4 O 0.32035(9) 0.8370(2) 0.96047(9)
O5 O 0.38372(9) 0.4926(3) 0.89225(9)
loop_
_geom_bond_atom_site_label_1
_geom_bond_atom_site_label_2
_geom_bond_site_symmetry_1
_geom_bond_site_symmetry_2
Cl1 C5 1_555 1_555
C1 H1 1_555 1_555
C2 C1 1_555 1_555
H2 C2 1_555 1_555
C3 H3 1_555 1_555
C4 C1 1_555 1_555
C5 C3 1_555 1_555
C6 C1 1_555 1_555
C7 C2 1_555 1_555
H4 C7 1_555 1_555
H5 C7 1_555 1_555
C8 C4 1_555 1_555
C9 C6 1_555 1_555
C10 C2 1_555 1_555
H6 C10 1_555 1_555
H7 C10 1_555 1_555
C11 H8 1_555 1_555
H9 C11 1_555 1_555
C12 C7 1_555 1_555
H10 C12 1_555 1_555
H11 C12 1_555 1_555
C13 C6 1_555 1_555
C14 C5 1_555 1_555
H12 C14 1_555 1_555
C15 C10 1_555 1_555
H13 C15 1_555 1_555
H14 C15 1_555 1_555
C16 C8 1_555 1_555
H15 C16 1_555 1_555
C17 C13 1_555 1_555
H16 C17 1_555 1_555
H17 C17 1_555 1_555
H18 C17 1_555 1_555
O1 C6 1_555 1_555
C18 C19 1_555 1_555
C19 H19 1_555 1_555
H20 C19 1_555 1_555
H21 C19 1_555 1_555
C20 C18 1_555 1_555
H22 C20 1_555 1_555
H23 C20 1_555 1_555
H24 C20 1_555 1_555
C21 C18 1_555 1_555
H25 C21 1_555 1_555
H26 C21 1_555 1_555
H27 C21 1_555 1_555
O2 C8 1_555 1_555
O3 O1 1_555 1_555
O4 C9 1_555 1_555
O5 C13 1_555 1_555
C3 C4 1_555 1_555
C9 O2 1_555 1_555
C11 C12 1_555 1_555
C11 C15 1_555 1_555
C14 C16 1_555 1_555
C18 O3 1_555 1_555

#END
