
#######################################################################
#
#                 Cambridge Crystallographic Data Centre
#                                CCDC 
#
#######################################################################
#
# If this CIF has been generated from an entry in the Cambridge 
# Structural Database, then it will include bibliographic, chemical, 
# crystal, experimental, refinement or atomic coordinate data resulting 
# from the CCDC's data processing and validation procedures.
#
#######################################################################

data_KOSHAD
_chemical_formula_moiety         'C23 H38 O7,0.5(H2 O1)'
_chemical_name_systematic        
'6-(4,10-dihydroxy-8-isopropyl-3,5,9-trimethyl-1,7-dioxaspiro[5.5]undec-2-yl)-6-methoxy-2-methylhexa-2,4-dienoic acid hemihydrate'
_symmetry_cell_setting           monoclinic
_symmetry_space_group_name_H-M   'P 21'
_symmetry_Int_Tables_number      4
_space_group_name_Hall           'P 2yb'
loop_
_symmetry_equiv_pos_site_id
_symmetry_equiv_pos_as_xyz
1 x,y,z
2 -x,1/2+y,-z
_cell_length_a                   8.6777(2)
_cell_length_b                   15.1269(3)
_cell_length_c                   9.5353(2)
_cell_angle_alpha                90
_cell_angle_beta                 96.722(2)
_cell_angle_gamma                90
_cell_volume                     1243.06
_exptl_crystal_colour            colorless
_exptl_crystal_description       block
_cell_formula_units_Z            2
loop_
_atom_site_label
_atom_site_type_symbol
_atom_site_fract_x
_atom_site_fract_y
_atom_site_fract_z
O1 O 0.8904(2) 0.28795(15) -0.1594(2)
H1 H 0.9032 0.2980 -0.2417
O2 O 0.6450(2) 0.2770(2) -0.2522(2)
O3 O 0.16915(18) 0.09978(12) 0.25818(18)
O4 O -0.07238(19) 0.32276(15) 0.57486(17)
H2 H -0.1588 0.3312 0.5322
O5 O 0.34197(15) 0.30127(10) 0.39881(14)
O6 O 0.23322(17) 0.43178(11) 0.30504(15)
O7 O 0.6613(2) 0.35577(17) 0.40190(19)
H3 H 0.6053 0.3122 0.4038
C1 C 0.7422(3) 0.27236(19) -0.1509(3)
C2 C 0.7087(3) 0.24855(18) -0.0063(2)
C3 C 0.5636(3) 0.22551(18) 0.0093(2)
H4 H 0.4919 0.2274 -0.0712
C4 C 0.5061(3) 0.19778(16) 0.1392(2)
H5 H 0.5777 0.1883 0.2183
C5 C 0.3575(3) 0.18523(17) 0.1514(2)
H6 H 0.2888 0.1900 0.0693
C6 C 0.2889(3) 0.16413(17) 0.2838(2)
H7 H 0.3700 0.1421 0.3555
C7 C 0.2152(2) 0.24666(16) 0.3381(2)
H8 H 0.1610 0.2781 0.2569
C8 C 0.1009(3) 0.23358(19) 0.4480(2)
H9 H 0.0129 0.1989 0.4040
C9 C 0.0426(2) 0.32574(18) 0.4766(2)
H10 H -0.0073 0.3498 0.3872
C10 C 0.1718(3) 0.38833(18) 0.5327(2)
H11 H 0.2193 0.3650 0.6235
C11 C 0.2983(3) 0.38943(16) 0.4306(2)
C12 C 0.4475(3) 0.43332(19) 0.4914(2)
H12 H 0.4893 0.4023 0.5765
H13 H 0.4258 0.4937 0.5174
C13 C 0.5675(3) 0.43402(19) 0.3883(3)
H14 H 0.6358 0.4849 0.4109
C14 C 0.4926(3) 0.44447(18) 0.2350(2)
H15 H 0.4792 0.3853 0.1936
C15 C 0.3326(3) 0.48649(18) 0.2314(2)
H16 H 0.3446 0.5435 0.2802
C16 C 0.2448(3) 0.5022(2) 0.0855(3)
H17 H 0.3033 0.5461 0.0378
C17 C 0.0849(4) 0.5417(3) 0.0993(4)
H18 H 0.0967 0.5942 0.1560
H19 H 0.0234 0.4994 0.1433
H20 H 0.0342 0.5562 0.0072
C18 C 0.2306(4) 0.4202(3) -0.0062(3)
H21 H 0.3321 0.3972 -0.0148
H22 H 0.1800 0.4351 -0.0982
H23 H 0.1706 0.3765 0.0361
C19 C 0.5993(4) 0.4968(3) 0.1484(4)
H24 H 0.5512 0.5023 0.0528
H25 H 0.6965 0.4664 0.1492
H26 H 0.6171 0.5546 0.1887
C20 C 0.1132(4) 0.4810(2) 0.5585(4)
H27 H 0.0362 0.4781 0.6230
H28 H 0.0682 0.5061 0.4707
H29 H 0.1982 0.5172 0.5982
C21 C 0.1725(3) 0.1841(2) 0.5790(3)
H30 H 0.2059 0.1266 0.5522
H31 H 0.0966 0.1778 0.6440
H32 H 0.2599 0.2166 0.6232
C22 C 0.8399(3) 0.2502(3) 0.1098(3)
H33 H 0.8028 0.2332 0.1969
H34 H 0.8823 0.3088 0.1188
H35 H 0.9189 0.2096 0.0884
C23 C 0.2261(3) 0.01523(19) 0.2257(3)
H36 H 0.1412 -0.0256 0.2100
H37 H 0.2982 -0.0051 0.3031
H38 H 0.2776 0.0192 0.1421
O8 O 0.6502(6) 0.1739(4) -0.5013(5)
loop_
_geom_bond_atom_site_label_1
_geom_bond_atom_site_label_2
_geom_bond_site_symmetry_1
_geom_bond_site_symmetry_2
O1 H1 1_555 1_555
O2 C1 1_555 1_555
O3 C6 1_555 1_555
O4 H2 1_555 1_555
O5 C7 1_555 1_555
O6 C11 1_555 1_555
O7 H3 1_555 1_555
C1 O1 1_555 1_555
C2 C1 1_555 1_555
C3 C2 1_555 1_555
H4 C3 1_555 1_555
C4 C3 1_555 1_555
H5 C4 1_555 1_555
C5 C4 1_555 1_555
H6 C5 1_555 1_555
C6 C5 1_555 1_555
H7 C6 1_555 1_555
C7 C6 1_555 1_555
H8 C7 1_555 1_555
C8 C7 1_555 1_555
H9 C8 1_555 1_555
C9 O4 1_555 1_555
H10 C9 1_555 1_555
C10 C9 1_555 1_555
H11 C10 1_555 1_555
C11 O5 1_555 1_555
C12 C11 1_555 1_555
H12 C12 1_555 1_555
H13 C12 1_555 1_555
C13 O7 1_555 1_555
H14 C13 1_555 1_555
C14 C13 1_555 1_555
H15 C14 1_555 1_555
C15 O6 1_555 1_555
H16 C15 1_555 1_555
C16 C15 1_555 1_555
H17 C16 1_555 1_555
C17 C16 1_555 1_555
H18 C17 1_555 1_555
H19 C17 1_555 1_555
H20 C17 1_555 1_555
C18 C16 1_555 1_555
H21 C18 1_555 1_555
H22 C18 1_555 1_555
H23 C18 1_555 1_555
C19 C14 1_555 1_555
H24 C19 1_555 1_555
H25 C19 1_555 1_555
H26 C19 1_555 1_555
C20 C10 1_555 1_555
H27 C20 1_555 1_555
H28 C20 1_555 1_555
H29 C20 1_555 1_555
C21 C8 1_555 1_555
H30 C21 1_555 1_555
H31 C21 1_555 1_555
H32 C21 1_555 1_555
C22 C2 1_555 1_555
H33 C22 1_555 1_555
H34 C22 1_555 1_555
H35 C22 1_555 1_555
C23 O3 1_555 1_555
H36 C23 1_555 1_555
H37 C23 1_555 1_555
H38 C23 1_555 1_555
C8 C9 1_555 1_555
C10 C11 1_555 1_555
C12 C13 1_555 1_555
C14 C15 1_555 1_555

#END
