
#######################################################################
#
#                 Cambridge Crystallographic Data Centre
#                                CCDC 
#
#######################################################################
#
# If this CIF has been generated from an entry in the Cambridge 
# Structural Database, then it will include bibliographic, chemical, 
# crystal, experimental, refinement or atomic coordinate data resulting 
# from the CCDC's data processing and validation procedures.
#
#######################################################################

data_KOSJOR
_chemical_formula_moiety         'C11 H11 N1 O2'
_chemical_name_systematic        8-Phenyl-2-aza-3,7-dioxabicyclo(3.3.0)octene
_symmetry_cell_setting           orthorhombic
_symmetry_space_group_name_H-M   'P n a 21'
_symmetry_Int_Tables_number      33
_space_group_name_Hall           'P 2c -2n'
loop_
_symmetry_equiv_pos_site_id
_symmetry_equiv_pos_as_xyz
1 x,y,z
2 1/2-x,1/2+y,1/2+z
3 1/2+x,1/2-y,z
4 -x,-y,1/2+z
_cell_length_a                   15.935(3)
_cell_length_b                   9.853(2)
_cell_length_c                   5.945(1)
_cell_angle_alpha                90
_cell_angle_beta                 90
_cell_angle_gamma                90
_cell_volume                     933.41
_exptl_crystal_colour            colorless
_cell_formula_units_Z            4
loop_
_atom_site_label
_atom_site_type_symbol
_atom_site_fract_x
_atom_site_fract_y
_atom_site_fract_z
O1 O 0.2703(2) 0.1711(3) 0.3731
O2 O 0.4092(2) 0.0196(2) 0.9367(8)
N1 N 0.3023(2) 0.2413(3) 0.5679(8)
C1 C 0.2841(2) 0.0248(4) 0.4113(10)
C2 C 0.3599(2) 0.0214(3) 0.5639(9)
C3 C 0.3620(2) -0.0632(4) 0.7793(9)
C4 C 0.3886(2) 0.1623(3) 0.9003(8)
C5 C 0.3517(2) 0.1597(4) 0.6666(9)
C6 C 0.4662(2) 0.2471(3) 0.9294(10)
C7 C 0.4742(2) 0.3320(3) 1.1146(8)
C8 C 0.5464(2) 0.4104(4) 1.1416(10)
C9 C 0.6098(2) 0.4031(4) 0.9809(10)
C10 C 0.6023(2) 0.3185(4) 0.7979(11)
C11 C 0.5307(2) 0.2401(4) 0.7719(10)
H1 H 0.2940 -0.0230 0.2730
H2 H 0.2367 -0.0149 0.4863
H3 H 0.4109 0.0120 0.4794
H4 H 0.3060 -0.0786 0.8327
H5 H 0.3889 -0.1492 0.7556
H6 H 0.3468 0.1911 1.0063
H7 H 0.4302 0.3350 1.2248
H8 H 0.5521 0.4704 1.2678
H9 H 0.6595 0.4575 0.9975
H10 H 0.6468 0.3134 0.6894
H11 H 0.5256 0.1804 0.6450
loop_
_geom_bond_atom_site_label_1
_geom_bond_atom_site_label_2
_geom_bond_site_symmetry_1
_geom_bond_site_symmetry_2
O1 N1 1_555 1_555
O2 C3 1_555 1_555
N1 C5 1_555 1_555
C1 O1 1_555 1_555
C2 C1 1_555 1_555
C3 C2 1_555 1_555
C4 O2 1_555 1_555
C5 C2 1_555 1_555
C6 C4 1_555 1_555
C7 C6 1_555 1_555
C8 C7 1_555 1_555
C9 C8 1_555 1_555
C10 C9 1_555 1_555
C11 C6 1_555 1_555
H1 C1 1_555 1_555
H2 C1 1_555 1_555
H3 C2 1_555 1_555
H4 C3 1_555 1_555
H5 C3 1_555 1_555
H6 C4 1_555 1_555
H7 C7 1_555 1_555
H8 C8 1_555 1_555
H9 C9 1_555 1_555
H10 C10 1_555 1_555
H11 C11 1_555 1_555
C4 C5 1_555 1_555
C10 C11 1_555 1_555

#END
