
#######################################################################
#
#                 Cambridge Crystallographic Data Centre
#                                CCDC 
#
#######################################################################
#
# If this CIF has been generated from an entry in the Cambridge 
# Structural Database, then it will include bibliographic, chemical, 
# crystal, experimental, refinement or atomic coordinate data resulting 
# from the CCDC's data processing and validation procedures.
#
#######################################################################

data_KOSJUX
_chemical_formula_moiety         'C11 H11 N1 O2'
_chemical_name_systematic        6-Phenyl-2-aza-3,7-dioxabicyclo(3.3.0)octene
_symmetry_cell_setting           monoclinic
_symmetry_space_group_name_H-M   'P 21/n'
_symmetry_Int_Tables_number      14
_space_group_name_Hall           '-P 2yn'
loop_
_symmetry_equiv_pos_site_id
_symmetry_equiv_pos_as_xyz
1 x,y,z
2 1/2-x,1/2+y,1/2-z
3 -x,-y,-z
4 1/2+x,1/2-y,1/2+z
_cell_length_a                   9.791(4)
_cell_length_b                   5.629(2)
_cell_length_c                   16.469(8)
_cell_angle_alpha                90
_cell_angle_beta                 94.22(3)
_cell_angle_gamma                90
_cell_volume                     905.204
_cell_formula_units_Z            4
loop_
_atom_site_label
_atom_site_type_symbol
_atom_site_fract_x
_atom_site_fract_y
_atom_site_fract_z
O1 O 0.64237(30) 0.75949(56) 0.49311(17)
O2 O 0.91637(33) 0.19769(60) 0.44658(19)
N1 N 0.86614(38) 0.38937(68) 0.39502(22)
C1 C 0.77145(44) 0.48459(87) 0.43021(25)
C2 C 0.69575(46) 0.71330(81) 0.41576(25)
C3 C 0.71337(49) 0.61085(82) 0.55539(27)
C4 C 0.73734(49) 0.38124(86) 0.51084(27)
C5 C 0.86279(45) 0.23060(80) 0.52681(26)
C6 C 0.63110(42) 0.59869(76) 0.62820(24)
C7 C 0.54068(42) 0.78011(76) 0.64532(24)
C8 C 0.46974(46) 0.76948(83) 0.71529(26)
C9 C 0.48936(43) 0.58057(91) 0.76862(26)
C10 C 0.57918(44) 0.40295(84) 0.75269(24)
C11 C 0.65065(42) 0.41019(75) 0.68258(25)
H1 H 0.7562 0.8379 0.4012
H2 H 0.6233 0.6966 0.3736
H3 H 0.8004 0.6817 0.5713
H4 H 0.6558 0.2861 0.5052
H5 H 0.9289 0.3094 0.5634
H6 H 0.8399 0.0805 0.5499
H7 H 0.5274 0.9124 0.6088
H8 H 0.4067 0.8937 0.7267
H9 H 0.4401 0.5741 0.8169
H10 H 0.5929 0.2726 0.7900
H11 H 0.7135 0.2851 0.6718
loop_
_geom_bond_atom_site_label_1
_geom_bond_atom_site_label_2
_geom_bond_site_symmetry_1
_geom_bond_site_symmetry_2
O1 C2 1_555 1_555
O2 N1 1_555 1_555
N1 C1 1_555 1_555
C1 C2 1_555 1_555
C2 H1 1_555 1_555
C3 O1 1_555 1_555
C4 C1 1_555 1_555
C5 O2 1_555 1_555
C6 C3 1_555 1_555
C7 C6 1_555 1_555
C8 C7 1_555 1_555
C9 C8 1_555 1_555
C10 C9 1_555 1_555
C11 C6 1_555 1_555
H2 C2 1_555 1_555
H3 C3 1_555 1_555
H4 C4 1_555 1_555
H5 C5 1_555 1_555
H6 C5 1_555 1_555
H7 C7 1_555 1_555
H8 C8 1_555 1_555
H9 C9 1_555 1_555
H10 C10 1_555 1_555
H11 C11 1_555 1_555
C3 C4 1_555 1_555
C4 C5 1_555 1_555
C10 C11 1_555 1_555

#END
