
#######################################################################
#
#                 Cambridge Crystallographic Data Centre
#                                CCDC 
#
#######################################################################
#
# If this CIF has been generated from an entry in the Cambridge 
# Structural Database, then it will include bibliographic, chemical, 
# crystal, experimental, refinement or atomic coordinate data resulting 
# from the CCDC's data processing and validation procedures.
#
#######################################################################

data_KOSWIA
_chemical_formula_moiety         'C15 H26 B10 Si1'
_chemical_name_systematic        
1,2,11-(2-(1-(trimethylsilyl)but-1-en-1,2,4-triyl)phenyl)-1,2-dicarba-closo-dodecborane(9)
_symmetry_cell_setting           monoclinic
_symmetry_space_group_name_H-M   'C 2/c'
_symmetry_Int_Tables_number      15
_space_group_name_Hall           '-C 2yn'
loop_
_symmetry_equiv_pos_site_id
_symmetry_equiv_pos_as_xyz
1 x,y,z
2 -x,y,1/2-z
3 1/2+x,1/2+y,z
4 1/2-x,1/2+y,1/2-z
5 -x,-y,-z
6 x,-y,1/2+z
7 1/2-x,1/2-y,-z
8 1/2+x,1/2-y,1/2+z
_cell_length_a                   21.774(2)
_cell_length_b                   7.5041(8)
_cell_length_c                   25.787(3)
_cell_angle_alpha                90
_cell_angle_beta                 98.332(2)
_cell_angle_gamma                90
_cell_volume                     4168.98
_exptl_crystal_colour            colorless
_exptl_crystal_description       block
_cell_formula_units_Z            8
loop_
_atom_site_label
_atom_site_type_symbol
_atom_site_fract_x
_atom_site_fract_y
_atom_site_fract_z
Si1 Si 0.31426(4) 0.12063(14) 0.09219(4)
C1 C 0.08532(15) -0.0871(4) 0.11144(12)
C2 C 0.12360(12) 0.0961(3) 0.10978(10)
C3 C 0.12699(19) -0.2311(4) 0.09251(14)
H1 H 0.1041 -0.2998 0.0643
H2 H 0.1422 -0.3114 0.1210
C4 C 0.18144(16) -0.1314(4) 0.07317(14)
H3 H 0.2199 -0.1958 0.0835
H4 H 0.1744 -0.1228 0.0352
C5 C 0.18586(12) 0.0537(3) 0.09724(10)
C6 C 0.23453(12) 0.1626(4) 0.11237(10)
C7 C 0.22753(12) 0.3209(3) 0.14701(10)
C8 C 0.27765(16) 0.4380(4) 0.15966(12)
H5 H 0.3125 0.4245 0.1431
C9 C 0.27677(19) 0.5741(5) 0.19639(14)
H6 H 0.3109 0.6492 0.2039
C10 C 0.2264(2) 0.5979(4) 0.22125(14)
H7 H 0.2263 0.6867 0.2464
C11 C 0.17534(15) 0.4881(4) 0.20873(12)
H8 H 0.1406 0.5062 0.2252
C12 C 0.17446(13) 0.3510(4) 0.17212(10)
C13 C 0.3190(2) -0.0831(7) 0.0512(2)
H9 H 0.3105 -0.1867 0.0708
H10 H 0.3598 -0.0924 0.0416
H11 H 0.2890 -0.0748 0.0201
C14 C 0.33177(18) 0.3101(7) 0.04921(15)
H12 H 0.3718 0.2921 0.0386
H13 H 0.3318 0.4199 0.0683
H14 H 0.3007 0.3151 0.0188
C15 C 0.37415(17) 0.0954(6) 0.15136(16)
H15 H 0.3639 -0.0050 0.1715
H16 H 0.3752 0.2013 0.1723
H17 H 0.4141 0.0768 0.1406
B1 B 0.06024(16) 0.0598(5) 0.06209(14)
H18 H 0.0614 0.0353 0.0202
B2 B 0.0081(2) -0.0532(7) 0.09707(18)
H19 H -0.0249 -0.1525 0.0781
B3 B 0.0427(2) -0.0810(8) 0.16310(18)
H20 H 0.0316 -0.1971 0.1861
B4 B 0.11786(17) 0.0087(5) 0.17082(13)
H21 H 0.1555 -0.0501 0.1986
B5 B 0.07681(16) 0.2713(5) 0.09016(14)
H22 H 0.0884 0.3845 0.0663
B6 B 0.00114(18) 0.1809(7) 0.08425(18)
H23 H -0.0374 0.2367 0.0568
B7 B -0.0103(2) 0.0956(9) 0.1462(2)
H24 H -0.0565 0.0964 0.1587
B8 B 0.05908(19) 0.1340(7) 0.19224(17)
H25 H 0.0582 0.1603 0.2341
B9 B 0.11405(15) 0.2403(5) 0.15653(12)
B10 B 0.03302(17) 0.2954(7) 0.14281(18)
H26 H 0.0153 0.4258 0.1534
loop_
_geom_bond_atom_site_label_1
_geom_bond_atom_site_label_2
_geom_bond_site_symmetry_1
_geom_bond_site_symmetry_2
Si1 C6 1_555 1_555
C1 C2 1_555 1_555
C2 C5 1_555 1_555
C3 C1 1_555 1_555
H1 C3 1_555 1_555
H2 C3 1_555 1_555
C4 C3 1_555 1_555
H3 C4 1_555 1_555
H4 C4 1_555 1_555
C5 C4 1_555 1_555
C6 C5 1_555 1_555
C7 C6 1_555 1_555
C8 C7 1_555 1_555
H5 C8 1_555 1_555
C9 C8 1_555 1_555
H6 C9 1_555 1_555
C10 C9 1_555 1_555
H7 C10 1_555 1_555
C11 C10 1_555 1_555
H8 C11 1_555 1_555
C12 C7 1_555 1_555
C13 Si1 1_555 1_555
H9 C13 1_555 1_555
H10 C13 1_555 1_555
H11 C13 1_555 1_555
C14 Si1 1_555 1_555
H12 C14 1_555 1_555
H13 C14 1_555 1_555
H14 C14 1_555 1_555
C15 Si1 1_555 1_555
H15 C15 1_555 1_555
H16 C15 1_555 1_555
H17 C15 1_555 1_555
B1 C1 1_555 1_555
H18 B1 1_555 1_555
B2 C1 1_555 1_555
H19 B2 1_555 1_555
B3 C1 1_555 1_555
H20 B3 1_555 1_555
B4 C1 1_555 1_555
H21 B4 1_555 1_555
B5 C2 1_555 1_555
H22 B5 1_555 1_555
B6 B1 1_555 1_555
H23 B6 1_555 1_555
B7 B2 1_555 1_555
H24 B7 1_555 1_555
B8 B3 1_555 1_555
H25 B8 1_555 1_555
B9 C2 1_555 1_555
B10 B5 1_555 1_555
H26 B10 1_555 1_555
C2 B1 1_555 1_555
C2 B4 1_555 1_555
C11 C12 1_555 1_555
C12 B9 1_555 1_555
B1 B2 1_555 1_555
B1 B5 1_555 1_555
B2 B3 1_555 1_555
B2 B6 1_555 1_555
B3 B4 1_555 1_555
B3 B7 1_555 1_555
B4 B8 1_555 1_555
B4 B9 1_555 1_555
B5 B6 1_555 1_555
B5 B9 1_555 1_555
B6 B7 1_555 1_555
B6 B10 1_555 1_555
B7 B8 1_555 1_555
B7 B10 1_555 1_555
B8 B9 1_555 1_555
B8 B10 1_555 1_555
B9 B10 1_555 1_555

#END
