
#######################################################################
#
#                 Cambridge Crystallographic Data Centre
#                                CCDC 
#
#######################################################################
#
# If this CIF has been generated from an entry in the Cambridge 
# Structural Database, then it will include bibliographic, chemical, 
# crystal, experimental, refinement or atomic coordinate data resulting 
# from the CCDC's data processing and validation procedures.
#
#######################################################################

data_KOTFII
_chemical_formula_moiety         'C17 H24 O3 S1'
_chemical_name_systematic        '2-endo-Bornyl p-toluenesulfonate'
_symmetry_cell_setting           triclinic
_symmetry_space_group_name_H-M   'P -1'
_symmetry_Int_Tables_number      2
_space_group_name_Hall           '-P 1'
loop_
_symmetry_equiv_pos_site_id
_symmetry_equiv_pos_as_xyz
1 x,y,z
2 -x,-y,-z
_cell_length_a                   7.9995(14)
_cell_length_b                   9.870(2)
_cell_length_c                   11.975(2)
_cell_angle_alpha                112.84(2)
_cell_angle_beta                 105.10(2)
_cell_angle_gamma                93.56(2)
_cell_volume                     826.994
_exptl_crystal_colour            colorless
_chemical_melting_point          343-348K
_cell_formula_units_Z            2
loop_
_atom_site_label
_atom_site_type_symbol
_atom_site_fract_x
_atom_site_fract_y
_atom_site_fract_z
S1 S 0.4141(1) 0.6229(1) 0.3308(1)
C1 C 0.6172(3) 0.3138(2) 0.1379(2)
C2 C 0.6453(3) 0.4699(2) 0.2458(2)
C3 C 0.8269(3) 0.4886(3) 0.3419(2)
C4 C 0.8846(3) 0.3417(3) 0.2763(2)
C5 C 0.7702(4) 0.2197(3) 0.2887(3)
C6 C 0.5890(4) 0.1999(3) 0.1935(3)
C7 C 0.8096(3) 0.3073(2) 0.1333(2)
C8 C 0.8855(4) 0.4240(3) 0.0972(2)
C9 C 0.8314(4) 0.1537(3) 0.0434(3)
C10 C 0.4750(4) 0.2894(3) 0.0184(2)
O1 O 0.5042(2) 0.4813(2) 0.3048(1)
O2 O 0.3592(2) 0.6485(2) 0.2192(2)
O3 O 0.2863(2) 0.5940(2) 0.3864(2)
C11 C 0.5819(3) 0.7721(2) 0.4463(2)
C12 C 0.6499(3) 0.7754(2) 0.5656(2)
C13 C 0.7767(3) 0.8939(2) 0.6585(2)
C14 C 0.8394(3) 1.0113(2) 0.6346(2)
C15 C 0.7695(3) 1.0042(3) 0.5136(3)
C16 C 0.6418(3) 0.8873(3) 0.4203(2)
C17 C 0.9779(4) 1.1399(3) 0.7365(3)
H1 H 0.6426 0.5471 0.2158
H2 H 0.8161 0.5002 0.4230
H3 H 0.9076 0.5726 0.3533
H4 H 1.0088 0.3454 0.3083
H5 H 0.7635 0.2521 0.3738
H6 H 0.8157 0.1283 0.2658
H7 H 0.5543 0.0999 0.1277
H8 H 0.5011 0.2220 0.2362
H9 H 0.8784 0.5256 0.1464
H10 H 0.8209 0.3952 0.0093
H11 H 1.0065 0.4157 0.1051
H12 H 0.7852 0.0758 0.0623
H13 H 0.9559 0.1584 0.0583
H14 H 0.7747 0.1329 -0.0442
H15 H 0.4616 0.1899 -0.0455
H16 H 0.5076 0.3606 -0.0120
H17 H 0.3656 0.3038 0.0364
H18 H 0.6088 0.6953 0.5840
H19 H 0.8231 0.8956 0.7416
H20 H 0.8114 1.0833 0.4944
H21 H 0.5945 0.8857 0.3373
H22 H 1.0008 1.1948 0.6896
H23 H 1.0854 1.1142 0.7743
H24 H 0.9322 1.2002 0.8022
loop_
_geom_bond_atom_site_label_1
_geom_bond_atom_site_label_2
_geom_bond_site_symmetry_1
_geom_bond_site_symmetry_2
S1 O1 1_555 1_555
C1 C2 1_555 1_555
C2 C3 1_555 1_555
C3 C4 1_555 1_555
C4 C5 1_555 1_555
C5 C6 1_555 1_555
C6 C1 1_555 1_555
C7 C1 1_555 1_555
C8 C7 1_555 1_555
C9 C7 1_555 1_555
C10 C1 1_555 1_555
O1 C2 1_555 1_555
O2 S1 1_555 1_555
O3 S1 1_555 1_555
C11 S1 1_555 1_555
C12 C11 1_555 1_555
C13 C12 1_555 1_555
C14 C13 1_555 1_555
C15 C14 1_555 1_555
C16 C11 1_555 1_555
C17 C14 1_555 1_555
H1 C2 1_555 1_555
H2 C3 1_555 1_555
H3 C3 1_555 1_555
H4 C4 1_555 1_555
H5 C5 1_555 1_555
H6 C5 1_555 1_555
H7 C6 1_555 1_555
H8 C6 1_555 1_555
H9 C8 1_555 1_555
H10 C8 1_555 1_555
H11 C8 1_555 1_555
H12 C9 1_555 1_555
H13 C9 1_555 1_555
H14 C9 1_555 1_555
H15 C10 1_555 1_555
H16 C10 1_555 1_555
H17 C10 1_555 1_555
H18 C12 1_555 1_555
H19 C13 1_555 1_555
H20 C15 1_555 1_555
H21 C16 1_555 1_555
H22 C17 1_555 1_555
H23 C17 1_555 1_555
H24 C17 1_555 1_555
C4 C7 1_555 1_555
C15 C16 1_555 1_555

#END
