
#######################################################################
#
#                 Cambridge Crystallographic Data Centre
#                                CCDC 
#
#######################################################################
#
# If this CIF has been generated from an entry in the Cambridge 
# Structural Database, then it will include bibliographic, chemical, 
# crystal, experimental, refinement or atomic coordinate data resulting 
# from the CCDC's data processing and validation procedures.
#
#######################################################################

data_KOTFEG
_chemical_formula_moiety         'C17 H26 N2 O2 S1'
_chemical_name_systematic        
N-(1,4-dimethylcyclohexyl)-N'-((4-methylphenyl)sulfonyl)ethanimidamide
_symmetry_cell_setting           monoclinic
_symmetry_space_group_name_H-M   'P 21'
_symmetry_Int_Tables_number      4
_space_group_name_Hall           'P 2yb'
loop_
_symmetry_equiv_pos_site_id
_symmetry_equiv_pos_as_xyz
1 x,y,z
2 -x,1/2+y,-z
_cell_length_a                   8.87(3)
_cell_length_b                   8.14(3)
_cell_length_c                   12.79(6)
_cell_angle_alpha                90
_cell_angle_beta                 109.21(4)
_cell_angle_gamma                90
_cell_volume                     872.042
_exptl_crystal_colour            colorless
_exptl_crystal_description       broken
_cell_formula_units_Z            2
loop_
_atom_site_label
_atom_site_type_symbol
_atom_site_fract_x
_atom_site_fract_y
_atom_site_fract_z
S1 S 0.43143(15) 0.20072(16) 0.69797(11)
O1 O 0.3139(4) 0.2525(5) 0.5956(3)
O2 O 0.3769(4) 0.0878(5) 0.7637(3)
N1 N 0.5927(5) 0.1363(6) 0.6812(4)
N2 N 0.7242(5) -0.0370(5) 0.6007(4)
H1 H 0.7154 -0.1181 0.5560
C1 C 0.5036(6) 0.3777(7) 0.7778(4)
C2 C 0.6219(7) 0.3632(9) 0.8788(5)
H2 H 0.6689 0.2621 0.9035
C3 C 0.6692(7) 0.5026(9) 0.9426(5)
H3 H 0.7499 0.4935 1.0107
C4 C 0.6018(7) 0.6551(8) 0.9096(5)
C5 C 0.4879(8) 0.6642(8) 0.8070(5)
H4 H 0.4428 0.7656 0.7810
C6 C 0.4382(7) 0.5280(8) 0.7413(5)
H5 H 0.3602 0.5379 0.6722
C7 C 0.6593(9) 0.8040(8) 0.9811(6)
H6 H 0.5994 0.8984 0.9454
H7 H 0.7705 0.8213 0.9919
H8 H 0.6448 0.7874 1.0514
C8 C 0.5874(6) 0.0157(7) 0.6124(4)
C9 C 0.4408(6) -0.0712(8) 0.5412(5)
H9 H 0.3484 -0.0255 0.5537
H10 H 0.4485 -0.1859 0.5595
H11 H 0.4314 -0.0579 0.4647
C10 C 0.8895(6) 0.0264(7) 0.6548(5)
C11 C 0.9368(6) 0.0223(8) 0.7807(5)
H12 H 1.0421 0.0703 0.8126
H13 H 0.8623 0.0889 0.8034
C12 C 0.9385(7) -0.1503(8) 0.8260(5)
H14 H 0.8305 -0.1933 0.8012
H15 H 0.9745 -0.1456 0.9062
C13 C 1.0458(7) -0.2666(8) 0.7897(5)
H16 H 1.1557 -0.2261 0.8203
C14 C 0.9992(7) -0.2639(8) 0.6655(5)
H17 H 0.8940 -0.3123 0.6341
H18 H 1.0737 -0.3310 0.6432
C15 C 0.9970(6) -0.0926(8) 0.6189(5)
H19 H 0.9603 -0.0988 0.5387
H20 H 1.1050 -0.0497 0.6428
C16 C 0.9027(6) 0.1979(8) 0.6135(5)
H21 H 0.8733 0.1966 0.5343
H22 H 1.0106 0.2360 0.6450
H23 H 0.8324 0.2699 0.6351
C17 C 1.0408(10) -0.4381(9) 0.8341(6)
H24 H 1.1104 -0.5086 0.8107
H25 H 0.9336 -0.4796 0.8062
H26 H 1.0751 -0.4349 0.9135
loop_
_geom_bond_atom_site_label_1
_geom_bond_atom_site_label_2
_geom_bond_site_symmetry_1
_geom_bond_site_symmetry_2
S1 O1 1_555 1_555
O2 S1 1_555 1_555
N1 S1 1_555 1_555
N2 H1 1_555 1_555
C1 S1 1_555 1_555
C2 C1 1_555 1_555
H2 C2 1_555 1_555
C3 C2 1_555 1_555
H3 C3 1_555 1_555
C4 C3 1_555 1_555
C5 C4 1_555 1_555
H4 C5 1_555 1_555
C6 C1 1_555 1_555
H5 C6 1_555 1_555
C7 C4 1_555 1_555
H6 C7 1_555 1_555
H7 C7 1_555 1_555
H8 C7 1_555 1_555
C8 N1 1_555 1_555
C9 C8 1_555 1_555
H9 C9 1_555 1_555
H10 C9 1_555 1_555
H11 C9 1_555 1_555
C10 N2 1_555 1_555
C11 C10 1_555 1_555
H12 C11 1_555 1_555
H13 C11 1_555 1_555
C12 C11 1_555 1_555
H14 C12 1_555 1_555
H15 C12 1_555 1_555
C13 C12 1_555 1_555
H16 C13 1_555 1_555
C14 C13 1_555 1_555
H17 C14 1_555 1_555
H18 C14 1_555 1_555
C15 C10 1_555 1_555
H19 C15 1_555 1_555
H20 C15 1_555 1_555
C16 C10 1_555 1_555
H21 C16 1_555 1_555
H22 C16 1_555 1_555
H23 C16 1_555 1_555
C17 C13 1_555 1_555
H24 C17 1_555 1_555
H25 C17 1_555 1_555
H26 C17 1_555 1_555
N2 C8 1_555 1_555
C5 C6 1_555 1_555
C14 C15 1_555 1_555

#END
