
#######################################################################
#
#                 Cambridge Crystallographic Data Centre
#                                CCDC 
#
#######################################################################
#
# If this CIF has been generated from an entry in the Cambridge 
# Structural Database, then it will include bibliographic, chemical, 
# crystal, experimental, refinement or atomic coordinate data resulting 
# from the CCDC's data processing and validation procedures.
#
#######################################################################

data_KOTFIK
_chemical_formula_moiety         'C17 H20 N2 O2 S1'
_chemical_name_systematic        
N'-((4-methylphenyl)sulfonyl)-N-(1-phenylethyl)ethanimidamide
_symmetry_cell_setting           orthorhombic
_symmetry_space_group_name_H-M   'P b c a'
_symmetry_Int_Tables_number      61
_space_group_name_Hall           '-P 2ac 2ab'
loop_
_symmetry_equiv_pos_site_id
_symmetry_equiv_pos_as_xyz
1 x,y,z
2 1/2-x,-y,1/2+z
3 -x,1/2+y,1/2-z
4 1/2+x,1/2-y,-z
5 -x,-y,-z
6 1/2+x,y,1/2-z
7 x,1/2-y,1/2+z
8 1/2-x,1/2+y,z
_cell_length_a                   10.5928(14)
_cell_length_b                   14.8228(19)
_cell_length_c                   21.407(3)
_cell_angle_alpha                90
_cell_angle_beta                 90
_cell_angle_gamma                90
_cell_volume                     3361.22
_exptl_crystal_colour            'light yellow'
_exptl_crystal_description       rod
_cell_formula_units_Z            8
loop_
_atom_site_label
_atom_site_type_symbol
_atom_site_fract_x
_atom_site_fract_y
_atom_site_fract_z
C1 C 0.4995(2) 0.35662(17) 0.67550(12)
C2 C 0.4010(3) 0.2983(2) 0.66546(14)
H1 H 0.3891 0.2499 0.6925
C3 C 0.3193(4) 0.3102(3) 0.61593(18)
H2 H 0.2529 0.2701 0.6097
C4 C 0.3365(5) 0.3814(3) 0.57600(18)
H3 H 0.2826 0.3897 0.5422
C5 C 0.4337(5) 0.4401(3) 0.58643(19)
H4 H 0.4450 0.4890 0.5598
C6 C 0.5143(3) 0.4281(2) 0.63541(16)
H5 H 0.5800 0.4687 0.6417
C7 C 0.5868(2) 0.34669(16) 0.73125(12)
H6 H 0.6674 0.3753 0.7207
C8 C 0.5346(3) 0.3933(2) 0.78837(15)
H7 H 0.5920 0.3857 0.8227
H8 H 0.4543 0.3674 0.7990
H9 H 0.5242 0.4564 0.7798
N1 N 0.6116(2) 0.25236(13) 0.74647(9)
H10 H 0.5726 0.2289 0.7777
C9 C 0.6917(2) 0.20080(16) 0.71441(11)
C10 C 0.7065(3) 0.10607(17) 0.73675(13)
H11 H 0.7655 0.0749 0.7104
H12 H 0.6262 0.0760 0.7352
H13 H 0.7371 0.1063 0.7789
N2 N 0.7522(2) 0.23781(14) 0.66776(9)
S1 S 0.84934(6) 0.18397(4) 0.62484(3)
O1 O 0.96620(17) 0.16523(12) 0.65737(8)
O2 O 0.79300(17) 0.10719(11) 0.59524(8)
C11 C 0.8815(2) 0.26544(17) 0.56747(11)
C12 C 0.9918(3) 0.2586(2) 0.53397(13)
H14 H 1.0507 0.2145 0.5442
C13 C 1.0153(3) 0.3173(2) 0.48492(14)
H15 H 1.0905 0.3122 0.4628
C14 C 0.9303(3) 0.3823(2) 0.46851(14)
C15 C 0.8208(3) 0.3886(2) 0.50285(15)
H16 H 0.7621 0.4329 0.4926
C16 C 0.7958(3) 0.33131(19) 0.55182(14)
H17 H 0.7211 0.3371 0.5743
C17 C 0.9556(4) 0.4440(2) 0.41343(16)
H18 H 1.0359 0.4292 0.3953
H19 H 0.9566 0.5056 0.4274
H20 H 0.8904 0.4363 0.3827
loop_
_geom_bond_atom_site_label_1
_geom_bond_atom_site_label_2
_geom_bond_site_symmetry_1
_geom_bond_site_symmetry_2
C1 C2 1_555 1_555
C2 H1 1_555 1_555
C3 C2 1_555 1_555
H2 C3 1_555 1_555
C4 C3 1_555 1_555
H3 C4 1_555 1_555
C5 C4 1_555 1_555
H4 C5 1_555 1_555
C6 C1 1_555 1_555
H5 C6 1_555 1_555
C7 C1 1_555 1_555
H6 C7 1_555 1_555
C8 C7 1_555 1_555
H7 C8 1_555 1_555
H8 C8 1_555 1_555
H9 C8 1_555 1_555
N1 C7 1_555 1_555
H10 N1 1_555 1_555
C9 N1 1_555 1_555
C10 C9 1_555 1_555
H11 C10 1_555 1_555
H12 C10 1_555 1_555
H13 C10 1_555 1_555
N2 C9 1_555 1_555
S1 N2 1_555 1_555
O1 S1 1_555 1_555
O2 S1 1_555 1_555
C11 S1 1_555 1_555
C12 C11 1_555 1_555
H14 C12 1_555 1_555
C13 C12 1_555 1_555
H15 C13 1_555 1_555
C14 C13 1_555 1_555
C15 C14 1_555 1_555
H16 C15 1_555 1_555
C16 C11 1_555 1_555
H17 C16 1_555 1_555
C17 C14 1_555 1_555
H18 C17 1_555 1_555
H19 C17 1_555 1_555
H20 C17 1_555 1_555
C5 C6 1_555 1_555
C15 C16 1_555 1_555

#END
