
#######################################################################
#
#                 Cambridge Crystallographic Data Centre
#                                CCDC 
#
#######################################################################
#
# If this CIF has been generated from an entry in the Cambridge 
# Structural Database, then it will include bibliographic, chemical, 
# crystal, experimental, refinement or atomic coordinate data resulting 
# from the CCDC's data processing and validation procedures.
#
#######################################################################

data_KOTGIL
_chemical_formula_moiety         'C22 H23 N1 O4 S2'
_chemical_name_systematic        
4-methyl-N-((4-methylphenyl)sulfonyl)-N-(1-phenylethyl)benzenesulfonamide
_symmetry_cell_setting           orthorhombic
_symmetry_space_group_name_H-M   'P 21 21 21'
_symmetry_Int_Tables_number      19
_space_group_name_Hall           'P 2ac 2ab'
loop_
_symmetry_equiv_pos_site_id
_symmetry_equiv_pos_as_xyz
1 x,y,z
2 1/2-x,-y,1/2+z
3 1/2+x,1/2-y,-z
4 -x,1/2+y,1/2-z
_cell_length_a                   9.450(4)
_cell_length_b                   13.149(5)
_cell_length_c                   16.973(7)
_cell_angle_alpha                90
_cell_angle_beta                 90
_cell_angle_gamma                90
_cell_volume                     2109.03
_exptl_crystal_colour            colorless
_exptl_crystal_description       diamond
_cell_formula_units_Z            4
loop_
_atom_site_label
_atom_site_type_symbol
_atom_site_fract_x
_atom_site_fract_y
_atom_site_fract_z
C1 C -0.4759(6) 0.8452(5) 0.0357(3)
H1 H -0.4804 0.7800 0.0104
H2 H -0.4440 0.8953 -0.0014
H3 H -0.5681 0.8635 0.0547
C2 C -0.3744(5) 0.8403(4) 0.1036(3)
C3 C -0.3475(5) 0.9234(4) 0.1498(3)
H4 H -0.3939 0.9841 0.1386
C4 C -0.2556(5) 0.9206(3) 0.2114(2)
H5 H -0.2375 0.9791 0.2405
C5 C -0.1890(4) 0.8298(3) 0.2304(2)
C6 C -0.2121(5) 0.7447(3) 0.1848(3)
H6 H -0.1665 0.6839 0.1965
C7 C -0.3032(6) 0.7506(4) 0.1219(3)
H7 H -0.3177 0.6934 0.0908
C8 C 0.5403(6) 1.0121(5) 0.5446(3)
H8 H 0.4815 1.0245 0.5897
H9 H 0.5989 1.0704 0.5350
H10 H 0.5990 0.9538 0.5543
C9 C 0.4487(5) 0.9925(4) 0.4739(3)
C10 C 0.3011(5) 0.9942(3) 0.4800(3)
H11 H 0.2591 1.0069 0.5286
C11 C 0.2185(5) 0.9776(3) 0.4160(3)
H12 H 0.1207 0.9810 0.4210
C12 C 0.2767(5) 0.9559(3) 0.3439(3)
C13 C 0.4231(5) 0.9521(3) 0.3361(3)
H13 H 0.4644 0.9371 0.2878
C14 C 0.5062(6) 0.9713(4) 0.4017(3)
H14 H 0.6041 0.9697 0.3966
C15 C 0.1564(5) 0.7202(3) 0.2620(3)
H15 H 0.0894 0.6687 0.2806
C16 C 0.2888(4) 0.7084(3) 0.3135(3)
C17 C 0.4218(5) 0.6893(4) 0.2837(3)
H16 H 0.4350 0.6860 0.2295
C18 C 0.5362(5) 0.6751(4) 0.3336(4)
H17 H 0.6246 0.6602 0.3125
C19 C 0.5209(7) 0.6827(4) 0.4126(4)
H18 H 0.5985 0.6755 0.4458
C20 C 0.3883(7) 0.7012(4) 0.4428(3)
H19 H 0.3762 0.7063 0.4971
C21 C 0.2725(6) 0.7125(3) 0.3933(3)
H20 H 0.1831 0.7229 0.4147
C22 C 0.1756(6) 0.7007(4) 0.1748(3)
H21 H 0.0865 0.7090 0.1484
H22 H 0.2094 0.6326 0.1670
H23 H 0.2429 0.7481 0.1538
O1 O 0.2638(3) 0.9125(3) 0.19575(17)
O2 O 0.0667(3) 1.0086(2) 0.25444(19)
O3 O -0.1004(3) 0.9085(2) 0.36177(17)
O4 O -0.0981(3) 0.7225(2) 0.34697(19)
S1 S 0.17289(13) 0.93181(8) 0.26005(6)
S2 S -0.07947(12) 0.82119(9) 0.31321(6)
N1 N 0.0868(3) 0.8226(2) 0.27815(18)
loop_
_geom_bond_atom_site_label_1
_geom_bond_atom_site_label_2
_geom_bond_site_symmetry_1
_geom_bond_site_symmetry_2
C1 H1 1_555 1_555
H2 C1 1_555 1_555
H3 C1 1_555 1_555
C2 C1 1_555 1_555
C3 C2 1_555 1_555
H4 C3 1_555 1_555
C4 C3 1_555 1_555
H5 C4 1_555 1_555
C5 C4 1_555 1_555
C6 C5 1_555 1_555
H6 C6 1_555 1_555
C7 C2 1_555 1_555
H7 C7 1_555 1_555
C8 H8 1_555 1_555
H9 C8 1_555 1_555
H10 C8 1_555 1_555
C9 C8 1_555 1_555
C10 C9 1_555 1_555
H11 C10 1_555 1_555
C11 C10 1_555 1_555
H12 C11 1_555 1_555
C12 C11 1_555 1_555
C13 C12 1_555 1_555
H13 C13 1_555 1_555
C14 C9 1_555 1_555
H14 C14 1_555 1_555
C15 H15 1_555 1_555
C16 C15 1_555 1_555
C17 C16 1_555 1_555
H16 C17 1_555 1_555
C18 C17 1_555 1_555
H17 C18 1_555 1_555
C19 C18 1_555 1_555
H18 C19 1_555 1_555
C20 C19 1_555 1_555
H19 C20 1_555 1_555
C21 C16 1_555 1_555
H20 C21 1_555 1_555
C22 C15 1_555 1_555
H21 C22 1_555 1_555
H22 C22 1_555 1_555
H23 C22 1_555 1_555
O1 S1 1_555 1_555
O2 S1 1_555 1_555
O3 S2 1_555 1_555
O4 S2 1_555 1_555
S1 C12 1_555 1_555
S2 C5 1_555 1_555
N1 C15 1_555 1_555
C6 C7 1_555 1_555
C13 C14 1_555 1_555
C20 C21 1_555 1_555
S1 N1 1_555 1_555
S2 N1 1_555 1_555

#END
