
#######################################################################
#
#                 Cambridge Crystallographic Data Centre
#                                CCDC 
#
#######################################################################
#
# If this CIF has been generated from an entry in the Cambridge 
# Structural Database, then it will include bibliographic, chemical, 
# crystal, experimental, refinement or atomic coordinate data resulting 
# from the CCDC's data processing and validation procedures.
#
#######################################################################

data_KOTGUX
_chemical_formula_moiety         'C12 H19 N1 O2 S1'
_chemical_name_systematic        
4-methyl-N-(2-methylbutan-2-yl)benzenesulfonamide
_symmetry_cell_setting           monoclinic
_symmetry_space_group_name_H-M   'C 2/c'
_symmetry_Int_Tables_number      15
_space_group_name_Hall           '-C 2yn'
loop_
_symmetry_equiv_pos_site_id
_symmetry_equiv_pos_as_xyz
1 x,y,z
2 -x,y,1/2-z
3 1/2+x,1/2+y,z
4 1/2-x,1/2+y,1/2-z
5 -x,-y,-z
6 x,-y,1/2+z
7 1/2-x,1/2-y,-z
8 1/2+x,1/2-y,1/2+z
_cell_length_a                   10.788(6)
_cell_length_b                   11.060(6)
_cell_length_c                   22.393(13)
_cell_angle_alpha                90
_cell_angle_beta                 91.434(8)
_cell_angle_gamma                90
_cell_volume                     2670.99
_exptl_crystal_colour            colorless
_exptl_crystal_description       'broken piece'
_cell_formula_units_Z            8
loop_
_atom_site_label
_atom_site_type_symbol
_atom_site_fract_x
_atom_site_fract_y
_atom_site_fract_z
C1 C 0.8044(5) 0.3487(5) 0.16150(19)
C2 C 0.7164(5) 0.3310(6) 0.2114(2)
H1 H 0.6617 0.2633 0.2028
H2 H 0.7618 0.3148 0.2485
C3 C 0.6465(12) 0.4398(12) 0.2163(6)
H3 H 0.5888 0.4318 0.2480
H4 H 0.6020 0.4548 0.1794
H5 H 0.7016 0.5061 0.2249
C4 C 0.8653(8) 0.2127(7) 0.1508(5)
H6 H 0.9234 0.2166 0.1191
H7 H 0.8005 0.1565 0.1403
H8 H 0.9072 0.1864 0.1869
C5 C 0.7510(8) 0.3900(10) 0.1045(3)
H9 H 0.7150 0.4686 0.1095
H10 H 0.6882 0.3342 0.0911
H11 H 0.8149 0.3945 0.0755
N1 N 0.9037(3) 0.4291(3) 0.18379(12)
H12 H 0.9018 0.4463 0.2212
S1 S 1.01458(8) 0.48887(8) 0.14836(4)
O1 O 1.1037(3) 0.5254(3) 0.19360(13)
O2 O 1.0534(3) 0.4086(2) 0.10214(13)
C6 C 0.9604(3) 0.6216(3) 0.11359(12)
C7 C 0.8984(4) 0.7082(4) 0.14637(16)
H13 H 0.8839 0.6946 0.1866
C8 C 0.8590(4) 0.8122(4) 0.1204(2)
H14 H 0.8187 0.8699 0.1431
C9 C 0.8782(3) 0.8340(4) 0.0597(2)
C10 C 0.9397(4) 0.7480(4) 0.02726(15)
H15 H 0.9532 0.7614 -0.0131
C11 C 0.9815(4) 0.6423(3) 0.05362(14)
H16 H 1.0236 0.5853 0.0313
C12 C 0.8319(5) 0.9485(5) 0.0307(3)
H17 H 0.8529 0.9486 -0.0107
H18 H 0.8697 1.0169 0.0503
H19 H 0.7435 0.9533 0.0340
loop_
_geom_bond_atom_site_label_1
_geom_bond_atom_site_label_2
_geom_bond_site_symmetry_1
_geom_bond_site_symmetry_2
C1 C2 1_555 1_555
C2 H1 1_555 1_555
H2 C2 1_555 1_555
C3 C2 1_555 1_555
H3 C3 1_555 1_555
H4 C3 1_555 1_555
H5 C3 1_555 1_555
C4 C1 1_555 1_555
H6 C4 1_555 1_555
H7 C4 1_555 1_555
H8 C4 1_555 1_555
C5 C1 1_555 1_555
H9 C5 1_555 1_555
H10 C5 1_555 1_555
H11 C5 1_555 1_555
N1 C1 1_555 1_555
H12 N1 1_555 1_555
S1 N1 1_555 1_555
O1 S1 1_555 1_555
O2 S1 1_555 1_555
C6 S1 1_555 1_555
C7 C6 1_555 1_555
H13 C7 1_555 1_555
C8 C7 1_555 1_555
H14 C8 1_555 1_555
C9 C8 1_555 1_555
C10 C9 1_555 1_555
H15 C10 1_555 1_555
C11 C6 1_555 1_555
H16 C11 1_555 1_555
C12 C9 1_555 1_555
H17 C12 1_555 1_555
H18 C12 1_555 1_555
H19 C12 1_555 1_555
C10 C11 1_555 1_555

#END
