
#######################################################################
#
#                 Cambridge Crystallographic Data Centre
#                                CCDC 
#
#######################################################################
#
# If this CIF has been generated from an entry in the Cambridge 
# Structural Database, then it will include bibliographic, chemical, 
# crystal, experimental, refinement or atomic coordinate data resulting 
# from the CCDC's data processing and validation procedures.
#
#######################################################################

data_KOTGAD
_chemical_formula_moiety         'C17 H23 N1 O2 S1'
_chemical_name_systematic        N-(adamantan-1-yl)-4-methylbenzenesulfonamide
_symmetry_cell_setting           monoclinic
_symmetry_space_group_name_H-M   'P 21/c'
_symmetry_Int_Tables_number      14
_space_group_name_Hall           '-P 2ybc'
loop_
_symmetry_equiv_pos_site_id
_symmetry_equiv_pos_as_xyz
1 x,y,z
2 -x,1/2+y,1/2-z
3 -x,-y,-z
4 x,1/2-y,1/2+z
_cell_length_a                   11.018(6)
_cell_length_b                   6.443(3)
_cell_length_c                   21.477(11)
_cell_angle_alpha                90
_cell_angle_beta                 101.939(7)
_cell_angle_gamma                90
_cell_volume                     1491.65
_exptl_crystal_colour            colorless
_exptl_crystal_description       needle
_cell_formula_units_Z            4
loop_
_atom_site_label
_atom_site_type_symbol
_atom_site_fract_x
_atom_site_fract_y
_atom_site_fract_z
N1 N 0.6522(2) 0.2726(4) 0.27512(10)
H1 H 0.5918 0.3168 0.2928
C1 C 0.7800(2) 0.3024(4) 0.31310(12)
C2 C 0.7620(2) 0.3613(5) 0.38019(12)
H2 H 0.7109 0.4886 0.3777
H3 H 0.7175 0.2482 0.3973
C3 C 0.8867(2) 0.3980(4) 0.42447(13)
H4 H 0.8734 0.4369 0.4676
C4 C 0.9536(3) 0.5755(5) 0.39782(13)
H5 H 0.9032 0.7037 0.3949
H6 H 1.0345 0.6027 0.4267
C5 C 0.9741(3) 0.5155(4) 0.33168(12)
H7 H 1.0188 0.6301 0.3145
C6 C 0.8481(2) 0.4796(4) 0.28740(12)
H8 H 0.8602 0.4444 0.2442
H9 H 0.7979 0.6080 0.2844
C7 C 0.8574(2) 0.1049(4) 0.31852(13)
H10 H 0.8698 0.0635 0.2759
H11 H 0.8132 -0.0089 0.3355
C8 C 0.9833(2) 0.1419(4) 0.36293(13)
H12 H 1.0342 0.0124 0.3659
C9 C 1.0510(3) 0.3182(5) 0.33693(14)
H13 H 1.1325 0.3420 0.3656
H14 H 1.0658 0.2797 0.2945
C10 C 0.9638(3) 0.2013(5) 0.42930(13)
H15 H 0.9207 0.0874 0.4468
H16 H 1.0450 0.2242 0.4583
S1 S 0.61058(7) 0.16991(11) 0.20576(3)
O1 O 0.68392(19) -0.0101(3) 0.20160(9)
O2 O 0.47828(18) 0.1488(3) 0.19701(9)
C11 C 0.6336(2) 0.3443(5) 0.14604(12)
C12 C 0.5765(3) 0.5366(5) 0.14033(14)
H17 H 0.5317 0.5810 0.1713
C13 C 0.5844(3) 0.6635(5) 0.08983(14)
H18 H 0.5447 0.7952 0.0862
C14 C 0.6502(3) 0.6016(5) 0.04378(13)
C15 C 0.7086(3) 0.4116(5) 0.05115(14)
H19 H 0.7546 0.3682 0.0206
C16 C 0.7021(3) 0.2822(5) 0.10166(13)
H20 H 0.7438 0.1524 0.1060
C17 C 0.6552(3) 0.7400(6) -0.01179(15)
H21 H 0.7049 0.6735 -0.0391
H22 H 0.6931 0.8729 0.0037
H23 H 0.5709 0.7641 -0.0362
loop_
_geom_bond_atom_site_label_1
_geom_bond_atom_site_label_2
_geom_bond_site_symmetry_1
_geom_bond_site_symmetry_2
N1 H1 1_555 1_555
C1 N1 1_555 1_555
C2 C1 1_555 1_555
H2 C2 1_555 1_555
H3 C2 1_555 1_555
C3 C2 1_555 1_555
H4 C3 1_555 1_555
C4 C3 1_555 1_555
H5 C4 1_555 1_555
H6 C4 1_555 1_555
C5 C4 1_555 1_555
H7 C5 1_555 1_555
C6 C1 1_555 1_555
H8 C6 1_555 1_555
H9 C6 1_555 1_555
C7 C1 1_555 1_555
H10 C7 1_555 1_555
H11 C7 1_555 1_555
C8 C7 1_555 1_555
H12 C8 1_555 1_555
C9 C5 1_555 1_555
H13 C9 1_555 1_555
H14 C9 1_555 1_555
C10 C3 1_555 1_555
H15 C10 1_555 1_555
H16 C10 1_555 1_555
S1 N1 1_555 1_555
O1 S1 1_555 1_555
O2 S1 1_555 1_555
C11 S1 1_555 1_555
C12 C11 1_555 1_555
H17 C12 1_555 1_555
C13 C12 1_555 1_555
H18 C13 1_555 1_555
C14 C13 1_555 1_555
C15 C14 1_555 1_555
H19 C15 1_555 1_555
C16 C11 1_555 1_555
H20 C16 1_555 1_555
C17 C14 1_555 1_555
H21 C17 1_555 1_555
H22 C17 1_555 1_555
H23 C17 1_555 1_555
C5 C6 1_555 1_555
C8 C9 1_555 1_555
C8 C10 1_555 1_555
C15 C16 1_555 1_555

#END
