
#######################################################################
#
#                 Cambridge Crystallographic Data Centre
#                                CCDC 
#
#######################################################################
#
# If this CIF has been generated from an entry in the Cambridge 
# Structural Database, then it will include bibliographic, chemical, 
# crystal, experimental, refinement or atomic coordinate data resulting 
# from the CCDC's data processing and validation procedures.
#
#######################################################################

data_KOTQIV
_chemical_name_common            hexamethylhexaethoxycyclohexasilane
_chemical_formula_moiety         'C18 H48 O6 Si6'
_chemical_name_systematic        
1,2,3,4,5,6-hexaethoxy-1,2,3,4,5,6-hexamethylhexasilinane
_symmetry_cell_setting           cubic
_symmetry_space_group_name_H-M   'I -4 3 d'
_symmetry_Int_Tables_number      220
_space_group_name_Hall           'I -4bd 2c 3'
loop_
_symmetry_equiv_pos_site_id
_symmetry_equiv_pos_as_xyz
1 x,y,z
2 1/2-x,-y,1/2+z
3 -x,1/2+y,1/2-z
4 1/2+x,1/2-y,-z
5 z,x,y
6 1/2+z,1/2-x,-y
7 1/2-z,-x,1/2+y
8 -z,1/2+x,1/2-y
9 y,z,x
10 -y,1/2+z,1/2-x
11 1/2+y,1/2-z,-x
12 1/2-y,-z,1/2+x
13 1/4+y,1/4+x,1/4+z
14 1/4-y,3/4-x,3/4+z
15 3/4+y,1/4-x,3/4-z
16 3/4-y,3/4+x,1/4-z
17 1/4+x,1/4+z,1/4+y
18 3/4-x,3/4+z,1/4-y
19 1/4-x,3/4-z,3/4+y
20 3/4+x,1/4-z,3/4-y
21 1/4+z,1/4+y,1/4+x
22 3/4+z,1/4-y,3/4-x
23 3/4-z,3/4+y,1/4-x
24 1/4-z,3/4-y,3/4+x
25 1/2+x,1/2+y,1/2+z
26 -x,1/2-y,z
27 1/2-x,y,-z
28 x,-y,1/2-z
29 1/2+z,1/2+x,1/2+y
30 z,-x,1/2-y
31 -z,1/2-x,y
32 1/2-z,x,-y
33 1/2+y,1/2+z,1/2+x
34 1/2-y,z,-x
35 y,-z,1/2-x
36 -y,1/2-z,x
37 3/4+y,3/4+x,3/4+z
38 3/4-y,1/4-x,1/4+z
39 1/4+y,3/4-x,1/4-z
40 1/4-y,1/4+x,3/4-z
41 3/4+x,3/4+z,3/4+y
42 1/4-x,1/4+z,3/4-y
43 3/4-x,1/4-z,1/4+y
44 1/4+x,3/4-z,1/4-y
45 3/4+z,3/4+y,3/4+x
46 1/4+z,3/4-y,1/4-x
47 1/4-z,1/4+y,3/4-x
48 3/4-z,1/4-y,1/4+x
_cell_length_a                   23.3514(5)
_cell_length_b                   23.3514(5)
_cell_length_c                   23.3514(5)
_cell_angle_alpha                90
_cell_angle_beta                 90
_cell_angle_gamma                90
_cell_volume                     12733.2
_exptl_crystal_colour            colorless
_exptl_crystal_description       Cubic
_chemical_melting_point          '434 K'
_cell_formula_units_Z            16
_chemical_properties_physical    Moisture-sensitive
_exptl_crystal_recrystallization_method n-hexane
loop_
_atom_site_label
_atom_site_type_symbol
_atom_site_fract_x
_atom_site_fract_y
_atom_site_fract_z
Si1 Si 0.03469(15) 0.60470(15) 0.03309(14)
Si2 Si 0.12022(14) 0.55398(15) 0.01495(13)
O1 O -0.0099(6) 0.5708(5) 0.0740(4)
O2 O 0.1565(6) 0.5466(6) 0.0748(6)
C1 C 0.0540(6) 0.6755(6) 0.0680(5)
H1 H 0.0196 0.6955 0.0784
H2 H 0.0756 0.6984 0.0415
H3 H 0.0765 0.6685 0.1017
C2 C 0.1705(5) 0.5990(5) -0.0289(6)
H4 H 0.1748 0.6359 -0.0112
H5 H 0.1552 0.6037 -0.0667
H6 H 0.2071 0.5805 -0.0311
C3 C -0.0054(10) 0.5455(11) 0.1265(10)
H7 H 0.0024 0.5747 0.1549
H8 H 0.0268 0.5192 0.1262
C4 C -0.0570(7) 0.5141(7) 0.1433(7)
H9 H -0.0903 0.5344 0.1301
H10 H -0.0583 0.5108 0.1843
H11 H -0.0563 0.4766 0.1266
C5 C 0.1647(11) 0.5041(11) 0.1165(11)
H12 H 0.1835 0.4719 0.0982
H13 H 0.1273 0.4911 0.1289
C6 C 0.1959(6) 0.5182(8) 0.1649(5)
H14 H 0.2180 0.4856 0.1769
H15 H 0.1702 0.5291 0.1951
H16 H 0.2211 0.5495 0.1563
Si1G Si -0.03309(14) 0.53469(15) -0.10470(15)
Si2G Si -0.01495(13) 0.62022(14) -0.05398(15)
O1G O -0.0740(4) 0.4901(6) -0.0708(5)
O2G O -0.0748(6) 0.6565(6) -0.0466(6)
C1G C -0.0680(5) 0.5540(6) -0.1755(6)
H1G H -0.0784 0.5196 -0.1955
H2G H -0.0415 0.5756 -0.1984
H3G H -0.1017 0.5765 -0.1685
C2G C 0.0289(6) 0.6705(5) -0.0990(5)
H4G H 0.0112 0.6748 -0.1359
H5G H 0.0667 0.6552 -0.1037
H6G H 0.0311 0.7071 -0.0805
C3G C -0.1265(10) 0.4946(10) -0.0455(11)
H7G H -0.1549 0.5024 -0.0747
H8G H -0.1262 0.5268 -0.0192
C4G C -0.1433(7) 0.4430(7) -0.0141(7)
H9G H -0.1301 0.4097 -0.0344
H10G H -0.1843 0.4417 -0.0108
H11G H -0.1266 0.4437 0.0234
C5G C -0.1165(11) 0.6647(11) -0.0041(11)
H12G H -0.0982 0.6835 0.0281
H13G H -0.1289 0.6273 0.0089
C6G C -0.1649(5) 0.6959(6) -0.0182(8)
H14G H -0.1769 0.7180 0.0144
H15G H -0.1951 0.6702 -0.0291
H16G H -0.1563 0.7211 -0.0495
Si1J Si 0.10470(15) 0.46691(14) -0.03469(15)
Si2J Si 0.05398(15) 0.48505(13) -0.12022(14)
O1J O 0.0708(5) 0.4260(4) 0.0099(6)
O2J O 0.0466(6) 0.4252(6) -0.1565(6)
C1J C 0.1755(6) 0.4320(5) -0.0540(6)
H1J H 0.1955 0.4216 -0.0196
H2J H 0.1984 0.4585 -0.0756
H3J H 0.1685 0.3983 -0.0765
C2J C 0.0990(5) 0.5289(6) -0.1705(5)
H4J H 0.1359 0.5112 -0.1748
H5J H 0.1037 0.5667 -0.1552
H6J H 0.0805 0.5311 -0.2071
C3J C 0.0455(11) 0.3735(10) 0.0054(10)
H7J H 0.0747 0.3451 -0.0024
H8J H 0.0192 0.3738 -0.0268
C4J C 0.0141(7) 0.3567(7) 0.0570(7)
H9J H 0.0344 0.3699 0.0903
H10J H 0.0108 0.3157 0.0583
H11J H -0.0234 0.3734 0.0563
C5J C 0.0041(11) 0.3835(11) -0.1647(11)
H12J H -0.0281 0.4018 -0.1835
H13J H -0.0089 0.3711 -0.1273
C6J C 0.0182(8) 0.3351(5) -0.1959(6)
H14J H -0.0144 0.3231 -0.2180
H15J H 0.0291 0.3049 -0.1702
H16J H 0.0495 0.3437 -0.2211
loop_
_geom_bond_atom_site_label_1
_geom_bond_atom_site_label_2
_geom_bond_site_symmetry_1
_geom_bond_site_symmetry_2
Si1 Si2 1_555 1_555
Si2 O2 1_555 1_555
O1 Si1 1_555 1_555
O2 C5 1_555 1_555
C1 Si1 1_555 1_555
H1 C1 1_555 1_555
H2 C1 1_555 1_555
H3 C1 1_555 1_555
C2 Si2 1_555 1_555
H4 C2 1_555 1_555
H5 C2 1_555 1_555
H6 C2 1_555 1_555
C3 O1 1_555 1_555
H7 C3 1_555 1_555
H8 C3 1_555 1_555
C4 C3 1_555 1_555
H9 C4 1_555 1_555
H10 C4 1_555 1_555
H11 C4 1_555 1_555
C5 H12 1_555 1_555
H13 C5 1_555 1_555
C6 C5 1_555 1_555
H14 C6 1_555 1_555
H15 C6 1_555 1_555
H16 C6 1_555 1_555
Si1G Si2G 1_555 1_555
Si2G Si1 1_555 1_555
O1G Si1G 1_555 1_555
O2G Si2G 1_555 1_555
C1G Si1G 1_555 1_555
H1G C1G 1_555 1_555
H2G C1G 1_555 1_555
H3G C1G 1_555 1_555
C2G Si2G 1_555 1_555
H4G C2G 1_555 1_555
H5G C2G 1_555 1_555
H6G C2G 1_555 1_555
C3G O1G 1_555 1_555
H7G C3G 1_555 1_555
H8G C3G 1_555 1_555
C4G C3G 1_555 1_555
H9G C4G 1_555 1_555
H10G C4G 1_555 1_555
H11G C4G 1_555 1_555
C5G O2G 1_555 1_555
H12G C5G 1_555 1_555
H13G C5G 1_555 1_555
C6G C5G 1_555 1_555
H14G C6G 1_555 1_555
H15G C6G 1_555 1_555
H16G C6G 1_555 1_555
Si1J Si2 1_555 1_555
Si2J Si1G 1_555 1_555
O1J Si1J 1_555 1_555
O2J Si2J 1_555 1_555
C1J Si1J 1_555 1_555
H1J C1J 1_555 1_555
H2J C1J 1_555 1_555
H3J C1J 1_555 1_555
C2J Si2J 1_555 1_555
H4J C2J 1_555 1_555
H5J C2J 1_555 1_555
H6J C2J 1_555 1_555
C3J O1J 1_555 1_555
H7J C3J 1_555 1_555
H8J C3J 1_555 1_555
C4J C3J 1_555 1_555
H9J C4J 1_555 1_555
H10J C4J 1_555 1_555
H11J C4J 1_555 1_555
C5J O2J 1_555 1_555
H12J C5J 1_555 1_555
H13J C5J 1_555 1_555
C6J C5J 1_555 1_555
H14J C6J 1_555 1_555
H15J C6J 1_555 1_555
H16J C6J 1_555 1_555
Si1J Si2J 1_555 1_555

#END
