
#######################################################################
#
#                 Cambridge Crystallographic Data Centre
#                                CCDC 
#
#######################################################################
#
# If this CIF has been generated from an entry in the Cambridge 
# Structural Database, then it will include bibliographic, chemical, 
# crystal, experimental, refinement or atomic coordinate data resulting 
# from the CCDC's data processing and validation procedures.
#
#######################################################################

data_KOTSAN
_chemical_formula_moiety         'C9 H9 N6 P1,0.5(H2 O1)'
_chemical_name_systematic        'tris(2-Imidazolyl)phosphine hemihydrate'
_symmetry_cell_setting           monoclinic
_symmetry_space_group_name_H-M   'C 2/c'
_symmetry_Int_Tables_number      15
_space_group_name_Hall           '-C 2yn'
loop_
_symmetry_equiv_pos_site_id
_symmetry_equiv_pos_as_xyz
1 x,y,z
2 1/2+x,1/2+y,z
3 -x,y,1/2-z
4 1/2-x,1/2+y,1/2-z
5 -x,-y,-z
6 1/2-x,1/2-y,-z
7 x,-y,1/2+z
8 1/2+x,1/2-y,1/2+z
_cell_length_a                   13.822(4)
_cell_length_b                   8.0133(8)
_cell_length_c                   21.843(3)
_cell_angle_alpha                90
_cell_angle_beta                 105.41(2)
_cell_angle_gamma                90
_cell_volume                     2332.35
_exptl_crystal_colour            colorless
_cell_formula_units_Z            8
loop_
_atom_site_label
_atom_site_type_symbol
_atom_site_fract_x
_atom_site_fract_y
_atom_site_fract_z
P1 P 0.8023(1) 0.0874(1) 0.5615(1)
C1 C 0.8336(3) -0.1142(5) 0.5990(2)
N1 N 0.8079(3) -0.2523(4) 0.5644(2)
C2 C 0.8390(4) -0.3819(6) 0.6051(2)
C3 C 0.8815(4) -0.3220(6) 0.6626(3)
N2 N 0.8783(3) -0.1520(5) 0.6591(2)
C4 C 0.9240(3) 0.1871(5) 0.5754(2)
N3 N 0.9915(3) 0.2199(5) 0.6312(2)
C5 C 1.0675(4) 0.3019(8) 0.6150(3)
C6 C 1.0478(4) 0.3156(8) 0.5526(2)
N4 N 0.9565(3) 0.2441(6) 0.5275(1)
C7 C 0.7510(3) 0.1918(5) 0.6191(2)
N5 N 0.7933(3) 0.2130(6) 0.6814(2)
C8 C 0.7252(5) 0.3004(9) 0.7029(3)
C9 C 0.6449(4) 0.3315(8) 0.6556(3)
N6 N 0.6618(3) 0.2625(6) 0.6027(2)
H1 H 0.827(4) -0.491(7) 0.588(2)
H2 H 0.915(4) -0.383(6) 0.697(2)
H3 H 0.907(4) -0.082(6) 0.684(2)
H4 H 1.118(4) 0.334(6) 0.644(2)
H5 H 1.081(4) 0.370(6) 0.526(2)
H6 H 0.937(5) 0.233(8) 0.501(3)
H7 H 0.739(4) 0.328(6) 0.746(3)
H8 H 0.592(4) 0.402(6) 0.655(2)
H9 H 0.624(4) 0.267(7) 0.574(3)
O1 O 1.0000 0.0685(8) 0.7500
H10 H 1.009(4) 0.133(6) 0.722(2)
H10B H 0.991(4) 0.133(6) 0.778(2)
loop_
_geom_bond_atom_site_label_1
_geom_bond_atom_site_label_2
_geom_bond_site_symmetry_1
_geom_bond_site_symmetry_2
P1 C1 1_555 1_555
C1 N1 1_555 1_555
N1 C2 1_555 1_555
C2 C3 1_555 1_555
C3 N2 1_555 1_555
N2 C1 1_555 1_555
C4 P1 1_555 1_555
N3 C4 1_555 1_555
C5 N3 1_555 1_555
C6 C5 1_555 1_555
N4 C4 1_555 1_555
C7 P1 1_555 1_555
N5 C7 1_555 1_555
C8 N5 1_555 1_555
C9 C8 1_555 1_555
N6 C7 1_555 1_555
O1 H10 1_555 1_555
H1 C2 1_555 1_555
H2 C3 1_555 1_555
H3 N2 1_555 1_555
H4 C5 1_555 1_555
H5 C6 1_555 1_555
H6 N4 1_555 1_555
H7 C8 1_555 1_555
H8 C9 1_555 1_555
H9 N6 1_555 1_555
H10B O1 1_555 1_555
C6 N4 1_555 1_555
C9 N6 1_555 1_555

#END
