
#######################################################################
#
#                 Cambridge Crystallographic Data Centre
#                                CCDC 
#
#######################################################################
#
# If this CIF has been generated from an entry in the Cambridge 
# Structural Database, then it will include bibliographic, chemical, 
# crystal, experimental, refinement or atomic coordinate data resulting 
# from the CCDC's data processing and validation procedures.
#
#######################################################################

data_KOTTIY
_chemical_formula_moiety         'C24 H16 N4 O2,C2 H3 N1'
_chemical_name_systematic        
'5,10-dimethoxy-7,8-dihydrodibenzo[a,e]cyclobuta[c][8]annulene-1,1,2,2-tetracarbonitrile acetonitrile solvate'
_symmetry_cell_setting           monoclinic
_symmetry_space_group_name_H-M   'P 21/c'
_symmetry_Int_Tables_number      14
_space_group_name_Hall           '-P 2ybc'
loop_
_symmetry_equiv_pos_site_id
_symmetry_equiv_pos_as_xyz
1 x,y,z
2 -x,1/2+y,1/2-z
3 -x,-y,-z
4 x,1/2-y,1/2+z
_cell_length_a                   14.7562(6)
_cell_length_b                   17.1384(8)
_cell_length_c                   9.3302(4)
_cell_angle_alpha                90
_cell_angle_beta                 105.613(2)
_cell_angle_gamma                90
_cell_volume                     2272.52
_exptl_crystal_colour            yellow
_exptl_crystal_description       prism
_cell_formula_units_Z            4
_exptl_crystal_recrystallization_method Acetonitrile
loop_
_atom_site_label
_atom_site_type_symbol
_atom_site_fract_x
_atom_site_fract_y
_atom_site_fract_z
O1 O 0.40275(7) 0.29900(6) -0.16178(11)
O2 O 1.07315(7) 0.32688(7) 0.64831(12)
N1 N 0.71920(10) -0.02417(10) -0.02772(16)
N2 N 0.55117(9) -0.01652(8) 0.28855(15)
N3 N 0.93648(9) -0.01945(8) 0.28097(16)
N4 N 0.76857(10) 0.00763(8) 0.60124(14)
C1 C 0.69563(9) 0.04081(8) 0.21297(15)
C2 C 0.69913(9) 0.13048(8) 0.21287(15)
C3 C 0.62384(9) 0.17819(9) 0.12153(15)
C4 C 0.55545(10) 0.14158(10) 0.00687(17)
H1 H 0.5586(12) 0.0846(11) -0.0127(19)
C5 C 0.48305(11) 0.18321(10) -0.08539(17)
H2 H 0.4366(13) 0.1563(12) -0.169(2)
C6 C 0.47656(10) 0.26306(9) -0.06503(15)
C7 C 0.54233(10) 0.30061(9) 0.04979(17)
H3 H 0.5394(11) 0.3557(10) 0.0710(17)
C8 C 0.61545(10) 0.25854(9) 0.14359(16)
C9 C 0.68645(11) 0.29951(9) 0.26651(17)
H4 H 0.6914(10) 0.2713(9) 0.3632(17)
H5 H 0.6627(12) 0.3536(11) 0.2800(18)
C10 C 0.78504(11) 0.30043(10) 0.23602(17)
H6 H 0.7789(12) 0.2678(11) 0.143(2)
H7 H 0.8034(13) 0.3572(12) 0.215(2)
C11 C 0.85944(10) 0.26702(9) 0.36251(15)
C12 C 0.93039(11) 0.31471(10) 0.44613(17)
H8 H 0.9306(12) 0.3681(11) 0.419(2)
C13 C 1.00069(10) 0.28445(9) 0.56327(16)
C14 C 1.00074(10) 0.20542(10) 0.59613(17)
H9 H 1.0527(12) 0.1845(11) 0.680(2)
C15 C 0.93050(10) 0.15808(10) 0.51465(16)
H10 H 0.9297(12) 0.1039(11) 0.5388(18)
C16 C 0.85714(10) 0.18761(9) 0.39754(15)
C17 C 0.78455(10) 0.13424(8) 0.31748(15)
C18 C 0.79109(9) 0.04555(8) 0.34241(14)
C19 C 0.70787(10) 0.00268(9) 0.07796(16)
C20 C 0.61523(10) 0.00680(8) 0.25540(16)
C21 C 0.39108(12) 0.38080(10) -0.1422(2)
H11 H 0.3378(14) 0.3934(11) -0.218(2)
H12 H 0.3826(15) 0.3908(12) -0.031(2)
H13 H 0.4453(15) 0.4123(13) -0.154(2)
C22 C 1.07910(13) 0.40740(11) 0.6099(2)
H14 H 1.1346(15) 0.4260(12) 0.677(2)
H15 H 1.0249(14) 0.4362(12) 0.628(2)
H16 H 1.0823(13) 0.4134(12) 0.504(2)
C23 C 0.87261(10) 0.00694(9) 0.30952(16)
C24 C 0.77978(10) 0.02126(8) 0.48768(15)
N5 N 0.25084(9) 0.36731(8) 0.17420(16)
C25 C 0.24462(10) 0.31368(10) 0.10021(17)
C26 C 0.23701(17) 0.24582(14) 0.0041(3)
H17 H 0.179(3) 0.242(2) -0.056(4)
H18 H 0.224(2) 0.1987(17) 0.053(3)
H19 H 0.279(3) 0.2486(19) -0.046(4)
loop_
_geom_bond_atom_site_label_1
_geom_bond_atom_site_label_2
_geom_bond_site_symmetry_1
_geom_bond_site_symmetry_2
O1 C6 1_555 1_555
O2 C13 1_555 1_555
N1 C19 1_555 1_555
N2 C20 1_555 1_555
N3 C23 1_555 1_555
N4 C24 1_555 1_555
C1 C2 1_555 1_555
C2 C3 1_555 1_555
C3 C4 1_555 1_555
C4 H1 1_555 1_555
C5 C4 1_555 1_555
H2 C5 1_555 1_555
C6 C5 1_555 1_555
C7 C6 1_555 1_555
H3 C7 1_555 1_555
C8 C3 1_555 1_555
C9 C8 1_555 1_555
H4 C9 1_555 1_555
H5 C9 1_555 1_555
C10 C9 1_555 1_555
H6 C10 1_555 1_555
H7 C10 1_555 1_555
C11 C10 1_555 1_555
C12 C11 1_555 1_555
H8 C12 1_555 1_555
C13 C12 1_555 1_555
C14 C13 1_555 1_555
H9 C14 1_555 1_555
C15 C14 1_555 1_555
H10 C15 1_555 1_555
C16 C11 1_555 1_555
C17 C2 1_555 1_555
C18 C1 1_555 1_555
C19 C1 1_555 1_555
C20 C1 1_555 1_555
C21 O1 1_555 1_555
H11 C21 1_555 1_555
H12 C21 1_555 1_555
H13 C21 1_555 1_555
C22 O2 1_555 1_555
H14 C22 1_555 1_555
H15 C22 1_555 1_555
H16 C22 1_555 1_555
C23 C18 1_555 1_555
C24 C18 1_555 1_555
N5 C25 1_555 1_555
C25 C26 1_555 1_555
C26 H17 1_555 1_555
H18 C26 1_555 1_555
H19 C26 1_555 1_555
C7 C8 1_555 1_555
C15 C16 1_555 1_555
C16 C17 1_555 1_555
C17 C18 1_555 1_555

#END
