
#######################################################################
#
#                 Cambridge Crystallographic Data Centre
#                                CCDC 
#
#######################################################################
#
# If this CIF has been generated from an entry in the Cambridge 
# Structural Database, then it will include bibliographic, chemical, 
# crystal, experimental, refinement or atomic coordinate data resulting 
# from the CCDC's data processing and validation procedures.
#
#######################################################################

data_KOTVAS
_chemical_formula_moiety         'C26 H16 N4 O4,0.5(C1 H2 Cl2)'
_chemical_name_systematic        
'4,5,10,11-tetramethoxy-7,8-didehydrodibenzo[a,e]cyclobuta[c][8]annulene-1,1,2,2-tetracarbonitrile dichloromethane solvate'
_symmetry_cell_setting           triclinic
_symmetry_space_group_name_H-M   'P -1'
_symmetry_Int_Tables_number      2
_space_group_name_Hall           '-P 1'
loop_
_symmetry_equiv_pos_site_id
_symmetry_equiv_pos_as_xyz
1 x,y,z
2 -x,-y,-z
_cell_length_a                   9.072(3)
_cell_length_b                   11.667(4)
_cell_length_c                   22.105(7)
_cell_angle_alpha                94.506(6)
_cell_angle_beta                 100.341(7)
_cell_angle_gamma                92.078(7)
_cell_volume                     2291.51
_exptl_crystal_colour            brown
_exptl_crystal_description       needle
_cell_formula_units_Z            4
_exptl_crystal_recrystallization_method 'pentane/ dichloromethane'
loop_
_atom_site_label
_atom_site_type_symbol
_atom_site_fract_x
_atom_site_fract_y
_atom_site_fract_z
O1 O -0.5385(2) 0.30155(17) 0.11381(9)
O2 O 0.2122(2) 0.89733(17) -0.09714(9)
O3 O -0.5709(2) 0.22124(17) -0.00007(9)
O4 O 0.2408(2) 0.99233(16) 0.01483(9)
C1 C -0.3514(3) 0.4476(2) 0.10149(13)
H1 H -0.3379 0.4754 0.1438
C2 C -0.2059(3) 0.5173(3) -0.03696(13)
C3 C -0.2085(3) 0.6531(2) 0.19833(13)
C4 C -0.5504(3) 0.3570(3) 0.17337(13)
H2 H -0.5818 0.4357 0.1686
H3 H -0.4527 0.3590 0.2010
H4 H -0.6247 0.3138 0.1910
C5 C -0.4533(3) 0.3559(2) 0.07939(13)
C6 C -0.2677(3) 0.5005(2) 0.06252(13)
C7 C -0.1568(3) 0.5948(2) 0.08925(13)
C8 C -0.0636(3) 0.6822(2) 0.07613(12)
C9 C -0.0069(3) 0.7391(2) 0.02682(13)
C10 C 0.0834(3) 0.8413(2) 0.04385(13)
H5 H 0.0969 0.8750 0.0851
C11 C 0.1530(3) 0.8937(2) 0.00157(13)
C12 C 0.1358(3) 0.8435(2) -0.05933(13)
C13 C 0.2034(4) 0.8444(3) -0.15897(13)
H6 H 0.0996 0.8433 -0.1812
H7 H 0.2360 0.7653 -0.1572
H8 H 0.2686 0.8885 -0.1805
C14 C -0.5791(3) 0.1647(3) -0.06101(13)
H9 H -0.6122 0.2187 -0.0919
H10 H -0.6508 0.0982 -0.0669
H11 H -0.4798 0.1389 -0.0657
C15 C -0.4709(3) 0.3120(2) 0.01719(13)
C16 C -0.2911(3) 0.4573(2) 0.00035(13)
C17 C -0.3896(3) 0.3633(2) -0.02199(13)
H12 H -0.4014 0.3341 -0.0640
C18 C -0.1240(3) 0.5919(2) -0.04856(12)
C19 C -0.0281(3) 0.6933(2) -0.03489(13)
C20 C -0.1004(3) 0.6141(2) 0.15937(12)
N1 N -0.2946(3) 0.6853(2) 0.22687(12)
C21 C -0.0152(3) 0.5188(2) 0.18640(13)
N2 N 0.0528(3) 0.4459(2) 0.20610(11)
C22 C 0.0058(3) 0.7152(2) 0.14458(13)
C23 C 0.1679(3) 0.6954(2) 0.16031(13)
N3 N 0.2926(3) 0.6772(2) 0.16999(12)
C24 C -0.0264(3) 0.8301(2) 0.17121(13)
N4 N -0.0559(3) 0.9170(2) 0.19153(12)
C25 C 0.0426(3) 0.7449(2) -0.07726(13)
H13 H 0.0272 0.7126 -0.1189
C26 C 0.2559(3) 1.0496(3) 0.07594(14)
H14 H 0.3181 1.1210 0.0788
H15 H 0.3035 0.9991 0.1063
H16 H 0.1565 1.0677 0.0843
O5 O 0.5228(2) 0.77956(17) 0.59860(9)
O6 O -0.1673(2) -0.02854(17) 0.38297(9)
O7 O 0.5749(2) 0.76289(17) 0.48625(9)
O8 O -0.2340(2) 0.00083(16) 0.49196(9)
C27 C 0.1549(3) 0.4504(2) 0.54412(12)
N5 N -0.2003(3) 0.3742(2) 0.28827(12)
N6 N 0.4267(3) 0.4670(2) 0.30371(12)
N7 N 0.0482(3) 0.6602(2) 0.32700(12)
N8 N 0.1888(3) 0.1931(2) 0.26986(12)
C28 C 0.4708(3) 0.8106(3) 0.65542(13)
H17 H 0.3666 0.8329 0.6460
H18 H 0.5339 0.8753 0.6784
H19 H 0.4766 0.7445 0.6804
C29 C 0.4418(3) 0.6956(2) 0.55887(13)
C30 C 0.3379(3) 0.6188(2) 0.57536(13)
H20 H 0.3203 0.6235 0.6166
C31 C 0.2596(3) 0.5351(2) 0.53173(13)
C32 C 0.0733(3) 0.3652(3) 0.53237(13)
C33 C 0.0049(3) 0.2647(2) 0.49564(13)
C34 C 0.0325(3) 0.2548(2) 0.43513(13)
C35 C -0.0259(3) 0.1552(2) 0.39666(13)
H21 H -0.0068 0.1458 0.3557
C36 C -0.1103(3) 0.0711(2) 0.41759(13)
C37 C -0.1244(3) -0.0504(3) 0.32369(13)
H22 H -0.1644 0.0082 0.2966
H23 H -0.1649 -0.1267 0.3052
H24 H -0.0148 -0.0474 0.3288
C38 C 0.5939(3) 0.7646(3) 0.42294(13)
H25 H 0.4985 0.7808 0.3972
H26 H 0.6260 0.6896 0.4085
H27 H 0.6702 0.8246 0.4200
C39 C 0.4689(3) 0.6875(2) 0.49827(13)
C40 C -0.0852(3) 0.1818(2) 0.51638(13)
H28 H -0.1063 0.1914 0.5570
C41 C -0.1438(3) 0.0849(2) 0.47712(13)
C42 C -0.2859(3) 0.0176(3) 0.54956(13)
H29 H -0.3432 0.0872 0.5499
H30 H -0.1996 0.0261 0.5836
H31 H -0.3502 -0.0491 0.5544
C43 C 0.1092(3) 0.3461(2) 0.40810(12)
C44 C 0.0819(3) 0.3534(2) 0.33744(13)
C45 C -0.0765(3) 0.3665(2) 0.30930(13)
C46 C 0.1834(3) 0.4698(2) 0.35206(12)
C47 C 0.3204(3) 0.4678(2) 0.32449(13)
C48 C 0.1047(3) 0.5755(3) 0.33712(12)
C49 C 0.1985(3) 0.4452(2) 0.42049(13)
C50 C 0.2835(3) 0.5271(2) 0.47049(13)
C51 C 0.3881(3) 0.6050(2) 0.45493(13)
H32 H 0.4045 0.6016 0.4136
C52 C 0.1444(3) 0.2634(2) 0.29943(13)
Cl1 Cl 0.29911(9) 0.88494(8) 0.29401(4)
C53 C 0.4788(3) 0.8690(3) 0.27535(15)
H33 H 0.5560 0.8920 0.3124
H34 H 0.4904 0.7870 0.2627
Cl2 Cl 0.50767(10) 0.95288(8) 0.21536(4)
loop_
_geom_bond_atom_site_label_1
_geom_bond_atom_site_label_2
_geom_bond_site_symmetry_1
_geom_bond_site_symmetry_2
O1 C4 1_555 1_555
O2 C12 1_555 1_555
O3 C14 1_555 1_555
O4 C11 1_555 1_555
C1 H1 1_555 1_555
C2 C16 1_555 1_555
C3 C20 1_555 1_555
C4 H2 1_555 1_555
H3 C4 1_555 1_555
H4 C4 1_555 1_555
C5 O1 1_555 1_555
C6 C1 1_555 1_555
C7 C6 1_555 1_555
C8 C7 1_555 1_555
C9 C8 1_555 1_555
C10 C9 1_555 1_555
H5 C10 1_555 1_555
C11 C10 1_555 1_555
C12 C11 1_555 1_555
C13 O2 1_555 1_555
H6 C13 1_555 1_555
H7 C13 1_555 1_555
H8 C13 1_555 1_555
C14 H9 1_555 1_555
H10 C14 1_555 1_555
H11 C14 1_555 1_555
C15 O3 1_555 1_555
C16 C6 1_555 1_555
C17 C15 1_555 1_555
H12 C17 1_555 1_555
C18 C2 1_555 1_555
C19 C9 1_555 1_555
C20 C7 1_555 1_555
N1 C3 1_555 1_555
C21 C20 1_555 1_555
N2 C21 1_555 1_555
C22 C8 1_555 1_555
C23 C22 1_555 1_555
N3 C23 1_555 1_555
C24 C22 1_555 1_555
N4 C24 1_555 1_555
C25 C12 1_555 1_555
H13 C25 1_555 1_555
C26 O4 1_555 1_555
H14 C26 1_555 1_555
H15 C26 1_555 1_555
H16 C26 1_555 1_555
O5 C28 1_555 1_555
O6 C36 1_555 1_555
O7 C38 1_555 1_555
O8 C41 1_555 1_555
C27 C31 1_555 1_555
N5 C45 1_555 1_555
N6 C47 1_555 1_555
N7 C48 1_555 1_555
N8 C52 1_555 1_555
C28 H17 1_555 1_555
H18 C28 1_555 1_555
H19 C28 1_555 1_555
C29 O5 1_555 1_555
C30 C29 1_555 1_555
H20 C30 1_555 1_555
C31 C30 1_555 1_555
C32 C27 1_555 1_555
C33 C32 1_555 1_555
C34 C33 1_555 1_555
C35 C34 1_555 1_555
H21 C35 1_555 1_555
C36 C35 1_555 1_555
C37 O6 1_555 1_555
H22 C37 1_555 1_555
H23 C37 1_555 1_555
H24 C37 1_555 1_555
C38 H25 1_555 1_555
H26 C38 1_555 1_555
H27 C38 1_555 1_555
C39 O7 1_555 1_555
C40 C33 1_555 1_555
H28 C40 1_555 1_555
C41 C36 1_555 1_555
C42 O8 1_555 1_555
H29 C42 1_555 1_555
H30 C42 1_555 1_555
H31 C42 1_555 1_555
C43 C34 1_555 1_555
C44 C43 1_555 1_555
C45 C44 1_555 1_555
C46 C44 1_555 1_555
C47 C46 1_555 1_555
C48 C46 1_555 1_555
C49 C43 1_555 1_555
C50 C31 1_555 1_555
C51 C39 1_555 1_555
H32 C51 1_555 1_555
C52 C44 1_555 1_555
Cl1 C53 1_555 1_555
C53 H33 1_555 1_555
H34 C53 1_555 1_555
Cl2 C53 1_555 1_555
C1 C5 1_555 1_555
C5 C15 1_555 1_555
C16 C17 1_555 1_555
C18 C19 1_555 1_555
C19 C25 1_555 1_555
C20 C22 1_555 1_555
C29 C39 1_555 1_555
C40 C41 1_555 1_555
C46 C49 1_555 1_555
C49 C50 1_555 1_555
C50 C51 1_555 1_555

#END
