
#######################################################################
#
#                 Cambridge Crystallographic Data Centre
#                                CCDC 
#
#######################################################################
#
# If this CIF has been generated from an entry in the Cambridge 
# Structural Database, then it will include bibliographic, chemical, 
# crystal, experimental, refinement or atomic coordinate data resulting 
# from the CCDC's data processing and validation procedures.
#
#######################################################################

data_KOVCEF
_chemical_name_common            8-thiophenyl-4,4'-difluoroboradiazaindacene
_chemical_formula_moiety         'C15 H11 B1 F2 N2 S1'
_chemical_name_systematic        
5,5-difluoro-10-(phenylsulfanyl)-5H-4,5-dipyrrolo[1,2-c:2',1'-f][1,3,2]diazaborinine
_symmetry_cell_setting           triclinic
_symmetry_space_group_name_H-M   'P -1'
_symmetry_Int_Tables_number      2
_space_group_name_Hall           '-P 1'
loop_
_symmetry_equiv_pos_site_id
_symmetry_equiv_pos_as_xyz
1 x,y,z
2 -x,-y,-z
_cell_length_a                   9.019(5)
_cell_length_b                   9.387(5)
_cell_length_c                   9.840(5)
_cell_angle_alpha                103.834(10)
_cell_angle_beta                 111.510(11)
_cell_angle_gamma                104.812(11)
_cell_volume                     696.098
_cell_formula_units_Z            2
loop_
_atom_site_label
_atom_site_type_symbol
_atom_site_fract_x
_atom_site_fract_y
_atom_site_fract_z
S1 S 0.12936(9) 0.78017(6) 0.51066(6)
N1 N 0.35770(19) 1.19701(18) 0.50471(18)
N2 N 0.32076(18) 1.25630(17) 0.74344(17)
F1 F 0.59681(14) 1.37089(15) 0.75411(14)
F2 F 0.39142(17) 1.46064(13) 0.64356(15)
B1 B 0.4222(3) 1.3285(2) 0.6635(3)
C1 C 0.3846(3) 1.2088(3) 0.3813(3)
H1 H 0.4343 1.3037 0.3722
C2 C 0.3278(3) 1.0598(3) 0.2703(3)
H2 H 0.3297 1.0372 0.1738
C3 C 0.2681(2) 0.9513(2) 0.3280(2)
H3 H 0.2247 0.8415 0.2793
C4 C 0.2845(2) 1.0365(2) 0.4742(2)
C5 C 0.2272(2) 0.98478(19) 0.5751(2)
C6 C 0.2387(2) 1.0951(2) 0.7072(2)
C7 C 0.1671(3) 1.0811(2) 0.8109(2)
H4 H 0.1047 0.9872 0.8137
C8 C 0.2066(3) 1.2321(3) 0.9071(3)
H5 H 0.1761 1.2593 0.9875
C9 C 0.2997(3) 1.3361(2) 0.8627(2)
H6 H 0.3418 1.4461 0.9090
C10 C 0.1363(2) 0.73556(19) 0.6768(2)
C11 C -0.0164(2) 0.6453(2) 0.6680(2)
H7 H -0.1197 0.6131 0.5782
C12 C -0.0147(3) 0.6028(3) 0.7941(3)
H8 H -0.1171 0.5410 0.7884
C13 C 0.1364(3) 0.6514(3) 0.9264(3)
H9 H 0.1364 0.6243 1.0113
C14 C 0.2880(3) 0.7398(3) 0.9349(3)
H10 H 0.3906 0.7726 1.0256
C15 C 0.2894(2) 0.7805(2) 0.8096(2)
H11 H 0.3930 0.8381 0.8144
loop_
_geom_bond_atom_site_label_1
_geom_bond_atom_site_label_2
_geom_bond_site_symmetry_1
_geom_bond_site_symmetry_2
S1 C5 1_555 1_555
N1 B1 1_555 1_555
N2 B1 1_555 1_555
F1 B1 1_555 1_555
F2 B1 1_555 1_555
C1 N1 1_555 1_555
H1 C1 1_555 1_555
C2 C1 1_555 1_555
H2 C2 1_555 1_555
C3 C2 1_555 1_555
H3 C3 1_555 1_555
C4 N1 1_555 1_555
C5 C4 1_555 1_555
C6 N2 1_555 1_555
C7 C6 1_555 1_555
H4 C7 1_555 1_555
C8 C7 1_555 1_555
H5 C8 1_555 1_555
C9 N2 1_555 1_555
H6 C9 1_555 1_555
C10 S1 1_555 1_555
C11 C10 1_555 1_555
H7 C11 1_555 1_555
C12 C11 1_555 1_555
H8 C12 1_555 1_555
C13 C12 1_555 1_555
H9 C13 1_555 1_555
C14 C13 1_555 1_555
H10 C14 1_555 1_555
C15 C10 1_555 1_555
H11 C15 1_555 1_555
C3 C4 1_555 1_555
C5 C6 1_555 1_555
C8 C9 1_555 1_555
C14 C15 1_555 1_555

#END
