
#######################################################################
#
#                 Cambridge Crystallographic Data Centre
#                                CCDC 
#
#######################################################################
#
# If this CIF has been generated from an entry in the Cambridge 
# Structural Database, then it will include bibliographic, chemical, 
# crystal, experimental, refinement or atomic coordinate data resulting 
# from the CCDC's data processing and validation procedures.
#
#######################################################################

data_KOVCON
_chemical_name_common            
2-Cyano-5,5-dimethyl-3-methoxy-6-phenyl-1,2,3,6-tetradehydropiperazine
_chemical_formula_moiety         'C14 H15 N3 O1'
_chemical_name_systematic        
2-Cyano-5,5-dimethyl-3-methoxy-6-phenyl-4,5-dihydro-1,4-diazabenzene
_symmetry_cell_setting           orthorhombic
_symmetry_space_group_name_H-M   'P b c a'
_symmetry_Int_Tables_number      61
_space_group_name_Hall           '-P 2ac 2ab'
loop_
_symmetry_equiv_pos_site_id
_symmetry_equiv_pos_as_xyz
1 x,y,z
2 1/2-x,1/2+y,z
3 x,1/2-y,1/2+z
4 1/2-x,-y,1/2+z
5 -x,-y,-z
6 1/2+x,1/2-y,-z
7 -x,1/2+y,1/2-z
8 1/2+x,y,1/2-z
_cell_length_a                   13.2625(13)
_cell_length_b                   11.6451(14)
_cell_length_c                   16.6114(16)
_cell_angle_alpha                90
_cell_angle_beta                 90
_cell_angle_gamma                90
_cell_volume                     2565.52
_exptl_crystal_colour            'light yellow'
_chemical_melting_point          168-169deg.C
_cell_formula_units_Z            8
loop_
_atom_site_label
_atom_site_type_symbol
_atom_site_fract_x
_atom_site_fract_y
_atom_site_fract_z
N1 N 0.25649(15) 0.01364(18) 0.63774(12)
N2 N 0.41451(17) 0.30759(19) 0.79083(13)
N3 N 0.26261(13) 0.25024(16) 0.62615(10)
O1 O 0.37549(12) 0.02078(13) 0.74142(10)
C1 C 0.31249(16) 0.07248(20) 0.68991(13)
C2 C 0.31171(16) 0.19004(19) 0.68835(13)
C3 C 0.20048(16) 0.19467(20) 0.58111(13)
C4 C 0.17024(17) 0.07006(20) 0.59672(14)
C5 C 0.35527(25) -0.09499(23) 0.76655(20)
C6 C 0.36977(17) 0.25433(21) 0.74434(15)
C7 C 0.15255(17) 0.25874(19) 0.51359(13)
C8 C 0.20499(21) 0.27886(22) 0.44269(14)
C9 C 0.16230(21) 0.34326(24) 0.38172(15)
C10 C 0.06639(23) 0.38675(24) 0.38947(16)
C11 C 0.01291(23) 0.36559(25) 0.45878(17)
C12 C 0.05503(20) 0.30216(25) 0.52079(16)
C13 C 0.14919(26) 0.00498(25) 0.51931(17)
C14 C 0.07883(20) 0.06733(26) 0.65244(18)
H1 H 0.2602(18) -0.0583(23) 0.6336(13)
H2 H 0.3737(23) -0.1475(29) 0.7241(19)
H3 H 0.3999(23) -0.1078(24) 0.8114(18)
H4 H 0.2870(23) -0.1042(23) 0.7812(16)
H5 H 0.2745(21) 0.2522(23) 0.4369(15)
H6 H 0.2027(18) 0.3598(20) 0.3337(15)
H7 H 0.0378(19) 0.4345(22) 0.3466(16)
H8 H -0.0537(23) 0.4028(25) 0.4618(17)
H9 H 0.0188(20) 0.2906(21) 0.5692(16)
H10 H 0.1337(21) -0.0782(27) 0.5323(18)
H11 H 0.2103(22) 0.0044(25) 0.4852(17)
H12 H 0.0911(22) 0.0389(23) 0.4889(17)
H13 H 0.0200(21) 0.1011(22) 0.6268(15)
H14 H 0.0648(19) -0.0105(25) 0.6685(16)
H15 H 0.0923(19) 0.1148(22) 0.7018(16)
loop_
_geom_bond_atom_site_label_1
_geom_bond_atom_site_label_2
_geom_bond_site_symmetry_1
_geom_bond_site_symmetry_2
N1 C1 1_555 1_555
N2 C6 1_555 1_555
N3 C2 1_555 1_555
O1 C1 1_555 1_555
C1 C2 1_555 1_555
C2 C6 1_555 1_555
C3 N3 1_555 1_555
C4 N1 1_555 1_555
C5 O1 1_555 1_555
C7 C3 1_555 1_555
C8 C7 1_555 1_555
C9 C8 1_555 1_555
C10 C9 1_555 1_555
C11 C10 1_555 1_555
C12 C7 1_555 1_555
C13 C4 1_555 1_555
C14 C4 1_555 1_555
H1 N1 1_555 1_555
H2 C5 1_555 1_555
H3 C5 1_555 1_555
H4 C5 1_555 1_555
H5 C8 1_555 1_555
H6 C9 1_555 1_555
H7 C10 1_555 1_555
H8 C11 1_555 1_555
H9 C12 1_555 1_555
H10 C13 1_555 1_555
H11 C13 1_555 1_555
H12 C13 1_555 1_555
H13 C14 1_555 1_555
H14 C14 1_555 1_555
H15 C14 1_555 1_555
C3 C4 1_555 1_555
C11 C12 1_555 1_555

#END
