
#######################################################################
#
#                 Cambridge Crystallographic Data Centre
#                                CCDC 
#
#######################################################################
#
# If this CIF has been generated from an entry in the Cambridge 
# Structural Database, then it will include bibliographic, chemical, 
# crystal, experimental, refinement or atomic coordinate data resulting 
# from the CCDC's data processing and validation procedures.
#
#######################################################################

data_KOVDAC
_chemical_formula_moiety         'C27 H19 B1 F2 N2 S3'
_chemical_name_systematic        
5,5-difluoro-3,7,10-tris(phenylsulfanyl)-5H-6,5-dipyrrolo[1,2-c:2',1'-f][1,3,2]diazaborinine
_symmetry_cell_setting           monoclinic
_symmetry_space_group_name_H-M   'P 21/c'
_symmetry_Int_Tables_number      14
_space_group_name_Hall           '-P 2ybc'
loop_
_symmetry_equiv_pos_site_id
_symmetry_equiv_pos_as_xyz
1 x,y,z
2 -x,1/2+y,1/2-z
3 -x,-y,-z
4 x,1/2-y,1/2+z
_cell_length_a                   9.462(3)
_cell_length_b                   12.722(4)
_cell_length_c                   20.648(6)
_cell_angle_alpha                90
_cell_angle_beta                 99.442(6)
_cell_angle_gamma                90
_cell_volume                     2451.84
_cell_formula_units_Z            4
loop_
_atom_site_label
_atom_site_type_symbol
_atom_site_fract_x
_atom_site_fract_y
_atom_site_fract_z
S1 S 0.74790(12) -0.01698(10) 0.18644(5)
S2 S 0.19952(10) 0.22324(8) 0.13721(5)
S3 S 0.57706(15) 0.19133(7) -0.10618(5)
F1 F 0.5609(2) 0.19713(13) 0.16157(8)
F2 F 0.42634(19) 0.05135(13) 0.13811(9)
N1 N 0.6197(3) 0.08222(18) 0.07763(12)
N2 N 0.3974(3) 0.19014(17) 0.05888(11)
B1 B 0.5006(4) 0.1302(2) 0.11232(17)
C1 C 0.7296(4) 0.0194(2) 0.10479(16)
C2 C 0.8184(4) -0.0007(3) 0.05755(17)
H1 H 0.8991 -0.0435 0.0630
C3 C 0.7641(4) 0.0539(2) 0.00279(17)
H2 H 0.8032 0.0565 -0.0357
C4 C 0.6395(4) 0.1058(2) 0.01359(15)
C5 C 0.5429(4) 0.1694(2) -0.02616(15)
C6 C 0.4207(4) 0.2082(2) -0.00508(14)
C7 C 0.2998(4) 0.2603(2) -0.03848(16)
H3 H 0.2864 0.2818 -0.0821
C8 C 0.2052(4) 0.2740(2) 0.00411(16)
H4 H 0.1162 0.3065 -0.0050
C9 C 0.2678(4) 0.2298(2) 0.06399(15)
C10 C 0.8996(4) -0.1001(3) 0.19478(15)
C11 C 1.0340(5) -0.0596(3) 0.1967(2)
H5 H 1.0459 0.0121 0.1906
C12 C 1.1519(5) -0.1246(6) 0.2076(3)
H6 H 1.2436 -0.0974 0.2090
C13 C 1.1321(8) -0.2297(7) 0.2164(3)
H7 H 1.2113 -0.2740 0.2235
C14 C 0.9998(8) -0.2705(4) 0.2151(2)
H8 H 0.9883 -0.3422 0.2211
C15 C 0.8815(5) -0.2050(3) 0.20453(16)
H9 H 0.7901 -0.2323 0.2041
C16 C 0.0596(3) 0.3170(2) 0.12063(15)
C17 C 0.0889(4) 0.4225(3) 0.11935(18)
H10 H 0.1834 0.4455 0.1270
C18 C -0.0215(4) 0.4950(3) 0.10675(19)
H11 H -0.0011 0.5663 0.1044
C19 C -0.1597(4) 0.4617(3) 0.09791(19)
H12 H -0.2337 0.5104 0.0896
C20 C -0.1906(4) 0.3577(3) 0.10110(19)
H13 H -0.2855 0.3356 0.0960
C21 C -0.0808(4) 0.2848(3) 0.11189(17)
H14 H -0.1022 0.2135 0.1132
C22 C 0.5478(3) 0.3272(2) -0.12009(14)
C23 C 0.4995(4) 0.3567(3) -0.18388(15)
H15 H 0.4787 0.3059 -0.2165
C24 C 0.4820(4) 0.4618(3) -0.19934(18)
H16 H 0.4513 0.4818 -0.2427
C25 C 0.5092(4) 0.5363(3) -0.1519(2)
H17 H 0.4952 0.6069 -0.1627
C26 C 0.5569(4) 0.5078(3) -0.08848(19)
H18 H 0.5739 0.5589 -0.0560
C27 C 0.5801(4) 0.4037(3) -0.07245(16)
H19 H 0.6176 0.3847 -0.0296
loop_
_geom_bond_atom_site_label_1
_geom_bond_atom_site_label_2
_geom_bond_site_symmetry_1
_geom_bond_site_symmetry_2
S1 C1 1_555 1_555
S2 C9 1_555 1_555
S3 C5 1_555 1_555
F1 B1 1_555 1_555
F2 B1 1_555 1_555
N1 B1 1_555 1_555
N2 B1 1_555 1_555
C1 N1 1_555 1_555
C2 C1 1_555 1_555
H1 C2 1_555 1_555
C3 C2 1_555 1_555
H2 C3 1_555 1_555
C4 N1 1_555 1_555
C5 C4 1_555 1_555
C6 N2 1_555 1_555
C7 C6 1_555 1_555
H3 C7 1_555 1_555
C8 C7 1_555 1_555
H4 C8 1_555 1_555
C9 N2 1_555 1_555
C10 S1 1_555 1_555
C11 C10 1_555 1_555
H5 C11 1_555 1_555
C12 C11 1_555 1_555
H6 C12 1_555 1_555
C13 C12 1_555 1_555
H7 C13 1_555 1_555
C14 C13 1_555 1_555
H8 C14 1_555 1_555
C15 C10 1_555 1_555
H9 C15 1_555 1_555
C16 S2 1_555 1_555
C17 C16 1_555 1_555
H10 C17 1_555 1_555
C18 C17 1_555 1_555
H11 C18 1_555 1_555
C19 C18 1_555 1_555
H12 C19 1_555 1_555
C20 C19 1_555 1_555
H13 C20 1_555 1_555
C21 C16 1_555 1_555
H14 C21 1_555 1_555
C22 S3 1_555 1_555
C23 C22 1_555 1_555
H15 C23 1_555 1_555
C24 C23 1_555 1_555
H16 C24 1_555 1_555
C25 C24 1_555 1_555
H17 C25 1_555 1_555
C26 C25 1_555 1_555
H18 C26 1_555 1_555
C27 C22 1_555 1_555
H19 C27 1_555 1_555
C3 C4 1_555 1_555
C5 C6 1_555 1_555
C8 C9 1_555 1_555
C14 C15 1_555 1_555
C20 C21 1_555 1_555
C26 C27 1_555 1_555

#END
