
#######################################################################
#
#                 Cambridge Crystallographic Data Centre
#                                CCDC 
#
#######################################################################
#
# If this CIF has been generated from an entry in the Cambridge 
# Structural Database, then it will include bibliographic, chemical, 
# crystal, experimental, refinement or atomic coordinate data resulting 
# from the CCDC's data processing and validation procedures.
#
#######################################################################

data_KOVHAE01
_chemical_name_common            2-(Dinitromethylene)-1,3-diazacyclopentane
_chemical_formula_moiety         'C4 H6 N4 O4'
_chemical_name_systematic        2-(Dinitromethylidene)imidazolidine
_symmetry_cell_setting           monoclinic
_symmetry_space_group_name_H-M   'C 2/c'
_symmetry_Int_Tables_number      15
_space_group_name_Hall           '-C 2yn'
loop_
_symmetry_equiv_pos_site_id
_symmetry_equiv_pos_as_xyz
1 x,y,z
2 1/2+x,1/2+y,z
3 -x,y,1/2-z
4 1/2-x,1/2+y,1/2-z
5 -x,-y,-z
6 1/2-x,1/2-y,-z
7 x,-y,1/2+z
8 1/2+x,1/2-y,1/2+z
_cell_length_a                   21.707(9)
_cell_length_b                   8.572(3)
_cell_length_c                   7.431(3)
_cell_angle_alpha                90.00
_cell_angle_beta                 98.776(12)
_cell_angle_gamma                90.00
_cell_volume                     1366.52
_exptl_crystal_colour            'bright yellow'
_cell_formula_units_Z            8
_exptl_crystal_preparation       explosive
loop_
_atom_site_label
_atom_site_type_symbol
_atom_site_fract_x
_atom_site_fract_y
_atom_site_fract_z
N1 N 0.31076(8) 0.3682(2) 0.1848(3)
N2 N 0.33123(9) 0.7060(2) 0.1710(3)
N3 N 0.41976(9) 0.6749(2) 0.0750(3)
O1 O 0.30182(9) 0.22819(19) 0.1775(3)
C1 C 0.37138(9) 0.6017(2) 0.1266(3)
N4 N 0.41178(9) 0.3355(2) 0.0934(3)
O2 O 0.27206(8) 0.4556(2) 0.2367(3)
C2 C 0.36460(9) 0.4359(2) 0.1337(3)
O3 O 0.45477(8) 0.39269(18) 0.0255(3)
O4 O 0.41149(9) 0.1966(2) 0.1225(3)
C3 C 0.35054(12) 0.8663(3) 0.1411(5)
C4 C 0.41553(12) 0.8437(3) 0.0944(5)
H1 H 0.3243(12) 0.911(3) 0.041(4)
H2 H 0.4506(11) 0.629(3) 0.043(3)
H3 H 0.4457(13) 0.885(3) 0.194(4)
H4 H 0.3480(11) 0.932(3) 0.245(3)
H5 H 0.4266(14) 0.901(3) -0.006(4)
H6 H 0.2973(13) 0.689(3) 0.207(3)
loop_
_geom_bond_atom_site_label_1
_geom_bond_atom_site_label_2
_geom_bond_site_symmetry_1
_geom_bond_site_symmetry_2
N1 O1 1_555 1_555
N2 C1 1_555 1_555
N3 C1 1_555 1_555
C1 C2 1_555 1_555
N4 C2 1_555 1_555
O2 N1 1_555 1_555
C2 N1 1_555 1_555
O3 N4 1_555 1_555
O4 N4 1_555 1_555
C3 N2 1_555 1_555
C4 N3 1_555 1_555
H1 C3 1_555 1_555
H2 N3 1_555 1_555
H3 C4 1_555 1_555
H4 C3 1_555 1_555
H5 C4 1_555 1_555
H6 N2 1_555 1_555
C3 C4 1_555 1_555

#END
