
#######################################################################
#
#                 Cambridge Crystallographic Data Centre
#                                CCDC 
#
#######################################################################
#
# If this CIF has been generated from an entry in the Cambridge 
# Structural Database, then it will include bibliographic, chemical, 
# crystal, experimental, refinement or atomic coordinate data resulting 
# from the CCDC's data processing and validation procedures.
#
#######################################################################

data_KOVKUD
_chemical_formula_moiety         '2(C19 H18 N1 1+),C12 H8 O8 S2 2-,2(C3 H8 O1)'
_chemical_name_systematic        
"bis(triphenylmethanaminium) 4,4'-dihydroxybiphenyl-3,3'-disulfonate propan-1-ol solvate"
_symmetry_cell_setting           monoclinic
_symmetry_space_group_name_H-M   'C 2/c'
_symmetry_Int_Tables_number      15
_space_group_name_Hall           '-C 2yn'
loop_
_symmetry_equiv_pos_site_id
_symmetry_equiv_pos_as_xyz
1 x,y,z
2 -x,y,1/2-z
3 1/2+x,1/2+y,z
4 1/2-x,1/2+y,1/2-z
5 -x,-y,-z
6 x,-y,1/2+z
7 1/2-x,1/2-y,-z
8 1/2+x,1/2-y,1/2+z
_cell_length_a                   25.2368(15)
_cell_length_b                   7.9675(4)
_cell_length_c                   28.3845(16)
_cell_angle_alpha                90
_cell_angle_beta                 111.958(7)
_cell_angle_gamma                90
_cell_volume                     5293.37
_exptl_crystal_colour            colorless
_exptl_crystal_description       prism
_cell_formula_units_Z            4
loop_
_atom_site_label
_atom_site_type_symbol
_atom_site_fract_x
_atom_site_fract_y
_atom_site_fract_z
S1 S 0.30415(2) 0.19396(9) 0.20291(2)
O1 O 0.28663(16) 0.0168(5) 0.19624(15)
O2 O 0.31547(12) 0.2399(5) 0.25549(11)
O3 O 0.26525(13) 0.3027(6) 0.16688(14)
O4 O 0.31880(9) 0.2510(4) 0.10137(7)
H1 H 0.2937(14) 0.246(6) 0.1143(16)
C1 C 0.36871(10) 0.2128(3) 0.19251(9)
C2 C 0.36743(11) 0.2399(4) 0.14374(10)
C3 C 0.41922(13) 0.2570(5) 0.13750(12)
H2 H 0.4194 0.2725 0.1051
C4 C 0.47009(12) 0.2513(5) 0.17849(11)
H3 H 0.5040 0.2653 0.1732
C5 C 0.47244(10) 0.2251(3) 0.22776(9)
C6 C 0.42021(10) 0.2042(3) 0.23354(9)
H4 H 0.4200 0.1839 0.2658
S1A S 0.69585(2) 0.19396(9) 0.29709(2)
O1A O 0.71337(16) 0.0168(5) 0.30376(15)
O2A O 0.68453(12) 0.2399(5) 0.24451(11)
O3A O 0.73475(13) 0.3027(6) 0.33312(14)
O4A O 0.68120(9) 0.2510(4) 0.39863(7)
H1A H 0.7063(14) 0.246(6) 0.3857(16)
C1A C 0.63129(10) 0.2128(3) 0.30749(9)
C2A C 0.63257(11) 0.2399(4) 0.35626(10)
C3A C 0.58078(13) 0.2570(5) 0.36250(12)
H2A H 0.5806 0.2725 0.3949
C4A C 0.52991(12) 0.2513(5) 0.32151(11)
H3A H 0.4960 0.2653 0.3268
C5A C 0.52756(10) 0.2251(3) 0.27224(9)
C6A C 0.57979(10) 0.2042(3) 0.26646(9)
H4A H 0.5800 0.1839 0.2342
O8 O 0.24363(15) 0.7887(4) 0.12265(13)
H5 H 0.252(2) 0.874(4) 0.1422(17)
C7 C 0.2966(4) 0.7315(14) 0.1251(4)
H6 H 0.2984 0.6108 0.1298
H7 H 0.3262 0.7812 0.1544
C8 C 0.3081(5) 0.773(2) 0.0785(5)
H8 H 0.2802 0.7149 0.0499
H9 H 0.3022 0.8926 0.0721
C9 C 0.3663(4) 0.7294(10) 0.0805(3)
H10 H 0.3932 0.8113 0.1006
H11 H 0.3664 0.7283 0.0467
H12 H 0.3768 0.6205 0.0956
N1 N 0.18753(9) 0.5554(3) 0.16039(8)
H20 H 0.2117(11) 0.474(2) 0.1682(10)
H21 H 0.2000(12) 0.632(2) 0.1458(10)
H22 H 0.1872(13) 0.597(3) 0.1883(7)
C12 C 0.12997(10) 0.4860(3) 0.12604(9)
C13 C 0.10728(11) 0.3799(4) 0.15959(10)
C14 C 0.05066(13) 0.3894(4) 0.15508(14)
H23 H 0.0254 0.4591 0.1307
C15 C 0.03147(18) 0.2957(5) 0.1867(2)
H24 H -0.0065 0.3045 0.1834
C16 C 0.06734(19) 0.1907(6) 0.22242(16)
H25 H 0.0541 0.1291 0.2436
C17 C 0.12297(17) 0.1768(6) 0.22679(14)
H26 H 0.1476 0.1042 0.2507
C18 C 0.14269(14) 0.2705(5) 0.19584(12)
H27 H 0.1807 0.2602 0.1993
C19 C 0.09032(12) 0.6345(3) 0.10285(11)
C20 C 0.09132(13) 0.7800(4) 0.12895(12)
H28 H 0.1195 0.7956 0.1610
C21 C 0.05059(15) 0.9047(4) 0.10801(14)
H29 H 0.0519 1.0017 0.1266
C22 C 0.00945(17) 0.8886(5) 0.06157(16)
H30 H -0.0175 0.9729 0.0481
C23 C 0.0081(2) 0.7484(6) 0.03516(19)
H31 H -0.0203 0.7356 0.0031
C24 C 0.04822(18) 0.6216(5) 0.05453(16)
H32 H 0.0469 0.5270 0.0349
C25 C 0.14218(11) 0.3818(3) 0.08553(9)
C26 C 0.13403(13) 0.2115(4) 0.08054(10)
H33 H 0.1194 0.1556 0.1018
C27 C 0.14709(15) 0.1210(4) 0.04476(12)
H34 H 0.1408 0.0058 0.0420
C28 C 0.16919(15) 0.2001(5) 0.01330(12)
H35 H 0.1781 0.1394 -0.0107
C29 C 0.17789(18) 0.3697(5) 0.01779(12)
H36 H 0.1932 0.4245 -0.0032
C30 C 0.16420(16) 0.4605(4) 0.05314(11)
H37 H 0.1698 0.5761 0.0553
O5? O 0.2634(3) 0.1216(10) 0.1550(3)
O6? O 0.3148(2) 0.0910(10) 0.2430(2)
O7? O 0.2874(3) 0.3687(11) 0.2054(3)
C10? C 0.2762(4) 0.7903(14) 0.0886(4)
H13? H 0.2753 0.9019 0.0747
H14? H 0.2588 0.7132 0.0606
C11? C 0.3367(5) 0.7393(19) 0.1179(4)
H15? H 0.3378 0.6312 0.1339
H16? H 0.3554 0.8213 0.1441
H17? H 0.3440 0.6617 0.0520
H18? H 0.4034 0.6799 0.0968
H19? H 0.3703 0.8403 0.0690
loop_
_geom_bond_atom_site_label_1
_geom_bond_atom_site_label_2
_geom_bond_site_symmetry_1
_geom_bond_site_symmetry_2
S1 O1 1_555 1_555
O2 S1 1_555 1_555
O3 S1 1_555 1_555
O4 H1 1_555 1_555
C1 S1 1_555 1_555
C2 O4 1_555 1_555
C3 C2 1_555 1_555
H2 C3 1_555 1_555
C4 C3 1_555 1_555
H3 C4 1_555 1_555
C5 C4 1_555 1_555
C6 C1 1_555 1_555
H4 C6 1_555 1_555
O8 H5 1_555 1_555
C7 O8 1_555 1_555
H6 C7 1_555 1_555
H7 C7 1_555 1_555
C8 C7 1_555 1_555
H8 C8 1_555 1_555
H9 C8 1_555 1_555
C9 C8 1_555 1_555
H10 C9 1_555 1_555
H11 C9 1_555 1_555
H12 C9 1_555 1_555
N1 H20 1_555 1_555
H21 N1 1_555 1_555
H22 N1 1_555 1_555
C12 N1 1_555 1_555
C13 C12 1_555 1_555
C14 C13 1_555 1_555
H23 C14 1_555 1_555
C15 C14 1_555 1_555
H24 C15 1_555 1_555
C16 C15 1_555 1_555
H25 C16 1_555 1_555
C17 C16 1_555 1_555
H26 C17 1_555 1_555
C18 C13 1_555 1_555
H27 C18 1_555 1_555
C19 C12 1_555 1_555
C20 C19 1_555 1_555
H28 C20 1_555 1_555
C21 C20 1_555 1_555
H29 C21 1_555 1_555
C22 C21 1_555 1_555
H30 C22 1_555 1_555
C23 C22 1_555 1_555
H31 C23 1_555 1_555
C24 C19 1_555 1_555
H32 C24 1_555 1_555
C25 C12 1_555 1_555
C26 C25 1_555 1_555
H33 C26 1_555 1_555
C27 C26 1_555 1_555
H34 C27 1_555 1_555
C28 C27 1_555 1_555
H35 C28 1_555 1_555
C29 C28 1_555 1_555
H36 C29 1_555 1_555
C30 C25 1_555 1_555
H37 C30 1_555 1_555
S1A O1A 1_555 1_555
O2A S1A 1_555 1_555
O3A S1A 1_555 1_555
O4A H1A 1_555 1_555
C1A S1A 1_555 1_555
C2A O4A 1_555 1_555
C3A C2A 1_555 1_555
H2A C3A 1_555 1_555
C4A C3A 1_555 1_555
H3A C4A 1_555 1_555
C5A C5 1_555 1_555
C6A C1A 1_555 1_555
H4A C6A 1_555 1_555
C1 C2 1_555 1_555
C5 C6 1_555 1_555
C17 C18 1_555 1_555
C23 C24 1_555 1_555
C29 C30 1_555 1_555
C1A C2A 1_555 1_555
C4A C5A 1_555 1_555
C5A C6A 1_555 1_555

#END
