
#######################################################################
#
#                 Cambridge Crystallographic Data Centre
#                                CCDC 
#
#######################################################################
#
# If this CIF has been generated from an entry in the Cambridge 
# Structural Database, then it will include bibliographic, chemical, 
# crystal, experimental, refinement or atomic coordinate data resulting 
# from the CCDC's data processing and validation procedures.
#
#######################################################################

data_KOVLAK
_chemical_formula_moiety         '2(C19 H18 N1 1+),C12 H8 O8 S2 2-,2(C4 H10 O1)'
_chemical_name_systematic        
"bis(triphenylmethanaminium) 4,4'-dihydroxybiphenyl-3,3'-disulfonate butan-1-ol solvate"
_symmetry_cell_setting           monoclinic
_symmetry_space_group_name_H-M   'C 2'
_symmetry_Int_Tables_number      5
_space_group_name_Hall           'C 2y'
loop_
_symmetry_equiv_pos_site_id
_symmetry_equiv_pos_as_xyz
1 x,y,z
2 -x,y,-z
3 1/2+x,1/2+y,z
4 1/2-x,1/2+y,-z
_cell_length_a                   25.3691(12)
_cell_length_b                   8.0242(5)
_cell_length_c                   15.2135(7)
_cell_angle_alpha                90
_cell_angle_beta                 119.171(3)
_cell_angle_gamma                90
_cell_volume                     2704.17
_exptl_crystal_colour            colorless
_exptl_crystal_description       prism
_cell_formula_units_Z            2
loop_
_atom_site_label
_atom_site_type_symbol
_atom_site_fract_x
_atom_site_fract_y
_atom_site_fract_z
S1 S 0.64688(4) 0.37527(17) 0.90459(8)
O1 O 0.6885(2) 0.4197(9) 1.0104(4)
O2 O 0.6572(3) 0.2065(10) 0.8898(6)
O3 O 0.6496(3) 0.4885(11) 0.8339(6)
O4 O 0.53096(15) 0.4418(7) 0.7044(2)
H1 H 0.5678(12) 0.470(11) 0.733(5)
C1 C 0.57256(17) 0.3981(6) 0.8849(3)
C2 C 0.5246(2) 0.4299(7) 0.7877(3)
C3 C 0.4678(2) 0.4492(10) 0.7778(4)
H2 H 0.4351 0.4674 0.7140
C4 C 0.45809(19) 0.4426(8) 0.8582(3)
H3 H 0.4191 0.4573 0.8479
C5 C 0.50550(17) 0.4141(5) 0.9566(3)
C6 C 0.56243(17) 0.3901(7) 0.9667(3)
H4 H 0.5948 0.3679 1.0301
S1A S 0.35312(4) 0.37527(17) 1.09541(8)
O1A O 0.3115(2) 0.4197(9) 0.9896(4)
O2A O 0.3428(3) 0.2065(10) 1.1102(6)
O3A O 0.3504(3) 0.4885(11) 1.1661(6)
O4A O 0.46904(15) 0.4418(7) 1.2956(2)
H1A H 0.4322(12) 0.470(11) 1.267(5)
C1A C 0.42744(17) 0.3981(6) 1.1151(3)
C2A C 0.4754(2) 0.4299(7) 1.2123(3)
C3A C 0.5322(2) 0.4492(10) 1.2222(4)
H2A H 0.5649 0.4674 1.2860
C4A C 0.54191(19) 0.4426(8) 1.1418(3)
H3A H 0.5809 0.4573 1.1521
C5A C 0.49450(17) 0.4141(5) 1.0434(3)
C6A C 0.43757(17) 0.3901(7) 1.0333(3)
H4A H 0.4052 0.3679 0.9699
N1 N 0.72592(17) 0.7305(6) 0.8267(3)
H5 H 0.7119(18) 0.654(5) 0.849(3)
H6 H 0.7002(15) 0.808(4) 0.799(4)
H7 H 0.7579(13) 0.771(5) 0.876(2)
C7 C 0.74842(19) 0.6560(6) 0.7589(3)
C8 C 0.8028(2) 0.5489(7) 0.8257(3)
C9 C 0.8576(2) 0.5634(8) 0.8251(5)
H8 H 0.8608 0.6365 0.7805
C10 C 0.9073(3) 0.4689(10) 0.8910(6)
H9 H 0.9438 0.4831 0.8915
C11 C 0.9037(3) 0.3575(10) 0.9541(5)
H10 H 0.9370 0.2925 0.9957
C12 C 0.8502(3) 0.3400(9) 0.9566(4)
H11 H 0.8479 0.2672 1.0022
C13 C 0.8004(2) 0.4317(9) 0.8908(4)
H12 H 0.7639 0.4144 0.8901
C14 C 0.7655(2) 0.8012(7) 0.7111(4)
C15 C 0.7861(2) 0.9527(8) 0.7569(4)
H13 H 0.7864 0.9756 0.8171
C16 C 0.8065(2) 1.0719(8) 0.7149(5)
H14 H 0.8211 1.1724 0.7486
C17 C 0.8059(3) 1.0473(10) 0.6267(5)
H15 H 0.8190 1.1294 0.5987
C18 C 0.7851(3) 0.8957(11) 0.5795(5)
H16 H 0.7837 0.8758 0.5182
C19 C 0.7665(3) 0.7744(9) 0.6212(4)
H17 H 0.7542 0.6719 0.5891
C20 C 0.6942(2) 0.5575(7) 0.6765(3)
C21 C 0.6422(3) 0.6407(9) 0.6146(5)
H18 H 0.6399 0.7555 0.6204
C22 C 0.5920(3) 0.5517(11) 0.5422(5)
H19 H 0.5569 0.6091 0.4995
C23 C 0.5938(3) 0.3883(12) 0.5334(4)
H20 H 0.5599 0.3306 0.4866
C24 C 0.6465(3) 0.3045(10) 0.5944(5)
H21 H 0.6489 0.1899 0.5878
C25 C 0.6962(2) 0.3918(8) 0.6657(4)
H22 H 0.7316 0.3344 0.7069
O8 O 0.6333(2) 0.9666(7) 0.7495(4)
H23 H 0.6482 1.0458 0.7879
C26 C 0.5839(6) 0.905(2) 0.7576(13)
H24 H 0.5909 0.9287 0.8250
H25 H 0.5834 0.7843 0.7509
C27 C 0.5231(5) 0.9679(15) 0.6850(9)
H26 H 0.5147 0.9377 0.6176
H27 H 0.5238 1.0886 0.6888
C28 C 0.4725(6) 0.906(4) 0.7000(18)
H28 H 0.4704 0.7858 0.6935
H29 H 0.4811 0.9332 0.7679
C29 C 0.4128(6) 0.978(2) 0.6275(11)
H30 H 0.3822 0.9316 0.6404
H31 H 0.4036 0.9506 0.5601
H32 H 0.4139 1.0964 0.6354
O5? O 0.6761(4) 0.2637(15) 0.9829(7)
O6? O 0.6395(5) 0.2998(17) 0.8101(10)
O7? O 0.6677(5) 0.5405(18) 0.9129(9)
H33? H 0.6437 1.0375 0.7937
C30? C 0.5787(7) 0.996(3) 0.6804(16)
H34? H 0.5737 0.9341 0.6220
H35? H 0.5780 1.1127 0.6637
H36? H 0.5219 1.0553 0.7281
H37? H 0.5293 0.8646 0.7219
C31? C 0.4607(5) 0.958(4) 0.5984(13)
H38? H 0.4556 0.8506 0.5655
H39? H 0.4556 1.0436 0.5501
H40? H 0.3738 0.9691 0.5686
H41? H 0.4167 1.0846 0.6583
H42? H 0.4169 0.8916 0.6744
loop_
_geom_bond_atom_site_label_1
_geom_bond_atom_site_label_2
_geom_bond_site_symmetry_1
_geom_bond_site_symmetry_2
S1 O1 1_555 1_555
O2 S1 1_555 1_555
O3 S1 1_555 1_555
O4 H1 1_555 1_555
C1 S1 1_555 1_555
C2 O4 1_555 1_555
C3 C2 1_555 1_555
H2 C3 1_555 1_555
C4 C3 1_555 1_555
H3 C4 1_555 1_555
C5 C4 1_555 1_555
C6 C1 1_555 1_555
H4 C6 1_555 1_555
N1 H5 1_555 1_555
H6 N1 1_555 1_555
H7 N1 1_555 1_555
C7 N1 1_555 1_555
C8 C7 1_555 1_555
C9 C8 1_555 1_555
H8 C9 1_555 1_555
C10 C9 1_555 1_555
H9 C10 1_555 1_555
C11 C10 1_555 1_555
H10 C11 1_555 1_555
C12 C11 1_555 1_555
H11 C12 1_555 1_555
C13 C8 1_555 1_555
H12 C13 1_555 1_555
C14 C7 1_555 1_555
C15 C14 1_555 1_555
H13 C15 1_555 1_555
C16 C15 1_555 1_555
H14 C16 1_555 1_555
C17 C16 1_555 1_555
H15 C17 1_555 1_555
C18 C17 1_555 1_555
H16 C18 1_555 1_555
C19 C14 1_555 1_555
H17 C19 1_555 1_555
C20 C7 1_555 1_555
C21 C20 1_555 1_555
H18 C21 1_555 1_555
C22 C21 1_555 1_555
H19 C22 1_555 1_555
C23 C22 1_555 1_555
H20 C23 1_555 1_555
C24 C23 1_555 1_555
H21 C24 1_555 1_555
C25 C20 1_555 1_555
H22 C25 1_555 1_555
O8 H23 1_555 1_555
C26 O8 1_555 1_555
H24 C26 1_555 1_555
H25 C26 1_555 1_555
C27 C26 1_555 1_555
H26 C27 1_555 1_555
H27 C27 1_555 1_555
C28 C27 1_555 1_555
H28 C28 1_555 1_555
H29 C28 1_555 1_555
C29 C28 1_555 1_555
H30 C29 1_555 1_555
H31 C29 1_555 1_555
H32 C29 1_555 1_555
S1A O1A 1_555 1_555
O2A S1A 1_555 1_555
O3A S1A 1_555 1_555
O4A H1A 1_555 1_555
C1A S1A 1_555 1_555
C2A O4A 1_555 1_555
C3A C2A 1_555 1_555
H2A C3A 1_555 1_555
C4A C3A 1_555 1_555
H3A C4A 1_555 1_555
C5A C5 1_555 1_555
C6A C1A 1_555 1_555
H4A C6A 1_555 1_555
C1 C2 1_555 1_555
C5 C6 1_555 1_555
C12 C13 1_555 1_555
C18 C19 1_555 1_555
C24 C25 1_555 1_555
C1A C2A 1_555 1_555
C4A C5A 1_555 1_555
C5A C6A 1_555 1_555

#END
