
#######################################################################
#
#                 Cambridge Crystallographic Data Centre
#                                CCDC 
#
#######################################################################
#
# If this CIF has been generated from an entry in the Cambridge 
# Structural Database, then it will include bibliographic, chemical, 
# crystal, experimental, refinement or atomic coordinate data resulting 
# from the CCDC's data processing and validation procedures.
#
#######################################################################

data_KOVNUG
_chemical_formula_moiety         
'C38 H34 N10 4+,2(C12 H8 O6 S2 2-),C3 H7 N1 O1,6(H2 O1)'
_chemical_name_systematic        
"6,12,25,31,42,47-hexaaza-3,15,22,34-tetraazonianonacyclo[34.2.2.2^17,20^.1^3,6^.1^7,11^.1^12,15^.1^22,25^.1^26,30^.1^31,34^]octatetraconta-1(38),3(48),4,7(47),8,10,13,15(46),17,19,22(43),23,26(42),27,29,32,34(41),36,39,44-icosaene bis(biphenyl-4,4'-disulfonate) N,N-dimethylformamide solvate hexahydrate"
_symmetry_cell_setting           triclinic
_symmetry_space_group_name_H-M   'P -1'
_symmetry_Int_Tables_number      2
_space_group_name_Hall           '-P 1'
loop_
_symmetry_equiv_pos_site_id
_symmetry_equiv_pos_as_xyz
1 x,y,z
2 -x,-y,-z
_cell_length_a                   13.900(3)
_cell_length_b                   16.237(3)
_cell_length_c                   16.444(3)
_cell_angle_alpha                79.98(3)
_cell_angle_beta                 66.84(3)
_cell_angle_gamma                73.12(3)
_cell_volume                     3257.66
_exptl_crystal_colour            colorless
_exptl_crystal_description       Prism
_cell_formula_units_Z            2
loop_
_atom_site_label
_atom_site_type_symbol
_atom_site_fract_x
_atom_site_fract_y
_atom_site_fract_z
S1 S 1.22485(12) -0.55665(10) 0.33716(10)
S2 S 0.75806(12) 0.09155(10) 0.45759(11)
O1 O 1.1947(3) -0.5852(3) 0.4307(3)
O2 O 1.3412(3) -0.5609(3) 0.2935(3)
O3 O 1.1836(3) -0.5975(3) 0.2898(3)
O4 O 0.7973(3) 0.1190(3) 0.5173(3)
O5 O 0.7763(4) 0.1452(3) 0.3745(3)
O6 O 0.6468(3) 0.0843(3) 0.5010(3)
C1 C 1.1570(5) -0.4454(4) 0.3372(4)
C2 C 1.2082(5) -0.3782(4) 0.3262(4)
H1 H 1.2823 -0.3917 0.3126
C3 C 1.1503(4) -0.2936(4) 0.3352(4)
H2 H 1.1864 -0.2507 0.3258
C4 C 1.0364(5) -0.2706(4) 0.3586(4)
C5 C 0.9857(5) -0.3381(4) 0.3678(4)
H3 H 0.9115 -0.3250 0.3817
C6 C 1.0447(5) -0.4228(4) 0.3563(4)
H4 H 1.0099 -0.4655 0.3613
C7 C 0.9713(4) -0.1808(4) 0.3774(4)
C8 C 1.0057(5) -0.1223(4) 0.4067(4)
H5 H 1.0738 -0.1389 0.4105
C9 C 0.9419(5) -0.0409(4) 0.4299(4)
H6 H 0.9685 -0.0035 0.4475
C10 C 0.8385(5) -0.0140(4) 0.4274(4)
C11 C 0.8014(5) -0.0711(4) 0.3981(4)
H7 H 0.7324 -0.0544 0.3962
C12 C 0.8661(5) -0.1513(4) 0.3722(4)
H8 H 0.8410 -0.1870 0.3510
S3 S 1.11938(12) -0.41945(10) 0.81948(10)
S4 S 0.61235(14) 0.21624(11) 0.91852(11)
O7 O 1.1091(4) -0.4708(3) 0.9029(3)
O8 O 1.2272(3) -0.4024(3) 0.7747(3)
O9 O 1.0846(3) -0.4546(3) 0.7623(3)
O10 O 0.6185(4) 0.2468(3) 0.8290(3)
O11 O 0.6572(4) 0.2664(3) 0.9545(3)
O12 O 0.5037(4) 0.2095(3) 0.9786(3)
C13 C 1.0286(5) -0.3176(4) 0.8477(4)
C14 C 0.9309(5) -0.2934(4) 0.8332(4)
H9 H 0.9121 -0.3319 0.8097
C15 C 0.8626(5) -0.2129(4) 0.8535(4)
H10 H 0.7969 -0.1989 0.8456
C16 C 0.8898(5) -0.1509(4) 0.8861(4)
C17 C 0.9872(6) -0.1769(5) 0.9017(5)
H11 H 1.0065 -0.1385 0.9247
C18 C 1.0543(6) -0.2577(4) 0.8836(5)
H12 H 1.1178 -0.2731 0.8952
C19 C 0.8218(5) -0.0618(5) 0.8975(4)
C20 C 0.7108(6) -0.0453(5) 0.9371(5)
H13 H 0.6782 -0.0911 0.9595
C21 C 0.6464(6) 0.0395(5) 0.9441(5)
H14 H 0.5717 0.0493 0.9702
C22 C 0.6941(5) 0.1094(4) 0.9121(4)
C23 C 0.8066(5) 0.0925(4) 0.8714(4)
H15 H 0.8393 0.1382 0.8484
C24 C 0.8696(6) 0.0092(4) 0.8648(5)
H16 H 0.9443 -0.0005 0.8387
N1 N 1.5545(4) -0.4677(3) 0.1488(3)
N2 N 1.4588(4) -0.5233(3) 0.1065(3)
N3 N 1.2838(4) -0.4665(3) 0.1073(3)
N4 N 1.1128(4) -0.3991(3) 0.1055(3)
N5 N 0.9543(4) -0.3125(3) 0.1225(3)
N6 N 0.5930(4) -0.2009(3) 0.5533(3)
N7 N 0.6841(4) -0.1508(3) 0.6043(3)
N8 N 0.8580(4) -0.2124(3) 0.6039(3)
N9 N 1.0318(4) -0.2828(3) 0.5969(3)
N10 N 1.1902(4) -0.3683(3) 0.5722(3)
C25 C 1.4588(5) -0.4540(4) 0.1412(4)
H17 H 1.4021 -0.4052 0.1572
C26 C 1.6167(5) -0.5477(4) 0.1191(4)
H18 H 1.6864 -0.5729 0.1181
C27 C 1.5581(5) -0.5828(4) 0.0917(4)
H19 H 1.5799 -0.6360 0.0679
C28 C 1.3668(5) -0.5352(4) 0.0926(4)
C29 C 1.3725(5) -0.6130(4) 0.0657(4)
H20 H 1.4324 -0.6593 0.0589
C30 C 1.2824(5) -0.6182(4) 0.0493(4)
H21 H 1.2817 -0.6687 0.0304
C31 C 1.1958(5) -0.5482(4) 0.0613(4)
H22 H 1.1363 -0.5498 0.0494
C32 C 1.1989(5) -0.4745(4) 0.0918(4)
C33 C 1.0109(5) -0.3929(4) 0.1087(4)
H23 H 0.9859 -0.4378 0.1022
C34 C 1.1161(5) -0.3180(4) 0.1189(4)
H24 H 1.1756 -0.3036 0.1202
C35 C 1.0177(5) -0.2631(4) 0.1300(4)
H25 H 0.9968 -0.2048 0.1404
C36 C 0.8380(5) -0.2806(5) 0.1357(4)
H26 H 0.8179 -0.3190 0.1095
H27 H 0.8259 -0.2239 0.1055
C37 C 0.7668(5) -0.2755(4) 0.2335(4)
C38 C 0.6871(5) -0.2005(4) 0.2640(4)
H28 H 0.6781 -0.1531 0.2244
C39 C 0.6210(5) -0.1962(5) 0.3531(5)
H29 H 0.5681 -0.1459 0.3724
C40 C 0.6329(5) -0.2660(4) 0.4142(4)
C41 C 0.7130(5) -0.3405(4) 0.3831(4)
H30 H 0.7226 -0.3874 0.4230
C42 C 0.7784(5) -0.3462(4) 0.2947(4)
H31 H 0.8302 -0.3969 0.2756
C43 C 0.5632(5) -0.2607(4) 0.5120(4)
H32 H 0.4878 -0.2399 0.5188
H33 H 0.5731 -0.3177 0.5421
C44 C 0.6835(5) -0.2198(4) 0.5694(4)
H34 H 0.7367 -0.2712 0.5586
C45 C 0.5323(5) -0.1193(4) 0.5786(4)
H35 H 0.4659 -0.0915 0.5738
C46 C 0.5888(5) -0.0873(4) 0.6118(4)
H36 H 0.5681 -0.0338 0.6349
C47 C 0.7740(5) -0.1442(4) 0.6249(4)
C48 C 0.7679(5) -0.0710(4) 0.6611(4)
H37 H 0.7061 -0.0260 0.6752
C49 C 0.8600(5) -0.0686(4) 0.6750(4)
H38 H 0.8613 -0.0205 0.6977
C50 C 0.9491(5) -0.1380(4) 0.6550(4)
H39 H 1.0109 -0.1379 0.6643
C51 C 0.9431(5) -0.2087(4) 0.6200(4)
C52 C 1.1299(5) -0.2919(4) 0.5999(4)
H40 H 1.1514 -0.2514 0.6183
C53 C 1.0319(5) -0.3576(4) 0.5658(4)
H41 H 0.9743 -0.3685 0.5577
C54 C 1.1313(5) -0.4114(4) 0.5496(4)
H42 H 1.1554 -0.4659 0.5279
C55 C 1.3046(4) -0.4025(4) 0.5648(4)
H43 H 1.3140 -0.4603 0.5932
H44 H 1.3223 -0.3664 0.5954
C56 C 1.3802(4) -0.4047(4) 0.4692(4)
C57 C 1.4315(5) -0.4829(4) 0.4286(4)
H45 H 1.4200 -0.5341 0.4617
C58 C 1.4985(5) -0.4858(4) 0.3410(4)
H46 H 1.5312 -0.5385 0.3155
C59 C 1.5179(4) -0.4091(4) 0.2899(4)
C60 C 1.4683(5) -0.3311(4) 0.3306(4)
H47 H 1.4801 -0.2799 0.2977
C61 C 1.4019(5) -0.3290(4) 0.4189(4)
H48 H 1.3712 -0.2766 0.4451
C62 C 1.5842(5) -0.4100(4) 0.1915(4)
H49 H 1.5718 -0.3520 0.1641
H50 H 1.6603 -0.4300 0.1826
N11 N 0.7831(4) 0.0583(4) 0.1322(4)
O13 O 0.9115(5) -0.0694(4) 0.0988(4)
C63 C 0.8700(6) 0.0059(5) 0.0803(5)
H51 H 0.9035 0.0286 0.0234
C64 C 0.7236(7) 0.0298(6) 0.2214(5)
H52 H 0.7584 -0.0286 0.2342
H53 H 0.6514 0.0326 0.2269
H54 H 0.7213 0.0664 0.2624
C65 C 0.7416(6) 0.1450(5) 0.1022(5)
H55 H 0.7872 0.1569 0.0424
H56 H 0.7399 0.1848 0.1399
H57 H 0.6698 0.1511 0.1043
O14 O 0.6711(4) 0.1211(3) 0.7078(3)
O15 O 0.6294(5) 0.8030(4) 0.0998(4)
O16 O 0.4410(4) 0.1426(3) 0.1628(3)
O17 O 0.5050(4) 0.9588(3) 0.2068(4)
O18 O 0.6519(4) 0.2758(3) 0.2932(3)
O19 O 0.4738(4) 0.2710(3) 0.2424(3)
loop_
_geom_bond_atom_site_label_1
_geom_bond_atom_site_label_2
_geom_bond_site_symmetry_1
_geom_bond_site_symmetry_2
S1 O1 1_555 1_555
S2 O4 1_555 1_555
O2 S1 1_555 1_555
O3 S1 1_555 1_555
O5 S2 1_555 1_555
O6 S2 1_555 1_555
C1 S1 1_555 1_555
C2 C1 1_555 1_555
H1 C2 1_555 1_555
C3 C2 1_555 1_555
H2 C3 1_555 1_555
C4 C3 1_555 1_555
C5 C4 1_555 1_555
H3 C5 1_555 1_555
C6 C1 1_555 1_555
H4 C6 1_555 1_555
C7 C4 1_555 1_555
C8 C7 1_555 1_555
H5 C8 1_555 1_555
C9 C8 1_555 1_555
H6 C9 1_555 1_555
C10 S2 1_555 1_555
C11 C10 1_555 1_555
H7 C11 1_555 1_555
C12 C7 1_555 1_555
H8 C12 1_555 1_555
S3 O7 1_555 1_555
S4 O10 1_555 1_555
O8 S3 1_555 1_555
O9 S3 1_555 1_555
O11 S4 1_555 1_555
O12 S4 1_555 1_555
C13 S3 1_555 1_555
C14 C13 1_555 1_555
H9 C14 1_555 1_555
C15 C14 1_555 1_555
H10 C15 1_555 1_555
C16 C15 1_555 1_555
C17 C16 1_555 1_555
H11 C17 1_555 1_555
C18 C13 1_555 1_555
H12 C18 1_555 1_555
C19 C16 1_555 1_555
C20 C19 1_555 1_555
H13 C20 1_555 1_555
C21 C20 1_555 1_555
H14 C21 1_555 1_555
C22 S4 1_555 1_555
C23 C22 1_555 1_555
H15 C23 1_555 1_555
C24 C19 1_555 1_555
H16 C24 1_555 1_555
N1 C25 1_555 1_555
N2 C25 1_555 1_555
N3 C28 1_555 1_555
N4 C32 1_555 1_555
N5 C33 1_555 1_555
N6 C43 1_555 1_555
N7 C44 1_555 1_555
N8 C47 1_555 1_555
N9 C51 1_555 1_555
N10 C52 1_555 1_555
C25 H17 1_555 1_555
C26 N1 1_555 1_555
H18 C26 1_555 1_555
C27 N2 1_555 1_555
H19 C27 1_555 1_555
C28 N2 1_555 1_555
C29 C28 1_555 1_555
H20 C29 1_555 1_555
C30 C29 1_555 1_555
H21 C30 1_555 1_555
C31 C30 1_555 1_555
H22 C31 1_555 1_555
C32 N3 1_555 1_555
C33 N4 1_555 1_555
H23 C33 1_555 1_555
C34 N4 1_555 1_555
H24 C34 1_555 1_555
C35 N5 1_555 1_555
H25 C35 1_555 1_555
C36 N5 1_555 1_555
H26 C36 1_555 1_555
H27 C36 1_555 1_555
C37 C36 1_555 1_555
C38 C37 1_555 1_555
H28 C38 1_555 1_555
C39 C38 1_555 1_555
H29 C39 1_555 1_555
C40 C39 1_555 1_555
C41 C40 1_555 1_555
H30 C41 1_555 1_555
C42 C37 1_555 1_555
H31 C42 1_555 1_555
C43 C40 1_555 1_555
H32 C43 1_555 1_555
H33 C43 1_555 1_555
C44 N6 1_555 1_555
H34 C44 1_555 1_555
C45 N6 1_555 1_555
H35 C45 1_555 1_555
C46 N7 1_555 1_555
H36 C46 1_555 1_555
C47 N7 1_555 1_555
C48 C47 1_555 1_555
H37 C48 1_555 1_555
C49 C48 1_555 1_555
H38 C49 1_555 1_555
C50 C49 1_555 1_555
H39 C50 1_555 1_555
C51 N8 1_555 1_555
C52 N9 1_555 1_555
H40 C52 1_555 1_555
C53 N9 1_555 1_555
H41 C53 1_555 1_555
C54 N10 1_555 1_555
H42 C54 1_555 1_555
C55 N10 1_555 1_555
H43 C55 1_555 1_555
H44 C55 1_555 1_555
C56 C55 1_555 1_555
C57 C56 1_555 1_555
H45 C57 1_555 1_555
C58 C57 1_555 1_555
H46 C58 1_555 1_555
C59 C58 1_555 1_555
C60 C59 1_555 1_555
H47 C60 1_555 1_555
C61 C56 1_555 1_555
H48 C61 1_555 1_555
C62 N1 1_555 1_555
H49 C62 1_555 1_555
H50 C62 1_555 1_555
N11 C63 1_555 1_555
O13 C63 1_555 1_555
C63 H51 1_555 1_555
C64 N11 1_555 1_555
H52 C64 1_555 1_555
H53 C64 1_555 1_555
H54 C64 1_555 1_555
C65 N11 1_555 1_555
H55 C65 1_555 1_555
H56 C65 1_555 1_555
H57 C65 1_555 1_555
C5 C6 1_555 1_555
C9 C10 1_555 1_555
C11 C12 1_555 1_555
C17 C18 1_555 1_555
C21 C22 1_555 1_555
C23 C24 1_555 1_555
C26 C27 1_555 1_555
C31 C32 1_555 1_555
C34 C35 1_555 1_555
C41 C42 1_555 1_555
C45 C46 1_555 1_555
C50 C51 1_555 1_555
C53 C54 1_555 1_555
C59 C62 1_555 1_555
C60 C61 1_555 1_555

#END
