
#######################################################################
#
#                 Cambridge Crystallographic Data Centre
#                                CCDC 
#
#######################################################################
#
# If this CIF has been generated from an entry in the Cambridge 
# Structural Database, then it will include bibliographic, chemical, 
# crystal, experimental, refinement or atomic coordinate data resulting 
# from the CCDC's data processing and validation procedures.
#
#######################################################################

data_KOVPOC
_chemical_formula_moiety         'C38 H34 N10 4+,2(C10 H6 O6 S2 2-),14(H2 O1)'
_chemical_name_systematic        
'6,12,25,31,42,47-hexaaza-3,15,22,34-tetraazonianonacyclo[34.2.2.2^17,20^.1^3,6^.1^7,11^.1^12,15^.1^22,25^.1^26,30^.1^31,34^]octatetraconta-1(38),3(48),4,7(47),8,10,13,15(46),17,19,22(43),23,26(42),27,29,32,34(41),36,39,44-icosaene bis(naphthalene-1,5-disulfonate) tetradecahydrate'
_symmetry_cell_setting           triclinic
_symmetry_space_group_name_H-M   'P -1'
_symmetry_Int_Tables_number      2
_space_group_name_Hall           '-P 1'
loop_
_symmetry_equiv_pos_site_id
_symmetry_equiv_pos_as_xyz
1 x,y,z
2 -x,-y,-z
_cell_length_a                   10.5682(10)
_cell_length_b                   12.4098(10)
_cell_length_c                   13.8043(16)
_cell_angle_alpha                70.117(2)
_cell_angle_beta                 82.636(3)
_cell_angle_gamma                85.850(2)
_cell_volume                     1687.66
_exptl_crystal_colour            colorless
_exptl_crystal_description       plate
_cell_formula_units_Z            1
loop_
_atom_site_label
_atom_site_type_symbol
_atom_site_fract_x
_atom_site_fract_y
_atom_site_fract_z
S1 S 0.31006(12) -0.20798(11) 0.48742(9)
C1 C 0.5649(5) -0.1723(4) 0.4475(3)
H1 H 0.5691 -0.2411 0.4313
C2 C 0.4499(4) -0.1324(4) 0.4806(3)
C3 C 0.4442(4) -0.0312(4) 0.5050(3)
C4 C 0.3242(5) 0.0151(4) 0.5413(3)
H2 H 0.2474 -0.0239 0.5496
C5 C 0.3216(5) 0.1131(5) 0.5632(4)
H3 H 0.2426 0.1429 0.5862
O1 O 0.2317(4) -0.1290(3) 0.4150(3)
O2 O 0.3548(4) -0.3062(3) 0.4576(3)
O3 O 0.2503(3) -0.2399(3) 0.5916(3)
S1A S 0.68994(12) 0.20798(11) 0.51258(9)
C1A C 0.4351(5) 0.1723(4) 0.5525(3)
H1A H 0.4309 0.2411 0.5687
C2A C 0.5501(4) 0.1324(4) 0.5194(3)
C3A C 0.5558(4) 0.0312(4) 0.4950(3)
C4A C 0.6758(5) -0.0151(4) 0.4587(3)
H2A H 0.7526 0.0239 0.4504
C5A C 0.6784(5) -0.1131(5) 0.4368(4)
H3A H 0.7574 -0.1429 0.4138
O1A O 0.7683(4) 0.1290(3) 0.5850(3)
O2A O 0.6452(4) 0.3062(3) 0.5424(3)
O3A O 0.7497(3) 0.2399(3) 0.4084(3)
S2 S 0.77394(12) 0.41706(12) -0.12102(11)
C6 C 0.6692(4) 0.4974(4) -0.0588(3)
C7 C 0.5409(4) 0.4640(3) -0.0215(3)
C8 C 0.4910(4) 0.3614(4) -0.0247(3)
H4 H 0.5449 0.3117 -0.0523
C9 C 0.3674(4) 0.3340(4) 0.0109(3)
H5 H 0.3359 0.2656 0.0078
C10 C 0.2867(4) 0.4051(4) 0.0519(3)
H6 H 0.2001 0.3856 0.0753
O4 O 0.8939(4) 0.4729(5) -0.1455(4)
O5 O 0.7172(4) 0.4255(3) -0.2132(3)
O6 O 0.7804(3) 0.3020(3) -0.0500(3)
S2A S 0.22606(12) 0.58294(12) 0.12102(11)
C6A C 0.3308(4) 0.5026(4) 0.0588(3)
C7A C 0.4591(4) 0.5360(3) 0.0215(3)
C8A C 0.5090(4) 0.6386(4) 0.0247(3)
H4A H 0.4551 0.6883 0.0523
C9A C 0.6326(4) 0.6660(4) -0.0109(3)
H5A H 0.6641 0.7344 -0.0078
C10A C 0.7133(4) 0.5949(4) -0.0519(3)
H6A H 0.7999 0.6144 -0.0753
O4A O 0.1061(4) 0.5271(5) 0.1455(4)
O5A O 0.2828(4) 0.5745(3) 0.2132(3)
O6A O 0.2196(3) 0.6980(3) 0.0500(3)
N1 N 0.7528(3) 0.4946(3) 0.2082(3)
N2 N 0.6785(3) 0.3379(3) 0.2070(2)
N3 N 0.4726(3) 0.2712(3) 0.2538(2)
N4 N 0.2635(3) 0.2169(3) 0.3040(2)
N5 N 0.1102(3) 0.3017(3) 0.3716(3)
C11 C 0.7598(4) 0.6101(4) 0.2136(3)
H7 H 0.6732 0.6466 0.2108
H8 H 0.8147 0.6567 0.1521
C12 C 0.6481(4) 0.4358(4) 0.2254(3)
H9 H 0.5650 0.4594 0.2472
C13 C 0.8532(4) 0.4312(4) 0.1790(3)
H10 H 0.9399 0.4525 0.1627
C14 C 0.8074(4) 0.3348(4) 0.1779(3)
H11 H 0.8550 0.2749 0.1602
C15 C 0.5913(4) 0.2507(4) 0.2192(3)
C16 C 0.6322(4) 0.1534(4) 0.1954(3)
H12 H 0.7187 0.1421 0.1710
C17 C 0.5426(5) 0.0742(4) 0.2085(3)
H13 H 0.5666 0.0061 0.1930
C18 C 0.4181(4) 0.0919(4) 0.2438(3)
H14 H 0.3547 0.0377 0.2530
C19 C 0.3894(4) 0.1916(3) 0.2654(3)
C20 C 0.2315(4) 0.3061(4) 0.3365(3)
H15 H 0.2877 0.3635 0.3344
C21 C 0.1558(4) 0.1552(4) 0.3191(4)
H16 H 0.1499 0.0873 0.3030
C22 C 0.0605(4) 0.2084(4) 0.3607(4)
H17 H -0.0256 0.1856 0.3791
C23 C 0.0398(4) 0.3842(4) 0.4152(3)
H18 H -0.0514 0.3644 0.4322
H19 H 0.0452 0.4620 0.3628
C24 C 0.0926(4) 0.3844(3) 0.5118(3)
C25 C 0.0385(4) 0.3188(4) 0.6091(3)
H20 H -0.0313 0.2718 0.6153
C26 C 0.0859(4) 0.3214(4) 0.6975(3)
H21 H 0.0477 0.2768 0.7639
C27 C 0.1882(4) 0.3882(4) 0.6897(3)
C28 C 0.2437(4) 0.4523(4) 0.5928(3)
H22 H 0.3154 0.4971 0.5868
C29 C 0.1953(4) 0.4515(4) 0.5047(3)
H23 H 0.2327 0.4973 0.4384
N1A N 0.2472(3) 0.5054(3) 0.7918(3)
N2A N 0.3215(3) 0.6621(3) 0.7930(2)
N3A N 0.5274(3) 0.7288(3) 0.7462(2)
N4A N 0.7365(3) 0.7831(3) 0.6960(2)
N5A N 0.8898(3) 0.6983(3) 0.6284(3)
C11A C 0.2402(4) 0.3899(4) 0.7864(3)
H7A H 0.3268 0.3534 0.7892
H8A H 0.1853 0.3433 0.8479
C12A C 0.3519(4) 0.5642(4) 0.7746(3)
H9A H 0.4350 0.5406 0.7528
C13A C 0.1468(4) 0.5688(4) 0.8210(3)
H10A H 0.0601 0.5475 0.8373
C14A C 0.1926(4) 0.6652(4) 0.8221(3)
H11A H 0.1450 0.7251 0.8398
C15A C 0.4087(4) 0.7493(4) 0.7808(3)
C16A C 0.3678(4) 0.8466(4) 0.8046(3)
H12A H 0.2813 0.8579 0.8290
C17A C 0.4574(5) 0.9258(4) 0.7915(3)
H13A H 0.4334 0.9939 0.8070
C18A C 0.5819(4) 0.9081(4) 0.7562(3)
H14A H 0.6453 0.9623 0.7470
C19A C 0.6106(4) 0.8084(3) 0.7346(3)
C20A C 0.7685(4) 0.6939(4) 0.6635(3)
H15A H 0.7123 0.6365 0.6656
C21A C 0.8442(4) 0.8448(4) 0.6809(4)
H16A H 0.8501 0.9127 0.6970
C22A C 0.9395(4) 0.7916(4) 0.6393(4)
H17A H 1.0256 0.8144 0.6209
C23A C 0.9602(4) 0.6158(4) 0.5848(3)
H18A H 1.0514 0.6356 0.5678
H19A H 0.9548 0.5380 0.6372
C24A C 0.9074(4) 0.6156(3) 0.4882(3)
C25A C 0.9615(4) 0.6812(4) 0.3909(3)
H20A H 1.0313 0.7282 0.3847
C26A C 0.9141(4) 0.6786(4) 0.3025(3)
H21A H 0.9523 0.7232 0.2361
C27A C 0.8118(4) 0.6118(4) 0.3103(3)
C28A C 0.7563(4) 0.5477(4) 0.4072(3)
H22A H 0.6846 0.5029 0.4132
C29A C 0.8047(4) 0.5485(4) 0.4953(3)
H23A H 0.7673 0.5027 0.5616
O7 O 0.7842(3) -0.0870(3) 0.0826(3)
O8 O 0.7022(3) 0.1050(3) -0.0692(3)
O9 O 0.9259(3) 0.0424(3) 0.1653(3)
O10 O 0.5380(4) -0.1585(3) 0.1431(3)
O11 O 0.4632(4) -0.3598(5) 0.2947(3)
O12 O 0.1438(4) -0.0708(3) 0.2334(3)
O13 O 1.0426(4) 0.2184(4) 0.0045(3)
loop_
_geom_bond_atom_site_label_1
_geom_bond_atom_site_label_2
_geom_bond_site_symmetry_1
_geom_bond_site_symmetry_2
S1 C2 1_555 1_555
C1 H1 1_555 1_555
C2 C1 1_555 1_555
C3 C2 1_555 1_555
C4 C3 1_555 1_555
H2 C4 1_555 1_555
C5 C4 1_555 1_555
H3 C5 1_555 1_555
O1 S1 1_555 1_555
O2 S1 1_555 1_555
O3 S1 1_555 1_555
S2 C6 1_555 1_555
C6 C7 1_555 1_555
C7 C8 1_555 1_555
C8 H4 1_555 1_555
C9 C8 1_555 1_555
H5 C9 1_555 1_555
C10 C9 1_555 1_555
H6 C10 1_555 1_555
O4 S2 1_555 1_555
O5 S2 1_555 1_555
O6 S2 1_555 1_555
N1 C11 1_555 1_555
N2 C12 1_555 1_555
N3 C15 1_555 1_555
N4 C19 1_555 1_555
N5 C20 1_555 1_555
C11 H7 1_555 1_555
H8 C11 1_555 1_555
C12 N1 1_555 1_555
H9 C12 1_555 1_555
C13 N1 1_555 1_555
H10 C13 1_555 1_555
C14 N2 1_555 1_555
H11 C14 1_555 1_555
C15 N2 1_555 1_555
C16 C15 1_555 1_555
H12 C16 1_555 1_555
C17 C16 1_555 1_555
H13 C17 1_555 1_555
C18 C17 1_555 1_555
H14 C18 1_555 1_555
C19 N3 1_555 1_555
C20 N4 1_555 1_555
H15 C20 1_555 1_555
C21 N4 1_555 1_555
H16 C21 1_555 1_555
C22 N5 1_555 1_555
H17 C22 1_555 1_555
C23 N5 1_555 1_555
H18 C23 1_555 1_555
H19 C23 1_555 1_555
C24 C23 1_555 1_555
C25 C24 1_555 1_555
H20 C25 1_555 1_555
C26 C25 1_555 1_555
H21 C26 1_555 1_555
C27 C26 1_555 1_555
C28 C27 1_555 1_555
H22 C28 1_555 1_555
C29 C24 1_555 1_555
H23 C29 1_555 1_555
S1A C2A 1_555 1_555
C1A C5 1_555 1_555
H1A C1A 1_555 1_555
C2A C1A 1_555 1_555
C3A C3 1_555 1_555
C4A C3A 1_555 1_555
H2A C4A 1_555 1_555
C5A C1 1_555 1_555
H3A C5A 1_555 1_555
O1A S1A 1_555 1_555
O2A S1A 1_555 1_555
O3A S1A 1_555 1_555
S2A C6A 1_555 1_555
C6A C10 1_555 1_555
C7A C7 1_555 1_555
C8A C7A 1_555 1_555
H4A C8A 1_555 1_555
C9A C8A 1_555 1_555
H5A C9A 1_555 1_555
C10A C6 1_555 1_555
H6A C10A 1_555 1_555
O4A S2A 1_555 1_555
O5A S2A 1_555 1_555
O6A S2A 1_555 1_555
N1A C11A 1_555 1_555
N2A C12A 1_555 1_555
N3A C15A 1_555 1_555
N4A C19A 1_555 1_555
N5A C20A 1_555 1_555
C11A C27 1_555 1_555
H7A C11A 1_555 1_555
H8A C11A 1_555 1_555
C12A N1A 1_555 1_555
H9A C12A 1_555 1_555
C13A N1A 1_555 1_555
H10A C13A 1_555 1_555
C14A N2A 1_555 1_555
H11A C14A 1_555 1_555
C15A N2A 1_555 1_555
C16A C15A 1_555 1_555
H12A C16A 1_555 1_555
C17A C16A 1_555 1_555
H13A C17A 1_555 1_555
C18A C17A 1_555 1_555
H14A C18A 1_555 1_555
C19A N3A 1_555 1_555
C20A N4A 1_555 1_555
H15A C20A 1_555 1_555
C21A N4A 1_555 1_555
H16A C21A 1_555 1_555
C22A N5A 1_555 1_555
H17A C22A 1_555 1_555
C23A N5A 1_555 1_555
H18A C23A 1_555 1_555
H19A C23A 1_555 1_555
C24A C23A 1_555 1_555
C25A C24A 1_555 1_555
H20A C25A 1_555 1_555
C26A C25A 1_555 1_555
H21A C26A 1_555 1_555
C27A C11 1_555 1_555
C28A C27A 1_555 1_555
H22A C28A 1_555 1_555
C29A C24A 1_555 1_555
H23A C29A 1_555 1_555
C13 C14 1_555 1_555
C18 C19 1_555 1_555
C21 C22 1_555 1_555
C28 C29 1_555 1_555
C2A C3A 1_555 1_555
C4A C5A 1_555 1_555
C6A C7A 1_555 1_555
C9A C10A 1_555 1_555
C13A C14A 1_555 1_555
C18A C19A 1_555 1_555
C21A C22A 1_555 1_555
C26A C27A 1_555 1_555
C28A C29A 1_555 1_555

#END
