
#######################################################################
#
#                 Cambridge Crystallographic Data Centre
#                                CCDC 
#
#######################################################################
#
# If this CIF has been generated from an entry in the Cambridge 
# Structural Database, then it will include bibliographic, chemical, 
# crystal, experimental, refinement or atomic coordinate data resulting 
# from the CCDC's data processing and validation procedures.
#
#######################################################################

data_KOVPUI
_chemical_formula_moiety         'C38 H34 N10 4+,2(C10 H6 O6 S2 2-),7.5(H2 O1)'
_chemical_name_systematic        
'6,15,25,34,42,47-hexaaza-3,12,22,31-tetraazonianonacyclo[34.2.2.2^17,20^.1^3,6^.1^7,11^.1^12,15^.1^22,25^.1^26,30^.1^31,34^]octatetraconta-1(38),3(48),4,7(47),8,10,12(46),13,17,19,22(43),23,26(42),27,29,31(41),32,36,39,44-icosaene bis(naphthalene-2,6-disulfonate) hydrate'
_symmetry_cell_setting           triclinic
_symmetry_space_group_name_H-M   'P -1'
_symmetry_Int_Tables_number      2
_space_group_name_Hall           '-P 1'
loop_
_symmetry_equiv_pos_site_id
_symmetry_equiv_pos_as_xyz
1 x,y,z
2 -x,-y,-z
_cell_length_a                   12.2027(15)
_cell_length_b                   13.5862(16)
_cell_length_c                   19.851(2)
_cell_angle_alpha                72.658(3)
_cell_angle_beta                 78.079(3)
_cell_angle_gamma                72.902(3)
_cell_volume                     2977
_exptl_crystal_colour            colorless
_exptl_crystal_description       Prism
_cell_formula_units_Z            2
loop_
_atom_site_label
_atom_site_type_symbol
_atom_site_fract_x
_atom_site_fract_y
_atom_site_fract_z
N1 N 0.2493(5) 0.8810(4) -0.1045(3)
N2 N 0.4310(5) 0.8061(4) -0.1044(3)
N3 N 0.6154(5) 0.7020(4) -0.1208(3)
N4 N 0.7926(4) 0.5878(4) -0.1425(3)
N5 N 0.9275(4) 0.4561(4) -0.1656(3)
C1 C 0.1316(5) 0.9412(6) -0.0829(4)
H1 H 0.0859 0.9632 -0.1219
H2 H 0.1356 1.0045 -0.0715
C2 C 0.3434(6) 0.8749(5) -0.0777(4)
H3 H 0.3470 0.9119 -0.0460
C3 C 0.2782(6) 0.8122(6) -0.1476(4)
H4 H 0.2284 0.7999 -0.1721
C4 C 0.3902(6) 0.7668(6) -0.1478(4)
H5 H 0.4336 0.7171 -0.1729
C5 C 0.5475(6) 0.7771(6) -0.0908(4)
C6 C 0.5846(6) 0.8255(6) -0.0511(4)
H6 H 0.5337 0.8785 -0.0312
C7 C 0.6993(6) 0.7928(6) -0.0417(4)
H7 H 0.7275 0.8232 -0.0147
C8 C 0.7732(6) 0.7140(6) -0.0728(4)
H8 H 0.8515 0.6913 -0.0679
C9 C 0.7268(6) 0.6711(6) -0.1107(4)
C10 C 0.8965(5) 0.5244(5) -0.1266(4)
H9 H 0.9385 0.5285 -0.0938
C11 C 0.7587(6) 0.5575(6) -0.1922(4)
H10 H 0.6904 0.5882 -0.2125
C12 C 0.8422(6) 0.4749(6) -0.2064(4)
H11 H 0.8426 0.4369 -0.2384
C13 C 1.0281(5) 0.3650(5) -0.1594(4)
H12 H 1.0932 0.3851 -0.1512
H13 H 1.0491 0.3425 -0.2034
C14 C 1.0004(5) 0.2746(5) -0.0984(4)
C15 C 1.0299(5) 0.2615(5) -0.0329(4)
H14 H 1.0762 0.3017 -0.0279
C16 C 0.9916(6) 0.1891(6) 0.0259(4)
H15 H 1.0110 0.1820 0.0703
C17 C 0.9249(5) 0.1273(5) 0.0191(4)
C18 C 0.8999(6) 0.1382(6) -0.0483(4)
H16 H 0.8565 0.0959 -0.0539
C19 C 0.9374(5) 0.2098(5) -0.1064(4)
H17 H 0.9207 0.2150 -0.1512
N1A N 0.7507(5) 0.1190(4) 0.1045(3)
N2A N 0.5690(5) 0.1939(4) 0.1044(3)
N3A N 0.3846(5) 0.2980(4) 0.1208(3)
N4A N 0.2074(4) 0.4122(4) 0.1425(3)
N5A N 0.0725(4) 0.5439(4) 0.1656(3)
C1A C 0.8684(5) 0.0588(6) 0.0829(4)
H1A H 0.9141 0.0368 0.1219
H2A H 0.8644 -0.0045 0.0715
C2A C 0.6566(6) 0.1251(5) 0.0777(4)
H3A H 0.6530 0.0881 0.0460
C3A C 0.7218(6) 0.1878(6) 0.1476(4)
H4A H 0.7716 0.2001 0.1721
C4A C 0.6098(6) 0.2332(6) 0.1478(4)
H5A H 0.5664 0.2829 0.1729
C5A C 0.4525(6) 0.2229(6) 0.0908(4)
C6A C 0.4154(6) 0.1745(6) 0.0511(4)
H6A H 0.4663 0.1215 0.0312
C7A C 0.3007(6) 0.2072(6) 0.0417(4)
H7A H 0.2725 0.1768 0.0147
C8A C 0.2268(6) 0.2860(6) 0.0728(4)
H8A H 0.1485 0.3087 0.0679
C9A C 0.2732(6) 0.3289(6) 0.1107(4)
C10A C 0.1035(5) 0.4756(5) 0.1266(4)
H9A H 0.0615 0.4715 0.0938
C11A C 0.2413(6) 0.4425(6) 0.1922(4)
H10A H 0.3096 0.4118 0.2125
C12A C 0.1578(6) 0.5251(6) 0.2064(4)
H11A H 0.1574 0.5631 0.2384
C13A C -0.0281(5) 0.6350(5) 0.1594(4)
H12A H -0.0932 0.6149 0.1512
H13A H -0.0491 0.6575 0.2034
C14A C -0.0004(5) 0.7254(5) 0.0984(4)
C15A C -0.0299(5) 0.7385(5) 0.0329(4)
H14A H -0.0762 0.6983 0.0279
C16A C 0.0084(6) 0.8109(6) -0.0259(4)
H15A H -0.0110 0.8180 -0.0703
C17A C 0.0751(5) 0.8727(5) -0.0191(4)
C18A C 0.1001(6) 0.8618(6) 0.0483(4)
H16A H 0.1435 0.9041 0.0539
C19A C 0.0626(5) 0.7902(5) 0.1064(4)
H17A H 0.0793 0.7850 0.1512
N6 N 0.9362(5) 0.4318(5) 0.3321(3)
N7 N 0.8023(5) 0.5672(5) 0.3512(3)
N8 N 0.6262(6) 0.6834(5) 0.3678(3)
N9 N 0.4409(5) 0.7918(5) 0.3827(3)
N10 N 0.2622(5) 0.8721(5) 0.3808(3)
C20 C 1.0345(6) 0.3379(6) 0.3430(4)
H18 H 1.1010 0.3574 0.3499
H19 H 1.0552 0.3089 0.3016
C21 C 0.9062(6) 0.5034(6) 0.3678(4)
H20 H 0.9488 0.5098 0.3994
C22 C 0.8523(7) 0.4466(7) 0.2913(4)
H21 H 0.8527 0.4055 0.2612
C23 C 0.7690(7) 0.5323(6) 0.3030(4)
H22 H 0.7013 0.5622 0.2820
C24 C 0.7369(7) 0.6482(6) 0.3822(4)
C25 C 0.7795(7) 0.6877(6) 0.4251(4)
H23 H 0.8568 0.6640 0.4324
C26 C 0.7045(7) 0.7626(6) 0.4561(4)
H24 H 0.7302 0.7902 0.4858
C27 C 0.5915(7) 0.7978(6) 0.4439(5)
H25 H 0.5388 0.8475 0.4658
C28 C 0.5598(6) 0.7571(6) 0.3987(4)
C29 C 0.3557(7) 0.8649(6) 0.4076(4)
H26 H 0.3612 0.9034 0.4379
C30 C 0.4012(7) 0.7515(7) 0.3388(4)
H27 H 0.4428 0.7001 0.3148
C31 C 0.2873(7) 0.8040(7) 0.3388(4)
H28 H 0.2357 0.7946 0.3141
C32 C 0.1451(7) 0.9383(6) 0.4033(5)
H29 H 0.0972 0.9600 0.3655
H30 H 0.1537 1.0019 0.4122
C33 C 0.0879(6) 0.8747(6) 0.4700(4)
C34 C 0.0211(6) 0.8123(6) 0.4655(4)
H31 H 0.0042 0.8145 0.4214
C35 C -0.0214(6) 0.7460(6) 0.5263(4)
H32 H -0.0654 0.7028 0.5227
C36 C 0.0005(6) 0.7429(6) 0.5927(4)
C37 C 0.0644(6) 0.8097(6) 0.5969(4)
H33 H 0.0788 0.8100 0.6410
C38 C 0.1066(6) 0.8755(6) 0.5361(5)
H34 H 0.1481 0.9210 0.5395
N6A N 0.0638(5) 0.5682(5) 0.6679(3)
N7A N 0.1977(5) 0.4328(5) 0.6488(3)
N8A N 0.3738(6) 0.3166(5) 0.6322(3)
N9A N 0.5591(5) 0.2082(5) 0.6173(3)
N10A N 0.7378(5) 0.1279(5) 0.6192(3)
C20A C -0.0345(6) 0.6621(6) 0.6570(4)
H18A H -0.1010 0.6426 0.6501
H19A H -0.0552 0.6911 0.6984
C21A C 0.0938(6) 0.4966(6) 0.6322(4)
H20A H 0.0512 0.4902 0.6006
C22A C 0.1477(7) 0.5534(7) 0.7087(4)
H21A H 0.1473 0.5945 0.7388
C23A C 0.2310(7) 0.4677(6) 0.6970(4)
H22A H 0.2987 0.4378 0.7180
C24A C 0.2631(7) 0.3518(6) 0.6178(4)
C25A C 0.2205(7) 0.3123(6) 0.5749(4)
H23A H 0.1432 0.3360 0.5676
C26A C 0.2955(7) 0.2374(6) 0.5439(4)
H24A H 0.2698 0.2098 0.5142
C27A C 0.4085(7) 0.2022(6) 0.5561(5)
H25A H 0.4612 0.1525 0.5342
C28A C 0.4402(6) 0.2429(6) 0.6013(4)
C29A C 0.6443(7) 0.1351(6) 0.5924(4)
H26A H 0.6388 0.0966 0.5621
C30A C 0.5988(7) 0.2485(7) 0.6612(4)
H27A H 0.5572 0.2999 0.6852
C31A C 0.7127(7) 0.1960(7) 0.6612(4)
H28A H 0.7643 0.2054 0.6859
C32A C 0.8549(7) 0.0617(6) 0.5967(5)
H29A H 0.9028 0.0400 0.6345
H30A H 0.8463 -0.0019 0.5878
C33A C 0.9121(6) 0.1253(6) 0.5300(4)
C34A C 0.9789(6) 0.1877(6) 0.5345(4)
H31A H 0.9958 0.1855 0.5786
C35A C 1.0214(6) 0.2540(6) 0.4737(4)
H32A H 1.0654 0.2972 0.4773
C36A C 0.9995(6) 0.2571(6) 0.4073(4)
C37A C 0.9356(6) 0.1903(6) 0.4031(4)
H33A H 0.9212 0.1900 0.3590
C38A C 0.8934(6) 0.1245(6) 0.4639(5)
H34A H 0.8519 0.0790 0.4605
S1 S 0.78296(15) 0.49445(16) 0.09635(10)
O1 O 0.8889(4) 0.4934(4) 0.0481(3)
O2 O 0.7379(4) 0.5900(4) 0.1206(3)
O3 O 0.7925(4) 0.3989(4) 0.1555(3)
C39 C 0.6324(5) 0.4021(5) -0.0274(3)
H35 H 0.6545 0.3539 -0.0556
C40 C 0.7118(5) 0.4134(5) 0.0069(4)
H36 H 0.7876 0.3725 0.0028
C41 C 0.6790(5) 0.4867(5) 0.0482(4)
C42 C 0.5687(5) 0.5475(5) 0.0561(3)
H37 H 0.5491 0.5954 0.0843
C43 C 0.4835(5) 0.5372(5) 0.0208(3)
S1A S 0.21704(15) 0.50555(16) -0.09635(10)
O1A O 0.1111(4) 0.5066(4) -0.0481(3)
O2A O 0.2621(4) 0.4100(4) -0.1206(3)
O3A O 0.2075(4) 0.6011(4) -0.1555(3)
C39A C 0.3676(5) 0.5979(5) 0.0274(3)
H35A H 0.3455 0.6461 0.0556
C40A C 0.2882(5) 0.5866(5) -0.0069(4)
H36A H 0.2124 0.6275 -0.0028
C41A C 0.3210(5) 0.5133(5) -0.0482(4)
C42A C 0.4313(5) 0.4525(5) -0.0561(3)
H37A H 0.4509 0.4046 -0.0843
C43A C 0.5165(5) 0.4628(5) -0.0208(3)
S2 S 0.21837(17) 0.50767(18) 0.40099(11)
O4 O 0.2596(5) 0.4090(5) 0.3808(4)
O5 O 0.2129(4) 0.5989(5) 0.3392(3)
O6 O 0.1095(4) 0.5177(5) 0.4474(3)
C44 C 0.3681(6) 0.5996(6) 0.5266(4)
H38 H 0.3456 0.6477 0.5548
C45 C 0.2899(6) 0.5891(6) 0.4901(4)
H39 H 0.2144 0.6309 0.4933
C46 C 0.3219(6) 0.5171(6) 0.4486(4)
C47 C 0.4319(6) 0.4550(6) 0.4425(4)
H40 H 0.4520 0.4068 0.4144
C48 C 0.5162(6) 0.4638(6) 0.4791(4)
S2A S 0.78163(17) 0.49233(18) 0.59901(11)
O4A O 0.7404(5) 0.5910(5) 0.6192(4)
O5A O 0.7871(4) 0.4011(5) 0.6608(3)
O6A O 0.8905(4) 0.4823(5) 0.5526(3)
C44A C 0.6319(6) 0.4004(6) 0.4734(4)
H38A H 0.6544 0.3523 0.4452
C45A C 0.7101(6) 0.4109(6) 0.5099(4)
H39A H 0.7856 0.3691 0.5067
C46A C 0.6781(6) 0.4829(6) 0.5514(4)
C47A C 0.5681(6) 0.5450(6) 0.5575(4)
H40A H 0.5480 0.5932 0.5856
C48A C 0.4838(6) 0.5362(6) 0.5209(4)
S3 S 0.18151(19) 0.00510(18) 0.67340(13)
S4 S 0.65501(18) 0.11982(18) 0.88218(12)
O7 O 0.0697(5) 0.0712(4) 0.6958(3)
O8 O 0.1887(5) -0.1071(4) 0.6997(4)
O9 O 0.2147(5) 0.0350(5) 0.5963(3)
O10 O 0.6576(5) 0.0418(4) 0.9504(3)
O11 O 0.7625(5) 0.1016(5) 0.8344(3)
O12 O 0.6147(4) 0.2263(4) 0.8888(3)
C49 C 0.2958(5) 0.0217(8) 0.7065(5)
C50 C 0.4081(6) -0.0378(7) 0.6926(5)
H41 H 0.4239 -0.0830 0.6628
C51 C 0.4967(5) -0.0296(6) 0.7232(4)
H42 H 0.5718 -0.0694 0.7138
C52 C 0.4730(5) 0.0380(7) 0.7677(5)
C53 C 0.3607(6) 0.0975(7) 0.7817(5)
C54 C 0.2721(4) 0.0893(6) 0.7510(4)
H43 H 0.1970 0.1291 0.7604
C55 C 0.5611(8) 0.0453(9) 0.8000(6)
H44 H 0.6359 0.0039 0.7921
C56 C 0.5378(8) 0.1132(11) 0.8432(8)
C57 C 0.4252(9) 0.1756(9) 0.8563(7)
H45 H 0.4099 0.2219 0.8853
C58 C 0.3372(8) 0.1677(8) 0.8257(6)
H46 H 0.2625 0.2088 0.8341
O13 O 0.4197(6) 0.6026(5) 0.2373(4)
O14 O -0.0013(5) 0.7143(4) 0.2986(3)
O15 O 0.5710(7) 0.4048(6) 0.2429(4)
O16 O 0.0096(4) 0.2752(4) 0.1965(3)
O17 O 0.9385(6) -0.0585(5) 0.7998(4)
O18 O 0.3824(7) -0.2431(6) 0.6357(5)
O19 O 0.3804(7) 0.0167(6) 0.4831(5)
O20 O 0.6060(10) -0.2043(9) 0.6209(7)
C59? C 0.2605(10) 0.0476(13) 0.7243(9)
C60? C 0.2112(8) 0.1218(11) 0.7643(8)
H47? H 0.1325 0.1543 0.7663
C61? C 0.2795(10) 0.1473(11) 0.8014(7)
H48? H 0.2465 0.1969 0.8281
C62? C 0.3971(10) 0.0986(13) 0.7984(9)
C63? C 0.4465(8) 0.0244(12) 0.7584(9)
C64? C 0.3782(11) -0.0011(11) 0.7214(8)
H49? H 0.4112 -0.0508 0.6946
C65? C 0.4657(15) 0.1235(17) 0.8374(11)
H50? H 0.4328 0.1724 0.8647
C66? C 0.5808(14) 0.0746(19) 0.8341(14)
C67? C 0.6310(12) -0.0011(14) 0.7960(10)
H51? H 0.7093 -0.0346 0.7953
C68? C 0.5626(12) -0.0265(13) 0.7588(9)
H52? H 0.5955 -0.0785 0.7338
loop_
_geom_bond_atom_site_label_1
_geom_bond_atom_site_label_2
_geom_bond_site_symmetry_1
_geom_bond_site_symmetry_2
N1 C1 1_555 1_555
N2 C2 1_555 1_555
N3 C5 1_555 1_555
N4 C9 1_555 1_555
N5 C10 1_555 1_555
C1 H1 1_555 1_555
H2 C1 1_555 1_555
C2 N1 1_555 1_555
H3 C2 1_555 1_555
C3 N1 1_555 1_555
H4 C3 1_555 1_555
C4 N2 1_555 1_555
H5 C4 1_555 1_555
C5 N2 1_555 1_555
C6 C5 1_555 1_555
H6 C6 1_555 1_555
C7 C6 1_555 1_555
H7 C7 1_555 1_555
C8 C7 1_555 1_555
H8 C8 1_555 1_555
C9 N3 1_555 1_555
C10 N4 1_555 1_555
H9 C10 1_555 1_555
C11 N4 1_555 1_555
H10 C11 1_555 1_555
C12 N5 1_555 1_555
H11 C12 1_555 1_555
C13 N5 1_555 1_555
H12 C13 1_555 1_555
H13 C13 1_555 1_555
C14 C13 1_555 1_555
C15 C14 1_555 1_555
H14 C15 1_555 1_555
C16 C15 1_555 1_555
H15 C16 1_555 1_555
C17 C16 1_555 1_555
C18 C17 1_555 1_555
H16 C18 1_555 1_555
C19 C14 1_555 1_555
H17 C19 1_555 1_555
N6 C20 1_555 1_555
N7 C21 1_555 1_555
N8 C24 1_555 1_555
N9 C28 1_555 1_555
N10 C29 1_555 1_555
C20 H18 1_555 1_555
H19 C20 1_555 1_555
C21 N6 1_555 1_555
H20 C21 1_555 1_555
C22 N6 1_555 1_555
H21 C22 1_555 1_555
C23 N7 1_555 1_555
H22 C23 1_555 1_555
C24 N7 1_555 1_555
C25 C24 1_555 1_555
H23 C25 1_555 1_555
C26 C25 1_555 1_555
H24 C26 1_555 1_555
C27 C26 1_555 1_555
H25 C27 1_555 1_555
C28 N8 1_555 1_555
C29 N9 1_555 1_555
H26 C29 1_555 1_555
C30 N9 1_555 1_555
H27 C30 1_555 1_555
C31 N10 1_555 1_555
H28 C31 1_555 1_555
C32 N10 1_555 1_555
H29 C32 1_555 1_555
H30 C32 1_555 1_555
C33 C32 1_555 1_555
C34 C33 1_555 1_555
H31 C34 1_555 1_555
C35 C34 1_555 1_555
H32 C35 1_555 1_555
C36 C35 1_555 1_555
C37 C36 1_555 1_555
H33 C37 1_555 1_555
C38 C33 1_555 1_555
H34 C38 1_555 1_555
S1 O1 1_555 1_555
O2 S1 1_555 1_555
O3 S1 1_555 1_555
C39 H35 1_555 1_555
C40 C39 1_555 1_555
H36 C40 1_555 1_555
C41 S1 1_555 1_555
C42 C41 1_555 1_555
H37 C42 1_555 1_555
C43 C42 1_555 1_555
S2 O4 1_555 1_555
O5 S2 1_555 1_555
O6 S2 1_555 1_555
C44 H38 1_555 1_555
C45 C44 1_555 1_555
H39 C45 1_555 1_555
C46 S2 1_555 1_555
C47 C46 1_555 1_555
H40 C47 1_555 1_555
C48 C47 1_555 1_555
S3 O7 1_555 1_555
S4 O10 1_555 1_555
O8 S3 1_555 1_555
O9 S3 1_555 1_555
O11 S4 1_555 1_555
O12 S4 1_555 1_555
C49 S3 1_555 1_555
C50 C49 1_555 1_555
H41 C50 1_555 1_555
C51 C50 1_555 1_555
H42 C51 1_555 1_555
C52 C51 1_555 1_555
C53 C52 1_555 1_555
C54 C49 1_555 1_555
H43 C54 1_555 1_555
C55 C52 1_555 1_555
H44 C55 1_555 1_555
C56 S4 1_555 1_555
C57 C56 1_555 1_555
H45 C57 1_555 1_555
C58 C53 1_555 1_555
H46 C58 1_555 1_555
N1A C1A 1_555 1_555
N2A C2A 1_555 1_555
N3A C5A 1_555 1_555
N4A C9A 1_555 1_555
N5A C10A 1_555 1_555
C1A C17 1_555 1_555
H1A C1A 1_555 1_555
H2A C1A 1_555 1_555
C2A N1A 1_555 1_555
H3A C2A 1_555 1_555
C3A N1A 1_555 1_555
H4A C3A 1_555 1_555
C4A N2A 1_555 1_555
H5A C4A 1_555 1_555
C5A N2A 1_555 1_555
C6A C5A 1_555 1_555
H6A C6A 1_555 1_555
C7A C6A 1_555 1_555
H7A C7A 1_555 1_555
C8A C7A 1_555 1_555
H8A C8A 1_555 1_555
C9A N3A 1_555 1_555
C10A N4A 1_555 1_555
H9A C10A 1_555 1_555
C11A N4A 1_555 1_555
H10A C11A 1_555 1_555
C12A N5A 1_555 1_555
H11A C12A 1_555 1_555
C13A N5A 1_555 1_555
H12A C13A 1_555 1_555
H13A C13A 1_555 1_555
C14A C13A 1_555 1_555
C15A C14A 1_555 1_555
H14A C15A 1_555 1_555
C16A C15A 1_555 1_555
H15A C16A 1_555 1_555
C17A C1 1_555 1_555
C18A C17A 1_555 1_555
H16A C18A 1_555 1_555
C19A C14A 1_555 1_555
H17A C19A 1_555 1_555
N6A C20A 1_555 1_555
N7A C21A 1_555 1_555
N8A C24A 1_555 1_555
N9A C28A 1_555 1_555
N10A C29A 1_555 1_555
C20A C36 1_555 1_555
H18A C20A 1_555 1_555
H19A C20A 1_555 1_555
C21A N6A 1_555 1_555
H20A C21A 1_555 1_555
C22A N6A 1_555 1_555
H21A C22A 1_555 1_555
C23A N7A 1_555 1_555
H22A C23A 1_555 1_555
C24A N7A 1_555 1_555
C25A C24A 1_555 1_555
H23A C25A 1_555 1_555
C26A C25A 1_555 1_555
H24A C26A 1_555 1_555
C27A C26A 1_555 1_555
H25A C27A 1_555 1_555
C28A N8A 1_555 1_555
C29A N9A 1_555 1_555
H26A C29A 1_555 1_555
C30A N9A 1_555 1_555
H27A C30A 1_555 1_555
C31A N10A 1_555 1_555
H28A C31A 1_555 1_555
C32A N10A 1_555 1_555
H29A C32A 1_555 1_555
H30A C32A 1_555 1_555
C33A C32A 1_555 1_555
C34A C33A 1_555 1_555
H31A C34A 1_555 1_555
C35A C34A 1_555 1_555
H32A C35A 1_555 1_555
C36A C20 1_555 1_555
C37A C36A 1_555 1_555
H33A C37A 1_555 1_555
C38A C33A 1_555 1_555
H34A C38A 1_555 1_555
S1A O1A 1_555 1_555
O2A S1A 1_555 1_555
O3A S1A 1_555 1_555
C39A C43 1_555 1_555
H35A C39A 1_555 1_555
C40A C39A 1_555 1_555
H36A C40A 1_555 1_555
C41A S1A 1_555 1_555
C42A C41A 1_555 1_555
H37A C42A 1_555 1_555
C43A C39 1_555 1_555
S2A O4A 1_555 1_555
O5A S2A 1_555 1_555
O6A S2A 1_555 1_555
C44A C48 1_555 1_555
H38A C44A 1_555 1_555
C45A C44A 1_555 1_555
H39A C45A 1_555 1_555
C46A S2A 1_555 1_555
C47A C46A 1_555 1_555
H40A C47A 1_555 1_555
C48A C44 1_555 1_555
C3 C4 1_555 1_555
C8 C9 1_555 1_555
C11 C12 1_555 1_555
C18 C19 1_555 1_555
C22 C23 1_555 1_555
C27 C28 1_555 1_555
C30 C31 1_555 1_555
C37 C38 1_555 1_555
C40 C41 1_555 1_555
C43 C43A 1_555 1_555
C45 C46 1_555 1_555
C48 C48A 1_555 1_555
C53 C54 1_555 1_555
C55 C56 1_555 1_555
C57 C58 1_555 1_555
C3A C4A 1_555 1_555
C8A C9A 1_555 1_555
C11A C12A 1_555 1_555
C16A C17A 1_555 1_555
C18A C19A 1_555 1_555
C22A C23A 1_555 1_555
C27A C28A 1_555 1_555
C30A C31A 1_555 1_555
C35A C36A 1_555 1_555
C37A C38A 1_555 1_555
C40A C41A 1_555 1_555
C42A C43A 1_555 1_555
C45A C46A 1_555 1_555
C47A C48A 1_555 1_555

#END
