
#######################################################################
#
#                 Cambridge Crystallographic Data Centre
#                                CCDC 
#
#######################################################################
#
# If this CIF has been generated from an entry in the Cambridge 
# Structural Database, then it will include bibliographic, chemical, 
# crystal, experimental, refinement or atomic coordinate data resulting 
# from the CCDC's data processing and validation procedures.
#
#######################################################################

data_KOVSIZ
_chemical_formula_moiety         'C6 H6 O6,C5 H5 N3 O1'
_chemical_name_systematic        
'prop-1-ene-1,2,3-tricarboxylic acid pyrazine-2-carboxamide'
_symmetry_cell_setting           triclinic
_symmetry_space_group_name_H-M   'P -1'
_symmetry_Int_Tables_number      2
_space_group_name_Hall           '-P 1'
loop_
_symmetry_equiv_pos_site_id
_symmetry_equiv_pos_as_xyz
1 x,y,z
2 -x,-y,-z
_cell_length_a                   5.0630(11)
_cell_length_b                   10.312(3)
_cell_length_c                   12.716(3)
_cell_angle_alpha                92.328(16)
_cell_angle_beta                 101.006(15)
_cell_angle_gamma                92.647(17)
_cell_volume                     650.164
_exptl_crystal_colour            colorless
_exptl_crystal_description       block
_cell_formula_units_Z            2
loop_
_atom_site_label
_atom_site_type_symbol
_atom_site_fract_x
_atom_site_fract_y
_atom_site_fract_z
O1 O 1.1362(9) 0.8224(4) -0.0033(4)
N1 N 1.2377(10) 0.6187(5) 0.0384(4)
H1 H 1.3382 0.6119 -0.0088
H2 H 1.2167 0.5548 0.0779
C1 C 0.6439(14) 0.7413(7) 0.2800(6)
H3 H 0.5430 0.7420 0.3339
N2 N 0.6606(12) 0.8479(6) 0.2266(5)
C2 C 0.8125(14) 0.8406(6) 0.1524(5)
H4 H 0.8324 0.9127 0.1124
C3 C 0.9417(11) 0.7300(5) 0.1325(5)
C4 C 1.1166(12) 0.7266(5) 0.0500(5)
C5 C 0.7669(14) 0.6304(7) 0.2602(6)
H5 H 0.7442 0.5583 0.2999
N3 N 0.9181(11) 0.6226(5) 0.1858(4)
O2 O 0.7925(11) 1.0666(4) 0.5911(4)
H6 H 0.8498 1.0820 0.5366
O3 O 0.8223(10) 0.5151(5) 0.5771(4)
H7 H 0.7177 0.4780 0.5265
O4 O 0.4658(9) 0.6250(5) 0.5861(4)
O5 O 0.9521(12) 0.8733(5) 0.5660(4)
O6 O 0.4514(10) 0.8617(4) 0.8664(4)
H8 H 0.3728 0.8405 0.9144
O7 O 0.5747(9) 0.6574(4) 0.8737(3)
C6 C 0.7298(11) 0.7929(5) 0.7487(4)
C7 C 0.5781(12) 0.7638(5) 0.8371(5)
C8 C 0.8329(13) 0.9464(6) 0.6147(5)
C9 C 0.7128(12) 0.9096(5) 0.7079(5)
H9 H 0.6207 0.9716 0.7394
C10 C 0.8724(12) 0.6809(5) 0.7117(4)
H10 H 0.9195 0.6239 0.7704
H11 H 1.0383 0.7135 0.6921
C11 C 0.7051(12) 0.6041(5) 0.6174(5)
loop_
_geom_bond_atom_site_label_1
_geom_bond_atom_site_label_2
_geom_bond_site_symmetry_1
_geom_bond_site_symmetry_2
O1 C4 1_555 1_555
N1 H1 1_555 1_555
H2 N1 1_555 1_555
C1 H3 1_555 1_555
N2 C1 1_555 1_555
C2 N2 1_555 1_555
H4 C2 1_555 1_555
C3 C2 1_555 1_555
C4 N1 1_555 1_555
C5 C1 1_555 1_555
H5 C5 1_555 1_555
N3 C3 1_555 1_555
O2 H6 1_555 1_555
O3 H7 1_555 1_555
O4 C11 1_555 1_555
O5 C8 1_555 1_555
O6 H8 1_555 1_555
O7 C7 1_555 1_555
C6 C7 1_555 1_555
C7 O6 1_555 1_555
C8 O2 1_555 1_555
C9 C6 1_555 1_555
H9 C9 1_555 1_555
C10 C6 1_555 1_555
H10 C10 1_555 1_555
H11 C10 1_555 1_555
C11 O3 1_555 1_555
C3 C4 1_555 1_555
C5 N3 1_555 1_555
C8 C9 1_555 1_555
C10 C11 1_555 1_555

#END
