
#######################################################################
#
#                 Cambridge Crystallographic Data Centre
#                                CCDC 
#
#######################################################################
#
# If this CIF has been generated from an entry in the Cambridge 
# Structural Database, then it will include bibliographic, chemical, 
# crystal, experimental, refinement or atomic coordinate data resulting 
# from the CCDC's data processing and validation procedures.
#
#######################################################################

data_KOVTEW
_chemical_formula_moiety         '2(C19 H18 N1 1+),C12 H8 O8 S2 2-,3(H2 O1)'
_chemical_name_systematic        
"bis(triphenylmethanaminium) 4,4'-dihydroxybiphenyl-3,3'-disulfonate trihydrate"
_symmetry_cell_setting           monoclinic
_symmetry_space_group_name_H-M   'C 2/c'
_symmetry_Int_Tables_number      15
_space_group_name_Hall           '-C 2yn'
loop_
_symmetry_equiv_pos_site_id
_symmetry_equiv_pos_as_xyz
1 x,y,z
2 -x,y,1/2-z
3 1/2+x,1/2+y,z
4 1/2-x,1/2+y,1/2-z
5 -x,-y,-z
6 x,-y,1/2+z
7 1/2-x,1/2-y,-z
8 1/2+x,1/2-y,1/2+z
_cell_length_a                   27.0976(12)
_cell_length_b                   12.9962(4)
_cell_length_c                   13.9750(8)
_cell_angle_alpha                90
_cell_angle_beta                 103.679(5)
_cell_angle_gamma                90
_cell_volume                     4781.92
_exptl_crystal_colour            colorless
_exptl_crystal_description       prism
_cell_formula_units_Z            4
loop_
_atom_site_label
_atom_site_type_symbol
_atom_site_fract_x
_atom_site_fract_y
_atom_site_fract_z
S1 S 0.46286(3) 0.65582(5) 0.01555(6)
O1 O 0.48616(10) 0.62485(18) 0.11389(19)
O2 O 0.49445(9) 0.64396(15) -0.0541(2)
O3 O 0.41344(7) 0.60587(14) -0.02082(17)
O4 O 0.36591(8) 0.76277(16) 0.0487(2)
H1 H 0.3703(16) 0.7043(16) 0.025(3)
C1 C 0.44963(10) 0.78852(18) 0.0177(2)
C2 C 0.40420(11) 0.8251(2) 0.0362(2)
C3 C 0.39742(12) 0.9302(2) 0.0410(3)
H2 H 0.3676 0.9558 0.0539
C4 C 0.43430(12) 0.9974(2) 0.0269(3)
H3 H 0.4286 1.0678 0.0304
C5 C 0.48006(10) 0.96389(19) 0.0075(2)
C6 C 0.48653(10) 0.85748(19) 0.0040(2)
H4 H 0.5166 0.8319 -0.0080
S1D S 0.53714(3) 1.34418(5) -0.01555(6)
O1D O 0.51384(10) 1.37515(18) -0.11389(19)
O2D O 0.50555(9) 1.35604(15) 0.0541(2)
O3D O 0.58656(7) 1.39413(14) 0.02082(17)
O4D O 0.63409(8) 1.23723(16) -0.0487(2)
H1D H 0.6297(16) 1.2957(16) -0.025(3)
C1D C 0.55037(10) 1.21148(18) -0.0177(2)
C2D C 0.59580(11) 1.1749(2) -0.0362(2)
C3D C 0.60258(12) 1.0698(2) -0.0410(3)
H2D H 0.6324 1.0442 -0.0539
C4D C 0.56570(12) 1.0026(2) -0.0269(3)
H3D H 0.5714 0.9322 -0.0304
C5D C 0.51994(10) 1.03611(19) -0.0075(2)
C6D C 0.51347(10) 1.14252(19) -0.0040(2)
H4D H 0.4834 1.1681 0.0080
O5 O 0.43872(10) 0.48262(19) 0.27638(16)
H5 H 0.4608(12) 0.531(2) 0.289(3)
H6 H 0.4468(14) 0.437(2) 0.322(2)
N1 N 0.41121(8) 0.41795(16) 0.08343(17)
H7 H 0.4116(10) 0.4744(12) 0.0501(15)
H8 H 0.4182(10) 0.4367(18) 0.1453(8)
H9 H 0.4362(8) 0.3807(16) 0.0755(17)
C7 C 0.36091(10) 0.36077(19) 0.05609(19)
C8 C 0.35697(15) 0.2917(2) 0.1423(2)
C9 C 0.31130(19) 0.2855(4) 0.1724(3)
H10 H 0.2840 0.3272 0.1433
C10 C 0.3071(4) 0.2168(6) 0.2459(5)
H11 H 0.2767 0.2128 0.2658
C11 C 0.3463(5) 0.1554(6) 0.2894(5)
H12 H 0.3428 0.1088 0.3378
C12 C 0.3906(4) 0.1623(4) 0.2617(4)
H13 H 0.4177 0.1210 0.2927
C13 C 0.3970(2) 0.2310(3) 0.1868(3)
H14 H 0.4278 0.2347 0.1683
C14 C 0.35995(10) 0.2956(2) -0.03574(19)
C15 C 0.38401(13) 0.3283(3) -0.1074(2)
H15 H 0.4018 0.3901 -0.0991
C16 C 0.38199(16) 0.2703(3) -0.1914(3)
H16 H 0.3989 0.2925 -0.2383
C17 C 0.35506(16) 0.1798(3) -0.2052(3)
H17 H 0.3534 0.1411 -0.2618
C18 C 0.33074(16) 0.1467(3) -0.1356(3)
H18 H 0.3126 0.0854 -0.1451
C19 C 0.33290(13) 0.2037(2) -0.0511(2)
H19 H 0.3162 0.1805 -0.0044
C20 C 0.31974(10) 0.4445(2) 0.0367(2)
C21 C 0.31957(12) 0.5197(3) 0.1075(3)
H20 H 0.3442 0.5182 0.1664
C22 C 0.28331(15) 0.5967(3) 0.0915(4)
H21 H 0.2840 0.6466 0.1394
C23 C 0.24713(16) 0.5997(3) 0.0071(5)
H22 H 0.2229 0.6518 -0.0036
C24 C 0.24617(16) 0.5266(4) -0.0625(4)
H23 H 0.2207 0.5281 -0.1202
C25 C 0.28288(13) 0.4491(3) -0.0488(3)
H24 H 0.2822 0.4006 -0.0980
O6 O 0.5000 -0.0947(19) 0.2500
O7? O 0.5000 0.0572(19) 0.2500
loop_
_geom_bond_atom_site_label_1
_geom_bond_atom_site_label_2
_geom_bond_site_symmetry_1
_geom_bond_site_symmetry_2
S1 O1 1_555 1_555
O2 S1 1_555 1_555
O3 S1 1_555 1_555
O4 H1 1_555 1_555
C1 S1 1_555 1_555
C2 O4 1_555 1_555
C3 C2 1_555 1_555
H2 C3 1_555 1_555
C4 C3 1_555 1_555
H3 C4 1_555 1_555
C5 C4 1_555 1_555
C6 C1 1_555 1_555
H4 C6 1_555 1_555
O5 H5 1_555 1_555
H6 O5 1_555 1_555
N1 H7 1_555 1_555
H8 N1 1_555 1_555
H9 N1 1_555 1_555
C7 N1 1_555 1_555
C8 C7 1_555 1_555
C9 C8 1_555 1_555
H10 C9 1_555 1_555
C10 C9 1_555 1_555
H11 C10 1_555 1_555
C11 C10 1_555 1_555
H12 C11 1_555 1_555
C12 C11 1_555 1_555
H13 C12 1_555 1_555
C13 C8 1_555 1_555
H14 C13 1_555 1_555
C14 C7 1_555 1_555
C15 C14 1_555 1_555
H15 C15 1_555 1_555
C16 C15 1_555 1_555
H16 C16 1_555 1_555
C17 C16 1_555 1_555
H17 C17 1_555 1_555
C18 C17 1_555 1_555
H18 C18 1_555 1_555
C19 C14 1_555 1_555
H19 C19 1_555 1_555
C20 C7 1_555 1_555
C21 C20 1_555 1_555
H20 C21 1_555 1_555
C22 C21 1_555 1_555
H21 C22 1_555 1_555
C23 C22 1_555 1_555
H22 C23 1_555 1_555
C24 C23 1_555 1_555
H23 C24 1_555 1_555
C25 C20 1_555 1_555
H24 C25 1_555 1_555
S1D O1D 1_555 1_555
O2D S1D 1_555 1_555
O3D S1D 1_555 1_555
O4D H1D 1_555 1_555
C1D S1D 1_555 1_555
C2D O4D 1_555 1_555
C3D C2D 1_555 1_555
H2D C3D 1_555 1_555
C4D C3D 1_555 1_555
H3D C4D 1_555 1_555
C5D C5 1_555 1_555
C6D C1D 1_555 1_555
H4D C6D 1_555 1_555
C1 C2 1_555 1_555
C5 C6 1_555 1_555
C12 C13 1_555 1_555
C18 C19 1_555 1_555
C24 C25 1_555 1_555
C1D C2D 1_555 1_555
C4D C5D 1_555 1_555
C5D C6D 1_555 1_555

#END
