
#######################################################################
#
#                 Cambridge Crystallographic Data Centre
#                                CCDC 
#
#######################################################################
#
# If this CIF has been generated from an entry in the Cambridge 
# Structural Database, then it will include bibliographic, chemical, 
# crystal, experimental, refinement or atomic coordinate data resulting 
# from the CCDC's data processing and validation procedures.
#
#######################################################################

data_KOVTOG
_chemical_formula_moiety         '2(C19 H18 N1 1+),C12 H8 O8 S2 2-,4(C1 H4 O1)'
_chemical_name_systematic        
"bis(triphenylmethanaminium) 4,4'-dihydroxybiphenyl-3,3'-disulfonate methanol solvate"
_symmetry_cell_setting           triclinic
_symmetry_space_group_name_H-M   'P -1'
_symmetry_Int_Tables_number      2
_space_group_name_Hall           '-P 1'
loop_
_symmetry_equiv_pos_site_id
_symmetry_equiv_pos_as_xyz
1 x,y,z
2 -x,-y,-z
_cell_length_a                   10.0429(6)
_cell_length_b                   12.1542(7)
_cell_length_c                   12.5456(8)
_cell_angle_alpha                67.646(6)
_cell_angle_beta                 67.742(6)
_cell_angle_gamma                80.119(5)
_cell_volume                     1310.07
_exptl_crystal_colour            colorless
_exptl_crystal_description       prism
_cell_formula_units_Z            1
loop_
_atom_site_label
_atom_site_type_symbol
_atom_site_fract_x
_atom_site_fract_y
_atom_site_fract_z
S1 S -0.19870(6) 0.63354(5) 0.13394(5)
O1 O -0.07967(18) 0.61541(13) 0.03073(13)
O2 O -0.1789(2) 0.56235(14) 0.24979(14)
O3 O -0.3392(2) 0.61787(16) 0.13404(19)
O4 O -0.4482(2) 0.78041(17) 0.2555(2)
H1 H -0.444(4) 0.720(2) 0.236(3)
C1 C -0.1992(2) 0.78441(18) 0.11970(19)
C2 C -0.3210(2) 0.8362(2) 0.1859(2)
C3 C -0.3131(3) 0.9497(2) 0.1815(2)
H2 H -0.3926 0.9846 0.2268
C4 C -0.1887(3) 1.0124(2) 0.1106(2)
H3 H -0.1863 1.0887 0.1101
C5 C -0.0660(2) 0.96533(18) 0.03935(19)
C6 C -0.0751(2) 0.84870(18) 0.04772(18)
H4 H 0.0048 0.8130 0.0036
S1A S 0.19870(6) 1.36646(5) -0.13394(5)
O1A O 0.07967(18) 1.38459(13) -0.03073(13)
O2A O 0.1789(2) 1.43765(14) -0.24979(14)
O3A O 0.3392(2) 1.38213(16) -0.13404(19)
O4A O 0.4482(2) 1.21959(17) -0.2555(2)
H1A H 0.444(4) 1.280(2) -0.236(3)
C1A C 0.1992(2) 1.21559(18) -0.11970(19)
C2A C 0.3210(2) 1.1638(2) -0.1859(2)
C3A C 0.3131(3) 1.0503(2) -0.1815(2)
H2A H 0.3926 1.0154 -0.2268
C4A C 0.1887(3) 0.9876(2) -0.1106(2)
H3A H 0.1863 0.9113 -0.1101
C5A C 0.0660(2) 1.03467(18) -0.03935(19)
C6A C 0.0751(2) 1.15130(18) -0.04772(18)
H4A H -0.0048 1.1870 -0.0036
O5 O 0.2669(3) 0.5032(3) 0.1766(2)
H5 H 0.312(5) 0.480(4) 0.227(4)
C7 C 0.2977(8) 0.6101(6) 0.0811(6)
H6 H 0.2999 0.6710 0.1116
H7 H 0.2249 0.6306 0.0440
H8 H 0.3897 0.6034 0.0211
O6 O 0.4313(3) 0.4804(4) 0.3037(3)
H9 H 0.515(3) 0.503(6) 0.253(5)
C8 C 0.4098(6) 0.4484(5) 0.4247(5)
H10 H 0.3821 0.5174 0.4487
H11 H 0.4971 0.4133 0.4396
H12 H 0.3349 0.3916 0.4716
N1 N 0.0397(2) 0.38509(15) 0.20445(15)
H13 H -0.0299(15) 0.4362(17) 0.2208(19)
H14 H 0.1169(14) 0.4155(19) 0.1980(19)
H15 H 0.054(2) 0.3870(19) 0.1310(12)
C9 C 0.0148(2) 0.26038(18) 0.29791(18)
C10 C 0.1246(2) 0.17612(19) 0.24067(19)
C11 C 0.0884(3) 0.0630(2) 0.2619(2)
H16 H -0.0055 0.0388 0.3083
C12 C 0.1901(3) -0.0147(2) 0.2151(3)
H17 H 0.1641 -0.0907 0.2309
C13 C 0.3285(3) 0.0196(3) 0.1456(3)
H18 H 0.3968 -0.0332 0.1151
C14 C 0.3657(3) 0.1316(3) 0.1213(3)
H19 H 0.4592 0.1557 0.0724
C15 C 0.2655(3) 0.2098(2) 0.1688(2)
H20 H 0.2927 0.2856 0.1525
C16 C -0.1402(2) 0.22974(19) 0.32797(19)
C17 C -0.2192(3) 0.1593(2) 0.4459(2)
H21 H -0.1792 0.1332 0.5075
C18 C -0.3571(4) 0.1279(3) 0.4720(3)
H22 H -0.4090 0.0806 0.5511
C19 C -0.4178(3) 0.1655(3) 0.3831(4)
H23 H -0.5105 0.1437 0.4016
C20 C -0.3421(3) 0.2353(3) 0.2667(3)
H24 H -0.3836 0.2616 0.2060
C21 C -0.2035(3) 0.2670(2) 0.2389(2)
H25 H -0.1524 0.3140 0.1593
C22 C 0.0378(3) 0.26345(19) 0.41115(19)
C23 C 0.1334(3) 0.1866(3) 0.4621(2)
H26 H 0.1884 0.1318 0.4262
C24 C 0.1483(4) 0.1900(3) 0.5659(3)
H27 H 0.2131 0.1375 0.5991
C25 C 0.0697(5) 0.2691(4) 0.6196(3)
H28 H 0.0809 0.2714 0.6890
C26 C -0.0267(5) 0.3462(3) 0.5710(3)
H29 H -0.0812 0.4003 0.6081
C27 C -0.0436(4) 0.3438(2) 0.4665(2)
H30 H -0.1092 0.3960 0.4342
loop_
_geom_bond_atom_site_label_1
_geom_bond_atom_site_label_2
_geom_bond_site_symmetry_1
_geom_bond_site_symmetry_2
S1 O1 1_555 1_555
O2 S1 1_555 1_555
O3 S1 1_555 1_555
O4 H1 1_555 1_555
C1 S1 1_555 1_555
C2 O4 1_555 1_555
C3 C2 1_555 1_555
H2 C3 1_555 1_555
C4 C3 1_555 1_555
H3 C4 1_555 1_555
C5 C4 1_555 1_555
C6 C1 1_555 1_555
H4 C6 1_555 1_555
O5 H5 1_555 1_555
C7 O5 1_555 1_555
H6 C7 1_555 1_555
H7 C7 1_555 1_555
H8 C7 1_555 1_555
O6 H9 1_555 1_555
C8 O6 1_555 1_555
H10 C8 1_555 1_555
H11 C8 1_555 1_555
H12 C8 1_555 1_555
N1 H13 1_555 1_555
H14 N1 1_555 1_555
H15 N1 1_555 1_555
C9 N1 1_555 1_555
C10 C9 1_555 1_555
C11 C10 1_555 1_555
H16 C11 1_555 1_555
C12 C11 1_555 1_555
H17 C12 1_555 1_555
C13 C12 1_555 1_555
H18 C13 1_555 1_555
C14 C13 1_555 1_555
H19 C14 1_555 1_555
C15 C10 1_555 1_555
H20 C15 1_555 1_555
C16 C9 1_555 1_555
C17 C16 1_555 1_555
H21 C17 1_555 1_555
C18 C17 1_555 1_555
H22 C18 1_555 1_555
C19 C18 1_555 1_555
H23 C19 1_555 1_555
C20 C19 1_555 1_555
H24 C20 1_555 1_555
C21 C16 1_555 1_555
H25 C21 1_555 1_555
C22 C9 1_555 1_555
C23 C22 1_555 1_555
H26 C23 1_555 1_555
C24 C23 1_555 1_555
H27 C24 1_555 1_555
C25 C24 1_555 1_555
H28 C25 1_555 1_555
C26 C25 1_555 1_555
H29 C26 1_555 1_555
C27 C22 1_555 1_555
H30 C27 1_555 1_555
S1A O1A 1_555 1_555
O2A S1A 1_555 1_555
O3A S1A 1_555 1_555
O4A H1A 1_555 1_555
C1A S1A 1_555 1_555
C2A O4A 1_555 1_555
C3A C2A 1_555 1_555
H2A C3A 1_555 1_555
C4A C3A 1_555 1_555
H3A C4A 1_555 1_555
C5A C5 1_555 1_555
C6A C1A 1_555 1_555
H4A C6A 1_555 1_555
C1 C2 1_555 1_555
C5 C6 1_555 1_555
C14 C15 1_555 1_555
C20 C21 1_555 1_555
C26 C27 1_555 1_555
C1A C2A 1_555 1_555
C4A C5A 1_555 1_555
C5A C6A 1_555 1_555

#END
