
#######################################################################
#
#                 Cambridge Crystallographic Data Centre
#                                CCDC 
#
#######################################################################
#
# If this CIF has been generated from an entry in the Cambridge 
# Structural Database, then it will include bibliographic, chemical, 
# crystal, experimental, refinement or atomic coordinate data resulting 
# from the CCDC's data processing and validation procedures.
#
#######################################################################

data_KOVTAS
_chemical_formula_moiety         '2(C19 H18 N1 1+),C12 H8 O8 S2 2-,4(H2 O1)'
_chemical_name_systematic        
"bis(triphenylmethanaminium) 4,4'-dihydroxybiphenyl-3,3'-disulfonate tetrahydrate"
_symmetry_cell_setting           triclinic
_symmetry_space_group_name_H-M   'P -1'
_symmetry_Int_Tables_number      2
_space_group_name_Hall           '-P 1'
loop_
_symmetry_equiv_pos_site_id
_symmetry_equiv_pos_as_xyz
1 x,y,z
2 -x,-y,-z
_cell_length_a                   12.9215(9)
_cell_length_b                   13.6231(8)
_cell_length_c                   14.7007(12)
_cell_angle_alpha                93.768(6)
_cell_angle_beta                 101.133(7)
_cell_angle_gamma                110.031(6)
_cell_volume                     2360.96
_exptl_crystal_colour            colorless
_exptl_crystal_description       prism
_cell_formula_units_Z            2
loop_
_atom_site_label
_atom_site_type_symbol
_atom_site_fract_x
_atom_site_fract_y
_atom_site_fract_z
S1 S 0.38244(6) 0.22521(5) 0.22419(5)
S2 S 0.47785(5) 0.92100(4) 0.18643(4)
O1 O 0.45268(14) 0.23838(12) 0.15736(12)
O2 O 0.4253(2) 0.18174(16) 0.30515(15)
O3 O 0.26516(17) 0.16535(16) 0.18601(19)
O4 O 0.36913(18) 0.30678(15) 0.42303(13)
H1 H 0.380(3) 0.2529(17) 0.400(2)
O5 O 0.39921(18) 0.94110(16) 0.11313(12)
O6 O 0.43711(14) 0.91097(13) 0.27245(11)
O7 O 0.59318(16) 0.99586(13) 0.20275(13)
O8 O 0.54904(18) 0.85942(13) 0.01799(12)
H2 H 0.566(3) 0.840(2) -0.0307(14)
C1 C 0.43640(19) 0.53683(17) 0.24556(15)
C2 C 0.4262(2) 0.55770(19) 0.33717(16)
H3 H 0.4363 0.6262 0.3608
C3 C 0.4017(2) 0.4804(2) 0.39294(16)
H4 H 0.3938 0.4969 0.4530
C4 C 0.3885(2) 0.37726(19) 0.36128(16)
C5 C 0.39646(18) 0.35376(17) 0.27000(16)
C6 C 0.41822(19) 0.43251(17) 0.21318(15)
H5 H 0.4207 0.4151 0.1516
C7 C 0.4678(2) 0.62097(17) 0.18590(16)
C8 C 0.5120(2) 0.60873(19) 0.10837(18)
H6 H 0.5239 0.5464 0.0945
C9 C 0.5383(3) 0.6855(2) 0.05199(18)
H7 H 0.5660 0.6738 0.0001
C10 C 0.5241(2) 0.78064(18) 0.07154(16)
C11 C 0.48527(19) 0.79697(16) 0.15123(15)
C12 C 0.45732(19) 0.71785(17) 0.20660(15)
H8 H 0.4307 0.7298 0.2591
O9 O 0.1043(5) 0.1596(5) 0.0160(3)
H9 H 0.065(6) 0.097(4) 0.022(8)
H10 H 0.173(2) 0.173(7) 0.042(6)
O10 O 0.1224(2) 0.8590(3) 0.05121(17)
H11 H 0.0507(12) 0.830(3) 0.025(3)
H12 H 0.148(3) 0.915(2) 0.027(3)
O11 O 0.70460(17) 1.09728(15) 0.07218(13)
H13 H 0.661(2) 1.083(2) 0.0176(10)
H14 H 0.675(2) 1.054(2) 0.1067(15)
O12 O 0.63814(18) 0.15661(16) 0.35615(15)
H15 H 0.5764(16) 0.167(2) 0.353(3)
H16 H 0.624(3) 0.0935(12) 0.333(2)
N1 N 0.69657(17) 0.25740(16) 0.20092(14)
H17 H 0.6396(16) 0.2755(19) 0.1788(14)
H18 H 0.699(2) 0.2115(16) 0.1592(11)
H19 H 0.682(2) 0.2270(17) 0.2491(11)
C13 C 0.80466(18) 0.35451(18) 0.22356(16)
C14 C 0.80045(19) 0.42789(19) 0.30545(15)
C15 C 0.8976(2) 0.4889(2) 0.37031(17)
H20 H 0.9650 0.4789 0.3689
C16 C 0.8972(2) 0.5644(2) 0.43729(18)
H21 H 0.9641 0.6048 0.4802
C17 C 0.7984(2) 0.5802(2) 0.44090(18)
H22 H 0.7978 0.6312 0.4859
C18 C 0.7008(2) 0.5196(2) 0.3770(2)
H23 H 0.6333 0.5290 0.3791
C19 C 0.7021(2) 0.4449(2) 0.30983(18)
H24 H 0.6354 0.4052 0.2665
C20 C 0.8089(2) 0.4104(2) 0.13648(16)
C21 C 0.7833(3) 0.3537(2) 0.04795(18)
H25 H 0.7620 0.2806 0.0413
C22 C 0.7891(3) 0.4038(3) -0.0300(2)
H26 H 0.7715 0.3641 -0.0885
C23 C 0.8199(3) 0.5104(3) -0.0229(2)
H27 H 0.8235 0.5436 -0.0761
C24 C 0.8458(4) 0.5684(3) 0.0637(3)
H28 H 0.8676 0.6415 0.0695
C25 C 0.8393(3) 0.5182(2) 0.1422(2)
H29 H 0.8558 0.5583 0.2005
C26 C 0.90157(19) 0.31396(19) 0.25039(17)
C27 C 0.9038(2) 0.2562(2) 0.32416(19)
H30 H 0.8452 0.2409 0.3554
C28 C 0.9917(3) 0.2209(2) 0.3523(2)
H31 H 0.9913 0.1812 0.4015
C29 C 1.0797(3) 0.2443(3) 0.3078(3)
H32 H 1.1396 0.2218 0.3274
C30 C 1.0783(3) 0.3006(3) 0.2352(3)
H33 H 1.1375 0.3161 0.2046
C31 C 0.9899(2) 0.3351(2) 0.2059(2)
H34 H 0.9901 0.3731 0.1555
N2 N 0.22909(17) 0.94249(15) 0.24067(14)
H35 H 0.2938(11) 0.9347(16) 0.2527(16)
H36 H 0.2428(18) 1.0092(8) 0.2380(16)
H37 H 0.1927(16) 0.9098(15) 0.1851(10)
C32 C 0.16139(19) 0.90106(17) 0.31276(15)
C33 C 0.03913(19) 0.89034(18) 0.27245(16)
C34 C 0.0168(2) 0.9715(2) 0.2306(2)
H38 H 0.0766 1.0300 0.2236
C35 C -0.0935(3) 0.9666(3) 0.1992(2)
H39 H -0.1073 1.0221 0.1722
C36 C -0.1825(3) 0.8789(3) 0.2082(2)
H40 H -0.2566 0.8750 0.1869
C37 C -0.1620(2) 0.7979(3) 0.2482(2)
H41 H -0.2223 0.7385 0.2532
C38 C -0.0518(2) 0.8034(2) 0.2815(2)
H42 H -0.0387 0.7484 0.3100
C39 C 0.2148(2) 0.98154(18) 0.40252(16)
C40 C 0.1495(2) 1.0130(3) 0.4528(2)
H43 H 0.0714 0.9885 0.4305
C41 C 0.1992(3) 1.0810(3) 0.5366(2)
H44 H 0.1541 1.1024 0.5694
C42 C 0.3130(3) 1.1166(3) 0.5712(2)
H45 H 0.3453 1.1609 0.6281
C43 C 0.3799(2) 1.0870(2) 0.52209(19)
H46 H 0.4579 1.1121 0.5451
C44 C 0.3314(2) 1.01959(19) 0.43807(17)
H47 H 0.3772 0.9996 0.4051
C45 C 0.17255(19) 0.79435(18) 0.32895(17)
C46 C 0.2038(2) 0.7705(2) 0.41756(19)
H48 H 0.2206 0.8208 0.4696
C47 C 0.2104(3) 0.6723(2) 0.4300(2)
H49 H 0.2321 0.6576 0.4900
C48 C 0.1853(2) 0.5979(2) 0.3548(2)
H50 H 0.1890 0.5321 0.3633
C49 C 0.1544(3) 0.6201(2) 0.2663(2)
H51 H 0.1379 0.5693 0.2148
C50 C 0.1476(2) 0.71785(19) 0.25298(19)
H52 H 0.1261 0.7320 0.1927
loop_
_geom_bond_atom_site_label_1
_geom_bond_atom_site_label_2
_geom_bond_site_symmetry_1
_geom_bond_site_symmetry_2
S1 O1 1_555 1_555
S2 O5 1_555 1_555
O2 S1 1_555 1_555
O3 S1 1_555 1_555
O4 H1 1_555 1_555
O6 S2 1_555 1_555
O7 S2 1_555 1_555
O8 H2 1_555 1_555
C1 C2 1_555 1_555
C2 H3 1_555 1_555
C3 C2 1_555 1_555
H4 C3 1_555 1_555
C4 O4 1_555 1_555
C5 S1 1_555 1_555
C6 C1 1_555 1_555
H5 C6 1_555 1_555
C7 C1 1_555 1_555
C8 C7 1_555 1_555
H6 C8 1_555 1_555
C9 C8 1_555 1_555
H7 C9 1_555 1_555
C10 O8 1_555 1_555
C11 S2 1_555 1_555
C12 C7 1_555 1_555
H8 C12 1_555 1_555
O9 H9 1_555 1_555
H10 O9 1_555 1_555
O10 H11 1_555 1_555
H12 O10 1_555 1_555
O11 H13 1_555 1_555
H14 O11 1_555 1_555
O12 H15 1_555 1_555
H16 O12 1_555 1_555
N1 H17 1_555 1_555
H18 N1 1_555 1_555
H19 N1 1_555 1_555
C13 N1 1_555 1_555
C14 C13 1_555 1_555
C15 C14 1_555 1_555
H20 C15 1_555 1_555
C16 C15 1_555 1_555
H21 C16 1_555 1_555
C17 C16 1_555 1_555
H22 C17 1_555 1_555
C18 C17 1_555 1_555
H23 C18 1_555 1_555
C19 C14 1_555 1_555
H24 C19 1_555 1_555
C20 C13 1_555 1_555
C21 C20 1_555 1_555
H25 C21 1_555 1_555
C22 C21 1_555 1_555
H26 C22 1_555 1_555
C23 C22 1_555 1_555
H27 C23 1_555 1_555
C24 C23 1_555 1_555
H28 C24 1_555 1_555
C25 C20 1_555 1_555
H29 C25 1_555 1_555
C26 C13 1_555 1_555
C27 C26 1_555 1_555
H30 C27 1_555 1_555
C28 C27 1_555 1_555
H31 C28 1_555 1_555
C29 C28 1_555 1_555
H32 C29 1_555 1_555
C30 C29 1_555 1_555
H33 C30 1_555 1_555
C31 C26 1_555 1_555
H34 C31 1_555 1_555
N2 H35 1_555 1_555
H36 N2 1_555 1_555
H37 N2 1_555 1_555
C32 N2 1_555 1_555
C33 C32 1_555 1_555
C34 C33 1_555 1_555
H38 C34 1_555 1_555
C35 C34 1_555 1_555
H39 C35 1_555 1_555
C36 C35 1_555 1_555
H40 C36 1_555 1_555
C37 C36 1_555 1_555
H41 C37 1_555 1_555
C38 C33 1_555 1_555
H42 C38 1_555 1_555
C39 C32 1_555 1_555
C40 C39 1_555 1_555
H43 C40 1_555 1_555
C41 C40 1_555 1_555
H44 C41 1_555 1_555
C42 C41 1_555 1_555
H45 C42 1_555 1_555
C43 C42 1_555 1_555
H46 C43 1_555 1_555
C44 C39 1_555 1_555
H47 C44 1_555 1_555
C45 C32 1_555 1_555
C46 C45 1_555 1_555
H48 C46 1_555 1_555
C47 C46 1_555 1_555
H49 C47 1_555 1_555
C48 C47 1_555 1_555
H50 C48 1_555 1_555
C49 C48 1_555 1_555
H51 C49 1_555 1_555
C50 C45 1_555 1_555
H52 C50 1_555 1_555
C3 C4 1_555 1_555
C4 C5 1_555 1_555
C5 C6 1_555 1_555
C9 C10 1_555 1_555
C10 C11 1_555 1_555
C11 C12 1_555 1_555
C18 C19 1_555 1_555
C24 C25 1_555 1_555
C30 C31 1_555 1_555
C37 C38 1_555 1_555
C43 C44 1_555 1_555
C49 C50 1_555 1_555

#END
