
#######################################################################
#
#                 Cambridge Crystallographic Data Centre
#                                CCDC 
#
#######################################################################
#
# If this CIF has been generated from an entry in the Cambridge 
# Structural Database, then it will include bibliographic, chemical, 
# crystal, experimental, refinement or atomic coordinate data resulting 
# from the CCDC's data processing and validation procedures.
#
#######################################################################

data_KOWLEP
_chemical_formula_moiety         'C18 H17 F1 N2 O2'
_chemical_name_systematic        
2-amino-4-(4-fluorophenyl)-7,7-dimethyl-5-oxo-5,6,7,8-tetrahydro-4H-chromene-3-carbonitrile
_symmetry_cell_setting           monoclinic
_symmetry_space_group_name_H-M   'P 21/n'
_symmetry_Int_Tables_number      14
_space_group_name_Hall           '-P 2yn'
loop_
_symmetry_equiv_pos_site_id
_symmetry_equiv_pos_as_xyz
1 x,y,z
2 1/2-x,1/2+y,1/2-z
3 -x,-y,-z
4 1/2+x,1/2-y,1/2+z
_cell_length_a                   9.4384(6)
_cell_length_b                   17.1240(7)
_cell_length_c                   10.4558(6)
_cell_angle_alpha                90
_cell_angle_beta                 113.886(7)
_cell_angle_gamma                90
_cell_volume                     1545.16
_exptl_crystal_colour            white
_exptl_crystal_description       block
_cell_formula_units_Z            4
loop_
_atom_site_label
_atom_site_type_symbol
_atom_site_fract_x
_atom_site_fract_y
_atom_site_fract_z
F1 F 0.69137(19) 0.03204(10) 0.75887(15)
C1 C 0.3917(2) 0.16388(11) 0.43133(19)
C2 C 0.5259(2) 0.13316(13) 0.4290(2)
H1 H 0.5487 0.1422 0.3517
C3 C 0.6277(3) 0.08912(15) 0.5392(3)
H2 H 0.7178 0.0689 0.5364
C4 C 0.5932(3) 0.07622(14) 0.6508(2)
C5 C 0.4624(3) 0.10516(15) 0.6586(2)
H3 H 0.4412 0.0955 0.7366
C6 C 0.3619(3) 0.14914(14) 0.5483(2)
H4 H 0.2725 0.1692 0.5528
O1 O 0.14538(15) 0.12197(7) 0.06073(13)
C7 C 0.2637(2) 0.17280(10) 0.07510(19)
C8 C 0.3243(2) 0.22033(10) 0.18730(19)
C9 C 0.2787(2) 0.21317(10) 0.30969(18)
H5 H 0.2759 0.2658 0.3453
O2 O 0.04483(16) 0.25308(8) 0.40862(15)
C10 C 0.0083(2) 0.20321(11) 0.3164(2)
C11 C -0.1502(2) 0.16718(12) 0.2582(2)
H6 H -0.2204 0.2018 0.1875
H7 H -0.1862 0.1632 0.3327
C12 C -0.1588(2) 0.08623(11) 0.1932(2)
C13 C -0.0875(2) 0.09294(12) 0.0858(2)
H8 H -0.0725 0.0410 0.0565
H9 H -0.1591 0.1205 0.0040
C14 C 0.0627(2) 0.13455(10) 0.14129(19)
C15 C 0.1163(2) 0.18055(10) 0.25432(19)
C16 C -0.0699(3) 0.02740(13) 0.3068(2)
H10 H 0.0363 0.0436 0.3527
H11 H -0.0746 -0.0231 0.2653
H12 H -0.1153 0.0247 0.3739
C17 C -0.3273(2) 0.06006(13) 0.1186(2)
H13 H -0.3727 0.0550 0.1855
H14 H -0.3311 0.0106 0.0741
H15 H -0.3840 0.0981 0.0494
N1 N 0.3050(2) 0.16555(11) -0.03310(19)
C18 C 0.4345(2) 0.27641(12) 0.1891(2)
N2 N 0.5244(2) 0.32228(11) 0.1916(2)
H16 H 0.382(3) 0.1985(13) -0.035(2)
H17 H 0.231(3) 0.1528(13) -0.114(2)
loop_
_geom_bond_atom_site_label_1
_geom_bond_atom_site_label_2
_geom_bond_site_symmetry_1
_geom_bond_site_symmetry_2
F1 C4 1_555 1_555
C1 C2 1_555 1_555
C2 H1 1_555 1_555
C3 C2 1_555 1_555
H2 C3 1_555 1_555
C4 C3 1_555 1_555
C5 C4 1_555 1_555
H3 C5 1_555 1_555
C6 C1 1_555 1_555
H4 C6 1_555 1_555
O1 C7 1_555 1_555
C7 C8 1_555 1_555
C8 C9 1_555 1_555
C9 C1 1_555 1_555
H5 C9 1_555 1_555
O2 C10 1_555 1_555
C10 C11 1_555 1_555
C11 H6 1_555 1_555
H7 C11 1_555 1_555
C12 C11 1_555 1_555
C13 C12 1_555 1_555
H8 C13 1_555 1_555
H9 C13 1_555 1_555
C14 O1 1_555 1_555
C15 C9 1_555 1_555
C16 C12 1_555 1_555
H10 C16 1_555 1_555
H11 C16 1_555 1_555
H12 C16 1_555 1_555
C17 C12 1_555 1_555
H13 C17 1_555 1_555
H14 C17 1_555 1_555
H15 C17 1_555 1_555
N1 C7 1_555 1_555
C18 C8 1_555 1_555
N2 C18 1_555 1_555
H16 N1 1_555 1_555
H17 N1 1_555 1_555
C5 C6 1_555 1_555
C10 C15 1_555 1_555
C13 C14 1_555 1_555
C14 C15 1_555 1_555

#END
