
#######################################################################
#
#                 Cambridge Crystallographic Data Centre
#                                CCDC 
#
#######################################################################
#
# If this CIF has been generated from an entry in the Cambridge 
# Structural Database, then it will include bibliographic, chemical, 
# crystal, experimental, refinement or atomic coordinate data resulting 
# from the CCDC's data processing and validation procedures.
#
#######################################################################

data_KOWWUO
_chemical_formula_moiety         'C20 H24 N2 Te1'
_chemical_name_systematic        
bis(2-Isopropyliminomethylphenyl-C,N:C)-tellurium
_symmetry_cell_setting           monoclinic
_symmetry_space_group_name_H-M   'P 21/c'
_symmetry_Int_Tables_number      14
_space_group_name_Hall           '-P 2ybc'
loop_
_symmetry_equiv_pos_site_id
_symmetry_equiv_pos_as_xyz
1 x,y,z
2 -x,1/2+y,1/2-z
3 -x,-y,-z
4 x,1/2-y,1/2+z
_cell_length_a                   16.074(5)
_cell_length_b                   7.780(2)
_cell_length_c                   16.254(9)
_cell_angle_alpha                90
_cell_angle_beta                 100.37(3)
_cell_angle_gamma                90
_cell_volume                     1999.45
_exptl_crystal_colour            yellow
_cell_formula_units_Z            4
loop_
_atom_site_label
_atom_site_type_symbol
_atom_site_fract_x
_atom_site_fract_y
_atom_site_fract_z
Te1 Te 0.34740(1) 0.37267(2) 0.59807(1)
N1 N 0.4521(1) 0.6283(2) 0.6683(1)
N2 N 0.0971(2) 0.3705(3) 0.4077(2)
C1 C 0.3064(1) 0.4580(3) 0.7084(1)
C2 C 0.2353(2) 0.3882(3) 0.7332(2)
C3 C 0.2117(2) 0.4405(4) 0.8072(2)
C4 C 0.2575(2) 0.5626(4) 0.8577(2)
C5 C 0.3275(2) 0.6333(3) 0.8332(2)
C6 C 0.3526(2) 0.5845(3) 0.7585(2)
C7 C 0.4264(2) 0.6683(3) 0.7352(2)
C8 C 0.5237(2) 0.7240(3) 0.6461(2)
C9 C 0.4938(2) 0.8137(5) 0.5637(2)
C10 C 0.5951(2) 0.6035(4) 0.6392(2)
C11 C 0.2508(2) 0.1766(3) 0.5726(2)
C12 C 0.2678(2) 0.0170(4) 0.6137(2)
C13 C 0.2099(2) -0.1157(3) 0.5991(2)
C14 C 0.1351(2) -0.0934(3) 0.5453(2)
C15 C 0.1174(2) 0.0613(4) 0.5031(2)
C16 C 0.1755(2) 0.1955(3) 0.5170(1)
C17 C 0.1540(2) 0.3598(8) 0.4711(2)
C18 C 0.0808(2) 0.5380(4) 0.3680(2)
C19 C -0.0078(3) 0.5930(6) 0.3676(3)
C20 C 0.1031(3) 0.5334(6) 0.2818(3)
loop_
_geom_bond_atom_site_label_1
_geom_bond_atom_site_label_2
_geom_bond_site_symmetry_1
_geom_bond_site_symmetry_2
Te1 N1 1_555 1_555
N1 C7 1_555 1_555
N2 C17 1_555 1_555
C1 Te1 1_555 1_555
C2 C1 1_555 1_555
C3 C2 1_555 1_555
C4 C3 1_555 1_555
C5 C4 1_555 1_555
C6 C1 1_555 1_555
C7 C6 1_555 1_555
C8 N1 1_555 1_555
C9 C8 1_555 1_555
C10 C8 1_555 1_555
C11 Te1 1_555 1_555
C12 C11 1_555 1_555
C13 C12 1_555 1_555
C14 C13 1_555 1_555
C15 C14 1_555 1_555
C16 C11 1_555 1_555
C17 C16 1_555 1_555
C18 N2 1_555 1_555
C19 C18 1_555 1_555
C20 C18 1_555 1_555
C5 C6 1_555 1_555
C15 C16 1_555 1_555

#END
