
#######################################################################
#
#                 Cambridge Crystallographic Data Centre
#                                CCDC 
#
#######################################################################
#
# If this CIF has been generated from an entry in the Cambridge 
# Structural Database, then it will include bibliographic, chemical, 
# crystal, experimental, refinement or atomic coordinate data resulting 
# from the CCDC's data processing and validation procedures.
#
#######################################################################

data_KOWYIG
_chemical_formula_moiety         'C20 H20 N2 O3 S1'
_chemical_name_systematic        
N-(4-acetyl-5-methyl-3-phenyl-1H-pyrrol-2-yl)-N-phenylmethanesulfonamide
_symmetry_cell_setting           monoclinic
_symmetry_space_group_name_H-M   'C 2/c'
_symmetry_Int_Tables_number      15
_space_group_name_Hall           '-C 2yn'
loop_
_symmetry_equiv_pos_site_id
_symmetry_equiv_pos_as_xyz
1 x,y,z
2 -x,y,1/2-z
3 1/2+x,1/2+y,z
4 1/2-x,1/2+y,1/2-z
5 -x,-y,-z
6 x,-y,1/2+z
7 1/2-x,1/2-y,-z
8 1/2+x,1/2-y,1/2+z
_cell_length_a                   11.5572(6)
_cell_length_b                   15.5085(8)
_cell_length_c                   20.8957(10)
_cell_angle_alpha                90
_cell_angle_beta                 94.733(5)
_cell_angle_gamma                90
_cell_volume                     3732.47
_exptl_crystal_colour            white
_cell_formula_units_Z            8
_exptl_crystal_recrystallization_method 
'Re-crystallisation from solvent: Hexane, ethyl acetate'
loop_
_atom_site_label
_atom_site_type_symbol
_atom_site_fract_x
_atom_site_fract_y
_atom_site_fract_z
S1 S 0.71312(4) 1.02727(3) 0.72977(2)
O1 O 0.70184(14) 1.11873(10) 0.72741(8)
N1 N 0.51338(14) 0.88046(11) 0.67030(8)
H1 H 0.4626 0.9166 0.6819
N2 N 0.66094(15) 0.98907(11) 0.65968(8)
C1 C 0.49637(17) 0.79480(13) 0.66424(9)
C2 C 0.68025(17) 0.82866(13) 0.63930(9)
C3 C 0.62349(17) 0.90201(13) 0.65528(9)
C4 C 0.60666(19) 0.66761(14) 0.62723(10)
C5 C 0.59848(17) 0.75893(13) 0.64385(9)
C6 C 0.64284(19) 1.04582(13) 0.60481(10)
C7 C 0.80504(17) 0.82614(13) 0.62671(9)
C8 C 0.84673(19) 0.87648(15) 0.57855(11)
H2 H 0.7952 0.9087 0.5516
C9 C 0.7366(2) 1.08139(16) 0.57744(12)
H3 H 0.8121 1.0698 0.5941
C10 C 0.9647(2) 0.87900(19) 0.57041(14)
H4 H 0.9917 0.9133 0.5383
C11 C 0.5303(2) 1.06293(15) 0.57977(12)
H5 H 0.4677 1.0392 0.5988
C12 C 0.7155(3) 1.13509(18) 0.52422(13)
H6 H 0.7777 1.1598 0.5054
C13 C 0.5116(3) 1.11559(18) 0.52624(13)
H7 H 0.4363 1.1262 0.5087
C14 C 0.6040(3) 1.15189(18) 0.49925(12)
H8 H 0.5913 1.1881 0.4639
C15 C 1.0016(2) 0.77912(18) 0.65685(12)
H9 H 1.0533 0.7455 0.6826
O2 O 0.65962(15) 0.98081(11) 0.77873(7)
O3 O 0.52939(15) 0.61692(10) 0.63809(9)
C16 C 0.88410(19) 0.77745(15) 0.66571(10)
H10 H 0.8576 0.7434 0.6981
C17 C 0.38297(19) 0.75608(15) 0.67825(11)
H11 H 0.3322 0.8006 0.6913
H12 H 0.3955 0.7144 0.7121
H13 H 0.3482 0.7283 0.6404
C18 C 0.86046(19) 1.00007(17) 0.73727(12)
H14 H 0.8954 1.0209 0.7776
H15 H 0.8983 1.0258 0.7028
H16 H 0.8685 0.9385 0.7355
C19 C 0.7098(2) 0.63459(16) 0.59547(13)
H17 H 0.7014 0.5738 0.5879
H18 H 0.7792 0.6451 0.6229
H19 H 0.7149 0.6638 0.5553
C20 C 1.0418(2) 0.83111(19) 0.60942(13)
H20 H 1.1208 0.8336 0.6040
loop_
_geom_bond_atom_site_label_1
_geom_bond_atom_site_label_2
_geom_bond_site_symmetry_1
_geom_bond_site_symmetry_2
S1 O1 1_555 1_555
N1 H1 1_555 1_555
N2 S1 1_555 1_555
C1 N1 1_555 1_555
C2 C3 1_555 1_555
C3 N1 1_555 1_555
C4 C5 1_555 1_555
C5 C1 1_555 1_555
C6 N2 1_555 1_555
C7 C2 1_555 1_555
C8 C7 1_555 1_555
H2 C8 1_555 1_555
C9 C6 1_555 1_555
H3 C9 1_555 1_555
C10 C8 1_555 1_555
H4 C10 1_555 1_555
C11 C6 1_555 1_555
H5 C11 1_555 1_555
C12 C9 1_555 1_555
H6 C12 1_555 1_555
C13 C11 1_555 1_555
H7 C13 1_555 1_555
C14 C12 1_555 1_555
H8 C14 1_555 1_555
C15 H9 1_555 1_555
O2 S1 1_555 1_555
O3 C4 1_555 1_555
C16 C7 1_555 1_555
H10 C16 1_555 1_555
C17 C1 1_555 1_555
H11 C17 1_555 1_555
H12 C17 1_555 1_555
H13 C17 1_555 1_555
C18 S1 1_555 1_555
H14 C18 1_555 1_555
H15 C18 1_555 1_555
H16 C18 1_555 1_555
C19 C4 1_555 1_555
H17 C19 1_555 1_555
H18 C19 1_555 1_555
H19 C19 1_555 1_555
C20 C10 1_555 1_555
H20 C20 1_555 1_555
N2 C3 1_555 1_555
C2 C5 1_555 1_555
C13 C14 1_555 1_555
C15 C16 1_555 1_555
C15 C20 1_555 1_555

#END
