
#######################################################################
#
#                 Cambridge Crystallographic Data Centre
#                                CCDC 
#
#######################################################################
#
# If this CIF has been generated from an entry in the Cambridge 
# Structural Database, then it will include bibliographic, chemical, 
# crystal, experimental, refinement or atomic coordinate data resulting 
# from the CCDC's data processing and validation procedures.
#
#######################################################################

data_KOXFIO
_chemical_formula_moiety         'C34 H24 N12,2.2(H2 O1)'
_chemical_name_systematic        
"1,1',1'',1'''-(ethene-1,1,2,2-tetrayltetra-4,1-phenylene)tetrakis(1H-1,2,4-triazole) hydrate"
_symmetry_cell_setting           monoclinic
_symmetry_space_group_name_H-M   'I 2/c'
_symmetry_Int_Tables_number      15
_space_group_name_Hall           '-I 2yc'
loop_
_symmetry_equiv_pos_site_id
_symmetry_equiv_pos_as_xyz
1 x,y,z
2 -x,y,1/2-z
3 1/2+x,1/2+y,1/2+z
4 1/2-x,1/2+y,-z
5 -x,-y,-z
6 x,-y,1/2+z
7 1/2-x,1/2-y,1/2-z
8 1/2+x,1/2-y,z
_cell_length_a                   24.267(2)
_cell_length_b                   5.3032(3)
_cell_length_c                   26.606(2)
_cell_angle_alpha                90
_cell_angle_beta                 108.985(10)
_cell_angle_gamma                90
_cell_volume                     3237.75
_cell_formula_units_Z            4
loop_
_atom_site_label
_atom_site_type_symbol
_atom_site_fract_x
_atom_site_fract_y
_atom_site_fract_z
N1 N 0.28932(12) 0.8091(5) 0.82333(11)
N2 N 0.25660(14) 1.0201(6) 0.82037(14)
N3 N 0.23782(15) 0.7359(7) 0.87474(13)
N4 N 0.41372(13) 0.8573(5) 0.50899(11)
N5 N 0.42098(17) 1.0722(7) 0.48452(13)
N6 N 0.3872(2) 0.7680(8) 0.42397(14)
C1 C 0.47208(14) 0.8028(5) 0.73362(12)
C2 C 0.42202(14) 0.7915(6) 0.75379(12)
C3 C 0.41789(15) 0.6084(6) 0.78965(13)
H1 H 0.4459 0.4817 0.7992
C4 C 0.37367(15) 0.6083(6) 0.81154(13)
H2 H 0.3717 0.4826 0.8353
C5 C 0.33202(14) 0.7983(6) 0.79770(12)
C6 C 0.33358(14) 0.9778(6) 0.76069(12)
H3 H 0.3052 1.1026 0.7507
C7 C 0.37774(14) 0.9703(6) 0.73853(13)
H4 H 0.3779 1.0882 0.7127
C8 C 0.27730(17) 0.6434(8) 0.85624(15)
H5 H 0.2945 0.4856 0.8647
C9 C 0.22671(18) 0.9637(9) 0.85246(17)
H6 H 0.2000 1.0741 0.8590
C10 C 0.45702(14) 0.8188(6) 0.67463(12)
C11 C 0.47828(16) 1.0076(6) 0.65063(14)
H7 H 0.5028 1.1289 0.6717
C12 C 0.46438(16) 1.0224(7) 0.59622(13)
H8 H 0.4795 1.1514 0.5809
C13 C 0.42785(15) 0.8446(6) 0.56465(13)
C14 C 0.40585(15) 0.6526(7) 0.58738(14)
H9 H 0.3816 0.5310 0.5661
C15 C 0.42004(14) 0.6422(7) 0.64203(13)
H10 H 0.4045 0.5144 0.6573
C16 C 0.3946(3) 0.6858(9) 0.47244(18)
H11 H 0.3868 0.5207 0.4798
C17 C 0.40478(19) 1.0025(9) 0.43413(16)
H12 H 0.4057 1.1133 0.4073
N1A N 0.71068(12) 0.8091(5) 0.67667(11)
N2A N 0.74340(14) 1.0201(6) 0.67963(14)
N3A N 0.76218(15) 0.7359(7) 0.62526(13)
N4A N 0.58628(13) 0.8573(5) 0.99101(11)
N5A N 0.57902(17) 1.0722(7) 1.01548(13)
N6A N 0.6128(2) 0.7680(8) 1.07603(14)
C1A C 0.52792(14) 0.8028(5) 0.76638(12)
C2A C 0.57798(14) 0.7915(6) 0.74621(12)
C3A C 0.58211(15) 0.6084(6) 0.71035(13)
H1A H 0.5541 0.4817 0.7008
C4A C 0.62633(15) 0.6083(6) 0.68846(13)
H2A H 0.6283 0.4826 0.6647
C5A C 0.66798(14) 0.7983(6) 0.70230(12)
C6A C 0.66642(14) 0.9778(6) 0.73931(12)
H3A H 0.6948 1.1026 0.7493
C7A C 0.62226(14) 0.9703(6) 0.76147(13)
H4A H 0.6221 1.0882 0.7873
C8A C 0.72270(17) 0.6434(8) 0.64376(15)
H5A H 0.7055 0.4856 0.6353
C9A C 0.77329(18) 0.9637(9) 0.64754(17)
H6A H 0.8000 1.0741 0.6410
C10A C 0.54298(14) 0.8188(6) 0.82537(12)
C11A C 0.52172(16) 1.0076(6) 0.84937(14)
H7A H 0.4972 1.1289 0.8283
C12A C 0.53562(16) 1.0224(7) 0.90378(13)
H8A H 0.5205 1.1514 0.9191
C13A C 0.57215(15) 0.8446(6) 0.93535(13)
C14A C 0.59415(15) 0.6526(7) 0.91262(14)
H9A H 0.6184 0.5310 0.9339
C15A C 0.57996(14) 0.6422(7) 0.85797(13)
H10A H 0.5955 0.5144 0.8427
C16A C 0.6054(3) 0.6858(9) 1.02756(18)
H11A H 0.6132 0.5207 1.0202
C17A C 0.59522(19) 1.0025(9) 1.06587(16)
H12A H 0.5943 1.1133 1.0927
H13? H 0.2226 0.6661 0.8963
loop_
_geom_bond_atom_site_label_1
_geom_bond_atom_site_label_2
_geom_bond_site_symmetry_1
_geom_bond_site_symmetry_2
N1 N2 1_555 1_555
N2 C9 1_555 1_555
N3 C8 1_555 1_555
N4 N5 1_555 1_555
N5 C17 1_555 1_555
N6 C16 1_555 1_555
C1 C2 1_555 1_555
C2 C3 1_555 1_555
C3 H1 1_555 1_555
C4 C3 1_555 1_555
H2 C4 1_555 1_555
C5 N1 1_555 1_555
C6 C5 1_555 1_555
H3 C6 1_555 1_555
C7 C2 1_555 1_555
H4 C7 1_555 1_555
C8 N1 1_555 1_555
H5 C8 1_555 1_555
C9 N3 1_555 1_555
H6 C9 1_555 1_555
C10 C1 1_555 1_555
C11 C10 1_555 1_555
H7 C11 1_555 1_555
C12 C11 1_555 1_555
H8 C12 1_555 1_555
C13 N4 1_555 1_555
C14 C13 1_555 1_555
H9 C14 1_555 1_555
C15 C10 1_555 1_555
H10 C15 1_555 1_555
C16 N4 1_555 1_555
H11 C16 1_555 1_555
C17 N6 1_555 1_555
H12 C17 1_555 1_555
N1A N2A 1_555 1_555
N2A C9A 1_555 1_555
N3A C8A 1_555 1_555
N4A N5A 1_555 1_555
N5A C17A 1_555 1_555
N6A C16A 1_555 1_555
C1A C1 1_555 1_555
C2A C1A 1_555 1_555
C3A C2A 1_555 1_555
H1A C3A 1_555 1_555
C4A C3A 1_555 1_555
H2A C4A 1_555 1_555
C5A N1A 1_555 1_555
C6A C5A 1_555 1_555
H3A C6A 1_555 1_555
C7A C2A 1_555 1_555
H4A C7A 1_555 1_555
C8A N1A 1_555 1_555
H5A C8A 1_555 1_555
C9A N3A 1_555 1_555
H6A C9A 1_555 1_555
C10A C1A 1_555 1_555
C11A C10A 1_555 1_555
H7A C11A 1_555 1_555
C12A C11A 1_555 1_555
H8A C12A 1_555 1_555
C13A N4A 1_555 1_555
C14A C13A 1_555 1_555
H9A C14A 1_555 1_555
C15A C10A 1_555 1_555
H10A C15A 1_555 1_555
C16A N4A 1_555 1_555
H11A C16A 1_555 1_555
C17A N6A 1_555 1_555
H12A C17A 1_555 1_555
C4 C5 1_555 1_555
C6 C7 1_555 1_555
C12 C13 1_555 1_555
C14 C15 1_555 1_555
C4A C5A 1_555 1_555
C6A C7A 1_555 1_555
C12A C13A 1_555 1_555
C14A C15A 1_555 1_555

#END
