
#######################################################################
#
#                 Cambridge Crystallographic Data Centre
#                                CCDC 
#
#######################################################################
#
# If this CIF has been generated from an entry in the Cambridge 
# Structural Database, then it will include bibliographic, chemical, 
# crystal, experimental, refinement or atomic coordinate data resulting 
# from the CCDC's data processing and validation procedures.
#
#######################################################################

data_KOXHUC
_chemical_formula_moiety         'C20 H19 N3 O3'
_chemical_name_systematic        
2-methyl-4-nitro-3-phenyl-1-(1-phenyl-1H-imidazol-2-yl)butan-1-one
_symmetry_cell_setting           monoclinic
_symmetry_space_group_name_H-M   'P 21'
_symmetry_Int_Tables_number      4
_space_group_name_Hall           'P 2yb'
loop_
_symmetry_equiv_pos_site_id
_symmetry_equiv_pos_as_xyz
1 x,y,z
2 -x,1/2+y,-z
_cell_length_a                   7.88906(7)
_cell_length_b                   21.6859(2)
_cell_length_c                   10.32145(10)
_cell_angle_alpha                90
_cell_angle_beta                 97.3074(9)
_cell_angle_gamma                90
_cell_volume                     1751.47
_exptl_crystal_colour            colorless
_exptl_crystal_description       block
_cell_formula_units_Z            4
loop_
_atom_site_label
_atom_site_type_symbol
_atom_site_fract_x
_atom_site_fract_y
_atom_site_fract_z
O1 O 0.71342(17) -0.01278(5) 1.39478(12)
O2 O 1.2068(2) 0.15007(7) 1.34800(16)
O3 O 1.2023(2) 0.19067(7) 1.15726(16)
N1 N 0.71618(17) -0.12517(6) 1.24583(15)
N2 N 0.70285(19) -0.06570(7) 1.06830(15)
N3 N 1.1370(2) 0.16027(7) 1.23818(16)
C1 C 0.8776(2) -0.13153(7) 1.46442(18)
H1 H 0.9621 -0.1064 1.4376
C2 C 0.8937(3) -0.15421(8) 1.59059(19)
H2 H 0.9887 -0.1438 1.6493
C3 C 0.7691(3) -0.19236(9) 1.6302(2)
H3 H 0.7809 -0.2076 1.7151
C4 C 0.6275(3) -0.20779(9) 1.5436(2)
H4 H 0.5443 -0.2336 1.5703
C5 C 0.6087(3) -0.18500(9) 1.4171(2)
H5 H 0.5131 -0.1952 1.3587
C6 C 0.7344(2) -0.14669(7) 1.37845(18)
C7 C 0.6938(2) -0.16318(8) 1.13912(19)
H6 H 0.6856 -0.2060 1.1396
C8 C 0.6860(2) -0.12608(9) 1.03246(19)
H7 H 0.6712 -0.1400 0.9466
C9 C 0.72066(19) -0.06609(7) 1.19782(16)
C10 C 0.72714(19) -0.01009(8) 1.27919(16)
C11 C 0.7475(2) 0.05162(7) 1.21277(15)
H8 H 0.7338 0.0457 1.1179
C12 C 0.6086(2) 0.09570(8) 1.2485(2)
H9 H 0.4993 0.0756 1.2337
H10 H 0.6067 0.1320 1.1952
H11 H 0.6327 0.1070 1.3388
C13 C 0.9322(2) 0.07385(7) 1.25947(15)
H12 H 0.9447 0.0787 1.3546
C14 C 0.9591(2) 0.13662(7) 1.19848(17)
H13 H 0.9387 0.1331 1.1041
H14 H 0.8774 0.1658 1.2256
C15 C 1.0619(2) 0.02631(7) 1.22591(16)
C16 C 1.0768(2) 0.01189(8) 1.09653(16)
H15 H 1.0120 0.0334 1.0297
C17 C 1.1875(2) -0.03429(8) 1.06592(18)
H16 H 1.1970 -0.0433 0.9790
C18 C 1.2836(2) -0.06684(8) 1.16469(19)
H17 H 1.3566 -0.0980 1.1443
C19 C 1.2706(2) -0.05281(8) 1.29379(18)
H18 H 1.3354 -0.0746 1.3603
C20 C 1.1609(2) -0.00621(8) 1.32453(17)
H19 H 1.1537 0.0033 1.4115
O4 O 0.82816(15) 0.10703(5) 0.88299(11)
O5 O 0.4050(3) -0.08042(9) 0.79945(16)
O6 O 0.2796(2) -0.08424(12) 0.60663(18)
N4 N 0.80893(17) 0.22498(6) 0.74958(15)
N5 N 0.82015(19) 0.17048(7) 0.56705(15)
N6 N 0.39737(19) -0.06857(6) 0.68393(14)
C21 C 0.8858(3) 0.28422(9) 0.9478(2)
H20 H 0.9829 0.2983 0.9144
C22 C 0.8486(3) 0.30445(9) 1.0691(2)
H21 H 0.9201 0.3329 1.1163
C23 C 0.7068(3) 0.28274(9) 1.1198(2)
H22 H 0.6839 0.2959 1.2015
C24 C 0.5981(3) 0.24114(9) 1.0487(2)
H23 H 0.5024 0.2264 1.0829
C25 C 0.6322(2) 0.22144(8) 0.92635(18)
H24 H 0.5586 0.1941 0.8778
C26 C 0.7764(2) 0.24290(7) 0.87767(17)
C27 C 0.8370(3) 0.26583(8) 0.6528(2)
H25 H 0.8485 0.3084 0.6606
C28 C 0.8446(3) 0.23161(9) 0.5437(2)
H26 H 0.8639 0.2477 0.4633
C29 C 0.80017(19) 0.16743(8) 0.69227(16)
C30 C 0.79691(18) 0.10878(7) 0.76463(16)
C31 C 0.7576(2) 0.05094(7) 0.68350(16)
H27 H 0.7276 0.0625 0.5916
C32 C 0.9193(2) 0.01075(8) 0.6973(2)
H28 H 0.9444 -0.0030 0.7860
H29 H 1.0136 0.0345 0.6740
H30 H 0.9009 -0.0243 0.6404
C33 C 0.6034(2) 0.01827(7) 0.73247(15)
H31 H 0.6419 -0.0009 0.8171
C34 C 0.5381(2) -0.03223(8) 0.63601(16)
H32 H 0.4966 -0.0137 0.5524
H33 H 0.6316 -0.0597 0.6231
C35 C 0.46267(19) 0.06411(7) 0.75035(15)
C36 C 0.4060(2) 0.06977(9) 0.87242(18)
H34 H 0.4492 0.0438 0.9404
C37 C 0.2850(2) 0.11412(10) 0.8928(2)
H35 H 0.2481 0.1179 0.9744
C38 C 0.2199(2) 0.15248(9) 0.7924(3)
H36 H 0.1399 0.1824 0.8070
C39 C 0.2723(2) 0.14700(9) 0.6702(2)
H37 H 0.2269 0.1728 0.6025
C40 C 0.3935(2) 0.10263(8) 0.64913(18)
H38 H 0.4285 0.0987 0.5668
loop_
_geom_bond_atom_site_label_1
_geom_bond_atom_site_label_2
_geom_bond_site_symmetry_1
_geom_bond_site_symmetry_2
O1 C10 1_555 1_555
O2 N3 1_555 1_555
O3 N3 1_555 1_555
N1 C6 1_555 1_555
N2 C8 1_555 1_555
N3 C14 1_555 1_555
C1 H1 1_555 1_555
C2 C1 1_555 1_555
H2 C2 1_555 1_555
C3 C2 1_555 1_555
H3 C3 1_555 1_555
C4 C3 1_555 1_555
H4 C4 1_555 1_555
C5 C4 1_555 1_555
H5 C5 1_555 1_555
C6 C1 1_555 1_555
C7 N1 1_555 1_555
H6 C7 1_555 1_555
C8 C7 1_555 1_555
H7 C8 1_555 1_555
C9 N1 1_555 1_555
C10 C9 1_555 1_555
C11 C10 1_555 1_555
H8 C11 1_555 1_555
C12 C11 1_555 1_555
H9 C12 1_555 1_555
H10 C12 1_555 1_555
H11 C12 1_555 1_555
C13 C11 1_555 1_555
H12 C13 1_555 1_555
C14 C13 1_555 1_555
H13 C14 1_555 1_555
H14 C14 1_555 1_555
C15 C13 1_555 1_555
C16 C15 1_555 1_555
H15 C16 1_555 1_555
C17 C16 1_555 1_555
H16 C17 1_555 1_555
C18 C17 1_555 1_555
H17 C18 1_555 1_555
C19 C18 1_555 1_555
H18 C19 1_555 1_555
C20 C15 1_555 1_555
H19 C20 1_555 1_555
O4 C30 1_555 1_555
O5 N6 1_555 1_555
O6 N6 1_555 1_555
N4 C26 1_555 1_555
N5 C28 1_555 1_555
N6 C34 1_555 1_555
C21 H20 1_555 1_555
C22 C21 1_555 1_555
H21 C22 1_555 1_555
C23 C22 1_555 1_555
H22 C23 1_555 1_555
C24 C23 1_555 1_555
H23 C24 1_555 1_555
C25 C24 1_555 1_555
H24 C25 1_555 1_555
C26 C21 1_555 1_555
C27 N4 1_555 1_555
H25 C27 1_555 1_555
C28 C27 1_555 1_555
H26 C28 1_555 1_555
C29 N4 1_555 1_555
C30 C29 1_555 1_555
C31 C30 1_555 1_555
H27 C31 1_555 1_555
C32 C31 1_555 1_555
H28 C32 1_555 1_555
H29 C32 1_555 1_555
H30 C32 1_555 1_555
C33 C31 1_555 1_555
H31 C33 1_555 1_555
C34 C33 1_555 1_555
H32 C34 1_555 1_555
H33 C34 1_555 1_555
C35 C33 1_555 1_555
C36 C35 1_555 1_555
H34 C36 1_555 1_555
C37 C36 1_555 1_555
H35 C37 1_555 1_555
C38 C37 1_555 1_555
H36 C38 1_555 1_555
C39 C38 1_555 1_555
H37 C39 1_555 1_555
C40 C35 1_555 1_555
H38 C40 1_555 1_555
N2 C9 1_555 1_555
C5 C6 1_555 1_555
C19 C20 1_555 1_555
N5 C29 1_555 1_555
C25 C26 1_555 1_555
C39 C40 1_555 1_555

#END
