
#######################################################################
#
#                 Cambridge Crystallographic Data Centre
#                                CCDC 
#
#######################################################################
#
# If this CIF has been generated from an entry in the Cambridge 
# Structural Database, then it will include bibliographic, chemical, 
# crystal, experimental, refinement or atomic coordinate data resulting 
# from the CCDC's data processing and validation procedures.
#
#######################################################################

data_KOXHOW
_chemical_formula_moiety         'C27 H23 Br1 O4'
_chemical_name_systematic        
'benzyl 2-(1-bromo-2-phenylethyl)-6-oxo-4-phenyl-3,6-dihydro-2H-pyran-2-carboxylate'
_symmetry_cell_setting           orthorhombic
_symmetry_space_group_name_H-M   'P 21 21 21'
_symmetry_Int_Tables_number      19
_space_group_name_Hall           'P 2ac 2ab'
loop_
_symmetry_equiv_pos_site_id
_symmetry_equiv_pos_as_xyz
1 x,y,z
2 1/2-x,-y,1/2+z
3 -x,1/2+y,1/2-z
4 1/2+x,1/2-y,-z
_cell_length_a                   6.784(2)
_cell_length_b                   13.079(5)
_cell_length_c                   26.532(10)
_cell_angle_alpha                90
_cell_angle_beta                 90
_cell_angle_gamma                90
_cell_volume                     2354.13
_exptl_crystal_colour            colorless
_exptl_crystal_description       plate
_cell_formula_units_Z            4
loop_
_atom_site_label
_atom_site_type_symbol
_atom_site_fract_x
_atom_site_fract_y
_atom_site_fract_z
Br1 Br 0.70822(8) 0.28414(5) 0.13727(2)
O1 O 0.5849(5) 0.1073(3) 0.21469(13)
O2 O 0.7058(6) -0.0394(3) 0.24276(15)
O3 O 0.8760(5) 0.2145(3) 0.25903(15)
O4 O 0.6925(5) 0.3587(3) 0.25953(13)
C1 C 0.5360(6) 0.2111(4) 0.22917(18)
C2 C 0.4760(7) 0.2694(4) 0.18110(19)
H1 H 0.4347 0.3382 0.1913
C3 C 0.3067(8) 0.2220(4) 0.15044(18)
H2 H 0.3481 0.1564 0.1371
H3 H 0.1942 0.2106 0.1723
C4 C 0.2472(7) 0.2915(4) 0.10746(19)
C5 C 0.2929(10) 0.2659(5) 0.0581(2)
H4 H 0.3584 0.2051 0.0511
C6 C 0.2409(13) 0.3313(7) 0.0194(3)
H5 H 0.2706 0.3138 -0.0137
C7 C 0.1452(12) 0.4223(7) 0.0293(3)
H6 H 0.1121 0.4659 0.0029
C8 C 0.0989(10) 0.4484(6) 0.0779(3)
H7 H 0.0339 0.5095 0.0846
C9 C 0.1499(8) 0.3828(4) 0.1174(3)
H8 H 0.1185 0.4003 0.1504
C10 C 0.3728(6) 0.2128(4) 0.26835(17)
H9 H 0.3526 0.2822 0.2801
H10 H 0.2508 0.1890 0.2534
C11 C 0.4277(7) 0.1449(4) 0.31225(19)
C12 C 0.5497(8) 0.0656(4) 0.3035(2)
H11 H 0.5890 0.0251 0.3305
C13 C 0.6224(7) 0.0410(4) 0.2532(2)
C14 C 0.3464(7) 0.1655(4) 0.3627(2)
C15 C 0.4449(10) 0.1317(5) 0.4063(2)
H12 H 0.5631 0.0962 0.4034
C16 C 0.3670(11) 0.1509(6) 0.4529(2)
H13 H 0.4335 0.1284 0.4815
C17 C 0.1914(13) 0.2030(5) 0.4582(2)
H14 H 0.1394 0.2149 0.4901
C18 C 0.0944(12) 0.2371(5) 0.4163(3)
H15 H -0.0234 0.2728 0.4198
C19 C 0.1698(8) 0.2192(4) 0.3688(2)
H16 H 0.1026 0.2429 0.3406
C20 C 0.7242(8) 0.2597(4) 0.25066(18)
C21 C 0.8544(8) 0.4204(4) 0.2788(2)
H17 H 0.8600 0.4844 0.2604
H18 H 0.9777 0.3845 0.2733
C22 C 0.8304(8) 0.4422(4) 0.3340(2)
C23 C 0.9818(9) 0.4930(5) 0.3592(2)
H19 H 1.0969 0.5096 0.3420
C24 C 0.9632(12) 0.5186(5) 0.4089(2)
H20 H 1.0651 0.5527 0.4252
C25 C 0.7929(14) 0.4938(5) 0.4352(2)
H21 H 0.7802 0.5115 0.4690
C26 C 0.6427(12) 0.4429(5) 0.4108(3)
H22 H 0.5287 0.4254 0.4283
C27 C 0.6614(9) 0.4176(4) 0.3604(2)
H23 H 0.5591 0.3837 0.3441
loop_
_geom_bond_atom_site_label_1
_geom_bond_atom_site_label_2
_geom_bond_site_symmetry_1
_geom_bond_site_symmetry_2
Br1 C2 1_555 1_555
O1 C1 1_555 1_555
O2 C13 1_555 1_555
O3 C20 1_555 1_555
O4 C20 1_555 1_555
C1 C2 1_555 1_555
C2 H1 1_555 1_555
C3 C2 1_555 1_555
H2 C3 1_555 1_555
H3 C3 1_555 1_555
C4 C3 1_555 1_555
C5 C4 1_555 1_555
H4 C5 1_555 1_555
C6 C5 1_555 1_555
H5 C6 1_555 1_555
C7 C6 1_555 1_555
H6 C7 1_555 1_555
C8 C7 1_555 1_555
H7 C8 1_555 1_555
C9 C4 1_555 1_555
H8 C9 1_555 1_555
C10 C1 1_555 1_555
H9 C10 1_555 1_555
H10 C10 1_555 1_555
C11 C10 1_555 1_555
C12 C11 1_555 1_555
H11 C12 1_555 1_555
C13 O1 1_555 1_555
C14 C11 1_555 1_555
C15 C14 1_555 1_555
H12 C15 1_555 1_555
C16 C15 1_555 1_555
H13 C16 1_555 1_555
C17 C16 1_555 1_555
H14 C17 1_555 1_555
C18 C17 1_555 1_555
H15 C18 1_555 1_555
C19 C14 1_555 1_555
H16 C19 1_555 1_555
C20 C1 1_555 1_555
C21 O4 1_555 1_555
H17 C21 1_555 1_555
H18 C21 1_555 1_555
C22 C21 1_555 1_555
C23 C22 1_555 1_555
H19 C23 1_555 1_555
C24 C23 1_555 1_555
H20 C24 1_555 1_555
C25 C24 1_555 1_555
H21 C25 1_555 1_555
C26 C25 1_555 1_555
H22 C26 1_555 1_555
C27 C22 1_555 1_555
H23 C27 1_555 1_555
C8 C9 1_555 1_555
C12 C13 1_555 1_555
C18 C19 1_555 1_555
C26 C27 1_555 1_555

#END
