
#######################################################################
#
#                 Cambridge Crystallographic Data Centre
#                                CCDC 
#
#######################################################################
#
# If this CIF has been generated from an entry in the Cambridge 
# Structural Database, then it will include bibliographic, chemical, 
# crystal, experimental, refinement or atomic coordinate data resulting 
# from the CCDC's data processing and validation procedures.
#
#######################################################################

data_KOXJOY
_chemical_formula_moiety         'C22 H16 N2'
_chemical_name_systematic        1-benzylimidazo[1,5-f]phenanthridine
_symmetry_cell_setting           monoclinic
_symmetry_space_group_name_H-M   'P 21/c'
_symmetry_Int_Tables_number      14
_space_group_name_Hall           '-P 2ybc'
loop_
_symmetry_equiv_pos_site_id
_symmetry_equiv_pos_as_xyz
1 x,y,z
2 -x,1/2+y,1/2-z
3 -x,-y,-z
4 x,1/2-y,1/2+z
_cell_length_a                   10.7013(16)
_cell_length_b                   4.5137(5)
_cell_length_c                   32.685(4)
_cell_angle_alpha                90
_cell_angle_beta                 96.204(10)
_cell_angle_gamma                90
_cell_volume                     1569.52
_exptl_crystal_colour            colorless
_exptl_crystal_description       prism
_cell_formula_units_Z            4
loop_
_atom_site_label
_atom_site_type_symbol
_atom_site_fract_x
_atom_site_fract_y
_atom_site_fract_z
N1 N 0.11540(16) 0.8785(4) 0.18257(5)
N2 N -0.03877(17) 0.5816(4) 0.19755(5)
C1 C 0.06781(19) 0.7422(5) 0.14582(6)
C2 C -0.02733(19) 0.5573(5) 0.15597(6)
C3 C 0.0475(2) 0.7730(5) 0.21253(6)
H1 H 0.0607 0.8304 0.2406
C4 C 0.2170(2) 1.0797(5) 0.18621(6)
C5 C 0.2609(2) 1.2012(5) 0.22438(7)
H2 H 0.2215 1.1512 0.2481
C6 C 0.3617(2) 1.3942(5) 0.22746(7)
H3 H 0.3918 1.4769 0.2534
C7 C 0.4192(2) 1.4676(6) 0.19248(7)
H4 H 0.4891 1.5987 0.1946
C8 C 0.3744(2) 1.3494(5) 0.15469(7)
H5 H 0.4138 1.4030 0.1311
C9 C 0.2723(2) 1.1522(5) 0.15025(6)
C10 C 0.22068(19) 1.0294(5) 0.11017(6)
C11 C 0.2662(2) 1.1148(5) 0.07318(7)
H6 H 0.3340 1.2513 0.0740
C12 C 0.2146(2) 1.0046(6) 0.03566(7)
H7 H 0.2474 1.0646 0.0111
C13 C 0.1153(2) 0.8071(6) 0.03383(6)
H8 H 0.0799 0.7322 0.0080
C14 C 0.0675(2) 0.7181(5) 0.06954(6)
H9 H -0.0011 0.5834 0.0680
C15 C 0.1194(2) 0.8253(5) 0.10822(6)
C16 C -0.1119(2) 0.3475(5) 0.13035(6)
H10 H -0.1406 0.1929 0.1487
H11 H -0.0619 0.2478 0.1106
C17 C -0.22657(19) 0.4859(5) 0.10645(6)
C18 C -0.2596(2) 0.4107(6) 0.06543(7)
H12 H -0.2087 0.2757 0.0523
C19 C -0.3662(2) 0.5303(6) 0.04329(7)
H13 H -0.3873 0.4773 0.0153
C20 C -0.4411(2) 0.7257(6) 0.06200(8)
H14 H -0.5139 0.8079 0.0470
C21 C -0.4095(2) 0.8017(6) 0.10302(8)
H15 H -0.4610 0.9362 0.1160
C22 C -0.3035(2) 0.6828(5) 0.12513(7)
H16 H -0.2831 0.7357 0.1532
loop_
_geom_bond_atom_site_label_1
_geom_bond_atom_site_label_2
_geom_bond_site_symmetry_1
_geom_bond_site_symmetry_2
N1 C1 1_555 1_555
N2 C2 1_555 1_555
C1 C2 1_555 1_555
C2 C16 1_555 1_555
C3 N1 1_555 1_555
H1 C3 1_555 1_555
C4 N1 1_555 1_555
C5 C4 1_555 1_555
H2 C5 1_555 1_555
C6 C5 1_555 1_555
H3 C6 1_555 1_555
C7 C6 1_555 1_555
H4 C7 1_555 1_555
C8 C7 1_555 1_555
H5 C8 1_555 1_555
C9 C4 1_555 1_555
C10 C9 1_555 1_555
C11 C10 1_555 1_555
H6 C11 1_555 1_555
C12 C11 1_555 1_555
H7 C12 1_555 1_555
C13 C12 1_555 1_555
H8 C13 1_555 1_555
C14 C13 1_555 1_555
H9 C14 1_555 1_555
C15 C1 1_555 1_555
C16 H10 1_555 1_555
H11 C16 1_555 1_555
C17 C16 1_555 1_555
C18 C17 1_555 1_555
H12 C18 1_555 1_555
C19 C18 1_555 1_555
H13 C19 1_555 1_555
C20 C19 1_555 1_555
H14 C20 1_555 1_555
C21 C20 1_555 1_555
H15 C21 1_555 1_555
C22 C17 1_555 1_555
H16 C22 1_555 1_555
N2 C3 1_555 1_555
C8 C9 1_555 1_555
C10 C15 1_555 1_555
C14 C15 1_555 1_555
C21 C22 1_555 1_555

#END
