
#######################################################################
#
#                 Cambridge Crystallographic Data Centre
#                                CCDC 
#
#######################################################################
#
# If this CIF has been generated from an entry in the Cambridge 
# Structural Database, then it will include bibliographic, chemical, 
# crystal, experimental, refinement or atomic coordinate data resulting 
# from the CCDC's data processing and validation procedures.
#
#######################################################################

data_KOXKAL
_chemical_formula_moiety         'C12 H10 O2'
_chemical_name_systematic        
1-acetyl-1a,6a-dihydrocyclopropa[a]inden-6(1H)-one
_symmetry_cell_setting           orthorhombic
_symmetry_space_group_name_H-M   'P 21 21 21'
_symmetry_Int_Tables_number      19
_space_group_name_Hall           'P 2ac 2ab'
loop_
_symmetry_equiv_pos_site_id
_symmetry_equiv_pos_as_xyz
1 x,y,z
2 1/2-x,-y,1/2+z
3 -x,1/2+y,1/2-z
4 1/2+x,1/2-y,-z
_cell_length_a                   5.1805(6)
_cell_length_b                   6.8413(8)
_cell_length_c                   26.540(3)
_cell_angle_alpha                90
_cell_angle_beta                 90
_cell_angle_gamma                90
_cell_volume                     940.614
_exptl_crystal_colour            colorless
_exptl_crystal_description       rod
_cell_formula_units_Z            4
loop_
_atom_site_label
_atom_site_type_symbol
_atom_site_fract_x
_atom_site_fract_y
_atom_site_fract_z
C1 C 0.6893(4) 0.4518(3) 0.28745(7)
C2 C 0.8416(3) 0.4257(2) 0.24070(6)
C3 C 0.7098(3) 0.4721(2) 0.19228(5)
C4 C 0.7619(3) 0.3431(2) 0.14674(5)
C5 C 0.5595(3) 0.3559(2) 0.10698(5)
C6 C 0.3909(4) 0.2146(3) 0.08969(6)
C7 C 0.2138(4) 0.2654(3) 0.05259(6)
C8 C 0.2044(4) 0.4537(3) 0.03317(6)
C9 C 0.3715(4) 0.5949(3) 0.05027(6)
C10 C 0.5495(3) 0.5456(2) 0.08705(5)
C11 C 0.7542(3) 0.6653(2) 0.11073(6)
C12 C 0.8829(3) 0.5403(2) 0.14927(6)
H1 H 0.536(3) 0.523(2) 0.1958(5)
H2 H 0.860(3) 0.219(3) 0.1521(6)
H3 H 0.397(4) 0.085(3) 0.1036(7)
H4 H 0.095(5) 0.161(4) 0.0422(8)
H5 H 0.076(4) 0.481(3) 0.0064(7)
H6 H 0.367(4) 0.730(4) 0.0352(8)
H7 H 1.061(5) 0.556(3) 0.1573(7)
H8 H 0.781(5) 0.411(3) 0.3150(9)
H9 H 0.525(5) 0.397(3) 0.2854(8)
H10 H 0.647(5) 0.594(4) 0.2924(9)
O1 O 1.0650(2) 0.3710(2) 0.24112(5)
O2 O 0.8114(3) 0.83358(19) 0.10023(6)
loop_
_geom_bond_atom_site_label_1
_geom_bond_atom_site_label_2
_geom_bond_site_symmetry_1
_geom_bond_site_symmetry_2
C1 C2 1_555 1_555
C2 C3 1_555 1_555
C3 C4 1_555 1_555
C4 C5 1_555 1_555
C5 C6 1_555 1_555
C6 C7 1_555 1_555
C7 C8 1_555 1_555
C8 C9 1_555 1_555
C9 C10 1_555 1_555
C10 C5 1_555 1_555
C11 C10 1_555 1_555
C12 C3 1_555 1_555
H1 C3 1_555 1_555
H2 C4 1_555 1_555
H3 C6 1_555 1_555
H4 C7 1_555 1_555
H5 C8 1_555 1_555
H6 C9 1_555 1_555
H7 C12 1_555 1_555
H8 C1 1_555 1_555
H9 C1 1_555 1_555
H10 C1 1_555 1_555
O1 C2 1_555 1_555
O2 C11 1_555 1_555
C4 C12 1_555 1_555
C11 C12 1_555 1_555

#END
