
#######################################################################
#
#                 Cambridge Crystallographic Data Centre
#                                CCDC 
#
#######################################################################
#
# If this CIF has been generated from an entry in the Cambridge 
# Structural Database, then it will include bibliographic, chemical, 
# crystal, experimental, refinement or atomic coordinate data resulting 
# from the CCDC's data processing and validation procedures.
#
#######################################################################

data_KOXNIW01
_chemical_formula_moiety         'C19 H28 O3 Si1'
_chemical_name_systematic        
7-Methoxy-3-((tri-isopropylsilyl)methylene)-2-benzofuran-1(3H)-one
_symmetry_cell_setting           orthorhombic
_symmetry_space_group_name_H-M   'P b c a'
_symmetry_Int_Tables_number      61
_space_group_name_Hall           '-P 2ac 2ab'
loop_
_symmetry_equiv_pos_site_id
_symmetry_equiv_pos_as_xyz
1 x,y,z
2 1/2-x,-y,1/2+z
3 -x,1/2+y,1/2-z
4 1/2+x,1/2-y,-z
5 -x,-y,-z
6 1/2+x,y,1/2-z
7 x,1/2-y,1/2+z
8 1/2-x,1/2+y,z
_cell_length_a                   13.2951(4)
_cell_length_b                   14.1131(4)
_cell_length_c                   20.4113(5)
_cell_angle_alpha                90
_cell_angle_beta                 90
_cell_angle_gamma                90
_cell_volume                     3829.88
_exptl_crystal_colour            colorless
_cell_formula_units_Z            8
loop_
_atom_site_label
_atom_site_type_symbol
_atom_site_fract_x
_atom_site_fract_y
_atom_site_fract_z
Si1 Si 0.58240(5) 0.61383(4) 0.69051(3)
O1 O 0.62441(15) 0.40778(12) 0.61835(9)
O2 O 0.76747(17) 0.21139(13) 0.48773(9)
O3 O 0.60575(19) 0.25561(14) 0.58779(11)
C1 C 0.75944(18) 0.44978(17) 0.55441(11)
C2 C 0.73800(18) 0.35532(16) 0.54205(11)
C3 C 0.8365(2) 0.49656(19) 0.52219(13)
H1 H 0.8520 0.5595 0.5312
C4 C 0.7930(2) 0.30303(17) 0.49627(11)
C5 C 0.68770(19) 0.48401(17) 0.60318(12)
C6 C 0.6515(2) 0.32803(18) 0.58250(12)
C7 C 0.8696(2) 0.3496(2) 0.46327(12)
H2 H 0.9079 0.3171 0.4325
C8 C 0.67744(19) 0.56902(18) 0.62994(13)
H3 H 0.7248 0.6135 0.6166
C9 C 0.5553(2) 0.51779(19) 0.75221(13)
H4 H 0.5349 0.4622 0.7267
C10 C 0.8893(2) 0.4449(2) 0.47597(13)
H5 H 0.9400 0.4750 0.4524
C11 C 0.4640(2) 0.6458(2) 0.64477(14)
H6 H 0.4167 0.6713 0.6771
C12 C 0.4139(3) 0.5600(3) 0.61396(19)
H7 H 0.4563 0.5350 0.5800
H8 H 0.3503 0.5783 0.5956
H9 H 0.4033 0.5123 0.6468
C13 C 0.5661(3) 0.7815(2) 0.76837(19)
H10 H 0.5114 0.8047 0.7422
H11 H 0.6010 0.8339 0.7878
H12 H 0.5403 0.7411 0.8022
C14 C 0.4803(3) 0.7236(3) 0.5932(2)
H13 H 0.5070 0.7791 0.6140
H14 H 0.4174 0.7387 0.5727
H15 H 0.5269 0.7014 0.5606
C15 C 0.6384(2) 0.7256(2) 0.7253(2)
H16 H 0.6412 0.7658 0.6863
C16 C 0.8190(3) 0.1597(2) 0.43766(19)
H17 H 0.8024 0.1859 0.3956
H18 H 0.7988 0.0944 0.4392
H19 H 0.8902 0.1642 0.4446
C17 C 0.4676(3) 0.5388(3) 0.79871(16)
H20 H 0.4842 0.5922 0.8258
H21 H 0.4553 0.4845 0.8259
H22 H 0.4084 0.5528 0.7736
C18 C 0.6474(3) 0.4870(3) 0.79153(18)
H23 H 0.7028 0.4763 0.7623
H24 H 0.6325 0.4295 0.8147
H25 H 0.6649 0.5357 0.8223
C19 C 0.7414(3) 0.7247(4) 0.7448(3)
H26 H 0.7462 0.7062 0.7899
H27 H 0.7695 0.7869 0.7394
H28 H 0.7779 0.6805 0.7181
loop_
_geom_bond_atom_site_label_1
_geom_bond_atom_site_label_2
_geom_bond_site_symmetry_1
_geom_bond_site_symmetry_2
Si1 C8 1_555 1_555
O1 C5 1_555 1_555
O2 C4 1_555 1_555
O3 C6 1_555 1_555
C1 C2 1_555 1_555
C2 C4 1_555 1_555
C3 C1 1_555 1_555
H1 C3 1_555 1_555
C4 C7 1_555 1_555
C5 C1 1_555 1_555
C6 O1 1_555 1_555
C7 H2 1_555 1_555
C8 C5 1_555 1_555
H3 C8 1_555 1_555
C9 Si1 1_555 1_555
H4 C9 1_555 1_555
C10 C3 1_555 1_555
H5 C10 1_555 1_555
C11 Si1 1_555 1_555
H6 C11 1_555 1_555
C12 C11 1_555 1_555
H7 C12 1_555 1_555
H8 C12 1_555 1_555
H9 C12 1_555 1_555
C13 H10 1_555 1_555
H11 C13 1_555 1_555
H12 C13 1_555 1_555
C14 C11 1_555 1_555
H13 C14 1_555 1_555
H14 C14 1_555 1_555
H15 C14 1_555 1_555
C15 Si1 1_555 1_555
H16 C15 1_555 1_555
C16 O2 1_555 1_555
H17 C16 1_555 1_555
H18 C16 1_555 1_555
H19 C16 1_555 1_555
C17 C9 1_555 1_555
H20 C17 1_555 1_555
H21 C17 1_555 1_555
H22 C17 1_555 1_555
C18 C9 1_555 1_555
H23 C18 1_555 1_555
H24 C18 1_555 1_555
H25 C18 1_555 1_555
C19 C15 1_555 1_555
H26 C19 1_555 1_555
H27 C19 1_555 1_555
H28 C19 1_555 1_555
C2 C6 1_555 1_555
C7 C10 1_555 1_555
C13 C15 1_555 1_555

#END
