
#######################################################################
#
#                 Cambridge Crystallographic Data Centre
#                                CCDC 
#
#######################################################################
#
# If this CIF has been generated from an entry in the Cambridge 
# Structural Database, then it will include bibliographic, chemical, 
# crystal, experimental, refinement or atomic coordinate data resulting 
# from the CCDC's data processing and validation procedures.
#
#######################################################################

data_KOXXUS
_chemical_formula_moiety         'C37 H36 O9'
_chemical_name_systematic        
'3-(3,4-dimethoxyphenyl)-6,7-dimethoxy-4-(4-methoxyphenyl)-2-naphthyl (3,4-dimethoxyphenyl)acetate'
_symmetry_cell_setting           triclinic
_symmetry_space_group_name_H-M   'P -1'
_symmetry_Int_Tables_number      2
_space_group_name_Hall           '-P 1'
loop_
_symmetry_equiv_pos_site_id
_symmetry_equiv_pos_as_xyz
1 x,y,z
2 -x,-y,-z
_cell_length_a                   11.5785(6)
_cell_length_b                   11.7665(6)
_cell_length_c                   13.8379(7)
_cell_angle_alpha                105.767(3)
_cell_angle_beta                 111.447(3)
_cell_angle_gamma                97.388(3)
_cell_volume                     1633.1
_exptl_crystal_colour            colorless
_cell_formula_units_Z            2
loop_
_atom_site_label
_atom_site_type_symbol
_atom_site_fract_x
_atom_site_fract_y
_atom_site_fract_z
O1 O 1.08826(15) 0.97275(17) 0.16713(15)
O2 O 0.46043(14) 0.94764(15) 0.25089(13)
O3 O 0.11266(17) 0.60781(18) 0.51600(17)
O4 O 0.01081(16) 0.61573(18) -0.17734(17)
O5 O 0.12541(16) 0.55877(18) -0.00656(17)
O6 O 0.50425(19) 0.8129(2) 0.33757(18)
O7 O -0.03222(17) 0.6665(2) 0.35456(18)
O8 O 1.13701(15) 1.10038(17) 0.36647(15)
C1 C 1.0720(3) 0.8852(3) 0.0662(2)
H1 H 1.0359 0.8034 0.0627
H2 H 1.1553 0.8886 0.0626
H3 H 1.0135 0.9033 0.0037
C2 C 0.9827(2) 0.9733(2) 0.1901(2)
C3 C 0.8604(2) 0.9112(2) 0.11705(19)
H4 H 0.8441 0.8624 0.0441
C4 C 0.75609(19) 0.9181(2) 0.14796(18)
C5 C 0.7837(2) 0.9892(2) 0.25790(18)
C6 C 0.6825(2) 0.9955(2) 0.29090(19)
H5 H 0.6994 1.0431 0.3644
C7 C 0.5610(2) 0.9332(2) 0.21736(19)
C8 C 0.4431(2) 0.8833(2) 0.3148(2)
C9 C 0.3414(2) 0.9175(2) 0.3510(2)
H6 H 0.2709 0.9246 0.2874
H7 H 0.3782 0.9992 0.4094
C10 C 0.2854(2) 0.8314(2) 0.3942(2)
C11 C 0.3599(2) 0.7974(2) 0.4784(2)
H8 H 0.4506 0.8258 0.5086
C12 C 0.3054(2) 0.7222(2) 0.5206(2)
H9 H 0.3591 0.6993 0.5788
C13 C 0.1749(2) 0.6808(2) 0.4788(2)
C14 C 0.1908(3) 0.5637(3) 0.5969(3)
H10 H 0.2412 0.5162 0.5669
H11 H 0.1360 0.5116 0.6161
H12 H 0.2488 0.6329 0.6633
C15 C -0.0615(3) 0.6502(3) -0.2678(3)
H13 H -0.0650 0.7351 -0.2401
H14 H -0.1488 0.5969 -0.3064
H15 H -0.0205 0.6423 -0.3191
C16 C 0.1367(2) 0.6787(2) -0.1139(2)
C17 C 0.1996(2) 0.6476(2) -0.0211(2)
C18 C 0.1818(3) 0.5311(3) 0.0914(3)
H16 H 0.2547 0.4974 0.0906
H17 H 0.1180 0.4710 0.0951
H18 H 0.2116 0.6057 0.1561
C19 C 0.3255(2) 0.7065(2) 0.0490(2)
H19 H 0.3676 0.6840 0.1113
C20 C 0.3923(2) 0.7988(2) 0.02971(18)
C21 C 0.5280(2) 0.8622(2) 0.10722(18)
C22 C 0.0966(2) 0.7124(2) 0.3917(2)
C23 C -0.1155(3) 0.6779(4) 0.2552(3)
H20 H -0.1147 0.7640 0.2671
H21 H -0.2028 0.6305 0.2327
H22 H -0.0867 0.6470 0.1971
C24 C 0.1524(2) 0.7878(2) 0.3512(2)
H23 H 0.0991 0.8105 0.2927
C25 C 0.6264(2) 0.8550(2) 0.07239(18)
C26 C 0.5988(2) 0.7778(2) -0.04210(19)
C27 C 0.5529(2) 0.6527(2) -0.0779(2)
H24 H 0.5365 0.6165 -0.0291
C28 C 0.5302(3) 0.5789(3) -0.1824(2)
H25 H 0.4986 0.4929 -0.2052
C29 C 0.5537(3) 0.6309(3) -0.2533(2)
C30 C 0.5981(3) 0.7566(3) -0.2208(2)
H26 H 0.6133 0.7924 -0.2703
C31 C 0.6197(2) 0.8285(2) -0.11643(19)
H27 H 0.6496 0.9146 -0.0942
O9 O 0.5357(3) 0.5669(2) -0.35895(16)
C32 C 1.0108(2) 1.0451(2) 0.3012(2)
C33 C 1.1725(3) 1.1605(3) 0.4819(2)
H28 H 1.1333 1.2294 0.4916
H29 H 1.2660 1.1905 0.5208
H30 H 1.1423 1.1027 0.5121
C34 C 0.9128(2) 1.0526(2) 0.3334(2)
H31 H 0.9310 1.1005 0.4071
C35 C 0.3295(2) 0.8287(2) -0.0618(2)
H32 H 0.3739 0.8909 -0.0765
C36 C 0.2022(2) 0.7695(2) -0.1331(2)
H33 H 0.1604 0.7920 -0.1955
C37 C 0.5031(5) 0.4355(3) -0.3905(3)
H34 H 0.5728 0.4105 -0.3420
H35 H 0.4905 0.3987 -0.4674
H36 H 0.4238 0.4082 -0.3836
loop_
_geom_bond_atom_site_label_1
_geom_bond_atom_site_label_2
_geom_bond_site_symmetry_1
_geom_bond_site_symmetry_2
O1 C1 1_555 1_555
O2 C7 1_555 1_555
O3 C13 1_555 1_555
O4 C15 1_555 1_555
O5 C17 1_555 1_555
O6 C8 1_555 1_555
O7 C22 1_555 1_555
O8 C32 1_555 1_555
C1 H1 1_555 1_555
H2 C1 1_555 1_555
H3 C1 1_555 1_555
C2 O1 1_555 1_555
C3 C2 1_555 1_555
H4 C3 1_555 1_555
C4 C3 1_555 1_555
C5 C4 1_555 1_555
C6 C5 1_555 1_555
H5 C6 1_555 1_555
C7 C6 1_555 1_555
C8 O2 1_555 1_555
C9 C8 1_555 1_555
H6 C9 1_555 1_555
H7 C9 1_555 1_555
C10 C9 1_555 1_555
C11 C10 1_555 1_555
H8 C11 1_555 1_555
C12 C11 1_555 1_555
H9 C12 1_555 1_555
C13 C12 1_555 1_555
C14 O3 1_555 1_555
H10 C14 1_555 1_555
H11 C14 1_555 1_555
H12 C14 1_555 1_555
C15 H13 1_555 1_555
H14 C15 1_555 1_555
H15 C15 1_555 1_555
C16 O4 1_555 1_555
C17 C16 1_555 1_555
C18 O5 1_555 1_555
H16 C18 1_555 1_555
H17 C18 1_555 1_555
H18 C18 1_555 1_555
C19 C17 1_555 1_555
H19 C19 1_555 1_555
C20 C19 1_555 1_555
C21 C7 1_555 1_555
C22 C13 1_555 1_555
C23 O7 1_555 1_555
H20 C23 1_555 1_555
H21 C23 1_555 1_555
H22 C23 1_555 1_555
C24 C10 1_555 1_555
H23 C24 1_555 1_555
C25 C4 1_555 1_555
C26 C25 1_555 1_555
C27 C26 1_555 1_555
H24 C27 1_555 1_555
C28 C27 1_555 1_555
H25 C28 1_555 1_555
C29 C28 1_555 1_555
C30 C29 1_555 1_555
H26 C30 1_555 1_555
C31 C26 1_555 1_555
H27 C31 1_555 1_555
O9 C29 1_555 1_555
C32 C2 1_555 1_555
C33 O8 1_555 1_555
H28 C33 1_555 1_555
H29 C33 1_555 1_555
H30 C33 1_555 1_555
C34 C5 1_555 1_555
H31 C34 1_555 1_555
C35 C20 1_555 1_555
H32 C35 1_555 1_555
C36 C16 1_555 1_555
H33 C36 1_555 1_555
C37 O9 1_555 1_555
H34 C37 1_555 1_555
H35 C37 1_555 1_555
H36 C37 1_555 1_555
C20 C21 1_555 1_555
C21 C25 1_555 1_555
C22 C24 1_555 1_555
C30 C31 1_555 1_555
C32 C34 1_555 1_555
C35 C36 1_555 1_555

#END
