
#######################################################################
#
#                 Cambridge Crystallographic Data Centre
#                                CCDC 
#
#######################################################################
#
# If this CIF has been generated from an entry in the Cambridge 
# Structural Database, then it will include bibliographic, chemical, 
# crystal, experimental, refinement or atomic coordinate data resulting 
# from the CCDC's data processing and validation procedures.
#
#######################################################################

data_KOYLOZ
_chemical_formula_moiety         'C25 H22 N2 O3'
_chemical_name_systematic        
N-Benzyl-3-benzylidene-4-methyl-4-nitro-5-phenyl-2-pyrrolidinone
_chemical_properties_biological  'possible therapeutic use in cancer treatment'
_symmetry_cell_setting           orthorhombic
_symmetry_space_group_name_H-M   'P b n 21'
_symmetry_Int_Tables_number      33
_space_group_name_Hall           'P 2c -2ab'
loop_
_symmetry_equiv_pos_site_id
_symmetry_equiv_pos_as_xyz
1 x,y,z
2 1/2-x,1/2+y,z
3 1/2+x,1/2-y,1/2+z
4 -x,-y,1/2+z
_cell_length_a                   9.385(4)
_cell_length_b                   12.314(4)
_cell_length_c                   18.573(6)
_cell_angle_alpha                90
_cell_angle_beta                 90
_cell_angle_gamma                90
_cell_volume                     2146.42
_exptl_crystal_colour            colorless
_cell_formula_units_Z            4
loop_
_atom_site_label
_atom_site_type_symbol
_atom_site_fract_x
_atom_site_fract_y
_atom_site_fract_z
C1 C 0.8105(3) 0.0384(2) 0.7965
C2 C 0.8091(3) -0.0188(2) 0.8663(3)
C3 C 0.7218(3) -0.1216(2) 0.8584(3)
C4 C 0.6473(3) -0.1063(2) 0.7842(3)
C5 C 0.6900(5) 0.0231(3) 0.6789(3)
C6 C 0.7194(5) -0.0589(3) 0.6206(3)
C7 C 0.8366(6) -0.1255(5) 0.6223(4)
C8 C 0.8652(7) -0.1980(6) 0.5662(4)
C9 C 0.7741(10) -0.2033(6) 0.5098(4)
C10 C 0.6581(8) -0.1376(6) 0.5062(4)
C11 C 0.6289(6) -0.0658(5) 0.5628(3)
C12 C 0.4873(3) -0.0871(2) 0.7907(3)
C13 C 0.3960(3) -0.1741(3) 0.7804(3)
C14 C 0.2510(4) -0.1614(3) 0.7909(4)
C15 C 0.1971(4) -0.0627(4) 0.8121(4)
C16 C 0.2875(4) 0.0238(3) 0.8219(3)
C17 C 0.4333(4) 0.0117(2) 0.8112(3)
C18 C 0.6250(4) -0.1521(3) 0.9202(3)
C19 C 0.8683(4) 0.0258(3) 0.9245(3)
C20 C 0.8684(4) -0.0143(3) 0.9999(3)
C21 C 0.7884(6) 0.0411(4) 1.0498(3)
C22 C 0.7832(8) 0.0049(6) 1.1205(3)
C23 C 0.8622(8) -0.0839(5) 1.1411(4)
C24 C 0.9448(8) -0.1364(4) 1.0918(4)
C25 C 0.9479(6) -0.1018(3) 1.0209(3)
N1 N 0.7213(3) -0.0149(2) 0.7516(3)
N2 N 0.8344(3) -0.2139(2) 0.8488(3)
O1 O 0.8789(2) 0.1210(2) 0.7823(3)
O2 O 0.8506(3) -0.2788(2) 0.8972(3)
O3 O 0.9023(3) -0.2152(2) 0.7929(3)
loop_
_geom_bond_atom_site_label_1
_geom_bond_atom_site_label_2
_geom_bond_site_symmetry_1
_geom_bond_site_symmetry_2
C1 C2 1_555 1_555
C2 C3 1_555 1_555
C3 C4 1_555 1_555
C4 C12 1_555 1_555
C5 C6 1_555 1_555
C6 C7 1_555 1_555
C7 C8 1_555 1_555
C8 C9 1_555 1_555
C9 C10 1_555 1_555
C10 C11 1_555 1_555
C11 C6 1_555 1_555
C12 C13 1_555 1_555
C13 C14 1_555 1_555
C14 C15 1_555 1_555
C15 C16 1_555 1_555
C16 C17 1_555 1_555
C17 C12 1_555 1_555
C18 C3 1_555 1_555
C19 C2 1_555 1_555
C20 C19 1_555 1_555
C21 C20 1_555 1_555
C22 C21 1_555 1_555
C23 C22 1_555 1_555
C24 C23 1_555 1_555
C25 C20 1_555 1_555
N1 C1 1_555 1_555
N2 C3 1_555 1_555
O1 C1 1_555 1_555
O2 N2 1_555 1_555
O3 N2 1_555 1_555
C4 N1 1_555 1_555
C5 N1 1_555 1_555
C24 C25 1_555 1_555

#END
