
#######################################################################
#
#                 Cambridge Crystallographic Data Centre
#                                CCDC 
#
#######################################################################
#
# If this CIF has been generated from an entry in the Cambridge 
# Structural Database, then it will include bibliographic, chemical, 
# crystal, experimental, refinement or atomic coordinate data resulting 
# from the CCDC's data processing and validation procedures.
#
#######################################################################

data_KOYLIV
_chemical_formula_moiety         '3(C2 H6 O1 S1),C2 S4 2-,2(K1 1+)'
_chemical_name_systematic        
'di-potassium ethanebis((dithioate)) dimethyl sulfoxide solvate'
_symmetry_cell_setting           triclinic
_symmetry_space_group_name_H-M   'P -1'
_symmetry_Int_Tables_number      2
_space_group_name_Hall           '-P 1'
loop_
_symmetry_equiv_pos_site_id
_symmetry_equiv_pos_as_xyz
1 x,y,z
2 -x,-y,-z
_cell_length_a                   9.9182(3)
_cell_length_b                   10.2993(4)
_cell_length_c                   10.3745(4)
_cell_angle_alpha                90.141(3)
_cell_angle_beta                 107.571(3)
_cell_angle_gamma                92.782(3)
_cell_volume                     1008.96
_exptl_crystal_colour            'light yellow'
_exptl_crystal_description       plate
_cell_formula_units_Z            2
loop_
_atom_site_label
_atom_site_type_symbol
_atom_site_fract_x
_atom_site_fract_y
_atom_site_fract_z
K1 K 0.66563(6) 0.37920(5) 0.44385(6)
K2 K 1.01486(6) 0.18275(5) 0.41091(5)
S1 S 0.84099(7) 0.10508(6) 0.66057(7)
O1 O 0.86823(18) 0.22559(16) 0.58779(17)
C1 C 0.6595(3) 0.0564(3) 0.5851(3)
C2 C 0.8285(4) 0.1596(3) 0.8192(3)
H1 H 0.763(3) 0.225(3) 0.801(3)
H2 H 0.600(3) 0.131(3) 0.593(3)
H3 H 0.645(3) 0.035(3) 0.502(3)
H4 H 0.801(3) 0.087(3) 0.859(3)
H5 H 0.924(4) 0.183(3) 0.881(3)
H6 H 0.639(3) -0.018(3) 0.634(3)
S2 S 0.80717(7) 0.41442(6) 0.14402(7)
O2 O 0.83512(19) 0.35989(17) 0.28407(18)
C3 C 0.6728(3) 0.5266(3) 0.1289(4)
C4 C 0.9487(3) 0.5304(3) 0.1549(4)
H7 H 0.708(3) 0.582(3) 0.206(3)
H8 H 0.918(3) 0.574(3) 0.068(3)
H9 H 0.957(3) 0.584(3) 0.229(3)
H10 H 0.662(3) 0.571(3) 0.052(3)
H11 H 0.591(4) 0.482(3) 0.130(3)
H12 H 1.025(3) 0.488(3) 0.163(3)
S3 S 1.22275(7) 0.10403(6) 0.76574(7)
O3 O 1.16658(18) 0.03971(17) 0.62784(18)
C5 C 1.4081(3) 0.1392(3) 0.7953(3)
C6 C 1.2385(3) -0.0244(3) 0.8840(3)
H13 H 1.446(3) 0.174(2) 0.880(3)
H14 H 1.449(3) 0.067(3) 0.787(3)
H15 H 1.285(3) -0.099(3) 0.854(3)
H16 H 1.422(3) 0.208(3) 0.737(3)
H17 H 1.291(3) 0.014(3) 0.967(3)
H18 H 1.138(3) -0.049(3) 0.881(3)
S4 S 0.67086(7) 0.67914(6) 0.53252(7)
S5 S 0.65864(7) 0.48552(6) 0.74737(7)
S6 S 0.86679(7) 0.80080(6) 0.86757(7)
S7 S 0.55044(7) 0.79858(6) 0.81601(7)
C7 C 0.6782(2) 0.6355(2) 0.6923(2)
C8 C 0.6994(3) 0.7450(2) 0.7926(2)
loop_
_geom_bond_atom_site_label_1
_geom_bond_atom_site_label_2
_geom_bond_site_symmetry_1
_geom_bond_site_symmetry_2
S1 O1 1_555 1_555
C1 S1 1_555 1_555
C2 S1 1_555 1_555
H1 C2 1_555 1_555
H2 C1 1_555 1_555
H3 C1 1_555 1_555
H4 C2 1_555 1_555
H5 C2 1_555 1_555
H6 C1 1_555 1_555
S2 O2 1_555 1_555
C3 S2 1_555 1_555
C4 S2 1_555 1_555
H7 C3 1_555 1_555
H8 C4 1_555 1_555
H9 C4 1_555 1_555
H10 C3 1_555 1_555
H11 C3 1_555 1_555
H12 C4 1_555 1_555
S3 O3 1_555 1_555
C5 S3 1_555 1_555
C6 S3 1_555 1_555
H13 C5 1_555 1_555
H14 C5 1_555 1_555
H15 C6 1_555 1_555
H16 C5 1_555 1_555
H17 C6 1_555 1_555
H18 C6 1_555 1_555
S4 C7 1_555 1_555
S5 C7 1_555 1_555
S6 C8 1_555 1_555
S7 C8 1_555 1_555
C7 C8 1_555 1_555

#END
