
#######################################################################
#
#                 Cambridge Crystallographic Data Centre
#                                CCDC 
#
#######################################################################
#
# If this CIF has been generated from an entry in the Cambridge 
# Structural Database, then it will include bibliographic, chemical, 
# crystal, experimental, refinement or atomic coordinate data resulting 
# from the CCDC's data processing and validation procedures.
#
#######################################################################

data_KOYROF
_chemical_formula_moiety         'C14 H10 F3 N3 O2 S1'
_chemical_name_systematic        
'2-Thionyltrifluoroacetone isonicotinyl hydrazone'
_chemical_properties_biological  
'potential activity as antineoplastic, antiviral and antiinflammatory agent'
_symmetry_cell_setting           orthorhombic
_symmetry_space_group_name_H-M   'P b c a'
_symmetry_Int_Tables_number      61
_space_group_name_Hall           '-P 2ac 2ab'
loop_
_symmetry_equiv_pos_site_id
_symmetry_equiv_pos_as_xyz
1 x,y,z
2 1/2-x,1/2+y,z
3 x,1/2-y,1/2+z
4 1/2-x,-y,1/2+z
5 -x,-y,-z
6 1/2+x,1/2-y,-z
7 -x,1/2+y,1/2-z
8 1/2+x,y,1/2-z
_cell_length_a                   8.604(2)
_cell_length_b                   14.290(4)
_cell_length_c                   24.924(4)
_cell_angle_alpha                90
_cell_angle_beta                 90
_cell_angle_gamma                90
_cell_volume                     3064.43
_cell_formula_units_Z            8
loop_
_atom_site_label
_atom_site_type_symbol
_atom_site_fract_x
_atom_site_fract_y
_atom_site_fract_z
S1 S 1.0031(2) 0.19497(8) 0.02183(5)
F1 F 0.5180(3) -0.0366(2) 0.0775(1)
F2 F 0.5590(4) -0.1385(2) 0.1364(1)
F3 F 0.3799(3) -0.0372(2) 0.1478(1)
O1 O 0.7293(4) 0.1644(2) 0.0933(1)
O2 O 0.5276(3) 0.1283(2) 0.2956(1)
N1 N 0.5915(3) 0.0544(2) 0.1984(1)
N2 N 0.6929(3) 0.1121(2) 0.2247(1)
N3 N 0.9609(5) 0.3455(3) 0.3423(2)
C1 C 1.1666(5) 0.1465(4) 0.0019(2)
C2 C 1.2001(5) 0.0630(3) 0.0247(2)
C3 C 1.0842(4) 0.0371(3) 0.0615(1)
C4 C 0.9664(4) 0.1025(2) 0.0643(1)
C5 C 0.8228(4) 0.1015(2) 0.0953(2)
C6 C 0.7977(4) 0.0168(2) 0.1308(1)
C7 C 0.6402(4) 0.0141(2) 0.1563(1)
C8 C 0.5216(5) -0.0486(3) 0.1300(2)
C9 C 0.6474(4) 0.1485(3) 0.2728(1)
C10 C 0.7598(4) 0.2175(3) 0.2960(1)
C11 C 0.8299(5) 0.2863(3) 0.2651(2)
C12 C 0.9283(5) 0.3492(3) 0.2901(2)
C13 C 0.8930(6) 0.2777(3) 0.3709(2)
C14 C 0.7912(5) 0.2138(3) 0.3497(2)
H1 H 1.257(5) 0.155(3) -0.036(2)
H2 H 0.786(5) 0.115(3) 0.208(2)
H3 H 1.292(5) 0.018(3) 0.018(2)
H4 H 1.085(5) -0.017(3) 0.077(2)
H5 H 0.885(5) 0.017(3) 0.157(2)
H6 H 0.814(5) -0.037(3) 0.107(3)
H7 H 0.811(5) 0.297(3) 0.229(2)
H8 H 0.978(5) 0.399(3) 0.267(2)
H9 H 0.918(5) 0.278(3) 0.408(2)
H10 H 0.742(5) 0.170(3) 0.368(2)
loop_
_geom_bond_atom_site_label_1
_geom_bond_atom_site_label_2
_geom_bond_site_symmetry_1
_geom_bond_site_symmetry_2
S1 C1 1_555 1_555
F1 C8 1_555 1_555
F2 C8 1_555 1_555
F3 C8 1_555 1_555
O1 C5 1_555 1_555
O2 C9 1_555 1_555
N1 N2 1_555 1_555
N2 C9 1_555 1_555
N3 C12 1_555 1_555
C1 C2 1_555 1_555
C2 C3 1_555 1_555
C3 C4 1_555 1_555
C4 S1 1_555 1_555
C5 C4 1_555 1_555
C6 C5 1_555 1_555
C7 N1 1_555 1_555
C8 C7 1_555 1_555
C9 C10 1_555 1_555
C10 C11 1_555 1_555
C11 C12 1_555 1_555
C12 H8 1_555 1_555
C13 N3 1_555 1_555
C14 C10 1_555 1_555
H1 C1 1_555 1_555
H2 N2 1_555 1_555
H3 C2 1_555 1_555
H4 C3 1_555 1_555
H5 C6 1_555 1_555
H6 C6 1_555 1_555
H7 C11 1_555 1_555
H9 C13 1_555 1_555
H10 C14 1_555 1_555
C6 C7 1_555 1_555
C13 C14 1_555 1_555

#END
