
#######################################################################
#
#                 Cambridge Crystallographic Data Centre
#                                CCDC 
#
#######################################################################
#
# If this CIF has been generated from an entry in the Cambridge 
# Structural Database, then it will include bibliographic, chemical, 
# crystal, experimental, refinement or atomic coordinate data resulting 
# from the CCDC's data processing and validation procedures.
#
#######################################################################

data_KOYROH
_chemical_formula_moiety         'C28 H14 S4'
_chemical_name_systematic        2,2'-bi[1]benzothieno[3,2-b][1]benzothiophene
_symmetry_cell_setting           orthorhombic
_symmetry_space_group_name_H-M   'P b c n'
_symmetry_Int_Tables_number      60
_space_group_name_Hall           '-P 2n 2ab'
loop_
_symmetry_equiv_pos_site_id
_symmetry_equiv_pos_as_xyz
1 x,y,z
2 1/2-x,1/2-y,1/2+z
3 1/2+x,1/2-y,-z
4 -x,y,1/2-z
5 -x,-y,-z
6 1/2+x,1/2+y,1/2-z
7 1/2-x,1/2+y,z
8 x,-y,1/2+z
_cell_length_a                   6.0452(5)
_cell_length_b                   7.7010(7)
_cell_length_c                   43.405(5)
_cell_angle_alpha                90
_cell_angle_beta                 90
_cell_angle_gamma                90
_cell_volume                     2020.68
_exptl_crystal_colour            colorless
_exptl_crystal_description       plate
_cell_formula_units_Z            4
loop_
_atom_site_label
_atom_site_type_symbol
_atom_site_fract_x
_atom_site_fract_y
_atom_site_fract_z
S1 S 0.21208(13) 0.17098(12) 0.391683(17)
S2 S 0.78012(13) 0.35851(12) 0.347214(17)
C1 C 0.4015(5) 0.2287(4) 0.36371(7)
C2 C 0.5915(5) 0.3009(4) 0.37562(7)
C3 C 0.5896(5) 0.3161(4) 0.40849(7)
C4 C 0.3885(5) 0.2499(4) 0.42036(7)
C5 C 0.3434(6) 0.2517(5) 0.45194(7)
H1 H 0.2088 0.2055 0.4597
C6 C 0.4987(6) 0.3219(5) 0.47151(7)
H2 H 0.4709 0.3240 0.4930
C7 C 0.6984(6) 0.3907(5) 0.46003(8)
H3 H 0.8026 0.4400 0.4739
C8 C 0.7441(5) 0.3873(5) 0.42893(8)
H4 H 0.8798 0.4330 0.4214
C9 C 0.4010(5) 0.2154(4) 0.33073(7)
C10 C 0.6015(5) 0.2807(4) 0.31852(7)
C11 C 0.6425(5) 0.2813(4) 0.28688(7)
H5 H 0.7787 0.3245 0.2791
C12 C 0.4823(5) 0.2182(5) 0.26678(7)
C13 C 0.2804(5) 0.1530(5) 0.27902(8)
H6 H 0.1703 0.1102 0.2654
C14 C 0.2414(6) 0.1507(5) 0.31024(8)
H7 H 0.1062 0.1053 0.3180
S1C S 0.78792(13) 0.17098(12) 0.108317(17)
S2C S 0.21988(13) 0.35851(12) 0.152786(17)
C1C C 0.5985(5) 0.2287(4) 0.13629(7)
C2C C 0.4085(5) 0.3009(4) 0.12438(7)
C3C C 0.4104(5) 0.3161(4) 0.09151(7)
C4C C 0.6115(5) 0.2499(4) 0.07964(7)
C5C C 0.6566(6) 0.2517(5) 0.04806(7)
H1C H 0.7912 0.2055 0.0403
C6C C 0.5013(6) 0.3219(5) 0.02849(7)
H2C H 0.5291 0.3240 0.0070
C7C C 0.3016(6) 0.3907(5) 0.03997(8)
H3C H 0.1974 0.4400 0.0261
C8C C 0.2559(5) 0.3873(5) 0.07107(8)
H4C H 0.1202 0.4330 0.0786
C9C C 0.5990(5) 0.2154(4) 0.16927(7)
C10C C 0.3985(5) 0.2807(4) 0.18148(7)
C11C C 0.3575(5) 0.2813(4) 0.21312(7)
H5C H 0.2213 0.3245 0.2209
C12C C 0.5177(5) 0.2182(5) 0.23322(7)
C13C C 0.7196(5) 0.1530(5) 0.22098(8)
H6C H 0.8297 0.1102 0.2346
C14C C 0.7586(6) 0.1507(5) 0.18976(8)
H7C H 0.8938 0.1053 0.1820
loop_
_geom_bond_atom_site_label_1
_geom_bond_atom_site_label_2
_geom_bond_site_symmetry_1
_geom_bond_site_symmetry_2
S1 C1 1_555 1_555
S2 C2 1_555 1_555
C1 C2 1_555 1_555
C2 C3 1_555 1_555
C3 C4 1_555 1_555
C4 S1 1_555 1_555
C5 C4 1_555 1_555
H1 C5 1_555 1_555
C6 C5 1_555 1_555
H2 C6 1_555 1_555
C7 C6 1_555 1_555
H3 C7 1_555 1_555
C8 C3 1_555 1_555
H4 C8 1_555 1_555
C9 C1 1_555 1_555
C10 S2 1_555 1_555
C11 C10 1_555 1_555
H5 C11 1_555 1_555
C12 C11 1_555 1_555
C13 C12 1_555 1_555
H6 C13 1_555 1_555
C14 C9 1_555 1_555
H7 C14 1_555 1_555
S1C C1C 1_555 1_555
S2C C2C 1_555 1_555
C1C C2C 1_555 1_555
C2C C3C 1_555 1_555
C3C C4C 1_555 1_555
C4C S1C 1_555 1_555
C5C C4C 1_555 1_555
H1C C5C 1_555 1_555
C6C C5C 1_555 1_555
H2C C6C 1_555 1_555
C7C C6C 1_555 1_555
H3C C7C 1_555 1_555
C8C C3C 1_555 1_555
H4C C8C 1_555 1_555
C9C C1C 1_555 1_555
C10C S2C 1_555 1_555
C11C C10C 1_555 1_555
H5C C11C 1_555 1_555
C12C C12 1_555 1_555
C13C C12C 1_555 1_555
H6C C13C 1_555 1_555
C14C C9C 1_555 1_555
H7C C14C 1_555 1_555
C7 C8 1_555 1_555
C9 C10 1_555 1_555
C13 C14 1_555 1_555
C7C C8C 1_555 1_555
C9C C10C 1_555 1_555
C11C C12C 1_555 1_555
C13C C14C 1_555 1_555

#END
