
#######################################################################
#
#                 Cambridge Crystallographic Data Centre
#                                CCDC 
#
#######################################################################
#
# If this CIF has been generated from an entry in the Cambridge 
# Structural Database, then it will include bibliographic, chemical, 
# crystal, experimental, refinement or atomic coordinate data resulting 
# from the CCDC's data processing and validation procedures.
#
#######################################################################

data_KTPHEB02
_chemical_formula_moiety         'K1 1+,C24 H20 B1 1-'
_chemical_name_systematic        'Potassium tetraphenylborate'
_symmetry_cell_setting           tetragonal
_symmetry_space_group_name_H-M   'I -4 2 m'
_symmetry_Int_Tables_number      121
_space_group_name_Hall           'I -4 2'
loop_
_symmetry_equiv_pos_site_id
_symmetry_equiv_pos_as_xyz
1 x,y,z
2 -x,-y,z
3 y,-x,-z
4 -y,x,-z
5 -x,y,-z
6 x,-y,-z
7 -y,-x,z
8 y,x,z
9 1/2+x,1/2+y,1/2+z
10 1/2-x,1/2-y,1/2+z
11 1/2+y,1/2-x,1/2-z
12 1/2-y,1/2+x,1/2-z
13 1/2-x,1/2+y,1/2-z
14 1/2+x,1/2-y,1/2-z
15 1/2-y,1/2-x,1/2+z
16 1/2+y,1/2+x,1/2+z
_cell_length_a                   11.1527(19)
_cell_length_b                   11.1527(19)
_cell_length_c                   7.808(3)
_cell_angle_alpha                90
_cell_angle_beta                 90
_cell_angle_gamma                90
_cell_volume                     971.18
_exptl_crystal_colour            green
_cell_formula_units_Z            2
loop_
_atom_site_label
_atom_site_type_symbol
_atom_site_fract_x
_atom_site_fract_y
_atom_site_fract_z
K1 K 0.0000 0.0000 0.0000
B1 B 0.0000 0.0000 0.5000
C1 C -0.08139(11) 0.08139(11) 0.3701(3)
C2 C -0.03925(12) 0.19030(13) 0.3022(2)
H1 H 0.0361(15) 0.2204(14) 0.342(2)
C3 C -0.10133(13) 0.25298(13) 0.1753(2)
H2 H -0.0700(13) 0.3256(16) 0.135(3)
C4 C -0.20828(13) 0.20828(13) 0.1100(3)
H3 H -0.2467(16) 0.2467(16) 0.029(6)
C1A C 0.08139(11) -0.08139(11) 0.3701(3)
C1B C 0.08139(11) 0.08139(11) 0.6299(3)
C1C C -0.08139(11) -0.08139(11) 0.6299(3)
C2F C -0.19030(13) 0.03925(12) 0.3022(2)
C2A C 0.03925(12) -0.19030(13) 0.3022(2)
C2G C 0.19030(13) -0.03925(12) 0.3022(2)
C2B C 0.19030(13) 0.03925(12) 0.6978(2)
C2D C 0.03925(12) 0.19030(13) 0.6978(2)
C2C C -0.19030(13) -0.03925(12) 0.6978(2)
C2E C -0.03925(12) -0.19030(13) 0.6978(2)
H1F H -0.2204(14) -0.0361(15) 0.342(2)
H1A H -0.0361(15) -0.2204(14) 0.342(2)
H1G H 0.2204(14) 0.0361(15) 0.342(2)
H1B H 0.2204(14) -0.0361(15) 0.658(2)
H1D H -0.0361(15) 0.2204(14) 0.658(2)
H1C H -0.2204(14) 0.0361(15) 0.658(2)
H1E H 0.0361(15) -0.2204(14) 0.658(2)
C3F C -0.25298(13) 0.10133(13) 0.1753(2)
C3A C 0.10133(13) -0.25298(13) 0.1753(2)
C3G C 0.25298(13) -0.10133(13) 0.1753(2)
C3B C 0.25298(13) 0.10133(13) 0.8247(2)
C3D C 0.10133(13) 0.25298(13) 0.8247(2)
C3C C -0.25298(13) -0.10133(13) 0.8247(2)
C3E C -0.10133(13) -0.25298(13) 0.8247(2)
H2F H -0.3256(16) 0.0700(13) 0.135(3)
H2A H 0.0700(13) -0.3256(16) 0.135(3)
H2G H 0.3256(16) -0.0700(13) 0.135(3)
H2B H 0.3256(16) 0.0700(13) 0.865(3)
H2D H 0.0700(13) 0.3256(16) 0.865(3)
H2C H -0.3256(16) -0.0700(13) 0.865(3)
H2E H -0.0700(13) -0.3256(16) 0.865(3)
C4A C 0.20828(13) -0.20828(13) 0.1100(3)
C4B C 0.20828(13) 0.20828(13) 0.8900(3)
C4C C -0.20828(13) -0.20828(13) 0.8900(3)
H3A H 0.2467(16) -0.2467(16) 0.029(6)
H3B H 0.2467(16) 0.2467(16) 0.971(6)
H3C H -0.2467(16) -0.2467(16) 0.971(6)
loop_
_geom_bond_atom_site_label_1
_geom_bond_atom_site_label_2
_geom_bond_site_symmetry_1
_geom_bond_site_symmetry_2
B1 C1 1_555 1_555
C1 C2 1_555 1_555
C2 H1 1_555 1_555
C3 C2 1_555 1_555
H2 C3 1_555 1_555
C4 C3 1_555 1_555
H3 C4 1_555 1_555
C1A B1 1_555 1_555
C1B B1 1_555 1_555
C1C B1 1_555 1_555
C2F C1 1_555 1_555
C2A C1A 1_555 1_555
C2G C1A 1_555 1_555
C2B C1B 1_555 1_555
C2D C1B 1_555 1_555
C2C C1C 1_555 1_555
C2E C1C 1_555 1_555
H1F C2F 1_555 1_555
H1A C2A 1_555 1_555
H1G C2G 1_555 1_555
H1B C2B 1_555 1_555
H1D C2D 1_555 1_555
H1C C2C 1_555 1_555
H1E C2E 1_555 1_555
C3F C4 1_555 1_555
C3A C2A 1_555 1_555
C3G C2G 1_555 1_555
C3B C2B 1_555 1_555
C3D C2D 1_555 1_555
C3C C2C 1_555 1_555
C3E C2E 1_555 1_555
H2F C3F 1_555 1_555
H2A C3A 1_555 1_555
H2G C3G 1_555 1_555
H2B C3B 1_555 1_555
H2D C3D 1_555 1_555
H2C C3C 1_555 1_555
H2E C3E 1_555 1_555
C4A C3A 1_555 1_555
C4B C3B 1_555 1_555
C4C C3C 1_555 1_555
H3A C4A 1_555 1_555
H3B C4B 1_555 1_555
H3C C4C 1_555 1_555
C2F C3F 1_555 1_555
C3G C4A 1_555 1_555
C3D C4B 1_555 1_555
C3E C4C 1_555 1_555

#END
