
#######################################################################
#
#                 Cambridge Crystallographic Data Centre
#                                CCDC 
#
#######################################################################
#
# If this CIF has been generated from an entry in the Cambridge 
# Structural Database, then it will include bibliographic, chemical, 
# crystal, experimental, refinement or atomic coordinate data resulting 
# from the CCDC's data processing and validation procedures.
#
#######################################################################

data_KUBFIY
_chemical_name_common            'Rubialatin C'
_chemical_formula_moiety         'C27 H20 O7'
_chemical_name_systematic        
"Methyl 7'-hydroxy-5,5-dimethyl-8',13'-dioxo-8',13'-dihydro-5H,13a'H-spiro[furan-2,1'-[2]oxabenzo[g]naphtho[1,2,3-cd]azulene]-13a'-carboxylate"
_symmetry_cell_setting           monoclinic
_symmetry_space_group_name_H-M   'P 21/n'
_symmetry_Int_Tables_number      14
_space_group_name_Hall           '-P 2yn'
loop_
_symmetry_equiv_pos_site_id
_symmetry_equiv_pos_as_xyz
1 x,y,z
2 1/2-x,1/2+y,1/2-z
3 -x,-y,-z
4 1/2+x,1/2-y,1/2+z
_cell_length_a                   8.3350(4)
_cell_length_b                   14.7614(8)
_cell_length_c                   17.5135(11)
_cell_angle_alpha                90
_cell_angle_beta                 93.695(5)
_cell_angle_gamma                90
_cell_volume                     2150.32
_cell_formula_units_Z            4
loop_
_atom_site_label
_atom_site_type_symbol
_atom_site_fract_x
_atom_site_fract_y
_atom_site_fract_z
C1 C 0.7534(3) 0.2123(2) 0.66046(19)
C2 C 0.7888(3) 0.28984(19) 0.71355(18)
C3 C 0.6771(4) 0.35065(19) 0.74195(18)
C4 C 0.5064(4) 0.3688(2) 0.7126(2)
C5 C 0.4566(3) 0.36285(19) 0.63146(18)
C6 C 0.5310(3) 0.30374(18) 0.58052(18)
C7 C 0.6203(3) 0.21601(18) 0.59666(17)
C8 C 0.6938(3) 0.20177(18) 0.51775(17)
C9 C 0.5014(3) 0.30973(18) 0.50400(18)
C10 C 0.3995(3) 0.37571(18) 0.46870(19)
C11 C 0.3678(3) 0.38285(19) 0.3889(2)
H1 H 0.4209 0.3436 0.3557
C12 C 0.2613(3) 0.4459(2) 0.3589(2)
H2 H 0.2388 0.4494 0.3051
C13 C 0.1853(4) 0.5055(2) 0.4075(2)
H3 H 0.1135 0.5500 0.3861
C14 C 0.2130(4) 0.5002(2) 0.4849(2)
H4 H 0.1599 0.5410 0.5168
C15 C 0.3208(3) 0.43436(19) 0.51866(19)
C16 C 0.3472(3) 0.42581(19) 0.5989(2)
C17 C 0.7298(4) 0.4081(2) 0.8020(2)
H5 H 0.6555 0.4482 0.8232
C18 C 0.8877(5) 0.4074(2) 0.8311(2)
H6 H 0.9197 0.4462 0.8726
C19 C 0.9995(5) 0.3517(2) 0.8010(2)
H7 H 1.1093 0.3541 0.8191
C20 C 0.9485(4) 0.2921(2) 0.7438(2)
H8 H 1.0240 0.2513 0.7243
C21 C 0.7352(3) 0.11174(18) 0.48726(19)
H9 H 0.6683 0.0596 0.4865
C22 C 0.8803(3) 0.11593(19) 0.4613(2)
H10 H 0.9314 0.0672 0.4370
C23 C 0.9536(3) 0.2073(2) 0.4752(2)
C24 C 1.1093(3) 0.2037(2) 0.5244(3)
H11 H 1.1415 0.2652 0.5398
H12 H 1.1933 0.1763 0.4952
H13 H 1.0941 0.1671 0.5701
C25 C 0.9701(4) 0.2623(2) 0.4033(2)
H14 H 0.8656 0.2660 0.3744
H15 H 1.0481 0.2331 0.3717
H16 H 1.0074 0.3234 0.4171
C26 C 0.4952(3) 0.14529(19) 0.61497(19)
C27 C 0.3327(4) 0.0984(2) 0.7144(2)
H17 H 0.2343 0.1023 0.6808
H18 H 0.3092 0.1163 0.7664
H19 H 0.3729 0.0360 0.7149
O1 O 0.8293(3) 0.14240(15) 0.66786(14)
O2 O 0.4145(3) 0.40339(16) 0.75753(15)
O3 O 0.2671(3) 0.48342(17) 0.64261(18)
O4 O 0.5750(2) 0.24385(12) 0.46348(11)
O5 O 0.8359(2) 0.25220(12) 0.52046(12)
O6 O 0.4402(2) 0.08773(14) 0.57299(14)
O7 O 0.4533(3) 0.15841(14) 0.68653(14)
H20 H 0.287(6) 0.464(3) 0.688(3)
loop_
_geom_bond_atom_site_label_1
_geom_bond_atom_site_label_2
_geom_bond_site_symmetry_1
_geom_bond_site_symmetry_2
C1 C2 1_555 1_555
C2 C3 1_555 1_555
C3 C4 1_555 1_555
C4 C5 1_555 1_555
C5 C6 1_555 1_555
C6 C7 1_555 1_555
C7 C1 1_555 1_555
C8 C7 1_555 1_555
C9 C6 1_555 1_555
C10 C9 1_555 1_555
C11 C10 1_555 1_555
H1 C11 1_555 1_555
C12 C11 1_555 1_555
H2 C12 1_555 1_555
C13 C12 1_555 1_555
H3 C13 1_555 1_555
C14 C13 1_555 1_555
H4 C14 1_555 1_555
C15 C10 1_555 1_555
C16 C5 1_555 1_555
C17 C3 1_555 1_555
H5 C17 1_555 1_555
C18 C17 1_555 1_555
H6 C18 1_555 1_555
C19 C18 1_555 1_555
H7 C19 1_555 1_555
C20 C2 1_555 1_555
H8 C20 1_555 1_555
C21 C8 1_555 1_555
H9 C21 1_555 1_555
C22 C21 1_555 1_555
H10 C22 1_555 1_555
C23 C22 1_555 1_555
C24 C23 1_555 1_555
H11 C24 1_555 1_555
H12 C24 1_555 1_555
H13 C24 1_555 1_555
C25 C23 1_555 1_555
H14 C25 1_555 1_555
H15 C25 1_555 1_555
H16 C25 1_555 1_555
C26 C7 1_555 1_555
C27 H17 1_555 1_555
H18 C27 1_555 1_555
H19 C27 1_555 1_555
O1 C1 1_555 1_555
O2 C4 1_555 1_555
O3 C16 1_555 1_555
O4 C8 1_555 1_555
O5 C8 1_555 1_555
O6 C26 1_555 1_555
O7 C26 1_555 1_555
H20 O3 1_555 1_555
C9 O4 1_555 1_555
C14 C15 1_555 1_555
C15 C16 1_555 1_555
C19 C20 1_555 1_555
C23 O5 1_555 1_555
C27 O7 1_555 1_555

#END
