
#######################################################################
#
#                 Cambridge Crystallographic Data Centre
#                                CCDC 
#
#######################################################################
#
# If this CIF has been generated from an entry in the Cambridge 
# Structural Database, then it will include bibliographic, chemical, 
# crystal, experimental, refinement or atomic coordinate data resulting 
# from the CCDC's data processing and validation procedures.
#
#######################################################################

data_KUBMAV
_chemical_formula_moiety         'C25 H27 O6'
_chemical_name_systematic        'tris(2,6-Dimethoxyphenyl)methyl radical'
_symmetry_cell_setting           monoclinic
_symmetry_space_group_name_H-M   'P 2/n'
_symmetry_Int_Tables_number      13
_space_group_name_Hall           '-P 2yac'
loop_
_symmetry_equiv_pos_site_id
_symmetry_equiv_pos_as_xyz
1 x,y,z
2 1/2-x,y,1/2-z
3 -x,-y,-z
4 1/2+x,-y,1/2+z
_cell_length_a                   10.405(1)
_cell_length_b                   9.429(2)
_cell_length_c                   11.767(2)
_cell_angle_alpha                90
_cell_angle_beta                 102.120(9)
_cell_angle_gamma                90
_cell_volume                     1128.71
_exptl_crystal_colour            'metallic green'
_cell_formula_units_Z            2
loop_
_atom_site_label
_atom_site_type_symbol
_atom_site_fract_x
_atom_site_fract_y
_atom_site_fract_z
O1 O 0.0794(3) -0.0518(3) 0.3549(2)
O2 O 0.2947(3) 0.2839(3) 0.4378(2)
O3 O -0.0081(2) 0.0940(3) 0.1272(2)
C1 C 0.2500 0.1074(6) 0.2500
C2 C 0.2500 -0.0431(6) 0.2500
C3 C 0.1603(4) -0.1258(5) 0.2996(3)
C4 C 0.1588(5) -0.2717(5) 0.2975(4)
C5 C 0.2500 -0.3437(8) 0.2500
C6 C -0.0331(5) -0.1189(7) 0.3790(6)
C7 C 0.1433(3) 0.1955(4) 0.2785(3)
C8 C 0.1706(3) 0.2929(4) 0.3703(3)
C9 C 0.0767(4) 0.3854(5) 0.3935(3)
C10 C -0.0479(4) 0.3830(5) 0.3229(4)
C11 C -0.0800(4) 0.2871(5) 0.2330(4)
C12 C 0.0147(3) 0.1934(5) 0.2119(3)
C13 C 0.3359(5) 0.3823(7) 0.5281(5)
C14 C -0.1360(5) 0.0840(7) 0.0564(5)
H1 H 0.094 -0.322 0.330
H2 H 0.250 -0.447 0.250
H3 H -0.079 -0.056 0.420
H4 H -0.088 -0.153 0.311
H5 H -0.005 -0.200 0.430
H6 H 0.098 0.449 0.459
H7 H -0.112 0.451 0.336
H8 H -0.167 0.284 0.186
H9 H 0.423 0.365 0.568
H10 H 0.332 0.478 0.496
H11 H 0.279 0.381 0.582
H12 H -0.140 0.011 0.000
H13 H -0.199 0.064 0.103
H14 H -0.160 0.172 0.017
C3A C 0.3397(4) -0.1258(5) 0.2004(3)
C7A C 0.3567(3) 0.1955(4) 0.2215(3)
C4A C 0.3412(5) -0.2717(5) 0.2025(4)
O1A O 0.4206(3) -0.0518(3) 0.1451(2)
C8A C 0.3294(3) 0.2929(4) 0.1297(3)
C12A C 0.4853(3) 0.1934(5) 0.2881(3)
H1A H 0.406 -0.322 0.170
C6A C 0.5331(5) -0.1189(7) 0.1210(6)
O2A O 0.2053(3) 0.2839(3) 0.0622(2)
C9A C 0.4233(4) 0.3854(5) 0.1065(3)
O3A O 0.5081(2) 0.0940(3) 0.3728(2)
C11A C 0.5800(4) 0.2871(5) 0.2670(4)
H3A H 0.579 -0.056 0.080
H4A H 0.588 -0.153 0.189
H5A H 0.505 -0.200 0.070
C13A C 0.1641(5) 0.3823(7) -0.0281(5)
C10A C 0.5479(4) 0.3830(5) 0.1771(4)
H6A H 0.402 0.449 0.041
C14A C 0.6360(5) 0.0840(7) 0.4436(5)
H8A H 0.667 0.284 0.314
H9A H 0.077 0.365 -0.068
H10A H 0.168 0.478 0.004
H11A H 0.221 0.381 -0.082
H7A H 0.612 0.451 0.164
H12A H 0.640 0.011 0.500
H13A H 0.699 0.064 0.397
H14A H 0.660 0.172 0.483
loop_
_geom_bond_atom_site_label_1
_geom_bond_atom_site_label_2
_geom_bond_site_symmetry_1
_geom_bond_site_symmetry_2
O1 C3 1_555 1_555
O2 C8 1_555 1_555
O3 C12 1_555 1_555
C1 C2 1_555 1_555
C2 C3 1_555 1_555
C3 C4 1_555 1_555
C4 C5 1_555 1_555
C5 H2 1_555 1_555
C6 O1 1_555 1_555
C7 C1 1_555 1_555
C8 C7 1_555 1_555
C9 C8 1_555 1_555
C10 C9 1_555 1_555
C11 C10 1_555 1_555
C12 C7 1_555 1_555
C13 O2 1_555 1_555
C14 O3 1_555 1_555
H1 C4 1_555 1_555
H3 C6 1_555 1_555
H4 C6 1_555 1_555
H5 C6 1_555 1_555
H6 C9 1_555 1_555
H7 C10 1_555 1_555
H8 C11 1_555 1_555
H9 C13 1_555 1_555
H10 C13 1_555 1_555
H11 C13 1_555 1_555
H12 C14 1_555 1_555
H13 C14 1_555 1_555
H14 C14 1_555 1_555
C3A C2 1_555 1_555
C7A C1 1_555 1_555
C4A C5 1_555 1_555
O1A C3A 1_555 1_555
C8A C7A 1_555 1_555
C12A C7A 1_555 1_555
H1A C4A 1_555 1_555
C6A O1A 1_555 1_555
O2A C8A 1_555 1_555
C9A C8A 1_555 1_555
O3A C12A 1_555 1_555
C11A C12A 1_555 1_555
H3A C6A 1_555 1_555
H4A C6A 1_555 1_555
H5A C6A 1_555 1_555
C13A O2A 1_555 1_555
C10A C9A 1_555 1_555
H6A C9A 1_555 1_555
C14A O3A 1_555 1_555
H8A C11A 1_555 1_555
H9A C13A 1_555 1_555
H10A C13A 1_555 1_555
H11A C13A 1_555 1_555
H7A C10A 1_555 1_555
H12A C14A 1_555 1_555
H13A C14A 1_555 1_555
H14A C14A 1_555 1_555
C11 C12 1_555 1_555
C3A C4A 1_555 1_555
C11A C10A 1_555 1_555

#END
