
#######################################################################
#
#                 Cambridge Crystallographic Data Centre
#                                CCDC 
#
#######################################################################
#
# If this CIF has been generated from an entry in the Cambridge 
# Structural Database, then it will include bibliographic, chemical, 
# crystal, experimental, refinement or atomic coordinate data resulting 
# from the CCDC's data processing and validation procedures.
#
#######################################################################

data_KUBTIK
_chemical_formula_moiety         'C14 H24 B1 N3'
_chemical_name_systematic        
6-(1-Cyanopropylidene)-2,5-diethyl-1,2,3,4-tetrahydro-4-propyl-1,3,2-diazaborine
_symmetry_cell_setting           triclinic
_symmetry_space_group_name_H-M   'P -1'
_symmetry_Int_Tables_number      2
_space_group_name_Hall           '-P 1'
loop_
_symmetry_equiv_pos_site_id
_symmetry_equiv_pos_as_xyz
1 x,y,z
2 -x,-y,-z
_cell_length_a                   9.003(2)
_cell_length_b                   9.150(2)
_cell_length_c                   9.650(2)
_cell_angle_alpha                87.44(2)
_cell_angle_beta                 88.22(2)
_cell_angle_gamma                68.04(2)
_cell_volume                     736.441
_chemical_melting_point          97-98deg.C
_cell_formula_units_Z            2
loop_
_atom_site_label
_atom_site_type_symbol
_atom_site_fract_x
_atom_site_fract_y
_atom_site_fract_z
N1 N 0.2673(1) 0.0440(1) 0.0179(1)
N2 N 0.1736(1) 0.2834(1) -0.1149(1)
N3 N 0.2834(2) 0.7121(2) 0.0790(1)
B1 B 0.1837(2) 0.1255(2) -0.1001(2)
C1 C 0.2373(2) 0.3603(2) -0.0268(1)
C2 C 0.3314(2) 0.2617(2) 0.0866(1)
C3 C 0.3412(2) 0.1102(2) 0.1060(1)
C4 C 0.2030(2) 0.5181(2) -0.0561(1)
C5 C 0.1042(2) 0.6053(2) -0.1796(2)
C6 C 0.1969(2) 0.5803(2) -0.3169(2)
C7 C 0.2531(2) 0.6178(2) 0.0234(2)
C8 C 0.4157(2) 0.3293(2) 0.1836(2)
C9 C 0.3153(2) 0.4088(2) 0.3087(2)
C10 C 0.4250(2) -0.0016(2) 0.2227(2)
C11 C 0.3092(2) -0.0259(2) 0.3313(2)
C12 C 0.3921(2) -0.1543(2) 0.4373(2)
C13 C 0.1104(2) 0.0485(2) -0.2080(2)
C14 C 0.0530(2) 0.1435(2) -0.3419(2)
loop_
_geom_bond_atom_site_label_1
_geom_bond_atom_site_label_2
_geom_bond_site_symmetry_1
_geom_bond_site_symmetry_2
N1 B1 1_555 1_555
N2 B1 1_555 1_555
N3 C7 1_555 1_555
B1 C13 1_555 1_555
C1 N2 1_555 1_555
C2 C1 1_555 1_555
C3 N1 1_555 1_555
C4 C1 1_555 1_555
C5 C4 1_555 1_555
C6 C5 1_555 1_555
C7 C4 1_555 1_555
C8 C2 1_555 1_555
C9 C8 1_555 1_555
C10 C3 1_555 1_555
C11 C10 1_555 1_555
C12 C11 1_555 1_555
C13 C14 1_555 1_555
C2 C3 1_555 1_555

#END
