
#######################################################################
#
#                 Cambridge Crystallographic Data Centre
#                                CCDC 
#
#######################################################################
#
# If this CIF has been generated from an entry in the Cambridge 
# Structural Database, then it will include bibliographic, chemical, 
# crystal, experimental, refinement or atomic coordinate data resulting 
# from the CCDC's data processing and validation procedures.
#
#######################################################################

data_KUBTEG
_chemical_formula_moiety         'C10 H18 B1 N3'
_chemical_name_systematic        
5-Cyano-2,2-diethyl-1,2-dihydro-4,6-dimethyl-1,3,2-aza-azoniaboratine
_symmetry_cell_setting           orthorhombic
_symmetry_space_group_name_H-M   'P b c a'
_symmetry_Int_Tables_number      61
_space_group_name_Hall           '-P 2ac 2ab'
loop_
_symmetry_equiv_pos_site_id
_symmetry_equiv_pos_as_xyz
1 x,y,z
2 1/2-x,-y,1/2+z
3 1/2+x,1/2-y,-z
4 -x,1/2+y,1/2-z
5 -x,-y,-z
6 1/2+x,y,1/2-z
7 1/2-x,1/2+y,z
8 x,1/2-y,1/2+z
_cell_length_a                   14.099(2)
_cell_length_b                   13.173(2)
_cell_length_c                   24.869(4)
_cell_angle_alpha                90
_cell_angle_beta                 90
_cell_angle_gamma                90
_cell_volume                     4618.82
_exptl_crystal_colour            yellow
_chemical_melting_point          81-82deg.C
_cell_formula_units_Z            16
loop_
_atom_site_label
_atom_site_type_symbol
_atom_site_fract_x
_atom_site_fract_y
_atom_site_fract_z
N1 N 0.6892(41) 0.0723(1) 0.5219(1)
N2 N 0.8141(1) 0.2027(1) 0.5142(1)
N3 N 0.8666(1) 0.0464(1) 0.6832(1)
B1 B 0.7446(2) 0.1370(2) 0.4784(1)
C1 C 0.7159(2) 0.0536(2) 0.5711(1)
C2 C 0.7990(2) 0.1010(2) 0.5914(1)
C3 C 0.8448(2) 0.1786(2) 0.5623(1)
C4 C 0.6701(2) 0.2055(2) 0.4457(1)
C5 C 0.7142(2) 0.2766(2) 0.4041(1)
C6 C 0.8080(2) 0.0649(2) 0.4404(1)
C7 C 0.8758(2) -0.0075(2) 0.4689(1)
C8 C 0.6600(2) -0.0162(2) 0.6057(1)
C9 C 0.8351(2) 0.0719(2) 0.6424(1)
C10 C 0.9282(2) 0.2329(2) 0.5857(1)
N4 N 1.0582(1) -0.3178(1) 0.7198(1)
N5 N 0.9689(1) -0.1765(2) 0.6787(1)
N6 N 1.0533(1) -0.3918(2) 0.5334(1)
B2 B 1.0047(2) -0.2166(2) 0.7348(1)
C11 C 1.0667(2) -0.3602(2) 0.6729(1)
C12 C 1.0256(2) -0.3130(2) 0.6269(1)
C13 C 0.9768(2) -0.2196(2) 0.6318(1)
C14 C 1.0777(2) -0.1370(2) 0.7611(1)
C15 C 1.1607(2) -0.1043(2) 0.7260(1)
C16 C 0.9155(2) -0.2443(2) 0.7723(1)
C17 C 0.8432(2) -0.3170(2) 0.7478(1)
C18 C 1.1199(2) -0.4580(2) 0.6675(1)
C19 C 1.0397(2) -0.3566(2) 0.5754(1)
C20 C 0.9330(2) -0.1711(2) 0.5831(1)
loop_
_geom_bond_atom_site_label_1
_geom_bond_atom_site_label_2
_geom_bond_site_symmetry_1
_geom_bond_site_symmetry_2
N1 B1 1_555 1_555
N2 B1 1_555 1_555
N3 C9 1_555 1_555
B1 C4 1_555 1_555
C1 N1 1_555 1_555
C2 C1 1_555 1_555
C3 N2 1_555 1_555
C4 C5 1_555 1_555
C6 B1 1_555 1_555
C7 C6 1_555 1_555
C8 C1 1_555 1_555
C9 C2 1_555 1_555
C10 C3 1_555 1_555
N4 B2 1_555 1_555
N5 B2 1_555 1_555
N6 C19 1_555 1_555
B2 C14 1_555 1_555
C11 N4 1_555 1_555
C12 C11 1_555 1_555
C13 N5 1_555 1_555
C14 C15 1_555 1_555
C16 B2 1_555 1_555
C17 C16 1_555 1_555
C18 C11 1_555 1_555
C19 C12 1_555 1_555
C20 C13 1_555 1_555
C2 C3 1_555 1_555
C12 C13 1_555 1_555

#END
