
#######################################################################
#
#                 Cambridge Crystallographic Data Centre
#                                CCDC 
#
#######################################################################
#
# If this CIF has been generated from an entry in the Cambridge 
# Structural Database, then it will include bibliographic, chemical, 
# crystal, experimental, refinement or atomic coordinate data resulting 
# from the CCDC's data processing and validation procedures.
#
#######################################################################

data_KUBZAK
_chemical_formula_moiety         'C18 H15 Br1 O2 S2'
_chemical_name_systematic        
2'-(4-Bromophenyl)-4'-hydroxy-4',5'-dihydro-4H-spiro[thiochromene-3,3'-thiophen]-4-one
_symmetry_cell_setting           monoclinic
_symmetry_space_group_name_H-M   'C 2'
_symmetry_Int_Tables_number      5
_space_group_name_Hall           'C 2y'
loop_
_symmetry_equiv_pos_site_id
_symmetry_equiv_pos_as_xyz
1 x,y,z
2 -x,y,-z
3 1/2+x,1/2+y,z
4 1/2-x,1/2+y,-z
_cell_length_a                   22.494(6)
_cell_length_b                   7.414(2)
_cell_length_c                   11.122(3)
_cell_angle_alpha                90
_cell_angle_beta                 112.10(2)
_cell_angle_gamma                90
_cell_volume                     1718.55
_cell_formula_units_Z            4
loop_
_atom_site_label
_atom_site_type_symbol
_atom_site_fract_x
_atom_site_fract_y
_atom_site_fract_z
Br1 Br -0.07560(2) 0.54783(10) 0.26182(6)
S1 S 0.09735(6) 1.15472(15) 0.02823(15)
O1 O 0.23225(13) 0.9952(4) 0.0232(3)
H1 H 0.2477 1.0608 -0.0168
C1 C -0.01146(19) 0.6661(7) 0.2192(4)
S2 S 0.27373(6) 1.10212(18) 0.43420(13)
O2 O 0.21514(12) 0.6599(4) 0.1470(3)
C2 C -0.0044(2) 0.8496(7) 0.2335(4)
H2 H -0.0295 0.9160 0.2676
C3 C 0.04048(19) 0.9332(6) 0.1966(4)
H3 H 0.0457 1.0574 0.2074
C4 C 0.07803(16) 0.8412(5) 0.1443(3)
C5 C 0.07046(16) 0.6567(5) 0.1318(3)
H4 H 0.0957 0.5900 0.0983
C6 C 0.02524(17) 0.5695(6) 0.1693(3)
H5 H 0.0202 0.4451 0.1602
C7 C 0.12527(17) 0.9308(4) 0.0964(4)
H6 H 0.1280 0.8560 0.0260
C8 C 0.19511(17) 0.9611(4) 0.1953(4)
C9 C 0.22411(19) 1.0945(5) 0.1246(4)
H7 H 0.2656 1.1396 0.1848
C10 C 0.1774(2) 1.2473(6) 0.0762(6)
H8 H 0.1828 1.3052 0.0027
H9 H 0.1847 1.3364 0.1441
C11 C 0.19558(16) 1.0360(7) 0.3239(4)
H10 H 0.1788 0.9449 0.3652
H11 H 0.1672 1.1395 0.3061
C12 C 0.23356(18) 0.7876(5) 0.2209(4)
C13 C 0.29606(19) 0.7783(6) 0.3321(4)
C14 C 0.3177(2) 0.9140(6) 0.4259(4)
C15 C 0.3793(3) 0.8975(9) 0.5226(5)
H12 H 0.3948 0.9878 0.5847
C16 C 0.4169(2) 0.7508(11) 0.5270(5)
H13 H 0.4579 0.7436 0.5907
C17 C 0.3946(3) 0.6142(8) 0.4383(5)
H14 H 0.4198 0.5127 0.4437
C18 C 0.3338(2) 0.6282(7) 0.3395(4)
H15 H 0.3187 0.5362 0.2786
loop_
_geom_bond_atom_site_label_1
_geom_bond_atom_site_label_2
_geom_bond_site_symmetry_1
_geom_bond_site_symmetry_2
Br1 C1 1_555 1_555
S1 C7 1_555 1_555
O1 H1 1_555 1_555
C1 C2 1_555 1_555
S2 C11 1_555 1_555
O2 C12 1_555 1_555
C2 H2 1_555 1_555
C3 C2 1_555 1_555
H3 C3 1_555 1_555
C4 C3 1_555 1_555
C5 C4 1_555 1_555
H4 C5 1_555 1_555
C6 C1 1_555 1_555
H5 C6 1_555 1_555
C7 C4 1_555 1_555
H6 C7 1_555 1_555
C8 C7 1_555 1_555
C9 O1 1_555 1_555
H7 C9 1_555 1_555
C10 S1 1_555 1_555
H8 C10 1_555 1_555
H9 C10 1_555 1_555
C11 C8 1_555 1_555
H10 C11 1_555 1_555
H11 C11 1_555 1_555
C12 C8 1_555 1_555
C13 C12 1_555 1_555
C14 S2 1_555 1_555
C15 C14 1_555 1_555
H12 C15 1_555 1_555
C16 C15 1_555 1_555
H13 C16 1_555 1_555
C17 C16 1_555 1_555
H14 C17 1_555 1_555
C18 C13 1_555 1_555
H15 C18 1_555 1_555
C5 C6 1_555 1_555
C8 C9 1_555 1_555
C9 C10 1_555 1_555
C13 C14 1_555 1_555
C17 C18 1_555 1_555

#END
