
#######################################################################
#
#                 Cambridge Crystallographic Data Centre
#                                CCDC 
#
#######################################################################
#
# If this CIF has been generated from an entry in the Cambridge 
# Structural Database, then it will include bibliographic, chemical, 
# crystal, experimental, refinement or atomic coordinate data resulting 
# from the CCDC's data processing and validation procedures.
#
#######################################################################

data_KUCBEQ
_chemical_formula_moiety         'C49 H44 Br2 N4,C1 H1 Cl3'
_chemical_name_systematic        
"2,2'-(2,10-Dibromo-6,6-dioctyl-6H-diindeno[1,2-b:2',1'-h]fluorene-12,15-diylidene)dimalononitrile chloroform solvate"
_symmetry_cell_setting           orthorhombic
_symmetry_space_group_name_H-M   'I b a 2'
_symmetry_Int_Tables_number      45
_space_group_name_Hall           'I 2 -2c'
loop_
_symmetry_equiv_pos_site_id
_symmetry_equiv_pos_as_xyz
1 x,y,z
2 -x,-y,z
3 1/2+x,1/2-y,z
4 1/2-x,1/2+y,z
5 1/2+x,1/2+y,1/2+z
6 1/2-x,1/2-y,1/2+z
7 x,-y,1/2+z
8 -x,y,1/2+z
_cell_length_a                   22.2091(6)
_cell_length_b                   22.2174(7)
_cell_length_c                   36.3970(10)
_cell_angle_alpha                90
_cell_angle_beta                 90
_cell_angle_gamma                90
_cell_volume                     17959.3
_exptl_crystal_description       block
_cell_formula_units_Z            16
_exptl_crystal_recrystallization_method methanol/chloroform
loop_
_atom_site_label
_atom_site_type_symbol
_atom_site_fract_x
_atom_site_fract_y
_atom_site_fract_z
Br1 Br 0.07821(3) 0.67390(2) 0.296170(19)
Br2 Br 0.08604(3) -0.17556(3) 0.314130(17)
N1 N 0.0776(2) 0.5280(2) 0.18394(13)
N2 N 0.0829(2) 0.3369(2) 0.18683(12)
N3 N 0.0721(2) 0.1507(2) 0.19013(12)
N4 N 0.0758(2) -0.0412(2) 0.19530(12)
C1 C 0.0785(2) 0.5909(2) 0.30738(16)
C2 C 0.0787(2) 0.5501(2) 0.27800(15)
H1 H 0.0779 0.5634 0.2532
C3 C 0.0802(2) 0.4890(2) 0.28688(15)
C4 C 0.0802(2) 0.4352(2) 0.26295(15)
C5 C 0.0813(2) 0.3828(2) 0.28760(14)
C6 C 0.0808(2) 0.3209(3) 0.28034(16)
H2 H 0.0786 0.3057 0.2560
C7 C 0.0840(2) 0.2827(2) 0.31051(14)
C8 C 0.0826(2) 0.2162(2) 0.31148(13)
C9 C 0.0782(2) 0.1750(2) 0.28332(14)
H3 H 0.0754 0.1876 0.2584
C10 C 0.0780(2) 0.1143(2) 0.29263(15)
C11 C 0.0772(2) 0.0594(2) 0.27033(15)
C12 C 0.0783(2) 0.0074(2) 0.29606(17)
C13 C 0.0788(2) -0.0545(2) 0.28987(14)
H4 H 0.0781 -0.0708 0.2658
C14 C 0.0806(2) -0.0913(2) 0.32112(15)
C15 C 0.0810(2) -0.0686(3) 0.35617(15)
H5 H 0.0808 -0.0951 0.3766
C16 C 0.0816(2) -0.0076(2) 0.36174(16)
H6 H 0.0829 0.0081 0.3860
C17 C 0.0804(2) 0.0307(2) 0.33231(15)
C18 C 0.0822(2) 0.0966(2) 0.32996(15)
C19 C 0.08702(19) 0.1386(2) 0.35796(14)
H7 H 0.0892 0.1264 0.3829
C20 C 0.08860(19) 0.1981(2) 0.34856(13)
C21 C 0.1000(2) 0.2531(2) 0.37312(12)
C22 C 0.0891(2) 0.3039(2) 0.34637(13)
C23 C 0.08814(19) 0.3652(2) 0.35378(13)
H8 H 0.0907 0.3800 0.3782
C24 C 0.0833(2) 0.4044(2) 0.32393(14)
C25 C 0.0812(2) 0.4705(2) 0.32344(15)
C26 C 0.0803(2) 0.5110(2) 0.35175(16)
H9 H 0.0806 0.4977 0.3766
C27 C 0.0788(2) 0.5716(3) 0.34353(16)
H10 H 0.0779 0.6003 0.3629
C28 C 0.0802(2) 0.4339(2) 0.22526(13)
C29 C 0.0783(2) 0.4873(3) 0.20274(15)
C30 C 0.0813(2) 0.3791(2) 0.20403(14)
C31 C 0.0761(2) 0.0566(2) 0.23284(13)
C32 C 0.0761(2) 0.0010(2) 0.21266(16)
C33 C 0.0737(2) 0.1088(3) 0.20923(14)
C34 C 0.0611(2) 0.2548(2) 0.40808(13)
H11 H 0.0722 0.2197 0.4235
H12 H 0.0717 0.2915 0.4221
C35 C -0.0070(2) 0.2540(2) 0.40260(15)
H13 H -0.0191 0.2901 0.3884
H14 H -0.0183 0.2181 0.3881
C36 C -0.0409(2) 0.2533(2) 0.43882(14)
H15 H -0.0290 0.2888 0.4535
H16 H -0.0295 0.2168 0.4528
C37 C -0.1094(2) 0.2539(2) 0.43355(13)
H17 H -0.1214 0.2183 0.4189
H18 H -0.1208 0.2903 0.4194
C38 C -0.1443(2) 0.2535(2) 0.47012(13)
H19 H -0.1339 0.2165 0.4839
H20 H -0.1314 0.2884 0.4851
C39 C -0.2122(2) 0.2561(2) 0.46498(13)
H21 H -0.2254 0.2203 0.4510
H22 H -0.2225 0.2922 0.4503
C40 C -0.2464(2) 0.2585(3) 0.50160(16)
H23 H -0.2355 0.2227 0.5164
H24 H -0.2333 0.2946 0.5154
C41 C -0.3141(2) 0.2604(3) 0.49706(16)
H25 H -0.3247 0.2906 0.4786
H26 H -0.3328 0.2710 0.5206
H27 H -0.3286 0.2208 0.4891
C42 C 0.16797(19) 0.25263(19) 0.38445(12)
H28 H 0.1753 0.2868 0.4013
H29 H 0.1761 0.2151 0.3983
C43 C 0.2122(2) 0.2567(2) 0.35288(13)
H30 H 0.2187 0.2997 0.3468
H31 H 0.1944 0.2370 0.3310
C44 C 0.2731(2) 0.2276(2) 0.36110(13)
H32 H 0.3012 0.2373 0.3408
H33 H 0.2896 0.2457 0.3838
C45 C 0.2713(2) 0.1593(2) 0.36590(14)
H34 H 0.2409 0.1489 0.3847
H35 H 0.3110 0.1452 0.3748
C46 C 0.2558(2) 0.1266(2) 0.32979(13)
H36 H 0.2163 0.1411 0.3209
H37 H 0.2864 0.1371 0.3110
C47 C 0.2534(2) 0.0582(2) 0.33373(15)
H38 H 0.2191 0.0472 0.3498
H39 H 0.2908 0.0440 0.3458
C48 C 0.2464(2) 0.0263(2) 0.29656(17)
H40 H 0.2087 0.0404 0.2848
H41 H 0.2802 0.0384 0.2805
C49 C 0.2449(2) -0.0413(3) 0.29876(19)
H42 H 0.2828 -0.0560 0.3092
H43 H 0.2394 -0.0581 0.2741
H44 H 0.2113 -0.0539 0.3145
Br3 Br 1.17431(2) 0.41086(3) 0.546154(19)
Br4 Br 0.32354(2) 0.42355(3) 0.564769(17)
N5 N 1.0277(2) 0.4236(2) 0.43500(13)
N6 N 0.8368(2) 0.4265(2) 0.43772(13)
N7 N 0.6491(2) 0.4242(2) 0.44055(12)
N8 N 0.4575(2) 0.4260(2) 0.44565(12)
C50 C 1.0907(2) 0.4167(2) 0.55733(15)
C51 C 1.0506(2) 0.4198(2) 0.52869(15)
H45 H 1.0640 0.4208 0.5039
C52 C 0.9891(2) 0.4215(2) 0.53728(15)
C53 C 0.9357(2) 0.4234(2) 0.51350(14)
C54 C 0.8828(2) 0.4224(2) 0.53843(14)
C55 C 0.8216(2) 0.4230(2) 0.53121(14)
H46 H 0.8065 0.4262 0.5069
C56 C 0.7831(2) 0.4186(2) 0.56126(13)
C57 C 0.7167(2) 0.4178(2) 0.56258(14)
C58 C 0.6749(2) 0.4213(2) 0.53401(14)
H47 H 0.6874 0.4244 0.5091
C59 C 0.6138(2) 0.4201(2) 0.54355(15)
C60 C 0.5590(2) 0.4216(2) 0.52101(15)
C61 C 0.5083(2) 0.4212(2) 0.54640(17)
C62 C 0.4451(2) 0.4227(2) 0.54040(15)
H48 H 0.4283 0.4232 0.5164
C63 C 0.4088(2) 0.4235(2) 0.57218(15)
C64 C 0.4303(2) 0.4231(2) 0.60691(14)
H49 H 0.4033 0.4239 0.6271
C65 C 0.4925(2) 0.4214(2) 0.61298(15)
H50 H 0.5084 0.4210 0.6372
C66 C 0.5301(2) 0.4202(2) 0.58307(14)
C67 C 0.5963(2) 0.4179(2) 0.58088(16)
C68 C 0.6379(2) 0.4133(2) 0.60909(14)
H51 H 0.6256 0.4107 0.6340
C69 C 0.6990(2) 0.4126(2) 0.59927(13)
C70 C 0.75208(19) 0.4019(2) 0.62412(12)
C71 C 0.8040(2) 0.4134(2) 0.59709(13)
C72 C 0.8658(2) 0.4136(2) 0.60457(14)
H52 H 0.8806 0.4102 0.6290
C73 C 0.9045(2) 0.4191(2) 0.57508(14)
C74 C 0.9710(2) 0.4195(2) 0.57407(14)
C75 C 1.0116(2) 0.4177(2) 0.60255(16)
H53 H 0.9985 0.4174 0.6274
C76 C 1.0731(2) 0.4165(2) 0.59374(15)
H54 H 1.1025 0.4155 0.6127
C77 C 0.9335(2) 0.4247(2) 0.47627(13)
C78 C 0.9876(2) 0.4242(2) 0.45365(15)
C79 C 0.8791(3) 0.4254(2) 0.45504(14)
C80 C 0.5561(2) 0.4227(2) 0.48365(14)
C81 C 0.6093(2) 0.4231(2) 0.46003(15)
C82 C 0.4998(3) 0.4242(3) 0.46298(16)
C83 C 0.7539(2) 0.4402(2) 0.65909(12)
H55 H 0.7187 0.4294 0.6744
H56 H 0.7905 0.4293 0.6731
C84 C 0.7537(2) 0.5076(2) 0.65355(14)
H57 H 0.7180 0.5189 0.6388
H58 H 0.7900 0.5192 0.6395
C85 C 0.7526(2) 0.5425(2) 0.68985(14)
H59 H 0.7166 0.5304 0.7041
H60 H 0.7886 0.5316 0.7044
C86 C 0.7515(2) 0.6099(2) 0.68441(13)
H61 H 0.7152 0.6209 0.6701
H62 H 0.7872 0.6220 0.6699
C87 C 0.7511(2) 0.6452(2) 0.72096(13)
H63 H 0.7155 0.6328 0.7355
H64 H 0.7875 0.6346 0.7352
C88 C 0.7493(2) 0.7133(2) 0.71541(14)
H65 H 0.7859 0.7262 0.7020
H66 H 0.7139 0.7239 0.7002
C89 C 0.7457(3) 0.7464(3) 0.75182(17)
H67 H 0.7804 0.7345 0.7673
H68 H 0.7085 0.7342 0.7648
C90 C 0.7459(3) 0.8156(2) 0.74722(16)
H69 H 0.7864 0.8291 0.7406
H70 H 0.7337 0.8346 0.7704
H71 H 0.7176 0.8270 0.7278
C91 C 0.75407(19) 0.3338(2) 0.63547(12)
H72 H 0.7931 0.3257 0.6477
H73 H 0.7219 0.3264 0.6537
C92 C 0.74651(19) 0.2894(2) 0.60393(13)
H74 H 0.7031 0.2851 0.5985
H75 H 0.7662 0.3061 0.5818
C93 C 0.7726(2) 0.2274(2) 0.61158(13)
H76 H 0.7610 0.1999 0.5914
H77 H 0.7549 0.2116 0.6346
C94 C 0.8430(2) 0.2275(2) 0.61532(13)
H78 H 0.8550 0.2570 0.6343
H79 H 0.8566 0.1872 0.6235
C95 C 0.8742(2) 0.2432(2) 0.57929(13)
H80 H 0.8604 0.2834 0.5711
H81 H 0.8622 0.2136 0.5603
C96 C 0.9428(2) 0.2438(2) 0.58236(14)
H82 H 0.9565 0.2052 0.5931
H83 H 0.9552 0.2766 0.5991
C97 C 0.9728(2) 0.2528(2) 0.54494(18)
H84 H 0.9586 0.2913 0.5343
H85 H 0.9598 0.2200 0.5283
C98 C 1.0417(2) 0.2536(3) 0.54633(19)
H86 H 1.0551 0.2837 0.5643
H87 H 1.0576 0.2639 0.5220
H88 H 1.0565 0.2138 0.5536
Cl1 Cl 0.28103(8) 0.39962(8) 0.39663(4)
Cl2 Cl 0.17196(7) 0.42135(7) 0.43699(4)
Cl3 Cl 0.28706(6) 0.43659(8) 0.47257(4)
C99 C 0.2476(2) 0.4446(3) 0.43076(15)
H89 H 0.2485 0.4878 0.4229
Cl4 Cl 0.08343(6) 0.21595(7) 0.64489(4)
Cl5 Cl 0.07178(6) 0.32849(6) 0.68360(4)
Cl6 Cl 0.06059(7) 0.21616(7) 0.72293(4)
C100 C 0.0477(3) 0.2539(2) 0.68106(14)
H90 H 0.0034 0.2538 0.6762
loop_
_geom_bond_atom_site_label_1
_geom_bond_atom_site_label_2
_geom_bond_site_symmetry_1
_geom_bond_site_symmetry_2
Br1 C1 1_555 1_555
Br2 C14 1_555 1_555
Br3 C50 1_555 1_555
Br4 C63 1_555 1_555
Cl1 C99 1_555 1_555
Cl2 C99 1_555 1_555
Cl3 C99 1_555 1_555
Cl4 C100 1_555 1_555
Cl5 C100 1_555 1_555
Cl6 C100 1_555 1_555
N1 C29 1_555 1_555
N2 C30 1_555 1_555
N3 C33 1_555 1_555
N4 C32 1_555 1_555
N5 C78 1_555 1_555
N6 C79 1_555 1_555
N7 C81 1_555 1_555
N8 C82 1_555 1_555
C1 C2 1_555 1_555
C2 H1 1_555 1_555
C3 C2 1_555 1_555
C4 C3 1_555 1_555
C5 C4 1_555 1_555
C6 C5 1_555 1_555
H2 C6 1_555 1_555
C7 C6 1_555 1_555
C8 C7 1_555 1_555
C9 C8 1_555 1_555
H3 C9 1_555 1_555
C10 C9 1_555 1_555
C11 C10 1_555 1_555
C12 C11 1_555 1_555
C13 C12 1_555 1_555
H4 C13 1_555 1_555
C14 C13 1_555 1_555
C15 C14 1_555 1_555
H5 C15 1_555 1_555
C16 C15 1_555 1_555
H6 C16 1_555 1_555
C17 C12 1_555 1_555
C18 C10 1_555 1_555
C19 C18 1_555 1_555
H7 C19 1_555 1_555
C20 C8 1_555 1_555
C21 C20 1_555 1_555
C22 C7 1_555 1_555
C23 C22 1_555 1_555
H8 C23 1_555 1_555
C24 C5 1_555 1_555
C25 C3 1_555 1_555
C26 C25 1_555 1_555
H9 C26 1_555 1_555
C27 C1 1_555 1_555
H10 C27 1_555 1_555
C28 C4 1_555 1_555
C29 C28 1_555 1_555
C30 C28 1_555 1_555
C31 C11 1_555 1_555
C32 C31 1_555 1_555
C33 C31 1_555 1_555
C34 C21 1_555 1_555
H11 C34 1_555 1_555
H12 C34 1_555 1_555
C35 C34 1_555 1_555
H13 C35 1_555 1_555
H14 C35 1_555 1_555
C36 C35 1_555 1_555
H15 C36 1_555 1_555
H16 C36 1_555 1_555
C37 C36 1_555 1_555
H17 C37 1_555 1_555
H18 C37 1_555 1_555
C38 C37 1_555 1_555
H19 C38 1_555 1_555
H20 C38 1_555 1_555
C39 C38 1_555 1_555
H21 C39 1_555 1_555
H22 C39 1_555 1_555
C40 C39 1_555 1_555
H23 C40 1_555 1_555
H24 C40 1_555 1_555
C41 C40 1_555 1_555
H25 C41 1_555 1_555
H26 C41 1_555 1_555
H27 C41 1_555 1_555
C42 C21 1_555 1_555
H28 C42 1_555 1_555
H29 C42 1_555 1_555
C43 C42 1_555 1_555
H30 C43 1_555 1_555
H31 C43 1_555 1_555
C44 C43 1_555 1_555
H32 C44 1_555 1_555
H33 C44 1_555 1_555
C45 C44 1_555 1_555
H34 C45 1_555 1_555
H35 C45 1_555 1_555
C46 C45 1_555 1_555
H36 C46 1_555 1_555
H37 C46 1_555 1_555
C47 C46 1_555 1_555
H38 C47 1_555 1_555
H39 C47 1_555 1_555
C48 C47 1_555 1_555
H40 C48 1_555 1_555
H41 C48 1_555 1_555
C49 C48 1_555 1_555
H42 C49 1_555 1_555
H43 C49 1_555 1_555
H44 C49 1_555 1_555
C50 C51 1_555 1_555
C51 H45 1_555 1_555
C52 C51 1_555 1_555
C53 C52 1_555 1_555
C54 C53 1_555 1_555
C55 C54 1_555 1_555
H46 C55 1_555 1_555
C56 C55 1_555 1_555
C57 C56 1_555 1_555
C58 C57 1_555 1_555
H47 C58 1_555 1_555
C59 C58 1_555 1_555
C60 C59 1_555 1_555
C61 C60 1_555 1_555
C62 C61 1_555 1_555
H48 C62 1_555 1_555
C63 C62 1_555 1_555
C64 C63 1_555 1_555
H49 C64 1_555 1_555
C65 C64 1_555 1_555
H50 C65 1_555 1_555
C66 C61 1_555 1_555
C67 C59 1_555 1_555
C68 C67 1_555 1_555
H51 C68 1_555 1_555
C69 C57 1_555 1_555
C70 C69 1_555 1_555
C71 C56 1_555 1_555
C72 C71 1_555 1_555
H52 C72 1_555 1_555
C73 C54 1_555 1_555
C74 C52 1_555 1_555
C75 C74 1_555 1_555
H53 C75 1_555 1_555
C76 C50 1_555 1_555
H54 C76 1_555 1_555
C77 C53 1_555 1_555
C78 C77 1_555 1_555
C79 C77 1_555 1_555
C80 C60 1_555 1_555
C81 C80 1_555 1_555
C82 C80 1_555 1_555
C83 C70 1_555 1_555
H55 C83 1_555 1_555
H56 C83 1_555 1_555
C84 C83 1_555 1_555
H57 C84 1_555 1_555
H58 C84 1_555 1_555
C85 C84 1_555 1_555
H59 C85 1_555 1_555
H60 C85 1_555 1_555
C86 C85 1_555 1_555
H61 C86 1_555 1_555
H62 C86 1_555 1_555
C87 C86 1_555 1_555
H63 C87 1_555 1_555
H64 C87 1_555 1_555
C88 C87 1_555 1_555
H65 C88 1_555 1_555
H66 C88 1_555 1_555
C89 C88 1_555 1_555
H67 C89 1_555 1_555
H68 C89 1_555 1_555
C90 C89 1_555 1_555
H69 C90 1_555 1_555
H70 C90 1_555 1_555
H71 C90 1_555 1_555
C91 C70 1_555 1_555
H72 C91 1_555 1_555
H73 C91 1_555 1_555
C92 C91 1_555 1_555
H74 C92 1_555 1_555
H75 C92 1_555 1_555
C93 C92 1_555 1_555
H76 C93 1_555 1_555
H77 C93 1_555 1_555
C94 C93 1_555 1_555
H78 C94 1_555 1_555
H79 C94 1_555 1_555
C95 C94 1_555 1_555
H80 C95 1_555 1_555
H81 C95 1_555 1_555
C96 C95 1_555 1_555
H82 C96 1_555 1_555
H83 C96 1_555 1_555
C97 C96 1_555 1_555
H84 C97 1_555 1_555
H85 C97 1_555 1_555
C98 C97 1_555 1_555
H86 C98 1_555 1_555
H87 C98 1_555 1_555
H88 C98 1_555 1_555
C99 H89 1_555 1_555
C100 H90 1_555 1_555
C16 C17 1_555 1_555
C17 C18 1_555 1_555
C19 C20 1_555 1_555
C21 C22 1_555 1_555
C23 C24 1_555 1_555
C24 C25 1_555 1_555
C26 C27 1_555 1_555
C65 C66 1_555 1_555
C66 C67 1_555 1_555
C68 C69 1_555 1_555
C70 C71 1_555 1_555
C72 C73 1_555 1_555
C73 C74 1_555 1_555
C75 C76 1_555 1_555

#END
