
#######################################################################
#
#                 Cambridge Crystallographic Data Centre
#                                CCDC 
#
#######################################################################
#
# If this CIF has been generated from an entry in the Cambridge 
# Structural Database, then it will include bibliographic, chemical, 
# crystal, experimental, refinement or atomic coordinate data resulting 
# from the CCDC's data processing and validation procedures.
#
#######################################################################

data_KUCGAS
_chemical_formula_moiety         'C6 H7 N1,C7 H8 O1'
_chemical_name_systematic        'Aniline 2-methylphenol'
_symmetry_cell_setting           monoclinic
_symmetry_space_group_name_H-M   'P c'
_symmetry_Int_Tables_number      7
_space_group_name_Hall           'P -2yc'
loop_
_symmetry_equiv_pos_site_id
_symmetry_equiv_pos_as_xyz
1 x,y,z
2 x,-y,1/2+z
_cell_length_a                   10.117(8)
_cell_length_b                   7.416(10)
_cell_length_c                   7.774(6)
_cell_angle_alpha                90
_cell_angle_beta                 101.297(9)
_cell_angle_gamma                90
_cell_volume                     571.964
_cell_formula_units_Z            2
loop_
_atom_site_label
_atom_site_type_symbol
_atom_site_fract_x
_atom_site_fract_y
_atom_site_fract_z
O1 O -0.9375(4) -0.3194(5) -0.4834(6)
H1 H -0.983 -0.372 -0.5692
C1 C -0.8089(5) -0.3010(6) -0.5073(8)
C2 C -0.5874(5) -0.1939(7) -0.3960(10)
H2 H -0.5254 -0.1341 -0.3088
C3 C -0.6334(6) -0.3463(8) -0.6714(11)
H3 H -0.6046 -0.3898 -0.7715
C4 C -0.7193(5) -0.2120(6) -0.3750(8)
C5 C -0.7685(5) -0.3678(6) -0.6527(8)
H4 H -0.8305 -0.4279 -0.7398
C6 C -0.7657(7) -0.1435(8) -0.2112(10)
H5 H -0.7918 -0.245 -0.1465
H6 H -0.8422 -0.0635 -0.2454
H7 H -0.6926 -0.0785 -0.1376
C7 C -0.5444(6) -0.2601(8) -0.5395(11)
H8 H -0.4536 -0.2469 -0.5486
C8 C -0.2918(6) -0.3549(8) -1.0794(9)
H9 H -0.3435 -0.4434 -1.1486
C9 C -0.1605(5) -0.3260(6) -1.0953(7)
C10 C -0.0857(6) -0.1992(7) -0.9898(8)
H10 H 0.0043 -0.1777 -0.9989
N1 N -0.1004(5) -0.4304(6) -1.2087(7)
H11 H -0.0511 -0.5153 -1.1496
H12 H -0.0489 -0.3626 -1.2602
C11 C -0.1430(8) -0.1023(8) -0.8694(12)
H13 H -0.0908 -0.0153 -0.7986
C12 C -0.3482(6) -0.2556(10) -0.9633(10)
H14 H -0.4396 -0.2728 -0.9593
C13 C -0.2737(7) -0.1307(9) -0.8517(11)
H15 H -0.3111 -0.0682 -0.7676
loop_
_geom_bond_atom_site_label_1
_geom_bond_atom_site_label_2
_geom_bond_site_symmetry_1
_geom_bond_site_symmetry_2
O1 H1 1_555 1_555
C1 O1 1_555 1_555
C2 H2 1_555 1_555
C3 H3 1_555 1_555
C4 C1 1_555 1_555
C5 C1 1_555 1_555
H4 C5 1_555 1_555
C6 C4 1_555 1_555
H5 C6 1_555 1_555
H6 C6 1_555 1_555
H7 C6 1_555 1_555
C7 C2 1_555 1_555
H8 C7 1_555 1_555
C8 H9 1_555 1_555
C9 C8 1_555 1_555
C10 C9 1_555 1_555
H10 C10 1_555 1_555
N1 C9 1_555 1_555
H11 N1 1_555 1_555
H12 N1 1_555 1_555
C11 C10 1_555 1_555
H13 C11 1_555 1_555
C12 C8 1_555 1_555
H14 C12 1_555 1_555
C13 C11 1_555 1_555
H15 C13 1_555 1_555
C2 C4 1_555 1_555
C3 C5 1_555 1_555
C3 C7 1_555 1_555
C12 C13 1_555 1_555

#END
