
#######################################################################
#
#                 Cambridge Crystallographic Data Centre
#                                CCDC 
#
#######################################################################
#
# If this CIF has been generated from an entry in the Cambridge 
# Structural Database, then it will include bibliographic, chemical, 
# crystal, experimental, refinement or atomic coordinate data resulting 
# from the CCDC's data processing and validation procedures.
#
#######################################################################

data_KUCGEW
_chemical_formula_moiety         'C6 H6 F1 N1,C7 H8 O1'
_chemical_name_systematic        '3-Fluoroaniline 2-methylphenol'
_symmetry_cell_setting           monoclinic
_symmetry_space_group_name_H-M   'P 21/c'
_symmetry_Int_Tables_number      14
_space_group_name_Hall           '-P 2ybc'
loop_
_symmetry_equiv_pos_site_id
_symmetry_equiv_pos_as_xyz
1 x,y,z
2 -x,1/2+y,1/2-z
3 -x,-y,-z
4 x,1/2-y,1/2+z
_cell_length_a                   6.5661(5)
_cell_length_b                   21.784(2)
_cell_length_c                   8.2185(9)
_cell_angle_alpha                90
_cell_angle_beta                 90.875(2)
_cell_angle_gamma                90
_cell_volume                     1175.4
_cell_formula_units_Z            4
loop_
_atom_site_label
_atom_site_type_symbol
_atom_site_fract_x
_atom_site_fract_y
_atom_site_fract_z
O1 O 0.2271(3) 0.46789(7) 0.6389(2)
C1 C 0.3980(4) 0.45664(9) 0.7314(2)
C2 C 0.4241(4) 0.39702(9) 0.7908(2)
C3 C 0.5403(4) 0.50195(10) 0.7659(3)
C4 C 0.5964(4) 0.38509(11) 0.8840(3)
C5 C 0.2676(5) 0.34858(11) 0.7549(3)
C6 C 0.7399(5) 0.42986(12) 0.9190(3)
C7 C 0.7109(4) 0.48856(12) 0.8594(3)
H1 H 0.527(3) 0.5414(7) 0.7257(19)
H2 H 0.859(5) 0.4204(11) 0.984(3)
H3 H 0.813(5) 0.5212(12) 0.888(3)
H4 H 0.620(4) 0.3448(11) 0.926(3)
H5 H 0.254(4) 0.3415(11) 0.644(3)
H6 H 0.303(5) 0.3100(13) 0.811(3)
H7 H 0.128(6) 0.3597(14) 0.799(4)
H8 H 0.223(5) 0.5065(14) 0.604(3)
N1 N -0.1669(4) 0.41610(9) 0.5013(2)
F1 F -0.3768(5) 0.24984(13) 0.1659(3)
C8 C -0.0511(5) 0.28151(11) 0.1477(3)
H9 H -0.0254 0.2523 0.0665
C9 C -0.2353(5) 0.28660(10) 0.2182(3)
C10 C -0.2806(4) 0.32956(10) 0.3363(3)
H10 H -0.4115 0.3317 0.3807
C11 C -0.1275(4) 0.36947(8) 0.3875(2)
C12 C 0.0615(4) 0.36519(10) 0.3182(2)
H11 H 0.1669 0.392 0.3503
C13 C 0.0940(5) 0.32114(12) 0.2014(3)
H12 H 0.2244 0.3184 0.1563
H13 H -0.054(5) 0.4278(11) 0.560(3)
H14 H -0.266(5) 0.4050(13) 0.570(4)
C14? C -0.1275(4) 0.36947(8) 0.3875(2)
C15? C -0.2806(4) 0.32956(10) 0.3363(3)
H15? H -0.4115 0.3317 0.3807
C16? C 0.0615(4) 0.36519(10) 0.3182(2)
H16? H 0.1669 0.392 0.3503
C17? C 0.0940(5) 0.32114(12) 0.2014(3)
C18? C -0.2353(5) 0.28660(10) 0.2182(3)
H17? H -0.3387 0.2593 0.1849
C19? C -0.0511(5) 0.28151(11) 0.1477(3)
H18? H -0.0254 0.2523 0.0665
F2? F 0.2682(8) 0.3127(2) 0.1427(5)
loop_
_geom_bond_atom_site_label_1
_geom_bond_atom_site_label_2
_geom_bond_site_symmetry_1
_geom_bond_site_symmetry_2
O1 C1 1_555 1_555
C1 C2 1_555 1_555
C2 C4 1_555 1_555
C3 C1 1_555 1_555
C4 C6 1_555 1_555
C5 C2 1_555 1_555
C6 C7 1_555 1_555
C7 C3 1_555 1_555
H1 C3 1_555 1_555
H2 C6 1_555 1_555
H3 C7 1_555 1_555
H4 C4 1_555 1_555
H5 C5 1_555 1_555
H6 C5 1_555 1_555
H7 C5 1_555 1_555
H8 O1 1_555 1_555
N1 C11 1_555 1_555
F1 C9 1_555 1_555
C8 H9 1_555 1_555
C9 C8 1_555 1_555
C10 C9 1_555 1_555
H10 C10 1_555 1_555
C11 C10 1_555 1_555
C12 C11 1_555 1_555
H11 C12 1_555 1_555
C13 C8 1_555 1_555
H12 C13 1_555 1_555
H13 N1 1_555 1_555
H14 N1 1_555 1_555
C12 C13 1_555 1_555

#END
