
#######################################################################
#
#                 Cambridge Crystallographic Data Centre
#                                CCDC 
#
#######################################################################
#
# If this CIF has been generated from an entry in the Cambridge 
# Structural Database, then it will include bibliographic, chemical, 
# crystal, experimental, refinement or atomic coordinate data resulting 
# from the CCDC's data processing and validation procedures.
#
#######################################################################

data_KUCKUQ
_chemical_formula_moiety         'C19 H14 N6 O5'
_chemical_name_systematic        
1-Methyl-5-nitro-2'-(2-nitrophenyl)-5'-phenyl-1H,3'H-2,4'-biimidazol-3'-ol
_symmetry_cell_setting           monoclinic
_symmetry_space_group_name_H-M   'P 21/a'
_symmetry_Int_Tables_number      14
_space_group_name_Hall           '-P 2yab'
loop_
_symmetry_equiv_pos_site_id
_symmetry_equiv_pos_as_xyz
1 x,y,z
2 1/2-x,1/2+y,-z
3 -x,-y,-z
4 1/2+x,1/2-y,z
_cell_length_a                   9.5761(3)
_cell_length_b                   12.2594(3)
_cell_length_c                   15.6831(4)
_cell_angle_alpha                90
_cell_angle_beta                 98.9560(17)
_cell_angle_gamma                90
_cell_volume                     1818.71
_exptl_crystal_colour            yellow
_exptl_crystal_description       needle
_cell_formula_units_Z            4
loop_
_atom_site_label
_atom_site_type_symbol
_atom_site_fract_x
_atom_site_fract_y
_atom_site_fract_z
O1 O 0.09462(17) 0.62848(15) 0.81650(11)
H1 H 0.148(3) 0.681(2) 0.7936(18)
O2 O -0.0151(3) 0.6697(2) 0.97484(13)
N1 N 0.0797(3) 0.7380(3) 0.97726(17)
O3 O 0.1933(3) 0.7320(4) 1.0260(2)
N2 N -0.2443(2) 0.73642(17) 0.76177(13)
N3 N -0.0429(2) 0.65126(17) 0.78806(13)
O4 O 0.2275(2) 0.24139(16) 0.63208(14)
C1 C -0.2568(3) 0.6423(2) 0.71364(15)
N4 N 0.1680(2) 0.27471(18) 0.69138(15)
N5 N 0.0073(2) 0.41617(17) 0.73268(13)
O5 O 0.1903(3) 0.23694(19) 0.76513(14)
N6 N -0.0578(2) 0.49518(18) 0.60382(14)
C2 C -0.3901(3) 0.6139(2) 0.65828(15)
C3 C -0.1128(2) 0.7405(2) 0.80656(15)
C4 C -0.0671(3) 0.4975(2) 0.68800(16)
C5 C -0.4822(3) 0.6965(2) 0.62351(16)
H2 H -0.4560 0.7708 0.6324
C6 C 0.0687(3) 0.3604(2) 0.67194(17)
C7 C -0.4287(3) 0.5052(2) 0.64275(17)
H3 H -0.3656 0.4486 0.6650
C8 C 0.0266(3) 0.4091(2) 0.59372(17)
H4 H 0.0526 0.3861 0.5405
C9 C -0.0486(3) 0.8367(2) 0.85271(16)
C10 C -0.5584(3) 0.4795(3) 0.59497(18)
H5 H -0.5842 0.4053 0.5847
C11 C -0.6123(3) 0.6696(3) 0.57584(17)
H6 H -0.6751 0.7259 0.5526
C12 C -0.6513(3) 0.5617(3) 0.56185(18)
H7 H -0.7409 0.5439 0.5298
C13 C -0.1298(3) 0.5877(2) 0.72895(16)
C14 C 0.0108(3) 0.3926(2) 0.82515(16)
H8 H -0.0515 0.4436 0.8493
H9 H 0.1077 0.4009 0.8555
H10 H -0.0214 0.3178 0.8321
C15 C 0.0543(3) 0.8353(3) 0.92490(18)
C16 C -0.0801(3) 0.9379(2) 0.81334(19)
H11 H -0.1531 0.9425 0.7649
C17 C -0.0081(4) 1.0314(3) 0.8429(2)
H12 H -0.0339 1.0996 0.8163
C18 C 0.1330(3) 0.9298(3) 0.9530(2)
H13 H 0.2074 0.9267 1.0006
C19 C 0.0996(4) 1.0257(3) 0.9101(3)
H14 H 0.1529 1.0894 0.9276
O6? O 0.164(3) 0.653(3) 1.0220(15)
loop_
_geom_bond_atom_site_label_1
_geom_bond_atom_site_label_2
_geom_bond_site_symmetry_1
_geom_bond_site_symmetry_2
O1 H1 1_555 1_555
O2 N1 1_555 1_555
N1 O3 1_555 1_555
N2 C1 1_555 1_555
N3 O1 1_555 1_555
O4 N4 1_555 1_555
C1 C2 1_555 1_555
N4 O5 1_555 1_555
N5 C4 1_555 1_555
N6 C4 1_555 1_555
C2 C5 1_555 1_555
C3 N2 1_555 1_555
C4 C13 1_555 1_555
C5 H2 1_555 1_555
C6 N4 1_555 1_555
C7 C2 1_555 1_555
H3 C7 1_555 1_555
C8 N6 1_555 1_555
H4 C8 1_555 1_555
C9 C3 1_555 1_555
C10 C7 1_555 1_555
H5 C10 1_555 1_555
C11 C5 1_555 1_555
H6 C11 1_555 1_555
C12 C10 1_555 1_555
H7 C12 1_555 1_555
C13 N3 1_555 1_555
C14 N5 1_555 1_555
H8 C14 1_555 1_555
H9 C14 1_555 1_555
H10 C14 1_555 1_555
C15 N1 1_555 1_555
C16 C9 1_555 1_555
H11 C16 1_555 1_555
C17 C16 1_555 1_555
H12 C17 1_555 1_555
C18 C15 1_555 1_555
H13 C18 1_555 1_555
C19 C17 1_555 1_555
H14 C19 1_555 1_555
N3 C3 1_555 1_555
C1 C13 1_555 1_555
N5 C6 1_555 1_555
C6 C8 1_555 1_555
C9 C15 1_555 1_555
C11 C12 1_555 1_555
C18 C19 1_555 1_555

#END
