
#######################################################################
#
#                 Cambridge Crystallographic Data Centre
#                                CCDC 
#
#######################################################################
#
# If this CIF has been generated from an entry in the Cambridge 
# Structural Database, then it will include bibliographic, chemical, 
# crystal, experimental, refinement or atomic coordinate data resulting 
# from the CCDC's data processing and validation procedures.
#
#######################################################################

data_KUCKOK
_chemical_formula_moiety         'C19 H14 F1 N5 O3'
_chemical_name_systematic        
2'-(4-Fluorophenyl)-1-methyl-5-nitro-5'-phenyl-1H,3'H-2,4'-biimidazol-3'-ol
_symmetry_cell_setting           orthorhombic
_symmetry_space_group_name_H-M   'P b c n'
_symmetry_Int_Tables_number      60
_space_group_name_Hall           '-P 2n 2ab'
loop_
_symmetry_equiv_pos_site_id
_symmetry_equiv_pos_as_xyz
1 x,y,z
2 1/2-x,1/2-y,1/2+z
3 -x,y,1/2-z
4 1/2+x,1/2-y,-z
5 -x,-y,-z
6 1/2+x,1/2+y,1/2-z
7 x,-y,1/2+z
8 1/2-x,1/2+y,z
_cell_length_a                   14.4303(4)
_cell_length_b                   12.2532(4)
_cell_length_c                   18.8964(4)
_cell_angle_alpha                90
_cell_angle_beta                 90
_cell_angle_gamma                90
_cell_volume                     3341.21
_exptl_crystal_colour            yellow
_exptl_crystal_description       block
_cell_formula_units_Z            8
loop_
_atom_site_label
_atom_site_type_symbol
_atom_site_fract_x
_atom_site_fract_y
_atom_site_fract_z
O1 O 0.94756(8) 0.41958(10) 0.87374(6)
H1 H 0.9984(14) 0.3763(16) 0.8514(10)
N1 N 0.91199(9) 0.48142(11) 0.81855(6)
N2 N 0.84763(9) 0.24271(12) 0.78303(6)
O2 O 0.81938(10) 0.03228(11) 0.83709(6)
N3 N 0.92269(9) 0.28269(12) 0.68305(6)
N4 N 0.87233(9) 0.62295(11) 0.75397(6)
C1 C 0.72106(12) 0.45898(16) 0.54974(9)
H2 H 0.6885 0.3989 0.5300
C2 C 0.91508(12) 0.17280(14) 0.68796(8)
H3 H 0.9374 0.1219 0.6541
C3 C 0.90853(11) 0.59130(14) 0.81575(8)
O3 O 0.88110(10) -0.03679(11) 0.74188(7)
C4 C 0.88102(11) 0.32302(14) 0.74096(8)
C5 C 0.93628(11) 0.66530(14) 0.87308(8)
C6 C 0.81046(11) 0.53577(14) 0.64554(8)
N5 N 0.85539(10) 0.04050(13) 0.77820(7)
C7 C 0.98432(12) 0.80997(14) 0.97744(8)
C8 C 0.99000(12) 0.84386(15) 0.90834(8)
H4 H 1.0103 0.9154 0.8968
C9 C 0.92978(12) 0.63511(15) 0.94407(8)
H5 H 0.9093 0.5639 0.9563
C10 C 0.87710(11) 0.43861(13) 0.75611(8)
C11 C 0.85356(11) 0.52945(14) 0.71637(8)
C12 C 0.87012(11) 0.14670(14) 0.74938(8)
C13 C 0.79372(12) 0.26044(16) 0.84808(9)
H6 H 0.8323 0.2435 0.8893
H7 H 0.7392 0.2128 0.8479
H8 H 0.7738 0.3368 0.8504
C14 C 0.81566(12) 0.63307(15) 0.60779(8)
H9 H 0.8479 0.6936 0.6273
C15 C 0.96515(12) 0.77034(14) 0.85586(8)
H10 H 0.9679 0.7919 0.8076
C16 C 0.77414(13) 0.64245(17) 0.54174(9)
H11 H 0.7782 0.7094 0.5165
C17 C 0.95303(12) 0.70850(15) 0.99660(8)
H12 H 0.9475 0.6891 1.0451
C18 C 0.76210(12) 0.44874(15) 0.61581(9)
H13 H 0.7572 0.3819 0.6410
C19 C 0.72707(12) 0.55542(16) 0.51241(9)
H14 H 0.6992 0.5619 0.4671
F1 F 1.00972(8) 0.88088(9) 1.02977(5)
loop_
_geom_bond_atom_site_label_1
_geom_bond_atom_site_label_2
_geom_bond_site_symmetry_1
_geom_bond_site_symmetry_2
O1 H1 1_555 1_555
N1 O1 1_555 1_555
N2 C4 1_555 1_555
O2 N5 1_555 1_555
N3 C2 1_555 1_555
N4 C3 1_555 1_555
C1 H2 1_555 1_555
C2 H3 1_555 1_555
C3 N1 1_555 1_555
O3 N5 1_555 1_555
C4 N3 1_555 1_555
C5 C3 1_555 1_555
C6 C11 1_555 1_555
N5 C12 1_555 1_555
C7 C8 1_555 1_555
C8 H4 1_555 1_555
C9 C5 1_555 1_555
H5 C9 1_555 1_555
C10 N1 1_555 1_555
C11 N4 1_555 1_555
C12 N2 1_555 1_555
C13 N2 1_555 1_555
H6 C13 1_555 1_555
H7 C13 1_555 1_555
H8 C13 1_555 1_555
C14 C6 1_555 1_555
H9 C14 1_555 1_555
C15 C5 1_555 1_555
H10 C15 1_555 1_555
C16 C14 1_555 1_555
H11 C16 1_555 1_555
C17 C7 1_555 1_555
H12 C17 1_555 1_555
C18 C1 1_555 1_555
H13 C18 1_555 1_555
C19 C1 1_555 1_555
H14 C19 1_555 1_555
F1 C7 1_555 1_555
C2 C12 1_555 1_555
C4 C10 1_555 1_555
C6 C18 1_555 1_555
C8 C15 1_555 1_555
C9 C17 1_555 1_555
C10 C11 1_555 1_555
C16 C19 1_555 1_555

#END
