
#######################################################################
#
#                 Cambridge Crystallographic Data Centre
#                                CCDC 
#
#######################################################################
#
# If this CIF has been generated from an entry in the Cambridge 
# Structural Database, then it will include bibliographic, chemical, 
# crystal, experimental, refinement or atomic coordinate data resulting 
# from the CCDC's data processing and validation procedures.
#
#######################################################################

data_KUCKIE
_chemical_formula_moiety         'C35 H33 N2 O3 P1 S1,C1 H4 O1'
_chemical_name_systematic        
'N-(2-((R)-((R,R)-2,5-Diphenylpyrrolidin-1-yl)(phenyl)phosphoryl)phenyl)-4-methylbenzenesulfonamide methanol solvate'
_symmetry_cell_setting           orthorhombic
_symmetry_space_group_name_H-M   'P 21 21 21'
_symmetry_Int_Tables_number      19
_space_group_name_Hall           'P 2ac 2ab'
loop_
_symmetry_equiv_pos_site_id
_symmetry_equiv_pos_as_xyz
1 x,y,z
2 1/2-x,-y,1/2+z
3 -x,1/2+y,1/2-z
4 1/2+x,1/2-y,-z
_cell_length_a                   9.1278(14)
_cell_length_b                   16.704(3)
_cell_length_c                   20.601(3)
_cell_angle_alpha                90
_cell_angle_beta                 90
_cell_angle_gamma                90
_cell_volume                     3141.05
_exptl_crystal_colour            white
_exptl_crystal_description       platy
_cell_formula_units_Z            4
_exptl_crystal_recrystallization_method methanol
loop_
_atom_site_label
_atom_site_type_symbol
_atom_site_fract_x
_atom_site_fract_y
_atom_site_fract_z
S1 S 1.10770(9) 0.60298(7) 0.69445(4)
P1 P 0.68923(8) 0.71287(5) 0.76302(4)
O1 O 1.2112(2) 0.66145(18) 0.71751(12)
O2 O 1.1410(3) 0.5557(2) 0.63853(13)
O3 O 0.8401(2) 0.74542(13) 0.77445(10)
N1 N 0.9594(3) 0.65386(18) 0.68073(12)
H1 H 0.9642 0.7062 0.6848
N2 N 0.5625(3) 0.78080(15) 0.75109(11)
C1 C 0.4488(4) 0.8027(2) 0.79987(15)
H2 H 0.3744 0.7589 0.8025
C2 C 0.3789(4) 0.8767(2) 0.76882(17)
H3 H 0.2989 0.8611 0.7390
H4 H 0.3388 0.9129 0.8025
C3 C 0.5015(5) 0.9166(2) 0.73229(17)
H5 H 0.5610 0.9504 0.7617
H6 H 0.4625 0.9504 0.6968
C4 C 0.5927(4) 0.84758(19) 0.70512(15)
H7 H 0.6988 0.8621 0.7081
C5 C 0.5097(4) 0.8194(2) 0.86771(16)
C6 C 0.6329(4) 0.8643(2) 0.87905(17)
H8 H 0.6852 0.8870 0.8437
C7 C 0.6815(5) 0.8768(3) 0.94220(19)
H9 H 0.7663 0.9082 0.9503
C8 C 0.6048(6) 0.8428(3) 0.99320(18)
H10 H 0.6384 0.8507 1.0364
C9 C 0.4833(6) 0.7987(3) 0.98268(19)
H11 H 0.4317 0.7758 1.0182
C10 C 0.4347(5) 0.7874(3) 0.92056(17)
H12 H 0.3482 0.7570 0.9133
C11 C 0.5558(4) 0.83031(19) 0.63515(15)
C12 C 0.6468(4) 0.8625(2) 0.58725(17)
H13 H 0.7335 0.8901 0.5996
C13 C 0.6130(6) 0.8549(3) 0.52269(19)
H14 H 0.6746 0.8781 0.4906
C14 C 0.4905(6) 0.8137(3) 0.50480(18)
H15 H 0.4675 0.8080 0.4601
C15 C 0.3993(5) 0.7800(3) 0.55096(19)
H16 H 0.3151 0.7507 0.5380
C16 C 0.4319(4) 0.7893(2) 0.61656(16)
H17 H 0.3685 0.7673 0.6485
C17 C 0.6265(3) 0.65306(19) 0.83049(14)
C18 C 0.7223(4) 0.6447(2) 0.88253(14)
H18 H 0.8154 0.6702 0.8814
C19 C 0.6827(4) 0.5996(2) 0.93580(16)
H19 H 0.7485 0.5943 0.9712
C20 C 0.5477(4) 0.5621(2) 0.93795(16)
H20 H 0.5213 0.5305 0.9745
C21 C 0.4518(4) 0.5707(2) 0.88685(16)
H21 H 0.3583 0.5458 0.8885
C22 C 0.4912(3) 0.61575(18) 0.83260(15)
H22 H 0.4252 0.6208 0.7972
C23 C 0.6920(3) 0.64755(18) 0.69270(13)
C24 C 0.5583(3) 0.6182(2) 0.67017(14)
H23 H 0.4702 0.6377 0.6890
C25 C 0.5496(4) 0.5620(2) 0.62151(15)
H24 H 0.4574 0.5422 0.6074
C26 C 0.6783(4) 0.5348(2) 0.59360(15)
H25 H 0.6742 0.4952 0.5606
C27 C 0.8129(4) 0.5645(2) 0.61318(15)
H26 H 0.8998 0.5465 0.5924
C28 C 0.8218(3) 0.6201(2) 0.66258(14)
C29 C 1.0666(3) 0.5375(2) 0.75853(16)
C30 C 1.0334(4) 0.4578(2) 0.74693(19)
H27 H 1.0376 0.4373 0.7040
C31 C 0.9945(4) 0.4085(2) 0.7971(2)
H28 H 0.9730 0.3539 0.7885
C32 C 0.9861(4) 0.4366(2) 0.8599(2)
C33 C 1.0218(4) 0.5159(2) 0.87132(18)
H29 H 1.0179 0.5361 0.9144
C34 C 1.0629(4) 0.5665(2) 0.82144(17)
H30 H 1.0884 0.6206 0.8302
C35 C 0.9405(5) 0.3827(3) 0.9150(2)
H31 H 0.9399 0.4133 0.9556
H32 H 1.0099 0.3382 0.9186
H33 H 0.8421 0.3617 0.9065
C36 C 0.0698(5) 0.8365(3) 0.8956(2)
H34 H 0.1092 0.8276 0.9392
H35 H -0.0299 0.8578 0.8989
H36 H 0.1320 0.8748 0.8724
O4 O 0.0670(4) 0.76381(19) 0.86167(14)
H37 H -0.030(3) 0.765(3) 0.8371(19)
loop_
_geom_bond_atom_site_label_1
_geom_bond_atom_site_label_2
_geom_bond_site_symmetry_1
_geom_bond_site_symmetry_2
S1 O1 1_555 1_555
P1 O3 1_555 1_555
O2 S1 1_555 1_555
N1 S1 1_555 1_555
H1 N1 1_555 1_555
N2 P1 1_555 1_555
C1 N2 1_555 1_555
H2 C1 1_555 1_555
C2 C1 1_555 1_555
H3 C2 1_555 1_555
H4 C2 1_555 1_555
C3 C2 1_555 1_555
H5 C3 1_555 1_555
H6 C3 1_555 1_555
C4 N2 1_555 1_555
H7 C4 1_555 1_555
C5 C1 1_555 1_555
C6 C5 1_555 1_555
H8 C6 1_555 1_555
C7 C6 1_555 1_555
H9 C7 1_555 1_555
C8 C7 1_555 1_555
H10 C8 1_555 1_555
C9 C8 1_555 1_555
H11 C9 1_555 1_555
C10 C5 1_555 1_555
H12 C10 1_555 1_555
C11 C4 1_555 1_555
C12 C11 1_555 1_555
H13 C12 1_555 1_555
C13 C12 1_555 1_555
H14 C13 1_555 1_555
C14 C13 1_555 1_555
H15 C14 1_555 1_555
C15 C14 1_555 1_555
H16 C15 1_555 1_555
C16 C11 1_555 1_555
H17 C16 1_555 1_555
C17 P1 1_555 1_555
C18 C17 1_555 1_555
H18 C18 1_555 1_555
C19 C18 1_555 1_555
H19 C19 1_555 1_555
C20 C19 1_555 1_555
H20 C20 1_555 1_555
C21 C20 1_555 1_555
H21 C21 1_555 1_555
C22 C17 1_555 1_555
H22 C22 1_555 1_555
C23 P1 1_555 1_555
C24 C23 1_555 1_555
H23 C24 1_555 1_555
C25 C24 1_555 1_555
H24 C25 1_555 1_555
C26 C25 1_555 1_555
H25 C26 1_555 1_555
C27 C26 1_555 1_555
H26 C27 1_555 1_555
C28 N1 1_555 1_555
C29 S1 1_555 1_555
C30 C29 1_555 1_555
H27 C30 1_555 1_555
C31 C30 1_555 1_555
H28 C31 1_555 1_555
C32 C31 1_555 1_555
C33 C32 1_555 1_555
H29 C33 1_555 1_555
C34 C29 1_555 1_555
H30 C34 1_555 1_555
C35 C32 1_555 1_555
H31 C35 1_555 1_555
H32 C35 1_555 1_555
H33 C35 1_555 1_555
C36 H34 1_555 1_555
H35 C36 1_555 1_555
H36 C36 1_555 1_555
O4 C36 1_555 1_555
H37 O4 1_555 1_555
C3 C4 1_555 1_555
C9 C10 1_555 1_555
C15 C16 1_555 1_555
C21 C22 1_555 1_555
C23 C28 1_555 1_555
C27 C28 1_555 1_555
C33 C34 1_555 1_555

#END
