
#######################################################################
#
#                 Cambridge Crystallographic Data Centre
#                                CCDC 
#
#######################################################################
#
# If this CIF has been generated from an entry in the Cambridge 
# Structural Database, then it will include bibliographic, chemical, 
# crystal, experimental, refinement or atomic coordinate data resulting 
# from the CCDC's data processing and validation procedures.
#
#######################################################################

data_KUCKEA
_chemical_formula_moiety         'C37 H28 N1 O3 P1 S1'
_chemical_name_systematic        
N-(1-(bis(Naphthalen-1-yl)phosphoryl)naphthalen-2-yl)-4-methylbenzenesulfonamide
_symmetry_cell_setting           monoclinic
_symmetry_space_group_name_H-M   'P 21/n'
_symmetry_Int_Tables_number      14
_space_group_name_Hall           '-P 2yn'
loop_
_symmetry_equiv_pos_site_id
_symmetry_equiv_pos_as_xyz
1 x,y,z
2 1/2-x,1/2+y,1/2-z
3 -x,-y,-z
4 1/2+x,1/2-y,1/2+z
_cell_length_a                   10.1154(5)
_cell_length_b                   16.6454(8)
_cell_length_c                   19.5734(10)
_cell_angle_alpha                90
_cell_angle_beta                 95.2760(10)
_cell_angle_gamma                90
_cell_volume                     3281.71
_exptl_crystal_colour            colorless
_exptl_crystal_description       Block
_cell_formula_units_Z            4
_exptl_crystal_recrystallization_method 'dichloromethane/ethyl acetate'
loop_
_atom_site_label
_atom_site_type_symbol
_atom_site_fract_x
_atom_site_fract_y
_atom_site_fract_z
P1 P 0.95895(6) 0.74010(3) 0.23992(3)
O1 O 0.83028(16) 0.71049(10) 0.26262(9)
C1 C 0.9991(2) 0.68497(13) 0.16502(12)
C2 C 1.0027(3) 0.72367(15) 0.10333(14)
H1 H 0.9794 0.7789 0.1000
C3 C 1.0401(3) 0.68364(17) 0.04518(14)
H2 H 1.0409 0.7115 0.0029
C4 C 1.0751(3) 0.60491(17) 0.04943(15)
H3 H 1.1026 0.5786 0.0101
C5 C 1.0714(2) 0.56164(14) 0.11079(13)
C6 C 1.0310(2) 0.60058(13) 0.16995(13)
C7 C 1.0224(2) 0.55459(14) 0.23034(13)
H4 H 0.9936 0.5793 0.2701
C8 C 1.0552(3) 0.47505(15) 0.23164(15)
H5 H 1.0490 0.4450 0.2725
C9 C 1.0979(3) 0.43710(16) 0.17389(16)
H6 H 1.1218 0.3819 0.1760
C10 C 1.1052(3) 0.47869(16) 0.11510(16)
H7 H 1.1333 0.4521 0.0760
C11 C 0.9553(3) 0.84670(14) 0.22138(13)
C12 C 1.0565(3) 0.89510(14) 0.24995(14)
H8 H 1.1281 0.8712 0.2775
C13 C 1.0569(3) 0.97788(16) 0.23957(17)
H9 H 1.1290 1.0094 0.2591
C14 C 0.9548(3) 1.01321(16) 0.20168(17)
H10 H 0.9557 1.0697 0.1950
C15 C 0.8467(3) 0.96783(15) 0.17191(15)
C16 C 0.8449(3) 0.88327(14) 0.18104(13)
C17 C 0.7349(3) 0.83977(16) 0.14965(13)
H11 H 0.7320 0.7830 0.1541
C18 C 0.6330(3) 0.87919(18) 0.11296(15)
H12 H 0.5599 0.8494 0.0922
C19 C 0.6349(3) 0.9631(2) 0.10556(17)
H13 H 0.5626 0.9898 0.0808
C20 C 0.7394(3) 1.00571(18) 0.13358(16)
H14 H 0.7408 1.0623 0.1274
C21 C 1.0958(2) 0.72434(13) 0.30632(13)
C22 C 1.0681(2) 0.70614(13) 0.37269(13)
C23 C 1.1690(3) 0.69066(16) 0.42511(15)
H15 H 1.1471 0.6775 0.4699
C24 C 1.2990(3) 0.69464(16) 0.41140(17)
H16 H 1.3669 0.6839 0.4470
C25 C 1.3338(3) 0.71420(14) 0.34581(17)
C26 C 1.2337(2) 0.72875(13) 0.29212(15)
C27 C 1.2751(3) 0.74934(14) 0.22729(16)
H17 H 1.2099 0.7600 0.1903
C28 C 1.4055(3) 0.75424(17) 0.2166(2)
H18 H 1.4301 0.7680 0.1724
C29 C 1.5044(3) 0.73933(17) 0.2699(2)
H19 H 1.5954 0.7427 0.2619
C30 C 1.4698(3) 0.72026(16) 0.3327(2)
H20 H 1.5372 0.7107 0.3689
N1 N 0.9348(2) 0.69670(12) 0.38990(11)
H21 H 0.8812 0.7052 0.3500
S1 S 0.87398(8) 0.75145(4) 0.44933(4)
O2 O 0.7386(2) 0.72756(12) 0.44599(11)
O3 O 0.9569(2) 0.74364(12) 0.51179(10)
C31 C 0.8829(3) 0.85209(16) 0.42278(14)
C32 C 0.7743(3) 0.88704(18) 0.38709(16)
H22 H 0.6961 0.8566 0.3754
C33 C 0.7800(3) 0.96675(19) 0.36841(17)
H23 H 0.7044 0.9909 0.3444
C34 C 0.8928(4) 1.01219(17) 0.38373(16)
C35 C 1.0024(3) 0.97509(18) 0.41762(18)
H24 H 1.0820 1.0049 0.4272
C36 C 0.9987(3) 0.89576(17) 0.43781(16)
H25 H 1.0744 0.8714 0.4617
C37 C 0.8963(4) 1.10026(19) 0.3644(2)
H26 H 0.8421 1.1088 0.3209
H27 H 0.9881 1.1164 0.3595
H28 H 0.8608 1.1326 0.4004
loop_
_geom_bond_atom_site_label_1
_geom_bond_atom_site_label_2
_geom_bond_site_symmetry_1
_geom_bond_site_symmetry_2
P1 O1 1_555 1_555
C1 P1 1_555 1_555
C2 C1 1_555 1_555
H1 C2 1_555 1_555
C3 C2 1_555 1_555
H2 C3 1_555 1_555
C4 C3 1_555 1_555
H3 C4 1_555 1_555
C5 C4 1_555 1_555
C6 C1 1_555 1_555
C7 C6 1_555 1_555
H4 C7 1_555 1_555
C8 C7 1_555 1_555
H5 C8 1_555 1_555
C9 C8 1_555 1_555
H6 C9 1_555 1_555
C10 C5 1_555 1_555
H7 C10 1_555 1_555
C11 P1 1_555 1_555
C12 C11 1_555 1_555
H8 C12 1_555 1_555
C13 C12 1_555 1_555
H9 C13 1_555 1_555
C14 C13 1_555 1_555
H10 C14 1_555 1_555
C15 C14 1_555 1_555
C16 C11 1_555 1_555
C17 C16 1_555 1_555
H11 C17 1_555 1_555
C18 C17 1_555 1_555
H12 C18 1_555 1_555
C19 C18 1_555 1_555
H13 C19 1_555 1_555
C20 C15 1_555 1_555
H14 C20 1_555 1_555
C21 P1 1_555 1_555
C22 C21 1_555 1_555
C23 C22 1_555 1_555
H15 C23 1_555 1_555
C24 C23 1_555 1_555
H16 C24 1_555 1_555
C25 C24 1_555 1_555
C26 C21 1_555 1_555
C27 C26 1_555 1_555
H17 C27 1_555 1_555
C28 C27 1_555 1_555
H18 C28 1_555 1_555
C29 C28 1_555 1_555
H19 C29 1_555 1_555
C30 C25 1_555 1_555
H20 C30 1_555 1_555
N1 C22 1_555 1_555
H21 N1 1_555 1_555
S1 N1 1_555 1_555
O2 S1 1_555 1_555
O3 S1 1_555 1_555
C31 S1 1_555 1_555
C32 C31 1_555 1_555
H22 C32 1_555 1_555
C33 C32 1_555 1_555
H23 C33 1_555 1_555
C34 C33 1_555 1_555
C35 C34 1_555 1_555
H24 C35 1_555 1_555
C36 C31 1_555 1_555
H25 C36 1_555 1_555
C37 C34 1_555 1_555
H26 C37 1_555 1_555
H27 C37 1_555 1_555
H28 C37 1_555 1_555
C5 C6 1_555 1_555
C9 C10 1_555 1_555
C15 C16 1_555 1_555
C19 C20 1_555 1_555
C25 C26 1_555 1_555
C29 C30 1_555 1_555
C35 C36 1_555 1_555

#END
