
#######################################################################
#
#                 Cambridge Crystallographic Data Centre
#                                CCDC 
#
#######################################################################
#
# If this CIF has been generated from an entry in the Cambridge 
# Structural Database, then it will include bibliographic, chemical, 
# crystal, experimental, refinement or atomic coordinate data resulting 
# from the CCDC's data processing and validation procedures.
#
#######################################################################

data_KUCLAX
_chemical_formula_moiety         'C19 H15 N5 O3'
_chemical_name_systematic        
'4-(1-Methyl-5-nitro-1H-imidazol-2-yl)-2,5-diphenyl-1H-imidazole 3-oxide'
_symmetry_cell_setting           monoclinic
_symmetry_space_group_name_H-M   'P 21/c'
_symmetry_Int_Tables_number      14
_space_group_name_Hall           '-P 2ybc'
loop_
_symmetry_equiv_pos_site_id
_symmetry_equiv_pos_as_xyz
1 x,y,z
2 -x,1/2+y,1/2-z
3 -x,-y,-z
4 x,1/2-y,1/2+z
_cell_length_a                   13.3169(3)
_cell_length_b                   9.2107(2)
_cell_length_c                   28.5128(8)
_cell_angle_alpha                90
_cell_angle_beta                 96.0520(10)
_cell_angle_gamma                90
_cell_volume                     3477.83
_exptl_crystal_colour            yellow
_exptl_crystal_description       block
_cell_formula_units_Z            8
loop_
_atom_site_label
_atom_site_type_symbol
_atom_site_fract_x
_atom_site_fract_y
_atom_site_fract_z
O1 O 0.36614(16) 0.5076(2) 0.15966(8)
O2 O 0.7583(2) 0.3394(4) 0.13974(12)
O3 O 0.7648(2) 0.4757(4) 0.07786(11)
N1 N 0.32609(18) 0.3778(3) 0.14784(9)
N2 N 0.7179(2) 0.4009(4) 0.10405(12)
N3 N 0.22401(19) 0.1952(3) 0.13696(10)
H1 H 0.181(2) 0.130(3) 0.1459(12)
N4 N 0.5477(2) 0.3164(3) 0.11829(10)
N5 N 0.4573(2) 0.4105(3) 0.05483(10)
C1 C 0.2417(2) 0.3198(3) 0.16176(11)
C2 C 0.2986(2) 0.1733(4) 0.10787(11)
C3 C 0.3634(2) 0.2892(3) 0.11450(11)
C4 C 0.1806(2) 0.3779(4) 0.19696(12)
C5 C 0.0791(2) 0.3377(4) 0.19581(13)
H2 H 0.0501 0.2728 0.1723
C6 C 0.0208(3) 0.3933(4) 0.22926(15)
H3 H -0.0481 0.3659 0.2286
C7 C 0.0629(3) 0.4886(4) 0.26357(15)
H4 H 0.0225 0.5271 0.2862
C8 C 0.1630(3) 0.5276(4) 0.26497(14)
H5 H 0.1913 0.5931 0.2885
C9 C 0.2229(3) 0.4717(4) 0.23218(12)
H6 H 0.2923 0.4972 0.2337
C10 C 0.4550(2) 0.3352(4) 0.09451(12)
C11 C 0.5563(3) 0.4445(5) 0.05305(14)
H7 H 0.5825 0.4984 0.0287
C12 C 0.6121(2) 0.3888(4) 0.09178(13)
C13 C 0.2990(2) 0.0483(4) 0.07650(11)
C14 C 0.2081(3) -0.0163(4) 0.05874(12)
H8 H 0.1459 0.0227 0.0666
C15 C 0.2981(3) -0.1926(4) 0.01758(13)
H9 H 0.2978 -0.2749 -0.0025
C16 C 0.3884(3) -0.1292(4) 0.03438(14)
H10 H 0.4500 -0.1676 0.0258
C17 C 0.2081(3) -0.1371(4) 0.02974(12)
H11 H 0.1461 -0.1817 0.0182
C18 C 0.3896(3) -0.0093(4) 0.06387(13)
H12 H 0.4521 0.0338 0.0755
C19 C 0.5694(3) 0.2327(4) 0.16177(13)
H13 H 0.5059 0.1988 0.1725
H14 H 0.6052 0.2942 0.1861
H15 H 0.6116 0.1489 0.1558
O4 O 0.10060(17) 1.0084(2) 0.16610(9)
O5 O -0.3633(2) 0.9025(4) 0.09885(13)
O6 O -0.3166(2) 0.7264(4) 0.14720(11)
N6 N 0.13023(19) 0.8761(3) 0.15358(10)
N7 N 0.2234(2) 0.6935(3) 0.13793(10)
H16 H 0.273(2) 0.631(3) 0.1425(12)
N8 N -0.2985(2) 0.8217(4) 0.11912(12)
N9 N -0.1149(2) 0.7742(3) 0.13167(10)
N10 N -0.0625(2) 0.9154(3) 0.07492(11)
C20 C 0.2231(2) 0.8198(3) 0.16184(11)
C21 C 0.1292(2) 0.6673(3) 0.11518(11)
C22 C 0.0694(2) 0.7832(3) 0.12508(12)
C23 C 0.3086(2) 0.8818(3) 0.19119(11)
C24 C 0.2940(3) 0.9790(4) 0.22772(12)
H17 H 0.2275 1.0052 0.2337
C25 C 0.3761(3) 1.0367(4) 0.25508(13)
H18 H 0.3659 1.1032 0.2796
C26 C 0.4737(3) 0.9979(4) 0.24683(14)
H19 H 0.5301 1.0381 0.2656
C27 C 0.4883(3) 0.9013(4) 0.21145(13)
H20 H 0.5550 0.8740 0.2062
C28 C 0.4071(2) 0.8433(4) 0.18335(12)
H21 H 0.4181 0.7775 0.1588
C29 C -0.0351(2) 0.8232(4) 0.10976(12)
C30 C -0.1645(3) 0.9276(5) 0.07436(14)
H22 H -0.2063 0.9871 0.0532
C31 C -0.1976(2) 0.8424(4) 0.10845(13)
C32 C 0.1070(2) 0.5403(4) 0.08451(11)
C33 C 0.1806(3) 0.4857(4) 0.05806(12)
H23 H 0.2457 0.5290 0.0603
C34 C 0.1589(3) 0.3678(4) 0.02839(12)
H24 H 0.2091 0.3311 0.0102
C35 C 0.0646(3) 0.3037(4) 0.02515(13)
H25 H 0.0500 0.2227 0.0049
C36 C -0.0090(3) 0.3584(4) 0.05169(13)
H26 H -0.0739 0.3146 0.0496
C37 C 0.0123(3) 0.4760(4) 0.08106(13)
H27 H -0.0382 0.5131 0.0990
C38 C -0.1093(3) 0.6753(4) 0.17205(12)
H28 H -0.0384 0.6551 0.1829
H29 H -0.1439 0.5843 0.1627
H30 H -0.1419 0.7203 0.1977
loop_
_geom_bond_atom_site_label_1
_geom_bond_atom_site_label_2
_geom_bond_site_symmetry_1
_geom_bond_site_symmetry_2
O1 N1 1_555 1_555
O2 N2 1_555 1_555
O3 N2 1_555 1_555
N1 C1 1_555 1_555
N2 C12 1_555 1_555
N3 H1 1_555 1_555
N4 C10 1_555 1_555
N5 C10 1_555 1_555
C1 N3 1_555 1_555
C2 N3 1_555 1_555
C3 N1 1_555 1_555
C4 C1 1_555 1_555
C5 C4 1_555 1_555
H2 C5 1_555 1_555
C6 C5 1_555 1_555
H3 C6 1_555 1_555
C7 C6 1_555 1_555
H4 C7 1_555 1_555
C8 C7 1_555 1_555
H5 C8 1_555 1_555
C9 C4 1_555 1_555
H6 C9 1_555 1_555
C10 C3 1_555 1_555
C11 N5 1_555 1_555
H7 C11 1_555 1_555
C12 N4 1_555 1_555
C13 C2 1_555 1_555
C14 C13 1_555 1_555
H8 C14 1_555 1_555
C15 H9 1_555 1_555
C16 C15 1_555 1_555
H10 C16 1_555 1_555
C17 C14 1_555 1_555
H11 C17 1_555 1_555
C18 C13 1_555 1_555
H12 C18 1_555 1_555
C19 N4 1_555 1_555
H13 C19 1_555 1_555
H14 C19 1_555 1_555
H15 C19 1_555 1_555
O4 N6 1_555 1_555
O5 N8 1_555 1_555
O6 N8 1_555 1_555
N6 C20 1_555 1_555
N7 H16 1_555 1_555
N8 C31 1_555 1_555
N9 C29 1_555 1_555
N10 C29 1_555 1_555
C20 N7 1_555 1_555
C21 N7 1_555 1_555
C22 N6 1_555 1_555
C23 C20 1_555 1_555
C24 C23 1_555 1_555
H17 C24 1_555 1_555
C25 C24 1_555 1_555
H18 C25 1_555 1_555
C26 C25 1_555 1_555
H19 C26 1_555 1_555
C27 C26 1_555 1_555
H20 C27 1_555 1_555
C28 C23 1_555 1_555
H21 C28 1_555 1_555
C29 C22 1_555 1_555
C30 N10 1_555 1_555
H22 C30 1_555 1_555
C31 N9 1_555 1_555
C32 C21 1_555 1_555
C33 C32 1_555 1_555
H23 C33 1_555 1_555
C34 C33 1_555 1_555
H24 C34 1_555 1_555
C35 C34 1_555 1_555
H25 C35 1_555 1_555
C36 C35 1_555 1_555
H26 C36 1_555 1_555
C37 C32 1_555 1_555
H27 C37 1_555 1_555
C38 N9 1_555 1_555
H28 C38 1_555 1_555
H29 C38 1_555 1_555
H30 C38 1_555 1_555
C2 C3 1_555 1_555
C8 C9 1_555 1_555
C11 C12 1_555 1_555
C15 C17 1_555 1_555
C16 C18 1_555 1_555
C21 C22 1_555 1_555
C27 C28 1_555 1_555
C30 C31 1_555 1_555
C36 C37 1_555 1_555

#END
