
#######################################################################
#
#                 Cambridge Crystallographic Data Centre
#                                CCDC 
#
#######################################################################
#
# If this CIF has been generated from an entry in the Cambridge 
# Structural Database, then it will include bibliographic, chemical, 
# crystal, experimental, refinement or atomic coordinate data resulting 
# from the CCDC's data processing and validation procedures.
#
#######################################################################

data_KUCLID
_chemical_formula_moiety         'C5 H10 N3 S1 1+,Cl1 1-,H2 O1'
_chemical_name_systematic        
'3,4-Dimethyl-5-methylamino-1,2,4-thiadiazolium chloride monohydrate'
_symmetry_cell_setting           monoclinic
_symmetry_space_group_name_H-M   'P 21/n'
_symmetry_Int_Tables_number      14
_space_group_name_Hall           '-P 2yn'
loop_
_symmetry_equiv_pos_site_id
_symmetry_equiv_pos_as_xyz
1 x,y,z
2 1/2-x,1/2+y,1/2-z
3 -x,-y,-z
4 1/2+x,1/2-y,1/2+z
_cell_length_a                   5.600(1)
_cell_length_b                   10.833(2)
_cell_length_c                   15.281(2)
_cell_angle_alpha                90
_cell_angle_beta                 97.22(1)
_cell_angle_gamma                90
_cell_volume                     919.668
_exptl_crystal_colour            colorless
_chemical_melting_point          454-457K
_cell_formula_units_Z            4
loop_
_atom_site_label
_atom_site_type_symbol
_atom_site_fract_x
_atom_site_fract_y
_atom_site_fract_z
Cl1 Cl 0.3084(2) 0.7572(1) 0.2465(1)
S1 S 0.1994(2) 0.9813(1) 0.4162(1)
N1 N 0.3303(5) 0.8878(3) 0.4960(2)
N2 N -0.0155(5) 0.7841(3) 0.4451(2)
N3 N -0.2306(5) 0.9053(3) 0.3324(2)
C1 C 0.1970(6) 0.7906(3) 0.5026(2)
C2 C -0.0454(6) 0.8849(3) 0.3912(2)
C3 C 0.2623(8) 0.6917(4) 0.5687(3)
C4 C -0.1919(7) 0.6843(4) 0.4425(3)
C5 C -0.2445(7) 1.0176(4) 0.2812(3)
H1 H -0.3408 0.8378 0.3210
H4 H 0.1243 0.6744 0.6058
H5 H 0.4188 0.7061 0.6014
H6 H 0.3016 0.6130 0.5403
H7 H -0.1076 0.6070 0.4262
H8 H -0.3284 0.6888 0.4078
H9 H -0.2405 0.6799 0.5019
H10 H -0.3552 0.9982 0.2214
H11 H -0.3976 1.0576 0.2875
H12 H -0.1387 1.0092 0.2359
O1 O 0.2785(7) 0.5166(3) 0.3730(2)
H2 H 0.2547 0.5809 0.3311
H3 H 0.2569 0.4359 0.3336
loop_
_geom_bond_atom_site_label_1
_geom_bond_atom_site_label_2
_geom_bond_site_symmetry_1
_geom_bond_site_symmetry_2
S1 N1 1_555 1_555
N1 C1 1_555 1_555
N2 C1 1_555 1_555
N3 C2 1_555 1_555
C1 C3 1_555 1_555
C2 S1 1_555 1_555
C3 H4 1_555 1_555
C4 N2 1_555 1_555
C5 N3 1_555 1_555
O1 H2 1_555 1_555
H1 N3 1_555 1_555
H3 O1 1_555 1_555
H5 C3 1_555 1_555
H6 C3 1_555 1_555
H7 C4 1_555 1_555
H8 C4 1_555 1_555
H9 C4 1_555 1_555
H10 C5 1_555 1_555
H11 C5 1_555 1_555
H12 C5 1_555 1_555
N2 C2 1_555 1_555

#END
