
#######################################################################
#
#                 Cambridge Crystallographic Data Centre
#                                CCDC 
#
#######################################################################
#
# If this CIF has been generated from an entry in the Cambridge 
# Structural Database, then it will include bibliographic, chemical, 
# crystal, experimental, refinement or atomic coordinate data resulting 
# from the CCDC's data processing and validation procedures.
#
#######################################################################

data_KUCQEG
_chemical_formula_moiety         'C7 H8 O1,C6 H6 F1 N1'
_chemical_name_systematic        '3-methylphenol 4-fluoroaniline'
_symmetry_cell_setting           monoclinic
_symmetry_space_group_name_H-M   'P 21/c'
_symmetry_Int_Tables_number      14
_space_group_name_Hall           '-P 2ybc'
loop_
_symmetry_equiv_pos_site_id
_symmetry_equiv_pos_as_xyz
1 x,y,z
2 -x,1/2+y,1/2-z
3 -x,-y,-z
4 x,1/2-y,1/2+z
_cell_length_a                   11.031(8)
_cell_length_b                   28.650(10)
_cell_length_c                   7.581(3)
_cell_angle_alpha                90
_cell_angle_beta                 90.386(11)
_cell_angle_gamma                90
_cell_volume                     2395.83
_exptl_crystal_colour            colorless
_exptl_crystal_description       rod
_cell_formula_units_Z            8
loop_
_atom_site_label
_atom_site_type_symbol
_atom_site_fract_x
_atom_site_fract_y
_atom_site_fract_z
F1 F 0.4724(2) 0.01007(8) 0.2916(4)
C1 C 0.5267(3) 0.14813(11) 0.4186(5)
N1 N 0.5434(3) 0.19531(10) 0.4695(5)
C2 C 0.6121(3) 0.11467(12) 0.4639(5)
C3 C 0.5938(3) 0.06820(12) 0.4215(5)
C4 C 0.4201(3) 0.13432(13) 0.3325(5)
C5 C 0.4013(3) 0.08773(14) 0.2925(5)
C6 C 0.4888(3) 0.05589(12) 0.3357(5)
H1 H 0.625(4) 0.2005(12) 0.481(5)
H2 H 0.678(3) 0.1232(11) 0.522(5)
H3 H 0.649(3) 0.0449(13) 0.450(5)
H4 H 0.327(3) 0.0761(14) 0.232(6)
H5 H 0.362(4) 0.1562(14) 0.308(6)
H6 H 0.503(4) 0.2220(17) 0.409(7)
F2 F 0.8150(2) 0.01094(8) 0.8140(4)
C7 C 0.7280(3) 0.14762(11) 0.9197(5)
N2 N 0.7005(3) 0.19451(10) 0.9690(4)
C8 C 0.6496(3) 0.11166(11) 0.9660(5)
C9 C 0.6786(3) 0.06582(12) 0.9301(5)
C10 C 0.8370(3) 0.13688(13) 0.8391(5)
C11 C 0.7866(3) 0.05638(12) 0.8509(5)
C12 C 0.8670(3) 0.09098(14) 0.8043(6)
H7 H 0.742(4) 0.2188(16) 0.897(7)
H8 H 0.623(4) 0.2003(15) 0.961(6)
H9 H 0.889(3) 0.1615(11) 0.815(5)
H10 H 0.575(3) 0.1181(10) 1.021(4)
H11 H 0.943(3) 0.0797(12) 0.743(5)
H12 H 0.626(3) 0.0417(14) 0.951(6)
O1 O 0.7993(2) 0.22088(8) 0.2888(4)
C13 C 0.8962(3) 0.14571(12) 0.3084(5)
C14 C 0.9889(3) 0.11733(13) 0.3750(5)
C15 C 1.0764(3) 0.13766(16) 0.4834(6)
C16 C 0.8914(3) 0.19265(11) 0.3507(5)
C17 C 0.9781(3) 0.21238(14) 0.4621(5)
C18 C 1.0701(3) 0.18468(16) 0.5273(6)
C19 C 0.9906(4) 0.06617(14) 0.3331(7)
H13 H 1.0747 0.0552 0.3285
H14 H 0.9512 0.0609 0.2186
H15 H 0.9471 0.049 0.4247
H16 H 0.836(2) 0.1335(10) 0.241(4)
H17 H 1.144(3) 0.1148(13) 0.531(5)
H18 H 1.134(3) 0.1978(13) 0.596(6)
H19 H 0.975(3) 0.2446(14) 0.490(6)
H20 H 0.751(7) 0.210(2) 0.210(11)
O2 O 0.4455(2) 0.21832(10) 0.7938(4)
C20 C 0.3526(3) 0.14223(12) 0.8041(5)
C21 C 0.2621(3) 0.11236(13) 0.8656(5)
C22 C 0.3558(3) 0.18872(12) 0.8530(5)
C23 C 0.1754(3) 0.13113(16) 0.9793(6)
C24 C 0.2695(3) 0.20624(16) 0.9668(6)
C25 C 0.2605(4) 0.06215(14) 0.8127(7)
H21 H 0.2992 0.0587 0.6975
H22 H 0.1764 0.0512 0.8053
H23 H 0.3048 0.0437 0.9007
C26 C 0.1800(3) 0.17743(17) 1.0292(6)
H24 H 0.112(3) 0.1083(13) 1.024(5)
H25 H 0.412(3) 0.1298(12) 0.724(5)
H26 H 0.121(4) 0.1878(13) 1.098(6)
H27 H 0.278(4) 0.2354(16) 0.997(7)
H28 H 0.476(4) 0.2024(17) 0.708(8)
loop_
_geom_bond_atom_site_label_1
_geom_bond_atom_site_label_2
_geom_bond_site_symmetry_1
_geom_bond_site_symmetry_2
F1 C6 1_555 1_555
C1 N1 1_555 1_555
N1 H1 1_555 1_555
C2 C1 1_555 1_555
C3 C2 1_555 1_555
C4 C1 1_555 1_555
C5 C4 1_555 1_555
C6 C3 1_555 1_555
H2 C2 1_555 1_555
H3 C3 1_555 1_555
H4 C5 1_555 1_555
H5 C4 1_555 1_555
H6 N1 1_555 1_555
F2 C11 1_555 1_555
C7 N2 1_555 1_555
N2 H7 1_555 1_555
C8 C7 1_555 1_555
C9 C8 1_555 1_555
C10 C7 1_555 1_555
C11 C9 1_555 1_555
C12 C10 1_555 1_555
H8 N2 1_555 1_555
H9 C10 1_555 1_555
H10 C8 1_555 1_555
H11 C12 1_555 1_555
H12 C9 1_555 1_555
O1 C16 1_555 1_555
C13 C14 1_555 1_555
C14 C15 1_555 1_555
C15 C18 1_555 1_555
C16 C13 1_555 1_555
C17 C16 1_555 1_555
C18 C17 1_555 1_555
C19 C14 1_555 1_555
H13 C19 1_555 1_555
H14 C19 1_555 1_555
H15 C19 1_555 1_555
H16 C13 1_555 1_555
H17 C15 1_555 1_555
H18 C18 1_555 1_555
H19 C17 1_555 1_555
H20 O1 1_555 1_555
O2 C22 1_555 1_555
C20 C21 1_555 1_555
C21 C23 1_555 1_555
C22 C20 1_555 1_555
C23 C26 1_555 1_555
C24 C22 1_555 1_555
C25 C21 1_555 1_555
H21 C25 1_555 1_555
H22 C25 1_555 1_555
H23 C25 1_555 1_555
C26 C24 1_555 1_555
H24 C23 1_555 1_555
H25 C20 1_555 1_555
H26 C26 1_555 1_555
H27 C24 1_555 1_555
H28 O2 1_555 1_555
C5 C6 1_555 1_555
C11 C12 1_555 1_555

#END
