
#######################################################################
#
#                 Cambridge Crystallographic Data Centre
#                                CCDC 
#
#######################################################################
#
# If this CIF has been generated from an entry in the Cambridge 
# Structural Database, then it will include bibliographic, chemical, 
# crystal, experimental, refinement or atomic coordinate data resulting 
# from the CCDC's data processing and validation procedures.
#
#######################################################################

data_KUCSAE
_chemical_formula_moiety         'C27 H20 Br1 N4 1+,Cl1 O4 1-'
_chemical_name_systematic        
"1-(4-bromobenzyl)-4-(2,2':6',2''-terpyridin-4'-yl)pyridinium perchlorate"
_symmetry_cell_setting           triclinic
_symmetry_space_group_name_H-M   'P -1'
_symmetry_Int_Tables_number      2
_space_group_name_Hall           '-P 1'
loop_
_symmetry_equiv_pos_site_id
_symmetry_equiv_pos_as_xyz
1 x,y,z
2 -x,-y,-z
_cell_length_a                   9.458(4)
_cell_length_b                   11.123(4)
_cell_length_c                   13.733(6)
_cell_angle_alpha                110.053(16)
_cell_angle_beta                 96.92(3)
_cell_angle_gamma                102.05(2)
_cell_volume                     1297.91
_exptl_crystal_colour            colorless
_exptl_crystal_description       block
_cell_formula_units_Z            2
loop_
_atom_site_label
_atom_site_type_symbol
_atom_site_fract_x
_atom_site_fract_y
_atom_site_fract_z
Br1 Br 0.00618(17) 0.80029(9) 0.17586(9)
N1 N -0.1539(7) 0.1668(5) 0.1635(4)
N2 N -0.3122(8) -0.0226(6) 0.5825(4)
N3 N -0.1589(10) -0.2839(7) 0.4405(6)
N4 N -0.4229(9) 0.2844(9) 0.6611(6)
C1 C -0.0416(9) 0.6153(7) 0.1442(6)
C2 C 0.0511(10) 0.5673(8) 0.1952(7)
H1 H 0.1327 0.6252 0.2473
C3 C 0.0231(10) 0.4316(8) 0.1689(7)
H2 H 0.0879 0.3981 0.2020
C4 C -0.0974(7) 0.3475(6) 0.0958(5)
C5 C -0.1925(10) 0.4001(9) 0.0479(7)
H3 H -0.2780 0.3435 -0.0006
C6 C -0.1625(10) 0.5335(9) 0.0707(7)
H4 H -0.2247 0.5674 0.0360
C7 C -0.1293(11) 0.2004(7) 0.0676(6)
H5 H -0.0470 0.1696 0.0422
H6 H -0.2167 0.1554 0.0112
C8 C -0.0567(8) 0.1186(7) 0.2082(5)
H7 H 0.0265 0.1057 0.1807
C9 C -0.0807(9) 0.0890(6) 0.2936(5)
H8 H -0.0127 0.0554 0.3236
C10 C -0.1983(8) 0.1060(6) 0.3367(5)
C11 C -0.2970(8) 0.1597(8) 0.2903(7)
H9 H -0.3795 0.1743 0.3183
C12 C -0.2729(10) 0.1902(9) 0.2053(7)
H10 H -0.3376 0.2270 0.1758
C13 C -0.2345(8) 0.0648(6) 0.4253(5)
C14 C -0.2081(8) -0.0514(7) 0.4295(5)
H11 H -0.1610 -0.1002 0.3807
C15 C -0.2521(8) -0.0937(7) 0.5067(5)
C16 C -0.3333(9) 0.0907(8) 0.5812(5)
C17 C -0.2977(8) 0.1388(7) 0.5037(6)
H12 H -0.3155 0.2181 0.5041
C18 C -0.2357(9) -0.2229(8) 0.5095(6)
C19 C -0.2981(11) -0.2774(10) 0.5773(7)
H13 H -0.3494 -0.2320 0.6246
C20 C -0.2825(14) -0.3984(13) 0.5731(10)
H14 H -0.3244 -0.4377 0.6165
C21 C -0.2043(15) -0.4600(12) 0.5043(12)
H15 H -0.1862 -0.5395 0.5031
C22 C -0.1532(15) -0.4043(11) 0.4377(10)
H16 H -0.1105 -0.4535 0.3858
C23 C -0.3991(8) 0.1719(10) 0.6673(5)
C24 C -0.4342(11) 0.1276(11) 0.7455(6)
H17 H -0.4184 0.0490 0.7486
C25 C -0.4976(12) 0.213(2) 0.8225(7)
H18 H -0.5157 0.1935 0.8812
C26 C -0.5306(17) 0.318(2) 0.8122(14)
H19 H -0.5827 0.3658 0.8574
C27 C -0.4871(12) 0.3544(13) 0.7349(9)
H20 H -0.5021 0.4332 0.7320
Cl1 Cl 0.3348(3) 0.1842(2) 0.09459(18)
O1 O 0.378(3) 0.2886(12) 0.104(2)
O2 O 0.4080(17) 0.1090(18) 0.0360(12)
O3 O 0.359(3) 0.179(3) 0.1791(13)
O4 O 0.1974(14) 0.1320(17) 0.0417(16)
loop_
_geom_bond_atom_site_label_1
_geom_bond_atom_site_label_2
_geom_bond_site_symmetry_1
_geom_bond_site_symmetry_2
Br1 C1 1_555 1_555
N1 C7 1_555 1_555
N2 C15 1_555 1_555
N3 C18 1_555 1_555
N4 C23 1_555 1_555
C1 C2 1_555 1_555
C2 H1 1_555 1_555
C3 C2 1_555 1_555
H2 C3 1_555 1_555
C4 C3 1_555 1_555
C5 C4 1_555 1_555
H3 C5 1_555 1_555
C6 C1 1_555 1_555
H4 C6 1_555 1_555
C7 C4 1_555 1_555
H5 C7 1_555 1_555
H6 C7 1_555 1_555
C8 N1 1_555 1_555
H7 C8 1_555 1_555
C9 C8 1_555 1_555
H8 C9 1_555 1_555
C10 C9 1_555 1_555
C11 C10 1_555 1_555
H9 C11 1_555 1_555
C12 N1 1_555 1_555
H10 C12 1_555 1_555
C13 C10 1_555 1_555
C14 C13 1_555 1_555
H11 C14 1_555 1_555
C15 C14 1_555 1_555
C16 N2 1_555 1_555
C17 C13 1_555 1_555
H12 C17 1_555 1_555
C18 C15 1_555 1_555
C19 C18 1_555 1_555
H13 C19 1_555 1_555
C20 C19 1_555 1_555
H14 C20 1_555 1_555
C21 C20 1_555 1_555
H15 C21 1_555 1_555
C22 N3 1_555 1_555
H16 C22 1_555 1_555
C23 C16 1_555 1_555
C24 C23 1_555 1_555
H17 C24 1_555 1_555
C25 C24 1_555 1_555
H18 C25 1_555 1_555
C26 C25 1_555 1_555
H19 C26 1_555 1_555
C27 N4 1_555 1_555
H20 C27 1_555 1_555
Cl1 O1 1_555 1_555
O2 Cl1 1_555 1_555
O3 Cl1 1_555 1_555
O4 Cl1 1_555 1_555
C5 C6 1_555 1_555
C11 C12 1_555 1_555
C16 C17 1_555 1_555
C21 C22 1_555 1_555
C26 C27 1_555 1_555

#END
