
#######################################################################
#
#                 Cambridge Crystallographic Data Centre
#                                CCDC 
#
#######################################################################
#
# If this CIF has been generated from an entry in the Cambridge 
# Structural Database, then it will include bibliographic, chemical, 
# crystal, experimental, refinement or atomic coordinate data resulting 
# from the CCDC's data processing and validation procedures.
#
#######################################################################

data_KUCVUB
_chemical_formula_moiety         'C35 H35 N5 O4'
_chemical_name_systematic        
3',6'-bis(diethylamino)-2-((2-nitrobenzylidene)amino)spiro[isoindole-1,9'-xanthen]-3(2H)-one
_symmetry_cell_setting           triclinic
_symmetry_space_group_name_H-M   'P -1'
_symmetry_Int_Tables_number      2
_space_group_name_Hall           '-P 1'
loop_
_symmetry_equiv_pos_site_id
_symmetry_equiv_pos_as_xyz
1 x,y,z
2 -x,-y,-z
_cell_length_a                   9.738(2)
_cell_length_b                   11.472(3)
_cell_length_c                   15.671(4)
_cell_angle_alpha                80.149(4)
_cell_angle_beta                 80.410(4)
_cell_angle_gamma                65.723(3)
_cell_volume                     1563.28
_exptl_crystal_colour            yellow
_exptl_crystal_description       Block
_cell_formula_units_Z            2
loop_
_atom_site_label
_atom_site_type_symbol
_atom_site_fract_x
_atom_site_fract_y
_atom_site_fract_z
N1 N 0.4083(3) 0.6549(2) 0.58890(18)
N2 N 0.1753(2) 0.4134(2) 0.68230(14)
N3 N 0.1858(2) 0.3369(2) 0.76006(13)
N4 N 0.8204(3) -0.1172(3) 0.6370(2)
N5 N 0.5154(3) 0.6372(3) 0.90147(19)
O1 O 0.4586(4) 0.7349(3) 0.5593(2)
O2 O 0.4235(4) 0.6044(3) 0.66157(18)
O3 O -0.0582(2) 0.3477(2) 0.76713(14)
O4 O 0.63662(19) 0.22608(17) 0.81350(12)
C1 C 0.3283(3) 0.6188(3) 0.53249(18)
C2 C 0.3112(3) 0.6855(3) 0.4500(2)
H1 H 0.3526 0.7468 0.4319
C3 C 0.2326(4) 0.6609(3) 0.3947(2)
H2 H 0.2213 0.7051 0.3391
C4 C 0.1706(4) 0.5700(3) 0.42238(19)
H3 H 0.1168 0.5534 0.3856
C5 C 0.1891(3) 0.5041(3) 0.50479(18)
H4 H 0.1469 0.4432 0.5224
C6 C 0.2684(3) 0.5251(3) 0.56260(17)
C7 C 0.2851(3) 0.4461(2) 0.64851(17)
H5 H 0.3714 0.4213 0.6766
C8 C 0.0606(3) 0.3099(3) 0.79762(18)
C9 C 0.1043(3) 0.2293(3) 0.88038(17)
C10 C 0.0178(3) 0.1816(3) 0.9447(2)
H6 H -0.0818 0.1973 0.9384
C11 C 0.0848(4) 0.1099(3) 1.0183(2)
H7 H 0.0294 0.0773 1.0626
C12 C 0.2337(4) 0.0862(3) 1.0264(2)
H8 H 0.2768 0.0379 1.0763
C13 C 0.3198(3) 0.1328(3) 0.96177(18)
H9 H 0.4201 0.1155 0.9674
C14 C 0.2528(3) 0.2058(2) 0.88855(16)
C15 C 0.3203(3) 0.2716(2) 0.81058(16)
C16 C 0.4517(3) 0.1743(2) 0.75940(16)
C17 C 0.4308(3) 0.0973(3) 0.70746(18)
H10 H 0.3325 0.1099 0.7004
C18 C 0.5506(3) 0.0029(3) 0.6660(2)
H11 H 0.5315 -0.0451 0.6309
C19 C 0.6998(3) -0.0214(3) 0.67614(19)
C20 C 0.7223(3) 0.0570(2) 0.72803(18)
H12 H 0.8201 0.0441 0.7362
C21 C 0.5993(3) 0.1531(2) 0.76700(16)
C22 C 0.5224(3) 0.3420(2) 0.83608(16)
C23 C 0.5732(3) 0.4292(3) 0.85584(17)
H13 H 0.6766 0.4092 0.8518
C24 C 0.4689(3) 0.5478(3) 0.88196(18)
C25 C 0.3149(3) 0.5717(3) 0.8877(2)
H14 H 0.2429 0.6483 0.9066
C26 C 0.2681(3) 0.4834(3) 0.86575(19)
H15 H 0.1649 0.5025 0.8696
C27 C 0.3708(3) 0.3664(2) 0.83792(16)
C28 C 0.7779(7) -0.1406(5) 0.4902(3)
H16 H 0.6899 -0.0612 0.4889
H17 H 0.7644 -0.1994 0.4589
H18 H 0.8654 -0.1243 0.4636
C29 C 0.7995(5) -0.1978(4) 0.5824(3)
H19 H 0.7119 -0.2165 0.6079
H20 H 0.8871 -0.2788 0.5827
C30 C 0.9774(6) -0.1293(6) 0.6386(4)
H21 H 1.0397 -0.1656 0.5870
H22 H 0.9775 -0.0447 0.6384
C31 C 1.0361(8) -0.2057(7) 0.7106(5)
H23 H 0.9702 -0.1733 0.7615
H24 H 1.1341 -0.2064 0.7134
H25 H 1.0456 -0.2917 0.7078
C32 C 0.7310(8) 0.6516(6) 0.8116(5)
H26 H 0.7127 0.6078 0.7705
H27 H 0.8378 0.6304 0.8085
H28 H 0.6788 0.7428 0.7982
C33 C 0.6778(6) 0.6129(4) 0.8963(4)
H29 H 0.6919 0.6601 0.9376
H30 H 0.7358 0.5219 0.9116
C34 C 0.4062(4) 0.7623(3) 0.9235(3)
H31 H 0.4565 0.8013 0.9509
H32 H 0.3273 0.7500 0.9661
C35 C 0.3331(6) 0.8542(4) 0.8480(3)
H33 H 0.4095 0.8705 0.8066
H34 H 0.2616 0.9336 0.8685
H35 H 0.2817 0.8172 0.8207
loop_
_geom_bond_atom_site_label_1
_geom_bond_atom_site_label_2
_geom_bond_site_symmetry_1
_geom_bond_site_symmetry_2
N1 O1 1_555 1_555
N2 N3 1_555 1_555
N3 C8 1_555 1_555
N4 C19 1_555 1_555
N5 C24 1_555 1_555
O2 N1 1_555 1_555
O3 C8 1_555 1_555
O4 C21 1_555 1_555
C1 N1 1_555 1_555
C2 C1 1_555 1_555
H1 C2 1_555 1_555
C3 C2 1_555 1_555
H2 C3 1_555 1_555
C4 C3 1_555 1_555
H3 C4 1_555 1_555
C5 C4 1_555 1_555
H4 C5 1_555 1_555
C6 C1 1_555 1_555
C7 N2 1_555 1_555
H5 C7 1_555 1_555
C8 C9 1_555 1_555
C9 C10 1_555 1_555
C10 H6 1_555 1_555
C11 C10 1_555 1_555
H7 C11 1_555 1_555
C12 C11 1_555 1_555
H8 C12 1_555 1_555
C13 C12 1_555 1_555
H9 C13 1_555 1_555
C14 C9 1_555 1_555
C15 N3 1_555 1_555
C16 C15 1_555 1_555
C17 C16 1_555 1_555
H10 C17 1_555 1_555
C18 C17 1_555 1_555
H11 C18 1_555 1_555
C19 C18 1_555 1_555
C20 C19 1_555 1_555
H12 C20 1_555 1_555
C21 C16 1_555 1_555
C22 O4 1_555 1_555
C23 C22 1_555 1_555
H13 C23 1_555 1_555
C24 C23 1_555 1_555
C25 C24 1_555 1_555
H14 C25 1_555 1_555
C26 C25 1_555 1_555
H15 C26 1_555 1_555
C27 C15 1_555 1_555
C28 H16 1_555 1_555
H17 C28 1_555 1_555
H18 C28 1_555 1_555
C29 N4 1_555 1_555
H19 C29 1_555 1_555
H20 C29 1_555 1_555
C30 N4 1_555 1_555
H21 C30 1_555 1_555
H22 C30 1_555 1_555
C31 C30 1_555 1_555
H23 C31 1_555 1_555
H24 C31 1_555 1_555
H25 C31 1_555 1_555
C32 H26 1_555 1_555
H27 C32 1_555 1_555
H28 C32 1_555 1_555
C33 N5 1_555 1_555
H29 C33 1_555 1_555
H30 C33 1_555 1_555
C34 N5 1_555 1_555
H31 C34 1_555 1_555
H32 C34 1_555 1_555
C35 C34 1_555 1_555
H33 C35 1_555 1_555
H34 C35 1_555 1_555
H35 C35 1_555 1_555
C5 C6 1_555 1_555
C6 C7 1_555 1_555
C13 C14 1_555 1_555
C14 C15 1_555 1_555
C20 C21 1_555 1_555
C22 C27 1_555 1_555
C26 C27 1_555 1_555
C28 C29 1_555 1_555
C32 C33 1_555 1_555

#END
