
#######################################################################
#
#                 Cambridge Crystallographic Data Centre
#                                CCDC 
#
#######################################################################
#
# If this CIF has been generated from an entry in the Cambridge 
# Structural Database, then it will include bibliographic, chemical, 
# crystal, experimental, refinement or atomic coordinate data resulting 
# from the CCDC's data processing and validation procedures.
#
#######################################################################

data_KUDDOE
_chemical_formula_moiety         'C17 H14 S2'
_chemical_name_systematic        
2-isopropyl[1]benzothieno[3,2-b][1]benzothiophene
_symmetry_cell_setting           orthorhombic
_symmetry_space_group_name_H-M   'P 21 21 21'
_symmetry_Int_Tables_number      19
_space_group_name_Hall           'P 2ac 2ab'
loop_
_symmetry_equiv_pos_site_id
_symmetry_equiv_pos_as_xyz
1 x,y,z
2 1/2-x,-y,1/2+z
3 -x,1/2+y,1/2-z
4 1/2+x,1/2-y,-z
_cell_length_a                   5.9662(4)
_cell_length_b                   9.2196(5)
_cell_length_c                   24.3550(12)
_cell_angle_alpha                90
_cell_angle_beta                 90
_cell_angle_gamma                90
_cell_volume                     1339.67
_exptl_crystal_colour            colorless
_exptl_crystal_description       lath
_cell_formula_units_Z            4
_exptl_crystal_recrystallization_method 'Vapour Deposition'
loop_
_atom_site_label
_atom_site_type_symbol
_atom_site_fract_x
_atom_site_fract_y
_atom_site_fract_z
S1 S 0.3244(4) 0.5694(2) 0.39981(8)
C1 C 0.1505(16) 0.7003(9) 0.3684(3)
S2 S -0.2532(4) 0.6068(2) 0.49726(8)
C2 C 0.2027(16) 0.7771(9) 0.3209(3)
H1 H 0.3403 0.7612 0.3023
C3 C 0.0472(15) 0.8788(10) 0.3012(3)
C4 C -0.1497(16) 0.9007(10) 0.3310(3)
H2 H -0.2522 0.9717 0.3180
C5 C -0.2040(16) 0.8267(9) 0.3774(3)
H3 H -0.3407 0.8455 0.3961
C6 C -0.0515(15) 0.7204(9) 0.3972(3)
C7 C -0.0578(16) 0.6271(9) 0.4440(3)
C8 C 0.1258(15) 0.5425(9) 0.4517(3)
C9 C 0.1232(14) 0.4558(8) 0.5006(3)
C10 C -0.0752(16) 0.4799(9) 0.5296(3)
C11 C -0.1290(16) 0.4101(10) 0.5787(3)
H4 H -0.2655 0.4283 0.5976
C12 C 0.0281(16) 0.3128(10) 0.5984(4)
H5 H -0.0021 0.2624 0.6316
C13 C 0.2298(16) 0.2862(9) 0.5710(3)
H6 H 0.3338 0.2187 0.5857
C14 C 0.2793(17) 0.3580(9) 0.5222(3)
H7 H 0.4172 0.3408 0.5038
C15 C 0.0884(17) 0.9607(10) 0.2485(4)
H8 H -0.0236 1.0413 0.2469
C16 C 0.046(2) 0.8634(12) 0.1989(4)
H9 H -0.1047 0.8223 0.2011
H10 H 0.1570 0.7848 0.1984
H11 H 0.0603 0.9208 0.1652
C17 C 0.320(2) 1.0292(12) 0.2449(4)
H12 H 0.3491 1.0860 0.2782
H13 H 0.3273 1.0929 0.2128
H14 H 0.4336 0.9528 0.2415
loop_
_geom_bond_atom_site_label_1
_geom_bond_atom_site_label_2
_geom_bond_site_symmetry_1
_geom_bond_site_symmetry_2
S1 C1 1_555 1_555
C1 C2 1_555 1_555
S2 C7 1_555 1_555
C2 H1 1_555 1_555
C3 C2 1_555 1_555
C4 C3 1_555 1_555
H2 C4 1_555 1_555
C5 C4 1_555 1_555
H3 C5 1_555 1_555
C6 C1 1_555 1_555
C7 C6 1_555 1_555
C8 S1 1_555 1_555
C9 C8 1_555 1_555
C10 S2 1_555 1_555
C11 C10 1_555 1_555
H4 C11 1_555 1_555
C12 C11 1_555 1_555
H5 C12 1_555 1_555
C13 C12 1_555 1_555
H6 C13 1_555 1_555
C14 C9 1_555 1_555
H7 C14 1_555 1_555
C15 C3 1_555 1_555
H8 C15 1_555 1_555
C16 C15 1_555 1_555
H9 C16 1_555 1_555
H10 C16 1_555 1_555
H11 C16 1_555 1_555
C17 C15 1_555 1_555
H12 C17 1_555 1_555
H13 C17 1_555 1_555
H14 C17 1_555 1_555
C5 C6 1_555 1_555
C7 C8 1_555 1_555
C9 C10 1_555 1_555
C13 C14 1_555 1_555

#END
