
#######################################################################
#
#                 Cambridge Crystallographic Data Centre
#                                CCDC 
#
#######################################################################
#
# If this CIF has been generated from an entry in the Cambridge 
# Structural Database, then it will include bibliographic, chemical, 
# crystal, experimental, refinement or atomic coordinate data resulting 
# from the CCDC's data processing and validation procedures.
#
#######################################################################

data_KUDFAS01
_chemical_formula_moiety         'C22 H24 S2'
_chemical_name_systematic        
2,7-di-t-butyl[1]benzothieno[3,2-b][1]benzothiophene
_symmetry_cell_setting           monoclinic
_symmetry_space_group_name_H-M   'P 21/c'
_symmetry_Int_Tables_number      14
_space_group_name_Hall           '-P 2ybc'
loop_
_symmetry_equiv_pos_site_id
_symmetry_equiv_pos_as_xyz
1 x,y,z
2 -x,1/2+y,1/2-z
3 -x,-y,-z
4 x,1/2-y,1/2+z
_cell_length_a                   14.1772(6)
_cell_length_b                   6.1547(3)
_cell_length_c                   10.6485(5)
_cell_angle_alpha                90
_cell_angle_beta                 92.2098(16)
_cell_angle_gamma                90
_cell_volume                     928.459
_exptl_crystal_colour            colorless
_exptl_crystal_description       tablet
_cell_formula_units_Z            2
_exptl_crystal_preparation       
'The data crystal was mounted using super glue to affix the crystal to a  glass fiber.'
loop_
_atom_site_label
_atom_site_type_symbol
_atom_site_fract_x
_atom_site_fract_y
_atom_site_fract_z
S1 S 0.59121(3) 0.23284(7) 0.50340(4)
C1 C 0.49879(10) 0.4080(2) 0.46452(13)
C2 C 0.42155(10) 0.3971(2) 0.37353(13)
C3 C 0.36569(10) 0.5849(2) 0.38151(14)
C4 C 0.28530(11) 0.6149(3) 0.30349(14)
H1 H 0.2495 0.7406 0.3105
C5 C 0.25875(10) 0.4582(3) 0.21574(13)
C6 C 0.31545(12) 0.2721(3) 0.20758(15)
H2 H 0.2986 0.1659 0.1488
C7 C 0.39546(12) 0.2412(3) 0.28390(16)
H3 H 0.4318 0.1166 0.2754
C8 C 0.1696(5) 0.4775(17) 0.1293(10)
C9 C 0.1413(13) 0.7168(18) 0.1071(15)
H4 H 0.1290 0.7842 0.1861
H5 H 0.0854 0.7230 0.0533
H6 H 0.1917 0.7921 0.0681
C10 C 0.1840(12) 0.374(2) 0.0005(11)
H7 H 0.2389 0.4353 -0.0358
H8 H 0.1296 0.4011 -0.0537
H9 H 0.1925 0.2198 0.0104
C11 C 0.0892(10) 0.360(3) 0.1933(14)
H10 H 0.1045 0.2082 0.2020
H11 H 0.0319 0.3751 0.1432
H12 H 0.0809 0.4215 0.2749
S1B S 0.40879(3) 0.76716(7) 0.49660(4)
C1B C 0.50121(10) 0.5920(2) 0.53548(13)
C2B C 0.57845(10) 0.6029(2) 0.62647(13)
C3B C 0.63431(10) 0.4151(2) 0.61849(14)
C4B C 0.71470(11) 0.3851(3) 0.69651(14)
H1B H 0.7505 0.2594 0.6895
C5B C 0.74125(10) 0.5418(3) 0.78426(13)
C6B C 0.68455(12) 0.7279(3) 0.79242(15)
H2B H 0.7014 0.8341 0.8512
C7B C 0.60454(12) 0.7588(3) 0.71610(16)
H3B H 0.5682 0.8834 0.7246
C8B C 0.8304(5) 0.5225(17) 0.8707(10)
C9B C 0.8587(13) 0.2832(18) 0.8929(15)
H4B H 0.8710 0.2158 0.8139
H5B H 0.9146 0.2770 0.9467
H6B H 0.8083 0.2079 0.9319
C10B C 0.8160(12) 0.626(2) 0.9995(11)
H7B H 0.7611 0.5647 1.0358
H8B H 0.8704 0.5989 1.0537
H9B H 0.8075 0.7802 0.9896
C11B C 0.9108(10) 0.640(3) 0.8067(14)
H10B H 0.8955 0.7918 0.7980
H11B H 0.9681 0.6249 0.8568
H12B H 0.9191 0.5785 0.7251
C12? C 0.1647(8) 0.492(3) 0.1400(16)
C13? C 0.1492(19) 0.736(3) 0.114(2)
H13? H 0.1285 0.8059 0.1882
H14? H 0.1022 0.7533 0.0472
H15? H 0.2074 0.8001 0.0891
C14? C 0.1670(18) 0.372(4) 0.014(2)
H16? H 0.2215 0.4164 -0.0298
H17? H 0.1110 0.4049 -0.0354
H18? H 0.1701 0.2178 0.0293
C15? C 0.0832(16) 0.406(4) 0.216(2)
H19? H 0.0963 0.2595 0.2415
H20? H 0.0259 0.4096 0.1645
H21? H 0.0761 0.4957 0.2885
loop_
_geom_bond_atom_site_label_1
_geom_bond_atom_site_label_2
_geom_bond_site_symmetry_1
_geom_bond_site_symmetry_2
S1 C1 1_555 1_555
C1 C2 1_555 1_555
C2 C3 1_555 1_555
C3 C4 1_555 1_555
C4 H1 1_555 1_555
C5 C4 1_555 1_555
C6 C5 1_555 1_555
H2 C6 1_555 1_555
C7 C2 1_555 1_555
H3 C7 1_555 1_555
C8 C5 1_555 1_555
C9 C8 1_555 1_555
H4 C9 1_555 1_555
H5 C9 1_555 1_555
H6 C9 1_555 1_555
C10 C8 1_555 1_555
H7 C10 1_555 1_555
H8 C10 1_555 1_555
H9 C10 1_555 1_555
C11 C8 1_555 1_555
H10 C11 1_555 1_555
H11 C11 1_555 1_555
H12 C11 1_555 1_555
S1B C3 1_555 1_555
C1B C1 1_555 1_555
C2B C1B 1_555 1_555
C3B S1 1_555 1_555
C4B C3B 1_555 1_555
H1B C4B 1_555 1_555
C5B C4B 1_555 1_555
C6B C5B 1_555 1_555
H2B C6B 1_555 1_555
C7B C2B 1_555 1_555
H3B C7B 1_555 1_555
C8B C5B 1_555 1_555
C9B C8B 1_555 1_555
H4B C9B 1_555 1_555
H5B C9B 1_555 1_555
H6B C9B 1_555 1_555
C10B C8B 1_555 1_555
H7B C10B 1_555 1_555
H8B C10B 1_555 1_555
H9B C10B 1_555 1_555
C11B C8B 1_555 1_555
H10B C11B 1_555 1_555
H11B C11B 1_555 1_555
H12B C11B 1_555 1_555
C6 C7 1_555 1_555
S1B C1B 1_555 1_555
C2B C3B 1_555 1_555
C6B C7B 1_555 1_555

#END
