
#######################################################################
#
#                 Cambridge Crystallographic Data Centre
#                                CCDC 
#
#######################################################################
#
# If this CIF has been generated from an entry in the Cambridge 
# Structural Database, then it will include bibliographic, chemical, 
# crystal, experimental, refinement or atomic coordinate data resulting 
# from the CCDC's data processing and validation procedures.
#
#######################################################################

data_KUDFAS
_chemical_formula_moiety         'C22 H24 S2'
_chemical_name_systematic        
2,7-di-t-butyl[1]benzothieno[3,2-b][1]benzothiophene
_symmetry_cell_setting           monoclinic
_symmetry_space_group_name_H-M   'P 21/c'
_symmetry_Int_Tables_number      14
_space_group_name_Hall           '-P 2ybc'
loop_
_symmetry_equiv_pos_site_id
_symmetry_equiv_pos_as_xyz
1 x,y,z
2 -x,1/2+y,1/2-z
3 -x,-y,-z
4 x,1/2-y,1/2+z
_cell_length_a                   14.0221(14)
_cell_length_b                   6.0437(7)
_cell_length_c                   10.5529(10)
_cell_angle_alpha                90
_cell_angle_beta                 91.539(10)
_cell_angle_gamma                90
_cell_volume                     893.987
_exptl_crystal_colour            colorless
_exptl_crystal_description       plate
_cell_formula_units_Z            2
loop_
_atom_site_label
_atom_site_type_symbol
_atom_site_fract_x
_atom_site_fract_y
_atom_site_fract_z
S1 S 0.09239(6) 0.22816(14) 0.00215(8)
C1 C -0.0006(2) 0.4057(5) -0.0355(3)
C2 C 0.1357(2) 0.4135(6) 0.1178(3)
C3 C 0.2164(2) 0.3824(6) 0.1955(3)
H1 H 0.2537 0.2521 0.1878
C4 C 0.2422(2) 0.5428(5) 0.2845(3)
C5 C 0.1853(2) 0.7323(6) 0.2934(3)
H2 H 0.2026 0.8430 0.3537
C6 C 0.1045(2) 0.7634(5) 0.2172(3)
H3 H 0.0664 0.8921 0.2266
C7 C 0.0794(2) 0.6050(5) 0.1268(3)
C8 C 0.3336(2) 0.5164(6) 0.3670(3)
C9 C 0.3573(3) 0.2721(6) 0.3916(3)
H4 H 0.3709 0.1991 0.3111
H5 H 0.3029 0.1996 0.4305
H6 H 0.4133 0.2616 0.4488
C10 C 0.4165(3) 0.6220(7) 0.2971(4)
H7 H 0.4230 0.5500 0.2145
H8 H 0.4757 0.6034 0.3475
H9 H 0.4038 0.7800 0.2845
C11 C 0.3244(3) 0.6304(6) 0.4955(3)
H10 H 0.3810 0.5979 0.5489
H11 H 0.2673 0.5758 0.5370
H12 H 0.3191 0.7907 0.4830
S1B S -0.09239(6) 0.77184(14) -0.00215(8)
C1B C 0.0006(2) 0.5943(5) 0.0355(3)
C2B C -0.1357(2) 0.5865(6) -0.1178(3)
C3B C -0.2164(2) 0.6176(6) -0.1955(3)
H1B H -0.2537 0.7479 -0.1878
C4B C -0.2422(2) 0.4572(5) -0.2845(3)
C5B C -0.1853(2) 0.2677(6) -0.2934(3)
H2B H -0.2026 0.1570 -0.3537
C6B C -0.1045(2) 0.2366(5) -0.2172(3)
H3B H -0.0664 0.1079 -0.2266
C7B C -0.0794(2) 0.3950(5) -0.1268(3)
C8B C -0.3336(2) 0.4836(6) -0.3670(3)
C9B C -0.3573(3) 0.7279(6) -0.3916(3)
H4B H -0.3709 0.8009 -0.3111
H5B H -0.3029 0.8004 -0.4305
H6B H -0.4133 0.7384 -0.4488
C10B C -0.4165(3) 0.3780(7) -0.2971(4)
H7B H -0.4230 0.4500 -0.2145
H8B H -0.4757 0.3966 -0.3475
H9B H -0.4038 0.2200 -0.2845
C11B C -0.3244(3) 0.3696(6) -0.4955(3)
H10B H -0.3810 0.4021 -0.5489
H11B H -0.2673 0.4242 -0.5370
H12B H -0.3191 0.2093 -0.4830
loop_
_geom_bond_atom_site_label_1
_geom_bond_atom_site_label_2
_geom_bond_site_symmetry_1
_geom_bond_site_symmetry_2
S1 C1 1_555 1_555
C1 C1B 1_555 1_555
C2 S1 1_555 1_555
C3 C2 1_555 1_555
H1 C3 1_555 1_555
C4 C3 1_555 1_555
C5 C4 1_555 1_555
H2 C5 1_555 1_555
C6 C5 1_555 1_555
H3 C6 1_555 1_555
C7 C2 1_555 1_555
C8 C4 1_555 1_555
C9 C8 1_555 1_555
H4 C9 1_555 1_555
H5 C9 1_555 1_555
H6 C9 1_555 1_555
C10 C8 1_555 1_555
H7 C10 1_555 1_555
H8 C10 1_555 1_555
H9 C10 1_555 1_555
C11 C8 1_555 1_555
H10 C11 1_555 1_555
H11 C11 1_555 1_555
H12 C11 1_555 1_555
S1B C1B 1_555 1_555
C1B C7 1_555 1_555
C2B S1B 1_555 1_555
C3B C2B 1_555 1_555
H1B C3B 1_555 1_555
C4B C3B 1_555 1_555
C5B C4B 1_555 1_555
H2B C5B 1_555 1_555
C6B C5B 1_555 1_555
H3B C6B 1_555 1_555
C7B C1 1_555 1_555
C8B C4B 1_555 1_555
C9B C8B 1_555 1_555
H4B C9B 1_555 1_555
H5B C9B 1_555 1_555
H6B C9B 1_555 1_555
C10B C8B 1_555 1_555
H7B C10B 1_555 1_555
H8B C10B 1_555 1_555
H9B C10B 1_555 1_555
C11B C8B 1_555 1_555
H10B C11B 1_555 1_555
H11B C11B 1_555 1_555
H12B C11B 1_555 1_555
C6 C7 1_555 1_555
C2B C7B 1_555 1_555
C6B C7B 1_555 1_555

#END
