
#######################################################################
#
#                 Cambridge Crystallographic Data Centre
#                                CCDC 
#
#######################################################################
#
# If this CIF has been generated from an entry in the Cambridge 
# Structural Database, then it will include bibliographic, chemical, 
# crystal, experimental, refinement or atomic coordinate data resulting 
# from the CCDC's data processing and validation procedures.
#
#######################################################################

data_KUDJUQ
_chemical_formula_moiety         '2(C14 H32 N1 1+),C14 H22 N2 O6 2-'
_chemical_name_systematic        
"ditetradecan-1-aminium 4,4'-(hexane-1,6-diyldiimino)bis(4-oxobutanoate)"
_symmetry_cell_setting           triclinic
_symmetry_space_group_name_H-M   'P -1'
_symmetry_Int_Tables_number      2
_space_group_name_Hall           '-P 1'
loop_
_symmetry_equiv_pos_site_id
_symmetry_equiv_pos_as_xyz
1 x,y,z
2 -x,-y,-z
_cell_length_a                   4.7746(3)
_cell_length_b                   5.4698(3)
_cell_length_c                   44.772(3)
_cell_angle_alpha                91.162(5)
_cell_angle_beta                 91.821(5)
_cell_angle_gamma                96.985(5)
_cell_volume                     1159.66
_exptl_crystal_colour            colorless
_exptl_crystal_description       block
_cell_formula_units_Z            1
loop_
_atom_site_label
_atom_site_type_symbol
_atom_site_fract_x
_atom_site_fract_y
_atom_site_fract_z
N1 N 0.7132(5) 0.5928(5) 0.06700(6)
H1 H 0.5385 0.5922 0.0711
C1 C 0.5358(6) 0.2597(5) 0.03082(7)
H2 H 0.4409 0.1656 0.0465
H3 H 0.4037 0.3610 0.0219
C2 C 0.6239(6) 0.0849(5) 0.00722(8)
H4 H 0.7564 -0.0152 0.0163
H5 H 0.7208 0.1804 -0.0082
C3 C 0.9084(6) 0.7494(6) 0.08170(7)
O1 O 1.0510(5) 0.6925(4) 0.14982(6)
C4 C 0.7896(6) 0.4240(6) 0.04424(8)
H6 H 0.9218 0.3217 0.0529
H7 H 0.8838 0.5175 0.0285
O2 O 1.1612(4) 0.7517(5) 0.07700(6)
O3 O 1.3487(5) 1.0150(4) 0.16374(6)
C5 C 1.0268(7) 1.0658(5) 0.12366(8)
H8 H 1.1793 1.1363 0.1115
H9 H 0.9495 1.2013 0.1334
C6 C 0.7986(6) 0.9294(6) 0.10317(8)
H10 H 0.6569 0.8405 0.1153
H11 H 0.7076 1.0485 0.0918
C7 C 1.1481(6) 0.9148(5) 0.14722(8)
N1A N 0.2868(5) -0.5928(5) -0.06700(6)
H1A H 0.4615 -0.5922 -0.0711
C1A C 0.4642(6) -0.2597(5) -0.03082(7)
H2A H 0.5591 -0.1656 -0.0465
H3A H 0.5963 -0.3610 -0.0219
C2A C 0.3761(6) -0.0849(5) -0.00722(8)
H4A H 0.2436 0.0152 -0.0163
H5A H 0.2792 -0.1804 0.0082
C3A C 0.0916(6) -0.7494(6) -0.08170(7)
O1A O -0.0510(5) -0.6925(4) -0.14982(6)
C4A C 0.2104(6) -0.4240(6) -0.04424(8)
H6A H 0.0782 -0.3217 -0.0529
H7A H 0.1162 -0.5175 -0.0285
O2A O -0.1612(4) -0.7517(5) -0.07700(6)
O3A O -0.3487(5) -1.0150(4) -0.16374(6)
C5A C -0.0268(7) -1.0658(5) -0.12366(8)
H8A H -0.1793 -1.1363 -0.1115
H9A H 0.0505 -1.2013 -0.1334
C6A C 0.2014(6) -0.9294(6) -0.10317(8)
H10A H 0.3431 -0.8405 -0.1153
H11A H 0.2924 -1.0485 -0.0918
C7A C -0.1481(6) -0.9148(5) -0.14722(8)
N2 N -0.4617(6) -0.5066(5) 0.17202(6)
H12 H -0.5979 -0.4111 0.1692
H13 H -0.5241 -0.6602 0.1660
H14 H -0.3129 -0.4505 0.1615
C8 C -0.2635(9) -0.2509(6) 0.21601(9)
H15 H -0.1150 -0.1816 0.2033
H16 H -0.4126 -0.1453 0.2151
C9 C 0.1185(10) 0.0077(7) 0.28994(10)
H17 H -0.0230 -0.0565 0.3038
H18 H 0.2632 -0.1023 0.2899
C10 C 0.2495(11) 0.2552(7) 0.30144(10)
H19 H 0.3881 0.3207 0.2874
H20 H 0.1038 0.3642 0.3018
C11 C -0.3797(9) -0.5030(6) 0.20374(9)
H21 H -0.2382 -0.6141 0.2067
H22 H -0.5431 -0.5644 0.2149
C12 C 0.5236(11) 0.5113(8) 0.34326(10)
H23 H 0.6624 0.5761 0.3292
H24 H 0.3789 0.6213 0.3437
C13 C -0.0175(10) 0.0007(7) 0.25926(9)
H25 H 0.1237 0.0664 0.2455
H26 H -0.1631 0.1098 0.2593
C14 C -0.1476(10) -0.2480(7) 0.24743(9)
H27 H -0.0059 -0.3608 0.2486
H28 H -0.2988 -0.3091 0.2603
C15 C 0.3899(11) 0.2629(7) 0.33173(10)
H29 H 0.5346 0.1529 0.3314
H30 H 0.2509 0.1985 0.3458
C16 C 0.7948(12) 0.7655(8) 0.38536(11)
H31 H 0.9334 0.8328 0.3714
H32 H 0.6486 0.8739 0.3859
C17 C 0.6648(11) 0.5168(8) 0.37364(11)
H33 H 0.8113 0.4087 0.3731
H34 H 0.5267 0.4496 0.3877
C18 C 0.9345(13) 0.7680(9) 0.41567(12)
H35 H 1.0822 0.6612 0.4150
H36 H 0.7963 0.6980 0.4295
C19 C 1.0621(13) 1.0168(9) 0.42793(12)
H37 H 1.2025 1.0857 0.4142
H38 H 0.9150 1.1244 0.4283
C20 C 1.1967(17) 1.0195(11) 0.45816(14)
H39 H 1.3479 0.9161 0.4576
H40 H 1.0580 0.9454 0.4717
C21 C 1.3161(17) 1.2686(12) 0.47084(17)
H41 H 1.4782 1.3309 0.4599
H42 H 1.3706 1.2541 0.4915
H43 H 1.1757 1.3796 0.4692
loop_
_geom_bond_atom_site_label_1
_geom_bond_atom_site_label_2
_geom_bond_site_symmetry_1
_geom_bond_site_symmetry_2
N1 H1 1_555 1_555
C1 H2 1_555 1_555
H3 C1 1_555 1_555
C2 C1 1_555 1_555
H4 C2 1_555 1_555
H5 C2 1_555 1_555
C3 N1 1_555 1_555
O1 C7 1_555 1_555
C4 N1 1_555 1_555
H6 C4 1_555 1_555
H7 C4 1_555 1_555
O2 C3 1_555 1_555
O3 C7 1_555 1_555
C5 H8 1_555 1_555
H9 C5 1_555 1_555
C6 C3 1_555 1_555
H10 C6 1_555 1_555
H11 C6 1_555 1_555
C7 C5 1_555 1_555
N2 H12 1_555 1_555
H13 N2 1_555 1_555
H14 N2 1_555 1_555
C8 H15 1_555 1_555
H16 C8 1_555 1_555
C9 H17 1_555 1_555
H18 C9 1_555 1_555
C10 C9 1_555 1_555
H19 C10 1_555 1_555
H20 C10 1_555 1_555
C11 N2 1_555 1_555
H21 C11 1_555 1_555
H22 C11 1_555 1_555
C12 H23 1_555 1_555
H24 C12 1_555 1_555
C13 C9 1_555 1_555
H25 C13 1_555 1_555
H26 C13 1_555 1_555
C14 C8 1_555 1_555
H27 C14 1_555 1_555
H28 C14 1_555 1_555
C15 C10 1_555 1_555
H29 C15 1_555 1_555
H30 C15 1_555 1_555
C16 H31 1_555 1_555
H32 C16 1_555 1_555
C17 C12 1_555 1_555
H33 C17 1_555 1_555
H34 C17 1_555 1_555
C18 C16 1_555 1_555
H35 C18 1_555 1_555
H36 C18 1_555 1_555
C19 C18 1_555 1_555
H37 C19 1_555 1_555
H38 C19 1_555 1_555
C20 C19 1_555 1_555
H39 C20 1_555 1_555
H40 C20 1_555 1_555
C21 C20 1_555 1_555
H41 C21 1_555 1_555
H42 C21 1_555 1_555
H43 C21 1_555 1_555
N1A H1A 1_555 1_555
C1A H2A 1_555 1_555
H3A C1A 1_555 1_555
C2A C2 1_555 1_555
H4A C2A 1_555 1_555
H5A C2A 1_555 1_555
C3A N1A 1_555 1_555
O1A C7A 1_555 1_555
C4A N1A 1_555 1_555
H6A C4A 1_555 1_555
H7A C4A 1_555 1_555
O2A C3A 1_555 1_555
O3A C7A 1_555 1_555
C5A H8A 1_555 1_555
H9A C5A 1_555 1_555
C6A C3A 1_555 1_555
H10A C6A 1_555 1_555
H11A C6A 1_555 1_555
C7A C5A 1_555 1_555
C1 C4 1_555 1_555
C5 C6 1_555 1_555
C8 C11 1_555 1_555
C12 C15 1_555 1_555
C13 C14 1_555 1_555
C16 C17 1_555 1_555
C1A C2A 1_555 1_555
C1A C4A 1_555 1_555
C5A C6A 1_555 1_555

#END
