
#######################################################################
#
#                 Cambridge Crystallographic Data Centre
#                                CCDC 
#
#######################################################################
#
# If this CIF has been generated from an entry in the Cambridge 
# Structural Database, then it will include bibliographic, chemical, 
# crystal, experimental, refinement or atomic coordinate data resulting 
# from the CCDC's data processing and validation procedures.
#
#######################################################################

data_KUDTUA
_chemical_formula_moiety         'C19 H16 F4 O2'
_chemical_name_systematic        
5-benzylidene-2-(4-fluorophenyl)-4,4-dimethyl-2-(trifluoromethyl)-1,3-dioxolane
_symmetry_cell_setting           orthorhombic
_symmetry_space_group_name_H-M   'P 21 21 21'
_symmetry_Int_Tables_number      19
_space_group_name_Hall           'P 2ac 2ab'
loop_
_symmetry_equiv_pos_site_id
_symmetry_equiv_pos_as_xyz
1 x,y,z
2 1/2-x,-y,1/2+z
3 1/2+x,1/2-y,-z
4 -x,1/2+y,1/2-z
_cell_length_a                   8.7578(4)
_cell_length_b                   10.8532(6)
_cell_length_c                   18.2457(9)
_cell_angle_alpha                90
_cell_angle_beta                 90
_cell_angle_gamma                90
_cell_volume                     1734.26
_cell_formula_units_Z            4
loop_
_atom_site_label
_atom_site_type_symbol
_atom_site_fract_x
_atom_site_fract_y
_atom_site_fract_z
F1 F 0.6726(2) 0.58466(19) 0.67640(9)
F2 F 0.50093(16) 0.48929(19) 0.73713(10)
F3 F 0.6145(2) 0.64423(15) 0.78466(9)
F4 F 0.5888(3) 0.2872(2) 1.05198(9)
O1 O 0.77444(15) 0.36075(13) 0.72388(7)
O2 O 0.89223(16) 0.52691(13) 0.77507(8)
C1 C 0.9339(3) 0.1764(2) 0.52335(12)
H1 H 1.0262 0.2089 0.5073
C2 C 0.8618(3) 0.0860(2) 0.48204(13)
H2 H 0.9058 0.0592 0.4385
C3 C 0.7269(3) 0.0363(2) 0.50491(12)
H3 H 0.6799 -0.0255 0.4777
C4 C 0.6612(3) 0.0784(2) 0.56842(12)
H4 H 0.5688 0.0453 0.5839
C5 C 0.7303(2) 0.16913(19) 0.60967(10)
H5 H 0.6831 0.1972 0.6522
C6 C 0.8701(2) 0.21920(16) 0.58837(10)
C7 C 0.9561(2) 0.30966(17) 0.63181(10)
H6 H 1.0542 0.3262 0.6149
C8 C 0.91554(19) 0.37119(16) 0.69130(9)
C9 C 1.0097(2) 0.45691(17) 0.73765(10)
C10 C 0.7576(2) 0.45937(18) 0.77480(10)
C11 C 0.7122(2) 0.41049(18) 0.84960(10)
C12 C 0.7634(3) 0.4705(3) 0.91129(12)
H7 H 0.8266 0.5389 0.9068
C13 C 0.7207(4) 0.4292(3) 0.98017(13)
H8 H 0.7534 0.4699 1.0222
C14 C 0.6303(4) 0.3283(3) 0.98510(13)
C15 C 0.5780(4) 0.2677(2) 0.92526(15)
H9 H 0.5154 0.1990 0.9303
C16 C 0.6192(3) 0.3099(2) 0.85630(12)
H10 H 0.5836 0.2698 0.8146
C17 C 1.1064(2) 0.5482(2) 0.69560(12)
H11 H 1.0443 0.5894 0.6598
H12 H 1.1879 0.5054 0.6714
H13 H 1.1483 0.6077 0.7289
C18 C 1.1033(3) 0.3855(2) 0.79364(14)
H14 H 1.1457 0.4417 0.8288
H15 H 1.1844 0.3426 0.7691
H16 H 1.0388 0.3272 0.8183
C19 C 0.6342(3) 0.5446(3) 0.74296(13)
loop_
_geom_bond_atom_site_label_1
_geom_bond_atom_site_label_2
_geom_bond_site_symmetry_1
_geom_bond_site_symmetry_2
F1 C19 1_555 1_555
F2 C19 1_555 1_555
F3 C19 1_555 1_555
F4 C14 1_555 1_555
O1 C8 1_555 1_555
O2 C9 1_555 1_555
C1 H1 1_555 1_555
C2 C1 1_555 1_555
H2 C2 1_555 1_555
C3 C2 1_555 1_555
H3 C3 1_555 1_555
C4 C3 1_555 1_555
H4 C4 1_555 1_555
C5 C4 1_555 1_555
H5 C5 1_555 1_555
C6 C1 1_555 1_555
C7 C6 1_555 1_555
H6 C7 1_555 1_555
C8 C7 1_555 1_555
C9 C8 1_555 1_555
C10 O1 1_555 1_555
C11 C10 1_555 1_555
C12 C11 1_555 1_555
H7 C12 1_555 1_555
C13 C12 1_555 1_555
H8 C13 1_555 1_555
C14 C13 1_555 1_555
C15 C14 1_555 1_555
H9 C15 1_555 1_555
C16 C11 1_555 1_555
H10 C16 1_555 1_555
C17 C9 1_555 1_555
H11 C17 1_555 1_555
H12 C17 1_555 1_555
H13 C17 1_555 1_555
C18 C9 1_555 1_555
H14 C18 1_555 1_555
H15 C18 1_555 1_555
H16 C18 1_555 1_555
C19 C10 1_555 1_555
O2 C10 1_555 1_555
C5 C6 1_555 1_555
C15 C16 1_555 1_555

#END
