
#######################################################################
#
#                 Cambridge Crystallographic Data Centre
#                                CCDC 
#
#######################################################################
#
# If this CIF has been generated from an entry in the Cambridge 
# Structural Database, then it will include bibliographic, chemical, 
# crystal, experimental, refinement or atomic coordinate data resulting 
# from the CCDC's data processing and validation procedures.
#
#######################################################################

data_KUFDAS
_chemical_formula_moiety         '2(C16 H36 P1 1+),Br24 2-'
_chemical_name_systematic        
'bis(Tetra-n-butylphosphonium) tetracosabromide'
_symmetry_cell_setting           monoclinic
_symmetry_space_group_name_H-M   'P 21/c'
_symmetry_Int_Tables_number      14
_space_group_name_Hall           '-P 2ybc'
loop_
_symmetry_equiv_pos_site_id
_symmetry_equiv_pos_as_xyz
1 x,y,z
2 -x,1/2+y,1/2-z
3 -x,-y,-z
4 x,1/2-y,1/2+z
_cell_length_a                   12.1312(8)
_cell_length_b                   16.6953(12)
_cell_length_c                   17.6055(13)
_cell_angle_alpha                90
_cell_angle_beta                 98.075(4)
_cell_angle_gamma                90
_cell_volume                     3530.36
_exptl_crystal_colour            orange
_exptl_crystal_description       prismatic
_cell_formula_units_Z            2
_chemical_properties_physical    'Air-sensitive, Heat-sensitive'
_exptl_crystal_recrystallization_method 'From the Melt'
loop_
_atom_site_label
_atom_site_type_symbol
_atom_site_fract_x
_atom_site_fract_y
_atom_site_fract_z
Br1 Br 0.17369(8) 0.41075(6) 0.31960(6)
Br2 Br 0.28365(8) 0.30458(5) 0.42551(6)
Br3 Br 0.37703(10) 0.21297(6) 0.51831(7)
Br4 Br -0.04905(9) 0.33766(6) 0.27299(6)
Br5 Br -0.21290(10) 0.27331(8) 0.22176(9)
Br6 Br 0.36392(8) 0.41404(6) 0.22097(6)
Br7 Br 0.51954(9) 0.40837(6) 0.15782(7)
Br8 Br 0.30673(10) 0.56407(7) 0.36902(7)
Br9 Br 0.42004(10) 0.67199(8) 0.41003(8)
Br10 Br 0.04727(8) 0.47792(6) 0.45039(6)
Br11 Br 0.24471(11) -0.08408(8) 0.41787(8)
Br12 Br 0.29702(10) 0.03704(8) 0.47455(7)
Br1B Br -0.17369(8) 0.58925(6) 0.68040(6)
Br2B Br -0.28365(8) 0.69542(5) 0.57449(6)
Br3B Br -0.37703(10) 0.78703(6) 0.48169(7)
Br4B Br 0.04905(9) 0.66234(6) 0.72701(6)
Br5B Br 0.21290(10) 0.72669(8) 0.77824(9)
Br6B Br -0.36392(8) 0.58596(6) 0.77903(6)
Br7B Br -0.51954(9) 0.59163(6) 0.84218(7)
Br8B Br -0.30673(10) 0.43593(7) 0.63098(7)
Br9B Br -0.42004(10) 0.32801(8) 0.58997(8)
Br10B Br -0.04727(8) 0.52208(6) 0.54961(6)
Br11B Br -0.24471(11) 1.08408(8) 0.58213(8)
Br12B Br -0.29702(10) 0.96296(8) 0.52545(7)
P1 P 0.2194(2) 0.12853(14) 0.20260(14)
C1 C 0.1438(8) 0.1715(6) 0.1160(6)
H1 H 0.1909 0.1674 0.0746
H2 H 0.0762 0.1389 0.1005
C2 C 0.1098(10) 0.2562(7) 0.1224(7)
H3 H 0.1770 0.2891 0.1382
H4 H 0.0615 0.2605 0.1631
C3 C 0.0468(9) 0.2904(6) 0.0469(7)
H5 H 0.0303 0.3475 0.0552
H6 H 0.0970 0.2881 0.0072
C4 C -0.0627(10) 0.2480(8) 0.0154(8)
H7 H -0.0464 0.2004 -0.0136
H8 H -0.1099 0.2846 -0.0184
H9 H -0.1015 0.2320 0.0582
C5 C 0.3476(8) 0.1851(6) 0.2311(6)
H10 H 0.3855 0.1932 0.1854
H11 H 0.3280 0.2386 0.2494
C6 C 0.4276(8) 0.1454(6) 0.2930(6)
H12 H 0.4510 0.0933 0.2737
H13 H 0.3887 0.1347 0.3377
C7 C 0.5340(9) 0.1971(7) 0.3198(7)
H14 H 0.5711 0.2109 0.2749
H15 H 0.5119 0.2477 0.3429
C8 C 0.6156(11) 0.1515(9) 0.3787(8)
H16 H 0.5775 0.1346 0.4215
H17 H 0.6782 0.1865 0.3979
H18 H 0.6434 0.1043 0.3543
C9 C 0.2523(8) 0.0264(6) 0.1830(6)
H19 H 0.2868 0.0011 0.2315
H20 H 0.1820 -0.0025 0.1656
C10 C 0.3299(9) 0.0152(7) 0.1232(8)
H21 H 0.3976 0.0477 0.1386
H22 H 0.2927 0.0367 0.0738
C11 C 0.3658(10) -0.0710(7) 0.1103(7)
H23 H 0.4220 -0.0703 0.0746
H24 H 0.4021 -0.0931 0.1597
C12 C 0.2721(12) -0.1263(8) 0.0783(8)
H25 H 0.2204 -0.1327 0.1159
H26 H 0.3027 -0.1787 0.0672
H27 H 0.2324 -0.1034 0.0309
C13 C 0.1358(8) 0.1327(6) 0.2806(6)
H28 H 0.1798 0.1089 0.3267
H29 H 0.1233 0.1897 0.2922
C14 C 0.0267(13) 0.0924(8) 0.2678(10)
H30 H 0.0338 0.0362 0.2512
H31 H -0.0261 0.1211 0.2291
C15 C -0.0126(17) 0.0973(11) 0.3542(12)
H32 H 0.0447 0.1292 0.3866
H33 H -0.0820 0.1293 0.3487
C16 C -0.028(3) 0.043(2) 0.388(2)
H34 H -0.0477 0.0595 0.4379
H35 H 0.0395 0.0102 0.3960
H36 H -0.0892 0.0121 0.3601
C17? C -0.0654(18) 0.0986(12) 0.3175(14)
H37? H -0.0420 0.1432 0.3532
H38? H -0.1303 0.1189 0.2825
C18? C -0.107(3) 0.0463(18) 0.3592(19)
H39? H -0.1640 0.0717 0.3853
H40? H -0.0478 0.0248 0.3975
H41? H -0.1404 0.0027 0.3267
loop_
_geom_bond_atom_site_label_1
_geom_bond_atom_site_label_2
_geom_bond_site_symmetry_1
_geom_bond_site_symmetry_2
Br1 Br2 1_555 1_555
Br2 Br3 1_555 1_555
Br3 Br12 1_555 1_555
Br4 Br1 1_555 1_555
Br5 Br4 1_555 1_555
Br6 Br1 1_555 1_555
Br7 Br6 1_555 1_555
Br8 Br1 1_555 1_555
Br9 Br8 1_555 1_555
Br10 Br1 1_555 1_555
Br11 Br12 1_555 1_555
P1 C1 1_555 1_555
C1 H1 1_555 1_555
H2 C1 1_555 1_555
C2 C1 1_555 1_555
H3 C2 1_555 1_555
H4 C2 1_555 1_555
C3 C2 1_555 1_555
H5 C3 1_555 1_555
H6 C3 1_555 1_555
C4 C3 1_555 1_555
H7 C4 1_555 1_555
H8 C4 1_555 1_555
H9 C4 1_555 1_555
C5 P1 1_555 1_555
H10 C5 1_555 1_555
H11 C5 1_555 1_555
C6 C5 1_555 1_555
H12 C6 1_555 1_555
H13 C6 1_555 1_555
C7 C6 1_555 1_555
H14 C7 1_555 1_555
H15 C7 1_555 1_555
C8 C7 1_555 1_555
H16 C8 1_555 1_555
H17 C8 1_555 1_555
H18 C8 1_555 1_555
C9 P1 1_555 1_555
H19 C9 1_555 1_555
H20 C9 1_555 1_555
C10 C9 1_555 1_555
H21 C10 1_555 1_555
H22 C10 1_555 1_555
C11 C10 1_555 1_555
H23 C11 1_555 1_555
H24 C11 1_555 1_555
C12 C11 1_555 1_555
H25 C12 1_555 1_555
H26 C12 1_555 1_555
H27 C12 1_555 1_555
C13 P1 1_555 1_555
H28 C13 1_555 1_555
H29 C13 1_555 1_555
C14 C13 1_555 1_555
H30 C14 1_555 1_555
H31 C14 1_555 1_555
C15 C14 1_555 1_555
H32 C15 1_555 1_555
H33 C15 1_555 1_555
C16 C15 1_555 1_555
H34 C16 1_555 1_555
H35 C16 1_555 1_555
H36 C16 1_555 1_555
Br1B Br2B 1_555 1_555
Br2B Br3B 1_555 1_555
Br3B Br12B 1_555 1_555
Br4B Br1B 1_555 1_555
Br5B Br4B 1_555 1_555
Br6B Br1B 1_555 1_555
Br7B Br6B 1_555 1_555
Br8B Br1B 1_555 1_555
Br9B Br8B 1_555 1_555
Br10B Br10 1_555 1_555
Br11B Br12B 1_555 1_555
Br1B Br10B 1_555 1_555

#END
