
#######################################################################
#
#                 Cambridge Crystallographic Data Centre
#                                CCDC 
#
#######################################################################
#
# If this CIF has been generated from an entry in the Cambridge 
# Structural Database, then it will include bibliographic, chemical, 
# crystal, experimental, refinement or atomic coordinate data resulting 
# from the CCDC's data processing and validation procedures.
#
#######################################################################

data_KUFNEE
_chemical_formula_moiety         'C18 H21 N1'
_chemical_name_systematic        2-Phenyl-5-(1-phenylethyl)pyrrolidine
_symmetry_cell_setting           orthorhombic
_symmetry_space_group_name_H-M   'P 21 21 21'
_symmetry_Int_Tables_number      19
_space_group_name_Hall           'P 2ac 2ab'
loop_
_symmetry_equiv_pos_site_id
_symmetry_equiv_pos_as_xyz
1 x,y,z
2 1/2+x,1/2-y,-z
3 -x,1/2+y,1/2-z
4 1/2-x,-y,1/2+z
_cell_length_a                   8.9663(8)
_cell_length_b                   27.840(4)
_cell_length_c                   5.7241(4)
_cell_angle_alpha                90
_cell_angle_beta                 90
_cell_angle_gamma                90
_cell_volume                     1428.86
_exptl_crystal_colour            colorless
_cell_formula_units_Z            4
loop_
_atom_site_label
_atom_site_type_symbol
_atom_site_fract_x
_atom_site_fract_y
_atom_site_fract_z
N1 N 0.0098(3) 0.15089(8) 0.4066(5)
C1 C 0.0961(3) 0.1135(1) 0.2834(6)
C2 C 0.2406(4) 0.1106(1) 0.4270(9)
C3 C 0.2471(4) 0.1587(1) 0.5553(8)
C4 C 0.1185(3) 0.1888(1) 0.4544(6)
C5 C 0.0143(4) 0.0657(1) 0.2592(7)
C6 C 0.1114(5) 0.0294(1) 0.1304(9)
C7 C -0.1365(4) 0.0698(1) 0.1402(6)
C8 C -0.1498(5) 0.0912(1) -0.0734(6)
C9 C -0.2890(4) 0.0952(1) -0.1839(7)
C10 C -0.4133(5) 0.0754(1) -0.0800(8)
C11 C -0.4004(4) 0.0518(1) 0.1304(8)
C12 C -0.2628(3) 0.0493(1) 0.2413(7)
C13 C 0.0698(3) 0.2278(1) 0.6150(5)
C14 C 0.1298(4) 0.2735(1) 0.5946(6)
C15 C 0.0982(4) 0.3093(1) 0.7517(7)
C16 C 0.0016(4) 0.3005(1) 0.9348(6)
C17 C -0.0640(4) 0.2561(1) 0.9552(6)
C18 C -0.0303(3) 0.2197(1) 0.7973(6)
H1 H 0.114(3) 0.122(1) 0.130(6)
H2 H 0.265(4) 0.076(1) 0.489(8)
H3 H 0.320(3) 0.106(1) 0.338(5)
H4 H 0.237(4) 0.154(1) 0.708(8)
H5 H 0.352(4) 0.176(1) 0.514(6)
H6 H 0.153(3) 0.2021(8) 0.304(5)
H7 H -0.010(5) 0.055(1) 0.411(9)
H8 H 0.047(3) 0.001(1) 0.097(6)
H9 H 0.113(5) 0.045(2) -0.04(1)
H10 H 0.225(5) 0.022(2) 0.20(1)
H11 H -0.073(4) 0.104(1) -0.153(7)
H12 H -0.287(4) 0.118(1) -0.332(8)
H13 H -0.505(5) 0.076(1) -0.142(8)
H14 H -0.492(3) 0.038(1) 0.207(5)
H15 H -0.270(3) 0.033(1) 0.408(6)
H16 H 0.185(4) 0.277(1) 0.478(6)
H17 H 0.143(5) 0.336(1) 0.738(8)
H18 H -0.016(5) 0.327(1) 1.082(9)
H19 H -0.121(4) 0.254(1) 1.114(7)
H20 H -0.083(3) 0.187(1) 0.799(5)
H21 H -0.070(4) 0.162(1) 0.301(6)
loop_
_geom_bond_atom_site_label_1
_geom_bond_atom_site_label_2
_geom_bond_site_symmetry_1
_geom_bond_site_symmetry_2
N1 C1 1_555 1_555
C1 C2 1_555 1_555
C2 C3 1_555 1_555
C3 C4 1_555 1_555
C4 N1 1_555 1_555
C5 C1 1_555 1_555
C6 C5 1_555 1_555
C7 C5 1_555 1_555
C8 C7 1_555 1_555
C9 C8 1_555 1_555
C10 C9 1_555 1_555
C11 C10 1_555 1_555
C12 C7 1_555 1_555
C13 C4 1_555 1_555
C14 C13 1_555 1_555
C15 C14 1_555 1_555
C16 C15 1_555 1_555
C17 C16 1_555 1_555
C18 C13 1_555 1_555
H1 C1 1_555 1_555
H2 C2 1_555 1_555
H3 C2 1_555 1_555
H4 C3 1_555 1_555
H5 C3 1_555 1_555
H6 C4 1_555 1_555
H7 C5 1_555 1_555
H8 C6 1_555 1_555
H9 C6 1_555 1_555
H10 C6 1_555 1_555
H11 C8 1_555 1_555
H12 C9 1_555 1_555
H13 C10 1_555 1_555
H14 C11 1_555 1_555
H15 C12 1_555 1_555
H16 C14 1_555 1_555
H17 C15 1_555 1_555
H18 C16 1_555 1_555
H19 C17 1_555 1_555
H20 C18 1_555 1_555
H21 N1 1_555 1_555
C11 C12 1_555 1_555
C17 C18 1_555 1_555

#END
