
#######################################################################
#
#                 Cambridge Crystallographic Data Centre
#                                CCDC 
#
#######################################################################
#
# If this CIF has been generated from an entry in the Cambridge 
# Structural Database, then it will include bibliographic, chemical, 
# crystal, experimental, refinement or atomic coordinate data resulting 
# from the CCDC's data processing and validation procedures.
#
#######################################################################

data_KUFQOS
_chemical_name_common            N,N-Dimethyl-N'-phenylthiocarbamide
_chemical_formula_moiety         'C9 H12 N2 S1'
_chemical_name_systematic        1,1-Dimethyl-3-phenylthiourea
_symmetry_cell_setting           monoclinic
_symmetry_space_group_name_H-M   'P 21/c'
_symmetry_Int_Tables_number      14
_space_group_name_Hall           '-P 2ybc'
loop_
_symmetry_equiv_pos_site_id
_symmetry_equiv_pos_as_xyz
1 x,y,z
2 -x,1/2+y,1/2-z
3 -x,-y,-z
4 x,1/2-y,1/2+z
_cell_length_a                   5.7710(12)
_cell_length_b                   13.486(3)
_cell_length_c                   12.659(3)
_cell_angle_alpha                90
_cell_angle_beta                 100.42(3)
_cell_angle_gamma                90
_cell_volume                     968.973
_exptl_crystal_colour            colorless
_exptl_crystal_description       block
_cell_formula_units_Z            4
loop_
_atom_site_label
_atom_site_type_symbol
_atom_site_fract_x
_atom_site_fract_y
_atom_site_fract_z
S1 S 0.47937(10) 0.71310(4) 0.10113(4)
N1 N 0.8675(3) 0.61745(14) 0.06537(15)
H1 H 0.9764 0.6100 0.0278
N2 N 0.7352(3) 0.74305(14) -0.05217(14)
C1 C 0.6816(4) 0.49054(16) 0.16236(18)
H2 H 0.5474 0.4917 0.1091
C2 C 0.6936(4) 0.42728(17) 0.2488(2)
H3 H 0.5665 0.3864 0.2542
C3 C 0.8951(5) 0.42437(18) 0.3281(2)
H4 H 0.9019 0.3823 0.3868
C4 C 1.0857(5) 0.4845(2) 0.3191(2)
H5 H 1.2219 0.4813 0.3710
C5 C 1.0745(4) 0.54908(18) 0.23361(19)
H6 H 1.2020 0.5899 0.2285
C6 C 0.8716(4) 0.55290(15) 0.15497(16)
C7 C 0.7036(3) 0.69069(14) 0.03426(16)
C8 C 0.5912(5) 0.8308(2) -0.0873(2)
H7 H 0.4810 0.8413 -0.0400
H8 H 0.5070 0.8206 -0.1591
H9 H 0.6914 0.8878 -0.0858
C9 C 0.9127(5) 0.7167(2) -0.1169(2)
H10 H 0.9080 0.6466 -0.1299
H11 H 1.0662 0.7350 -0.0790
H12 H 0.8801 0.7514 -0.1842
loop_
_geom_bond_atom_site_label_1
_geom_bond_atom_site_label_2
_geom_bond_site_symmetry_1
_geom_bond_site_symmetry_2
S1 C7 1_555 1_555
N1 H1 1_555 1_555
N2 C7 1_555 1_555
C1 H2 1_555 1_555
C2 C1 1_555 1_555
H3 C2 1_555 1_555
C3 C2 1_555 1_555
H4 C3 1_555 1_555
C4 C3 1_555 1_555
H5 C4 1_555 1_555
C5 C4 1_555 1_555
H6 C5 1_555 1_555
C6 N1 1_555 1_555
C7 N1 1_555 1_555
C8 N2 1_555 1_555
H7 C8 1_555 1_555
H8 C8 1_555 1_555
H9 C8 1_555 1_555
C9 N2 1_555 1_555
H10 C9 1_555 1_555
H11 C9 1_555 1_555
H12 C9 1_555 1_555
C1 C6 1_555 1_555
C5 C6 1_555 1_555

#END
