
#######################################################################
#
#                 Cambridge Crystallographic Data Centre
#                                CCDC 
#
#######################################################################
#
# If this CIF has been generated from an entry in the Cambridge 
# Structural Database, then it will include bibliographic, chemical, 
# crystal, experimental, refinement or atomic coordinate data resulting 
# from the CCDC's data processing and validation procedures.
#
#######################################################################

data_KUFQOS01
_chemical_name_common            N,N-Dimethyl-N'-phenylthiocarbamide
_chemical_formula_moiety         'C9 H12 N2 S1'
_chemical_name_systematic        1,1-dimethyl-3-phenylthiourea
_symmetry_cell_setting           monoclinic
_symmetry_space_group_name_H-M   'P 21/c'
_symmetry_Int_Tables_number      14
_space_group_name_Hall           '-P 2ybc'
loop_
_symmetry_equiv_pos_site_id
_symmetry_equiv_pos_as_xyz
1 x,y,z
2 -x,1/2+y,1/2-z
3 -x,-y,-z
4 x,1/2-y,1/2+z
_cell_length_a                   5.7179(4)
_cell_length_b                   13.4420(10)
_cell_length_c                   12.6342(9)
_cell_angle_alpha                90
_cell_angle_beta                 100.441(7)
_cell_angle_gamma                90
_cell_volume                     954.986
_exptl_crystal_colour            colorless
_exptl_crystal_description       needle
_cell_formula_units_Z            4
loop_
_atom_site_label
_atom_site_type_symbol
_atom_site_fract_x
_atom_site_fract_y
_atom_site_fract_z
S1 S -0.0198(3) 0.71321(12) 0.60105(12)
N1 N 0.2338(8) 0.7432(4) 0.4479(4)
N2 N 0.3681(8) 0.6180(4) 0.5658(4)
H1 H 0.4791 0.6117 0.5286
C1 C 0.1989(10) 0.6908(4) 0.5351(4)
C2 C 0.0903(12) 0.8309(5) 0.4130(5)
H2 H -0.0153 0.8167 0.3466
H3 H 0.1926 0.8853 0.4026
H4 H -0.0008 0.8485 0.4670
C3 C 0.4123(12) 0.7169(5) 0.3831(5)
H5 H 0.5664 0.7378 0.4196
H6 H 0.3753 0.7496 0.3145
H7 H 0.4122 0.6462 0.3726
C4 C 0.3716(10) 0.5523(4) 0.6554(4)
C5 C 0.1811(11) 0.4911(4) 0.6619(5)
H8 H 0.0453 0.4928 0.6088
C6 C 0.1952(11) 0.4268(4) 0.7491(5)
H9 H 0.0682 0.3849 0.7542
C7 C 0.3954(12) 0.4248(5) 0.8278(5)
H10 H 0.4018 0.3832 0.8870
C8 C 0.5859(12) 0.4843(5) 0.8189(5)
H11 H 0.7242 0.4810 0.8704
C9 C 0.5712(12) 0.5493(5) 0.7328(5)
H12 H 0.6983 0.5911 0.7279
loop_
_geom_bond_atom_site_label_1
_geom_bond_atom_site_label_2
_geom_bond_site_symmetry_1
_geom_bond_site_symmetry_2
S1 C1 1_555 1_555
N1 C1 1_555 1_555
N2 H1 1_555 1_555
C1 N2 1_555 1_555
C2 N1 1_555 1_555
H2 C2 1_555 1_555
H3 C2 1_555 1_555
H4 C2 1_555 1_555
C3 N1 1_555 1_555
H5 C3 1_555 1_555
H6 C3 1_555 1_555
H7 C3 1_555 1_555
C4 N2 1_555 1_555
C5 C4 1_555 1_555
H8 C5 1_555 1_555
C6 C5 1_555 1_555
H9 C6 1_555 1_555
C7 C6 1_555 1_555
H10 C7 1_555 1_555
C8 C7 1_555 1_555
H11 C8 1_555 1_555
C9 C4 1_555 1_555
H12 C9 1_555 1_555
C8 C9 1_555 1_555

#END
