
#######################################################################
#
#                 Cambridge Crystallographic Data Centre
#                                CCDC 
#
#######################################################################
#
# If this CIF has been generated from an entry in the Cambridge 
# Structural Database, then it will include bibliographic, chemical, 
# crystal, experimental, refinement or atomic coordinate data resulting 
# from the CCDC's data processing and validation procedures.
#
#######################################################################

data_KUFVAI03
_chemical_formula_moiety         'C9 H8 N2 O1'
_chemical_name_systematic        2-(1H-pyrazol-3-yl)phenol
_symmetry_cell_setting           orthorhombic
_symmetry_space_group_name_H-M   'P 21 21 21'
_symmetry_Int_Tables_number      19
_space_group_name_Hall           'P 2ac 2ab'
loop_
_symmetry_equiv_pos_site_id
_symmetry_equiv_pos_as_xyz
1 x,y,z
2 1/2-x,-y,1/2+z
3 -x,1/2+y,1/2-z
4 1/2+x,1/2-y,-z
_cell_length_a                   5.7785(12)
_cell_length_b                   9.7172(19)
_cell_length_c                   14.760(3)
_cell_angle_alpha                90
_cell_angle_beta                 90
_cell_angle_gamma                90
_cell_volume                     828.786
_exptl_crystal_colour            colorless
_exptl_crystal_description       block
_cell_formula_units_Z            4
loop_
_atom_site_label
_atom_site_type_symbol
_atom_site_fract_x
_atom_site_fract_y
_atom_site_fract_z
C1 C -0.0865(3) 0.09232(16) 0.37826(10)
C2 C 0.0859(2) 0.18897(14) 0.35882(8)
C3 C 0.1084(2) 0.33358(14) 0.38708(8)
C4 C 0.2998(3) 0.41320(16) 0.36041(10)
O1 O 0.47358(18) 0.35920(12) 0.30876(8)
H1 H 0.4458 0.2781 0.2980
N1 N 0.2483(2) 0.13202(13) 0.30647(9)
C5 C -0.0621(3) 0.39580(16) 0.44012(10)
N2 N 0.1791(2) 0.00171(13) 0.29347(10)
C6 C 0.3148(4) 0.5500(2) 0.38573(14)
C7 C -0.0459(4) 0.53130(19) 0.46544(13)
C8 C -0.0199(3) -0.02468(17) 0.33506(11)
C9 C 0.1412(4) 0.60792(19) 0.43722(14)
H2 H -0.095(3) -0.1115(17) 0.3276(11)
H3 H 0.266(4) -0.0477(19) 0.2545(14)
H4 H -0.226(3) 0.1050(18) 0.4138(11)
H5 H 0.454(4) 0.5989(18) 0.3597(13)
H6 H -0.204(3) 0.3412(17) 0.4601(12)
H7 H 0.148(4) 0.702(3) 0.4561(14)
H8 H -0.165(4) 0.570(2) 0.5016(15)
loop_
_geom_bond_atom_site_label_1
_geom_bond_atom_site_label_2
_geom_bond_site_symmetry_1
_geom_bond_site_symmetry_2
C1 C2 1_555 1_555
C2 C3 1_555 1_555
C3 C4 1_555 1_555
C4 O1 1_555 1_555
O1 H1 1_555 1_555
N1 C2 1_555 1_555
C5 C3 1_555 1_555
N2 N1 1_555 1_555
C6 C4 1_555 1_555
C7 C5 1_555 1_555
C8 C1 1_555 1_555
C9 C6 1_555 1_555
H2 C8 1_555 1_555
H3 N2 1_555 1_555
H4 C1 1_555 1_555
H5 C6 1_555 1_555
H6 C5 1_555 1_555
H7 C9 1_555 1_555
H8 C7 1_555 1_555
N2 C8 1_555 1_555
C7 C9 1_555 1_555

#END
