
#######################################################################
#
#                 Cambridge Crystallographic Data Centre
#                                CCDC 
#
#######################################################################
#
# If this CIF has been generated from an entry in the Cambridge 
# Structural Database, then it will include bibliographic, chemical, 
# crystal, experimental, refinement or atomic coordinate data resulting 
# from the CCDC's data processing and validation procedures.
#
#######################################################################

data_KUFXAK10
_chemical_formula_moiety         'C26 H26 N2 O5 S1'
_chemical_name_systematic        
7\a,8-bis(Methoxycarbonyl)-4-oxo-5\b-(phenylthio)-1,4,5,6\b,7,8-hexahydro-2H-3,6-ethanoazonino(5,4-b)indole
_symmetry_cell_setting           monoclinic
_symmetry_space_group_name_H-M   'P 21/c'
_symmetry_Int_Tables_number      14
_space_group_name_Hall           '-P 2ybc'
loop_
_symmetry_equiv_pos_site_id
_symmetry_equiv_pos_as_xyz
1 x,y,z
2 -x,1/2+y,1/2-z
3 -x,-y,-z
4 x,1/2-y,1/2+z
_cell_length_a                   9.906(2)
_cell_length_b                   17.572(6)
_cell_length_c                   13.495(4)
_cell_angle_alpha                90
_cell_angle_beta                 90.78(1)
_cell_angle_gamma                90
_cell_volume                     2348.83
_exptl_crystal_colour            colorless
_chemical_melting_point          230-231deg.C
_cell_formula_units_Z            4
loop_
_atom_site_label
_atom_site_type_symbol
_atom_site_fract_x
_atom_site_fract_y
_atom_site_fract_z
N1 N 0.1143(4) 0.6417(2) 0.1563(3)
C1 C -0.0025(4) 0.6852(3) 0.1763(3)
C2 C -0.0694(5) 0.7394(3) 0.1197(4)
C3 C -0.1799(5) 0.7755(3) 0.1623(4)
C4 C -0.2220(5) 0.7571(3) 0.2574(4)
C5 C -0.1550(5) 0.7020(3) 0.3123(4)
C6 C -0.0436(4) 0.6657(3) 0.2719(3)
C7 C 0.0465(4) 0.6074(3) 0.3089(3)
C8 C 0.0355(5) 0.5712(3) 0.4096(4)
C9 C 0.1321(5) 0.6057(3) 0.4859(4)
N2 N 0.2716(4) 0.5958(2) 0.4534(3)
C10 C 0.3229(4) 0.5248(3) 0.4476(3)
C11 C 0.4370(4) 0.5175(3) 0.3757(3)
C12 C 0.3937(5) 0.5603(3) 0.2810(3)
C13 C 0.2508(5) 0.5337(3) 0.2433(3)
C14 C 0.1400(5) 0.5929(3) 0.2399(3)
C15 C 0.3984(5) 0.6451(3) 0.3070(4)
C16 C 0.3502(5) 0.6594(3) 0.4141(4)
C17 C 0.1930(4) 0.6540(3) 0.0730(3)
O1 O 0.1580(3) 0.6932(2) 0.0042(2)
O2 O 0.3106(3) 0.6179(2) 0.0815(2)
C18 C 0.3974(5) 0.6210(3) -0.0045(4)
O3 O 0.2687(3) 0.4689(2) 0.4863(2)
S1 S 0.4687(1) 0.4168(1) 0.3629(1)
C19 C 0.6256(4) 0.4131(3) 0.3017(3)
C20 C 0.6703(5) 0.3392(3) 0.2826(4)
C21 C 0.7933(5) 0.3269(3) 0.2391(4)
C22 C 0.8747(5) 0.3876(3) 0.2140(4)
C23 C 0.8306(5) 0.4606(3) 0.2327(3)
C24 C 0.7066(5) 0.4736(3) 0.2768(4)
C25 C 0.2628(5) 0.4845(3) 0.1505(3)
O4 O 0.3646(3) 0.4535(2) 0.1240(2)
O5 O 0.1423(3) 0.4764(2) 0.1043(2)
C26 C 0.1432(6) 0.4271(3) 0.0181(4)
H1 H -0.048(4) 0.754(3) 0.055(3)
H2 H -0.225(5) 0.813(3) 0.122(3)
H3 H -0.301(5) 0.783(3) 0.288(4)
H4 H -0.182(4) 0.689(3) 0.374(3)
H5 H -0.057(4) 0.577(2) 0.429(3)
H6 H 0.052(4) 0.515(2) 0.407(3)
H7 H 0.114(4) 0.661(2) 0.495(3)
H8 H 0.123(4) 0.583(2) 0.550(3)
H9 H 0.519(3) 0.538(2) 0.403(2)
H10 H 0.450(4) 0.548(2) 0.233(3)
H11 H 0.216(4) 0.499(2) 0.290(3)
H12 H 0.489(4) 0.663(2) 0.302(3)
H13 H 0.347(4) 0.677(2) 0.256(3)
H14 H 0.293(5) 0.706(3) 0.419(3)
H15 H 0.428(5) 0.669(3) 0.460(3)
H16 H 0.466(5) 0.582(3) 0.013(3)
H17 H 0.349(6) 0.607(3) -0.062(5)
H18 H 0.430(5) 0.675(3) -0.011(4)
H19 H 0.613(4) 0.297(3) 0.304(3)
H20 H 0.821(4) 0.274(2) 0.229(3)
H21 H 0.960(5) 0.378(2) 0.187(3)
H22 H 0.885(4) 0.501(2) 0.216(3)
H23 H 0.688(4) 0.523(3) 0.286(3)
H24 H 0.044(5) 0.428(3) -0.010(4)
H25 H 0.201(6) 0.444(3) -0.026(4)
H26 H 0.177(5) 0.376(3) 0.042(4)
loop_
_geom_bond_atom_site_label_1
_geom_bond_atom_site_label_2
_geom_bond_site_symmetry_1
_geom_bond_site_symmetry_2
N1 C1 1_555 1_555
C1 C2 1_555 1_555
C2 C3 1_555 1_555
C3 C4 1_555 1_555
C4 C5 1_555 1_555
C5 C6 1_555 1_555
C6 C1 1_555 1_555
C7 C6 1_555 1_555
C8 C7 1_555 1_555
C9 C8 1_555 1_555
N2 C9 1_555 1_555
C10 N2 1_555 1_555
C11 C10 1_555 1_555
C12 C11 1_555 1_555
C13 C12 1_555 1_555
C14 N1 1_555 1_555
C15 C12 1_555 1_555
C16 N2 1_555 1_555
C17 N1 1_555 1_555
O1 C17 1_555 1_555
O2 C17 1_555 1_555
C18 O2 1_555 1_555
O3 C10 1_555 1_555
S1 C11 1_555 1_555
C19 S1 1_555 1_555
C20 C19 1_555 1_555
C21 C20 1_555 1_555
C22 C21 1_555 1_555
C23 C22 1_555 1_555
C24 C19 1_555 1_555
C25 C13 1_555 1_555
O4 C25 1_555 1_555
O5 C25 1_555 1_555
C26 O5 1_555 1_555
H1 C2 1_555 1_555
H2 C3 1_555 1_555
H3 C4 1_555 1_555
H4 C5 1_555 1_555
H5 C8 1_555 1_555
H6 C8 1_555 1_555
H7 C9 1_555 1_555
H8 C9 1_555 1_555
H9 C11 1_555 1_555
H10 C12 1_555 1_555
H11 C13 1_555 1_555
H12 C15 1_555 1_555
H13 C15 1_555 1_555
H14 C16 1_555 1_555
H15 C16 1_555 1_555
H16 C18 1_555 1_555
H17 C18 1_555 1_555
H18 C18 1_555 1_555
H19 C20 1_555 1_555
H20 C21 1_555 1_555
H21 C22 1_555 1_555
H22 C23 1_555 1_555
H23 C24 1_555 1_555
H24 C26 1_555 1_555
H25 C26 1_555 1_555
H26 C26 1_555 1_555
C7 C14 1_555 1_555
C13 C14 1_555 1_555
C15 C16 1_555 1_555
C23 C24 1_555 1_555

#END
