
#######################################################################
#
#                 Cambridge Crystallographic Data Centre
#                                CCDC 
#
#######################################################################
#
# If this CIF has been generated from an entry in the Cambridge 
# Structural Database, then it will include bibliographic, chemical, 
# crystal, experimental, refinement or atomic coordinate data resulting 
# from the CCDC's data processing and validation procedures.
#
#######################################################################

data_KUFXEO
_chemical_formula_moiety         'C22 H26 N2 O5'
_chemical_name_systematic        
'Methyl 4-acetyl-11,13-ethano-15,15-ethylenedioxy-4,13-diazatetracyclo(10.3.1.0^3,11^.0^5,10^)hexadeca-5,7,9-triene-2-carboxylate'
_symmetry_cell_setting           monoclinic
_symmetry_space_group_name_H-M   'P 21/n'
_symmetry_Int_Tables_number      14
_space_group_name_Hall           '-P 2yn'
loop_
_symmetry_equiv_pos_site_id
_symmetry_equiv_pos_as_xyz
1 x,y,z
2 1/2-x,1/2+y,1/2-z
3 -x,-y,-z
4 1/2+x,1/2-y,1/2+z
_cell_length_a                   9.3643(14)
_cell_length_b                   17.883(2)
_cell_length_c                   11.6737(14)
_cell_angle_alpha                90
_cell_angle_beta                 97.829(11)
_cell_angle_gamma                90
_cell_volume                     1936.68
_cell_formula_units_Z            4
loop_
_atom_site_label
_atom_site_type_symbol
_atom_site_fract_x
_atom_site_fract_y
_atom_site_fract_z
N1 N 0.44486(12) 0.68336(6) 0.85169(10)
C1 C 0.38310(14) 0.75927(7) 0.86245(11)
C2 C 0.5125(2) 0.88931(7) 0.88846(12)
N2 N 0.40258(13) 0.93650(6) 0.82087(10)
C3 C 0.4235(2) 0.91890(9) 0.70082(13)
C4 C 0.4706(2) 0.83550(8) 0.69768(12)
C5 C 0.50294(14) 0.81212(7) 0.82759(11)
C6 C 0.63591(14) 0.76378(7) 0.85345(11)
C7 C 0.7801(2) 0.78343(9) 0.86427(13)
C8 C 0.8847(2) 0.72802(9) 0.88558(14)
C9 C 0.8448(2) 0.65413(9) 0.89697(14)
C10 C 0.7007(2) 0.63328(8) 0.88793(13)
C11 C 0.59750(14) 0.68899(7) 0.86497(11)
C12 C 0.4983(2) 0.88655(7) 1.01550(12)
C13 C 0.35211(15) 0.85352(7) 1.02947(11)
C14 C 0.33784(14) 0.77183(7) 0.98605(11)
C15 C 0.42020(15) 0.71841(7) 1.07292(11)
O1 O 0.53759(11) 0.72795(6) 1.12688(9)
C16 C 0.23479(15) 0.90464(7) 0.96465(11)
C17 C 0.2539(2) 0.91815(7) 0.83915(12)
C18 C 0.3690(2) 0.61842(7) 0.82589(12)
O2 O 0.43172(12) 0.55898(5) 0.81772(11)
C19 C 0.2071(2) 0.62307(8) 0.8092(2)
C20 C 0.1413(2) 0.96333(9) 1.11238(13)
O3 O 0.23231(11) 0.97421(5) 1.02387(8)
C21 C 0.0498(2) 0.89489(9) 1.07372(14)
O4 O 0.09370(10) 0.87473(5) 0.96438(8)
C22 C 0.4167(2) 0.59475(10) 1.1451(2)
O5 O 0.34221(12) 0.65573(5) 1.07985(9)
H1 H 0.295(2) 0.7633(8) 0.8085(12)
H2 H 0.609(2) 0.9121(8) 0.8779(13)
H3 H 0.501(2) 0.9500(11) 0.680(2)
H4 H 0.335(2) 0.9285(9) 0.6463(14)
H5 H 0.395(2) 0.8044(10) 0.6575(15)
H6 H 0.558(2) 0.8322(9) 0.6588(14)
H7 H 0.812(2) 0.8364(10) 0.8547(15)
H8 H 0.989(2) 0.7414(9) 0.8931(14)
H9 H 0.923(2) 0.6158(10) 0.915(2)
H10 H 0.674(2) 0.5817(9) 0.8993(14)
H11 H 0.508(2) 0.9375(9) 1.0507(13)
H12 H 0.578(2) 0.8556(8) 1.0562(12)
H13 H 0.336(2) 0.8535(8) 1.1111(13)
H14 H 0.238(2) 0.7564(8) 0.9832(12)
H15 H 0.189(2) 0.9595(9) 0.8105(13)
H16 H 0.219(2) 0.8733(9) 0.7966(13)
H17 H 0.168(2) 0.5769(10) 0.772(2)
H18 H 0.177(2) 0.6244(11) 0.888(2)
H19 H 0.167(2) 0.6660(11) 0.757(2)
H20 H 0.084(2) 1.0110(9) 1.1170(13)
H21 H 0.204(2) 0.9557(10) 1.1899(15)
H22 H 0.069(2) 0.8515(10) 1.1284(15)
H23 H -0.055(2) 0.9056(10) 1.060(2)
H24 H 0.489(3) 0.5757(12) 1.105(2)
H25 H 0.454(2) 0.6105(10) 1.222(2)
H26 H 0.339(2) 0.5575(13) 1.149(2)
loop_
_geom_bond_atom_site_label_1
_geom_bond_atom_site_label_2
_geom_bond_site_symmetry_1
_geom_bond_site_symmetry_2
N1 C1 1_555 1_555
C1 C5 1_555 1_555
C2 N2 1_555 1_555
N2 C3 1_555 1_555
C3 C4 1_555 1_555
C4 C5 1_555 1_555
C5 C2 1_555 1_555
C6 C5 1_555 1_555
C7 C6 1_555 1_555
C8 C7 1_555 1_555
C9 C8 1_555 1_555
C10 C9 1_555 1_555
C11 N1 1_555 1_555
C12 C2 1_555 1_555
C13 C12 1_555 1_555
C14 C1 1_555 1_555
C15 C14 1_555 1_555
O1 C15 1_555 1_555
C16 C13 1_555 1_555
C17 N2 1_555 1_555
C18 N1 1_555 1_555
O2 C18 1_555 1_555
C19 C18 1_555 1_555
C20 O3 1_555 1_555
O3 C16 1_555 1_555
C21 C20 1_555 1_555
O4 C16 1_555 1_555
C22 O5 1_555 1_555
O5 C15 1_555 1_555
H1 C1 1_555 1_555
H2 C2 1_555 1_555
H3 C3 1_555 1_555
H4 C3 1_555 1_555
H5 C4 1_555 1_555
H6 C4 1_555 1_555
H7 C7 1_555 1_555
H8 C8 1_555 1_555
H9 C9 1_555 1_555
H10 C10 1_555 1_555
H11 C12 1_555 1_555
H12 C12 1_555 1_555
H13 C13 1_555 1_555
H14 C14 1_555 1_555
H15 C17 1_555 1_555
H16 C17 1_555 1_555
H17 C19 1_555 1_555
H18 C19 1_555 1_555
H19 C19 1_555 1_555
H20 C20 1_555 1_555
H21 C20 1_555 1_555
H22 C21 1_555 1_555
H23 C21 1_555 1_555
H24 C22 1_555 1_555
H25 C22 1_555 1_555
H26 C22 1_555 1_555
C6 C11 1_555 1_555
C10 C11 1_555 1_555
C13 C14 1_555 1_555
C16 C17 1_555 1_555
C21 O4 1_555 1_555

#END
