
#######################################################################
#
#                 Cambridge Crystallographic Data Centre
#                                CCDC 
#
#######################################################################
#
# If this CIF has been generated from an entry in the Cambridge 
# Structural Database, then it will include bibliographic, chemical, 
# crystal, experimental, refinement or atomic coordinate data resulting 
# from the CCDC's data processing and validation procedures.
#
#######################################################################

data_KUGMOQ
_chemical_formula_moiety         'C45 H33 N3 O3,C3 H7 N1 O1'
_chemical_name_systematic        
'1,3,5-tris(4-(2-Hydroxyphenylmethyleneamino)phenyl)benzene dimethylformamide solvate'
_symmetry_cell_setting           triclinic
_symmetry_space_group_name_H-M   'P -1'
_symmetry_Int_Tables_number      2
_space_group_name_Hall           '-P 1'
loop_
_symmetry_equiv_pos_site_id
_symmetry_equiv_pos_as_xyz
1 x,y,z
2 -x,-y,-z
_cell_length_a                   10.7371(5)
_cell_length_b                   14.1521(6)
_cell_length_c                   25.6059(11)
_cell_angle_alpha                93.173(3)
_cell_angle_beta                 94.427(4)
_cell_angle_gamma                98.704(4)
_cell_volume                     3825.72
_cell_formula_units_Z            4
loop_
_atom_site_label
_atom_site_type_symbol
_atom_site_fract_x
_atom_site_fract_y
_atom_site_fract_z
C1 C 0.2781(3) 0.8531(3) 0.20948(14)
H1 H 0.2348(3) 0.8586(3) 0.17720(14)
N1 N 0.6464(3) 1.1338(2) 0.07291(12)
N2 N -0.2315(3) 0.5320(2) 0.17475(13)
N3 N 0.6511(3) 0.8108(3) 0.51014(13)
O1 O 0.8336(3) 1.1555(2) 0.01340(13)
H2 H 0.789(3) 1.130(2) 0.0348(18)
C2 C 0.4026(3) 0.8427(3) 0.30815(14)
C3 C 0.5789(3) 1.0815(3) 0.10984(14)
C4 C 0.6472(3) 1.0373(3) 0.14672(15)
H3 H 0.7345(3) 1.0424(3) 0.14635(15)
C5 C 0.2267(3) 0.7852(3) 0.24272(14)
C6 C 0.4669(3) 0.8366(3) 0.36105(14)
C7 C 0.4532(3) 0.9082(3) 0.27353(14)
H4 H 0.5281(3) 0.9494(3) 0.28388(14)
O2 O -0.4237(3) 0.4862(3) 0.10556(12)
H5 H -0.394(6) 0.4600(7) 0.0810(14)
C8 C -0.0395(4) 0.6310(3) 0.15716(15)
H6 H -0.0630(4) 0.6166(3) 0.12155(15)
C9 C 0.5872(4) 0.8232(3) 0.46129(15)
C10 C 0.1090(3) 0.7172(3) 0.22594(14)
C11 C 0.4551(3) 0.9740(3) 0.18501(14)
C12 C -0.1164(3) 0.5916(3) 0.19359(15)
C13 C 0.3929(3) 0.9127(3) 0.22365(14)
C14 C 0.2912(3) 0.7803(3) 0.29149(15)
H7 H 0.2593(3) 0.7343(3) 0.31360(15)
C15 C -0.0803(4) 0.6149(3) 0.24684(16)
H8 H -0.1308(4) 0.5887(3) 0.27198(16)
C16 C 0.5862(3) 0.9857(3) 0.18398(14)
H9 H 0.6338(3) 0.9580(3) 0.20907(14)
C17 C 0.5292(3) 0.9174(3) 0.39080(15)
H10 H 0.5323(3) 0.9770(3) 0.37692(15)
C18 C 0.0723(4) 0.6917(3) 0.17294(15)
H11 H 0.1240(4) 0.7161(3) 0.14773(15)
C19 C 0.0308(4) 0.6769(3) 0.26225(15)
H12 H 0.0535(4) 0.6920(3) 0.29786(15)
C20 C 0.5867(3) 0.9116(3) 0.44060(15)
H13 H 0.6251(3) 0.9671(3) 0.46018(15)
C21 C -0.2842(4) 0.4701(3) 0.20339(17)
H14 H -0.2456(4) 0.4634(3) 0.23645(17)
C22 C 0.6106(4) 1.2086(3) 0.05455(16)
H15 H 0.5372(4) 1.2283(3) 0.06523(16)
C23 C 0.7918(4) 1.2364(3) -0.00061(15)
C24 C 0.7148(4) 0.8504(3) 0.60093(16)
C25 C 0.8609(4) 1.2947(3) -0.03355(17)
H16 H 0.9336(4) 1.2767(3) -0.04593(17)
C26 C 0.7061(4) 0.9085(4) 0.64548(17)
H17 H 0.6636(4) 0.9608(4) 0.64258(17)
C27 C -0.4689(4) 0.4201(3) 0.13792(18)
C28 C 0.6822(4) 1.2635(3) 0.01737(15)
C29 C 0.3870(4) 1.0174(3) 0.14699(17)
H18 H 0.2994(4) 1.0103(3) 0.14649(17)
C30 C 0.4475(4) 1.0705(3) 0.11021(17)
H19 H 0.4005(4) 1.0993(3) 0.08543(17)
C31 C 0.6511(4) 0.8667(3) 0.55078(16)
H20 H 0.6093(4) 0.9194(3) 0.54835(16)
C32 C 0.4698(4) 0.7480(3) 0.38270(16)
H21 H 0.4298(4) 0.6923(3) 0.36371(16)
C33 C 0.5306(5) 0.7416(3) 0.43146(16)
H22 H 0.5334(5) 0.6818(3) 0.44439(16)
C34 C -0.5845(4) 0.3611(4) 0.1225(2)
H23 H -0.6285(4) 0.3676(4) 0.0905(2)
C35 C 0.8232(5) 1.3781(4) -0.04793(18)
H24 H 0.8719(5) 1.4170(4) -0.06928(18)
O3 O 0.7970(5) 0.7146(3) 0.56360(15)
H25 H 0.832(7) 0.670(3) 0.5734(4)
C36 C -0.4034(4) 0.4095(3) 0.18586(18)
C37 C 0.6442(5) 1.3489(3) 0.00170(18)
H26 H 0.5713(5) 1.3673(3) 0.01368(18)
C38 C 0.7590(4) 0.8904(4) 0.69404(18)
H27 H 0.7527(4) 0.9303(4) 0.72350(18)
C39 C -0.4556(5) 0.3405(4) 0.2185(2)
H28 H -0.4136(5) 0.3334(4) 0.2509(2)
C40 C 0.7130(6) 1.4059(4) -0.03110(19)
H29 H 0.6865(6) 1.4619(4) -0.04183(19)
C41 C -0.6318(5) 0.2936(4) 0.1553(3)
H30 H -0.7081(5) 0.2540(4) 0.1451(3)
C42 C 0.8215(5) 0.8124(4) 0.69840(18)
H31 H 0.8545(5) 0.7986(4) 0.73126(18)
C43 C 0.7824(5) 0.7729(4) 0.60566(18)
C44 C 0.8356(6) 0.7552(4) 0.6551(2)
H32 H 0.8808(6) 0.7044(4) 0.6586(2)
C45 C -0.5694(6) 0.2833(4) 0.2026(3)
H33 H -0.6038(6) 0.2374(4) 0.2242(3)
C46 C 0.8961(3) 0.8878(3) 0.22313(14)
C47 C 0.7859(3) 0.8208(3) 0.21299(15)
H34 H 0.7517(3) 0.8058(3) 0.17851(15)
C48 C 0.7262(3) 0.7761(3) 0.25340(15)
N4 N 1.1650(3) 0.8643(3) 0.51677(13)
C49 C 0.9533(3) 0.9407(3) 0.18016(14)
C50 C 0.9512(3) 0.9044(3) 0.27444(14)
H35 H 1.0261(3) 0.9473(3) 0.28144(14)
C51 C 0.8964(3) 0.8584(3) 0.31531(14)
C52 C 0.9630(3) 0.8688(3) 0.36863(14)
C53 C 0.7817(3) 0.7962(3) 0.30444(15)
H36 H 0.7418(3) 0.7679(3) 0.33191(15)
C54 C 0.9579(4) 0.8965(3) 0.13048(15)
H37 H 0.9238(4) 0.8322(3) 0.12368(15)
C55 C 1.0014(3) 1.0374(3) 0.18864(15)
H38 H 0.9987(3) 1.0684(3) 0.22143(15)
C56 C 1.1587(4) 0.9015(3) 0.65759(16)
H39 H 1.0838(4) 0.9269(3) 0.65809(16)
C57 C 1.1991(4) 0.8737(3) 0.61008(15)
C58 C 1.1259(4) 0.8857(3) 0.56129(15)
H40 H 1.0497(4) 0.9091(3) 0.56246(15)
C59 C 1.3142(4) 0.8354(3) 0.61008(16)
C60 C 1.0124(4) 0.9470(4) 0.09118(16)
H41 H 1.0168(4) 0.9159(4) 0.05857(16)
C61 C 0.6080(4) 0.7063(3) 0.24176(17)
O4 O 1.3605(3) 0.8091(4) 0.56534(13)
H42 H 1.305(2) 0.804(5) 0.5411(5)
C62 C 1.1587(4) 0.8794(4) 0.42420(16)
H43 H 1.2464(4) 0.8850(4) 0.42727(16)
C63 C 1.3811(4) 0.8251(3) 0.65742(17)
H44 H 1.4550(4) 0.7982(3) 0.65763(17)
C64 C 1.3390(4) 0.8546(3) 0.70406(16)
H45 H 1.3857(4) 0.8492(3) 0.73558(16)
C65 C 1.0537(4) 1.0886(3) 0.14875(16)
H46 H 1.0842(4) 1.1537(3) 0.15498(16)
C66 C 1.0930(4) 0.8709(3) 0.46878(15)
C67 C 1.0610(4) 1.0441(4) 0.10003(16)
C68 C 0.5749(4) 0.6327(3) 0.2740(2)
H47 H 0.6284(4) 0.6259(3) 0.3034(2)
C69 C 0.9617(4) 0.8639(4) 0.46305(16)
H48 H 0.9165(4) 0.8605(4) 0.49260(16)
C70 C 1.0945(4) 0.8795(3) 0.37532(15)
H49 H 1.1404(4) 0.8869(3) 0.34606(15)
C71 C 0.8985(4) 0.8618(3) 0.41399(15)
H50 H 0.8107(4) 0.8557(3) 0.41098(15)
C72 C 1.2272(4) 0.8924(3) 0.70435(16)
H51 H 1.1985(4) 0.9116(3) 0.73600(16)
O5 O 1.2739(5) 1.0626(4) -0.01882(18)
N5 N 1.1195(4) 1.0934(6) 0.06073(19)
C73 C 0.5264(4) 0.7128(3) 0.19765(19)
H52 H 0.5464(4) 0.7612(3) 0.17515(19)
C74 C 0.4636(5) 0.5694(3) 0.2631(3)
H53 H 0.4421(5) 0.5213(3) 0.2855(3)
C75 C 0.4162(4) 0.6483(3) 0.1869(3)
H54 H 0.3631(4) 0.6538(3) 0.1571(3)
C76 C 1.2080(8) 1.2987(8) 0.0004(3)
C77 C -0.1343(5) 0.2832(3) 0.1784(3)
H55 H -0.2089(5) 0.2399(3) 0.1722(3)
C78 C 1.3525(6) 1.2910(4) -0.06660(19)
H56 H 1.3991(6) 1.3253(4) -0.09045(19)
C79 C 0.0869(5) 0.4121(4) 0.1976(4)
C80 C 0.0225(6) 0.3775(4) 0.2384(3)
C81 C 0.3839(4) 0.5769(3) 0.2190(3)
C82 C 0.1988(9) 0.4800(6) 0.2256(4)
N6 N 0.2723(7) 0.5153(5) 0.1920(3)
C83 C 1.1291(6) 1.1651(5) 0.0487(2)
C84 C -0.0715(6) 0.3181(4) 0.1367(3)
H57 H -0.1032(6) 0.2989(4) 0.1023(3)
C85 C 1.2792(6) 1.3370(6) -0.03622(19)
H58 H 1.2783(6) 1.4015(6) -0.04127(19)
C86 C 1.3600(8) 1.1946(5) -0.0632(2)
H59 H 1.4087(8) 1.1603(5) -0.0833(2)
O6 O 0.1193(6) 0.4181(5) 0.1178(2)
C87 C 1.2069(6) 1.2161(7) 0.0062(3)
C88 C 1.2725(8) 1.1506(5) -0.0195(3)
C89 C 0.0400(6) 0.3827(4) 0.1471(4)
C90 C -0.0870(6) 0.3120(4) 0.2286(3)
H60 H -0.1290(6) 0.2874(4) 0.2565(3)
O7 O 0.5865(14) 0.5027(10) 0.3868(5)
C91 C 0.8422(13) 0.5965(10) 0.4027(5)
N7 N 0.7920(19) 0.4868(13) 0.3823(6)
C92 C 0.879(2) 0.4246(15) 0.3753(7)
C93 C 0.667(2) 0.4527(16) 0.3756(8)
H61 H 0.641(2) 0.3899(16) 0.3622(8)
N8 N 0.2659(12) 0.5516(9) 0.4369(5)
C94 C 0.2848(15) 0.5026(11) 0.3902(6)
O8 O 0.1919(12) 0.5442(9) 0.3590(5)
C95 C 0.357(2) 0.5105(15) 0.4798(8)
C96 C 0.179(3) 0.630(2) 0.4477(10)
N9? N 0.2683(9) 0.5082(6) 0.2292(4)
C97? C 0.2089(11) 0.4811(7) 0.1850(4)
O9? O 0.0897(7) 0.4118(5) 0.2767(2)
C98? C 1.1784(10) 1.0888(6) 0.0354(4)
H62? H 0.6918(3) 0.7632(3) 0.51252(13)
H63? H 0.7133(3) 1.1150(2) 0.06245(12)
O10? O 1.1482(8) 1.2886(6) 0.0284(3)
loop_
_geom_bond_atom_site_label_1
_geom_bond_atom_site_label_2
_geom_bond_site_symmetry_1
_geom_bond_site_symmetry_2
C1 H1 1_555 1_555
N1 C3 1_555 1_555
N2 C12 1_555 1_555
N3 C9 1_555 1_555
O1 H2 1_555 1_555
C2 C6 1_555 1_555
C3 C4 1_555 1_555
C4 H3 1_555 1_555
C5 C1 1_555 1_555
C6 C17 1_555 1_555
C7 C2 1_555 1_555
H4 C7 1_555 1_555
O2 H5 1_555 1_555
C8 H6 1_555 1_555
C9 C20 1_555 1_555
C10 C5 1_555 1_555
C11 C13 1_555 1_555
C12 C8 1_555 1_555
C13 C1 1_555 1_555
C14 C2 1_555 1_555
H7 C14 1_555 1_555
C15 C12 1_555 1_555
H8 C15 1_555 1_555
C16 C4 1_555 1_555
H9 C16 1_555 1_555
C17 H10 1_555 1_555
C18 C8 1_555 1_555
H11 C18 1_555 1_555
C19 C10 1_555 1_555
H12 C19 1_555 1_555
C20 C17 1_555 1_555
H13 C20 1_555 1_555
C21 N2 1_555 1_555
H14 C21 1_555 1_555
C22 N1 1_555 1_555
H15 C22 1_555 1_555
C23 O1 1_555 1_555
C24 C26 1_555 1_555
C25 C23 1_555 1_555
H16 C25 1_555 1_555
C26 H17 1_555 1_555
C27 O2 1_555 1_555
C28 C22 1_555 1_555
C29 C11 1_555 1_555
H18 C29 1_555 1_555
C30 C3 1_555 1_555
H19 C30 1_555 1_555
C31 N3 1_555 1_555
H20 C31 1_555 1_555
C32 C6 1_555 1_555
H21 C32 1_555 1_555
C33 C9 1_555 1_555
H22 C33 1_555 1_555
C34 C27 1_555 1_555
H23 C34 1_555 1_555
C35 C25 1_555 1_555
H24 C35 1_555 1_555
O3 H25 1_555 1_555
C36 C21 1_555 1_555
C37 C28 1_555 1_555
H26 C37 1_555 1_555
C38 C26 1_555 1_555
H27 C38 1_555 1_555
C39 C36 1_555 1_555
H28 C39 1_555 1_555
C40 C35 1_555 1_555
H29 C40 1_555 1_555
C41 C34 1_555 1_555
H30 C41 1_555 1_555
C42 C38 1_555 1_555
H31 C42 1_555 1_555
C43 C24 1_555 1_555
C44 C42 1_555 1_555
H32 C44 1_555 1_555
C45 C39 1_555 1_555
H33 C45 1_555 1_555
C46 C47 1_555 1_555
C47 H34 1_555 1_555
C48 C47 1_555 1_555
N4 C58 1_555 1_555
C49 C46 1_555 1_555
C50 C46 1_555 1_555
H35 C50 1_555 1_555
C51 C50 1_555 1_555
C52 C51 1_555 1_555
C53 C48 1_555 1_555
H36 C53 1_555 1_555
C54 C49 1_555 1_555
H37 C54 1_555 1_555
C55 C49 1_555 1_555
H38 C55 1_555 1_555
C56 H39 1_555 1_555
C57 C56 1_555 1_555
C58 C57 1_555 1_555
H40 C58 1_555 1_555
C59 C57 1_555 1_555
C60 C54 1_555 1_555
H41 C60 1_555 1_555
C61 C48 1_555 1_555
O4 C59 1_555 1_555
H42 O4 1_555 1_555
C62 H43 1_555 1_555
C63 C59 1_555 1_555
H44 C63 1_555 1_555
C64 C63 1_555 1_555
H45 C64 1_555 1_555
C65 C55 1_555 1_555
H46 C65 1_555 1_555
C66 N4 1_555 1_555
C67 C60 1_555 1_555
C68 C61 1_555 1_555
H47 C68 1_555 1_555
C69 C66 1_555 1_555
H48 C69 1_555 1_555
C70 C52 1_555 1_555
H49 C70 1_555 1_555
C71 C52 1_555 1_555
H50 C71 1_555 1_555
C72 C56 1_555 1_555
H51 C72 1_555 1_555
O5 C88 1_555 1_555
N5 C67 1_555 1_555
C73 C61 1_555 1_555
H52 C73 1_555 1_555
C74 C68 1_555 1_555
H53 C74 1_555 1_555
C75 C73 1_555 1_555
H54 C75 1_555 1_555
C76 C85 1_555 1_555
C77 H55 1_555 1_555
C78 H56 1_555 1_555
C79 C80 1_555 1_555
C80 C90 1_555 1_555
C81 C74 1_555 1_555
C82 C79 1_555 1_555
N6 C81 1_555 1_555
C83 N5 1_555 1_555
C84 C77 1_555 1_555
H57 C84 1_555 1_555
C85 C78 1_555 1_555
H58 C85 1_555 1_555
C86 C78 1_555 1_555
H59 C86 1_555 1_555
O6 C89 1_555 1_555
C87 C76 1_555 1_555
C88 C86 1_555 1_555
C89 C79 1_555 1_555
C90 C77 1_555 1_555
H60 C90 1_555 1_555
O7 C93 1_555 1_555
C91 N7 1_555 1_555
N7 C92 1_555 1_555
C93 N7 1_555 1_555
H61 C93 1_555 1_555
N8 C94 1_555 1_555
C94 O8 1_555 1_555
C95 N8 1_555 1_555
C96 N8 1_555 1_555
C5 C14 1_555 1_555
C7 C13 1_555 1_555
C10 C18 1_555 1_555
C11 C16 1_555 1_555
C15 C19 1_555 1_555
C23 C28 1_555 1_555
C24 C31 1_555 1_555
C27 C36 1_555 1_555
C29 C30 1_555 1_555
C32 C33 1_555 1_555
O3 C43 1_555 1_555
C37 C40 1_555 1_555
C41 C45 1_555 1_555
C43 C44 1_555 1_555
C51 C53 1_555 1_555
C62 C66 1_555 1_555
C62 C70 1_555 1_555
C64 C72 1_555 1_555
C65 C67 1_555 1_555
C69 C71 1_555 1_555
C75 C81 1_555 1_555
C82 N6 1_555 1_555
C83 C87 1_555 1_555
C84 C89 1_555 1_555
C87 C88 1_555 1_555

#END
