
#######################################################################
#
#                 Cambridge Crystallographic Data Centre
#                                CCDC 
#
#######################################################################
#
# If this CIF has been generated from an entry in the Cambridge 
# Structural Database, then it will include bibliographic, chemical, 
# crystal, experimental, refinement or atomic coordinate data resulting 
# from the CCDC's data processing and validation procedures.
#
#######################################################################

data_KUGREL
_chemical_formula_moiety         'C38 H26 Br2'
_chemical_name_systematic        
2,2'-(1,2-diphenylethene-1,2-diyl)bis(4'-bromobiphenyl)
_symmetry_cell_setting           triclinic
_symmetry_space_group_name_H-M   'P -1'
_symmetry_Int_Tables_number      2
_space_group_name_Hall           '-P 1'
loop_
_symmetry_equiv_pos_site_id
_symmetry_equiv_pos_as_xyz
1 x,y,z
2 -x,-y,-z
_cell_length_a                   9.2827(14)
_cell_length_b                   18.353(2)
_cell_length_c                   18.969(2)
_cell_angle_alpha                65.980(3)
_cell_angle_beta                 89.861(3)
_cell_angle_gamma                83.270(2)
_cell_volume                     2927.82
_cell_formula_units_Z            4
loop_
_atom_site_label
_atom_site_type_symbol
_atom_site_fract_x
_atom_site_fract_y
_atom_site_fract_z
Br1 Br 0.23381(5) 0.64293(2) 0.20432(3)
Br2 Br 1.27507(6) 0.83663(3) 0.52757(3)
C1 C 0.3562(4) 0.65314(19) 0.2778(2)
C2 C 0.4356(5) 0.5873(2) 0.3338(2)
H1 H 0.4300 0.5367 0.3345
C3 C 0.5230(5) 0.5935(2) 0.3887(2)
H2 H 0.5756 0.5477 0.4258
C4 C 0.5331(4) 0.66892(19) 0.3888(2)
C5 C 0.4514(4) 0.7365(2) 0.3318(2)
H3 H 0.4547 0.7871 0.3314
C6 C 0.3655(4) 0.7286(2) 0.2756(2)
H4 H 0.3147 0.7740 0.2370
C7 C 0.6253(4) 0.67759(18) 0.4482(2)
C8 C 0.6148(5) 0.6234(2) 0.5246(2)
H5 H 0.5552 0.5832 0.5357
C9 C 0.6929(5) 0.6291(2) 0.5844(2)
H6 H 0.6858 0.5923 0.6350
C10 C 0.7812(5) 0.6892(2) 0.5688(2)
H7 H 0.8337 0.6933 0.6085
C11 C 0.7894(4) 0.7429(2) 0.4931(2)
H8 H 0.8457 0.7845 0.4824
C12 C 0.7161(4) 0.73690(17) 0.43212(19)
C13 C 0.7339(4) 0.79671(16) 0.35219(19)
C14 C 0.7893(4) 0.77517(17) 0.29723(19)
C15 C 0.8590(4) 0.68998(18) 0.3175(2)
C16 C 0.7987(5) 0.6462(2) 0.2834(2)
H9 H 0.7193 0.6701 0.2484
C17 C 0.8557(6) 0.5662(2) 0.3007(3)
H10 H 0.8132 0.5367 0.2783
C18 C 0.9737(6) 0.5324(2) 0.3505(3)
H11 H 1.0118 0.4794 0.3624
C19 C 1.0369(5) 0.5750(2) 0.3833(2)
H12 H 1.1177 0.5504 0.4171
C20 C 0.9832(4) 0.65574(19) 0.3675(2)
C21 C 1.0612(4) 0.6983(2) 0.4034(2)
C22 C 1.0804(4) 0.7789(2) 0.3643(2)
H13 H 1.0489 0.8060 0.3126
C23 C 1.1445(5) 0.8194(3) 0.4000(3)
H14 H 1.1558 0.8734 0.3730
C24 C 1.1925(5) 0.7783(2) 0.4775(3)
C25 C 1.1782(6) 0.6995(3) 0.5160(3)
H15 H 1.2124 0.6723 0.5673
C26 C 1.1128(5) 0.6589(2) 0.4797(2)
H16 H 1.1035 0.6047 0.5068
C27 C 0.6934(4) 0.88337(18) 0.34043(19)
C28 C 0.7812(5) 0.94068(18) 0.3005(2)
H17 H 0.8621 0.9278 0.2769
C29 C 0.7461(5) 1.0191(2) 0.2961(2)
H18 H 0.8062 1.0578 0.2701
C30 C 0.6271(5) 1.0401(2) 0.3287(2)
H19 H 0.6049 1.0925 0.3245
C31 C 0.5402(5) 0.9823(2) 0.3679(2)
H20 H 0.4580 0.9959 0.3903
C32 C 0.5732(4) 0.90420(19) 0.3745(2)
H21 H 0.5141 0.8655 0.4021
C33 C 0.7788(4) 0.82758(18) 0.21277(19)
C34 C 0.6546(5) 0.8800(2) 0.1780(2)
H22 H 0.5775 0.8844 0.2081
C35 C 0.6439(5) 0.9259(2) 0.0993(2)
H23 H 0.5602 0.9615 0.0771
C36 C 0.7546(6) 0.9200(2) 0.0532(2)
H24 H 0.7460 0.9504 0.0001
C37 C 0.8773(5) 0.8688(2) 0.0866(2)
H25 H 0.9536 0.8652 0.0559
C38 C 0.8912(4) 0.82187(19) 0.1657(2)
H26 H 0.9754 0.7866 0.1872
Br3 Br 1.39205(6) 0.60737(3) 0.71359(3)
Br4 Br 0.29575(6) 0.84952(3) 1.02713(3)
C39 C 1.2734(5) 0.6241(3) 0.7868(3)
C40 C 1.2442(5) 0.7029(3) 0.7815(3)
H27 H 1.2823 0.7448 0.7424
C41 C 1.1580(5) 0.7177(2) 0.8350(2)
H28 H 1.1398 0.7700 0.8314
C42 C 1.0975(4) 0.6569(2) 0.8941(2)
C43 C 1.1339(5) 0.5776(2) 0.8984(3)
H29 H 1.0971 0.5347 0.9369
C44 C 1.2222(5) 0.5643(3) 0.8465(3)
H30 H 1.2485 0.5116 0.8524
C45 C 1.0053(4) 0.67143(19) 0.9516(2)
C46 C 1.0310(5) 0.6187(2) 1.0292(2)
H31 H 1.1033 0.5752 1.0419
C47 C 0.9549(5) 0.6280(2) 1.0871(2)
H32 H 0.9757 0.5919 1.1382
C48 C 0.8469(5) 0.6919(2) 1.0686(2)
H33 H 0.7927 0.6990 1.1072
C49 C 0.8196(5) 0.7453(2) 0.9924(2)
H34 H 0.7497 0.7897 0.9807
C50 C 0.8933(4) 0.73477(18) 0.93225(19)
C51 C 0.8519(4) 0.79580(17) 0.85178(19)
C52 C 0.8035(4) 0.77308(17) 0.79753(19)
C53 C 0.7618(4) 0.69030(18) 0.8187(2)
C54 C 0.8365(4) 0.64390(19) 0.7842(2)
H35 H 0.9092 0.6640 0.7505
C55 C 0.8007(5) 0.5667(2) 0.8010(3)
H36 H 0.8510 0.5354 0.7785
C56 C 0.6942(6) 0.5367(2) 0.8493(3)
H37 H 0.6716 0.4854 0.8596
C57 C 0.6204(5) 0.5817(2) 0.8826(2)
H38 H 0.5480 0.5605 0.9161
C58 C 0.6515(4) 0.66102(18) 0.8673(2)
C59 C 0.5615(4) 0.7051(2) 0.9047(2)
C60 C 0.5037(4) 0.7861(2) 0.8639(2)
H39 H 0.5194 0.8117 0.8115
C61 C 0.4244(5) 0.8284(2) 0.8996(2)
H40 H 0.3887 0.8822 0.8715
C62 C 0.3980(5) 0.7913(2) 0.9767(2)
C63 C 0.4485(5) 0.7096(2) 1.0182(2)
H41 H 0.4275 0.6830 1.0697
C64 C 0.5296(5) 0.6693(2) 0.9813(2)
H42 H 0.5646 0.6154 1.0094
C65 C 0.8603(4) 0.88048(18) 0.83968(19)
C66 C 0.7485(4) 0.94008(18) 0.7996(2)
H43 H 0.6709 0.9283 0.7769
C67 C 0.7533(5) 1.0189(2) 0.7937(2)
H44 H 0.6781 1.0591 0.7670
C68 C 0.8663(5) 1.0367(2) 0.8264(2)
H45 H 0.8680 1.0891 0.8216
C69 C 0.9784(5) 0.9780(2) 0.8665(2)
H46 H 1.0557 0.9904 0.8889
C70 C 0.9740(4) 0.89954(18) 0.8732(2)
H47 H 1.0489 0.8595 0.9006
C71 C 0.7931(4) 0.82541(19) 0.7127(2)
C72 C 0.6841(4) 0.8218(2) 0.6648(2)
H48 H 0.6138 0.7879 0.6857
C73 C 0.6790(5) 0.8679(2) 0.5868(2)
H49 H 0.6040 0.8654 0.5558
C74 C 0.7808(6) 0.9171(3) 0.5537(2)
H50 H 0.7755 0.9485 0.5008
C75 C 0.8916(6) 0.9197(2) 0.6001(3)
H51 H 0.9642 0.9516 0.5780
C76 C 0.8970(5) 0.8755(2) 0.6790(2)
H52 H 0.9710 0.8795 0.7098
loop_
_geom_bond_atom_site_label_1
_geom_bond_atom_site_label_2
_geom_bond_site_symmetry_1
_geom_bond_site_symmetry_2
Br1 C1 1_555 1_555
Br2 C24 1_555 1_555
C1 C2 1_555 1_555
C2 H1 1_555 1_555
C3 C2 1_555 1_555
H2 C3 1_555 1_555
C4 C3 1_555 1_555
C5 C4 1_555 1_555
H3 C5 1_555 1_555
C6 C1 1_555 1_555
H4 C6 1_555 1_555
C7 C4 1_555 1_555
C8 C7 1_555 1_555
H5 C8 1_555 1_555
C9 C8 1_555 1_555
H6 C9 1_555 1_555
C10 C9 1_555 1_555
H7 C10 1_555 1_555
C11 C10 1_555 1_555
H8 C11 1_555 1_555
C12 C7 1_555 1_555
C13 C12 1_555 1_555
C14 C13 1_555 1_555
C15 C14 1_555 1_555
C16 C15 1_555 1_555
H9 C16 1_555 1_555
C17 C16 1_555 1_555
H10 C17 1_555 1_555
C18 C17 1_555 1_555
H11 C18 1_555 1_555
C19 C18 1_555 1_555
H12 C19 1_555 1_555
C20 C15 1_555 1_555
C21 C20 1_555 1_555
C22 C21 1_555 1_555
H13 C22 1_555 1_555
C23 C22 1_555 1_555
H14 C23 1_555 1_555
C24 C23 1_555 1_555
C25 C24 1_555 1_555
H15 C25 1_555 1_555
C26 C21 1_555 1_555
H16 C26 1_555 1_555
C27 C13 1_555 1_555
C28 C27 1_555 1_555
H17 C28 1_555 1_555
C29 C28 1_555 1_555
H18 C29 1_555 1_555
C30 C29 1_555 1_555
H19 C30 1_555 1_555
C31 C30 1_555 1_555
H20 C31 1_555 1_555
C32 C27 1_555 1_555
H21 C32 1_555 1_555
C33 C14 1_555 1_555
C34 C33 1_555 1_555
H22 C34 1_555 1_555
C35 C34 1_555 1_555
H23 C35 1_555 1_555
C36 C35 1_555 1_555
H24 C36 1_555 1_555
C37 C36 1_555 1_555
H25 C37 1_555 1_555
C38 C33 1_555 1_555
H26 C38 1_555 1_555
Br3 C39 1_555 1_555
Br4 C62 1_555 1_555
C39 C40 1_555 1_555
C40 H27 1_555 1_555
C41 C40 1_555 1_555
H28 C41 1_555 1_555
C42 C41 1_555 1_555
C43 C42 1_555 1_555
H29 C43 1_555 1_555
C44 C39 1_555 1_555
H30 C44 1_555 1_555
C45 C42 1_555 1_555
C46 C45 1_555 1_555
H31 C46 1_555 1_555
C47 C46 1_555 1_555
H32 C47 1_555 1_555
C48 C47 1_555 1_555
H33 C48 1_555 1_555
C49 C48 1_555 1_555
H34 C49 1_555 1_555
C50 C45 1_555 1_555
C51 C50 1_555 1_555
C52 C51 1_555 1_555
C53 C52 1_555 1_555
C54 C53 1_555 1_555
H35 C54 1_555 1_555
C55 C54 1_555 1_555
H36 C55 1_555 1_555
C56 C55 1_555 1_555
H37 C56 1_555 1_555
C57 C56 1_555 1_555
H38 C57 1_555 1_555
C58 C53 1_555 1_555
C59 C58 1_555 1_555
C60 C59 1_555 1_555
H39 C60 1_555 1_555
C61 C60 1_555 1_555
H40 C61 1_555 1_555
C62 C61 1_555 1_555
C63 C62 1_555 1_555
H41 C63 1_555 1_555
C64 C59 1_555 1_555
H42 C64 1_555 1_555
C65 C51 1_555 1_555
C66 C65 1_555 1_555
H43 C66 1_555 1_555
C67 C66 1_555 1_555
H44 C67 1_555 1_555
C68 C67 1_555 1_555
H45 C68 1_555 1_555
C69 C68 1_555 1_555
H46 C69 1_555 1_555
C70 C65 1_555 1_555
H47 C70 1_555 1_555
C71 C52 1_555 1_555
C72 C71 1_555 1_555
H48 C72 1_555 1_555
C73 C72 1_555 1_555
H49 C73 1_555 1_555
C74 C73 1_555 1_555
H50 C74 1_555 1_555
C75 C74 1_555 1_555
H51 C75 1_555 1_555
C76 C71 1_555 1_555
H52 C76 1_555 1_555
C5 C6 1_555 1_555
C11 C12 1_555 1_555
C19 C20 1_555 1_555
C25 C26 1_555 1_555
C31 C32 1_555 1_555
C37 C38 1_555 1_555
C43 C44 1_555 1_555
C49 C50 1_555 1_555
C57 C58 1_555 1_555
C63 C64 1_555 1_555
C69 C70 1_555 1_555
C75 C76 1_555 1_555

#END
