
#######################################################################
#
#                 Cambridge Crystallographic Data Centre
#                                CCDC 
#
#######################################################################
#
# If this CIF has been generated from an entry in the Cambridge 
# Structural Database, then it will include bibliographic, chemical, 
# crystal, experimental, refinement or atomic coordinate data resulting 
# from the CCDC's data processing and validation procedures.
#
#######################################################################

data_KUGRIP
_chemical_formula_moiety         'C42 H32'
_chemical_name_systematic        
2,2'-(1,2-diphenylethene-1,2-diyl)bis(4'-vinylbiphenyl)
_symmetry_cell_setting           monoclinic
_symmetry_space_group_name_H-M   'P 21/c'
_symmetry_Int_Tables_number      14
_space_group_name_Hall           '-P 2ybc'
loop_
_symmetry_equiv_pos_site_id
_symmetry_equiv_pos_as_xyz
1 x,y,z
2 -x,1/2+y,1/2-z
3 -x,-y,-z
4 x,1/2-y,1/2+z
_cell_length_a                   9.4812(12)
_cell_length_b                   9.1203(11)
_cell_length_c                   34.1430(13)
_cell_angle_alpha                90
_cell_angle_beta                 91.147(2)
_cell_angle_gamma                90
_cell_volume                     2951.8
_cell_formula_units_Z            4
loop_
_atom_site_label
_atom_site_type_symbol
_atom_site_fract_x
_atom_site_fract_y
_atom_site_fract_z
C1 C 0.0211(3) 1.2613(4) 0.15142(10)
H1 H 0.0126 1.2737 0.1244
H2 H -0.0405 1.3094 0.1679
C2 C 0.1226(3) 1.1738(3) 0.16656(10)
H3 H 0.1291 1.1631 0.1936
C3 C 0.22622(16) 1.09233(18) 0.14178(6)
C4 C 0.20772(15) 1.0552(2) 0.10252(6)
H4 H 0.1266 1.0844 0.0889
C5 C 0.31046(18) 0.9744(2) 0.08365(4)
H5 H 0.2981 0.9496 0.0574
C6 C 0.43171(15) 0.93079(16) 0.10403(4)
C7 C 0.45022(14) 0.96791(16) 0.14328(4)
H6 H 0.5313 0.9387 0.1569
C8 C 0.34747(19) 1.04868(17) 0.16215(4)
H7 H 0.3599 1.0735 0.1884
C9 C 0.5414(2) 0.8437(2) 0.08276(6)
C10 C 0.5770(3) 0.8869(3) 0.04524(6)
H8 H 0.5293 0.9658 0.0339
C11 C 0.6787(3) 0.8188(3) 0.02430(7)
H9 H 0.6991 0.8510 -0.0008
C12 C 0.7507(3) 0.7025(3) 0.04039(7)
H10 H 0.8208 0.6553 0.0265
C13 C 0.7174(2) 0.6567(2) 0.07759(6)
H11 H 0.7665 0.5781 0.0886
C14 C 0.6126(2) 0.7243(2) 0.09918(5)
C15 C 0.5876(2) 0.6701(2) 0.13942(5)
C16 C 0.4610(2) 0.6170(2) 0.15025(5)
C17 C 0.3441(2) 0.5867(2) 0.12224(6)
C18 C 0.2183(2) 0.6593(3) 0.12725(7)
H12 H 0.2117 0.7273 0.1474
C19 C 0.1023(3) 0.6343(3) 0.10346(8)
H13 H 0.0194 0.6867 0.1071
C20 C 0.1100(3) 0.5327(3) 0.07467(8)
H14 H 0.0317 0.5138 0.0586
C21 C 0.2331(2) 0.4581(3) 0.06921(7)
H15 H 0.2368 0.3890 0.0492
C22 C 0.3519(2) 0.4817(2) 0.09229(6)
C23 C 0.4808(2) 0.3977(2) 0.08338(6)
C24 C 0.5192(3) 0.3854(3) 0.04465(7)
H16 H 0.4634 0.4296 0.0253
C25 C 0.6387(3) 0.3091(3) 0.03390(8)
H17 H 0.6637 0.3053 0.0077
C26 C 0.7199(3) 0.2394(3) 0.06160(9)
C27 C 0.6780(3) 0.2457(3) 0.10032(8)
H18 H 0.7306 0.1964 0.1195
C28 C 0.5593(2) 0.3238(2) 0.11104(7)
H19 H 0.5330 0.3259 0.1371
C29 C 0.8477(3) 0.1601(3) 0.05223(10)
H20 H 0.8808 0.0911 0.0702
C30 C 0.9227(3) 0.1794(3) 0.01903(9)
H21 H 0.8928 0.2474 0.0004
H22 H 1.0038 0.1245 0.0150
C31 C 0.4209(2) 0.5957(2) 0.19185(6)
C32 C 0.3415(2) 0.4772(2) 0.20260(6)
H23 H 0.3198 0.4054 0.1841
C33 C 0.2929(3) 0.4619(3) 0.24030(7)
H24 H 0.2405 0.3798 0.2470
C34 C 0.3220(3) 0.5672(3) 0.26764(7)
H25 H 0.2880 0.5583 0.2929
C35 C 0.4018(3) 0.6862(3) 0.25756(7)
H26 H 0.4231 0.7579 0.2761
C36 C 0.4505(3) 0.6999(2) 0.21988(6)
H27 H 0.5045 0.7812 0.2134
C37 C 0.7142(2) 0.6775(2) 0.16559(6)
C38 C 0.7489(3) 0.5652(3) 0.19121(7)
H28 H 0.6888 0.4853 0.1934
C39 C 0.8701(3) 0.5701(3) 0.21326(8)
H29 H 0.8923 0.4928 0.2301
C40 C 0.9588(3) 0.6865(3) 0.21103(8)
H30 H 1.0404 0.6892 0.2266
C41 C 0.9290(2) 0.7986(3) 0.18621(7)
H31 H 0.9897 0.8785 0.1847
C42 C 0.8081(2) 0.7933(3) 0.16331(6)
H32 H 0.7890 0.8694 0.1459
loop_
_geom_bond_atom_site_label_1
_geom_bond_atom_site_label_2
_geom_bond_site_symmetry_1
_geom_bond_site_symmetry_2
C1 H1 1_555 1_555
H2 C1 1_555 1_555
C2 C1 1_555 1_555
H3 C2 1_555 1_555
C3 C2 1_555 1_555
C4 C3 1_555 1_555
H4 C4 1_555 1_555
C5 C4 1_555 1_555
H5 C5 1_555 1_555
C6 C5 1_555 1_555
C7 C6 1_555 1_555
H6 C7 1_555 1_555
C8 C3 1_555 1_555
H7 C8 1_555 1_555
C9 C6 1_555 1_555
C10 C9 1_555 1_555
H8 C10 1_555 1_555
C11 C10 1_555 1_555
H9 C11 1_555 1_555
C12 C11 1_555 1_555
H10 C12 1_555 1_555
C13 C12 1_555 1_555
H11 C13 1_555 1_555
C14 C9 1_555 1_555
C15 C14 1_555 1_555
C16 C15 1_555 1_555
C17 C16 1_555 1_555
C18 C17 1_555 1_555
H12 C18 1_555 1_555
C19 C18 1_555 1_555
H13 C19 1_555 1_555
C20 C19 1_555 1_555
H14 C20 1_555 1_555
C21 C20 1_555 1_555
H15 C21 1_555 1_555
C22 C17 1_555 1_555
C23 C22 1_555 1_555
C24 C23 1_555 1_555
H16 C24 1_555 1_555
C25 C24 1_555 1_555
H17 C25 1_555 1_555
C26 C25 1_555 1_555
C27 C26 1_555 1_555
H18 C27 1_555 1_555
C28 C23 1_555 1_555
H19 C28 1_555 1_555
C29 C26 1_555 1_555
H20 C29 1_555 1_555
C30 C29 1_555 1_555
H21 C30 1_555 1_555
H22 C30 1_555 1_555
C31 C16 1_555 1_555
C32 C31 1_555 1_555
H23 C32 1_555 1_555
C33 C32 1_555 1_555
H24 C33 1_555 1_555
C34 C33 1_555 1_555
H25 C34 1_555 1_555
C35 C34 1_555 1_555
H26 C35 1_555 1_555
C36 C31 1_555 1_555
H27 C36 1_555 1_555
C37 C15 1_555 1_555
C38 C37 1_555 1_555
H28 C38 1_555 1_555
C39 C38 1_555 1_555
H29 C39 1_555 1_555
C40 C39 1_555 1_555
H30 C40 1_555 1_555
C41 C40 1_555 1_555
H31 C41 1_555 1_555
C42 C37 1_555 1_555
H32 C42 1_555 1_555
C7 C8 1_555 1_555
C13 C14 1_555 1_555
C21 C22 1_555 1_555
C27 C28 1_555 1_555
C35 C36 1_555 1_555
C41 C42 1_555 1_555

#END
