
#######################################################################
#
#                 Cambridge Crystallographic Data Centre
#                                CCDC 
#
#######################################################################
#
# If this CIF has been generated from an entry in the Cambridge 
# Structural Database, then it will include bibliographic, chemical, 
# crystal, experimental, refinement or atomic coordinate data resulting 
# from the CCDC's data processing and validation procedures.
#
#######################################################################

data_KUGWEO
_chemical_compound_source        'Robodosia rubescens (Hemsl.) Hara'
_chemical_name_common            
'ent-3beta,7beta,11beta-Trihydroxy-15-oxokaur-16-en-6alpha-yl acetate'
_chemical_formula_moiety         'C22 H32 O6'
_chemical_name_systematic        'Xindongnin B'
_chemical_properties_biological  'antineoplastic activity'
_symmetry_cell_setting           orthorhombic
_symmetry_space_group_name_H-M   'P 21 21 21'
_symmetry_Int_Tables_number      19
_space_group_name_Hall           'P 2ac 2ab'
loop_
_symmetry_equiv_pos_site_id
_symmetry_equiv_pos_as_xyz
1 x,y,z
2 1/2+x,1/2-y,-z
3 -x,1/2+y,1/2-z
4 1/2-x,-y,1/2+z
_cell_length_a                   6.739(5)
_cell_length_b                   16.963(6)
_cell_length_c                   17.094(6)
_cell_angle_alpha                90
_cell_angle_beta                 90
_cell_angle_gamma                90
_cell_volume                     1954.08
_cell_formula_units_Z            4
loop_
_atom_site_label
_atom_site_type_symbol
_atom_site_fract_x
_atom_site_fract_y
_atom_site_fract_z
O1 O 0.583(1) 0.8500(3) 0.2796(4)
O2 O 0.099(1) 0.9723(3) 0.4959(3)
O3 O 0.570(1) 1.0615(3) 0.4573(3)
O4 O 0.274(1) 1.1885(3) 0.2366(3)
O5 O 0.519(1) 1.2117(3) 0.4117(4)
O6 O 0.188(1) 0.8955(4) 0.5962(3)
C1 C 0.263(1) 0.9595(4) 0.2411(4)
C2 C 0.252(2) 0.8693(5) 0.2335(5)
C3 C 0.381(2) 0.8292(4) 0.2941(5)
C4 C 0.322(2) 0.8514(4) 0.3770(5)
C5 C 0.318(1) 0.9437(4) 0.3832(4)
C6 C 0.300(1) 0.9760(5) 0.4654(4)
C7 C 0.362(1) 1.0621(5) 0.4695(5)
C8 C 0.252(1) 1.1141(4) 0.4108(4)
C9 C 0.250(1) 1.0775(4) 0.3274(4)
C10 C 0.192(1) 0.9885(4) 0.3213(4)
C11 C 0.137(1) 1.1309(4) 0.2692(5)
C12 C -0.039(2) 1.1771(4) 0.3034(5)
C13 C 0.001(1) 1.2078(4) 0.3848(5)
C14 C 0.043(2) 1.1377(4) 0.4383(4)
C15 C 0.344(1) 1.1968(4) 0.4043(4)
C16 C 0.185(2) 1.2549(4) 0.3903(5)
C17 C 0.217(2) 1.3315(5) 0.3877(5)
C18 C 0.126(2) 0.8100(5) 0.3978(5)
C19 C 0.477(2) 0.8186(5) 0.4326(5)
C20 C -0.035(2) 0.9762(4) 0.3269(5)
C21 C 0.062(2) 0.9321(5) 0.5612(5)
C22 C -0.148(2) 0.9375(6) 0.5848(5)
H1 H 0.62(1) 0.812(4) 0.266(4)
H2 H 0.61(1) 1.077(4) 0.407(4)
H3 H 0.30(1) 1.171(4) 0.194(4)
H4 H 0.18(1) 0.982(5) 0.196(5)
H5 H 0.42(1) 0.975(3) 0.233(3)
H6 H 0.31(1) 0.856(3) 0.183(4)
H7 H 0.10(1) 0.854(4) 0.238(4)
H8 H 0.36(1) 0.770(4) 0.289(4)
H9 H 0.46(1) 0.960(4) 0.366(4)
H10 H 0.38(1) 0.948(4) 0.505(4)
H11 H 0.35(1) 1.084(4) 0.519(5)
H12 H 0.38(1) 1.081(3) 0.312(3)
H13 H 0.09(1) 1.106(4) 0.220(4)
H14 H -0.14(1) 1.148(5) 0.298(5)
H15 H -0.07(1) 1.222(5) 0.256(5)
H16 H -0.117(9) 1.233(3) 0.401(3)
H17 H -0.07(1) 1.099(4) 0.432(4)
H18 H 0.057(9) 1.154(4) 0.495(4)
H19 H 0.36(1) 1.346(4) 0.384(4)
H20 H 0.08(1) 1.369(4) 0.384(4)
H21 H 0.10(1) 0.828(4) 0.447(4)
H22 H 0.17(1) 0.750(4) 0.398(4)
H23 H 0.03(1) 0.816(4) 0.363(4)
H24 H 0.43(1) 0.822(4) 0.485(4)
H25 H 0.53(1) 0.763(4) 0.421(4)
H26 H 0.60(1) 0.842(4) 0.425(4)
H27 H -0.08(1) 0.983(4) 0.386(4)
H28 H -0.06(1) 0.928(4) 0.305(4)
H29 H -0.11(1) 1.008(5) 0.287(5)
H30 H -0.22(1) 0.970(5) 0.547(5)
H31 H -0.16(1) 0.942(4) 0.633(4)
H32 H -0.20(1) 0.883(4) 0.574(4)
loop_
_geom_bond_atom_site_label_1
_geom_bond_atom_site_label_2
_geom_bond_site_symmetry_1
_geom_bond_site_symmetry_2
O1 C3 1_555 1_555
O2 C6 1_555 1_555
O3 C7 1_555 1_555
O4 C11 1_555 1_555
O5 C15 1_555 1_555
O6 C21 1_555 1_555
C1 C2 1_555 1_555
C2 C3 1_555 1_555
C3 C4 1_555 1_555
C4 C5 1_555 1_555
C5 C6 1_555 1_555
C6 C7 1_555 1_555
C7 C8 1_555 1_555
C8 C9 1_555 1_555
C9 C10 1_555 1_555
C10 C1 1_555 1_555
C11 C9 1_555 1_555
C12 C11 1_555 1_555
C13 C12 1_555 1_555
C14 C8 1_555 1_555
C15 C8 1_555 1_555
C16 C13 1_555 1_555
C17 C16 1_555 1_555
C18 C4 1_555 1_555
C19 C4 1_555 1_555
C20 C10 1_555 1_555
C21 O2 1_555 1_555
C22 C21 1_555 1_555
H1 O1 1_555 1_555
H2 O3 1_555 1_555
H3 O4 1_555 1_555
H4 C1 1_555 1_555
H5 C1 1_555 1_555
H6 C2 1_555 1_555
H7 C2 1_555 1_555
H8 C3 1_555 1_555
H9 C5 1_555 1_555
H10 C6 1_555 1_555
H11 C7 1_555 1_555
H12 C9 1_555 1_555
H13 C11 1_555 1_555
H14 C12 1_555 1_555
H15 C12 1_555 1_555
H16 C13 1_555 1_555
H17 C14 1_555 1_555
H18 C14 1_555 1_555
H19 C17 1_555 1_555
H20 C17 1_555 1_555
H21 C18 1_555 1_555
H22 C18 1_555 1_555
H23 C18 1_555 1_555
H24 C19 1_555 1_555
H25 C19 1_555 1_555
H26 C19 1_555 1_555
H27 C20 1_555 1_555
H28 C20 1_555 1_555
H29 C20 1_555 1_555
H30 C22 1_555 1_555
H31 C22 1_555 1_555
H32 C22 1_555 1_555
C5 C10 1_555 1_555
C13 C14 1_555 1_555
C15 C16 1_555 1_555

#END
