
#######################################################################
#
#                 Cambridge Crystallographic Data Centre
#                                CCDC 
#
#######################################################################
#
# If this CIF has been generated from an entry in the Cambridge 
# Structural Database, then it will include bibliographic, chemical, 
# crystal, experimental, refinement or atomic coordinate data resulting 
# from the CCDC's data processing and validation procedures.
#
#######################################################################

data_KUGYOA
_chemical_formula_moiety         'C22 H26 N2 O5'
_chemical_name_systematic        
'(2S*-(2\b,3\a,6\a,12b\b))-Methyl 3-acetyl-1,2,3,4,6,7,12,12b-octahydro-6-methoxycarbonyl-indolo(2,3-a)quinolizine-3-ethanoate'
_symmetry_cell_setting           orthorhombic
_symmetry_space_group_name_H-M   'P 21 21 21'
_symmetry_Int_Tables_number      19
_space_group_name_Hall           'P 2ac 2ab'
loop_
_symmetry_equiv_pos_site_id
_symmetry_equiv_pos_as_xyz
1 x,y,z
2 1/2+x,1/2-y,-z
3 -x,1/2+y,1/2-z
4 1/2-x,-y,1/2+z
_cell_length_a                   9.463(2)
_cell_length_b                   11.251(3)
_cell_length_c                   18.871(6)
_cell_angle_alpha                90
_cell_angle_beta                 90
_cell_angle_gamma                90
_cell_volume                     2009.16
_exptl_crystal_colour            colorless
_cell_formula_units_Z            4
loop_
_atom_site_label
_atom_site_type_symbol
_atom_site_fract_x
_atom_site_fract_y
_atom_site_fract_z
N1 N 0.7557(5) 0.5795(4) 0.6647(2)
C1 C 0.6899(5) 0.6815(4) 0.6837(2)
C2 C 0.5941(5) 0.7509(4) 0.6373(2)
N2 N 0.5555(4) 0.8634(3) 0.6728(2)
C3 C 0.5287(5) 0.8563(4) 0.7495(3)
C4 C 0.6658(6) 0.8184(5) 0.7867(3)
C5 C 0.7243(5) 0.7105(4) 0.7523(2)
C6 C 0.8173(5) 0.6177(4) 0.7775(2)
C7 C 0.8863(6) 0.5953(6) 0.8411(3)
C8 C 0.9665(6) 0.4928(6) 0.8474(3)
C9 C 0.9838(6) 0.4144(6) 0.7896(3)
C10 C 0.9195(6) 0.4360(5) 0.7262(3)
C11 C 0.8350(5) 0.5362(5) 0.7201(3)
C12 C 0.6608(6) 0.7821(5) 0.5662(3)
C13 C 0.5551(6) 0.8517(4) 0.5198(3)
C14 C 0.5073(5) 0.9631(5) 0.5593(3)
C15 C 0.4484(5) 0.9273(4) 0.6326(3)
C16 C 0.6127(6) 0.8751(5) 0.4442(3)
C17 C 0.7219(6) 0.9732(5) 0.4438(3)
O1 O 0.6949(4) 1.0759(3) 0.4342(2)
C18 C 0.9621(7) 1.0191(6) 0.4598(4)
O2 O 0.8509(4) 0.9312(3) 0.4568(2)
C19 C 0.3979(6) 1.0308(5) 0.5193(2)
O3 O 0.3037(4) 0.9829(3) 0.4872(2)
C20 C 0.4082(7) 1.1644(5) 0.5202(3)
C21 C 0.4105(6) 0.7762(5) 0.7765(3)
O4 O 0.3802(4) 0.7684(4) 0.8382(2)
C22 C 0.2352(7) 0.6400(5) 0.7538(4)
O5 O 0.3440(4) 0.7170(3) 0.7263(2)
H1 H 0.756(5) 0.552(4) 0.631(3)
H2 H 0.517(4) 0.706(3) 0.628(2)
H3 H 0.498(5) 0.945(3) 0.765(2)
H4 H 0.728(5) 0.887(4) 0.786(2)
H5 H 0.645(5) 0.812(4) 0.837(3)
H6 H 0.875(4) 0.643(3) 0.876(2)
H7 H 1.009(5) 0.483(4) 0.892(3)
H8 H 1.049(5) 0.361(4) 0.800(2)
H9 H 0.936(4) 0.386(4) 0.687(2)
H10 H 0.691(4) 0.727(4) 0.539(2)
H11 H 0.752(6) 0.839(5) 0.573(3)
H12 H 0.471(5) 0.803(4) 0.515(2)
H13 H 0.583(5) 1.004(4) 0.564(2)
H14 H 0.420(4) 1.004(4) 0.659(2)
H15 H 0.362(5) 0.884(4) 0.626(2)
H16 H 0.650(5) 0.792(4) 0.424(2)
H17 H 0.538(5) 0.895(4) 0.417(2)
H18 H 1.037(7) 0.983(6) 0.479(3)
H19 H 0.928(6) 1.099(5) 0.493(3)
H20 H 0.973(6) 1.048(5) 0.413(3)
H21 H 0.3327 1.1963 0.4920
H22 H 0.3998 1.1931 0.5680
H23 H 0.4973 1.1891 0.5008
H24 H 0.1886 0.5988 0.7159
H25 H 0.2765 0.5832 0.7856
H26 H 0.1677 0.6877 0.7790
loop_
_geom_bond_atom_site_label_1
_geom_bond_atom_site_label_2
_geom_bond_site_symmetry_1
_geom_bond_site_symmetry_2
N1 C1 1_555 1_555
C1 C2 1_555 1_555
C2 N2 1_555 1_555
N2 C3 1_555 1_555
C3 C4 1_555 1_555
C4 C5 1_555 1_555
C5 C1 1_555 1_555
C6 C5 1_555 1_555
C7 C6 1_555 1_555
C8 C7 1_555 1_555
C9 C8 1_555 1_555
C10 C9 1_555 1_555
C11 N1 1_555 1_555
C12 C2 1_555 1_555
C13 C12 1_555 1_555
C14 C13 1_555 1_555
C15 N2 1_555 1_555
C16 C13 1_555 1_555
C17 C16 1_555 1_555
O1 C17 1_555 1_555
C18 O2 1_555 1_555
O2 C17 1_555 1_555
C19 C14 1_555 1_555
O3 C19 1_555 1_555
C20 C19 1_555 1_555
C21 C3 1_555 1_555
O4 C21 1_555 1_555
C22 O5 1_555 1_555
O5 C21 1_555 1_555
H1 N1 1_555 1_555
H2 C2 1_555 1_555
H3 C3 1_555 1_555
H4 C4 1_555 1_555
H5 C4 1_555 1_555
H6 C7 1_555 1_555
H7 C8 1_555 1_555
H8 C9 1_555 1_555
H9 C10 1_555 1_555
H10 C12 1_555 1_555
H11 C12 1_555 1_555
H12 C13 1_555 1_555
H13 C14 1_555 1_555
H14 C15 1_555 1_555
H15 C15 1_555 1_555
H16 C16 1_555 1_555
H17 C16 1_555 1_555
H18 C18 1_555 1_555
H19 C18 1_555 1_555
H20 C18 1_555 1_555
H21 C20 1_555 1_555
H22 C20 1_555 1_555
H23 C20 1_555 1_555
H24 C22 1_555 1_555
H25 C22 1_555 1_555
H26 C22 1_555 1_555
C6 C11 1_555 1_555
C10 C11 1_555 1_555
C14 C15 1_555 1_555

#END
