
#######################################################################
#
#                 Cambridge Crystallographic Data Centre
#                                CCDC 
#
#######################################################################
#
# If this CIF has been generated from an entry in the Cambridge 
# Structural Database, then it will include bibliographic, chemical, 
# crystal, experimental, refinement or atomic coordinate data resulting 
# from the CCDC's data processing and validation procedures.
#
#######################################################################

data_KUHBIA
_chemical_formula_moiety         'C14 H12 F1 N1 O4 S1'
_chemical_name_systematic        
'2-fluoro-6-(((4-methylphenyl)sulfonyl)amino)benzoic acid'
_symmetry_cell_setting           monoclinic
_symmetry_space_group_name_H-M   'P 21/c'
_symmetry_Int_Tables_number      14
_space_group_name_Hall           '-P 2ybc'
loop_
_symmetry_equiv_pos_site_id
_symmetry_equiv_pos_as_xyz
1 x,y,z
2 -x,1/2+y,1/2-z
3 -x,-y,-z
4 x,1/2-y,1/2+z
_cell_length_a                   8.9518(7)
_cell_length_b                   9.4849(7)
_cell_length_c                   16.4534(12)
_cell_angle_alpha                90
_cell_angle_beta                 101.6650(10)
_cell_angle_gamma                90
_cell_volume                     1368.15
_exptl_crystal_colour            colorless
_exptl_crystal_description       Block
_cell_formula_units_Z            4
loop_
_atom_site_label
_atom_site_type_symbol
_atom_site_fract_x
_atom_site_fract_y
_atom_site_fract_z
C1 C 0.7038(3) 0.6339(3) 0.35746(15)
C2 C 0.5510(3) 0.6123(3) 0.36282(17)
F1 F 0.5194(2) 0.5228(2) 0.42031(12)
C3 C 0.4304(3) 0.6802(3) 0.31484(18)
H1 H 0.3291 0.6631 0.3216
C4 C 0.4597(3) 0.7743(3) 0.25632(19)
H2 H 0.3775 0.8231 0.2223
C5 C 0.6074(3) 0.7989(3) 0.24640(18)
H3 H 0.6257 0.8641 0.2057
C6 C 0.7292(3) 0.7287(3) 0.29564(16)
C7 C 0.8314(3) 0.5718(3) 0.41731(16)
O1 O 0.9620(2) 0.6175(2) 0.42702(12)
O2 O 0.7966(3) 0.4663(3) 0.46096(15)
H4 H 0.8743 0.4414 0.4957
N1 N 0.8790(3) 0.7533(3) 0.28500(14)
H5 H 0.9531 0.7368 0.3280
S1 S 0.92843(8) 0.80980(8) 0.19978(4)
O3 O 0.8576(3) 0.9424(2) 0.17793(14)
O4 O 1.0905(2) 0.8006(3) 0.21819(14)
C8 C 0.8547(3) 0.6878(3) 0.12201(18)
C9 C 0.7268(3) 0.7189(3) 0.06246(18)
H6 H 0.6765 0.8070 0.0629
C10 C 0.6730(4) 0.6197(4) 0.0022(2)
H7 H 0.5843 0.6403 -0.0385
C11 C 0.7446(4) 0.4913(4) -0.0005(2)
C12 C 0.8712(5) 0.4624(4) 0.0606(3)
H8 H 0.9209 0.3739 0.0606
C13 C 0.9264(4) 0.5590(4) 0.1214(2)
H9 H 1.0136 0.5373 0.1629
C14 C 0.6869(5) 0.3867(5) -0.0684(3)
H10 H 0.7700 0.3607 -0.0962
H11 H 0.6034 0.4291 -0.1088
H12 H 0.6497 0.3023 -0.0444
loop_
_geom_bond_atom_site_label_1
_geom_bond_atom_site_label_2
_geom_bond_site_symmetry_1
_geom_bond_site_symmetry_2
C1 C2 1_555 1_555
C2 F1 1_555 1_555
C3 C2 1_555 1_555
H1 C3 1_555 1_555
C4 C3 1_555 1_555
H2 C4 1_555 1_555
C5 C4 1_555 1_555
H3 C5 1_555 1_555
C6 C1 1_555 1_555
C7 C1 1_555 1_555
O1 C7 1_555 1_555
O2 C7 1_555 1_555
H4 O2 1_555 1_555
N1 C6 1_555 1_555
H5 N1 1_555 1_555
S1 N1 1_555 1_555
O3 S1 1_555 1_555
O4 S1 1_555 1_555
C8 S1 1_555 1_555
C9 C8 1_555 1_555
H6 C9 1_555 1_555
C10 C9 1_555 1_555
H7 C10 1_555 1_555
C11 C10 1_555 1_555
C12 C11 1_555 1_555
H8 C12 1_555 1_555
C13 C8 1_555 1_555
H9 C13 1_555 1_555
C14 C11 1_555 1_555
H10 C14 1_555 1_555
H11 C14 1_555 1_555
H12 C14 1_555 1_555
C5 C6 1_555 1_555
C12 C13 1_555 1_555

#END
