
#######################################################################
#
#                 Cambridge Crystallographic Data Centre
#                                CCDC 
#
#######################################################################
#
# If this CIF has been generated from an entry in the Cambridge 
# Structural Database, then it will include bibliographic, chemical, 
# crystal, experimental, refinement or atomic coordinate data resulting 
# from the CCDC's data processing and validation procedures.
#
#######################################################################

data_KUHHIG
_chemical_name_common            
'meso-octakis(pentafluorophenyl)-[50]dodecaphyrin(1.1.0.1.1.0.1.1.0.1.1.0) methanol dichloromethane solvate'
_chemical_formula_moiety         
'C104 H30 F40 N12,2.06(C1 H4 O1),5.95(C1 H2 Cl2)'
_chemical_name_systematic        
'6,11,20,25,34,39,48,53-octakis(pentafluorophenyl)-57,58,59,60,61,62,63,64,65,66,67,68-dodecaazatridecacyclo[52.2.1.1^2,5^.1^7,10^.1^12,15^.1^16,19^.1^21,24^.1^26,29^.1^30,33^.1^35,38^.1^40,43^.1^44,47^.1^49,52^]octahexaconta-1(57),2,4,6,8,10(67),11,13,15,17,19(65),20,22,24,26(63),27,29,31,33,35(61),36,38,40,42,44(59),45,47,49,51,53,55-hentriacontaene methanol dichloromethane solvate'
_symmetry_cell_setting           triclinic
_symmetry_space_group_name_H-M   'P -1'
_symmetry_Int_Tables_number      2
_space_group_name_Hall           '-P 1'
loop_
_symmetry_equiv_pos_site_id
_symmetry_equiv_pos_as_xyz
1 x,y,z
2 -x,-y,-z
_cell_length_a                   11.469(3)
_cell_length_b                   14.275(4)
_cell_length_c                   17.554(4)
_cell_angle_alpha                104.941(7)
_cell_angle_beta                 98.137(4)
_cell_angle_gamma                95.3590(10)
_cell_volume                     2723.36
_exptl_crystal_colour            green
_exptl_crystal_description       Prism
_cell_formula_units_Z            1
loop_
_atom_site_label
_atom_site_type_symbol
_atom_site_fract_x
_atom_site_fract_y
_atom_site_fract_z
C1 C -0.1549(5) 0.9144(4) 0.4609(3)
C2 C -0.1166(5) 0.9718(4) 0.5407(4)
H1 H -0.1404 1.0332 0.5642
C3 C -0.0403(5) 0.9245(4) 0.5780(3)
H2 H -0.0013 0.9471 0.6322
C4 C -0.0284(5) 0.8353(4) 0.5227(3)
N1 N -0.0984(4) 0.8340(3) 0.4517(3)
H3 H -0.1055 0.7874 0.4067
C5 C 0.0381(5) 0.7612(4) 0.5347(3)
C6 C 0.0719(5) 0.6903(4) 0.4726(3)
C7 C 0.0802(5) 0.6951(4) 0.3919(3)
H4 H 0.0526 0.7428 0.3673
C8 C 0.1337(5) 0.6197(4) 0.3587(3)
H5 H 0.1531 0.6042 0.3064
C9 C 0.1570(5) 0.5658(4) 0.4180(3)
N2 N 0.1163(4) 0.6102(3) 0.4854(2)
C10 C 0.2193(4) 0.4836(4) 0.4129(3)
C11 C 0.2352(5) 0.4392(4) 0.4758(3)
C12 C 0.2977(5) 0.3595(4) 0.4837(3)
H6 H 0.3371 0.3221 0.4447
C13 C 0.2907(5) 0.3466(4) 0.5576(3)
H7 H 0.3247 0.2989 0.5793
C14 C 0.2232(4) 0.4177(4) 0.5962(3)
N3 N 0.1910(4) 0.4706(3) 0.5445(2)
H8 H 0.1475 0.5186 0.5541
C15 C 0.1966(4) 0.4416(4) 0.6743(3)
C16 C 0.1362(4) 0.5223(4) 0.7086(3)
H9 H 0.0984 0.5638 0.6814
C17 C 0.1439(4) 0.5270(4) 0.7867(3)
H10 H 0.1134 0.5731 0.8257
C18 C 0.2078(5) 0.4479(4) 0.7999(3)
N4 N 0.2363(4) 0.3952(3) 0.7295(3)
C19 C 0.2431(5) 0.4297(4) 0.8741(3)
C20 C 0.2964(5) 0.3469(4) 0.8821(3)
C21 C 0.3565(5) 0.3294(5) 0.9531(3)
H11 H 0.3644 0.3708 1.0060
C22 C 0.4002(5) 0.2431(5) 0.9315(3)
H12 H 0.4462 0.2146 0.9666
C23 C 0.3656(5) 0.2029(4) 0.8477(4)
N5 N 0.3031(4) 0.2683(4) 0.8205(3)
H13 H 0.2717 0.2606 0.7702
C24 C 0.3850(5) 0.1137(4) 0.7985(3)
C25 C 0.3375(5) 0.0776(4) 0.7167(3)
C26 C 0.3542(5) -0.0146(4) 0.6646(4)
H14 H 0.4012 -0.0610 0.6786
C27 C 0.2899(5) -0.0221(4) 0.5920(4)
H15 H 0.2827 -0.0746 0.5448
C28 C 0.2344(5) 0.0659(4) 0.6008(3)
N6 N 0.2630(4) 0.1252(3) 0.6753(3)
C29 C 0.0817(5) 0.7634(4) 0.6195(3)
C30 C 0.2014(5) 0.7623(4) 0.6480(3)
C31 C 0.2436(6) 0.7714(4) 0.7281(4)
C32 C 0.1666(7) 0.7791(4) 0.7819(4)
C33 C 0.0477(6) 0.7811(5) 0.7568(4)
C34 C 0.0072(6) 0.7713(4) 0.6759(3)
F1 F 0.2809(3) 0.7580(2) 0.5992(2)
F2 F 0.3595(3) 0.7725(3) 0.7529(2)
F3 F 0.2060(4) 0.7858(3) 0.8585(2)
F4 F -0.0274(4) 0.7914(3) 0.8085(2)
F5 F -0.1099(3) 0.7702(3) 0.65529(19)
C35 C 0.2763(5) 0.4461(4) 0.3418(3)
C36 C 0.2139(5) 0.4074(4) 0.2649(3)
C37 C 0.2671(5) 0.3705(4) 0.2003(3)
C38 C 0.3885(5) 0.3729(4) 0.2105(3)
C39 C 0.4559(5) 0.4132(4) 0.2863(3)
C40 C 0.4004(5) 0.4490(4) 0.3500(3)
F6 F 0.0944(3) 0.4030(2) 0.25268(18)
F7 F 0.2018(3) 0.3329(3) 0.12678(18)
F8 F 0.4419(3) 0.3389(3) 0.14796(19)
F9 F 0.5738(3) 0.4178(3) 0.2960(2)
F10 F 0.4688(3) 0.4883(2) 0.42137(18)
C41 C 0.2260(5) 0.5008(4) 0.9476(3)
C42 C 0.1564(5) 0.4751(5) 0.9997(3)
C43 C 0.1402(5) 0.5417(5) 1.0685(4)
C44 C 0.1925(6) 0.6386(5) 1.0864(4)
C45 C 0.2606(6) 0.6657(5) 1.0362(4)
C46 C 0.2784(5) 0.5983(4) 0.9685(3)
F11 F 0.1005(3) 0.3840(3) 0.9827(2)
F12 F 0.0732(3) 0.5150(3) 1.1182(2)
F13 F 0.1750(4) 0.7022(3) 1.1524(2)
F14 F 0.3117(4) 0.7592(3) 1.0532(3)
F15 F 0.3493(3) 0.6280(3) 0.9225(2)
C47 C 0.4621(5) 0.0525(4) 0.8354(4)
C48 C 0.5791(6) 0.0522(5) 0.8268(4)
C49 C 0.6506(6) -0.0077(6) 0.8575(5)
C50 C 0.6029(7) -0.0685(5) 0.8976(4)
C51 C 0.4895(7) -0.0686(5) 0.9080(4)
C52 C 0.4177(6) -0.0086(5) 0.8786(4)
F16 F 0.6255(4) 0.1082(4) 0.7860(3)
F17 F 0.7627(4) -0.0085(4) 0.8458(4)
F18 F 0.6725(4) -0.1268(3) 0.9259(3)
F19 F 0.4433(4) -0.1281(3) 0.9479(3)
F20 F 0.3064(4) -0.0110(3) 0.8896(3)
C1A C 0.1549(5) 0.0856(4) 0.5391(3)
C2A C 0.1166(5) 0.0282(4) 0.4593(4)
H1A H 0.1404 -0.0332 0.4358
C3A C 0.0403(5) 0.0755(4) 0.4220(3)
H2A H 0.0013 0.0529 0.3678
C4A C 0.0284(5) 0.1647(4) 0.4773(3)
N1A N 0.0984(4) 0.1660(3) 0.5483(3)
H3A H 0.1055 0.2126 0.5933
C5A C -0.0381(5) 0.2388(4) 0.4653(3)
C6A C -0.0719(5) 0.3097(4) 0.5274(3)
C7A C -0.0802(5) 0.3049(4) 0.6081(3)
H4A H -0.0526 0.2572 0.6327
C8A C -0.1337(5) 0.3803(4) 0.6413(3)
H5A H -0.1531 0.3958 0.6936
C9A C -0.1570(5) 0.4342(4) 0.5820(3)
N2A N -0.1163(4) 0.3898(3) 0.5146(2)
C10A C -0.2193(4) 0.5164(4) 0.5871(3)
C11A C -0.2352(5) 0.5608(4) 0.5242(3)
C12A C -0.2977(5) 0.6405(4) 0.5163(3)
H6A H -0.3371 0.6779 0.5553
C13A C -0.2907(5) 0.6534(4) 0.4424(3)
H7A H -0.3247 0.7011 0.4207
C14A C -0.2232(4) 0.5823(4) 0.4038(3)
N3A N -0.1910(4) 0.5294(3) 0.4555(2)
H8A H -0.1475 0.4814 0.4459
C15A C -0.1966(4) 0.5584(4) 0.3257(3)
C16A C -0.1362(4) 0.4777(4) 0.2914(3)
H9A H -0.0984 0.4362 0.3186
C17A C -0.1439(4) 0.4730(4) 0.2133(3)
H10A H -0.1134 0.4269 0.1743
C18A C -0.2078(5) 0.5521(4) 0.2001(3)
N4A N -0.2363(4) 0.6048(3) 0.2705(3)
C19A C -0.2431(5) 0.5703(4) 0.1259(3)
C20A C -0.2964(5) 0.6531(4) 0.1179(3)
C21A C -0.3565(5) 0.6706(5) 0.0469(3)
H11A H -0.3644 0.6292 -0.0060
C22A C -0.4002(5) 0.7569(5) 0.0685(3)
H12A H -0.4462 0.7854 0.0334
C23A C -0.3656(5) 0.7971(4) 0.1523(4)
N5A N -0.3031(4) 0.7317(4) 0.1795(3)
H13A H -0.2717 0.7394 0.2298
C24A C -0.3850(5) 0.8863(4) 0.2015(3)
C25A C -0.3375(5) 0.9224(4) 0.2833(3)
C26A C -0.3542(5) 1.0146(4) 0.3354(4)
H14A H -0.4012 1.0610 0.3214
C27A C -0.2899(5) 1.0221(4) 0.4080(4)
H15A H -0.2827 1.0746 0.4552
C28A C -0.2344(5) 0.9341(4) 0.3992(3)
N6A N -0.2630(4) 0.8748(3) 0.3247(3)
C29A C -0.0817(5) 0.2366(4) 0.3805(3)
C30A C -0.2014(5) 0.2377(4) 0.3520(3)
C31A C -0.2436(6) 0.2286(4) 0.2719(4)
C32A C -0.1666(7) 0.2209(4) 0.2181(4)
C33A C -0.0477(6) 0.2189(5) 0.2432(4)
C34A C -0.0072(6) 0.2287(4) 0.3241(3)
F1A F -0.2809(3) 0.2420(2) 0.4008(2)
F2A F -0.3595(3) 0.2275(3) 0.2471(2)
F3A F -0.2060(4) 0.2142(3) 0.1415(2)
F4A F 0.0274(4) 0.2086(3) 0.1915(2)
F5A F 0.1099(3) 0.2298(3) 0.34471(19)
C35A C -0.2763(5) 0.5539(4) 0.6582(3)
C36A C -0.2139(5) 0.5926(4) 0.7351(3)
C37A C -0.2671(5) 0.6295(4) 0.7997(3)
C38A C -0.3885(5) 0.6271(4) 0.7895(3)
C39A C -0.4559(5) 0.5868(4) 0.7137(3)
C40A C -0.4004(5) 0.5510(4) 0.6500(3)
F6A F -0.0944(3) 0.5970(2) 0.74732(18)
F7A F -0.2018(3) 0.6671(3) 0.87322(18)
F8A F -0.4419(3) 0.6611(3) 0.85204(19)
F9A F -0.5738(3) 0.5822(3) 0.7040(2)
F10A F -0.4688(3) 0.5117(2) 0.57863(18)
C41A C -0.2260(5) 0.4992(4) 0.0524(3)
C42A C -0.1564(5) 0.5249(5) 0.0003(3)
C43A C -0.1402(5) 0.4583(5) -0.0685(4)
C44A C -0.1925(6) 0.3614(5) -0.0864(4)
C45A C -0.2606(6) 0.3343(5) -0.0362(4)
C46A C -0.2784(5) 0.4017(4) 0.0315(3)
F11A F -0.1005(3) 0.6160(3) 0.0173(2)
F12A F -0.0732(3) 0.4850(3) -0.1182(2)
F13A F -0.1750(4) 0.2978(3) -0.1524(2)
F14A F -0.3117(4) 0.2408(3) -0.0532(3)
F15A F -0.3493(3) 0.3720(3) 0.0775(2)
C47A C -0.4621(5) 0.9475(4) 0.1646(4)
C48A C -0.5791(6) 0.9478(5) 0.1732(4)
C49A C -0.6506(6) 1.0077(6) 0.1425(5)
C50A C -0.6029(7) 1.0685(5) 0.1024(4)
C51A C -0.4895(7) 1.0686(5) 0.0920(4)
C52A C -0.4177(6) 1.0086(5) 0.1214(4)
F16A F -0.6255(4) 0.8918(4) 0.2140(3)
F17A F -0.7627(4) 1.0085(4) 0.1542(4)
F18A F -0.6725(4) 1.1268(3) 0.0741(3)
F19A F -0.4433(4) 1.1281(3) 0.0521(3)
F20A F -0.3064(4) 1.0110(3) 0.1104(3)
O1 O 1.0010(11) 0.8349(10) 0.2551(8)
C53 C 0.974(3) 0.870(2) 0.1782(14)
C54 C 0.3269(11) 0.1066(7) 0.3673(7)
Cl1 Cl 0.4038(2) 0.17911(15) 0.32049(15)
Cl2 Cl 0.4427(5) 0.1372(5) 0.4721(4)
C55 C 0.4915(16) 0.3665(19) 0.7130(6)
Cl3 Cl 0.5628(5) 0.3994(4) 0.8120(4)
Cl4 Cl 0.5919(5) 0.3065(5) 0.6541(6)
C56? C 0.970(3) 0.865(2) 0.2078(18)
Cl5? Cl 0.9388(4) 0.9759(4) 0.1917(3)
Cl6? Cl 1.1005(5) 0.8725(3) 0.2711(3)
C57? C 0.565(3) 0.2307(19) 0.6458(12)
Cl7? Cl 0.5469(10) 0.3324(7) 0.7291(4)
Cl8? Cl 0.3865(3) 0.0176(3) 0.4011(3)
Cl9? Cl 0.5699(4) 0.2452(4) 0.5428(5)
Cl10? Cl 0.0684(6) 0.8406(6) 0.0155(3)
Cl11? Cl -0.0326(11) 1.0207(11) 0.0373(8)
C58? C -0.052(2) 0.8969(14) -0.0095(12)
O2? O 0.6798(6) 0.1577(5) 0.6403(4)
C59? C 0.5765(17) 0.1702(17) 0.6058(14)
loop_
_geom_bond_atom_site_label_1
_geom_bond_atom_site_label_2
_geom_bond_site_symmetry_1
_geom_bond_site_symmetry_2
C1 C2 1_555 1_555
C2 H1 1_555 1_555
C3 C2 1_555 1_555
H2 C3 1_555 1_555
C4 C3 1_555 1_555
N1 C1 1_555 1_555
H3 N1 1_555 1_555
C5 C4 1_555 1_555
C6 C5 1_555 1_555
C7 C6 1_555 1_555
H4 C7 1_555 1_555
C8 C7 1_555 1_555
H5 C8 1_555 1_555
C9 C8 1_555 1_555
N2 C6 1_555 1_555
C10 C9 1_555 1_555
C11 C10 1_555 1_555
C12 C11 1_555 1_555
H6 C12 1_555 1_555
C13 C12 1_555 1_555
H7 C13 1_555 1_555
C14 C13 1_555 1_555
N3 C11 1_555 1_555
H8 N3 1_555 1_555
C15 C14 1_555 1_555
C16 C15 1_555 1_555
H9 C16 1_555 1_555
C17 C16 1_555 1_555
H10 C17 1_555 1_555
C18 C17 1_555 1_555
N4 C15 1_555 1_555
C19 C18 1_555 1_555
C20 C19 1_555 1_555
C21 C20 1_555 1_555
H11 C21 1_555 1_555
C22 C21 1_555 1_555
H12 C22 1_555 1_555
C23 C22 1_555 1_555
N5 C20 1_555 1_555
H13 N5 1_555 1_555
C24 C23 1_555 1_555
C25 C24 1_555 1_555
C26 C25 1_555 1_555
H14 C26 1_555 1_555
C27 C26 1_555 1_555
H15 C27 1_555 1_555
C28 C27 1_555 1_555
N6 C25 1_555 1_555
C29 C5 1_555 1_555
C30 C29 1_555 1_555
C31 C30 1_555 1_555
C32 C31 1_555 1_555
C33 C32 1_555 1_555
C34 C29 1_555 1_555
F1 C30 1_555 1_555
F2 C31 1_555 1_555
F3 C32 1_555 1_555
F4 C33 1_555 1_555
F5 C34 1_555 1_555
C35 C10 1_555 1_555
C36 C35 1_555 1_555
C37 C36 1_555 1_555
C38 C37 1_555 1_555
C39 C38 1_555 1_555
C40 C35 1_555 1_555
F6 C36 1_555 1_555
F7 C37 1_555 1_555
F8 C38 1_555 1_555
F9 C39 1_555 1_555
F10 C40 1_555 1_555
C41 C19 1_555 1_555
C42 C41 1_555 1_555
C43 C42 1_555 1_555
C44 C43 1_555 1_555
C45 C44 1_555 1_555
C46 C41 1_555 1_555
F11 C42 1_555 1_555
F12 C43 1_555 1_555
F13 C44 1_555 1_555
F14 C45 1_555 1_555
F15 C46 1_555 1_555
C47 C24 1_555 1_555
C48 C47 1_555 1_555
C49 C48 1_555 1_555
C50 C49 1_555 1_555
C51 C50 1_555 1_555
C52 C47 1_555 1_555
F16 C48 1_555 1_555
F17 C49 1_555 1_555
F18 C50 1_555 1_555
F19 C51 1_555 1_555
F20 C52 1_555 1_555
O1 C53 1_555 1_555
C54 Cl1 1_555 1_555
Cl2 C54 1_555 1_555
C55 Cl3 1_555 1_555
Cl4 C55 1_555 1_555
C1A C28 1_555 1_555
C2A C1A 1_555 1_555
H1A C2A 1_555 1_555
C3A C2A 1_555 1_555
H2A C3A 1_555 1_555
C4A C3A 1_555 1_555
N1A C1A 1_555 1_555
H3A N1A 1_555 1_555
C5A C4A 1_555 1_555
C6A C5A 1_555 1_555
C7A C6A 1_555 1_555
H4A C7A 1_555 1_555
C8A C7A 1_555 1_555
H5A C8A 1_555 1_555
C9A C8A 1_555 1_555
N2A C6A 1_555 1_555
C10A C9A 1_555 1_555
C11A C10A 1_555 1_555
C12A C11A 1_555 1_555
H6A C12A 1_555 1_555
C13A C12A 1_555 1_555
H7A C13A 1_555 1_555
C14A C13A 1_555 1_555
N3A C11A 1_555 1_555
H8A N3A 1_555 1_555
C15A C14A 1_555 1_555
C16A C15A 1_555 1_555
H9A C16A 1_555 1_555
C17A C16A 1_555 1_555
H10A C17A 1_555 1_555
C18A C17A 1_555 1_555
N4A C15A 1_555 1_555
C19A C18A 1_555 1_555
C20A C19A 1_555 1_555
C21A C20A 1_555 1_555
H11A C21A 1_555 1_555
C22A C21A 1_555 1_555
H12A C22A 1_555 1_555
C23A C22A 1_555 1_555
N5A C20A 1_555 1_555
H13A N5A 1_555 1_555
C24A C23A 1_555 1_555
C25A C24A 1_555 1_555
C26A C25A 1_555 1_555
H14A C26A 1_555 1_555
C27A C26A 1_555 1_555
H15A C27A 1_555 1_555
C28A C1 1_555 1_555
N6A C25A 1_555 1_555
C29A C5A 1_555 1_555
C30A C29A 1_555 1_555
C31A C30A 1_555 1_555
C32A C31A 1_555 1_555
C33A C32A 1_555 1_555
C34A C29A 1_555 1_555
F1A C30A 1_555 1_555
F2A C31A 1_555 1_555
F3A C32A 1_555 1_555
F4A C33A 1_555 1_555
F5A C34A 1_555 1_555
C35A C10A 1_555 1_555
C36A C35A 1_555 1_555
C37A C36A 1_555 1_555
C38A C37A 1_555 1_555
C39A C38A 1_555 1_555
C40A C35A 1_555 1_555
F6A C36A 1_555 1_555
F7A C37A 1_555 1_555
F8A C38A 1_555 1_555
F9A C39A 1_555 1_555
F10A C40A 1_555 1_555
C41A C19A 1_555 1_555
C42A C41A 1_555 1_555
C43A C42A 1_555 1_555
C44A C43A 1_555 1_555
C45A C44A 1_555 1_555
C46A C41A 1_555 1_555
F11A C42A 1_555 1_555
F12A C43A 1_555 1_555
F13A C44A 1_555 1_555
F14A C45A 1_555 1_555
F15A C46A 1_555 1_555
C47A C24A 1_555 1_555
C48A C47A 1_555 1_555
C49A C48A 1_555 1_555
C50A C49A 1_555 1_555
C51A C50A 1_555 1_555
C52A C47A 1_555 1_555
F16A C48A 1_555 1_555
F17A C49A 1_555 1_555
F18A C50A 1_555 1_555
F19A C51A 1_555 1_555
F20A C52A 1_555 1_555
C4 N1 1_555 1_555
C9 N2 1_555 1_555
C14 N3 1_555 1_555
C18 N4 1_555 1_555
C23 N5 1_555 1_555
C28 N6 1_555 1_555
C33 C34 1_555 1_555
C39 C40 1_555 1_555
C45 C46 1_555 1_555
C51 C52 1_555 1_555
C4A N1A 1_555 1_555
C9A N2A 1_555 1_555
C14A N3A 1_555 1_555
C18A N4A 1_555 1_555
C23A N5A 1_555 1_555
C27A C28A 1_555 1_555
C28A N6A 1_555 1_555
C33A C34A 1_555 1_555
C39A C40A 1_555 1_555
C45A C46A 1_555 1_555
C51A C52A 1_555 1_555

#END
