
#######################################################################
#
#                 Cambridge Crystallographic Data Centre
#                                CCDC 
#
#######################################################################
#
# If this CIF has been generated from an entry in the Cambridge 
# Structural Database, then it will include bibliographic, chemical, 
# crystal, experimental, refinement or atomic coordinate data resulting 
# from the CCDC's data processing and validation procedures.
#
#######################################################################

data_KUHMOR
_chemical_compound_source        
'sponge-derived fungus Arthrinium arundinis ZSDS1-F3'
_chemical_name_common            'Arthpyrone A'
_chemical_formula_moiety         'C24 H31 N1 O7'
_chemical_name_systematic        
6-((2,6-Dimethyl-1,2,4a,5,6,7,8,8a-octahydronaphthalen-1-yl)carbonyl)-1,4,10,13-tetrahydroxy-8-oxa-4-azatricyclo[7.3.1.0^2,7^]trideca-2,6-dien-5-one
_symmetry_cell_setting           triclinic
_symmetry_space_group_name_H-M   'P 1'
_symmetry_Int_Tables_number      1
_space_group_name_Hall           'P 1'
loop_
_symmetry_equiv_pos_site_id
_symmetry_equiv_pos_as_xyz
1 x,y,z
_cell_length_a                   6.6494(6)
_cell_length_b                   9.3379(8)
_cell_length_c                   9.5463(9)
_cell_angle_alpha                84.319(2)
_cell_angle_beta                 74.2760(10)
_cell_angle_gamma                88.227(2)
_cell_volume                     567.754
_cell_formula_units_Z            1
loop_
_atom_site_label
_atom_site_type_symbol
_atom_site_fract_x
_atom_site_fract_y
_atom_site_fract_z
N1 N 0.0160(5) 0.4137(4) 0.4568(3)
O1 O 0.6626(4) 0.6288(3) 0.2586(3)
O2 O 0.2036(5) 0.5124(3) 0.5893(3)
O3 O -0.1110(6) 0.3450(4) 0.5837(3)
H1 H -0.1245 0.3958 0.6510
O4 O 0.4094(4) 0.5727(3) 0.0741(3)
O5 O -0.1778(4) 0.4087(4) 0.0839(3)
H2 H -0.2384 0.4778 0.1236
O6 O 0.0388(6) 0.6915(4) 0.0138(4)
H3 H -0.0732 0.6756 0.0751
O7 O 0.6883(5) 0.4499(4) -0.1688(3)
H4 H 0.7210 0.4408 -0.0915
C1 C 0.6778(7) 0.7410(5) 0.5565(5)
H5 H 0.5646 0.6942 0.6320
H6 H 0.7532 0.6678 0.4972
C2 C 0.8246(8) 0.8092(5) 0.6282(5)
H7 H 0.9493 0.8416 0.5533
H8 H 0.8667 0.7368 0.6949
C3 C 0.7265(7) 0.9371(5) 0.7124(5)
H9 H 0.6084 0.9009 0.7930
C4 C 0.6419(7) 1.0448(5) 0.6123(5)
H10 H 0.7566 1.0838 0.5326
H11 H 0.5749 1.1238 0.6665
C5 C 0.4845(6) 0.9742(4) 0.5504(4)
H12 H 0.3763 0.9312 0.6341
C6 C 0.3755(8) 1.0786(5) 0.4640(5)
H13 H 0.3482 1.1711 0.4926
C7 C 0.3169(9) 1.0451(6) 0.3497(6)
H14 H 0.2494 1.1160 0.3035
C8 C 0.3506(8) 0.9024(5) 0.2888(5)
H15 H 0.2170 0.8711 0.2775
C9 C 0.4200(6) 0.7885(4) 0.4003(4)
H16 H 0.2971 0.7662 0.4827
C10 C 0.5865(6) 0.8506(4) 0.4608(4)
H17 H 0.7002 0.8898 0.3785
C11 C 0.8810(9) 1.0050(6) 0.7778(6)
H18 H 1.0012 1.0376 0.7010
H19 H 0.9234 0.9351 0.8450
H20 H 0.8159 1.0853 0.8285
C12 C 0.5069(12) 0.9185(7) 0.1365(5)
H21 H 0.4627 0.9955 0.0772
H22 H 0.5129 0.8304 0.0914
H23 H 0.6428 0.9395 0.1459
C13 C 0.4830(6) 0.6526(4) 0.3263(4)
C14 C 0.3112(6) 0.5523(4) 0.3284(4)
C15 C 0.1807(6) 0.4957(4) 0.4680(4)
C16 C -0.0285(6) 0.3891(4) 0.3324(4)
H24 H -0.1468 0.3364 0.3367
C17 C 0.0955(5) 0.4394(4) 0.2013(4)
C18 C 0.2746(6) 0.5210(4) 0.1988(4)
C19 C 0.0431(6) 0.4250(4) 0.0582(4)
C20 C 0.1228(6) 0.5603(5) -0.0426(4)
H25 H 0.0933 0.5538 -0.1370
C21 C 0.3585(6) 0.5666(5) -0.0655(4)
H26 H 0.4113 0.6542 -0.1286
C22 C 0.4675(6) 0.4375(5) -0.1397(4)
H27 H 0.4354 0.4391 -0.2341
C23 C 0.3831(7) 0.2977(5) -0.0519(4)
H28 H 0.4249 0.2879 0.0384
H29 H 0.4421 0.2174 -0.1071
C24 C 0.1454(7) 0.2933(5) -0.0167(4)
H30 H 0.0950 0.2068 0.0467
H31 H 0.1049 0.2891 -0.1064
loop_
_geom_bond_atom_site_label_1
_geom_bond_atom_site_label_2
_geom_bond_site_symmetry_1
_geom_bond_site_symmetry_2
N1 O3 1_555 1_555
O1 C13 1_555 1_555
O2 C15 1_555 1_555
O3 H1 1_555 1_555
O4 C18 1_555 1_555
O5 H2 1_555 1_555
O6 H3 1_555 1_555
O7 H4 1_555 1_555
C1 H5 1_555 1_555
H6 C1 1_555 1_555
C2 C1 1_555 1_555
H7 C2 1_555 1_555
H8 C2 1_555 1_555
C3 C2 1_555 1_555
H9 C3 1_555 1_555
C4 C3 1_555 1_555
H10 C4 1_555 1_555
H11 C4 1_555 1_555
C5 C4 1_555 1_555
H12 C5 1_555 1_555
C6 C5 1_555 1_555
H13 C6 1_555 1_555
C7 C6 1_555 1_555
H14 C7 1_555 1_555
C8 C7 1_555 1_555
H15 C8 1_555 1_555
C9 C8 1_555 1_555
H16 C9 1_555 1_555
C10 C1 1_555 1_555
H17 C10 1_555 1_555
C11 C3 1_555 1_555
H18 C11 1_555 1_555
H19 C11 1_555 1_555
H20 C11 1_555 1_555
C12 C8 1_555 1_555
H21 C12 1_555 1_555
H22 C12 1_555 1_555
H23 C12 1_555 1_555
C13 C9 1_555 1_555
C14 C13 1_555 1_555
C15 N1 1_555 1_555
C16 N1 1_555 1_555
H24 C16 1_555 1_555
C17 C16 1_555 1_555
C18 C14 1_555 1_555
C19 O5 1_555 1_555
C20 O6 1_555 1_555
H25 C20 1_555 1_555
C21 O4 1_555 1_555
H26 C21 1_555 1_555
C22 O7 1_555 1_555
H27 C22 1_555 1_555
C23 C22 1_555 1_555
H28 C23 1_555 1_555
H29 C23 1_555 1_555
C24 C19 1_555 1_555
H30 C24 1_555 1_555
H31 C24 1_555 1_555
C5 C10 1_555 1_555
C9 C10 1_555 1_555
C14 C15 1_555 1_555
C17 C18 1_555 1_555
C17 C19 1_555 1_555
C19 C20 1_555 1_555
C20 C21 1_555 1_555
C21 C22 1_555 1_555
C23 C24 1_555 1_555

#END
