
#######################################################################
#
#                 Cambridge Crystallographic Data Centre
#                                CCDC 
#
#######################################################################
#
# If this CIF has been generated from an entry in the Cambridge 
# Structural Database, then it will include bibliographic, chemical, 
# crystal, experimental, refinement or atomic coordinate data resulting 
# from the CCDC's data processing and validation procedures.
#
#######################################################################

data_KUHWOA
_chemical_formula_moiety         'C39 H18 F10 N4'
_chemical_name_systematic        
5,15-bis(Pentafluorophenyl)-10-(3-vinylphenyl)corrole
_symmetry_cell_setting           triclinic
_symmetry_space_group_name_H-M   'P -1'
_symmetry_Int_Tables_number      2
_space_group_name_Hall           '-P 1'
loop_
_symmetry_equiv_pos_site_id
_symmetry_equiv_pos_as_xyz
1 x,y,z
2 -x,-y,-z
_cell_length_a                   10.077(13)
_cell_length_b                   13.359(18)
_cell_length_c                   14.907(19)
_cell_angle_alpha                113.113(17)
_cell_angle_beta                 90.83(3)
_cell_angle_gamma                105.165(17)
_cell_volume                     1765.82
_cell_formula_units_Z            2
loop_
_atom_site_label
_atom_site_type_symbol
_atom_site_fract_x
_atom_site_fract_y
_atom_site_fract_z
N1 N 1.5149(16) 0.4881(11) -0.8589(10)
N2 N 1.7284(16) 0.5896(11) -0.9218(10)
N3 N 1.7008(17) 0.3717(11) -1.0841(11)
N4 N 1.4703(14) 0.2929(11) -1.0045(11)
C1 C 1.426(2) 0.4003(14) -0.8453(14)
C2 C 1.394(2) 0.4393(15) -0.7483(18)
H1 H 1.3264 0.3981 -0.7232
C3 C 1.481(2) 0.5499(15) -0.6953(16)
H2 H 1.4861 0.5946 -0.6278
C4 C 1.5595(19) 0.5815(14) -0.7618(15)
C5 C 1.667(2) 0.6705(14) -0.7562(13)
C6 C 1.757(2) 0.6793(15) -0.8263(16)
C7 C 1.874(2) 0.7655(14) -0.8242(15)
H3 H 1.9089 0.8363 -0.7703
C8 C 1.931(2) 0.7350(13) -0.9078(14)
H4 H 2.0123 0.7759 -0.9221
C9 C 1.834(2) 0.6197(13) -0.9744(14)
C10 C 1.8632(19) 0.5538(12) -1.0708(13)
C11 C 1.800(2) 0.4392(15) -1.1198(15)
C12 C 1.813(2) 0.3608(13) -1.2189(14)
H5 H 1.8676 0.3815 -1.2627
C13 C 1.732(2) 0.2524(14) -1.2380(14)
H6 H 1.7278 0.1870 -1.2949
C14 C 1.655(2) 0.2547(13) -1.1583(13)
C15 C 1.561(2) 0.1689(13) -1.1417(14)
C16 C 1.4771(17) 0.1833(12) -1.0654(12)
C17 C 1.411(2) 0.1126(15) -1.0218(14)
H7 H 1.3963 0.0336 -1.0470
C18 C 1.3679(18) 0.1790(15) -0.9329(14)
H8 H 1.3223 0.1530 -0.8882
C19 C 1.4076(19) 0.2921(14) -0.9253(15)
C20 C 1.7314(19) 0.7643(13) -0.6475(14)
C21 C 1.854(2) 0.7760(16) -0.6055(15)
C22 C 1.913(2) 0.859(2) -0.5080(19)
C23 C 1.824(3) 0.9327(13) -0.4647(16)
C24 C 1.706(2) 0.927(2) -0.503(2)
C25 C 1.655(2) 0.8397(17) -0.5949(18)
F1 F 1.9321(11) 0.7079(9) -0.6467(8)
F2 F 2.0339(12) 0.8702(10) -0.4674(9)
F3 F 1.8892(11) 1.0176(9) -0.3712(8)
F4 F 1.6353(11) 0.9968(8) -0.4580(8)
F5 F 1.5266(10) 0.8296(8) -0.6377(8)
C26 C 1.9769(17) 0.6066(14) -1.1101(12)
C27 C 1.9787(18) 0.7065(13) -1.1224(13)
H9 H 1.9045 0.7377 -1.1048
C28 C 2.088(2) 0.7608(15) -1.1601(14)
C29 C 2.196(3) 0.709(2) -1.1882(18)
H10 H 2.2715 0.7456 -1.2116
C30 C 2.194(2) 0.6103(17) -1.1829(14)
H11 H 2.2646 0.5764 -1.2049
C31 C 2.084(2) 0.5593(14) -1.1442(15)
H12 H 2.0828 0.4902 -1.1408
C32 C 2.090(2) 0.8657(18) -1.1688(19)
H13 H 2.1526 0.8869 -1.2091
C33 C 2.018(3) 0.932(2) -1.128(3)
H14 H 1.9540 0.9153 -1.0873
H15 H 2.0282 0.9983 -1.1394
C34 C 1.545(2) 0.0497(13) -1.2126(14)
C35 C 1.637(2) -0.0068(14) -1.2288(14)
C36 C 1.626(2) -0.1136(14) -1.2889(15)
C37 C 1.502(3) -0.1708(17) -1.3589(18)
C38 C 1.406(2) -0.1195(18) -1.3462(18)
C39 C 1.418(2) -0.0130(13) -1.2805(14)
F6 F 1.7631(12) 0.0492(8) -1.1630(8)
F7 F 1.7262(13) -0.1642(9) -1.2956(10)
F8 F 1.4864(13) -0.2802(8) -1.4232(9)
F9 F 1.2840(13) -0.1785(9) -1.4133(10)
F10 F 1.3135(11) 0.0324(8) -1.2775(9)
loop_
_geom_bond_atom_site_label_1
_geom_bond_atom_site_label_2
_geom_bond_site_symmetry_1
_geom_bond_site_symmetry_2
N1 C1 1_555 1_555
N2 C6 1_555 1_555
N3 C11 1_555 1_555
N4 C16 1_555 1_555
C1 C2 1_555 1_555
C2 H1 1_555 1_555
C3 C2 1_555 1_555
H2 C3 1_555 1_555
C4 N1 1_555 1_555
C5 C4 1_555 1_555
C6 C5 1_555 1_555
C7 C6 1_555 1_555
H3 C7 1_555 1_555
C8 C7 1_555 1_555
H4 C8 1_555 1_555
C9 N2 1_555 1_555
C10 C9 1_555 1_555
C11 C10 1_555 1_555
C12 C11 1_555 1_555
H5 C12 1_555 1_555
C13 C12 1_555 1_555
H6 C13 1_555 1_555
C14 N3 1_555 1_555
C15 C14 1_555 1_555
C16 C15 1_555 1_555
C17 C16 1_555 1_555
H7 C17 1_555 1_555
C18 C17 1_555 1_555
H8 C18 1_555 1_555
C19 N4 1_555 1_555
C20 C5 1_555 1_555
C21 C20 1_555 1_555
C22 C21 1_555 1_555
C23 C22 1_555 1_555
C24 C23 1_555 1_555
C25 C20 1_555 1_555
F1 C21 1_555 1_555
F2 C22 1_555 1_555
F3 C23 1_555 1_555
F4 C24 1_555 1_555
F5 C25 1_555 1_555
C26 C10 1_555 1_555
C27 C26 1_555 1_555
H9 C27 1_555 1_555
C28 C27 1_555 1_555
C29 C28 1_555 1_555
H10 C29 1_555 1_555
C30 C29 1_555 1_555
H11 C30 1_555 1_555
C31 C26 1_555 1_555
H12 C31 1_555 1_555
C32 C28 1_555 1_555
H13 C32 1_555 1_555
C33 C32 1_555 1_555
H14 C33 1_555 1_555
H15 C33 1_555 1_555
C34 C15 1_555 1_555
C35 C34 1_555 1_555
C36 C35 1_555 1_555
C37 C36 1_555 1_555
C38 C37 1_555 1_555
C39 C34 1_555 1_555
F6 C35 1_555 1_555
F7 C36 1_555 1_555
F8 C37 1_555 1_555
F9 C38 1_555 1_555
F10 C39 1_555 1_555
C1 C19 1_555 1_555
C3 C4 1_555 1_555
C8 C9 1_555 1_555
C13 C14 1_555 1_555
C18 C19 1_555 1_555
C24 C25 1_555 1_555
C30 C31 1_555 1_555
C38 C39 1_555 1_555

#END
