
#######################################################################
#
#                 Cambridge Crystallographic Data Centre
#                                CCDC 
#
#######################################################################
#
# If this CIF has been generated from an entry in the Cambridge 
# Structural Database, then it will include bibliographic, chemical, 
# crystal, experimental, refinement or atomic coordinate data resulting 
# from the CCDC's data processing and validation procedures.
#
#######################################################################

data_KUHWUH
_chemical_formula_moiety         'C28 H26 N2 O3'
_chemical_name_systematic        
'Ethyl 1-acetyl-2-phenyl-1,2,5,5a-tetrahydro[1,2]diazepino[1,7-f]phenanthridine-3-carboxylate'
_symmetry_cell_setting           monoclinic
_symmetry_space_group_name_H-M   'P 21/n'
_symmetry_Int_Tables_number      14
_space_group_name_Hall           '-P 2yn'
loop_
_symmetry_equiv_pos_site_id
_symmetry_equiv_pos_as_xyz
1 x,y,z
2 1/2-x,1/2+y,1/2-z
3 -x,-y,-z
4 1/2+x,1/2-y,1/2+z
_cell_length_a                   9.4797(19)
_cell_length_b                   27.330(6)
_cell_length_c                   9.775(2)
_cell_angle_alpha                90
_cell_angle_beta                 117.10(3)
_cell_angle_gamma                90
_cell_volume                     2254.47
_exptl_crystal_colour            colorless
_exptl_crystal_description       block
_cell_formula_units_Z            4
loop_
_atom_site_label
_atom_site_type_symbol
_atom_site_fract_x
_atom_site_fract_y
_atom_site_fract_z
O1 O 0.3632(2) 0.02018(7) 0.6050(2)
O2 O -0.0216(3) 0.18362(8) 0.5547(3)
O3 O 0.2417(3) 0.17809(8) 0.6468(3)
N1 N 0.1241(2) 0.05699(7) 0.2246(2)
N2 N 0.2248(2) 0.05921(7) 0.3795(2)
C1 C 0.1827(3) 0.06232(8) 0.1177(2)
C2 C 0.3343(3) 0.04707(9) 0.1481(3)
H1 H 0.4045 0.0345 0.2465
C3 C 0.3822(3) 0.05026(10) 0.0344(3)
H2 H 0.4856 0.0397 0.0553
C4 C 0.2822(4) 0.06847(11) -0.1087(3)
H3 H 0.3149 0.0694 -0.1873
C5 C 0.1347(4) 0.08531(10) -0.1369(3)
H4 H 0.0672 0.0985 -0.2352
C6 C 0.0811(3) 0.08349(8) -0.0248(3)
C7 C -0.0706(3) 0.10396(9) -0.0466(3)
C8 C -0.1636(18) 0.1405(7) -0.1546(19)
H5 H -0.1089 0.1570 -0.2018
C9 C -0.2904(14) 0.1539(4) -0.1953(14)
H6 H -0.3428 0.1742 -0.2829
C10 C -0.3633(11) 0.1379(3) -0.1064(15)
H7 H -0.4658 0.1493 -0.1270
C11 C -0.2825(13) 0.1054(4) 0.0117(14)
H8 H -0.3343 0.0937 0.0687
C12 C -0.1345(3) 0.08912(9) 0.0512(3)
C13 C -0.0471(3) 0.05026(9) 0.1698(3)
H9 H -0.0766 0.0178 0.1171
C14 C -0.0852(3) 0.04872(10) 0.3058(3)
H10 H -0.1995 0.0415 0.2665
H11 H -0.0254 0.0214 0.3741
C15 C -0.0477(3) 0.09482(10) 0.3997(3)
H12 H -0.1319 0.1080 0.4152
C16 C 0.0882(3) 0.11957(9) 0.4639(3)
C17 C 0.2394(3) 0.10703(8) 0.4543(3)
H13 H 0.3265 0.1044 0.5618
C18 C 0.2864(3) 0.01758(8) 0.4657(3)
C19 C 0.2565(3) -0.02991(9) 0.3809(3)
H14 H 0.1457 -0.0313 0.3023
H15 H 0.2782 -0.0571 0.4532
H16 H 0.3262 -0.0325 0.3318
C20 C 0.2873(3) 0.14590(8) 0.3722(3)
C21 C 0.1782(3) 0.17544(9) 0.2609(3)
H17 H 0.0694 0.1727 0.2368
C22 C 0.2243(5) 0.20944(11) 0.1825(4)
H18 H 0.1470 0.2293 0.1045
C23 C 0.3813(5) 0.21421(14) 0.2181(5)
H19 H 0.4134 0.2374 0.1655
C24 C 0.4924(5) 0.18503(14) 0.3311(5)
H20 H 0.6013 0.1884 0.3565
C25 C 0.4462(4) 0.15074(11) 0.4080(4)
H21 H 0.5234 0.1306 0.4850
C26 C 0.0926(4) 0.16380(10) 0.5566(3)
C27 C 0.2727(11) 0.2242(3) 0.7358(9)
H22 H 0.2021 0.2252 0.7854
H23 H 0.3832 0.2234 0.8185
C28 C 0.2509(8) 0.2676(2) 0.6504(8)
H24 H 0.1399 0.2702 0.5729
H25 H 0.3191 0.2670 0.5993
H26 H 0.2787 0.2959 0.7196
C29? C 0.2472(19) 0.2136(5) 0.7632(18)
H27? H 0.3053 0.2011 0.8696
H28? H 0.1411 0.2256 0.7434
C30? C 0.3441(17) 0.2520(5) 0.7224(16)
H29? H 0.2954 0.2564 0.6107
H30? H 0.4533 0.2404 0.7595
H31? H 0.3444 0.2833 0.7714
C31? C -0.2722(16) 0.1124(5) 0.0550(16)
H32? H -0.3044 0.1037 0.1307
C32? C -0.3525(14) 0.1471(5) -0.0538(18)
H33? H -0.4465 0.1611 -0.0588
C33? C -0.2982(17) 0.1620(6) -0.1568(17)
H34? H -0.3537 0.1876 -0.2264
C34? C -0.138(2) 0.1373(9) -0.167(3)
H35? H -0.1014 0.1448 -0.2403
loop_
_geom_bond_atom_site_label_1
_geom_bond_atom_site_label_2
_geom_bond_site_symmetry_1
_geom_bond_site_symmetry_2
O1 C18 1_555 1_555
O2 C26 1_555 1_555
O3 C26 1_555 1_555
N1 N2 1_555 1_555
N2 C17 1_555 1_555
C1 N1 1_555 1_555
C2 C1 1_555 1_555
H1 C2 1_555 1_555
C3 C2 1_555 1_555
H2 C3 1_555 1_555
C4 C3 1_555 1_555
H3 C4 1_555 1_555
C5 C4 1_555 1_555
H4 C5 1_555 1_555
C6 C1 1_555 1_555
C7 C6 1_555 1_555
C8 C7 1_555 1_555
H5 C8 1_555 1_555
C9 C8 1_555 1_555
H6 C9 1_555 1_555
C10 C9 1_555 1_555
H7 C10 1_555 1_555
C11 C10 1_555 1_555
H8 C11 1_555 1_555
C12 C7 1_555 1_555
C13 N1 1_555 1_555
H9 C13 1_555 1_555
C14 C13 1_555 1_555
H10 C14 1_555 1_555
H11 C14 1_555 1_555
C15 C14 1_555 1_555
H12 C15 1_555 1_555
C16 C15 1_555 1_555
C17 C16 1_555 1_555
H13 C17 1_555 1_555
C18 N2 1_555 1_555
C19 C18 1_555 1_555
H14 C19 1_555 1_555
H15 C19 1_555 1_555
H16 C19 1_555 1_555
C20 C17 1_555 1_555
C21 C20 1_555 1_555
H17 C21 1_555 1_555
C22 C21 1_555 1_555
H18 C22 1_555 1_555
C23 C22 1_555 1_555
H19 C23 1_555 1_555
C24 C23 1_555 1_555
H20 C24 1_555 1_555
C25 C20 1_555 1_555
H21 C25 1_555 1_555
C26 C16 1_555 1_555
C27 O3 1_555 1_555
H22 C27 1_555 1_555
H23 C27 1_555 1_555
C28 C27 1_555 1_555
H24 C28 1_555 1_555
H25 C28 1_555 1_555
H26 C28 1_555 1_555
C5 C6 1_555 1_555
C11 C12 1_555 1_555
C12 C13 1_555 1_555
C24 C25 1_555 1_555

#END
