
#######################################################################
#
#                 Cambridge Crystallographic Data Centre
#                                CCDC 
#
#######################################################################
#
# If this CIF has been generated from an entry in the Cambridge 
# Structural Database, then it will include bibliographic, chemical, 
# crystal, experimental, refinement or atomic coordinate data resulting 
# from the CCDC's data processing and validation procedures.
#
#######################################################################

data_KUHXIW
_chemical_formula_moiety         'C24 H21 F1 N2 O3'
_chemical_name_systematic        
'Ethyl 5-acetyl-4-(4-fluorophenyl)-4,5-dihydro[1,2]diazepino[7,1-a]isoquinoline-3-carboxylate'
_symmetry_cell_setting           triclinic
_symmetry_space_group_name_H-M   'P -1'
_symmetry_Int_Tables_number      2
_space_group_name_Hall           '-P 1'
loop_
_symmetry_equiv_pos_site_id
_symmetry_equiv_pos_as_xyz
1 x,y,z
2 -x,-y,-z
_cell_length_a                   8.5283(17)
_cell_length_b                   11.326(2)
_cell_length_c                   11.349(2)
_cell_angle_alpha                112.58(3)
_cell_angle_beta                 97.17(3)
_cell_angle_gamma                97.42(3)
_cell_volume                     985.334
_exptl_crystal_colour            orange
_exptl_crystal_description       block
_cell_formula_units_Z            2
loop_
_atom_site_label
_atom_site_type_symbol
_atom_site_fract_x
_atom_site_fract_y
_atom_site_fract_z
F1 F 0.11149(14) 0.59189(11) 0.49542(12)
N1 N -0.40289(17) 0.87005(14) 0.69286(14)
N2 N -0.34603(18) 0.98413(14) 0.67977(14)
O1 O 0.03653(16) 1.30697(12) 1.02015(12)
O2 O 0.08639(17) 1.24934(14) 0.81776(13)
O3 O -0.39621(18) 1.17681(14) 0.68802(15)
C1 C -0.4678(2) 0.76164(17) 0.57812(17)
H1 H -0.4593 0.7656 0.4970
C2 C -0.1681(2) 1.03160(17) 0.71054(16)
H2 H -0.1435 1.0893 0.6644
C3 C -0.5419(2) 0.65215(18) 0.58095(18)
H3 H -0.5844 0.5780 0.5019
C4 C -0.0870(2) 0.91555(17) 0.65652(16)
C5 C -0.4885(2) 0.75511(17) 0.82055(17)
C6 C -0.3969(2) 0.87243(17) 0.81632(17)
C7 C 0.0092(2) 1.22796(17) 0.89290(17)
C8 C -0.3132(2) 0.97739(17) 0.92602(17)
H4 H -0.3391 0.9773 1.0050
C9 C 0.0465(2) 0.69914(18) 0.54899(18)
C10 C -0.0237(2) 0.85625(19) 0.73312(18)
H5 H -0.0267 0.8909 0.8233
C11 C -0.0812(2) 0.86332(18) 0.52441(17)
H6 H -0.1242 0.9032 0.4711
C12 C -0.1195(2) 1.11354(17) 0.85426(17)
C13 C -0.4488(2) 1.07005(18) 0.68479(17)
C14 C -0.1938(2) 1.08671(17) 0.94243(17)
H7 H -0.1615 1.1507 1.0291
C15 C -0.0143(2) 0.75495(18) 0.46957(18)
H8 H -0.0103 0.7200 0.3796
C16 C -0.5578(2) 0.64556(17) 0.70310(18)
C17 C 0.0442(2) 0.74676(19) 0.67971(19)
H9 H 0.0876 0.7061 0.7321
C18 C -0.5086(2) 0.74705(19) 0.93832(19)
H10 H -0.4631 0.8195 1.0180
C19 C -0.6424(2) 0.53322(19) 0.7082(2)
H11 H -0.6883 0.4596 0.6296
C20 C -0.5933(3) 0.6358(2) 0.9404(2)
H12 H -0.6063 0.6327 1.0211
C21 C 0.1623(2) 1.42204(18) 1.06233(19)
H13 H 0.1343 1.4779 1.0170
H14 H 0.2660 1.3967 1.0428
C22 C -0.6238(2) 1.0234(2) 0.6798(2)
H15 H -0.6729 0.9590 0.5919
H16 H -0.6792 1.0974 0.7023
H17 H -0.6332 0.9833 0.7419
C23 C -0.6599(3) 0.5279(2) 0.8247(2)
H18 H -0.7171 0.4511 0.8265
C24 C 0.1750(3) 1.4938(2) 1.2063(2)
H19 H 0.0700 1.5141 1.2246
H20 H 0.2548 1.5750 1.2379
H21 H 0.2085 1.4393 1.2503
loop_
_geom_bond_atom_site_label_1
_geom_bond_atom_site_label_2
_geom_bond_site_symmetry_1
_geom_bond_site_symmetry_2
F1 C9 1_555 1_555
N1 N2 1_555 1_555
N2 C2 1_555 1_555
O1 C7 1_555 1_555
O2 C7 1_555 1_555
O3 C13 1_555 1_555
C1 N1 1_555 1_555
H1 C1 1_555 1_555
C2 H2 1_555 1_555
C3 C1 1_555 1_555
H3 C3 1_555 1_555
C4 C2 1_555 1_555
C5 C6 1_555 1_555
C6 N1 1_555 1_555
C7 C12 1_555 1_555
C8 C6 1_555 1_555
H4 C8 1_555 1_555
C9 C15 1_555 1_555
C10 C4 1_555 1_555
H5 C10 1_555 1_555
C11 C4 1_555 1_555
H6 C11 1_555 1_555
C12 C2 1_555 1_555
C13 N2 1_555 1_555
C14 C8 1_555 1_555
H7 C14 1_555 1_555
C15 C11 1_555 1_555
H8 C15 1_555 1_555
C16 C3 1_555 1_555
C17 C9 1_555 1_555
H9 C17 1_555 1_555
C18 C5 1_555 1_555
H10 C18 1_555 1_555
C19 C16 1_555 1_555
H11 C19 1_555 1_555
C20 C18 1_555 1_555
H12 C20 1_555 1_555
C21 O1 1_555 1_555
H13 C21 1_555 1_555
H14 C21 1_555 1_555
C22 C13 1_555 1_555
H15 C22 1_555 1_555
H16 C22 1_555 1_555
H17 C22 1_555 1_555
C23 C19 1_555 1_555
H18 C23 1_555 1_555
C24 C21 1_555 1_555
H19 C24 1_555 1_555
H20 C24 1_555 1_555
H21 C24 1_555 1_555
C5 C16 1_555 1_555
C10 C17 1_555 1_555
C12 C14 1_555 1_555
C20 C23 1_555 1_555

#END
