
#######################################################################
#
#                 Cambridge Crystallographic Data Centre
#                                CCDC 
#
#######################################################################
#
# If this CIF has been generated from an entry in the Cambridge 
# Structural Database, then it will include bibliographic, chemical, 
# crystal, experimental, refinement or atomic coordinate data resulting 
# from the CCDC's data processing and validation procedures.
#
#######################################################################

data_KUHXES
_chemical_formula_moiety         'C24 H23 Br1 N2 O3'
_chemical_name_systematic        
'Ethyl 5-acetyl-4-(4-bromophenyl)-1,4,5,12b-tetrahydro[1,2]diazepino[7,1-a]isoquinoline-3-carboxylate'
_symmetry_cell_setting           triclinic
_symmetry_space_group_name_H-M   'P -1'
_symmetry_Int_Tables_number      2
_space_group_name_Hall           '-P 1'
loop_
_symmetry_equiv_pos_site_id
_symmetry_equiv_pos_as_xyz
1 x,y,z
2 -x,-y,-z
_cell_length_a                   9.3145(19)
_cell_length_b                   9.4037(19)
_cell_length_c                   12.365(3)
_cell_angle_alpha                103.68(3)
_cell_angle_beta                 92.51(3)
_cell_angle_gamma                95.23(3)
_cell_volume                     1045.56
_exptl_crystal_colour            colorless
_exptl_crystal_description       plate
_cell_formula_units_Z            2
loop_
_atom_site_label
_atom_site_type_symbol
_atom_site_fract_x
_atom_site_fract_y
_atom_site_fract_z
Br1 Br 0.13993(3) 1.24957(2) 0.13647(2)
O1 O -0.10046(16) 0.57590(17) 0.35541(13)
O2 O 0.27022(15) 0.56696(15) 0.12615(11)
O3 O 0.48876(17) 0.5302(2) 0.19106(13)
N1 N 0.17908(18) 0.81583(17) 0.51866(13)
N2 N 0.10580(17) 0.72177(17) 0.42542(13)
C1 C 0.3570(2) 1.0338(3) 0.91043(18)
H1 H 0.3774 1.0954 0.9813
C2 C 0.3397(2) 1.0937(2) 0.81927(18)
H2 H 0.3484 1.1953 0.8292
C3 C 0.3090(2) 1.0022(2) 0.71221(17)
C4 C 0.3023(2) 0.8489(2) 0.69893(16)
C5 C 0.3189(2) 0.7902(3) 0.79114(18)
H3 H 0.3129 0.6887 0.7820
C6 C 0.3442(2) 0.8829(3) 0.89671(19)
H4 H 0.3526 0.8434 0.9587
C7 C 0.2796(2) 0.7504(2) 0.58192(16)
H5 H 0.2357 0.6532 0.5860
C8 C 0.1958(2) 0.9657(2) 0.52735(16)
H6 H 0.1580 1.0027 0.4700
C9 C 0.2658(2) 1.0587(2) 0.61740(17)
H7 H 0.2864 1.1579 0.6191
C10 C 0.4231(2) 0.7331(2) 0.52745(18)
H8 H 0.4732 0.8306 0.5364
H9 H 0.4812 0.6808 0.5689
C11 C 0.4188(2) 0.6552(2) 0.40608(18)
H10 H 0.5009 0.6083 0.3864
C12 C 0.3210(2) 0.6398(2) 0.32087(16)
C13 C 0.1722(2) 0.6926(2) 0.31748(15)
H11 H 0.1095 0.6127 0.2671
C14 C -0.0312(2) 0.6585(2) 0.43552(16)
C15 C -0.0885(2) 0.6939(2) 0.54961(18)
H12 H -0.1882 0.6549 0.5447
H13 H -0.0804 0.7987 0.5784
H14 H -0.0336 0.6506 0.5986
C16 C 0.1706(2) 0.8262(2) 0.26729(15)
C17 C 0.0403(2) 0.8564(2) 0.22322(16)
H15 H -0.0424 0.7924 0.2217
C18 C 0.0309(2) 0.9798(2) 0.18140(17)
H16 H -0.0567 0.9986 0.1516
C19 C 0.1548(2) 1.0743(2) 0.18493(17)
C20 C 0.2870(2) 1.0470(2) 0.22637(17)
H17 H 0.3696 1.1107 0.2267
C21 C 0.2937(2) 0.9219(2) 0.26760(17)
H18 H 0.3820 0.9021 0.2958
C22 C 0.3710(2) 0.5718(2) 0.20796(17)
C23 C 0.3111(2) 0.5148(2) 0.01262(17)
H19 H 0.3449 0.4184 0.0028
H20 H 0.3881 0.5819 -0.0034
C24 C 0.1808(2) 0.5070(3) -0.06378(18)
H21 H 0.1064 0.4379 -0.0489
H22 H 0.2054 0.4757 -0.1397
H23 H 0.1466 0.6024 -0.0520
loop_
_geom_bond_atom_site_label_1
_geom_bond_atom_site_label_2
_geom_bond_site_symmetry_1
_geom_bond_site_symmetry_2
Br1 C19 1_555 1_555
O1 C14 1_555 1_555
O2 C22 1_555 1_555
O3 C22 1_555 1_555
N1 N2 1_555 1_555
N2 C13 1_555 1_555
C1 H1 1_555 1_555
C2 C1 1_555 1_555
H2 C2 1_555 1_555
C3 C2 1_555 1_555
C4 C3 1_555 1_555
C5 C4 1_555 1_555
H3 C5 1_555 1_555
C6 C1 1_555 1_555
H4 C6 1_555 1_555
C7 N1 1_555 1_555
H5 C7 1_555 1_555
C8 N1 1_555 1_555
H6 C8 1_555 1_555
C9 C3 1_555 1_555
H7 C9 1_555 1_555
C10 C7 1_555 1_555
H8 C10 1_555 1_555
H9 C10 1_555 1_555
C11 C10 1_555 1_555
H10 C11 1_555 1_555
C12 C11 1_555 1_555
C13 C12 1_555 1_555
H11 C13 1_555 1_555
C14 N2 1_555 1_555
C15 C14 1_555 1_555
H12 C15 1_555 1_555
H13 C15 1_555 1_555
H14 C15 1_555 1_555
C16 C13 1_555 1_555
C17 C16 1_555 1_555
H15 C17 1_555 1_555
C18 C17 1_555 1_555
H16 C18 1_555 1_555
C19 C18 1_555 1_555
C20 C19 1_555 1_555
H17 C20 1_555 1_555
C21 C16 1_555 1_555
H18 C21 1_555 1_555
C22 C12 1_555 1_555
C23 O2 1_555 1_555
H19 C23 1_555 1_555
H20 C23 1_555 1_555
C24 C23 1_555 1_555
H21 C24 1_555 1_555
H22 C24 1_555 1_555
H23 C24 1_555 1_555
C4 C7 1_555 1_555
C5 C6 1_555 1_555
C8 C9 1_555 1_555
C20 C21 1_555 1_555

#END
