
#######################################################################
#
#                 Cambridge Crystallographic Data Centre
#                                CCDC 
#
#######################################################################
#
# If this CIF has been generated from an entry in the Cambridge 
# Structural Database, then it will include bibliographic, chemical, 
# crystal, experimental, refinement or atomic coordinate data resulting 
# from the CCDC's data processing and validation procedures.
#
#######################################################################

data_KUJFUR
_chemical_formula_moiety         'C15 H13 Br1 N2 O1 S1'
_chemical_name_systematic        
N-((4-Bromophenyl)carbamothioyl)-2-phenylacetamide
_symmetry_cell_setting           monoclinic
_symmetry_space_group_name_H-M   'C 2/c'
_symmetry_Int_Tables_number      15
_space_group_name_Hall           '-C 2yn'
loop_
_symmetry_equiv_pos_site_id
_symmetry_equiv_pos_as_xyz
1 x,y,z
2 -x,y,1/2-z
3 1/2+x,1/2+y,z
4 1/2-x,1/2+y,1/2-z
5 -x,-y,-z
6 x,-y,1/2+z
7 1/2-x,1/2-y,-z
8 1/2+x,1/2-y,1/2+z
_cell_length_a                   21.442(5)
_cell_length_b                   12.208(2)
_cell_length_c                   11.955(2)
_cell_angle_alpha                90
_cell_angle_beta                 109.375(4)
_cell_angle_gamma                90
_cell_volume                     2952.16
_exptl_crystal_colour            colorless
_exptl_crystal_description       block
_chemical_melting_point          179-180deg.C
_cell_formula_units_Z            8
_exptl_crystal_recrystallization_method acetone
loop_
_atom_site_label
_atom_site_type_symbol
_atom_site_fract_x
_atom_site_fract_y
_atom_site_fract_z
Br1 Br 0.461741(19) 0.16655(3) 0.42424(4)
S1 S 0.67222(5) 0.62977(7) 0.42369(7)
C1 C 0.59959(12) 0.4673(2) 0.5624(2)
O1 O 0.68629(13) 0.67163(17) 0.80942(19)
C2 C 0.74996(17) 0.8316(2) 0.8092(3)
H1 H 0.7738 0.8196 0.8927
H2 H 0.7819 0.8496 0.7705
N1 N 0.70883(12) 0.7081(2) 0.6404(2)
N2 N 0.64077(12) 0.55802(19) 0.6116(2)
C3 C 0.67291(13) 0.6275(2) 0.5638(2)
C4 C 0.55617(13) 0.4344(2) 0.6200(2)
H3 H 0.5546 0.4730 0.6860
C5 C 0.71317(14) 0.7286(2) 0.7553(2)
C6 C 0.51820(14) 0.2885(2) 0.4817(3)
C7 C 0.51547(16) 0.3453(2) 0.5804(3)
H4 H 0.4865 0.3235 0.6193
C8 C 0.60306(15) 0.4086(2) 0.4656(3)
H5 H 0.6328 0.4290 0.4278
C9 C 0.70222(16) 0.9246(2) 0.7951(2)
C10 C 0.56191(15) 0.3192(2) 0.4255(3)
H6 H 0.5639 0.2797 0.3602
C11 C 0.68679(18) 0.9940(3) 0.6977(3)
H7 H 0.7082 0.9854 0.6423
C12 C 0.6402(2) 1.0756(3) 0.6818(4)
H8 H 0.6304 1.1211 0.6159
C13 C 0.6692(2) 0.9392(3) 0.8754(3)
H9 H 0.6787 0.8935 0.9411
C14 C 0.6083(2) 1.0897(3) 0.7626(4)
H10 H 0.5773 1.1455 0.7526
C15 C 0.6225(3) 1.0200(4) 0.8600(4)
H11 H 0.6004 1.0281 0.9146
H12 H 0.7280(15) 0.745(3) 0.614(2)
H13 H 0.6429(14) 0.573(2) 0.671(2)
loop_
_geom_bond_atom_site_label_1
_geom_bond_atom_site_label_2
_geom_bond_site_symmetry_1
_geom_bond_site_symmetry_2
Br1 C6 1_555 1_555
S1 C3 1_555 1_555
C1 N2 1_555 1_555
O1 C5 1_555 1_555
C2 H1 1_555 1_555
H2 C2 1_555 1_555
N1 C3 1_555 1_555
N2 C3 1_555 1_555
C4 C1 1_555 1_555
H3 C4 1_555 1_555
C5 C2 1_555 1_555
C6 C7 1_555 1_555
C7 C4 1_555 1_555
H4 C7 1_555 1_555
C8 C1 1_555 1_555
H5 C8 1_555 1_555
C9 C2 1_555 1_555
C10 C6 1_555 1_555
H6 C10 1_555 1_555
C11 C9 1_555 1_555
H7 C11 1_555 1_555
C12 C11 1_555 1_555
H8 C12 1_555 1_555
C13 C9 1_555 1_555
H9 C13 1_555 1_555
C14 C12 1_555 1_555
H10 C14 1_555 1_555
C15 C13 1_555 1_555
H11 C15 1_555 1_555
H12 N1 1_555 1_555
H13 N2 1_555 1_555
N1 C5 1_555 1_555
C8 C10 1_555 1_555
C14 C15 1_555 1_555

#END
