
#######################################################################
#
#                 Cambridge Crystallographic Data Centre
#                                CCDC 
#
#######################################################################
#
# If this CIF has been generated from an entry in the Cambridge 
# Structural Database, then it will include bibliographic, chemical, 
# crystal, experimental, refinement or atomic coordinate data resulting 
# from the CCDC's data processing and validation procedures.
#
#######################################################################

data_KUJJOQ
_chemical_formula_moiety         'C33 H26 Br1 N1 O2 S1'
_chemical_name_systematic        
6-bromo-8-methyl-4-methylene-2-((4-methylphenyl)sulfonyl)-3,9-diphenyl-3,4-dihydro-2H-indeno[1,7-cd]azepine
_symmetry_cell_setting           monoclinic
_symmetry_space_group_name_H-M   'P 21/n'
_symmetry_Int_Tables_number      14
_space_group_name_Hall           '-P 2yn'
loop_
_symmetry_equiv_pos_site_id
_symmetry_equiv_pos_as_xyz
1 x,y,z
2 1/2-x,1/2+y,1/2-z
3 -x,-y,-z
4 1/2+x,1/2-y,1/2+z
_cell_length_a                   10.4412(7)
_cell_length_b                   17.6955(12)
_cell_length_c                   15.3575(11)
_cell_angle_alpha                90
_cell_angle_beta                 100.2040(10)
_cell_angle_gamma                90
_cell_volume                     2792.61
_exptl_crystal_colour            yellow
_cell_formula_units_Z            4
loop_
_atom_site_label
_atom_site_type_symbol
_atom_site_fract_x
_atom_site_fract_y
_atom_site_fract_z
Br1 Br -0.01944(4) 0.76834(2) 0.59557(2)
S1 S 0.60103(5) 0.47208(3) 0.85358(4)
O1 O 0.66626(16) 0.42327(11) 0.80215(12)
N1 N 0.45057(17) 0.48199(11) 0.79625(12)
C1 C 0.2116(3) 0.51139(15) 0.50561(16)
O2 O 0.58997(16) 0.45182(10) 0.94168(11)
C2 C 0.2991(2) 0.46498(14) 0.55360(15)
C3 C 0.3351(2) 0.49414(13) 0.64505(15)
C4 C 0.2577(2) 0.56235(13) 0.64826(14)
C5 C 0.2537(2) 0.61387(13) 0.71587(15)
C6 C 0.1683(3) 0.67540(14) 0.69752(17)
H1 H 0.1608 0.7101 0.7418
C7 C 0.0956(3) 0.68457(15) 0.61416(18)
C8 C 0.1022(3) 0.63516(16) 0.54536(18)
H2 H 0.0537 0.6432 0.4893
C9 C 0.1835(2) 0.57348(14) 0.56298(15)
C10 C 0.1474(3) 0.50380(18) 0.41065(18)
H3 H 0.0894 0.5456 0.3946
H4 H 0.0990 0.4574 0.4028
H5 H 0.2125 0.5035 0.3737
C11 C 0.3512(2) 0.39306(15) 0.52463(15)
C12 C 0.4338(3) 0.39132(19) 0.46409(19)
H6 H 0.4592 0.4364 0.4411
C13 C 0.4794(3) 0.3239(2) 0.4370(2)
H7 H 0.5350 0.3238 0.3959
C14 C 0.4436(4) 0.2572(2) 0.4701(2)
H8 H 0.4743 0.2117 0.4515
C15 C 0.3626(4) 0.25762(19) 0.5307(3)
H9 H 0.3378 0.2122 0.5533
C16 C 0.3173(3) 0.32528(17) 0.5586(2)
H10 H 0.2633 0.3251 0.6007
C17 C 0.3552(2) 0.52338(14) 0.83880(15)
H11 H 0.3931 0.5272 0.9017
C18 C 0.3321(2) 0.60388(14) 0.80492(15)
C19 C 0.4259(2) 0.46269(13) 0.70715(14)
H12 H 0.4768 0.4247 0.6890
C20 C 0.3777(3) 0.66138(17) 0.85599(19)
H13 H 0.3608 0.7106 0.8362
H14 H 0.4268 0.6526 0.9118
C21 C 0.2293(2) 0.47849(16) 0.83331(16)
C22 C 0.2192(3) 0.40292(18) 0.8139(2)
H15 H 0.2917 0.3767 0.8027
C23 C 0.1021(4) 0.3650(2) 0.8107(2)
H16 H 0.0968 0.3138 0.7968
C24 C -0.0048(4) 0.4020(3) 0.8277(3)
H17 H -0.0838 0.3769 0.8241
C25 C 0.0057(4) 0.4758(3) 0.8498(4)
H18 H -0.0661 0.5010 0.8639
C26 C 0.1211(3) 0.5146(2) 0.8520(3)
H19 H 0.1255 0.5657 0.8663
C27 C 0.6683(2) 0.56283(14) 0.85469(15)
C28 C 0.6922(3) 0.59296(19) 0.77624(19)
H20 H 0.6781 0.5643 0.7247
C29 C 0.7372(3) 0.6661(2) 0.7753(2)
H21 H 0.7543 0.6862 0.7226
C30 C 0.7576(3) 0.71037(18) 0.8506(2)
C31 C 0.7354(3) 0.67860(18) 0.9280(2)
H22 H 0.7510 0.7070 0.9798
C32 C 0.6900(3) 0.60503(16) 0.93096(18)
H23 H 0.6746 0.5846 0.9839
C33 C 0.8010(4) 0.7914(2) 0.8461(3)
H24 H 0.8107 0.8032 0.7866
H25 H 0.8829 0.7982 0.8850
H26 H 0.7372 0.8242 0.8638
loop_
_geom_bond_atom_site_label_1
_geom_bond_atom_site_label_2
_geom_bond_site_symmetry_1
_geom_bond_site_symmetry_2
Br1 C7 1_555 1_555
S1 O1 1_555 1_555
N1 S1 1_555 1_555
C1 C2 1_555 1_555
O2 S1 1_555 1_555
C2 C3 1_555 1_555
C3 C4 1_555 1_555
C4 C5 1_555 1_555
C5 C6 1_555 1_555
C6 H1 1_555 1_555
C7 C6 1_555 1_555
C8 C7 1_555 1_555
H2 C8 1_555 1_555
C9 C1 1_555 1_555
C10 C1 1_555 1_555
H3 C10 1_555 1_555
H4 C10 1_555 1_555
H5 C10 1_555 1_555
C11 C2 1_555 1_555
C12 C11 1_555 1_555
H6 C12 1_555 1_555
C13 C12 1_555 1_555
H7 C13 1_555 1_555
C14 C13 1_555 1_555
H8 C14 1_555 1_555
C15 C14 1_555 1_555
H9 C15 1_555 1_555
C16 C11 1_555 1_555
H10 C16 1_555 1_555
C17 N1 1_555 1_555
H11 C17 1_555 1_555
C18 C5 1_555 1_555
C19 N1 1_555 1_555
H12 C19 1_555 1_555
C20 C18 1_555 1_555
H13 C20 1_555 1_555
H14 C20 1_555 1_555
C21 C17 1_555 1_555
C22 C21 1_555 1_555
H15 C22 1_555 1_555
C23 C22 1_555 1_555
H16 C23 1_555 1_555
C24 C23 1_555 1_555
H17 C24 1_555 1_555
C25 C24 1_555 1_555
H18 C25 1_555 1_555
C26 C21 1_555 1_555
H19 C26 1_555 1_555
C27 S1 1_555 1_555
C28 C27 1_555 1_555
H20 C28 1_555 1_555
C29 C28 1_555 1_555
H21 C29 1_555 1_555
C30 C29 1_555 1_555
C31 C30 1_555 1_555
H22 C31 1_555 1_555
C32 C27 1_555 1_555
H23 C32 1_555 1_555
C33 C30 1_555 1_555
H24 C33 1_555 1_555
H25 C33 1_555 1_555
H26 C33 1_555 1_555
C3 C19 1_555 1_555
C4 C9 1_555 1_555
C8 C9 1_555 1_555
C15 C16 1_555 1_555
C17 C18 1_555 1_555
C25 C26 1_555 1_555
C31 C32 1_555 1_555

#END
