
#######################################################################
#
#                 Cambridge Crystallographic Data Centre
#                                CCDC 
#
#######################################################################
#
# If this CIF has been generated from an entry in the Cambridge 
# Structural Database, then it will include bibliographic, chemical, 
# crystal, experimental, refinement or atomic coordinate data resulting 
# from the CCDC's data processing and validation procedures.
#
#######################################################################

data_KUJNIO
_chemical_formula_moiety         'C8 H7 O2 1-,C3 H10 N1 1+'
_chemical_name_systematic        'propan-2-aminium 4-methylbenzoate'
_symmetry_cell_setting           monoclinic
_symmetry_space_group_name_H-M   'P 21/n'
_symmetry_Int_Tables_number      14
_space_group_name_Hall           '-P 2yn'
loop_
_symmetry_equiv_pos_site_id
_symmetry_equiv_pos_as_xyz
1 x,y,z
2 1/2-x,1/2+y,1/2-z
3 -x,-y,-z
4 1/2+x,1/2-y,1/2+z
_cell_length_a                   14.4023(13)
_cell_length_b                   6.4561(5)
_cell_length_c                   14.4041(15)
_cell_angle_alpha                90
_cell_angle_beta                 119.039(2)
_cell_angle_gamma                90
_cell_volume                     1170.96
_exptl_crystal_colour            colorless
_exptl_crystal_description       block
_cell_formula_units_Z            4
loop_
_atom_site_label
_atom_site_type_symbol
_atom_site_fract_x
_atom_site_fract_y
_atom_site_fract_z
N1 N 0.3238(2) 0.1948(4) 0.7315(2)
H1 H 0.3030 0.0974 0.6816
H2 H 0.3049 0.3187 0.7009
H3 H 0.2933 0.1731 0.7716
C1 C 0.4423(3) 0.1866(6) 0.7995(3)
H4 H 0.4746 0.2096 0.7541
C2 C 0.4740(4) -0.0259(7) 0.8487(4)
H5 H 0.5500 -0.0344 0.8892
H6 H 0.4481 -0.1288 0.7937
H7 H 0.4441 -0.0497 0.8945
C3 C 0.4774(4) 0.3599(7) 0.8810(4)
H8 H 0.4494 0.3357 0.9285
H9 H 0.4514 0.4899 0.8454
H10 H 0.5535 0.3635 0.9207
O1 O 0.2731(2) 0.8972(4) 0.5800(2)
O2 O 0.2597(2) 0.5855(4) 0.63687(19)
C4 C 0.2788(3) 0.7049(6) 0.5783(3)
C5 C 0.3082(3) 0.6085(5) 0.5014(2)
C6 C 0.3610(3) 0.7237(6) 0.4600(3)
H11 H 0.3775 0.8615 0.4801
C7 C 0.3896(3) 0.6373(7) 0.3892(3)
H12 H 0.4256 0.7180 0.3635
C8 C 0.3659(3) 0.4359(8) 0.3564(3)
C9 C 0.3116(3) 0.3194(6) 0.3960(3)
H13 H 0.2930 0.1833 0.3735
C10 C 0.2846(3) 0.4043(6) 0.4691(3)
H14 H 0.2504 0.3224 0.4964
C11 C 0.3977(4) 0.3387(8) 0.2789(3)
H15 H 0.3572 0.4010 0.2101
H16 H 0.3839 0.1925 0.2738
H17 H 0.4720 0.3618 0.3041
loop_
_geom_bond_atom_site_label_1
_geom_bond_atom_site_label_2
_geom_bond_site_symmetry_1
_geom_bond_site_symmetry_2
N1 H1 1_555 1_555
H2 N1 1_555 1_555
H3 N1 1_555 1_555
C1 N1 1_555 1_555
H4 C1 1_555 1_555
C2 C1 1_555 1_555
H5 C2 1_555 1_555
H6 C2 1_555 1_555
H7 C2 1_555 1_555
C3 C1 1_555 1_555
H8 C3 1_555 1_555
H9 C3 1_555 1_555
H10 C3 1_555 1_555
O1 C4 1_555 1_555
O2 C4 1_555 1_555
C4 C5 1_555 1_555
C5 C6 1_555 1_555
C6 H11 1_555 1_555
C7 C6 1_555 1_555
H12 C7 1_555 1_555
C8 C7 1_555 1_555
C9 C8 1_555 1_555
H13 C9 1_555 1_555
C10 C5 1_555 1_555
H14 C10 1_555 1_555
C11 C8 1_555 1_555
H15 C11 1_555 1_555
H16 C11 1_555 1_555
H17 C11 1_555 1_555
C9 C10 1_555 1_555

#END
