
#######################################################################
#
#                 Cambridge Crystallographic Data Centre
#                                CCDC 
#
#######################################################################
#
# If this CIF has been generated from an entry in the Cambridge 
# Structural Database, then it will include bibliographic, chemical, 
# crystal, experimental, refinement or atomic coordinate data resulting 
# from the CCDC's data processing and validation procedures.
#
#######################################################################

data_KUJPEL
_chemical_formula_moiety         'C16 H36 N1 1+,C13 H10 F1 O4 S2 1-'
_chemical_name_systematic        
'Tetra-n-butylammonium \a-fluoro-bis(phenylsulfonyl)methanide'
_symmetry_cell_setting           triclinic
_symmetry_space_group_name_H-M   'P -1'
_symmetry_Int_Tables_number      2
_space_group_name_Hall           '-P 1'
loop_
_symmetry_equiv_pos_site_id
_symmetry_equiv_pos_as_xyz
1 x,y,z
2 -x,-y,-z
_cell_length_a                   10.7312(15)
_cell_length_b                   11.3434(16)
_cell_length_c                   12.4291(18)
_cell_angle_alpha                82.923(2)
_cell_angle_beta                 89.493(2)
_cell_angle_gamma                84.532(2)
_cell_volume                     1494.61
_exptl_crystal_colour            colorless
_exptl_crystal_description       plate
_cell_formula_units_Z            2
loop_
_atom_site_label
_atom_site_type_symbol
_atom_site_fract_x
_atom_site_fract_y
_atom_site_fract_z
C1 C 0.22781(13) 0.30621(13) 0.63984(10)
H1 H 0.1475 0.2725 0.6587
H2 H 0.2099 0.3940 0.6264
C2 C 0.31461(13) 0.27658(14) 0.73772(11)
H3 H 0.3947 0.3118 0.7220
H4 H 0.3329 0.1890 0.7538
C3 C 0.25195(14) 0.32650(15) 0.83516(12)
H5 H 0.2316 0.4136 0.8169
H6 H 0.1722 0.2903 0.8499
C4 C 0.33174(16) 0.30385(16) 0.93730(12)
H7 H 0.3495 0.2177 0.9578
H8 H 0.2866 0.3391 0.9962
H9 H 0.4106 0.3401 0.9238
C5 C 0.31268(13) 0.12855(12) 0.55024(11)
H10 H 0.3464 0.1051 0.4808
H11 H 0.3813 0.1118 0.6043
C6 C 0.20884(14) 0.05083(13) 0.58695(12)
H12 H 0.1439 0.0591 0.5297
H13 H 0.1692 0.0774 0.6532
C7 C 0.26132(14) -0.07924(13) 0.61027(12)
H14 H 0.3055 -0.1037 0.5452
H15 H 0.3230 -0.0875 0.6701
C8 C 0.15949(17) -0.16162(15) 0.64122(15)
H16 H 0.1157 -0.1380 0.7058
H17 H 0.1974 -0.2440 0.6566
H18 H 0.0998 -0.1559 0.5812
C9 C 0.38842(12) 0.32606(13) 0.49695(11)
H19 H 0.3676 0.4128 0.4979
H20 H 0.4573 0.3001 0.5495
C10 C 0.43517(13) 0.30517(13) 0.38445(11)
H21 H 0.4718 0.2215 0.3857
H22 H 0.3641 0.3184 0.3328
C11 C 0.53326(15) 0.38925(14) 0.34714(12)
H23 H 0.6074 0.3710 0.3952
H24 H 0.4990 0.4725 0.3526
C12 C 0.57283(19) 0.37761(17) 0.23048(14)
H25 H 0.6099 0.2961 0.2256
H26 H 0.6346 0.4341 0.2081
H27 H 0.4994 0.3952 0.1828
C13 C 0.16805(12) 0.28835(12) 0.45211(11)
H28 H 0.1910 0.2453 0.3891
H29 H 0.0924 0.2556 0.4852
C14 C 0.13521(13) 0.41974(12) 0.41128(12)
H30 H 0.2096 0.4538 0.3771
H31 H 0.1099 0.4639 0.4731
C15 C 0.02847(14) 0.43398(14) 0.32880(12)
H32 H -0.0429 0.3937 0.3620
H33 H 0.0003 0.5199 0.3118
C16 C 0.06336(19) 0.38341(17) 0.22388(14)
H34 H 0.1374 0.4188 0.1927
H35 H -0.0066 0.4021 0.1725
H36 H 0.0818 0.2966 0.2387
N1 N 0.27463(10) 0.26224(10) 0.53489(9)
C17 C 0.20006(15) 0.89819(14) 0.33242(12)
C18 C 0.28479(15) 0.98031(13) 0.12051(11)
C19 C 0.17605(19) 1.03661(16) 0.07136(15)
H37 H 0.1155 1.0795 0.1116
C20 C 0.1573(3) 1.0291(2) -0.03811(19)
H38 H 0.0823 1.0654 -0.0728
C21 C 0.2465(4) 0.9696(2) -0.09615(17)
H39 H 0.2334 0.9658 -0.1711
C22 C 0.3539(3) 0.9159(2) -0.04725(18)
H40 H 0.4155 0.8758 -0.0886
C23 C 0.3740(2) 0.91922(17) 0.06260(15)
H41 H 0.4479 0.8801 0.0971
C24 C 0.20761(13) 0.69636(12) 0.21240(11)
C25 C 0.09811(14) 0.72033(15) 0.15182(12)
H42 H 0.0257 0.7595 0.1811
C26 C 0.09506(16) 0.68679(18) 0.04836(13)
H43 H 0.0205 0.7035 0.0063
C27 C 0.20025(16) 0.62920(17) 0.00639(13)
H44 H 0.1976 0.6054 -0.0641
C28 C 0.30886(16) 0.60614(16) 0.06629(14)
H45 H 0.3810 0.5669 0.0367
C29 C 0.31370(14) 0.63985(14) 0.16991(13)
H46 H 0.3889 0.6243 0.2111
F1 F 0.07890(9) 0.94587(9) 0.29955(9)
O1 O 0.42995(12) 0.92504(13) 0.28949(11)
O2 O 0.27639(15) 1.10285(11) 0.27944(10)
O3 O 0.32826(11) 0.69621(11) 0.39117(9)
O4 O 0.09595(11) 0.71210(11) 0.39460(9)
S1 S 0.21067(3) 0.74556(3) 0.34255(3)
S2 S 0.30662(4) 0.98095(3) 0.26139(3)
loop_
_geom_bond_atom_site_label_1
_geom_bond_atom_site_label_2
_geom_bond_site_symmetry_1
_geom_bond_site_symmetry_2
C1 H1 1_555 1_555
H2 C1 1_555 1_555
C2 C1 1_555 1_555
H3 C2 1_555 1_555
H4 C2 1_555 1_555
C3 C2 1_555 1_555
H5 C3 1_555 1_555
H6 C3 1_555 1_555
C4 C3 1_555 1_555
H7 C4 1_555 1_555
H8 C4 1_555 1_555
H9 C4 1_555 1_555
C5 H10 1_555 1_555
H11 C5 1_555 1_555
C6 C5 1_555 1_555
H12 C6 1_555 1_555
H13 C6 1_555 1_555
C7 C6 1_555 1_555
H14 C7 1_555 1_555
H15 C7 1_555 1_555
C8 C7 1_555 1_555
H16 C8 1_555 1_555
H17 C8 1_555 1_555
H18 C8 1_555 1_555
C9 H19 1_555 1_555
H20 C9 1_555 1_555
C10 C9 1_555 1_555
H21 C10 1_555 1_555
H22 C10 1_555 1_555
C11 C10 1_555 1_555
H23 C11 1_555 1_555
H24 C11 1_555 1_555
C12 C11 1_555 1_555
H25 C12 1_555 1_555
H26 C12 1_555 1_555
H27 C12 1_555 1_555
C13 H28 1_555 1_555
H29 C13 1_555 1_555
C14 C13 1_555 1_555
H30 C14 1_555 1_555
H31 C14 1_555 1_555
C15 C14 1_555 1_555
H32 C15 1_555 1_555
H33 C15 1_555 1_555
C16 C15 1_555 1_555
H34 C16 1_555 1_555
H35 C16 1_555 1_555
H36 C16 1_555 1_555
C17 F1 1_555 1_555
C18 C19 1_555 1_555
C19 H37 1_555 1_555
C20 C19 1_555 1_555
H38 C20 1_555 1_555
C21 C20 1_555 1_555
H39 C21 1_555 1_555
C22 C21 1_555 1_555
H40 C22 1_555 1_555
C23 C18 1_555 1_555
H41 C23 1_555 1_555
C24 C25 1_555 1_555
C25 H42 1_555 1_555
C26 C25 1_555 1_555
H43 C26 1_555 1_555
C27 C26 1_555 1_555
H44 C27 1_555 1_555
C28 C27 1_555 1_555
H45 C28 1_555 1_555
C29 C24 1_555 1_555
H46 C29 1_555 1_555
N1 C1 1_555 1_555
O1 S2 1_555 1_555
O2 S2 1_555 1_555
O3 S1 1_555 1_555
O4 S1 1_555 1_555
S1 C17 1_555 1_555
S2 C17 1_555 1_555
C5 N1 1_555 1_555
C9 N1 1_555 1_555
C13 N1 1_555 1_555
C18 S2 1_555 1_555
C22 C23 1_555 1_555
C24 S1 1_555 1_555
C28 C29 1_555 1_555

#END
