
#######################################################################
#
#                 Cambridge Crystallographic Data Centre
#                                CCDC 
#
#######################################################################
#
# If this CIF has been generated from an entry in the Cambridge 
# Structural Database, then it will include bibliographic, chemical, 
# crystal, experimental, refinement or atomic coordinate data resulting 
# from the CCDC's data processing and validation procedures.
#
#######################################################################

data_KUJQEN
_chemical_formula_moiety         'C16 H18 N2 O6 2-,2(C3 H10 N1 1+),2(H2 O1)'
_chemical_name_systematic        
'bis(propan-2-aminium) 2,5-bis(isopropylcarbamoyl)terephthalate dihydrate'
_symmetry_cell_setting           triclinic
_symmetry_space_group_name_H-M   'P -1'
_symmetry_Int_Tables_number      2
_space_group_name_Hall           '-P 1'
loop_
_symmetry_equiv_pos_site_id
_symmetry_equiv_pos_as_xyz
1 x,y,z
2 -x,-y,-z
_cell_length_a                   6.2854(7)
_cell_length_b                   8.6770(8)
_cell_length_c                   12.7738(15)
_cell_angle_alpha                98.3100(10)
_cell_angle_beta                 102.629(2)
_cell_angle_gamma                92.1370(10)
_cell_volume                     670.956
_exptl_crystal_colour            colorless
_exptl_crystal_description       block
_cell_formula_units_Z            1
loop_
_atom_site_label
_atom_site_type_symbol
_atom_site_fract_x
_atom_site_fract_y
_atom_site_fract_z
N1 N 0.2080(10) 0.4376(8) 0.2492(4)
H1 H 0.2864 0.3838 0.2925
O1 O -0.0418(9) 0.6194(6) 0.2322(4)
O2 O 0.4051(9) 0.7420(6) 0.4125(4)
O3 O 0.5368(9) 0.7245(6) 0.5867(4)
C1 C 0.0703(13) 0.5324(9) 0.2863(6)
C2 C 0.3925(13) 0.6928(9) 0.4970(6)
C3 C 0.1910(12) 0.5915(9) 0.4964(5)
C4 C 0.0469(12) 0.5184(9) 0.4001(5)
C5 C -0.1385(12) 0.4303(9) 0.4048(6)
H2 H -0.2318 0.3837 0.3401
C6 C 0.2296(13) 0.4227(10) 0.1351(6)
H3 H 0.2086 0.5247 0.1116
C7 C 0.4553(16) 0.3781(14) 0.1260(8)
H4 H 0.5621 0.4569 0.1697
H5 H 0.4659 0.3693 0.0515
H6 H 0.4815 0.2798 0.1509
C8 C 0.0539(15) 0.3048(12) 0.0601(7)
H7 H 0.0830 0.2014 0.0751
H8 H 0.0559 0.3100 -0.0142
H9 H -0.0871 0.3291 0.0725
N1A N -0.2080(10) 0.5624(8) 0.7508(4)
H1A H -0.2864 0.6162 0.7075
O1A O 0.0418(9) 0.3806(6) 0.7678(4)
O2A O -0.4051(9) 0.2580(6) 0.5875(4)
O3A O -0.5368(9) 0.2755(6) 0.4133(4)
C1A C -0.0703(13) 0.4676(9) 0.7137(6)
C2A C -0.3925(13) 0.3072(9) 0.5030(6)
C3A C -0.1910(12) 0.4085(9) 0.5036(5)
C4A C -0.0469(12) 0.4816(9) 0.5999(5)
C5A C 0.1385(12) 0.5697(9) 0.5952(6)
H2A H 0.2318 0.6163 0.6599
C6A C -0.2296(13) 0.5773(10) 0.8649(6)
H3A H -0.2086 0.4753 0.8884
C7A C -0.4553(16) 0.6219(14) 0.8740(8)
H4A H -0.5621 0.5431 0.8303
H5A H -0.4659 0.6307 0.9485
H6A H -0.4815 0.7202 0.8491
C8A C -0.0539(15) 0.6952(12) 0.9399(7)
H7A H -0.0830 0.7986 0.9249
H8A H -0.0559 0.6900 1.0142
H9A H 0.0871 0.6709 0.9275
N2 N 0.7511(10) 0.8598(8) 0.3322(5)
H10 H 0.6533 0.8149 0.3613
H11 H 0.8452 0.9237 0.3840
H12 H 0.8230 0.7867 0.3011
C9 C 0.6366(14) 0.9511(10) 0.2485(7)
H13 H 0.5821 1.0429 0.2858
C10 C 0.4468(16) 0.8532(13) 0.1770(8)
H14 H 0.3712 0.9117 0.1238
H15 H 0.3492 0.8231 0.2200
H16 H 0.4971 0.7614 0.1411
C11 C 0.7994(16) 1.0063(12) 0.1886(8)
H17 H 0.8802 0.9205 0.1667
H18 H 0.8982 1.0873 0.2355
H19 H 0.7233 1.0462 0.1256
O4 O 0.1794(10) 0.0233(8) 0.4255(5)
H20 H 0.2467 -0.0598 0.4214
H21 H 0.2654 0.0991 0.4216
loop_
_geom_bond_atom_site_label_1
_geom_bond_atom_site_label_2
_geom_bond_site_symmetry_1
_geom_bond_site_symmetry_2
N1 H1 1_555 1_555
O1 C1 1_555 1_555
O2 C2 1_555 1_555
O3 C2 1_555 1_555
C1 N1 1_555 1_555
C2 C3 1_555 1_555
C3 C4 1_555 1_555
C4 C1 1_555 1_555
C5 C4 1_555 1_555
H2 C5 1_555 1_555
C6 N1 1_555 1_555
H3 C6 1_555 1_555
C7 C6 1_555 1_555
H4 C7 1_555 1_555
H5 C7 1_555 1_555
H6 C7 1_555 1_555
C8 C6 1_555 1_555
H7 C8 1_555 1_555
H8 C8 1_555 1_555
H9 C8 1_555 1_555
N2 H10 1_555 1_555
H11 N2 1_555 1_555
H12 N2 1_555 1_555
C9 N2 1_555 1_555
H13 C9 1_555 1_555
C10 C9 1_555 1_555
H14 C10 1_555 1_555
H15 C10 1_555 1_555
H16 C10 1_555 1_555
C11 C9 1_555 1_555
H17 C11 1_555 1_555
H18 C11 1_555 1_555
H19 C11 1_555 1_555
O4 H20 1_555 1_555
H21 O4 1_555 1_555
N1A H1A 1_555 1_555
O1A C1A 1_555 1_555
O2A C2A 1_555 1_555
O3A C2A 1_555 1_555
C1A N1A 1_555 1_555
C2A C3A 1_555 1_555
C3A C5 1_555 1_555
C4A C1A 1_555 1_555
C5A C3 1_555 1_555
H2A C5A 1_555 1_555
C6A N1A 1_555 1_555
H3A C6A 1_555 1_555
C7A C6A 1_555 1_555
H4A C7A 1_555 1_555
H5A C7A 1_555 1_555
H6A C7A 1_555 1_555
C8A C6A 1_555 1_555
H7A C8A 1_555 1_555
H8A C8A 1_555 1_555
H9A C8A 1_555 1_555
C3A C4A 1_555 1_555
C4A C5A 1_555 1_555

#END
