
#######################################################################
#
#                 Cambridge Crystallographic Data Centre
#                                CCDC 
#
#######################################################################
#
# If this CIF has been generated from an entry in the Cambridge 
# Structural Database, then it will include bibliographic, chemical, 
# crystal, experimental, refinement or atomic coordinate data resulting 
# from the CCDC's data processing and validation procedures.
#
#######################################################################

data_KUJSUE
_chemical_formula_moiety         'C90 H122 O12'
_chemical_name_systematic        
'Dimethyl 2,3,6,7,14,15,18,19-octakis(hexyloxy)tetrabenzo[a,c,m,o]-pentaphene-10,11-dicarboxylate'
_symmetry_cell_setting           monoclinic
_symmetry_space_group_name_H-M   'C 2/c'
_symmetry_Int_Tables_number      15
_space_group_name_Hall           '-C 2yn'
loop_
_symmetry_equiv_pos_site_id
_symmetry_equiv_pos_as_xyz
1 x,y,z
2 -x,y,1/2-z
3 1/2+x,1/2+y,z
4 1/2-x,1/2+y,1/2-z
5 -x,-y,-z
6 x,-y,1/2+z
7 1/2-x,1/2-y,-z
8 1/2+x,1/2-y,1/2+z
_cell_length_a                   47.7094(10)
_cell_length_b                   21.5292(5)
_cell_length_c                   27.3329(5)
_cell_angle_alpha                90
_cell_angle_beta                 121.9720(10)
_cell_angle_gamma                90
_cell_volume                     23816.1
_cell_formula_units_Z            12
_exptl_crystal_recrystallization_method thf/methanol
_exptl_crystal_preparation       fluorescent
loop_
_atom_site_label
_atom_site_type_symbol
_atom_site_fract_x
_atom_site_fract_y
_atom_site_fract_z
C1 C 0.40288(18) 0.6181(4) 0.2059(3)
C2 C 0.42068(18) 0.6608(4) 0.2534(3)
C3 C 0.44497(17) 0.6353(3) 0.3054(3)
H1 H 0.4577 0.662 0.3361
C4 C 0.45139(17) 0.5723(3) 0.3142(3)
C5 C 0.47684(16) 0.5472(3) 0.3706(3)
C6 C 0.49474(16) 0.5868(3) 0.4171(3)
H2 H 0.4899 0.629 0.4123
C7 C 0.52009(16) 0.5648(3) 0.4714(3)
C8 C 0.53791(16) 0.6086(3) 0.5179(3)
C9 C 0.56422(16) 0.5901(3) 0.5703(3)
C10 C 0.57223(16) 0.5249(3) 0.5813(3)
C11 C 0.59706(16) 0.5019(3) 0.6344(3)
H3 H 0.6093 0.5304 0.6638
C12 C 0.60486(17) 0.4402(3) 0.6465(3)
C13 C 0.63180(18) 0.4197(4) 0.7043(3)
C14 C 0.64774(18) 0.4644(4) 0.7487(3)
H4 H 0.6414 0.5059 0.7416
C15 C 0.67355(19) 0.4451(4) 0.8040(3)
C16 C 0.68218(19) 0.3833(4) 0.8141(3)
C17 C 0.66660(19) 0.3404(4) 0.7712(3)
H5 H 0.6729 0.2989 0.7788
C18 C 0.64115(18) 0.3582(4) 0.7154(3)
C19 C 0.62290(18) 0.3118(4) 0.6695(3)
C20 C 0.6318(2) 0.2486(4) 0.6800(3)
H6 H 0.6504 0.2372 0.7151
C21 C 0.6140(2) 0.2032(4) 0.6398(3)
C22 C 0.5863(2) 0.2214(4) 0.5867(3)
C23 C 0.5772(2) 0.2816(4) 0.5746(3)
H7 H 0.5585 0.2922 0.5393
C24 C 0.59598(18) 0.3291(3) 0.6152(3)
C25 C 0.58686(17) 0.3946(3) 0.6026(3)
C26 C 0.56194(16) 0.4172(3) 0.5487(3)
H8 H 0.55 0.3886 0.5194
C27 C 0.55400(16) 0.4792(3) 0.5364(3)
C28 C 0.52803(16) 0.5009(3) 0.4802(3)
C29 C 0.50870(15) 0.4615(3) 0.4334(3)
H9 H 0.5127 0.419 0.4386
C30 C 0.48360(16) 0.4827(3) 0.3791(3)
C31 C 0.46378(16) 0.4399(3) 0.3311(3)
C32 C 0.46716(17) 0.3750(3) 0.3358(3)
H10 H 0.4833 0.3583 0.3711
C33 C 0.44834(17) 0.3353(4) 0.2921(3)
C34 C 0.42342(17) 0.3604(4) 0.2384(3)
C35 C 0.41931(17) 0.4224(3) 0.2313(3)
H11 H 0.403 0.4377 0.1955
C36 C 0.43861(16) 0.4648(3) 0.2758(3)
C37 C 0.43309(16) 0.5306(3) 0.2671(3)
C38 C 0.40926(16) 0.5565(3) 0.2145(3)
H12 H 0.397 0.5299 0.1835
C39 C 0.52547(18) 0.6735(3) 0.5064(3)
C40 C 0.5211(2) 0.7686(3) 0.4608(3)
H13 H 0.4975 0.7665 0.4415
H14 H 0.527 0.7874 0.4357
H15 H 0.5297 0.7931 0.4952
C41 C 0.58278(17) 0.6418(4) 0.6117(3)
C42 C 0.62381(19) 0.6764(4) 0.7034(3)
H16 H 0.6342 0.6995 0.6871
H17 H 0.6404 0.6607 0.7406
H18 H 0.609 0.7031 0.7074
O1 O 0.53468(12) 0.7068(2) 0.47572(18)
O2 O 0.50611(11) 0.6925(2) 0.51937(17)
O3 O 0.60539(11) 0.6249(2) 0.66568(17)
O4 O 0.57753(12) 0.6969(2) 0.59752(19)
O5 O 0.38013(12) 0.6472(2) 0.15518(18)
C43 C 0.36011(18) 0.6060(3) 0.1066(3)
H19 H 0.3468 0.579 0.1146
H20 H 0.3741 0.5805 0.0987
C44 C 0.33847(17) 0.6474(3) 0.0560(3)
H21 H 0.3521 0.6716 0.0465
H22 H 0.3266 0.676 0.0662
C45 C 0.31401(19) 0.6096(4) 0.0042(3)
H23 H 0.326 0.5785 -0.0033
H24 H 0.2995 0.588 0.0133
C46 C 0.29334(19) 0.6470(4) -0.0496(3)
H25 H 0.3079 0.666 -0.0601
H26 H 0.2829 0.6802 -0.041
C47 C 0.2669(2) 0.6114(4) -0.1011(3)
H27 H 0.2528 0.5906 -0.0904
H28 H 0.2772 0.5797 -0.1115
C48 C 0.2456(3) 0.6523(5) -0.1532(3)
H29 H 0.2348 0.6832 -0.1436
H30 H 0.2293 0.6272 -0.1844
H31 H 0.2592 0.6723 -0.1646
O6 O 0.41222(13) 0.7211(2) 0.24316(18)
C49 C 0.4326(2) 0.7637(3) 0.2896(3)
H32 H 0.4552 0.7621 0.2989
H33 H 0.4324 0.7525 0.3238
C50 C 0.4185(2) 0.8282(3) 0.2697(3)
H34 H 0.4194 0.839 0.236
H35 H 0.3955 0.8283 0.2585
C51 C 0.4368(3) 0.8755(4) 0.3152(4)
H36 H 0.4241 0.9137 0.3029
H37 H 0.4378 0.8617 0.3498
C52 C 0.4705(3) 0.8900(5) 0.3305(5)
H38 H 0.4709 0.8988 0.296
H39 H 0.485 0.8552 0.3504
C53 C 0.4814(5) 0.9459(9) 0.3689(7)
H40 H 0.4651 0.9784 0.349
H41 H 0.502 0.9604 0.374
C54 C 0.4865(5) 0.9378(9) 0.4291(7)
H42 H 0.5087 0.9493 0.4581
H43 H 0.4827 0.8952 0.4345
H44 H 0.4712 0.9639 0.4323
O7 O 0.68991(14) 0.4857(3) 0.8499(2)
C55 C 0.6818(2) 0.5490(4) 0.8412(3)
H45 H 0.6585 0.5551 0.8265
H46 H 0.6867 0.5666 0.8138
C56 C 0.7028(2) 0.5792(5) 0.8995(3)
H47 H 0.7258 0.5724 0.9124
H48 H 0.6989 0.6237 0.8946
C57 C 0.6977(2) 0.5583(4) 0.9465(3)
H49 H 0.6742 0.5592 0.9313
H50 H 0.7047 0.5153 0.955
C58 C 0.7141(2) 0.5920(5) 1.0007(3)
H51 H 0.711 0.636 0.9917
H52 H 0.7376 0.5837 1.0199
C59 C 0.7041(2) 0.5799(5) 1.0428(3)
H53 H 0.7081 0.5364 1.0533
H54 H 0.6805 0.5868 1.0234
C60 C 0.7206(2) 0.6171(5) 1.0969(4)
H55 H 0.7438 0.6082 1.1185
H56 H 0.7113 0.6065 1.1196
H57 H 0.7172 0.6605 1.0876
O8 O 0.70664(14) 0.3705(3) 0.8697(2)
C61 C 0.7190(3) 0.3096(5) 0.8834(3)
H58 H 0.7284 0.2977 0.8608
H59 H 0.7014 0.2807 0.8751
C62 C 0.7448(3) 0.3088(6) 0.9459(3)
H60 H 0.7348 0.3231 0.967
H61 H 0.7515 0.266 0.9572
C63 C 0.7745(3) 0.3459(7) 0.9643(4)
H62 H 0.7678 0.3865 0.9463
H63 H 0.7873 0.3262 0.9504
C64 C 0.7963(4) 0.3544(9) 1.0289(5)
H64 H 0.8004 0.3986 1.036
H65 H 0.7835 0.3418 1.0454
C65 C 0.8261(4) 0.3254(8) 1.0597(5)
H66 H 0.8407 0.3437 1.049
H67 H 0.823 0.2822 1.0479
C66 C 0.8440(4) 0.3272(7) 1.1263(4)
H68 H 0.8363 0.3623 1.1376
H69 H 0.8674 0.3307 1.1428
H70 H 0.8393 0.2897 1.1397
O9 O 0.62116(16) 0.1416(3) 0.6464(2)
C67 C 0.6497(3) 0.1197(4) 0.6970(3)
H71 H 0.6492 0.1313 0.7308
H72 H 0.6694 0.1373 0.7005
C68 C 0.6497(3) 0.0483(4) 0.6915(4)
H73 H 0.6289 0.0322 0.6844
H74 H 0.6512 0.038 0.6584
C69 C 0.6768(3) 0.0177(5) 0.7425(5)
H75 H 0.6975 0.0359 0.751
H76 H 0.6771 -0.0258 0.7336
C70 C 0.6749(5) 0.0217(9) 0.7944(7)
H77 H 0.6759 0.0653 0.8043
H78 H 0.6534 0.0065 0.7845
C71 C 0.7000(5) -0.0114(11) 0.8464(8)
H79 H 0.7214 0.0054 0.8574
H80 H 0.6997 -0.0545 0.8359
C72 C 0.6974(6) -0.0103(10) 0.8982(8)
H81 H 0.7009 0.0313 0.9129
H82 H 0.7139 -0.0372 0.9272
H83 H 0.6759 -0.0242 0.888
O10 O 0.56943(14) 0.1726(2) 0.5505(2)
C73 C 0.5500(2) 0.1835(3) 0.4897(3)
H84 H 0.5618 0.2102 0.478
H85 H 0.5293 0.2033 0.4791
C74 C 0.5439(2) 0.1212(4) 0.4615(3)
H86 H 0.5311 0.127 0.42
H87 H 0.5306 0.0969 0.4716
C75 C 0.5742(2) 0.0844(4) 0.4769(4)
H88 H 0.5878 0.081 0.5186
H89 H 0.5867 0.1073 0.4642
C76 C 0.5680(3) 0.0202(4) 0.4519(5)
H90 H 0.5548 -0.0022 0.4636
H91 H 0.5549 0.0236 0.4102
C77 C 0.5980(3) -0.0176(5) 0.4684(6)
H92 H 0.6119 -0.0198 0.5101
H93 H 0.6106 0.0027 0.4543
C78 C 0.5892(4) -0.0834(5) 0.4439(7)
H94 H 0.5717 -0.0992 0.4478
H95 H 0.6082 -0.1097 0.4645
H96 H 0.5821 -0.0827 0.4038
O11 O 0.45023(12) 0.2716(2) 0.29476(17)
C79 C 0.46844(19) 0.2427(3) 0.3506(3)
H97 H 0.4619 0.2601 0.3758
H98 H 0.4919 0.2495 0.3679
C80 C 0.46094(19) 0.1754(3) 0.3422(3)
H99 H 0.4671 0.1595 0.316
H100 H 0.4746 0.1546 0.379
C81 C 0.4263(2) 0.1588(5) 0.3195(4)
H101 H 0.4173 0.1905 0.3327
H102 H 0.4146 0.1625 0.2779
C82 C 0.4175(4) 0.1016(7) 0.3314(7)
H103 H 0.4198 0.0712 0.3074
H104 H 0.3942 0.1039 0.3175
C83 C 0.4341(4) 0.0744(8) 0.3906(7)
H105 H 0.4563 0.0916 0.413
H106 H 0.4363 0.03 0.3876
C84 C 0.4172(5) 0.0849(9) 0.4236(8)
H107 H 0.3936 0.0839 0.3974
H108 H 0.4235 0.1246 0.4424
H109 H 0.4235 0.0528 0.452
O12 O 0.40412(12) 0.3161(2) 0.19688(18)
C85 C 0.37672(17) 0.3389(3) 0.1434(3)
H110 H 0.3845 0.3666 0.1252
H111 H 0.3617 0.3618 0.1505
C86 C 0.3593(2) 0.2842(4) 0.1049(3)
H112 H 0.3751 0.2603 0.1007
H113 H 0.3426 0.2995 0.0669
C87 C 0.3429(3) 0.2419(5) 0.1265(5)
H114 H 0.3596 0.2261 0.164
H115 H 0.3275 0.2663 0.1316
C88 C 0.3250(3) 0.1891(6) 0.0888(6)
H116 H 0.323 0.1573 0.112
H117 H 0.3384 0.172 0.075
C89 C 0.2917(4) 0.2010(10) 0.0383(8)
H118 H 0.2819 0.1609 0.0224
H119 H 0.2947 0.2216 0.0098
C90 C 0.2663 0.2378 0.0425
H120 H 0.269 0.2307 0.0794
H121 H 0.2446 0.2251 0.0125
H122 H 0.2692 0.2812 0.0384
C136 C 0.59884 0.3199 0.4655
C137 C 0.57052 0.3165 0.408
C138 C 0.556 0.3697 0.3791
H184 H 0.5375 0.367 0.3419
C139 C 0.56789 0.4286 0.4032
C140 C 0.55274 0.4866 0.3701
C141 C 0.5279 0.486 0.3129
H185 H 0.5204 0.4478 0.2947
C142 C 0.51327 0.5398 0.2802
C143 C 0.52519 0.5972 0.3095
C144 C 0.5498 0.5977 0.3673
H186 H 0.557 0.6359 0.3857
C145 C 0.56435 0.5441 0.3993
C146 C 0.59095 0.5473 0.4594
C147 C 0.60144 0.6056 0.4883
H187 H 0.5908 0.6418 0.4685
C148 C 0.62686 0.6092 0.5443
C149 C 0.64348 0.5542 0.5744
C150 C 0.6332 0.4983 0.5472
H188 H 0.644 0.4626 0.5677
C151 C 0.60682 0.4921 0.4891
C152 C 0.59521 0.4326 0.4607
C153 C 0.60954 0.376 0.4893
H189 H 0.6275 0.3779 0.5271
C154 C 0.51206 0.6549 0.2782
C155 C 0.5241 0.7145 0.3091
C156 C 0.5723 0.7794 0.3572
H190 H 0.5594 0.8154 0.3372
H191 H 0.5936 0.7822 0.3616
H192 H 0.575 0.7771 0.3946
O19 O 0.5142 0.7417 0.3315
O20 O 0.5554 0.7241 0.3245
O21 O 0.61227 0.263248 0.49037
C157 C 0.64216 0.26402 0.5448
H193 H 0.6388 0.2842 0.5731
H194 H 0.6589 0.2868 0.5424
C158 C 0.6528 0.1989 0.5621
H195 H 0.6713 0.1987 0.6018
H196 H 0.6349 0.1763 0.5609
C159 C 0.6628 0.1648 0.5267
H197 H 0.6815 0.1859 0.529
H198 H 0.6447 0.1654 0.4868
C160 C 0.6721 0.0992 0.5457
H199 H 0.688 0.0997 0.587
H200 H 0.6525 0.0781 0.5395
C161 C 0.6861 0.0614 0.5195
H201 H 0.7042 0.0843 0.5217
H202 H 0.6693 0.0563 0.479
C162 C 0.6986 -0.0022 0.545
H203 H 0.7198 0.0016 0.58
H204 H 0.7006 -0.0273 0.518
H205 H 0.6834 -0.0213 0.5532
O22 O 0.56073 0.2573 0.38685
C163 C 0.54047 0.249 0.3262
H206 H 0.5487 0.2739 0.3067
H207 H 0.5179 0.2615 0.3124
C164 C 0.5417 0.1806 0.3142
H208 H 0.532 0.1574 0.3321
H209 H 0.5277 0.1741 0.2729
C165 C 0.5743 0.1534 0.3336
H210 H 0.5882 0.1575 0.3752
H211 H 0.5845 0.1769 0.3169
C166 C 0.5732 0.086 0.3179
H212 H 0.5625 0.0627 0.3339
H213 H 0.5597 0.0821 0.2763
C167 C 0.6058 0.058 0.3384
H214 H 0.6193 0.0622 0.38
H215 H 0.6165 0.0817 0.3225
C168 C 0.6057 -0.0105 0.3233
H216 H 0.5962 -0.035 0.3402
H217 H 0.628 -0.024 0.3379
H218 H 0.5929 -0.0155 0.2821
O23 O 0.63829 0.6628 0.57583
C169 C 0.6243 0.7203 0.5455
H219 H 0.6006 0.7205 0.5289
H220 H 0.6284 0.725 0.5146
C170 C 0.6401 0.7724 0.5878
H221 H 0.6308 0.8111 0.5673
H222 H 0.6337 0.7686 0.616
C171 C 0.6762 0.7777 0.6193
H223 H 0.683 0.7784 0.5916
H224 H 0.6858 0.7409 0.643
C172 C 0.69 0.8331 0.6567
H225 H 0.6841 0.8315 0.6856
H226 H 0.6798 0.8699 0.6334
C173 C 0.7266 0.8391 0.6864
H227 H 0.7323 0.8375 0.6571
H228 H 0.7365 0.8029 0.7108
C174 C 0.7427 0.8957 0.7227
H229 H 0.7319 0.9323 0.7006
H230 H 0.7656 0.8967 0.7345
H231 H 0.7411 0.8943 0.7562
O24 O 0.66846 0.5638 0.6293
C175 C 0.68538 0.5131 0.6649
H232 H 0.6949 0.4882 0.6477
H233 H 0.6702 0.4873 0.6694
C176 C 0.7118 0.5367 0.7217
H234 H 0.7085 0.5165 0.750
H235 H 0.7323 0.5205 0.7276
C177 C 0.7178 0.6006 0.7379
H236 H 0.6964 0.6197 0.7237
H237 H 0.7267 0.6191 0.7165
C178 C 0.7392 0.6205 0.7977
H238 H 0.7608 0.6307 0.8045
H239 H 0.742 0.5862 0.8229
C179 C 0.7266 0.6745 0.8132
H240 H 0.7057 0.6631 0.809
H241 H 0.7222 0.7076 0.786
C180 C 0.7491 0.6991 0.873
H242 H 0.7716 0.696 0.8831
H243 H 0.7462 0.6753 0.8998
H244 H 0.7438 0.7419 0.8745
C136A C 0.40116 0.3199 0.0345
C137A C 0.42948 0.3165 0.092
C138A C 0.444 0.3697 0.1209
H184A H 0.4625 0.367 0.1581
C139A C 0.43211 0.4286 0.0968
C140A C 0.44726 0.4866 0.1299
C141A C 0.4721 0.486 0.1871
H185A H 0.4796 0.4478 0.2053
C142A C 0.48673 0.5398 0.2198
C143A C 0.47481 0.5972 0.1905
C144A C 0.4502 0.5977 0.1327
H186A H 0.443 0.6359 0.1143
C145A C 0.43565 0.5441 0.1007
C146A C 0.40905 0.5473 0.0406
C147A C 0.39856 0.6056 0.0117
H187A H 0.4092 0.6418 0.0315
C148A C 0.37314 0.6092 -0.0443
C149A C 0.35652 0.5542 -0.0744
C150A C 0.3668 0.4983 -0.0472
H188A H 0.356 0.4626 -0.0677
C151A C 0.39318 0.4921 0.0109
C152A C 0.40479 0.4326 0.0393
C153A C 0.39046 0.376 0.0107
H189A H 0.3725 0.3779 -0.0271
C154A C 0.48794 0.6549 0.2218
C155A C 0.4759 0.7145 0.1909
C156A C 0.4277 0.7794 0.1428
H190A H 0.4406 0.8154 0.1628
H191A H 0.4064 0.7822 0.1384
H192A H 0.425 0.7771 0.1054
O19A O 0.4858 0.7417 0.1685
O20A O 0.4446 0.7241 0.1755
O21A O 0.38773 0.263248 0.00963
C157A C 0.35784 0.26402 -0.0448
H193A H 0.3612 0.2842 -0.0731
H194A H 0.3411 0.2868 -0.0424
C158A C 0.3472 0.1989 -0.0621
H195A H 0.3287 0.1987 -0.1018
H196A H 0.3651 0.1763 -0.0609
C159A C 0.3372 0.1648 -0.0267
H197A H 0.3185 0.1859 -0.029
H198A H 0.3553 0.1654 0.0132
C160A C 0.3279 0.0992 -0.0457
H199A H 0.312 0.0997 -0.087
H200A H 0.3475 0.0781 -0.0395
C161A C 0.3139 0.0614 -0.0195
H201A H 0.2958 0.0843 -0.0217
H202A H 0.3307 0.0563 0.021
C162A C 0.3014 -0.0022 -0.045
H203A H 0.2802 0.0016 -0.08
H204A H 0.2994 -0.0273 -0.018
H205A H 0.3166 -0.0213 -0.0532
O22A O 0.43927 0.2573 0.11315
C163A C 0.45953 0.249 0.1738
H206A H 0.4513 0.2739 0.1933
H207A H 0.4821 0.2615 0.1876
C164A C 0.4583 0.1806 0.1858
H208A H 0.468 0.1574 0.1679
H209A H 0.4723 0.1741 0.2271
C165A C 0.4257 0.1534 0.1664
H210A H 0.4118 0.1575 0.1248
H211A H 0.4155 0.1769 0.1831
C166A C 0.4268 0.086 0.1821
H212A H 0.4375 0.0627 0.1661
H213A H 0.4403 0.0821 0.2237
C167A C 0.3942 0.058 0.1616
H214A H 0.3807 0.0622 0.12
H215A H 0.3835 0.0817 0.1775
C168A C 0.3943 -0.0105 0.1767
H216A H 0.4038 -0.035 0.1598
H217A H 0.372 -0.024 0.1621
H218A H 0.4071 -0.0155 0.2179
O23A O 0.36171 0.6628 -0.07583
C169A C 0.3757 0.7203 -0.0455
H219A H 0.3994 0.7205 -0.0289
H220A H 0.3716 0.725 -0.0146
C170A C 0.3599 0.7724 -0.0878
H221A H 0.3692 0.8111 -0.0673
H222A H 0.3663 0.7686 -0.116
C171A C 0.3238 0.7777 -0.1193
H223A H 0.317 0.7784 -0.0916
H224A H 0.3142 0.7409 -0.143
C172A C 0.31 0.8331 -0.1567
H225A H 0.3159 0.8315 -0.1856
H226A H 0.3202 0.8699 -0.1334
C173A C 0.2734 0.8391 -0.1864
H227A H 0.2677 0.8375 -0.1571
H228A H 0.2635 0.8029 -0.2108
C174A C 0.2573 0.8957 -0.2227
H229A H 0.2681 0.9323 -0.2006
H230A H 0.2344 0.8967 -0.2345
H231A H 0.2589 0.8943 -0.2562
O24A O 0.33154 0.5638 -0.1293
C175A C 0.31462 0.5131 -0.1649
H232A H 0.3051 0.4882 -0.1477
H233A H 0.3298 0.4873 -0.1694
C176A C 0.2882 0.5367 -0.2217
H234A H 0.2915 0.5165 -0.250
H235A H 0.2677 0.5205 -0.2276
C177A C 0.2822 0.6006 -0.2379
H236A H 0.3036 0.6197 -0.2237
H237A H 0.2733 0.6191 -0.2165
C178A C 0.2608 0.6205 -0.2977
H238A H 0.2392 0.6307 -0.3045
H239A H 0.258 0.5862 -0.3229
C179A C 0.2734 0.6745 -0.3132
H240A H 0.2943 0.6631 -0.309
H241A H 0.2778 0.7076 -0.286
C180A C 0.2509 0.6991 -0.373
H242A H 0.2284 0.696 -0.3831
H243A H 0.2538 0.6753 -0.3998
H244A H 0.2562 0.7419 -0.3745
C91? C 0.40116(17) 0.3199(3) 0.0345(3)
C92? C 0.42948(17) 0.3165(3) 0.0920(3)
C93? C 0.44400(17) 0.3697(3) 0.1209(3)
H123? H 0.4625 0.367 0.1581
C94? C 0.43211(16) 0.4286(3) 0.0968(3)
C95? C 0.44726(16) 0.4866(3) 0.1299(3)
C96? C 0.47210(16) 0.4860(3) 0.1871(3)
H124? H 0.4796 0.4478 0.2053
C97? C 0.48673(16) 0.5398(3) 0.2198(3)
C98? C 0.47481(17) 0.5972(3) 0.1905(3)
C99? C 0.45020(17) 0.5977(4) 0.1327(3)
H125? H 0.443 0.6359 0.1143
C100? C 0.43565(16) 0.5441(3) 0.1007(3)
C101? C 0.40905(16) 0.5473(3) 0.0406(3)
C102? C 0.39856(17) 0.6056(4) 0.0117(3)
H126? H 0.4092 0.6418 0.0315
C103? C 0.37314(18) 0.6092(4) -0.0443(3)
C104? C 0.35652(18) 0.5542(4) -0.0744(3)
C105? C 0.36680(17) 0.4983(4) -0.0472(3)
H127? H 0.356 0.4626 -0.0677
C106? C 0.39318(16) 0.4921(3) 0.0109(3)
C107? C 0.40479(16) 0.4326(3) 0.0393(3)
C108? C 0.39046(16) 0.3760(3) 0.0107(3)
H128? H 0.3725 0.3779 -0.0271
C109? C 0.48794(18) 0.6549(3) 0.2218(3)
C110? C 0.4759(3) 0.7145(4) 0.1909(4)
C111? C 0.4277(3) 0.7794(5) 0.1428(4)
H129? H 0.4406 0.8154 0.1628
H130? H 0.4064 0.7822 0.1384
H131? H 0.425 0.7771 0.1054
O13? O 0.4858(2) 0.7417(3) 0.1685(4)
O14? O 0.4446(2) 0.7241(3) 0.1755(3)
O15? O 0.38773(5) 0.263248(10) 0.00963(15)
C112? C 0.35784(6) 0.26402(6) -0.04480(13)
H132? H 0.3612 0.2842 -0.0731
H133? H 0.3411 0.2868 -0.0424
C113? C 0.3472(2) 0.1989(4) -0.0621(3)
H134? H 0.3287 0.1987 -0.1018
H135? H 0.3651 0.1763 -0.0609
C114? C 0.3372(5) 0.1648(7) -0.0267(6)
H136? H 0.3185 0.1859 -0.029
H137? H 0.3553 0.1654 0.0132
C115? C 0.3279(5) 0.0992(8) -0.0457(8)
H138? H 0.312 0.0997 -0.087
H139? H 0.3475 0.0781 -0.0395
C116? C 0.3139(6) 0.0614(10) -0.0195(9)
H140? H 0.2958 0.0843 -0.0217
H141? H 0.3307 0.0563 0.021
C117? C 0.3014(7) -0.0022(10) -0.0450(10)
H142? H 0.2802 0.0016 -0.08
H143? H 0.2994 -0.0273 -0.018
H144? H 0.3166 -0.0213 -0.0532
O16? O 0.43927(12) 0.2573(2) 0.11315(17)
C118? C 0.45953(19) 0.2490(3) 0.1738(3)
H145? H 0.4513 0.2739 0.1933
H146? H 0.4821 0.2615 0.1876
C119? C 0.4583(2) 0.1806(3) 0.1858(3)
H147? H 0.468 0.1574 0.1679
H148? H 0.4723 0.1741 0.2271
C120? C 0.4257(2) 0.1534(3) 0.1664(3)
H149? H 0.4118 0.1575 0.1248
H150? H 0.4155 0.1769 0.1831
C121? C 0.4268(3) 0.0860(4) 0.1821(4)
H151? H 0.4375 0.0627 0.1661
H152? H 0.4403 0.0821 0.2237
C122? C 0.3942(3) 0.0580(5) 0.1616(5)
H153? H 0.3807 0.0622 0.12
H154? H 0.3835 0.0817 0.1775
C123? C 0.3943(4) -0.0105(5) 0.1767(6)
H155? H 0.4038 -0.035 0.1598
H156? H 0.372 -0.024 0.1621
H157? H 0.4071 -0.0155 0.2179
O17? O 0.36171(12) 0.6628(2) -0.07583(19)
C124? C 0.3757(2) 0.7203(3) -0.0455(3)
H158? H 0.3994 0.7205 -0.0289
H159? H 0.3716 0.725 -0.0146
C125? C 0.3599(3) 0.7724(4) -0.0878(4)
H160? H 0.3692 0.8111 -0.0673
H161? H 0.3663 0.7686 -0.116
C126? C 0.3238(3) 0.7777(6) -0.1193(5)
H162? H 0.317 0.7784 -0.0916
H163? H 0.3142 0.7409 -0.143
C127? C 0.3100(4) 0.8331(9) -0.1567(9)
H164? H 0.3159 0.8315 -0.1856
H165? H 0.3202 0.8699 -0.1334
C128? C 0.2734(5) 0.8391(11) -0.1864(10)
H166? H 0.2677 0.8375 -0.1571
H167? H 0.2635 0.8029 -0.2108
C129? C 0.2573(6) 0.8957(11) -0.2227(10)
H168? H 0.2681 0.9323 -0.2006
H169? H 0.2344 0.8967 -0.2345
H170? H 0.2589 0.8943 -0.2562
O18? O 0.33154(13) 0.5638(3) -0.1293(2)
C130? C 0.31462(19) 0.5131(4) -0.1649(3)
H171? H 0.3051 0.4882 -0.1477
H172? H 0.3298 0.4873 -0.1694
C131? C 0.2882(3) 0.5367(5) -0.2217(3)
H173? H 0.2915 0.5165 -0.25
H174? H 0.2677 0.5205 -0.2276
C132? C 0.2822(7) 0.6006(8) -0.2379(7)
H175? H 0.3036 0.6197 -0.2237
H176? H 0.2733 0.6191 -0.2165
C133? C 0.2608(6) 0.6205(10) -0.2977(7)
H177? H 0.2392 0.6307 -0.3045
H178? H 0.258 0.5862 -0.3229
C134? C 0.2734(5) 0.6745(11) -0.3132(9)
H179? H 0.2943 0.6631 -0.309
H180? H 0.2778 0.7076 -0.286
C135? C 0.2509(6) 0.6991(12) -0.3730(9)
H181? H 0.2284 0.696 -0.3831
H182? H 0.2538 0.6753 -0.3998
H183? H 0.2562 0.7419 -0.3745
H245? H 0.6782 0.0351 0.7765
H246? H 0.6973 0.0277 0.7448
H247? H 0.3069 0.2118 0.0571
H248? H 0.3395 0.1797 0.075
H249? H 0.3435 0.18 -0.0337
H250? H 0.3651 0.1765 -0.0611
H251? H 0.3199 0.8094 -0.0983
H252? H 0.3166 0.739 -0.1113
H253? H 0.298 0.5547 -0.2417
H254? H 0.2761 0.5692 -0.2161
C181? C 0.2636(5) 0.4833(11) -0.2614(7)
H255? H 0.2759 0.4508 -0.2667
H256? H 0.2529 0.465 -0.2429
C182? C 0.2385(5) 0.5090(11) -0.3176(8)
H257? H 0.2275 0.543 -0.311
H258? H 0.2497 0.5264 -0.3355
C183? C 0.2132(6) 0.4661(13) -0.3585(9)
H259? H 0.2 0.4524 -0.3432
H260? H 0.2239 0.4299 -0.3625
C184? C 0.1907(7) 0.4947(15) -0.4175(9)
H261? H 0.1789 0.5289 -0.4142
H262? H 0.1753 0.464 -0.443
H263? H 0.2037 0.5092 -0.4325
C185? C 0.6749(9) -0.0525(8) 0.7423(13)
H264? H 0.6513 -0.061 0.7197
H265? H 0.6831 -0.0651 0.7182
C186? C 0.6877(8) -0.0995(11) 0.7872(12)
H266? H 0.6853 -0.0842 0.8181
H267? H 0.7112 -0.1036 0.8026
C187? C 0.6727(9) -0.1631(10) 0.7711(15)
H268? H 0.6688 -0.178 0.8001
H269? H 0.6875 -0.1909 0.7682
H270? H 0.6521 -0.1612 0.7346
C188? C 0.3092(9) 0.1286(12) 0.0778(16)
H271? H 0.289 0.1367 0.0771
H272? H 0.3233 0.1057 0.1132
C189? C 0.2988(9) 0.0785(16) 0.0290(15)
H273? H 0.2809 0.0945 -0.0069
H274? H 0.2918 0.0413 0.0389
H275? H 0.3172 0.0693 0.0252
C190? C 0.3166(4) 0.1892(10) -0.1204(8)
H276? H 0.319 0.2136 -0.1477
H277? H 0.3162 0.1459 -0.1305
C191? C 0.2838(4) 0.2038(12) -0.1300(8)
H278? H 0.2848 0.2453 -0.1154
H279? H 0.2799 0.1754 -0.1067
C192? C 0.2548(4) 0.2009(13) -0.1899(9)
H280? H 0.2527 0.1582 -0.2029
H281? H 0.2599 0.2258 -0.2138
C193? C 0.2216(5) 0.2212(14) -0.2021(11)
H282? H 0.2245 0.2517 -0.1741
H283? H 0.21 0.186 -0.1999
H284? H 0.2092 0.239 -0.24
C194? C 0.2958(7) 0.789(2) -0.1822(11)
H285? H 0.3007 0.8298 -0.1908
H286? H 0.3007 0.7601 -0.204
C195? C 0.2596(7) 0.788(2) -0.2128(13)
H287? H 0.2538 0.8076 -0.1874
H288? H 0.2532 0.7448 -0.2161
C196? C 0.2378(8) 0.816(2) -0.2712(13)
H289? H 0.2506 0.8262 -0.2878
H290? H 0.228 0.8538 -0.2676
H291? H 0.2206 0.7876 -0.2957
C197? C 0.4766 0.9188 0.2846
H292? H 0.4785 0.8862 0.262
H293? H 0.4584 0.9456 0.2587
C198? C 0.5083 0.9557 0.3163
H294? H 0.5033 0.9993 0.3111
H295? H 0.5219 0.9455 0.3013
H296? H 0.5198 0.9458 0.3566
loop_
_geom_bond_atom_site_label_1
_geom_bond_atom_site_label_2
_geom_bond_site_symmetry_1
_geom_bond_site_symmetry_2
C1 C2 1_555 1_555
C2 C3 1_555 1_555
C3 H1 1_555 1_555
C4 C3 1_555 1_555
C5 C4 1_555 1_555
C6 C5 1_555 1_555
H2 C6 1_555 1_555
C7 C6 1_555 1_555
C8 C7 1_555 1_555
C9 C8 1_555 1_555
C10 C9 1_555 1_555
C11 C10 1_555 1_555
H3 C11 1_555 1_555
C12 C11 1_555 1_555
C13 C12 1_555 1_555
C14 C13 1_555 1_555
H4 C14 1_555 1_555
C15 C14 1_555 1_555
C16 C15 1_555 1_555
C17 C16 1_555 1_555
H5 C17 1_555 1_555
C18 C13 1_555 1_555
C19 C18 1_555 1_555
C20 C19 1_555 1_555
H6 C20 1_555 1_555
C21 C20 1_555 1_555
C22 C21 1_555 1_555
C23 C22 1_555 1_555
H7 C23 1_555 1_555
C24 C19 1_555 1_555
C25 C12 1_555 1_555
C26 C25 1_555 1_555
H8 C26 1_555 1_555
C27 C10 1_555 1_555
C28 C7 1_555 1_555
C29 C28 1_555 1_555
H9 C29 1_555 1_555
C30 C5 1_555 1_555
C31 C30 1_555 1_555
C32 C31 1_555 1_555
H10 C32 1_555 1_555
C33 C32 1_555 1_555
C34 C33 1_555 1_555
C35 C34 1_555 1_555
H11 C35 1_555 1_555
C36 C31 1_555 1_555
C37 C4 1_555 1_555
C38 C1 1_555 1_555
H12 C38 1_555 1_555
C39 C8 1_555 1_555
C40 H13 1_555 1_555
H14 C40 1_555 1_555
H15 C40 1_555 1_555
C41 C9 1_555 1_555
C42 H16 1_555 1_555
H17 C42 1_555 1_555
H18 C42 1_555 1_555
O1 C39 1_555 1_555
O2 C39 1_555 1_555
O3 C41 1_555 1_555
O4 C41 1_555 1_555
O5 C1 1_555 1_555
C43 O5 1_555 1_555
H19 C43 1_555 1_555
H20 C43 1_555 1_555
C44 C43 1_555 1_555
H21 C44 1_555 1_555
H22 C44 1_555 1_555
C45 C44 1_555 1_555
H23 C45 1_555 1_555
H24 C45 1_555 1_555
C46 C45 1_555 1_555
H25 C46 1_555 1_555
H26 C46 1_555 1_555
C47 C46 1_555 1_555
H27 C47 1_555 1_555
H28 C47 1_555 1_555
C48 C47 1_555 1_555
H29 C48 1_555 1_555
H30 C48 1_555 1_555
H31 C48 1_555 1_555
O6 C2 1_555 1_555
C49 O6 1_555 1_555
H32 C49 1_555 1_555
H33 C49 1_555 1_555
C50 C49 1_555 1_555
H34 C50 1_555 1_555
H35 C50 1_555 1_555
C51 C50 1_555 1_555
H36 C51 1_555 1_555
H37 C51 1_555 1_555
C52 C51 1_555 1_555
H38 C52 1_555 1_555
H39 C52 1_555 1_555
C53 C52 1_555 1_555
H40 C53 1_555 1_555
H41 C53 1_555 1_555
C54 C53 1_555 1_555
H42 C54 1_555 1_555
H43 C54 1_555 1_555
H44 C54 1_555 1_555
O7 C15 1_555 1_555
C55 O7 1_555 1_555
H45 C55 1_555 1_555
H46 C55 1_555 1_555
C56 C55 1_555 1_555
H47 C56 1_555 1_555
H48 C56 1_555 1_555
C57 C56 1_555 1_555
H49 C57 1_555 1_555
H50 C57 1_555 1_555
C58 C57 1_555 1_555
H51 C58 1_555 1_555
H52 C58 1_555 1_555
C59 C58 1_555 1_555
H53 C59 1_555 1_555
H54 C59 1_555 1_555
C60 C59 1_555 1_555
H55 C60 1_555 1_555
H56 C60 1_555 1_555
H57 C60 1_555 1_555
O8 C16 1_555 1_555
C61 O8 1_555 1_555
H58 C61 1_555 1_555
H59 C61 1_555 1_555
C62 C61 1_555 1_555
H60 C62 1_555 1_555
H61 C62 1_555 1_555
C63 C62 1_555 1_555
H62 C63 1_555 1_555
H63 C63 1_555 1_555
C64 C63 1_555 1_555
H64 C64 1_555 1_555
H65 C64 1_555 1_555
C65 C64 1_555 1_555
H66 C65 1_555 1_555
H67 C65 1_555 1_555
C66 C65 1_555 1_555
H68 C66 1_555 1_555
H69 C66 1_555 1_555
H70 C66 1_555 1_555
O9 C21 1_555 1_555
C67 O9 1_555 1_555
H71 C67 1_555 1_555
H72 C67 1_555 1_555
C68 C67 1_555 1_555
H73 C68 1_555 1_555
H74 C68 1_555 1_555
C69 C68 1_555 1_555
H75 C69 1_555 1_555
H76 C69 1_555 1_555
C70 C69 1_555 1_555
H77 C70 1_555 1_555
H78 C70 1_555 1_555
C71 C70 1_555 1_555
H79 C71 1_555 1_555
H80 C71 1_555 1_555
C72 C71 1_555 1_555
H81 C72 1_555 1_555
H82 C72 1_555 1_555
H83 C72 1_555 1_555
O10 C22 1_555 1_555
C73 O10 1_555 1_555
H84 C73 1_555 1_555
H85 C73 1_555 1_555
C74 C73 1_555 1_555
H86 C74 1_555 1_555
H87 C74 1_555 1_555
C75 C74 1_555 1_555
H88 C75 1_555 1_555
H89 C75 1_555 1_555
C76 C75 1_555 1_555
H90 C76 1_555 1_555
H91 C76 1_555 1_555
C77 C76 1_555 1_555
H92 C77 1_555 1_555
H93 C77 1_555 1_555
C78 C77 1_555 1_555
H94 C78 1_555 1_555
H95 C78 1_555 1_555
H96 C78 1_555 1_555
O11 C33 1_555 1_555
C79 O11 1_555 1_555
H97 C79 1_555 1_555
H98 C79 1_555 1_555
C80 C79 1_555 1_555
H99 C80 1_555 1_555
H100 C80 1_555 1_555
C81 C80 1_555 1_555
H101 C81 1_555 1_555
H102 C81 1_555 1_555
C82 C81 1_555 1_555
H103 C82 1_555 1_555
H104 C82 1_555 1_555
C83 C82 1_555 1_555
H105 C83 1_555 1_555
H106 C83 1_555 1_555
C84 C83 1_555 1_555
H107 C84 1_555 1_555
H108 C84 1_555 1_555
H109 C84 1_555 1_555
O12 C34 1_555 1_555
C85 O12 1_555 1_555
H110 C85 1_555 1_555
H111 C85 1_555 1_555
C86 C85 1_555 1_555
H112 C86 1_555 1_555
H113 C86 1_555 1_555
C87 C86 1_555 1_555
H114 C87 1_555 1_555
H115 C87 1_555 1_555
C88 C87 1_555 1_555
H116 C88 1_555 1_555
H117 C88 1_555 1_555
C89 C88 1_555 1_555
H118 C89 1_555 1_555
H119 C89 1_555 1_555
C90 C89 1_555 1_555
H120 C90 1_555 1_555
H121 C90 1_555 1_555
H122 C90 1_555 1_555
C136 C137 1_555 1_555
C137 C138 1_555 1_555
C138 H184 1_555 1_555
C139 C138 1_555 1_555
C140 C139 1_555 1_555
C141 C140 1_555 1_555
H185 C141 1_555 1_555
C142 C141 1_555 1_555
C143 C142 1_555 1_555
C144 C143 1_555 1_555
H186 C144 1_555 1_555
C145 C140 1_555 1_555
C146 C145 1_555 1_555
C147 C146 1_555 1_555
H187 C147 1_555 1_555
C148 C147 1_555 1_555
C149 C148 1_555 1_555
C150 C149 1_555 1_555
H188 C150 1_555 1_555
C151 C146 1_555 1_555
C152 C139 1_555 1_555
C153 C136 1_555 1_555
H189 C153 1_555 1_555
C154 C143 1_555 1_555
C155 C154 1_555 1_555
C156 H190 1_555 1_555
H191 C156 1_555 1_555
H192 C156 1_555 1_555
O19 C155 1_555 1_555
O20 C155 1_555 1_555
O21 C136 1_555 1_555
C157 O21 1_555 1_555
H193 C157 1_555 1_555
H194 C157 1_555 1_555
C158 C157 1_555 1_555
H195 C158 1_555 1_555
H196 C158 1_555 1_555
C159 C158 1_555 1_555
H197 C159 1_555 1_555
H198 C159 1_555 1_555
C160 C159 1_555 1_555
H199 C160 1_555 1_555
H200 C160 1_555 1_555
C161 C160 1_555 1_555
H201 C161 1_555 1_555
H202 C161 1_555 1_555
C162 C161 1_555 1_555
H203 C162 1_555 1_555
H204 C162 1_555 1_555
H205 C162 1_555 1_555
O22 C137 1_555 1_555
C163 O22 1_555 1_555
H206 C163 1_555 1_555
H207 C163 1_555 1_555
C164 C163 1_555 1_555
H208 C164 1_555 1_555
H209 C164 1_555 1_555
C165 C164 1_555 1_555
H210 C165 1_555 1_555
H211 C165 1_555 1_555
C166 C165 1_555 1_555
H212 C166 1_555 1_555
H213 C166 1_555 1_555
C167 C166 1_555 1_555
H214 C167 1_555 1_555
H215 C167 1_555 1_555
C168 C167 1_555 1_555
H216 C168 1_555 1_555
H217 C168 1_555 1_555
H218 C168 1_555 1_555
O23 C148 1_555 1_555
C169 O23 1_555 1_555
H219 C169 1_555 1_555
H220 C169 1_555 1_555
C170 C169 1_555 1_555
H221 C170 1_555 1_555
H222 C170 1_555 1_555
C171 C170 1_555 1_555
H223 C171 1_555 1_555
H224 C171 1_555 1_555
C172 C171 1_555 1_555
H225 C172 1_555 1_555
H226 C172 1_555 1_555
C173 C172 1_555 1_555
H227 C173 1_555 1_555
H228 C173 1_555 1_555
C174 C173 1_555 1_555
H229 C174 1_555 1_555
H230 C174 1_555 1_555
H231 C174 1_555 1_555
O24 C149 1_555 1_555
C175 O24 1_555 1_555
H232 C175 1_555 1_555
H233 C175 1_555 1_555
C176 C175 1_555 1_555
H234 C176 1_555 1_555
H235 C176 1_555 1_555
C177 C176 1_555 1_555
H236 C177 1_555 1_555
H237 C177 1_555 1_555
C178 C177 1_555 1_555
H238 C178 1_555 1_555
H239 C178 1_555 1_555
C179 C178 1_555 1_555
H240 C179 1_555 1_555
H241 C179 1_555 1_555
C180 C179 1_555 1_555
H242 C180 1_555 1_555
H243 C180 1_555 1_555
H244 C180 1_555 1_555
C136A C137A 1_555 1_555
C137A C138A 1_555 1_555
C138A H184A 1_555 1_555
C139A C138A 1_555 1_555
C140A C139A 1_555 1_555
C141A C140A 1_555 1_555
H185A C141A 1_555 1_555
C142A C142 1_555 1_555
C143A C142A 1_555 1_555
C144A C143A 1_555 1_555
H186A C144A 1_555 1_555
C145A C140A 1_555 1_555
C146A C145A 1_555 1_555
C147A C146A 1_555 1_555
H187A C147A 1_555 1_555
C148A C147A 1_555 1_555
C149A C148A 1_555 1_555
C150A C149A 1_555 1_555
H188A C150A 1_555 1_555
C151A C146A 1_555 1_555
C152A C139A 1_555 1_555
C153A C136A 1_555 1_555
H189A C153A 1_555 1_555
C154A C154 1_555 1_555
C155A C154A 1_555 1_555
C156A H190A 1_555 1_555
H191A C156A 1_555 1_555
H192A C156A 1_555 1_555
O19A C155A 1_555 1_555
O20A C155A 1_555 1_555
O21A C136A 1_555 1_555
C157A O21A 1_555 1_555
H193A C157A 1_555 1_555
H194A C157A 1_555 1_555
C158A C157A 1_555 1_555
H195A C158A 1_555 1_555
H196A C158A 1_555 1_555
C159A C158A 1_555 1_555
H197A C159A 1_555 1_555
H198A C159A 1_555 1_555
C160A C159A 1_555 1_555
H199A C160A 1_555 1_555
H200A C160A 1_555 1_555
C161A C160A 1_555 1_555
H201A C161A 1_555 1_555
H202A C161A 1_555 1_555
C162A C161A 1_555 1_555
H203A C162A 1_555 1_555
H204A C162A 1_555 1_555
H205A C162A 1_555 1_555
O22A C137A 1_555 1_555
C163A O22A 1_555 1_555
H206A C163A 1_555 1_555
H207A C163A 1_555 1_555
C164A C163A 1_555 1_555
H208A C164A 1_555 1_555
H209A C164A 1_555 1_555
C165A C164A 1_555 1_555
H210A C165A 1_555 1_555
H211A C165A 1_555 1_555
C166A C165A 1_555 1_555
H212A C166A 1_555 1_555
H213A C166A 1_555 1_555
C167A C166A 1_555 1_555
H214A C167A 1_555 1_555
H215A C167A 1_555 1_555
C168A C167A 1_555 1_555
H216A C168A 1_555 1_555
H217A C168A 1_555 1_555
H218A C168A 1_555 1_555
O23A C148A 1_555 1_555
C169A O23A 1_555 1_555
H219A C169A 1_555 1_555
H220A C169A 1_555 1_555
C170A C169A 1_555 1_555
H221A C170A 1_555 1_555
H222A C170A 1_555 1_555
C171A C170A 1_555 1_555
H223A C171A 1_555 1_555
H224A C171A 1_555 1_555
C172A C171A 1_555 1_555
H225A C172A 1_555 1_555
H226A C172A 1_555 1_555
C173A C172A 1_555 1_555
H227A C173A 1_555 1_555
H228A C173A 1_555 1_555
C174A C173A 1_555 1_555
H229A C174A 1_555 1_555
H230A C174A 1_555 1_555
H231A C174A 1_555 1_555
O24A C149A 1_555 1_555
C175A O24A 1_555 1_555
H232A C175A 1_555 1_555
H233A C175A 1_555 1_555
C176A C175A 1_555 1_555
H234A C176A 1_555 1_555
H235A C176A 1_555 1_555
C177A C176A 1_555 1_555
H236A C177A 1_555 1_555
H237A C177A 1_555 1_555
C178A C177A 1_555 1_555
H238A C178A 1_555 1_555
H239A C178A 1_555 1_555
C179A C178A 1_555 1_555
H240A C179A 1_555 1_555
H241A C179A 1_555 1_555
C180A C179A 1_555 1_555
H242A C180A 1_555 1_555
H243A C180A 1_555 1_555
H244A C180A 1_555 1_555
C17 C18 1_555 1_555
C23 C24 1_555 1_555
C24 C25 1_555 1_555
C26 C27 1_555 1_555
C27 C28 1_555 1_555
C29 C30 1_555 1_555
C35 C36 1_555 1_555
C36 C37 1_555 1_555
C37 C38 1_555 1_555
C40 O1 1_555 1_555
C42 O3 1_555 1_555
C144 C145 1_555 1_555
C150 C151 1_555 1_555
C151 C152 1_555 1_555
C152 C153 1_555 1_555
C156 O20 1_555 1_555
C141A C142A 1_555 1_555
C143A C154A 1_555 1_555
C144A C145A 1_555 1_555
C150A C151A 1_555 1_555
C151A C152A 1_555 1_555
C152A C153A 1_555 1_555
C156A O20A 1_555 1_555

#END
