
#######################################################################
#
#                 Cambridge Crystallographic Data Centre
#                                CCDC 
#
#######################################################################
#
# If this CIF has been generated from an entry in the Cambridge 
# Structural Database, then it will include bibliographic, chemical, 
# crystal, experimental, refinement or atomic coordinate data resulting 
# from the CCDC's data processing and validation procedures.
#
#######################################################################

data_KUJTAM
_chemical_formula_moiety         'C57 H51 N7,C1 H4 O1'
_chemical_name_systematic        
"2,2',2''-(nitrilotris(4,1-phenyleneethene-2,1-diyl(5,5-dimethylcyclohex-1-en-1-yl-3-ylidene)))trimalononitrile methanol solvate"
_symmetry_cell_setting           triclinic
_symmetry_space_group_name_H-M   'P -1'
_symmetry_Int_Tables_number      2
_space_group_name_Hall           '-P 1'
loop_
_symmetry_equiv_pos_site_id
_symmetry_equiv_pos_as_xyz
1 x,y,z
2 -x,-y,-z
_cell_length_a                   11.355(2)
_cell_length_b                   11.760(2)
_cell_length_c                   21.448(4)
_cell_angle_alpha                93.664(3)
_cell_angle_beta                 100.751(3)
_cell_angle_gamma                109.647(3)
_cell_volume                     2625.04
_cell_formula_units_Z            2
loop_
_atom_site_label
_atom_site_type_symbol
_atom_site_fract_x
_atom_site_fract_y
_atom_site_fract_z
C1 C 0.5745(3) 0.9083(3) 0.79042(15)
C2 C 0.5244(3) 0.9068(3) 0.84475(15)
H1 H 0.5168 0.9774 0.8627
C3 C 0.4858(3) 0.8011(3) 0.87229(16)
H2 H 0.4512 0.8016 0.9083
C4 C 0.4972(3) 0.6945(3) 0.84764(15)
C5 C 0.5512(3) 0.6989(3) 0.79496(15)
H3 H 0.5640 0.6299 0.7786
C6 C 0.5868(3) 0.8026(3) 0.76573(15)
H4 H 0.6193 0.8013 0.7291
C7 C 0.4522(3) 0.5802(3) 0.87426(16)
H5 H 0.4756 0.5168 0.8592
C8 C 0.3810(3) 0.5580(3) 0.91792(16)
H6 H 0.3598 0.6225 0.9335
C9 C 0.3326(3) 0.4452(3) 0.94399(17)
C10 C 0.3604(4) 0.3359(3) 0.92215(19)
H7 H 0.4451 0.3431 0.9453
H8 H 0.3615 0.3343 0.8770
C11 C 0.2630(5) 0.2148(4) 0.9319(2)
C12 C 0.1350(5) 0.1881(4) 0.8849(2)
H9 H 0.0738 0.1134 0.8919
H10 H 0.1466 0.1804 0.8418
H11 H 0.1042 0.2536 0.8915
C13 C 0.3135(6) 0.1118(4) 0.9226(3)
H12 H 0.2522 0.0368 0.9291
H13 H 0.3931 0.1293 0.9529
H14 H 0.3269 0.1044 0.8799
C14 C 0.2455(5) 0.2259(4) 1.0007(2)
H15 H 0.1767 0.1538 1.0058
H16 H 0.3235 0.2291 1.0297
C15 C 0.2157(5) 0.3348(5) 1.0187(2)
C16 C 0.2651(4) 0.4413(4) 0.98966(19)
H17 H 0.2502 0.5112 1.0028
C17 C 0.1479(7) 0.3351(6) 1.0645(3)
C18 C 0.1030(6) 0.2323(6) 1.0978(3)
C19 C 0.7069(3) 1.0458(3) 0.72706(15)
C20 C 0.8152(3) 1.0161(3) 0.74644(15)
H18 H 0.8248 0.9790 0.7831
C21 C 0.9084(3) 1.0420(3) 0.71111(16)
H19 H 0.9780 1.0172 0.7231
C22 C 0.9018(3) 1.1035(3) 0.65850(15)
C23 C 0.7947(3) 1.1365(3) 0.64122(15)
H20 H 0.7885 1.1800 0.6068
C24 C 0.6976(3) 1.1059(3) 0.67408(15)
H21 H 0.6252 1.1258 0.6605
C25 C 1.0022(3) 1.1286(3) 0.62253(15)
H22 H 1.0533 1.0809 0.6280
C26 C 1.0303(3) 1.2108(3) 0.58288(15)
H23 H 0.9831 1.2620 0.5779
C27 C 1.1297(3) 1.2267(3) 0.54663(15)
C28 C 1.1985(3) 1.1383(3) 0.54875(16)
H24 H 1.1397 1.0605 0.5254
H25 H 1.2230 1.1264 0.5930
C29 C 1.1561(3) 1.3177(3) 0.51084(16)
H26 H 1.1183 1.3762 0.5141
C30 C 1.2404(3) 1.3279(3) 0.46779(16)
C31 C 1.2866(3) 1.2254(3) 0.45839(16)
H27 H 1.3627 1.2529 0.4408
H28 H 1.2212 1.1602 0.4278
C32 C 1.3180(3) 1.1770(3) 0.52097(16)
C33 C 1.3579(4) 1.0660(3) 0.50953(19)
H29 H 1.4319 1.0892 0.4910
H30 H 1.2887 1.0025 0.4808
H31 H 1.3781 1.0372 0.5496
C34 C 1.4268(3) 1.2754(4) 0.56776(19)
H32 H 1.4458 1.2442 0.6072
H33 H 1.4019 1.3444 0.5759
H34 H 1.5014 1.2999 0.5498
C35 C 1.2718(3) 1.4248(3) 0.43454(16)
C36 C 1.3434(4) 1.4310(3) 0.38568(19)
C37 C 1.2321(4) 1.5258(4) 0.44569(17)
C38 C 0.5276(3) 1.0870(3) 0.75790(15)
C39 C 0.5800(3) 1.2128(3) 0.76691(15)
H35 H 0.6686 1.2514 0.7779
C40 C 0.3958(3) 1.0316(3) 0.74542(15)
H36 H 0.3589 0.9471 0.7406
C41 C 0.5028(3) 1.2818(3) 0.75986(16)
H37 H 0.5398 1.3663 0.7647
C42 C 0.3194(3) 1.1005(3) 0.74013(15)
H38 H 0.2310 1.0615 0.7326
C43 C 0.3695(3) 1.2263(3) 0.74556(15)
C44 C 0.2864(3) 1.2980(3) 0.73663(15)
H39 H 0.2065 1.2654 0.7467
C45 C 0.3140(3) 1.4049(3) 0.71561(15)
H40 H 0.3949 1.4390 0.7070
C46 C 0.2298(3) 1.4735(3) 0.70489(15)
C47 C 0.2612(3) 1.5706(3) 0.67293(16)
H41 H 0.3385 1.5926 0.6598
C48 C 0.1823(3) 1.6411(3) 0.65826(16)
C49 C 0.0529(3) 1.5956(3) 0.67321(19)
H42 H -0.0060 1.5359 0.6379
H43 H 0.0225 1.6630 0.6770
C50 C 0.1100(3) 1.4384(3) 0.73003(17)
H44 H 0.1285 1.4147 0.7722
H45 H 0.0464 1.3676 0.7023
C51 C 0.1306(4) 1.6348(4) 0.7926(2)
H46 H 0.2163 1.6727 0.7868
H47 H 0.1332 1.5973 0.8310
H48 H 0.0917 1.6952 0.7959
C52 C 0.0518(3) 1.5375(3) 0.73506(18)
C53 C -0.0863(3) 1.4796(4) 0.7420(2)
H49 H -0.1216 1.5421 0.7478
H50 H -0.0879 1.4363 0.7785
H51 H -0.1362 1.4239 0.7041
C54 C 0.2202(3) 1.7429(3) 0.62954(17)
C55 C 0.3435(4) 1.7863(3) 0.61339(19)
C56 C 0.1414(4) 1.8134(4) 0.6163(2)
C57 C 0.165(2) 0.445(2) 1.0962(9)
N1 N 0.048(2) 0.506(3) 1.0784(12)
N2 N 0.0662(6) 0.1501(5) 1.1237(3)
N3 N 0.6078(2) 1.0164(2) 0.76162(12)
N4 N 1.3986(4) 1.4341(3) 0.34612(17)
N5 N 1.2000(3) 1.6070(3) 0.45533(17)
N6 N 0.4427(4) 1.8203(3) 0.60174(19)
N7 N 0.0769(4) 1.8706(3) 0.6080(2)
O1 O 0.8455(7) 1.0970(8) 0.9444(5)
C58 C 0.803(2) 1.1995(17) 0.9256(11)
C59 C 0.770(3) 1.215(2) 1.0152(10)
O2 O 0.6657(9) 1.2138(9) 0.9522(6)
N8? N 0.144(3) 0.544(3) 1.1129(11)
C60? C 0.083(2) 0.4383(18) 1.0734(9)
loop_
_geom_bond_atom_site_label_1
_geom_bond_atom_site_label_2
_geom_bond_site_symmetry_1
_geom_bond_site_symmetry_2
C1 C2 1_555 1_555
C2 H1 1_555 1_555
C3 C2 1_555 1_555
H2 C3 1_555 1_555
C4 C3 1_555 1_555
C5 C4 1_555 1_555
H3 C5 1_555 1_555
C6 C1 1_555 1_555
H4 C6 1_555 1_555
C7 C4 1_555 1_555
H5 C7 1_555 1_555
C8 C7 1_555 1_555
H6 C8 1_555 1_555
C9 C8 1_555 1_555
C10 C9 1_555 1_555
H7 C10 1_555 1_555
H8 C10 1_555 1_555
C11 C10 1_555 1_555
C12 C11 1_555 1_555
H9 C12 1_555 1_555
H10 C12 1_555 1_555
H11 C12 1_555 1_555
C13 C11 1_555 1_555
H12 C13 1_555 1_555
H13 C13 1_555 1_555
H14 C13 1_555 1_555
C14 C11 1_555 1_555
H15 C14 1_555 1_555
H16 C14 1_555 1_555
C15 C14 1_555 1_555
C16 C9 1_555 1_555
H17 C16 1_555 1_555
C17 C15 1_555 1_555
C18 C17 1_555 1_555
C19 C20 1_555 1_555
C20 H18 1_555 1_555
C21 C20 1_555 1_555
H19 C21 1_555 1_555
C22 C21 1_555 1_555
C23 C22 1_555 1_555
H20 C23 1_555 1_555
C24 C19 1_555 1_555
H21 C24 1_555 1_555
C25 C22 1_555 1_555
H22 C25 1_555 1_555
C26 C25 1_555 1_555
H23 C26 1_555 1_555
C27 C26 1_555 1_555
C28 C27 1_555 1_555
H24 C28 1_555 1_555
H25 C28 1_555 1_555
C29 C27 1_555 1_555
H26 C29 1_555 1_555
C30 C29 1_555 1_555
C31 C30 1_555 1_555
H27 C31 1_555 1_555
H28 C31 1_555 1_555
C32 C28 1_555 1_555
C33 C32 1_555 1_555
H29 C33 1_555 1_555
H30 C33 1_555 1_555
H31 C33 1_555 1_555
C34 C32 1_555 1_555
H32 C34 1_555 1_555
H33 C34 1_555 1_555
H34 C34 1_555 1_555
C35 C30 1_555 1_555
C36 C35 1_555 1_555
C37 C35 1_555 1_555
C38 C39 1_555 1_555
C39 H35 1_555 1_555
C40 C38 1_555 1_555
H36 C40 1_555 1_555
C41 C39 1_555 1_555
H37 C41 1_555 1_555
C42 C40 1_555 1_555
H38 C42 1_555 1_555
C43 C41 1_555 1_555
C44 C43 1_555 1_555
H39 C44 1_555 1_555
C45 C44 1_555 1_555
H40 C45 1_555 1_555
C46 C45 1_555 1_555
C47 C46 1_555 1_555
H41 C47 1_555 1_555
C48 C47 1_555 1_555
C49 C48 1_555 1_555
H42 C49 1_555 1_555
H43 C49 1_555 1_555
C50 C46 1_555 1_555
H44 C50 1_555 1_555
H45 C50 1_555 1_555
C51 H46 1_555 1_555
H47 C51 1_555 1_555
H48 C51 1_555 1_555
C52 C49 1_555 1_555
C53 C52 1_555 1_555
H49 C53 1_555 1_555
H50 C53 1_555 1_555
H51 C53 1_555 1_555
C54 C48 1_555 1_555
C55 C54 1_555 1_555
C56 C54 1_555 1_555
C57 C17 1_555 1_555
N1 C57 1_555 1_555
N2 C18 1_555 1_555
N3 C1 1_555 1_555
N4 C36 1_555 1_555
N5 C37 1_555 1_555
N6 C55 1_555 1_555
N7 C56 1_555 1_555
O1 C58 1_555 1_555
C59 O2 1_555 1_555
C5 C6 1_555 1_555
C15 C16 1_555 1_555
C19 N3 1_555 1_555
C23 C24 1_555 1_555
C31 C32 1_555 1_555
C38 N3 1_555 1_555
C42 C43 1_555 1_555
C50 C52 1_555 1_555
C51 C52 1_555 1_555

#END
