
#######################################################################
#
#                 Cambridge Crystallographic Data Centre
#                                CCDC 
#
#######################################################################
#
# If this CIF has been generated from an entry in the Cambridge 
# Structural Database, then it will include bibliographic, chemical, 
# crystal, experimental, refinement or atomic coordinate data resulting 
# from the CCDC's data processing and validation procedures.
#
#######################################################################

data_KUJXES
_chemical_formula_moiety         'C23 H20 B1 N1 O3'
_chemical_name_systematic        
'bis(p-Methoxyphenyl)-8-hydroxyquinoline borolactone'
_symmetry_cell_setting           monoclinic
_symmetry_space_group_name_H-M   'P 21/a'
_symmetry_Int_Tables_number      14
_space_group_name_Hall           '-P 2yab'
loop_
_symmetry_equiv_pos_site_id
_symmetry_equiv_pos_as_xyz
1 x,y,z
2 1/2-x,1/2+y,-z
3 -x,-y,-z
4 1/2+x,1/2-y,z
_cell_length_a                   10.008(1)
_cell_length_b                   13.956(2)
_cell_length_c                   13.617(3)
_cell_angle_alpha                90
_cell_angle_beta                 100.15(1)
_cell_angle_gamma                90
_cell_volume                     1872.14
_cell_formula_units_Z            4
loop_
_atom_site_label
_atom_site_type_symbol
_atom_site_fract_x
_atom_site_fract_y
_atom_site_fract_z
O1 O 0.848(2) -0.234(1) 0.873(2)
O2 O 0.857(2) 0.491(2) 0.908(2)
O3 O 0.683(1) 0.147(1) 0.605(2)
N1 N 0.922(2) 0.133(1) 0.603(2)
B1 B 0.814(3) 0.138(2) 0.683(3)
C1 C 0.975(3) -0.263(2) 0.938(3)
C2 C 0.800(3) 0.499(2) 1.002(2)
C3 C 0.820(3) 0.036(2) 0.742(2)
C4 C 0.718(3) -0.032(2) 0.713(3)
C5 C 0.737(2) -0.124(2) 0.764(2)
C6 C 0.848(2) -0.142(2) 0.831(2)
C7 C 0.949(2) -0.077(2) 0.863(2)
C8 C 0.934(2) 0.015(2) 0.811(2)
C9 C 0.835(2) 0.233(2) 0.753(2)
C10 C 0.913(2) 0.313(2) 0.727(2)
C11 C 0.917(2) 0.397(2) 0.782(2)
C12 C 0.848(2) 0.407(2) 0.865(2)
C13 C 0.769(2) 0.329(2) 0.891(3)
C14 C 0.763(2) 0.246(2) 0.824(2)
C15 C 1.054(2) 0.131(2) 0.624(2)
C16 C 1.111(3) 0.118(1) 0.531(3)
C17 C 1.048(3) 0.118(2) 0.438(2)
C18 C 0.809(3) 0.121(2) 0.332(3)
C19 C 0.664(3) 0.131(2) 0.330(2)
C20 C 0.613(3) 0.136(2) 0.427(3)
C21 C 0.694(3) 0.138(2) 0.505(3)
C22 C 0.895(2) 0.127(2) 0.420(2)
C23 C 0.846(2) 0.134(2) 0.513(2)
loop_
_geom_bond_atom_site_label_1
_geom_bond_atom_site_label_2
_geom_bond_site_symmetry_1
_geom_bond_site_symmetry_2
O1 C1 1_555 1_555
O2 C2 1_555 1_555
O3 B1 1_555 1_555
N1 B1 1_555 1_555
B1 C3 1_555 1_555
C3 C4 1_555 1_555
C4 C5 1_555 1_555
C5 C6 1_555 1_555
C6 O1 1_555 1_555
C7 C6 1_555 1_555
C8 C3 1_555 1_555
C9 B1 1_555 1_555
C10 C9 1_555 1_555
C11 C10 1_555 1_555
C12 O2 1_555 1_555
C13 C12 1_555 1_555
C14 C9 1_555 1_555
C15 N1 1_555 1_555
C16 C15 1_555 1_555
C17 C16 1_555 1_555
C18 C19 1_555 1_555
C19 C20 1_555 1_555
C20 C21 1_555 1_555
C21 O3 1_555 1_555
C22 C17 1_555 1_555
C23 N1 1_555 1_555
C7 C8 1_555 1_555
C11 C12 1_555 1_555
C13 C14 1_555 1_555
C18 C22 1_555 1_555
C21 C23 1_555 1_555
C22 C23 1_555 1_555

#END
