
#######################################################################
#
#                 Cambridge Crystallographic Data Centre
#                                CCDC 
#
#######################################################################
#
# If this CIF has been generated from an entry in the Cambridge 
# Structural Database, then it will include bibliographic, chemical, 
# crystal, experimental, refinement or atomic coordinate data resulting 
# from the CCDC's data processing and validation procedures.
#
#######################################################################

data_KUJXUJ
_chemical_formula_moiety         'C17 H10 F3 N1 O4'
_chemical_name_systematic        
'(R)-1,1,1-trifluoro-4-phenylbut-3-yn-2-yl 4-nitrobenzoate'
_symmetry_cell_setting           rhombohedral
_symmetry_space_group_name_H-M   'R 3'
_symmetry_Int_Tables_number      146
_space_group_name_Hall           'R 3'
loop_
_symmetry_equiv_pos_site_id
_symmetry_equiv_pos_as_xyz
1 x,y,z
2 -y,x-y,z
3 -x+y,-x,z
4 2/3+x,1/3+y,1/3+z
5 2/3-y,1/3+x-y,1/3+z
6 2/3-x+y,1/3-x,1/3+z
7 1/3+x,2/3+y,2/3+z
8 1/3-y,2/3+x-y,2/3+z
9 1/3-x+y,2/3-x,2/3+z
_cell_length_a                   30.9135(12)
_cell_length_b                   30.9135(12)
_cell_length_c                   4.4600(2)
_cell_angle_alpha                90
_cell_angle_beta                 90
_cell_angle_gamma                120
_cell_volume                     3691.15
_exptl_crystal_colour            silver
_exptl_crystal_description       block
_chemical_melting_point          78-79deg.C
_cell_formula_units_Z            9
loop_
_atom_site_label
_atom_site_type_symbol
_atom_site_fract_x
_atom_site_fract_y
_atom_site_fract_z
C1 C 0.34317(9) 0.58879(10) 0.0440(5)
C2 C 0.31449(8) 0.53337(8) 0.0814(5)
H1 H 0.3054 0.5177 -0.1171
C3 C 0.34154(10) 0.51353(10) 0.2426(6)
C4 C 0.36335(10) 0.49574(10) 0.3665(5)
C5 C 0.38892(10) 0.47293(10) 0.5041(5)
C6 C 0.43898(11) 0.49102(11) 0.4489(7)
H2 H 0.4566 0.5188 0.3267
C7 C 0.46286(12) 0.46797(15) 0.5744(8)
H3 H 0.4966 0.4803 0.5359
C8 C 0.43775(15) 0.42742(15) 0.7536(7)
H4 H 0.4542 0.4120 0.8365
C9 C 0.38881(17) 0.40950(12) 0.8115(7)
H5 H 0.3719 0.3821 0.9376
C10 C 0.36357(11) 0.43149(11) 0.6853(7)
H6 H 0.3297 0.4184 0.7225
C11 C 0.22919(8) 0.47795(8) 0.1882(5)
C12 C 0.18494(7) 0.47021(7) 0.3612(5)
C13 C 0.14394(9) 0.42283(9) 0.3667(6)
H7 H 0.1451 0.3968 0.2689
C14 C 0.10153(9) 0.41386(10) 0.5157(7)
H8 H 0.0737 0.3820 0.5191
C15 C 0.10072(8) 0.45243(9) 0.6593(5)
C16 C 0.14086(8) 0.49965(8) 0.6580(6)
H9 H 0.1395 0.5254 0.7575
C17 C 0.18335(8) 0.50877(8) 0.5080(5)
H10 H 0.2110 0.5408 0.5050
N1 N 0.05540(9) 0.44297(12) 0.8193(6)
O1 O 0.26951(5) 0.52309(5) 0.2394(3)
O2 O 0.23022(7) 0.44843(7) 0.0189(4)
O3 O 0.01797(9) 0.40316(12) 0.7693(9)
O4 O 0.05688(9) 0.47325(10) 0.9895(6)
F1 F 0.31749(6) 0.60444(6) -0.1148(3)
F2 F 0.35486(6) 0.61349(5) 0.3004(3)
F3 F 0.38563(5) 0.60288(6) -0.1015(3)
loop_
_geom_bond_atom_site_label_1
_geom_bond_atom_site_label_2
_geom_bond_site_symmetry_1
_geom_bond_site_symmetry_2
C1 C2 1_555 1_555
C2 H1 1_555 1_555
C3 C2 1_555 1_555
C4 C3 1_555 1_555
C5 C4 1_555 1_555
C6 C5 1_555 1_555
H2 C6 1_555 1_555
C7 C6 1_555 1_555
H3 C7 1_555 1_555
C8 C7 1_555 1_555
H4 C8 1_555 1_555
C9 C8 1_555 1_555
H5 C9 1_555 1_555
C10 C5 1_555 1_555
H6 C10 1_555 1_555
C11 C12 1_555 1_555
C12 C13 1_555 1_555
C13 H7 1_555 1_555
C14 C13 1_555 1_555
H8 C14 1_555 1_555
C15 C14 1_555 1_555
C16 C15 1_555 1_555
H9 C16 1_555 1_555
C17 C12 1_555 1_555
H10 C17 1_555 1_555
N1 C15 1_555 1_555
O1 C2 1_555 1_555
O2 C11 1_555 1_555
O3 N1 1_555 1_555
O4 N1 1_555 1_555
F1 C1 1_555 1_555
F2 C1 1_555 1_555
F3 C1 1_555 1_555
C9 C10 1_555 1_555
C11 O1 1_555 1_555
C16 C17 1_555 1_555

#END
