
#######################################################################
#
#                 Cambridge Crystallographic Data Centre
#                                CCDC 
#
#######################################################################
#
# If this CIF has been generated from an entry in the Cambridge 
# Structural Database, then it will include bibliographic, chemical, 
# crystal, experimental, refinement or atomic coordinate data resulting 
# from the CCDC's data processing and validation procedures.
#
#######################################################################

data_KUKDEB
_chemical_compound_source        'aerial parts of Hypericum ascyron'
_chemical_name_common            
'3,4-seco-Olean-13(18)-ene-12,19-dione-3-oic acid'
_chemical_formula_moiety         'C30 H46 O4'
_chemical_name_systematic        
'3-(2-Isopropyl-1,4a,4b,6a,9,9-hexamethyl-10,11-dioxo-1,2,3,4,4a,4b,5,6,6a,7,8,9,10,11,12,12a-hexadecahydrochrysen-1-yl)propanoic acid'
_symmetry_cell_setting           monoclinic
_symmetry_space_group_name_H-M   'P 21'
_symmetry_Int_Tables_number      4
_space_group_name_Hall           'P 2yb'
loop_
_symmetry_equiv_pos_site_id
_symmetry_equiv_pos_as_xyz
1 x,y,z
2 -x,1/2+y,-z
_cell_length_a                   9.3962(2)
_cell_length_b                   12.5915(3)
_cell_length_c                   11.2401(3)
_cell_angle_alpha                90
_cell_angle_beta                 93.6990(10)
_cell_angle_gamma                90
_cell_volume                     1327.07
_exptl_crystal_colour            colorless
_exptl_crystal_description       block
_cell_formula_units_Z            2
_exptl_crystal_recrystallization_method methanol
loop_
_atom_site_label
_atom_site_type_symbol
_atom_site_fract_x
_atom_site_fract_y
_atom_site_fract_z
O1 O 0.35387(16) 0.47240(12) 0.22559(14)
H1 H 0.2833 0.5102 0.2037
O2 O 0.18793(17) 0.34636(14) 0.23381(18)
O3 O 0.82847(15) 0.10603(12) 0.88493(12)
O4 O 0.66454(15) 0.25070(13) 0.72120(13)
C1 C 0.3105(2) 0.37404(18) 0.24634(19)
C2 C 0.4323(2) 0.30553(17) 0.29059(19)
H2 H 0.4781 0.3379 0.3637
H3 H 0.5039 0.3039 0.2297
C3 C 0.38977(19) 0.19168(16) 0.31849(17)
H4 H 0.3165 0.1689 0.2565
H5 H 0.3441 0.1922 0.3955
C4 C 0.50981(17) 0.10618(15) 0.32637(16)
C5 C 0.63354(17) 0.14849(14) 0.41516(16)
H6 H 0.6539 0.2217 0.3862
C6 C 0.58551(19) 0.16469(19) 0.54178(18)
H7 H 0.5071 0.2173 0.5380
H8 H 0.5458 0.0967 0.5690
C7 C 0.69830(19) 0.20141(15) 0.63484(17)
C8 C 0.85086(18) 0.17397(14) 0.61889(17)
C9 C 0.94254(18) 0.16736(14) 0.71548(17)
C10 C 0.89777(19) 0.17590(15) 0.84111(17)
C11 C 0.96604(19) 0.26495(17) 0.91584(17)
C12 C 0.9277(2) 0.37310(17) 0.8600(2)
H9 H 0.9505 0.3731 0.7762
H10 H 0.9826 0.4289 0.9030
H11 H 0.8255 0.3865 0.8653
C13 C 0.57134(17) 0.09372(14) 0.20169(16)
H12 H 0.6014 0.1667 0.1786
C14 C 0.46315(18) 0.05631(16) 0.09920(17)
H13 H 0.3651 0.0707 0.1249
C15 C 0.4836(2) 0.12361(17) -0.01169(19)
H14 H 0.5828 0.1181 -0.0332
H15 H 0.4612 0.1979 0.0050
H16 H 0.4199 0.0979 -0.0779
C16 C 0.4706(2) -0.06197(17) 0.06716(18)
H17 H 0.3928 -0.0795 0.0082
H18 H 0.4616 -0.1048 0.1390
H19 H 0.5623 -0.0771 0.0338
C17 C 0.70745(19) 0.02694(16) 0.20815(17)
H20 H 0.6858 -0.0451 0.2372
H21 H 0.7424 0.0200 0.1273
C18 C 0.82311(18) 0.07664(17) 0.29067(18)
H22 H 0.8482 0.1469 0.2586
H23 H 0.9094 0.0314 0.2917
C19 C 0.77945(18) 0.09067(14) 0.41895(16)
C20 C 0.7716(2) -0.01897(16) 0.4789(2)
H24 H 0.6861 -0.0565 0.4470
H25 H 0.7674 -0.0098 0.5652
H26 H 0.8565 -0.0604 0.4626
C21 C 0.89360(17) 0.16222(15) 0.49147(16)
C22 C 1.04308(18) 0.11078(17) 0.49033(17)
H27 H 1.0348 0.0336 0.5052
H28 H 1.0800 0.1202 0.4105
C23 C 1.14864(18) 0.15893(17) 0.58410(18)
H29 H 1.1613 0.2351 0.5657
H30 H 1.2422 0.1237 0.5790
C24 C 1.10278(19) 0.14876(15) 0.71175(18)
C25 C 1.1371(2) 0.03635(16) 0.7610(2)
H31 H 1.1044 0.0302 0.8418
H32 H 1.2403 0.0243 0.7632
H33 H 1.0883 -0.0167 0.7093
C26 C 1.18040(19) 0.23404(15) 0.78950(18)
H34 H 1.2836 0.2175 0.7957
H35 H 1.1682 0.3036 0.7490
C27 C 1.1291(2) 0.24394(16) 0.91496(18)
H36 H 1.1811 0.3028 0.9568
H37 H 1.1524 0.1776 0.9594
C28 C 0.9200(2) 0.25966(19) 1.04297(19)
H38 H 0.8160 0.2659 1.0423
H39 H 0.9643 0.3180 1.0897
H40 H 0.9500 0.1917 1.0789
C29 C 0.9022(2) 0.27605(16) 0.44058(18)
H41 H 0.8135 0.3141 0.4536
H42 H 0.9156 0.2724 0.3549
H43 H 0.9828 0.3137 0.4810
C30 C 0.4389(2) 0.00328(16) 0.36447(19)
H44 H 0.4170 0.0086 0.4483
H45 H 0.5038 -0.0565 0.3545
H46 H 0.3505 -0.0081 0.3150
loop_
_geom_bond_atom_site_label_1
_geom_bond_atom_site_label_2
_geom_bond_site_symmetry_1
_geom_bond_site_symmetry_2
O1 H1 1_555 1_555
O2 C1 1_555 1_555
O3 C10 1_555 1_555
O4 C7 1_555 1_555
C1 O1 1_555 1_555
C2 C1 1_555 1_555
H2 C2 1_555 1_555
H3 C2 1_555 1_555
C3 C2 1_555 1_555
H4 C3 1_555 1_555
H5 C3 1_555 1_555
C4 C3 1_555 1_555
C5 C4 1_555 1_555
H6 C5 1_555 1_555
C6 C5 1_555 1_555
H7 C6 1_555 1_555
H8 C6 1_555 1_555
C7 C6 1_555 1_555
C8 C7 1_555 1_555
C9 C8 1_555 1_555
C10 C9 1_555 1_555
C11 C10 1_555 1_555
C12 C11 1_555 1_555
H9 C12 1_555 1_555
H10 C12 1_555 1_555
H11 C12 1_555 1_555
C13 C4 1_555 1_555
H12 C13 1_555 1_555
C14 C13 1_555 1_555
H13 C14 1_555 1_555
C15 C14 1_555 1_555
H14 C15 1_555 1_555
H15 C15 1_555 1_555
H16 C15 1_555 1_555
C16 C14 1_555 1_555
H17 C16 1_555 1_555
H18 C16 1_555 1_555
H19 C16 1_555 1_555
C17 C13 1_555 1_555
H20 C17 1_555 1_555
H21 C17 1_555 1_555
C18 C17 1_555 1_555
H22 C18 1_555 1_555
H23 C18 1_555 1_555
C19 C5 1_555 1_555
C20 C19 1_555 1_555
H24 C20 1_555 1_555
H25 C20 1_555 1_555
H26 C20 1_555 1_555
C21 C8 1_555 1_555
C22 C21 1_555 1_555
H27 C22 1_555 1_555
H28 C22 1_555 1_555
C23 C22 1_555 1_555
H29 C23 1_555 1_555
H30 C23 1_555 1_555
C24 C9 1_555 1_555
C25 C24 1_555 1_555
H31 C25 1_555 1_555
H32 C25 1_555 1_555
H33 C25 1_555 1_555
C26 C24 1_555 1_555
H34 C26 1_555 1_555
H35 C26 1_555 1_555
C27 C11 1_555 1_555
H36 C27 1_555 1_555
H37 C27 1_555 1_555
C28 C11 1_555 1_555
H38 C28 1_555 1_555
H39 C28 1_555 1_555
H40 C28 1_555 1_555
C29 C21 1_555 1_555
H41 C29 1_555 1_555
H42 C29 1_555 1_555
H43 C29 1_555 1_555
C30 C4 1_555 1_555
H44 C30 1_555 1_555
H45 C30 1_555 1_555
H46 C30 1_555 1_555
C18 C19 1_555 1_555
C19 C21 1_555 1_555
C23 C24 1_555 1_555
C26 C27 1_555 1_555

#END
