
#######################################################################
#
#                 Cambridge Crystallographic Data Centre
#                                CCDC 
#
#######################################################################
#
# If this CIF has been generated from an entry in the Cambridge 
# Structural Database, then it will include bibliographic, chemical, 
# crystal, experimental, refinement or atomic coordinate data resulting 
# from the CCDC's data processing and validation procedures.
#
#######################################################################

data_KUKJOR
_chemical_compound_source        'Abies nukiangensis'
_chemical_formula_moiety         'C30 H50 O3,C1 H4 O1'
_chemical_name_systematic        
'3-Oxolanost-9(11)-ene-24S,25-diol methanol solvate'
_chemical_properties_biological  
'Tested for anti-hepatitis C virus (anti-HCV) on n4mBid cells and cytotoxicity against QGY-7703 and A549 tumor cell lines'
_symmetry_cell_setting           orthorhombic
_symmetry_space_group_name_H-M   'P 21 21 21'
_symmetry_Int_Tables_number      19
_space_group_name_Hall           'P 2ac 2ab'
loop_
_symmetry_equiv_pos_site_id
_symmetry_equiv_pos_as_xyz
1 x,y,z
2 1/2+x,1/2-y,-z
3 -x,1/2+y,1/2-z
4 1/2-x,-y,1/2+z
_cell_length_a                   7.4106(2)
_cell_length_b                   11.5382(3)
_cell_length_c                   33.6902(9)
_cell_angle_alpha                90
_cell_angle_beta                 90
_cell_angle_gamma                90
_cell_volume                     2880.68
_exptl_crystal_colour            colorless
_exptl_crystal_description       plate
_cell_formula_units_Z            4
loop_
_atom_site_label
_atom_site_type_symbol
_atom_site_fract_x
_atom_site_fract_y
_atom_site_fract_z
O1 O 0.2976(2) -0.30543(13) -0.15772(4)
O2 O -0.24525(16) 0.38972(11) 0.19783(4)
H1 H -0.3382 0.3618 0.2084
O3 O 0.14574(17) 0.32160(14) 0.25920(4)
H2 H 0.1579 0.3249 0.2840
C1 C 0.3253(2) -0.07895(14) -0.08896(5)
H3 H 0.3709 -0.1415 -0.0715
H4 H 0.3992 -0.0089 -0.0840
C2 C 0.3475(2) -0.11594(17) -0.13259(5)
H5 H 0.3129 -0.0508 -0.1501
H6 H 0.4757 -0.1347 -0.1378
C3 C 0.2330(2) -0.21952(16) -0.14202(5)
C4 C 0.0327(2) -0.21230(15) -0.13212(5)
C5 C 0.0090(2) -0.16008(13) -0.08952(5)
H7 H 0.0494 -0.2230 -0.0711
C6 C -0.1884(2) -0.13879(15) -0.07859(5)
H8 H -0.2330 -0.0686 -0.0924
H9 H -0.2629 -0.2054 -0.0872
C7 C -0.2055(2) -0.12292(15) -0.03382(5)
H10 H -0.1681 -0.1953 -0.0204
H11 H -0.3335 -0.1082 -0.0270
C8 C -0.08907(19) -0.02156(13) -0.01844(5)
H12 H -0.1410 0.0514 -0.0297
C9 C 0.10485(19) -0.03053(13) -0.03331(5)
C10 C 0.1279(2) -0.05298(13) -0.07825(5)
C11 C 0.2451(2) -0.00896(14) -0.00936(5)
H13 H 0.3625 -0.0216 -0.0198
C12 C 0.2315(2) 0.03395(14) 0.03306(5)
H14 H 0.3226 0.0954 0.0375
H15 H 0.2578 -0.0307 0.0515
C13 C 0.04345(19) 0.08204(13) 0.04173(5)
C14 C -0.09535(19) -0.01020(13) 0.02743(5)
C15 C -0.2745(2) 0.03665(14) 0.04393(5)
H16 H -0.3616 -0.0272 0.0483
H17 H -0.3285 0.0936 0.0254
C16 C -0.2231(2) 0.09525(15) 0.08381(5)
H18 H -0.2723 0.0503 0.1064
H19 H -0.2730 0.1748 0.0850
C17 C -0.0133(2) 0.09887(13) 0.08595(5)
H20 H 0.0258 0.0277 0.1006
C18 C 0.0215(2) 0.19826(13) 0.01960(5)
H21 H 0.1101 0.2541 0.0297
H22 H -0.1005 0.2284 0.0239
H23 H 0.0410 0.1861 -0.0089
C19 C 0.0706(2) 0.06092(15) -0.09913(5)
H24 H 0.1351 0.1264 -0.0872
H25 H -0.0597 0.0722 -0.0960
H26 H 0.1003 0.0562 -0.1274
C20 C 0.0621(2) 0.20348(14) 0.10906(5)
H27 H 0.0325 0.2756 0.0939
C21 C 0.2668(2) 0.19570(18) 0.11328(6)
H28 H 0.3095 0.2584 0.1305
H29 H 0.3230 0.2029 0.0871
H30 H 0.2992 0.1208 0.1250
C22 C -0.0287(2) 0.21108(14) 0.14998(5)
H31 H -0.1605 0.2191 0.1460
H32 H -0.0076 0.1373 0.1642
C23 C 0.0365(2) 0.31109(14) 0.17629(5)
H33 H 0.1597 0.2941 0.1860
H34 H 0.0416 0.3832 0.1604
C24 C -0.0897(2) 0.32858(14) 0.21162(5)
H35 H -0.1298 0.2504 0.2209
C25 C -0.0061(2) 0.39260(15) 0.24725(5)
C26 C 0.0603(3) 0.51278(17) 0.23604(6)
H36 H 0.1076 0.5518 0.2597
H37 H -0.0399 0.5579 0.2251
H38 H 0.1562 0.5061 0.2161
C27 C -0.1399(3) 0.39707(18) 0.28129(5)
H39 H -0.1763 0.3181 0.2884
H40 H -0.2464 0.4415 0.2732
H41 H -0.0835 0.4345 0.3043
C28 C -0.0555(2) -0.14035(17) -0.16550(5)
H42 H 0.0071 -0.0659 -0.1680
H43 H -0.1827 -0.1267 -0.1591
H44 H -0.0468 -0.1827 -0.1906
C29 C -0.0486(3) -0.33485(16) -0.13318(5)
H45 H -0.0212 -0.3713 -0.1588
H46 H -0.1797 -0.3300 -0.1298
H47 H 0.0033 -0.3814 -0.1117
C30 C -0.0606(2) -0.12950(14) 0.04668(5)
H48 H -0.0456 -0.1199 0.0754
H49 H 0.0493 -0.1635 0.0354
H50 H -0.1632 -0.1808 0.0415
O4 O 0.4786(2) 0.26799(15) 0.23079(6)
H51 H 0.365(4) 0.282(2) 0.2395(7)
C31 C 0.4685(3) 0.1506(2) 0.21922(9)
H52 H 0.364(4) 0.137(3) 0.2007(9)
H53 H 0.564(5) 0.124(3) 0.2045(9)
H54 H 0.439(7) 0.100(4) 0.2409(14)
loop_
_geom_bond_atom_site_label_1
_geom_bond_atom_site_label_2
_geom_bond_site_symmetry_1
_geom_bond_site_symmetry_2
O1 C3 1_555 1_555
O2 H1 1_555 1_555
O3 H2 1_555 1_555
C1 H3 1_555 1_555
H4 C1 1_555 1_555
C2 C1 1_555 1_555
H5 C2 1_555 1_555
H6 C2 1_555 1_555
C3 C2 1_555 1_555
C4 C3 1_555 1_555
C5 C4 1_555 1_555
H7 C5 1_555 1_555
C6 C5 1_555 1_555
H8 C6 1_555 1_555
H9 C6 1_555 1_555
C7 C6 1_555 1_555
H10 C7 1_555 1_555
H11 C7 1_555 1_555
C8 C7 1_555 1_555
H12 C8 1_555 1_555
C9 C8 1_555 1_555
C10 C1 1_555 1_555
C11 C9 1_555 1_555
H13 C11 1_555 1_555
C12 C11 1_555 1_555
H14 C12 1_555 1_555
H15 C12 1_555 1_555
C13 C12 1_555 1_555
C14 C8 1_555 1_555
C15 C14 1_555 1_555
H16 C15 1_555 1_555
H17 C15 1_555 1_555
C16 C15 1_555 1_555
H18 C16 1_555 1_555
H19 C16 1_555 1_555
C17 C13 1_555 1_555
H20 C17 1_555 1_555
C18 C13 1_555 1_555
H21 C18 1_555 1_555
H22 C18 1_555 1_555
H23 C18 1_555 1_555
C19 C10 1_555 1_555
H24 C19 1_555 1_555
H25 C19 1_555 1_555
H26 C19 1_555 1_555
C20 C17 1_555 1_555
H27 C20 1_555 1_555
C21 C20 1_555 1_555
H28 C21 1_555 1_555
H29 C21 1_555 1_555
H30 C21 1_555 1_555
C22 C20 1_555 1_555
H31 C22 1_555 1_555
H32 C22 1_555 1_555
C23 C22 1_555 1_555
H33 C23 1_555 1_555
H34 C23 1_555 1_555
C24 O2 1_555 1_555
H35 C24 1_555 1_555
C25 O3 1_555 1_555
C26 C25 1_555 1_555
H36 C26 1_555 1_555
H37 C26 1_555 1_555
H38 C26 1_555 1_555
C27 C25 1_555 1_555
H39 C27 1_555 1_555
H40 C27 1_555 1_555
H41 C27 1_555 1_555
C28 C4 1_555 1_555
H42 C28 1_555 1_555
H43 C28 1_555 1_555
H44 C28 1_555 1_555
C29 C4 1_555 1_555
H45 C29 1_555 1_555
H46 C29 1_555 1_555
H47 C29 1_555 1_555
C30 C14 1_555 1_555
H48 C30 1_555 1_555
H49 C30 1_555 1_555
H50 C30 1_555 1_555
O4 H51 1_555 1_555
C31 O4 1_555 1_555
H52 C31 1_555 1_555
H53 C31 1_555 1_555
H54 C31 1_555 1_555
C5 C10 1_555 1_555
C9 C10 1_555 1_555
C13 C14 1_555 1_555
C16 C17 1_555 1_555
C23 C24 1_555 1_555
C24 C25 1_555 1_555

#END
