
#######################################################################
#
#                 Cambridge Crystallographic Data Centre
#                                CCDC 
#
#######################################################################
#
# If this CIF has been generated from an entry in the Cambridge 
# Structural Database, then it will include bibliographic, chemical, 
# crystal, experimental, refinement or atomic coordinate data resulting 
# from the CCDC's data processing and validation procedures.
#
#######################################################################

data_KUKTUH
_chemical_compound_source        'seeds of Prinsepia utilis'
_chemical_name_common            'Prinsepicyanoside C'
_chemical_formula_moiety         'C15 H21 N1 O7,H2 O1'
_chemical_name_systematic        
'(6-((3-cyano-2-methylprop-2-en-1-yl)oxy)-3,4,5-trihydroxytetrahydro-2H-pyran-2-yl)methyl but-2-enoate monohydrate'
_chemical_properties_biological  
'Tested for antibacterial activity against Salmonella gallinarum, Vibrio parahaemolyticus, and Vibrio cholera'
_symmetry_cell_setting           monoclinic
_symmetry_space_group_name_H-M   'C 2'
_symmetry_Int_Tables_number      5
_space_group_name_Hall           'C 2y'
loop_
_symmetry_equiv_pos_site_id
_symmetry_equiv_pos_as_xyz
1 x,y,z
2 -x,y,-z
3 1/2+x,1/2+y,z
4 1/2-x,1/2+y,-z
_cell_length_a                   14.4893(3)
_cell_length_b                   6.16850(10)
_cell_length_c                   19.7521(4)
_cell_angle_alpha                90
_cell_angle_beta                 104.5370(10)
_cell_angle_gamma                90
_cell_volume                     1708.87
_exptl_crystal_colour            colorless
_exptl_crystal_description       plate
_cell_formula_units_Z            4
loop_
_atom_site_label
_atom_site_type_symbol
_atom_site_fract_x
_atom_site_fract_y
_atom_site_fract_z
N1 N 0.65067(18) 0.9331(4) 0.96545(10)
O1 O 0.72798(9) 0.9471(2) 0.70102(6)
O2 O 0.63976(9) 1.2235(2) 0.72800(6)
O3 O 0.52728(9) 1.2292(3) 0.58627(7)
H1 H 0.5281 1.3626 0.5950
O4 O 0.63059(9) 1.0488(2) 0.49077(6)
H2 H 0.5794 1.1144 0.4732
O5 O 0.70282(10) 0.6369(2) 0.53913(7)
H3 H 0.7550 0.6005 0.5312
O6 O 0.84160(10) 0.5692(3) 0.75221(7)
O7 O 0.91027(11) 0.2729(3) 0.71934(7)
C1 C 0.63778(13) 1.0519(3) 0.68172(9)
H4 H 0.5858 0.9477 0.6842
C2 C 0.62127(13) 1.1447(3) 0.60842(9)
H5 H 0.6691 1.2606 0.6073
C3 C 0.62823(13) 0.9646(3) 0.55733(9)
H6 H 0.5708 0.8697 0.5512
C4 C 0.71624(13) 0.8251(3) 0.58154(9)
H7 H 0.7731 0.9064 0.5750
C5 C 0.73271(13) 0.7610(3) 0.65878(9)
H8 H 0.6837 0.6524 0.6640
C6 C 0.83097(14) 0.6649(4) 0.68398(10)
H9 H 0.8408 0.5528 0.6506
H10 H 0.8796 0.7794 0.6865
C7 C 0.87944(13) 0.3699(3) 0.76246(10)
C8 C 0.87897(14) 0.2860(4) 0.83187(10)
H11 H 0.8667 0.3824 0.8661
C9 C 0.89525(14) 0.0797(4) 0.84777(10)
H12 H 0.9105 -0.0112 0.8133
C10 C 0.89165(19) -0.0230(5) 0.91554(12)
H13 H 0.8374 -0.1229 0.9078
H14 H 0.8843 0.0897 0.9488
H15 H 0.9509 -0.1032 0.9346
C11 C 0.62872(15) 1.1537(3) 0.79422(9)
H16 H 0.6790 1.0470 0.8148
H17 H 0.5659 1.0826 0.7883
C12 C 0.63579(13) 1.3458(3) 0.84232(10)
C13 C 0.64499(15) 1.3143(4) 0.91090(10)
H18 H 0.6496 1.4373 0.9405
C14 C 0.64817(17) 1.1025(4) 0.94125(10)
C15 C 0.63131(16) 1.5664(4) 0.81253(10)
H19 H 0.6313 1.6733 0.8492
H20 H 0.5728 1.5818 0.7750
H21 H 0.6868 1.5905 0.7936
O8 O 0.54757(11) 0.6225(3) 0.40547(10)
H22 H 0.582(2) 0.646(5) 0.4425(16)
H23 H 0.5549(19) 0.675(5) 0.3705(15)
loop_
_geom_bond_atom_site_label_1
_geom_bond_atom_site_label_2
_geom_bond_site_symmetry_1
_geom_bond_site_symmetry_2
N1 C14 1_555 1_555
O1 C1 1_555 1_555
O2 C1 1_555 1_555
O3 H1 1_555 1_555
O4 H2 1_555 1_555
O5 H3 1_555 1_555
O6 C6 1_555 1_555
O7 C7 1_555 1_555
C1 H4 1_555 1_555
C2 O3 1_555 1_555
H5 C2 1_555 1_555
C3 O4 1_555 1_555
H6 C3 1_555 1_555
C4 O5 1_555 1_555
H7 C4 1_555 1_555
C5 O1 1_555 1_555
H8 C5 1_555 1_555
C6 C5 1_555 1_555
H9 C6 1_555 1_555
H10 C6 1_555 1_555
C7 O6 1_555 1_555
C8 C7 1_555 1_555
H11 C8 1_555 1_555
C9 C8 1_555 1_555
H12 C9 1_555 1_555
C10 C9 1_555 1_555
H13 C10 1_555 1_555
H14 C10 1_555 1_555
H15 C10 1_555 1_555
C11 O2 1_555 1_555
H16 C11 1_555 1_555
H17 C11 1_555 1_555
C12 C11 1_555 1_555
C13 C12 1_555 1_555
H18 C13 1_555 1_555
C14 C13 1_555 1_555
C15 C12 1_555 1_555
H19 C15 1_555 1_555
H20 C15 1_555 1_555
H21 C15 1_555 1_555
O8 H22 1_555 1_555
H23 O8 1_555 1_555
C1 C2 1_555 1_555
C2 C3 1_555 1_555
C3 C4 1_555 1_555
C4 C5 1_555 1_555

#END
