
#######################################################################
#
#                 Cambridge Crystallographic Data Centre
#                                CCDC 
#
#######################################################################
#
# If this CIF has been generated from an entry in the Cambridge 
# Structural Database, then it will include bibliographic, chemical, 
# crystal, experimental, refinement or atomic coordinate data resulting 
# from the CCDC's data processing and validation procedures.
#
#######################################################################

data_KUKVIX
_chemical_compound_source        
'Isolated from Jaborosa caulescens var. bipinnatifida (Solanaceae)'
_chemical_name_common            '2,3-dihydrotrechonolide A'
_chemical_formula_moiety         'C28 H38 O7'
_chemical_name_systematic        
4-(3,4-dimethyl-5-oxo-2,5-dihydrofuran-2-yl)-2a,5a-dihydroxy-3,6b,12c-trimethylhexadecahydrocyclopenta[de]oxireno[4,4a]naphtho[2,1-g]chromen-7(8H)-one
_symmetry_cell_setting           orthorhombic
_symmetry_space_group_name_H-M   'P 21 21 21'
_symmetry_Int_Tables_number      19
_space_group_name_Hall           'P 2ac 2ab'
loop_
_symmetry_equiv_pos_site_id
_symmetry_equiv_pos_as_xyz
1 x,y,z
2 1/2-x,-y,1/2+z
3 -x,1/2+y,1/2-z
4 1/2+x,1/2-y,-z
_cell_length_a                   11.1455(3)
_cell_length_b                   11.9845(4)
_cell_length_c                   18.3310(5)
_cell_angle_alpha                90
_cell_angle_beta                 90
_cell_angle_gamma                90
_cell_volume                     2448.53
_exptl_crystal_colour            colorless
_exptl_crystal_description       irregular
_cell_formula_units_Z            4
loop_
_atom_site_label
_atom_site_type_symbol
_atom_site_fract_x
_atom_site_fract_y
_atom_site_fract_z
O1 O 0.52718(8) 0.32007(7) 0.22298(4)
O2 O 0.70669(7) 0.59701(7) -0.03898(4)
O3 O 0.73195(8) 0.45745(7) -0.15775(5)
O4 O 0.32198(8) 0.57430(8) 0.06372(5)
O5 O 0.73246(8) 0.75409(7) 0.03407(5)
H1 H 0.7978(19) 0.7727(16) 0.0198(11)
O6 O 1.00104(8) 0.68289(7) 0.02726(5)
H2 H 1.066(2) 0.6831(16) 0.0089(11)
O7 O 0.56217(9) 0.35821(8) -0.16971(5)
C1 C 0.36671(10) 0.48343(11) 0.07413(7)
C2 C 0.33104(11) 0.38057(11) 0.03184(7)
H3 H 0.2759(15) 0.3992(14) -0.0071(9)
H4 H 0.4039(15) 0.3521(14) 0.0089(9)
C3 C 0.27880(12) 0.29106(11) 0.08351(8)
H5 H 0.3000(15) 0.2150(15) 0.0654(9)
H6 H 0.1938(16) 0.2987(14) 0.0860(9)
C4 C 0.32723(11) 0.30412(11) 0.16156(7)
H7 H 0.2778(15) 0.3569(14) 0.1891(9)
H8 H 0.3234(15) 0.2337(14) 0.1888(9)
C5 C 0.45531(11) 0.34518(10) 0.15911(6)
C6 C 0.55511(11) 0.26530(10) 0.15436(7)
H9 H 0.5372(13) 0.1878(13) 0.1526(8)
C7 C 0.67267(11) 0.29681(10) 0.12036(7)
H10 H 0.6693(13) 0.2732(12) 0.0685(8)
H11 H 0.7375(16) 0.2622(14) 0.1448(9)
C8 C 0.69492(10) 0.42300(10) 0.12092(6)
H12 H 0.7067(14) 0.4465(13) 0.1723(9)
C9 C 0.58632(10) 0.48399(10) 0.08704(6)
H13 H 0.5756(13) 0.4509(11) 0.0393(8)
C10 C 0.46681(10) 0.46513(10) 0.13065(7)
C11 C 0.60816(10) 0.60915(10) 0.07461(6)
H14 H 0.5426(14) 0.6415(13) 0.0468(8)
H15 H 0.6154(13) 0.6464(13) 0.1221(9)
C12 C 0.72336(10) 0.63555(10) 0.03355(6)
C13 C 0.83102(10) 0.57715(9) 0.06891(6)
C14 C 0.80391(10) 0.45096(10) 0.07410(6)
H16 H 0.7833(13) 0.4251(12) 0.0253(8)
C15 C 0.92666(11) 0.39957(10) 0.09302(7)
H17 H 0.9364(14) 0.3966(13) 0.1443(9)
H18 H 0.9346(16) 0.3240(15) 0.0750(9)
C16 C 1.01964(11) 0.47940(11) 0.05666(7)
H19 H 1.0667(15) 0.4428(13) 0.0188(9)
H20 H 1.0745(15) 0.5076(13) 0.0944(9)
C17 C 0.94619(10) 0.57560(10) 0.02180(6)
C18 C 0.85814(11) 0.62833(11) 0.14410(6)
H21 H 0.9266(17) 0.5904(15) 0.1680(9)
H22 H 0.7920(16) 0.6232(15) 0.1768(10)
H23 H 0.8798(15) 0.7039(15) 0.1406(9)
C19 C 0.45245(12) 0.54642(10) 0.19491(7)
H24 H 0.4368(14) 0.6205(13) 0.1769(8)
H25 H 0.3830(16) 0.5245(14) 0.2251(10)
H26 H 0.5275(16) 0.5433(14) 0.2263(9)
C20 C 0.91836(10) 0.54780(10) -0.05929(6)
H27 H 0.9004(13) 0.4719(12) -0.0616(8)
C21 C 1.02699(11) 0.56992(11) -0.10831(7)
H28 H 1.1030(15) 0.5404(13) -0.0875(9)
H29 H 1.0165(15) 0.5333(14) -0.1547(10)
H30 H 1.0422(15) 0.6527(14) -0.1162(9)
C22 C 0.80801(10) 0.61244(10) -0.08596(6)
H31 H 0.8269(13) 0.6927(13) -0.0891(8)
C23 C 0.76428(11) 0.57418(10) -0.16109(6)
H32 H 0.8299(14) 0.5817(12) -0.1960(8)
C24 C 0.65248(11) 0.63216(11) -0.18634(6)
C25 C 0.56412(11) 0.55767(11) -0.19265(6)
C26 C 0.61230(11) 0.44725(11) -0.17278(7)
C27 C 0.43553(12) 0.57250(12) -0.21434(8)
H33 H 0.4110(17) 0.5157(16) -0.2467(11)
H34 H 0.383(2) 0.5672(18) -0.1725(13)
H35 H 0.4201(16) 0.6437(16) -0.2364(10)
C28 C 0.65127(12) 0.75545(10) -0.19804(7)
H36 H 0.6363(18) 0.7921(16) -0.1514(11)
H37 H 0.5905(15) 0.7763(13) -0.2317(8)
H38 H 0.7273(18) 0.7816(15) -0.2186(10)
loop_
_geom_bond_atom_site_label_1
_geom_bond_atom_site_label_2
_geom_bond_site_symmetry_1
_geom_bond_site_symmetry_2
O1 C5 1_555 1_555
O2 C12 1_555 1_555
O3 C23 1_555 1_555
O4 C1 1_555 1_555
O5 H1 1_555 1_555
O6 H2 1_555 1_555
O7 C26 1_555 1_555
C1 C2 1_555 1_555
C2 H3 1_555 1_555
H4 C2 1_555 1_555
C3 C2 1_555 1_555
H5 C3 1_555 1_555
H6 C3 1_555 1_555
C4 C3 1_555 1_555
H7 C4 1_555 1_555
H8 C4 1_555 1_555
C5 C4 1_555 1_555
C6 O1 1_555 1_555
H9 C6 1_555 1_555
C7 C6 1_555 1_555
H10 C7 1_555 1_555
H11 C7 1_555 1_555
C8 C7 1_555 1_555
H12 C8 1_555 1_555
C9 C8 1_555 1_555
H13 C9 1_555 1_555
C10 C1 1_555 1_555
C11 C9 1_555 1_555
H14 C11 1_555 1_555
H15 C11 1_555 1_555
C12 O5 1_555 1_555
C13 C12 1_555 1_555
C14 C8 1_555 1_555
H16 C14 1_555 1_555
C15 C14 1_555 1_555
H17 C15 1_555 1_555
H18 C15 1_555 1_555
C16 C15 1_555 1_555
H19 C16 1_555 1_555
H20 C16 1_555 1_555
C17 O6 1_555 1_555
C18 C13 1_555 1_555
H21 C18 1_555 1_555
H22 C18 1_555 1_555
H23 C18 1_555 1_555
C19 C10 1_555 1_555
H24 C19 1_555 1_555
H25 C19 1_555 1_555
H26 C19 1_555 1_555
C20 C17 1_555 1_555
H27 C20 1_555 1_555
C21 C20 1_555 1_555
H28 C21 1_555 1_555
H29 C21 1_555 1_555
H30 C21 1_555 1_555
C22 O2 1_555 1_555
H31 C22 1_555 1_555
C23 C22 1_555 1_555
H32 C23 1_555 1_555
C24 C23 1_555 1_555
C25 C24 1_555 1_555
C26 O3 1_555 1_555
C27 C25 1_555 1_555
H33 C27 1_555 1_555
H34 C27 1_555 1_555
H35 C27 1_555 1_555
C28 C24 1_555 1_555
H36 C28 1_555 1_555
H37 C28 1_555 1_555
H38 C28 1_555 1_555
C5 C6 1_555 1_555
C5 C10 1_555 1_555
C9 C10 1_555 1_555
C11 C12 1_555 1_555
C13 C14 1_555 1_555
C13 C17 1_555 1_555
C16 C17 1_555 1_555
C20 C22 1_555 1_555
C25 C26 1_555 1_555

#END
