
#######################################################################
#
#                 Cambridge Crystallographic Data Centre
#                                CCDC 
#
#######################################################################
#
# If this CIF has been generated from an entry in the Cambridge 
# Structural Database, then it will include bibliographic, chemical, 
# crystal, experimental, refinement or atomic coordinate data resulting 
# from the CCDC's data processing and validation procedures.
#
#######################################################################

data_KUKXEU
_chemical_name_common            
3-(2-(5-(1,3-Dithiolan-2-yl)-2-pentyl-3-thienyl)-3,3,4,4,5,5-hexafluorocyclopent-1-en-1-yl)-2-ethyl-1-benzothiophene
_chemical_formula_moiety         'C27 H26 F6 S4'
_chemical_name_systematic        
1-(2-Ethyl-3-benzothienyl)-2-(2-n-pentyl-5-[2-(1,3-dithiolpentane)]-3-thienyl)perfluorocyclopentene
_symmetry_cell_setting           triclinic
_symmetry_space_group_name_H-M   'P -1'
_symmetry_Int_Tables_number      2
_space_group_name_Hall           '-P 1'
loop_
_symmetry_equiv_pos_site_id
_symmetry_equiv_pos_as_xyz
1 x,y,z
2 -x,-y,-z
_cell_length_a                   10.2169(13)
_cell_length_b                   11.0204(14)
_cell_length_c                   13.4245(17)
_cell_angle_alpha                67.0280(10)
_cell_angle_beta                 84.732(2)
_cell_angle_gamma                89.163(2)
_cell_volume                     1385.4
_exptl_crystal_colour            colorless
_exptl_crystal_description       block
_cell_formula_units_Z            2
_chemical_properties_physical    light-sensitive
_exptl_crystal_preparation       'photochromic; fluorescent'
loop_
_atom_site_label
_atom_site_type_symbol
_atom_site_fract_x
_atom_site_fract_y
_atom_site_fract_z
S1 S 0.21971(16) 0.11633(18) 1.32980(11)
S2 S 0.0038(2) -0.07312(16) 1.35956(11)
C1 C 0.06907(17) 0.09157(17) 1.27833(15)
H1 H 0.0051 0.1547 1.2870
C2 C 0.2575(2) -0.0518(2) 1.3951(3)
H2 H 0.3004 -0.0833 1.3425
H3 H 0.3169 -0.0625 1.4501
C3 C 0.1326(3) -0.1300(2) 1.4467(2)
H4 H 0.1070 -0.1217 1.5151
H5 H 0.1473 -0.2224 1.4618
S3 S 0.52315(10) 0.40436(12) 0.77297(9)
S4 S 0.16955(10) 0.00687(8) 1.11279(7)
F1 F -0.1002(2) 0.4587(2) 0.9232(2)
F2 F -0.1796(2) 0.2889(2) 0.9046(2)
F3 F -0.1656(2) 0.5714(2) 0.7270(2)
F4 F -0.1383(2) 0.3943(3) 0.6961(2)
F5 F 0.0856(2) 0.6207(2) 0.7061(2)
F6 F 0.0773(3) 0.5197(3) 0.59811(18)
C4 C 0.3605(3) 0.4120(3) 0.8204(3)
C5 C 0.2744(3) 0.3863(3) 0.7595(3)
C6 C 0.3387(4) 0.3572(3) 0.6708(3)
C7 C 0.2837(4) 0.3228(4) 0.5932(3)
H6 H 0.1929 0.3162 0.5939
C8 C 0.3666(5) 0.2988(4) 0.5152(3)
H7 H 0.3315 0.2751 0.4637
C9 C 0.5035(6) 0.3103(5) 0.5142(4)
H8 H 0.5577 0.2961 0.4604
C10 C 0.5588(5) 0.3417(4) 0.5895(4)
H9 H 0.6495 0.3491 0.5881
C11 C 0.4758(3) 0.3622(4) 0.6679(3)
C12 C 0.3344(4) 0.4486(4) 0.9171(3)
H10 H 0.2402 0.4539 0.9316
H11 H 0.3727 0.5354 0.8993
C13 C 0.3884(5) 0.3531(5) 1.0188(4)
H12 H 0.3540 0.2660 1.0354
H13 H 0.3631 0.3790 1.0781
H14 H 0.4826 0.3534 1.0075
C14 C 0.1308(3) 0.3944(3) 0.7808(3)
C15 C 0.0549(4) 0.5021(3) 0.7025(3)
C16 C -0.0886(4) 0.4677(4) 0.7456(3)
C17 C -0.0826(3) 0.3816(3) 0.8646(3)
C18 C 0.0535(3) 0.3258(3) 0.8722(3)
C19 C 0.1523(3) 0.1066(3) 0.9795(2)
C20 C 0.0865(3) 0.2189(3) 0.9726(3)
C21 C 0.0497(3) 0.2215(3) 1.0769(3)
H15 H 0.0030 0.2898 1.0866
C22 C 0.0890(3) 0.1159(3) 1.1597(3)
C23 C 0.2018(3) 0.0594(3) 0.8919(3)
H16 H 0.1894 0.1282 0.8217
H17 H 0.1493 -0.0169 0.8996
C24 C 0.3463(4) 0.0225(4) 0.8942(3)
H18 H 0.3577 -0.0502 0.9626
H19 H 0.3984 0.0970 0.8913
C25 C 0.3983(4) -0.0169(4) 0.8011(3)
H20 H 0.3894 0.0570 0.7329
H21 H 0.4913 -0.0343 0.8062
C26 C 0.3306(5) -0.1355(4) 0.7988(4)
H22 H 0.2383 -0.1170 0.7902
H23 H 0.3364 -0.2088 0.8680
C27 C 0.3884(6) -0.1758(6) 0.7081(5)
H24 H 0.3892 -0.1018 0.6398
H25 H 0.3359 -0.2464 0.7063
H26 H 0.4767 -0.2048 0.7209
C28? C 0.07818(17) 0.08207(17) 1.28009(13)
C29? C 0.1624(3) -0.0891(3) 1.4681(2)
C30? C 0.0488(3) -0.1576(2) 1.4462(2)
H27? H 0.0501 0.1625 1.2898
H28? H 0.2294 -0.1523 1.4993
H29? H 0.1326 -0.0504 1.5196
H30? H -0.0047 -0.2052 1.5137
H31? H 0.0819 -0.2209 1.4167
S5? S 0.22895(15) 0.03599(18) 1.34432(16)
S6? S -0.0485(2) -0.0415(2) 1.35288(15)
loop_
_geom_bond_atom_site_label_1
_geom_bond_atom_site_label_2
_geom_bond_site_symmetry_1
_geom_bond_site_symmetry_2
S1 C1 1_555 1_555
S2 C1 1_555 1_555
C1 H1 1_555 1_555
C2 S1 1_555 1_555
H2 C2 1_555 1_555
H3 C2 1_555 1_555
C3 S2 1_555 1_555
H4 C3 1_555 1_555
H5 C3 1_555 1_555
S3 C4 1_555 1_555
S4 C19 1_555 1_555
F1 C17 1_555 1_555
F2 C17 1_555 1_555
F3 C16 1_555 1_555
F4 C16 1_555 1_555
F5 C15 1_555 1_555
F6 C15 1_555 1_555
C4 C5 1_555 1_555
C5 C6 1_555 1_555
C6 C7 1_555 1_555
C7 H6 1_555 1_555
C8 C7 1_555 1_555
H7 C8 1_555 1_555
C9 C8 1_555 1_555
H8 C9 1_555 1_555
C10 C9 1_555 1_555
H9 C10 1_555 1_555
C11 S3 1_555 1_555
C12 C4 1_555 1_555
H10 C12 1_555 1_555
H11 C12 1_555 1_555
C13 C12 1_555 1_555
H12 C13 1_555 1_555
H13 C13 1_555 1_555
H14 C13 1_555 1_555
C14 C5 1_555 1_555
C15 C14 1_555 1_555
C16 C15 1_555 1_555
C17 C16 1_555 1_555
C18 C14 1_555 1_555
C19 C20 1_555 1_555
C20 C18 1_555 1_555
C21 C20 1_555 1_555
H15 C21 1_555 1_555
C22 C1 1_555 1_555
C23 C19 1_555 1_555
H16 C23 1_555 1_555
H17 C23 1_555 1_555
C24 C23 1_555 1_555
H18 C24 1_555 1_555
H19 C24 1_555 1_555
C25 C24 1_555 1_555
H20 C25 1_555 1_555
H21 C25 1_555 1_555
C26 C25 1_555 1_555
H22 C26 1_555 1_555
H23 C26 1_555 1_555
C27 C26 1_555 1_555
H24 C27 1_555 1_555
H25 C27 1_555 1_555
H26 C27 1_555 1_555
C2 C3 1_555 1_555
S4 C22 1_555 1_555
C6 C11 1_555 1_555
C10 C11 1_555 1_555
C17 C18 1_555 1_555
C21 C22 1_555 1_555

#END
