
#######################################################################
#
#                 Cambridge Crystallographic Data Centre
#                                CCDC 
#
#######################################################################
#
# If this CIF has been generated from an entry in the Cambridge 
# Structural Database, then it will include bibliographic, chemical, 
# crystal, experimental, refinement or atomic coordinate data resulting 
# from the CCDC's data processing and validation procedures.
#
#######################################################################

data_KUKXAQ
_chemical_name_common            
4-(2-(2-Ethyl-1-benzothiophen-3-yl)-3,3,4,4,5,5-hexafluorocyclopent-1-en-1-yl)-5-pentylthiophene-2-carbaldehyde
_chemical_formula_moiety         'C25 H22 F6 O1 S2'
_chemical_name_systematic        
1-(2-Ethyl-3-benzothienyl)-2-(2-n-pentyl-5-formyl-3-thienyl)perfluorocyclopentene
_symmetry_cell_setting           triclinic
_symmetry_space_group_name_H-M   'P -1'
_symmetry_Int_Tables_number      2
_space_group_name_Hall           '-P 1'
loop_
_symmetry_equiv_pos_site_id
_symmetry_equiv_pos_as_xyz
1 x,y,z
2 -x,-y,-z
_cell_length_a                   9.8868(12)
_cell_length_b                   10.1076(12)
_cell_length_c                   12.6866(15)
_cell_angle_alpha                86.8120(10)
_cell_angle_beta                 75.5780(10)
_cell_angle_gamma                80.7620(10)
_cell_volume                     1211.76
_exptl_crystal_colour            colorless
_exptl_crystal_description       block
_cell_formula_units_Z            2
_chemical_properties_physical    light-sensitive
_exptl_crystal_recrystallization_method 'diethyl ether/hexane'
_exptl_crystal_preparation       'photochromic; fluorescent'
loop_
_atom_site_label
_atom_site_type_symbol
_atom_site_fract_x
_atom_site_fract_y
_atom_site_fract_z
S1 S -0.12742(8) 0.52159(9) 0.23513(8)
S2 S 0.35475(8) 0.50464(7) 0.43665(6)
F1 F 0.1122(2) 0.9085(2) 0.02062(19)
F2 F 0.2252(2) 0.7278(2) -0.06192(15)
F3 F 0.3374(2) 0.9792(2) 0.05249(19)
F4 F 0.4302(2) 0.8647(2) -0.09329(15)
F5 F 0.5145(2) 0.8130(2) 0.12811(18)
F6 F 0.52271(19) 0.6612(2) 0.01250(17)
O1 O 0.5781(3) 0.2511(2) 0.4219(2)
C1 C 0.0443(3) 0.5475(3) 0.1740(2)
C2 C 0.0606(3) 0.6781(3) 0.1763(2)
C3 C -0.0678(3) 0.7634(3) 0.2293(2)
C4 C -0.0908(3) 0.9003(3) 0.2500(3)
H1 H -0.0184 0.9514 0.2259
C5 C -0.2235(4) 0.9591(4) 0.3070(3)
H2 H -0.2399 1.0504 0.3211
C6 C -0.3325(4) 0.8836(5) 0.3434(3)
H3 H -0.4203 0.9255 0.3818
C7 C -0.3135(3) 0.7493(5) 0.3241(3)
H4 H -0.3871 0.6996 0.3484
C8 C -0.1803(3) 0.6890(3) 0.2668(2)
C9 C 0.1548(3) 0.4321(3) 0.1246(3)
H5 H 0.2229 0.4671 0.0652
H6 H 0.2046 0.3956 0.1792
C10 C 0.1029(5) 0.3206(4) 0.0826(4)
H7 H 0.0440 0.2776 0.1420
H8 H 0.1819 0.2567 0.0477
H9 H 0.0492 0.3555 0.0310
C11 C 0.1958(3) 0.7265(3) 0.1280(2)
C12 C 0.2163(3) 0.8085(3) 0.0244(2)
C13 C 0.3584(3) 0.8562(3) 0.0107(2)
C14 C 0.4334(3) 0.7566(3) 0.0794(2)
C15 C 0.3188(3) 0.6951(3) 0.1580(2)
C16 C 0.2859(3) 0.6268(3) 0.3568(2)
C17 C 0.3516(3) 0.6088(3) 0.2479(2)
C18 C 0.4600(3) 0.4961(3) 0.2319(2)
H10 H 0.5167 0.4703 0.1638
C19 C 0.4732(3) 0.4293(3) 0.3259(2)
C20 C 0.5707(4) 0.3081(3) 0.3370(3)
H11 H 0.6320 0.2719 0.2737
C21 C 0.1754(3) 0.7382(3) 0.4107(2)
H12 H 0.2183 0.7908 0.4513
H13 H 0.1462 0.7962 0.3543
C22 C 0.0481(4) 0.6977(4) 0.4849(3)
H14 H 0.0763 0.6326 0.5375
H15 H -0.0025 0.6549 0.4434
C23 C -0.0516(4) 0.8180(4) 0.5461(3)
H16 H -0.0041 0.8535 0.5941
H17 H -0.0689 0.8878 0.4933
C24 C -0.1849(5) 0.7870(5) 0.6092(4)
H18 H -0.1674 0.7135 0.6590
H19 H -0.2346 0.7562 0.5605
C25 C -0.2789(5) 0.9009(5) 0.6736(5)
H20 H -0.2282 0.9376 0.7175
H21 H -0.3604 0.8691 0.7197
H22 H -0.3085 0.9691 0.6248
loop_
_geom_bond_atom_site_label_1
_geom_bond_atom_site_label_2
_geom_bond_site_symmetry_1
_geom_bond_site_symmetry_2
S1 C1 1_555 1_555
S2 C16 1_555 1_555
F1 C12 1_555 1_555
F2 C12 1_555 1_555
F3 C13 1_555 1_555
F4 C13 1_555 1_555
F5 C14 1_555 1_555
F6 C14 1_555 1_555
O1 C20 1_555 1_555
C1 C2 1_555 1_555
C2 C3 1_555 1_555
C3 C4 1_555 1_555
C4 H1 1_555 1_555
C5 C4 1_555 1_555
H2 C5 1_555 1_555
C6 C5 1_555 1_555
H3 C6 1_555 1_555
C7 C6 1_555 1_555
H4 C7 1_555 1_555
C8 S1 1_555 1_555
C9 C1 1_555 1_555
H5 C9 1_555 1_555
H6 C9 1_555 1_555
C10 C9 1_555 1_555
H7 C10 1_555 1_555
H8 C10 1_555 1_555
H9 C10 1_555 1_555
C11 C2 1_555 1_555
C12 C11 1_555 1_555
C13 C12 1_555 1_555
C14 C13 1_555 1_555
C15 C11 1_555 1_555
C16 C17 1_555 1_555
C17 C15 1_555 1_555
C18 C17 1_555 1_555
H10 C18 1_555 1_555
C19 S2 1_555 1_555
C20 C19 1_555 1_555
H11 C20 1_555 1_555
C21 C16 1_555 1_555
H12 C21 1_555 1_555
H13 C21 1_555 1_555
C22 C21 1_555 1_555
H14 C22 1_555 1_555
H15 C22 1_555 1_555
C23 C22 1_555 1_555
H16 C23 1_555 1_555
H17 C23 1_555 1_555
C24 C23 1_555 1_555
H18 C24 1_555 1_555
H19 C24 1_555 1_555
C25 C24 1_555 1_555
H20 C25 1_555 1_555
H21 C25 1_555 1_555
H22 C25 1_555 1_555
C3 C8 1_555 1_555
C7 C8 1_555 1_555
C14 C15 1_555 1_555
C18 C19 1_555 1_555

#END
