
#######################################################################
#
#                 Cambridge Crystallographic Data Centre
#                                CCDC 
#
#######################################################################
#
# If this CIF has been generated from an entry in the Cambridge 
# Structural Database, then it will include bibliographic, chemical, 
# crystal, experimental, refinement or atomic coordinate data resulting 
# from the CCDC's data processing and validation procedures.
#
#######################################################################

data_KUKXAR
_chemical_compound_source        'endophytic fungus Dothideomycete sp. CRI7'
_chemical_name_common            'Calbistrin F'
_chemical_formula_moiety         'C28 H44 O7'
_chemical_name_systematic        
'8-(3-Hydroxypropanoyl)-3,7,8-trimethyl-1,2,3,4,4a,7,8,8a-octahydronaphthalen-1-yl 3,8,9-trihydroxy-2,4-dimethyldeca-4,6-dienoate'
_chemical_properties_biological  
'Tested for cytotoxic activity, radical scavenging activity and inhibition of aromatase'
_symmetry_cell_setting           monoclinic
_symmetry_space_group_name_H-M   'P 21'
_symmetry_Int_Tables_number      4
_space_group_name_Hall           'P 2yb'
loop_
_symmetry_equiv_pos_site_id
_symmetry_equiv_pos_as_xyz
1 x,y,z
2 -x,1/2+y,-z
_cell_length_a                   9.3906(2)
_cell_length_b                   8.9493(2)
_cell_length_c                   17.0732(4)
_cell_angle_alpha                90
_cell_angle_beta                 96.481(1)
_cell_angle_gamma                90
_cell_volume                     1425.65
_exptl_crystal_colour            colorless
_exptl_crystal_description       Rod
_cell_formula_units_Z            2
loop_
_atom_site_label
_atom_site_type_symbol
_atom_site_fract_x
_atom_site_fract_y
_atom_site_fract_z
C1 C 1.2203(2) 0.5191(3) 0.17177(14)
H1 H 1.2650 0.5126 0.2264
C2 C 1.2987(3) 0.4135(3) 0.12091(16)
H2 H 1.4009 0.4307 0.1323
H3 H 1.2800 0.3115 0.1361
C3 C 1.2582(3) 0.4287(4) 0.03266(17)
H4 H 1.1589 0.3950 0.0201
C4 C 1.2668(4) 0.5910(5) 0.00886(18)
H5 H 1.2340 0.6005 -0.0468
H6 H 1.3661 0.6231 0.0169
C5 C 1.1763(3) 0.6938(4) 0.05611(16)
H7 H 1.0769 0.6587 0.0478
C6 C 1.1783(4) 0.8515(5) 0.0294(2)
H8 H 1.1665 0.8696 -0.0246
C7 C 1.1955(4) 0.9667(4) 0.0765(2)
H9 H 1.1951 1.0611 0.0538
C8 C 1.2160(3) 0.9572(3) 0.16544(18)
H10 H 1.1558 1.0352 0.1849
C9 C 1.1573(2) 0.8041(3) 0.19220(14)
C10 C 1.2275(3) 0.6803(3) 0.14429(14)
H11 H 1.3298 0.7048 0.1492
C11 C 1.2048(3) 0.7925(3) 0.28052(14)
C12 C 1.1220(3) 0.8780(3) 0.33675(15)
H12 H 1.1215 0.9831 0.3226
H13 H 1.0235 0.8435 0.3306
C13 C 1.1817(3) 0.8623(4) 0.42167(15)
H14 H 1.1880 0.7571 0.4355
H15 H 1.2776 0.9039 0.4293
C14 C 1.3541(4) 0.3330(5) -0.0139(2)
H16 H 1.4528 0.3555 0.0029
H17 H 1.3333 0.3543 -0.0691
H18 H 1.3363 0.2292 -0.0046
C15 C 1.3713(4) 0.9931(4) 0.1981(2)
H19 H 1.4324 0.9118 0.1868
H20 H 1.3770 1.0073 0.2541
H21 H 1.4016 1.0827 0.1738
C16 C 0.9926(3) 0.8057(4) 0.17546(16)
H22 H 0.9551 0.8886 0.2023
H23 H 0.9547 0.7142 0.1939
H24 H 0.9655 0.8152 0.1198
C17 C 1.0380(2) 0.3732(3) 0.22154(13)
C18 C 0.8795(2) 0.3632(3) 0.22748(14)
H25 H 0.8277 0.4238 0.1857
C19 C 0.8548(2) 0.4279(3) 0.30841(13)
H26 H 0.8923 0.3570 0.3494
C20 C 0.6987(2) 0.4555(3) 0.31606(13)
C21 C 0.6345(2) 0.3776(3) 0.36849(15)
H27 H 0.6910 0.3079 0.3980
C22 C 0.4865(2) 0.3886(3) 0.38500(14)
H28 H 0.4305 0.4663 0.3623
C23 C 0.4284(3) 0.2934(3) 0.43079(15)
H29 H 0.4884 0.2201 0.4549
C24 C 0.2754(3) 0.2910(3) 0.44814(14)
H30 H 0.2263 0.2111 0.4165
C25 C 0.2638(3) 0.2563(3) 0.53397(15)
H31 H 0.3286 0.1734 0.5503
C26 C 0.3018(4) 0.3879(4) 0.58757(18)
H32 H 0.2392 0.4700 0.5720
H33 H 0.3992 0.4169 0.5839
H34 H 0.2912 0.3604 0.6410
C27 C 0.8267(4) 0.2027(4) 0.2201(2)
H35 H 0.7248 0.2005 0.2214
H36 H 0.8726 0.1447 0.2630
H37 H 0.8494 0.1614 0.1711
C28 C 0.6265(3) 0.5722(4) 0.26286(18)
H38 H 0.6915 0.6536 0.2580
H39 H 0.5430 0.6082 0.2846
H40 H 0.5986 0.5297 0.2118
O1 O 1.06938(16) 0.47587(19) 0.16930(9)
O2 O 1.3106(2) 0.7221(2) 0.30588(10)
O3 O 1.0933(2) 0.9373(3) 0.47225(11)
H41 H 1.0209 0.8877 0.4759
O4 O 1.12713(19) 0.3000(2) 0.26138(10)
O5 O 0.93693(17) 0.5617(2) 0.31765(10)
H42 H 0.9219 0.6033 0.3587
O6 O 0.2013(2) 0.4254(3) 0.42860(11)
H43 H 0.1682 0.4233 0.3821
O7 O 0.11920(19) 0.2118(2) 0.54356(11)
H44 H 0.1020 0.1309 0.5220
loop_
_geom_bond_atom_site_label_1
_geom_bond_atom_site_label_2
_geom_bond_site_symmetry_1
_geom_bond_site_symmetry_2
C1 H1 1_555 1_555
C2 C1 1_555 1_555
H2 C2 1_555 1_555
H3 C2 1_555 1_555
C3 C2 1_555 1_555
H4 C3 1_555 1_555
C4 C3 1_555 1_555
H5 C4 1_555 1_555
H6 C4 1_555 1_555
C5 C4 1_555 1_555
H7 C5 1_555 1_555
C6 C5 1_555 1_555
H8 C6 1_555 1_555
C7 C6 1_555 1_555
H9 C7 1_555 1_555
C8 C7 1_555 1_555
H10 C8 1_555 1_555
C9 C8 1_555 1_555
C10 C1 1_555 1_555
H11 C10 1_555 1_555
C11 C9 1_555 1_555
C12 C11 1_555 1_555
H12 C12 1_555 1_555
H13 C12 1_555 1_555
C13 C12 1_555 1_555
H14 C13 1_555 1_555
H15 C13 1_555 1_555
C14 C3 1_555 1_555
H16 C14 1_555 1_555
H17 C14 1_555 1_555
H18 C14 1_555 1_555
C15 C8 1_555 1_555
H19 C15 1_555 1_555
H20 C15 1_555 1_555
H21 C15 1_555 1_555
C16 C9 1_555 1_555
H22 C16 1_555 1_555
H23 C16 1_555 1_555
H24 C16 1_555 1_555
C17 C18 1_555 1_555
C18 H25 1_555 1_555
C19 C18 1_555 1_555
H26 C19 1_555 1_555
C20 C19 1_555 1_555
C21 C20 1_555 1_555
H27 C21 1_555 1_555
C22 C21 1_555 1_555
H28 C22 1_555 1_555
C23 C22 1_555 1_555
H29 C23 1_555 1_555
C24 C23 1_555 1_555
H30 C24 1_555 1_555
C25 C24 1_555 1_555
H31 C25 1_555 1_555
C26 C25 1_555 1_555
H32 C26 1_555 1_555
H33 C26 1_555 1_555
H34 C26 1_555 1_555
C27 C18 1_555 1_555
H35 C27 1_555 1_555
H36 C27 1_555 1_555
H37 C27 1_555 1_555
C28 C20 1_555 1_555
H38 C28 1_555 1_555
H39 C28 1_555 1_555
H40 C28 1_555 1_555
O1 C1 1_555 1_555
O2 C11 1_555 1_555
O3 C13 1_555 1_555
H41 O3 1_555 1_555
O4 C17 1_555 1_555
O5 C19 1_555 1_555
H42 O5 1_555 1_555
O6 C24 1_555 1_555
H43 O6 1_555 1_555
O7 C25 1_555 1_555
H44 O7 1_555 1_555
C5 C10 1_555 1_555
C9 C10 1_555 1_555
C17 O1 1_555 1_555

#END
