
#######################################################################
#
#                 Cambridge Crystallographic Data Centre
#                                CCDC 
#
#######################################################################
#
# If this CIF has been generated from an entry in the Cambridge 
# Structural Database, then it will include bibliographic, chemical, 
# crystal, experimental, refinement or atomic coordinate data resulting 
# from the CCDC's data processing and validation procedures.
#
#######################################################################

data_KULBEZ
_chemical_formula_moiety         'C8 H12 N1 1+,C6 H11 O3 1-'
_chemical_name_systematic        
'(R)-(+)-\a-Methylbenzylammonium 2-hydroxy-2,3-dimethylbutanoate'
_symmetry_cell_setting           monoclinic
_symmetry_space_group_name_H-M   'P 21'
_symmetry_Int_Tables_number      4
_space_group_name_Hall           'P 2yb'
loop_
_symmetry_equiv_pos_site_id
_symmetry_equiv_pos_as_xyz
1 x,y,z
2 -x,1/2+y,-z
_cell_length_a                   10.138(3)
_cell_length_b                   6.3932(19)
_cell_length_c                   12.128(4)
_cell_angle_alpha                90
_cell_angle_beta                 113.672(4)
_cell_angle_gamma                90
_cell_volume                     719.927
_exptl_crystal_colour            colorless
_exptl_crystal_description       plate
_cell_formula_units_Z            2
loop_
_atom_site_label
_atom_site_type_symbol
_atom_site_fract_x
_atom_site_fract_y
_atom_site_fract_z
O1 O 0.69460(19) 1.2084(3) 0.39065(14)
O2 O 0.61448(18) 0.9080(3) 0.43455(14)
O3 O 0.8500(2) 1.0413(3) 0.29137(18)
H1 H 0.814(4) 1.153(7) 0.300(3)
C1 C 0.6885(2) 1.0124(4) 0.39164(19)
C2 C 0.7803(3) 0.8922(4) 0.3373(2)
C3 C 0.6836(3) 0.7487(4) 0.2344(2)
H2 H 0.641(3) 0.656(5) 0.271(2)
C4 C 0.7717(4) 0.6159(6) 0.1836(3)
H3 H 0.823(4) 0.699(6) 0.151(3)
H4 H 0.706(4) 0.524(6) 0.116(3)
H5 H 0.852(4) 0.534(6) 0.248(3)
C5 C 0.8962(3) 0.7684(5) 0.4372(3)
H6 H 0.976(4) 0.733(6) 0.411(3)
H7 H 0.859(3) 0.637(5) 0.452(2)
H8 H 0.943(3) 0.848(5) 0.515(3)
C6 C 0.5690(4) 0.8709(6) 0.1357(3)
H9 H 0.505(3) 0.946(5) 0.164(3)
H10 H 0.509(4) 0.778(6) 0.068(3)
H11 H 0.610(4) 0.976(6) 0.094(3)
N1 N 0.6429(2) 0.5112(4) 0.53605(18)
H12 H 0.648(3) 0.416(5) 0.481(2)
H13 H 0.633(3) 0.631(4) 0.496(2)
H14 H 0.554(4) 0.492(6) 0.544(3)
C7 C 0.7741(4) 0.2744(5) 0.7017(3)
H15 H 0.857(3) 0.257(5) 0.778(3)
H16 H 0.773(4) 0.172(6) 0.648(3)
H17 H 0.689(4) 0.269(6) 0.723(3)
C8 C 0.7745(3) 0.4901(4) 0.6508(2)
H18 H 0.858(3) 0.505(4) 0.6281(18)
C9 C 0.7835(3) 0.6570(4) 0.7420(2)
C10 C 0.9189(3) 0.7293(4) 0.8202(2)
H19 H 1.001(3) 0.679(4) 0.811(2)
C11 C 0.9323(3) 0.8634(5) 0.9137(2)
H20 H 1.023(3) 0.914(4) 0.964(2)
C12 C 0.8110(3) 0.9300(5) 0.9301(2)
H21 H 0.823(3) 1.012(5) 0.996(2)
C13 C 0.6776(3) 0.8635(4) 0.8517(2)
H22 H 0.594(3) 0.907(5) 0.858(2)
C14 C 0.6623(3) 0.7295(4) 0.7575(2)
H23 H 0.564(3) 0.690(5) 0.698(2)
loop_
_geom_bond_atom_site_label_1
_geom_bond_atom_site_label_2
_geom_bond_site_symmetry_1
_geom_bond_site_symmetry_2
O1 C1 1_555 1_555
O2 C1 1_555 1_555
O3 H1 1_555 1_555
C1 C2 1_555 1_555
C2 O3 1_555 1_555
C3 C2 1_555 1_555
H2 C3 1_555 1_555
C4 C3 1_555 1_555
H3 C4 1_555 1_555
H4 C4 1_555 1_555
H5 C4 1_555 1_555
C5 C2 1_555 1_555
H6 C5 1_555 1_555
H7 C5 1_555 1_555
H8 C5 1_555 1_555
C6 C3 1_555 1_555
H9 C6 1_555 1_555
H10 C6 1_555 1_555
H11 C6 1_555 1_555
N1 H12 1_555 1_555
H13 N1 1_555 1_555
H14 N1 1_555 1_555
C7 H15 1_555 1_555
H16 C7 1_555 1_555
H17 C7 1_555 1_555
C8 N1 1_555 1_555
H18 C8 1_555 1_555
C9 C8 1_555 1_555
C10 C9 1_555 1_555
H19 C10 1_555 1_555
C11 C10 1_555 1_555
H20 C11 1_555 1_555
C12 C11 1_555 1_555
H21 C12 1_555 1_555
C13 C12 1_555 1_555
H22 C13 1_555 1_555
C14 C9 1_555 1_555
H23 C14 1_555 1_555
C7 C8 1_555 1_555
C13 C14 1_555 1_555

#END
