
#######################################################################
#
#                 Cambridge Crystallographic Data Centre
#                                CCDC 
#
#######################################################################
#
# If this CIF has been generated from an entry in the Cambridge 
# Structural Database, then it will include bibliographic, chemical, 
# crystal, experimental, refinement or atomic coordinate data resulting 
# from the CCDC's data processing and validation procedures.
#
#######################################################################

data_KULBAV
_chemical_formula_moiety         'C7 H14 N1 1+,C16 H14 N1 O3 1-'
_chemical_name_systematic        
'Bicyclo[2.2.1]heptan-2-aminium (R)-2-((1-phenylethyl)carbamoyl)benzoate'
_symmetry_cell_setting           orthorhombic
_symmetry_space_group_name_H-M   'P 21 21 21'
_symmetry_Int_Tables_number      19
_space_group_name_Hall           'P 2ac 2ab'
loop_
_symmetry_equiv_pos_site_id
_symmetry_equiv_pos_as_xyz
1 x,y,z
2 1/2+x,1/2-y,-z
3 -x,1/2+y,1/2-z
4 1/2-x,-y,1/2+z
_cell_length_a                   6.3734(2)
_cell_length_b                   12.5913(3)
_cell_length_c                   26.0483(6)
_cell_angle_alpha                90
_cell_angle_beta                 90
_cell_angle_gamma                90
_cell_volume                     2090.36
_exptl_crystal_colour            colorless
_exptl_crystal_description       needle
_cell_formula_units_Z            4
loop_
_atom_site_label
_atom_site_type_symbol
_atom_site_fract_x
_atom_site_fract_y
_atom_site_fract_z
O1 O 1.2947(3) 0.56342(18) 0.10542(8)
O2 O 1.3573(3) 0.37036(16) 0.02299(7)
O3 O 1.6572(3) 0.46250(16) 0.02076(7)
N1 N 0.9434(4) 0.54793(19) 0.09551(8)
H1 H 0.8366 0.5494 0.0741
C1 C 1.1386(5) 0.5643(2) 0.07742(11)
C2 C 1.1647(5) 0.5885(2) 0.02176(10)
C3 C 1.3384(5) 0.5473(2) -0.00447(10)
C4 C 1.3864(5) 0.5842(2) -0.05301(11)
H2 H 1.5093 0.5593 -0.0698
C5 C 1.2574(6) 0.6571(2) -0.07756(11)
H3 H 1.2918 0.6815 -0.1110
C6 C 1.0790(6) 0.6941(2) -0.05336(11)
H4 H 0.9871 0.7416 -0.0706
C7 C 1.0354(5) 0.6611(2) -0.00364(11)
H5 H 0.9152 0.6884 0.0134
C8 C 1.4618(5) 0.4544(3) 0.01616(10)
C9 C 0.9052(5) 0.5276(2) 0.15017(10)
H6 H 1.0369 0.4974 0.1651
C10 C 0.7342(6) 0.4441(3) 0.15554(12)
H7 H 0.6076 0.4681 0.1376
H8 H 0.7022 0.4334 0.1920
H9 H 0.7825 0.3771 0.1405
C11 C 0.8571(5) 0.6305(3) 0.17853(10)
C12 C 0.6567(6) 0.6739(3) 0.17958(11)
H10 H 0.5450 0.6382 0.1627
C13 C 0.6173(6) 0.7692(3) 0.20516(11)
H11 H 0.4799 0.7984 0.2052
C14 C 0.7773(7) 0.8207(3) 0.23033(13)
H12 H 0.7506 0.8852 0.2481
C15 C 0.9759(8) 0.7786(3) 0.22955(14)
H13 H 1.0870 0.8145 0.2466
C16 C 1.0158(6) 0.6835(3) 0.20399(12)
H14 H 1.1537 0.6548 0.2041
N2 N 0.5338(4) 0.65720(18) 0.47539(8)
H15 H 0.6403 0.6309 0.4949
H16 H 0.4092 0.6451 0.4914
H17 H 0.5520 0.7283 0.4710
C17 C 0.5339(5) 0.6037(2) 0.42437(10)
H18 H 0.5133 0.5255 0.4291
C18 C 0.7364(5) 0.6237(2) 0.39443(12)
H19 H 0.8658 0.6285 0.4160
C19 C 0.7458(6) 0.5401(3) 0.35157(11)
H20 H 0.7182 0.4680 0.3651
H21 H 0.8839 0.5407 0.3342
C20 C 0.5690(7) 0.5763(3) 0.31476(12)
H22 H 0.6245 0.5907 0.2800
H23 H 0.4570 0.5220 0.3124
C21 C 0.4870(6) 0.6787(3) 0.34008(11)
H24 H 0.4117 0.7281 0.3163
C22 C 0.3630(6) 0.6476(3) 0.38843(12)
H25 H 0.2565 0.5927 0.3806
H26 H 0.2927 0.7101 0.4038
C23 C 0.6854(6) 0.7239(2) 0.36388(12)
H27 H 0.6578 0.7862 0.3861
H28 H 0.7940 0.7413 0.3380
loop_
_geom_bond_atom_site_label_1
_geom_bond_atom_site_label_2
_geom_bond_site_symmetry_1
_geom_bond_site_symmetry_2
O1 C1 1_555 1_555
O2 C8 1_555 1_555
O3 C8 1_555 1_555
N1 H1 1_555 1_555
C1 N1 1_555 1_555
C2 C1 1_555 1_555
C3 C2 1_555 1_555
C4 C3 1_555 1_555
H2 C4 1_555 1_555
C5 C4 1_555 1_555
H3 C5 1_555 1_555
C6 C5 1_555 1_555
H4 C6 1_555 1_555
C7 C2 1_555 1_555
H5 C7 1_555 1_555
C8 C3 1_555 1_555
C9 N1 1_555 1_555
H6 C9 1_555 1_555
C10 C9 1_555 1_555
H7 C10 1_555 1_555
H8 C10 1_555 1_555
H9 C10 1_555 1_555
C11 C9 1_555 1_555
C12 C11 1_555 1_555
H10 C12 1_555 1_555
C13 C12 1_555 1_555
H11 C13 1_555 1_555
C14 C13 1_555 1_555
H12 C14 1_555 1_555
C15 C14 1_555 1_555
H13 C15 1_555 1_555
C16 C11 1_555 1_555
H14 C16 1_555 1_555
N2 H15 1_555 1_555
H16 N2 1_555 1_555
H17 N2 1_555 1_555
C17 N2 1_555 1_555
H18 C17 1_555 1_555
C18 C17 1_555 1_555
H19 C18 1_555 1_555
C19 C18 1_555 1_555
H20 C19 1_555 1_555
H21 C19 1_555 1_555
C20 C19 1_555 1_555
H22 C20 1_555 1_555
H23 C20 1_555 1_555
C21 C20 1_555 1_555
H24 C21 1_555 1_555
C22 C17 1_555 1_555
H25 C22 1_555 1_555
H26 C22 1_555 1_555
C23 C18 1_555 1_555
H27 C23 1_555 1_555
H28 C23 1_555 1_555
C6 C7 1_555 1_555
C15 C16 1_555 1_555
C21 C22 1_555 1_555
C21 C23 1_555 1_555

#END
