
#######################################################################
#
#                 Cambridge Crystallographic Data Centre
#                                CCDC 
#
#######################################################################
#
# If this CIF has been generated from an entry in the Cambridge 
# Structural Database, then it will include bibliographic, chemical, 
# crystal, experimental, refinement or atomic coordinate data resulting 
# from the CCDC's data processing and validation procedures.
#
#######################################################################

data_KULGOP
_chemical_formula_moiety         'C25 H38 O4 S1 Si1'
_chemical_name_systematic        
'5-(t-Butyl(dimethyl)silyl)-2-(1-(methylsulfanyl)ethyl)phenyl 4,7,7-trimethyl-3-oxo-2-oxabicyclo[2.2.1]heptane-1-carboxylate'
_symmetry_cell_setting           monoclinic
_symmetry_space_group_name_H-M   'P 21'
_symmetry_Int_Tables_number      4
_space_group_name_Hall           'P 2yb'
loop_
_symmetry_equiv_pos_site_id
_symmetry_equiv_pos_as_xyz
1 x,y,z
2 -x,1/2+y,-z
_cell_length_a                   6.4850(12)
_cell_length_b                   11.608(2)
_cell_length_c                   35.604(7)
_cell_angle_alpha                90
_cell_angle_beta                 92.732(4)
_cell_angle_gamma                90
_cell_volume                     2677.15
_exptl_crystal_colour            colorless
_exptl_crystal_description       Block
_cell_formula_units_Z            4
loop_
_atom_site_label
_atom_site_type_symbol
_atom_site_fract_x
_atom_site_fract_y
_atom_site_fract_z
O1 O 0.9531(12) 0.7403(8) 0.5134(2)
O2 O 0.9658(13) 0.8435(10) 0.4598(2)
O3 O 0.7891(11) 0.6942(8) 0.57965(19)
O4 O 1.0872(9) 0.6436(7) 0.6074(3)
C1 C 1.3328(18) 0.9597(9) 0.4921(3)
H1 H 1.2378 1.0229 0.4932
H2 H 1.3638 0.9457 0.4664
H3 H 1.4576 0.9781 0.5064
C2 C 1.2388(17) 0.8553(12) 0.5079(4)
C3 C 1.1775(16) 0.8581(10) 0.5493(3)
C4 C 1.0922(17) 0.7330(12) 0.5469(3)
C5 C 1.3592(15) 0.8728(10) 0.5779(3)
H4 H 1.4030 0.9518 0.5783
H5 H 1.4714 0.8245 0.5710
H6 H 1.3172 0.8512 0.6024
C6 C 1.0143(17) 0.9484(9) 0.5572(3)
H7 H 1.0773 1.0232 0.5586
H8 H 0.9540 0.9312 0.5807
H9 H 0.9088 0.9475 0.5374
C7 C 1.0400(19) 0.8149(14) 0.4920(4)
C8 C 1.3801(17) 0.7422(11) 0.5084(3)
H10 H 1.3846 0.7084 0.4835
H11 H 1.5196 0.7589 0.5179
C9 C 1.2701(15) 0.6647(9) 0.5348(3)
H12 H 1.2235 0.5948 0.5221
H13 H 1.3604 0.6439 0.5563
C10 C 0.9675(18) 0.6924(11) 0.5767(3)
C11 C 1.0046(18) 0.5950(12) 0.6380(4)
C12 C 0.858(2) 0.5037(12) 0.6306(4)
H14 H 0.8104 0.4862 0.6062
C13 C 0.7912(19) 0.4437(12) 0.6607(4)
C14 C 0.8513(18) 0.4788(11) 0.6973(4)
H15 H 0.8046 0.4391 0.7180
C15 C 0.9851(16) 0.5764(11) 0.7027(3)
H16 H 1.0222 0.6019 0.7268
C16 C 1.0567(16) 0.6309(11) 0.6725(4)
C17 C 1.2017(17) 0.7301(11) 0.6761(3)
H17 H 1.1806 0.7763 0.6532
C18 C 0.939(2) 0.8547(14) 0.7194(4)
H18 H 0.9394 0.8985 0.7423
H19 H 0.8568 0.7868 0.7219
H20 H 0.8831 0.9007 0.6990
C19 C 1.415(2) 0.6996(16) 0.6789(4)
H21 H 1.4487 0.6554 0.6572
H22 H 1.4428 0.6547 0.7012
H23 H 1.4976 0.7683 0.6801
C20 C 0.4492(18) 0.3518(13) 0.6089(3)
H24 H 0.3471 0.2927 0.6046
H25 H 0.5446 0.3502 0.5891
H26 H 0.3827 0.4256 0.6093
C21 C 0.3989(16) 0.3383(12) 0.6932(3)
H27 H 0.2944 0.2800 0.6902
H28 H 0.3353 0.4129 0.6929
H29 H 0.4745 0.3273 0.7168
C22 C 0.724(2) 0.1968(13) 0.6565(5)
C23 C 0.543(2) 0.0899(13) 0.6494(4)
H30 H 0.6103 0.0162 0.6506
H31 H 0.4741 0.0994 0.6252
H32 H 0.4441 0.0943 0.6686
C24 C 0.819(2) 0.1688(13) 0.6912(4)
H33 H 0.8857 0.0953 0.6895
H34 H 0.7172 0.1653 0.7099
H35 H 0.9198 0.2265 0.6982
C25 C 0.881(2) 0.1830(14) 0.6265(5)
H36 H 0.9479 0.1097 0.6294
H37 H 0.9817 0.2434 0.6291
H38 H 0.8121 0.1873 0.6021
S1 S 1.1875(15) 0.8159(7) 0.7106(3)
Si1 Si 0.5847(6) 0.3272(4) 0.65283(12)
O5 O 0.3557(11) 0.0495(7) 0.9456(3)
O6 O 0.3617(14) -0.0253(11) 1.0025(3)
O7 O 0.4871(11) 0.1731(7) 0.8872(2)
O8 O 0.1832(11) 0.2553(7) 0.8766(3)
C26 C -0.0198(15) 0.1076(11) 1.0187(3)
H39 H 0.0715 0.1537 1.0345
H40 H -0.0372 0.0335 1.0302
H41 H -0.1514 0.1451 1.0157
C27 C 0.0693(18) 0.0926(12) 0.9815(4)
C28 C 0.1238(16) 0.2003(12) 0.9564(3)
C29 C 0.2056(16) 0.1262(10) 0.9255(3)
C30 C 0.2823(16) 0.2732(9) 0.9751(3)
H42 H 0.3119 0.3372 0.9592
H43 H 0.4057 0.2289 0.9800
H44 H 0.2330 0.3011 0.9985
C31 C -0.0653(16) 0.2725(8) 0.9465(3)
H45 H -0.0270 0.3368 0.9313
H46 H -0.1233 0.3001 0.9691
H47 H -0.1657 0.2264 0.9326
C32 C -0.0642(15) 0.0186(9) 0.9521(3)
H48 H -0.2085 0.0406 0.9522
H49 H -0.0524 -0.0628 0.9580
C33 C 0.0262(15) 0.0450(10) 0.9124(3)
H50 H 0.0759 -0.0241 0.9005
H51 H -0.0737 0.0835 0.8956
C34 C 0.277(2) 0.0289(13) 0.9783(4)
C35 C 0.306(2) 0.1818(12) 0.8929(4)
C36 C 0.2508(18) 0.3288(12) 0.8482(3)
C37 C 0.3790(16) 0.4128(12) 0.8571(4)
H52 H 0.4285 0.4155 0.8820
C38 C 0.4494(15) 0.4977(9) 0.8337(3)
C39 C 0.3648(19) 0.4814(12) 0.7962(4)
H53 H 0.4069 0.5305 0.7774
C40 C 0.2236(18) 0.3960(11) 0.7867(4)
H54 H 0.1634 0.3931 0.7625
C41 C 0.1711(19) 0.3148(13) 0.8131(4)
C42 C 0.0151(16) 0.2248(10) 0.7990(3)
H55 H -0.0061 0.2358 0.7718
C43 C -0.1938(15) 0.2348(12) 0.8158(3)
H56 H -0.2455 0.3118 0.8123
H57 H -0.1806 0.2179 0.8422
H58 H -0.2879 0.1813 0.8037
C44 C 0.3066(16) 0.0753(12) 0.7739(3)
H59 H 0.3711 0.0009 0.7746
H60 H 0.4076 0.1333 0.7804
H61 H 0.2486 0.0898 0.7490
C45 C 0.8327(14) 0.5560(10) 0.8791(3)
H62 H 0.9311 0.6149 0.8861
H63 H 0.9025 0.4923 0.8682
H64 H 0.7655 0.5304 0.9011
C46 C 0.7607(14) 0.6574(10) 0.8017(3)
H65 H 0.8580 0.7181 0.8073
H66 H 0.6566 0.6842 0.7837
H67 H 0.8310 0.5926 0.7915
C47 C 0.5150(17) 0.7338(10) 0.8661(3)
C48 C 0.4123(15) 0.7058(11) 0.9022(4)
H68 H 0.3483 0.7739 0.9116
H69 H 0.5140 0.6782 0.9205
H70 H 0.3093 0.6475 0.8975
C49 C 0.3303(18) 0.7842(11) 0.8383(4)
H71 H 0.2680 0.8492 0.8500
H72 H 0.2281 0.7254 0.8336
H73 H 0.3856 0.8077 0.8150
C50 C 0.649(2) 0.8429(12) 0.8748(4)
H74 H 0.5646 0.9019 0.8851
H75 H 0.7058 0.8703 0.8521
H76 H 0.7591 0.8236 0.8927
S2 S 0.1076(6) 0.0790(3) 0.80645(12)
Si2 Si 0.6396(5) 0.6142(3) 0.84490(11)
loop_
_geom_bond_atom_site_label_1
_geom_bond_atom_site_label_2
_geom_bond_site_symmetry_1
_geom_bond_site_symmetry_2
O1 C4 1_555 1_555
O2 C7 1_555 1_555
O3 C10 1_555 1_555
O4 C10 1_555 1_555
C1 H1 1_555 1_555
H2 C1 1_555 1_555
H3 C1 1_555 1_555
C2 C1 1_555 1_555
C3 C2 1_555 1_555
C4 C3 1_555 1_555
C5 C3 1_555 1_555
H4 C5 1_555 1_555
H5 C5 1_555 1_555
H6 C5 1_555 1_555
C6 C3 1_555 1_555
H7 C6 1_555 1_555
H8 C6 1_555 1_555
H9 C6 1_555 1_555
C7 O1 1_555 1_555
C8 C2 1_555 1_555
H10 C8 1_555 1_555
H11 C8 1_555 1_555
C9 C4 1_555 1_555
H12 C9 1_555 1_555
H13 C9 1_555 1_555
C10 C4 1_555 1_555
C11 O4 1_555 1_555
C12 C11 1_555 1_555
H14 C12 1_555 1_555
C13 C12 1_555 1_555
C14 C13 1_555 1_555
H15 C14 1_555 1_555
C15 C14 1_555 1_555
H16 C15 1_555 1_555
C16 C11 1_555 1_555
C17 C16 1_555 1_555
H17 C17 1_555 1_555
C18 H18 1_555 1_555
H19 C18 1_555 1_555
H20 C18 1_555 1_555
C19 C17 1_555 1_555
H21 C19 1_555 1_555
H22 C19 1_555 1_555
H23 C19 1_555 1_555
C20 H24 1_555 1_555
H25 C20 1_555 1_555
H26 C20 1_555 1_555
C21 H27 1_555 1_555
H28 C21 1_555 1_555
H29 C21 1_555 1_555
C22 C23 1_555 1_555
C23 H30 1_555 1_555
H31 C23 1_555 1_555
H32 C23 1_555 1_555
C24 C22 1_555 1_555
H33 C24 1_555 1_555
H34 C24 1_555 1_555
H35 C24 1_555 1_555
C25 C22 1_555 1_555
H36 C25 1_555 1_555
H37 C25 1_555 1_555
H38 C25 1_555 1_555
S1 C17 1_555 1_555
Si1 C13 1_555 1_555
O5 C29 1_555 1_555
O6 C34 1_555 1_555
O7 C35 1_555 1_555
O8 C35 1_555 1_555
C26 H39 1_555 1_555
H40 C26 1_555 1_555
H41 C26 1_555 1_555
C27 C26 1_555 1_555
C28 C27 1_555 1_555
C29 C28 1_555 1_555
C30 C28 1_555 1_555
H42 C30 1_555 1_555
H43 C30 1_555 1_555
H44 C30 1_555 1_555
C31 C28 1_555 1_555
H45 C31 1_555 1_555
H46 C31 1_555 1_555
H47 C31 1_555 1_555
C32 C27 1_555 1_555
H48 C32 1_555 1_555
H49 C32 1_555 1_555
C33 C29 1_555 1_555
H50 C33 1_555 1_555
H51 C33 1_555 1_555
C34 O5 1_555 1_555
C35 C29 1_555 1_555
C36 O8 1_555 1_555
C37 C36 1_555 1_555
H52 C37 1_555 1_555
C38 C37 1_555 1_555
C39 C38 1_555 1_555
H53 C39 1_555 1_555
C40 C39 1_555 1_555
H54 C40 1_555 1_555
C41 C36 1_555 1_555
C42 C41 1_555 1_555
H55 C42 1_555 1_555
C43 C42 1_555 1_555
H56 C43 1_555 1_555
H57 C43 1_555 1_555
H58 C43 1_555 1_555
C44 H59 1_555 1_555
H60 C44 1_555 1_555
H61 C44 1_555 1_555
C45 H62 1_555 1_555
H63 C45 1_555 1_555
H64 C45 1_555 1_555
C46 H65 1_555 1_555
H66 C46 1_555 1_555
H67 C46 1_555 1_555
C47 C48 1_555 1_555
C48 H68 1_555 1_555
H69 C48 1_555 1_555
H70 C48 1_555 1_555
C49 C47 1_555 1_555
H71 C49 1_555 1_555
H72 C49 1_555 1_555
H73 C49 1_555 1_555
C50 C47 1_555 1_555
H74 C50 1_555 1_555
H75 C50 1_555 1_555
H76 C50 1_555 1_555
S2 C42 1_555 1_555
Si2 C38 1_555 1_555
C2 C7 1_555 1_555
C8 C9 1_555 1_555
C15 C16 1_555 1_555
C18 S1 1_555 1_555
C20 Si1 1_555 1_555
C21 Si1 1_555 1_555
C22 Si1 1_555 1_555
C27 C34 1_555 1_555
C32 C33 1_555 1_555
C40 C41 1_555 1_555
C44 S2 1_555 1_555
C45 Si2 1_555 1_555
C46 Si2 1_555 1_555
C47 Si2 1_555 1_555

#END
