
#######################################################################
#
#                 Cambridge Crystallographic Data Centre
#                                CCDC 
#
#######################################################################
#
# If this CIF has been generated from an entry in the Cambridge 
# Structural Database, then it will include bibliographic, chemical, 
# crystal, experimental, refinement or atomic coordinate data resulting 
# from the CCDC's data processing and validation procedures.
#
#######################################################################

data_KULGUV
_chemical_formula_moiety         'C19 H33 N1 O2 S1 Si1'
_chemical_name_systematic        
'2-(1-(Methylsulfanyl)ethyl)-5-(trimethylsilyl)phenyl di-isopropylcarbamate'
_symmetry_cell_setting           triclinic
_symmetry_space_group_name_H-M   'P 1'
_symmetry_Int_Tables_number      1
_space_group_name_Hall           'P 1'
loop_
_symmetry_equiv_pos_site_id
_symmetry_equiv_pos_as_xyz
1 x,y,z
_cell_length_a                   7.8570(16)
_cell_length_b                   11.876(3)
_cell_length_c                   13.396(3)
_cell_angle_alpha                70.095(4)
_cell_angle_beta                 77.111(4)
_cell_angle_gamma                79.851(4)
_cell_volume                     1138.81
_exptl_crystal_colour            colorless
_exptl_crystal_description       block
_cell_formula_units_Z            2
loop_
_atom_site_label
_atom_site_type_symbol
_atom_site_fract_x
_atom_site_fract_y
_atom_site_fract_z
Si1 Si 0.43599(18) 0.81227(14) 0.32215(13)
S1 S 0.2478(2) 0.29482(13) 0.21173(15)
O1 O 0.0324(4) 0.6845(3) 0.1249(3)
O2 O 0.2440(4) 0.6881(4) -0.0225(3)
N1 N -0.0465(5) 0.7212(3) -0.0361(4)
C1 C 0.4047(7) 0.3480(7) 0.0975(7)
H1 H 0.4869 0.2819 0.0855
H2 H 0.4657 0.4052 0.1080
H3 H 0.3478 0.3863 0.0361
C2 C 0.1151(6) 0.4324(4) 0.2159(4)
H4 H 0.0710 0.4690 0.1477
C3 C -0.0442(7) 0.3991(6) 0.3086(6)
H5 H -0.1188 0.4711 0.3130
H6 H -0.0029 0.3590 0.3756
H7 H -0.1092 0.3466 0.2944
C4 C 0.2124(6) 0.5239(5) 0.2314(4)
C5 C 0.3370(6) 0.4913(5) 0.2985(4)
H8 H 0.3726 0.4102 0.3299
C6 C 0.4087(6) 0.5778(5) 0.3193(4)
H9 H 0.4950 0.5526 0.3622
C7 C 0.3581(6) 0.6989(5) 0.2794(4)
C8 C 0.2332(6) 0.7312(4) 0.2132(4)
H10 H 0.1951 0.8123 0.1837
C9 C 0.1636(5) 0.6456(5) 0.1897(4)
C10 C 0.3242(8) 0.7967(6) 0.4642(5)
H11 H 0.3619 0.8541 0.4884
H12 H 0.3540 0.7167 0.5099
H13 H 0.1993 0.8113 0.4673
C11 C 0.6754(6) 0.7795(5) 0.3215(4)
H14 H 0.7364 0.7871 0.2493
H15 H 0.7009 0.6989 0.3675
H16 H 0.7131 0.8355 0.3474
C12 C 0.3860(8) 0.9675(5) 0.2316(5)
H17 H 0.4442 0.9735 0.1592
H18 H 0.4265 1.0242 0.2553
H19 H 0.2615 0.9849 0.2336
C13 C 0.0899(7) 0.6971(4) 0.0173(5)
C14 C -0.0083(7) 0.7315(6) -0.1514(5)
H20 H -0.1232 0.7442 -0.1729
C15 C 0.0792(7) 0.6141(6) -0.1694(5)
H21 H 0.0128 0.5495 -0.1225
H22 H 0.1962 0.5990 -0.1539
H23 H 0.0840 0.6194 -0.2430
C16 C 0.0788(8) 0.8434(6) -0.2186(5)
H24 H 0.0124 0.9118 -0.2003
H25 H 0.0834 0.8551 -0.2937
H26 H 0.1958 0.8344 -0.2046
C17 C -0.2345(6) 0.7257(5) 0.0207(4)
H27 H -0.2346 0.7229 0.0947
C18 C -0.3166(6) 0.6183(6) 0.0271(5)
H28 H -0.4365 0.6235 0.0632
H29 H -0.2530 0.5462 0.0665
H30 H -0.3131 0.6164 -0.0444
C19 C -0.3386(7) 0.8419(6) -0.0319(5)
H31 H -0.4579 0.8423 0.0056
H32 H -0.3360 0.8489 -0.1058
H33 H -0.2881 0.9085 -0.0291
Si2 Si 0.5699(3) 0.08785(16) 0.53994(14)
S2 S 0.8515(2) 0.59836(14) 0.59432(13)
O3 O 0.9325(4) 0.2293(3) 0.7523(3)
O4 O 0.7293(4) 0.2075(3) 0.9031(3)
N2 N 1.0211(5) 0.1754(4) 0.9114(4)
C20 C 1.0429(9) 0.5190(7) 0.5431(6)
H34 H 1.1082 0.5737 0.4822
H35 H 1.0110 0.4577 0.5211
H36 H 1.1138 0.4822 0.5981
C21 C 0.6051(8) 0.5237(6) 0.7697(5)
H37 H 0.5572 0.4578 0.8280
H38 H 0.5182 0.5648 0.7255
H39 H 0.6392 0.5786 0.7982
C22 C 0.7661(6) 0.4755(4) 0.7015(4)
H40 H 0.8556 0.4378 0.7469
C23 C 0.7196(6) 0.3803(5) 0.6627(4)
C24 C 0.5968(6) 0.4058(5) 0.5963(4)
H41 H 0.5425 0.4842 0.5739
C25 C 0.5515(7) 0.3199(6) 0.5620(4)
H42 H 0.4650 0.3406 0.5195
C26 C 0.6340(7) 0.2021(5) 0.5904(4)
C27 C 0.7563(6) 0.1764(5) 0.6577(4)
H43 H 0.8111 0.0982 0.6806
C28 C 0.7984(5) 0.2632(5) 0.6914(4)
C29 C 0.6739(11) 0.1085(7) 0.4039(5)
H44 H 0.7990 0.0950 0.3998
H45 H 0.6417 0.1892 0.3605
H46 H 0.6372 0.0523 0.3778
C30 C 0.3215(8) 0.1153(7) 0.5405(7)
H47 H 0.2882 0.0573 0.5150
H48 H 0.2924 0.1950 0.4941
H49 H 0.2597 0.1071 0.6126
C31 C 0.6205(10) -0.0623(6) 0.6296(6)
H50 H 0.7445 -0.0774 0.6299
H51 H 0.5855 -0.1204 0.6050
H52 H 0.5581 -0.0685 0.7012
C32 C 0.8831(7) 0.2034(5) 0.8607(5)
C33 C 1.2005(6) 0.1730(5) 0.8559(4)
H53 H 1.1975 0.1841 0.7804
C34 C 1.3066(7) 0.0549(6) 0.8975(6)
H54 H 1.2485 -0.0089 0.8959
H55 H 1.3185 0.0429 0.9703
H56 H 1.4208 0.0550 0.8531
C35 C 1.2851(7) 0.2761(7) 0.8567(6)
H57 H 1.2133 0.3501 0.8298
H58 H 1.3989 0.2783 0.8117
H59 H 1.2972 0.2658 0.9291
C36 C 0.9903(7) 0.1534(6) 1.0279(5)
H60 H 1.1063 0.1370 1.0487
C37 C 0.8960(8) 0.0458(6) 1.0924(5)
H61 H 0.9561 -0.0232 1.0724
H62 H 0.7781 0.0601 1.0785
H63 H 0.8933 0.0311 1.1677
C38 C 0.8989(6) 0.2656(6) 1.0583(5)
H64 H 0.9621 0.3335 1.0159
H65 H 0.8967 0.2518 1.1334
H66 H 0.7808 0.2817 1.0444
loop_
_geom_bond_atom_site_label_1
_geom_bond_atom_site_label_2
_geom_bond_site_symmetry_1
_geom_bond_site_symmetry_2
Si1 C7 1_555 1_555
S1 C1 1_555 1_555
O1 C9 1_555 1_555
O2 C13 1_555 1_555
N1 C13 1_555 1_555
C1 H1 1_555 1_555
H2 C1 1_555 1_555
H3 C1 1_555 1_555
C2 S1 1_555 1_555
H4 C2 1_555 1_555
C3 C2 1_555 1_555
H5 C3 1_555 1_555
H6 C3 1_555 1_555
H7 C3 1_555 1_555
C4 C2 1_555 1_555
C5 C4 1_555 1_555
H8 C5 1_555 1_555
C6 C5 1_555 1_555
H9 C6 1_555 1_555
C7 C6 1_555 1_555
C8 C7 1_555 1_555
H10 C8 1_555 1_555
C9 C4 1_555 1_555
C10 Si1 1_555 1_555
H11 C10 1_555 1_555
H12 C10 1_555 1_555
H13 C10 1_555 1_555
C11 Si1 1_555 1_555
H14 C11 1_555 1_555
H15 C11 1_555 1_555
H16 C11 1_555 1_555
C12 Si1 1_555 1_555
H17 C12 1_555 1_555
H18 C12 1_555 1_555
H19 C12 1_555 1_555
C13 O1 1_555 1_555
C14 N1 1_555 1_555
H20 C14 1_555 1_555
C15 C14 1_555 1_555
H21 C15 1_555 1_555
H22 C15 1_555 1_555
H23 C15 1_555 1_555
C16 C14 1_555 1_555
H24 C16 1_555 1_555
H25 C16 1_555 1_555
H26 C16 1_555 1_555
C17 N1 1_555 1_555
H27 C17 1_555 1_555
C18 C17 1_555 1_555
H28 C18 1_555 1_555
H29 C18 1_555 1_555
H30 C18 1_555 1_555
C19 C17 1_555 1_555
H31 C19 1_555 1_555
H32 C19 1_555 1_555
H33 C19 1_555 1_555
Si2 C26 1_555 1_555
S2 C20 1_555 1_555
O3 C28 1_555 1_555
O4 C32 1_555 1_555
N2 C32 1_555 1_555
C20 H34 1_555 1_555
H35 C20 1_555 1_555
H36 C20 1_555 1_555
C21 H37 1_555 1_555
H38 C21 1_555 1_555
H39 C21 1_555 1_555
C22 S2 1_555 1_555
H40 C22 1_555 1_555
C23 C22 1_555 1_555
C24 C23 1_555 1_555
H41 C24 1_555 1_555
C25 C24 1_555 1_555
H42 C25 1_555 1_555
C26 C25 1_555 1_555
C27 C26 1_555 1_555
H43 C27 1_555 1_555
C28 C23 1_555 1_555
C29 Si2 1_555 1_555
H44 C29 1_555 1_555
H45 C29 1_555 1_555
H46 C29 1_555 1_555
C30 Si2 1_555 1_555
H47 C30 1_555 1_555
H48 C30 1_555 1_555
H49 C30 1_555 1_555
C31 Si2 1_555 1_555
H50 C31 1_555 1_555
H51 C31 1_555 1_555
H52 C31 1_555 1_555
C32 O3 1_555 1_555
C33 N2 1_555 1_555
H53 C33 1_555 1_555
C34 C33 1_555 1_555
H54 C34 1_555 1_555
H55 C34 1_555 1_555
H56 C34 1_555 1_555
C35 C33 1_555 1_555
H57 C35 1_555 1_555
H58 C35 1_555 1_555
H59 C35 1_555 1_555
C36 N2 1_555 1_555
H60 C36 1_555 1_555
C37 C36 1_555 1_555
H61 C37 1_555 1_555
H62 C37 1_555 1_555
H63 C37 1_555 1_555
C38 C36 1_555 1_555
H64 C38 1_555 1_555
H65 C38 1_555 1_555
H66 C38 1_555 1_555
C8 C9 1_555 1_555
C21 C22 1_555 1_555
C27 C28 1_555 1_555

#END
