
#######################################################################
#
#                 Cambridge Crystallographic Data Centre
#                                CCDC 
#
#######################################################################
#
# If this CIF has been generated from an entry in the Cambridge 
# Structural Database, then it will include bibliographic, chemical, 
# crystal, experimental, refinement or atomic coordinate data resulting 
# from the CCDC's data processing and validation procedures.
#
#######################################################################

data_KULMOU
_chemical_name_common            'L-Serine hydrogen peroxide solvate'
_chemical_formula_moiety         'C3 H7 N1 O3,H2 O2'
_chemical_name_systematic        
'(S)-2-Amino-3-hydroxypropionic acid hydrogen peroxide solvate'
_symmetry_cell_setting           orthorhombic
_symmetry_space_group_name_H-M   'P 21 21 21'
_symmetry_Int_Tables_number      19
_space_group_name_Hall           'P 2ac 2ab'
loop_
_symmetry_equiv_pos_site_id
_symmetry_equiv_pos_as_xyz
1 x,y,z
2 1/2-x,-y,1/2+z
3 -x,1/2+y,1/2-z
4 1/2+x,1/2-y,-z
_cell_length_a                   4.8616(6)
_cell_length_b                   9.1187(11)
_cell_length_c                   13.2712(16)
_cell_angle_alpha                90
_cell_angle_beta                 90
_cell_angle_gamma                90
_cell_volume                     588.332
_exptl_crystal_colour            colorless
_exptl_crystal_description       block
_chemical_melting_point          '72-74 deg.C'
_cell_formula_units_Z            4
loop_
_atom_site_label
_atom_site_type_symbol
_atom_site_fract_x
_atom_site_fract_y
_atom_site_fract_z
O1 O 0.7517(3) 0.59450(14) 0.49538(9)
O2 O 1.0070(2) 0.51709(15) 0.47226(9)
H1 H 0.658(5) 0.567(3) 0.4464(18)
H2 H 0.999(5) 0.454(2) 0.5192(15)
N1 N 0.7063(3) 0.77818(13) 0.67076(9)
O3 O 0.9029(3) 0.80827(13) 0.88822(8)
O4 O 0.7836(2) 1.12831(12) 0.79720(8)
O5 O 1.0066(2) 1.02480(12) 0.66924(8)
C1 C 0.8237(3) 1.02561(15) 0.73621(10)
C2 C 0.6312(3) 0.89365(15) 0.74564(10)
H3 H 0.4406 0.9277 0.7298
C3 C 0.6305(3) 0.83387(16) 0.85269(11)
H4 H 0.5376 0.9048 0.8978
H5 H 0.5254 0.7409 0.8545
H6 H 0.877(5) 0.740(3) 0.6810(16)
H7 H 0.948(6) 0.721(3) 0.8708(17)
H8 H 0.580(5) 0.710(3) 0.6713(16)
H9 H 0.717(4) 0.816(2) 0.6072(14)
loop_
_geom_bond_atom_site_label_1
_geom_bond_atom_site_label_2
_geom_bond_site_symmetry_1
_geom_bond_site_symmetry_2
O1 O2 1_555 1_555
O2 H2 1_555 1_555
H1 O1 1_555 1_555
N1 C2 1_555 1_555
O3 C3 1_555 1_555
O4 C1 1_555 1_555
O5 C1 1_555 1_555
C1 C2 1_555 1_555
C2 H3 1_555 1_555
C3 C2 1_555 1_555
H4 C3 1_555 1_555
H5 C3 1_555 1_555
H6 N1 1_555 1_555
H7 O3 1_555 1_555
H8 N1 1_555 1_555
H9 N1 1_555 1_555

#END
