
#######################################################################
#
#                 Cambridge Crystallographic Data Centre
#                                CCDC 
#
#######################################################################
#
# If this CIF has been generated from an entry in the Cambridge 
# Structural Database, then it will include bibliographic, chemical, 
# crystal, experimental, refinement or atomic coordinate data resulting 
# from the CCDC's data processing and validation procedures.
#
#######################################################################

data_KUMBAW
_chemical_compound_source        
'endophytic fungal strain Botryosphaeria sp. MHF of Maytenus hookeri'
_chemical_name_common            
rel-(3aS,5aR,10aS,10bS,10cR)-10a-Hydroxy-3a,10b-dimethyl-1,2,3,3a,5a,7,10,10a,10b,10c-decahydro-4H,9H-[2]benzofuro[7,1-fg]isochromene-4,9-dione
_chemical_formula_moiety         'C16 H20 O5'
_chemical_name_systematic        'Botryosphaerin A'
_chemical_properties_biological  
'tested for inhibitory activity against several pathogenic bacterial and fungal strains'
_symmetry_cell_setting           orthorhombic
_symmetry_space_group_name_H-M   'P 21 21 21'
_symmetry_Int_Tables_number      19
_space_group_name_Hall           'P 2ac 2ab'
loop_
_symmetry_equiv_pos_site_id
_symmetry_equiv_pos_as_xyz
1 x,y,z
2 1/2-x,-y,1/2+z
3 -x,1/2+y,1/2-z
4 1/2+x,1/2-y,-z
_cell_length_a                   7.7054(10)
_cell_length_b                   9.6017(12)
_cell_length_c                   19.093(2)
_cell_angle_alpha                90
_cell_angle_beta                 90
_cell_angle_gamma                90
_cell_volume                     1412.59
_exptl_crystal_colour            colorless
_exptl_crystal_description       prismatic
_chemical_melting_point          '274-275 deg.C'
_cell_formula_units_Z            4
_exptl_crystal_recrystallization_method chloroform/methanol
loop_
_atom_site_label
_atom_site_type_symbol
_atom_site_fract_x
_atom_site_fract_y
_atom_site_fract_z
O1 O 0.3543(3) 0.65300(19) 0.91795(10)
O2 O 0.0810(3) 0.6278(3) 1.06696(13)
O3 O 0.3612(3) 0.6545(2) 1.07944(10)
O4 O 0.8652(4) 0.1679(3) 0.83001(13)
O5 O 0.8607(3) 0.3518(2) 0.89980(11)
C1 C 0.3089(5) 0.4022(4) 0.83658(15)
H1 H 0.2222 0.3371 0.8534
H2 H 0.2530 0.4920 0.8310
C2 C 0.3738(6) 0.3534(6) 0.7659(2)
H3 H 0.2882 0.2897 0.7469
H4 H 0.3774 0.4337 0.7351
C3 C 0.5402(6) 0.2859(5) 0.7623(2)
H5 H 0.5708 0.2720 0.7135
H6 H 0.5316 0.1949 0.7841
C4 C 0.6874(5) 0.3700(4) 0.79885(15)
C5 C 0.6173(4) 0.4706(3) 0.85424(14)
H7 H 0.5908 0.5603 0.8322
C6 C 0.7717(4) 0.4872(3) 0.90183(15)
H8 H 0.8490 0.5579 0.8819
C7 C 0.7294(4) 0.5275(3) 0.97509(14)
H9 H 0.8190 0.5373 1.0073
C8 C 0.5684(4) 0.5496(3) 0.99557(13)
C9 C 0.4112(3) 0.5240(3) 0.94960(13)
C10 C 0.4535(4) 0.4155(3) 0.89202(13)
C11 C 0.2623(4) 0.4796(3) 0.99778(14)
H10 H 0.1591 0.4619 0.9701
H11 H 0.2933 0.3941 1.0218
C12 C 0.2247(4) 0.5921(3) 1.05090(15)
C13 C 0.5310(4) 0.5914(4) 1.07027(14)
H12 H 0.5389 0.5097 1.0999
H13 H 0.6191 0.6569 1.0856
C14 C 0.8001(7) 0.4441(6) 0.74394(19)
H14 H 0.8780 0.5073 0.7670
H15 H 0.7270 0.4951 0.7123
H16 H 0.8659 0.3763 0.7182
C15 C 0.8094(5) 0.2814(4) 0.84141(16)
C16 C 0.4797(4) 0.2730(3) 0.92820(15)
H17 H 0.5334 0.2094 0.8960
H18 H 0.3692 0.2366 0.9425
H19 H 0.5527 0.2845 0.9685
H20 H 0.429(3) 0.717(3) 0.9204(15)
loop_
_geom_bond_atom_site_label_1
_geom_bond_atom_site_label_2
_geom_bond_site_symmetry_1
_geom_bond_site_symmetry_2
O1 C9 1_555 1_555
O2 C12 1_555 1_555
O3 C12 1_555 1_555
O4 C15 1_555 1_555
O5 C6 1_555 1_555
C1 H1 1_555 1_555
H2 C1 1_555 1_555
C2 C1 1_555 1_555
H3 C2 1_555 1_555
H4 C2 1_555 1_555
C3 C2 1_555 1_555
H5 C3 1_555 1_555
H6 C3 1_555 1_555
C4 C3 1_555 1_555
C5 C4 1_555 1_555
H7 C5 1_555 1_555
C6 C5 1_555 1_555
H8 C6 1_555 1_555
C7 C6 1_555 1_555
H9 C7 1_555 1_555
C8 C7 1_555 1_555
C9 C8 1_555 1_555
C10 C1 1_555 1_555
C11 C9 1_555 1_555
H10 C11 1_555 1_555
H11 C11 1_555 1_555
C12 C11 1_555 1_555
C13 O3 1_555 1_555
H12 C13 1_555 1_555
H13 C13 1_555 1_555
C14 C4 1_555 1_555
H14 C14 1_555 1_555
H15 C14 1_555 1_555
H16 C14 1_555 1_555
C15 O5 1_555 1_555
C16 C10 1_555 1_555
H17 C16 1_555 1_555
H18 C16 1_555 1_555
H19 C16 1_555 1_555
H20 O1 1_555 1_555
C4 C15 1_555 1_555
C5 C10 1_555 1_555
C8 C13 1_555 1_555
C9 C10 1_555 1_555

#END
