
#######################################################################
#
#                 Cambridge Crystallographic Data Centre
#                                CCDC 
#
#######################################################################
#
# If this CIF has been generated from an entry in the Cambridge 
# Structural Database, then it will include bibliographic, chemical, 
# crystal, experimental, refinement or atomic coordinate data resulting 
# from the CCDC's data processing and validation procedures.
#
#######################################################################

data_KUMCEB01
_chemical_name_common            Sulfoaildenafil
_chemical_formula_moiety         'C23 H33 N6 O3 S2 1+,C1 H3 O3 S1 1-'
_chemical_name_systematic        
'4-((4-Ethoxy-3-(1-methyl-3-propyl-7-thioxo-6,7-dihydro-1H-pyrazolo[4,3-d]pyrimidin-5-yl)phenyl)sulfonyl)-2,6-dimethylpiperazin-1-ium methanesulfonate'
_chemical_properties_biological  
'Phosphodiesterase type 5 (PDE-5) inhibitor, with possible use in the treatment of erectile dysfunction'
_symmetry_cell_setting           triclinic
_symmetry_space_group_name_H-M   'P -1'
_symmetry_Int_Tables_number      2
_space_group_name_Hall           '-P 1'
loop_
_symmetry_equiv_pos_site_id
_symmetry_equiv_pos_as_xyz
1 x,y,z
2 -x,-y,-z
_cell_length_a                   9.1707(5)
_cell_length_b                   9.2150(5)
_cell_length_c                   16.9920(10)
_cell_angle_alpha                93.826(1)
_cell_angle_beta                 91.110(1)
_cell_angle_gamma                95.515(1)
_cell_volume                     1425.65
_exptl_crystal_colour            yellow
_exptl_crystal_description       block
_cell_formula_units_Z            2
_exptl_crystal_recrystallization_method 'diethyl ether/dimethylformamide'
loop_
_atom_site_label
_atom_site_type_symbol
_atom_site_fract_x
_atom_site_fract_y
_atom_site_fract_z
C1 C 0.75110(16) 0.48274(16) 0.26285(9)
C2 C 0.65726(17) 0.58154(16) 0.29318(9)
H1 H 0.6818 0.6380 0.3413
C3 C 0.52822(17) 0.59672(17) 0.25269(9)
H2 H 0.4642 0.6645 0.2728
C4 C 0.49123(16) 0.51312(16) 0.18232(9)
C5 C 0.58648(16) 0.41344(16) 0.15034(9)
C6 C 0.71699(16) 0.40078(16) 0.19224(9)
H3 H 0.7832 0.3352 0.1721
C7 C 0.55871(16) 0.32388(16) 0.07448(9)
C8 C 0.37837(16) 0.25763(17) -0.03444(9)
C9 C 0.48324(16) 0.16424(16) -0.06216(9)
C10 C 0.61770(16) 0.16197(16) -0.02202(9)
C11 C 0.69556(17) 0.06291(17) -0.06809(9)
C12 C 0.84727(18) 0.02152(19) -0.05483(10)
H4 H 0.8495 -0.0326 -0.0065
H5 H 0.9150 0.1117 -0.0458
C13 C 0.9023(2) -0.0726(2) -0.12352(12)
H6 H 0.9934 -0.1124 -0.1064
H7 H 0.8281 -0.1561 -0.1374
C14 C 0.9327(2) 0.0116(3) -0.19648(13)
H8 H 0.8448 0.0566 -0.2118
H9 H 0.9593 -0.0556 -0.2398
H10 H 1.0137 0.0879 -0.1848
C15 C 0.37029(19) 0.0238(2) -0.18663(10)
H11 H 0.3029 -0.0541 -0.1672
H12 H 0.4152 -0.0126 -0.2350
H13 H 0.3160 0.1070 -0.1979
C16 C 0.25330(17) 0.60938(19) 0.17645(10)
H14 H 0.2884 0.7147 0.1816
H15 H 0.2286 0.5771 0.2294
C17 C 0.12149(19) 0.5823(2) 0.12130(11)
H16 H 0.1473 0.6163 0.0695
H17 H 0.0419 0.6356 0.1426
H18 H 0.0895 0.4775 0.1159
C18 C 0.76891(17) 0.39055(17) 0.44682(9)
H19 H 0.6665 0.3824 0.4262
H20 H 0.7972 0.4936 0.4656
C19 C 0.78081(17) 0.29229(17) 0.51460(9)
H21 H 0.8836 0.3055 0.5365
C20 C 0.6771(2) 0.3271(2) 0.58009(10)
H22 H 0.7016 0.4280 0.6017
H23 H 0.6864 0.2602 0.6220
H24 H 0.5761 0.3156 0.5590
C21 C 0.82950(18) 0.19306(16) 0.35327(9)
H25 H 0.8956 0.1682 0.3101
H26 H 0.7276 0.1806 0.3318
C22 C 0.84468(17) 0.09210(17) 0.41924(9)
H27 H 0.9483 0.1042 0.4399
C23 C 0.8042(2) -0.06684(17) 0.39110(10)
H28 H 0.8125 -0.1285 0.4355
H29 H 0.8707 -0.0955 0.3497
H30 H 0.7032 -0.0791 0.3700
S1 S 0.21751(4) 0.28619(5) -0.07424(3)
N1 N 0.42688(14) 0.33214(14) 0.03532(8)
H34 H 0.3675 0.3915 0.0574
N2 N 0.65723(14) 0.24192(14) 0.04760(7)
N3 N 0.61233(15) 0.00758(15) -0.13031(8)
N4 N 0.48439(15) 0.07022(15) -0.12687(8)
N5 N 0.86707(14) 0.34542(13) 0.38382(7)
N6 N 0.74557(13) 0.13584(14) 0.48410(7)
H35 H 0.7542 0.0763 0.5249
H36 H 0.6500 0.1225 0.4655
O1 O 0.36428(12) 0.52529(13) 0.14184(7)
O2 O 1.01061(12) 0.39335(13) 0.26574(7)
O3 O 0.95688(13) 0.59900(13) 0.35927(7)
S2 S 0.91202(4) 0.46179(4) 0.31729(2)
C24 C 0.6619(2) 0.7623(2) 0.69228(10)
H31 H 0.5775 0.6902 0.6973
H32 H 0.6588 0.8425 0.7329
H33 H 0.7526 0.7157 0.6989
O4 O 0.52397(13) 0.90870(14) 0.59593(8)
O5 O 0.78778(13) 0.93457(14) 0.59484(7)
O6 O 0.65166(17) 0.70850(15) 0.54116(8)
S3 S 0.65629(4) 0.83155(4) 0.59853(2)
loop_
_geom_bond_atom_site_label_1
_geom_bond_atom_site_label_2
_geom_bond_site_symmetry_1
_geom_bond_site_symmetry_2
C1 C2 1_555 1_555
C2 H1 1_555 1_555
C3 C2 1_555 1_555
H2 C3 1_555 1_555
C4 C3 1_555 1_555
C5 C4 1_555 1_555
C6 C1 1_555 1_555
H3 C6 1_555 1_555
C7 C5 1_555 1_555
C8 C9 1_555 1_555
C9 C10 1_555 1_555
C10 C11 1_555 1_555
C11 C12 1_555 1_555
C12 H4 1_555 1_555
H5 C12 1_555 1_555
C13 C12 1_555 1_555
H6 C13 1_555 1_555
H7 C13 1_555 1_555
C14 C13 1_555 1_555
H8 C14 1_555 1_555
H9 C14 1_555 1_555
H10 C14 1_555 1_555
C15 H11 1_555 1_555
H12 C15 1_555 1_555
H13 C15 1_555 1_555
C16 H14 1_555 1_555
H15 C16 1_555 1_555
C17 C16 1_555 1_555
H16 C17 1_555 1_555
H17 C17 1_555 1_555
H18 C17 1_555 1_555
C18 H19 1_555 1_555
H20 C18 1_555 1_555
C19 C18 1_555 1_555
H21 C19 1_555 1_555
C20 C19 1_555 1_555
H22 C20 1_555 1_555
H23 C20 1_555 1_555
H24 C20 1_555 1_555
C21 H25 1_555 1_555
H26 C21 1_555 1_555
C22 C21 1_555 1_555
H27 C22 1_555 1_555
C23 C22 1_555 1_555
H28 C23 1_555 1_555
H29 C23 1_555 1_555
H30 C23 1_555 1_555
C24 H31 1_555 1_555
H32 C24 1_555 1_555
H33 C24 1_555 1_555
S1 C8 1_555 1_555
N1 C7 1_555 1_555
H34 N1 1_555 1_555
N2 C7 1_555 1_555
N3 C11 1_555 1_555
N4 C9 1_555 1_555
N5 C18 1_555 1_555
N6 C19 1_555 1_555
H35 N6 1_555 1_555
H36 N6 1_555 1_555
O1 C4 1_555 1_555
O2 S2 1_555 1_555
O3 S2 1_555 1_555
O4 S3 1_555 1_555
O5 S3 1_555 1_555
O6 S3 1_555 1_555
S2 C1 1_555 1_555
S3 C24 1_555 1_555
C5 C6 1_555 1_555
C8 N1 1_555 1_555
C10 N2 1_555 1_555
C15 N4 1_555 1_555
C16 O1 1_555 1_555
C21 N5 1_555 1_555
C22 N6 1_555 1_555
N3 N4 1_555 1_555
N5 S2 1_555 1_555

#END
