
#######################################################################
#
#                 Cambridge Crystallographic Data Centre
#                                CCDC 
#
#######################################################################
#
# If this CIF has been generated from an entry in the Cambridge 
# Structural Database, then it will include bibliographic, chemical, 
# crystal, experimental, refinement or atomic coordinate data resulting 
# from the CCDC's data processing and validation procedures.
#
#######################################################################

data_KUMHUX
_chemical_formula_moiety         'C16 H17 N3 O2 S1'
_chemical_name_systematic        
'ethyl 4-methyl-2-(1,3-thiazol-2-yl)-2,5-dihydro-1H-1,5-benzodiazepine-3-carboxylate'
_symmetry_cell_setting           monoclinic
_symmetry_space_group_name_H-M   'P 21/n'
_symmetry_Int_Tables_number      14
_space_group_name_Hall           '-P 2yn'
loop_
_symmetry_equiv_pos_site_id
_symmetry_equiv_pos_as_xyz
1 x,y,z
2 1/2-x,1/2+y,1/2-z
3 -x,-y,-z
4 1/2+x,1/2-y,1/2+z
_cell_length_a                   7.9805(7)
_cell_length_b                   23.492(2)
_cell_length_c                   9.3323(8)
_cell_angle_alpha                90
_cell_angle_beta                 112.494(2)
_cell_angle_gamma                90
_cell_volume                     1616.49
_cell_formula_units_Z            4
loop_
_atom_site_label
_atom_site_type_symbol
_atom_site_fract_x
_atom_site_fract_y
_atom_site_fract_z
N1 N 1.2038(4) 0.07888(12) 0.5292(3)
H1 H 1.2724 0.0501 0.5341
N2 N 1.2668(4) 0.19971(12) 0.5140(3)
H2 H 1.3358 0.2292 0.5322
N3 N 0.7749(5) 0.05132(14) 0.4129(5)
O1 O 0.9042(4) 0.08962(11) 0.0765(3)
O2 O 0.9098(4) 0.18312(12) 0.0458(3)
S1 S 0.807(3) 0.1569(3) 0.481(4)
C1 C 1.0479(4) 0.09166(14) 0.3867(4)
H3 H 1.0349 0.0588 0.3186
C2 C 1.0708(5) 0.14268(14) 0.2969(4)
C3 C 1.1766(5) 0.18858(15) 0.3597(4)
C4 C 1.2690(5) 0.17258(16) 0.6485(4)
C5 C 1.2386(5) 0.11471(16) 0.6573(4)
C6 C 1.2538(6) 0.09163(19) 0.7996(5)
H4 H 1.2288 0.0532 0.8055
C7 C 1.3049(7) 0.1246(2) 0.9314(6)
H5 H 1.3188 0.1083 1.0261
C8 C 1.3357(7) 0.1824(2) 0.9215(6)
H6 H 1.3698 0.2051 1.0097
C9 C 1.3155(6) 0.20588(18) 0.7812(5)
H7 H 1.3334 0.2448 0.7748
C10 C 0.8737(5) 0.09425(15) 0.4152(4)
C11 C 0.6295(6) 0.0675(2) 0.4479(6)
H8 H 0.5424 0.0413 0.4485
C12 C 0.6187(6) 0.1208(2) 0.4799(6)
H9 H 0.5232 0.1371 0.4994
C13 C 0.9578(5) 0.14204(16) 0.1313(5)
C14 C 0.7832(7) 0.0857(2) -0.0855(5)
H10 H 0.8507 0.0917 -0.1513
H11 H 0.6901 0.1148 -0.1095
C15 C 0.698(6) 0.0280(17) -0.115(5)
H12 H 0.7878 -0.0001 -0.1078
H13 H 0.6034 0.0270 -0.2167
H14 H 0.6467 0.0201 -0.0390
C16 C 1.2208(6) 0.23437(16) 0.2649(5)
H15 H 1.1600 0.2690 0.2706
H16 H 1.1811 0.2223 0.1587
H17 H 1.3494 0.2407 0.3053
S2? S 0.756(7) 0.1523(8) 0.404(11)
H18? H 0.8303 0.1074 -0.1503
H19? H 0.6641 0.1005 -0.1004
C17? C 0.770(9) 0.024(3) -0.123(8)
H20? H 0.8831 0.0106 -0.1251
H21? H 0.6749 0.0175 -0.2226
H22? H 0.7436 0.0030 -0.0454
loop_
_geom_bond_atom_site_label_1
_geom_bond_atom_site_label_2
_geom_bond_site_symmetry_1
_geom_bond_site_symmetry_2
N1 H1 1_555 1_555
N2 H2 1_555 1_555
N3 C10 1_555 1_555
O1 C13 1_555 1_555
O2 C13 1_555 1_555
S1 C10 1_555 1_555
C1 N1 1_555 1_555
H3 C1 1_555 1_555
C2 C1 1_555 1_555
C3 N2 1_555 1_555
C4 N2 1_555 1_555
C5 N1 1_555 1_555
C6 C5 1_555 1_555
H4 C6 1_555 1_555
C7 C6 1_555 1_555
H5 C7 1_555 1_555
C8 C7 1_555 1_555
H6 C8 1_555 1_555
C9 C4 1_555 1_555
H7 C9 1_555 1_555
C10 C1 1_555 1_555
C11 N3 1_555 1_555
H8 C11 1_555 1_555
C12 S1 1_555 1_555
H9 C12 1_555 1_555
C13 C2 1_555 1_555
C14 O1 1_555 1_555
H10 C14 1_555 1_555
H11 C14 1_555 1_555
C15 C14 1_555 1_555
H12 C15 1_555 1_555
H13 C15 1_555 1_555
H14 C15 1_555 1_555
C16 C3 1_555 1_555
H15 C16 1_555 1_555
H16 C16 1_555 1_555
H17 C16 1_555 1_555
C2 C3 1_555 1_555
C4 C5 1_555 1_555
C8 C9 1_555 1_555
C11 C12 1_555 1_555

#END
