
#######################################################################
#
#                 Cambridge Crystallographic Data Centre
#                                CCDC 
#
#######################################################################
#
# If this CIF has been generated from an entry in the Cambridge 
# Structural Database, then it will include bibliographic, chemical, 
# crystal, experimental, refinement or atomic coordinate data resulting 
# from the CCDC's data processing and validation procedures.
#
#######################################################################

data_KUMKEJ
_chemical_formula_moiety         'C29 H25 Br1 N2 O3 S1'
_chemical_name_systematic        
'N-((S)-((3S)-3-(4-Bromobenzyl)-2-oxo-2,3-dihydro-1H-indol-3-yl)(phenyl)methyl)-4-methylbenzenesulfonamide unknown solvate'
_symmetry_cell_setting           tetragonal
_symmetry_space_group_name_H-M   'P 43 21 2'
_symmetry_Int_Tables_number      96
_space_group_name_Hall           'P 4nw 2abw'
loop_
_symmetry_equiv_pos_site_id
_symmetry_equiv_pos_as_xyz
1 x,y,z
2 -x,-y,1/2+z
3 1/2-y,1/2+x,3/4+z
4 1/2+y,1/2-x,1/4+z
5 1/2-x,1/2+y,3/4-z
6 1/2+x,1/2-y,1/4-z
7 y,x,-z
8 -y,-x,1/2-z
_cell_length_a                   13.4440(19)
_cell_length_b                   13.4440(19)
_cell_length_c                   32.156(6)
_cell_angle_alpha                90
_cell_angle_beta                 90
_cell_angle_gamma                90
_cell_volume                     5811.91
_exptl_crystal_colour            colorless
_exptl_crystal_description       block
_cell_formula_units_Z            8
loop_
_atom_site_label
_atom_site_type_symbol
_atom_site_fract_x
_atom_site_fract_y
_atom_site_fract_z
Br1 Br 0.37592(5) 0.76814(4) 0.022171(14)
S1 S 0.70020(8) 0.11196(9) 0.05277(3)
O1 O 0.80092(19) 0.1121(2) 0.03800(7)
O2 O 0.62031(19) 0.1271(2) 0.02360(7)
O3 O 0.39154(19) 0.29052(19) 0.12166(7)
N1 N 0.6943(2) 0.1975(2) 0.08834(8)
H1 H 0.7464 0.2345 0.0941
N2 N 0.4812(2) 0.3905(2) 0.16609(8)
H2 H 0.4343 0.4039 0.1843
C1 C 0.5839(3) -0.0462(3) 0.07617(12)
H3 H 0.5341 -0.0179 0.0589
C2 C 0.5643(4) -0.1313(4) 0.09838(13)
H4 H 0.5005 -0.1614 0.0965
C3 C 0.6357(5) -0.1733(3) 0.12318(14)
C4 C 0.7288(4) -0.1284(4) 0.12500(13)
H5 H 0.7789 -0.1579 0.1418
C5 C 0.7509(4) -0.0438(3) 0.10362(13)
H6 H 0.8150 -0.0142 0.1054
C6 C 0.6764(4) -0.0021(3) 0.07908(12)
C7 C 0.6154(4) -0.2691(3) 0.14824(12)
H7 H 0.5463 -0.2900 0.1440
H8 H 0.6267 -0.2563 0.1779
H9 H 0.6604 -0.3219 0.1388
C8 C 0.59983(11) 0.21180(10) 0.11079(4)
H10 H 0.5481 0.1746 0.0948
C9 C 0.59882(11) 0.16883(10) 0.15454(4)
C10 C 0.51946(11) 0.10840(10) 0.16593(4)
H11 H 0.4683 0.0941 0.1464
C11 C 0.51495(11) 0.06888(10) 0.20583(4)
H12 H 0.4607 0.0276 0.2136
C12 C 0.58979(11) 0.08978(10) 0.23434(4)
H13 H 0.5867 0.0628 0.2616
C13 C 0.66915(11) 0.15020(10) 0.22296(4)
H14 H 0.7203 0.1645 0.2425
C14 C 0.67366(11) 0.18973(10) 0.18306(4)
H15 H 0.7279 0.2310 0.1753
C15 C 0.56841(11) 0.32712(10) 0.10899(4)
C16 C 0.63181(11) 0.39171(10) 0.13493(4)
C17 C 0.73212(11) 0.42057(10) 0.13180(4)
H16 H 0.7717 0.3977 0.1093
C18 C 0.7728(3) 0.4822(3) 0.16160(13)
H17 H 0.8402 0.5027 0.1593
C19 C 0.7171(4) 0.5134(3) 0.19402(14)
H18 H 0.7476 0.5546 0.2144
C20 C 0.6196(3) 0.4891(3) 0.19905(12)
H19 H 0.5813 0.5128 0.2218
C21 C 0.5798(3) 0.4273(3) 0.16871(12)
C22 C 0.4679(3) 0.3319(3) 0.13204(11)
C23 C 0.5561(3) 0.3582(3) 0.06363(11)
H20 H 0.6220 0.3558 0.0499
H21 H 0.5127 0.3092 0.0495
C24 C 0.5128(3) 0.4599(3) 0.05766(11)
C25 C 0.5716(3) 0.5459(3) 0.05545(12)
H22 H 0.6414 0.5406 0.0597
C26 C 0.5307(4) 0.6383(3) 0.04725(12)
H23 H 0.5712 0.6962 0.0472
C27 C 0.4327(4) 0.6451(3) 0.03932(12)
C28 C 0.3703(4) 0.5647(3) 0.04128(12)
H24 H 0.3011 0.5718 0.0361
C29 C 0.4107(3) 0.4727(3) 0.05098(11)
H25 H 0.3679 0.4168 0.0531
loop_
_geom_bond_atom_site_label_1
_geom_bond_atom_site_label_2
_geom_bond_site_symmetry_1
_geom_bond_site_symmetry_2
Br1 C27 1_555 1_555
S1 O1 1_555 1_555
O2 S1 1_555 1_555
O3 C22 1_555 1_555
N1 S1 1_555 1_555
H1 N1 1_555 1_555
N2 H2 1_555 1_555
C1 H3 1_555 1_555
C2 C1 1_555 1_555
H4 C2 1_555 1_555
C3 C2 1_555 1_555
C4 C3 1_555 1_555
H5 C4 1_555 1_555
C5 C4 1_555 1_555
H6 C5 1_555 1_555
C6 S1 1_555 1_555
C7 C3 1_555 1_555
H7 C7 1_555 1_555
H8 C7 1_555 1_555
H9 C7 1_555 1_555
C8 N1 1_555 1_555
H10 C8 1_555 1_555
C9 C8 1_555 1_555
C10 C9 1_555 1_555
H11 C10 1_555 1_555
C11 C10 1_555 1_555
H12 C11 1_555 1_555
C12 C11 1_555 1_555
H13 C12 1_555 1_555
C13 C12 1_555 1_555
H14 C13 1_555 1_555
C14 C9 1_555 1_555
H15 C14 1_555 1_555
C15 C8 1_555 1_555
C16 C15 1_555 1_555
C17 C16 1_555 1_555
H16 C17 1_555 1_555
C18 C17 1_555 1_555
H17 C18 1_555 1_555
C19 C18 1_555 1_555
H18 C19 1_555 1_555
C20 C19 1_555 1_555
H19 C20 1_555 1_555
C21 N2 1_555 1_555
C22 N2 1_555 1_555
C23 C15 1_555 1_555
H20 C23 1_555 1_555
H21 C23 1_555 1_555
C24 C23 1_555 1_555
C25 C24 1_555 1_555
H22 C25 1_555 1_555
C26 C25 1_555 1_555
H23 C26 1_555 1_555
C27 C26 1_555 1_555
C28 C27 1_555 1_555
H24 C28 1_555 1_555
C29 C24 1_555 1_555
H25 C29 1_555 1_555
C1 C6 1_555 1_555
C5 C6 1_555 1_555
C13 C14 1_555 1_555
C15 C22 1_555 1_555
C16 C21 1_555 1_555
C20 C21 1_555 1_555
C28 C29 1_555 1_555

#END
