
#######################################################################
#
#                 Cambridge Crystallographic Data Centre
#                                CCDC 
#
#######################################################################
#
# If this CIF has been generated from an entry in the Cambridge 
# Structural Database, then it will include bibliographic, chemical, 
# crystal, experimental, refinement or atomic coordinate data resulting 
# from the CCDC's data processing and validation procedures.
#
#######################################################################

data_KUNVEU
_chemical_formula_moiety         'C8 H9 N1 O4'
_chemical_name_systematic        
1-Carboxymethyl-3-hydroxy-2-methyl-4-pyridinone
_symmetry_cell_setting           monoclinic
_symmetry_space_group_name_H-M   'P 21/n'
_symmetry_Int_Tables_number      14
_space_group_name_Hall           '-P 2yn'
loop_
_symmetry_equiv_pos_site_id
_symmetry_equiv_pos_as_xyz
1 x,y,z
2 1/2-x,1/2+y,1/2-z
3 -x,-y,-z
4 1/2+x,1/2-y,1/2+z
_cell_length_a                   6.340(2)
_cell_length_b                   7.705(1)
_cell_length_c                   16.226(1)
_cell_angle_alpha                90
_cell_angle_beta                 94.74(1)
_cell_angle_gamma                90
_cell_volume                     789.924
_exptl_crystal_colour            off-white
_chemical_melting_point          258-260deg.C
_cell_formula_units_Z            4
loop_
_atom_site_label
_atom_site_type_symbol
_atom_site_fract_x
_atom_site_fract_y
_atom_site_fract_z
O1 O 0.2550(1) 0.1339(1) 0.55699(5)
O2 O 0.6127(2) 0.2876(1) 0.62640(5)
O3 O 0.6549(1) -0.0052(1) 0.28805(5)
O4 O 0.4348(2) 0.0517(1) 0.17817(5)
N1 N 0.4990(1) 0.2696(1) 0.37577(5)
C1 C 0.1619(2) 0.1120(2) 0.38538(8)
C2 C 0.3566(2) 0.1962(1) 0.42452(6)
C3 C 0.3988(2) 0.2029(1) 0.50945(6)
C4 C 0.5850(2) 0.2822(2) 0.54494(6)
C5 C 0.7262(2) 0.3505(2) 0.49210(7)
C6 C 0.6794(2) 0.3435(2) 0.40863(7)
C7 C 0.4613(2) 0.2614(2) 0.28500(7)
C8 C 0.5226(2) 0.0868(2) 0.24938(6)
H1 H 0.318(3) 0.117(2) 0.604(1)
H2 H 0.754(3) 0.353(3) 0.646(1)
H3 H 0.196(2) 0.020(2) 0.349(1)
H4 H 0.074(3) 0.199(2) 0.350(1)
H5 H 0.083(3) 0.069(2) 0.427(1)
H6 H 0.856(2) 0.404(2) 0.5134(8)
H7 H 0.764(2) 0.390(2) 0.3698(8)
H8 H 0.548(2) 0.347(2) 0.2627(8)
H9 H 0.312(2) 0.289(2) 0.2677(8)
loop_
_geom_bond_atom_site_label_1
_geom_bond_atom_site_label_2
_geom_bond_site_symmetry_1
_geom_bond_site_symmetry_2
O1 C3 1_555 1_555
O2 C4 1_555 1_555
O3 C8 1_555 1_555
O4 C8 1_555 1_555
N1 C2 1_555 1_555
C1 C2 1_555 1_555
C2 C3 1_555 1_555
C3 C4 1_555 1_555
C4 C5 1_555 1_555
C5 C6 1_555 1_555
C6 N1 1_555 1_555
C7 N1 1_555 1_555
C8 C7 1_555 1_555
H1 O1 1_555 1_555
H2 O2 1_555 1_555
H3 C1 1_555 1_555
H4 C1 1_555 1_555
H5 C1 1_555 1_555
H6 C5 1_555 1_555
H7 C6 1_555 1_555
H8 C7 1_555 1_555
H9 C7 1_555 1_555

#END
