
#######################################################################
#
#                 Cambridge Crystallographic Data Centre
#                                CCDC 
#
#######################################################################
#
# If this CIF has been generated from an entry in the Cambridge 
# Structural Database, then it will include bibliographic, chemical, 
# crystal, experimental, refinement or atomic coordinate data resulting 
# from the CCDC's data processing and validation procedures.
#
#######################################################################

data_KUNYUP
_chemical_formula_moiety         'C15 H9 F3 N4 O2,C2 H6 O1 S1'
_chemical_name_systematic        
'6-nitro-N-(3-(trifluoromethyl)phenyl)quinazolin-4-amine dimethyl sulfoxide solvate'
_symmetry_cell_setting           monoclinic
_symmetry_space_group_name_H-M   'P 21/c'
_symmetry_Int_Tables_number      14
_space_group_name_Hall           '-P 2ybc'
loop_
_symmetry_equiv_pos_site_id
_symmetry_equiv_pos_as_xyz
1 x,y,z
2 -x,1/2+y,1/2-z
3 -x,-y,-z
4 x,1/2-y,1/2+z
_cell_length_a                   9.5559(8)
_cell_length_b                   11.8212(9)
_cell_length_c                   16.0968(14)
_cell_angle_alpha                90
_cell_angle_beta                 96.431(2)
_cell_angle_gamma                90
_cell_volume                     1806.89
_exptl_crystal_colour            orange
_exptl_crystal_description       block
_cell_formula_units_Z            4
loop_
_atom_site_label
_atom_site_type_symbol
_atom_site_fract_x
_atom_site_fract_y
_atom_site_fract_z
C1 C 0.6299(5) 0.9243(5) 0.1025(4)
H1 H 0.5536 0.8866 0.1250
H2 H 0.6007 0.9465 0.0458
H3 H 0.6563 0.9903 0.1354
S1 S 0.77707(9) 0.83079(7) 0.10493(5)
C2 C 0.8853(4) 0.9249(3) 0.0611(2)
H4 H 0.9695 0.8868 0.0493
H5 H 0.9095 0.9858 0.0995
H6 H 0.8372 0.9545 0.0102
O1 O 0.7357(2) 0.74435(15) 0.03748(14)
C4 C 0.3627(2) 0.53133(18) 0.77473(12)
C5 C 0.2858(3) 0.4519(2) 0.71449(15)
F1 F 0.258(2) 0.3584(13) 0.7487(8)
F2 F 0.1669(15) 0.4949(12) 0.6784(10)
F3 F 0.3588(16) 0.4337(12) 0.6512(9)
C6 C 1.0050(2) 0.48986(19) 1.13751(13)
C7 C 1.0532(2) 0.3811(2) 1.15710(15)
H13 H 1.1293 0.3694 1.1975
C8 C 0.9876(3) 0.2927(2) 1.11631(15)
H14 H 1.0189 0.2196 1.1289
C9 C 0.8720(2) 0.30963(18) 1.05483(13)
C10 C 0.8242(2) 0.42060(16) 1.03635(11)
C11 C 0.8934(2) 0.51164(17) 1.07904(12)
H15 H 0.8639 0.5856 1.0677
C12 C 0.7058(2) 0.43054(16) 0.97197(11)
C13 C 0.7076(3) 0.23923(19) 0.95796(15)
H16 H 0.6667 0.1766 0.9299
C14 C 0.5431(2) 0.56421(16) 0.88781(11)
C15 C 0.5108(2) 0.67919(18) 0.88228(14)
H17 H 0.5612 0.7301 0.9181
C16 C 0.4049(3) 0.7180(2) 0.82411(15)
H18 H 0.3844 0.7949 0.8215
C17 C 0.3292(2) 0.6454(2) 0.77011(14)
H19 H 0.2573 0.6719 0.7313
C18 C 0.4680(2) 0.49005(17) 0.83287(12)
H20 H 0.4883 0.4131 0.8351
N1 N 1.0772(2) 0.58556(19) 1.18179(12)
N2 N 0.8110(2) 0.21643(15) 1.01507(12)
N3 N 0.65062(19) 0.33947(14) 0.93320(11)
N4 N 0.65236(18) 0.53366(15) 0.95028(11)
O2 O 1.1684(2) 0.56521(19) 1.23895(13)
O3 O 1.0459(2) 0.68091(16) 1.15932(13)
H21 H 0.689(2) 0.589(2) 0.9774(14)
C3? C 0.6604(15) 0.8698(15) 0.1481(7)
H7? H 0.5657 0.8431 0.1488
H8? H 0.6669 0.9466 0.1675
H9? H 0.7235 0.8233 0.1839
S2? S 0.7062(3) 0.8635(2) 0.04615(17)
H10? H 0.9407 0.8980 0.0190
H11? H 0.9296 0.9036 0.1154
H12? H 0.8779 1.0058 0.0578
F4? F 0.2999(16) 0.3401(9) 0.7321(10)
F5? F 0.1499(10) 0.4673(15) 0.7019(10)
F6? F 0.330(2) 0.4519(13) 0.6394(7)
loop_
_geom_bond_atom_site_label_1
_geom_bond_atom_site_label_2
_geom_bond_site_symmetry_1
_geom_bond_site_symmetry_2
C1 H1 1_555 1_555
H2 C1 1_555 1_555
H3 C1 1_555 1_555
S1 C1 1_555 1_555
C2 S1 1_555 1_555
H4 C2 1_555 1_555
H5 C2 1_555 1_555
H6 C2 1_555 1_555
O1 S1 1_555 1_555
C4 C5 1_555 1_555
C5 F1 1_555 1_555
F2 C5 1_555 1_555
F3 C5 1_555 1_555
C6 C7 1_555 1_555
C7 H13 1_555 1_555
C8 C7 1_555 1_555
H14 C8 1_555 1_555
C9 C8 1_555 1_555
C10 C9 1_555 1_555
C11 C6 1_555 1_555
H15 C11 1_555 1_555
C12 C10 1_555 1_555
C13 H16 1_555 1_555
C14 C15 1_555 1_555
C15 H17 1_555 1_555
C16 C15 1_555 1_555
H18 C16 1_555 1_555
C17 C4 1_555 1_555
H19 C17 1_555 1_555
C18 C4 1_555 1_555
H20 C18 1_555 1_555
N1 C6 1_555 1_555
N2 C9 1_555 1_555
N3 C12 1_555 1_555
N4 C12 1_555 1_555
O2 N1 1_555 1_555
O3 N1 1_555 1_555
H21 N4 1_555 1_555
C10 C11 1_555 1_555
C13 N2 1_555 1_555
C13 N3 1_555 1_555
C14 C18 1_555 1_555
C14 N4 1_555 1_555
C16 C17 1_555 1_555

#END
