
#######################################################################
#
#                 Cambridge Crystallographic Data Centre
#                                CCDC 
#
#######################################################################
#
# If this CIF has been generated from an entry in the Cambridge 
# Structural Database, then it will include bibliographic, chemical, 
# crystal, experimental, refinement or atomic coordinate data resulting 
# from the CCDC's data processing and validation procedures.
#
#######################################################################

data_KUPDAC
_chemical_formula_moiety         'C44 H50'
_chemical_name_systematic        
5,10-bis(3,5-Di-t-butylphenyl)indeno[2,1-a]indene
_symmetry_cell_setting           triclinic
_symmetry_space_group_name_H-M   'P -1'
_symmetry_Int_Tables_number      2
_space_group_name_Hall           '-P 1'
loop_
_symmetry_equiv_pos_site_id
_symmetry_equiv_pos_as_xyz
1 x,y,z
2 -x,-y,-z
_cell_length_a                   10.513(2)
_cell_length_b                   12.269(3)
_cell_length_c                   16.013(3)
_cell_angle_alpha                95.32(3)
_cell_angle_beta                 102.90(3)
_cell_angle_gamma                113.70(3)
_cell_volume                     1804.57
_exptl_crystal_colour            red
_exptl_crystal_description       Plate
_cell_formula_units_Z            2
loop_
_atom_site_label
_atom_site_type_symbol
_atom_site_fract_x
_atom_site_fract_y
_atom_site_fract_z
C1 C 0.3695(3) 0.6261(2) 0.15530(17)
C2 C 0.2901(3) 0.5221(2) 0.08999(16)
H1 H 0.2578 0.4470 0.1063
C3 C 0.2567(3) 0.5244(2) 0.00191(17)
C4 C 0.3137(6) 0.6200(6) -0.0303(4)
H2 H 0.2981 0.6142 -0.0904
C5 C 0.3990(5) 0.7315(4) 0.0276(3)
C6 C 0.4293(6) 0.7365(5) 0.1172(4)
H3 H 0.4890 0.8112 0.1550
C7 C 0.4605(4) 0.8452(4) -0.0047(2)
C8 C 0.4203(13) 1.2142(10) 0.1167(7)
H4 H 0.4530 1.2950 0.1111
C9 C 0.3330(15) 1.1693(12) 0.1718(9)
H5 H 0.3066 1.2209 0.2026
C10 C 0.2852(16) 1.0489(10) 0.1809(9)
H6 H 0.2263 1.0210 0.2172
C11 C 0.3238(12) 0.9689(11) 0.1367(6)
H7 H 0.2940 0.8889 0.1440
C12 C 0.4082(8) 1.0135(7) 0.0816(4)
C13 C 0.4068(4) 0.6199(3) 0.25169(19)
C14 C 0.5436(13) 0.7115(14) 0.3080(6)
H8 H 0.6195 0.7171 0.2822
H9 H 0.5625 0.6898 0.3640
H10 H 0.5398 0.7886 0.3153
C15 C 0.2777(11) 0.5974(8) 0.2880(6)
H11 H 0.2534 0.6647 0.2852
H12 H 0.3026 0.5892 0.3478
H13 H 0.1961 0.5242 0.2539
C16 C 0.4245(15) 0.4980(11) 0.2605(5)
H14 H 0.3324 0.4291 0.2350
H15 H 0.4595 0.4980 0.3212
H16 H 0.4924 0.4937 0.2305
C17 C 0.1690(4) 0.4094(3) -0.0693(2)
C18 C 0.0964(7) 0.2871(4) -0.0220(4)
H17 H 0.1729 0.2713 0.0113
H18 H 0.0305 0.2169 -0.0669
H19 H 0.0454 0.3049 0.0160
C19 C 0.0306(6) 0.4082(5) -0.1258(4)
H20 H -0.0218 0.4261 -0.0888
H21 H -0.0286 0.3293 -0.1630
H22 H 0.0552 0.4683 -0.1611
C20 C 0.2451(9) 0.3659(8) -0.1206(5)
H23 H 0.2838 0.4235 -0.1555
H24 H 0.1785 0.2887 -0.1581
H25 H 0.3228 0.3572 -0.0817
C21 C 0.4566(8) 1.1349(7) 0.0710(5)
C22 C 0.4615(7) 0.9545(5) 0.0225(4)
C1A C 0.6305(3) 1.3739(2) -0.15530(17)
C2A C 0.7099(3) 1.4779(2) -0.08999(16)
H1A H 0.7422 1.5530 -0.1063
C3A C 0.7433(3) 1.4756(2) -0.00191(17)
C4A C 0.6863(6) 1.3800(6) 0.0303(4)
H2A H 0.7019 1.3858 0.0904
C5A C 0.6010(5) 1.2685(4) -0.0276(3)
C6A C 0.5707(6) 1.2635(5) -0.1172(4)
H3A H 0.5110 1.1888 -0.1550
C7A C 0.5395(4) 1.1548(4) 0.0047(2)
C8A C 0.5797(13) 0.7858(10) -0.1167(7)
H4A H 0.5470 0.7050 -0.1111
C9A C 0.6670(15) 0.8307(12) -0.1718(9)
H5A H 0.6934 0.7791 -0.2026
C10A C 0.7148(16) 0.9511(10) -0.1809(9)
H6A H 0.7737 0.9790 -0.2172
C11A C 0.6762(12) 1.0311(11) -0.1367(6)
H7A H 0.7060 1.1111 -0.1440
C12A C 0.5918(8) 0.9865(7) -0.0816(4)
C13A C 0.5932(4) 1.3801(3) -0.25169(19)
C14A C 0.4564(13) 1.2885(14) -0.3080(6)
H8A H 0.3805 1.2829 -0.2822
H9A H 0.4375 1.3102 -0.3640
H10A H 0.4602 1.2114 -0.3153
C15A C 0.7223(11) 1.4026(8) -0.2880(6)
H11A H 0.7466 1.3353 -0.2852
H12A H 0.6974 1.4108 -0.3478
H13A H 0.8039 1.4758 -0.2539
C16A C 0.5755(15) 1.5020(11) -0.2605(5)
H14A H 0.6676 1.5709 -0.2350
H15A H 0.5405 1.5020 -0.3212
H16A H 0.5076 1.5063 -0.2305
C17A C 0.8310(4) 1.5906(3) 0.0693(2)
C18A C 0.9036(7) 1.7129(4) 0.0220(4)
H17A H 0.8271 1.7287 -0.0113
H18A H 0.9695 1.7831 0.0669
H19A H 0.9546 1.6951 -0.0160
C19A C 0.9694(6) 1.5918(5) 0.1258(4)
H20A H 1.0218 1.5739 0.0888
H21A H 1.0286 1.6707 0.1630
H22A H 0.9448 1.5317 0.1611
C20A C 0.7549(9) 1.6341(8) 0.1206(5)
H23A H 0.7162 1.5765 0.1555
H24A H 0.8215 1.7113 0.1581
H25A H 0.6772 1.6428 0.0817
C21A C 0.5434(8) 0.8651(7) -0.0710(5)
C22A C 0.5385(7) 1.0455(5) -0.0225(4)
C40 C 0.1456(3) 0.0324(2) 0.39189(15)
C41 C 0.0342(3) 0.0237(2) 0.32273(15)
H50 H -0.0346 -0.0532 0.2917
C42 C 0.0198(3) 0.1253(2) 0.29705(16)
C43 C 0.1060(5) 0.2421(4) 0.3464(3)
H51 H 0.0889 0.3077 0.3319
C44 C 0.2185(4) 0.2575(3) 0.4179(2)
C45 C 0.2375(4) 0.1561(4) 0.4398(3)
H52 H 0.3138 0.1689 0.4881
C46 C 0.3238(4) 0.3815(3) 0.4668(2)
C47 C 0.1643(9) 0.4555(11) 0.5329(8)
H53 H 0.0824 0.3813 0.5129
C48 C 0.2892(8) 0.4699(6) 0.5158(5)
C49 C 0.4686(5) 0.4382(5) 0.4752(4)
C50 C 0.5816(7) 0.4191(7) 0.4485(4)
C51 C 0.5841(12) 0.3235(10) 0.3968(10)
H54 H 0.5000 0.2524 0.3706
C52 C 0.7202(13) 0.3377(11) 0.3849(7)
H55 H 0.7271 0.2731 0.3541
C53 C 0.1604(14) 0.5548(9) 0.5814(7)
H56 H 0.0731 0.5466 0.5908
C54 C 0.1625(3) -0.0777(3) 0.42015(17)
C55 C 0.3226(5) -0.0510(6) 0.4254(5)
H57 H 0.3378 -0.0427 0.3690
H58 H 0.3414 -0.1169 0.4434
H59 H 0.3870 0.0230 0.4672
C56 C 0.1386(12) -0.0874(9) 0.5097(3)
H60 H 0.2005 -0.0113 0.5499
H61 H 0.1610 -0.1505 0.5302
H62 H 0.0392 -0.1064 0.5057
C57 C 0.0593(8) -0.1961(7) 0.3569(5)
H63 H -0.0387 -0.2110 0.3538
H64 H 0.0774 -0.2614 0.3767
H65 H 0.0735 -0.1912 0.2999
C58 C -0.1040(3) 0.1091(3) 0.21876(18)
C59 C -0.2475(4) 0.0458(4) 0.2399(3)
H66 H -0.2605 -0.0336 0.2498
H67 H -0.3258 0.0381 0.1918
H68 H -0.2465 0.0929 0.2916
C60 C -0.1024(5) 0.0355(4) 0.1384(2)
H69 H -0.0094 0.0736 0.1280
H70 H -0.1763 0.0312 0.0888
H71 H -0.1205 -0.0451 0.1473
C61 C -0.0962(5) 0.2299(4) 0.1965(3)
H72 H -0.1009 0.2777 0.2457
H73 H -0.1760 0.2143 0.1467
H74 H -0.0066 0.2733 0.1833
C40A C 0.8544(3) 0.9676(2) 0.60811(15)
C41A C 0.9658(3) 0.9763(2) 0.67727(15)
H50A H 1.0346 1.0532 0.7083
C42A C 0.9802(3) 0.8747(2) 0.70295(16)
C43A C 0.8940(5) 0.7579(4) 0.6536(3)
H51A H 0.9111 0.6923 0.6681
C44A C 0.7815(4) 0.7425(3) 0.5821(2)
C45A C 0.7625(4) 0.8439(4) 0.5602(3)
H52A H 0.6862 0.8311 0.5119
C46A C 0.6762(4) 0.6185(3) 0.5332(2)
C47A C 0.8357(9) 0.5445(11) 0.4671(8)
H53A H 0.9176 0.6187 0.4871
C48A C 0.7108(8) 0.5301(6) 0.4842(5)
C49A C 0.5314(5) 0.5618(5) 0.5248(4)
C50A C 0.4184(7) 0.5809(7) 0.5515(4)
C51A C 0.4159(12) 0.6765(10) 0.6032(10)
H54A H 0.5000 0.7476 0.6294
C52A C 0.2798(13) 0.6623(11) 0.6151(7)
H55A H 0.2729 0.7269 0.6459
C53A C 0.8396(14) 0.4452(9) 0.4186(7)
H56A H 0.9269 0.4534 0.4092
C54A C 0.8375(3) 1.0777(3) 0.57985(17)
C55A C 0.6774(5) 1.0510(6) 0.5746(5)
H57A H 0.6622 1.0427 0.6310
H58A H 0.6586 1.1169 0.5566
H59A H 0.6130 0.9770 0.5328
C56A C 0.8614(12) 1.0874(9) 0.4903(3)
H60A H 0.7995 1.0113 0.4501
H61A H 0.8390 1.1505 0.4698
H62A H 0.9608 1.1064 0.4943
C57A C 0.9407(8) 1.1961(7) 0.6431(5)
H63A H 1.0387 1.2110 0.6462
H64A H 0.9226 1.2614 0.6233
H65A H 0.9265 1.1912 0.7001
C58A C 1.1040(3) 0.8909(3) 0.78124(18)
C59A C 1.2475(4) 0.9542(4) 0.7601(3)
H66A H 1.2605 1.0336 0.7502
H67A H 1.3258 0.9619 0.8082
H68A H 1.2465 0.9071 0.7084
C60A C 1.1024(5) 0.9645(4) 0.8616(2)
H69A H 1.0094 0.9264 0.8720
H70A H 1.1763 0.9688 0.9112
H71A H 1.1205 1.0451 0.8527
C61A C 1.0962(5) 0.7701(4) 0.8035(3)
H72A H 1.1009 0.7223 0.7543
H73A H 1.1760 0.7857 0.8533
H74A H 1.0066 0.7267 0.8167
C23? C 0.2986(9) 0.6599(7) -0.0074(5)
H26? H 0.2787 0.6761 -0.0632
C24? C 0.3647(7) 0.7575(5) 0.0645(5)
C25? C 0.3935(8) 0.7354(7) 0.1479(5)
H27? H 0.4290 0.7974 0.1969
C26? C 0.1624(13) 0.4669(8) -0.1575(5)
H28? H 0.1059 0.5120 -0.1585
H29? H 0.1186 0.4024 -0.2083
H30? H 0.2589 0.5201 -0.1574
C27? C 0.2837(13) 0.3637(13) -0.0752(8)
H31? H 0.3666 0.4279 -0.0838
H32? H 0.2437 0.2959 -0.1235
H33? H 0.3126 0.3387 -0.0219
C28? C 0.0249(10) 0.3434(10) -0.0647(8)
H34? H 0.0275 0.3107 -0.0125
H35? H -0.0289 0.2782 -0.1149
H36? H -0.0210 0.3970 -0.0635
C29? C 0.2807(13) 0.5283(12) 0.2733(8)
H37? H 0.2011 0.5498 0.2603
H38? H 0.3073 0.5268 0.3344
H39? H 0.2525 0.4495 0.2392
C30? C 0.5343(16) 0.5878(19) 0.2719(8)
H40? H 0.5139 0.5172 0.2302
H41? H 0.5499 0.5712 0.3298
H42? H 0.6197 0.6548 0.2685
C31? C 0.4551(18) 0.7525(7) 0.3018(6)
H43? H 0.5409 0.8070 0.2894
H44? H 0.4750 0.7547 0.3636
H45? H 0.3789 0.7768 0.2832
C32? C 0.4094(6) 0.8826(5) 0.0507(3)
C33? C 0.4859(9) 0.9360(8) -0.0047(5)
C34? C 0.3832(11) 0.9764(9) 0.0984(6)
C35? C 0.4443(11) 1.0851(9) 0.0701(7)
C36? C 0.4332(17) 1.1894(11) 0.1022(10)
H46? H 0.4722 1.2603 0.0813
C37? C 0.362(2) 1.1846(16) 0.1669(13)
H47? H 0.3566 1.2540 0.1913
C38? C 0.299(2) 1.0767(12) 0.1947(12)
H48? H 0.2509 1.0741 0.2375
C39? C 0.3062(17) 0.9725(16) 0.1588(9)
H49? H 0.2591 0.8995 0.1756
C62? C 0.2778(9) 0.1264(7) 0.4272(6)
H75? H 0.3574 0.1205 0.4621
C63? C 0.2787(10) 0.2330(7) 0.4042(5)
C64? C 0.1578(9) 0.2263(8) 0.3419(7)
H76? H 0.1681 0.3001 0.3266
C65? C 0.4114(9) 0.3471(7) 0.4431(5)
C66? C 0.4256(14) 0.4536(10) 0.4893(8)
C67? C 0.5638(18) 0.3707(15) 0.4347(11)
C68? C 0.598(3) 0.302(3) 0.388(2)
H77? H 0.5388 0.2187 0.3705
C69? C 0.726(3) 0.355(3) 0.3658(19)
H78? H 0.7425 0.3110 0.3221
C70? C 0.3418(19) 0.5054(17) 0.5243(11)
C71? C 0.202(2) 0.463(3) 0.5326(19)
H79? H 0.1297 0.3899 0.4974
C72? C 0.169(3) 0.529(2) 0.5937(17)
H80? H 0.0811 0.4966 0.6064
C73? C 0.194(3) -0.067(3) 0.5190(7)
H81? H 0.2946 -0.0155 0.5467
H82? H 0.1693 -0.1461 0.5326
H83? H 0.1364 -0.0324 0.5399
C74? C 0.0175(19) -0.1920(17) 0.376(2)
H84? H -0.0558 -0.1888 0.4015
H85? H 0.0302 -0.2637 0.3854
H86? H -0.0115 -0.1944 0.3146
C75? C 0.2648(18) -0.1257(15) 0.3907(13)
H87? H 0.2366 -0.1471 0.3279
H88? H 0.2583 -0.1961 0.4145
H89? H 0.3628 -0.0635 0.4114
loop_
_geom_bond_atom_site_label_1
_geom_bond_atom_site_label_2
_geom_bond_site_symmetry_1
_geom_bond_site_symmetry_2
C1 C2 1_555 1_555
C2 H1 1_555 1_555
C3 C2 1_555 1_555
C4 C3 1_555 1_555
H2 C4 1_555 1_555
C5 C4 1_555 1_555
C6 C1 1_555 1_555
H3 C6 1_555 1_555
C7 C5 1_555 1_555
C8 H4 1_555 1_555
C9 C8 1_555 1_555
H5 C9 1_555 1_555
C10 C9 1_555 1_555
H6 C10 1_555 1_555
C11 C10 1_555 1_555
H7 C11 1_555 1_555
C12 C11 1_555 1_555
C13 C1 1_555 1_555
C14 C13 1_555 1_555
H8 C14 1_555 1_555
H9 C14 1_555 1_555
H10 C14 1_555 1_555
C15 C13 1_555 1_555
H11 C15 1_555 1_555
H12 C15 1_555 1_555
H13 C15 1_555 1_555
C16 C13 1_555 1_555
H14 C16 1_555 1_555
H15 C16 1_555 1_555
H16 C16 1_555 1_555
C17 C3 1_555 1_555
C18 C17 1_555 1_555
H17 C18 1_555 1_555
H18 C18 1_555 1_555
H19 C18 1_555 1_555
C19 C17 1_555 1_555
H20 C19 1_555 1_555
H21 C19 1_555 1_555
H22 C19 1_555 1_555
C20 C17 1_555 1_555
H23 C20 1_555 1_555
H24 C20 1_555 1_555
H25 C20 1_555 1_555
C21 C8 1_555 1_555
C22 C7 1_555 1_555
C40 C41 1_555 1_555
C41 H50 1_555 1_555
C42 C41 1_555 1_555
C43 C42 1_555 1_555
H51 C43 1_555 1_555
C44 C43 1_555 1_555
C45 C40 1_555 1_555
H52 C45 1_555 1_555
C46 C44 1_555 1_555
C47 H53 1_555 1_555
C48 C46 1_555 1_555
C49 C46 1_555 1_555
C50 C49 1_555 1_555
C51 C50 1_555 1_555
H54 C51 1_555 1_555
C52 C51 1_555 1_555
H55 C52 1_555 1_555
C53 C47 1_555 1_555
H56 C53 1_555 1_555
C54 C40 1_555 1_555
C55 C54 1_555 1_555
H57 C55 1_555 1_555
H58 C55 1_555 1_555
H59 C55 1_555 1_555
C56 C54 1_555 1_555
H60 C56 1_555 1_555
H61 C56 1_555 1_555
H62 C56 1_555 1_555
C57 C54 1_555 1_555
H63 C57 1_555 1_555
H64 C57 1_555 1_555
H65 C57 1_555 1_555
C58 C42 1_555 1_555
C59 C58 1_555 1_555
H66 C59 1_555 1_555
H67 C59 1_555 1_555
H68 C59 1_555 1_555
C60 C58 1_555 1_555
H69 C60 1_555 1_555
H70 C60 1_555 1_555
H71 C60 1_555 1_555
C61 C58 1_555 1_555
H72 C61 1_555 1_555
H73 C61 1_555 1_555
H74 C61 1_555 1_555
C1A C2A 1_555 1_555
C2A H1A 1_555 1_555
C3A C2A 1_555 1_555
C4A C3A 1_555 1_555
H2A C4A 1_555 1_555
C5A C4A 1_555 1_555
C6A C1A 1_555 1_555
H3A C6A 1_555 1_555
C7A C21 1_555 1_555
C8A H4A 1_555 1_555
C9A C8A 1_555 1_555
H5A C9A 1_555 1_555
C10A C9A 1_555 1_555
H6A C10A 1_555 1_555
C11A C10A 1_555 1_555
H7A C11A 1_555 1_555
C12A C11A 1_555 1_555
C13A C1A 1_555 1_555
C14A C13A 1_555 1_555
H8A C14A 1_555 1_555
H9A C14A 1_555 1_555
H10A C14A 1_555 1_555
C15A C13A 1_555 1_555
H11A C15A 1_555 1_555
H12A C15A 1_555 1_555
H13A C15A 1_555 1_555
C16A C13A 1_555 1_555
H14A C16A 1_555 1_555
H15A C16A 1_555 1_555
H16A C16A 1_555 1_555
C17A C3A 1_555 1_555
C18A C17A 1_555 1_555
H17A C18A 1_555 1_555
H18A C18A 1_555 1_555
H19A C18A 1_555 1_555
C19A C17A 1_555 1_555
H20A C19A 1_555 1_555
H21A C19A 1_555 1_555
H22A C19A 1_555 1_555
C20A C17A 1_555 1_555
H23A C20A 1_555 1_555
H24A C20A 1_555 1_555
H25A C20A 1_555 1_555
C21A C7 1_555 1_555
C22A C22 1_555 1_555
C40A C41A 1_555 1_555
C41A H50A 1_555 1_555
C42A C41A 1_555 1_555
C43A C42A 1_555 1_555
H51A C43A 1_555 1_555
C44A C43A 1_555 1_555
C45A C40A 1_555 1_555
H52A C45A 1_555 1_555
C46A C44A 1_555 1_555
C47A H53A 1_555 1_555
C48A C50 1_555 1_555
C49A C49 1_555 1_555
C50A C48 1_555 1_555
C51A C50A 1_555 1_555
H54A C51A 1_555 1_555
C52A C53 1_555 1_555
H55A C52A 1_555 1_555
C53A C52 1_555 1_555
H56A C53A 1_555 1_555
C54A C40A 1_555 1_555
C55A C54A 1_555 1_555
H57A C55A 1_555 1_555
H58A C55A 1_555 1_555
H59A C55A 1_555 1_555
C56A C54A 1_555 1_555
H60A C56A 1_555 1_555
H61A C56A 1_555 1_555
H62A C56A 1_555 1_555
C57A C54A 1_555 1_555
H63A C57A 1_555 1_555
H64A C57A 1_555 1_555
H65A C57A 1_555 1_555
C58A C42A 1_555 1_555
C59A C58A 1_555 1_555
H66A C59A 1_555 1_555
H67A C59A 1_555 1_555
H68A C59A 1_555 1_555
C60A C58A 1_555 1_555
H69A C60A 1_555 1_555
H70A C60A 1_555 1_555
H71A C60A 1_555 1_555
C61A C58A 1_555 1_555
H72A C61A 1_555 1_555
H73A C61A 1_555 1_555
H74A C61A 1_555 1_555
C5 C6 1_555 1_555
C12 C21 1_555 1_555
C12 C22 1_555 1_555
C44 C45 1_555 1_555
C47 C48 1_555 1_555
C5A C6A 1_555 1_555
C5A C7A 1_555 1_555
C7A C22A 1_555 1_555
C8A C21A 1_555 1_555
C12A C21A 1_555 1_555
C12A C22A 1_555 1_555
C44A C45A 1_555 1_555
C46A C48A 1_555 1_555
C46A C49A 1_555 1_555
C47A C48A 1_555 1_555
C47A C53A 1_555 1_555
C49A C50A 1_555 1_555
C51A C52A 1_555 1_555

#END
