
#######################################################################
#
#                 Cambridge Crystallographic Data Centre
#                                CCDC 
#
#######################################################################
#
# If this CIF has been generated from an entry in the Cambridge 
# Structural Database, then it will include bibliographic, chemical, 
# crystal, experimental, refinement or atomic coordinate data resulting 
# from the CCDC's data processing and validation procedures.
#
#######################################################################

data_KUPLOY
_chemical_formula_moiety         'C23 H17 I2 N1 O2 S2'
_chemical_name_systematic        
6,10-diiodo-2,3-dimethoxy-8-(4-methylphenyl)-8H-bisthieno[2,3-a:3',2'-d][3]benzazepine
_symmetry_cell_setting           orthorhombic
_symmetry_space_group_name_H-M   'P n a 21'
_symmetry_Int_Tables_number      33
_space_group_name_Hall           'P 2c -2n'
loop_
_symmetry_equiv_pos_site_id
_symmetry_equiv_pos_as_xyz
1 x,y,z
2 -x,-y,1/2+z
3 1/2+x,1/2-y,z
4 1/2-x,1/2+y,1/2+z
_cell_length_a                   8.6280(3)
_cell_length_b                   14.8751(5)
_cell_length_c                   17.4444(6)
_cell_angle_alpha                90
_cell_angle_beta                 90
_cell_angle_gamma                90
_cell_volume                     2238.86
_exptl_crystal_colour            yellow
_exptl_crystal_description       block
_cell_formula_units_Z            4
loop_
_atom_site_label
_atom_site_type_symbol
_atom_site_fract_x
_atom_site_fract_y
_atom_site_fract_z
S1 S 0.99771(7) 0.69151(4) 0.34878(4)
S2 S 0.59073(7) 0.36797(4) 0.35779(3)
I1 I 0.914886(18) 0.874844(9) 0.254117(11)
C1 C 0.9158(3) 0.73620(16) 0.26722(16)
C2 C 0.8589(3) 0.67204(16) 0.21865(15)
H1 H 0.8090 0.6842 0.1712
C3 C 0.8850(3) 0.58382(14) 0.24924(18)
C4 C 0.9574(3) 0.58268(16) 0.31888(14)
C5 C 0.9922(3) 0.50510(17) 0.36811(13)
C6 C 1.1229(3) 0.50854(17) 0.41622(15)
H2 H 1.1901 0.5590 0.4136
C7 C 1.1552(3) 0.44012(18) 0.46706(15)
C8 C 1.0547(3) 0.36589(17) 0.47227(15)
C9 C 0.9273(3) 0.36103(17) 0.42467(14)
H3 H 0.8611 0.3101 0.4275
C10 C 0.8932(3) 0.43039(17) 0.37164(14)
C11 C 0.7551(3) 0.42190(16) 0.32408(14)
C12 C 0.7318(2) 0.45044(14) 0.24978(17)
C13 C 0.5839(3) 0.42539(17) 0.21933(14)
H4 H 0.5508 0.4385 0.1686
C14 C 0.4964(3) 0.38067(15) 0.27165(12)
I2 I 0.270425(15) 0.335722(9) 0.259096(12)
O1 O 1.2802(2) 0.43772(13) 0.51450(12)
C15 C 1.3849(3) 0.51118(19) 0.50969(16)
H5 H 1.4203 0.5180 0.4566
H6 H 1.4742 0.4999 0.5430
H7 H 1.3325 0.5664 0.5261
O2 O 1.0933(2) 0.30231(13) 0.52544(11)
N1 N 0.8416(2) 0.50373(14) 0.20953(12)
C16 C 0.9767(3) 0.23699(19) 0.54333(15)
H8 H 0.8803 0.2677 0.5573
H9 H 1.0117 0.1998 0.5864
H10 H 0.9584 0.1987 0.4985
C17 C 0.9454(3) 0.46569(17) 0.15625(13)
C18 C 1.0672(3) 0.51696(17) 0.12630(15)
H11 H 1.0791 0.5777 0.1419
C19 C 1.1704(3) 0.48048(18) 0.07431(15)
H12 H 1.2519 0.5169 0.0549
C20 C 1.1580(3) 0.39180(19) 0.04954(15)
C21 C 1.0349(3) 0.34143(18) 0.07921(17)
H13 H 1.0226 0.2808 0.0633
C22 C 0.9302(3) 0.37744(17) 0.13125(16)
H14 H 0.8475 0.3414 0.1499
C23 C 1.2774(3) 0.3515(2) -0.00370(18)
H15 H 1.2898 0.3903 -0.0487
H16 H 1.2431 0.2917 -0.0201
H17 H 1.3768 0.3464 0.0232
loop_
_geom_bond_atom_site_label_1
_geom_bond_atom_site_label_2
_geom_bond_site_symmetry_1
_geom_bond_site_symmetry_2
S1 C1 1_555 1_555
S2 C11 1_555 1_555
I1 C1 1_555 1_555
C1 C2 1_555 1_555
C2 H1 1_555 1_555
C3 C2 1_555 1_555
C4 S1 1_555 1_555
C5 C4 1_555 1_555
C6 C5 1_555 1_555
H2 C6 1_555 1_555
C7 C6 1_555 1_555
C8 C7 1_555 1_555
C9 C8 1_555 1_555
H3 C9 1_555 1_555
C10 C5 1_555 1_555
C11 C10 1_555 1_555
C12 C11 1_555 1_555
C13 C12 1_555 1_555
H4 C13 1_555 1_555
C14 S2 1_555 1_555
I2 C14 1_555 1_555
O1 C7 1_555 1_555
C15 O1 1_555 1_555
H5 C15 1_555 1_555
H6 C15 1_555 1_555
H7 C15 1_555 1_555
O2 C8 1_555 1_555
N1 C3 1_555 1_555
C16 O2 1_555 1_555
H8 C16 1_555 1_555
H9 C16 1_555 1_555
H10 C16 1_555 1_555
C17 N1 1_555 1_555
C18 C17 1_555 1_555
H11 C18 1_555 1_555
C19 C18 1_555 1_555
H12 C19 1_555 1_555
C20 C19 1_555 1_555
C21 C20 1_555 1_555
H13 C21 1_555 1_555
C22 C17 1_555 1_555
H14 C22 1_555 1_555
C23 C20 1_555 1_555
H15 C23 1_555 1_555
H16 C23 1_555 1_555
H17 C23 1_555 1_555
C3 C4 1_555 1_555
C9 C10 1_555 1_555
C12 N1 1_555 1_555
C13 C14 1_555 1_555
C21 C22 1_555 1_555

#END
