
#######################################################################
#
#                 Cambridge Crystallographic Data Centre
#                                CCDC 
#
#######################################################################
#
# If this CIF has been generated from an entry in the Cambridge 
# Structural Database, then it will include bibliographic, chemical, 
# crystal, experimental, refinement or atomic coordinate data resulting 
# from the CCDC's data processing and validation procedures.
#
#######################################################################

data_KUPLEO
_chemical_formula_moiety         'C24 B1 F20 1-,C12 H23 O4 1+,C6 H14'
_chemical_name_systematic        
'1,1,5,5-tetramethoxy-2,2,4-trimethylpent-4-en-1-ylium tetrakis(pentafluorophenyl)borate hexane solvate'
_symmetry_cell_setting           tetragonal
_symmetry_space_group_name_H-M   'I 41/a'
_symmetry_Int_Tables_number      88
_space_group_name_Hall           '-I 4ad'
loop_
_symmetry_equiv_pos_site_id
_symmetry_equiv_pos_as_xyz
1 x,y,z
2 1/2-x,-y,1/2+z
3 3/4-y,1/4+x,1/4+z
4 3/4+y,3/4-x,3/4+z
5 1/2+x,1/2+y,1/2+z
6 -x,1/2-y,z
7 1/4-y,3/4+x,3/4+z
8 1/4+y,1/4-x,1/4+z
9 -x,-y,-z
10 1/2+x,y,1/2-z
11 1/4+y,3/4-x,3/4-z
12 1/4-y,1/4+x,1/4-z
13 1/2-x,1/2-y,1/2-z
14 x,1/2+y,-z
15 3/4+y,1/4-x,1/4-z
16 3/4-y,3/4+x,3/4-z
_cell_length_a                   34.2576(6)
_cell_length_b                   34.2576(6)
_cell_length_c                   13.1525(5)
_cell_angle_alpha                90
_cell_angle_beta                 90
_cell_angle_gamma                90
_cell_volume                     15435.6
_exptl_crystal_colour            colorless
_exptl_crystal_description       plate
_cell_formula_units_Z            16
loop_
_atom_site_label
_atom_site_type_symbol
_atom_site_fract_x
_atom_site_fract_y
_atom_site_fract_z
C25 C 0.01228(7) 0.85338(9) 0.3138(2)
H1 H -0.0067 0.8375 0.3513
H2 H 0.0050 0.8541 0.2418
H3 H 0.0124 0.8800 0.3413
C26 C 0.09114(6) 0.90142(6) 0.40715(14)
H4 H 0.0937 0.9295 0.4201
H5 H 0.1154 0.8882 0.4262
H6 H 0.0695 0.8909 0.4475
C27 C 0.07957(6) 0.85626(6) 0.27460(15)
C28 C 0.10297(6) 0.84030(6) 0.20601(15)
C29 C 0.09835(8) 0.79931(7) 0.17127(19)
H7 H 0.0748 0.7881 0.2017
H8 H 0.1212 0.7840 0.1922
H9 H 0.0961 0.7988 0.0970
C30 C 0.13713(6) 0.86324(6) 0.16506(16)
H10 H 0.1567 0.8444 0.1392
H11 H 0.1493 0.8774 0.2226
C31 C 0.12867(6) 0.89340(6) 0.07911(14)
C32 C 0.10489(7) 0.87390(7) -0.00575(16)
H12 H 0.0803 0.8640 0.0223
H13 H 0.1199 0.8522 -0.0346
H14 H 0.0993 0.8931 -0.0591
C33 C 0.16757(6) 0.90862(7) 0.03488(16)
H15 H 0.1622 0.9274 -0.0196
H16 H 0.1826 0.8867 0.0075
H17 H 0.1826 0.9215 0.0887
C34 C 0.10519(5) 0.92720(6) 0.12112(14)
C35 C 0.15596(6) 0.96060(7) 0.21846(17)
H18 H 0.1576 0.9858 0.2534
H19 H 0.1758 0.9594 0.1648
H20 H 0.1605 0.9395 0.2674
C36 C 0.04409(6) 0.95882(7) 0.13951(15)
H21 H 0.0173 0.9554 0.1149
H22 H 0.0539 0.9843 0.1177
H23 H 0.0444 0.9574 0.2139
O1 O 0.05063(5) 0.83652(5) 0.32422(12)
O2 O 0.08350(4) 0.89508(4) 0.30108(9)
O3 O 0.11720(4) 0.95623(4) 0.17348(10)
O4 O 0.06913(4) 0.92780(4) 0.09748(10)
C1 C 0.35815(5) 1.00675(5) 0.22884(12)
C2 C 0.33888(5) 1.03914(5) 0.26663(12)
C3 C 0.29857(5) 1.04322(5) 0.26941(13)
C4 C 0.27527(5) 1.01378(5) 0.23254(13)
C5 C 0.29260(5) 0.98057(5) 0.19481(13)
C6 C 0.33270(5) 0.97792(5) 0.19355(13)
C7 C 0.40903(5) 0.96064(5) 0.31125(13)
C8 C 0.40208(5) 0.96681(5) 0.41441(13)
C9 C 0.40582(5) 0.93843(6) 0.48836(13)
C10 C 0.41502(5) 0.90082(6) 0.46054(15)
C11 C 0.42063(5) 0.89246(6) 0.35928(15)
C12 C 0.41719(5) 0.92195(5) 0.28798(13)
C13 C 0.42322(5) 0.98646(5) 0.11708(12)
C14 C 0.40514(5) 0.99272(5) 0.02331(13)
C15 C 0.42220(5) 0.98370(5) -0.06890(12)
C16 C 0.45857(5) 0.96698(5) -0.07241(13)
C17 C 0.47811(5) 0.96060(5) 0.01766(14)
C18 C 0.46065(5) 0.97119(5) 0.10766(13)
C19 C 0.43266(5) 1.03576(5) 0.26403(12)
C20 C 0.43075(5) 1.06988(5) 0.20667(12)
C21 C 0.45360(5) 1.10244(5) 0.22160(13)
C22 C 0.48053(5) 1.10259(5) 0.29920(14)
C23 C 0.48414(5) 1.06964(5) 0.35837(13)
C24 C 0.46132(5) 1.03750(5) 0.33926(12)
B1 B 0.40578(5) 0.99773(6) 0.23068(14)
F1 F 0.35889(3) 1.06983(3) 0.30577(8)
F2 F 0.28196(3) 1.07544(3) 0.30828(8)
F3 F 0.23609(3) 1.01724(3) 0.23470(8)
F4 F 0.27000(3) 0.95120(3) 0.16026(8)
F5 F 0.34761(3) 0.94452(3) 0.15423(8)
F6 F 0.39260(3) 1.00324(3) 0.44725(8)
F7 F 0.40177(3) 0.94747(4) 0.58761(8)
F8 F 0.41878(4) 0.87283(3) 0.53130(9)
F9 F 0.42987(3) 0.85622(3) 0.32969(9)
F10 F 0.42278(3) 0.91023(3) 0.19059(8)
F11 F 0.36904(3) 1.00834(3) 0.01737(8)
F12 F 0.40299(3) 0.99053(3) -0.15700(8)
F13 F 0.47481(3) 0.95734(3) -0.16187(8)
F14 F 0.51396(3) 0.94432(3) 0.01610(8)
F15 F 0.48205(3) 0.96499(3) 0.19305(8)
F16 F 0.40459(3) 1.07192(3) 0.12924(7)
F17 F 0.45038(3) 1.13369(3) 0.16061(8)
F18 F 0.50323(3) 1.13388(3) 0.31608(9)
F19 F 0.51077(3) 1.06879(3) 0.43412(8)
F20 F 0.46918(3) 1.00612(3) 0.39933(7)
loop_
_geom_bond_atom_site_label_1
_geom_bond_atom_site_label_2
_geom_bond_site_symmetry_1
_geom_bond_site_symmetry_2
C1 C2 1_555 1_555
C2 C3 1_555 1_555
C3 C4 1_555 1_555
C4 C5 1_555 1_555
C5 C6 1_555 1_555
C6 C1 1_555 1_555
C7 C8 1_555 1_555
C8 C9 1_555 1_555
C9 C10 1_555 1_555
C10 C11 1_555 1_555
C11 C12 1_555 1_555
C12 C7 1_555 1_555
C13 C14 1_555 1_555
C14 C15 1_555 1_555
C15 C16 1_555 1_555
C16 C17 1_555 1_555
C17 C18 1_555 1_555
C18 C13 1_555 1_555
C19 C20 1_555 1_555
C20 C21 1_555 1_555
C21 C22 1_555 1_555
C22 C23 1_555 1_555
C23 C24 1_555 1_555
C24 C19 1_555 1_555
B1 C1 1_555 1_555
F1 C2 1_555 1_555
F2 C3 1_555 1_555
F3 C4 1_555 1_555
F4 C5 1_555 1_555
F5 C6 1_555 1_555
F6 C8 1_555 1_555
F7 C9 1_555 1_555
F8 C10 1_555 1_555
F9 C11 1_555 1_555
F10 C12 1_555 1_555
F11 C14 1_555 1_555
F12 C15 1_555 1_555
F13 C16 1_555 1_555
F14 C17 1_555 1_555
F15 C18 1_555 1_555
F16 C20 1_555 1_555
F17 C21 1_555 1_555
F18 C22 1_555 1_555
F19 C23 1_555 1_555
F20 C24 1_555 1_555
C25 H1 1_555 1_555
H2 C25 1_555 1_555
H3 C25 1_555 1_555
C26 H4 1_555 1_555
H5 C26 1_555 1_555
H6 C26 1_555 1_555
C27 C28 1_555 1_555
C28 C29 1_555 1_555
C29 H7 1_555 1_555
H8 C29 1_555 1_555
H9 C29 1_555 1_555
C30 C28 1_555 1_555
H10 C30 1_555 1_555
H11 C30 1_555 1_555
C31 C30 1_555 1_555
C32 C31 1_555 1_555
H12 C32 1_555 1_555
H13 C32 1_555 1_555
H14 C32 1_555 1_555
C33 C31 1_555 1_555
H15 C33 1_555 1_555
H16 C33 1_555 1_555
H17 C33 1_555 1_555
C34 C31 1_555 1_555
C35 H18 1_555 1_555
H19 C35 1_555 1_555
H20 C35 1_555 1_555
C36 H21 1_555 1_555
H22 C36 1_555 1_555
H23 C36 1_555 1_555
O1 C25 1_555 1_555
O2 C26 1_555 1_555
O3 C34 1_555 1_555
O4 C34 1_555 1_555
C7 B1 1_555 1_555
C13 B1 1_555 1_555
C19 B1 1_555 1_555
C27 O1 1_555 1_555
C27 O2 1_555 1_555
C35 O3 1_555 1_555
C36 O4 1_555 1_555

#END
