
#######################################################################
#
#                 Cambridge Crystallographic Data Centre
#                                CCDC 
#
#######################################################################
#
# If this CIF has been generated from an entry in the Cambridge 
# Structural Database, then it will include bibliographic, chemical, 
# crystal, experimental, refinement or atomic coordinate data resulting 
# from the CCDC's data processing and validation procedures.
#
#######################################################################

data_KUPMAK
_chemical_formula_moiety         'C24 H16 O3'
_chemical_name_systematic        2,4-Diphenylpyrano(3,2-c)chromen-5(4H)-one
_symmetry_cell_setting           monoclinic
_symmetry_space_group_name_H-M   'P 21/c'
_symmetry_Int_Tables_number      14
_space_group_name_Hall           '-P 2ybc'
loop_
_symmetry_equiv_pos_site_id
_symmetry_equiv_pos_as_xyz
1 x,y,z
2 -x,1/2+y,1/2-z
3 -x,-y,-z
4 x,1/2-y,1/2+z
_cell_length_a                   12.975(2)
_cell_length_b                   15.868(3)
_cell_length_c                   8.6004(14)
_cell_angle_alpha                90
_cell_angle_beta                 94.887(3)
_cell_angle_gamma                90
_cell_volume                     1764.28
_exptl_crystal_colour            colorless
_exptl_crystal_description       prismatic
_chemical_melting_point          '168-169 deg.C'
_cell_formula_units_Z            4
loop_
_atom_site_label
_atom_site_type_symbol
_atom_site_fract_x
_atom_site_fract_y
_atom_site_fract_z
O1 O 0.33717(11) 0.82383(8) 0.71699(17)
O2 O 0.41896(10) 0.94427(8) 0.75923(14)
O3 O 0.29636(9) 1.04124(7) 0.34184(14)
C1 C 0.44139(13) 1.02536(11) 0.7158(2)
C2 C 0.50793(14) 1.07090(13) 0.8165(2)
H1 H 0.5370 1.0469 0.9086
C3 C 0.53064(14) 1.15246(13) 0.7786(2)
H2 H 0.5750 1.1842 0.8461
C4 C 0.48827(14) 1.18775(12) 0.6414(2)
H3 H 0.5039 1.2432 0.6172
C5 C 0.42341(14) 1.14174(11) 0.5405(2)
H4 H 0.3958 1.1657 0.4474
C6 C 0.39856(13) 1.05872(11) 0.5772(2)
C7 C 0.33221(13) 1.00511(11) 0.4789(2)
C8 C 0.30922(13) 0.92599(11) 0.5185(2)
C9 C 0.35272(14) 0.89325(12) 0.6656(2)
C10 C 0.24159(14) 0.86911(11) 0.4139(2)
H5 H 0.2801 0.8172 0.3978
C11 C 0.22031(13) 0.91170(12) 0.2591(2)
H6 H 0.1888 0.8799 0.1776
C12 C 0.24276(13) 0.99061(12) 0.2295(2)
C13 C 0.22231(14) 1.03762(12) 0.0832(2)
C14 C 0.28575(15) 1.10332(12) 0.0451(2)
H7 H 0.3413 1.1192 0.1144
C15 C 0.26712(17) 1.14518(14) -0.0944(3)
H8 H 0.3113 1.1884 -0.1190
C16 C 0.1860(2) 1.12497(16) -0.1966(3)
H9 H 0.1744 1.1539 -0.2904
C17 C 0.1214(2) 1.06131(17) -0.1599(3)
H10 H 0.0645 1.0476 -0.2284
C18 C 0.14006(16) 1.01727(13) -0.0218(3)
H11 H 0.0964 0.9732 0.0005
C19 C 0.14024(14) 0.84542(11) 0.4779(2)
C20 C 0.09753(17) 0.76735(12) 0.4506(2)
H12 H 0.1328 0.7271 0.3971
C21 C 0.00236(19) 0.74816(15) 0.5019(3)
H13 H -0.0262 0.6951 0.4819
C22 C -0.05001(18) 0.80580(17) 0.5813(3)
H14 H -0.1136 0.7922 0.6171
C23 C -0.00869(17) 0.88291(15) 0.6075(3)
H15 H -0.0441 0.9230 0.6612
C24 C 0.08556(16) 0.90264(13) 0.5552(3)
H16 H 0.1126 0.9564 0.5730
loop_
_geom_bond_atom_site_label_1
_geom_bond_atom_site_label_2
_geom_bond_site_symmetry_1
_geom_bond_site_symmetry_2
O1 C9 1_555 1_555
O2 C1 1_555 1_555
O3 C7 1_555 1_555
C1 C2 1_555 1_555
C2 H1 1_555 1_555
C3 C2 1_555 1_555
H2 C3 1_555 1_555
C4 C3 1_555 1_555
H3 C4 1_555 1_555
C5 C4 1_555 1_555
H4 C5 1_555 1_555
C6 C1 1_555 1_555
C7 C6 1_555 1_555
C8 C7 1_555 1_555
C9 O2 1_555 1_555
C10 C8 1_555 1_555
H5 C10 1_555 1_555
C11 C10 1_555 1_555
H6 C11 1_555 1_555
C12 O3 1_555 1_555
C13 C12 1_555 1_555
C14 C13 1_555 1_555
H7 C14 1_555 1_555
C15 C14 1_555 1_555
H8 C15 1_555 1_555
C16 C15 1_555 1_555
H9 C16 1_555 1_555
C17 C16 1_555 1_555
H10 C17 1_555 1_555
C18 C13 1_555 1_555
H11 C18 1_555 1_555
C19 C10 1_555 1_555
C20 C19 1_555 1_555
H12 C20 1_555 1_555
C21 C20 1_555 1_555
H13 C21 1_555 1_555
C22 C21 1_555 1_555
H14 C22 1_555 1_555
C23 C22 1_555 1_555
H15 C23 1_555 1_555
C24 C19 1_555 1_555
H16 C24 1_555 1_555
C5 C6 1_555 1_555
C8 C9 1_555 1_555
C11 C12 1_555 1_555
C17 C18 1_555 1_555
C23 C24 1_555 1_555

#END
