
#######################################################################
#
#                 Cambridge Crystallographic Data Centre
#                                CCDC 
#
#######################################################################
#
# If this CIF has been generated from an entry in the Cambridge 
# Structural Database, then it will include bibliographic, chemical, 
# crystal, experimental, refinement or atomic coordinate data resulting 
# from the CCDC's data processing and validation procedures.
#
#######################################################################

data_KUPNUG
_chemical_formula_moiety         'C82 H94 O2,C67 H70 N4 O5,2(C3 H6 O1)'
_chemical_name_systematic        
"[2]-(1,1',1'',1''',1'''',1'''''-(1,4-phenylenebis(methyleneoxy-4,1-phenylenemethanetetrayl))hexakis(4-t-butylbenzene))-(11'-(benzyloxy)-5',17',23',35',38',40',43',45'-octamethyl-7',15',25',33'-tetraazadispiro[cyclohexane-1,2'-heptacyclo[32.2.2.2^3,6^.2^16,19^.2^21,24^.1^9,13^.1^27,31^]hexatetracontane-20',1''-cyclohexane]-1'(36'),3',5',9'(44'),10',12',16',18',21',23',27'(39'),28',30',34',37',40',42',45'-octadecaene-8',14',26',32'-tetrone)-rotaxane acetone unknown solvate"
_symmetry_cell_setting           triclinic
_symmetry_space_group_name_H-M   'P 1'
_symmetry_Int_Tables_number      1
_space_group_name_Hall           'P 1'
loop_
_symmetry_equiv_pos_site_id
_symmetry_equiv_pos_as_xyz
1 x,y,z
_cell_length_a                   11.6351(9)
_cell_length_b                   16.2914(12)
_cell_length_c                   20.4165(13)
_cell_angle_alpha                75.588(6)
_cell_angle_beta                 87.355(6)
_cell_angle_gamma                77.305(7)
_cell_volume                     3656.43
_exptl_crystal_colour            colorless
_exptl_crystal_description       prism
_cell_formula_units_Z            1
loop_
_atom_site_label
_atom_site_type_symbol
_atom_site_fract_x
_atom_site_fract_y
_atom_site_fract_z
O1 O 0.3972(10) 0.6086(7) 0.8873(5)
C1 C 0.3611(14) 0.6862(9) 0.8673(8)
C2 C 0.3929(18) 0.7469(12) 0.9062(10)
H1 H 0.3238 0.7696 0.9308
H2 H 0.4187 0.7952 0.8745
H3 H 0.4568 0.7149 0.9384
C3 C 0.2700(16) 0.7206(12) 0.8112(9)
H4 H 0.3094 0.7348 0.7677
H5 H 0.2165 0.7730 0.8186
H6 H 0.2250 0.6765 0.8110
O2 O 0.3330(10) 0.0203(7) 1.0910(5)
C4 C 0.3723(14) -0.0561(9) 1.1124(8)
C5 C 0.3009(17) -0.1176(12) 1.0998(10)
H7 H 0.2181 -0.0874 1.0924
H8 H 0.3075 -0.1673 1.1390
H9 H 0.3307 -0.1379 1.0596
C6 C 0.4765(15) -0.0907(12) 1.1587(9)
H10 H 0.4811 -0.0491 1.1853
H11 H 0.5483 -0.0998 1.1320
H12 H 0.4686 -0.1461 1.1891
C7 C 0.3424(9) 0.3625(7) 0.9215(5)
C8 C 0.4311(11) 0.2882(7) 0.9317(6)
H13 H 0.4767 0.2737 0.8948
C9 C 0.4525(12) 0.2353(8) 0.9964(6)
H14 H 0.5100 0.1825 1.0039
C10 C 0.3117(8) 0.4192(7) 0.8509(5)
H15 H 0.3094 0.4806 0.8499
H16 H 0.3715 0.4010 0.8184
O3 O 0.1978(6) 0.4096(5) 0.8333(4)
C11 C 0.1471(8) 0.4638(7) 0.7741(4)
C12 C 0.0306(8) 0.4630(7) 0.7621(5)
H17 H -0.0078 0.4231 0.7922
C13 C -0.0294(8) 0.5205(6) 0.7061(4)
H18 H -0.1108 0.5229 0.7007
C14 C 0.0260(7) 0.5748(6) 0.6575(4)
C15 C 0.1466(8) 0.5672(7) 0.6679(5)
H19 H 0.1897 0.5987 0.6338
C16 C 0.2056(8) 0.5149(7) 0.7269(5)
H20 H 0.2857 0.5148 0.7342
C17 C -0.0335(6) 0.6422(4) 0.5952(3)
C18 C -0.1644(6) 0.6385(6) 0.5901(6)
C19 C -0.2578(7) 0.7054(6) 0.5941(6)
H21 H -0.2452 0.7585 0.6007
C20 C -0.3747(8) 0.6929(6) 0.5880(6)
H22 H -0.4401 0.7388 0.5902
C21 C -0.3944(7) 0.6181(6) 0.5794(6)
C22 C -0.3017(8) 0.5530(7) 0.5719(6)
H23 H -0.3148 0.5012 0.5631
C23 C -0.1889(8) 0.5644(6) 0.5776(6)
H24 H -0.1247 0.5190 0.5726
C24 C -0.5324(10) 0.6049(10) 0.5714(8)
C25 C 0.0220(8) 0.6258(6) 0.5277(3)
C26 C -0.0316(9) 0.6776(7) 0.4671(4)
H25 H -0.1015 0.7200 0.4687
C27 C 0.0140(9) 0.6690(7) 0.4051(4)
H26 H -0.0284 0.7027 0.3653
C28 C 0.1204(8) 0.6122(7) 0.3991(4)
C29 C 0.1689(9) 0.5564(7) 0.4583(4)
H27 H 0.2373 0.5126 0.4565
C30 C 0.1196(9) 0.5629(7) 0.5206(4)
H28 H 0.1546 0.5222 0.5602
C31 C 0.1769(8) 0.6165(6) 0.3292(4)
C32 C 0.0879(11) 0.6093(9) 0.2784(6)
H29 H 0.0511 0.5603 0.2983
H30 H 0.1290 0.6001 0.2369
H31 H 0.0271 0.6630 0.2675
C33 C 0.2117(12) 0.7040(7) 0.3021(7)
H32 H 0.1413 0.7509 0.2975
H33 H 0.2488 0.7058 0.2579
H34 H 0.2674 0.7115 0.3336
C34 C 0.2892(10) 0.5451(8) 0.3306(7)
H35 H 0.3499 0.5540 0.3583
H36 H 0.3182 0.5479 0.2845
H37 H 0.2710 0.4881 0.3500
C35 C -0.0165(9) 0.7303(5) 0.6049(4)
C36 C 0.0444(10) 0.7841(6) 0.5599(5)
H38 H 0.0708 0.7700 0.5185
C37 C 0.0675(11) 0.8579(6) 0.5739(5)
H39 H 0.1083 0.8934 0.5412
C38 C 0.0341(10) 0.8822(6) 0.6331(5)
C39 C -0.0208(11) 0.8253(7) 0.6795(5)
H40 H -0.0445 0.8383 0.7216
C40 C -0.0421(10) 0.7509(6) 0.6669(5)
H41 H -0.0753 0.7124 0.7015
C41 C 0.0609(9) 0.9635(6) 0.6476(5)
C42 C 0.0081(13) 1.0388(8) 0.5940(7)
H42 H 0.0017 1.0919 0.6095
H43 H -0.0705 1.0335 0.5828
H44 H 0.0578 1.0414 0.5537
C43 C 0.1865(11) 0.9508(10) 0.6612(8)
H45 H 0.2129 0.8959 0.6949
H46 H 0.2003 0.9988 0.6786
H47 H 0.2306 0.9493 0.6193
C44 C -0.0018(13) 0.9809(10) 0.7148(6)
H48 H 0.0272 0.9314 0.7529
H49 H -0.0872 0.9885 0.7100
H50 H 0.0158 1.0335 0.7232
C45 C 0.3870(9) 0.2610(7) 1.0519(5)
C46 C 0.3009(11) 0.3363(7) 1.0387(6)
H51 H 0.2574 0.3552 1.0748
C47 C 0.2780(12) 0.3844(8) 0.9728(6)
H52 H 0.2150 0.4340 0.9638
C48 C 0.4159(8) 0.2075(7) 1.1238(5)
H53 H 0.3572 0.2288 1.1558
H54 H 0.4167 0.1456 1.1275
O4 O 0.5318(6) 0.2184(5) 1.1380(3)
C49 C 0.5833(8) 0.1630(7) 1.1970(5)
C50 C 0.7018(8) 0.1613(7) 1.2060(5)
H55 H 0.7432 0.1946 1.1721
C51 C 0.7584(8) 0.1101(6) 1.2654(4)
H56 H 0.8372 0.1128 1.2733
C52 C 0.7037(7) 0.0552(6) 1.3136(4)
C53 C 0.5897(7) 0.0502(7) 1.2981(5)
H57 H 0.5541 0.0067 1.3258
C54 C 0.5279(8) 0.1081(7) 1.2425(5)
H58 H 0.4470 0.1095 1.2362
C55 C 0.7655(6) -0.0131(4) 1.3746(3)
C56 C 0.8981(6) -0.0158(6) 1.3779(6)
C57 C 0.9811(7) -0.0884(6) 1.3714(6)
H59 H 0.9563 -0.1371 1.3638
C58 C 1.1043(8) -0.0905(7) 1.3762(6)
H60 H 1.1616 -0.1394 1.3700
C59 C 1.1375(8) -0.0229(6) 1.3894(6)
C60 C 1.0549(8) 0.0498(6) 1.3946(6)
H61 H 1.0805 0.0986 1.4015
C61 C 0.9353(8) 0.0537(6) 1.3901(6)
H62 H 0.8796 0.1038 1.3954
C62 C 1.2791(10) -0.0183(10) 1.3949(8)
C63 C 0.7135(8) 0.0019(6) 1.4428(4)
C64 C 0.7621(9) -0.0544(7) 1.5023(4)
H63 H 0.8319 -0.0968 1.5002
C65 C 0.7127(9) -0.0510(7) 1.5647(4)
H64 H 0.7462 -0.0926 1.6042
C66 C 0.6141(8) 0.0130(7) 1.5703(4)
C67 C 0.5662(9) 0.0698(7) 1.5114(4)
H65 H 0.4995 0.1146 1.5139
C68 C 0.6123(9) 0.0637(7) 1.4486(4)
H66 H 0.5744 0.1023 1.4089
C69 C 0.5589(8) 0.0136(6) 1.6400(4)
C70 C 0.6453(11) 0.0339(9) 1.6861(6)
H67 H 0.7250 0.0009 1.6809
H68 H 0.6211 0.0174 1.7334
H69 H 0.6445 0.0961 1.6733
C71 C 0.5301(12) -0.0742(7) 1.6722(7)
H70 H 0.4649 -0.0821 1.6473
H71 H 0.5073 -0.0768 1.7194
H72 H 0.5996 -0.1202 1.6707
C72 C 0.4437(10) 0.0836(8) 1.6369(7)
H73 H 0.4593 0.1409 1.6153
H74 H 0.4150 0.0830 1.6829
H75 H 0.3840 0.0712 1.6107
C73 C 0.7444(9) -0.1002(5) 1.3644(4)
C74 C 0.6929(10) -0.1595(6) 1.4105(5)
H76 H 0.6699 -0.1493 1.4535
C75 C 0.6748(10) -0.2337(6) 1.3942(5)
H77 H 0.6391 -0.2729 1.4268
C76 C 0.7063(10) -0.2530(6) 1.3328(5)
C77 C 0.7642(11) -0.1954(7) 1.2889(5)
H78 H 0.7906 -0.2071 1.2468
C78 C 0.7846(10) -0.1224(6) 1.3043(5)
H79 H 0.8269 -0.0862 1.2734
C79 C 0.6830(9) -0.3330(6) 1.3146(5)
C80 C 0.7534(13) -0.4114(8) 1.3591(7)
H80 H 0.7197 -0.4202 1.4046
H81 H 0.8346 -0.4046 1.3614
H82 H 0.7529 -0.4618 1.3411
C81 C 0.5555(10) -0.3264(10) 1.3110(8)
H83 H 0.5218 -0.3294 1.3562
H84 H 0.5406 -0.3743 1.2940
H85 H 0.5191 -0.2710 1.2803
C82 C 0.7306(14) -0.3397(10) 1.2418(6)
H86 H 0.6879 -0.3751 1.2241
H87 H 0.8149 -0.3667 1.2449
H88 H 0.7186 -0.2815 1.2115
C83 C -0.5543(14) 0.6193(11) 0.5027(8)
H89 H -0.5009 0.5748 0.4847
H90 H -0.5415 0.6768 0.4791
H91 H -0.6361 0.6166 0.4958
C84 C -0.6077(15) 0.6905(11) 0.5876(9)
H92 H -0.6912 0.6948 0.5787
H93 H -0.5820 0.7409 0.5588
H94 H -0.5967 0.6889 0.6352
C85 C -0.541(2) 0.5227(17) 0.6232(13)
H95 H -0.6240 0.5176 0.6276
H96 H -0.5120 0.5243 0.6670
H97 H -0.4944 0.4726 0.6088
C86 C 1.2862(16) 0.0879(11) 1.3643(9)
H98 H 1.2350 0.1233 1.3910
H99 H 1.2601 0.1073 1.3169
H100 H 1.3675 0.0940 1.3674
C87 C 1.3380(14) -0.0632(10) 1.3349(8)
H101 H 1.3161 -0.1193 1.3405
H102 H 1.4240 -0.0721 1.3373
H103 H 1.3095 -0.0252 1.2909
C88 C 1.333(2) -0.1092(16) 1.4526(13)
H104 H 1.3037 -0.1573 1.4432
H105 H 1.3068 -0.1020 1.4976
H106 H 1.4189 -0.1218 1.4511
C89 C 0.7153(10) 0.5302(8) 0.9587(6)
O5 O 0.8223(7) 0.5051(6) 0.9595(4)
N1 N 0.6416(8) 0.5089(6) 0.9192(5)
H107 H 0.5671 0.5361 0.9168
C90 C 0.6782(11) 0.4443(6) 0.8812(5)
C91 C 0.7155(11) 0.3592(6) 0.9171(5)
C92 C 0.7541(11) 0.2954(7) 0.8810(5)
H108 H 0.7831 0.2369 0.9051
C93 C 0.7508(10) 0.3159(6) 0.8111(5)
C94 C 0.7084(11) 0.4002(6) 0.7781(5)
H109 H 0.6929 0.4135 0.7310
C95 C 0.6864(10) 0.4691(6) 0.8113(5)
C96 C 0.7019(11) 0.3333(8) 0.9929(5)
H110 H 0.7572 0.3561 1.0146
H111 H 0.7187 0.2698 1.0084
H112 H 0.6211 0.3570 1.0050
C97 C 0.6196(11) 0.5583(7) 0.7718(6)
H113 H 0.5447 0.5746 0.7941
H114 H 0.6043 0.5559 0.7256
H115 H 0.6672 0.6014 0.7704
C98 C 0.7818(8) 0.2408(6) 0.7743(5)
C99 C 0.8992(9) 0.1790(7) 0.8025(6)
H116 H 0.8933 0.1615 0.8524
H117 H 0.9081 0.1260 0.7857
C100 C 1.0093(10) 0.2139(9) 0.7854(6)
H118 H 1.0793 0.1678 0.8030
H119 H 1.0072 0.2626 0.8068
C101 C 1.0175(10) 0.2456(9) 0.7084(6)
H120 H 1.0847 0.2747 0.6974
H121 H 1.0326 0.1951 0.6881
C102 C 0.9057(10) 0.3082(8) 0.6780(7)
H122 H 0.9124 0.3233 0.6281
H123 H 0.8967 0.3623 0.6934
C103 C 0.7951(10) 0.2703(8) 0.6977(5)
H124 H 0.7244 0.3147 0.6786
H125 H 0.7998 0.2202 0.6777
C104 C 0.6771(8) 0.1945(7) 0.7917(6)
C105 C 0.5694(9) 0.2372(8) 0.7583(6)
H126 H 0.5663 0.2891 0.7240
C106 C 0.4681(9) 0.2058(7) 0.7739(6)
C107 C 0.4740(9) 0.1330(7) 0.8251(6)
C108 C 0.5754(9) 0.0889(8) 0.8596(6)
C109 C 0.6795(10) 0.1213(8) 0.8393(6)
H127 H 0.7526 0.0898 0.8604
C110 C 0.3514(11) 0.2539(9) 0.7384(7)
H128 H 0.3135 0.2125 0.7249
H129 H 0.3659 0.2977 0.6982
H130 H 0.2999 0.2823 0.7694
C111 C 0.5902(14) 0.0038(9) 0.9127(7)
H131 H 0.5202 0.0043 0.9413
H132 H 0.6598 -0.0038 0.9407
H133 H 0.6004 -0.0441 0.8905
N2 N 0.3611(8) 0.1081(6) 0.8442(5)
H134 H 0.3002 0.1484 0.8502
C112 C 0.3459(10) 0.0240(7) 0.8532(7)
O6 O 0.4150(8) -0.0337(6) 0.8335(4)
C113 C 0.2374(8) 0.0066(7) 0.8906(5)
C114 C 0.1826(9) 0.0518(7) 0.9379(5)
H135 H 0.2226 0.0886 0.9533
C115 C 0.0730(9) 0.0441(7) 0.9623(6)
C116 C 0.0158(10) -0.0146(8) 0.9451(6)
H136 H -0.0614 -0.0190 0.9606
C117 C 0.0760(10) -0.0664(8) 0.9043(6)
C118 C 0.1810(10) -0.0523(8) 0.8731(6)
H137 H 0.2142 -0.0826 0.8402
C119 C 0.0094(10) 0.0977(8) 1.0110(6)
O7 O -0.0956(7) 0.1256(6) 1.0064(4)
N3 N 0.0849(8) 0.1162(6) 1.0526(5)
H138 H 0.1584 0.0867 1.0574
C120 C 0.0453(11) 0.1828(6) 1.0880(5)
C121 C 0.0149(12) 0.2678(6) 1.0526(5)
C122 C -0.0160(11) 0.3311(7) 1.0899(5)
H139 H -0.0365 0.3905 1.0664
C123 C -0.0174(10) 0.3093(6) 1.1599(5)
C124 C 0.0151(11) 0.2239(6) 1.1932(6)
H140 H 0.0060 0.2078 1.2409
C125 C 0.0614(10) 0.1597(6) 1.1591(5)
C126 C 0.0141(11) 0.2949(8) 0.9760(5)
H141 H 0.0934 0.2762 0.9593
H142 H -0.0108 0.3581 0.9609
H143 H -0.0409 0.2678 0.9583
C127 C 0.0806(11) 0.0634(7) 1.1973(6)
H144 H 0.0293 0.0351 1.1778
H145 H 0.0616 0.0590 1.2451
H146 H 0.1631 0.0347 1.1932
C128 C -0.0484(8) 0.3854(6) 1.1953(5)
C129 C -0.1647(9) 0.4488(7) 1.1670(6)
H147 H -0.1763 0.5008 1.1855
H148 H -0.1600 0.4680 1.1171
C130 C -0.2692(10) 0.4052(9) 1.1859(6)
H149 H -0.3417 0.4465 1.1657
H150 H -0.2577 0.3544 1.1662
C131 C -0.2863(10) 0.3755(9) 1.2620(6)
H151 H -0.3065 0.4264 1.2818
H152 H -0.3519 0.3445 1.2710
C132 C -0.1733(10) 0.3154(8) 1.2941(6)
H153 H -0.1626 0.2595 1.2814
H154 H -0.1799 0.3037 1.3440
C133 C -0.0650(10) 0.3549(8) 1.2719(5)
H155 H -0.0703 0.4050 1.2919
H156 H 0.0062 0.3111 1.2910
C134 C 0.0578(8) 0.4292(7) 1.1809(6)
C135 C 0.1676(9) 0.3868(8) 1.2128(6)
H157 H 0.1728 0.3350 1.2475
C136 C 0.2679(9) 0.4198(7) 1.1942(6)
C137 C 0.2575(9) 0.4928(7) 1.1440(6)
C138 C 0.1529(9) 0.5384(8) 1.1119(6)
C139 C 0.0528(10) 0.5038(8) 1.1326(6)
H158 H -0.0210 0.5339 1.1119
C140 C 0.3830(11) 0.3722(9) 1.2309(7)
H159 H 0.4397 0.3503 1.1990
H160 H 0.3689 0.3235 1.2672
H161 H 0.4147 0.4121 1.2502
C141 C 0.1460(14) 0.6112(9) 1.0473(7)
H162 H 0.1332 0.6672 1.0591
H163 H 0.0804 0.6109 1.0189
H164 H 0.2198 0.6021 1.0223
N4 N 0.3603(8) 0.5259(6) 1.1179(5)
H165 H 0.4111 0.4914 1.0981
C142 C 0.3923(10) 0.6010(7) 1.1186(7)
O8 O 0.3282(8) 0.6542(6) 1.1451(4)
C143 C 0.5079(8) 0.6110(7) 1.0873(5)
C144 C 0.5561(9) 0.5657(7) 1.0383(5)
H166 H 0.5197 0.5231 1.0288
C145 C 0.6556(10) 0.5837(8) 1.0044(6)
C146 C 0.7123(10) 0.6428(8) 1.0202(6)
H167 H 0.7826 0.6537 0.9976
C147 C 0.6654(10) 0.6860(8) 1.0696(6)
H168 H 0.7058 0.7245 1.0824
C148 C 0.5610(10) 0.6730(8) 1.0997(6)
H169 H 0.5249 0.7073 1.1296
O9 O 0.0296(7) -0.1229(5) 0.8817(4)
C149 C -0.0878(12) -0.1251(9) 0.9034(7)
H170 H -0.1437 -0.0707 0.8820
H171 H -0.0942 -0.1357 0.9532
C150 C -0.1094(15) -0.2063(11) 0.8772(8)
C151 C -0.0356(14) -0.2785(10) 0.8901(8)
H172 H 0.0313 -0.2838 0.9171
C152 C -0.0463(13) -0.3535(10) 0.8664(7)
H173 H 0.0127 -0.4054 0.8718
C153 C -0.1587(15) -0.3385(11) 0.8336(8)
H174 H -0.1776 -0.3852 0.8194
C154 C -0.2382(13) -0.2635(9) 0.8219(7)
H175 H -0.3082 -0.2589 0.7978
C155 C -0.2232(15) -0.1916(12) 0.8435(8)
H176 H -0.2807 -0.1389 0.8371
loop_
_geom_bond_atom_site_label_1
_geom_bond_atom_site_label_2
_geom_bond_site_symmetry_1
_geom_bond_site_symmetry_2
O1 C1 1_555 1_555
C1 C2 1_555 1_555
C2 H1 1_555 1_555
H2 C2 1_555 1_555
H3 C2 1_555 1_555
C3 C1 1_555 1_555
H4 C3 1_555 1_555
H5 C3 1_555 1_555
H6 C3 1_555 1_555
O2 C4 1_555 1_555
C4 C5 1_555 1_555
C5 H7 1_555 1_555
H8 C5 1_555 1_555
H9 C5 1_555 1_555
C6 C4 1_555 1_555
H10 C6 1_555 1_555
H11 C6 1_555 1_555
H12 C6 1_555 1_555
C7 C8 1_555 1_555
C8 H13 1_555 1_555
C9 C8 1_555 1_555
H14 C9 1_555 1_555
C10 C7 1_555 1_555
H15 C10 1_555 1_555
H16 C10 1_555 1_555
O3 C10 1_555 1_555
C11 O3 1_555 1_555
C12 C11 1_555 1_555
H17 C12 1_555 1_555
C13 C12 1_555 1_555
H18 C13 1_555 1_555
C14 C13 1_555 1_555
C15 C14 1_555 1_555
H19 C15 1_555 1_555
C16 C11 1_555 1_555
H20 C16 1_555 1_555
C17 C14 1_555 1_555
C18 C17 1_555 1_555
C19 C18 1_555 1_555
H21 C19 1_555 1_555
C20 C19 1_555 1_555
H22 C20 1_555 1_555
C21 C20 1_555 1_555
C22 C21 1_555 1_555
H23 C22 1_555 1_555
C23 C18 1_555 1_555
H24 C23 1_555 1_555
C24 C21 1_555 1_555
C25 C17 1_555 1_555
C26 C25 1_555 1_555
H25 C26 1_555 1_555
C27 C26 1_555 1_555
H26 C27 1_555 1_555
C28 C27 1_555 1_555
C29 C28 1_555 1_555
H27 C29 1_555 1_555
C30 C25 1_555 1_555
H28 C30 1_555 1_555
C31 C28 1_555 1_555
C32 C31 1_555 1_555
H29 C32 1_555 1_555
H30 C32 1_555 1_555
H31 C32 1_555 1_555
C33 C31 1_555 1_555
H32 C33 1_555 1_555
H33 C33 1_555 1_555
H34 C33 1_555 1_555
C34 C31 1_555 1_555
H35 C34 1_555 1_555
H36 C34 1_555 1_555
H37 C34 1_555 1_555
C35 C17 1_555 1_555
C36 C35 1_555 1_555
H38 C36 1_555 1_555
C37 C36 1_555 1_555
H39 C37 1_555 1_555
C38 C37 1_555 1_555
C39 C38 1_555 1_555
H40 C39 1_555 1_555
C40 C35 1_555 1_555
H41 C40 1_555 1_555
C41 C38 1_555 1_555
C42 C41 1_555 1_555
H42 C42 1_555 1_555
H43 C42 1_555 1_555
H44 C42 1_555 1_555
C43 C41 1_555 1_555
H45 C43 1_555 1_555
H46 C43 1_555 1_555
H47 C43 1_555 1_555
C44 C41 1_555 1_555
H48 C44 1_555 1_555
H49 C44 1_555 1_555
H50 C44 1_555 1_555
C45 C9 1_555 1_555
C46 C45 1_555 1_555
H51 C46 1_555 1_555
C47 C7 1_555 1_555
H52 C47 1_555 1_555
C48 C45 1_555 1_555
H53 C48 1_555 1_555
H54 C48 1_555 1_555
O4 C48 1_555 1_555
C49 O4 1_555 1_555
C50 C49 1_555 1_555
H55 C50 1_555 1_555
C51 C50 1_555 1_555
H56 C51 1_555 1_555
C52 C51 1_555 1_555
C53 C52 1_555 1_555
H57 C53 1_555 1_555
C54 C49 1_555 1_555
H58 C54 1_555 1_555
C55 C52 1_555 1_555
C56 C55 1_555 1_555
C57 C56 1_555 1_555
H59 C57 1_555 1_555
C58 C57 1_555 1_555
H60 C58 1_555 1_555
C59 C58 1_555 1_555
C60 C59 1_555 1_555
H61 C60 1_555 1_555
C61 C56 1_555 1_555
H62 C61 1_555 1_555
C62 C59 1_555 1_555
C63 C55 1_555 1_555
C64 C63 1_555 1_555
H63 C64 1_555 1_555
C65 C64 1_555 1_555
H64 C65 1_555 1_555
C66 C65 1_555 1_555
C67 C66 1_555 1_555
H65 C67 1_555 1_555
C68 C63 1_555 1_555
H66 C68 1_555 1_555
C69 C66 1_555 1_555
C70 C69 1_555 1_555
H67 C70 1_555 1_555
H68 C70 1_555 1_555
H69 C70 1_555 1_555
C71 C69 1_555 1_555
H70 C71 1_555 1_555
H71 C71 1_555 1_555
H72 C71 1_555 1_555
C72 C69 1_555 1_555
H73 C72 1_555 1_555
H74 C72 1_555 1_555
H75 C72 1_555 1_555
C73 C55 1_555 1_555
C74 C73 1_555 1_555
H76 C74 1_555 1_555
C75 C74 1_555 1_555
H77 C75 1_555 1_555
C76 C75 1_555 1_555
C77 C76 1_555 1_555
H78 C77 1_555 1_555
C78 C73 1_555 1_555
H79 C78 1_555 1_555
C79 C76 1_555 1_555
C80 C79 1_555 1_555
H80 C80 1_555 1_555
H81 C80 1_555 1_555
H82 C80 1_555 1_555
C81 C79 1_555 1_555
H83 C81 1_555 1_555
H84 C81 1_555 1_555
H85 C81 1_555 1_555
C82 C79 1_555 1_555
H86 C82 1_555 1_555
H87 C82 1_555 1_555
H88 C82 1_555 1_555
C83 C24 1_555 1_555
H89 C83 1_555 1_555
H90 C83 1_555 1_555
H91 C83 1_555 1_555
C84 C24 1_555 1_555
H92 C84 1_555 1_555
H93 C84 1_555 1_555
H94 C84 1_555 1_555
C85 C24 1_555 1_555
H95 C85 1_555 1_555
H96 C85 1_555 1_555
H97 C85 1_555 1_555
C86 C62 1_555 1_555
H98 C86 1_555 1_555
H99 C86 1_555 1_555
H100 C86 1_555 1_555
C87 C62 1_555 1_555
H101 C87 1_555 1_555
H102 C87 1_555 1_555
H103 C87 1_555 1_555
C88 C62 1_555 1_555
H104 C88 1_555 1_555
H105 C88 1_555 1_555
H106 C88 1_555 1_555
C89 O5 1_555 1_555
N1 C89 1_555 1_555
H107 N1 1_555 1_555
C90 N1 1_555 1_555
C91 C90 1_555 1_555
C92 C91 1_555 1_555
H108 C92 1_555 1_555
C93 C92 1_555 1_555
C94 C93 1_555 1_555
H109 C94 1_555 1_555
C95 C90 1_555 1_555
C96 C91 1_555 1_555
H110 C96 1_555 1_555
H111 C96 1_555 1_555
H112 C96 1_555 1_555
C97 C95 1_555 1_555
H113 C97 1_555 1_555
H114 C97 1_555 1_555
H115 C97 1_555 1_555
C98 C93 1_555 1_555
C99 C98 1_555 1_555
H116 C99 1_555 1_555
H117 C99 1_555 1_555
C100 C99 1_555 1_555
H118 C100 1_555 1_555
H119 C100 1_555 1_555
C101 C100 1_555 1_555
H120 C101 1_555 1_555
H121 C101 1_555 1_555
C102 C101 1_555 1_555
H122 C102 1_555 1_555
H123 C102 1_555 1_555
C103 C98 1_555 1_555
H124 C103 1_555 1_555
H125 C103 1_555 1_555
C104 C98 1_555 1_555
C105 C104 1_555 1_555
H126 C105 1_555 1_555
C106 C105 1_555 1_555
C107 C106 1_555 1_555
C108 C107 1_555 1_555
C109 C104 1_555 1_555
H127 C109 1_555 1_555
C110 C106 1_555 1_555
H128 C110 1_555 1_555
H129 C110 1_555 1_555
H130 C110 1_555 1_555
C111 C108 1_555 1_555
H131 C111 1_555 1_555
H132 C111 1_555 1_555
H133 C111 1_555 1_555
N2 C107 1_555 1_555
H134 N2 1_555 1_555
C112 N2 1_555 1_555
O6 C112 1_555 1_555
C113 C112 1_555 1_555
C114 C113 1_555 1_555
H135 C114 1_555 1_555
C115 C114 1_555 1_555
C116 C115 1_555 1_555
H136 C116 1_555 1_555
C117 C116 1_555 1_555
C118 C113 1_555 1_555
H137 C118 1_555 1_555
C119 C115 1_555 1_555
O7 C119 1_555 1_555
N3 C119 1_555 1_555
H138 N3 1_555 1_555
C120 N3 1_555 1_555
C121 C120 1_555 1_555
C122 C121 1_555 1_555
H139 C122 1_555 1_555
C123 C122 1_555 1_555
C124 C123 1_555 1_555
H140 C124 1_555 1_555
C125 C120 1_555 1_555
C126 C121 1_555 1_555
H141 C126 1_555 1_555
H142 C126 1_555 1_555
H143 C126 1_555 1_555
C127 C125 1_555 1_555
H144 C127 1_555 1_555
H145 C127 1_555 1_555
H146 C127 1_555 1_555
C128 C123 1_555 1_555
C129 C128 1_555 1_555
H147 C129 1_555 1_555
H148 C129 1_555 1_555
C130 C129 1_555 1_555
H149 C130 1_555 1_555
H150 C130 1_555 1_555
C131 C130 1_555 1_555
H151 C131 1_555 1_555
H152 C131 1_555 1_555
C132 C131 1_555 1_555
H153 C132 1_555 1_555
H154 C132 1_555 1_555
C133 C128 1_555 1_555
H155 C133 1_555 1_555
H156 C133 1_555 1_555
C134 C128 1_555 1_555
C135 C134 1_555 1_555
H157 C135 1_555 1_555
C136 C135 1_555 1_555
C137 C136 1_555 1_555
C138 C137 1_555 1_555
C139 C134 1_555 1_555
H158 C139 1_555 1_555
C140 C136 1_555 1_555
H159 C140 1_555 1_555
H160 C140 1_555 1_555
H161 C140 1_555 1_555
C141 C138 1_555 1_555
H162 C141 1_555 1_555
H163 C141 1_555 1_555
H164 C141 1_555 1_555
N4 C137 1_555 1_555
H165 N4 1_555 1_555
C142 N4 1_555 1_555
O8 C142 1_555 1_555
C143 C142 1_555 1_555
C144 C143 1_555 1_555
H166 C144 1_555 1_555
C145 C89 1_555 1_555
C146 C145 1_555 1_555
H167 C146 1_555 1_555
C147 C146 1_555 1_555
H168 C147 1_555 1_555
C148 C143 1_555 1_555
H169 C148 1_555 1_555
O9 C117 1_555 1_555
C149 O9 1_555 1_555
H170 C149 1_555 1_555
H171 C149 1_555 1_555
C150 C149 1_555 1_555
C151 C150 1_555 1_555
H172 C151 1_555 1_555
C152 C151 1_555 1_555
H173 C152 1_555 1_555
C153 C152 1_555 1_555
H174 C153 1_555 1_555
C154 C153 1_555 1_555
H175 C154 1_555 1_555
C155 C150 1_555 1_555
H176 C155 1_555 1_555
C15 C16 1_555 1_555
C22 C23 1_555 1_555
C29 C30 1_555 1_555
C39 C40 1_555 1_555
C46 C47 1_555 1_555
C53 C54 1_555 1_555
C60 C61 1_555 1_555
C67 C68 1_555 1_555
C77 C78 1_555 1_555
C94 C95 1_555 1_555
C102 C103 1_555 1_555
C108 C109 1_555 1_555
C117 C118 1_555 1_555
C124 C125 1_555 1_555
C132 C133 1_555 1_555
C138 C139 1_555 1_555
C144 C145 1_555 1_555
C147 C148 1_555 1_555
C154 C155 1_555 1_555

#END
