
#######################################################################
#
#                 Cambridge Crystallographic Data Centre
#                                CCDC 
#
#######################################################################
#
# If this CIF has been generated from an entry in the Cambridge 
# Structural Database, then it will include bibliographic, chemical, 
# crystal, experimental, refinement or atomic coordinate data resulting 
# from the CCDC's data processing and validation procedures.
#
#######################################################################

data_KUPTUM
_chemical_formula_moiety         'C12 H13 B1 F2 O4'
_chemical_name_systematic        
'(ethyl 3-(hydroxy)-3-(4-methoxyphenyl)acrylatato)(difluoro)borate'
_symmetry_cell_setting           triclinic
_symmetry_space_group_name_H-M   'P -1'
_symmetry_Int_Tables_number      2
_space_group_name_Hall           '-P 1'
loop_
_symmetry_equiv_pos_site_id
_symmetry_equiv_pos_as_xyz
1 x,y,z
2 -x,-y,-z
_cell_length_a                   6.9547(11)
_cell_length_b                   8.5168(14)
_cell_length_c                   11.8751(18)
_cell_angle_alpha                82.715(13)
_cell_angle_beta                 78.561(13)
_cell_angle_gamma                67.088(16)
_cell_volume                     634.061
_cell_formula_units_Z            2
loop_
_atom_site_label
_atom_site_type_symbol
_atom_site_fract_x
_atom_site_fract_y
_atom_site_fract_z
F1 F -0.4989(2) 0.38436(18) 0.74877(12)
F2 F -0.2617(2) 0.18448(15) 0.84709(12)
O1 O -0.1188(2) 0.62125(17) 0.87158(11)
O2 O 0.5874(3) 0.08824(19) 0.24657(13)
O3 O -0.1459(2) 0.28978(18) 0.66855(13)
O4 O -0.2891(2) 0.46488(18) 0.83687(12)
C1 C 0.1687(3) 0.2739(2) 0.54368(15)
C2 C 0.0282(3) 0.4483(2) 0.71675(17)
H1 H 0.1441 0.4811 0.7024
C3 C -0.1304(3) 0.5101(2) 0.80946(16)
C4 C 0.4908(3) 0.2537(3) 0.41429(18)
H2 H 0.6094 0.2829 0.3948
C5 C 0.1384(4) 0.1696(2) 0.47324(18)
H3 H 0.0200 0.1402 0.4927
C6 C 0.4578(3) 0.1511(2) 0.34546(17)
C7 C 0.2799(4) 0.1094(3) 0.37581(19)
H4 H 0.2564 0.0402 0.3298
C8 C -0.2821(4) 0.6832(3) 0.97279(18)
H5 H -0.2778 0.5902 1.0299
H6 H -0.4217 0.7320 0.9509
C9 C 0.3472(3) 0.3129(3) 0.51214(18)
H7 H 0.3716 0.3813 0.5584
C10 C -0.2344(4) 0.8154(3) 1.01974(18)
H8 H -0.3319 0.8546 1.0891
H9 H -0.2478 0.9097 0.9641
H10 H -0.0925 0.7672 1.0363
C11 C 0.7680(4) 0.1319(3) 0.2100(2)
H11 H 0.8622 0.0858 0.2654
H12 H 0.7248 0.2539 0.2030
H13 H 0.8393 0.0857 0.1367
C12 C 0.0146(3) 0.3396(2) 0.64664(16)
B1 B -0.3007(4) 0.3265(3) 0.7746(2)
loop_
_geom_bond_atom_site_label_1
_geom_bond_atom_site_label_2
_geom_bond_site_symmetry_1
_geom_bond_site_symmetry_2
F1 B1 1_555 1_555
F2 B1 1_555 1_555
O1 C3 1_555 1_555
O2 C6 1_555 1_555
O3 C12 1_555 1_555
O4 C3 1_555 1_555
C1 C5 1_555 1_555
C2 H1 1_555 1_555
C3 C2 1_555 1_555
C4 H2 1_555 1_555
C5 H3 1_555 1_555
C6 C4 1_555 1_555
C7 C5 1_555 1_555
H4 C7 1_555 1_555
C8 O1 1_555 1_555
H5 C8 1_555 1_555
H6 C8 1_555 1_555
C9 C1 1_555 1_555
H7 C9 1_555 1_555
C10 C8 1_555 1_555
H8 C10 1_555 1_555
H9 C10 1_555 1_555
H10 C10 1_555 1_555
C11 O2 1_555 1_555
H11 C11 1_555 1_555
H12 C11 1_555 1_555
H13 C11 1_555 1_555
C12 C1 1_555 1_555
B1 O3 1_555 1_555
O4 B1 1_555 1_555
C2 C12 1_555 1_555
C4 C9 1_555 1_555
C6 C7 1_555 1_555

#END
