
#######################################################################
#
#                 Cambridge Crystallographic Data Centre
#                                CCDC 
#
#######################################################################
#
# If this CIF has been generated from an entry in the Cambridge 
# Structural Database, then it will include bibliographic, chemical, 
# crystal, experimental, refinement or atomic coordinate data resulting 
# from the CCDC's data processing and validation procedures.
#
#######################################################################

data_KUPVUM
_chemical_formula_moiety         'C8 H11 N3 O4'
_chemical_name_systematic        
(+)-(2R,4R)-1-(2-(Hydroxymethyl)-1,3-dioxolan-4-yl)cytosine
_symmetry_cell_setting           triclinic
_symmetry_space_group_name_H-M   'P 1'
_symmetry_Int_Tables_number      1
_space_group_name_Hall           'P 1'
loop_
_symmetry_equiv_pos_site_id
_symmetry_equiv_pos_as_xyz
1 x,y,z
_cell_length_a                   6.953(1)
_cell_length_b                   7.451(3)
_cell_length_c                   9.857(2)
_cell_angle_alpha                97.24(2)
_cell_angle_beta                 100.91(1)
_cell_angle_gamma                105.14(1)
_cell_volume                     475.66
_exptl_crystal_colour            colorless
_chemical_melting_point          181-183deg.C
_cell_formula_units_Z            2
loop_
_atom_site_label
_atom_site_type_symbol
_atom_site_fract_x
_atom_site_fract_y
_atom_site_fract_z
C1 C 0.757 0.142 0.673
C2 C 0.422(2) 0.057(2) 0.700(1)
C3 C 0.387(2) 0.213(2) 0.639(1)
C4 C 0.537(2) 0.330(2) 0.605(1)
C5 C 0.905(2) 0.429(2) 0.589(1)
C6 C 0.944(2) 0.358(2) 0.447(1)
C7 C 0.884(2) 0.635(2) 0.436(1)
C8 C 0.715(3) 0.725(2) 0.382(2)
N1 N 0.730(2) 0.300(1) 0.621(1)
N2 N 0.608(2) 0.025(2) 0.715(1)
N3 N 0.279(2) -0.057(2) 0.743(1)
O1 O 0.929(2) 0.114(2) 0.681(1)
O2 O 0.840(2) 0.456(2) 0.357(1)
O3 O 0.869(2) 0.605(1) 0.578(1)
O4 O 0.513(2) 0.623(2) 0.391(2)
H1 H 0.294(14) -0.122(12) 0.789(9)
H2 H 0.190(9) -0.037(8) 0.748(6)
H3 H 0.262(14) 0.258(12) 0.656(10)
H4 H 0.534(16) 0.454(14) 0.576(11)
H5 H 1.030(8) 0.457(7) 0.674(6)
H6 H 1.127(15) 0.412(13) 0.448(9)
H7 H 0.856(15) 0.185(13) 0.412(9)
H8 H 1.012(15) 0.736(13) 0.453(10)
C9 C 0.255(2) 1.542(1) -0.040(1)
C10 C 0.581(2) 1.613(2) -0.089(1)
C11 C 0.627(2) 1.474(2) -0.014(1)
C12 C 0.495(2) 1.382(2) 0.052(1)
C13 C 0.160(2) 1.325(2) 0.121(1)
C14 C 0.002(2) 1.154(2) 0.036(1)
C15 C 0.181(2) 1.062(2) 0.211(1)
C16 C 0.348(3) 0.958(2) 0.242(2)
N4 N 0.305(2) 1.414(2) 0.042(1)
N5 N 0.392(2) 1.642(2) -0.103(1)
N6 N 0.715(2) 1.714(2) -0.147(1)
O7 O 0.083(2) 1.562(2) -0.052(1)
O8 O 0.090(2) 1.006(2) 0.067(1)
O9 O 0.265(2) 1.262(1) 0.236(1)
O10 O 0.491(2) 0.985(2) 0.155(1)
H9 H 0.718(17) 1.806(14) -0.182(11)
H10 H 0.737(11) 1.477(9) 0.006(7)
H11 H 0.496(11) 1.252(11) 0.090(8)
H12 H 0.107(12) 1.408(10) 0.161(8)
H13 H -0.030(13) 1.157(12) -0.080(10)
H14 H -0.122(18) 1.121(16) 0.079(11)
H15 H 0.090(17) 0.978(14) 0.284(10)
H16 H 0.445(13) 1.060(11) 0.327(9)
O5? O 0.804(6) 0.901(4) 0.419(4)
O6? O 0.752(5) 0.811(6) 0.275(4)
O11? O 0.250(6) 0.793(4) 0.245(4)
loop_
_geom_bond_atom_site_label_1
_geom_bond_atom_site_label_2
_geom_bond_site_symmetry_1
_geom_bond_site_symmetry_2
C1 N1 1_555 1_555
C2 C3 1_555 1_555
C3 C4 1_555 1_555
C4 N1 1_555 1_555
C5 C6 1_555 1_555
C6 O2 1_555 1_555
C7 C8 1_555 1_555
C8 O4 1_555 1_555
N1 C5 1_555 1_555
N2 C1 1_555 1_555
N3 C2 1_555 1_555
O1 C1 1_555 1_555
O2 C7 1_555 1_555
O3 C5 1_555 1_555
C9 N4 1_555 1_555
C10 C11 1_555 1_555
C11 C12 1_555 1_555
C12 N4 1_555 1_555
C13 C14 1_555 1_555
C14 O8 1_555 1_555
C15 C16 1_555 1_555
C16 O10 1_555 1_555
N4 C13 1_555 1_555
N5 C9 1_555 1_555
N6 C10 1_555 1_555
O7 C9 1_555 1_555
O8 C15 1_555 1_555
O9 C13 1_555 1_555
H1 N3 1_555 1_555
H2 N3 1_555 1_555
H3 C3 1_555 1_555
H4 C4 1_555 1_555
H5 C5 1_555 1_555
H6 C6 1_555 1_555
H7 C6 1_555 1_555
H8 C7 1_555 1_555
H9 N6 1_555 1_555
H10 C11 1_555 1_555
H11 C12 1_555 1_555
H12 C13 1_555 1_555
H13 C14 1_555 1_555
H14 C14 1_555 1_555
H15 C15 1_555 1_555
H16 C16 1_555 1_555
C2 N2 1_555 1_555
C7 O3 1_555 1_555
C10 N5 1_555 1_555
C15 O9 1_555 1_555

#END
