
#######################################################################
#
#                 Cambridge Crystallographic Data Centre
#                                CCDC 
#
#######################################################################
#
# If this CIF has been generated from an entry in the Cambridge 
# Structural Database, then it will include bibliographic, chemical, 
# crystal, experimental, refinement or atomic coordinate data resulting 
# from the CCDC's data processing and validation procedures.
#
#######################################################################

data_KUPWOJ
_chemical_formula_moiety         'C34 H20 S2'
_chemical_name_systematic        
2,9-Diphenylnaphtho[2,3-b]naphtho[2',3':4,5]thieno[2,3-d]thiophene
_symmetry_cell_setting           monoclinic
_symmetry_space_group_name_H-M   'P 21/c'
_symmetry_Int_Tables_number      14
_space_group_name_Hall           '-P 2ybc'
loop_
_symmetry_equiv_pos_site_id
_symmetry_equiv_pos_as_xyz
1 x,y,z
2 -x,1/2+y,1/2-z
3 -x,-y,-z
4 x,1/2-y,1/2+z
_cell_length_a                   24.320(7)
_cell_length_b                   7.613(2)
_cell_length_c                   6.1826(18)
_cell_angle_alpha                90
_cell_angle_beta                 94.301(4)
_cell_angle_gamma                90
_cell_volume                     1141.47
_exptl_crystal_colour            yellow
_exptl_crystal_description       Platelet
_cell_formula_units_Z            2
loop_
_atom_site_label
_atom_site_type_symbol
_atom_site_fract_x
_atom_site_fract_y
_atom_site_fract_z
S1 S 0.53283(2) -0.10407(7) 0.29778(9)
C1 C 0.58862(8) -0.0553(3) 0.1454(3)
C2 C 0.64334(9) -0.0810(3) 0.2125(4)
H1 H 0.6535 -0.1310 0.3506
C3 C 0.68429(8) -0.0319(3) 0.0730(4)
C4 C 0.74126(9) -0.0479(3) 0.1410(4)
H2 H 0.7517 -0.0963 0.2796
C5 C 0.78185(9) 0.0053(3) 0.0104(4)
C6 C 0.76551(9) 0.0706(3) -0.2005(4)
H3 H 0.7931 0.1025 -0.2943
C7 C 0.71100(9) 0.0887(3) -0.2717(4)
H4 H 0.7015 0.1333 -0.4130
C8 C 0.66845(8) 0.0412(3) -0.1362(3)
C9 C 0.61194(9) 0.0662(3) -0.2019(4)
H5 H 0.6013 0.1145 -0.3404
C10 C 0.57231(8) 0.0197(3) -0.0631(3)
C11 C 0.48703(8) -0.0304(3) 0.0871(3)
C12 C 0.84140(9) -0.0002(3) 0.0906(4)
C13 C 0.86011(10) -0.1140(3) 0.2576(4)
H6 H 0.8349 -0.1914 0.3190
C14 C 0.91561(10) -0.1148(3) 0.3350(4)
H7 H 0.9278 -0.1917 0.4497
C15 C 0.95295(10) -0.0039(4) 0.2452(4)
H8 H 0.9907 -0.0052 0.2971
C16 C 0.93483(10) 0.1082(3) 0.0798(4)
H9 H 0.9604 0.1841 0.0181
C17 C 0.87969(9) 0.1119(3) 0.0020(4)
H10 H 0.8679 0.1906 -0.1114
S1B S 0.46717(2) 0.10407(7) -0.29778(9)
C1B C 0.41138(8) 0.0553(3) -0.1454(3)
C2B C 0.35666(9) 0.0810(3) -0.2125(4)
H1B H 0.3465 0.1310 -0.3506
C3B C 0.31571(8) 0.0319(3) -0.0730(4)
C4B C 0.25874(9) 0.0479(3) -0.1410(4)
H2B H 0.2483 0.0963 -0.2796
C5B C 0.21815(9) -0.0053(3) -0.0104(4)
C6B C 0.23449(9) -0.0706(3) 0.2005(4)
H3B H 0.2069 -0.1025 0.2943
C7B C 0.28900(9) -0.0887(3) 0.2717(4)
H4B H 0.2985 -0.1333 0.4130
C8B C 0.33155(8) -0.0412(3) 0.1362(3)
C9B C 0.38806(9) -0.0662(3) 0.2019(4)
H5B H 0.3987 -0.1145 0.3404
C10B C 0.42769(8) -0.0197(3) 0.0631(3)
C11B C 0.51297(8) 0.0304(3) -0.0871(3)
C12B C 0.15860(9) 0.0002(3) -0.0906(4)
C13B C 0.13989(10) 0.1140(3) -0.2576(4)
H6B H 0.1651 0.1914 -0.3190
C14B C 0.08439(10) 0.1148(3) -0.3350(4)
H7B H 0.0722 0.1917 -0.4497
C15B C 0.04705(10) 0.0039(4) -0.2452(4)
H8B H 0.0093 0.0052 -0.2971
C16B C 0.06517(10) -0.1082(3) -0.0798(4)
H9B H 0.0396 -0.1841 -0.0181
C17B C 0.12031(9) -0.1119(3) -0.0020(4)
H10B H 0.1321 -0.1906 0.1114
loop_
_geom_bond_atom_site_label_1
_geom_bond_atom_site_label_2
_geom_bond_site_symmetry_1
_geom_bond_site_symmetry_2
S1 C1 1_555 1_555
C1 C2 1_555 1_555
C2 H1 1_555 1_555
C3 C2 1_555 1_555
C4 C3 1_555 1_555
H2 C4 1_555 1_555
C5 C4 1_555 1_555
C6 C5 1_555 1_555
H3 C6 1_555 1_555
C7 C6 1_555 1_555
H4 C7 1_555 1_555
C8 C3 1_555 1_555
C9 C8 1_555 1_555
H5 C9 1_555 1_555
C10 C1 1_555 1_555
C11 S1 1_555 1_555
C12 C5 1_555 1_555
C13 C12 1_555 1_555
H6 C13 1_555 1_555
C14 C13 1_555 1_555
H7 C14 1_555 1_555
C15 C14 1_555 1_555
H8 C15 1_555 1_555
C16 C15 1_555 1_555
H9 C16 1_555 1_555
C17 C12 1_555 1_555
H10 C17 1_555 1_555
S1B C1B 1_555 1_555
C1B C2B 1_555 1_555
C2B H1B 1_555 1_555
C3B C2B 1_555 1_555
C4B C3B 1_555 1_555
H2B C4B 1_555 1_555
C5B C4B 1_555 1_555
C6B C5B 1_555 1_555
H3B C6B 1_555 1_555
C7B C6B 1_555 1_555
H4B C7B 1_555 1_555
C8B C3B 1_555 1_555
C9B C8B 1_555 1_555
H5B C9B 1_555 1_555
C10B C11 1_555 1_555
C11B C10 1_555 1_555
C12B C5B 1_555 1_555
C13B C12B 1_555 1_555
H6B C13B 1_555 1_555
C14B C13B 1_555 1_555
H7B C14B 1_555 1_555
C15B C14B 1_555 1_555
H8B C15B 1_555 1_555
C16B C15B 1_555 1_555
H9B C16B 1_555 1_555
C17B C12B 1_555 1_555
H10B C17B 1_555 1_555
C7 C8 1_555 1_555
C9 C10 1_555 1_555
C11 C11B 1_555 1_555
C16 C17 1_555 1_555
S1B C11B 1_555 1_555
C1B C10B 1_555 1_555
C7B C8B 1_555 1_555
C9B C10B 1_555 1_555
C16B C17B 1_555 1_555

#END
