
#######################################################################
#
#                 Cambridge Crystallographic Data Centre
#                                CCDC 
#
#######################################################################
#
# If this CIF has been generated from an entry in the Cambridge 
# Structural Database, then it will include bibliographic, chemical, 
# crystal, experimental, refinement or atomic coordinate data resulting 
# from the CCDC's data processing and validation procedures.
#
#######################################################################

data_KUQBUV
_chemical_formula_moiety         'C17 H20 O2 Si1'
_chemical_name_systematic        4,6-Dimethyl-2,2-diphenyl-1,3,2-dioxasilinane
_symmetry_cell_setting           triclinic
_symmetry_space_group_name_H-M   'P -1'
_symmetry_Int_Tables_number      2
_space_group_name_Hall           '-P 1'
loop_
_symmetry_equiv_pos_site_id
_symmetry_equiv_pos_as_xyz
1 x,y,z
2 -x,-y,-z
_cell_length_a                   7.821(2)
_cell_length_b                   8.589(3)
_cell_length_c                   13.088(4)
_cell_angle_alpha                84.193(4)
_cell_angle_beta                 86.915(4)
_cell_angle_gamma                63.190(4)
_cell_volume                     780.615
_exptl_crystal_colour            colorless
_exptl_crystal_description       plate
_cell_formula_units_Z            2
loop_
_atom_site_label
_atom_site_type_symbol
_atom_site_fract_x
_atom_site_fract_y
_atom_site_fract_z
Si1 Si 0.20415(7) 0.13421(7) 0.25392(4)
C1 C 0.2460(3) 0.3112(3) 0.30109(16)
C2 C 0.3077(3) 0.4114(3) 0.23309(18)
H1 H 0.3289 0.3875 0.163
C3 C 0.3389(3) 0.5462(3) 0.26581(19)
H2 H 0.3796 0.6142 0.2183
C4 C 0.3102(3) 0.5793(3) 0.3671(2)
H3 H 0.3326 0.6701 0.3899
C5 C 0.2495(4) 0.4831(3) 0.4361(2)
H4 H 0.229 0.5076 0.5061
C6 C 0.2178(3) 0.3487(3) 0.40294(18)
H5 H 0.1762 0.282 0.451
C7 C 0.4363(3) -0.0533(2) 0.22389(16)
C8 C 0.4857(3) -0.0985(3) 0.12420(18)
H6 H 0.397 -0.0353 0.0707
C9 C 0.6619(4) -0.2339(3) 0.1006(2)
H7 H 0.6929 -0.2622 0.0315
C10 C 0.7910(3) -0.3266(3) 0.1770(2)
H8 H 0.9117 -0.419 0.1609
C11 C 0.7462(3) -0.2864(3) 0.2765(2)
H9 H 0.8357 -0.3516 0.3294
C12 C 0.5705(3) -0.1505(3) 0.30046(18)
H10 H 0.5412 -0.1233 0.3698
C13 C -0.0782(6) 0.0457(6) 0.3233(4)
H11 H -0.0406 -0.0807 0.3441
C14 C -0.2322(12) 0.1514(10) 0.3981(7)
H12 H -0.1804 0.1209 0.4678
H13 H -0.3414 0.1251 0.3956
H14 H -0.2743 0.2766 0.3793
C15 C -0.1326(7) 0.0779(8) 0.2139(3)
H15 H -0.2661 0.095 0.2103
H16 H -0.05 -0.0289 0.1795
C16 C -0.1196(6) 0.2325(7) 0.1530(4)
H17 H -0.198 0.3393 0.1899
C17 C -0.191(2) 0.267(2) 0.0473(12)
H18 H -0.1811 0.3692 0.0136
H19 H -0.3258 0.2886 0.049
H20 H -0.1151 0.1644 0.009
O1 O 0.07883(19) 0.20720(19) 0.14875(11)
O2 O 0.0839(2) 0.0755(2) 0.34117(12)
C18? C -0.1232(14) 0.1308(18) 0.3228(9)
H21? H -0.1724 0.2538 0.3415
C19? C -0.198(2) 0.0684(19) 0.4098(15)
H22? H -0.334 0.1036 0.3993
H23? H -0.1831 0.118 0.471
H24? H -0.128 -0.0597 0.4191
C20? C -0.1880(9) 0.1720(11) 0.2222(6)
H25? H -0.2867 0.2956 0.2181
H26? H -0.2558 0.101 0.213
C21? C -0.0538(11) 0.1532(11) 0.1234(6)
H27? H 0.0136 0.0277 0.108
C22? C -0.166(4) 0.263(4) 0.032(2)
H28? H -0.0797 0.2503 -0.027
H29? H -0.2317 0.3858 0.0469
H30? H -0.2615 0.2242 0.0159
loop_
_geom_bond_atom_site_label_1
_geom_bond_atom_site_label_2
_geom_bond_site_symmetry_1
_geom_bond_site_symmetry_2
Si1 C1 1_555 1_555
C1 C2 1_555 1_555
C2 H1 1_555 1_555
C3 C2 1_555 1_555
H2 C3 1_555 1_555
C4 C3 1_555 1_555
H3 C4 1_555 1_555
C5 C4 1_555 1_555
H4 C5 1_555 1_555
C6 C1 1_555 1_555
H5 C6 1_555 1_555
C7 Si1 1_555 1_555
C8 C7 1_555 1_555
H6 C8 1_555 1_555
C9 C8 1_555 1_555
H7 C9 1_555 1_555
C10 C9 1_555 1_555
H8 C10 1_555 1_555
C11 C10 1_555 1_555
H9 C11 1_555 1_555
C12 C7 1_555 1_555
H10 C12 1_555 1_555
C13 H11 1_555 1_555
C14 C13 1_555 1_555
H12 C14 1_555 1_555
H13 C14 1_555 1_555
H14 C14 1_555 1_555
C15 C13 1_555 1_555
H15 C15 1_555 1_555
H16 C15 1_555 1_555
C16 C15 1_555 1_555
H17 C16 1_555 1_555
C17 C16 1_555 1_555
H18 C17 1_555 1_555
H19 C17 1_555 1_555
H20 C17 1_555 1_555
O1 Si1 1_555 1_555
O2 Si1 1_555 1_555
C5 C6 1_555 1_555
C11 C12 1_555 1_555
C13 O2 1_555 1_555
C16 O1 1_555 1_555

#END
