
#######################################################################
#
#                 Cambridge Crystallographic Data Centre
#                                CCDC 
#
#######################################################################
#
# If this CIF has been generated from an entry in the Cambridge 
# Structural Database, then it will include bibliographic, chemical, 
# crystal, experimental, refinement or atomic coordinate data resulting 
# from the CCDC's data processing and validation procedures.
#
#######################################################################

data_KUQRUL
_chemical_formula_moiety         'C46 H62 B4 O8'
_chemical_name_systematic        
2,2',2'',2'''-(1,4-Phenylenebis(2-phenylethene-1,1,2-triyl))tetrakis(4,4,5,5-tetramethyl-1,3,2-dioxaborolane)
_symmetry_cell_setting           monoclinic
_symmetry_space_group_name_H-M   'P 21/c'
_symmetry_Int_Tables_number      14
_space_group_name_Hall           '-P 2ybc'
loop_
_symmetry_equiv_pos_site_id
_symmetry_equiv_pos_as_xyz
1 x,y,z
2 -x,1/2+y,1/2-z
3 -x,-y,-z
4 x,1/2-y,1/2+z
_cell_length_a                   6.668(2)
_cell_length_b                   11.794(3)
_cell_length_c                   28.968(9)
_cell_angle_alpha                90
_cell_angle_beta                 90.446(5)
_cell_angle_gamma                90
_cell_volume                     2278.04
_exptl_crystal_colour            colorless
_exptl_crystal_description       block
_cell_formula_units_Z            2
loop_
_atom_site_label
_atom_site_type_symbol
_atom_site_fract_x
_atom_site_fract_y
_atom_site_fract_z
B1 B 0.7160(5) 0.3118(3) 0.09124(10)
B2 B 0.5364(5) 0.4085(3) 0.17850(10)
C1 C 0.1411(5) 0.5376(3) 0.14199(10)
H1 H 0.1052 0.4681 0.1546
C2 C -0.0008(6) 0.6218(3) 0.13783(13)
H2 H -0.1319 0.6085 0.1471
C3 C 0.0507(7) 0.7243(3) 0.12012(14)
H3 H -0.0453 0.7811 0.1172
C4 C 0.2445(7) 0.7441(3) 0.10646(12)
H4 H 0.2799 0.8145 0.0946
C5 C 0.3871(5) 0.6593(3) 0.11031(10)
H5 H 0.5181 0.6731 0.1011
C6 C 0.3362(4) 0.5546(2) 0.12774(8)
C7 C 0.4843(4) 0.4596(2) 0.13048(9)
C8 C 0.5767(4) 0.4192(2) 0.09267(8)
C9 C 0.5353(4) 0.4625(2) 0.04514(8)
C10 C 0.6923(4) 0.4946(2) 0.01701(9)
H6 H 0.8231 0.4906 0.0283
C11 C 0.3418(4) 0.4677(2) 0.02729(9)
H7 H 0.2342 0.4455 0.0454
C12 C 0.7866(5) 0.1326(3) 0.07152(14)
C13 C 0.7686(10) 0.0191(4) 0.0907(3)
H8 H 0.7847 0.0224 0.1237
H9 H 0.8704 -0.0289 0.0780
H10 H 0.6387 -0.0112 0.0833
C14 C 0.7334(8) 0.1290(5) 0.01893(18)
H11 H 0.5932 0.1130 0.0150
H12 H 0.8107 0.0708 0.0042
H13 H 0.7637 0.2010 0.0052
C15 C 0.9816(5) 0.1966(3) 0.07875(13)
C16 C 1.0823(10) 0.1711(5) 0.1252(2)
H14 H 1.1518 0.2375 0.1360
H15 H 1.1762 0.1101 0.1216
H16 H 0.9823 0.1498 0.1473
C17 C 1.1376(7) 0.1866(4) 0.0430(2)
H17 H 1.0840 0.2110 0.0138
H18 H 1.1800 0.1090 0.0408
H19 H 1.2502 0.2333 0.0513
C18 C 0.7179(7) 0.3263(4) 0.23571(12)
C19 C 0.8031(7) 0.2122(3) 0.24545(14)
H20 H 0.7233 0.1555 0.2302
H21 H 0.8027 0.1987 0.2781
H22 H 0.9382 0.2086 0.2343
C20 C 0.8633(7) 0.4236(4) 0.25366(16)
H23 H 0.9819 0.4250 0.2351
H24 H 0.8997 0.4092 0.2853
H25 H 0.7962 0.4954 0.2515
C21 C 0.5177(8) 0.3524(5) 0.25259(13)
C22 C 0.3872(7) 0.2361(5) 0.2495(2)
H26 H 0.4167 0.1975 0.2212
H27 H 0.2469 0.2541 0.2504
H28 H 0.4209 0.1881 0.2752
C23 C 0.4860(8) 0.4080(5) 0.29801(12)
H29 H 0.5269 0.3575 0.3223
H30 H 0.3465 0.4261 0.3014
H31 H 0.5640 0.4763 0.2997
O1 O 0.6371(3) 0.20698(18) 0.09043(9)
O2 O 0.9149(3) 0.31349(17) 0.08198(8)
O3 O 0.6937(4) 0.3408(2) 0.18587(7)
O4 O 0.4359(4) 0.4290(3) 0.21704(7)
B1B B 0.2840(5) 0.6882(3) -0.09124(10)
B2B B 0.4636(5) 0.5915(3) -0.17850(10)
C1B C 0.8589(5) 0.4624(3) -0.14199(10)
H1B H 0.8948 0.5319 -0.1546
C2B C 1.0008(6) 0.3782(3) -0.13783(13)
H2B H 1.1319 0.3915 -0.1471
C3B C 0.9493(7) 0.2757(3) -0.12012(14)
H3B H 1.0453 0.2189 -0.1172
C4B C 0.7555(7) 0.2559(3) -0.10646(12)
H4B H 0.7201 0.1855 -0.0946
C5B C 0.6129(5) 0.3407(3) -0.11031(10)
H5B H 0.4819 0.3269 -0.1011
C6B C 0.6638(4) 0.4454(2) -0.12774(8)
C7B C 0.5157(4) 0.5404(2) -0.13048(9)
C8B C 0.4233(4) 0.5808(2) -0.09267(8)
C9B C 0.4647(4) 0.5375(2) -0.04514(8)
C10B C 0.3077(4) 0.5054(2) -0.01701(9)
H6B H 0.1769 0.5094 -0.0283
C11B C 0.6582(4) 0.5323(2) -0.02729(9)
H7B H 0.7658 0.5545 -0.0454
C12B C 0.2134(5) 0.8674(3) -0.07152(14)
C13B C 0.2314(10) 0.9809(4) -0.0907(3)
H8B H 0.2153 0.9776 -0.1237
H9B H 0.1296 1.0289 -0.0780
H10B H 0.3613 1.0112 -0.0833
C14B C 0.2666(8) 0.8710(5) -0.01893(18)
H11B H 0.4068 0.8870 -0.0150
H12B H 0.1893 0.9292 -0.0042
H13B H 0.2363 0.7990 -0.0052
C15B C 0.0184(5) 0.8034(3) -0.07875(13)
C16B C -0.0823(10) 0.8289(5) -0.1252(2)
H14B H -0.1518 0.7625 -0.1360
H15B H -0.1762 0.8899 -0.1216
H16B H 0.0177 0.8502 -0.1473
C17B C -0.1376(7) 0.8134(4) -0.0430(2)
H17B H -0.0840 0.7890 -0.0138
H18B H -0.1800 0.8910 -0.0408
H19B H -0.2502 0.7667 -0.0513
C18B C 0.2821(7) 0.6737(4) -0.23571(12)
C19B C 0.1969(7) 0.7878(3) -0.24545(14)
H20B H 0.2767 0.8445 -0.2302
H21B H 0.1973 0.8013 -0.2781
H22B H 0.0618 0.7914 -0.2343
C20B C 0.1367(7) 0.5764(4) -0.25366(16)
H23B H 0.0181 0.5750 -0.2351
H24B H 0.1003 0.5908 -0.2853
H25B H 0.2038 0.5046 -0.2515
C21B C 0.4823(8) 0.6476(5) -0.25259(13)
C22B C 0.6128(7) 0.7639(5) -0.2495(2)
H26B H 0.5833 0.8025 -0.2212
H27B H 0.7531 0.7459 -0.2504
H28B H 0.5791 0.8119 -0.2752
C23B C 0.5140(8) 0.5920(5) -0.29801(12)
H29B H 0.4731 0.6425 -0.3223
H30B H 0.6535 0.5739 -0.3014
H31B H 0.4360 0.5237 -0.2997
O1B O 0.3629(3) 0.79302(18) -0.09043(9)
O2B O 0.0851(3) 0.68651(17) -0.08198(8)
O3B O 0.3063(4) 0.6592(2) -0.18587(7)
O4B O 0.5641(4) 0.5710(3) -0.21704(7)
loop_
_geom_bond_atom_site_label_1
_geom_bond_atom_site_label_2
_geom_bond_site_symmetry_1
_geom_bond_site_symmetry_2
B1 C8 1_555 1_555
B2 C7 1_555 1_555
C1 H1 1_555 1_555
C2 C1 1_555 1_555
H2 C2 1_555 1_555
C3 C2 1_555 1_555
H3 C3 1_555 1_555
C4 C3 1_555 1_555
H4 C4 1_555 1_555
C5 C4 1_555 1_555
H5 C5 1_555 1_555
C6 C1 1_555 1_555
C7 C6 1_555 1_555
C8 C7 1_555 1_555
C9 C8 1_555 1_555
C10 C9 1_555 1_555
H6 C10 1_555 1_555
C11 C9 1_555 1_555
H7 C11 1_555 1_555
C12 C13 1_555 1_555
C13 H8 1_555 1_555
H9 C13 1_555 1_555
H10 C13 1_555 1_555
C14 C12 1_555 1_555
H11 C14 1_555 1_555
H12 C14 1_555 1_555
H13 C14 1_555 1_555
C15 C12 1_555 1_555
C16 C15 1_555 1_555
H14 C16 1_555 1_555
H15 C16 1_555 1_555
H16 C16 1_555 1_555
C17 C15 1_555 1_555
H17 C17 1_555 1_555
H18 C17 1_555 1_555
H19 C17 1_555 1_555
C18 C19 1_555 1_555
C19 H20 1_555 1_555
H21 C19 1_555 1_555
H22 C19 1_555 1_555
C20 C18 1_555 1_555
H23 C20 1_555 1_555
H24 C20 1_555 1_555
H25 C20 1_555 1_555
C21 C18 1_555 1_555
C22 C21 1_555 1_555
H26 C22 1_555 1_555
H27 C22 1_555 1_555
H28 C22 1_555 1_555
C23 C21 1_555 1_555
H29 C23 1_555 1_555
H30 C23 1_555 1_555
H31 C23 1_555 1_555
O1 B1 1_555 1_555
O2 B1 1_555 1_555
O3 B2 1_555 1_555
O4 B2 1_555 1_555
B1B C8B 1_555 1_555
B2B C7B 1_555 1_555
C1B H1B 1_555 1_555
C2B C1B 1_555 1_555
H2B C2B 1_555 1_555
C3B C2B 1_555 1_555
H3B C3B 1_555 1_555
C4B C3B 1_555 1_555
H4B C4B 1_555 1_555
C5B C4B 1_555 1_555
H5B C5B 1_555 1_555
C6B C1B 1_555 1_555
C7B C6B 1_555 1_555
C8B C7B 1_555 1_555
C9B C8B 1_555 1_555
C10B C11 1_555 1_555
H6B C10B 1_555 1_555
C11B C10 1_555 1_555
H7B C11B 1_555 1_555
C12B C13B 1_555 1_555
C13B H8B 1_555 1_555
H9B C13B 1_555 1_555
H10B C13B 1_555 1_555
C14B C12B 1_555 1_555
H11B C14B 1_555 1_555
H12B C14B 1_555 1_555
H13B C14B 1_555 1_555
C15B C12B 1_555 1_555
C16B C15B 1_555 1_555
H14B C16B 1_555 1_555
H15B C16B 1_555 1_555
H16B C16B 1_555 1_555
C17B C15B 1_555 1_555
H17B C17B 1_555 1_555
H18B C17B 1_555 1_555
H19B C17B 1_555 1_555
C18B C19B 1_555 1_555
C19B H20B 1_555 1_555
H21B C19B 1_555 1_555
H22B C19B 1_555 1_555
C20B C18B 1_555 1_555
H23B C20B 1_555 1_555
H24B C20B 1_555 1_555
H25B C20B 1_555 1_555
C21B C18B 1_555 1_555
C22B C21B 1_555 1_555
H26B C22B 1_555 1_555
H27B C22B 1_555 1_555
H28B C22B 1_555 1_555
C23B C21B 1_555 1_555
H29B C23B 1_555 1_555
H30B C23B 1_555 1_555
H31B C23B 1_555 1_555
O1B B1B 1_555 1_555
O2B B1B 1_555 1_555
O3B B2B 1_555 1_555
O4B B2B 1_555 1_555
C5 C6 1_555 1_555
C12 O1 1_555 1_555
C15 O2 1_555 1_555
C18 O3 1_555 1_555
C21 O4 1_555 1_555
C5B C6B 1_555 1_555
C9B C10B 1_555 1_555
C9B C11B 1_555 1_555
C12B O1B 1_555 1_555
C15B O2B 1_555 1_555
C18B O3B 1_555 1_555
C21B O4B 1_555 1_555

#END
