
#######################################################################
#
#                 Cambridge Crystallographic Data Centre
#                                CCDC 
#
#######################################################################
#
# If this CIF has been generated from an entry in the Cambridge 
# Structural Database, then it will include bibliographic, chemical, 
# crystal, experimental, refinement or atomic coordinate data resulting 
# from the CCDC's data processing and validation procedures.
#
#######################################################################

data_KUQTOH
_chemical_formula_moiety         'C19 H22 O6'
_chemical_name_systematic        
'5-((3-(2-Furyl)propanoyl)oxy)pentyl 3-(2-furyl)acrylate'
_symmetry_cell_setting           orthorhombic
_symmetry_space_group_name_H-M   'P n a 21'
_symmetry_Int_Tables_number      33
_space_group_name_Hall           'P 2c -2n'
loop_
_symmetry_equiv_pos_site_id
_symmetry_equiv_pos_as_xyz
1 x,y,z
2 -x,-y,1/2+z
3 1/2-x,1/2+y,1/2+z
4 1/2+x,1/2-y,z
_cell_length_a                   22.9356(9)
_cell_length_b                   10.4908(4)
_cell_length_c                   7.3765(3)
_cell_angle_alpha                90
_cell_angle_beta                 90
_cell_angle_gamma                90
_cell_volume                     1774.88
_exptl_crystal_colour            yellowish
_exptl_crystal_description       Plane
_cell_formula_units_Z            4
loop_
_atom_site_label
_atom_site_type_symbol
_atom_site_fract_x
_atom_site_fract_y
_atom_site_fract_z
O1 O -0.71327(8) -0.03050(19) 0.2727(4)
O2 O -0.52718(8) -0.24690(17) 0.0511(3)
O3 O -0.22355(8) -0.33298(19) -0.2260(3)
O4 O -0.58938(13) -0.4111(2) 0.0663(5)
C1 C -0.76521(13) 0.0182(3) 0.3278(6)
H1 H -0.7731 0.1048 0.3390
C2 C -0.72014(12) -0.1609(3) 0.2722(5)
C3 C -0.67322(14) -0.2394(3) 0.2048(5)
H2 H -0.6808 -0.3264 0.1989
C4 C -0.62033(14) -0.2028(3) 0.1496(6)
H3 H -0.6099 -0.1171 0.1524
C5 C -0.57888(15) -0.2990(4) 0.0848(6)
C6 C -0.48392(11) -0.3395(3) -0.0066(5)
H4 H -0.4970 -0.3826 -0.1156
H5 H -0.4781 -0.4029 0.0874
C7 C -0.42785(11) -0.2695(3) -0.0429(4)
H6 H -0.4169 -0.2204 0.0631
H7 H -0.4332 -0.2110 -0.1434
C8 C -0.37969(11) -0.3650(3) -0.0884(4)
H8 H -0.3732 -0.4200 0.0154
H9 H -0.3923 -0.4181 -0.1887
C9 C -0.32285(11) -0.2997(3) -0.1386(4)
H10 H -0.3282 -0.2506 -0.2488
H11 H -0.3115 -0.2417 -0.0426
C10 C -0.27535(12) -0.3979(3) -0.1673(5)
H12 H -0.2678 -0.4433 -0.0551
H13 H -0.2874 -0.4593 -0.2583
C11 C -0.80321(14) -0.0739(3) 0.3635(5)
H14 H -0.8413 -0.0634 0.4046
C12 C -0.77514(13) -0.1899(3) 0.3277(5)
H15 H -0.7910 -0.2711 0.3395
O5 O -0.1639(8) -0.494(2) -0.296(3)
C13 C -0.02781(14) -0.3493(3) -0.4507(6)
C14 C 0.03637(12) -0.1997(3) -0.5143(5)
H16 H 0.0535 -0.1201 -0.5307
C15 C 0.06256(12) -0.3116(3) -0.5476(5)
H17 H 0.1008 -0.3233 -0.5857
C16 C 0.02111(11) -0.4083(3) -0.5142(5)
H18 H 0.0262 -0.4953 -0.5319
C17 C -0.0903(7) -0.3754(17) -0.584(3)
C18 C -0.1397(8) -0.3038(19) -0.475(3)
O6 O -0.0168(12) -0.215(2) -0.528(3)
C19 C -0.1677(10) -0.381(2) -0.340(4)
H19? H 0.0551 -0.1235 -0.4860
H20? H 0.0271 -0.4926 -0.4797
H21? H -0.0969 -0.4675 -0.5768
H22? H -0.1248 -0.2247 -0.4217
C20? C -0.6733(8) -0.2237(19) 0.342(3)
H23? H -0.6779 -0.3158 0.3254
C21? C -0.6169(8) -0.176(2) 0.239(3)
H24? H -0.6275 -0.1037 0.1607
O7? O -0.6033(8) -0.3872(19) 0.116(3)
C22? C -0.5887(11) -0.269(3) 0.135(4)
O8? O -0.02002(19) -0.2196(4) -0.4517(5)
C23? C -0.0282(9) -0.348(2) -0.545(4)
C24? C -0.08160(13) -0.4010(3) -0.3867(5)
C25? C -0.12828(13) -0.3383(3) -0.3274(5)
H25? H -0.1284 -0.2497 -0.3246
O9? O -0.18177(13) -0.5260(3) -0.2542(5)
C26? C -0.17958(14) -0.4103(3) -0.2664(6)
H26? H -0.0843 -0.4894 -0.3864
loop_
_geom_bond_atom_site_label_1
_geom_bond_atom_site_label_2
_geom_bond_site_symmetry_1
_geom_bond_site_symmetry_2
O1 C1 1_555 1_555
O2 C5 1_555 1_555
O3 C10 1_555 1_555
O4 C5 1_555 1_555
C1 H1 1_555 1_555
C2 O1 1_555 1_555
C3 C2 1_555 1_555
H2 C3 1_555 1_555
C4 C3 1_555 1_555
H3 C4 1_555 1_555
C5 C4 1_555 1_555
C6 O2 1_555 1_555
H4 C6 1_555 1_555
H5 C6 1_555 1_555
C7 C6 1_555 1_555
H6 C7 1_555 1_555
H7 C7 1_555 1_555
C8 C7 1_555 1_555
H8 C8 1_555 1_555
H9 C8 1_555 1_555
C9 C8 1_555 1_555
H10 C9 1_555 1_555
H11 C9 1_555 1_555
C10 C9 1_555 1_555
H12 C10 1_555 1_555
H13 C10 1_555 1_555
C11 C1 1_555 1_555
H14 C11 1_555 1_555
C12 C2 1_555 1_555
H15 C12 1_555 1_555
O5 C19 1_555 1_555
C13 C16 1_555 1_555
C14 H16 1_555 1_555
C15 C14 1_555 1_555
H17 C15 1_555 1_555
C16 C15 1_555 1_555
H18 C16 1_555 1_555
C17 C13 1_555 1_555
C18 C17 1_555 1_555
O6 C13 1_555 1_555
C19 O3 1_555 1_555
C11 C12 1_555 1_555
C14 O6 1_555 1_555
C18 C19 1_555 1_555

#END
