
#######################################################################
#
#                 Cambridge Crystallographic Data Centre
#                                CCDC 
#
#######################################################################
#
# If this CIF has been generated from an entry in the Cambridge 
# Structural Database, then it will include bibliographic, chemical, 
# crystal, experimental, refinement or atomic coordinate data resulting 
# from the CCDC's data processing and validation procedures.
#
#######################################################################

data_KUQVEZ
_chemical_formula_moiety         'C38 H28 N10 O7,1.5(C1 H4 O1),0.5(C1 H2 Cl2)'
_chemical_name_systematic        
'Methyl 6-(((6-(((6-(((6-(((6-(benzoylamino)pyridin-2-yl)carbonyl)amino)pyridin-2-yl)carbonyl)amino)pyridin-2-yl)carbonyl)amino)pyridin-2-yl)carbonyl)amino)pyridine-2-carboxylate dichloromethane methanol solvate'
_symmetry_cell_setting           monoclinic
_symmetry_space_group_name_H-M   'P 21/c'
_symmetry_Int_Tables_number      14
_space_group_name_Hall           '-P 2ybc'
loop_
_symmetry_equiv_pos_site_id
_symmetry_equiv_pos_as_xyz
1 x,y,z
2 -x,1/2+y,1/2-z
3 -x,-y,-z
4 x,1/2-y,1/2+z
_cell_length_a                   13.5456(13)
_cell_length_b                   10.4106(10)
_cell_length_c                   27.394(3)
_cell_angle_alpha                90
_cell_angle_beta                 96.946(2)
_cell_angle_gamma                90
_cell_volume                     3834.69
_exptl_crystal_colour            colorless
_exptl_crystal_description       rod
_cell_formula_units_Z            4
loop_
_atom_site_label
_atom_site_type_symbol
_atom_site_fract_x
_atom_site_fract_y
_atom_site_fract_z
C39 C -0.0205(3) 0.7432(4) 0.26248(14)
H29 H -0.0266 0.7562 0.2974
H30 H -0.0845 0.7608 0.2429
H31 H 0.0302 0.8015 0.2524
O8 O 0.00798(18) 0.6137(3) 0.25469(9)
H32 H 0.0665 0.6018 0.2679
O1 O 0.36672(18) 1.0056(3) 0.22018(10)
O2 O 0.11928(19) 0.9183(3) 0.44824(9)
O3 O -0.40655(18) 0.8643(3) 0.32130(9)
O4 O -0.25925(19) 0.7792(3) 0.06440(9)
O5 O 0.29559(18) 0.7157(2) 0.13827(9)
O6 O 0.1285(2) 0.6224(3) 0.36463(10)
O7 O 0.2780(2) 0.6148(3) 0.40939(9)
N1 N 0.2178(2) 1.0114(3) 0.25032(10)
H1 H 0.1514(13) 1.023(4) 0.2467(7)
N2 N 0.1742(2) 0.9739(3) 0.32680(10)
N3 N 0.0188(2) 0.9404(3) 0.37537(10)
H2 H 0.024(3) 0.945(4) 0.3428(7)
N4 N -0.1462(2) 0.9046(3) 0.35140(10)
N5 N -0.2777(2) 0.8523(3) 0.27425(10)
H3 H -0.2116(14) 0.861(4) 0.2760(14)
N6 N -0.2624(2) 0.8177(3) 0.19294(10)
N7 N -0.1334(2) 0.7771(3) 0.12837(10)
H4 H -0.126(3) 0.780(4) 0.1612(7)
N8 N 0.0347(2) 0.7479(3) 0.13553(10)
N9 N 0.1931(2) 0.6946(3) 0.19860(10)
H5 H 0.1285(14) 0.699(4) 0.2013(14)
N10 N 0.2160(2) 0.6570(3) 0.28119(10)
C1 C 0.2258(3) 1.0395(3) 0.16187(13)
C2 C 0.2872(3) 1.0469(4) 0.12465(14)
H6 H 0.3572 1.0398 0.1325
C3 C 0.2465(3) 1.0644(4) 0.07629(14)
H7 H 0.2887 1.0694 0.0511
C4 C 0.1454(3) 1.0747(4) 0.06467(13)
H8 H 0.1178 1.0858 0.0314
C5 C 0.0836(3) 1.0688(4) 0.10143(13)
H9 H 0.0137 1.0775 0.0934
C6 C 0.1235(3) 1.0504(3) 0.14973(12)
H10 H 0.0808 1.0452 0.1748
C7 C 0.2764(2) 1.0179(3) 0.21289(13)
C8 C 0.2488(2) 0.9882(3) 0.30029(12)
C9 C 0.3488(3) 0.9820(3) 0.32087(13)
H11 H 0.4012 0.9925 0.3011
C10 C 0.3686(3) 0.9602(4) 0.37067(14)
H12 H 0.4355 0.9545 0.3856
C11 C 0.2912(3) 0.9465(3) 0.39894(13)
H13 H 0.3037 0.9328 0.4334
C12 C 0.1948(3) 0.9534(3) 0.37533(12)
C13 C 0.1080(3) 0.9360(3) 0.40383(12)
C14 C -0.0767(3) 0.9235(3) 0.38937(12)
C15 C -0.0977(3) 0.9290(3) 0.43799(13)
H14 H -0.0462 0.9412 0.4644
C16 C -0.1951(3) 0.9161(4) 0.44656(13)
H15 H -0.2119 0.9205 0.4792
C17 C -0.2691(3) 0.8967(4) 0.40744(14)
H16 H -0.3368 0.8879 0.4127
C18 C -0.2408(3) 0.8906(3) 0.36064(13)
C19 C -0.3178(3) 0.8686(3) 0.31745(13)
C20 C -0.3249(2) 0.8355(3) 0.22635(12)
C21 C -0.4282(3) 0.8384(3) 0.21449(14)
H17 H -0.4709 0.8493 0.2392
C22 C -0.4662(3) 0.8250(4) 0.16569(15)
H18 H -0.5361 0.8270 0.1564
C23 C -0.4029(3) 0.8087(4) 0.13041(13)
H19 H -0.4279 0.8004 0.0966
C24 C -0.3014(3) 0.8047(3) 0.14584(13)
C25 C -0.2305(3) 0.7860(3) 0.10835(12)
C26 C -0.0482(2) 0.7637(3) 0.10467(12)
C27 C -0.0496(3) 0.7656(3) 0.05342(12)
H20 H -0.1103 0.7724 0.0322
C28 C 0.0406(3) 0.7572(4) 0.03499(13)
H21 H 0.0426 0.7602 0.0005
C29 C 0.1279(3) 0.7444(3) 0.06619(13)
H22 H 0.1905 0.7403 0.0539
C30 C 0.1205(2) 0.7379(3) 0.11605(12)
C31 C 0.2131(2) 0.7157(3) 0.15158(12)
C32 C 0.2601(2) 0.6731(3) 0.24049(12)
C33 C 0.3638(3) 0.6694(3) 0.24116(13)
H23 H 0.3935 0.6787 0.2117
C34 C 0.4214(3) 0.6519(3) 0.28559(14)
H24 H 0.4917 0.6483 0.2870
C35 C 0.3765(3) 0.6397(3) 0.32828(13)
H25 H 0.4150 0.6306 0.3594
C36 C 0.2738(2) 0.6411(3) 0.32389(12)
C37 C 0.2169(3) 0.6247(3) 0.36728(13)
C38 C 0.2296(3) 0.6060(4) 0.45337(14)
H26 H 0.1898 0.6834 0.4566
H27 H 0.2800 0.5980 0.4821
H28 H 0.1862 0.5304 0.4513
C40? C -0.4730(11) 0.664(2) 0.0086(6)
H33? H -0.4145 0.6916 0.0313
H34? H -0.4628 0.5742 -0.0016
Cl1? Cl -0.5802(6) 0.6775(8) 0.0361(3)
Cl2? Cl -0.4913(7) 0.7633(9) -0.0414(3)
C41? C 0.4802(13) 1.3512(11) -0.0064(8)
H35? H 0.4185 1.3184 -0.0254
H36? H 0.4994 1.2935 0.0219
Cl3? Cl 0.5746(5) 1.3650(7) -0.0430(3)
Cl4? Cl 0.4649(4) 1.5070(7) 0.0129(2)
O9? O 0.4892(6) 1.2046(6) 0.0310(3)
H37? H 0.4475 1.2459 0.0119
C42? C 0.4910(5) 1.0745(7) 0.0152(4)
H38? H 0.5544 1.0567 0.0027
H39? H 0.4362 1.0597 -0.0110
H40? H 0.4835 1.0175 0.0430
loop_
_geom_bond_atom_site_label_1
_geom_bond_atom_site_label_2
_geom_bond_site_symmetry_1
_geom_bond_site_symmetry_2
O1 C7 1_555 1_555
O2 C13 1_555 1_555
O3 C19 1_555 1_555
O4 C25 1_555 1_555
O5 C31 1_555 1_555
O6 C37 1_555 1_555
O7 C37 1_555 1_555
N1 H1 1_555 1_555
N2 C8 1_555 1_555
N3 H2 1_555 1_555
N4 C14 1_555 1_555
N5 H3 1_555 1_555
N6 C20 1_555 1_555
N7 H4 1_555 1_555
N8 C26 1_555 1_555
N9 H5 1_555 1_555
N10 C32 1_555 1_555
C1 C2 1_555 1_555
C2 H6 1_555 1_555
C3 C2 1_555 1_555
H7 C3 1_555 1_555
C4 C3 1_555 1_555
H8 C4 1_555 1_555
C5 C4 1_555 1_555
H9 C5 1_555 1_555
C6 C1 1_555 1_555
H10 C6 1_555 1_555
C7 N1 1_555 1_555
C8 N1 1_555 1_555
C9 C8 1_555 1_555
H11 C9 1_555 1_555
C10 C9 1_555 1_555
H12 C10 1_555 1_555
C11 C10 1_555 1_555
H13 C11 1_555 1_555
C12 N2 1_555 1_555
C13 N3 1_555 1_555
C14 N3 1_555 1_555
C15 C14 1_555 1_555
H14 C15 1_555 1_555
C16 C15 1_555 1_555
H15 C16 1_555 1_555
C17 C16 1_555 1_555
H16 C17 1_555 1_555
C18 N4 1_555 1_555
C19 N5 1_555 1_555
C20 N5 1_555 1_555
C21 C20 1_555 1_555
H17 C21 1_555 1_555
C22 C21 1_555 1_555
H18 C22 1_555 1_555
C23 C22 1_555 1_555
H19 C23 1_555 1_555
C24 N6 1_555 1_555
C25 N7 1_555 1_555
C26 N7 1_555 1_555
C27 C26 1_555 1_555
H20 C27 1_555 1_555
C28 C27 1_555 1_555
H21 C28 1_555 1_555
C29 C28 1_555 1_555
H22 C29 1_555 1_555
C30 N8 1_555 1_555
C31 N9 1_555 1_555
C32 N9 1_555 1_555
C33 C32 1_555 1_555
H23 C33 1_555 1_555
C34 C33 1_555 1_555
H24 C34 1_555 1_555
C35 C34 1_555 1_555
H25 C35 1_555 1_555
C36 N10 1_555 1_555
C37 C36 1_555 1_555
C38 O7 1_555 1_555
H26 C38 1_555 1_555
H27 C38 1_555 1_555
H28 C38 1_555 1_555
C39 H29 1_555 1_555
H30 C39 1_555 1_555
H31 C39 1_555 1_555
O8 C39 1_555 1_555
H32 O8 1_555 1_555
C1 C7 1_555 1_555
C5 C6 1_555 1_555
C11 C12 1_555 1_555
C12 C13 1_555 1_555
C17 C18 1_555 1_555
C18 C19 1_555 1_555
C23 C24 1_555 1_555
C24 C25 1_555 1_555
C29 C30 1_555 1_555
C30 C31 1_555 1_555
C35 C36 1_555 1_555

#END
