
#######################################################################
#
#                 Cambridge Crystallographic Data Centre
#                                CCDC 
#
#######################################################################
#
# If this CIF has been generated from an entry in the Cambridge 
# Structural Database, then it will include bibliographic, chemical, 
# crystal, experimental, refinement or atomic coordinate data resulting 
# from the CCDC's data processing and validation procedures.
#
#######################################################################

data_KUQVID01
_chemical_formula_moiety         'C38 H28 N10 O7,C1 H2 Cl2,2(H2 O1)'
_chemical_name_systematic        
'Methyl 6-(((6-(((6-(((6-(((6-(benzoylamino)pyridin-2-yl)carbonyl)amino)pyridin-2-yl)carbonyl)amino)pyridin-2-yl)carbonyl)amino)pyridin-2-yl)carbonyl)amino)pyridine-2-carboxylate dichloromethane solvate dihydrate'
_symmetry_cell_setting           monoclinic
_symmetry_space_group_name_H-M   'P 21'
_symmetry_Int_Tables_number      4
_space_group_name_Hall           'P 2yb'
loop_
_symmetry_equiv_pos_site_id
_symmetry_equiv_pos_as_xyz
1 x,y,z
2 -x,1/2+y,-z
_cell_length_a                   13.4675(16)
_cell_length_b                   10.3791(12)
_cell_length_c                   13.7432(16)
_cell_angle_alpha                90
_cell_angle_beta                 95.610(2)
_cell_angle_gamma                90
_cell_volume                     1911.83
_exptl_crystal_colour            colorless
_exptl_crystal_description       Block
_cell_formula_units_Z            2
loop_
_atom_site_label
_atom_site_type_symbol
_atom_site_fract_x
_atom_site_fract_y
_atom_site_fract_z
O1 O 0.37575(19) 0.9947(3) 0.9021(2)
O2 O 0.1047(2) 0.9274(3) 1.35146(18)
O3 O -0.41593(19) 0.8261(3) 1.10714(19)
O4 O -0.25831(18) 0.7693(3) 0.59452(17)
O5 O 0.29127(18) 0.6822(3) 0.75481(17)
O6 O 0.10699(19) 0.6064(3) 1.20695(18)
O7 O 0.25682(19) 0.6003(3) 1.29265(17)
N1 N 0.2216(2) 0.9812(3) 0.9566(2)
H1 H 0.1630(17) 0.964(4) 0.934(3)
N2 N 0.1686(2) 0.9587(3) 1.1088(2)
N3 N 0.0080(2) 0.9150(3) 1.2050(2)
H2 H 0.011(3) 0.913(4) 1.1419(15)
N4 N -0.1566(2) 0.8695(3) 1.1619(2)
N5 N -0.2855(2) 0.8072(3) 1.0128(2)
H3 H -0.2236(15) 0.812(4) 1.016(3)
N6 N -0.2690(2) 0.7848(3) 0.8512(2)
N7 N -0.1373(2) 0.7588(3) 0.7240(2)
H4 H -0.128(3) 0.754(4) 0.7857(14)
N8 N 0.0300(2) 0.7268(3) 0.7419(2)
N9 N 0.1828(2) 0.6791(3) 0.8726(2)
H5 H 0.1209(16) 0.684(4) 0.884(3)
N10 N 0.1981(2) 0.6435(3) 1.0384(2)
C1 C 0.2378(3) 1.0179(3) 0.7837(3)
C2 C 0.2973(3) 1.0022(4) 0.7082(3)
H6 H 0.3656 0.9803 0.7226
C3 C 0.2590(3) 1.0179(4) 0.6126(3)
H7 H 0.3009 1.0059 0.5616
C4 C 0.1598(3) 1.0511(4) 0.5901(3)
H8 H 0.1331 1.0598 0.5239
C5 C 0.1000(3) 1.0713(4) 0.6649(3)
H9 H 0.0323 1.0963 0.6501
C6 C 0.1382(3) 1.0554(3) 0.7612(3)
H10 H 0.0968 1.0698 0.8123
C7 C 0.2846(3) 0.9977(3) 0.8858(3)
C8 C 0.2474(3) 0.9659(3) 1.0572(3)
C9 C 0.3459(3) 0.9571(4) 1.1010(3)
H11 H 0.4008 0.9608 1.0627
C10 C 0.3605(3) 0.9428(4) 1.2009(3)
H12 H 0.4264 0.9382 1.2325
C11 C 0.2789(3) 0.9350(4) 1.2557(3)
H13 H 0.2877 0.9248 1.3247
C12 C 0.1855(3) 0.9428(3) 1.2062(2)
C13 C 0.0961(3) 0.9287(3) 1.2618(3)
C14 C -0.0873(3) 0.8970(3) 1.2357(3)
C15 C -0.1092(3) 0.9086(3) 1.3324(3)
H14 H -0.0588 0.9295 1.3831
C16 C -0.2075(3) 0.8885(4) 1.3522(3)
H15 H -0.2250 0.8940 1.4174
C17 C -0.2799(3) 0.8605(4) 1.2762(3)
H16 H -0.3473 0.8465 1.2881
C18 C -0.2509(3) 0.8536(3) 1.1831(3)
C19 C -0.3275(3) 0.8277(3) 1.0983(3)
C20 C -0.3324(3) 0.7944(3) 0.9186(2)
C21 C -0.4357(3) 0.7950(3) 0.8970(3)
H17 H -0.4791 0.8015 0.9473
C22 C -0.4730(3) 0.7855(4) 0.7997(3)
H18 H -0.5430 0.7850 0.7823
C23 C -0.4082(3) 0.7770(4) 0.7277(3)
H19 H -0.4324 0.7717 0.6606
C24 C -0.3070(3) 0.7764(3) 0.7570(3)
C25 C -0.2328(3) 0.7675(3) 0.6825(3)
C26 C -0.0491(2) 0.7503(3) 0.6789(2)
C27 C -0.0432(3) 0.7682(3) 0.5795(2)
H20 H -0.1011 0.7858 0.5364
C28 C 0.0498(3) 0.7594(4) 0.5452(3)
H21 H 0.0563 0.7702 0.4775
C29 C 0.1332(3) 0.7350(3) 0.6095(2)
H22 H 0.1977 0.7294 0.5872
C30 C 0.1198(2) 0.7189(3) 0.7072(2)
C31 C 0.2073(2) 0.6915(3) 0.7799(2)
C32 C 0.2457(3) 0.6521(3) 0.9581(2)
C33 C 0.3489(2) 0.6366(3) 0.9576(2)
H23 H 0.3799 0.6413 0.8985
C34 C 0.4040(3) 0.6144(3) 1.0459(3)
H24 H 0.4743 0.6041 1.0485
C35 C 0.3568(3) 0.6069(3) 1.1308(3)
H25 H 0.3937 0.5935 1.1924
C36 C 0.2539(3) 0.6198(3) 1.1227(2)
C37 C 0.1962(3) 0.6088(3) 1.2097(3)
C38 C 0.2070(3) 0.5962(4) 1.3818(3)
H26 H 0.1812 0.6821 1.3952
H27 H 0.2546 0.5692 1.4365
H28 H 0.1516 0.5347 1.3738
O8 O -0.0034(2) 0.4350(3) 0.0665(2)
H29 H 0.034(3) 0.469(4) 0.114(2)
H30 H 0.011(3) 0.357(2) 0.048(3)
O9 O 0.0174(2) 0.1842(3) 0.0190(2)
H31 H -0.037(2) 0.179(5) -0.017(3)
H32 H 0.050(3) 0.117(3) 0.035(3)
C39 C 0.4992(10) 0.6079(13) 0.4903(8)
H33 H 0.5677 0.6199 0.5224
H34 H 0.4969 0.5223 0.4583
Cl1 Cl 0.4780(3) 0.7247(6) 0.3999(3)
Cl2 Cl 0.4167(2) 0.6065(4) 0.58063(19)
C40? C 0.5311(11) 0.6766(8) 0.4448(14)
H35? H 0.5976 0.7018 0.4761
H36? H 0.5358 0.6703 0.3735
Cl3? Cl 0.4997(5) 0.5245(5) 0.4891(7)
Cl4? Cl 0.4445(5) 0.7975(5) 0.4666(6)
loop_
_geom_bond_atom_site_label_1
_geom_bond_atom_site_label_2
_geom_bond_site_symmetry_1
_geom_bond_site_symmetry_2
O1 C7 1_555 1_555
O2 C13 1_555 1_555
O3 C19 1_555 1_555
O4 C25 1_555 1_555
O5 C31 1_555 1_555
O6 C37 1_555 1_555
O7 C37 1_555 1_555
N1 H1 1_555 1_555
N2 C8 1_555 1_555
N3 H2 1_555 1_555
N4 C14 1_555 1_555
N5 H3 1_555 1_555
N6 C20 1_555 1_555
N7 H4 1_555 1_555
N8 C26 1_555 1_555
N9 H5 1_555 1_555
N10 C32 1_555 1_555
C1 C2 1_555 1_555
C2 H6 1_555 1_555
C3 C2 1_555 1_555
H7 C3 1_555 1_555
C4 C3 1_555 1_555
H8 C4 1_555 1_555
C5 C4 1_555 1_555
H9 C5 1_555 1_555
C6 C1 1_555 1_555
H10 C6 1_555 1_555
C7 N1 1_555 1_555
C8 N1 1_555 1_555
C9 C8 1_555 1_555
H11 C9 1_555 1_555
C10 C9 1_555 1_555
H12 C10 1_555 1_555
C11 C10 1_555 1_555
H13 C11 1_555 1_555
C12 N2 1_555 1_555
C13 N3 1_555 1_555
C14 N3 1_555 1_555
C15 C14 1_555 1_555
H14 C15 1_555 1_555
C16 C15 1_555 1_555
H15 C16 1_555 1_555
C17 C16 1_555 1_555
H16 C17 1_555 1_555
C18 N4 1_555 1_555
C19 N5 1_555 1_555
C20 N5 1_555 1_555
C21 C20 1_555 1_555
H17 C21 1_555 1_555
C22 C21 1_555 1_555
H18 C22 1_555 1_555
C23 C22 1_555 1_555
H19 C23 1_555 1_555
C24 N6 1_555 1_555
C25 N7 1_555 1_555
C26 N7 1_555 1_555
C27 C26 1_555 1_555
H20 C27 1_555 1_555
C28 C27 1_555 1_555
H21 C28 1_555 1_555
C29 C28 1_555 1_555
H22 C29 1_555 1_555
C30 N8 1_555 1_555
C31 N9 1_555 1_555
C32 N9 1_555 1_555
C33 C32 1_555 1_555
H23 C33 1_555 1_555
C34 C33 1_555 1_555
H24 C34 1_555 1_555
C35 C34 1_555 1_555
H25 C35 1_555 1_555
C36 N10 1_555 1_555
C37 C36 1_555 1_555
C38 O7 1_555 1_555
H26 C38 1_555 1_555
H27 C38 1_555 1_555
H28 C38 1_555 1_555
O8 H29 1_555 1_555
H30 O8 1_555 1_555
O9 H31 1_555 1_555
H32 O9 1_555 1_555
C39 H33 1_555 1_555
H34 C39 1_555 1_555
Cl1 C39 1_555 1_555
Cl2 C39 1_555 1_555
C1 C7 1_555 1_555
C5 C6 1_555 1_555
C11 C12 1_555 1_555
C12 C13 1_555 1_555
C17 C18 1_555 1_555
C18 C19 1_555 1_555
C23 C24 1_555 1_555
C24 C25 1_555 1_555
C29 C30 1_555 1_555
C30 C31 1_555 1_555
C35 C36 1_555 1_555

#END
