
#######################################################################
#
#                 Cambridge Crystallographic Data Centre
#                                CCDC 
#
#######################################################################
#
# If this CIF has been generated from an entry in the Cambridge 
# Structural Database, then it will include bibliographic, chemical, 
# crystal, experimental, refinement or atomic coordinate data resulting 
# from the CCDC's data processing and validation procedures.
#
#######################################################################

data_KURBUV01
_chemical_formula_moiety         'C8 H1 F4 O4 1-,C3 H5 N2 1+'
_chemical_name_systematic        
'Imidazolium 4-carboxy-2,3,5,6-tetrafluorobenzoate'
_symmetry_cell_setting           orthorhombic
_symmetry_space_group_name_H-M   'P n a 21'
_symmetry_Int_Tables_number      33
_space_group_name_Hall           'P 2c -2n'
loop_
_symmetry_equiv_pos_site_id
_symmetry_equiv_pos_as_xyz
1 x,y,z
2 -x,-y,1/2+z
3 1/2+x,1/2-y,z
4 1/2-x,1/2+y,1/2+z
_cell_length_a                   9.7141(19)
_cell_length_b                   7.2300(14)
_cell_length_c                   17.407(4)
_cell_angle_alpha                90
_cell_angle_beta                 90
_cell_angle_gamma                90
_cell_volume                     1222.54
_exptl_crystal_colour            colorless
_exptl_crystal_description       block
_cell_formula_units_Z            4
loop_
_atom_site_label
_atom_site_type_symbol
_atom_site_fract_x
_atom_site_fract_y
_atom_site_fract_z
F1 F 0.63366(9) 0.40827(15) 0.39209(5)
F2 F 0.36961(8) 0.35193(15) 0.42045(5)
F3 F 0.42763(10) 0.59197(15) 0.67112(5)
F4 F 0.69145(9) 0.64959(14) 0.64211(5)
O1 O 0.90273(10) 0.48495(16) 0.55049(6)
H1 H 0.9834 0.5036 0.5389
O2 O 0.15461(10) 0.50867(16) 0.51184(6)
O3 O 0.20125(11) 0.36450(16) 0.62154(6)
O4 O 0.85983(11) 0.64121(18) 0.44258(7)
C1 C 0.23544(12) 0.44431(17) 0.56183(7)
C2 C 0.82264(13) 0.55909(17) 0.49892(8)
C3 C 0.47559(13) 0.54487(17) 0.60162(7)
C4 C 0.38834(12) 0.47246(17) 0.54626(7)
C5 C 0.44649(14) 0.42875(18) 0.47592(8)
C6 C 0.58440(13) 0.45741(18) 0.46126(8)
C7 C 0.61419(14) 0.57327(17) 0.58700(8)
C8 C 0.67194(13) 0.53030(18) 0.51627(7)
N1 N 0.14277(16) 0.5889(2) 0.35057(8)
H2 H 0.1560 0.5788 0.3992
N2 N 0.16287(15) 0.6766(2) 0.23474(8)
H3 H 0.1917 0.7335 0.1944
C9 C 0.0589(2) 0.5502(3) 0.23666(10)
H4 H 0.0065 0.5102 0.1952
C10 C 0.04660(19) 0.4949(3) 0.30929(11)
H5 H -0.0157 0.4085 0.3282
C11 C 0.21174(19) 0.6971(3) 0.30434(10)
H6 H 0.2833 0.7754 0.3185
loop_
_geom_bond_atom_site_label_1
_geom_bond_atom_site_label_2
_geom_bond_site_symmetry_1
_geom_bond_site_symmetry_2
F1 C6 1_555 1_555
F2 C5 1_555 1_555
F3 C3 1_555 1_555
F4 C7 1_555 1_555
O1 H1 1_555 1_555
O2 C1 1_555 1_555
O3 C1 1_555 1_555
O4 C2 1_555 1_555
C1 C4 1_555 1_555
C2 O1 1_555 1_555
C3 C4 1_555 1_555
C4 C5 1_555 1_555
C5 C6 1_555 1_555
C6 C8 1_555 1_555
C7 C3 1_555 1_555
C8 C2 1_555 1_555
N1 H2 1_555 1_555
N2 H3 1_555 1_555
C9 N2 1_555 1_555
H4 C9 1_555 1_555
C10 N1 1_555 1_555
H5 C10 1_555 1_555
C11 N1 1_555 1_555
H6 C11 1_555 1_555
C7 C8 1_555 1_555
N2 C11 1_555 1_555
C9 C10 1_555 1_555

#END
