
#######################################################################
#
#                 Cambridge Crystallographic Data Centre
#                                CCDC 
#
#######################################################################
#
# If this CIF has been generated from an entry in the Cambridge 
# Structural Database, then it will include bibliographic, chemical, 
# crystal, experimental, refinement or atomic coordinate data resulting 
# from the CCDC's data processing and validation procedures.
#
#######################################################################

data_KURCUW
_chemical_formula_moiety         'C11 H17 N4 1+,H2 O4 P1 1-'
_chemical_name_systematic        
'4-((3,5-Dimethyl-1H-pyrazol-4-yl)methyl)-3,5-dimethyl-1H-pyrazol-2-ium dihydrogen phosphate'
_symmetry_cell_setting           triclinic
_symmetry_space_group_name_H-M   'P -1'
_symmetry_Int_Tables_number      2
_space_group_name_Hall           '-P 1'
loop_
_symmetry_equiv_pos_site_id
_symmetry_equiv_pos_as_xyz
1 x,y,z
2 -x,-y,-z
_cell_length_a                   7.649(4)
_cell_length_b                   10.504(2)
_cell_length_c                   10.538(2)
_cell_angle_alpha                117.624(3)
_cell_angle_beta                 104.576(4)
_cell_angle_gamma                94.663(4)
_cell_volume                     706.403
_exptl_crystal_colour            brown
_exptl_crystal_description       flake
_cell_formula_units_Z            2
loop_
_atom_site_label
_atom_site_type_symbol
_atom_site_fract_x
_atom_site_fract_y
_atom_site_fract_z
P1 P 0.39358(13) 0.05811(10) -0.31027(10)
O1 O 0.3604(3) -0.0879(2) -0.4499(3)
O2 O 0.4609(3) 0.0548(3) -0.1632(2)
O3 O 0.5414(4) 0.1740(3) -0.3051(3)
H1 H 0.5581 0.1402 -0.3874
O4 O 0.2154(4) 0.1154(3) -0.3088(4)
H2 H 0.2244 0.1867 -0.3215
N1 N 0.0607(4) 0.6786(3) 0.3971(3)
H3 H 0.1403 0.7620 0.4517
N2 N 0.2495(4) 0.1435(3) 0.0302(3)
H4 H 0.3054 0.1305 -0.0347
N3 N 0.2854(4) 0.0944(3) 0.1294(3)
H5 H 0.3682 0.0459 0.1390
N4 N -0.1193(4) 0.6618(3) 0.3240(3)
C1 C 0.1130(5) 0.2159(4) 0.0482(4)
C2 C 0.0441(7) 0.2893(5) -0.0399(5)
H6 H 0.1072 0.3917 0.0169
H7 H -0.0869 0.2810 -0.0587
H8 H 0.0677 0.2425 -0.1347
C3 C 0.1765(6) 0.1002(5) 0.3339(4)
H9 H 0.2521 0.0304 0.3280
H10 H 0.0531 0.0590 0.3226
H11 H 0.2286 0.1893 0.4304
C4 C 0.1696(5) 0.1342(4) 0.2109(4)
C5 C 0.0586(5) 0.2114(3) 0.1613(4)
C6 C -0.0901(5) 0.2780(4) 0.2208(4)
H12 H -0.0971 0.2583 0.3009
H13 H -0.2085 0.2293 0.1398
C7 C -0.0611(4) 0.4416(3) 0.2815(4)
C8 C -0.1938(5) 0.5165(4) 0.2529(4)
C9 C -0.3950(5) 0.4581(4) 0.1581(4)
H14 H -0.4536 0.5391 0.1735
H15 H -0.4545 0.3966 0.1870
H16 H -0.4059 0.4011 0.0530
C10 C 0.1002(5) 0.5482(4) 0.3742(4)
C11 C 0.2918(5) 0.5410(4) 0.4450(4)
H17 H 0.3556 0.5111 0.3717
H18 H 0.2849 0.4708 0.4788
H19 H 0.3582 0.6366 0.5299
loop_
_geom_bond_atom_site_label_1
_geom_bond_atom_site_label_2
_geom_bond_site_symmetry_1
_geom_bond_site_symmetry_2
P1 O1 1_555 1_555
O2 P1 1_555 1_555
O3 P1 1_555 1_555
H1 O3 1_555 1_555
O4 P1 1_555 1_555
H2 O4 1_555 1_555
N1 H3 1_555 1_555
N2 H4 1_555 1_555
N3 N2 1_555 1_555
H5 N3 1_555 1_555
N4 N1 1_555 1_555
C1 N2 1_555 1_555
C2 C1 1_555 1_555
H6 C2 1_555 1_555
H7 C2 1_555 1_555
H8 C2 1_555 1_555
C3 H9 1_555 1_555
H10 C3 1_555 1_555
H11 C3 1_555 1_555
C4 N3 1_555 1_555
C5 C1 1_555 1_555
C6 C5 1_555 1_555
H12 C6 1_555 1_555
H13 C6 1_555 1_555
C7 C6 1_555 1_555
C8 N4 1_555 1_555
C9 C8 1_555 1_555
H14 C9 1_555 1_555
H15 C9 1_555 1_555
H16 C9 1_555 1_555
C10 N1 1_555 1_555
C11 C10 1_555 1_555
H17 C11 1_555 1_555
H18 C11 1_555 1_555
H19 C11 1_555 1_555
C3 C4 1_555 1_555
C4 C5 1_555 1_555
C7 C8 1_555 1_555
C7 C10 1_555 1_555

#END
