
#######################################################################
#
#                 Cambridge Crystallographic Data Centre
#                                CCDC 
#
#######################################################################
#
# If this CIF has been generated from an entry in the Cambridge 
# Structural Database, then it will include bibliographic, chemical, 
# crystal, experimental, refinement or atomic coordinate data resulting 
# from the CCDC's data processing and validation procedures.
#
#######################################################################

data_KURGUB
_chemical_formula_moiety         'C25 H26 N4 O4,C3 H7 N1 O1'
_chemical_name_systematic        
't-butyl 11-(3-methoxyphenyl)-10-oxo-1,6,7,8,10,11-hexahydro-9H-benzimidazo[5,4-b][1,6]naphthyridine-9-carboxylate N,N-dimethylformamide solvate'
_symmetry_cell_setting           triclinic
_symmetry_space_group_name_H-M   'P -1'
_symmetry_Int_Tables_number      2
_space_group_name_Hall           '-P 1'
loop_
_symmetry_equiv_pos_site_id
_symmetry_equiv_pos_as_xyz
1 x,y,z
2 -x,-y,-z
_cell_length_a                   11.5599(11)
_cell_length_b                   11.5774(12)
_cell_length_c                   11.8719(12)
_cell_angle_alpha                87.024(7)
_cell_angle_beta                 84.869(7)
_cell_angle_gamma                60.309(6)
_cell_volume                     1374.67
_exptl_crystal_colour            colorless
_cell_formula_units_Z            2
loop_
_atom_site_label
_atom_site_type_symbol
_atom_site_fract_x
_atom_site_fract_y
_atom_site_fract_z
O1 O 0.72252(15) 0.92297(15) 0.50415(13)
O2 O 0.95875(17) 0.8122(2) 0.38193(15)
O3 O 1.12708(15) 0.74177(17) 0.49542(14)
O4 O 0.3230(2) 1.37620(16) 0.67864(16)
C1 C 0.5988(2) 0.6960(2) 0.81863(16)
C2 C 0.5500(2) 0.6227(2) 0.88373(18)
H1 H 0.6074 0.5517 0.9277
C3 C 0.4198(2) 0.6536(2) 0.88364(19)
H2 H 0.3877 0.6050 0.9272
C4 C 0.3364(2) 0.7596(2) 0.81687(19)
C5 C 0.1762(3) 0.9071(3) 0.7278(2)
H3 H 0.0926 0.9581 0.6997
C6 C 0.3863(2) 0.8321(2) 0.75200(17)
C7 C 0.5192(2) 0.80341(19) 0.75123(16)
C8 C 0.57206(19) 0.88462(18) 0.68413(16)
H4 H 0.5384 0.9011 0.6087
C9 C 0.7228(2) 0.8060(2) 0.67019(16)
C10 C 0.7875(2) 0.8419(2) 0.57643(18)
C11 C 0.9903(2) 0.7254(3) 0.6800(2)
H5 H 0.9665 0.7976 0.7314
H6 H 1.0868 0.6773 0.6664
C12 C 0.9433(2) 0.6339(2) 0.7323(2)
H7 H 0.9790 0.5548 0.6866
H8 H 0.9755 0.6068 0.8072
C13 C 0.7945(2) 0.7022(2) 0.74061(17)
C14 C 0.5235(2) 1.0191(2) 0.73875(17)
C15 C 0.4447(2) 1.1355(2) 0.68119(18)
H9 H 0.4198 1.1320 0.6096
C16 C 0.4025(2) 1.2581(2) 0.7303(2)
C17 C 0.4418(3) 1.2635(3) 0.8351(2)
H10 H 0.4161 1.3453 0.8667
C18 C 0.5182(3) 1.1489(3) 0.8924(2)
H11 H 0.5427 1.1531 0.9640
C19 C 0.5601(2) 1.0254(2) 0.84491(19)
H12 H 0.6124 0.9476 0.8845
C20 C 0.2694(4) 1.3734(3) 0.5751(3)
H13 H 0.2156 1.4627 0.5481
H14 H 0.2153 1.3317 0.5883
H15 H 0.3412 1.3241 0.5196
C21 C 1.0022(2) 0.7814(2) 0.4728(2)
C22 C 1.2316(2) 0.7262(2) 0.4051(2)
C23 C 1.1974(3) 0.8590(3) 0.3532(4)
H16 H 1.1202 0.8900 0.3110
H17 H 1.2713 0.8508 0.3036
H18 H 1.1788 0.9212 0.4119
C24 C 1.3522(3) 0.6768(4) 0.4715(3)
H19 H 1.3736 0.5917 0.5045
H20 H 1.3339 0.7388 0.5303
H21 H 1.4264 0.6684 0.4220
C25 C 1.2489(4) 0.6266(4) 0.3216(3)
H22 H 1.1702 0.6612 0.2808
H23 H 1.2633 0.5462 0.3604
H24 H 1.3245 0.6079 0.2696
N1 N 0.27974(18) 0.9278(2) 0.69695(16)
H25 H 0.278(2) 0.9873(19) 0.6465(16)
N2 N 0.2023(2) 0.8103(2) 0.79987(19)
N3 N 0.73496(18) 0.65608(19) 0.81853(15)
H26 H 0.785(2) 0.5858(16) 0.8598(17)
N4 N 0.92809(17) 0.77990(18) 0.57177(15)
O5 O -0.1238(3) 0.4343(3) 0.9588(2)
C26 C -0.0695(3) 0.3190(4) 0.9900(3)
H27 H -0.1202 0.2928 1.0384
C27 C 0.1067(4) 0.0951(4) 1.0087(4)
H28 H 0.0384 0.0886 1.0563
H29 H 0.1803 0.0757 1.0525
H30 H 0.1370 0.0325 0.9482
C28 C 0.1392(4) 0.2586(5) 0.8889(4)
H31 H 0.0912 0.3497 0.8643
H32 H 0.1705 0.2015 0.8243
H33 H 0.2139 0.2447 0.9285
N5 N 0.0529(2) 0.2288(2) 0.96208(19)
loop_
_geom_bond_atom_site_label_1
_geom_bond_atom_site_label_2
_geom_bond_site_symmetry_1
_geom_bond_site_symmetry_2
O1 C10 1_555 1_555
O2 C21 1_555 1_555
O3 C21 1_555 1_555
O4 C16 1_555 1_555
C1 C2 1_555 1_555
C2 H1 1_555 1_555
C3 C2 1_555 1_555
H2 C3 1_555 1_555
C4 C3 1_555 1_555
C5 H3 1_555 1_555
C6 C4 1_555 1_555
C7 C1 1_555 1_555
C8 C7 1_555 1_555
H4 C8 1_555 1_555
C9 C8 1_555 1_555
C10 C9 1_555 1_555
C11 H5 1_555 1_555
H6 C11 1_555 1_555
C12 C11 1_555 1_555
H7 C12 1_555 1_555
H8 C12 1_555 1_555
C13 C9 1_555 1_555
C14 C8 1_555 1_555
C15 C14 1_555 1_555
H9 C15 1_555 1_555
C16 C15 1_555 1_555
C17 C16 1_555 1_555
H10 C17 1_555 1_555
C18 C17 1_555 1_555
H11 C18 1_555 1_555
C19 C14 1_555 1_555
H12 C19 1_555 1_555
C20 O4 1_555 1_555
H13 C20 1_555 1_555
H14 C20 1_555 1_555
H15 C20 1_555 1_555
C21 N4 1_555 1_555
C22 O3 1_555 1_555
C23 C22 1_555 1_555
H16 C23 1_555 1_555
H17 C23 1_555 1_555
H18 C23 1_555 1_555
C24 C22 1_555 1_555
H19 C24 1_555 1_555
H20 C24 1_555 1_555
H21 C24 1_555 1_555
C25 C22 1_555 1_555
H22 C25 1_555 1_555
H23 C25 1_555 1_555
H24 C25 1_555 1_555
N1 C5 1_555 1_555
H25 N1 1_555 1_555
N2 C4 1_555 1_555
N3 C1 1_555 1_555
H26 N3 1_555 1_555
N4 C10 1_555 1_555
O5 C26 1_555 1_555
C26 H27 1_555 1_555
C27 H28 1_555 1_555
H29 C27 1_555 1_555
H30 C27 1_555 1_555
C28 H31 1_555 1_555
H32 C28 1_555 1_555
H33 C28 1_555 1_555
N5 C26 1_555 1_555
C5 N2 1_555 1_555
C6 C7 1_555 1_555
C6 N1 1_555 1_555
C11 N4 1_555 1_555
C12 C13 1_555 1_555
C13 N3 1_555 1_555
C18 C19 1_555 1_555
C27 N5 1_555 1_555
C28 N5 1_555 1_555

#END
