
#######################################################################
#
#                 Cambridge Crystallographic Data Centre
#                                CCDC 
#
#######################################################################
#
# If this CIF has been generated from an entry in the Cambridge 
# Structural Database, then it will include bibliographic, chemical, 
# crystal, experimental, refinement or atomic coordinate data resulting 
# from the CCDC's data processing and validation procedures.
#
#######################################################################

data_KURHAI
_chemical_formula_moiety         'C25 H24 N4 O5,C3 H7 N1 O1'
_chemical_name_systematic        
't-butyl 11-(1,3-benzodioxol-5-yl)-10-oxo-1,6,7,8,10,11-hexahydro-9H-benzimidazo[5,4-b][1,6]naphthyridine-9-carboxylate N,N-dimethylformamide solvate'
_symmetry_cell_setting           triclinic
_symmetry_space_group_name_H-M   'P -1'
_symmetry_Int_Tables_number      2
_space_group_name_Hall           '-P 1'
loop_
_symmetry_equiv_pos_site_id
_symmetry_equiv_pos_as_xyz
1 x,y,z
2 -x,-y,-z
_cell_length_a                   10.7946(3)
_cell_length_b                   11.2049(4)
_cell_length_c                   12.5004(4)
_cell_angle_alpha                94.181(2)
_cell_angle_beta                 97.556(2)
_cell_angle_gamma                112.765(2)
_cell_volume                     1369.33
_exptl_crystal_colour            colorless
_cell_formula_units_Z            2
loop_
_atom_site_label
_atom_site_type_symbol
_atom_site_fract_x
_atom_site_fract_y
_atom_site_fract_z
C1 C 0.1006(3) 0.2909(2) 0.6884(2)
C2 C 0.0496(3) 0.1801(3) 0.6096(2)
H1 H 0.1080 0.1637 0.5679
C3 C -0.0840(3) 0.0963(3) 0.5930(2)
H2 H -0.1179 0.0237 0.5398
C4 C -0.1685(3) 0.1219(3) 0.6576(2)
C5 C -0.3338(3) 0.1215(3) 0.7322(3)
H3 H -0.4204 0.0971 0.7502
C6 C -0.1163(3) 0.2336(2) 0.7358(2)
C7 C 0.0195(3) 0.3226(2) 0.7532(2)
C8 C 0.0738(3) 0.4502(2) 0.8292(2)
H4 H 0.0395 0.4327 0.8977
C9 C 0.2280(3) 0.5063(2) 0.8536(2)
C10 C 0.2954(3) 0.6045(2) 0.9480(2)
C11 C 0.5008(3) 0.6689(3) 0.8598(3)
H5 H 0.5993 0.7066 0.8806
H6 H 0.4761 0.7193 0.8076
C12 C 0.4534(3) 0.5301(3) 0.8086(3)
H7 H 0.4900 0.4826 0.8563
H8 H 0.4860 0.5276 0.7401
C13 C 0.3006(3) 0.4675(3) 0.7891(2)
C14 C 0.0215(2) 0.5460(2) 0.7788(2)
C15 C -0.0591(3) 0.5945(3) 0.8305(2)
H9 H -0.0824 0.5705 0.8971
C16 C -0.1026(3) 0.6786(3) 0.7797(2)
C17 C -0.0687(3) 0.7156(3) 0.6815(2)
C18 C 0.0107(3) 0.6706(3) 0.6296(3)
H10 H 0.0347 0.6965 0.5636
C19 C 0.0541(3) 0.5845(3) 0.6799(2)
H11 H 0.1076 0.5510 0.6458
C20 C -0.1991(4) 0.8133(4) 0.7316(3)
H12 H -0.2949 0.7831 0.7005
H13 H -0.1667 0.9042 0.7623
C21 C 0.5119(3) 0.7734(3) 1.0426(3)
C22 C 0.7288(3) 0.9691(3) 1.0877(3)
C23 C 0.8218(5) 1.0386(4) 1.0127(4)
H14 H 0.8578 0.9813 0.9806
H15 H 0.8955 1.1148 1.0531
H16 H 0.7717 1.0644 0.9564
C24 C 0.6760(5) 1.0606(4) 1.1373(5)
H17 H 0.6167 1.0180 1.1863
H18 H 0.6261 1.0865 1.0810
H19 H 0.7510 1.1365 1.1767
C25 C 0.7929(5) 0.9137(5) 1.1675(5)
H20 H 0.7301 0.8721 1.2144
H21 H 0.8729 0.9819 1.2100
H22 H 0.8182 0.8505 1.1308
N1 N -0.3061(3) 0.0530(2) 0.6572(2)
N2 N -0.2263(3) 0.2308(2) 0.7816(2)
H23 H -0.229(3) 0.283(2) 0.8358(16)
N3 N 0.4377(2) 0.6750(2) 0.95720(19)
N4 N 0.2404(3) 0.3709(2) 0.7042(2)
H24 H 0.293(3) 0.349(3) 0.665(2)
O1 O 0.4866(2) 0.7724(2) 1.1328(2)
O2 O 0.6165(2) 0.8637(2) 1.01180(18)
O3 O -0.1831(2) 0.7388(2) 0.81447(19)
O4 O -0.1258(2) 0.8018(2) 0.65014(19)
O5 O 0.23172(19) 0.62772(17) 1.01492(15)
C26 C 0.4552(4) 0.2431(4) 0.5292(3)
H25 H 0.3997 0.1571 0.5001
C27 C 0.6748(6) 0.4205(4) 0.5528(5)
H26 H 0.6324 0.4626 0.5962
H27 H 0.7065 0.4709 0.4955
H28 H 0.7506 0.4140 0.5977
C28 C 0.6241(4) 0.2141(5) 0.4372(4)
H29 H 0.5512 0.1304 0.4113
H30 H 0.6992 0.2024 0.4785
H31 H 0.6534 0.2584 0.3764
N5 N 0.5768(3) 0.2912(3) 0.5059(2)
O6 O 0.4083(4) 0.3000(4) 0.5850(3)
loop_
_geom_bond_atom_site_label_1
_geom_bond_atom_site_label_2
_geom_bond_site_symmetry_1
_geom_bond_site_symmetry_2
C1 C2 1_555 1_555
C2 H1 1_555 1_555
C3 C2 1_555 1_555
H2 C3 1_555 1_555
C4 C3 1_555 1_555
C5 H3 1_555 1_555
C6 C4 1_555 1_555
C7 C1 1_555 1_555
C8 C7 1_555 1_555
H4 C8 1_555 1_555
C9 C8 1_555 1_555
C10 C9 1_555 1_555
C11 H5 1_555 1_555
H6 C11 1_555 1_555
C12 C11 1_555 1_555
H7 C12 1_555 1_555
H8 C12 1_555 1_555
C13 C9 1_555 1_555
C14 C8 1_555 1_555
C15 C14 1_555 1_555
H9 C15 1_555 1_555
C16 C15 1_555 1_555
C17 C16 1_555 1_555
C18 C17 1_555 1_555
H10 C18 1_555 1_555
C19 C14 1_555 1_555
H11 C19 1_555 1_555
C20 H12 1_555 1_555
H13 C20 1_555 1_555
C21 N3 1_555 1_555
C22 C23 1_555 1_555
C23 H14 1_555 1_555
H15 C23 1_555 1_555
H16 C23 1_555 1_555
C24 C22 1_555 1_555
H17 C24 1_555 1_555
H18 C24 1_555 1_555
H19 C24 1_555 1_555
C25 C22 1_555 1_555
H20 C25 1_555 1_555
H21 C25 1_555 1_555
H22 C25 1_555 1_555
N1 C4 1_555 1_555
N2 C5 1_555 1_555
H23 N2 1_555 1_555
N3 C10 1_555 1_555
N4 C1 1_555 1_555
H24 N4 1_555 1_555
O1 C21 1_555 1_555
O2 C21 1_555 1_555
O3 C16 1_555 1_555
O4 C17 1_555 1_555
O5 C10 1_555 1_555
C26 H25 1_555 1_555
C27 H26 1_555 1_555
H27 C27 1_555 1_555
H28 C27 1_555 1_555
C28 H29 1_555 1_555
H30 C28 1_555 1_555
H31 C28 1_555 1_555
N5 C26 1_555 1_555
O6 C26 1_555 1_555
C5 N1 1_555 1_555
C6 C7 1_555 1_555
C6 N2 1_555 1_555
C11 N3 1_555 1_555
C12 C13 1_555 1_555
C13 N4 1_555 1_555
C18 C19 1_555 1_555
C20 O3 1_555 1_555
C20 O4 1_555 1_555
C22 O2 1_555 1_555
C27 N5 1_555 1_555
C28 N5 1_555 1_555

#END
