
#######################################################################
#
#                 Cambridge Crystallographic Data Centre
#                                CCDC 
#
#######################################################################
#
# If this CIF has been generated from an entry in the Cambridge 
# Structural Database, then it will include bibliographic, chemical, 
# crystal, experimental, refinement or atomic coordinate data resulting 
# from the CCDC's data processing and validation procedures.
#
#######################################################################

data_KURKOZ
_chemical_name_common            
'26,28-dihydroxy-25,27-dipropoxy-5,17-dicyano-2,8,14,20-tetrathiacalix(4)arene chloroform solvate'
_chemical_formula_moiety         'C32 H26 N2 O4 S4,1.67(C1 H1 Cl3)'
_chemical_name_systematic        
'26,28-dihydroxy-25,27-dipropoxy-2,8,14,20-tetrathiapentacyclo[19.3.1.1^3,7^.1^9,13^.1^15,19^]octacosa-1(25),3(28),4,6,9(27),10,12,15(26),16,18,21,23-dodecaene-5,17-dicarbonitrile chloroform solvate'
_symmetry_cell_setting           trigonal
_symmetry_space_group_name_H-M   'P -3 c 1'
_symmetry_Int_Tables_number      165
_space_group_name_Hall           '-P 3 2"c'
loop_
_symmetry_equiv_pos_site_id
_symmetry_equiv_pos_as_xyz
1 x,y,z
2 -y,x-y,z
3 -x+y,-x,z
4 y,x,1/2-z
5 x-y,-y,1/2-z
6 -x,-x+y,1/2-z
7 -x,-y,-z
8 y,-x+y,-z
9 x-y,x,-z
10 -y,-x,1/2+z
11 -x+y,y,1/2+z
12 x,x-y,1/2+z
_cell_length_a                   23.994(6)
_cell_length_b                   23.994(6)
_cell_length_c                   11.648(5)
_cell_angle_alpha                90
_cell_angle_beta                 90
_cell_angle_gamma                120
_cell_volume                     5807.47
_exptl_crystal_colour            colorless
_exptl_crystal_description       needle
_cell_formula_units_Z            6
loop_
_atom_site_label
_atom_site_type_symbol
_atom_site_fract_x
_atom_site_fract_y
_atom_site_fract_z
S1 S 0.27498(14) 0.30546(14) 0.42188(18)
S2 S 0.20602(14) 0.39281(16) 0.8063(2)
O1 O 0.2047(3) 0.2951(3) 0.6447(5)
O2 O 0.2407(4) 0.2907(3) 0.8736(5)
H1 H 0.2042 0.2812 0.8539
N1 N 0.3777(8) 0.5473(7) 1.2163(12)
C1 C 0.2464(4) 0.3567(5) 0.6122(7)
C2 C 0.2836(4) 0.3694(5) 0.5145(7)
C3 C 0.3270(5) 0.4317(5) 0.4869(7)
H2 H 0.3510 0.4399 0.4199
C4 C 0.3366(6) 0.4827(6) 0.5538(9)
H3 H 0.3670 0.5245 0.5329
C5 C 0.3011(5) 0.4714(5) 0.6518(8)
H4 H 0.3066 0.5056 0.6977
C6 C 0.2563(4) 0.4079(5) 0.6824(7)
C7 C 0.2649(4) 0.3419(5) 0.9394(7)
C8 C 0.2569(5) 0.3961(5) 0.9183(7)
C9 C 0.2851(5) 0.4493(6) 0.9914(8)
H5 H 0.2807 0.4850 0.9770
C10 C 0.3204(5) 0.4482(6) 1.0876(7)
C11 C 0.3253(5) 0.3954(5) 1.1103(7)
H6 H 0.3467 0.3950 1.1766
C12 C 0.3007(5) 0.3436(5) 1.0411(7)
C13 C 0.1400(5) 0.2698(6) 0.6012(13)
H7 H 0.1380 0.2603 0.5199
H8 H 0.1250 0.3002 0.6132
C14 C 0.0972(8) 0.2048(9) 0.6744(18)
H9 H 0.1137 0.2092 0.7519
H10 H 0.0526 0.1943 0.6780
C15 C 0.1033(15) 0.1560(12) 0.612(2)
H11 H 0.1475 0.1727 0.5900
H12 H 0.0770 0.1443 0.5441
H13 H 0.0897 0.1188 0.6595
C16 C 0.3510(7) 0.5028(8) 1.1608(11)
S1C S 0.30546(14) 0.27498(14) 1.07812(18)
S2C S 0.39281(16) 0.20602(14) 0.6937(2)
O1C O 0.2951(3) 0.2047(3) 0.8553(5)
O2C O 0.2907(3) 0.2407(4) 0.6264(5)
H1C H 0.2812 0.2042 0.6461
N1C N 0.5473(7) 0.3777(8) 0.2837(12)
C1C C 0.3567(5) 0.2464(4) 0.8878(7)
C2C C 0.3694(5) 0.2836(4) 0.9855(7)
C3C C 0.4317(5) 0.3270(5) 1.0131(7)
H2C H 0.4399 0.3510 1.0801
C4C C 0.4827(6) 0.3366(6) 0.9462(9)
H3C H 0.5245 0.3670 0.9671
C5C C 0.4714(5) 0.3011(5) 0.8482(8)
H4C H 0.5056 0.3066 0.8023
C6C C 0.4079(5) 0.2563(4) 0.8176(7)
C7C C 0.3419(5) 0.2649(4) 0.5606(7)
C8C C 0.3961(5) 0.2569(5) 0.5817(7)
C9C C 0.4493(6) 0.2851(5) 0.5086(8)
H5C H 0.4850 0.2807 0.5230
C10C C 0.4482(6) 0.3204(5) 0.4124(7)
C11C C 0.3954(5) 0.3253(5) 0.3897(7)
H6C H 0.3950 0.3467 0.3234
C12C C 0.3436(5) 0.3007(5) 0.4589(7)
C13C C 0.2698(6) 0.1400(5) 0.8988(13)
H7C H 0.2603 0.1380 0.9801
H8C H 0.3002 0.1250 0.8868
C14C C 0.2048(9) 0.0972(8) 0.8256(18)
H9C H 0.2092 0.1137 0.7481
H10C H 0.1943 0.0526 0.8220
C15C C 0.1560(12) 0.1033(15) 0.888(2)
H11C H 0.1727 0.1475 0.9100
H12C H 0.1443 0.0770 0.9559
H13C H 0.1188 0.0897 0.8405
C16C C 0.5028(8) 0.3510(7) 0.3392(11)
C17 C 0.4598(4) 1.0000 0.2500
Cl1 Cl 0.39146(16) 1.0000 0.2500
Cl2 Cl 0.4995(5) 1.0105(5) 0.1234(8)
Cl2D Cl 0.4890(7) 0.9895(5) 0.3766(8)
C18 C 0.6667 0.3333 0.5741(15)
Cl4 Cl 0.6306(5) 0.2596(3) 0.6260(8)
Cl4A Cl 0.7404(3) 0.3710(6) 0.6260(8)
Cl4B Cl 0.6290(6) 0.3694(5) 0.6260(8)
Cl3? Cl 0.4650(9) 0.9521(9) 0.3513(14)
Cl5? Cl 0.6667 0.3333 0.4285(8)
loop_
_geom_bond_atom_site_label_1
_geom_bond_atom_site_label_2
_geom_bond_site_symmetry_1
_geom_bond_site_symmetry_2
S1 C2 1_555 1_555
S2 C6 1_555 1_555
O1 C1 1_555 1_555
O2 H1 1_555 1_555
N1 C16 1_555 1_555
C1 C2 1_555 1_555
C2 C3 1_555 1_555
C3 H2 1_555 1_555
C4 C3 1_555 1_555
H3 C4 1_555 1_555
C5 C4 1_555 1_555
H4 C5 1_555 1_555
C6 C1 1_555 1_555
C7 O2 1_555 1_555
C8 S2 1_555 1_555
C9 C8 1_555 1_555
H5 C9 1_555 1_555
C10 C9 1_555 1_555
C11 C10 1_555 1_555
H6 C11 1_555 1_555
C12 C7 1_555 1_555
C13 O1 1_555 1_555
H7 C13 1_555 1_555
H8 C13 1_555 1_555
C14 C13 1_555 1_555
H9 C14 1_555 1_555
H10 C14 1_555 1_555
C15 C14 1_555 1_555
H11 C15 1_555 1_555
H12 C15 1_555 1_555
H13 C15 1_555 1_555
C16 C10 1_555 1_555
C17 Cl1 1_555 1_555
Cl2 C17 1_555 1_555
C18 Cl4 1_555 1_555
S1C C12 1_555 1_555
S2C C6C 1_555 1_555
O1C C1C 1_555 1_555
O2C H1C 1_555 1_555
N1C C16C 1_555 1_555
C1C C2C 1_555 1_555
C2C S1C 1_555 1_555
C3C C2C 1_555 1_555
H2C C3C 1_555 1_555
C4C C3C 1_555 1_555
H3C C4C 1_555 1_555
C5C C4C 1_555 1_555
H4C C5C 1_555 1_555
C6C C1C 1_555 1_555
C7C O2C 1_555 1_555
C8C S2C 1_555 1_555
C9C C8C 1_555 1_555
H5C C9C 1_555 1_555
C10C C9C 1_555 1_555
C11C C10C 1_555 1_555
H6C C11C 1_555 1_555
C12C S1 1_555 1_555
C13C O1C 1_555 1_555
H7C C13C 1_555 1_555
H8C C13C 1_555 1_555
C14C C13C 1_555 1_555
H9C C14C 1_555 1_555
H10C C14C 1_555 1_555
C15C C14C 1_555 1_555
H11C C15C 1_555 1_555
H12C C15C 1_555 1_555
H13C C15C 1_555 1_555
C16C C10C 1_555 1_555
Cl2D C17 1_555 1_555
Cl4A C18 1_555 1_555
Cl4B C18 1_555 1_555
C5 C6 1_555 1_555
C7 C8 1_555 1_555
C11 C12 1_555 1_555
C5C C6C 1_555 1_555
C7C C8C 1_555 1_555
C7C C12C 1_555 1_555
C11C C12C 1_555 1_555

#END
