
#######################################################################
#
#                 Cambridge Crystallographic Data Centre
#                                CCDC 
#
#######################################################################
#
# If this CIF has been generated from an entry in the Cambridge 
# Structural Database, then it will include bibliographic, chemical, 
# crystal, experimental, refinement or atomic coordinate data resulting 
# from the CCDC's data processing and validation procedures.
#
#######################################################################

data_KURKAL
_chemical_name_common            
'26,28-dihydroxy-25,27-dipropoxy-5-formyl-2,8,14,20-tetrathiacalix(4)arene chloroform solvate'
_chemical_formula_moiety         'C31 H28 O5 S4,0.17(C1 H1 Cl3)'
_chemical_name_systematic        
'26,28-dihydroxy-25,27-dipropoxy-2,8,14,20-tetrathiapentacyclo[19.3.1.1^3,7^.1^9,13^.1^15,19^]octacosa-1(25),3(28),4,6,9(27),10,12,15(26),16,18,21,23-dodecaene-5-carbaldehyde chloroform solvate'
_symmetry_cell_setting           rhombohedral
_symmetry_space_group_name_H-M   'R -3'
_symmetry_Int_Tables_number      148
_space_group_name_Hall           '-R 3'
loop_
_symmetry_equiv_pos_site_id
_symmetry_equiv_pos_as_xyz
1 x,y,z
2 -y,x-y,z
3 -x+y,-x,z
4 2/3+x,1/3+y,1/3+z
5 2/3-y,1/3+x-y,1/3+z
6 2/3-x+y,1/3-x,1/3+z
7 1/3+x,2/3+y,2/3+z
8 1/3-y,2/3+x-y,2/3+z
9 1/3-x+y,2/3-x,2/3+z
10 -x,-y,-z
11 y,-x+y,-z
12 x-y,x,-z
13 1/3-x,2/3-y,2/3-z
14 1/3+y,2/3-x+y,2/3-z
15 1/3+x-y,2/3+x,2/3-z
16 2/3-x,1/3-y,1/3-z
17 2/3+y,1/3-x+y,1/3-z
18 2/3+x-y,1/3+x,1/3-z
_cell_length_a                   36.329(5)
_cell_length_b                   36.329(5)
_cell_length_c                   11.8166(16)
_cell_angle_alpha                90
_cell_angle_beta                 90
_cell_angle_gamma                120
_cell_volume                     13506.1
_exptl_crystal_colour            colorless
_exptl_crystal_description       block
_cell_formula_units_Z            18
loop_
_atom_site_label
_atom_site_type_symbol
_atom_site_fract_x
_atom_site_fract_y
_atom_site_fract_z
C1 C 0.51065(14) 0.08554(15) 0.4462(4)
C2 C 0.47855(15) 0.06174(16) 0.5238(4)
C3 C 0.45334(15) 0.01814(17) 0.5084(4)
H1 H 0.4317 0.0018 0.5619
C4 C 0.45929(16) -0.00203(16) 0.4159(4)
H2 H 0.4419 -0.0319 0.4061
C5 C 0.49081(16) 0.02182(17) 0.3383(4)
H3 H 0.4947 0.0083 0.2744
C6 C 0.51684(14) 0.06534(16) 0.3527(4)
C7 C 0.52532(18) 0.15690(17) 0.4145(5)
H4 H 0.4976 0.1510 0.4461
H5 H 0.5223 0.1530 0.3314
C8 C 0.5593(2) 0.2018(2) 0.4424(6)
H6 H 0.5870 0.2065 0.4145
H7 H 0.5529 0.2219 0.4019
C9 C 0.5630(3) 0.2116(3) 0.5657(7)
H8 H 0.5366 0.2098 0.5926
H9 H 0.5868 0.2404 0.5786
H10 H 0.5680 0.1911 0.6069
C10 C 0.59902(14) 0.08706(15) 0.2903(4)
C11 C 0.62300(15) 0.10522(16) 0.3897(4)
C12 C 0.65883(15) 0.10105(16) 0.4109(4)
C13 C 0.67024(15) 0.07979(16) 0.3341(4)
H11 H 0.6947 0.0774 0.3483
C14 C 0.64660(15) 0.06187(15) 0.2363(4)
C15 C 0.61079(15) 0.06564(15) 0.2153(4)
H12 H 0.5944 0.0534 0.1490
C16 C 0.66005(18) 0.04037(17) 0.1577(5)
H13 H 0.6854 0.0402 0.1754
C17 C 0.66333(14) 0.10045(16) 0.6456(4)
C18 C 0.64613(15) 0.11807(17) 0.7203(5)
C19 C 0.62468(16) 0.09574(19) 0.8177(4)
C20 C 0.62073(17) 0.0567(2) 0.8408(4)
H14 H 0.6064 0.0417 0.9073
C21 C 0.63746(16) 0.03953(18) 0.7675(5)
H15 H 0.6344 0.0125 0.7834
C22 C 0.65875(15) 0.06112(17) 0.6707(4)
H16 H 0.6703 0.0489 0.6212
C23 C 0.6852(2) 0.1929(2) 0.7413(7)
H17 H 0.7114 0.1935 0.7150
H18 H 0.6847 0.1920 0.8251
C24 C 0.6846(3) 0.2317(2) 0.7005(8)
H19 H 0.6576 0.2299 0.7242
H20 H 0.7082 0.2572 0.7367
C25 C 0.6888(3) 0.2367(3) 0.5778(10)
H21 H 0.7165 0.2410 0.5545
H22 H 0.6863 0.2614 0.5551
H23 H 0.6662 0.2111 0.5413
C26 C 0.5468(2) 0.0859(3) 0.8793(6)
C27 C 0.5319(2) 0.0944(3) 0.7800(7)
C28 C 0.4885(3) 0.0737(4) 0.7580(8)
C29 C 0.4600(2) 0.0446(3) 0.8354(8)
H24 H 0.4304 0.0305 0.8204
C30 C 0.4749(2) 0.0361(2) 0.9348(5)
H25 H 0.4554 0.0162 0.9877
C31 C 0.5183(3) 0.0568(3) 0.9567(4)
H26 H 0.5285 0.0510 1.0246
S1 S 0.60160(9) 0.11579(15) 0.9178(3)
O1 O 0.5587(3) 0.1232(3) 0.7027(7)
H27 H 0.5835 0.1360 0.7293
O2 O 0.53807(10) 0.12812(11) 0.4640(3)
O3 O 0.61390(11) 0.12767(12) 0.4626(3)
H28 H 0.5918(11) 0.128(2) 0.449(5)
O4 O 0.64800(12) 0.15575(12) 0.6960(4)
O5 O 0.64256(17) 0.02333(15) 0.0749(5)
S2 S 0.55700(4) 0.09636(4) 0.25107(10)
S3 S 0.69370(4) 0.12895(5) 0.52573(11)
S4 S 0.46828(4) 0.08797(4) 0.63748(10)
C32? C 0.5611(12) 0.1043(15) 0.860(3)
C33? C 0.5412(15) 0.1055(18) 0.761(4)
C34? C 0.4973(16) 0.080(2) 0.750(5)
C35? C 0.4734(12) 0.0538(18) 0.838(5)
H29? H 0.4435 0.0366 0.8310
C36? C 0.4934(15) 0.0527(15) 0.938(3)
H30? H 0.4770 0.0346 0.9981
C37? C 0.5372(15) 0.0779(16) 0.949(2)
H31? H 0.5508 0.0772 1.0164
O6? O 0.5672(17) 0.1370(16) 0.675(5)
H32? H 0.5634 0.1249 0.6121
S5? S 0.6113(5) 0.1342(8) 0.8807(19)
Cl1? Cl 0.6667 0.3333 0.5196(11)
C38? C 0.6667 0.3333 0.6631(13)
Cl2? Cl 0.6369(9) 0.2986(8) 0.7646(17)
loop_
_geom_bond_atom_site_label_1
_geom_bond_atom_site_label_2
_geom_bond_site_symmetry_1
_geom_bond_site_symmetry_2
C1 C2 1_555 1_555
C2 C3 1_555 1_555
C3 H1 1_555 1_555
C4 C3 1_555 1_555
H2 C4 1_555 1_555
C5 C4 1_555 1_555
H3 C5 1_555 1_555
C6 C1 1_555 1_555
C7 H4 1_555 1_555
H5 C7 1_555 1_555
C8 C7 1_555 1_555
H6 C8 1_555 1_555
H7 C8 1_555 1_555
C9 C8 1_555 1_555
H8 C9 1_555 1_555
H9 C9 1_555 1_555
H10 C9 1_555 1_555
C10 C11 1_555 1_555
C11 C12 1_555 1_555
C12 C13 1_555 1_555
C13 H11 1_555 1_555
C14 C13 1_555 1_555
C15 C10 1_555 1_555
H12 C15 1_555 1_555
C16 C14 1_555 1_555
H13 C16 1_555 1_555
C17 C18 1_555 1_555
C18 C19 1_555 1_555
C19 C20 1_555 1_555
C20 H14 1_555 1_555
C21 C20 1_555 1_555
H15 C21 1_555 1_555
C22 C17 1_555 1_555
H16 C22 1_555 1_555
C23 H17 1_555 1_555
H18 C23 1_555 1_555
C24 C23 1_555 1_555
H19 C24 1_555 1_555
H20 C24 1_555 1_555
C25 C24 1_555 1_555
H21 C25 1_555 1_555
H22 C25 1_555 1_555
H23 C25 1_555 1_555
C26 C27 1_555 1_555
C27 C28 1_555 1_555
C28 C29 1_555 1_555
C29 H24 1_555 1_555
C30 C29 1_555 1_555
H25 C30 1_555 1_555
C31 C26 1_555 1_555
H26 C31 1_555 1_555
S1 C19 1_555 1_555
O1 C27 1_555 1_555
H27 O1 1_555 1_555
O2 C1 1_555 1_555
O3 C11 1_555 1_555
H28 O3 1_555 1_555
O4 C18 1_555 1_555
O5 C16 1_555 1_555
S2 C6 1_555 1_555
S3 C12 1_555 1_555
S4 C2 1_555 1_555
C5 C6 1_555 1_555
C7 O2 1_555 1_555
C10 S2 1_555 1_555
C14 C15 1_555 1_555
C17 S3 1_555 1_555
C21 C22 1_555 1_555
C23 O4 1_555 1_555
C26 S1 1_555 1_555
C28 S4 1_555 1_555
C30 C31 1_555 1_555

#END
