
#######################################################################
#
#                 Cambridge Crystallographic Data Centre
#                                CCDC 
#
#######################################################################
#
# If this CIF has been generated from an entry in the Cambridge 
# Structural Database, then it will include bibliographic, chemical, 
# crystal, experimental, refinement or atomic coordinate data resulting 
# from the CCDC's data processing and validation procedures.
#
#######################################################################

data_KUSCIM
_chemical_formula_moiety         'C24 H32 F1 N6 O8 P1,H2 O1'
_chemical_name_systematic        
'isopropyl N-(((5-(2-amino-6-methoxy-9H-purin-9-yl)-4-fluoro-3-hydroxy-4-methyltetrahydrofuran-2-yl)methoxy)(phenoxy)phosphoryl)-L-alaninate monohydrate'
_symmetry_cell_setting           orthorhombic
_symmetry_space_group_name_H-M   'P 21 21 21'
_symmetry_Int_Tables_number      19
_space_group_name_Hall           'P 2ac 2ab'
loop_
_symmetry_equiv_pos_site_id
_symmetry_equiv_pos_as_xyz
1 x,y,z
2 1/2+x,1/2-y,-z
3 -x,1/2+y,1/2-z
4 1/2-x,-y,1/2+z
_cell_length_a                   10.9918(8)
_cell_length_b                   13.0925(9)
_cell_length_c                   20.3570(13)
_cell_angle_alpha                90
_cell_angle_beta                 90
_cell_angle_gamma                90
_cell_volume                     2929.58
_cell_formula_units_Z            4
loop_
_atom_site_label
_atom_site_type_symbol
_atom_site_fract_x
_atom_site_fract_y
_atom_site_fract_z
C1 C 0.15626(13) 0.74122(11) 0.62424(7)
H1 H 0.1697 0.7714 0.6677
C2 C 0.03657(14) 0.78140(15) 0.59702(8)
H2 H 0.0397 0.8546 0.5945
H3 H -0.0288 0.7613 0.6255
H4 H 0.0233 0.7537 0.5540
C3 C 0.14872(14) 0.62502(12) 0.63157(8)
C4 C 0.11017(18) 0.48752(13) 0.70589(9)
H5 H 0.0688 0.4553 0.6686
C5 C 0.2331(2) 0.44064(18) 0.71404(16)
H6 H 0.2804 0.4523 0.6751
H7 H 0.2246 0.3685 0.7211
H8 H 0.2732 0.4710 0.7511
C6 C 0.0300(2) 0.48104(18) 0.76552(9)
H9 H 0.0699 0.5130 0.8021
H10 H 0.0144 0.4107 0.7757
H11 H -0.0456 0.5153 0.7569
C7 C 0.38516(15) 0.97447(10) 0.64880(7)
C8 C 0.49480(16) 1.02150(12) 0.63613(7)
H12 H 0.5672 0.9849 0.6379
C9 C 0.4949(2) 1.12479(13) 0.62065(8)
H13 H 0.5679 1.1577 0.6116
C10 C 0.3885(2) 1.17822(13) 0.61860(9)
H14 H 0.3895 1.2474 0.6083
C11 C 0.2789(2) 1.13024(15) 0.63177(9)
H15 H 0.2067 1.1672 0.6304
C12 C 0.27675(16) 1.02684(14) 0.64703(8)
H16 H 0.2037 0.9938 0.6558
C13 C 0.49798(15) 0.67656(12) 0.70837(7)
H17 H 0.4577 0.6512 0.7475
H18 H 0.5328 0.7427 0.7186
C14 C 0.59770(15) 0.60412(11) 0.68901(8)
H19 H 0.6507 0.5935 0.7271
C15 C 0.67612(14) 0.63569(11) 0.63117(8)
H20 H 0.6245 0.6638 0.5963
C16 C 0.72759(13) 0.53322(12) 0.60944(8)
C17 C 0.61645(14) 0.46306(11) 0.61900(8)
H21 H 0.6446 0.3953 0.6328
C18 C 0.79117(16) 0.52839(14) 0.54428(9)
H22 H 0.8613 0.5721 0.5451
H23 H 0.7367 0.5506 0.5103
H24 H 0.8162 0.4594 0.5357
C19 C 0.44913(14) 0.51546(11) 0.53869(8)
H25 H 0.4261 0.5749 0.5604
C20 C 0.45783(13) 0.39304(11) 0.47009(8)
C21 C 0.44368(14) 0.31744(11) 0.42213(8)
C22 C 0.59705(14) 0.22535(11) 0.47117(8)
C23 C 0.54635(13) 0.37274(11) 0.51647(8)
C24 C 0.34935(18) 0.25266(14) 0.32601(9)
H26 H 0.4210 0.2544 0.2991
H27 H 0.2790 0.2652 0.2992
H28 H 0.3423 0.1868 0.3463
N1 N 0.25731(11) 0.77047(9) 0.58114(5)
N2 N 0.54093(11) 0.45232(9) 0.56065(7)
N3 N 0.39757(12) 0.48389(9) 0.48464(6)
N4 N 0.51248(12) 0.23474(9) 0.42245(6)
N5 N 0.61980(12) 0.29170(9) 0.51972(6)
N6 N 0.66600(14) 0.14035(11) 0.46900(8)
H29 H 0.7217 0.1306 0.4980
H30 H 0.6543 0.0958 0.4386
O1 O 0.12429(11) 0.59748(8) 0.69276(5)
O2 O 0.16051(13) 0.56757(9) 0.58588(6)
O3 O 0.40962(9) 0.68783(7) 0.65616(5)
O4 O 0.48629(9) 0.80385(8) 0.56191(5)
O5 O 0.38342(10) 0.87071(7) 0.66693(5)
O6 O 0.54627(10) 0.50673(8) 0.67030(5)
O7 O 0.76234(10) 0.70871(9) 0.65020(6)
H31 H 0.7664 0.7536 0.6222
O8 O 0.35793(10) 0.33039(8) 0.37618(6)
P1 P 0.39276(3) 0.78527(3) 0.611611(17)
F1 F 0.81049(8) 0.50184(7) 0.65822(5)
H32 H 0.2570 0.7407 0.5408
O9 O 0.23830(9) 0.65428(8) 0.44889(5)
H33 H 0.1629 0.6419 0.4526
H34 H 0.2736 0.5990 0.4575
loop_
_geom_bond_atom_site_label_1
_geom_bond_atom_site_label_2
_geom_bond_site_symmetry_1
_geom_bond_site_symmetry_2
C1 H1 1_555 1_555
C2 C1 1_555 1_555
H2 C2 1_555 1_555
H3 C2 1_555 1_555
H4 C2 1_555 1_555
C3 C1 1_555 1_555
C4 H5 1_555 1_555
C5 C4 1_555 1_555
H6 C5 1_555 1_555
H7 C5 1_555 1_555
H8 C5 1_555 1_555
C6 C4 1_555 1_555
H9 C6 1_555 1_555
H10 C6 1_555 1_555
H11 C6 1_555 1_555
C7 C8 1_555 1_555
C8 H12 1_555 1_555
C9 C8 1_555 1_555
H13 C9 1_555 1_555
C10 C9 1_555 1_555
H14 C10 1_555 1_555
C11 C10 1_555 1_555
H15 C11 1_555 1_555
C12 C7 1_555 1_555
H16 C12 1_555 1_555
C13 H17 1_555 1_555
H18 C13 1_555 1_555
C14 C13 1_555 1_555
H19 C14 1_555 1_555
C15 C14 1_555 1_555
H20 C15 1_555 1_555
C16 C15 1_555 1_555
C17 C16 1_555 1_555
H21 C17 1_555 1_555
C18 C16 1_555 1_555
H22 C18 1_555 1_555
H23 C18 1_555 1_555
H24 C18 1_555 1_555
C19 H25 1_555 1_555
C20 C21 1_555 1_555
C21 N4 1_555 1_555
C22 N4 1_555 1_555
C23 C20 1_555 1_555
C24 H26 1_555 1_555
H27 C24 1_555 1_555
H28 C24 1_555 1_555
N1 C1 1_555 1_555
N2 C17 1_555 1_555
N3 C19 1_555 1_555
N5 C22 1_555 1_555
N6 C22 1_555 1_555
H29 N6 1_555 1_555
H30 N6 1_555 1_555
O1 C3 1_555 1_555
O2 C3 1_555 1_555
O3 C13 1_555 1_555
O4 P1 1_555 1_555
O5 C7 1_555 1_555
O6 C14 1_555 1_555
O7 C15 1_555 1_555
H31 O7 1_555 1_555
O8 C21 1_555 1_555
P1 N1 1_555 1_555
F1 C16 1_555 1_555
H32 N1 1_555 1_555
O9 H33 1_555 1_555
H34 O9 1_555 1_555
C4 O1 1_555 1_555
C11 C12 1_555 1_555
C17 O6 1_555 1_555
C19 N2 1_555 1_555
C20 N3 1_555 1_555
C23 N2 1_555 1_555
C23 N5 1_555 1_555
C24 O8 1_555 1_555
O3 P1 1_555 1_555
O5 P1 1_555 1_555

#END
