
#######################################################################
#
#                 Cambridge Crystallographic Data Centre
#                                CCDC 
#
#######################################################################
#
# If this CIF has been generated from an entry in the Cambridge 
# Structural Database, then it will include bibliographic, chemical, 
# crystal, experimental, refinement or atomic coordinate data resulting 
# from the CCDC's data processing and validation procedures.
#
#######################################################################

data_KUSHOW
_chemical_formula_moiety         'C24 H26 N4 O3'
_chemical_name_systematic        
'Ethyl 3-(5-[(diethylamino)methyl]isoxazol-3-yl)-2-phenylpyrazolo[1,5-a]pyridine-5-carboxylate'
_symmetry_cell_setting           triclinic
_symmetry_space_group_name_H-M   'P -1'
_symmetry_Int_Tables_number      2
_space_group_name_Hall           '-P 1'
loop_
_symmetry_equiv_pos_site_id
_symmetry_equiv_pos_as_xyz
1 x,y,z
2 -x,-y,-z
_cell_length_a                   6.1250(7)
_cell_length_b                   13.1425(16)
_cell_length_c                   13.7139(16)
_cell_angle_alpha                93.600(2)
_cell_angle_beta                 95.514(2)
_cell_angle_gamma                95.637(2)
_cell_volume                     1090.61
_exptl_crystal_colour            colorless
_exptl_crystal_description       block
_chemical_melting_point          '363-364 K'
_cell_formula_units_Z            2
_exptl_crystal_recrystallization_method 'hexane/ethyl acetate'
loop_
_atom_site_label
_atom_site_type_symbol
_atom_site_fract_x
_atom_site_fract_y
_atom_site_fract_z
C1 C 0.2802(5) -0.0313(2) 0.0758(3)
H1 H 0.4008 -0.0724 0.0722
H2 H 0.2200 -0.0200 0.0106
H3 H 0.1680 -0.0663 0.1094
C2 C 0.3600(5) 0.0686(2) 0.1300(2)
H4 H 0.4219 0.0570 0.1957
H5 H 0.4758 0.1031 0.0968
C3 C 0.1430(4) 0.19374(19) 0.06317(19)
C4 C -0.0421(4) 0.25659(18) 0.07983(17)
C5 C -0.1456(4) 0.25212(18) 0.16402(17)
H6 H -0.1060 0.2073 0.2109
C6 C -0.3125(4) 0.31605(17) 0.17869(16)
C7 C -0.2687(4) 0.3840(2) 0.02118(18)
H7 H -0.3130 0.4270 -0.0266
C8 C -0.1074(5) 0.3235(2) 0.00756(18)
H8 H -0.0380 0.3255 -0.0498
C9 C -0.4470(4) 0.33567(17) 0.25335(16)
C10 C -0.5678(4) 0.41490(18) 0.22118(17)
C11 C -0.7208(4) 0.47407(18) 0.27307(18)
C12 C -0.6795(5) 0.5013(2) 0.3729(2)
H9 H -0.5587 0.4790 0.4087
C13 C -0.8164(6) 0.5616(3) 0.4199(2)
H10 H -0.7867 0.5799 0.4868
C14 C -0.9967(6) 0.5946(2) 0.3677(3)
H11 H -1.0897 0.6345 0.3993
C15 C -1.0381(5) 0.5682(2) 0.2687(3)
H12 H -1.1597 0.5904 0.2335
C16 C -0.9014(4) 0.50908(19) 0.2210(2)
H13 H -0.9301 0.4925 0.1538
C17 C -0.4706(4) 0.27444(18) 0.33801(17)
C18 C -0.6611(4) 0.2496(2) 0.38597(18)
H14 H -0.7981 0.2739 0.3743
C19 C -0.6021(5) 0.1835(2) 0.45177(19)
C20 C -0.7261(5) 0.1236(2) 0.5216(2)
H15 H -0.8790 0.1091 0.4945
H16 H -0.6655 0.0586 0.5283
C21 C -0.4753(6) 0.2470(3) 0.7671(2)
H17 H -0.3289 0.2451 0.7985
H18 H -0.5810 0.2223 0.8097
H19 H -0.4972 0.3162 0.7534
C22 C -0.5053(6) 0.1792(3) 0.6711(2)
H20 H -0.3953 0.2038 0.6293
H21 H -0.4793 0.1099 0.6855
C23 C -0.9023(6) 0.1347(3) 0.6722(3)
H22 H -0.9082 0.1799 0.7304
H23 H -1.0389 0.1367 0.6305
C24 C -0.8942(7) 0.0293(3) 0.7027(3)
H24 H -1.0212 0.0102 0.7361
H25 H -0.7628 0.0263 0.7462
H26 H -0.8935 -0.0170 0.6458
N1 N -0.3662(3) 0.38084(15) 0.10689(14)
N2 N -0.5209(3) 0.44225(16) 0.13189(15)
N3 N -0.3039(4) 0.22794(19) 0.37371(17)
N4 N -0.7175(4) 0.1771(2) 0.61889(18)
O1 O 0.1826(3) 0.13349(14) 0.13639(14)
O2 O 0.2449(4) 0.19763(17) -0.00730(16)
O3 O -0.3882(4) 0.16863(16) 0.44714(14)
loop_
_geom_bond_atom_site_label_1
_geom_bond_atom_site_label_2
_geom_bond_site_symmetry_1
_geom_bond_site_symmetry_2
C1 H1 1_555 1_555
H2 C1 1_555 1_555
H3 C1 1_555 1_555
C2 C1 1_555 1_555
H4 C2 1_555 1_555
H5 C2 1_555 1_555
C3 C4 1_555 1_555
C4 C5 1_555 1_555
C5 H6 1_555 1_555
C6 C5 1_555 1_555
C7 H7 1_555 1_555
C8 C4 1_555 1_555
H8 C8 1_555 1_555
C9 C6 1_555 1_555
C10 C9 1_555 1_555
C11 C10 1_555 1_555
C12 C11 1_555 1_555
H9 C12 1_555 1_555
C13 C12 1_555 1_555
H10 C13 1_555 1_555
C14 C13 1_555 1_555
H11 C14 1_555 1_555
C15 C14 1_555 1_555
H12 C15 1_555 1_555
C16 C11 1_555 1_555
H13 C16 1_555 1_555
C17 C9 1_555 1_555
C18 C17 1_555 1_555
H14 C18 1_555 1_555
C19 C18 1_555 1_555
C20 C19 1_555 1_555
H15 C20 1_555 1_555
H16 C20 1_555 1_555
C21 H17 1_555 1_555
H18 C21 1_555 1_555
H19 C21 1_555 1_555
C22 C21 1_555 1_555
H20 C22 1_555 1_555
H21 C22 1_555 1_555
C23 H22 1_555 1_555
H23 C23 1_555 1_555
C24 C23 1_555 1_555
H24 C24 1_555 1_555
H25 C24 1_555 1_555
H26 C24 1_555 1_555
N1 C6 1_555 1_555
N2 C10 1_555 1_555
N3 C17 1_555 1_555
N4 C20 1_555 1_555
O1 C2 1_555 1_555
O2 C3 1_555 1_555
O3 C19 1_555 1_555
C3 O1 1_555 1_555
C7 C8 1_555 1_555
C7 N1 1_555 1_555
C15 C16 1_555 1_555
C22 N4 1_555 1_555
C23 N4 1_555 1_555
N1 N2 1_555 1_555
N3 O3 1_555 1_555

#END
