
#######################################################################
#
#                 Cambridge Crystallographic Data Centre
#                                CCDC 
#
#######################################################################
#
# If this CIF has been generated from an entry in the Cambridge 
# Structural Database, then it will include bibliographic, chemical, 
# crystal, experimental, refinement or atomic coordinate data resulting 
# from the CCDC's data processing and validation procedures.
#
#######################################################################

data_KUSMAO
_chemical_formula_moiety         'C21 H25 N1 O3'
_chemical_name_systematic        
3-(t-butylperoxy)-1-methyl-3-(4-methylbenzyl)-1,3-dihydro-2H-indol-2-one
_symmetry_cell_setting           monoclinic
_symmetry_space_group_name_H-M   'P 21/c'
_symmetry_Int_Tables_number      14
_space_group_name_Hall           '-P 2ybc'
loop_
_symmetry_equiv_pos_site_id
_symmetry_equiv_pos_as_xyz
1 x,y,z
2 -x,1/2+y,1/2-z
3 -x,-y,-z
4 x,1/2-y,1/2+z
_cell_length_a                   9.368(2)
_cell_length_b                   15.869(4)
_cell_length_c                   12.830(3)
_cell_angle_alpha                90
_cell_angle_beta                 93.658(3)
_cell_angle_gamma                90
_cell_volume                     1903.43
_exptl_crystal_colour            colorless
_exptl_crystal_description       block
_cell_formula_units_Z            4
loop_
_atom_site_label
_atom_site_type_symbol
_atom_site_fract_x
_atom_site_fract_y
_atom_site_fract_z
O1 O 0.5118(2) 0.40343(16) 0.73766(17)
O2 O 0.40967(19) 0.24147(11) 0.64144(14)
O3 O 0.49330(19) 0.25937(12) 0.54992(15)
N1 N 0.3556(2) 0.45445(12) 0.60555(16)
C1 C 0.2255(2) 0.33580(14) 0.56179(16)
C2 C 0.1252(3) 0.28985(18) 0.5050(2)
H1 H 0.1115 0.2330 0.5186
C3 C 0.0420(3) 0.3323(2) 0.4238(2)
H2 H -0.0276 0.3027 0.3839
C4 C 0.0628(3) 0.4137(2) 0.40455(19)
H3 H 0.0062 0.4394 0.3515
C5 C 0.1660(3) 0.46223(18) 0.4606(2)
H4 H 0.1795 0.5189 0.4457
C6 C 0.2473(2) 0.42150(14) 0.53962(15)
C7 C 0.4128(2) 0.39525(16) 0.67280(19)
C8 C 0.3231(2) 0.31319(13) 0.65435(17)
C9 C 0.4028(4) 0.54289(16) 0.6076(3)
H5 H 0.4210 0.5606 0.5382
H6 H 0.4888 0.5481 0.6520
H7 H 0.3294 0.5776 0.6341
C10 C 0.2463(2) 0.29287(15) 0.75447(18)
H8 H 0.2002 0.2384 0.7461
H9 H 0.3173 0.2887 0.8127
C11 C 0.1355(2) 0.35743(13) 0.78071(15)
C12 C -0.0064(2) 0.34684(13) 0.74609(16)
H10 H -0.0322 0.3000 0.7055
C13 C -0.1109(2) 0.40403(14) 0.77024(16)
H11 H -0.2052 0.3948 0.7460
C14 C -0.0771(2) 0.47502(13) 0.83015(16)
C15 C 0.0651(2) 0.48539(15) 0.86518(17)
H12 H 0.0908 0.5320 0.9061
C16 C 0.1697(2) 0.42830(16) 0.84087(17)
H13 H 0.2641 0.4375 0.8651
C17 C -0.1915(3) 0.53729(16) 0.8546(2)
H14 H -0.1979 0.5803 0.8018
H15 H -0.1678 0.5626 0.9214
H16 H -0.2816 0.5087 0.8561
C18 C 0.6063(2) 0.19865(13) 0.55245(18)
C19 C 0.5488(3) 0.11078(17) 0.5376(2)
H17 H 0.5028 0.0937 0.5989
H18 H 0.6261 0.0729 0.5260
H19 H 0.4809 0.1096 0.4783
C20 C 0.6983(3) 0.2044(2) 0.6539(3)
H20 H 0.7223 0.2623 0.6681
H21 H 0.7843 0.1724 0.6480
H22 H 0.6464 0.1822 0.7100
C21 C 0.6856(4) 0.2241(2) 0.4589(4)
H23 H 0.6182 0.2404 0.4030
H24 H 0.7414 0.1774 0.4368
H25 H 0.7476 0.2707 0.4771
loop_
_geom_bond_atom_site_label_1
_geom_bond_atom_site_label_2
_geom_bond_site_symmetry_1
_geom_bond_site_symmetry_2
O1 C7 1_555 1_555
O2 O3 1_555 1_555
O3 C18 1_555 1_555
N1 C6 1_555 1_555
C1 C2 1_555 1_555
C2 H1 1_555 1_555
C3 C2 1_555 1_555
H2 C3 1_555 1_555
C4 C3 1_555 1_555
H3 C4 1_555 1_555
C5 C4 1_555 1_555
H4 C5 1_555 1_555
C6 C1 1_555 1_555
C7 N1 1_555 1_555
C8 O2 1_555 1_555
C9 N1 1_555 1_555
H5 C9 1_555 1_555
H6 C9 1_555 1_555
H7 C9 1_555 1_555
C10 C8 1_555 1_555
H8 C10 1_555 1_555
H9 C10 1_555 1_555
C11 C10 1_555 1_555
C12 C11 1_555 1_555
H10 C12 1_555 1_555
C13 C12 1_555 1_555
H11 C13 1_555 1_555
C14 C13 1_555 1_555
C15 C14 1_555 1_555
H12 C15 1_555 1_555
C16 C11 1_555 1_555
H13 C16 1_555 1_555
C17 C14 1_555 1_555
H14 C17 1_555 1_555
H15 C17 1_555 1_555
H16 C17 1_555 1_555
C18 C19 1_555 1_555
C19 H17 1_555 1_555
H18 C19 1_555 1_555
H19 C19 1_555 1_555
C20 C18 1_555 1_555
H20 C20 1_555 1_555
H21 C20 1_555 1_555
H22 C20 1_555 1_555
C21 C18 1_555 1_555
H23 C21 1_555 1_555
H24 C21 1_555 1_555
H25 C21 1_555 1_555
C1 C8 1_555 1_555
C5 C6 1_555 1_555
C7 C8 1_555 1_555
C15 C16 1_555 1_555

#END
