
#######################################################################
#
#                 Cambridge Crystallographic Data Centre
#                                CCDC 
#
#######################################################################
#
# If this CIF has been generated from an entry in the Cambridge 
# Structural Database, then it will include bibliographic, chemical, 
# crystal, experimental, refinement or atomic coordinate data resulting 
# from the CCDC's data processing and validation procedures.
#
#######################################################################

data_KUSMIV
_chemical_formula_moiety         'C22 H20 N2 O1'
_chemical_name_systematic        
(E)-N-(2-[1-(Benzylimino)ethyl]phenyl)benzamide
_symmetry_cell_setting           monoclinic
_symmetry_space_group_name_H-M   'P 21/c'
_symmetry_Int_Tables_number      14
_space_group_name_Hall           '-P 2ybc'
loop_
_symmetry_equiv_pos_site_id
_symmetry_equiv_pos_as_xyz
1 x,y,z
2 -x,1/2+y,1/2-z
3 -x,-y,-z
4 x,1/2-y,1/2+z
_cell_length_a                   10.4213(4)
_cell_length_b                   17.0799(7)
_cell_length_c                   10.8028(5)
_cell_angle_alpha                90
_cell_angle_beta                 114.394(2)
_cell_angle_gamma                90
_cell_volume                     1751.18
_exptl_crystal_colour            colorless
_exptl_crystal_description       block
_cell_formula_units_Z            4
_exptl_crystal_recrystallization_method dichloromethane/n-hexane
loop_
_atom_site_label
_atom_site_type_symbol
_atom_site_fract_x
_atom_site_fract_y
_atom_site_fract_z
O1 O 0.81960(13) 0.10603(8) 0.23208(15)
N1 N 0.34187(14) 0.01877(8) 0.15594(15)
N2 N 0.60695(13) 0.06148(8) 0.21381(14)
H1 H 0.5180 0.0649 0.1640
C1 C 0.1425(2) 0.16265(13) 0.0401(2)
H2 H 0.1731 0.1658 0.1339
C2 C 0.0954(3) 0.22894(14) -0.0374(3)
H3 H 0.0960 0.2765 0.0047
C3 C 0.0482(2) 0.22600(14) -0.1736(3)
H4 H 0.0147 0.2710 -0.2255
C4 C 0.0501(2) 0.15672(16) -0.2343(2)
H5 H 0.0183 0.1543 -0.3283
C5 C 0.09905(19) 0.08970(12) -0.1574(2)
H6 H 0.1006 0.0427 -0.2003
C6 C 0.14522(16) 0.09148(10) -0.01899(19)
C7 C 0.19123(18) 0.01887(11) 0.0651(2)
H7 H 0.1371 0.0135 0.1191
H8 H 0.1708 -0.0261 0.0051
C8 C 0.2975(2) -0.09913(11) 0.2593(2)
H9 H 0.2029 -0.0924 0.1920
H10 H 0.2981 -0.0969 0.3484
H11 H 0.3330 -0.1490 0.2468
C9 C 0.38926(17) -0.03509(9) 0.24489(18)
C10 C 0.54103(17) -0.03557(9) 0.34125(17)
C11 C 0.5834(2) -0.08470(11) 0.4543(2)
H12 H 0.5159 -0.1155 0.4664
C12 C 0.7205(2) -0.08954(13) 0.5482(2)
H13 H 0.7449 -0.1231 0.6222
C13 C 0.8209(2) -0.04467(14) 0.5322(2)
H14 H 0.9141 -0.0478 0.5954
C14 C 0.78470(19) 0.00524(11) 0.4231(2)
H15 H 0.8540 0.0359 0.4139
C15 C 0.64589(17) 0.01073(9) 0.32591(17)
C16 C 0.69092(17) 0.10573(9) 0.17378(18)
C17 C 0.61755(17) 0.15684(9) 0.05235(18)
C18 C 0.6931(2) 0.21764(12) 0.0312(2)
H16 H 0.7863 0.2253 0.0921
C19 C 0.6337(3) 0.26723(13) -0.0778(3)
H17 H 0.6864 0.3082 -0.0893
C20 C 0.4985(2) 0.25675(12) -0.1688(2)
H18 H 0.4584 0.2902 -0.2428
C21 C 0.4218(2) 0.19642(14) -0.1506(2)
H19 H 0.3294 0.1886 -0.2132
C22 C 0.48016(18) 0.14713(11) -0.0403(2)
H20 H 0.4262 0.1069 -0.0284
loop_
_geom_bond_atom_site_label_1
_geom_bond_atom_site_label_2
_geom_bond_site_symmetry_1
_geom_bond_site_symmetry_2
O1 C16 1_555 1_555
N1 C7 1_555 1_555
N2 H1 1_555 1_555
C1 H2 1_555 1_555
C2 C1 1_555 1_555
H3 C2 1_555 1_555
C3 C2 1_555 1_555
H4 C3 1_555 1_555
C4 C3 1_555 1_555
H5 C4 1_555 1_555
C5 C4 1_555 1_555
H6 C5 1_555 1_555
C6 C1 1_555 1_555
C7 C6 1_555 1_555
H7 C7 1_555 1_555
H8 C7 1_555 1_555
C8 H9 1_555 1_555
H10 C8 1_555 1_555
H11 C8 1_555 1_555
C9 N1 1_555 1_555
C10 C9 1_555 1_555
C11 C10 1_555 1_555
H12 C11 1_555 1_555
C12 C11 1_555 1_555
H13 C12 1_555 1_555
C13 C12 1_555 1_555
H14 C13 1_555 1_555
C14 C13 1_555 1_555
H15 C14 1_555 1_555
C15 N2 1_555 1_555
C16 N2 1_555 1_555
C17 C16 1_555 1_555
C18 C17 1_555 1_555
H16 C18 1_555 1_555
C19 C18 1_555 1_555
H17 C19 1_555 1_555
C20 C19 1_555 1_555
H18 C20 1_555 1_555
C21 C20 1_555 1_555
H19 C21 1_555 1_555
C22 C17 1_555 1_555
H20 C22 1_555 1_555
C5 C6 1_555 1_555
C8 C9 1_555 1_555
C10 C15 1_555 1_555
C14 C15 1_555 1_555
C21 C22 1_555 1_555

#END
