
#######################################################################
#
#                 Cambridge Crystallographic Data Centre
#                                CCDC 
#
#######################################################################
#
# If this CIF has been generated from an entry in the Cambridge 
# Structural Database, then it will include bibliographic, chemical, 
# crystal, experimental, refinement or atomic coordinate data resulting 
# from the CCDC's data processing and validation procedures.
#
#######################################################################

data_KUSNES
_chemical_formula_moiety         'C21 H33 Br1 O3'
_chemical_name_systematic        
'16\a-Bromo-17\b-hydroxy-5\a-androstan-3\b-yl acetate'
_symmetry_cell_setting           monoclinic
_symmetry_space_group_name_H-M   'P 21'
_symmetry_Int_Tables_number      4
_space_group_name_Hall           'P 2yb'
loop_
_symmetry_equiv_pos_site_id
_symmetry_equiv_pos_as_xyz
1 x,y,z
2 -x,1/2+y,-z
_cell_length_a                   11.1010(12)
_cell_length_b                   7.6637(8)
_cell_length_c                   24.383(3)
_cell_angle_alpha                90
_cell_angle_beta                 93.036(2)
_cell_angle_gamma                90
_cell_volume                     2071.47
_exptl_crystal_colour            colorless
_exptl_crystal_description       prism
_cell_formula_units_Z            4
_exptl_crystal_recrystallization_method 'ethyl acetate/petroleum ether'
loop_
_atom_site_label
_atom_site_type_symbol
_atom_site_fract_x
_atom_site_fract_y
_atom_site_fract_z
Br1 Br 0.33539(6) 0.31032(9) 0.21950(3)
C1 C 0.1761(6) 0.9883(7) 0.4929(2)
H1 H 0.1025 0.9662 0.4708
H2 H 0.2129 1.0927 0.4788
C2 C 0.1441(6) 1.0208(8) 0.5527(2)
H3 H 0.2162 1.0542 0.5744
H4 H 0.0868 1.1161 0.5539
C3 C 0.0910(5) 0.8609(7) 0.5769(2)
H5 H 0.0135 0.8363 0.5573
C4 C 0.1719(5) 0.7031(7) 0.5725(2)
H6 H 0.1311 0.6009 0.5859
H7 H 0.2452 0.7204 0.5953
C5 C 0.2041(5) 0.6725(7) 0.5133(2)
H8 H 0.1271 0.6549 0.4925
C6 C 0.2747(5) 0.5055(7) 0.5065(2)
H9 H 0.2322 0.4093 0.5227
H10 H 0.3531 0.5162 0.5257
C7 C 0.2912(5) 0.4670(7) 0.4461(2)
H11 H 0.3437 0.3665 0.4434
H12 H 0.2136 0.4372 0.4285
C8 C 0.3445(4) 0.6188(6) 0.41582(19)
H13 H 0.4282 0.6340 0.4299
C9 C 0.2764(4) 0.7906(7) 0.42545(18)
H14 H 0.1943 0.7722 0.4098
C10 C 0.2628(4) 0.8334(7) 0.48690(19)
C11 C 0.3289(5) 0.9417(7) 0.3922(2)
H15 H 0.2796 1.0448 0.3964
H16 H 0.4096 0.9680 0.4072
C12 C 0.3347(5) 0.8993(7) 0.3304(2)
H17 H 0.2533 0.8894 0.3141
H18 H 0.3744 0.9943 0.3123
C13 C 0.4018(4) 0.7322(7) 0.3212(2)
C14 C 0.3454(4) 0.5866(7) 0.35444(19)
H19 H 0.2602 0.5843 0.3417
C15 C 0.3986(5) 0.4182(7) 0.3326(2)
H20 H 0.3421 0.3223 0.3347
H21 H 0.4730 0.3877 0.3531
C16 C 0.4224(5) 0.4631(7) 0.2720(2)
H22 H 0.5091 0.4535 0.2667
C17 C 0.3837(5) 0.6541(7) 0.2639(2)
H23 H 0.2967 0.6537 0.2546
C18 C 0.3861(4) 0.8748(8) 0.5150(2)
H24 H 0.3770 0.8956 0.5534
H25 H 0.4190 0.9769 0.4986
H26 H 0.4395 0.7779 0.5107
C19 C 0.5391(5) 0.7546(8) 0.3358(2)
H27 H 0.5794 0.6453 0.3310
H28 H 0.5510 0.7918 0.3733
H29 H 0.5716 0.8406 0.3120
C20 C -0.0136(6) 0.8036(11) 0.6582(3)
C21 C -0.0195(6) 0.8451(10) 0.7174(2)
H30 H -0.0679 0.9476 0.7216
H31 H 0.0605 0.8658 0.7330
H32 H -0.0548 0.7489 0.7360
O1 O 0.0693(3) 0.8992(5) 0.63361(16)
O2 O -0.0737(4) 0.6942(7) 0.63403(18)
O3 O 0.4395(4) 0.7394(5) 0.22015(17)
H33 H 0.5005 0.6859 0.2128
Br2 Br 0.69555(9) 0.09933(13) 1.21764(4)
C22 C 0.9194(5) 0.5784(8) 0.9099(2)
H34 H 0.8961 0.6953 0.9203
H35 H 0.9936 0.5498 0.9307
C23 C 0.9434(5) 0.5775(9) 0.8484(2)
H36 H 0.8720 0.6170 0.8273
H37 H 1.0090 0.6568 0.8415
C24 C 0.9754(5) 0.3973(9) 0.8309(2)
H38 H 1.0531 0.3638 0.8488
C25 C 0.8804(5) 0.2637(8) 0.8443(2)
H39 H 0.9075 0.1481 0.8344
H40 H 0.8061 0.2884 0.8231
C26 C 0.8571(5) 0.2682(7) 0.9057(2)
H41 H 0.9342 0.2405 0.9252
C27 C 0.7673(5) 0.1253(8) 0.9218(3)
H42 H 0.6883 0.1490 0.9045
H43 H 0.7940 0.0126 0.9091
C28 C 0.7594(5) 0.1218(8) 0.9839(2)
H44 H 0.8366 0.0850 1.0006
H45 H 0.6995 0.0365 0.9934
C29 C 0.7262(4) 0.2992(7) 1.0077(2)
H46 H 0.6447 0.3299 0.9934
C30 C 0.8140(5) 0.4417(7) 0.9899(2)
H47 H 0.8943 0.4047 1.0040
C31 C 0.8203(5) 0.4497(7) 0.9258(2)
C32 C 0.7916(5) 0.6187(7) 1.0166(2)
H48 H 0.7153 0.6652 1.0019
H49 H 0.8547 0.6992 1.0072
C33 C 0.7886(5) 0.6073(8) 1.0793(2)
H50 H 0.8679 0.5751 1.0946
H51 H 0.7683 0.7207 1.0939
C34 C 0.6968(5) 0.4737(7) 1.0961(3)
C35 C 0.7276(4) 0.2988(8) 1.0701(2)
H52 H 0.8115 0.2754 1.0823
C36 C 0.6519(6) 0.1651(8) 1.1007(3)
H53 H 0.5739 0.1470 1.0817
H54 H 0.6935 0.0540 1.1043
C37 C 0.6380(5) 0.2497(8) 1.1572(3)
H55 H 0.5523 0.2739 1.1613
C38 C 0.7055(5) 0.4229(8) 1.1569(3)
H56 H 0.7903 0.4024 1.1683
C39 C 0.6978(5) 0.5097(9) 0.8988(2)
H57 H 0.6996 0.4990 0.8596
H58 H 0.6835 0.6293 0.9082
H59 H 0.6343 0.4381 0.9117
C40 C 1.0671(6) 0.3018(11) 0.7497(3)
C41 C 1.0744(6) 0.3298(10) 0.6886(2)
H60 H 1.1387 0.2604 0.6754
H61 H 1.0898 0.4508 0.6816
H62 H 0.9995 0.2961 0.6702
O4 O 0.9865(3) 0.4031(6) 0.77130(16)
O5 O 1.1284(4) 0.2026(7) 0.77638(19)
O6 O 0.6557(4) 0.5418(6) 1.19406(19)
H63 H 0.7092 0.6055 1.2072
C42 C 0.5684(5) 0.5365(9) 1.0800(3)
H64 H 0.5521 0.6417 1.0997
H65 H 0.5115 0.4482 1.0891
H66 H 0.5613 0.5590 1.0413
loop_
_geom_bond_atom_site_label_1
_geom_bond_atom_site_label_2
_geom_bond_site_symmetry_1
_geom_bond_site_symmetry_2
Br1 C16 1_555 1_555
C1 H1 1_555 1_555
H2 C1 1_555 1_555
C2 C1 1_555 1_555
H3 C2 1_555 1_555
H4 C2 1_555 1_555
C3 C2 1_555 1_555
H5 C3 1_555 1_555
C4 C3 1_555 1_555
H6 C4 1_555 1_555
H7 C4 1_555 1_555
C5 C4 1_555 1_555
H8 C5 1_555 1_555
C6 C5 1_555 1_555
H9 C6 1_555 1_555
H10 C6 1_555 1_555
C7 C6 1_555 1_555
H11 C7 1_555 1_555
H12 C7 1_555 1_555
C8 C7 1_555 1_555
H13 C8 1_555 1_555
C9 C8 1_555 1_555
H14 C9 1_555 1_555
C10 C1 1_555 1_555
C11 C9 1_555 1_555
H15 C11 1_555 1_555
H16 C11 1_555 1_555
C12 C11 1_555 1_555
H17 C12 1_555 1_555
H18 C12 1_555 1_555
C13 C12 1_555 1_555
C14 C8 1_555 1_555
H19 C14 1_555 1_555
C15 C14 1_555 1_555
H20 C15 1_555 1_555
H21 C15 1_555 1_555
C16 C15 1_555 1_555
H22 C16 1_555 1_555
C17 C13 1_555 1_555
H23 C17 1_555 1_555
C18 C10 1_555 1_555
H24 C18 1_555 1_555
H25 C18 1_555 1_555
H26 C18 1_555 1_555
C19 C13 1_555 1_555
H27 C19 1_555 1_555
H28 C19 1_555 1_555
H29 C19 1_555 1_555
C20 C21 1_555 1_555
C21 H30 1_555 1_555
H31 C21 1_555 1_555
H32 C21 1_555 1_555
O1 C3 1_555 1_555
O2 C20 1_555 1_555
O3 C17 1_555 1_555
H33 O3 1_555 1_555
Br2 C37 1_555 1_555
C22 H34 1_555 1_555
H35 C22 1_555 1_555
C23 C22 1_555 1_555
H36 C23 1_555 1_555
H37 C23 1_555 1_555
C24 C23 1_555 1_555
H38 C24 1_555 1_555
C25 C24 1_555 1_555
H39 C25 1_555 1_555
H40 C25 1_555 1_555
C26 C25 1_555 1_555
H41 C26 1_555 1_555
C27 C26 1_555 1_555
H42 C27 1_555 1_555
H43 C27 1_555 1_555
C28 C27 1_555 1_555
H44 C28 1_555 1_555
H45 C28 1_555 1_555
C29 C28 1_555 1_555
H46 C29 1_555 1_555
C30 C29 1_555 1_555
H47 C30 1_555 1_555
C31 C22 1_555 1_555
C32 C30 1_555 1_555
H48 C32 1_555 1_555
H49 C32 1_555 1_555
C33 C32 1_555 1_555
H50 C33 1_555 1_555
H51 C33 1_555 1_555
C34 C33 1_555 1_555
C35 C29 1_555 1_555
H52 C35 1_555 1_555
C36 C35 1_555 1_555
H53 C36 1_555 1_555
H54 C36 1_555 1_555
C37 C36 1_555 1_555
H55 C37 1_555 1_555
C38 C34 1_555 1_555
H56 C38 1_555 1_555
C39 C31 1_555 1_555
H57 C39 1_555 1_555
H58 C39 1_555 1_555
H59 C39 1_555 1_555
C40 C41 1_555 1_555
C41 H60 1_555 1_555
H61 C41 1_555 1_555
H62 C41 1_555 1_555
O4 C24 1_555 1_555
O5 C40 1_555 1_555
O6 C38 1_555 1_555
H63 O6 1_555 1_555
C42 C34 1_555 1_555
H64 C42 1_555 1_555
H65 C42 1_555 1_555
H66 C42 1_555 1_555
C5 C10 1_555 1_555
C9 C10 1_555 1_555
C13 C14 1_555 1_555
C16 C17 1_555 1_555
C20 O1 1_555 1_555
C26 C31 1_555 1_555
C30 C31 1_555 1_555
C34 C35 1_555 1_555
C37 C38 1_555 1_555
C40 O4 1_555 1_555

#END
