
#######################################################################
#
#                 Cambridge Crystallographic Data Centre
#                                CCDC 
#
#######################################################################
#
# If this CIF has been generated from an entry in the Cambridge 
# Structural Database, then it will include bibliographic, chemical, 
# crystal, experimental, refinement or atomic coordinate data resulting 
# from the CCDC's data processing and validation procedures.
#
#######################################################################

data_KUSRUM
_chemical_formula_moiety         'C19 H18 Br1 N1 O3'
_chemical_name_systematic        
3-Bromo-4-(dibenzylamino)-5-methoxyfuran-2(5H)-one
_symmetry_cell_setting           orthorhombic
_symmetry_space_group_name_H-M   'P b c a'
_symmetry_Int_Tables_number      61
_space_group_name_Hall           '-P 2ac 2ab'
loop_
_symmetry_equiv_pos_site_id
_symmetry_equiv_pos_as_xyz
1 x,y,z
2 1/2-x,-y,1/2+z
3 -x,1/2+y,1/2-z
4 1/2+x,1/2-y,-z
5 -x,-y,-z
6 1/2+x,y,1/2-z
7 x,1/2-y,1/2+z
8 1/2-x,1/2+y,z
_cell_length_a                   15.756(2)
_cell_length_b                   11.2475(14)
_cell_length_c                   19.779(3)
_cell_angle_alpha                90
_cell_angle_beta                 90
_cell_angle_gamma                90
_cell_volume                     3505.15
_exptl_crystal_colour            colorless
_exptl_crystal_description       block
_cell_formula_units_Z            8
loop_
_atom_site_label
_atom_site_type_symbol
_atom_site_fract_x
_atom_site_fract_y
_atom_site_fract_z
Br1 Br 0.09981(2) 1.14889(3) 0.35209(2)
C1 C 0.24254(19) 0.8956(3) 0.36299(14)
C2 C 0.29710(17) 0.8590(3) 0.16073(14)
C3 C 0.25104(19) 0.9658(3) 0.29832(14)
H1 H 0.2423 1.0493 0.3083
H2 H 0.3085 0.9570 0.2815
C4 C 0.3624(2) 0.7779(3) 0.15594(17)
H3 H 0.3598 0.7075 0.1805
C5 C 0.22153(18) 0.8294(2) 0.20442(15)
H4 H 0.1754 0.8027 0.1757
H5 H 0.2365 0.7644 0.2344
C6 C 0.1799(2) 0.8127(3) 0.37322(17)
H6 H 0.1395 0.7997 0.3398
C7 C 0.3031(2) 0.9608(3) 0.12329(18)
H7 H 0.2598 1.0168 0.1252
C8 C 0.3011(2) 0.9133(3) 0.41324(17)
H8 H 0.3436 0.9696 0.4072
C9 C 0.1764(2) 0.7486(3) 0.43241(19)
H9 H 0.1335 0.6928 0.4388
C10 C 0.2981(3) 0.8493(4) 0.47231(18)
H10 H 0.3385 0.8623 0.5058
C11 C 0.2358(3) 0.7666(4) 0.48199(18)
H11 H 0.2337 0.7230 0.5219
C12 C 0.4371(3) 0.9017(4) 0.0793(2)
H12 H 0.4844 0.9168 0.0525
C13 C 0.4314(2) 0.7997(4) 0.1153(2)
H13 H 0.4747 0.7438 0.1125
C14 C 0.3730(3) 0.9814(4) 0.0826(2)
H14 H 0.3760 1.0509 0.0573
N1 N 0.19202(15) 0.9304(2) 0.24524(12)
O1 O 0.08872(13) 0.95812(19) 0.12416(10)
O2 O -0.06901(14) 1.1434(2) 0.26344(12)
O3 O -0.02363(12) 0.99727(18) 0.19541(10)
C15 C 0.05326(18) 0.9313(3) 0.18643(14)
H15 H 0.0426 0.8457 0.1904
C16 C 0.11283(18) 0.9735(2) 0.24190(14)
C17 C -0.0134(2) 1.0746(3) 0.24854(16)
C18 C 0.06917(18) 1.0562(2) 0.27812(14)
C19 C 0.0499(3) 0.8984(4) 0.07008(18)
H16 H 0.0518 0.8142 0.0780
H17 H 0.0794 0.9166 0.0289
H18 H -0.0082 0.9235 0.0663
loop_
_geom_bond_atom_site_label_1
_geom_bond_atom_site_label_2
_geom_bond_site_symmetry_1
_geom_bond_site_symmetry_2
Br1 C18 1_555 1_555
C1 C3 1_555 1_555
C2 C4 1_555 1_555
C3 H1 1_555 1_555
H2 C3 1_555 1_555
C4 H3 1_555 1_555
C5 C2 1_555 1_555
H4 C5 1_555 1_555
H5 C5 1_555 1_555
C6 C1 1_555 1_555
H6 C6 1_555 1_555
C7 C2 1_555 1_555
H7 C7 1_555 1_555
C8 C1 1_555 1_555
H8 C8 1_555 1_555
C9 C6 1_555 1_555
H9 C9 1_555 1_555
C10 C8 1_555 1_555
H10 C10 1_555 1_555
C11 C9 1_555 1_555
H11 C11 1_555 1_555
C12 H12 1_555 1_555
C13 C4 1_555 1_555
H13 C13 1_555 1_555
C14 C7 1_555 1_555
H14 C14 1_555 1_555
N1 C3 1_555 1_555
O1 C15 1_555 1_555
O2 C17 1_555 1_555
O3 C15 1_555 1_555
C15 H15 1_555 1_555
C16 N1 1_555 1_555
C17 O3 1_555 1_555
C18 C16 1_555 1_555
C19 O1 1_555 1_555
H16 C19 1_555 1_555
H17 C19 1_555 1_555
H18 C19 1_555 1_555
C5 N1 1_555 1_555
C10 C11 1_555 1_555
C12 C13 1_555 1_555
C12 C14 1_555 1_555
C15 C16 1_555 1_555
C17 C18 1_555 1_555

#END
