
#######################################################################
#
#                 Cambridge Crystallographic Data Centre
#                                CCDC 
#
#######################################################################
#
# If this CIF has been generated from an entry in the Cambridge 
# Structural Database, then it will include bibliographic, chemical, 
# crystal, experimental, refinement or atomic coordinate data resulting 
# from the CCDC's data processing and validation procedures.
#
#######################################################################

data_KUSSIC
_chemical_formula_moiety         'C24 H27 Cl1 N2 O3'
_chemical_name_systematic        
'methyl (1-(4-chlorophenyl)-5-isopropyl-7-oxo-3-phenyltetrahydro-1H,5H-pyrazolo[1,2-a]pyrazol-1-yl)acetate'
_symmetry_cell_setting           triclinic
_symmetry_space_group_name_H-M   'P -1'
_symmetry_Int_Tables_number      2
_space_group_name_Hall           '-P 1'
loop_
_symmetry_equiv_pos_site_id
_symmetry_equiv_pos_as_xyz
1 x,y,z
2 -x,-y,-z
_cell_length_a                   8.7207(5)
_cell_length_b                   11.0415(6)
_cell_length_c                   12.0957(8)
_cell_angle_alpha                76.6178(19)
_cell_angle_beta                 77.387(2)
_cell_angle_gamma                85.038(2)
_cell_volume                     1104.93
_exptl_crystal_colour            colorless
_exptl_crystal_description       block
_cell_formula_units_Z            2
loop_
_atom_site_label
_atom_site_type_symbol
_atom_site_fract_x
_atom_site_fract_y
_atom_site_fract_z
C1 C 0.5703(2) 0.71508(18) 0.29814(17)
C2 C 0.4854(2) 0.6035(2) 0.2948(2)
H1 H 0.4093 0.6275 0.2452
H2 H 0.4309 0.5645 0.3722
C3 C 0.6123(2) 0.51468(18) 0.24634(19)
H3 H 0.5963 0.431 0.2956
C4 C 0.8154(2) 0.49979(17) 0.36736(17)
H4 H 0.7242 0.4904 0.4321
C5 C 0.9207(2) 0.59816(17) 0.37867(17)
H5 H 1.0296 0.5812 0.3446
H6 H 0.913 0.5994 0.4596
C6 C 0.8588(2) 0.72538(16) 0.31152(16)
C7 C 0.6138(3) 0.5085(2) 0.1212(2)
H7 H 0.5093 0.4831 0.1201
C8 C 0.6403(4) 0.6336(3) 0.0361(2)
H8 H 0.5655 0.6948 0.0632
H9 H 0.6273 0.6262 -0.0388
H10 H 0.7449 0.6589 0.0302
C9 C 0.7306(4) 0.4091(3) 0.0832(3)
H11 H 0.717 0.3974 0.0097
H12 H 0.7133 0.3322 0.14
H13 H 0.8355 0.4346 0.0756
C10 C 0.8910(2) 0.37317(17) 0.35966(17)
C11 C 1.0214(3) 0.3596(2) 0.2742(2)
H14 H 1.0671 0.4299 0.2232
C12 C 1.0844(3) 0.2424(2) 0.2638(2)
H15 H 1.1719 0.2343 0.2059
C13 C 1.0183(3) 0.1382(2) 0.3385(3)
H16 H 1.0613 0.0596 0.3316
C14 C 0.8893(3) 0.1499(2) 0.4232(2)
H17 H 0.8443 0.0791 0.4737
C15 C 0.8254(3) 0.26705(18) 0.43401(19)
H18 H 0.7375 0.2743 0.4919
C16 C 0.8074(2) 0.82195(17) 0.38645(17)
H19 H 0.9001 0.8447 0.4079
H20 H 0.7682 0.8961 0.3385
C17 C 0.6848(2) 0.78622(19) 0.49555(17)
C18 C 0.5268(3) 0.8709(2) 0.6468(2)
H21 H 0.431 0.8425 0.6363
H22 H 0.5062 0.9489 0.6705
H23 H 0.5671 0.8104 0.7055
C19 C 0.9859(2) 0.78304(16) 0.20786(16)
C20 C 1.1286(2) 0.81346(19) 0.22575(18)
H24 H 1.147 0.7969 0.3008
C21 C 1.2441(2) 0.8682(2) 0.1334(2)
H25 H 1.3386 0.8894 0.1464
C22 C 1.2170(2) 0.89058(19) 0.02311(18)
C23 C 1.0778(3) 0.8609(2) 0.00282(19)
H26 H 1.0608 0.8763 -0.0726
C24 C 0.9626(2) 0.80775(19) 0.09558(17)
H27 H 0.8678 0.7883 0.0819
Cl1 Cl 1.35902(8) 0.96035(7) -0.09386(6)
N1 N 0.72758(17) 0.68671(13) 0.27121(13)
N2 N 0.76278(18) 0.55996(13) 0.25797(13)
O1 O 0.51061(17) 0.81428(13) 0.31740(14)
O2 O 0.6353(2) 0.68447(14) 0.54003(14)
O3 O 0.64043(18) 0.88696(13) 0.53948(13)
loop_
_geom_bond_atom_site_label_1
_geom_bond_atom_site_label_2
_geom_bond_site_symmetry_1
_geom_bond_site_symmetry_2
C1 C2 1_555 1_555
C2 H1 1_555 1_555
H2 C2 1_555 1_555
C3 C2 1_555 1_555
H3 C3 1_555 1_555
C4 H4 1_555 1_555
C5 C4 1_555 1_555
H5 C5 1_555 1_555
H6 C5 1_555 1_555
C6 C5 1_555 1_555
C7 C3 1_555 1_555
H7 C7 1_555 1_555
C8 C7 1_555 1_555
H8 C8 1_555 1_555
H9 C8 1_555 1_555
H10 C8 1_555 1_555
C9 C7 1_555 1_555
H11 C9 1_555 1_555
H12 C9 1_555 1_555
H13 C9 1_555 1_555
C10 C4 1_555 1_555
C11 C10 1_555 1_555
H14 C11 1_555 1_555
C12 C11 1_555 1_555
H15 C12 1_555 1_555
C13 C12 1_555 1_555
H16 C13 1_555 1_555
C14 C13 1_555 1_555
H17 C14 1_555 1_555
C15 C10 1_555 1_555
H18 C15 1_555 1_555
C16 C6 1_555 1_555
H19 C16 1_555 1_555
H20 C16 1_555 1_555
C17 C16 1_555 1_555
C18 H21 1_555 1_555
H22 C18 1_555 1_555
H23 C18 1_555 1_555
C19 C6 1_555 1_555
C20 C19 1_555 1_555
H24 C20 1_555 1_555
C21 C20 1_555 1_555
H25 C21 1_555 1_555
C22 C21 1_555 1_555
C23 C22 1_555 1_555
H26 C23 1_555 1_555
C24 C19 1_555 1_555
H27 C24 1_555 1_555
Cl1 C22 1_555 1_555
N1 C1 1_555 1_555
N2 C3 1_555 1_555
O1 C1 1_555 1_555
O2 C17 1_555 1_555
O3 C17 1_555 1_555
C4 N2 1_555 1_555
C6 N1 1_555 1_555
C14 C15 1_555 1_555
C18 O3 1_555 1_555
C23 C24 1_555 1_555
N1 N2 1_555 1_555

#END
