
#######################################################################
#
#                 Cambridge Crystallographic Data Centre
#                                CCDC 
#
#######################################################################
#
# If this CIF has been generated from an entry in the Cambridge 
# Structural Database, then it will include bibliographic, chemical, 
# crystal, experimental, refinement or atomic coordinate data resulting 
# from the CCDC's data processing and validation procedures.
#
#######################################################################

data_KUSSOI
_chemical_formula_moiety         'C26 H21 Cl1 N2 O2,0.5(C3 H8 O1)'
_chemical_name_systematic        
'7-(4-chlorophenyl)-3,5-diphenyl-2,3,5,6-tetrahydro-1H,9H-pyrazolo[1,2-a][1,2]diazepine-1,9-dione propan-2-ol solvate'
_symmetry_cell_setting           monoclinic
_symmetry_space_group_name_H-M   'C 2'
_symmetry_Int_Tables_number      5
_space_group_name_Hall           'C 2y'
loop_
_symmetry_equiv_pos_site_id
_symmetry_equiv_pos_as_xyz
1 x,y,z
2 -x,y,-z
3 1/2+x,1/2+y,z
4 1/2-x,1/2+y,-z
_cell_length_a                   19.2680(14)
_cell_length_b                   9.7295(6)
_cell_length_c                   13.1749(10)
_cell_angle_alpha                90
_cell_angle_beta                 110.476(2)
_cell_angle_gamma                90
_cell_volume                     2313.82
_exptl_crystal_colour            colorless
_exptl_crystal_description       block
_cell_formula_units_Z            4
loop_
_atom_site_label
_atom_site_type_symbol
_atom_site_fract_x
_atom_site_fract_y
_atom_site_fract_z
C1 C 0.89486(16) 0.4413(3) 0.4606(3)
H1 H 0.9294 0.4326 0.5323
C2 C 0.90222(19) 0.3595(4) 0.3783(3)
H2 H 0.9419 0.2957 0.3942
C3 C 0.8522(2) 0.3704(4) 0.2734(3)
H3 H 0.8568 0.3132 0.2177
C4 C 0.7952(2) 0.4654(4) 0.2506(3)
H4 H 0.7613 0.4749 0.1785
C5 C 0.78704(18) 0.5470(4) 0.3324(2)
H5 H 0.7473 0.6107 0.3162
C6 C 0.83751(14) 0.5355(3) 0.4385(2)
C7 C 0.82786(14) 0.6259(3) 0.5261(2)
H6 H 0.8345 0.7248 0.5108
C8 C 0.75181(14) 0.6037(3) 0.5382(2)
H7 H 0.7371 0.6844 0.5717
H8 H 0.7128 0.5843 0.4674
C9 C 0.76664(14) 0.4802(3) 0.6118(2)
C10 C 0.88665(16) 0.3665(3) 0.7224(2)
C11 C 0.96448(16) 0.3981(3) 0.7842(2)
H9 H 1.0001 0.3291 0.7877
C12 C 0.98933(14) 0.5164(3) 0.8361(2)
C13 C 0.93855(15) 0.6385(3) 0.8274(2)
H10 H 0.9675 0.7121 0.8756
H11 H 0.899 0.6103 0.855
C14 C 0.90160(14) 0.6992(3) 0.7129(2)
H12 H 0.8556 0.7494 0.7098
C15 C 0.95185(14) 0.7965(3) 0.6814(2)
C16 C 1.01301(14) 0.7472(3) 0.6592(2)
H13 H 1.0216 0.651 0.6596
C17 C 1.06129(15) 0.8376(3) 0.6368(2)
H14 H 1.1032 0.8033 0.6226
C18 C 1.04866(16) 0.9783(3) 0.6349(2)
H15 H 1.0821 1.0401 0.6202
C19 C 0.98735(15) 1.0282(3) 0.6546(2)
H16 H 0.9783 1.1243 0.6522
C20 C 0.93887(15) 0.9376(3) 0.6778(2)
H17 H 0.8968 0.9722 0.6913
C21 C 1.06706(14) 0.5232(4) 0.9129(2)
C22 C 1.09814(17) 0.4094(3) 0.9781(2)
H18 H 1.069 0.3295 0.9739
C23 C 1.17109(17) 0.4121(4) 1.0488(3)
H19 H 1.1915 0.335 1.0935
C24 C 1.21343(15) 0.5270(4) 1.0536(2)
C25 C 1.18396(18) 0.6423(4) 0.9911(3)
H20 H 1.2137 0.7216 0.9957
C26 C 1.11063(17) 0.6403(4) 0.9219(3)
H21 H 1.0899 0.7195 0.8801
Cl1 Cl 1.30542(5) 0.52688(12) 1.14017(8)
N1 N 0.84388(12) 0.4777(2) 0.66767(19)
N2 N 0.88140(12) 0.5862(2) 0.63374(19)
O1 O 0.72364(12) 0.3966(2) 0.62247(19)
O2 O 0.86065(13) 0.2528(2) 0.7221(2)
O3 O -0.0098(3) 0.1502(5) 0.9188(5)
H22 H -0.0462 0.1234 0.8513
C27 C 0.0033(4) 0.0128(8) 0.9635(6)
H23 H 0.0057 -0.0529 0.9064
C28 C 0.0788(5) 0.0193(10) 1.0538(6)
H24 H 0.1167 0.0431 1.0231
H25 H 0.0904 -0.0703 1.0897
H26 H 0.0778 0.0894 1.1067
C29 C -0.0592(6) -0.0253(11) 0.9988(10)
H27 H -0.0613 0.0385 1.0552
H28 H -0.0519 -0.1191 1.0278
H29 H -0.1057 -0.0206 0.9368
O3A O 0.0098(3) 0.1502(5) 1.0812(5)
H22A H 0.0462 0.1234 1.1487
C27A C -0.0033(4) 0.0128(8) 1.0365(6)
H23A H -0.0057 -0.0529 1.0936
C28A C -0.0788(5) 0.0193(10) 0.9462(6)
H24A H -0.1167 0.0431 0.9769
H25A H -0.0904 -0.0703 0.9103
H26A H -0.0778 0.0894 0.8933
C29A C 0.0592(6) -0.0253(11) 1.0012(10)
H27A H 0.0613 0.0385 0.9448
H28A H 0.0519 -0.1191 0.9722
H29A H 0.1057 -0.0206 1.0632
loop_
_geom_bond_atom_site_label_1
_geom_bond_atom_site_label_2
_geom_bond_site_symmetry_1
_geom_bond_site_symmetry_2
C1 H1 1_555 1_555
C2 C1 1_555 1_555
H2 C2 1_555 1_555
C3 C2 1_555 1_555
H3 C3 1_555 1_555
C4 C3 1_555 1_555
H4 C4 1_555 1_555
C5 C4 1_555 1_555
H5 C5 1_555 1_555
C6 C1 1_555 1_555
C7 C6 1_555 1_555
H6 C7 1_555 1_555
C8 C7 1_555 1_555
H7 C8 1_555 1_555
H8 C8 1_555 1_555
C9 C8 1_555 1_555
C10 C11 1_555 1_555
C11 H9 1_555 1_555
C12 C11 1_555 1_555
C13 C12 1_555 1_555
H10 C13 1_555 1_555
H11 C13 1_555 1_555
C14 C13 1_555 1_555
H12 C14 1_555 1_555
C15 C14 1_555 1_555
C16 C15 1_555 1_555
H13 C16 1_555 1_555
C17 C16 1_555 1_555
H14 C17 1_555 1_555
C18 C17 1_555 1_555
H15 C18 1_555 1_555
C19 C18 1_555 1_555
H16 C19 1_555 1_555
C20 C15 1_555 1_555
H17 C20 1_555 1_555
C21 C12 1_555 1_555
C22 C21 1_555 1_555
H18 C22 1_555 1_555
C23 C22 1_555 1_555
H19 C23 1_555 1_555
C24 C23 1_555 1_555
C25 C24 1_555 1_555
H20 C25 1_555 1_555
C26 C21 1_555 1_555
H21 C26 1_555 1_555
Cl1 C24 1_555 1_555
N1 C9 1_555 1_555
N2 C7 1_555 1_555
O1 C9 1_555 1_555
O2 C10 1_555 1_555
O3 H22 1_555 1_555
C27 O3 1_555 1_555
H23 C27 1_555 1_555
C28 C27 1_555 1_555
H24 C28 1_555 1_555
H25 C28 1_555 1_555
H26 C28 1_555 1_555
C29 C27 1_555 1_555
H27 C29 1_555 1_555
H28 C29 1_555 1_555
H29 C29 1_555 1_555
O3A H22A 1_555 1_555
C27A O3A 1_555 1_555
H23A C27A 1_555 1_555
C28A C27A 1_555 1_555
H24A C28A 1_555 1_555
H25A C28A 1_555 1_555
H26A C28A 1_555 1_555
C29A C27A 1_555 1_555
H27A C29A 1_555 1_555
H28A C29A 1_555 1_555
H29A C29A 1_555 1_555
C5 C6 1_555 1_555
C10 N1 1_555 1_555
C14 N2 1_555 1_555
C19 C20 1_555 1_555
C25 C26 1_555 1_555
N1 N2 1_555 1_555

#END
