
#######################################################################
#
#                 Cambridge Crystallographic Data Centre
#                                CCDC 
#
#######################################################################
#
# If this CIF has been generated from an entry in the Cambridge 
# Structural Database, then it will include bibliographic, chemical, 
# crystal, experimental, refinement or atomic coordinate data resulting 
# from the CCDC's data processing and validation procedures.
#
#######################################################################

data_KUSTUN
_chemical_formula_moiety         'C24 H25 Cl1 N2 O2'
_chemical_name_systematic        
'(1-(o-Chlorobenzyl)-2-n-butylimidazol-5-yl)-2-benzyl-acrylic acid'
_chemical_properties_biological  'angiotensin II receptor antagonist activity'
_symmetry_cell_setting           triclinic
_symmetry_space_group_name_H-M   'P -1'
_symmetry_Int_Tables_number      2
_space_group_name_Hall           '-P 1'
loop_
_symmetry_equiv_pos_site_id
_symmetry_equiv_pos_as_xyz
1 x,y,z
2 -x,-y,-z
_cell_length_a                   11.634(4)
_cell_length_b                   11.971(5)
_cell_length_c                   8.961(3)
_cell_angle_alpha                96.40(3)
_cell_angle_beta                 112.04(3)
_cell_angle_gamma                61.47(5)
_cell_volume                     1012.8
_chemical_melting_point          177-178deg.C
_cell_formula_units_Z            2
loop_
_atom_site_label
_atom_site_type_symbol
_atom_site_fract_x
_atom_site_fract_y
_atom_site_fract_z
Cl1 Cl 0.51799(5) 0.41447(5) 0.16408(6)
O1 O 0.7236(2) -0.2543(1) 0.3660(2)
O2 O 0.6779(1) -0.0509(1) 0.3607(2)
N1 N 0.6211(2) 0.0940(1) -0.1547(2)
N2 N 0.6572(2) -0.0248(2) -0.3551(2)
C1 C 0.6152(2) 0.0934(2) -0.3092(2)
C2 C 0.6905(2) -0.1017(2) -0.2273(2)
C3 C 0.6690(2) -0.0306(2) -0.0992(2)
C4 C 0.6800(2) -0.0570(2) 0.0613(2)
C5 C 0.7177(2) -0.1667(2) 0.1365(2)
C6 C 0.7083(2) -0.1625(2) 0.2988(2)
C7 C 0.7684(2) -0.2978(2) 0.0744(2)
C8 C 0.9282(2) -0.3738(2) 0.1439(2)
C9 C 1.0081(2) -0.3622(2) 0.0692(2)
C10 C 1.1537(2) -0.4305(2) 0.1317(2)
C11 C 1.2222(2) -0.5128(2) 0.2714(3)
C12 C 1.1433(2) -0.5251(2) 0.3462(3)
C13 C 0.9974(2) -0.4558(2) 0.2829(2)
C14 C 0.5712(2) 0.2066(2) -0.4125(2)
C15 C 0.6909(2) 0.2387(2) -0.3804(2)
C16 C 0.8089(2) 0.1383(2) -0.4329(3)
C17 C 0.9430(2) 0.1515(2) -0.3632(3)
C18 C 0.5820(2) 0.2065(2) -0.0633(2)
C19 C 0.7063(2) 0.2225(2) 0.0536(2)
C20 C 0.8427(2) 0.1457(2) 0.0591(2)
C21 C 0.9537(2) 0.1652(2) 0.1647(3)
C22 C 0.9299(2) 0.2622(2) 0.2676(3)
C23 C 0.7955(2) 0.3394(2) 0.2655(3)
C24 C 0.6862(2) 0.3184(2) 0.1597(2)
H1 H 0.960(2) -0.303(2) -0.030(3)
H2 H 1.205(2) -0.418(2) 0.076(3)
H3 H 1.323(2) -0.558(2) 0.317(3)
H4 H 1.186(2) -0.583(2) 0.444(3)
H5 H 0.945(2) -0.466(2) 0.337(3)
H6 H 0.735(2) -0.293(2) -0.049(3)
H7 H 0.731(2) -0.347(2) 0.109(3)
H8 H 0.653(2) 0.016(2) 0.128(3)
H9 H 0.724(2) -0.190(2) -0.236(3)
H10 H 0.529(2) 0.201(2) -0.004(2)
H11 H 0.520(2) 0.281(2) -0.146(3)
H12 H 0.862(2) 0.075(2) -0.021(3)
H13 H 1.049(2) 0.111(2) 0.161(3)
H14 H 0.674(3) -0.057(3) 0.458(4)
H15 H 0.777(3) 0.406(3) 0.345(3)
H16 H 1.004(2) 0.273(2) 0.341(3)
H17 H 0.487(2) 0.280(2) -0.396(3)
H18 H 0.5328(2) 0.190(2) -0.524(3)
H19 H 0.734(2) 0.244(2) -0.262(3)
H20 H 0.652(2) 0.323(2) -0.441(3)
H21 H 0.772(2) 0.140(2) -0.556(3)
H22 H 0.830(2) 0.052(2) -0.396(3)
H23 H 1.014(3) 0.086(2) -0.405(3)
H24 H 0.918(2) 0.243(2) -0.400(3)
H25 H 0.982(3) 0.136(2) -0.246(3)
loop_
_geom_bond_atom_site_label_1
_geom_bond_atom_site_label_2
_geom_bond_site_symmetry_1
_geom_bond_site_symmetry_2
Cl1 C24 1_555 1_555
O1 C6 1_555 1_555
O2 C6 1_555 1_555
N1 C1 1_555 1_555
N2 C1 1_555 1_555
C1 C14 1_555 1_555
C2 N2 1_555 1_555
C3 N1 1_555 1_555
C4 C3 1_555 1_555
C5 C4 1_555 1_555
C6 C5 1_555 1_555
C7 C5 1_555 1_555
C8 C7 1_555 1_555
C9 C8 1_555 1_555
C10 C9 1_555 1_555
C11 C10 1_555 1_555
C12 C11 1_555 1_555
C13 C8 1_555 1_555
C14 C15 1_555 1_555
C15 C16 1_555 1_555
C16 C17 1_555 1_555
C17 H23 1_555 1_555
C18 N1 1_555 1_555
C19 C18 1_555 1_555
C20 C19 1_555 1_555
C21 C20 1_555 1_555
C22 C21 1_555 1_555
C23 C22 1_555 1_555
C24 C19 1_555 1_555
H1 C9 1_555 1_555
H2 C10 1_555 1_555
H3 C11 1_555 1_555
H4 C12 1_555 1_555
H5 C13 1_555 1_555
H6 C7 1_555 1_555
H7 C7 1_555 1_555
H8 C4 1_555 1_555
H9 C2 1_555 1_555
H10 C18 1_555 1_555
H11 C18 1_555 1_555
H12 C20 1_555 1_555
H13 C21 1_555 1_555
H14 O2 1_555 1_555
H15 C23 1_555 1_555
H16 C22 1_555 1_555
H17 C14 1_555 1_555
H18 C14 1_555 1_555
H19 C15 1_555 1_555
H20 C15 1_555 1_555
H21 C16 1_555 1_555
H22 C16 1_555 1_555
H24 C17 1_555 1_555
H25 C17 1_555 1_555
C2 C3 1_555 1_555
C12 C13 1_555 1_555
C23 C24 1_555 1_555

#END
