
#######################################################################
#
#                 Cambridge Crystallographic Data Centre
#                                CCDC 
#
#######################################################################
#
# If this CIF has been generated from an entry in the Cambridge 
# Structural Database, then it will include bibliographic, chemical, 
# crystal, experimental, refinement or atomic coordinate data resulting 
# from the CCDC's data processing and validation procedures.
#
#######################################################################

data_KUSVIE
_chemical_formula_moiety         'C9 H10 N6'
_chemical_name_systematic        
2,2',2'',2'''-(Methylenedinitrilo)tetraacetonitrile
_symmetry_cell_setting           monoclinic
_symmetry_space_group_name_H-M   'P 21/n'
_symmetry_Int_Tables_number      14
_space_group_name_Hall           '-P 2yn'
loop_
_symmetry_equiv_pos_site_id
_symmetry_equiv_pos_as_xyz
1 x,y,z
2 1/2-x,1/2+y,1/2-z
3 -x,-y,-z
4 1/2+x,1/2-y,1/2+z
_cell_length_a                   6.7430(10)
_cell_length_b                   15.984(3)
_cell_length_c                   10.610(2)
_cell_angle_alpha                90
_cell_angle_beta                 105.88(3)
_cell_angle_gamma                90
_cell_volume                     1099.91
_exptl_crystal_colour            colorless
_exptl_crystal_description       block
_cell_formula_units_Z            4
loop_
_atom_site_label
_atom_site_type_symbol
_atom_site_fract_x
_atom_site_fract_y
_atom_site_fract_z
C1 C -0.0963(3) 0.70909(15) 0.4827(2)
N1 N -0.0281(3) 0.67348(19) 0.5772(2)
C2 C -0.1891(3) 0.75550(13) 0.3610(2)
H1 H -0.2811 0.7179 0.3005
H2 H -0.2727 0.8002 0.3813
N2 N 0.3724(3) 0.66055(14) 0.3957(2)
C3 C 0.2363(3) 0.69176(13) 0.3233(2)
N3 N -0.2530(3) 1.06022(13) 0.3005(2)
C4 C 0.0600(3) 0.73457(12) 0.23192(19)
H3 H 0.1101 0.7652 0.1679
H4 H -0.0362 0.6926 0.1851
N4 N 0.3020(3) 1.08661(11) 0.45391(19)
N5 N -0.0489(2) 0.79180(9) 0.29447(15)
C5 C -0.1757(3) 1.01621(13) 0.2444(2)
N6 N 0.1060(2) 0.91629(9) 0.25246(15)
C6 C -0.0768(3) 0.95691(13) 0.1736(2)
H5 H -0.1765 0.9142 0.1338
H6 H -0.0411 0.9868 0.1032
C7 C 0.2980(3) 1.03432(12) 0.3814(2)
C8 C 0.2920(3) 0.96600(12) 0.2853(2)
H7 H 0.3094 0.9905 0.2053
H8 H 0.4083 0.9292 0.3202
C9 C 0.0716(3) 0.86329(11) 0.35568(18)
H9 H 0.2025 0.8449 0.4129
H10 H -0.0018 0.8941 0.4076
loop_
_geom_bond_atom_site_label_1
_geom_bond_atom_site_label_2
_geom_bond_site_symmetry_1
_geom_bond_site_symmetry_2
C1 N1 1_555 1_555
C2 C1 1_555 1_555
H1 C2 1_555 1_555
H2 C2 1_555 1_555
N2 C3 1_555 1_555
C3 C4 1_555 1_555
N3 C5 1_555 1_555
C4 H3 1_555 1_555
H4 C4 1_555 1_555
N4 C7 1_555 1_555
N5 C2 1_555 1_555
C5 C6 1_555 1_555
N6 C6 1_555 1_555
C6 H5 1_555 1_555
H6 C6 1_555 1_555
C7 C8 1_555 1_555
C8 N6 1_555 1_555
H7 C8 1_555 1_555
H8 C8 1_555 1_555
C9 N5 1_555 1_555
H9 C9 1_555 1_555
H10 C9 1_555 1_555
C4 N5 1_555 1_555
N6 C9 1_555 1_555

#END
