
#######################################################################
#
#                 Cambridge Crystallographic Data Centre
#                                CCDC 
#
#######################################################################
#
# If this CIF has been generated from an entry in the Cambridge 
# Structural Database, then it will include bibliographic, chemical, 
# crystal, experimental, refinement or atomic coordinate data resulting 
# from the CCDC's data processing and validation procedures.
#
#######################################################################

data_KUSVEZ03
_chemical_name_common            p-Toluenesulfonamide
_chemical_formula_moiety         'C7 H9 N1 O2 S1'
_chemical_name_systematic        4-Methylbenzenesulfonamide
_symmetry_cell_setting           triclinic
_symmetry_space_group_name_H-M   'P 1'
_symmetry_Int_Tables_number      1
_space_group_name_Hall           'P 1'
loop_
_symmetry_equiv_pos_site_id
_symmetry_equiv_pos_as_xyz
1 x,y,z
_cell_length_a                   5.1562(2)
_cell_length_b                   8.3250(4)
_cell_length_c                   9.8583(7)
_cell_angle_alpha                100.801(5)
_cell_angle_beta                 102.284(4)
_cell_angle_gamma                90.371(3)
_cell_volume                     405.684
_exptl_crystal_colour            colorless
_exptl_crystal_description       block
_cell_formula_units_Z            2
loop_
_atom_site_label
_atom_site_type_symbol
_atom_site_fract_x
_atom_site_fract_y
_atom_site_fract_z
S1 S 0.50674(11) 0.87303(7) 0.16975(7)
O1 O 0.6190(4) 0.7219(2) 0.1209(2)
O2 O 0.6229(4) 1.0202(2) 0.1469(2)
N1 N 0.2002(5) 0.8624(4) 0.0933(3)
C1 C 0.5313(6) 0.8919(3) 0.3532(3)
C2 C 0.7338(7) 0.8185(4) 0.4329(4)
H1 H 0.8506 0.7543 0.3889
C3 C 0.7616(7) 0.8407(5) 0.5770(4)
H2 H 0.8969 0.7897 0.6292
C4 C 0.5934(8) 0.9368(5) 0.6466(4)
C5 C 0.3937(8) 1.0098(5) 0.5654(4)
H3 H 0.2780 1.0746 0.6097
C6 C 0.3612(7) 0.9891(4) 0.4206(4)
H4 H 0.2259 1.0401 0.3684
C7 C 0.6282(13) 0.9622(7) 0.8042(5)
H5 H 0.4570 0.9637 0.8280
H6 H 0.7246 1.0645 0.8471
H7 H 0.7253 0.8745 0.8383
H8 H 0.110(6) 0.776(4) 0.098(3)
H9 H 0.122(6) 0.949(4) 0.108(3)
S2 S 0.02364(11) 0.38416(8) 0.20094(7)
O3 O 0.1419(4) 0.5311(3) 0.1794(2)
O4 O 0.1374(4) 0.2319(3) 0.1564(2)
N2 N -0.2817(5) 0.3703(4) 0.1188(3)
C8 C 0.0409(6) 0.4068(3) 0.3840(3)
C9 C 0.2420(7) 0.5037(4) 0.4782(4)
H10 H 0.3623 0.5614 0.4450
C10 C 0.2663(8) 0.5158(5) 0.6219(4)
H11 H 0.4038 0.5819 0.6840
C11 C 0.0926(8) 0.4326(5) 0.6758(4)
C12 C -0.1099(9) 0.3368(5) 0.5787(4)
H12 H -0.2314 0.2800 0.6119
C13 C -0.1378(7) 0.3226(4) 0.4357(4)
H13 H -0.2758 0.2568 0.3735
C14 C 0.1195(12) 0.4456(7) 0.8334(5)
H14 H -0.0491 0.4693 0.8572
H15 H 0.2482 0.5319 0.8835
H16 H 0.1766 0.3439 0.8593
H17 H -0.370(6) 0.278(4) 0.121(3)
H18 H -0.352(7) 0.459(5) 0.144(4)
loop_
_geom_bond_atom_site_label_1
_geom_bond_atom_site_label_2
_geom_bond_site_symmetry_1
_geom_bond_site_symmetry_2
S1 O1 1_555 1_555
O2 S1 1_555 1_555
N1 S1 1_555 1_555
C1 S1 1_555 1_555
C2 C1 1_555 1_555
H1 C2 1_555 1_555
C3 C2 1_555 1_555
H2 C3 1_555 1_555
C4 C3 1_555 1_555
C5 C4 1_555 1_555
H3 C5 1_555 1_555
C6 C1 1_555 1_555
H4 C6 1_555 1_555
C7 C4 1_555 1_555
H5 C7 1_555 1_555
H6 C7 1_555 1_555
H7 C7 1_555 1_555
H8 N1 1_555 1_555
H9 N1 1_555 1_555
S2 O3 1_555 1_555
O4 S2 1_555 1_555
N2 S2 1_555 1_555
C8 S2 1_555 1_555
C9 C8 1_555 1_555
H10 C9 1_555 1_555
C10 C9 1_555 1_555
H11 C10 1_555 1_555
C11 C10 1_555 1_555
C12 C11 1_555 1_555
H12 C12 1_555 1_555
C13 C8 1_555 1_555
H13 C13 1_555 1_555
C14 C11 1_555 1_555
H14 C14 1_555 1_555
H15 C14 1_555 1_555
H16 C14 1_555 1_555
H17 N2 1_555 1_555
H18 N2 1_555 1_555
C5 C6 1_555 1_555
C12 C13 1_555 1_555

#END
