
#######################################################################
#
#                 Cambridge Crystallographic Data Centre
#                                CCDC 
#
#######################################################################
#
# If this CIF has been generated from an entry in the Cambridge 
# Structural Database, then it will include bibliographic, chemical, 
# crystal, experimental, refinement or atomic coordinate data resulting 
# from the CCDC's data processing and validation procedures.
#
#######################################################################

data_KUSVEB
_chemical_formula_moiety         'C16 H26 N1 O1 1+,Cl1 1-'
_chemical_name_systematic        
'4-methyl-8-oxo-13-azoniatetracyclo[7.7.0.0^1,6^.0^2,13^]hexadecane chloride'
_symmetry_cell_setting           triclinic
_symmetry_space_group_name_H-M   'P 1'
_symmetry_Int_Tables_number      1
_space_group_name_Hall           'P 1'
loop_
_symmetry_equiv_pos_site_id
_symmetry_equiv_pos_as_xyz
1 x,y,z
_cell_length_a                   7.0468(4)
_cell_length_b                   7.1015(4)
_cell_length_c                   15.3922(8)
_cell_angle_alpha                87.122(4)
_cell_angle_beta                 83.596(5)
_cell_angle_gamma                74.946(5)
_cell_volume                     739.013
_exptl_crystal_colour            colorless
_exptl_crystal_description       prism
_cell_formula_units_Z            2
loop_
_atom_site_label
_atom_site_type_symbol
_atom_site_fract_x
_atom_site_fract_y
_atom_site_fract_z
Cl1 Cl 0.99694(10) 0.00014(10) 0.50038(5)
Cl2 Cl 0.36599(11) 0.42866(11) 0.73980(6)
O1 O 0.0713(5) 0.6984(5) 0.2573(2)
N1 N 0.6286(5) 0.3367(5) 0.48299(19)
H1 H 0.7282 0.2371 0.4934
C1 C 0.4011(6) 0.7500(7) 0.2265(3)
H2 H 0.4074 0.8814 0.2425
H3 H 0.3892 0.7492 0.1630
C2 C 0.2333(6) 0.6886(6) 0.2797(3)
C3 C 0.3028(6) 0.6097(6) 0.3676(2)
H4 H 0.2590 0.7237 0.4072
C4 C 0.2013(6) 0.4569(6) 0.4104(3)
H5 H 0.0567 0.5076 0.4098
H6 H 0.2434 0.3375 0.3752
C5 C 0.2474(6) 0.4032(7) 0.5045(3)
H7 H 0.2385 0.5248 0.5353
H8 H 0.1441 0.3436 0.5339
C6 C 0.4471(6) 0.2647(6) 0.5152(3)
H9 H 0.4556 0.1436 0.4841
H10 H 0.4529 0.2295 0.5781
C7 C 0.6610(6) 0.4981(6) 0.5330(2)
H11 H 0.8047 0.4863 0.5297
H12 H 0.6130 0.4826 0.5952
C8 C 0.5598(6) 0.6997(6) 0.5010(3)
H13 H 0.6093 0.7968 0.5295
H14 H 0.4162 0.7251 0.5187
C9 C 0.5934(6) 0.7268(5) 0.4018(2)
H15 H 0.7345 0.7200 0.3845
H16 H 0.5147 0.8572 0.3842
C10 C 0.5332(5) 0.5679(5) 0.3539(2)
C11 C 0.5795(6) 0.5941(6) 0.2520(3)
H17 H 0.7023 0.6404 0.2387
C12 C 0.5969(7) 0.4084(7) 0.2025(3)
H18 H 0.4632 0.3875 0.2032
H19 H 0.6451 0.4291 0.1408
C13 C 0.7325(7) 0.2232(6) 0.2376(3)
H20 H 0.7154 0.1112 0.2051
C14 C 0.6603(6) 0.1955(6) 0.3340(2)
H21 H 0.5252 0.1765 0.3387
H22 H 0.7481 0.0778 0.3589
C15 C 0.6599(5) 0.3724(5) 0.3847(2)
H23 H 0.7986 0.3854 0.3739
C16 C 0.9511(7) 0.2196(7) 0.2244(3)
H24 H 1.0288 0.0965 0.2481
H25 H 0.9728 0.3289 0.2549
H26 H 0.9922 0.2310 0.1618
O2 O -0.3971(5) 1.4033(4) 0.9718(2)
N2 N 0.0262(4) 0.7911(4) 0.76063(19)
H27 H 0.1282 0.6893 0.7526
C17 C -0.4611(6) 1.0849(6) 1.0068(3)
H28 H -0.5891 1.0763 0.9888
H29 H -0.4773 1.1141 1.0698
C18 C -0.3797(6) 1.2355(6) 0.9516(3)
C19 C -0.2743(6) 1.1418(5) 0.8675(2)
H30 H -0.3758 1.1765 0.8248
C20 C -0.1080(7) 1.2304(6) 0.8275(3)
H31 H 0.0017 1.1951 0.8651
H32 H -0.1572 1.3743 0.8265
C21 C -0.0287(7) 1.1623(6) 0.7344(3)
H33 H -0.1425 1.1660 0.7014
H34 H 0.0411 1.2566 0.7056
C22 C 0.1093(6) 0.9613(6) 0.7275(2)
H35 H 0.2235 0.9589 0.7600
H36 H 0.1602 0.9395 0.6652
C23 C -0.1221(6) 0.7475(6) 0.7074(2)
H37 H -0.1137 0.6061 0.7125
H38 H -0.0875 0.7786 0.6451
C24 C -0.3336(6) 0.8602(6) 0.7346(2)
H39 H -0.4246 0.8068 0.7045
H40 H -0.3510 0.9984 0.7157
C25 C -0.3888(6) 0.8500(5) 0.8337(2)
H41 H -0.3884 0.7142 0.8519
H42 H -0.5237 0.9334 0.8486
C26 C -0.2415(5) 0.9187(5) 0.8836(2)
C27 C -0.2970(6) 0.8970(6) 0.9857(2)
H43 H -0.3476 0.7787 0.9996
C28 C -0.1253(6) 0.8949(6) 1.0385(2)
H44 H -0.1649 0.8680 1.1006
H45 H -0.1014 1.0266 1.0345
C29 C 0.0686(6) 0.7461(7) 1.0098(2)
H46 H 0.1721 0.7697 1.0443
C30 C 0.1278(6) 0.7898(6) 0.9128(2)
H47 H 0.1531 0.9208 0.9066
H48 H 0.2506 0.6927 0.8917
C31 C -0.0371(5) 0.7817(5) 0.8585(2)
H49 H -0.0559 0.6474 0.8696
C32 C 0.0599(7) 0.5347(7) 1.0276(3)
H50 H 0.1872 0.4468 1.0069
H51 H -0.0445 0.5084 0.9967
H52 H 0.0315 0.5132 1.0905
loop_
_geom_bond_atom_site_label_1
_geom_bond_atom_site_label_2
_geom_bond_site_symmetry_1
_geom_bond_site_symmetry_2
O1 C2 1_555 1_555
N1 H1 1_555 1_555
C1 H2 1_555 1_555
H3 C1 1_555 1_555
C2 C1 1_555 1_555
C3 C2 1_555 1_555
H4 C3 1_555 1_555
C4 C3 1_555 1_555
H5 C4 1_555 1_555
H6 C4 1_555 1_555
C5 C4 1_555 1_555
H7 C5 1_555 1_555
H8 C5 1_555 1_555
C6 N1 1_555 1_555
H9 C6 1_555 1_555
H10 C6 1_555 1_555
C7 N1 1_555 1_555
H11 C7 1_555 1_555
H12 C7 1_555 1_555
C8 C7 1_555 1_555
H13 C8 1_555 1_555
H14 C8 1_555 1_555
C9 C8 1_555 1_555
H15 C9 1_555 1_555
H16 C9 1_555 1_555
C10 C3 1_555 1_555
C11 C1 1_555 1_555
H17 C11 1_555 1_555
C12 C11 1_555 1_555
H18 C12 1_555 1_555
H19 C12 1_555 1_555
C13 C12 1_555 1_555
H20 C13 1_555 1_555
C14 C13 1_555 1_555
H21 C14 1_555 1_555
H22 C14 1_555 1_555
C15 N1 1_555 1_555
H23 C15 1_555 1_555
C16 C13 1_555 1_555
H24 C16 1_555 1_555
H25 C16 1_555 1_555
H26 C16 1_555 1_555
O2 C18 1_555 1_555
N2 H27 1_555 1_555
C17 H28 1_555 1_555
H29 C17 1_555 1_555
C18 C17 1_555 1_555
C19 C18 1_555 1_555
H30 C19 1_555 1_555
C20 C19 1_555 1_555
H31 C20 1_555 1_555
H32 C20 1_555 1_555
C21 C20 1_555 1_555
H33 C21 1_555 1_555
H34 C21 1_555 1_555
C22 N2 1_555 1_555
H35 C22 1_555 1_555
H36 C22 1_555 1_555
C23 N2 1_555 1_555
H37 C23 1_555 1_555
H38 C23 1_555 1_555
C24 C23 1_555 1_555
H39 C24 1_555 1_555
H40 C24 1_555 1_555
C25 C24 1_555 1_555
H41 C25 1_555 1_555
H42 C25 1_555 1_555
C26 C19 1_555 1_555
C27 C17 1_555 1_555
H43 C27 1_555 1_555
C28 C27 1_555 1_555
H44 C28 1_555 1_555
H45 C28 1_555 1_555
C29 C28 1_555 1_555
H46 C29 1_555 1_555
C30 C29 1_555 1_555
H47 C30 1_555 1_555
H48 C30 1_555 1_555
C31 N2 1_555 1_555
H49 C31 1_555 1_555
C32 C29 1_555 1_555
H50 C32 1_555 1_555
H51 C32 1_555 1_555
H52 C32 1_555 1_555
C5 C6 1_555 1_555
C9 C10 1_555 1_555
C10 C11 1_555 1_555
C10 C15 1_555 1_555
C14 C15 1_555 1_555
C21 C22 1_555 1_555
C25 C26 1_555 1_555
C26 C27 1_555 1_555
C26 C31 1_555 1_555
C30 C31 1_555 1_555

#END
