
#######################################################################
#
#                 Cambridge Crystallographic Data Centre
#                                CCDC 
#
#######################################################################
#
# If this CIF has been generated from an entry in the Cambridge 
# Structural Database, then it will include bibliographic, chemical, 
# crystal, experimental, refinement or atomic coordinate data resulting 
# from the CCDC's data processing and validation procedures.
#
#######################################################################

data_KUSWAY
_chemical_formula_moiety         'C46 H58 N6 O4,C4 H8 O2'
_chemical_name_systematic        
"diethyl 5,5'-(5,10,10,15,20,20-hexamethyl-5,10,15,20,22,24-hexahydroporphyrin-5,15-diyl)bis(3-ethyl-4-methyl-1H-pyrrole-2-carboxylate) ethyl acetate solvate"
_symmetry_cell_setting           triclinic
_symmetry_space_group_name_H-M   'P -1'
_symmetry_Int_Tables_number      2
_space_group_name_Hall           '-P 1'
loop_
_symmetry_equiv_pos_site_id
_symmetry_equiv_pos_as_xyz
1 x,y,z
2 -x,-y,-z
_cell_length_a                   10.4590(2)
_cell_length_b                   14.6430(4)
_cell_length_c                   18.3230(5)
_cell_angle_alpha                103.891(2)
_cell_angle_beta                 106.045(2)
_cell_angle_gamma                107.1360(10)
_cell_volume                     2414.07
_cell_formula_units_Z            2
loop_
_atom_site_label
_atom_site_type_symbol
_atom_site_fract_x
_atom_site_fract_y
_atom_site_fract_z
O1 O 0.1689(3) 0.0992(2) 0.84800(14)
O2 O 0.0937(2) 0.22988(19) 0.85879(13)
O3 O 0.2471(3) 0.8352(2) 0.32874(13)
O4 O 0.4126(3) 0.8212(3) 0.43035(13)
N1 N 0.5748(2) 0.61833(17) 0.76982(12)
H1 H 0.6159 0.6777 0.8096
N2 N 0.2606(2) 0.53313(17) 0.80296(12)
H2 H 0.2478 0.5044 0.7520
N3 N 0.1085(2) 0.67476(18) 0.71192(12)
H3 H 0.1607 0.7220 0.7601
N4 N 0.3929(2) 0.72973(18) 0.65343(12)
H4 H 0.3348 0.6650 0.6287
N5 N 0.3299(3) 0.35568(19) 0.85479(12)
H5 H 0.2659 0.3815 0.8609
N6 N 0.2491(3) 0.80203(18) 0.51635(12)
H6 H 0.3373 0.8059 0.5391
C1 C 0.5617(3) 0.6044(2) 0.69038(15)
C2 C 0.4934(3) 0.5028(3) 0.64897(16)
H7 H 0.4693 0.4704 0.5927
C3 C 0.4635(3) 0.4527(2) 0.70316(15)
H8 H 0.4168 0.3813 0.6899
C4 C 0.5143(3) 0.5256(2) 0.77762(15)
C5 C 0.5005(3) 0.5180(2) 0.85647(14)
C6 C 0.3819(3) 0.5542(2) 0.86817(15)
C7 C 0.3607(3) 0.5975(2) 0.93615(15)
H9 H 0.4262 0.6200 0.9905
C8 C 0.2224(3) 0.6027(2) 0.91065(16)
H10 H 0.1795 0.6294 0.9454
C9 C 0.1617(3) 0.5629(2) 0.82790(15)
C10 C 0.0134(3) 0.5397(2) 0.76820(15)
C11 C 0.0257(3) 0.5760(2) 0.69889(15)
C12 C -0.0371(3) 0.5279(2) 0.61675(16)
H11 H -0.1010 0.4584 0.5890
C13 C 0.0095(3) 0.5993(2) 0.58018(17)
H12 H -0.0177 0.5856 0.5235
C14 C 0.0993(3) 0.6904(2) 0.63917(15)
C15 C 0.1893(3) 0.7913(2) 0.63780(15)
C16 C 0.3481(3) 0.8093(2) 0.67074(15)
C17 C 0.4700(3) 0.8964(2) 0.70812(16)
H13 H 0.4734 0.9638 0.7267
C18 C 0.5911(3) 0.8689(2) 0.71451(16)
H14 H 0.6894 0.9147 0.7385
C19 C 0.5419(3) 0.7658(2) 0.68042(15)
C20 C 0.6175(3) 0.6936(2) 0.66461(15)
C21 C 0.6431(3) 0.5849(2) 0.92994(14)
H15 H 0.6306 0.5777 0.9796
H16 H 0.6690 0.6564 0.9341
H17 H 0.7200 0.5628 0.9227
C22 C -0.0734(3) 0.4241(2) 0.73444(16)
H18 H -0.0267 0.3899 0.7041
H19 H -0.1715 0.4090 0.6983
H20 H -0.0775 0.3995 0.7793
C23 C -0.0663(3) 0.5925(2) 0.81169(16)
H21 H -0.0733 0.5691 0.8568
H22 H -0.1635 0.5755 0.7733
H23 H -0.0129 0.6666 0.8326
C24 C 0.1652(3) 0.8806(2) 0.68933(15)
H24 H 0.1962 0.8847 0.7460
H25 H 0.0626 0.8690 0.6690
H26 H 0.2217 0.9447 0.6856
C25 C 0.5848(3) 0.6535(2) 0.57246(15)
H27 H 0.6357 0.6085 0.5615
H28 H 0.6172 0.7111 0.5546
H29 H 0.4807 0.6153 0.5430
C26 C 0.7808(3) 0.7519(2) 0.70982(17)
H30 H 0.8025 0.7793 0.7681
H31 H 0.8143 0.8081 0.6907
H32 H 0.8300 0.7055 0.6996
C27 C 0.4576(3) 0.4077(2) 0.85055(14)
C28 C 0.5276(3) 0.3410(2) 0.84110(14)
C29 C 0.4375(3) 0.2461(2) 0.83913(14)
C30 C 0.3150(3) 0.2577(2) 0.84831(15)
C31 C 0.1895(4) 0.1867(3) 0.85138(17)
C32 C -0.0426(5) 0.1680(4) 0.8601(3)
H33 H -0.1209 0.1461 0.8068
H34 H -0.0358 0.1063 0.8711
C33 C -0.0728(6) 0.2249(5) 0.9197(4)
H35 H -0.0013 0.2392 0.9730
H36 H -0.1693 0.1866 0.9170
H37 H -0.0693 0.2892 0.9117
C34 C 0.6731(3) 0.3646(2) 0.83512(17)
H38 H 0.6905 0.4166 0.8098
H39 H 0.6764 0.3025 0.8021
H40 H 0.7476 0.3903 0.8895
C35 C 0.4680(4) 0.1510(2) 0.82936(16)
H41 H 0.5398 0.1545 0.8034
H42 H 0.3782 0.0916 0.7927
C36 C 0.5248(4) 0.1346(3) 0.90922(17)
H43 H 0.6108 0.1948 0.9470
H44 H 0.5499 0.0746 0.8994
H45 H 0.4503 0.1239 0.9326
C37 C 0.1486(3) 0.7904(2) 0.55090(15)
C38 C 0.0234(3) 0.7861(2) 0.49561(16)
C39 C 0.0524(3) 0.7974(2) 0.42661(15)
C40 C 0.1932(3) 0.8069(2) 0.44089(16)
C41 C 0.2831(4) 0.8235(3) 0.3934(2)
C42 C 0.5223(6) 0.8329(5) 0.3921(3)
H46 H 0.5717 0.7858 0.4000
H47 H 0.4754 0.8170 0.3331
C43 C 0.6166(6) 0.9291(4) 0.4273(3)
H48 H 0.5682 0.9746 0.4149
H49 H 0.6951 0.9379 0.4068
H50 H 0.6562 0.9456 0.4861
C44 C -0.1182(3) 0.7708(3) 0.50552(17)
H51 H -0.1238 0.7390 0.5465
H52 H -0.1973 0.7265 0.4537
H53 H -0.1261 0.8370 0.5228
C45 C -0.0490(4) 0.8044(2) 0.35381(16)
H54 H -0.1497 0.7640 0.3452
H55 H -0.0305 0.7750 0.3051
C46 C -0.0307(4) 0.9148(3) 0.36450(18)
H56 H -0.0459 0.9448 0.4137
H57 H -0.1015 0.9164 0.3174
H58 H 0.0669 0.9539 0.3693
O5 O 0.7058(2) 0.81926(16) 0.90097(11)
O6 O 0.6795(2) 0.95751(16) 0.96917(11)
C47 C 0.4679(3) 0.8192(2) 0.87677(17)
H59 H 0.4384 0.7898 0.8179
H60 H 0.4317 0.8732 0.8897
H61 H 0.4280 0.7660 0.8973
C48 C 0.6287(3) 0.8631(3) 0.91548(16)
C49 C 0.8351(3) 1.0055(2) 1.01014(17)
H62 H 0.8808 1.0211 0.9716
H63 H 0.8721 0.9593 1.0329
C50 C 0.8691(4) 1.1021(3) 1.07686(19)
H64 H 0.8228 1.1437 1.0544
H65 H 0.9738 1.1402 1.1018
H66 H 0.8329 1.0852 1.1179
loop_
_geom_bond_atom_site_label_1
_geom_bond_atom_site_label_2
_geom_bond_site_symmetry_1
_geom_bond_site_symmetry_2
O1 C31 1_555 1_555
O2 C31 1_555 1_555
O3 C41 1_555 1_555
O4 C41 1_555 1_555
N1 H1 1_555 1_555
N2 H2 1_555 1_555
N3 H3 1_555 1_555
N4 H4 1_555 1_555
N5 H5 1_555 1_555
N6 H6 1_555 1_555
C1 N1 1_555 1_555
C2 C1 1_555 1_555
H7 C2 1_555 1_555
C3 C2 1_555 1_555
H8 C3 1_555 1_555
C4 N1 1_555 1_555
C5 C4 1_555 1_555
C6 N2 1_555 1_555
C7 C6 1_555 1_555
H9 C7 1_555 1_555
C8 C7 1_555 1_555
H10 C8 1_555 1_555
C9 N2 1_555 1_555
C10 C9 1_555 1_555
C11 N3 1_555 1_555
C12 C11 1_555 1_555
H11 C12 1_555 1_555
C13 C12 1_555 1_555
H12 C13 1_555 1_555
C14 N3 1_555 1_555
C15 C14 1_555 1_555
C16 N4 1_555 1_555
C17 C16 1_555 1_555
H13 C17 1_555 1_555
C18 C17 1_555 1_555
H14 C18 1_555 1_555
C19 N4 1_555 1_555
C20 C1 1_555 1_555
C21 C5 1_555 1_555
H15 C21 1_555 1_555
H16 C21 1_555 1_555
H17 C21 1_555 1_555
C22 C10 1_555 1_555
H18 C22 1_555 1_555
H19 C22 1_555 1_555
H20 C22 1_555 1_555
C23 C10 1_555 1_555
H21 C23 1_555 1_555
H22 C23 1_555 1_555
H23 C23 1_555 1_555
C24 C15 1_555 1_555
H24 C24 1_555 1_555
H25 C24 1_555 1_555
H26 C24 1_555 1_555
C25 C20 1_555 1_555
H27 C25 1_555 1_555
H28 C25 1_555 1_555
H29 C25 1_555 1_555
C26 C20 1_555 1_555
H30 C26 1_555 1_555
H31 C26 1_555 1_555
H32 C26 1_555 1_555
C27 N5 1_555 1_555
C28 C27 1_555 1_555
C29 C28 1_555 1_555
C30 N5 1_555 1_555
C31 C30 1_555 1_555
C32 O2 1_555 1_555
H33 C32 1_555 1_555
H34 C32 1_555 1_555
C33 C32 1_555 1_555
H35 C33 1_555 1_555
H36 C33 1_555 1_555
H37 C33 1_555 1_555
C34 C28 1_555 1_555
H38 C34 1_555 1_555
H39 C34 1_555 1_555
H40 C34 1_555 1_555
C35 C29 1_555 1_555
H41 C35 1_555 1_555
H42 C35 1_555 1_555
C36 C35 1_555 1_555
H43 C36 1_555 1_555
H44 C36 1_555 1_555
H45 C36 1_555 1_555
C37 N6 1_555 1_555
C38 C37 1_555 1_555
C39 C38 1_555 1_555
C40 N6 1_555 1_555
C41 C40 1_555 1_555
C42 O4 1_555 1_555
H46 C42 1_555 1_555
H47 C42 1_555 1_555
C43 C42 1_555 1_555
H48 C43 1_555 1_555
H49 C43 1_555 1_555
H50 C43 1_555 1_555
C44 C38 1_555 1_555
H51 C44 1_555 1_555
H52 C44 1_555 1_555
H53 C44 1_555 1_555
C45 C39 1_555 1_555
H54 C45 1_555 1_555
H55 C45 1_555 1_555
C46 C45 1_555 1_555
H56 C46 1_555 1_555
H57 C46 1_555 1_555
H58 C46 1_555 1_555
O5 C48 1_555 1_555
O6 C48 1_555 1_555
C47 H59 1_555 1_555
H60 C47 1_555 1_555
H61 C47 1_555 1_555
C48 C47 1_555 1_555
C49 O6 1_555 1_555
H62 C49 1_555 1_555
H63 C49 1_555 1_555
C50 C49 1_555 1_555
H64 C50 1_555 1_555
H65 C50 1_555 1_555
H66 C50 1_555 1_555
C3 C4 1_555 1_555
C5 C6 1_555 1_555
C5 C27 1_555 1_555
C8 C9 1_555 1_555
C10 C11 1_555 1_555
C13 C14 1_555 1_555
C15 C16 1_555 1_555
C15 C37 1_555 1_555
C18 C19 1_555 1_555
C19 C20 1_555 1_555
C29 C30 1_555 1_555
C39 C40 1_555 1_555

#END
