
#######################################################################
#
#                 Cambridge Crystallographic Data Centre
#                                CCDC 
#
#######################################################################
#
# If this CIF has been generated from an entry in the Cambridge 
# Structural Database, then it will include bibliographic, chemical, 
# crystal, experimental, refinement or atomic coordinate data resulting 
# from the CCDC's data processing and validation procedures.
#
#######################################################################

data_KUSYOM
_chemical_formula_moiety         'C15 H12'
_chemical_name_systematic        (3)(1,8)Biphenylenophane
_symmetry_cell_setting           orthorhombic
_symmetry_space_group_name_H-M   'P m n 21'
_symmetry_Int_Tables_number      31
_space_group_name_Hall           'P 2ac -2'
loop_
_symmetry_equiv_pos_site_id
_symmetry_equiv_pos_as_xyz
1 x,y,z
2 -x,y,z
3 1/2+x,-y,1/2+z
4 1/2-x,-y,1/2+z
_cell_length_a                   33.553(2)
_cell_length_b                   7.882(1)
_cell_length_c                   7.818(1)
_cell_angle_alpha                90
_cell_angle_beta                 90
_cell_angle_gamma                90
_cell_volume                     2067.59
_exptl_crystal_colour            'pale yellow'
_chemical_melting_point          77-79deg.C
_cell_formula_units_Z            8
loop_
_atom_site_label
_atom_site_type_symbol
_atom_site_fract_x
_atom_site_fract_y
_atom_site_fract_z
C1 C 0.47664(7) 0.6356(3) 0.0388(4)
C2 C 0.44050(8) 0.5605(4) 0.0571(4)
C3 C 0.40755(8) 0.6618(4) 0.0052(4)
C4 C 0.41061(8) 0.8228(4) -0.0612(4)
C5 C 0.44825(7) 0.9013(3) -0.0833(4)
C6 C 0.47834(7) 0.8027(3) -0.0276(4)
C7 C 0.45934(8) 1.0704(3) -0.1615(4)
C8 C 0.50000(6) 1.1449(5) -0.1056(6)
H1 H 0.43730(8) 0.4425(4) 0.1021(4)
H2 H 0.38022(8) 0.6139(4) 0.0217(4)
H3 H 0.38587(8) 0.8843(4) -0.0964(4)
H4 H 0.46014(8) 1.0550(3) -0.2948(4)
H5 H 0.43700(8) 1.1580(3) -0.1291(4)
H6 H 0.50000(6) 1.2718(5) -0.1465(6)
H7 H 0.50000(6) 1.1408(5) 0.0287(6)
C1A C 0.52336(7) 0.6356(3) 0.0388(4)
C6A C 0.52166(7) 0.8027(3) -0.0276(4)
C7A C 0.54066(8) 1.0704(3) -0.1615(4)
C2A C 0.55950(8) 0.5605(4) 0.0571(4)
C5A C 0.55175(7) 0.9013(3) -0.0833(4)
H4A H 0.53986(8) 1.0550(3) -0.2948(4)
H5A H 0.56300(8) 1.1580(3) -0.1291(4)
C3A C 0.59245(8) 0.6618(4) 0.0052(4)
H1A H 0.56270(8) 0.4425(4) 0.1021(4)
C4A C 0.58939(8) 0.8228(4) -0.0612(4)
H2A H 0.61978(8) 0.6139(4) 0.0217(4)
H3A H 0.61413(8) 0.8843(4) -0.0964(4)
C9 C 0.47671(7) 0.1528(3) 0.3675(4)
C10 C 0.44039(8) 0.0799(3) 0.3425(4)
C11 C 0.40742(8) 0.1814(4) 0.3922(4)
C12 C 0.41066(7) 0.3423(3) 0.4621(4)
C13 C 0.44831(7) 0.4183(3) 0.4887(4)
C14 C 0.47830(7) 0.3170(3) 0.4364(4)
C15 C 0.45938(7) 0.5875(3) 0.5654(4)
C16 C 0.50000(6) 0.6614(4) 0.5083(6)
H8 H 0.43713(8) -0.0351(3) 0.2903(4)
H9 H 0.38014(8) 0.1326(4) 0.3771(4)
H10 H 0.38598(7) 0.4057(3) 0.4946(4)
H11 H 0.46024(7) 0.5734(3) 0.6989(4)
H12 H 0.43702(7) 0.6748(3) 0.5324(4)
H13 H 0.50000(6) 0.7888(4) 0.5478(6)
H14 H 0.50000(6) 0.6558(4) 0.3741(6)
C9A C 0.52329(7) 0.1528(3) 0.3675(4)
C14A C 0.52170(7) 0.3170(3) 0.4364(4)
C15A C 0.54062(7) 0.5875(3) 0.5654(4)
C10A C 0.55961(8) 0.0799(3) 0.3425(4)
C13A C 0.55169(7) 0.4183(3) 0.4887(4)
H11A H 0.53976(7) 0.5734(3) 0.6989(4)
H12A H 0.56298(7) 0.6748(3) 0.5324(4)
C11A C 0.59258(8) 0.1814(4) 0.3922(4)
H8A H 0.56287(8) -0.0351(3) 0.2903(4)
C12A C 0.58934(7) 0.3423(3) 0.4621(4)
H9A H 0.61986(8) 0.1326(4) 0.3771(4)
H10A H 0.61402(7) 0.4057(3) 0.4946(4)
C17 C 0.30266(7) 0.2802(3) 0.0857(4)
C18 C 0.33924(9) 0.2583(3) 0.0006(5)
C19 C 0.34034(9) 0.1935(4) -0.1654(6)
C20 C 0.30622(8) 0.1454(3) -0.2612(4)
C21 C 0.27114(8) 0.1640(3) -0.1766(4)
C22 C 0.22472(7) 0.1666(3) -0.1658(4)
C23 C 0.18721(9) 0.1524(3) -0.2337(5)
C24 C 0.15603(9) 0.2042(4) -0.1239(6)
C25 C 0.16140(8) 0.2673(4) 0.0386(5)
C26 C 0.19967(8) 0.2862(3) 0.1080(4)
C27 C 0.22838(7) 0.2309(3) 0.0013(4)
C28 C 0.27161(8) 0.2280(3) -0.0087(4)
C29 C 0.21269(9) 0.3620(4) 0.2759(4)
C30 C 0.25364(9) 0.3071(4) 0.3411(4)
C31 C 0.29372(9) 0.3592(4) 0.2579(4)
H15 H 0.36469(9) 0.2897(3) 0.0592(5)
H16 H 0.36705(9) 0.1796(4) -0.2204(6)
H17 H 0.30791(8) 0.1012(3) -0.3809(4)
H18 H 0.18250(9) 0.1088(3) -0.3521(5)
H19 H 0.12808(9) 0.1952(4) -0.1674(6)
H20 H 0.13769(8) 0.3007(4) 0.1084(5)
H21 H 0.21298(9) 0.4944(4) 0.2618(4)
H22 H 0.19156(9) 0.3279(4) 0.3688(4)
H23 H 0.25522(9) 0.3496(4) 0.4682(4)
H24 H 0.25336(9) 0.1739(4) 0.3391(4)
H25 H 0.31674(9) 0.3257(4) 0.3423(4)
H26 H 0.29337(9) 0.4914(4) 0.2418(4)
loop_
_geom_bond_atom_site_label_1
_geom_bond_atom_site_label_2
_geom_bond_site_symmetry_1
_geom_bond_site_symmetry_2
C1 C2 1_555 1_555
C2 C3 1_555 1_555
C3 C4 1_555 1_555
C4 C5 1_555 1_555
C5 C6 1_555 1_555
C6 C1 1_555 1_555
C7 C5 1_555 1_555
C8 C7 1_555 1_555
H1 C2 1_555 1_555
H2 C3 1_555 1_555
H3 C4 1_555 1_555
H4 C7 1_555 1_555
H5 C7 1_555 1_555
H6 C8 1_555 1_555
H7 C8 1_555 1_555
C9 C10 1_555 1_555
C10 C11 1_555 1_555
C11 C12 1_555 1_555
C12 C13 1_555 1_555
C13 C14 1_555 1_555
C14 C9 1_555 1_555
C15 C13 1_555 1_555
C16 C15 1_555 1_555
H8 C10 1_555 1_555
H9 C11 1_555 1_555
H10 C12 1_555 1_555
H11 C15 1_555 1_555
H12 C15 1_555 1_555
H13 C16 1_555 1_555
H14 C16 1_555 1_555
C17 C18 1_555 1_555
C18 C19 1_555 1_555
C19 C20 1_555 1_555
C20 C21 1_555 1_555
C21 C22 1_555 1_555
C22 C23 1_555 1_555
C23 C24 1_555 1_555
C24 C25 1_555 1_555
C25 C26 1_555 1_555
C26 C27 1_555 1_555
C27 C22 1_555 1_555
C28 C17 1_555 1_555
C29 C26 1_555 1_555
C30 C29 1_555 1_555
C31 C17 1_555 1_555
H15 C18 1_555 1_555
H16 C19 1_555 1_555
H17 C20 1_555 1_555
H18 C23 1_555 1_555
H19 C24 1_555 1_555
H20 C25 1_555 1_555
H21 C29 1_555 1_555
H22 C29 1_555 1_555
H23 C30 1_555 1_555
H24 C30 1_555 1_555
H25 C31 1_555 1_555
H26 C31 1_555 1_555
C1A C1 1_555 1_555
C6A C6 1_555 1_555
C7A C8 1_555 1_555
C2A C1A 1_555 1_555
C5A C6A 1_555 1_555
H4A C7A 1_555 1_555
H5A C7A 1_555 1_555
C3A C2A 1_555 1_555
H1A C2A 1_555 1_555
C4A C5A 1_555 1_555
H2A C3A 1_555 1_555
H3A C4A 1_555 1_555
C9A C9 1_555 1_555
C14A C14 1_555 1_555
C15A C16 1_555 1_555
C10A C9A 1_555 1_555
C13A C14A 1_555 1_555
H11A C15A 1_555 1_555
H12A C15A 1_555 1_555
C11A C10A 1_555 1_555
H8A C10A 1_555 1_555
C12A C13A 1_555 1_555
H9A C11A 1_555 1_555
H10A C12A 1_555 1_555
C21 C28 1_555 1_555
C27 C28 1_555 1_555
C30 C31 1_555 1_555
C1A C6A 1_555 1_555
C7A C5A 1_555 1_555
C3A C4A 1_555 1_555
C9A C14A 1_555 1_555
C15A C13A 1_555 1_555
C11A C12A 1_555 1_555

#END
