
#######################################################################
#
#                 Cambridge Crystallographic Data Centre
#                                CCDC 
#
#######################################################################
#
# If this CIF has been generated from an entry in the Cambridge 
# Structural Database, then it will include bibliographic, chemical, 
# crystal, experimental, refinement or atomic coordinate data resulting 
# from the CCDC's data processing and validation procedures.
#
#######################################################################

data_KUTDIN
_chemical_name_common            
7-Pivaloyl-5,6-dihydro-4H-naphtho[3,2,1-de]isoquinoline-4,6-dione
_chemical_formula_moiety         'C21 H17 N1 O3'
_chemical_name_systematic        
7-(2,2-Dimethylpropanoyl)-4H-dibenzo[de,g]isoquinoline-4,6(5H)-dione
_symmetry_cell_setting           monoclinic
_symmetry_space_group_name_H-M   'P 21/c'
_symmetry_Int_Tables_number      14
_space_group_name_Hall           '-P 2ybc'
loop_
_symmetry_equiv_pos_site_id
_symmetry_equiv_pos_as_xyz
1 x,y,z
2 -x,1/2+y,1/2-z
3 -x,-y,-z
4 x,1/2-y,1/2+z
_cell_length_a                   11.569(2)
_cell_length_b                   9.1150(18)
_cell_length_c                   15.746(3)
_cell_angle_alpha                90
_cell_angle_beta                 101.12(3)
_cell_angle_gamma                90
_cell_volume                     1629.26
_exptl_crystal_colour            'light yellow'
_exptl_crystal_description       block
_cell_formula_units_Z            4
loop_
_atom_site_label
_atom_site_type_symbol
_atom_site_fract_x
_atom_site_fract_y
_atom_site_fract_z
N1 N 0.9224(2) 0.3212(3) 0.52319(16)
H1 H 0.9433 0.4046 0.5467
O1 O 0.7998(2) -0.0308(3) 0.72692(14)
O2 O 0.9979(2) 0.3921(2) 0.40785(14)
O3 O 0.8470(2) 0.2652(2) 0.64021(14)
C1 C 0.5388(3) -0.0139(4) 0.6829(2)
H2 H 0.5228 -0.0812 0.6352
H3 H 0.4670 0.0333 0.6897
H4 H 0.5713 -0.0664 0.7349
C2 C 0.5766(3) 0.1815(4) 0.5817(2)
H5 H 0.5630 0.1123 0.5349
H6 H 0.6310 0.2552 0.5704
H7 H 0.5035 0.2271 0.5870
C3 C 0.6483(3) 0.2081(4) 0.7420(2)
H8 H 0.7027 0.2832 0.7326
H9 H 0.6803 0.1551 0.7939
H10 H 0.5750 0.2524 0.7478
C4 C 0.6277(3) 0.1027(4) 0.6652(2)
C5 C 0.7422(3) 0.0215(4) 0.6623(2)
C6 C 0.7748(3) -0.0144(4) 0.5757(2)
C7 C 0.7494(3) -0.1610(4) 0.5410(2)
C8 C 0.7003(3) -0.2677(4) 0.5887(2)
H11 H 0.6861 -0.2445 0.6433
C9 C 0.6734(3) -0.4046(4) 0.5553(3)
H12 H 0.6409 -0.4736 0.5874
C10 C 0.6942(3) -0.4420(4) 0.4742(2)
H13 H 0.6738 -0.5346 0.4514
C11 C 0.7448(3) -0.3419(4) 0.4277(2)
H14 H 0.7606 -0.3690 0.3742
C12 C 0.7736(3) -0.1988(4) 0.4589(2)
C13 C 0.8287(3) -0.0921(4) 0.4115(2)
C14 C 0.8587(3) 0.0469(4) 0.4492(2)
C15 C 0.8305(3) 0.0825(4) 0.5310(2)
C16 C 0.8571(3) -0.1202(4) 0.3306(2)
H15 H 0.8379 -0.2110 0.3048
C17 C 0.9120(3) -0.0188(4) 0.2882(2)
H16 H 0.9299 -0.0415 0.2346
C18 C 0.9412(3) 0.1181(4) 0.3250(2)
H17 H 0.9782 0.1872 0.2959
C19 C 0.9154(3) 0.1513(4) 0.4046(2)
C20 C 0.9491(3) 0.2966(4) 0.4427(2)
C21 C 0.8659(3) 0.2269(4) 0.5700(2)
loop_
_geom_bond_atom_site_label_1
_geom_bond_atom_site_label_2
_geom_bond_site_symmetry_1
_geom_bond_site_symmetry_2
N1 H1 1_555 1_555
O1 C5 1_555 1_555
O2 C20 1_555 1_555
O3 C21 1_555 1_555
C1 H2 1_555 1_555
H3 C1 1_555 1_555
H4 C1 1_555 1_555
C2 H5 1_555 1_555
H6 C2 1_555 1_555
H7 C2 1_555 1_555
C3 H8 1_555 1_555
H9 C3 1_555 1_555
H10 C3 1_555 1_555
C4 C1 1_555 1_555
C5 C4 1_555 1_555
C6 C5 1_555 1_555
C7 C6 1_555 1_555
C8 C7 1_555 1_555
H11 C8 1_555 1_555
C9 C8 1_555 1_555
H12 C9 1_555 1_555
C10 C9 1_555 1_555
H13 C10 1_555 1_555
C11 C10 1_555 1_555
H14 C11 1_555 1_555
C12 C7 1_555 1_555
C13 C12 1_555 1_555
C14 C13 1_555 1_555
C15 C6 1_555 1_555
C16 C13 1_555 1_555
H15 C16 1_555 1_555
C17 C16 1_555 1_555
H16 C17 1_555 1_555
C18 C17 1_555 1_555
H17 C18 1_555 1_555
C19 C14 1_555 1_555
C20 N1 1_555 1_555
C21 N1 1_555 1_555
C2 C4 1_555 1_555
C3 C4 1_555 1_555
C11 C12 1_555 1_555
C14 C15 1_555 1_555
C15 C21 1_555 1_555
C18 C19 1_555 1_555
C19 C20 1_555 1_555

#END
