
#######################################################################
#
#                 Cambridge Crystallographic Data Centre
#                                CCDC 
#
#######################################################################
#
# If this CIF has been generated from an entry in the Cambridge 
# Structural Database, then it will include bibliographic, chemical, 
# crystal, experimental, refinement or atomic coordinate data resulting 
# from the CCDC's data processing and validation procedures.
#
#######################################################################

data_KUTJEP
_chemical_name_common            
'(R!P$)-Menthyl (1-hydroxycyclohexyl)phenylphosphinate'
_chemical_formula_moiety         'C22 H35 O3 P1'
_chemical_name_systematic        
'(R~P~)-2-Isopropyl-5-methylcyclohexyl (1-hydroxycyclohexyl)phenylphosphinate'
_symmetry_cell_setting           monoclinic
_symmetry_space_group_name_H-M   'P 21'
_symmetry_Int_Tables_number      4
_space_group_name_Hall           'P 2yb'
loop_
_symmetry_equiv_pos_site_id
_symmetry_equiv_pos_as_xyz
1 x,y,z
2 -x,1/2+y,-z
_cell_length_a                   10.1808(11)
_cell_length_b                   11.0611(13)
_cell_length_c                   10.4207(12)
_cell_angle_alpha                90
_cell_angle_beta                 106.201(1)
_cell_angle_gamma                90
_cell_volume                     1126.88
_exptl_crystal_colour            colorless
_exptl_crystal_description       block
_cell_formula_units_Z            2
_exptl_crystal_recrystallization_method 'diethyl ether'
loop_
_atom_site_label
_atom_site_type_symbol
_atom_site_fract_x
_atom_site_fract_y
_atom_site_fract_z
O1 O 0.95710(16) 0.72151(14) 0.74639(14)
O2 O 0.97738(18) 0.87366(15) 0.56708(17)
O3 O 0.8831(2) 0.52789(16) 0.54628(18)
H1 H 0.930(3) 0.488(3) 0.520(3)
P1 P 0.99001(6) 0.74570(6) 0.60864(6)
C1 C 1.1586(3) 0.6871(2) 0.6245(2)
C2 C 1.2450(3) 0.7469(3) 0.5653(3)
H2 H 1.2159 0.8181 0.5184
C3 C 1.3736(4) 0.7031(3) 0.5743(4)
H3 H 1.4317 0.7456 0.5359
C4 C 1.4161(3) 0.5965(4) 0.6402(4)
H4 H 1.5020 0.5657 0.6438
C5 C 1.3327(3) 0.5355(3) 0.7005(4)
H5 H 1.3626 0.4641 0.7465
C6 C 1.2035(3) 0.5802(3) 0.6929(3)
H6 H 1.1466 0.5386 0.7336
C7 C 0.8846(3) 0.8021(3) 0.9295(3)
H7 H 0.8856 0.7192 0.9628
C8 C 0.9937(3) 0.8099(3) 0.8559(2)
H8 H 0.9926 0.8912 0.8181
C9 C 1.1352(3) 0.7835(3) 0.9449(3)
H9 H 1.2009 0.7927 0.8937
H10 H 1.1391 0.7004 0.9752
C10 C 1.1745(3) 0.8673(3) 1.0659(3)
H11 H 1.1755 0.9504 1.0336
C11 C 1.0682(4) 0.8595(4) 1.1413(3)
H12 H 1.0902 0.9170 1.2145
H13 H 1.0699 0.7791 1.1791
C12 C 0.9261(4) 0.8856(4) 1.0522(3)
H14 H 0.9222 0.9689 1.0222
H15 H 0.8608 0.8763 1.1037
C13 C 0.7400(3) 0.8263(4) 0.8383(3)
H16 H 0.7166 0.7564 0.7786
C14 C 0.627(3) 0.8350(16) 0.911(3)
H17 H 0.6335 0.9114 0.9559
H18 H 0.6381 0.7707 0.9749
H19 H 0.5388 0.8282 0.8467
C15 C 0.714(4) 0.938(4) 0.748(3)
H20 H 0.7745 0.9366 0.6920
H21 H 0.7302 1.0094 0.8022
H22 H 0.6209 0.9371 0.6934
C16 C 1.3180(4) 0.8374(5) 1.1542(4)
H23 H 1.3206 0.7549 1.1833
H24 H 1.3403 0.8899 1.2306
H25 H 1.3831 0.8487 1.1040
C17 C 0.8687(2) 0.6464(2) 0.4925(2)
C18 C 0.8980(3) 0.6531(2) 0.3562(2)
H26 H 0.8993 0.7372 0.3301
H27 H 0.9877 0.6192 0.3638
C19 C 0.7919(3) 0.5853(3) 0.2483(3)
H28 H 0.8104 0.5973 0.1628
H29 H 0.7987 0.4995 0.2681
C20 C 0.6479(3) 0.6285(3) 0.2392(3)
H30 H 0.6380 0.7123 0.2105
H31 H 0.5823 0.5807 0.1733
C21 C 0.6187(3) 0.6171(3) 0.3728(3)
H32 H 0.6223 0.5326 0.3983
H33 H 0.5272 0.6467 0.3654
C22 C 0.7219(3) 0.6887(3) 0.4808(3)
H34 H 0.7022 0.6777 0.5660
H35 H 0.7136 0.7741 0.4590
C23? C 0.635(3) 0.7783(17) 0.912(3)
C24? C 0.735(4) 0.959(4) 0.789(3)
H36? H 0.6474 0.8216 0.9944
H37? H 0.6507 0.6936 0.9306
H38? H 0.5438 0.7903 0.8562
H39? H 0.7474 1.0123 0.8642
H40? H 0.6473 0.9740 0.7266
H41? H 0.8057 0.9717 0.7467
loop_
_geom_bond_atom_site_label_1
_geom_bond_atom_site_label_2
_geom_bond_site_symmetry_1
_geom_bond_site_symmetry_2
O1 P1 1_555 1_555
O2 P1 1_555 1_555
O3 H1 1_555 1_555
P1 C1 1_555 1_555
C1 C2 1_555 1_555
C2 H2 1_555 1_555
C3 C2 1_555 1_555
H3 C3 1_555 1_555
C4 C3 1_555 1_555
H4 C4 1_555 1_555
C5 C4 1_555 1_555
H5 C5 1_555 1_555
C6 C1 1_555 1_555
H6 C6 1_555 1_555
C7 H7 1_555 1_555
C8 O1 1_555 1_555
H8 C8 1_555 1_555
C9 C8 1_555 1_555
H9 C9 1_555 1_555
H10 C9 1_555 1_555
C10 C9 1_555 1_555
H11 C10 1_555 1_555
C11 C10 1_555 1_555
H12 C11 1_555 1_555
H13 C11 1_555 1_555
C12 C7 1_555 1_555
H14 C12 1_555 1_555
H15 C12 1_555 1_555
C13 C7 1_555 1_555
H16 C13 1_555 1_555
C14 C13 1_555 1_555
H17 C14 1_555 1_555
H18 C14 1_555 1_555
H19 C14 1_555 1_555
C15 C13 1_555 1_555
H20 C15 1_555 1_555
H21 C15 1_555 1_555
H22 C15 1_555 1_555
C16 C10 1_555 1_555
H23 C16 1_555 1_555
H24 C16 1_555 1_555
H25 C16 1_555 1_555
C17 O3 1_555 1_555
C18 C17 1_555 1_555
H26 C18 1_555 1_555
H27 C18 1_555 1_555
C19 C18 1_555 1_555
H28 C19 1_555 1_555
H29 C19 1_555 1_555
C20 C19 1_555 1_555
H30 C20 1_555 1_555
H31 C20 1_555 1_555
C21 C20 1_555 1_555
H32 C21 1_555 1_555
H33 C21 1_555 1_555
C22 C17 1_555 1_555
H34 C22 1_555 1_555
H35 C22 1_555 1_555
P1 C17 1_555 1_555
C5 C6 1_555 1_555
C7 C8 1_555 1_555
C11 C12 1_555 1_555
C21 C22 1_555 1_555

#END
