
#######################################################################
#
#                 Cambridge Crystallographic Data Centre
#                                CCDC 
#
#######################################################################
#
# If this CIF has been generated from an entry in the Cambridge 
# Structural Database, then it will include bibliographic, chemical, 
# crystal, experimental, refinement or atomic coordinate data resulting 
# from the CCDC's data processing and validation procedures.
#
#######################################################################

data_KUTKAM
_chemical_name_common            '(S!P$)-Menthyl benzyl(phenyl)phosphonate'
_chemical_formula_moiety         'C23 H31 O2 P1'
_chemical_name_systematic        
'(S~P~)-2-Isopropyl-5-methylcyclohexyl benzyl(phenyl)phosphinate'
_symmetry_cell_setting           monoclinic
_symmetry_space_group_name_H-M   'P 21'
_symmetry_Int_Tables_number      4
_space_group_name_Hall           'P 2yb'
loop_
_symmetry_equiv_pos_site_id
_symmetry_equiv_pos_as_xyz
1 x,y,z
2 -x,1/2+y,-z
_cell_length_a                   12.4777(11)
_cell_length_b                   5.7970(7)
_cell_length_c                   15.4190(19)
_cell_angle_alpha                90
_cell_angle_beta                 100.727(1)
_cell_angle_gamma                90
_cell_volume                     1095.82
_exptl_crystal_colour            colorless
_exptl_crystal_description       block
_cell_formula_units_Z            2
_exptl_crystal_recrystallization_method 'diethyl ether/hexane'
loop_
_atom_site_label
_atom_site_type_symbol
_atom_site_fract_x
_atom_site_fract_y
_atom_site_fract_z
P1 P 0.14134(8) 0.32764(18) 0.12780(6)
O1 O 0.2011(2) 0.2676(5) 0.22583(18)
O2 O 0.1092(2) 0.5709(5) 0.11455(18)
C1 C 0.2811(3) 0.3635(8) 0.3776(3)
H1 H 0.3316 0.2327 0.3810
C2 C 0.2606(3) 0.4484(9) 0.2817(3)
H2 H 0.2140 0.5856 0.2776
C3 C 0.3653(4) 0.5136(9) 0.2527(3)
H3 H 0.3492 0.5651 0.1918
H4 H 0.4119 0.3788 0.2556
C4 C 0.4259(4) 0.7041(10) 0.3099(3)
H5 H 0.3776 0.8387 0.3045
C5 C 0.4456(4) 0.6286(13) 0.4061(3)
H6 H 0.4964 0.5004 0.4142
H7 H 0.4786 0.7548 0.4430
C6 C 0.3419(4) 0.5571(10) 0.4352(3)
H8 H 0.2942 0.6901 0.4329
H9 H 0.3590 0.5049 0.4959
C7 C 0.1778(4) 0.2749(10) 0.4090(3)
H10 H 0.1455 0.1554 0.3672
C8 C 0.0910(5) 0.4614(15) 0.4086(4)
H11 H 0.0268 0.3938 0.4239
H12 H 0.0731 0.5286 0.3508
H13 H 0.1187 0.5787 0.4508
C9 C 0.2060(5) 0.1607(12) 0.4997(3)
H14 H 0.2317 0.2756 0.5435
H15 H 0.2620 0.0472 0.4992
H16 H 0.1422 0.0876 0.5134
C10 C 0.5316(5) 0.7791(15) 0.2790(4)
H17 H 0.5812 0.6511 0.2838
H18 H 0.5649 0.9037 0.3153
H19 H 0.5143 0.8289 0.2186
C11 C 0.2347(3) 0.2350(7) 0.0575(3)
C12 C 0.2528(4) 0.3793(9) -0.0106(3)
H20 H 0.2167 0.5200 -0.0204
C13 C 0.3260(4) 0.3096(13) -0.0641(3)
H21 H 0.3387 0.4050 -0.1097
C14 C 0.3790(4) 0.1029(11) -0.0502(4)
H22 H 0.4277 0.0581 -0.0859
C15 C 0.3601(4) -0.0387(11) 0.0170(4)
H23 H 0.3964 -0.1791 0.0267
C16 C 0.2876(4) 0.0258(9) 0.0701(3)
H24 H 0.2744 -0.0724 0.1146
C17 C 0.0306(3) 0.1248(8) 0.1089(3)
H25 H -0.0110 0.1479 0.0498
H26 H 0.0603 -0.0303 0.1117
C18 C -0.0457(3) 0.1452(8) 0.1747(3)
C19 C -0.1144(4) 0.3305(10) 0.1742(3)
H27 H -0.1153 0.4478 0.1329
C20 C -0.1828(4) 0.3417(13) 0.2360(4)
H28 H -0.2284 0.4684 0.2363
C21 C -0.1837(5) 0.1675(13) 0.2966(4)
H29 H -0.2302 0.1752 0.3371
C22 C -0.1159(5) -0.0153(12) 0.2966(4)
H30 H -0.1155 -0.1324 0.3379
C23 C -0.0479(4) -0.0298(10) 0.2365(3)
H31 H -0.0028 -0.1576 0.2369
loop_
_geom_bond_atom_site_label_1
_geom_bond_atom_site_label_2
_geom_bond_site_symmetry_1
_geom_bond_site_symmetry_2
P1 O1 1_555 1_555
O1 C2 1_555 1_555
O2 P1 1_555 1_555
C1 H1 1_555 1_555
C2 C1 1_555 1_555
H2 C2 1_555 1_555
C3 C2 1_555 1_555
H3 C3 1_555 1_555
H4 C3 1_555 1_555
C4 C3 1_555 1_555
H5 C4 1_555 1_555
C5 C4 1_555 1_555
H6 C5 1_555 1_555
H7 C5 1_555 1_555
C6 C1 1_555 1_555
H8 C6 1_555 1_555
H9 C6 1_555 1_555
C7 C1 1_555 1_555
H10 C7 1_555 1_555
C8 C7 1_555 1_555
H11 C8 1_555 1_555
H12 C8 1_555 1_555
H13 C8 1_555 1_555
C9 C7 1_555 1_555
H14 C9 1_555 1_555
H15 C9 1_555 1_555
H16 C9 1_555 1_555
C10 C4 1_555 1_555
H17 C10 1_555 1_555
H18 C10 1_555 1_555
H19 C10 1_555 1_555
C11 P1 1_555 1_555
C12 C11 1_555 1_555
H20 C12 1_555 1_555
C13 C12 1_555 1_555
H21 C13 1_555 1_555
C14 C13 1_555 1_555
H22 C14 1_555 1_555
C15 C14 1_555 1_555
H23 C15 1_555 1_555
C16 C11 1_555 1_555
H24 C16 1_555 1_555
C17 P1 1_555 1_555
H25 C17 1_555 1_555
H26 C17 1_555 1_555
C18 C17 1_555 1_555
C19 C18 1_555 1_555
H27 C19 1_555 1_555
C20 C19 1_555 1_555
H28 C20 1_555 1_555
C21 C20 1_555 1_555
H29 C21 1_555 1_555
C22 C21 1_555 1_555
H30 C22 1_555 1_555
C23 C18 1_555 1_555
H31 C23 1_555 1_555
C5 C6 1_555 1_555
C15 C16 1_555 1_555
C22 C23 1_555 1_555

#END
