
#######################################################################
#
#                 Cambridge Crystallographic Data Centre
#                                CCDC 
#
#######################################################################
#
# If this CIF has been generated from an entry in the Cambridge 
# Structural Database, then it will include bibliographic, chemical, 
# crystal, experimental, refinement or atomic coordinate data resulting 
# from the CCDC's data processing and validation procedures.
#
#######################################################################

data_KUTQOG
_chemical_formula_moiety         'C12 H5 F5 S1'
_chemical_name_systematic        (E)-3-(2,3,4,5,6-Pentafluorostyryl)thiophene
_symmetry_cell_setting           monoclinic
_symmetry_space_group_name_H-M   'P 21/c'
_symmetry_Int_Tables_number      14
_space_group_name_Hall           '-P 2ybc'
loop_
_symmetry_equiv_pos_site_id
_symmetry_equiv_pos_as_xyz
1 x,y,z
2 -x,1/2+y,1/2-z
3 -x,-y,-z
4 x,1/2-y,1/2+z
_cell_length_a                   5.8097(15)
_cell_length_b                   24.581(6)
_cell_length_c                   7.3224(18)
_cell_angle_alpha                90
_cell_angle_beta                 94.953(4)
_cell_angle_gamma                90
_cell_volume                     1041.79
_exptl_crystal_colour            colorless
_exptl_crystal_description       plate
_cell_formula_units_Z            4
_exptl_crystal_recrystallization_method dichloromethane
loop_
_atom_site_label
_atom_site_type_symbol
_atom_site_fract_x
_atom_site_fract_y
_atom_site_fract_z
S1 S 0.22542(18) 0.54717(4) 0.56342(15)
F1 F -0.0433(4) 0.80297(10) 0.4285(3)
F2 F -0.0888(4) 0.91035(10) 0.4229(3)
F3 F 0.6511(4) 0.93050(10) 0.7310(3)
F4 F 0.6987(4) 0.82233(10) 0.7475(3)
F5 F 0.2579(5) 0.97589(10) 0.5694(4)
C1 C 0.4895(7) 0.62804(17) 0.6462(5)
H1 H 0.6168 0.6489 0.6883
C2 C 0.5023(6) 0.84305(17) 0.6626(5)
C3 C 0.2770(6) 0.65098(16) 0.5703(5)
C4 C 0.3328(6) 0.80732(16) 0.5885(5)
C5 C 0.4805(6) 0.89877(16) 0.6571(5)
C6 C 0.2808(7) 0.92176(16) 0.5756(5)
C7 C 0.1336(7) 0.83262(16) 0.5062(5)
C8 C 0.2239(7) 0.70861(16) 0.5483(5)
H2 H 0.0793 0.7182 0.4934
C9 C 0.1082(7) 0.88846(17) 0.5015(5)
C10 C 0.3708(7) 0.74870(16) 0.6022(5)
H3 H 0.5149 0.7378 0.6548
C11 C 0.1186(7) 0.61079(17) 0.5195(5)
H4 H -0.0301 0.6177 0.4670
C12 C 0.4880(7) 0.57227(17) 0.6512(5)
H5 H 0.6123 0.5509 0.6961
loop_
_geom_bond_atom_site_label_1
_geom_bond_atom_site_label_2
_geom_bond_site_symmetry_1
_geom_bond_site_symmetry_2
S1 C11 1_555 1_555
F1 C7 1_555 1_555
F2 C9 1_555 1_555
F3 C5 1_555 1_555
F4 C2 1_555 1_555
F5 C6 1_555 1_555
C1 H1 1_555 1_555
C2 C4 1_555 1_555
C3 C1 1_555 1_555
C4 C7 1_555 1_555
C5 C2 1_555 1_555
C6 C5 1_555 1_555
C7 C9 1_555 1_555
C8 C3 1_555 1_555
H2 C8 1_555 1_555
C9 C6 1_555 1_555
C10 C4 1_555 1_555
H3 C10 1_555 1_555
C11 C3 1_555 1_555
H4 C11 1_555 1_555
C12 S1 1_555 1_555
H5 C12 1_555 1_555
C1 C12 1_555 1_555
C8 C10 1_555 1_555

#END
