
#######################################################################
#
#                 Cambridge Crystallographic Data Centre
#                                CCDC 
#
#######################################################################
#
# If this CIF has been generated from an entry in the Cambridge 
# Structural Database, then it will include bibliographic, chemical, 
# crystal, experimental, refinement or atomic coordinate data resulting 
# from the CCDC's data processing and validation procedures.
#
#######################################################################

data_KUTQAT
_chemical_formula_moiety         'C24 H30 N1 O3 1+,C1 H3 O3 S1 1-'
_chemical_name_systematic        
'1-benzyl-4-((5,6-dimethoxy-1-oxo-2,3-dihydro-1H-inden-2-yl)methyl)piperidinium methanesulfonate'
_symmetry_cell_setting           orthorhombic
_symmetry_space_group_name_H-M   'P n a 21'
_symmetry_Int_Tables_number      33
_space_group_name_Hall           'P 2c -2n'
loop_
_symmetry_equiv_pos_site_id
_symmetry_equiv_pos_as_xyz
1 x,y,z
2 -x,-y,1/2+z
3 1/2+x,1/2-y,z
4 1/2-x,1/2+y,1/2+z
_cell_length_a                   15.1035(3)
_cell_length_b                   9.3287(2)
_cell_length_c                   34.9631(6)
_cell_angle_alpha                90
_cell_angle_beta                 90
_cell_angle_gamma                90
_cell_volume                     4926.16
_exptl_crystal_colour            colorless
_exptl_crystal_description       plate
_cell_formula_units_Z            8
loop_
_atom_site_label
_atom_site_type_symbol
_atom_site_fract_x
_atom_site_fract_y
_atom_site_fract_z
S1 S 0.83787(7) 0.41414(12) 0.68902(4)
O1 O 0.7756(2) 0.3342(4) 0.66623(11)
O2 O 0.8655(3) 0.3277(5) 0.72205(12)
O3 O 0.9099(3) 0.4662(4) 0.66693(14)
C1 C 0.7787(4) 0.5607(5) 0.70760(17)
H1 H 0.7298 0.5264 0.7225
H2 H 0.7570 0.6186 0.6869
H3 H 0.8171 0.6171 0.7235
N1 N 0.6226(2) 0.2022(4) 0.67746(10)
H4 H 0.677(3) 0.252(5) 0.6771(14)
C2 C 0.6368(3) 0.0467(4) 0.66788(12)
H5 H 0.6635 0.0392 0.6427
H6 H 0.5801 -0.0020 0.6671
C3 C 0.6960(3) -0.0257(4) 0.69686(12)
H7 H 0.7544 0.0172 0.6958
H8 H 0.7018 -0.1263 0.6903
C4 C 0.6596(3) -0.0127(4) 0.73754(12)
H9 H 0.6010 -0.0577 0.7382
C5 C 0.6484(3) 0.1458(4) 0.74635(12)
H10 H 0.6225 0.1565 0.7716
H11 H 0.7060 0.1915 0.7466
C6 C 0.5897(3) 0.2202(5) 0.71721(12)
H12 H 0.5302 0.1816 0.7190
H13 H 0.5868 0.3216 0.7232
C7 C 0.5632(3) 0.2674(4) 0.64750(13)
H14 H 0.5086 0.2129 0.6465
H15 H 0.5919 0.2584 0.6228
C8 C 0.5408(3) 0.4231(4) 0.65404(11)
C9 C 0.5923(3) 0.5292(5) 0.63722(13)
H16 H 0.6424 0.5044 0.6233
C10 C 0.5688(3) 0.6722(5) 0.64127(14)
H17 H 0.6036 0.7427 0.6300
C11 C 0.4949(3) 0.7114(5) 0.66169(14)
H18 H 0.4793 0.8074 0.6641
C12 C 0.4444(3) 0.6058(5) 0.67852(13)
H19 H 0.3948 0.6313 0.6927
C13 C 0.4661(3) 0.4623(4) 0.67467(13)
H20 H 0.4308 0.3923 0.6859
C14 C 0.7187(3) -0.0904(5) 0.76623(12)
H21 H 0.7216 -0.1908 0.7591
H22 H 0.7781 -0.0516 0.7642
C15 C 0.6895(3) -0.0807(5) 0.80794(12)
H23 H 0.6904 0.0206 0.8154
C16 C 0.5966(3) -0.1405(5) 0.81677(14)
H24 H 0.5553 -0.0636 0.8223
H25 H 0.5741 -0.1960 0.7954
C17 C 0.6103(3) -0.2348(5) 0.85158(12)
C18 C 0.5457(3) -0.3099(5) 0.87229(12)
H26 H 0.4859 -0.3008 0.8664
C19 C 0.5734(3) -0.3983(5) 0.90187(11)
C20 C 0.6647(3) -0.4089(5) 0.91174(11)
C21 C 0.7268(3) -0.3343(5) 0.89139(12)
H27 H 0.7866 -0.3412 0.8975
C22 C 0.6982(3) -0.2468(5) 0.86093(13)
C23 C 0.7524(3) -0.1618(5) 0.83455(12)
O4 O 0.5187(2) -0.4794(4) 0.92368(9)
C24 C 0.4260(3) -0.4753(7) 0.91477(16)
H28 H 0.3944 -0.5368 0.9320
H29 H 0.4170 -0.5075 0.8890
H30 H 0.4046 -0.3789 0.9173
O5 O 0.6824(2) -0.4964(4) 0.94203(8)
C25 C 0.7731(3) -0.5131(6) 0.95225(14)
H31 H 0.7777 -0.5760 0.9739
H32 H 0.7977 -0.4213 0.9587
H33 H 0.8051 -0.5532 0.9311
O6 O 0.8328(2) -0.1550(4) 0.83358(10)
S2 S 0.41643(6) -1.40402(11) 1.03044(3)
O7 O 0.47293(19) -1.3301(4) 1.05825(9)
O8 O 0.3989(2) -1.3162(4) 0.99711(10)
O9 O 0.3381(2) -1.4606(4) 1.04851(11)
C26 C 0.4786(3) -1.5530(5) 1.01504(16)
H34 H 0.5318 -1.5205 1.0028
H35 H 0.4443 -1.6082 0.9972
H36 H 0.4936 -1.6115 1.0367
N2 N 0.6320(2) -1.2060(4) 1.04945(10)
H37 H 0.578(3) -1.256(5) 1.0516(14)
C27 C 0.6702(3) -1.2261(5) 1.00998(12)
H38 H 0.6736 -1.3276 1.0042
H39 H 0.7297 -1.1872 1.0093
C28 C 0.6140(3) -1.1522(5) 0.98007(12)
H40 H 0.5561 -1.1973 0.9792
H41 H 0.6414 -1.1641 0.9552
C29 C 0.6027(3) -0.9927(5) 0.98828(13)
H42 H 0.6617 -0.9491 0.9892
C30 C 0.5610(3) -0.9781(5) 1.02781(14)
H43 H 0.5027 -1.0217 1.0276
H44 H 0.5541 -0.8774 1.0339
C31 C 0.6177(3) -1.0499(5) 1.05847(13)
H45 H 0.6745 -1.0017 1.0601
H46 H 0.5887 -1.0410 1.0831
C32 C 0.6898(3) -1.2682(5) 1.08045(13)
H47 H 0.6598 -1.2568 1.1048
H48 H 0.7443 -1.2133 1.0816
C33 C 0.7130(3) -1.4243(5) 1.07529(12)
C34 C 0.6562(3) -1.5306(5) 1.08850(13)
H49 H 0.6018 -1.5055 1.0990
C35 C 0.6801(3) -1.6734(5) 1.08617(15)
H50 H 0.6422 -1.7437 1.0955
C36 C 0.7603(3) -1.7119(5) 1.06995(14)
H51 H 0.7761 -1.8080 1.0681
C37 C 0.8169(3) -1.6070(5) 1.05643(15)
H52 H 0.8708 -1.6325 1.0455
C38 C 0.7934(3) -1.4640(5) 1.05925(14)
H53 H 0.8319 -1.3938 1.0503
C39 C 0.5477(3) -0.9114(6) 0.95883(14)
H54 H 0.4873 -0.9464 0.9600
H55 H 0.5467 -0.8109 0.9660
C40 C 0.5795(3) -0.9226(5) 0.91815(14)
H56 H 0.5797 -1.0239 0.9107
C41 C 0.6718(3) -0.8586(6) 0.90968(14)
H57 H 0.6926 -0.8019 0.9311
H58 H 0.7145 -0.9340 0.9046
C42 C 0.6590(3) -0.7655(5) 0.87465(13)
C43 C 0.7232(3) -0.6925(5) 0.85378(12)
H59 H 0.7829 -0.7021 0.8598
C44 C 0.6966(3) -0.6054(5) 0.82387(12)
C45 C 0.6055(3) -0.5927(5) 0.81431(12)
C46 C 0.5424(3) -0.6670(5) 0.83460(12)
H60 H 0.4827 -0.6601 0.8283
C47 C 0.5706(3) -0.7529(5) 0.86475(13)
C48 C 0.5177(3) -0.8398(6) 0.89066(14)
O10 O 0.7508(2) -0.5267(4) 0.80137(9)
C49 C 0.8443(4) -0.5338(8) 0.80925(16)
H61 H 0.8757 -0.4733 0.7916
H62 H 0.8644 -0.6309 0.8064
H63 H 0.8553 -0.5020 0.8349
O11 O 0.5883(2) -0.5029(4) 0.78398(8)
C50 C 0.4961(4) -0.4799(6) 0.77550(15)
H64 H 0.4908 -0.4172 0.7539
H65 H 0.4675 -0.4372 0.7972
H66 H 0.4684 -0.5701 0.7698
O12 O 0.4363(2) -0.8469(5) 0.89125(11)
loop_
_geom_bond_atom_site_label_1
_geom_bond_atom_site_label_2
_geom_bond_site_symmetry_1
_geom_bond_site_symmetry_2
S1 O1 1_555 1_555
O2 S1 1_555 1_555
O3 S1 1_555 1_555
C1 S1 1_555 1_555
H1 C1 1_555 1_555
H2 C1 1_555 1_555
H3 C1 1_555 1_555
N1 H4 1_555 1_555
C2 N1 1_555 1_555
H5 C2 1_555 1_555
H6 C2 1_555 1_555
C3 C2 1_555 1_555
H7 C3 1_555 1_555
H8 C3 1_555 1_555
C4 C3 1_555 1_555
H9 C4 1_555 1_555
C5 C4 1_555 1_555
H10 C5 1_555 1_555
H11 C5 1_555 1_555
C6 N1 1_555 1_555
H12 C6 1_555 1_555
H13 C6 1_555 1_555
C7 N1 1_555 1_555
H14 C7 1_555 1_555
H15 C7 1_555 1_555
C8 C7 1_555 1_555
C9 C8 1_555 1_555
H16 C9 1_555 1_555
C10 C9 1_555 1_555
H17 C10 1_555 1_555
C11 C10 1_555 1_555
H18 C11 1_555 1_555
C12 C11 1_555 1_555
H19 C12 1_555 1_555
C13 C8 1_555 1_555
H20 C13 1_555 1_555
C14 C4 1_555 1_555
H21 C14 1_555 1_555
H22 C14 1_555 1_555
C15 C14 1_555 1_555
H23 C15 1_555 1_555
C16 C15 1_555 1_555
H24 C16 1_555 1_555
H25 C16 1_555 1_555
C17 C16 1_555 1_555
C18 C17 1_555 1_555
H26 C18 1_555 1_555
C19 C18 1_555 1_555
C20 C19 1_555 1_555
C21 C20 1_555 1_555
H27 C21 1_555 1_555
C22 C17 1_555 1_555
C23 C15 1_555 1_555
O4 C19 1_555 1_555
C24 O4 1_555 1_555
H28 C24 1_555 1_555
H29 C24 1_555 1_555
H30 C24 1_555 1_555
O5 C20 1_555 1_555
C25 O5 1_555 1_555
H31 C25 1_555 1_555
H32 C25 1_555 1_555
H33 C25 1_555 1_555
O6 C23 1_555 1_555
S2 O7 1_555 1_555
O8 S2 1_555 1_555
O9 S2 1_555 1_555
C26 S2 1_555 1_555
H34 C26 1_555 1_555
H35 C26 1_555 1_555
H36 C26 1_555 1_555
N2 H37 1_555 1_555
C27 N2 1_555 1_555
H38 C27 1_555 1_555
H39 C27 1_555 1_555
C28 C27 1_555 1_555
H40 C28 1_555 1_555
H41 C28 1_555 1_555
C29 C28 1_555 1_555
H42 C29 1_555 1_555
C30 C29 1_555 1_555
H43 C30 1_555 1_555
H44 C30 1_555 1_555
C31 N2 1_555 1_555
H45 C31 1_555 1_555
H46 C31 1_555 1_555
C32 N2 1_555 1_555
H47 C32 1_555 1_555
H48 C32 1_555 1_555
C33 C32 1_555 1_555
C34 C33 1_555 1_555
H49 C34 1_555 1_555
C35 C34 1_555 1_555
H50 C35 1_555 1_555
C36 C35 1_555 1_555
H51 C36 1_555 1_555
C37 C36 1_555 1_555
H52 C37 1_555 1_555
C38 C33 1_555 1_555
H53 C38 1_555 1_555
C39 C29 1_555 1_555
H54 C39 1_555 1_555
H55 C39 1_555 1_555
C40 C39 1_555 1_555
H56 C40 1_555 1_555
C41 C40 1_555 1_555
H57 C41 1_555 1_555
H58 C41 1_555 1_555
C42 C41 1_555 1_555
C43 C42 1_555 1_555
H59 C43 1_555 1_555
C44 C43 1_555 1_555
C45 C44 1_555 1_555
C46 C45 1_555 1_555
H60 C46 1_555 1_555
C47 C42 1_555 1_555
C48 C40 1_555 1_555
O10 C44 1_555 1_555
C49 O10 1_555 1_555
H61 C49 1_555 1_555
H62 C49 1_555 1_555
H63 C49 1_555 1_555
O11 C45 1_555 1_555
C50 O11 1_555 1_555
H64 C50 1_555 1_555
H65 C50 1_555 1_555
H66 C50 1_555 1_555
O12 C48 1_555 1_555
C5 C6 1_555 1_555
C12 C13 1_555 1_555
C21 C22 1_555 1_555
C22 C23 1_555 1_555
C30 C31 1_555 1_555
C37 C38 1_555 1_555
C46 C47 1_555 1_555
C47 C48 1_555 1_555

#END
