
#######################################################################
#
#                 Cambridge Crystallographic Data Centre
#                                CCDC 
#
#######################################################################
#
# If this CIF has been generated from an entry in the Cambridge 
# Structural Database, then it will include bibliographic, chemical, 
# crystal, experimental, refinement or atomic coordinate data resulting 
# from the CCDC's data processing and validation procedures.
#
#######################################################################

data_KUTVOL
_chemical_formula_moiety         'C10 H12 Br1 N1 O1'
_chemical_name_systematic        2-(4-Bromophenyl)-2-methylpropanamide
_symmetry_cell_setting           monoclinic
_symmetry_space_group_name_H-M   'P 21/c'
_symmetry_Int_Tables_number      14
_space_group_name_Hall           '-P 2ybc'
loop_
_symmetry_equiv_pos_site_id
_symmetry_equiv_pos_as_xyz
1 x,y,z
2 -x,1/2+y,1/2-z
3 -x,-y,-z
4 x,1/2-y,1/2+z
_cell_length_a                   16.425(8)
_cell_length_b                   6.135(3)
_cell_length_c                   10.152(5)
_cell_angle_alpha                90
_cell_angle_beta                 97.613(7)
_cell_angle_gamma                90
_cell_volume                     1013.97
_exptl_crystal_colour            colorless
_exptl_crystal_description       prism
_cell_formula_units_Z            4
_exptl_crystal_recrystallization_method ethanol
loop_
_atom_site_label
_atom_site_type_symbol
_atom_site_fract_x
_atom_site_fract_y
_atom_site_fract_z
Br1 Br 0.44964(2) 0.60527(5) 0.82615(4)
O1 O 0.07026(12) 0.3192(3) 1.10663(18)
N1 N 0.05185(16) 0.3190(4) 0.8836(2)
C1 C 0.25495(19) 0.4020(4) 1.0149(3)
H1 H 0.2230 0.4624 1.0773
C2 C 0.3202(2) 0.5183(5) 0.9799(3)
H2 H 0.3331 0.6576 1.0180
C3 C 0.36720(19) 0.4317(5) 0.8887(3)
C4 C 0.35071(19) 0.2238(5) 0.8383(3)
H3 H 0.3844 0.1611 0.7792
C5 C 0.28481(19) 0.1088(5) 0.8747(3)
H4 H 0.2737 -0.0335 0.8400
C6 C 0.23442(18) 0.1968(4) 0.9608(3)
C7 C 0.15824(18) 0.0770(4) 0.9971(3)
C8 C 0.12810(19) -0.1034(4) 0.8969(3)
H5 H 0.1223 -0.0439 0.8066
H6 H 0.0748 -0.1582 0.9159
H7 H 0.1680 -0.2230 0.9044
C9 C 0.17838(19) -0.0249(4) 1.1358(3)
H8 H 0.2222 -0.1331 1.1346
H9 H 0.1292 -0.0960 1.1608
H10 H 0.1966 0.0893 1.2005
C10 C 0.08953(17) 0.2487(4) 1.0001(3)
H11 H 0.0657(16) 0.283(4) 0.8050(15)
H12 H 0.0127(13) 0.417(4) 0.885(2)
loop_
_geom_bond_atom_site_label_1
_geom_bond_atom_site_label_2
_geom_bond_site_symmetry_1
_geom_bond_site_symmetry_2
Br1 C3 1_555 1_555
O1 C10 1_555 1_555
N1 C10 1_555 1_555
C1 H1 1_555 1_555
C2 C1 1_555 1_555
H2 C2 1_555 1_555
C3 C2 1_555 1_555
C4 C3 1_555 1_555
H3 C4 1_555 1_555
C5 C4 1_555 1_555
H4 C5 1_555 1_555
C6 C1 1_555 1_555
C7 C6 1_555 1_555
C8 C7 1_555 1_555
H5 C8 1_555 1_555
H6 C8 1_555 1_555
H7 C8 1_555 1_555
C9 C7 1_555 1_555
H8 C9 1_555 1_555
H9 C9 1_555 1_555
H10 C9 1_555 1_555
C10 C7 1_555 1_555
H11 N1 1_555 1_555
H12 N1 1_555 1_555
C5 C6 1_555 1_555

#END
