
#######################################################################
#
#                 Cambridge Crystallographic Data Centre
#                                CCDC 
#
#######################################################################
#
# If this CIF has been generated from an entry in the Cambridge 
# Structural Database, then it will include bibliographic, chemical, 
# crystal, experimental, refinement or atomic coordinate data resulting 
# from the CCDC's data processing and validation procedures.
#
#######################################################################

data_KUVBIN
_chemical_name_common            
7-(Phenylsulfonyl)-7H-[1]benzothieno[2,3-b]carbazole
_chemical_formula_moiety         'C24 H15 N1 O2 S2'
_chemical_name_systematic        
7-(Phenylsulfonyl)benzo[2',3']thieno[5',4'-b]carbazole
_symmetry_cell_setting           triclinic
_symmetry_space_group_name_H-M   'P -1'
_symmetry_Int_Tables_number      2
_space_group_name_Hall           '-P 1'
loop_
_symmetry_equiv_pos_site_id
_symmetry_equiv_pos_as_xyz
1 x,y,z
2 -x,-y,-z
_cell_length_a                   7.463(5)
_cell_length_b                   10.462(5)
_cell_length_c                   12.335(5)
_cell_angle_alpha                80.438(5)
_cell_angle_beta                 89.433(5)
_cell_angle_gamma                81.876(5)
_cell_volume                     940.088
_exptl_crystal_colour            white
_exptl_crystal_description       block
_cell_formula_units_Z            2
_exptl_crystal_recrystallization_method deuterochloroform
loop_
_atom_site_label
_atom_site_type_symbol
_atom_site_fract_x
_atom_site_fract_y
_atom_site_fract_z
C1 C 0.8004(3) 0.5479(2) 0.66419(19)
H1 H 0.8537 0.4628 0.6910
C2 C 0.7893(3) 0.5939(3) 0.5527(2)
H2 H 0.8355 0.5391 0.5038
C3 C 0.7106(3) 0.7203(3) 0.51279(18)
H3 H 0.7050 0.7491 0.4372
C4 C 0.6398(3) 0.8051(2) 0.58229(17)
H4 H 0.5878 0.8904 0.5550
C5 C 0.6495(3) 0.75792(19) 0.69390(15)
C6 C 0.7303(3) 0.63112(18) 0.73581(16)
C7 C 0.7156(2) 0.61248(17) 0.85389(15)
C8 C 0.6261(2) 0.72886(17) 0.88294(15)
C9 C 0.5880(3) 0.74249(19) 0.99044(16)
H5 H 0.5291 0.8202 1.0089
C10 C 0.6430(3) 0.63321(19) 1.06946(15)
C11 C 0.7341(2) 0.51533(18) 1.04347(15)
C12 C 0.7710(3) 0.50503(19) 0.93443(16)
H6 H 0.8314 0.4279 0.9158
C13 C 0.7743(3) 0.4149(2) 1.13958(16)
C14 C 0.8661(3) 0.2850(2) 1.1441(2)
H7 H 0.9123 0.2541 1.0815
C15 C 0.8825(4) 0.2076(2) 1.2471(2)
H8 H 0.9393 0.1215 1.2554
C16 C 0.8114(3) 0.2611(3) 1.34032(18)
H9 H 0.8280 0.2079 1.4088
C17 C 0.7254(4) 0.3785(3) 1.3365(2)
H10 H 0.6768 0.4077 1.3992
C18 C 0.7093(3) 0.4578(2) 1.23556(18)
C19 C 0.6988(3) 1.05404(18) 0.76966(16)
C20 C 0.7881(3) 1.0581(2) 0.86625(19)
H11 H 0.7459 1.0208 0.9336
C21 C 0.9420(3) 1.1189(3) 0.8608(2)
H12 H 1.0036 1.1228 0.9250
C22 C 1.0040(4) 1.1735(3) 0.7611(3)
H13 H 1.1082 1.2133 0.7581
C23 C 0.9128(4) 1.1697(3) 0.6658(2)
H14 H 0.9549 1.2078 0.5987
C24 C 0.7592(3) 1.1098(2) 0.6689(2)
H15 H 0.6974 1.1070 0.6044
N1 N 0.5814(2) 0.81927(16) 0.78385(13)
O1 O 0.4119(2) 1.01545(15) 0.67159(13)
O2 O 0.4131(2) 0.99247(15) 0.87383(13)
S1 S 0.50484(6) 0.97634(4) 0.77433(4)
S2 S 0.60075(9) 0.62317(6) 1.20851(5)
loop_
_geom_bond_atom_site_label_1
_geom_bond_atom_site_label_2
_geom_bond_site_symmetry_1
_geom_bond_site_symmetry_2
C1 H1 1_555 1_555
C2 C1 1_555 1_555
H2 C2 1_555 1_555
C3 C2 1_555 1_555
H3 C3 1_555 1_555
C4 C3 1_555 1_555
H4 C4 1_555 1_555
C5 C4 1_555 1_555
C6 C1 1_555 1_555
C7 C6 1_555 1_555
C8 C7 1_555 1_555
C9 C8 1_555 1_555
H5 C9 1_555 1_555
C10 C9 1_555 1_555
C11 C10 1_555 1_555
C12 C7 1_555 1_555
H6 C12 1_555 1_555
C13 C11 1_555 1_555
C14 C13 1_555 1_555
H7 C14 1_555 1_555
C15 C14 1_555 1_555
H8 C15 1_555 1_555
C16 C15 1_555 1_555
H9 C16 1_555 1_555
C17 C16 1_555 1_555
H10 C17 1_555 1_555
C18 C13 1_555 1_555
C19 C20 1_555 1_555
C20 H11 1_555 1_555
C21 C20 1_555 1_555
H12 C21 1_555 1_555
C22 C21 1_555 1_555
H13 C22 1_555 1_555
C23 C22 1_555 1_555
H14 C23 1_555 1_555
C24 C19 1_555 1_555
H15 C24 1_555 1_555
N1 C5 1_555 1_555
O1 S1 1_555 1_555
O2 S1 1_555 1_555
S1 C19 1_555 1_555
S2 C10 1_555 1_555
C5 C6 1_555 1_555
C8 N1 1_555 1_555
C11 C12 1_555 1_555
C17 C18 1_555 1_555
C18 S2 1_555 1_555
C23 C24 1_555 1_555
N1 S1 1_555 1_555

#END
