
#######################################################################
#
#                 Cambridge Crystallographic Data Centre
#                                CCDC 
#
#######################################################################
#
# If this CIF has been generated from an entry in the Cambridge 
# Structural Database, then it will include bibliographic, chemical, 
# crystal, experimental, refinement or atomic coordinate data resulting 
# from the CCDC's data processing and validation procedures.
#
#######################################################################

data_KUVBOT
_chemical_formula_moiety         'C8 H12 N2 S4'
_chemical_name_systematic        Di-1,3-dithian-2-ylidenehydrazine
_symmetry_cell_setting           monoclinic
_symmetry_space_group_name_H-M   'P 21/c'
_symmetry_Int_Tables_number      14
_space_group_name_Hall           '-P 2ybc'
loop_
_symmetry_equiv_pos_site_id
_symmetry_equiv_pos_as_xyz
1 x,y,z
2 -x,1/2+y,1/2-z
3 -x,-y,-z
4 x,1/2-y,1/2+z
_cell_length_a                   9.3999(11)
_cell_length_b                   11.9251(14)
_cell_length_c                   10.7397(13)
_cell_angle_alpha                90
_cell_angle_beta                 91.555(2)
_cell_angle_gamma                90
_cell_volume                     1203.42
_exptl_crystal_colour            colorless
_exptl_crystal_description       block
_cell_formula_units_Z            4
_exptl_crystal_recrystallization_method 'ethanol/petroleum ether'
loop_
_atom_site_label
_atom_site_type_symbol
_atom_site_fract_x
_atom_site_fract_y
_atom_site_fract_z
S1 S 0.71338(9) 0.70901(9) -0.02533(9)
S2 S 0.74955(10) 0.49843(7) 0.12799(9)
N1 N 0.5250(2) 0.5510(2) -0.0239(2)
C1 C 0.6487(3) 0.5788(2) 0.0219(2)
C2 C 0.9037(4) 0.6810(11) -0.0147(11)
H1 H 0.9235 0.6125 -0.0598
H2 H 0.9540 0.7416 -0.0545
C3 C 0.9597(16) 0.6690(9) 0.1184(11)
H3 H 1.0489 0.6282 0.1185
H4 H 0.9787 0.7430 0.1525
C4 C 0.8569(18) 0.6085(10) 0.2011(13)
H5 H 0.7930 0.6637 0.2355
H6 H 0.9109 0.5758 0.2702
S1B S 0.28662(9) 0.29099(9) 0.02533(9)
S2B S 0.25045(10) 0.50157(7) -0.12799(9)
N1B N 0.4750(2) 0.4490(2) 0.0239(2)
C1B C 0.3513(3) 0.4212(2) -0.0219(2)
C2B C 0.0963(4) 0.3190(11) 0.0147(11)
H1B H 0.0765 0.3875 0.0598
H2B H 0.0460 0.2584 0.0545
C3B C 0.0403(16) 0.3310(9) -0.1184(11)
H3B H -0.0489 0.3718 -0.1185
H4B H 0.0213 0.2570 -0.1525
C4B C 0.1431(18) 0.3915(10) -0.2011(13)
H5B H 0.2070 0.3363 -0.2355
H6B H 0.0891 0.4242 -0.2702
S3 S 0.72455(7) 0.16120(6) -0.00561(6)
S4 S 0.79852(6) -0.03342(5) 0.16643(6)
N2 N 0.9581(2) 0.04587(17) -0.02005(18)
C5 C 0.8418(2) 0.05424(19) 0.0413(2)
C6 C 0.6094(2) -0.0073(2) 0.1744(2)
H7 H 0.5649 -0.0259 0.0945
H8 H 0.5702 -0.0570 0.2362
C7 C 0.5708(4) 0.1115(3) 0.2068(4)
H9 H 0.5798 0.1205 0.2965
H10 H 0.4717 0.1239 0.1831
C8 C 0.6605(3) 0.2012(2) 0.1454(3)
H11 H 0.7415 0.2185 0.1999
H12 H 0.6041 0.2690 0.1361
S3B S 1.27545(7) -0.16120(6) 0.00561(6)
S4B S 1.20148(6) 0.03342(5) -0.16643(6)
N2B N 1.0419(2) -0.04587(17) 0.02005(18)
C5B C 1.1582(2) -0.05424(19) -0.0413(2)
C6B C 1.3906(2) 0.0073(2) -0.1744(2)
H7B H 1.4351 0.0259 -0.0945
H8B H 1.4298 0.0570 -0.2362
C7B C 1.4292(4) -0.1115(3) -0.2068(4)
H9B H 1.4202 -0.1205 -0.2965
H10B H 1.5283 -0.1239 -0.1831
C8B C 1.3395(3) -0.2012(2) -0.1454(3)
H11B H 1.2585 -0.2185 -0.1999
H12B H 1.3959 -0.2690 -0.1361
C9? C 0.6632(10) 0.5345(8) 0.0577(10)
C10? C 0.8826(16) 0.687(5) -0.007(6)
C11? C 0.962(8) 0.653(5) 0.112(5)
C12? C 0.868(9) 0.613(4) 0.215(7)
H13? H 0.9253 0.6486 -0.0756
H14? H 0.8981 0.7670 -0.0190
H15? H 1.0171 0.7168 0.1423
H16? H 1.0285 0.5940 0.0920
H17? H 0.9236 0.6018 0.2911
H18? H 0.7935 0.6667 0.2298
N3? N 0.5477(10) 0.4742(9) 0.0420(10)
S5? S 0.6929(5) 0.6622(4) -0.0158(5)
S6? S 0.7925(5) 0.4809(4) 0.1612(5)
loop_
_geom_bond_atom_site_label_1
_geom_bond_atom_site_label_2
_geom_bond_site_symmetry_1
_geom_bond_site_symmetry_2
S1 C1 1_555 1_555
S2 C1 1_555 1_555
N1 C1 1_555 1_555
C2 S1 1_555 1_555
H1 C2 1_555 1_555
H2 C2 1_555 1_555
C3 C2 1_555 1_555
H3 C3 1_555 1_555
H4 C3 1_555 1_555
C4 S2 1_555 1_555
H5 C4 1_555 1_555
H6 C4 1_555 1_555
S3 C5 1_555 1_555
S4 C5 1_555 1_555
N2 C5 1_555 1_555
C6 S4 1_555 1_555
H7 C6 1_555 1_555
H8 C6 1_555 1_555
C7 C6 1_555 1_555
H9 C7 1_555 1_555
H10 C7 1_555 1_555
C8 S3 1_555 1_555
H11 C8 1_555 1_555
H12 C8 1_555 1_555
S1B C1B 1_555 1_555
S2B C1B 1_555 1_555
N1B N1 1_555 1_555
C1B N1B 1_555 1_555
C2B S1B 1_555 1_555
H1B C2B 1_555 1_555
H2B C2B 1_555 1_555
C3B C2B 1_555 1_555
H3B C3B 1_555 1_555
H4B C3B 1_555 1_555
C4B S2B 1_555 1_555
H5B C4B 1_555 1_555
H6B C4B 1_555 1_555
S3B C5B 1_555 1_555
S4B C5B 1_555 1_555
N2B N2 1_555 1_555
C5B N2B 1_555 1_555
C6B S4B 1_555 1_555
H7B C6B 1_555 1_555
H8B C6B 1_555 1_555
C7B C6B 1_555 1_555
H9B C7B 1_555 1_555
H10B C7B 1_555 1_555
C8B S3B 1_555 1_555
H11B C8B 1_555 1_555
H12B C8B 1_555 1_555
C3 C4 1_555 1_555
C7 C8 1_555 1_555
C3B C4B 1_555 1_555
C7B C8B 1_555 1_555

#END
