
#######################################################################
#
#                 Cambridge Crystallographic Data Centre
#                                CCDC 
#
#######################################################################
#
# If this CIF has been generated from an entry in the Cambridge 
# Structural Database, then it will include bibliographic, chemical, 
# crystal, experimental, refinement or atomic coordinate data resulting 
# from the CCDC's data processing and validation procedures.
#
#######################################################################

data_KUVDUB
_chemical_name_common            1,4-bis(dimethylsilyl)-2,5-diphenylbenzene
_chemical_formula_moiety         'C22 H26 Si2'
_chemical_name_systematic        
1,1':4',1''-Terphenyl-2',5'-diylbis(dimethylsilane)
_symmetry_cell_setting           monoclinic
_symmetry_space_group_name_H-M   'C 2/c'
_symmetry_Int_Tables_number      15
_space_group_name_Hall           '-C 2yn'
loop_
_symmetry_equiv_pos_site_id
_symmetry_equiv_pos_as_xyz
1 x,y,z
2 -x,y,1/2-z
3 1/2+x,1/2+y,z
4 1/2-x,1/2+y,1/2-z
5 -x,-y,-z
6 x,-y,1/2+z
7 1/2-x,1/2-y,-z
8 1/2+x,1/2-y,1/2+z
_cell_length_a                   14.8966(3)
_cell_length_b                   6.01320(10)
_cell_length_c                   26.1211(6)
_cell_angle_alpha                90
_cell_angle_beta                 123.1660(10)
_cell_angle_gamma                90
_cell_volume                     1958.65
_exptl_crystal_colour            colorless
_exptl_crystal_description       plate
_cell_formula_units_Z            4
_exptl_crystal_recrystallization_method ethanol
loop_
_atom_site_label
_atom_site_type_symbol
_atom_site_fract_x
_atom_site_fract_y
_atom_site_fract_z
Si1 Si -0.03046(4) 0.64331(9) 0.08538(2)
H1 H 0.0590 0.5194 0.1223
C1 C -0.00698(14) 0.8349(3) 0.03690(8)
C2 C -0.09110(15) 0.8753(3) -0.02358(8)
H2 H -0.1545 0.7887 -0.0403
C3 C 0.08631(14) 0.9637(3) 0.06040(8)
C4 C 0.18299(14) 0.9316(3) 0.12353(8)
C5 C 0.21644(16) 1.0962(3) 0.16753(9)
H3 H 0.1762 1.2298 0.1578
C6 C 0.30788(17) 1.0685(4) 0.22563(9)
H4 H 0.3292 1.1819 0.2555
C7 C 0.36813(15) 0.8762(4) 0.24023(8)
H5 H 0.4314 0.8582 0.2798
C8 C 0.33562(16) 0.7103(4) 0.19677(9)
H6 H 0.3763 0.5773 0.2067
C9 C 0.24395(16) 0.7377(3) 0.13896(8)
H7 H 0.2223 0.6231 0.1094
C10 C -0.0605(2) 0.8174(4) 0.13337(10)
H8 H -0.1249 0.9065 0.1068
H9 H 0.0002 0.9164 0.1592
H10 H -0.0726 0.7209 0.1593
C11 C -0.14236(19) 0.4490(4) 0.03752(10)
H11 H -0.1565 0.3595 0.0637
H12 H -0.1230 0.3509 0.0151
H13 H -0.2068 0.5338 0.0084
Si1D Si 0.03046(4) 1.35669(9) -0.08538(2)
H1D H -0.0590 1.4806 -0.1223
C1D C 0.00698(14) 1.1651(3) -0.03690(8)
C2D C 0.09110(15) 1.1247(3) 0.02358(8)
H2D H 0.1545 1.2113 0.0403
C3D C -0.08631(14) 1.0363(3) -0.06040(8)
C4D C -0.18299(14) 1.0684(3) -0.12353(8)
C5D C -0.21644(16) 0.9038(3) -0.16753(9)
H3D H -0.1762 0.7702 -0.1578
C6D C -0.30788(17) 0.9315(4) -0.22563(9)
H4D H -0.3292 0.8181 -0.2555
C7D C -0.36813(15) 1.1238(4) -0.24023(8)
H5D H -0.4314 1.1418 -0.2798
C8D C -0.33562(16) 1.2897(4) -0.19677(9)
H6D H -0.3763 1.4227 -0.2067
C9D C -0.24395(16) 1.2623(3) -0.13896(8)
H7D H -0.2223 1.3769 -0.1094
C10D C 0.0605(2) 1.1826(4) -0.13337(10)
H8D H 0.1249 1.0935 -0.1068
H9D H -0.0002 1.0836 -0.1592
H10D H 0.0726 1.2791 -0.1593
C11D C 0.14236(19) 1.5510(4) -0.03752(10)
H11D H 0.1565 1.6405 -0.0637
H12D H 0.1230 1.6491 -0.0151
H13D H 0.2068 1.4662 -0.0084
loop_
_geom_bond_atom_site_label_1
_geom_bond_atom_site_label_2
_geom_bond_site_symmetry_1
_geom_bond_site_symmetry_2
Si1 H1 1_555 1_555
C1 Si1 1_555 1_555
C2 C1 1_555 1_555
H2 C2 1_555 1_555
C3 C1 1_555 1_555
C4 C3 1_555 1_555
C5 C4 1_555 1_555
H3 C5 1_555 1_555
C6 C5 1_555 1_555
H4 C6 1_555 1_555
C7 C6 1_555 1_555
H5 C7 1_555 1_555
C8 C7 1_555 1_555
H6 C8 1_555 1_555
C9 C4 1_555 1_555
H7 C9 1_555 1_555
C10 Si1 1_555 1_555
H8 C10 1_555 1_555
H9 C10 1_555 1_555
H10 C10 1_555 1_555
C11 Si1 1_555 1_555
H11 C11 1_555 1_555
H12 C11 1_555 1_555
H13 C11 1_555 1_555
Si1D H1D 1_555 1_555
C1D Si1D 1_555 1_555
C2D C3 1_555 1_555
H2D C2D 1_555 1_555
C3D C2 1_555 1_555
C4D C3D 1_555 1_555
C5D C4D 1_555 1_555
H3D C5D 1_555 1_555
C6D C5D 1_555 1_555
H4D C6D 1_555 1_555
C7D C6D 1_555 1_555
H5D C7D 1_555 1_555
C8D C7D 1_555 1_555
H6D C8D 1_555 1_555
C9D C4D 1_555 1_555
H7D C9D 1_555 1_555
C10D Si1D 1_555 1_555
H8D C10D 1_555 1_555
H9D C10D 1_555 1_555
H10D C10D 1_555 1_555
C11D Si1D 1_555 1_555
H11D C11D 1_555 1_555
H12D C11D 1_555 1_555
H13D C11D 1_555 1_555
C8 C9 1_555 1_555
C1D C2D 1_555 1_555
C1D C3D 1_555 1_555
C8D C9D 1_555 1_555

#END
