
#######################################################################
#
#                 Cambridge Crystallographic Data Centre
#                                CCDC 
#
#######################################################################
#
# If this CIF has been generated from an entry in the Cambridge 
# Structural Database, then it will include bibliographic, chemical, 
# crystal, experimental, refinement or atomic coordinate data resulting 
# from the CCDC's data processing and validation procedures.
#
#######################################################################

data_KUVFIR
_chemical_formula_moiety         'C15 H14 N4 O3 S2'
_chemical_name_systematic        
4-(3-(Hydroxy(phenyl)methyl)-5-thioxo-1,5-dihydro-4H-1,2,4-triazol-4-yl)benzenesulfonamide
_symmetry_cell_setting           orthorhombic
_symmetry_space_group_name_H-M   'P 21 21 21'
_symmetry_Int_Tables_number      19
_space_group_name_Hall           'P 2ac 2ab'
loop_
_symmetry_equiv_pos_site_id
_symmetry_equiv_pos_as_xyz
1 x,y,z
2 1/2-x,-y,1/2+z
3 1/2+x,1/2-y,-z
4 -x,1/2+y,1/2-z
_cell_length_a                   8.2498(5)
_cell_length_b                   13.5167(7)
_cell_length_c                   14.2522(7)
_cell_angle_alpha                90
_cell_angle_beta                 90
_cell_angle_gamma                90
_cell_volume                     1589.26
_exptl_crystal_colour            colorless
_exptl_crystal_description       prism
_cell_formula_units_Z            4
_exptl_crystal_recrystallization_method water/ethanol
loop_
_atom_site_label
_atom_site_type_symbol
_atom_site_fract_x
_atom_site_fract_y
_atom_site_fract_z
S1 S 0.17287(5) 0.71648(3) 0.41130(3)
S2 S 0.79576(4) 0.40875(3) 0.33694(3)
O1 O 0.2506(3) 0.4120(2) 0.6848(2)
O2 O 0.92661(14) 0.43807(13) 0.39572(10)
O3 O 0.77632(18) 0.30741(11) 0.31372(14)
N1 N -0.03407(16) 0.55833(11) 0.60444(10)
N2 N -0.01523(16) 0.63968(11) 0.54897(10)
N3 N 0.18483(14) 0.54616(10) 0.51694(9)
N4 N 0.81784(19) 0.46661(14) 0.23974(11)
C1 C -0.03337(19) 0.35747(13) 0.66854(13)
C2 C -0.0487(2) 0.33998(14) 0.76345(13)
C3 C -0.1902(3) 0.29833(14) 0.79838(14)
C4 C -0.3154(2) 0.27399(15) 0.73879(17)
C5 C -0.2995(2) 0.29076(16) 0.64419(16)
C6 C -0.1595(2) 0.33125(15) 0.60919(14)
C7 C 0.1213(9) 0.4010(5) 0.6305(6)
C8 C 0.08859(17) 0.50199(12) 0.58420(12)
C9 C 0.11550(16) 0.63506(12) 0.49321(12)
C10 C 0.33246(16) 0.50982(11) 0.47478(11)
C11 C 0.47832(19) 0.53833(15) 0.51248(13)
C12 C 0.62079(19) 0.50687(15) 0.47033(14)
C13 C 0.61324(17) 0.44786(13) 0.39193(12)
C14 C 0.46561(18) 0.41826(14) 0.35441(12)
C15 C 0.32367(18) 0.45127(13) 0.39608(13)
H1 H 0.03560 0.35610 0.80400
H2 H -0.20040 0.28680 0.86240
H3 H -0.08080 0.68910 0.54970
H4 H 0.734(3) 0.4531(19) 0.2033(17)
H5 H 0.848(3) 0.5258(14) 0.251(2)
H6 H -0.41020 0.24640 0.76250
H7 H -0.14900 0.34120 0.54490
H8 H 0.15510 0.35690 0.57950
H9 H 0.48150 0.57820 0.56560
H10 H 0.72060 0.52560 0.49490
H11 H 0.46200 0.37700 0.30220
H12 H 0.22350 0.43400 0.37100
H13 H -0.38390 0.27460 0.60370
H14 H 0.26160 0.36280 0.71790
C16? C 0.1184(15) 0.4081(11) 0.6206(12)
H15? H 0.23780 0.30130 0.60420
H16? H 0.19040 0.42150 0.67380
O4? O 0.2021(5) 0.3451(3) 0.5701(3)
loop_
_geom_bond_atom_site_label_1
_geom_bond_atom_site_label_2
_geom_bond_site_symmetry_1
_geom_bond_site_symmetry_2
S1 C9 1_555 1_555
S2 O2 1_555 1_555
O1 C7 1_555 1_555
O3 S2 1_555 1_555
N1 N2 1_555 1_555
N2 C9 1_555 1_555
N3 C8 1_555 1_555
N4 S2 1_555 1_555
C1 C2 1_555 1_555
C2 C3 1_555 1_555
C3 C4 1_555 1_555
C4 C5 1_555 1_555
C5 C6 1_555 1_555
C6 C1 1_555 1_555
C7 C1 1_555 1_555
C8 N1 1_555 1_555
C9 N3 1_555 1_555
C10 N3 1_555 1_555
C11 C10 1_555 1_555
C12 C11 1_555 1_555
C13 S2 1_555 1_555
C14 C13 1_555 1_555
C15 C10 1_555 1_555
H1 C2 1_555 1_555
H2 C3 1_555 1_555
H3 N2 1_555 1_555
H4 N4 1_555 1_555
H5 N4 1_555 1_555
H6 C4 1_555 1_555
H7 C6 1_555 1_555
H8 C7 1_555 1_555
H9 C11 1_555 1_555
H10 C12 1_555 1_555
H11 C14 1_555 1_555
H12 C15 1_555 1_555
H13 C5 1_555 1_555
H14 O1 1_555 1_555
C7 C8 1_555 1_555
C12 C13 1_555 1_555
C14 C15 1_555 1_555

#END
