
#######################################################################
#
#                 Cambridge Crystallographic Data Centre
#                                CCDC 
#
#######################################################################
#
# If this CIF has been generated from an entry in the Cambridge 
# Structural Database, then it will include bibliographic, chemical, 
# crystal, experimental, refinement or atomic coordinate data resulting 
# from the CCDC's data processing and validation procedures.
#
#######################################################################

data_KUVFEN
_chemical_formula_moiety         'C30 H24 Cl2 N2 O3'
_chemical_name_systematic        
'Ethyl 6-chloro-2-((2-chloro-7,8-dimethylquinolin-3-yl)methoxy)-4-phenylquinoline-3-carboxylate'
_symmetry_cell_setting           monoclinic
_symmetry_space_group_name_H-M   'P 21/n'
_symmetry_Int_Tables_number      14
_space_group_name_Hall           '-P 2yn'
loop_
_symmetry_equiv_pos_site_id
_symmetry_equiv_pos_as_xyz
1 x,y,z
2 1/2-x,1/2+y,1/2-z
3 -x,-y,-z
4 1/2+x,1/2-y,1/2+z
_cell_length_a                   8.3187(5)
_cell_length_b                   28.0038(17)
_cell_length_c                   11.2093(7)
_cell_angle_alpha                90
_cell_angle_beta                 98.721(6)
_cell_angle_gamma                90
_cell_volume                     2581.07
_exptl_crystal_colour            colorless
_exptl_crystal_description       block
_cell_formula_units_Z            4
_exptl_crystal_recrystallization_method acetone
loop_
_atom_site_label
_atom_site_type_symbol
_atom_site_fract_x
_atom_site_fract_y
_atom_site_fract_z
Cl1 Cl 0.41574(10) -0.09830(3) 0.17492(7)
Cl2 Cl -0.16048(10) 0.18075(3) 0.62865(7)
O1 O 0.1593(2) 0.03957(7) 0.09664(16)
O2 O -0.0023(3) 0.10440(8) -0.08652(19)
O3 O 0.1613(2) 0.16113(8) 0.00331(17)
N1 N 0.4330(3) -0.09180(8) -0.0534(2)
N2 N 0.0969(3) 0.05269(8) 0.2868(2)
C1 C 0.3783(3) -0.07019(10) 0.0336(3)
C2 C 0.2954(3) -0.02581(10) 0.0283(3)
C3 C 0.2746(3) -0.00415(10) -0.0811(3)
C4 C 0.3142(3) -0.00413(11) -0.2960(3)
C5 C 0.3682(4) -0.02691(12) -0.3888(3)
C6 C 0.4432(3) -0.07216(12) -0.3737(3)
C7 C 0.4630(3) -0.09424(11) -0.2636(3)
C8 C 0.4087(3) -0.07039(11) -0.1658(3)
C9 C 0.3322(3) -0.02535(10) -0.1802(3)
C10 C 0.5389(3) -0.14318(10) -0.2462(3)
C11 C 0.4988(3) -0.09507(11) -0.4838(2)
C12 C 0.2312(3) -0.00526(9) 0.1354(3)
C13 C 0.0961(3) 0.06702(11) 0.1771(3)
C14 C 0.0399(3) 0.11247(10) 0.1293(3)
C15 C -0.0212(3) 0.14355(10) 0.2034(3)
C16 C -0.0267(3) 0.12959(11) 0.3255(3)
C17 C -0.0888(3) 0.15872(10) 0.4103(3)
C18 C -0.0858(3) 0.14366(12) 0.5255(3)
C19 C -0.0249(3) 0.09918(12) 0.5634(3)
C20 C 0.0334(3) 0.06967(11) 0.4830(3)
C21 C 0.0335(3) 0.08365(11) 0.3622(3)
C22 C 0.0606(4) 0.12451(12) 0.0010(3)
C23 C 0.1936(4) 0.18050(13) -0.1109(3)
C24 C 0.1264(5) 0.22927(12) -0.1233(3)
C25 C -0.0804(4) 0.19251(10) 0.1607(3)
C26 C -0.2210(4) 0.19679(11) 0.0785(3)
C27 C -0.2764(4) 0.24215(13) 0.0418(3)
C28 C -0.1930(5) 0.28234(12) 0.0844(3)
C29 C -0.0541(4) 0.27775(12) 0.1640(3)
C30 C 0.0047(3) 0.23285(12) 0.2034(3)
H1 H 0.22160 0.02510 -0.09080
H2 H 0.26490 0.02560 -0.30850
H3 H 0.35560 -0.01240 -0.46430
H4 H 0.46760 -0.16630 -0.28950
H5 H 0.55640 -0.15100 -0.16180
H6 H 0.64110 -0.14330 -0.27610
H7 H 0.61550 -0.09610 -0.47270
H8 H 0.45970 -0.07660 -0.55440
H9 H 0.45630 -0.12690 -0.49370
H10 H 0.15080 -0.02640 0.16140
H11 H 0.31880 -0.00070 0.20220
H12 H -0.13210 0.18850 0.38710
H13 H -0.02390 0.08950 0.64290
H14 H 0.07380 0.03980 0.50840
H15 H 0.14290 0.16070 -0.17710
H16 H 0.30980 0.18120 -0.11270
H17 H 0.01300 0.22850 -0.11590
H18 H 0.13930 0.24190 -0.20100
H19 H 0.18330 0.24920 -0.06120
H20 H -0.27790 0.16970 0.04800
H21 H -0.37200 0.24520 -0.01270
H22 H -0.23130 0.31240 0.05910
H23 H 0.00310 0.30500 0.19280
H24 H 0.10030 0.23020 0.25800
loop_
_geom_bond_atom_site_label_1
_geom_bond_atom_site_label_2
_geom_bond_site_symmetry_1
_geom_bond_site_symmetry_2
Cl1 C1 1_555 1_555
Cl2 C18 1_555 1_555
O1 C12 1_555 1_555
O2 C22 1_555 1_555
O3 C22 1_555 1_555
N1 C1 1_555 1_555
N2 C13 1_555 1_555
C1 C2 1_555 1_555
C2 C3 1_555 1_555
C3 C9 1_555 1_555
C4 C5 1_555 1_555
C5 C6 1_555 1_555
C6 C7 1_555 1_555
C7 C8 1_555 1_555
C8 N1 1_555 1_555
C9 C4 1_555 1_555
C10 C7 1_555 1_555
C11 C6 1_555 1_555
C12 C2 1_555 1_555
C13 O1 1_555 1_555
C14 C13 1_555 1_555
C15 C14 1_555 1_555
C16 C15 1_555 1_555
C17 C16 1_555 1_555
C18 C17 1_555 1_555
C19 C18 1_555 1_555
C20 C19 1_555 1_555
C21 N2 1_555 1_555
C22 C14 1_555 1_555
C23 O3 1_555 1_555
C24 C23 1_555 1_555
C25 C15 1_555 1_555
C26 C25 1_555 1_555
C27 C26 1_555 1_555
C28 C27 1_555 1_555
C29 C28 1_555 1_555
C30 C25 1_555 1_555
H1 C3 1_555 1_555
H2 C4 1_555 1_555
H3 C5 1_555 1_555
H4 C10 1_555 1_555
H5 C10 1_555 1_555
H6 C10 1_555 1_555
H7 C11 1_555 1_555
H8 C11 1_555 1_555
H9 C11 1_555 1_555
H10 C12 1_555 1_555
H11 C12 1_555 1_555
H12 C17 1_555 1_555
H13 C19 1_555 1_555
H14 C20 1_555 1_555
H15 C23 1_555 1_555
H16 C23 1_555 1_555
H17 C24 1_555 1_555
H18 C24 1_555 1_555
H19 C24 1_555 1_555
H20 C26 1_555 1_555
H21 C27 1_555 1_555
H22 C28 1_555 1_555
H23 C29 1_555 1_555
H24 C30 1_555 1_555
C8 C9 1_555 1_555
C16 C21 1_555 1_555
C20 C21 1_555 1_555
C29 C30 1_555 1_555

#END
