
#######################################################################
#
#                 Cambridge Crystallographic Data Centre
#                                CCDC 
#
#######################################################################
#
# If this CIF has been generated from an entry in the Cambridge 
# Structural Database, then it will include bibliographic, chemical, 
# crystal, experimental, refinement or atomic coordinate data resulting 
# from the CCDC's data processing and validation procedures.
#
#######################################################################

data_KUVGUE
_chemical_formula_moiety         'C1 H5 N6 1+,Cl1 1-'
_chemical_name_systematic        '1,5-Diaminotetrazolium chloride'
_symmetry_cell_setting           orthorhombic
_symmetry_space_group_name_H-M   'P n a 21'
_symmetry_Int_Tables_number      33
_space_group_name_Hall           'P 2c -2n'
loop_
_symmetry_equiv_pos_site_id
_symmetry_equiv_pos_as_xyz
1 x,y,z
2 -x,-y,1/2+z
3 1/2-x,1/2+y,1/2+z
4 1/2+x,1/2-y,z
_cell_length_a                   12.389(3)
_cell_length_b                   6.4500(12)
_cell_length_c                   13.305(3)
_cell_angle_alpha                90
_cell_angle_beta                 90
_cell_angle_gamma                90
_cell_volume                     1063.19
_exptl_crystal_colour            colorless
_exptl_crystal_description       prism
_cell_formula_units_Z            8
_exptl_crystal_recrystallization_method methanol
loop_
_atom_site_label
_atom_site_type_symbol
_atom_site_fract_x
_atom_site_fract_y
_atom_site_fract_z
N1 N 0.44089(16) 0.1470(3) 0.39856(16)
N2 N 0.51729(18) 0.2805(3) 0.36265(19)
N3 N 0.48306(18) 0.4641(3) 0.37753(18)
N4 N 0.38470(18) 0.4512(3) 0.42323(16)
N5 N 0.44793(18) -0.0680(3) 0.39178(19)
N6 N 0.26869(18) 0.1788(3) 0.4778(2)
C1 C 0.3577(2) 0.2537(4) 0.4364(2)
H1 H 0.342(3) 0.565(7) 0.438(3)
H2 H 0.446(3) -0.093(7) 0.334(3)
H3 H 0.514(3) -0.104(5) 0.422(3)
H4 H 0.215(3) 0.259(6) 0.492(3)
H5 H 0.260(3) 0.037(6) 0.469(3)
N7 N 0.68577(16) 0.3860(3) 0.20486(15)
N8 N 0.76391(17) 0.2503(3) 0.23810(19)
N9 N 0.73281(18) 0.0683(3) 0.21667(17)
N10 N 0.63448(17) 0.0824(3) 0.17032(17)
N11 N 0.68953(18) 0.5995(3) 0.21790(18)
N12 N 0.51472(17) 0.3555(3) 0.1248(2)
C2 C 0.6038(2) 0.2794(4) 0.1630(2)
H6 H 0.599(3) -0.016(6) 0.158(3)
H7 H 0.677(3) 0.623(5) 0.288(3)
H8 H 0.753(3) 0.634(5) 0.200(2)
H9 H 0.477(3) 0.275(5) 0.094(3)
H10 H 0.502(3) 0.476(6) 0.129(3)
Cl1 Cl 0.93591(4) 0.67650(9) 0.13004(5)
Cl2 Cl 0.19017(4) 0.71516(9) 0.47049(5)
loop_
_geom_bond_atom_site_label_1
_geom_bond_atom_site_label_2
_geom_bond_site_symmetry_1
_geom_bond_site_symmetry_2
N1 N2 1_555 1_555
N2 N3 1_555 1_555
N3 N4 1_555 1_555
N4 C1 1_555 1_555
N5 N1 1_555 1_555
N6 C1 1_555 1_555
C1 N1 1_555 1_555
H1 N4 1_555 1_555
H2 N5 1_555 1_555
H3 N5 1_555 1_555
H4 N6 1_555 1_555
H5 N6 1_555 1_555
N7 N8 1_555 1_555
N8 N9 1_555 1_555
N9 N10 1_555 1_555
N10 C2 1_555 1_555
N11 N7 1_555 1_555
N12 C2 1_555 1_555
C2 N7 1_555 1_555
H6 N10 1_555 1_555
H7 N11 1_555 1_555
H8 N11 1_555 1_555
H9 N12 1_555 1_555
H10 N12 1_555 1_555

#END
