
#######################################################################
#
#                 Cambridge Crystallographic Data Centre
#                                CCDC 
#
#######################################################################
#
# If this CIF has been generated from an entry in the Cambridge 
# Structural Database, then it will include bibliographic, chemical, 
# crystal, experimental, refinement or atomic coordinate data resulting 
# from the CCDC's data processing and validation procedures.
#
#######################################################################

data_KUVJAN
_chemical_name_common            
'6-(Acetoxymethyl)-3-((2-hydroxy-3-methoxybenzylidene)amino)tetrahydro-2H-pyran-2,4,5-triyl triacetate'
_chemical_formula_moiety         'C22 H27 N1 O11'
_chemical_name_systematic        
'6-Acetoxymethyl-3-[(2-hydroxy-3-methoxybenzylidene)amino]-3,4,5,6-tetrahydro-2H-pyran-2,4,5-triyl triacetate'
_symmetry_cell_setting           orthorhombic
_symmetry_space_group_name_H-M   'P 21 21 21'
_symmetry_Int_Tables_number      19
_space_group_name_Hall           'P 2ac 2ab'
loop_
_symmetry_equiv_pos_site_id
_symmetry_equiv_pos_as_xyz
1 x,y,z
2 1/2-x,-y,1/2+z
3 -x,1/2+y,1/2-z
4 1/2+x,1/2-y,-z
_cell_length_a                   10.806(3)
_cell_length_b                   11.151(3)
_cell_length_c                   20.243(5)
_cell_angle_alpha                90
_cell_angle_beta                 90
_cell_angle_gamma                90
_cell_volume                     2439.24
_exptl_crystal_colour            colorless
_exptl_crystal_description       block
_cell_formula_units_Z            4
loop_
_atom_site_label
_atom_site_type_symbol
_atom_site_fract_x
_atom_site_fract_y
_atom_site_fract_z
N1 N 0.4441(3) 0.0108(3) -0.01092(15)
O1 O 0.2954(3) -0.1155(2) -0.08619(14)
H1 H 0.3485 -0.1041 -0.0580
O2 O 0.1136(3) -0.1188(3) -0.17050(16)
O3 O 0.5742(3) -0.0540(2) 0.15220(13)
O4 O 0.3813(3) 0.0041(3) 0.12705(14)
O5 O 0.2923(4) -0.1724(4) 0.1455(2)
O6 O 0.7049(3) 0.0885(2) -0.01748(13)
O7 O 0.7871(5) -0.0297(4) -0.09480(18)
O8 O 0.8528(3) -0.1002(3) 0.05512(15)
O9 O 0.9690(4) 0.0649(4) 0.0508(2)
O10 O 0.8042(3) -0.0141(3) 0.21533(14)
O11 O 0.9237(4) -0.1041(4) 0.2885(2)
C1 C 0.3183(4) 0.0980(4) -0.09509(19)
C2 C 0.2611(4) -0.0094(4) -0.11268(17)
C3 C 0.1641(4) -0.0085(4) -0.1582(2)
C4 C 0.1275(5) 0.0970(4) -0.1868(2)
H2 H 0.0620 0.0974 -0.2166
C5 C 0.1877(6) 0.2026(4) -0.1716(2)
H3 H 0.1651 0.2735 -0.1925
C6 C 0.2796(5) 0.2030(4) -0.1261(2)
H4 H 0.3178 0.2752 -0.1153
C7 C 0.0039(5) -0.1240(5) -0.2101(2)
H5 H -0.0601 -0.0770 -0.1898
H6 H -0.0230 -0.2057 -0.2139
H7 H 0.0213 -0.0927 -0.2533
C8 C 0.4107(4) 0.1028(4) -0.0435(2)
H8 H 0.4473 0.1762 -0.0338
C9 C 0.4872(4) -0.0535(4) 0.1006(2)
H9 H 0.4679 -0.1351 0.0859
C10 C 0.5319(4) 0.0245(4) 0.0434(2)
H10 H 0.5334 0.1086 0.0575
C11 C 0.6604(4) -0.0123(4) 0.02084(19)
H11 H 0.6556 -0.0841 -0.0070
C12 C 0.7471(4) -0.0339(3) 0.07825(18)
H12 H 0.7737 0.0427 0.0972
C13 C 0.6865(4) -0.1114(4) 0.13127(19)
H13 H 0.6663 -0.1898 0.1123
C14 C 0.2886(5) -0.0675(6) 0.1493(3)
C15 C 0.1874(5) 0.0050(6) 0.1787(3)
H14 H 0.1311 -0.0468 0.2018
H15 H 0.1438 0.0466 0.1443
H16 H 0.2217 0.0622 0.2091
C16 C 0.7680(6) 0.0677(5) -0.0739(2)
C17 C 0.8086(7) 0.1835(6) -0.1032(3)
H17 H 0.8882 0.1734 -0.1234
H18 H 0.8140 0.2432 -0.0692
H19 H 0.7498 0.2086 -0.1359
C18 C 0.9585(5) -0.0393(6) 0.0418(3)
C19 C 1.0539(6) -0.1225(6) 0.0159(3)
H20 H 1.0194 -0.1692 -0.0194
H21 H 1.0809 -0.1750 0.0507
H22 H 1.1231 -0.0773 -0.0003
C20 C 0.7666(5) -0.1294(4) 0.1910(2)
H23 H 0.7209 -0.1721 0.2249
H24 H 0.8388 -0.1766 0.1794
C21 C 0.8859(5) -0.0145(5) 0.2653(2)
C22 C 0.9208(6) 0.1090(5) 0.2857(3)
H25 H 0.8510 0.1476 0.3059
H26 H 0.9463 0.1540 0.2476
H27 H 0.9878 0.1053 0.3168
loop_
_geom_bond_atom_site_label_1
_geom_bond_atom_site_label_2
_geom_bond_site_symmetry_1
_geom_bond_site_symmetry_2
N1 C8 1_555 1_555
O1 H1 1_555 1_555
O2 C3 1_555 1_555
O3 C9 1_555 1_555
O4 C9 1_555 1_555
O5 C14 1_555 1_555
O6 C11 1_555 1_555
O7 C16 1_555 1_555
O8 C12 1_555 1_555
O9 C18 1_555 1_555
O10 C20 1_555 1_555
O11 C21 1_555 1_555
C1 C2 1_555 1_555
C2 O1 1_555 1_555
C3 C2 1_555 1_555
C4 C3 1_555 1_555
H2 C4 1_555 1_555
C5 C4 1_555 1_555
H3 C5 1_555 1_555
C6 C1 1_555 1_555
H4 C6 1_555 1_555
C7 O2 1_555 1_555
H5 C7 1_555 1_555
H6 C7 1_555 1_555
H7 C7 1_555 1_555
C8 C1 1_555 1_555
H8 C8 1_555 1_555
C9 H9 1_555 1_555
C10 N1 1_555 1_555
H10 C10 1_555 1_555
C11 C10 1_555 1_555
H11 C11 1_555 1_555
C12 C11 1_555 1_555
H12 C12 1_555 1_555
C13 O3 1_555 1_555
H13 C13 1_555 1_555
C14 O4 1_555 1_555
C15 C14 1_555 1_555
H14 C15 1_555 1_555
H15 C15 1_555 1_555
H16 C15 1_555 1_555
C16 O6 1_555 1_555
C17 C16 1_555 1_555
H17 C17 1_555 1_555
H18 C17 1_555 1_555
H19 C17 1_555 1_555
C18 O8 1_555 1_555
C19 C18 1_555 1_555
H20 C19 1_555 1_555
H21 C19 1_555 1_555
H22 C19 1_555 1_555
C20 C13 1_555 1_555
H23 C20 1_555 1_555
H24 C20 1_555 1_555
C21 O10 1_555 1_555
C22 C21 1_555 1_555
H25 C22 1_555 1_555
H26 C22 1_555 1_555
H27 C22 1_555 1_555
C5 C6 1_555 1_555
C9 C10 1_555 1_555
C12 C13 1_555 1_555

#END
