
#######################################################################
#
#                 Cambridge Crystallographic Data Centre
#                                CCDC 
#
#######################################################################
#
# If this CIF has been generated from an entry in the Cambridge 
# Structural Database, then it will include bibliographic, chemical, 
# crystal, experimental, refinement or atomic coordinate data resulting 
# from the CCDC's data processing and validation procedures.
#
#######################################################################

data_KUVJUH
_chemical_name_common            
't-Butyl (1-hydrazino-3-hydroxy-1-oxopropan-2-yl)carbamate'
_chemical_formula_moiety         'C8 H17 N3 O4'
_chemical_name_systematic        
t-ButylN-[(S)-1-hydrazinecarbonyl-2-hydroxyethyl]carbamate
_symmetry_cell_setting           monoclinic
_symmetry_space_group_name_H-M   'P 21'
_symmetry_Int_Tables_number      4
_space_group_name_Hall           'P 2yb'
loop_
_symmetry_equiv_pos_site_id
_symmetry_equiv_pos_as_xyz
1 x,y,z
2 -x,1/2+y,-z
_cell_length_a                   6.9274(5)
_cell_length_b                   5.0074(4)
_cell_length_c                   16.2388(15)
_cell_angle_alpha                90
_cell_angle_beta                 94.483(5)
_cell_angle_gamma                90
_cell_volume                     561.572
_exptl_crystal_colour            colorless
_exptl_crystal_description       plate
_cell_formula_units_Z            2
loop_
_atom_site_label
_atom_site_type_symbol
_atom_site_fract_x
_atom_site_fract_y
_atom_site_fract_z
O1 O 0.2906(3) 0.6236(5) 0.55336(15)
O2 O -0.0983(3) 0.3069(5) 0.64307(16)
H1 H -0.149(6) 0.452(5) 0.627(3)
O3 O 0.4633(4) -0.1207(6) 0.74118(17)
O4 O 0.6317(3) 0.2100(5) 0.81155(14)
N1 N 0.2779(4) 0.2663(6) 0.42051(18)
H2 H 0.205(5) 0.414(5) 0.409(3)
H3 H 0.4053(15) 0.288(9) 0.412(2)
N2 N 0.2663(4) 0.1984(5) 0.50498(18)
H4 H 0.230(5) 0.033(3) 0.513(2)
N3 N 0.4237(4) 0.3155(5) 0.70510(18)
H5 H 0.429(6) 0.485(2) 0.720(2)
C1 C 0.2715(4) 0.3813(8) 0.5650(2)
C2 C 0.2480(4) 0.2659(8) 0.65093(19)
H6 H 0.2267 0.0688 0.6460
C3 C 0.0743(2) 0.3924(5) 0.68777(11)
H7 H 0.0723 0.3398 0.7465
H8 H 0.0842 0.5894 0.6852
C4 C 0.5023(2) 0.1141(5) 0.75191(11)
C5 C 0.7406(2) 0.0190(5) 0.86737(11)
C6 C 0.8669(2) 0.2032(5) 0.92338(11)
H9 H 0.9567 0.3001 0.8904
H10 H 0.9406 0.0969 0.9657
H11 H 0.7847 0.3310 0.9501
C7 C 0.6005(6) -0.1336(9) 0.9179(2)
H12 H 0.5109 -0.0078 0.9411
H13 H 0.6735 -0.2291 0.9629
H14 H 0.5272 -0.2620 0.8823
C8 C 0.8656(5) -0.1602(7) 0.8176(2)
H15 H 0.7860 -0.3046 0.7922
H16 H 0.9705 -0.2366 0.8542
H17 H 0.9207 -0.0549 0.7743
loop_
_geom_bond_atom_site_label_1
_geom_bond_atom_site_label_2
_geom_bond_site_symmetry_1
_geom_bond_site_symmetry_2
O1 C1 1_555 1_555
O2 H1 1_555 1_555
O3 C4 1_555 1_555
O4 C4 1_555 1_555
N1 H2 1_555 1_555
H3 N1 1_555 1_555
N2 N1 1_555 1_555
H4 N2 1_555 1_555
N3 H5 1_555 1_555
C1 N2 1_555 1_555
C2 N3 1_555 1_555
H6 C2 1_555 1_555
C3 O2 1_555 1_555
H7 C3 1_555 1_555
H8 C3 1_555 1_555
C4 N3 1_555 1_555
C5 O4 1_555 1_555
C6 C5 1_555 1_555
H9 C6 1_555 1_555
H10 C6 1_555 1_555
H11 C6 1_555 1_555
C7 C5 1_555 1_555
H12 C7 1_555 1_555
H13 C7 1_555 1_555
H14 C7 1_555 1_555
C8 C5 1_555 1_555
H15 C8 1_555 1_555
H16 C8 1_555 1_555
H17 C8 1_555 1_555
C1 C2 1_555 1_555
C2 C3 1_555 1_555

#END
