
#######################################################################
#
#                 Cambridge Crystallographic Data Centre
#                                CCDC 
#
#######################################################################
#
# If this CIF has been generated from an entry in the Cambridge 
# Structural Database, then it will include bibliographic, chemical, 
# crystal, experimental, refinement or atomic coordinate data resulting 
# from the CCDC's data processing and validation procedures.
#
#######################################################################

data_KUVLET
_chemical_formula_moiety         'C17 H15 Cl1 N2 O1'
_chemical_name_systematic        
1-((2-Chloro-7,8-dimethylquinolin-3-yl)methyl)pyridin-2(1H)-one
_symmetry_cell_setting           monoclinic
_symmetry_space_group_name_H-M   'P 21/c'
_symmetry_Int_Tables_number      14
_space_group_name_Hall           '-P 2ybc'
loop_
_symmetry_equiv_pos_site_id
_symmetry_equiv_pos_as_xyz
1 x,y,z
2 -x,1/2+y,1/2-z
3 -x,-y,-z
4 x,1/2-y,1/2+z
_cell_length_a                   7.07034(17)
_cell_length_b                   15.4729(4)
_cell_length_c                   13.1704(3)
_cell_angle_alpha                90
_cell_angle_beta                 96.342(2)
_cell_angle_gamma                90
_cell_volume                     1432.01
_exptl_crystal_colour            colorless
_exptl_crystal_description       block
_cell_formula_units_Z            4
_exptl_crystal_recrystallization_method chloroform
loop_
_atom_site_label
_atom_site_type_symbol
_atom_site_fract_x
_atom_site_fract_y
_atom_site_fract_z
Cl1 Cl 1.38101(6) 0.30106(3) 0.46949(4)
O1 O 0.8143(2) 0.15968(9) 0.50257(10)
N1 N 1.14556(19) 0.39838(9) 0.35696(10)
N2 N 0.8843(2) 0.24988(9) 0.63744(10)
C1 C 1.1608(2) 0.35195(10) 0.43917(13)
C2 C 1.0220(2) 0.33920(11) 0.50689(12)
C3 C 0.8596(2) 0.38656(11) 0.48572(12)
C4 C 0.6662(2) 0.48857(11) 0.37163(14)
C5 C 0.6463(3) 0.53389(12) 0.28258(14)
C6 C 0.7855(3) 0.53271(11) 0.21389(14)
C7 C 0.9535(2) 0.48792(11) 0.23822(13)
C8 C 0.9779(2) 0.44201(10) 0.33237(12)
C9 C 0.8327(2) 0.44006(10) 0.39814(12)
C10 C 1.0577(3) 0.27637(13) 0.59472(14)
C11 C 0.8430(3) 0.28316(12) 0.72898(14)
C12 C 0.6894(3) 0.25858(13) 0.77200(14)
C13 C 0.5686(3) 0.19603(12) 0.72202(15)
C14 C 0.6077(3) 0.16224(12) 0.63285(14)
C15 C 0.7703(3) 0.18774(11) 0.58469(13)
C16 C 0.7440(3) 0.57702(15) 0.11113(15)
C17 C 1.1065(3) 0.48403(13) 0.16669(14)
H1 H 0.76520 0.38360 0.52950
H2 H 0.57050 0.48960 0.41470
H3 H 0.53700 0.56680 0.26650
H4 H 1.12000 0.22540 0.57130
H5 H 1.14370 0.30290 0.64830
H6 H 0.92440 0.32400 0.76200
H7 H 0.66280 0.28230 0.83370
H8 H 0.46110 0.17800 0.75090
H9 H 0.52600 0.12080 0.60130
H10 H 0.84350 0.61760 0.10210
H11 H 0.62460 0.60700 0.10850
H12 H 0.73740 0.53460 0.05770
H13 H 1.06670 0.44600 0.11080
H14 H 1.22240 0.46280 0.20300
H15 H 1.12740 0.54080 0.14090
loop_
_geom_bond_atom_site_label_1
_geom_bond_atom_site_label_2
_geom_bond_site_symmetry_1
_geom_bond_site_symmetry_2
Cl1 C1 1_555 1_555
O1 C15 1_555 1_555
N1 C1 1_555 1_555
N2 C10 1_555 1_555
C1 C2 1_555 1_555
C2 C3 1_555 1_555
C3 C9 1_555 1_555
C4 C5 1_555 1_555
C5 C6 1_555 1_555
C6 C7 1_555 1_555
C7 C8 1_555 1_555
C8 N1 1_555 1_555
C9 C4 1_555 1_555
C10 C2 1_555 1_555
C11 N2 1_555 1_555
C12 C11 1_555 1_555
C13 C12 1_555 1_555
C14 C13 1_555 1_555
C15 N2 1_555 1_555
C16 C6 1_555 1_555
C17 C7 1_555 1_555
H1 C3 1_555 1_555
H2 C4 1_555 1_555
H3 C5 1_555 1_555
H4 C10 1_555 1_555
H5 C10 1_555 1_555
H6 C11 1_555 1_555
H7 C12 1_555 1_555
H8 C13 1_555 1_555
H9 C14 1_555 1_555
H10 C16 1_555 1_555
H11 C16 1_555 1_555
H12 C16 1_555 1_555
H13 C17 1_555 1_555
H14 C17 1_555 1_555
H15 C17 1_555 1_555
C8 C9 1_555 1_555
C14 C15 1_555 1_555

#END
