
#######################################################################
#
#                 Cambridge Crystallographic Data Centre
#                                CCDC 
#
#######################################################################
#
# If this CIF has been generated from an entry in the Cambridge 
# Structural Database, then it will include bibliographic, chemical, 
# crystal, experimental, refinement or atomic coordinate data resulting 
# from the CCDC's data processing and validation procedures.
#
#######################################################################

data_KUVMAQ
_chemical_name_common            4,5-bis(isopropylsulfanyl)phthalonitrile
_chemical_formula_moiety         'C14 H16 N2 S2'
_chemical_name_systematic        
4,5-Bis(isopropylsulfanyl)benzene-1,2-dicarbonitrile
_symmetry_cell_setting           monoclinic
_symmetry_space_group_name_H-M   'P 21/n'
_symmetry_Int_Tables_number      14
_space_group_name_Hall           '-P 2yn'
loop_
_symmetry_equiv_pos_site_id
_symmetry_equiv_pos_as_xyz
1 x,y,z
2 1/2-x,1/2+y,1/2-z
3 -x,-y,-z
4 1/2+x,1/2-y,1/2+z
_cell_length_a                   10.4929(7)
_cell_length_b                   9.3613(6)
_cell_length_c                   15.4491(11)
_cell_angle_alpha                90
_cell_angle_beta                 96.4670(10)
_cell_angle_gamma                90
_cell_volume                     1507.87
_exptl_crystal_colour            colorless
_exptl_crystal_description       plate
_cell_formula_units_Z            4
loop_
_atom_site_label
_atom_site_type_symbol
_atom_site_fract_x
_atom_site_fract_y
_atom_site_fract_z
S1 S 0.19579(3) -0.17837(4) 0.39373(3)
S2 S 0.31036(3) 0.05041(4) 0.51139(2)
C1 C -0.02406(13) 0.23666(15) 0.41156(9)
C2 C 0.10593(12) -0.02113(15) 0.39674(9)
C3 C 0.16133(12) 0.08841(14) 0.45253(8)
C4 C 0.09506(13) 0.21542(15) 0.45910(9)
H1 H 0.1307 0.2873 0.4957
C5 C -0.01420(13) 0.00042(16) 0.35047(9)
H2 H -0.0515 -0.0718 0.3148
C6 C -0.07884(13) 0.12884(16) 0.35707(9)
C7 C 0.35421(14) 0.20982(16) 0.57640(9)
H3 H 0.2780 0.2470 0.6001
C8 C -0.08952(15) 0.37074(18) 0.41839(11)
C9 C 0.45028(15) 0.1574(2) 0.65105(10)
H4 H 0.4111 0.0850 0.6832
H5 H 0.4762 0.2360 0.6890
H6 H 0.5240 0.1184 0.6280
N1 N -0.14093(17) 0.47715(17) 0.42345(12)
C10 C 0.10888(15) -0.29469(16) 0.31245(10)
H7 H 0.0191 -0.3013 0.3240
C11 C -0.20085(14) 0.15434(18) 0.30676(10)
N2 N -0.29515(14) 0.1806(2) 0.26646(11)
C12 C 0.4102(2) 0.3253(2) 0.52361(13)
H8 H 0.3471 0.3552 0.4773
H9 H 0.4840 0.2887 0.4995
H10 H 0.4349 0.4054 0.5605
C13 C 0.1728(2) -0.43966(18) 0.32843(14)
H11 H 0.1680 -0.4681 0.3877
H12 H 0.2610 -0.4333 0.3179
H13 H 0.1296 -0.5090 0.2898
C14 C 0.1141(2) -0.2436(2) 0.22038(12)
H14 H 0.0734 -0.1519 0.2130
H15 H 0.0702 -0.3106 0.1805
H16 H 0.2019 -0.2358 0.2091
loop_
_geom_bond_atom_site_label_1
_geom_bond_atom_site_label_2
_geom_bond_site_symmetry_1
_geom_bond_site_symmetry_2
S1 C2 1_555 1_555
S2 C3 1_555 1_555
C1 C4 1_555 1_555
C2 C3 1_555 1_555
C3 C4 1_555 1_555
C4 H1 1_555 1_555
C5 C2 1_555 1_555
H2 C5 1_555 1_555
C6 C1 1_555 1_555
C7 S2 1_555 1_555
H3 C7 1_555 1_555
C8 C1 1_555 1_555
C9 C7 1_555 1_555
H4 C9 1_555 1_555
H5 C9 1_555 1_555
H6 C9 1_555 1_555
N1 C8 1_555 1_555
C10 S1 1_555 1_555
H7 C10 1_555 1_555
C11 C6 1_555 1_555
N2 C11 1_555 1_555
C12 C7 1_555 1_555
H8 C12 1_555 1_555
H9 C12 1_555 1_555
H10 C12 1_555 1_555
C13 C10 1_555 1_555
H11 C13 1_555 1_555
H12 C13 1_555 1_555
H13 C13 1_555 1_555
C14 C10 1_555 1_555
H14 C14 1_555 1_555
H15 C14 1_555 1_555
H16 C14 1_555 1_555
C5 C6 1_555 1_555

#END
