
#######################################################################
#
#                 Cambridge Crystallographic Data Centre
#                                CCDC 
#
#######################################################################
#
# If this CIF has been generated from an entry in the Cambridge 
# Structural Database, then it will include bibliographic, chemical, 
# crystal, experimental, refinement or atomic coordinate data resulting 
# from the CCDC's data processing and validation procedures.
#
#######################################################################

data_KUVSOL
_chemical_formula_moiety         'C15 H12 Br1 N1 O4 S1'
_chemical_name_systematic        
1-(4-bromophenyl)-2-(2,2-dioxido-3,4-dihydro-1,2,3-benzoxathiazin-4-yl)ethanone
_symmetry_cell_setting           orthorhombic
_symmetry_space_group_name_H-M   'P 21 21 21'
_symmetry_Int_Tables_number      19
_space_group_name_Hall           'P 2ac 2ab'
loop_
_symmetry_equiv_pos_site_id
_symmetry_equiv_pos_as_xyz
1 x,y,z
2 1/2-x,-y,1/2+z
3 -x,1/2+y,1/2-z
4 1/2+x,1/2-y,-z
_cell_length_a                   5.7785(3)
_cell_length_b                   7.0086(4)
_cell_length_c                   36.717(2)
_cell_angle_alpha                90
_cell_angle_beta                 90
_cell_angle_gamma                90
_cell_volume                     1487.01
_exptl_crystal_colour            colorless
_exptl_crystal_description       BLOCK
_cell_formula_units_Z            4
loop_
_atom_site_label
_atom_site_type_symbol
_atom_site_fract_x
_atom_site_fract_y
_atom_site_fract_z
Br1 Br 0.04382(6) 0.59057(4) 0.831911(7)
S1 S 0.51349(14) 0.25615(10) 0.588160(17)
O1 O 0.6349(3) 0.6859(3) 0.67209(5)
O2 O 0.3440(4) 0.1747(3) 0.61100(6)
O3 O 0.7125(4) 0.1535(4) 0.57808(6)
O4 O 0.3897(4) 0.3076(3) 0.55045(5)
N1 N 0.5865(4) 0.4606(3) 0.60377(6)
H1 H 0.7275 0.4843 0.6097
C1 C 0.1172(4) 0.5471(3) 0.72060(6)
H2 H 0.0257 0.5071 0.7012
C2 C 0.0342(4) 0.5324(3) 0.75576(6)
H3 H -0.1111 0.4800 0.7602
C3 C 0.1686(4) 0.5961(3) 0.78424(6)
C4 C 0.3867(4) 0.6707(3) 0.77849(6)
H4 H 0.4765 0.7113 0.7980
C5 C 0.4698(4) 0.6844(3) 0.74334(6)
H5 H 0.6156 0.7361 0.7392
C6 C 0.3360(4) 0.6210(3) 0.71392(6)
C7 C 0.4354(4) 0.6366(3) 0.67647(6)
C8 C 0.2818(4) 0.5901(4) 0.64452(6)
H6 H 0.1492 0.6749 0.6448
H7 H 0.2249 0.4606 0.6472
C9 C 0.4037(4) 0.6083(4) 0.60769(6)
H8 H 0.4802 0.7331 0.6072
C10 C 0.2338(4) 0.6031(4) 0.57642(6)
C11 C 0.0718(5) 0.7483(4) 0.57228(7)
H9 H 0.0709 0.8489 0.5888
C12 C -0.0878(6) 0.7469(5) 0.54427(8)
H10 H -0.1950 0.8452 0.5422
C13 C -0.0876(6) 0.5990(5) 0.51943(8)
H11 H -0.1946 0.5983 0.5005
C14 C 0.0679(6) 0.4547(5) 0.52244(7)
H12 H 0.0669 0.3546 0.5058
C15 C 0.2289(5) 0.4578(4) 0.55065(7)
loop_
_geom_bond_atom_site_label_1
_geom_bond_atom_site_label_2
_geom_bond_site_symmetry_1
_geom_bond_site_symmetry_2
Br1 C3 1_555 1_555
S1 O2 1_555 1_555
O1 C7 1_555 1_555
O3 S1 1_555 1_555
O4 S1 1_555 1_555
N1 S1 1_555 1_555
H1 N1 1_555 1_555
C1 H2 1_555 1_555
C2 C1 1_555 1_555
H3 C2 1_555 1_555
C3 C2 1_555 1_555
C4 C3 1_555 1_555
H4 C4 1_555 1_555
C5 C4 1_555 1_555
H5 C5 1_555 1_555
C6 C1 1_555 1_555
C7 C6 1_555 1_555
C8 C7 1_555 1_555
H6 C8 1_555 1_555
H7 C8 1_555 1_555
C9 N1 1_555 1_555
H8 C9 1_555 1_555
C10 C9 1_555 1_555
C11 C10 1_555 1_555
H9 C11 1_555 1_555
C12 C11 1_555 1_555
H10 C12 1_555 1_555
C13 C12 1_555 1_555
H11 C13 1_555 1_555
C14 C13 1_555 1_555
H12 C14 1_555 1_555
C15 O4 1_555 1_555
C5 C6 1_555 1_555
C8 C9 1_555 1_555
C10 C15 1_555 1_555
C14 C15 1_555 1_555

#END
