
#######################################################################
#
#                 Cambridge Crystallographic Data Centre
#                                CCDC 
#
#######################################################################
#
# If this CIF has been generated from an entry in the Cambridge 
# Structural Database, then it will include bibliographic, chemical, 
# crystal, experimental, refinement or atomic coordinate data resulting 
# from the CCDC's data processing and validation procedures.
#
#######################################################################

data_KUVSUR
_chemical_formula_moiety         'C14 H16 O4'
_chemical_name_systematic        'methyl hydroxy(2-oxocyclopentyl)phenylacetate'
_symmetry_cell_setting           monoclinic
_symmetry_space_group_name_H-M   'P 21/c'
_symmetry_Int_Tables_number      14
_space_group_name_Hall           '-P 2ybc'
loop_
_symmetry_equiv_pos_site_id
_symmetry_equiv_pos_as_xyz
1 x,y,z
2 -x,1/2+y,1/2-z
3 -x,-y,-z
4 x,1/2-y,1/2+z
_cell_length_a                   5.814(1)
_cell_length_b                   13.696(2)
_cell_length_c                   16.114(2)
_cell_angle_alpha                90
_cell_angle_beta                 95.25(1)
_cell_angle_gamma                90
_cell_volume                     1277.75
_cell_formula_units_Z            4
loop_
_atom_site_label
_atom_site_type_symbol
_atom_site_fract_x
_atom_site_fract_y
_atom_site_fract_z
O1 O 0.6948(2) 0.48435(11) 0.15425(7)
H1 H 0.6867 0.4791 0.1034
O2 O 0.2688(2) 0.48519(11) 0.02028(8)
O3 O 0.2364(2) 0.31166(10) 0.15254(8)
O4 O 0.5856(3) 0.29793(11) 0.10616(9)
C1 C 0.2392(3) 0.53865(15) 0.07806(12)
C2 C 0.1566(4) 0.64223(15) 0.07262(13)
H2 H 0.0102 0.6467 0.0387
H3 H 0.2684 0.6835 0.0484
C3 C 0.1294(4) 0.67254(15) 0.16172(13)
H4 H -0.0257 0.6593 0.1764
H5 H 0.1625 0.7415 0.1699
C4 C 0.3067(4) 0.60962(13) 0.21308(12)
H6 H 0.4607 0.6367 0.2128
H7 H 0.2687 0.6039 0.2703
C5 C 0.2893(3) 0.51093(13) 0.16905(11)
H8 H 0.1532 0.4771 0.1865
C6 C 0.4969(3) 0.44205(14) 0.18439(11)
C7 C 0.5525(3) 0.42512(13) 0.27836(11)
C8 C 0.7578(4) 0.45618(14) 0.31816(12)
H9 H 0.8665 0.4861 0.2877
C9 C 0.8055(4) 0.44359(17) 0.40323(13)
H10 H 0.9452 0.4656 0.4293
C10 C 0.6501(5) 0.39938(17) 0.44923(14)
H11 H 0.6829 0.3908 0.5063
C11 C 0.4449(5) 0.36777(18) 0.40994(14)
H12 H 0.3376 0.3373 0.4407
C12 C 0.3954(4) 0.38054(16) 0.32519(13)
H13 H 0.2549 0.3589 0.2995
C13 C 0.4490(4) 0.34274(15) 0.14203(12)
C14 C 0.1711(4) 0.21717(15) 0.11963(13)
H14 H 0.1786 0.2171 0.0604
H15 H 0.0164 0.2025 0.1319
H16 H 0.2748 0.1687 0.1446
loop_
_geom_bond_atom_site_label_1
_geom_bond_atom_site_label_2
_geom_bond_site_symmetry_1
_geom_bond_site_symmetry_2
O1 H1 1_555 1_555
O2 C1 1_555 1_555
O3 C13 1_555 1_555
O4 C13 1_555 1_555
C1 C2 1_555 1_555
C2 H2 1_555 1_555
H3 C2 1_555 1_555
C3 C2 1_555 1_555
H4 C3 1_555 1_555
H5 C3 1_555 1_555
C4 C3 1_555 1_555
H6 C4 1_555 1_555
H7 C4 1_555 1_555
C5 C1 1_555 1_555
H8 C5 1_555 1_555
C6 O1 1_555 1_555
C7 C6 1_555 1_555
C8 C7 1_555 1_555
H9 C8 1_555 1_555
C9 C8 1_555 1_555
H10 C9 1_555 1_555
C10 C9 1_555 1_555
H11 C10 1_555 1_555
C11 C10 1_555 1_555
H12 C11 1_555 1_555
C12 C7 1_555 1_555
H13 C12 1_555 1_555
C13 C6 1_555 1_555
C14 O3 1_555 1_555
H14 C14 1_555 1_555
H15 C14 1_555 1_555
H16 C14 1_555 1_555
C4 C5 1_555 1_555
C5 C6 1_555 1_555
C11 C12 1_555 1_555

#END
