
#######################################################################
#
#                 Cambridge Crystallographic Data Centre
#                                CCDC 
#
#######################################################################
#
# If this CIF has been generated from an entry in the Cambridge 
# Structural Database, then it will include bibliographic, chemical, 
# crystal, experimental, refinement or atomic coordinate data resulting 
# from the CCDC's data processing and validation procedures.
#
#######################################################################

data_KUVTOM
_chemical_formula_moiety         'C25 H22 N2 O2 S1'
_chemical_name_systematic        
4-methyl-N-(1'-methyl-6,6a-dihydro-1aH-spiro[cyclopropa[a]indene-1,3'-indol]-2'(1'H)-ylidene)benzenesulfonamide
_symmetry_cell_setting           monoclinic
_symmetry_space_group_name_H-M   'P 21/c'
_symmetry_Int_Tables_number      14
_space_group_name_Hall           '-P 2ybc'
loop_
_symmetry_equiv_pos_site_id
_symmetry_equiv_pos_as_xyz
1 x,y,z
2 -x,1/2+y,1/2-z
3 -x,-y,-z
4 x,1/2-y,1/2+z
_cell_length_a                   11.4322(7)
_cell_length_b                   22.0069(12)
_cell_length_c                   8.2441(5)
_cell_angle_alpha                90
_cell_angle_beta                 98.244(7)
_cell_angle_gamma                90
_cell_volume                     2052.68
_exptl_crystal_colour            colorless
_exptl_crystal_description       platelet
_cell_formula_units_Z            4
loop_
_atom_site_label
_atom_site_type_symbol
_atom_site_fract_x
_atom_site_fract_y
_atom_site_fract_z
S1 S 0.66307(6) 0.05562(3) 0.36722(10)
O1 O 0.55222(17) 0.05733(9) 0.2610(3)
O2 O 0.70518(18) -0.00376(8) 0.4195(3)
N1 N 0.7642(2) 0.09348(10) 0.2994(3)
N2 N 0.7976(2) 0.04554(9) 0.0438(3)
C1 C 0.5433(3) 0.08802(15) 0.6112(5)
H1 H 0.4874 0.0602 0.5635
C2 C 0.5255(3) 0.11889(17) 0.7516(5)
H2 H 0.4571 0.1112 0.7972
C3 C 0.6054(3) 0.16051(14) 0.8264(4)
C4 C 0.7056(3) 0.17027(13) 0.7562(4)
H3 H 0.7613 0.1981 0.8043
C5 C 0.7262(2) 0.14001(12) 0.6163(4)
H4 H 0.7951 0.1475 0.5719
C6 C 0.6448(2) 0.09879(11) 0.5422(3)
C7 C 0.5838(3) 0.19352(17) 0.9790(4)
H5 H 0.5744 0.1646 1.0632
H6 H 0.5133 0.2176 0.9557
H7 H 0.6498 0.2195 1.0154
C8 C 0.8163(2) 0.08458(11) 0.1712(3)
C9 C 0.9193(2) 0.12362(10) 0.1463(3)
C10 C 0.9582(3) 0.10235(11) -0.0070(3)
C11 C 0.8827(3) 0.05465(11) -0.0620(3)
C12 C 0.8960(4) 0.02243(14) -0.2032(4)
H8 H 0.8450 -0.0091 -0.2405
C13 C 0.9876(5) 0.03888(18) -0.2858(4)
H9 H 0.9991 0.0174 -0.3793
C14 C 1.0624(4) 0.08585(17) -0.2345(4)
H10 H 1.1227 0.0961 -0.2940
C15 C 1.0483(3) 0.11824(13) -0.0936(3)
H11 H 1.0990 0.1502 -0.0583
C16 C 0.7041(3) -0.00025(14) 0.0092(4)
H12 H 0.7370 -0.0400 0.0330
H13 H 0.6706 0.0019 -0.1042
H14 H 0.6437 0.0073 0.0763
C17 C 0.9155(2) 0.18824(10) 0.2143(3)
H15 H 0.8459 0.2003 0.2634
C18 C 0.9991(2) 0.14346(10) 0.3050(3)
H16 H 0.9840 0.1277 0.4112
C19 C 1.1194(2) 0.16427(10) 0.2845(3)
C20 C 1.1128(2) 0.21829(11) 0.1967(3)
C21 C 0.9871(2) 0.23756(11) 0.1472(3)
H17 H 0.9683 0.2402 0.0289
H18 H 0.9724 0.2767 0.1944
C22 C 1.2146(3) 0.24653(14) 0.1636(3)
H19 H 1.2103 0.2830 0.1060
C23 C 1.3225(3) 0.22008(16) 0.2170(4)
H20 H 1.3915 0.2388 0.1951
C24 C 1.3288(3) 0.16615(16) 0.3027(4)
H21 H 1.4023 0.1487 0.3373
C25 C 1.2274(2) 0.13735(12) 0.3385(3)
H22 H 1.2319 0.1011 0.3969
loop_
_geom_bond_atom_site_label_1
_geom_bond_atom_site_label_2
_geom_bond_site_symmetry_1
_geom_bond_site_symmetry_2
S1 O1 1_555 1_555
O2 S1 1_555 1_555
N1 S1 1_555 1_555
N2 C8 1_555 1_555
C1 H1 1_555 1_555
C2 C1 1_555 1_555
H2 C2 1_555 1_555
C3 C2 1_555 1_555
C4 C3 1_555 1_555
H3 C4 1_555 1_555
C5 C4 1_555 1_555
H4 C5 1_555 1_555
C6 S1 1_555 1_555
C7 C3 1_555 1_555
H5 C7 1_555 1_555
H6 C7 1_555 1_555
H7 C7 1_555 1_555
C8 N1 1_555 1_555
C9 C8 1_555 1_555
C10 C9 1_555 1_555
C11 N2 1_555 1_555
C12 C11 1_555 1_555
H8 C12 1_555 1_555
C13 C12 1_555 1_555
H9 C13 1_555 1_555
C14 C13 1_555 1_555
H10 C14 1_555 1_555
C15 C10 1_555 1_555
H11 C15 1_555 1_555
C16 N2 1_555 1_555
H12 C16 1_555 1_555
H13 C16 1_555 1_555
H14 C16 1_555 1_555
C17 C9 1_555 1_555
H15 C17 1_555 1_555
C18 C9 1_555 1_555
H16 C18 1_555 1_555
C19 C18 1_555 1_555
C20 C19 1_555 1_555
C21 C17 1_555 1_555
H17 C21 1_555 1_555
H18 C21 1_555 1_555
C22 C20 1_555 1_555
H19 C22 1_555 1_555
C23 C22 1_555 1_555
H20 C23 1_555 1_555
C24 C23 1_555 1_555
H21 C24 1_555 1_555
C25 C19 1_555 1_555
H22 C25 1_555 1_555
C1 C6 1_555 1_555
C5 C6 1_555 1_555
C10 C11 1_555 1_555
C14 C15 1_555 1_555
C17 C18 1_555 1_555
C20 C21 1_555 1_555
C24 C25 1_555 1_555

#END
