
#######################################################################
#
#                 Cambridge Crystallographic Data Centre
#                                CCDC 
#
#######################################################################
#
# If this CIF has been generated from an entry in the Cambridge 
# Structural Database, then it will include bibliographic, chemical, 
# crystal, experimental, refinement or atomic coordinate data resulting 
# from the CCDC's data processing and validation procedures.
#
#######################################################################

data_KUVTUS
_chemical_formula_moiety         'C29 H25 N3 O2 S1'
_chemical_name_systematic        
N-(1,1',3-trimethyl-1H,1'H-2,3'-biindol-2'-yl)naphthalene-2-sulfonamide
_symmetry_cell_setting           monoclinic
_symmetry_space_group_name_H-M   'P 21/c'
_symmetry_Int_Tables_number      14
_space_group_name_Hall           '-P 2ybc'
loop_
_symmetry_equiv_pos_site_id
_symmetry_equiv_pos_as_xyz
1 x,y,z
2 -x,1/2+y,1/2-z
3 -x,-y,-z
4 x,1/2-y,1/2+z
_cell_length_a                   12.2997(5)
_cell_length_b                   13.4444(5)
_cell_length_c                   15.1233(7)
_cell_angle_alpha                90
_cell_angle_beta                 103.646(4)
_cell_angle_gamma                90
_cell_volume                     2430.23
_exptl_crystal_colour            yellow
_exptl_crystal_description       block
_cell_formula_units_Z            4
loop_
_atom_site_label
_atom_site_type_symbol
_atom_site_fract_x
_atom_site_fract_y
_atom_site_fract_z
S1 S 0.69468(5) 0.00551(5) 0.05206(4)
O1 O 0.62183(15) 0.05599(15) -0.02256(13)
O2 O 0.79465(14) -0.03920(15) 0.03979(12)
N1 N 0.61696(16) -0.07976(15) 0.08157(13)
H1 H 0.5455 -0.0738 0.0641
N2 N 0.67252(18) -0.25134(15) 0.09139(13)
N3 N 0.8000(5) -0.0537(4) 0.3469(4)
C1 C 0.9759(3) 0.2106(3) 0.2920(2)
H2 H 1.0341 0.1814 0.2718
C2 C 0.9987(4) 0.2780(3) 0.3610(3)
H3 H 1.0726 0.2943 0.3879
C3 C 0.9125(5) 0.3227(3) 0.3918(3)
H4 H 0.9294 0.3692 0.4386
C4 C 0.8046(4) 0.2995(2) 0.3545(2)
H5 H 0.7479 0.3294 0.3764
C5 C 0.7770(3) 0.22975(18) 0.28210(19)
C6 C 0.8642(2) 0.1851(2) 0.2511(2)
C7 C 0.8375(2) 0.1143(2) 0.18002(19)
H6 H 0.8944 0.0839 0.1588
C8 C 0.7289(2) 0.09044(18) 0.14264(17)
C9 C 0.6417(2) 0.1350(2) 0.1737(2)
H7 H 0.5677 0.1184 0.1474
C10 C 0.6657(3) 0.2023(2) 0.2420(2)
H8 H 0.6077 0.2310 0.2629
C11 C 0.66082(19) -0.16274(17) 0.13421(16)
C12 C 0.69773(19) -0.17161(17) 0.22623(15)
C13 C 0.7357(2) -0.27262(18) 0.24211(16)
C14 C 0.7183(2) -0.31938(19) 0.15721(17)
C15 C 0.7466(3) -0.4185(2) 0.1482(2)
H9 H 0.7350 -0.4487 0.0914
C16 C 0.7922(3) -0.4696(2) 0.2264(2)
H10 H 0.8117 -0.5360 0.2224
C17 C 0.8100(3) -0.4254(2) 0.3112(2)
H11 H 0.8408 -0.4627 0.3628
C18 C 0.7830(2) -0.3277(2) 0.32018(18)
H12 H 0.7959 -0.2984 0.3774
C19 C 0.6420(3) -0.2708(2) -0.00574(18)
H13 H 0.5759 -0.3113 -0.0201
H14 H 0.7022 -0.3050 -0.0232
H15 H 0.6278 -0.2090 -0.0382
C20 C 0.6980(2) -0.09454(17) 0.29435(15)
C21 C 0.6146(9) -0.0521(11) 0.3200(9)
C22 C 0.6508(2) 0.01879(17) 0.38685(16)
C23 C 0.7680(2) 0.01228(18) 0.40705(16)
C24 C 0.8343(3) 0.0725(2) 0.47283(19)
H16 H 0.9119 0.0684 0.4853
C25 C 0.7828(4) 0.1374(2) 0.5184(2)
H17 H 0.8261 0.1782 0.5626
C26 C 0.6679(4) 0.1440(2) 0.5005(2)
H18 H 0.6352 0.1889 0.5332
C27 C 0.6003(3) 0.0853(2) 0.4350(2)
H19 H 0.5228 0.0902 0.4234
C28 C 0.4887(2) -0.0640(2) 0.2721(2)
H20 H 0.4755 -0.0384 0.2113
H21 H 0.4441 -0.0278 0.3054
H22 H 0.4687 -0.1331 0.2701
C29 C 0.9098(2) -0.0836(3) 0.3432(2)
H23 H 0.9201 -0.1526 0.3592
H24 H 0.9638 -0.0444 0.3851
H25 H 0.9196 -0.0739 0.2826
N4? N 0.6003(13) -0.0442(15) 0.3100(12)
C30? C 0.7865(14) -0.0725(11) 0.3578(10)
H26? H 0.4745 -0.0589 0.2071
H27? H 0.4430 -0.0168 0.2944
H28? H 0.4711 -0.1300 0.2885
H29? H 0.9225 -0.1514 0.3285
H30? H 0.9630 -0.0649 0.3980
H31? H 0.9184 -0.0411 0.2942
loop_
_geom_bond_atom_site_label_1
_geom_bond_atom_site_label_2
_geom_bond_site_symmetry_1
_geom_bond_site_symmetry_2
S1 O1 1_555 1_555
O2 S1 1_555 1_555
N1 S1 1_555 1_555
H1 N1 1_555 1_555
N2 C11 1_555 1_555
N3 C20 1_555 1_555
C1 H2 1_555 1_555
C2 C1 1_555 1_555
H3 C2 1_555 1_555
C3 C2 1_555 1_555
H4 C3 1_555 1_555
C4 C3 1_555 1_555
H5 C4 1_555 1_555
C5 C4 1_555 1_555
C6 C1 1_555 1_555
C7 C6 1_555 1_555
H6 C7 1_555 1_555
C8 S1 1_555 1_555
C9 C8 1_555 1_555
H7 C9 1_555 1_555
C10 C5 1_555 1_555
H8 C10 1_555 1_555
C11 N1 1_555 1_555
C12 C11 1_555 1_555
C13 C12 1_555 1_555
C14 N2 1_555 1_555
C15 C14 1_555 1_555
H9 C15 1_555 1_555
C16 C15 1_555 1_555
H10 C16 1_555 1_555
C17 C16 1_555 1_555
H11 C17 1_555 1_555
C18 C13 1_555 1_555
H12 C18 1_555 1_555
C19 N2 1_555 1_555
H13 C19 1_555 1_555
H14 C19 1_555 1_555
H15 C19 1_555 1_555
C20 C12 1_555 1_555
C21 C20 1_555 1_555
C22 C21 1_555 1_555
C23 N3 1_555 1_555
C24 C23 1_555 1_555
H16 C24 1_555 1_555
C25 C24 1_555 1_555
H17 C25 1_555 1_555
C26 C25 1_555 1_555
H18 C26 1_555 1_555
C27 C22 1_555 1_555
H19 C27 1_555 1_555
C28 C21 1_555 1_555
H20 C28 1_555 1_555
H21 C28 1_555 1_555
H22 C28 1_555 1_555
C29 N3 1_555 1_555
H23 C29 1_555 1_555
H24 C29 1_555 1_555
H25 C29 1_555 1_555
C5 C6 1_555 1_555
C7 C8 1_555 1_555
C9 C10 1_555 1_555
C13 C14 1_555 1_555
C17 C18 1_555 1_555
C22 C23 1_555 1_555
C26 C27 1_555 1_555

#END
