
#######################################################################
#
#                 Cambridge Crystallographic Data Centre
#                                CCDC 
#
#######################################################################
#
# If this CIF has been generated from an entry in the Cambridge 
# Structural Database, then it will include bibliographic, chemical, 
# crystal, experimental, refinement or atomic coordinate data resulting 
# from the CCDC's data processing and validation procedures.
#
#######################################################################

data_KUVWIJ
_chemical_formula_moiety         'C16 H16 O5'
_chemical_name_systematic        
'dimethyl 13-oxatricyclo[8.2.1.0^2,7^]trideca-2,4,6,8-tetraene-12,12-dicarboxylate'
_symmetry_cell_setting           orthorhombic
_symmetry_space_group_name_H-M   'P n a 21'
_symmetry_Int_Tables_number      33
_space_group_name_Hall           'P 2c -2n'
loop_
_symmetry_equiv_pos_site_id
_symmetry_equiv_pos_as_xyz
1 x,y,z
2 -x,-y,1/2+z
3 1/2+x,1/2-y,z
4 1/2-x,1/2+y,1/2+z
_cell_length_a                   14.969(8)
_cell_length_b                   7.307(4)
_cell_length_c                   12.761(7)
_cell_angle_alpha                90
_cell_angle_beta                 90
_cell_angle_gamma                90
_cell_volume                     1395.78
_exptl_crystal_colour            colorless
_exptl_crystal_description       Prism
_cell_formula_units_Z            4
loop_
_atom_site_label
_atom_site_type_symbol
_atom_site_fract_x
_atom_site_fract_y
_atom_site_fract_z
O1 O 1.01207(6) 0.56398(13) 0.37755(9)
O2 O 0.73962(6) 0.49222(13) 0.32935(9)
O3 O 0.78460(6) 0.20194(12) 0.35501(8)
O4 O 0.97758(7) 0.14545(15) 0.22299(8)
O5 O 0.86407(6) 0.26479(14) 0.12940(8)
C1 C 0.95804(8) 0.40358(18) 0.38826(12)
H1 H 0.9981 0.2948 0.3811
C2 C 0.91460(9) 0.39363(17) 0.49422(11)
C3 C 0.91628(10) 0.22755(18) 0.54727(11)
H2 H 0.9473 0.1273 0.5169
C4 C 0.87400(10) 0.2033(2) 0.64327(12)
H3 H 0.8742 0.0870 0.6765
C5 C 0.83173(10) 0.3503(2) 0.68962(12)
H4 H 0.8030 0.3363 0.7555
C6 C 0.83150(9) 0.5183(2) 0.63965(12)
H5 H 0.8032 0.6192 0.6728
C7 C 0.87191(9) 0.54421(18) 0.54145(11)
C8 C 0.86244(9) 0.72749(19) 0.49313(12)
H6 H 0.8275 0.8120 0.5322
C9 C 0.89520(9) 0.79226(19) 0.40361(12)
H7 H 0.8764 0.9121 0.3849
C10 C 0.95765(9) 0.70129(18) 0.32862(12)
H8 H 0.9972 0.7960 0.2963
C11 C 0.90950(9) 0.59560(19) 0.24127(11)
H9 H 0.9472 0.5861 0.1778
H10 H 0.8522 0.6549 0.2226
C12 C 0.89380(9) 0.40542(18) 0.29126(11)
C13 C 0.79671(9) 0.37684(19) 0.32564(11)
C14 C 0.70079(10) 0.1630(2) 0.40748(12)
H11 H 0.6962 0.2377 0.4711
H12 H 0.6985 0.0331 0.4264
H13 H 0.6510 0.1920 0.3605
C15 C 0.91806(9) 0.25505(19) 0.21308(11)
C16 C 0.88176(11) 0.1329(2) 0.04715(13)
H14 H 0.9414 0.1548 0.0179
H15 H 0.8369 0.1459 -0.0083
H16 H 0.8790 0.0089 0.0762
loop_
_geom_bond_atom_site_label_1
_geom_bond_atom_site_label_2
_geom_bond_site_symmetry_1
_geom_bond_site_symmetry_2
O1 C1 1_555 1_555
O2 C13 1_555 1_555
O3 C13 1_555 1_555
O4 C15 1_555 1_555
O5 C15 1_555 1_555
C1 H1 1_555 1_555
C2 C1 1_555 1_555
C3 C2 1_555 1_555
H2 C3 1_555 1_555
C4 C3 1_555 1_555
H3 C4 1_555 1_555
C5 C4 1_555 1_555
H4 C5 1_555 1_555
C6 C5 1_555 1_555
H5 C6 1_555 1_555
C7 C2 1_555 1_555
C8 C7 1_555 1_555
H6 C8 1_555 1_555
C9 C8 1_555 1_555
H7 C9 1_555 1_555
C10 O1 1_555 1_555
H8 C10 1_555 1_555
C11 C10 1_555 1_555
H9 C11 1_555 1_555
H10 C11 1_555 1_555
C12 C1 1_555 1_555
C13 C12 1_555 1_555
C14 O3 1_555 1_555
H11 C14 1_555 1_555
H12 C14 1_555 1_555
H13 C14 1_555 1_555
C15 C12 1_555 1_555
C16 O5 1_555 1_555
H14 C16 1_555 1_555
H15 C16 1_555 1_555
H16 C16 1_555 1_555
C6 C7 1_555 1_555
C9 C10 1_555 1_555
C11 C12 1_555 1_555

#END
