
#######################################################################
#
#                 Cambridge Crystallographic Data Centre
#                                CCDC 
#
#######################################################################
#
# If this CIF has been generated from an entry in the Cambridge 
# Structural Database, then it will include bibliographic, chemical, 
# crystal, experimental, refinement or atomic coordinate data resulting 
# from the CCDC's data processing and validation procedures.
#
#######################################################################

data_KUWBEK
_chemical_name_common            
5-Chloro-N-(4,4,4-trifluoro-1-hydroxy-3-(trifluoromethyl)butan-2-yl)thiophene-2-sulfonamide
_chemical_formula_moiety         'C9 H8 Cl1 F6 N1 O3 S2'
_chemical_name_systematic        
'5-Chlorothiophene-2-sulfonic acid (1S)-(3,3,3-trifluoro-1-hydroxymethyl-2-trifluoromethylpropyl)amide'
_symmetry_cell_setting           orthorhombic
_symmetry_space_group_name_H-M   'P 21 21 21'
_symmetry_Int_Tables_number      19
_space_group_name_Hall           'P 2ac 2ab'
loop_
_symmetry_equiv_pos_site_id
_symmetry_equiv_pos_as_xyz
1 x,y,z
2 1/2-x,-y,1/2+z
3 -x,1/2+y,1/2-z
4 1/2+x,1/2-y,-z
_cell_length_a                   5.5163(1)
_cell_length_b                   12.8070(3)
_cell_length_c                   20.5122(4)
_cell_angle_alpha                90
_cell_angle_beta                 90
_cell_angle_gamma                90
_cell_volume                     1449.13
_exptl_crystal_colour            colorless
_exptl_crystal_description       needle
_cell_formula_units_Z            4
loop_
_atom_site_label
_atom_site_type_symbol
_atom_site_fract_x
_atom_site_fract_y
_atom_site_fract_z
S1 S -0.0490(3) 0.34784(12) 0.39704(9)
C1 C 0.1386(11) 0.2476(4) 0.3741(2)
C2 C 0.3429(26) 0.2467(11) 0.4106(6)
H1 H 0.4697 0.1977 0.4037
C3 C 0.3538(9) 0.3216(4) 0.4584(2)
H2 H 0.4839 0.3293 0.4883
C4 C 0.1557(11) 0.3827(4) 0.4570(2)
S2 S 0.0605(2) 0.17058(7) 0.30717(4)
O1 O 0.2245(4) 0.0842(2) 0.30990(13)
O2 O -0.1956(4) 0.1548(2) 0.30890(12)
N1 N 0.1157(5) 0.2349(2) 0.24131(14)
H3 H 0.0132(80) 0.2786(33) 0.2350(19)
C5 C 0.3641(6) 0.2551(3) 0.2197(2)
H4 H 0.4701 0.2050 0.2438
C6 C 0.3983(7) 0.2311(3) 0.1462(2)
H5 H 0.5525 0.2663 0.1329
C7 C 0.4372(9) 0.1160(3) 0.1351(2)
F1 F 0.4564(5) 0.0912(2) 0.07206(12)
F2 F 0.6413(5) 0.0836(2) 0.16387(13)
F3 F 0.2610(5) 0.0560(2) 0.15933(14)
C8 C 0.2026(8) 0.2737(4) 0.1015(2)
F4 F 0.2778(5) 0.2810(2) 0.04021(11)
F5 F 0.0010(4) 0.2147(3) 0.10047(12)
F6 F 0.1315(5) 0.3690(2) 0.12008(12)
C9 C 0.4497(7) 0.3647(3) 0.2385(2)
H6 H 0.3512 0.4181 0.2158
H7 H 0.4325 0.3752 0.2861
O3 O 0.6976(5) 0.3735(2) 0.2199(2)
H8 H 0.7260(84) 0.4336(23) 0.2145(24)
Cl1 Cl 0.0848(3) 0.48519(11) 0.50713(6)
C10? C 0.1017(57) 0.2651(17) 0.3672(9)
C11? C -0.0237(70) 0.3517(23) 0.3835(16)
C12? C 0.0676(48) 0.4046(24) 0.4361(14)
C13? C 0.2730(41) 0.3605(18) 0.4566(8)
Cl2? Cl 0.4268(18) 0.4124(6) 0.5210(3)
H9? H -0.1637 0.3741 0.3604
H10? H -0.0052 0.4644 0.4553
S3? S 0.3526(48) 0.2477(17) 0.4157(12)
loop_
_geom_bond_atom_site_label_1
_geom_bond_atom_site_label_2
_geom_bond_site_symmetry_1
_geom_bond_site_symmetry_2
S1 C1 1_555 1_555
C1 C2 1_555 1_555
C2 H1 1_555 1_555
C3 C2 1_555 1_555
H2 C3 1_555 1_555
C4 S1 1_555 1_555
S2 C1 1_555 1_555
O1 S2 1_555 1_555
O2 S2 1_555 1_555
N1 S2 1_555 1_555
H3 N1 1_555 1_555
C5 N1 1_555 1_555
H4 C5 1_555 1_555
C6 C5 1_555 1_555
H5 C6 1_555 1_555
C7 C6 1_555 1_555
F1 C7 1_555 1_555
F2 C7 1_555 1_555
F3 C7 1_555 1_555
C8 C6 1_555 1_555
F4 C8 1_555 1_555
F5 C8 1_555 1_555
F6 C8 1_555 1_555
C9 C5 1_555 1_555
H6 C9 1_555 1_555
H7 C9 1_555 1_555
O3 C9 1_555 1_555
H8 O3 1_555 1_555
Cl1 C4 1_555 1_555
C3 C4 1_555 1_555

#END
