
#######################################################################
#
#                 Cambridge Crystallographic Data Centre
#                                CCDC 
#
#######################################################################
#
# If this CIF has been generated from an entry in the Cambridge 
# Structural Database, then it will include bibliographic, chemical, 
# crystal, experimental, refinement or atomic coordinate data resulting 
# from the CCDC's data processing and validation procedures.
#
#######################################################################

data_KUWWIK
_chemical_name_common            
"N,N'-bis(n-butyl)-1,7-bis(trifluoromethyl)perylene-3,4:9,10-tetracarboxylic acid  diimide"
_chemical_formula_moiety         'C34 H24 F6 N2 O4'
_chemical_name_systematic        
2,9-dibutyl-5,12-bis(trifluoromethyl)isoquinolino[4',5',6':6,5,10]anthra[2,1,9-def]isoquinoline-1,3,8,10(2H,9H)-tetrone
_symmetry_cell_setting           triclinic
_symmetry_space_group_name_H-M   'P -1'
_symmetry_Int_Tables_number      2
_space_group_name_Hall           '-P 1'
loop_
_symmetry_equiv_pos_site_id
_symmetry_equiv_pos_as_xyz
1 x,y,z
2 -x,-y,-z
_cell_length_a                   8.2658(7)
_cell_length_b                   11.4034(10)
_cell_length_c                   15.0623(14)
_cell_angle_alpha                86.532(5)
_cell_angle_beta                 79.225(4)
_cell_angle_gamma                80.425(4)
_cell_volume                     1374.65
_exptl_crystal_colour            orange
_exptl_crystal_description       prism
_cell_formula_units_Z            2
_exptl_crystal_recrystallization_method dichloromethane
loop_
_atom_site_label
_atom_site_type_symbol
_atom_site_fract_x
_atom_site_fract_y
_atom_site_fract_z
N1 N 0.67760(14) 1.16440(10) 0.66409(8)
N2 N 1.07713(14) 0.43054(10) 0.16233(8)
C1 C 0.76035(15) 0.90309(11) 0.46351(8)
C2 C 0.79487(15) 1.09955(11) 0.50963(9)
C3 C 0.99515(15) 0.64488(11) 0.18761(9)
C4 C 0.93653(15) 0.62124(11) 0.27983(8)
C5 C 0.62909(16) 0.97429(11) 0.61433(9)
C6 C 0.72595(15) 0.99321(11) 0.52878(8)
C7 C 0.87579(15) 0.83692(11) 0.30542(8)
C8 C 0.86644(15) 0.71697(11) 0.33818(8)
C9 C 0.85082(15) 0.92681(11) 0.37527(8)
C10 C 0.95153(15) 0.50226(11) 0.31392(9)
C11 C 0.97903(15) 0.76048(11) 0.15390(9)
H1 H 1.0084 0.7754 0.0907
C12 C 0.89550(16) 1.11519(11) 0.42738(9)
H2 H 0.9473 1.1843 0.4156
C13 C 0.81569(16) 0.57289(11) 0.46065(9)
H3 H 0.7755 0.5551 0.5225
C14 C 1.03034(16) 0.40220(12) 0.25367(9)
C15 C 0.59809(15) 0.77963(11) 0.57062(9)
C16 C 1.07058(16) 0.54634(12) 0.12546(9)
C17 C 0.71054(15) 0.78909(11) 0.48875(9)
C18 C 0.60121(17) 1.06330(12) 0.68534(9)
C19 C 0.92180(15) 1.02997(11) 0.36110(9)
H4 H 0.9905 1.0431 0.3045
C20 C 0.76907(15) 1.18999(11) 0.57956(9)
C21 C 0.79378(15) 0.69042(11) 0.42971(9)
C22 C 0.89493(16) 0.47962(12) 0.40401(9)
H5 H 0.9097 0.4003 0.4279
C23 C 0.92000(15) 0.85646(11) 0.21146(9)
C24 C 0.56030(16) 0.87154(12) 0.63262(9)
H6 H 0.4861 0.8627 0.6881
C25 C 1.14100(17) 0.33162(12) 0.09942(10)
H7 H 1.1075 0.3551 0.0403
H8 H 1.0891 0.2613 0.1235
O1 O 1.12449(13) 0.56477(9) 0.04597(6)
O2 O 0.82850(12) 1.28198(8) 0.56539(7)
O3 O 1.05307(14) 0.29931(9) 0.28218(7)
O4 O 0.51914(14) 1.04943(10) 0.76033(7)
C26 C 0.50479(16) 1.33539(12) 0.75409(9)
H9 H 0.4100 1.2925 0.7774
H10 H 0.4854 1.3768 0.6964
C27 C 0.51513(17) 1.42619(12) 0.82237(9)
H11 H 0.5452 1.3836 0.8777
H12 H 0.6048 1.4728 0.7966
C28 C 0.66643(16) 1.24697(12) 0.73767(9)
H13 H 0.7613 1.2918 0.7231
H14 H 0.6776 1.1998 0.7942
C29 C 1.32901(18) 0.29765(13) 0.08539(10)
H15 H 1.3627 0.2697 0.1437
H16 H 1.3817 0.3685 0.0639
C30 C 0.35209(18) 1.51110(14) 0.84781(11)
H17 H 0.3193 1.5513 0.7931
H18 H 0.3671 1.5704 0.8888
H19 H 0.2649 1.4662 0.8780
C31 C 1.3901(2) 0.19996(13) 0.01675(11)
H20 H 1.3303 0.1318 0.0362
H21 H 1.3628 0.2303 -0.0425
C32 C 1.5763(2) 0.15714(18) 0.00587(13)
H22 H 1.6360 0.2252 -0.0088
H23 H 1.6109 0.1004 -0.0431
H24 H 1.6024 0.1181 0.0624
C33 C 0.91078(17) 0.97705(12) 0.16253(9)
C34 C 0.50750(16) 0.67519(12) 0.59916(9)
F1 F 1.05730(10) 1.01885(7) 0.15066(6)
F2 F 0.79334(10) 1.06155(7) 0.20336(5)
F3 F 0.47257(10) 0.62218(7) 0.52999(6)
F4 F 0.59216(11) 0.59068(7) 0.64737(6)
F5 F 0.36056(10) 0.70968(7) 0.65365(6)
F6 F 0.87789(12) 0.96900(7) 0.07950(5)
loop_
_geom_bond_atom_site_label_1
_geom_bond_atom_site_label_2
_geom_bond_site_symmetry_1
_geom_bond_site_symmetry_2
N1 C18 1_555 1_555
N2 C14 1_555 1_555
C1 C6 1_555 1_555
C2 C6 1_555 1_555
C3 C4 1_555 1_555
C4 C8 1_555 1_555
C5 C6 1_555 1_555
C7 C8 1_555 1_555
C8 C21 1_555 1_555
C9 C1 1_555 1_555
C10 C4 1_555 1_555
C11 C3 1_555 1_555
H1 C11 1_555 1_555
C12 C2 1_555 1_555
H2 C12 1_555 1_555
C13 H3 1_555 1_555
C14 C10 1_555 1_555
C15 C17 1_555 1_555
C16 N2 1_555 1_555
C17 C1 1_555 1_555
C18 C5 1_555 1_555
C19 C9 1_555 1_555
H4 C19 1_555 1_555
C20 N1 1_555 1_555
C21 C13 1_555 1_555
C22 C10 1_555 1_555
H5 C22 1_555 1_555
C23 C7 1_555 1_555
C24 C5 1_555 1_555
H6 C24 1_555 1_555
C25 N2 1_555 1_555
H7 C25 1_555 1_555
H8 C25 1_555 1_555
O1 C16 1_555 1_555
O2 C20 1_555 1_555
O3 C14 1_555 1_555
O4 C18 1_555 1_555
C26 H9 1_555 1_555
H10 C26 1_555 1_555
C27 C26 1_555 1_555
H11 C27 1_555 1_555
H12 C27 1_555 1_555
C28 N1 1_555 1_555
H13 C28 1_555 1_555
H14 C28 1_555 1_555
C29 C25 1_555 1_555
H15 C29 1_555 1_555
H16 C29 1_555 1_555
C30 C27 1_555 1_555
H17 C30 1_555 1_555
H18 C30 1_555 1_555
H19 C30 1_555 1_555
C31 C29 1_555 1_555
H20 C31 1_555 1_555
H21 C31 1_555 1_555
C32 C31 1_555 1_555
H22 C32 1_555 1_555
H23 C32 1_555 1_555
H24 C32 1_555 1_555
C33 C23 1_555 1_555
C34 C15 1_555 1_555
F1 C33 1_555 1_555
F2 C33 1_555 1_555
F3 C34 1_555 1_555
F4 C34 1_555 1_555
F5 C34 1_555 1_555
F6 C33 1_555 1_555
C2 C20 1_555 1_555
C3 C16 1_555 1_555
C7 C9 1_555 1_555
C11 C23 1_555 1_555
C12 C19 1_555 1_555
C13 C22 1_555 1_555
C15 C24 1_555 1_555
C17 C21 1_555 1_555
C26 C28 1_555 1_555

#END
