
#######################################################################
#
#                 Cambridge Crystallographic Data Centre
#                                CCDC 
#
#######################################################################
#
# If this CIF has been generated from an entry in the Cambridge 
# Structural Database, then it will include bibliographic, chemical, 
# crystal, experimental, refinement or atomic coordinate data resulting 
# from the CCDC's data processing and validation procedures.
#
#######################################################################

data_KUWWUW
_chemical_name_common            
"N,N'-bis(n-butyl)-1,5,7-tris(trifluoromethyl)perylene-3,4:9,10-tetracarboxylic acid diimide toluene solvate"
_chemical_formula_moiety         'C35 H23 F9 N2 O4,C7 H8'
_chemical_name_systematic        
"2,9-dibutyl-4,6,13-tris(trifluoromethyl)isoquinolino[4',5',6':6,5,10]anthra[2,1,9-def]isoquinoline-1,3,8,10(2H,9H)-tetrone toluene solvate"
_symmetry_cell_setting           monoclinic
_symmetry_space_group_name_H-M   'P 21/n'
_symmetry_Int_Tables_number      14
_space_group_name_Hall           '-P 2yn'
loop_
_symmetry_equiv_pos_site_id
_symmetry_equiv_pos_as_xyz
1 x,y,z
2 1/2-x,1/2+y,1/2-z
3 -x,-y,-z
4 1/2+x,1/2-y,1/2+z
_cell_length_a                   12.4462(6)
_cell_length_b                   16.2113(8)
_cell_length_c                   17.4281(8)
_cell_angle_alpha                90
_cell_angle_beta                 97.664(3)
_cell_angle_gamma                90
_cell_volume                     3485.04
_exptl_crystal_colour            red
_exptl_crystal_description       rod
_cell_formula_units_Z            4
_exptl_crystal_recrystallization_method toluene
loop_
_atom_site_label
_atom_site_type_symbol
_atom_site_fract_x
_atom_site_fract_y
_atom_site_fract_z
F1 F 0.37412(11) 0.69750(8) 0.57086(9)
F2 F 0.47484(12) 0.63716(9) 0.49591(9)
F3 F 0.54296(11) 0.67882(9) 0.60934(9)
F4 F 0.19061(13) 0.21155(10) 0.77503(10)
F5 F 0.32683(12) 0.22902(10) 0.86192(8)
F6 F 0.34643(14) 0.16859(9) 0.75367(10)
F7 F -0.00780(12) 0.36722(10) 0.77471(10)
F8 F 0.11625(12) 0.44888(10) 0.83050(8)
F9 F -0.05049(13) 0.48571(11) 0.81664(9)
O1 O 0.71060(14) 0.41617(12) 0.67522(11)
O2 O 0.52500(15) 0.24401(12) 0.81394(11)
O3 O -0.06893(14) 0.70936(11) 0.40542(10)
O4 O -0.24469(14) 0.61021(11) 0.59854(11)
N1 N 0.61473(16) 0.32350(13) 0.73680(12)
N2 N -0.15812(15) 0.65780(12) 0.50070(11)
C1 C 0.43460(18) 0.56020(14) 0.60534(13)
C2 C 0.52911(19) 0.51633(15) 0.63391(13)
H1 H 0.5980 0.5376 0.6262
C3 C 0.52311(19) 0.44322(15) 0.67269(14)
C4 C 0.41724(19) 0.34179(15) 0.73612(13)
C5 C 0.3159(2) 0.31350(15) 0.74949(13)
C6 C 0.22343(19) 0.36102(14) 0.72706(13)
H2 H 0.1554 0.3412 0.7383
C7 C 0.03438(19) 0.48669(14) 0.70376(13)
C8 C -0.05934(19) 0.52802(14) 0.67037(14)
H3 H -0.1230 0.5258 0.6949
C9 C -0.06037(18) 0.57157(14) 0.60276(13)
C10 C 0.03360(18) 0.62414(13) 0.49838(13)
C11 C 0.12518(19) 0.62706(14) 0.46200(14)
H4 H 0.1225 0.6524 0.4126
C12 C 0.22239(19) 0.59258(14) 0.49778(13)
H5 H 0.2850 0.5948 0.4721
C13 C 0.22923(18) 0.55523(13) 0.56992(13)
C14 C 0.33203(18) 0.52790(14) 0.61273(13)
C15 C 0.32701(18) 0.45996(14) 0.66457(13)
C16 C 0.22684(18) 0.43586(14) 0.68912(13)
C17 C 0.12916(18) 0.48769(13) 0.66805(13)
C18 C 0.13117(18) 0.54006(13) 0.60261(13)
C19 C 0.03448(18) 0.57884(13) 0.56763(13)
C20 C 0.42251(18) 0.41477(14) 0.69197(13)
C21 C 0.6238(2) 0.39508(16) 0.69448(14)
C22 C 0.5209(2) 0.29888(16) 0.76651(14)
C23 C -0.16138(18) 0.61335(14) 0.56896(14)
C24 C -0.06620(19) 0.66766(14) 0.46345(14)
C25 C -0.25834(19) 0.70128(15) 0.46767(15)
H6 H -0.3220 0.6685 0.4778
H7 H -0.2600 0.7058 0.4109
C26 C -0.2661(2) 0.78700(16) 0.50160(15)
H8 H -0.2003 0.8187 0.4944
H9 H -0.2692 0.7824 0.5579
C27 C -0.3657(2) 0.83328(18) 0.46386(17)
H10 H -0.4315 0.8012 0.4704
H11 H -0.3621 0.8388 0.4077
C28 C -0.3741(3) 0.9189(2) 0.4991(2)
H12 H -0.4389 0.9468 0.4734
H13 H -0.3790 0.9136 0.5545
H14 H -0.3096 0.9512 0.4918
C29 C 0.7122(2) 0.27064(18) 0.75551(16)
H15 H 0.7203 0.2548 0.8108
H16 H 0.7777 0.3017 0.7462
C30 C 0.7006(3) 0.1907(3) 0.7034(3)
H17 H 0.7608 0.1526 0.7215
H18 H 0.6319 0.1626 0.7103
C31 C 0.7014(4) 0.2072(3) 0.6195(3)
H19 H 0.7733 0.2291 0.6117
H20 H 0.6467 0.2501 0.6026
C32 C 0.6776(3) 0.1321(2) 0.5703(2)
H21 H 0.6783 0.1466 0.5158
H22 H 0.6061 0.1104 0.5773
H23 H 0.7329 0.0900 0.5855
C33 C 0.45520(19) 0.64334(15) 0.57009(15)
C34 C 0.2965(2) 0.23062(16) 0.78553(15)
C35 C 0.0242(2) 0.44670(17) 0.78083(15)
C38 C 0.5393(3) 0.6371(2) 0.0333(2)
H33 H 0.5013 0.6830 0.0546
H34 H 0.5033 0.6237 -0.0187
H35 H 0.6146 0.6530 0.0304
C39 C 0.5373(3) 0.5636(2) 0.08447(18)
C40 C 0.6275(3) 0.5155(2) 0.10537(19)
H36 H 0.6938 0.5309 0.0879
C41 C 0.6258(3) 0.4462(3) 0.1503(2)
H37 H 0.6899 0.4145 0.1630
C42 C 0.5305(4) 0.4223(2) 0.1772(2)
H38 H 0.5286 0.3742 0.2081
C43 C 0.4376(3) 0.4702(2) 0.1582(2)
H39 H 0.3720 0.4552 0.1767
C44 C 0.4412(3) 0.5394(2) 0.11232(19)
H40 H 0.3773 0.5713 0.0994
H24? H 0.7730 0.3048 0.7804
H25? H 0.6970 0.2277 0.7930
C36? C 0.7432(12) 0.2323(9) 0.6890(7)
H26? H 0.8152 0.2063 0.7026
H27? H 0.7496 0.2746 0.6490
C37? C 0.6632(13) 0.1679(10) 0.6566(8)
H28? H 0.5894 0.1914 0.6543
H29? H 0.6680 0.1209 0.6932
H30? H 0.6317 0.0833 0.5592
H31? H 0.7536 0.1170 0.5689
H32? H 0.6561 0.1746 0.5313
loop_
_geom_bond_atom_site_label_1
_geom_bond_atom_site_label_2
_geom_bond_site_symmetry_1
_geom_bond_site_symmetry_2
F1 C33 1_555 1_555
F2 C33 1_555 1_555
F3 C33 1_555 1_555
F4 C34 1_555 1_555
F5 C34 1_555 1_555
F6 C34 1_555 1_555
F7 C35 1_555 1_555
F8 C35 1_555 1_555
F9 C35 1_555 1_555
O1 C21 1_555 1_555
O2 C22 1_555 1_555
O3 C24 1_555 1_555
O4 C23 1_555 1_555
N1 C21 1_555 1_555
N2 C23 1_555 1_555
C1 C2 1_555 1_555
C2 H1 1_555 1_555
C3 C2 1_555 1_555
C4 C5 1_555 1_555
C5 C6 1_555 1_555
C6 H2 1_555 1_555
C7 C8 1_555 1_555
C8 H3 1_555 1_555
C9 C8 1_555 1_555
C10 C11 1_555 1_555
C11 H4 1_555 1_555
C12 C11 1_555 1_555
H5 C12 1_555 1_555
C13 C12 1_555 1_555
C14 C1 1_555 1_555
C15 C14 1_555 1_555
C16 C6 1_555 1_555
C17 C7 1_555 1_555
C18 C13 1_555 1_555
C19 C9 1_555 1_555
C20 C3 1_555 1_555
C21 C3 1_555 1_555
C22 N1 1_555 1_555
C23 C9 1_555 1_555
C24 N2 1_555 1_555
C25 N2 1_555 1_555
H6 C25 1_555 1_555
H7 C25 1_555 1_555
C26 C25 1_555 1_555
H8 C26 1_555 1_555
H9 C26 1_555 1_555
C27 C26 1_555 1_555
H10 C27 1_555 1_555
H11 C27 1_555 1_555
C28 C27 1_555 1_555
H12 C28 1_555 1_555
H13 C28 1_555 1_555
H14 C28 1_555 1_555
C29 N1 1_555 1_555
H15 C29 1_555 1_555
H16 C29 1_555 1_555
C30 C29 1_555 1_555
H17 C30 1_555 1_555
H18 C30 1_555 1_555
C31 C30 1_555 1_555
H19 C31 1_555 1_555
H20 C31 1_555 1_555
C32 C31 1_555 1_555
H21 C32 1_555 1_555
H22 C32 1_555 1_555
H23 C32 1_555 1_555
C33 C1 1_555 1_555
C34 C5 1_555 1_555
C35 C7 1_555 1_555
C38 H33 1_555 1_555
H34 C38 1_555 1_555
H35 C38 1_555 1_555
C39 C38 1_555 1_555
C40 C39 1_555 1_555
H36 C40 1_555 1_555
C41 C40 1_555 1_555
H37 C41 1_555 1_555
C42 C41 1_555 1_555
H38 C42 1_555 1_555
C43 C42 1_555 1_555
H39 C43 1_555 1_555
C44 C39 1_555 1_555
H40 C44 1_555 1_555
C4 C20 1_555 1_555
C4 C22 1_555 1_555
C10 C19 1_555 1_555
C10 C24 1_555 1_555
C13 C14 1_555 1_555
C15 C16 1_555 1_555
C15 C20 1_555 1_555
C16 C17 1_555 1_555
C17 C18 1_555 1_555
C18 C19 1_555 1_555
C43 C44 1_555 1_555

#END
