
#######################################################################
#
#                 Cambridge Crystallographic Data Centre
#                                CCDC 
#
#######################################################################
#
# If this CIF has been generated from an entry in the Cambridge 
# Structural Database, then it will include bibliographic, chemical, 
# crystal, experimental, refinement or atomic coordinate data resulting 
# from the CCDC's data processing and validation procedures.
#
#######################################################################

data_KUWXAD
_chemical_name_common            
"N,N'-bis(n-butyl)-1,5,7,11-tetrakis(trifluoromethyl)perylene-3,4:9,10- tetracarboxylic acid diimide"
_chemical_formula_moiety         'C36 H22 F12 N2 O4'
_chemical_name_systematic        
2,9-dibutyl-4,6,11,13-tetrakis(trifluoromethyl)isoquinolino[4',5',6':6,5,10]anthra[2,1,9-def]isoquinoline-1,3,8,10(2H,9H)-tetrone
_symmetry_cell_setting           triclinic
_symmetry_space_group_name_H-M   'P -1'
_symmetry_Int_Tables_number      2
_space_group_name_Hall           '-P 1'
loop_
_symmetry_equiv_pos_site_id
_symmetry_equiv_pos_as_xyz
1 x,y,z
2 -x,-y,-z
_cell_length_a                   9.9448(4)
_cell_length_b                   12.4938(5)
_cell_length_c                   14.4595(5)
_cell_angle_alpha                74.8900(10)
_cell_angle_beta                 69.9490(10)
_cell_angle_gamma                72.7920(10)
_cell_volume                     1586.54
_exptl_crystal_description       rhombohedral
_cell_formula_units_Z            2
_exptl_crystal_recrystallization_method dichloromethane
loop_
_atom_site_label
_atom_site_type_symbol
_atom_site_fract_x
_atom_site_fract_y
_atom_site_fract_z
F1 F 0.68074(17) 0.48057(13) 0.42988(11)
F2 F 0.88221(16) 0.49459(13) 0.44468(12)
F3 F 0.72982(17) 0.64449(13) 0.39419(11)
F4 F 0.23315(18) 1.12669(14) 0.72316(12)
F5 F 1.18652(17) 0.78866(15) 0.38249(14)
F6 F 0.20998(17) 0.95387(14) 0.76522(12)
F7 F 0.3059(2) 1.01916(15) 0.84659(12)
F8 F 1.09106(18) 0.68282(14) 0.34075(13)
F9 F 1.07347(18) 0.85734(15) 0.26841(13)
O1 O 0.6231(2) 1.25566(16) 0.48145(15)
F10 F 0.2871(3) 0.78102(18) 1.02847(13)
O2 O 1.0601(2) 1.01467(18) 0.36766(17)
O3 O 0.4750(2) 0.28486(17) 0.74630(15)
F11 F 0.1343(3) 0.6909(2) 1.03351(15)
F12 F 0.3304(3) 0.6001(2) 1.07482(14)
N1 N 0.8416(3) 1.1361(2) 0.42051(18)
N2 N 0.3437(3) 0.3847(2) 0.87150(19)
C1 C 0.6396(3) 0.6542(2) 0.60713(18)
C2 C 0.7187(3) 0.7460(2) 0.55982(18)
C3 C 0.6418(3) 1.0587(2) 0.54576(19)
C4 C 0.5089(3) 1.0769(2) 0.61849(19)
H1 H 0.4563 1.1526 0.6259
C5 C 0.4501(3) 0.9857(2) 0.68161(18)
C6 C 0.6533(3) 0.8553(2) 0.58756(18)
C7 C 0.8571(3) 0.9294(2) 0.4566(2)
O4 O 0.2188(4) 0.4806(3) 0.99867(19)
C8 C 0.8545(3) 0.7309(2) 0.48894(19)
H2 H 0.9023 0.6564 0.4751
C9 C 0.4874(3) 0.7686(2) 0.73974(19)
C10 C 0.7183(3) 0.9476(2) 0.52991(19)
C11 C 0.5248(3) 0.8726(2) 0.67121(18)
C12 C 0.5947(3) 0.4678(2) 0.62563(19)
H3 H 0.6105 0.4028 0.5975
C13 C 0.6590(3) 0.5584(2) 0.56706(19)
C14 C 0.7372(3) 0.5463(2) 0.45926(19)
C15 C 0.5357(3) 0.6641(2) 0.70328(19)
C16 C 0.3004(3) 1.0201(2) 0.75427(19)
C17 C 0.9250(3) 0.8194(2) 0.4367(2)
C18 C 0.4453(3) 0.3714(3) 0.7789(2)
C19 C 0.4090(3) 0.7670(2) 0.8399(2)
H4 H 0.3885 0.8332 0.8675
C20 C 0.5100(3) 0.4708(2) 0.7220(2)
C21 C 1.0704(3) 0.7886(2) 0.3566(2)
C22 C 0.9296(3) 1.0273(2) 0.4105(2)
C23 C 0.6971(3) 1.1591(2) 0.4814(2)
C24 C 0.4761(3) 0.5700(2) 0.7632(2)
C25 C 0.9091(4) 1.2711(3) 0.2628(2)
H5 H 0.8070 1.2862 0.2599
H6 H 0.9696 1.2093 0.2248
C26 C 0.9114(3) 1.2337(2) 0.3700(2)
H7 H 1.0145 1.2119 0.3723
H8 H 0.8591 1.2981 0.4063
C27 C 0.2661(4) 0.1143(3) 1.0603(2)
H9 H 0.2711 0.0663 1.0139
H10 H 0.1612 0.1475 1.0911
C28 C 0.3589(4) 0.6714(3) 0.9019(2)
C29 C 0.3823(4) 0.5747(3) 0.8620(2)
C30 C 0.9690(4) 1.3794(3) 0.2144(2)
H11 H 0.9821 1.3930 0.1416
H12 H 0.8940 1.4447 0.2412
C31 C 0.2682(4) 0.2904(3) 0.9284(2)
H13 H 0.2646 0.2476 0.8808
H14 H 0.1657 0.3231 0.9649
C32 C 0.3351(4) 0.0396(3) 1.1428(2)
H15 H 0.4406 0.0114 1.1133
H16 H 0.2885 -0.0251 1.1745
H17 H 0.3200 0.0848 1.1931
C33 C 0.3445(4) 0.2101(3) 1.0015(2)
H18 H 0.3489 0.2530 1.0488
H19 H 0.4466 0.1769 0.9650
C34 C 0.3087(4) 0.4780(3) 0.9171(2)
C35 C 1.1108(5) 1.3774(4) 0.2296(3)
H20 H 1.1408 1.4488 0.1943
H21 H 1.1866 1.3133 0.2031
H22 H 1.0982 1.3688 0.3012
C36 C 0.2769(4) 0.6843(3) 1.0106(2)
loop_
_geom_bond_atom_site_label_1
_geom_bond_atom_site_label_2
_geom_bond_site_symmetry_1
_geom_bond_site_symmetry_2
F1 C14 1_555 1_555
F2 C14 1_555 1_555
F3 C14 1_555 1_555
F4 C16 1_555 1_555
F5 C21 1_555 1_555
F6 C16 1_555 1_555
F7 C16 1_555 1_555
F8 C21 1_555 1_555
F9 C21 1_555 1_555
O1 C23 1_555 1_555
F10 C36 1_555 1_555
O2 C22 1_555 1_555
O3 C18 1_555 1_555
F11 C36 1_555 1_555
F12 C36 1_555 1_555
N1 C22 1_555 1_555
N2 C18 1_555 1_555
C1 C2 1_555 1_555
C2 C6 1_555 1_555
C3 C4 1_555 1_555
C4 H1 1_555 1_555
C5 C4 1_555 1_555
C6 C10 1_555 1_555
C7 C10 1_555 1_555
O4 C34 1_555 1_555
C8 C2 1_555 1_555
H2 C8 1_555 1_555
C9 C11 1_555 1_555
C10 C3 1_555 1_555
C11 C5 1_555 1_555
C12 H3 1_555 1_555
C13 C1 1_555 1_555
C14 C13 1_555 1_555
C15 C1 1_555 1_555
C16 C5 1_555 1_555
C17 C7 1_555 1_555
C18 C20 1_555 1_555
C19 C9 1_555 1_555
H4 C19 1_555 1_555
C20 C12 1_555 1_555
C21 C17 1_555 1_555
C22 C7 1_555 1_555
C23 N1 1_555 1_555
C24 C15 1_555 1_555
C25 H5 1_555 1_555
H6 C25 1_555 1_555
C26 N1 1_555 1_555
H7 C26 1_555 1_555
H8 C26 1_555 1_555
C27 H9 1_555 1_555
H10 C27 1_555 1_555
C28 C19 1_555 1_555
C29 C24 1_555 1_555
C30 C25 1_555 1_555
H11 C30 1_555 1_555
H12 C30 1_555 1_555
C31 N2 1_555 1_555
H13 C31 1_555 1_555
H14 C31 1_555 1_555
C32 C27 1_555 1_555
H15 C32 1_555 1_555
H16 C32 1_555 1_555
H17 C32 1_555 1_555
C33 C27 1_555 1_555
H18 C33 1_555 1_555
H19 C33 1_555 1_555
C34 N2 1_555 1_555
C35 C30 1_555 1_555
H20 C35 1_555 1_555
H21 C35 1_555 1_555
H22 C35 1_555 1_555
C36 C28 1_555 1_555
C3 C23 1_555 1_555
C6 C11 1_555 1_555
C8 C17 1_555 1_555
C9 C15 1_555 1_555
C12 C13 1_555 1_555
C20 C24 1_555 1_555
C25 C26 1_555 1_555
C28 C29 1_555 1_555
C29 C34 1_555 1_555
C31 C33 1_555 1_555

#END
