
#######################################################################
#
#                 Cambridge Crystallographic Data Centre
#                                CCDC 
#
#######################################################################
#
# If this CIF has been generated from an entry in the Cambridge 
# Structural Database, then it will include bibliographic, chemical, 
# crystal, experimental, refinement or atomic coordinate data resulting 
# from the CCDC's data processing and validation procedures.
#
#######################################################################

data_KUWXIL
_chemical_name_common            
"N,N'-bis(heptafluorobutyl)-1,6-bis(trifluoromethyl)perylene-3,4:9,10- tetracarboxylic acid diimide toluene solvate"
_chemical_formula_moiety         'C34 H10 F20 N2 O4,2(C7 H8)'
_chemical_name_systematic        
"2,9-bis(2,2,3,3,4,4,4-heptafluorobutyl)-5,13-bis(trifluoromethyl)isoquinolino[4',5',6':6,5,10]anthra[2,1,9-def]isoquinoline-1,3,8,10(2H,9H)-tetrone toluene solvate"
_symmetry_cell_setting           triclinic
_symmetry_space_group_name_H-M   'P -1'
_symmetry_Int_Tables_number      2
_space_group_name_Hall           '-P 1'
loop_
_symmetry_equiv_pos_site_id
_symmetry_equiv_pos_as_xyz
1 x,y,z
2 -x,-y,-z
_cell_length_a                   7.2312(4)
_cell_length_b                   11.8115(7)
_cell_length_c                   26.0726(15)
_cell_angle_alpha                79.7710(12)
_cell_angle_beta                 86.8404(13)
_cell_angle_gamma                80.7836(12)
_cell_volume                     2162.39
_exptl_crystal_colour            orange
_exptl_crystal_description       plate
_cell_formula_units_Z            2
_exptl_crystal_recrystallization_method toluene
loop_
_atom_site_label
_atom_site_type_symbol
_atom_site_fract_x
_atom_site_fract_y
_atom_site_fract_z
F1 F 0.0855(6) 1.1196(3) 0.16600(14)
F2 F 0.3515(6) 1.0651(3) 0.13060(13)
F3 F 0.1422(6) 0.9514(3) 0.14314(14)
F4 F 0.6903(7) 0.4837(3) 0.34894(15)
F5 F 0.4632(7) 0.4703(3) 0.40607(15)
F6 F 0.7039(7) 0.5434(3) 0.42119(16)
F7 F 0.1454(7) 1.0777(3) 0.50209(14)
F8 F 0.0049(6) 1.1425(4) 0.42871(15)
F9 F 0.0754(7) 1.3593(3) 0.42949(15)
F10 F 0.2351(7) 1.2991(4) 0.50029(16)
F11 F -0.1133(8) 1.4074(4) 0.51703(18)
F12 F -0.0785(8) 1.2263(4) 0.55118(17)
F13 F -0.2353(7) 1.2882(4) 0.48120(18)
F14 F 0.7055(7) 0.1718(4) 0.12130(16)
F15 F 0.8280(8) 0.3133(4) 0.0739(2)
F16 F 0.735(3) 0.2774(17) -0.0110(8)
F17 F 0.928(2) 0.1424(11) 0.0321(6)
F18 F 0.665(2) 0.0060(8) 0.0578(4)
F19 F 0.512(3) 0.1436(17) 0.0290(7)
F20 F 0.6814(18) 0.0709(8) -0.0247(3)
O1 O 0.4510(8) 0.9124(4) 0.45860(16)
O2 O 0.2316(7) 1.2046(3) 0.32830(16)
O3 O 0.5938(7) 0.5495(4) 0.05008(16)
O4 O 0.3919(8) 0.2796(4) 0.17909(17)
N1 N 0.3418(8) 1.0590(4) 0.39327(18)
N2 N 0.4953(8) 0.4133(4) 0.11491(19)
C1 C 0.4963(10) 0.6610(5) 0.3605(2)
C2 C 0.1465(10) 1.1578(5) 0.4579(2)
C3 C 0.3318(10) 1.1431(5) 0.4287(2)
H1 H 0.3527 1.2194 0.4084
H2 H 0.4334 1.1170 0.4541
C4 C 0.4853(10) 0.7441(5) 0.3935(2)
H3 H 0.5242 0.7197 0.4285
C5 C 0.4200(9) 0.8589(5) 0.3765(2)
C6 C 0.3100(9) 1.0163(5) 0.3057(2)
C7 C 0.2627(10) 1.0533(5) 0.2549(2)
H4 H 0.2095 1.1323 0.2438
C8 C 0.2916(9) 0.9764(5) 0.2185(2)
C9 C 0.4979(10) 0.8063(5) 0.1473(2)
H5 H 0.5124 0.8848 0.1342
C10 C 0.5404(10) 0.7230(5) 0.1144(2)
H6 H 0.5885 0.7448 0.0801
C11 C 0.5126(9) 0.6107(5) 0.1317(2)
C12 C 0.4226(10) 0.4605(5) 0.2025(2)
C13 C 0.3703(10) 0.4269(5) 0.2541(2)
H7 H 0.3354 0.3521 0.2656
C14 C 0.3691(10) 0.5039(5) 0.2893(2)
H8 H 0.3386 0.4793 0.3250
C15 C 0.4112(9) 0.6145(5) 0.2732(2)
C16 C 0.4359(9) 0.6956(5) 0.3088(2)
C17 C 0.3930(9) 0.8173(5) 0.2884(2)
C18 C 0.3701(9) 0.8600(5) 0.2340(2)
C19 C 0.4352(9) 0.7763(5) 0.1985(2)
C20 C 0.4333(9) 0.6568(5) 0.2186(2)
C21 C 0.4559(9) 0.5748(5) 0.1839(2)
C22 C 0.3739(9) 0.8980(5) 0.3235(2)
C23 C 0.4066(10) 0.9427(5) 0.4131(2)
C24 C 0.2887(9) 1.1029(5) 0.3417(2)
C25 C 0.5383(10) 0.5252(5) 0.0951(2)
C26 C 0.4325(10) 0.3754(5) 0.1662(2)
C27 C 0.0926(11) 1.2785(6) 0.4734(2)
C28 C -0.0883(12) 1.2996(6) 0.5065(3)
C29 C 0.4988(11) 0.3329(5) 0.0781(2)
H9 H 0.4750 0.3781 0.0427
H10 H 0.3970 0.2855 0.0878
C30 C 0.6827(12) 0.2533(6) 0.0773(3)
C31 C 0.745(3) 0.1963(17) 0.0305(7)
C32 C 0.635(3) 0.1017(13) 0.0225(5)
C33 C 0.2171(10) 1.0277(5) 0.1647(2)
C34 C 0.5848(12) 0.5405(6) 0.3838(2)
C37 C 0.7304(12) 0.1947(6) 0.3373(3)
H11 H 0.6936 0.1815 0.3744
H12 H 0.6272 0.2436 0.3173
H13 H 0.8414 0.2338 0.3325
C38 C 0.7749(11) 0.0797(6) 0.3186(3)
C39 C 0.7492(12) 0.0718(7) 0.2663(3)
H14 H 0.6999 0.1395 0.2428
C40 C 0.7951(12) -0.0337(7) 0.2487(3)
H15 H 0.7785 -0.0374 0.2131
C41 C 0.8641(12) -0.1323(7) 0.2822(3)
H16 H 0.8950 -0.2043 0.2700
C42 C 0.8889(12) -0.1269(6) 0.3341(3)
H17 H 0.9370 -0.1952 0.3575
C43 C 0.8431(11) -0.0215(6) 0.3517(3)
H18 H 0.8590 -0.0188 0.3873
C44 C 0.9123(15) 0.3860(7) 0.2230(4)
H19 H 1.0215 0.3537 0.2445
H20 H 0.8864 0.3282 0.2027
H21 H 0.8032 0.4057 0.2456
C45 C 0.9509(12) 0.4919(7) 0.1873(3)
C46 C 0.9397(12) 0.5995(6) 0.2041(3)
H22 H 0.9066 0.6047 0.2394
C47 C 0.9754(11) 0.6963(6) 0.1706(3)
H23 H 0.9659 0.7682 0.1829
C48 C 1.0257(12) 0.6916(7) 0.1185(3)
H24 H 1.0514 0.7594 0.0954
C49 C 1.0374(13) 0.5868(7) 0.1010(3)
H25 H 1.0692 0.5824 0.0655
C50 C 1.0035(12) 0.4900(7) 0.1346(3)
H26 H 1.0156 0.4184 0.1220
F21? F 0.830(2) 0.0376(10) -0.0120(4)
F22? F 0.452(2) 0.1467(17) 0.0224(8)
C35? C 0.676(3) 0.1796(16) 0.0312(7)
C36? C 0.828(3) 0.0745(15) 0.0336(6)
F23? F 0.994(2) 0.1009(14) 0.0401(6)
F24? F 0.698(4) 0.2561(18) -0.0156(7)
F25? F 0.798(2) -0.0092(9) 0.0716(5)
loop_
_geom_bond_atom_site_label_1
_geom_bond_atom_site_label_2
_geom_bond_site_symmetry_1
_geom_bond_site_symmetry_2
F1 C33 1_555 1_555
F2 C33 1_555 1_555
F3 C33 1_555 1_555
F4 C34 1_555 1_555
F5 C34 1_555 1_555
F6 C34 1_555 1_555
F7 C2 1_555 1_555
F8 C2 1_555 1_555
F9 C27 1_555 1_555
F10 C27 1_555 1_555
F11 C28 1_555 1_555
F12 C28 1_555 1_555
F13 C28 1_555 1_555
F14 C30 1_555 1_555
F15 C30 1_555 1_555
F16 C31 1_555 1_555
F17 C31 1_555 1_555
F18 C32 1_555 1_555
F19 C32 1_555 1_555
F20 C32 1_555 1_555
O1 C23 1_555 1_555
O2 C24 1_555 1_555
O3 C25 1_555 1_555
O4 C26 1_555 1_555
N1 C3 1_555 1_555
N2 C25 1_555 1_555
C1 C4 1_555 1_555
C2 C3 1_555 1_555
C3 H1 1_555 1_555
H2 C3 1_555 1_555
C4 H3 1_555 1_555
C5 C4 1_555 1_555
C6 C7 1_555 1_555
C7 H4 1_555 1_555
C8 C7 1_555 1_555
C9 H5 1_555 1_555
C10 C9 1_555 1_555
H6 C10 1_555 1_555
C11 C10 1_555 1_555
C12 C13 1_555 1_555
C13 H7 1_555 1_555
C14 C13 1_555 1_555
H8 C14 1_555 1_555
C15 C14 1_555 1_555
C16 C1 1_555 1_555
C17 C16 1_555 1_555
C18 C8 1_555 1_555
C19 C9 1_555 1_555
C20 C15 1_555 1_555
C21 C11 1_555 1_555
C22 C5 1_555 1_555
C23 N1 1_555 1_555
C24 N1 1_555 1_555
C25 C11 1_555 1_555
C26 N2 1_555 1_555
C27 C2 1_555 1_555
C28 C27 1_555 1_555
C29 N2 1_555 1_555
H9 C29 1_555 1_555
H10 C29 1_555 1_555
C30 C29 1_555 1_555
C31 C30 1_555 1_555
C32 C31 1_555 1_555
C33 C8 1_555 1_555
C34 C1 1_555 1_555
C37 H11 1_555 1_555
H12 C37 1_555 1_555
H13 C37 1_555 1_555
C38 C37 1_555 1_555
C39 C38 1_555 1_555
H14 C39 1_555 1_555
C40 C39 1_555 1_555
H15 C40 1_555 1_555
C41 C40 1_555 1_555
H16 C41 1_555 1_555
C42 C41 1_555 1_555
H17 C42 1_555 1_555
C43 C38 1_555 1_555
H18 C43 1_555 1_555
C44 H19 1_555 1_555
H20 C44 1_555 1_555
H21 C44 1_555 1_555
C45 C44 1_555 1_555
C46 C45 1_555 1_555
H22 C46 1_555 1_555
C47 C46 1_555 1_555
H23 C47 1_555 1_555
C48 C47 1_555 1_555
H24 C48 1_555 1_555
C49 C48 1_555 1_555
H25 C49 1_555 1_555
C50 C45 1_555 1_555
H26 C50 1_555 1_555
C5 C23 1_555 1_555
C6 C22 1_555 1_555
C6 C24 1_555 1_555
C12 C21 1_555 1_555
C12 C26 1_555 1_555
C15 C16 1_555 1_555
C17 C18 1_555 1_555
C17 C22 1_555 1_555
C18 C19 1_555 1_555
C19 C20 1_555 1_555
C20 C21 1_555 1_555
C42 C43 1_555 1_555
C49 C50 1_555 1_555

#END
