
#######################################################################
#
#                 Cambridge Crystallographic Data Centre
#                                CCDC 
#
#######################################################################
#
# If this CIF has been generated from an entry in the Cambridge 
# Structural Database, then it will include bibliographic, chemical, 
# crystal, experimental, refinement or atomic coordinate data resulting 
# from the CCDC's data processing and validation procedures.
#
#######################################################################

data_KUWXUX
_chemical_name_common            
"N,N'-bis(heptafluorobutyl)-1,6,8-tris(trifluoromethyl)perylene-3,4:9,10- tetracarboxylic acid diimide toluene solvate"
_chemical_formula_moiety         'C35 H9 F23 N2 O4,2(C7 H8)'
_chemical_name_systematic        
"2,9-bis(2,2,3,3,4,4,4-heptafluorobutyl)-4,6,12-tris(trifluoromethyl)isoquinolino[4',5',6':6,5,10]anthra[2,1,9-def]isoquinoline-1,3,8,10(2H,9H)-tetrone toluene solvate"
_symmetry_cell_setting           triclinic
_symmetry_space_group_name_H-M   'P -1'
_symmetry_Int_Tables_number      2
_space_group_name_Hall           '-P 1'
loop_
_symmetry_equiv_pos_site_id
_symmetry_equiv_pos_as_xyz
1 x,y,z
2 -x,-y,-z
_cell_length_a                   7.2063(2)
_cell_length_b                   11.8412(4)
_cell_length_c                   27.0829(9)
_cell_angle_alpha                99.4130(8)
_cell_angle_beta                 92.3469(8)
_cell_angle_gamma                100.5917(8)
_cell_volume                     2235.04
_exptl_crystal_colour            orange
_exptl_crystal_description       plate
_cell_formula_units_Z            2
_exptl_crystal_recrystallization_method toluene
loop_
_atom_site_label
_atom_site_type_symbol
_atom_site_fract_x
_atom_site_fract_y
_atom_site_fract_z
F1 F 1.2157(2) 0.63180(11) 0.15062(5)
F2 F 1.2326(2) 0.51677(12) 0.08187(5)
F3 F 0.9904(2) 0.59776(12) 0.09189(5)
F4 F 1.21142(19) 0.61429(13) 0.45222(5)
F5 F 0.9093(2) 0.59130(13) 0.45696(5)
F6 F 1.0381(3) 0.44463(12) 0.43583(5)
F7 F 0.86132(18) 0.20800(11) 0.35436(4)
F8 F 0.64281(18) 0.30341(11) 0.33907(4)
F9 F 0.59605(18) 0.11748(11) 0.31633(4)
F10 F 0.6403(2) -0.08451(12) -0.00397(5)
F11 F 0.50813(19) -0.09427(13) 0.06610(5)
F12 F 0.7315(2) -0.30238(12) -0.00122(5)
F13 F 0.5775(2) -0.31031(12) 0.06605(5)
F14 F 0.2593(2) -0.28166(15) 0.01363(6)
F15 F 0.3760(2) -0.42898(14) -0.01777(6)
F16 F 0.4122(3) -0.27625(17) -0.05238(6)
F17 F 1.2353(2) 1.10778(13) 0.36415(5)
F18 F 1.3412(2) 1.00752(13) 0.41507(6)
F19 F 1.06805(19) 1.21741(11) 0.44958(5)
F20 F 1.2396(2) 1.13229(13) 0.49404(5)
F21 F 1.4127(2) 1.34687(13) 0.49268(6)
F22 F 1.5533(2) 1.23101(14) 0.44497(7)
F23 F 1.3707(2) 1.32858(13) 0.41251(6)
O1 O 0.9593(2) 0.11967(13) 0.04063(5)
O2 O 0.7463(2) -0.08048(12) 0.16327(5)
O3 O 1.0718(3) 0.79629(14) 0.43577(6)
O4 O 0.9087(2) 0.95935(13) 0.30461(6)
N1 N 0.8518(2) 0.01936(15) 0.10176(6)
N2 N 1.0007(2) 0.87841(15) 0.36971(6)
C1 C 1.0176(3) 0.44283(18) 0.13692(8)
C2 C 1.0058(3) 0.33613(19) 0.10479(8)
H1 H 1.0469 0.3354 0.0719
C3 C 0.9362(3) 0.23273(18) 0.11984(7)
C4 C 0.8244(3) 0.12586(17) 0.18598(7)
C5 C 0.7749(3) 0.12550(18) 0.23434(7)
H2 H 0.7220 0.0538 0.2443
C6 C 0.8015(3) 0.22973(18) 0.26932(7)
C7 C 0.9848(3) 0.45762(18) 0.34189(7)
H3 H 0.9955 0.3888 0.3546
C8 C 1.0166(3) 0.56421(18) 0.37521(7)
C9 C 1.0019(3) 0.66648(18) 0.35767(7)
C10 C 0.9343(3) 0.76063(17) 0.28618(7)
C11 C 0.8896(3) 0.75387(18) 0.23563(8)
H4 H 0.8582 0.8194 0.2235
C12 C 0.8903(3) 0.65068(18) 0.20211(7)
H5 H 0.8634 0.6478 0.1672
C13 C 0.9297(3) 0.55292(18) 0.21893(7)
C14 C 0.9552(3) 0.44644(18) 0.18562(7)
C15 C 0.9087(3) 0.33898(17) 0.20398(7)
C16 C 0.8809(3) 0.33697(17) 0.25612(7)
C17 C 0.9383(3) 0.44890(17) 0.29098(7)
C18 C 0.9440(3) 0.55327(17) 0.27166(7)
C19 C 0.9626(3) 0.66082(17) 0.30549(7)
C20 C 0.8898(3) 0.23201(17) 0.16995(7)
C21 C 0.9191(3) 0.12261(18) 0.08374(7)
C22 C 0.8024(3) 0.01354(18) 0.15103(7)
C23 C 1.0280(3) 0.78176(19) 0.39155(8)
C24 C 0.9443(3) 0.87375(18) 0.31937(8)
C25 C 0.8387(3) -0.09102(18) 0.06727(7)
H6 H 0.8626 -0.1518 0.0865
H7 H 0.9376 -0.0819 0.0431
C26 C 0.6450(3) -0.13022(19) 0.03855(8)
C27 C 0.5915(3) -0.2642(2) 0.02389(8)
C28 C 0.4049(4) -0.3135(2) -0.00886(10)
C29 C 1.0088(3) 0.98824(18) 0.40387(8)
H8 H 0.9783 0.9718 0.4376
H9 H 0.9123 1.0292 0.3919
C30 C 1.2017(3) 1.06651(19) 0.40761(8)
C31 C 1.2246(3) 1.17206(19) 0.45037(8)
C32 C 1.3951(4) 1.2714(2) 0.45009(9)
C33 C 1.1125(4) 0.5479(2) 0.11567(8)
C34 C 0.7266(3) 0.21536(18) 0.31986(8)
C35 C 1.0462(3) 0.55572(19) 0.43052(8)
C36 C 0.4600(3) 0.7424(2) 0.30006(9)
C37 C 0.5086(3) 0.7928(2) 0.35006(9)
H10 H 0.5201 0.8747 0.3600
C38 C 0.5403(4) 0.7255(2) 0.38536(9)
H11 H 0.5720 0.7613 0.4194
C39 C 0.5264(3) 0.6066(2) 0.37175(10)
H12 H 0.5493 0.5606 0.3962
C40 C 0.4791(3) 0.5554(2) 0.32224(9)
H13 H 0.4694 0.4736 0.3125
C41 C 0.4456(3) 0.6224(2) 0.28670(9)
H14 H 0.4123 0.5860 0.2528
C42 C 0.4262(4) 0.8154(2) 0.26135(11)
H15 H 0.3913 0.8878 0.2778
H16 H 0.3234 0.7719 0.2369
H17 H 0.5419 0.8340 0.2441
C43 C 0.2870(3) 0.0544(2) 0.17371(9)
C44 C 0.3614(3) 0.1342(2) 0.14366(9)
H18 H 0.3809 0.1071 0.1096
C45 C 0.4072(3) 0.2527(2) 0.16271(10)
H19 H 0.4584 0.3059 0.1418
C46 C 0.3785(4) 0.2939(2) 0.21221(10)
H20 H 0.4102 0.3750 0.2253
C47 C 0.3034(3) 0.2158(2) 0.24221(9)
H21 H 0.2827 0.2437 0.2761
C48 C 0.2581(3) 0.0981(2) 0.22354(9)
H22 H 0.2065 0.0456 0.2447
C49 C 0.2436(3) -0.0742(2) 0.15401(10)
H23 H 0.2111 -0.0877 0.1178
H24 H 0.1367 -0.1112 0.1707
H25 H 0.3548 -0.1077 0.1607
loop_
_geom_bond_atom_site_label_1
_geom_bond_atom_site_label_2
_geom_bond_site_symmetry_1
_geom_bond_site_symmetry_2
F1 C33 1_555 1_555
F2 C33 1_555 1_555
F3 C33 1_555 1_555
F4 C35 1_555 1_555
F5 C35 1_555 1_555
F6 C35 1_555 1_555
F7 C34 1_555 1_555
F8 C34 1_555 1_555
F9 C34 1_555 1_555
F10 C26 1_555 1_555
F11 C26 1_555 1_555
F12 C27 1_555 1_555
F13 C27 1_555 1_555
F14 C28 1_555 1_555
F15 C28 1_555 1_555
F16 C28 1_555 1_555
F17 C30 1_555 1_555
F18 C30 1_555 1_555
F19 C31 1_555 1_555
F20 C31 1_555 1_555
F21 C32 1_555 1_555
F22 C32 1_555 1_555
F23 C32 1_555 1_555
O1 C21 1_555 1_555
O2 C22 1_555 1_555
O3 C23 1_555 1_555
O4 C24 1_555 1_555
N1 C21 1_555 1_555
N2 C23 1_555 1_555
C1 C2 1_555 1_555
C2 H1 1_555 1_555
C3 C2 1_555 1_555
C4 C5 1_555 1_555
C5 H2 1_555 1_555
C6 C5 1_555 1_555
C7 H3 1_555 1_555
C8 C7 1_555 1_555
C9 C8 1_555 1_555
C10 C11 1_555 1_555
C11 H4 1_555 1_555
C12 C11 1_555 1_555
H5 C12 1_555 1_555
C13 C12 1_555 1_555
C14 C1 1_555 1_555
C15 C14 1_555 1_555
C16 C6 1_555 1_555
C17 C7 1_555 1_555
C18 C13 1_555 1_555
C19 C9 1_555 1_555
C20 C3 1_555 1_555
C21 C3 1_555 1_555
C22 N1 1_555 1_555
C23 C9 1_555 1_555
C24 N2 1_555 1_555
C25 N1 1_555 1_555
H6 C25 1_555 1_555
H7 C25 1_555 1_555
C26 C25 1_555 1_555
C27 C26 1_555 1_555
C28 C27 1_555 1_555
C29 N2 1_555 1_555
H8 C29 1_555 1_555
H9 C29 1_555 1_555
C30 C29 1_555 1_555
C31 C30 1_555 1_555
C32 C31 1_555 1_555
C33 C1 1_555 1_555
C34 C6 1_555 1_555
C35 C8 1_555 1_555
C36 C37 1_555 1_555
C37 H10 1_555 1_555
C38 C37 1_555 1_555
H11 C38 1_555 1_555
C39 C38 1_555 1_555
H12 C39 1_555 1_555
C40 C39 1_555 1_555
H13 C40 1_555 1_555
C41 C36 1_555 1_555
H14 C41 1_555 1_555
C42 C36 1_555 1_555
H15 C42 1_555 1_555
H16 C42 1_555 1_555
H17 C42 1_555 1_555
C43 C44 1_555 1_555
C44 H18 1_555 1_555
C45 C44 1_555 1_555
H19 C45 1_555 1_555
C46 C45 1_555 1_555
H20 C46 1_555 1_555
C47 C46 1_555 1_555
H21 C47 1_555 1_555
C48 C43 1_555 1_555
H22 C48 1_555 1_555
C49 C43 1_555 1_555
H23 C49 1_555 1_555
H24 C49 1_555 1_555
H25 C49 1_555 1_555
C4 C20 1_555 1_555
C4 C22 1_555 1_555
C10 C19 1_555 1_555
C10 C24 1_555 1_555
C13 C14 1_555 1_555
C15 C16 1_555 1_555
C15 C20 1_555 1_555
C16 C17 1_555 1_555
C17 C18 1_555 1_555
C18 C19 1_555 1_555
C40 C41 1_555 1_555
C47 C48 1_555 1_555

#END
