
#######################################################################
#
#                 Cambridge Crystallographic Data Centre
#                                CCDC 
#
#######################################################################
#
# If this CIF has been generated from an entry in the Cambridge 
# Structural Database, then it will include bibliographic, chemical, 
# crystal, experimental, refinement or atomic coordinate data resulting 
# from the CCDC's data processing and validation procedures.
#
#######################################################################

data_KUWZOS
_chemical_formula_moiety         'C32 H40 O10'
_chemical_name_systematic        
14,29-bis((prop-2-yn-1-yloxy)methyl)-2,5,8,11,17,20,23,26-octaoxatricyclo[25.3.1.1^12,16^]dotriaconta-1(31),12(32),13,15,27,29-hexaene
_symmetry_cell_setting           monoclinic
_symmetry_space_group_name_H-M   'P 21/c'
_symmetry_Int_Tables_number      14
_space_group_name_Hall           '-P 2ybc'
loop_
_symmetry_equiv_pos_site_id
_symmetry_equiv_pos_as_xyz
1 x,y,z
2 -x,1/2+y,1/2-z
3 -x,-y,-z
4 x,1/2-y,1/2+z
_cell_length_a                   9.9716(15)
_cell_length_b                   15.299(2)
_cell_length_c                   9.8879(16)
_cell_angle_alpha                90
_cell_angle_beta                 94.007(2)
_cell_angle_gamma                90
_cell_volume                     1504.77
_exptl_crystal_colour            colorless
_exptl_crystal_description       block
_cell_formula_units_Z            2
loop_
_atom_site_label
_atom_site_type_symbol
_atom_site_fract_x
_atom_site_fract_y
_atom_site_fract_z
O1 O 0.18159(10) 0.83254(7) -0.26137(10)
O2 O 0.08104(10) 1.11401(7) 0.39047(11)
O3 O 0.32485(10) 0.86854(7) 0.20268(10)
O4 O 0.29800(11) 0.99620(7) 0.41151(10)
O5 O 0.76019(10) 0.84495(6) -0.03727(12)
C1 C 0.51673(14) 0.84277(9) -0.09910(16)
C2 C 0.41122(14) 0.83776(9) -0.19594(15)
H1 H 0.4280 0.8337 -0.2871
C3 C 0.27939(14) 0.83876(9) -0.15834(15)
C4 C 0.25391(14) 0.84726(9) -0.02336(15)
H2 H 0.1660 0.8476 0.0024
C5 C 0.36067(14) 0.85533(9) 0.07304(15)
C6 C 0.49235(14) 0.85120(9) 0.03730(15)
H3 H 0.5634 0.8540 0.1033
C7 C 0.17879(16) 1.11327(11) 0.50097(16)
H4 H 0.1402 1.1353 0.5816
H5 H 0.2537 1.1506 0.4815
C8 C 0.42779(15) 0.89207(10) 0.30297(15)
H6 H 0.4780 0.9418 0.2724
H7 H 0.4896 0.8437 0.3196
C9 C 0.65887(14) 0.83529(11) -0.14340(17)
H8 H 0.6692 0.7786 -0.1854
H9 H 0.6718 0.8795 -0.2116
C10 C 0.03991(16) 1.19918(10) 0.35226(17)
H10 H 0.1178 1.2346 0.3357
H11 H -0.0062 1.2262 0.4247
C11 C 0.89243(18) 0.93990(12) 0.1015(2)
C12 C 0.36293(17) 0.91475(10) 0.42970(16)
H12 H 0.2981 0.8701 0.4496
H13 H 0.4303 0.9179 0.5052
C13 C 0.22653(16) 1.02167(11) 0.52416(16)
H14 H 0.2847 1.0184 0.6068
H15 H 0.1505 0.9830 0.5332
C14 C 0.05180(14) 0.80541(11) -0.22709(16)
H16 H 0.0168 0.8466 -0.1639
H17 H 0.0577 0.7485 -0.1839
C15 C 0.78824(17) 0.93436(10) -0.0082(2)
H18 H 0.7075 0.9634 0.0178
H19 H 0.8179 0.9632 -0.0882
C16 C 0.9768(2) 0.94737(14) 0.1892(2)
H20 H 1.0438 0.9533 0.2589
O1B O -0.18159(10) 1.16746(7) 0.26137(10)
O2B O -0.08104(10) 0.88599(7) -0.39047(11)
O3B O -0.32485(10) 1.13146(7) -0.20268(10)
O4B O -0.29800(11) 1.00380(7) -0.41151(10)
O5B O -0.76019(10) 1.15505(6) 0.03727(12)
C1B C -0.51673(14) 1.15723(9) 0.09910(16)
C2B C -0.41122(14) 1.16224(9) 0.19594(15)
H1B H -0.4280 1.1663 0.2871
C3B C -0.27939(14) 1.16124(9) 0.15834(15)
C4B C -0.25391(14) 1.15274(9) 0.02336(15)
H2B H -0.1660 1.1524 -0.0024
C5B C -0.36067(14) 1.14467(9) -0.07304(15)
C6B C -0.49235(14) 1.14880(9) -0.03730(15)
H3B H -0.5634 1.1460 -0.1033
C7B C -0.17879(16) 0.88673(11) -0.50097(16)
H4B H -0.1402 0.8647 -0.5816
H5B H -0.2537 0.8494 -0.4815
C8B C -0.42779(15) 1.10793(10) -0.30297(15)
H6B H -0.4780 1.0582 -0.2724
H7B H -0.4896 1.1563 -0.3196
C9B C -0.65887(14) 1.16471(11) 0.14340(17)
H8B H -0.6692 1.2214 0.1854
H9B H -0.6718 1.1205 0.2116
C10B C -0.03991(16) 0.80082(10) -0.35226(17)
H10B H -0.1178 0.7654 -0.3357
H11B H 0.0062 0.7738 -0.4247
C11B C -0.89243(18) 1.06010(12) -0.1015(2)
C12B C -0.36293(17) 1.08525(10) -0.42970(16)
H12B H -0.2981 1.1299 -0.4496
H13B H -0.4303 1.0821 -0.5052
C13B C -0.22653(16) 0.97833(11) -0.52416(16)
H14B H -0.2847 0.9816 -0.6068
H15B H -0.1505 1.0170 -0.5332
C14B C -0.05180(14) 1.19459(11) 0.22709(16)
H16B H -0.0168 1.1534 0.1639
H17B H -0.0577 1.2515 0.1839
C15B C -0.78824(17) 1.06564(10) 0.0082(2)
H18B H -0.7075 1.0366 -0.0178
H19B H -0.8179 1.0368 0.0882
C16B C -0.9768(2) 1.05263(14) -0.1892(2)
H20B H -1.0438 1.0467 -0.2589
loop_
_geom_bond_atom_site_label_1
_geom_bond_atom_site_label_2
_geom_bond_site_symmetry_1
_geom_bond_site_symmetry_2
O1 C3 1_555 1_555
O2 C7 1_555 1_555
O3 C5 1_555 1_555
O4 C12 1_555 1_555
O5 C9 1_555 1_555
C1 C2 1_555 1_555
C2 H1 1_555 1_555
C3 C2 1_555 1_555
C4 C3 1_555 1_555
H2 C4 1_555 1_555
C5 C4 1_555 1_555
C6 C1 1_555 1_555
H3 C6 1_555 1_555
C7 H4 1_555 1_555
H5 C7 1_555 1_555
C8 O3 1_555 1_555
H6 C8 1_555 1_555
H7 C8 1_555 1_555
C9 C1 1_555 1_555
H8 C9 1_555 1_555
H9 C9 1_555 1_555
C10 O2 1_555 1_555
H10 C10 1_555 1_555
H11 C10 1_555 1_555
C11 C15 1_555 1_555
C12 C8 1_555 1_555
H12 C12 1_555 1_555
H13 C12 1_555 1_555
C13 O4 1_555 1_555
H14 C13 1_555 1_555
H15 C13 1_555 1_555
C14 O1 1_555 1_555
H16 C14 1_555 1_555
H17 C14 1_555 1_555
C15 O5 1_555 1_555
H18 C15 1_555 1_555
H19 C15 1_555 1_555
C16 C11 1_555 1_555
H20 C16 1_555 1_555
O1B C3B 1_555 1_555
O2B C7B 1_555 1_555
O3B C5B 1_555 1_555
O4B C12B 1_555 1_555
O5B C9B 1_555 1_555
C1B C2B 1_555 1_555
C2B H1B 1_555 1_555
C3B C2B 1_555 1_555
C4B C3B 1_555 1_555
H2B C4B 1_555 1_555
C5B C4B 1_555 1_555
C6B C1B 1_555 1_555
H3B C6B 1_555 1_555
C7B H4B 1_555 1_555
H5B C7B 1_555 1_555
C8B O3B 1_555 1_555
H6B C8B 1_555 1_555
H7B C8B 1_555 1_555
C9B C1B 1_555 1_555
H8B C9B 1_555 1_555
H9B C9B 1_555 1_555
C10B C14 1_555 1_555
H10B C10B 1_555 1_555
H11B C10B 1_555 1_555
C11B C15B 1_555 1_555
C12B C8B 1_555 1_555
H12B C12B 1_555 1_555
H13B C12B 1_555 1_555
C13B O4B 1_555 1_555
H14B C13B 1_555 1_555
H15B C13B 1_555 1_555
C14B C10 1_555 1_555
H16B C14B 1_555 1_555
H17B C14B 1_555 1_555
C15B O5B 1_555 1_555
H18B C15B 1_555 1_555
H19B C15B 1_555 1_555
C16B C11B 1_555 1_555
H20B C16B 1_555 1_555
C5 C6 1_555 1_555
C7 C13 1_555 1_555
O1B C14B 1_555 1_555
O2B C10B 1_555 1_555
C5B C6B 1_555 1_555
C7B C13B 1_555 1_555

#END
