
#######################################################################
#
#                 Cambridge Crystallographic Data Centre
#                                CCDC 
#
#######################################################################
#
# If this CIF has been generated from an entry in the Cambridge 
# Structural Database, then it will include bibliographic, chemical, 
# crystal, experimental, refinement or atomic coordinate data resulting 
# from the CCDC's data processing and validation procedures.
#
#######################################################################

data_KUWZIM
_chemical_formula_moiety         
'H1 O1 1-,2(C32 H46 O10),C12 H14 N2 2+,H2 O1,F6 P1 1-'
_chemical_name_systematic        
"[3]-bis(4,7,10,13,19,22,25,28,32,39-Decaoxatetracyclo[14.14.10.1^3,29^.1^14,18^]dotetraconta-1,3(41),14(42),15,17,29-hexaene)-(1,1'-dimethyl-4,4'-bipyridinium)-pseudorotaxane hexafluorophosphate hydroxide monohydrate"
_symmetry_cell_setting           monoclinic
_symmetry_space_group_name_H-M   'P 21/n'
_symmetry_Int_Tables_number      14
_space_group_name_Hall           '-P 2yn'
loop_
_symmetry_equiv_pos_site_id
_symmetry_equiv_pos_as_xyz
1 x,y,z
2 1/2-x,1/2+y,1/2-z
3 -x,-y,-z
4 1/2+x,1/2-y,1/2+z
_cell_length_a                   15.240(2)
_cell_length_b                   17.136(3)
_cell_length_c                   17.585(3)
_cell_angle_alpha                90
_cell_angle_beta                 111.537(2)
_cell_angle_gamma                90
_cell_volume                     4271.73
_exptl_crystal_colour            yellow
_exptl_crystal_description       block
_cell_formula_units_Z            2
loop_
_atom_site_label
_atom_site_type_symbol
_atom_site_fract_x
_atom_site_fract_y
_atom_site_fract_z
O1 O 0.1663(3) 0.8213(3) 0.1328(3)
O2 O 0.3605(7) 0.2374(6) 0.1301(7)
O3 O 0.5499(5) 0.2597(4) 0.2215(4)
O4 O 0.6807(7) 0.1620(6) 0.3121(5)
O5 O 0.6988(6) 0.0025(5) 0.2926(5)
O6 O 0.2270(4) 0.0475(4) -0.0928(5)
O7 O 0.2474(5) -0.1182(6) -0.1201(6)
O8 O 0.3838(6) -0.2234(4) -0.0251(5)
O9 O 0.5535(5) -0.1991(3) 0.1167(4)
O10 O 0.0833(10) 0.1039(8) 0.1754(16)
O11 O 0.4503(9) -0.1191(8) 0.3906(7)
C7 C 0.2895(9) 0.1781(5) 0.0743(10)
C8 C 0.2937(6) 0.1425(5) 0.0077(7)
H8 H 0.3395 0.1553 -0.0135
C9 C 0.2232(6) 0.0833(5) -0.0294(7)
C10 C 0.1567(8) 0.0687(7) 0.0054(9)
H9 H 0.1112 0.0308 -0.0182
C11 C 0.1544(10) 0.1072(8) 0.0725(11)
C12 C 0.2240(12) 0.1592(9) 0.1138(9)
H10 H 0.2287 0.1808 0.1637
C13 C 0.6357(7) -0.0705(6) 0.2819(11)
C14 C 0.6222(6) -0.1057(5) 0.2130(6)
H11 H 0.6531 -0.0883 0.1793
C15 C 0.5622(6) -0.1687(5) 0.1897(6)
C16 C 0.5185(7) -0.1927(5) 0.2403(7)
H12 H 0.4756 -0.2337 0.2240
C17 C 0.5350(9) -0.1597(8) 0.3113(8)
C18 C 0.5933(11) -0.0946(10) 0.3357(7)
H13 H 0.6032 -0.0690 0.3847
C19 C 0.4100(8) 0.2541(8) 0.0936(6)
H14 H 0.3763 0.2815 0.0430
H15 H 0.4429 0.2094 0.0832
C20 C 0.4827(8) 0.3143(5) 0.1680(6)
H16 H 0.5137 0.3521 0.1453
H17 H 0.4482 0.3417 0.1965
C21 C 0.6120(10) 0.2836(7) 0.2885(8)
H18 H 0.5798 0.3030 0.3231
H19 H 0.6451 0.3274 0.2763
C22 C 0.6822(11) 0.2260(10) 0.3353(8)
H20 H 0.7438 0.2472 0.3425
H21 H 0.6788 0.2231 0.3892
C23 C 0.7558(10) 0.1167(8) 0.3532(8)
H22 H 0.7918 0.1390 0.4062
H23 H 0.7969 0.1107 0.3225
C24 C 0.7098(16) 0.0323(19) 0.3633(10)
H24 H 0.7527 0.0018 0.4079
H25 H 0.6502 0.0386 0.3707
C25 C 0.1579(8) 0.0030(8) -0.1369(9)
H26 H 0.1378 0.0197 -0.1935
H27 H 0.1051 0.0102 -0.1193
C26 C 0.1832(14) -0.0882(12) -0.1323(18)
H28 H 0.1589 -0.1090 -0.0926
H29 H 0.1421 -0.1087 -0.1847
C27 C 0.2413(13) -0.2018(9) -0.1133(14)
H30 H 0.2003 -0.2098 -0.0828
H31 H 0.2058 -0.2196 -0.1684
C28 C 0.2955(15) -0.2424(9) -0.0895(13)
H32 H 0.3108 -0.2614 -0.1351
H33 H 0.2691 -0.2862 -0.0702
C29 C 0.4083(10) -0.2645(6) 0.0472(9)
H34 H 0.3808 -0.3162 0.0350
H35 H 0.3799 -0.2388 0.0817
C30 C 0.5043(11) -0.2725(6) 0.0917(8)
H36 H 0.5327 -0.3008 0.0587
H37 H 0.5129 -0.3036 0.1400
C31 C 0.0799(13) 0.0959(13) 0.1007(11)
H38 H 0.0297 0.1301 0.0678
H39 H 0.0578 0.0431 0.0849
C32 C 0.1499(16) 0.0752(14) 0.2315(16)
H40 H 0.2062 0.1019 0.2320
H41 H 0.1552 0.0216 0.2161
C33 C 0.155(2) 0.0732(13) 0.323(3)
H42 H 0.1470 0.1263 0.3383
H43 H 0.1013 0.0437 0.3238
C34 C 0.232(3) 0.044(3) 0.384(2)
H44 H 0.2774 0.0868 0.3973
H45 H 0.2129 0.0388 0.4300
C35 C 0.280(2) -0.013(2) 0.3867(18)
H46 H 0.3057 -0.0030 0.3450
H47 H 0.2324 -0.0534 0.3635
C36 C 0.358(2) -0.058(2) 0.4501(17)
H48 H 0.3329 -0.0722 0.4915
H49 H 0.4067 -0.0192 0.4754
C37 C 0.414(2) -0.1347(11) 0.4374(12)
H50 H 0.4609 -0.1505 0.4893
H51 H 0.3698 -0.1775 0.4165
C38 C 0.4831(16) -0.1917(14) 0.3626(10)
H52 H 0.4303 -0.2241 0.3305
H53 H 0.5246 -0.2217 0.4085
P1 P 0.5000 0.5000 1.0000
F1 F 0.4135(4) 0.5577(3) 0.9689(5)
F2 F 0.5691(4) 0.5650(3) 0.9898(4)
F3 F 0.4767(5) 0.4705(4) 0.9107(5)
F1B F 0.5865(4) 0.4423(3) 1.0311(5)
F2B F 0.4309(4) 0.4350(3) 1.0102(4)
F3B F 0.5233(5) 0.5295(4) 1.0893(5)
N1 N 0.5536(5) 0.9624(4) 0.8276(4)
C1 C 0.4880(6) 0.9216(4) 0.8411(5)
H1 H 0.4568 0.8821 0.8050
C2 C 0.4659(5) 0.9363(4) 0.9057(5)
H2 H 0.4172 0.9079 0.9124
C3 C 0.5114(4) 0.9918(3) 0.9637(4)
C4 C 0.5804(5) 1.0339(4) 0.9469(5)
H3 H 0.6138 1.0727 0.9829
C5 C 0.5994(5) 1.0192(5) 0.8787(6)
H4 H 0.6445 1.0487 0.8676
C6 C 0.5768(7) 0.9482(6) 0.7540(5)
H5 H 0.5901 0.8938 0.7509
H6 H 0.6311 0.9785 0.7575
H7 H 0.5243 0.9631 0.7061
N1B N 0.4464(5) 1.0376(4) 1.1724(4)
C1B C 0.5120(6) 1.0784(4) 1.1589(5)
H1B H 0.5432 1.1179 1.1950
C2B C 0.5341(5) 1.0637(4) 1.0943(5)
H2B H 0.5828 1.0921 1.0876
C3B C 0.4886(4) 1.0082(3) 1.0363(4)
C4B C 0.4196(5) 0.9661(4) 1.0531(5)
H3B H 0.3862 0.9273 1.0171
C5B C 0.4006(5) 0.9808(5) 1.1213(6)
H4B H 0.3555 0.9513 1.1324
C6B C 0.4232(7) 1.0518(6) 1.2460(5)
H5B H 0.4099 1.1062 1.2491
H6B H 0.3689 1.0215 1.2425
H7B H 0.4757 1.0369 1.2939
loop_
_geom_bond_atom_site_label_1
_geom_bond_atom_site_label_2
_geom_bond_site_symmetry_1
_geom_bond_site_symmetry_2
N1 C1 1_555 1_555
C1 H1 1_555 1_555
C2 C1 1_555 1_555
H2 C2 1_555 1_555
C3 C2 1_555 1_555
C4 C3 1_555 1_555
H3 C4 1_555 1_555
C5 N1 1_555 1_555
H4 C5 1_555 1_555
C6 N1 1_555 1_555
H5 C6 1_555 1_555
H6 C6 1_555 1_555
H7 C6 1_555 1_555
O2 C7 1_555 1_555
O3 C20 1_555 1_555
O4 C22 1_555 1_555
O5 C13 1_555 1_555
O6 C9 1_555 1_555
O7 C26 1_555 1_555
O8 C28 1_555 1_555
O9 C15 1_555 1_555
O10 C31 1_555 1_555
O11 C37 1_555 1_555
C7 C8 1_555 1_555
C8 H8 1_555 1_555
C9 C8 1_555 1_555
C10 C9 1_555 1_555
H9 C10 1_555 1_555
C11 C10 1_555 1_555
C12 C7 1_555 1_555
H10 C12 1_555 1_555
C13 C14 1_555 1_555
C14 H11 1_555 1_555
C15 C14 1_555 1_555
C16 C15 1_555 1_555
H12 C16 1_555 1_555
C17 C16 1_555 1_555
C18 C13 1_555 1_555
H13 C18 1_555 1_555
C19 O2 1_555 1_555
H14 C19 1_555 1_555
H15 C19 1_555 1_555
C20 C19 1_555 1_555
H16 C20 1_555 1_555
H17 C20 1_555 1_555
C21 O3 1_555 1_555
H18 C21 1_555 1_555
H19 C21 1_555 1_555
C22 C21 1_555 1_555
H20 C22 1_555 1_555
H21 C22 1_555 1_555
C23 O4 1_555 1_555
H22 C23 1_555 1_555
H23 C23 1_555 1_555
C24 O5 1_555 1_555
H24 C24 1_555 1_555
H25 C24 1_555 1_555
C25 O6 1_555 1_555
H26 C25 1_555 1_555
H27 C25 1_555 1_555
C26 C25 1_555 1_555
H28 C26 1_555 1_555
H29 C26 1_555 1_555
C27 O7 1_555 1_555
H30 C27 1_555 1_555
H31 C27 1_555 1_555
C28 C27 1_555 1_555
H32 C28 1_555 1_555
H33 C28 1_555 1_555
C29 O8 1_555 1_555
H34 C29 1_555 1_555
H35 C29 1_555 1_555
C30 O9 1_555 1_555
H36 C30 1_555 1_555
H37 C30 1_555 1_555
C31 C11 1_555 1_555
H38 C31 1_555 1_555
H39 C31 1_555 1_555
C32 O10 1_555 1_555
H40 C32 1_555 1_555
H41 C32 1_555 1_555
C33 C32 1_555 1_555
H42 C33 1_555 1_555
H43 C33 1_555 1_555
C34 C33 1_555 1_555
H44 C34 1_555 1_555
H45 C34 1_555 1_555
C35 C34 1_555 1_555
H46 C35 1_555 1_555
H47 C35 1_555 1_555
C36 C35 1_555 1_555
H48 C36 1_555 1_555
H49 C36 1_555 1_555
C37 C36 1_555 1_555
H50 C37 1_555 1_555
H51 C37 1_555 1_555
C38 O11 1_555 1_555
H52 C38 1_555 1_555
H53 C38 1_555 1_555
P1 F1 1_555 1_555
F2 P1 1_555 1_555
F3 P1 1_555 1_555
N1B C1B 1_555 1_555
C1B H1B 1_555 1_555
C2B C1B 1_555 1_555
H2B C2B 1_555 1_555
C3B C3 1_555 1_555
C4B C3B 1_555 1_555
H3B C4B 1_555 1_555
C5B N1B 1_555 1_555
H4B C5B 1_555 1_555
C6B N1B 1_555 1_555
H5B C6B 1_555 1_555
H6B C6B 1_555 1_555
H7B C6B 1_555 1_555
F1B P1 1_555 1_555
F2B P1 1_555 1_555
F3B P1 1_555 1_555
C4 C5 1_555 1_555
C11 C12 1_555 1_555
C17 C18 1_555 1_555
C17 C38 1_555 1_555
C23 C24 1_555 1_555
C29 C30 1_555 1_555
C2B C3B 1_555 1_555
C4B C5B 1_555 1_555

#END
