
#######################################################################
#
#                 Cambridge Crystallographic Data Centre
#                                CCDC 
#
#######################################################################
#
# If this CIF has been generated from an entry in the Cambridge 
# Structural Database, then it will include bibliographic, chemical, 
# crystal, experimental, refinement or atomic coordinate data resulting 
# from the CCDC's data processing and validation procedures.
#
#######################################################################

data_KUXGEP10
_chemical_compound_source        'Seeds of Celastraceae gemmatus loes'
_chemical_formula_moiety         'C28 H36 O8'
_chemical_name_systematic        
1\b,2\b-Diacetoxy-9\a-(3-phenyl-2-oxiranylcarboxy)-\b-dihydroagarofuran
_chemical_properties_biological  'insecticidal activity'
_symmetry_cell_setting           orthorhombic
_symmetry_space_group_name_H-M   'P 21 21 21'
_symmetry_Int_Tables_number      19
_space_group_name_Hall           'P 2ac 2ab'
loop_
_symmetry_equiv_pos_site_id
_symmetry_equiv_pos_as_xyz
1 x,y,z
2 1/2-x,-y,1/2+z
3 1/2+x,1/2-y,-z
4 -x,1/2+y,1/2-z
_cell_length_a                   8.976(1)
_cell_length_b                   10.800(1)
_cell_length_c                   27.401(3)
_cell_angle_alpha                90
_cell_angle_beta                 90
_cell_angle_gamma                90
_cell_volume                     2656.27
_exptl_crystal_colour            colorless
_cell_formula_units_Z            4
loop_
_atom_site_label
_atom_site_type_symbol
_atom_site_fract_x
_atom_site_fract_y
_atom_site_fract_z
O1 O 0.1586(2) 0.3984(2) 0.34710(7)
O2 O 0.2661(2) 0.1571(2) 0.31703(7)
O3 O 0.4194(3) -0.0002(2) 0.29687(9)
O4 O 0.0369(3) -0.0084(3) 0.33162(9)
O5 O 0.5317(2) 0.1805(2) 0.38517(8)
O6 O 0.4029(3) 0.0532(2) 0.43444(9)
O7 O 0.6009(2) 0.3981(2) 0.43242(8)
O8 O 0.6641(3) 0.2494(3) 0.48596(9)
C1 C 0.4174(3) 0.2754(3) 0.3883(1)
C2 C 0.4463(4) 0.3562(3) 0.4326(1)
C3 C 0.3400(4) 0.4664(3) 0.4330(1)
C4 C 0.3281(4) 0.5394(3) 0.3853(1)
C5 C 0.3064(3) 0.4530(3) 0.3416(1)
C6 C 0.2996(4) 0.5197(3) 0.2919(1)
C7 C 0.2006(4) 0.4294(3) 0.2643(1)
C8 C 0.2934(4) 0.3130(3) 0.2531(1)
C9 C 0.3686(3) 0.2509(3) 0.2977(1)
C10 C 0.4172(3) 0.3420(3) 0.3384(1)
C11 C 0.0760(4) 0.4101(3) 0.3014(1)
C12 C -0.0285(4) 0.5217(4) 0.3045(1)
C13 C -0.0203(4) 0.2948(4) 0.2948(1)
C14 C 0.3049(4) 0.0388(3) 0.3131(1)
C15 C 0.1877(4) -0.0467(3) 0.3331(1)
C16 C 0.1065(4) -0.0175(3) 0.3782(1)
C17 C 0.0555(4) -0.1201(3) 0.4103(1)
C18 C 0.1126(5) -0.1267(4) 0.4571(1)
C19 C 0.0713(6) -0.2233(5) 0.4870(1)
C20 C -0.0276(5) -0.3109(4) 0.4717(1)
C21 C -0.0884(5) -0.3015(4) 0.4262(2)
C22 C -0.0462(4) -0.2061(3) 0.3953(1)
C23 C 0.5127(4) 0.0764(3) 0.4110(1)
C24 C 0.6439(5) -0.0072(4) 0.4061(2)
C25 C 0.5767(4) 0.3846(3) 0.3239(1)
C26 C 0.6995(4) 0.3275(3) 0.4575(1)
C27 C 0.8555(4) 0.3575(4) 0.4446(1)
C28 C 0.4500(5) 0.6384(4) 0.3801(1)
H1 H 0.318(3) 0.239(3) 0.396(1)
H2 H 0.430(3) 0.30(3) 0.461(1)
H3 H 0.251(3) 0.440(3) 0.441(1)
H4 H 0.363(3) 0.516(3) 0.458(1)
H5 H 0.239(3) 0.587(3) 0.386(1)
H6 H 0.250(4) 0.615(3) 0.300(1)
H7 H 0.400(3) 0.538(3) 0.279(1)
H8 H 0.155(3) 0.462(3) 0.236(1)
H9 H 0.240(4) 0.248(3) 0.233(1)
H10 H 0.386(4) 0.330(3) 0.229(1)
H11 H 0.457(4) 0.204(3) 0.288(1)
H12 H -0.081(3) 0.532(3) 0.273(1)
H13 H 0.020(3) 0.608(3) 0.314(1)
H14 H -0.092(4) 0.517(4) 0.327(1)
H15 H 0.041(3) 0.209(3) 0.296(1)
H16 H -0.085(4) 0.282(3) 0.324(1)
H17 H -0.066(3) 0.301(3) 0.270(1)
H18 H 0.205(3) -0.141(3) 0.323(1)
H19 H 0.127(3) 0.074(3) 0.393(1)
H20 H 0.178(3) -0.058(3) 0.465(1)
H21 H 0.121(3) -0.231(3) 0.518(1)
H22 H -0.063(3) -0.389(3) 0.495(1)
H23 H -0.155(4) -0.362(3) 0.416(1)
H24 H -0.079(3) -0.204(3) 0.361(1)
H25 H 0.610(4) 0.4390(4) 0.342(1)
H26 H 0.579(3) 0.410(3) 0.290(1)
H27 H 0.643(3) 0.329(3) 0.330(1)
H28 H 0.909(3) 0.289(3) 0.445(1)
H29 H 0.876(4) 0.401(3) 0.416(1)
H30 H 0.916(4) 0.395(3) 0.475(1)
H31 H 0.675(3) -0.018(3) 0.374(1)
H32 H 0.738(3) 0.038(3) 0.417(1)
H33 H 0.417(3) 0.710(3) 0.407(1)
H34 H 0.544(3) 0.604(3) 0.387(1)
H35 H 0.453(3) 0.676(3) 0.3429(9)
H36 H 0.606(3) -0.099(3) 0.4151(9)
loop_
_geom_bond_atom_site_label_1
_geom_bond_atom_site_label_2
_geom_bond_site_symmetry_1
_geom_bond_site_symmetry_2
O1 C5 1_555 1_555
O2 C9 1_555 1_555
O3 C14 1_555 1_555
O4 C15 1_555 1_555
O5 C1 1_555 1_555
O6 C23 1_555 1_555
O7 C2 1_555 1_555
O8 C26 1_555 1_555
C1 C2 1_555 1_555
C2 C3 1_555 1_555
C3 C4 1_555 1_555
C4 C5 1_555 1_555
C5 C6 1_555 1_555
C6 C7 1_555 1_555
C7 C8 1_555 1_555
C8 C9 1_555 1_555
C9 C10 1_555 1_555
C10 C1 1_555 1_555
C11 O1 1_555 1_555
C12 C11 1_555 1_555
C13 C11 1_555 1_555
C14 O2 1_555 1_555
C15 C14 1_555 1_555
C16 O4 1_555 1_555
C17 C16 1_555 1_555
C18 C17 1_555 1_555
C19 C18 1_555 1_555
C20 C19 1_555 1_555
C21 C20 1_555 1_555
C22 C17 1_555 1_555
C23 O5 1_555 1_555
C24 C23 1_555 1_555
C25 C10 1_555 1_555
C26 O7 1_555 1_555
C27 C26 1_555 1_555
C28 C4 1_555 1_555
H1 C1 1_555 1_555
H2 C2 1_555 1_555
H3 C3 1_555 1_555
H4 C3 1_555 1_555
H5 C4 1_555 1_555
H6 C6 1_555 1_555
H7 C6 1_555 1_555
H8 C7 1_555 1_555
H9 C8 1_555 1_555
H10 C8 1_555 1_555
H11 C9 1_555 1_555
H12 C12 1_555 1_555
H13 C12 1_555 1_555
H14 C12 1_555 1_555
H15 C13 1_555 1_555
H16 C13 1_555 1_555
H17 C13 1_555 1_555
H18 C15 1_555 1_555
H19 C16 1_555 1_555
H20 C18 1_555 1_555
H21 C19 1_555 1_555
H22 C20 1_555 1_555
H23 C21 1_555 1_555
H24 C22 1_555 1_555
H25 C25 1_555 1_555
H26 C25 1_555 1_555
H27 C25 1_555 1_555
H28 C27 1_555 1_555
H29 C27 1_555 1_555
H30 C27 1_555 1_555
H31 C24 1_555 1_555
H32 C24 1_555 1_555
H33 C28 1_555 1_555
H34 C28 1_555 1_555
H35 C28 1_555 1_555
H36 C24 1_555 1_555
C5 C10 1_555 1_555
C7 C11 1_555 1_555
C15 C16 1_555 1_555
C21 C22 1_555 1_555

#END
