
#######################################################################
#
#                 Cambridge Crystallographic Data Centre
#                                CCDC 
#
#######################################################################
#
# If this CIF has been generated from an entry in the Cambridge 
# Structural Database, then it will include bibliographic, chemical, 
# crystal, experimental, refinement or atomic coordinate data resulting 
# from the CCDC's data processing and validation procedures.
#
#######################################################################

data_KUXHAN
_chemical_formula_moiety         'C26 H20 B1 O1 P1'
_chemical_name_systematic        
trihydido(4-phenyl-4H-dinaphtho[2,1-c:1',2'-e][1,2]oxaphosphinine)boron
_symmetry_cell_setting           triclinic
_symmetry_space_group_name_H-M   'P -1'
_symmetry_Int_Tables_number      2
_space_group_name_Hall           '-P 1'
loop_
_symmetry_equiv_pos_site_id
_symmetry_equiv_pos_as_xyz
1 x,y,z
2 -x,-y,-z
_cell_length_a                   9.797(2)
_cell_length_b                   10.776(2)
_cell_length_c                   11.669(2)
_cell_angle_alpha                73.24(3)
_cell_angle_beta                 66.67(3)
_cell_angle_gamma                65.46(3)
_cell_volume                     1017.64
_exptl_crystal_colour            colorless
_exptl_crystal_description       prism
_cell_formula_units_Z            2
loop_
_atom_site_label
_atom_site_type_symbol
_atom_site_fract_x
_atom_site_fract_y
_atom_site_fract_z
B1 B 1.1939(3) 1.2445(2) 0.0032(2)
C1 C 0.83357(19) 1.07055(16) 0.14800(16)
C2 C 0.67673(19) 1.12776(17) 0.14680(17)
H1 H 0.6446 1.2087 0.0900
C3 C 0.57122(19) 1.06543(17) 0.22831(18)
H2 H 0.4662 1.1004 0.2250
C4 C 0.61582(19) 0.94921(17) 0.31791(17)
C5 C 0.5036(2) 0.89093(19) 0.41052(18)
H3 H 0.3978 0.9265 0.4091
C6 C 0.5451(2) 0.7849(2) 0.50143(19)
H4 H 0.4689 0.7459 0.5618
C7 C 0.7001(2) 0.73308(19) 0.50612(18)
H5 H 0.7270 0.6618 0.5720
C8 C 0.8135(2) 0.78407(17) 0.41676(17)
H6 H 0.9182 0.7469 0.4210
C9 C 0.77627(18) 0.89176(16) 0.31803(16)
C10 C 0.89112(18) 0.94897(16) 0.22240(16)
C11 C 1.06478(18) 0.88624(16) 0.20189(15)
C12 C 1.15051(19) 0.97339(17) 0.17276(16)
C13 C 1.3150(2) 0.91874(19) 0.15711(17)
H7 H 1.3713 0.9796 0.1380
C14 C 1.3925(2) 0.78009(19) 0.16924(18)
H8 H 1.4996 0.7445 0.1678
C15 C 1.31493(19) 0.68805(17) 0.18408(16)
C16 C 1.4004(2) 0.54588(19) 0.17503(19)
H9 H 1.5089 0.5091 0.1695
C17 C 1.3292(2) 0.46175(19) 0.1742(2)
H10 H 1.3883 0.3670 0.1678
C18 C 1.1688(2) 0.51414(18) 0.18272(19)
H11 H 1.1207 0.4551 0.1797
C19 C 1.0813(2) 0.64938(16) 0.19529(17)
H12 H 0.9725 0.6828 0.2022
C20 C 1.15008(18) 0.74099(16) 0.19826(15)
C21 C 0.93034(18) 1.23890(17) 0.26133(16)
C22 C 0.8417(2) 1.37906(18) 0.24197(19)
H13 H 0.8445 1.4254 0.1588
C23 C 0.7501(2) 1.4504(2) 0.3435(2)
H14 H 0.6905 1.5457 0.3300
C24 C 0.7450(2) 1.3831(2) 0.46481(19)
H15 H 0.6820 1.4324 0.5345
C25 C 0.8315(2) 1.2445(2) 0.48477(18)
H16 H 0.8276 1.1983 0.5681
C26 C 0.9239(2) 1.17264(18) 0.38306(18)
H17 H 0.9833 1.0773 0.3971
O1 O 0.93395(13) 1.14408(11) 0.06631(11)
P1 P 1.05525(5) 1.15341(4) 0.12419(4)
H18 H 1.119(2) 1.351(2) -0.0179(19)
H19 H 1.270(2) 1.236(2) 0.057(2)
H20 H 1.261(2) 1.186(2) -0.076(2)
loop_
_geom_bond_atom_site_label_1
_geom_bond_atom_site_label_2
_geom_bond_site_symmetry_1
_geom_bond_site_symmetry_2
B1 P1 1_555 1_555
C1 C2 1_555 1_555
C2 H1 1_555 1_555
C3 C2 1_555 1_555
H2 C3 1_555 1_555
C4 C3 1_555 1_555
C5 C4 1_555 1_555
H3 C5 1_555 1_555
C6 C5 1_555 1_555
H4 C6 1_555 1_555
C7 C6 1_555 1_555
H5 C7 1_555 1_555
C8 C7 1_555 1_555
H6 C8 1_555 1_555
C9 C4 1_555 1_555
C10 C1 1_555 1_555
C11 C10 1_555 1_555
C12 C11 1_555 1_555
C13 C12 1_555 1_555
H7 C13 1_555 1_555
C14 C13 1_555 1_555
H8 C14 1_555 1_555
C15 C14 1_555 1_555
C16 C15 1_555 1_555
H9 C16 1_555 1_555
C17 C16 1_555 1_555
H10 C17 1_555 1_555
C18 C17 1_555 1_555
H11 C18 1_555 1_555
C19 C18 1_555 1_555
H12 C19 1_555 1_555
C20 C11 1_555 1_555
C21 C22 1_555 1_555
C22 H13 1_555 1_555
C23 C22 1_555 1_555
H14 C23 1_555 1_555
C24 C23 1_555 1_555
H15 C24 1_555 1_555
C25 C24 1_555 1_555
H16 C25 1_555 1_555
C26 C21 1_555 1_555
H17 C26 1_555 1_555
O1 C1 1_555 1_555
P1 C12 1_555 1_555
H18 B1 1_555 1_555
H19 B1 1_555 1_555
H20 B1 1_555 1_555
C8 C9 1_555 1_555
C9 C10 1_555 1_555
C15 C20 1_555 1_555
C19 C20 1_555 1_555
C21 P1 1_555 1_555
C25 C26 1_555 1_555
O1 P1 1_555 1_555

#END
