
#######################################################################
#
#                 Cambridge Crystallographic Data Centre
#                                CCDC 
#
#######################################################################
#
# If this CIF has been generated from an entry in the Cambridge 
# Structural Database, then it will include bibliographic, chemical, 
# crystal, experimental, refinement or atomic coordinate data resulting 
# from the CCDC's data processing and validation procedures.
#
#######################################################################

data_KUXHER
_chemical_formula_moiety         'C30 H31 O3 P1'
_chemical_name_systematic        
"4-((2-Isopropyl-5-methylcyclohexyl)oxy)-4H-dinaphtho[2,1-c:1',2'-e][1,2]oxaphosphinine 4-oxide"
_symmetry_cell_setting           monoclinic
_symmetry_space_group_name_H-M   'P 21'
_symmetry_Int_Tables_number      4
_space_group_name_Hall           'P 2yb'
loop_
_symmetry_equiv_pos_site_id
_symmetry_equiv_pos_as_xyz
1 x,y,z
2 -x,1/2+y,-z
_cell_length_a                   11.2826(6)
_cell_length_b                   16.4347(6)
_cell_length_c                   14.0591(8)
_cell_angle_alpha                90
_cell_angle_beta                 104.056(4)
_cell_angle_gamma                90
_cell_volume                     2528.87
_exptl_crystal_colour            colorless
_exptl_crystal_description       prism
_cell_formula_units_Z            4
loop_
_atom_site_label
_atom_site_type_symbol
_atom_site_fract_x
_atom_site_fract_y
_atom_site_fract_z
C1 C -0.40347(19) -0.26332(12) -0.74026(13)
C2 C -0.3343(2) -0.33139(12) -0.69638(15)
H1 H -0.3388 -0.3483 -0.6327
C3 C -0.2622(2) -0.37256(13) -0.74361(14)
H2 H -0.2231 -0.4213 -0.7162
C4 C -0.2446(2) -0.34343(11) -0.83336(14)
C5 C -0.1534(2) -0.37642(13) -0.87521(16)
H3 H -0.1107 -0.4237 -0.8468
C6 C -0.1250(2) -0.34268(13) -0.95431(16)
H4 H -0.0625 -0.3658 -0.9804
C7 C -0.1879(2) -0.27341(13) -0.99792(16)
H5 H -0.1661 -0.2485 -1.0523
C8 C -0.2801(2) -0.24175(12) -0.96255(14)
H6 H -0.3236 -0.1958 -0.9942
C9 C -0.31283(19) -0.27535(11) -0.87994(14)
C10 C -0.40170(18) -0.23870(11) -0.83487(13)
C11 C -0.48278(18) -0.17136(11) -0.88006(14)
C12 C -0.54556(18) -0.16756(13) -0.98293(14)
C13 C -0.55134(19) -0.23394(13) -1.04683(14)
H7 H -0.5109 -0.2832 -1.0229
C14 C -0.6144(2) -0.22881(16) -1.14314(15)
H8 H -0.6181 -0.2746 -1.1850
C15 C -0.6737(2) -0.15639(16) -1.18028(15)
H9 H -0.7145 -0.1526 -1.2477
C16 C -0.6727(2) -0.09227(14) -1.12057(15)
H10 H -0.7135 -0.0436 -1.1464
C17 C -0.61165(19) -0.09613(12) -1.01960(15)
C18 C -0.6186(2) -0.03173(13) -0.95576(16)
H11 H -0.6576 0.0174 -0.9818
C19 C -0.5713(2) -0.03790(13) -0.85791(17)
H12 H -0.5802 0.0050 -0.8149
C20 C -0.5081(2) -0.11002(13) -0.82165(14)
C21 C -0.4311(2) -0.20414(15) -0.47674(14)
H13 H -0.5147 -0.2285 -0.4902
C22 C -0.43068(18) -0.12280(14) -0.42647(13)
H14 H -0.3475 -0.0987 -0.4187
C23 C -0.4488(2) -0.13789(19) -0.32240(15)
H15 H -0.4412 -0.0855 -0.2867
H16 H -0.5325 -0.1588 -0.3278
C24 C -0.3585(2) -0.19717(18) -0.26453(14)
H17 H -0.3762 -0.2057 -0.1997
H18 H -0.2753 -0.1740 -0.2536
C25 C -0.3625(2) -0.27877(16) -0.31666(14)
H19 H -0.4466 -0.3017 -0.3261
C26 C -0.3391(2) -0.26323(13) -0.41789(14)
H20 H -0.2557 -0.2410 -0.4100
H21 H -0.3439 -0.3154 -0.4539
C27 C -0.5232(2) -0.06232(16) -0.48632(15)
H22 H -0.5109 -0.0633 -0.5544
C28 C -0.4955(3) 0.02478(17) -0.4488(2)
H23 H -0.4097 0.0375 -0.4451
H24 H -0.5111 0.0297 -0.3834
H25 H -0.5482 0.0628 -0.4937
C29 C -0.6563(2) -0.0848(2) -0.4951(2)
H26 H -0.6711 -0.1403 -0.5207
H27 H -0.7092 -0.0469 -0.5399
H28 H -0.6741 -0.0818 -0.4304
C30 C -0.2712(3) -0.34136(16) -0.26042(17)
H29 H -0.2874 -0.3511 -0.1960
H30 H -0.1878 -0.3206 -0.2519
H31 H -0.2799 -0.3925 -0.2974
O1 O -0.60689(13) -0.22709(9) -0.67464(10)
O2 O -0.46935(14) -0.11530(8) -0.71954(9)
O3 O -0.39508(13) -0.19153(9) -0.56996(9)
P1 P -0.48306(6) -0.20275(3) -0.67310(4)
C31 C -0.89588(19) -0.50913(12) -0.74124(14)
C32 C -0.8277(2) -0.43995(12) -0.70185(15)
H32 H -0.8328 -0.4192 -0.6399
C33 C -0.7545(2) -0.40291(13) -0.75260(15)
H33 H -0.7136 -0.3539 -0.7284
C34 C -0.7388(2) -0.43669(12) -0.84091(15)
C35 C -0.6504(2) -0.40486(13) -0.88725(16)
H34 H -0.6063 -0.3572 -0.8620
C36 C -0.6283(2) -0.44186(14) -0.96734(18)
H35 H -0.5687 -0.4200 -0.9976
C37 C -0.6924(2) -0.51180(13) -1.00571(17)
H36 H -0.6748 -0.5379 -1.0610
C38 C -0.7801(2) -0.54290(12) -0.96440(15)
H37 H -0.8235 -0.5903 -0.9919
C39 C -0.80797(19) -0.50633(11) -0.88173(14)
C40 C -0.89538(18) -0.53899(11) -0.83300(14)
C41 C -0.97827(18) -0.60812(12) -0.87312(14)
C42 C -1.04284(18) -0.61497(13) -0.97376(14)
C43 C -1.05041(19) -0.55122(15) -1.04217(14)
H38 H -1.0097 -0.5013 -1.0216
C44 C -1.1152(2) -0.55968(17) -1.13754(15)
H39 H -1.1200 -0.5155 -1.1818
C45 C -1.1742(2) -0.63251(17) -1.17016(16)
H40 H -1.2166 -0.6385 -1.2370
C46 C -1.1709(2) -0.69472(16) -1.10655(17)
H41 H -1.2120 -0.7440 -1.1295
C47 C -1.1080(2) -0.68823(14) -1.00696(15)
C48 C -1.1125(2) -0.75008(14) -0.93874(17)
H42 H -1.1508 -0.8004 -0.9609
C49 C -1.0626(2) -0.73863(13) -0.84123(18)
H43 H -1.0702 -0.7794 -0.7952
C50 C -1.00064(18) -0.66680(12) -0.80981(14)
C51 C -0.9416(2) -0.57164(13) -0.47666(13)
H44 H -1.0171 -0.5378 -0.4852
C52 C -0.8433(2) -0.53808(13) -0.39216(13)
H45 H -0.7669 -0.5694 -0.3904
C53 C -0.8787(2) -0.55472(15) -0.29494(14)
H46 H -0.8107 -0.5378 -0.2397
H47 H -0.9512 -0.5216 -0.2924
C54 C -0.9070(2) -0.64332(14) -0.28312(14)
H48 H -0.9302 -0.6512 -0.2202
H49 H -0.8330 -0.6763 -0.2813
C55 C -1.01028(19) -0.67212(12) -0.36692(14)
H50 H -1.0828 -0.6367 -0.3685
C56 C -0.97258(19) -0.65982(12) -0.46250(14)
H51 H -0.9006 -0.6942 -0.4625
H52 H -1.0400 -0.6772 -0.5179
C57 C -0.8152(2) -0.44819(13) -0.40668(15)
H53 H -0.7992 -0.4438 -0.4734
C58 C -0.6984(3) -0.42124(18) -0.33410(19)
H54 H -0.6321 -0.4590 -0.3369
H55 H -0.7115 -0.4211 -0.2677
H56 H -0.6765 -0.3663 -0.3510
C59 C -0.9185(3) -0.39167(15) -0.4056(2)
H57 H -0.9923 -0.4105 -0.4528
H58 H -0.8978 -0.3368 -0.4235
H59 H -0.9334 -0.3906 -0.3397
C60 C -1.0477(2) -0.75961(13) -0.35487(17)
H60 H -1.1149 -0.7748 -0.4105
H61 H -1.0745 -0.7648 -0.2939
H62 H -0.9779 -0.7957 -0.3525
O4 O -1.10615(13) -0.54360(8) -0.67816(9)
O5 O -0.96123(13) -0.65638(8) -0.70830(10)
O6 O -0.89395(12) -0.56490(9) -0.56500(9)
P2 P -0.97906(5) -0.56559(3) -0.67065(4)
loop_
_geom_bond_atom_site_label_1
_geom_bond_atom_site_label_2
_geom_bond_site_symmetry_1
_geom_bond_site_symmetry_2
C1 C2 1_555 1_555
C2 H1 1_555 1_555
C3 C2 1_555 1_555
H2 C3 1_555 1_555
C4 C3 1_555 1_555
C5 C4 1_555 1_555
H3 C5 1_555 1_555
C6 C5 1_555 1_555
H4 C6 1_555 1_555
C7 C6 1_555 1_555
H5 C7 1_555 1_555
C8 C7 1_555 1_555
H6 C8 1_555 1_555
C9 C4 1_555 1_555
C10 C1 1_555 1_555
C11 C10 1_555 1_555
C12 C11 1_555 1_555
C13 C12 1_555 1_555
H7 C13 1_555 1_555
C14 C13 1_555 1_555
H8 C14 1_555 1_555
C15 C14 1_555 1_555
H9 C15 1_555 1_555
C16 C15 1_555 1_555
H10 C16 1_555 1_555
C17 C12 1_555 1_555
C18 C17 1_555 1_555
H11 C18 1_555 1_555
C19 C18 1_555 1_555
H12 C19 1_555 1_555
C20 C11 1_555 1_555
C21 H13 1_555 1_555
C22 C21 1_555 1_555
H14 C22 1_555 1_555
C23 C22 1_555 1_555
H15 C23 1_555 1_555
H16 C23 1_555 1_555
C24 C23 1_555 1_555
H17 C24 1_555 1_555
H18 C24 1_555 1_555
C25 C24 1_555 1_555
H19 C25 1_555 1_555
C26 C21 1_555 1_555
H20 C26 1_555 1_555
H21 C26 1_555 1_555
C27 C22 1_555 1_555
H22 C27 1_555 1_555
C28 C27 1_555 1_555
H23 C28 1_555 1_555
H24 C28 1_555 1_555
H25 C28 1_555 1_555
C29 C27 1_555 1_555
H26 C29 1_555 1_555
H27 C29 1_555 1_555
H28 C29 1_555 1_555
C30 C25 1_555 1_555
H29 C30 1_555 1_555
H30 C30 1_555 1_555
H31 C30 1_555 1_555
O1 P1 1_555 1_555
O2 C20 1_555 1_555
O3 C21 1_555 1_555
P1 C1 1_555 1_555
C31 C32 1_555 1_555
C32 H32 1_555 1_555
C33 C32 1_555 1_555
H33 C33 1_555 1_555
C34 C33 1_555 1_555
C35 C34 1_555 1_555
H34 C35 1_555 1_555
C36 C35 1_555 1_555
H35 C36 1_555 1_555
C37 C36 1_555 1_555
H36 C37 1_555 1_555
C38 C37 1_555 1_555
H37 C38 1_555 1_555
C39 C34 1_555 1_555
C40 C31 1_555 1_555
C41 C40 1_555 1_555
C42 C41 1_555 1_555
C43 C42 1_555 1_555
H38 C43 1_555 1_555
C44 C43 1_555 1_555
H39 C44 1_555 1_555
C45 C44 1_555 1_555
H40 C45 1_555 1_555
C46 C45 1_555 1_555
H41 C46 1_555 1_555
C47 C42 1_555 1_555
C48 C47 1_555 1_555
H42 C48 1_555 1_555
C49 C48 1_555 1_555
H43 C49 1_555 1_555
C50 C41 1_555 1_555
C51 H44 1_555 1_555
C52 C51 1_555 1_555
H45 C52 1_555 1_555
C53 C52 1_555 1_555
H46 C53 1_555 1_555
H47 C53 1_555 1_555
C54 C53 1_555 1_555
H48 C54 1_555 1_555
H49 C54 1_555 1_555
C55 C54 1_555 1_555
H50 C55 1_555 1_555
C56 C51 1_555 1_555
H51 C56 1_555 1_555
H52 C56 1_555 1_555
C57 C52 1_555 1_555
H53 C57 1_555 1_555
C58 C57 1_555 1_555
H54 C58 1_555 1_555
H55 C58 1_555 1_555
H56 C58 1_555 1_555
C59 C57 1_555 1_555
H57 C59 1_555 1_555
H58 C59 1_555 1_555
H59 C59 1_555 1_555
C60 C55 1_555 1_555
H60 C60 1_555 1_555
H61 C60 1_555 1_555
H62 C60 1_555 1_555
O4 P2 1_555 1_555
O5 C50 1_555 1_555
O6 C51 1_555 1_555
P2 C31 1_555 1_555
C8 C9 1_555 1_555
C9 C10 1_555 1_555
C16 C17 1_555 1_555
C19 C20 1_555 1_555
C25 C26 1_555 1_555
O2 P1 1_555 1_555
O3 P1 1_555 1_555
C38 C39 1_555 1_555
C39 C40 1_555 1_555
C46 C47 1_555 1_555
C49 C50 1_555 1_555
C55 C56 1_555 1_555
O5 P2 1_555 1_555
O6 P2 1_555 1_555

#END
