
#######################################################################
#
#                 Cambridge Crystallographic Data Centre
#                                CCDC 
#
#######################################################################
#
# If this CIF has been generated from an entry in the Cambridge 
# Structural Database, then it will include bibliographic, chemical, 
# crystal, experimental, refinement or atomic coordinate data resulting 
# from the CCDC's data processing and validation procedures.
#
#######################################################################

data_KUXJOE
_chemical_formula_moiety         'C22 H19 N1 O2'
_chemical_name_systematic        
9-(1-methyl-1H-indol-3-yl)-2,3,4,9-tetrahydro-1H-xanthen-1-one
_symmetry_cell_setting           orthorhombic
_symmetry_space_group_name_H-M   'P 21 21 21'
_symmetry_Int_Tables_number      19
_space_group_name_Hall           'P 2ac 2ab'
loop_
_symmetry_equiv_pos_site_id
_symmetry_equiv_pos_as_xyz
1 x,y,z
2 1/2-x,-y,1/2+z
3 -x,1/2+y,1/2-z
4 1/2+x,1/2-y,-z
_cell_length_a                   8.4025(6)
_cell_length_b                   8.9518(6)
_cell_length_c                   22.4061(15)
_cell_angle_alpha                90
_cell_angle_beta                 90
_cell_angle_gamma                90
_cell_volume                     1685.33
_exptl_crystal_colour            colorless
_exptl_crystal_description       Needle
_cell_formula_units_Z            4
loop_
_atom_site_label
_atom_site_type_symbol
_atom_site_fract_x
_atom_site_fract_y
_atom_site_fract_z
C1 C 0.2721(3) 0.5194(2) 0.15257(9)
N1 N 0.3582(3) 0.3766(2) 0.22844(8)
O1 O 0.2868(3) 0.7877(2) 0.01619(8)
C2 C 0.1797(3) 0.7705(3) 0.11459(10)
C3 C 0.2300(3) 0.4469(3) 0.20351(10)
H1 H 0.1277 0.4454 0.2193
C4 C 0.4881(3) 0.4024(2) 0.19308(10)
C5 C 0.4396(3) 0.4929(2) 0.14454(9)
C6 C 0.1602(3) 0.6027(2) 0.11166(9)
H2 H 0.0514 0.5794 0.1244
O2 O 0.0426(3) 0.7845(3) 0.20455(10)
C7 C 0.2422(3) 0.8491(3) 0.06922(11)
C8 C 0.1172(3) 0.8499(3) 0.16580(11)
C9 C 0.1776(3) 0.5506(3) 0.04778(10)
C10 C 0.6451(3) 0.3531(3) 0.19913(13)
H3 H 0.6751 0.2914 0.2306
C11 C 0.5539(3) 0.5368(3) 0.10257(10)
H4 H 0.5258 0.5968 0.0703
C12 C 0.2419(3) 0.6413(3) 0.00450(10)
C13 C 0.7522(3) 0.3981(3) 0.15769(12)
H5 H 0.8575 0.3674 0.1611
C14 C 0.1345(4) 0.4055(3) 0.03079(12)
H6 H 0.0874 0.3420 0.0585
C15 C 0.7086(3) 0.4895(3) 0.10996(12)
H7 H 0.7856 0.5191 0.0826
C16 C 0.1393(4) 1.0166(3) 0.16899(15)
H8 H 0.0419 1.0648 0.1560
H9 H 0.1576 1.0448 0.2102
C17 C 0.2691(5) 1.0129(3) 0.06962(14)
H10 H 0.1842 1.0618 0.0477
H11 H 0.3687 1.0351 0.0496
C18 C 0.3577(4) 0.2891(4) 0.28301(12)
H12 H 0.2511 0.2826 0.2982
H13 H 0.4247 0.3364 0.3121
H14 H 0.3971 0.1906 0.2748
C19 C 0.2744(5) 1.0729(3) 0.13180(15)
H15 H 0.2706 1.1812 0.1304
H16 H 0.3742 1.0442 0.1503
C20 C 0.2253(5) 0.4507(4) -0.06873(14)
H17 H 0.2392 0.4176 -0.1077
C21 C 0.2688(4) 0.5937(4) -0.05382(12)
H18 H 0.3149 0.6570 -0.0818
C22 C 0.1613(5) 0.3554(4) -0.02692(14)
H19 H 0.1361 0.2576 -0.0373
loop_
_geom_bond_atom_site_label_1
_geom_bond_atom_site_label_2
_geom_bond_site_symmetry_1
_geom_bond_site_symmetry_2
C1 C3 1_555 1_555
N1 C3 1_555 1_555
O1 C7 1_555 1_555
C2 C6 1_555 1_555
C3 H1 1_555 1_555
C4 N1 1_555 1_555
C5 C1 1_555 1_555
C6 C1 1_555 1_555
H2 C6 1_555 1_555
O2 C8 1_555 1_555
C7 C2 1_555 1_555
C8 C2 1_555 1_555
C9 C6 1_555 1_555
C10 C4 1_555 1_555
H3 C10 1_555 1_555
C11 C5 1_555 1_555
H4 C11 1_555 1_555
C12 O1 1_555 1_555
C13 C10 1_555 1_555
H5 C13 1_555 1_555
C14 C9 1_555 1_555
H6 C14 1_555 1_555
C15 C11 1_555 1_555
H7 C15 1_555 1_555
C16 C8 1_555 1_555
H8 C16 1_555 1_555
H9 C16 1_555 1_555
C17 C7 1_555 1_555
H10 C17 1_555 1_555
H11 C17 1_555 1_555
C18 N1 1_555 1_555
H12 C18 1_555 1_555
H13 C18 1_555 1_555
H14 C18 1_555 1_555
C19 C16 1_555 1_555
H15 C19 1_555 1_555
H16 C19 1_555 1_555
C20 H17 1_555 1_555
C21 C12 1_555 1_555
H18 C21 1_555 1_555
C22 C14 1_555 1_555
H19 C22 1_555 1_555
C4 C5 1_555 1_555
C9 C12 1_555 1_555
C13 C15 1_555 1_555
C17 C19 1_555 1_555
C20 C21 1_555 1_555
C20 C22 1_555 1_555

#END
