
#######################################################################
#
#                 Cambridge Crystallographic Data Centre
#                                CCDC 
#
#######################################################################
#
# If this CIF has been generated from an entry in the Cambridge 
# Structural Database, then it will include bibliographic, chemical, 
# crystal, experimental, refinement or atomic coordinate data resulting 
# from the CCDC's data processing and validation procedures.
#
#######################################################################

data_KUXJOD
_chemical_formula_moiety         
'0.67(C44 H52 O16 S4 4-),3.67(Na1 1+),13.5(H2 O1),0.67(C1 H4 O1),0.33(C44 H53 O16 S4 3-)'
_chemical_name_systematic        
'5,11,17,23-tetrasulfonato-25,26,27,28-tetrakis(n-butoxy)calix[4]arene sodium methanol solvate hydrate'
_symmetry_cell_setting           monoclinic
_symmetry_space_group_name_H-M   'C 2/c'
_symmetry_Int_Tables_number      15
_space_group_name_Hall           '-C 2yn'
loop_
_symmetry_equiv_pos_site_id
_symmetry_equiv_pos_as_xyz
1 x,y,z
2 -x,y,1/2-z
3 1/2+x,1/2+y,z
4 1/2-x,1/2+y,1/2-z
5 -x,-y,-z
6 x,-y,1/2+z
7 1/2-x,1/2-y,-z
8 1/2+x,1/2-y,1/2+z
_cell_length_a                   12.549(3)
_cell_length_b                   39.482(5)
_cell_length_c                   38.878(9)
_cell_angle_alpha                90
_cell_angle_beta                 98.072(9)
_cell_angle_gamma                90
_cell_volume                     19071.6
_cell_formula_units_Z            12
loop_
_atom_site_label
_atom_site_type_symbol
_atom_site_fract_x
_atom_site_fract_y
_atom_site_fract_z
Na1 Na 0.3533(4) 0.25691(12) 0.61949(13)
Na2 Na 0.3718(4) 0.25272(12) 0.52789(12)
Na3 Na 0.6523(5) 0.25716(12) 0.67592(12)
Na4 Na 0.0464(7) 0.25421(19) 0.6214(2)
Na5 Na 0.5000 0.2484(2) 0.7500
O9 O 0.2156(7) 0.2899(2) 0.6428(2)
O10 O 0.4874(7) 0.2900(3) 0.6572(3)
O11 O 0.3135(6) 0.29305(19) 0.5675(2)
O12 O 0.4632(8) 0.2096(3) 0.4983(3)
O13 O 0.5427(7) 0.2182(2) 0.7044(2)
O14 O 0.0862(9) 0.2106(3) 0.6719(4)
O15 O 0.7448(7) 0.2962(2) 0.6424(2)
O16 O 0.5461(10) 0.2806(3) 0.5312(3)
O17 O 0.3394(10) 0.2112(3) 0.6595(3)
O18 O -0.1683(10) 0.2456(2) 0.6142(3)
O19 O 0.617(2) 0.1526(8) 0.3466(8)
O20 O -0.0049(13) 0.2869(6) 0.6715(5)
O21 O 0.8515(12) 0.2398(4) 0.7005(4)
C23 C 0.9317(13) 0.2371(4) 0.7365(4)
O21A O 1.1485(12) 0.2398(4) 0.7995(4)
C23A C 1.0683(13) 0.2371(4) 0.7635(4)
O22 O -0.4103(12) 0.3294(5) 0.3138(4)
O23 O 0.7806(10) 0.3343(5) 0.5493(6)
O24 O 0.4841(19) 0.1287(5) 0.3166(7)
O25 O -0.369(2) 0.3063(6) 0.4144(9)
O26 O -0.352(2) 0.3584(10) 0.4404(10)
O27 O -0.1793(17) 0.2621(6) 0.5359(6)
O28 O -0.333(5) 0.3558(16) 0.3652(16)
O29 O -0.240(3) 0.3277(8) 0.4891(8)
Na6 Na -0.1536(10) 0.2701(3) 0.4791(3)
S3 S 0.2701(3) 0.16801(12) 0.74031(11)
S4 S 0.5615(3) 0.21132(8) 0.59583(9)
S5 S 0.4249(2) 0.15235(7) 0.41846(7)
S6 S 0.1519(2) 0.21272(7) 0.55696(7)
O30 O 0.3310(7) 0.0729(2) 0.6251(2)
O31 O 0.5713(6) 0.06062(18) 0.60537(19)
O32 O 0.3621(6) 0.06817(19) 0.5413(2)
O33 O 0.1144(5) 0.06276(17) 0.56181(19)
O34 O 0.1595(8) 0.1625(6) 0.7465(4)
O35 O 0.3487(7) 0.1588(2) 0.7700(2)
O36 O 0.2903(16) 0.2022(3) 0.7279(4)
O37 O 0.4628(9) 0.2229(3) 0.5768(4)
O38 O 0.5730(19) 0.2231(3) 0.6317(3)
O39 O 0.6558(9) 0.2188(3) 0.5799(3)
O40 O 0.4177(7) 0.1879(2) 0.4294(2)
O41 O 0.5327(6) 0.1438(3) 0.4099(2)
O42 O 0.3379(7) 0.1436(2) 0.3902(2)
O43 O 0.0377(7) 0.2219(2) 0.5520(3)
O44 O 0.2071(9) 0.2251(2) 0.5905(2)
O45 O 0.2048(6) 0.22246(17) 0.52675(18)
C24 C 0.3149(9) 0.0955(3) 0.6515(3)
C25 C 0.2110(8) 0.1076(3) 0.6543(3)
C26 C 0.1994(9) 0.1291(3) 0.6824(3)
H27 H 0.1299 0.1371 0.6854
C27 C 0.2882(10) 0.1388(3) 0.7060(3)
C28 C 0.3935(9) 0.1293(3) 0.7005(3)
H28 H 0.4545 0.1376 0.7154
C29 C 0.4066(8) 0.1082(3) 0.6737(3)
C30 C 0.5193(9) 0.0982(3) 0.6656(3)
H29 H 0.5745 0.1053 0.6850
H30 H 0.5234 0.0733 0.6633
C31 C 0.5592(9) 0.0958(3) 0.6022(3)
C32 C 0.5411(8) 0.1148(3) 0.6323(3)
C33 C 0.5380(9) 0.1505(3) 0.6292(3)
H31 H 0.5230 0.1638 0.6483
C34 C 0.5562(8) 0.1667(3) 0.5988(3)
C35 C 0.5641(8) 0.1475(3) 0.5684(3)
H32 H 0.5669 0.1585 0.5469
C36 C 0.5678(8) 0.1114(3) 0.5706(3)
C37 C 0.5786(9) 0.0916(3) 0.5373(3)
H33 H 0.6469 0.0980 0.5290
H34 H 0.5817 0.0671 0.5426
C38 C 0.3782(8) 0.0882(3) 0.5127(3)
C39 C 0.4847(9) 0.0984(3) 0.5083(3)
C40 C 0.4993(10) 0.1175(3) 0.4792(3)
H35 H 0.5696 0.1240 0.4754
C41 C 0.4085(9) 0.1271(3) 0.4553(3)
C42 C 0.3044(9) 0.1185(3) 0.4610(3)
H36 H 0.2449 0.1258 0.4449
C43 C 0.2852(9) 0.0995(3) 0.4901(3)
C44 C 0.1760(8) 0.0921(3) 0.4988(3)
H37 H 0.1703 0.0677 0.5042
H38 H 0.1213 0.0974 0.4786
C45 C 0.1338(7) 0.0976(2) 0.5616(2)
C46 C 0.1548(9) 0.1133(3) 0.5301(3)
C47 C 0.1658(8) 0.1484(3) 0.5297(3)
H39 H 0.1800 0.1595 0.5091
C48 C 0.1560(8) 0.1673(3) 0.5595(3)
C49 C 0.1412(8) 0.1514(3) 0.5905(3)
H40 H 0.1385 0.1646 0.6108
C50 C 0.1305(8) 0.1165(3) 0.5921(3)
C51 C 0.1162(9) 0.1001(3) 0.6267(3)
H41 H 0.0494 0.1088 0.6345
H42 H 0.1087 0.0753 0.6236
C52 C 0.2936(14) 0.0398(4) 0.6301(6)
H43 H 0.2474 0.0329 0.6084
H44 H 0.2472 0.0407 0.6486
C53 C 0.3718(13) 0.0136(4) 0.6389(6)
H45 H 0.4078 0.0177 0.6629
H46 H 0.4273 0.0155 0.6232
C54 C 0.3287(12) -0.0230(4) 0.6369(5)
H47 H 0.2821 -0.0256 0.6553
H48 H 0.2818 -0.0255 0.6143
C55 C 0.401(3) -0.0503(7) 0.6401(11)
H49 H 0.4688 -0.0433 0.6321
H50 H 0.3702 -0.0693 0.6259
H51 H 0.4160 -0.0574 0.6645
C56 C 0.6800(8) 0.0511(3) 0.6191(3)
H52 H 0.6981 0.0596 0.6431
H53 H 0.7311 0.0612 0.6047
C57 C 0.6894(10) 0.0133(3) 0.6188(3)
H54 H 0.6368 0.0037 0.6329
H55 H 0.7622 0.0069 0.6302
C58 C 0.6709(13) -0.0029(3) 0.5831(3)
H56 H 0.7285 0.0046 0.5699
H57 H 0.6016 0.0054 0.5706
C59 C 0.6688(16) -0.0425(3) 0.5838(4)
H58 H 0.6102 -0.0502 0.5961
H59 H 0.7376 -0.0510 0.5957
H60 H 0.6573 -0.0511 0.5599
C60 C 0.3965(9) 0.0331(3) 0.5393(3)
H61 H 0.4306 0.0258 0.5626
H62 H 0.4515 0.0317 0.5234
C61 C 0.3049(10) 0.0092(3) 0.5266(4)
H63 H 0.2772 0.0144 0.5021
H64 H 0.2456 0.0127 0.5406
C62 C 0.3416(10) -0.0278(3) 0.5296(4)
H65 H 0.3964 -0.0315 0.5139
H66 H 0.3762 -0.0321 0.5536
C63 C 0.2521(12) -0.0528(4) 0.5206(5)
H67 H 0.2147 -0.0480 0.4972
H68 H 0.2012 -0.0511 0.5374
H69 H 0.2820 -0.0758 0.5211
C64 C 0.0044(9) 0.0540(3) 0.5477(3)
H70 H -0.0123 0.0623 0.5235
H71 H -0.0465 0.0647 0.5617
C65 C -0.0072(9) 0.0156(3) 0.5486(3)
H72 H 0.0456 0.0054 0.5349
H73 H -0.0800 0.0094 0.5370
C66 C 0.0096(11) 0.0001(3) 0.5850(3)
H74 H -0.0420 0.0104 0.5989
H75 H 0.0832 0.0055 0.5964
C67 C -0.0060(12) -0.0384(3) 0.5841(4)
H76 H 0.0423 -0.0486 0.5692
H77 H -0.0808 -0.0437 0.5748
H78 H 0.0107 -0.0475 0.6077
S1 S 0.4617(2) 0.35511(8) 0.91637(8)
S2 S 0.7004(4) 0.29883(8) 0.76232(9)
O1 O 0.4920(8) 0.4403(2) 0.7929(2)
O2 O 0.7324(7) 0.4491(2) 0.7649(2)
O3 O 0.3864(8) 0.3730(3) 0.9341(3)
O4 O 0.4232(8) 0.3213(2) 0.9043(3)
O5 O 0.5709(6) 0.3529(2) 0.9361(2)
O6 O 0.621(2) 0.2876(3) 0.7845(4)
O7 O 0.8140(15) 0.2897(3) 0.7765(4)
O8 O 0.6722(8) 0.2874(2) 0.7272(2)
C1 C 0.4841(12) 0.4192(3) 0.8203(3)
C2 C 0.3816(10) 0.4088(3) 0.8274(3)
C3 C 0.3770(10) 0.3892(3) 0.8571(3)
H1 H 0.3088 0.3831 0.8632
C4 C 0.4726(9) 0.3781(3) 0.8785(3)
C5 C 0.5736(10) 0.3864(3) 0.8692(3)
H2 H 0.6377 0.3784 0.8826
C6 C 0.5785(9) 0.4071(3) 0.8396(3)
C7 C 0.6915(11) 0.4152(3) 0.8292(3)
H3 H 0.6996 0.4400 0.8262
H4 H 0.7491 0.4074 0.8476
C8 C 0.7167(10) 0.4140(3) 0.7641(3)
C9 C 0.6995(9) 0.3967(3) 0.7949(3)
C10 C 0.6934(10) 0.3618(3) 0.7933(3)
H5 H 0.6868 0.3496 0.8140
C11 C 0.6965(11) 0.3435(3) 0.7621(3)
C12 C 0.7078(10) 0.3616(3) 0.7314(3)
H6 H 0.7109 0.3496 0.7104
C13 C 0.7145(10) 0.3971(3) 0.7318(3)
C14 C 0.2802(11) 0.4154(3) 0.8022(3)
H7 H 0.2722 0.4400 0.7979
H8 H 0.2167 0.4074 0.8124
C15 C 0.4533(17) 0.4744(4) 0.7954(5)
H9 H 0.4223 0.4823 0.7720
H10 H 0.3950 0.4744 0.8101
C16 C 0.5323(16) 0.4966(6) 0.8091(7)
H11 H 0.5933 0.4949 0.7956
H12 H 0.5588 0.4897 0.8333
C17 C 0.4922(16) 0.5368(5) 0.8092(7)
H13 H 0.4524 0.5414 0.7859
H14 H 0.4389 0.5382 0.8257
C18 C 0.558(3) 0.5621(10) 0.8166(10)
H15 H 0.5387 0.5745 0.8366
H16 H 0.5540 0.5773 0.7965
H17 H 0.6319 0.5534 0.8221
C19 C 0.8442(11) 0.4583(3) 0.7767(4)
H18 H 0.8909 0.4502 0.7599
H19 H 0.8689 0.4478 0.7996
C20 C 0.8499(12) 0.4968(3) 0.7797(4)
H20 H 0.7982 0.5045 0.7951
H21 H 0.9229 0.5033 0.7907
C21 C 0.8249(14) 0.5150(3) 0.7450(4)
H22 H 0.7529 0.5080 0.7334
H23 H 0.8785 0.5084 0.7298
C22 C 0.8273(16) 0.5543(4) 0.7498(4)
H24 H 0.9003 0.5615 0.7593
H25 H 0.7773 0.5608 0.7659
H26 H 0.8057 0.5653 0.7273
S1A S 0.5383(2) 0.35511(8) 0.58363(8)
S2A S 0.2996(4) 0.29883(8) 0.73768(9)
O1A O 0.5080(8) 0.4403(2) 0.7071(2)
O2A O 0.2676(7) 0.4491(2) 0.7351(2)
O3A O 0.6136(8) 0.3730(3) 0.5659(3)
O4A O 0.5768(8) 0.3213(2) 0.5957(3)
O5A O 0.4291(6) 0.3529(2) 0.5639(2)
O6A O 0.379(2) 0.2876(3) 0.7155(4)
O7A O 0.1860(15) 0.2897(3) 0.7235(4)
O8A O 0.3278(8) 0.2874(2) 0.7728(2)
C1A C 0.5159(12) 0.4192(3) 0.6797(3)
C2A C 0.6184(10) 0.4088(3) 0.6726(3)
C3A C 0.6230(10) 0.3892(3) 0.6429(3)
H1A H 0.6912 0.3831 0.6368
C4A C 0.5274(9) 0.3781(3) 0.6215(3)
C5A C 0.4264(10) 0.3864(3) 0.6308(3)
H2A H 0.3623 0.3784 0.6174
C6A C 0.4215(9) 0.4071(3) 0.6604(3)
C7A C 0.3085(11) 0.4152(3) 0.6708(3)
H3A H 0.3004 0.4400 0.6738
H4A H 0.2509 0.4074 0.6524
C8A C 0.2833(10) 0.4140(3) 0.7359(3)
C9A C 0.3005(9) 0.3967(3) 0.7051(3)
C10A C 0.3066(10) 0.3618(3) 0.7067(3)
H5A H 0.3132 0.3496 0.6860
C11A C 0.3035(11) 0.3435(3) 0.7379(3)
C12A C 0.2922(10) 0.3616(3) 0.7686(3)
H6A H 0.2891 0.3496 0.7896
C13A C 0.2855(10) 0.3971(3) 0.7682(3)
C14A C 0.7198(11) 0.4154(3) 0.6978(3)
H7A H 0.7278 0.4400 0.7021
H8A H 0.7833 0.4074 0.6876
C15A C 0.5467(17) 0.4744(4) 0.7046(5)
H9A H 0.5777 0.4823 0.7280
H10A H 0.6050 0.4744 0.6899
C16A C 0.4677(16) 0.4966(6) 0.6909(7)
H11A H 0.4067 0.4949 0.7044
H12A H 0.4412 0.4897 0.6667
C17A C 0.5078(16) 0.5368(5) 0.6908(7)
H13A H 0.5476 0.5414 0.7141
H14A H 0.5611 0.5382 0.6743
C18A C 0.442(3) 0.5621(10) 0.6834(10)
H15A H 0.4613 0.5745 0.6634
H16A H 0.4460 0.5773 0.7035
H17A H 0.3681 0.5534 0.6779
C19A C 0.1558(11) 0.4583(3) 0.7233(4)
H18A H 0.1091 0.4502 0.7401
H19A H 0.1311 0.4478 0.7004
C20A C 0.1501(12) 0.4968(3) 0.7203(4)
H20A H 0.2018 0.5045 0.7049
H21A H 0.0771 0.5033 0.7093
C21A C 0.1751(14) 0.5150(3) 0.7550(4)
H22A H 0.2471 0.5080 0.7666
H23A H 0.1215 0.5084 0.7702
C22A C 0.1727(16) 0.5543(4) 0.7502(4)
H24A H 0.0997 0.5615 0.7407
H25A H 0.2227 0.5608 0.7341
H26A H 0.1943 0.5653 0.7727
O46? O 0.8040(18) 0.2228(4) 0.6722(6)
O47? O -0.1478(18) 0.2785(5) 0.5649(6)
O48? O -0.2368(18) 0.2866(6) 0.4832(7)
O49? O -0.297(3) 0.3477(8) 0.3320(9)
O50? O 0.510(2) 0.1344(7) 0.2829(6)
O51? O 0.581(2) 0.1473(8) 0.3431(8)
O52? O -0.354(3) 0.3415(10) 0.4058(10)
O53? O -0.477(2) 0.3453(8) 0.2858(8)
O54? O -0.353(3) 0.3545(11) 0.4776(12)
O55? O 0.529(3) 0.1587(9) 0.3175(9)
Na7? Na -0.1027(8) 0.2479(3) 0.5147(3)
C68? C 0.8729(8) 0.2384(2) 0.7646(2)
O56? O 0.8729(8) 0.2384(2) 0.7646(2)
loop_
_geom_bond_atom_site_label_1
_geom_bond_atom_site_label_2
_geom_bond_site_symmetry_1
_geom_bond_site_symmetry_2
S1 O3 1_555 1_555
S2 O6 1_555 1_555
O1 C1 1_555 1_555
O2 C8 1_555 1_555
O4 S1 1_555 1_555
O5 S1 1_555 1_555
O7 S2 1_555 1_555
O8 S2 1_555 1_555
C1 C2 1_555 1_555
C2 C3 1_555 1_555
C3 H1 1_555 1_555
C4 S1 1_555 1_555
C5 C4 1_555 1_555
H2 C5 1_555 1_555
C6 C1 1_555 1_555
C7 C6 1_555 1_555
H3 C7 1_555 1_555
H4 C7 1_555 1_555
C8 C9 1_555 1_555
C9 C7 1_555 1_555
C10 C9 1_555 1_555
H5 C10 1_555 1_555
C11 S2 1_555 1_555
C12 C11 1_555 1_555
H6 C12 1_555 1_555
C13 C8 1_555 1_555
C14 C2 1_555 1_555
H7 C14 1_555 1_555
H8 C14 1_555 1_555
C15 O1 1_555 1_555
H9 C15 1_555 1_555
H10 C15 1_555 1_555
C16 C15 1_555 1_555
H11 C16 1_555 1_555
H12 C16 1_555 1_555
C17 C16 1_555 1_555
H13 C17 1_555 1_555
H14 C17 1_555 1_555
C18 C17 1_555 1_555
H15 C18 1_555 1_555
H16 C18 1_555 1_555
H17 C18 1_555 1_555
C19 O2 1_555 1_555
H18 C19 1_555 1_555
H19 C19 1_555 1_555
C20 C19 1_555 1_555
H20 C20 1_555 1_555
H21 C20 1_555 1_555
C21 C20 1_555 1_555
H22 C21 1_555 1_555
H23 C21 1_555 1_555
C22 C21 1_555 1_555
H24 C22 1_555 1_555
H25 C22 1_555 1_555
H26 C22 1_555 1_555
O21 C23 1_555 1_555
C23 C23A 1_555 1_555
S3 O34 1_555 1_555
S4 O37 1_555 1_555
S5 O40 1_555 1_555
S6 O43 1_555 1_555
O30 C24 1_555 1_555
O31 C31 1_555 1_555
O32 C38 1_555 1_555
O33 C45 1_555 1_555
O35 S3 1_555 1_555
O36 S3 1_555 1_555
O38 S4 1_555 1_555
O39 S4 1_555 1_555
O41 S5 1_555 1_555
O42 S5 1_555 1_555
O44 S6 1_555 1_555
O45 S6 1_555 1_555
C24 C25 1_555 1_555
C25 C26 1_555 1_555
C26 H27 1_555 1_555
C27 S3 1_555 1_555
C28 C27 1_555 1_555
H28 C28 1_555 1_555
C29 C24 1_555 1_555
C30 C29 1_555 1_555
H29 C30 1_555 1_555
H30 C30 1_555 1_555
C31 C32 1_555 1_555
C32 C30 1_555 1_555
C33 C32 1_555 1_555
H31 C33 1_555 1_555
C34 S4 1_555 1_555
C35 C34 1_555 1_555
H32 C35 1_555 1_555
C36 C31 1_555 1_555
C37 C36 1_555 1_555
H33 C37 1_555 1_555
H34 C37 1_555 1_555
C38 C39 1_555 1_555
C39 C37 1_555 1_555
C40 C39 1_555 1_555
H35 C40 1_555 1_555
C41 S5 1_555 1_555
C42 C41 1_555 1_555
H36 C42 1_555 1_555
C43 C38 1_555 1_555
C44 C43 1_555 1_555
H37 C44 1_555 1_555
H38 C44 1_555 1_555
C45 C46 1_555 1_555
C46 C44 1_555 1_555
C47 C46 1_555 1_555
H39 C47 1_555 1_555
C48 S6 1_555 1_555
C49 C48 1_555 1_555
H40 C49 1_555 1_555
C50 C45 1_555 1_555
C51 C25 1_555 1_555
H41 C51 1_555 1_555
H42 C51 1_555 1_555
C52 O30 1_555 1_555
H43 C52 1_555 1_555
H44 C52 1_555 1_555
C53 C52 1_555 1_555
H45 C53 1_555 1_555
H46 C53 1_555 1_555
C54 C53 1_555 1_555
H47 C54 1_555 1_555
H48 C54 1_555 1_555
C55 C54 1_555 1_555
H49 C55 1_555 1_555
H50 C55 1_555 1_555
H51 C55 1_555 1_555
C56 O31 1_555 1_555
H52 C56 1_555 1_555
H53 C56 1_555 1_555
C57 C56 1_555 1_555
H54 C57 1_555 1_555
H55 C57 1_555 1_555
C58 C57 1_555 1_555
H56 C58 1_555 1_555
H57 C58 1_555 1_555
C59 C58 1_555 1_555
H58 C59 1_555 1_555
H59 C59 1_555 1_555
H60 C59 1_555 1_555
C60 O32 1_555 1_555
H61 C60 1_555 1_555
H62 C60 1_555 1_555
C61 C60 1_555 1_555
H63 C61 1_555 1_555
H64 C61 1_555 1_555
C62 C61 1_555 1_555
H65 C62 1_555 1_555
H66 C62 1_555 1_555
C63 C62 1_555 1_555
H67 C63 1_555 1_555
H68 C63 1_555 1_555
H69 C63 1_555 1_555
C64 O33 1_555 1_555
H70 C64 1_555 1_555
H71 C64 1_555 1_555
C65 C64 1_555 1_555
H72 C65 1_555 1_555
H73 C65 1_555 1_555
C66 C65 1_555 1_555
H74 C66 1_555 1_555
H75 C66 1_555 1_555
C67 C66 1_555 1_555
H76 C67 1_555 1_555
H77 C67 1_555 1_555
H78 C67 1_555 1_555
S1A O3A 1_555 1_555
S2A O6A 1_555 1_555
O1A C1A 1_555 1_555
O2A C8A 1_555 1_555
O4A S1A 1_555 1_555
O5A S1A 1_555 1_555
O7A S2A 1_555 1_555
O8A S2A 1_555 1_555
C1A C2A 1_555 1_555
C2A C3A 1_555 1_555
C3A H1A 1_555 1_555
C4A S1A 1_555 1_555
C5A C4A 1_555 1_555
H2A C5A 1_555 1_555
C6A C1A 1_555 1_555
C7A C6A 1_555 1_555
H3A C7A 1_555 1_555
H4A C7A 1_555 1_555
C8A C9A 1_555 1_555
C9A C7A 1_555 1_555
C10A C9A 1_555 1_555
H5A C10A 1_555 1_555
C11A S2A 1_555 1_555
C12A C11A 1_555 1_555
H6A C12A 1_555 1_555
C13A C14 1_555 1_555
C14A C13 1_555 1_555
H7A C14A 1_555 1_555
H8A C14A 1_555 1_555
C15A O1A 1_555 1_555
H9A C15A 1_555 1_555
H10A C15A 1_555 1_555
C16A C15A 1_555 1_555
H11A C16A 1_555 1_555
H12A C16A 1_555 1_555
C17A C16A 1_555 1_555
H13A C17A 1_555 1_555
H14A C17A 1_555 1_555
C18A C17A 1_555 1_555
H15A C18A 1_555 1_555
H16A C18A 1_555 1_555
H17A C18A 1_555 1_555
C19A O2A 1_555 1_555
H18A C19A 1_555 1_555
H19A C19A 1_555 1_555
C20A C19A 1_555 1_555
H20A C20A 1_555 1_555
H21A C20A 1_555 1_555
C21A C20A 1_555 1_555
H22A C21A 1_555 1_555
H23A C21A 1_555 1_555
C22A C21A 1_555 1_555
H24A C22A 1_555 1_555
H25A C22A 1_555 1_555
H26A C22A 1_555 1_555
O21A C23A 1_555 1_555
C3 C4 1_555 1_555
C5 C6 1_555 1_555
C10 C11 1_555 1_555
C12 C13 1_555 1_555
C26 C27 1_555 1_555
C28 C29 1_555 1_555
C33 C34 1_555 1_555
C35 C36 1_555 1_555
C40 C41 1_555 1_555
C42 C43 1_555 1_555
C47 C48 1_555 1_555
C49 C50 1_555 1_555
C50 C51 1_555 1_555
C2A C14A 1_555 1_555
C3A C4A 1_555 1_555
C5A C6A 1_555 1_555
C8A C13A 1_555 1_555
C10A C11A 1_555 1_555
C12A C13A 1_555 1_555

#END
