
#######################################################################
#
#                 Cambridge Crystallographic Data Centre
#                                CCDC 
#
#######################################################################
#
# If this CIF has been generated from an entry in the Cambridge 
# Structural Database, then it will include bibliographic, chemical, 
# crystal, experimental, refinement or atomic coordinate data resulting 
# from the CCDC's data processing and validation procedures.
#
#######################################################################

data_KUXLIZ
_chemical_name_common            
14,15,17,23,25,26-hexaaza-6,9,31,34-tetraoxa-3,12,28,37,44,45-hexathiotetracyclo-[37,3,1,1$13,16!,1$24,27!]-pentatetraconta-1(43),13,15,24,26,39,41-heptaene-18,22-dione
_chemical_formula_moiety         'C29 H40 N6 O6 S6'
_chemical_name_systematic        
6,9,31,34-Tetraoxa-3,12,28,37,44,45-hexathia-14,15,17,23,25,26-hexaazatetracyclo[37.3.1.1^13,16^.1^24,27^]pentatetraconta-1(43),13,15,24,26,39,41-heptaene-18,22-dione
_symmetry_cell_setting           triclinic
_symmetry_space_group_name_H-M   'P -1'
_symmetry_Int_Tables_number      2
_space_group_name_Hall           '-P 1'
loop_
_symmetry_equiv_pos_site_id
_symmetry_equiv_pos_as_xyz
1 x,y,z
2 -x,-y,-z
_cell_length_a                   8.9202(11)
_cell_length_b                   9.9488(12)
_cell_length_c                   21.220(2)
_cell_angle_alpha                76.545(8)
_cell_angle_beta                 84.623(8)
_cell_angle_gamma                83.502(7)
_cell_volume                     1815.29
_exptl_crystal_colour            colorless
_exptl_crystal_description       block
_chemical_melting_point          '167.2 deg.C'
_cell_formula_units_Z            2
_exptl_crystal_recrystallization_method thf
loop_
_atom_site_label
_atom_site_type_symbol
_atom_site_fract_x
_atom_site_fract_y
_atom_site_fract_z
S1 S 0.23865(15) 0.47489(12) 0.60449(6)
C1 C 0.3546(5) 0.3592(4) 0.5674(2)
N1 N 0.4360(4) 0.2515(4) 0.59893(17)
N2 N 0.5161(4) 0.1779(3) 0.55679(16)
C2 C 0.4938(4) 0.2325(4) 0.49722(19)
S2 S 0.37008(12) 0.38031(10) 0.48370(5)
N3 N 0.5656(4) 0.1728(3) 0.44798(16)
H1 H 0.624(4) 0.094(3) 0.4625(19)
C3 C 0.5417(5) 0.2229(4) 0.3835(2)
O1 O 0.4572(4) 0.3280(3) 0.36626(14)
C4 C 0.6249(6) 0.1414(5) 0.3380(2)
H2 H 0.6402 0.0449 0.3608
H3 H 0.7238 0.1749 0.3255
C5 C 0.5453(6) 0.1493(5) 0.2772(2)
H4 H 0.5096 0.2455 0.2599
H5 H 0.6184 0.1202 0.2451
C6 C 0.4134(6) 0.0630(5) 0.2861(2)
H6 H 0.3805 0.0631 0.2438
H7 H 0.4459 -0.0321 0.3068
C7 C 0.2822(6) 0.1157(5) 0.3264(2)
O2 O 0.1867(4) 0.2082(4) 0.30595(14)
N4 N 0.2807(4) 0.0528(3) 0.39120(16)
H8 H 0.348(4) -0.020(3) 0.403(2)
C8 C 0.1887(5) 0.0998(4) 0.43869(19)
N5 N 0.2079(4) 0.0488(3) 0.49953(15)
N6 N 0.1068(4) 0.1125(3) 0.53981(16)
C9 C 0.0166(5) 0.2085(4) 0.5064(2)
S3 S 0.04568(13) 0.23245(11) 0.42261(5)
S4 S -0.12393(16) 0.31092(15) 0.53935(6)
C10 C -0.0931(6) 0.2556(5) 0.6242(2)
H9 H -0.1132 0.1593 0.6402
H10 H 0.0107 0.2645 0.6315
C11 C -0.2003(6) 0.3480(7) 0.6581(2)
H11 H -0.1919 0.4444 0.6365
H12 H -0.3034 0.3277 0.6564
O3 O -0.1662(4) 0.3265(4) 0.72070(17)
C12 C -0.2676(8) 0.4077(7) 0.7558(3)
H13 H -0.3668 0.3737 0.7616
H14 H -0.2771 0.5035 0.7316
C13 C -0.2101(8) 0.3997(8) 0.8199(3)
H15 H -0.1054 0.4205 0.8141
H16 H -0.2684 0.4681 0.8405
O4 O -0.2206(6) 0.2699(5) 0.8587(2)
C14 C -0.1495(9) 0.2588(7) 0.9188(3)
H17 H -0.046 0.2827 0.9094
H18 H -0.204 0.3221 0.9434
C15 C -0.1517(8) 0.1172(9) 0.9561(4)
H19 H -0.0876 0.1058 0.9918
H20 H -0.1054 0.0565 0.9285
S5 S -0.3274(3) 0.0579(3) 0.98864(10)
C16 C -0.3678(7) 0.1310(9) 1.0578(4)
H21 H -0.3818 0.2312 1.0431
H22 H -0.4629 0.1006 1.0793
C17 C -0.2475(6) 0.0948(7) 1.1079(3)
C18 C -0.1569(6) 0.1944(6) 1.1125(2)
H23 H -0.1716 0.2828 1.086
C19 C -0.0435(6) 0.1664(5) 1.1560(2)
C20 C -0.0234(7) 0.0355(7) 1.1946(3)
H24 H 0.052 0.0153 1.2238
C21 C -0.1101(9) -0.0647(8) 1.1912(3)
H25 H -0.0937 -0.1526 1.218
C22 C -0.2239(8) -0.0381(7) 1.1481(4)
H26 H -0.2835 -0.1076 1.146
C23 C 0.0546(6) 0.2758(6) 1.1584(2)
H27 H 0.0667 0.2745 1.2035
H28 H 0.0042 0.3656 1.1391
S6 S 0.23933(18) 0.25761(18) 1.11717(7)
C24 C 0.1715(15) 0.3363(14) 1.0369(4)
H29 H 0.111 0.2732 1.0242
H30 H 0.1078 0.4212 1.0387
C25 C 0.3005(13) 0.3682(13) 0.9874(5)
H31 H 0.3655 0.4281 0.9998
H32 H 0.3601 0.284 0.9811
O5 O 0.2247(6) 0.4385(5) 0.92941(19)
C26 C 0.3492(10) 0.4253(7) 0.8856(4)
H33 H 0.3788 0.3275 0.8876
H34 H 0.4335 0.4648 0.8979
C27 C 0.3161(7) 0.4956(8) 0.8181(3)
H35 H 0.2748 0.5906 0.8166
H36 H 0.4086 0.4972 0.7901
O6 O 0.2128(6) 0.4250(4) 0.79660(18)
C28 C 0.1819(8) 0.4781(7) 0.7303(3)
H37 H 0.1935 0.5767 0.7184
H38 H 0.0782 0.4655 0.7246
C29 C 0.2840(7) 0.4074(5) 0.6879(2)
H39 H 0.274 0.3084 0.7001
H40 H 0.3877 0.4216 0.6926
C30? C 0.215(2) 0.2737(14) 1.0318(4)
C31? C 0.2194(16) 0.4215(13) 1.0020(6)
H41? H 0.2955 0.2189 1.0126
H42? H 0.1187 0.2428 1.0261
H43? H 0.3082 0.4551 1.014
H44? H 0.1303 0.4742 1.0167
loop_
_geom_bond_atom_site_label_1
_geom_bond_atom_site_label_2
_geom_bond_site_symmetry_1
_geom_bond_site_symmetry_2
S1 C1 1_555 1_555
C1 N1 1_555 1_555
N1 N2 1_555 1_555
N2 C2 1_555 1_555
C2 S2 1_555 1_555
S2 C1 1_555 1_555
N3 C2 1_555 1_555
H1 N3 1_555 1_555
C3 N3 1_555 1_555
O1 C3 1_555 1_555
C4 C3 1_555 1_555
H2 C4 1_555 1_555
H3 C4 1_555 1_555
C5 C4 1_555 1_555
H4 C5 1_555 1_555
H5 C5 1_555 1_555
C6 C5 1_555 1_555
H6 C6 1_555 1_555
H7 C6 1_555 1_555
C7 C6 1_555 1_555
O2 C7 1_555 1_555
N4 C7 1_555 1_555
H8 N4 1_555 1_555
C8 N4 1_555 1_555
N5 C8 1_555 1_555
N6 N5 1_555 1_555
C9 N6 1_555 1_555
S3 C8 1_555 1_555
S4 C9 1_555 1_555
C10 S4 1_555 1_555
H9 C10 1_555 1_555
H10 C10 1_555 1_555
C11 C10 1_555 1_555
H11 C11 1_555 1_555
H12 C11 1_555 1_555
O3 C11 1_555 1_555
C12 O3 1_555 1_555
H13 C12 1_555 1_555
H14 C12 1_555 1_555
C13 C12 1_555 1_555
H15 C13 1_555 1_555
H16 C13 1_555 1_555
O4 C13 1_555 1_555
C14 O4 1_555 1_555
H17 C14 1_555 1_555
H18 C14 1_555 1_555
C15 C14 1_555 1_555
H19 C15 1_555 1_555
H20 C15 1_555 1_555
S5 C15 1_555 1_555
C16 S5 1_555 1_555
H21 C16 1_555 1_555
H22 C16 1_555 1_555
C17 C16 1_555 1_555
C18 C17 1_555 1_555
H23 C18 1_555 1_555
C19 C18 1_555 1_555
C20 C19 1_555 1_555
H24 C20 1_555 1_555
C21 C20 1_555 1_555
H25 C21 1_555 1_555
C22 C17 1_555 1_555
H26 C22 1_555 1_555
C23 C19 1_555 1_555
H27 C23 1_555 1_555
H28 C23 1_555 1_555
S6 C23 1_555 1_555
C24 S6 1_555 1_555
H29 C24 1_555 1_555
H30 C24 1_555 1_555
C25 C24 1_555 1_555
H31 C25 1_555 1_555
H32 C25 1_555 1_555
O5 C25 1_555 1_555
C26 O5 1_555 1_555
H33 C26 1_555 1_555
H34 C26 1_555 1_555
C27 C26 1_555 1_555
H35 C27 1_555 1_555
H36 C27 1_555 1_555
O6 C27 1_555 1_555
C28 O6 1_555 1_555
H37 C28 1_555 1_555
H38 C28 1_555 1_555
C29 S1 1_555 1_555
H39 C29 1_555 1_555
H40 C29 1_555 1_555
C9 S3 1_555 1_555
C21 C22 1_555 1_555
C28 C29 1_555 1_555

#END
