
#######################################################################
#
#                 Cambridge Crystallographic Data Centre
#                                CCDC 
#
#######################################################################
#
# If this CIF has been generated from an entry in the Cambridge 
# Structural Database, then it will include bibliographic, chemical, 
# crystal, experimental, refinement or atomic coordinate data resulting 
# from the CCDC's data processing and validation procedures.
#
#######################################################################

data_KUXLOF
_chemical_formula_moiety         'C17 H16 N6 O4 S1,H2 O1'
_chemical_name_systematic        
"N'',N'''-bis(1-(4-nitrophenyl)ethylidene)thiocarbonohydrazide monohydrate"
_symmetry_cell_setting           triclinic
_symmetry_space_group_name_H-M   'P -1'
_symmetry_Int_Tables_number      2
_space_group_name_Hall           '-P 1'
loop_
_symmetry_equiv_pos_site_id
_symmetry_equiv_pos_as_xyz
1 x,y,z
2 -x,-y,-z
_cell_length_a                   7.858(4)
_cell_length_b                   16.170(7)
_cell_length_c                   16.842(7)
_cell_angle_alpha                102.540(9)
_cell_angle_beta                 100.005(8)
_cell_angle_gamma                101.432(8)
_cell_volume                     1994.27
_exptl_crystal_colour            yellow
_exptl_crystal_description       block
_cell_formula_units_Z            4
loop_
_atom_site_label
_atom_site_type_symbol
_atom_site_fract_x
_atom_site_fract_y
_atom_site_fract_z
S1 S 0.2655(4) 0.6796(2) 0.5771(2)
O1 O 0.8005(13) 0.1580(6) 0.7828(6)
O2 O 0.7725(12) 0.1407(6) 0.6499(6)
O3 O -0.2205(19) 0.4930(9) 0.0511(7)
O4 O -0.1907(17) 0.3648(9) 0.0061(7)
N1 N 0.7648(14) 0.1819(7) 0.7188(8)
N2 N 0.4422(12) 0.5018(6) 0.6673(6)
N3 N 0.3911(12) 0.5784(6) 0.6641(6)
H1 H 0.4130 0.6209 0.7081
N4 N 0.2660(11) 0.5097(6) 0.5284(6)
H2 H 0.2924 0.4636 0.5391
N5 N 0.1834(12) 0.5082(6) 0.4492(6)
N6 N -0.1650(17) 0.4308(11) 0.0615(8)
C1 C 0.6996(15) 0.2618(8) 0.7238(8)
C2 C 0.6947(15) 0.3093(8) 0.8004(8)
H3 H 0.7338 0.2922 0.8482
C3 C 0.6294(15) 0.3847(8) 0.8059(8)
H4 H 0.6208 0.4168 0.8574
C4 C 0.5775(14) 0.4115(7) 0.7340(7)
C5 C 0.5871(13) 0.3615(8) 0.6577(7)
H5 H 0.5474 0.3775 0.6093
C6 C 0.6552(15) 0.2874(7) 0.6520(7)
H6 H 0.6701 0.2565 0.6013
C7 C 0.5120(15) 0.4923(7) 0.7392(8)
C8 C 0.5392(14) 0.5553(7) 0.8235(7)
H7 H 0.4933 0.6047 0.8166
H8 H 0.6642 0.5747 0.8492
H9 H 0.4774 0.5265 0.8582
C9 C 0.3047(14) 0.5838(8) 0.5886(7)
C10 C 0.2135(16) 0.3530(7) 0.4128(7)
H10 H 0.3275 0.3703 0.4513
H11 H 0.2207 0.3150 0.3617
H12 H 0.1261 0.3227 0.4367
C11 C 0.1587(13) 0.4354(8) 0.3945(7)
C12 C 0.0723(13) 0.4335(7) 0.3090(7)
C13 C 0.0013(15) 0.5019(7) 0.2901(8)
H13 H 0.0053 0.5490 0.3340
C14 C -0.0727(15) 0.5028(7) 0.2116(8)
H14 H -0.1142 0.5504 0.2013
C15 C -0.0844(15) 0.4313(9) 0.1475(7)
C16 C -0.0237(18) 0.3621(8) 0.1590(8)
H15 H -0.0335 0.3152 0.1139
C17 C 0.0541(15) 0.3614(7) 0.2393(8)
H16 H 0.0951 0.3132 0.2479
S2 S 0.6228(4) -0.2200(2) 0.8138(2)
O5 O 1.1430(14) 0.0433(7) 1.3417(6)
O6 O 1.0176(13) 0.1476(6) 1.3751(5)
O7 O 0.1306(12) 0.3081(6) 0.7102(7)
O8 O 0.0977(16) 0.2856(7) 0.5773(7)
N7 N 1.0461(15) 0.0888(8) 1.3237(7)
N8 N 0.6942(11) -0.0393(6) 0.9337(6)
N9 N 0.6163(11) -0.0518(6) 0.8512(5)
H17 H 0.5882 -0.0082 0.8353
N10 N 0.5081(12) -0.1248(6) 0.7182(6)
H18 H 0.4963 -0.1676 0.6755
N11 N 0.4515(12) -0.0526(6) 0.7084(6)
N12 N 0.1349(14) 0.2670(7) 0.6423(9)
C18 C 0.9600(15) 0.0769(8) 1.2365(7)
C19 C 0.9736(14) 0.0037(7) 1.1782(7)
H19 H 1.0347 -0.0359 1.1940
C20 C 0.8911(14) -0.0067(7) 1.0952(8)
H20 H 0.8997 -0.0541 1.0548
C21 C 0.7953(14) 0.0517(7) 1.0704(6)
C22 C 0.7933(14) 0.1253(7) 1.1322(8)
H21 H 0.7396 0.1677 1.1171
C23 C 0.8697(17) 0.1354(8) 1.2147(8)
H22 H 0.8598 0.1821 1.2556
C24 C 0.7140(13) 0.0372(8) 0.9817(7)
C25 C 0.6583(17) 0.1108(7) 0.9538(7)
H23 H 0.5311 0.0960 0.9344
H24 H 0.7135 0.1216 0.9093
H25 H 0.6944 0.1622 0.9997
C26 C 0.5817(14) -0.1289(7) 0.7941(7)
C27 C 0.3747(16) -0.1099(7) 0.5558(6)
H26 H 0.4258 -0.1565 0.5670
H27 H 0.4376 -0.0817 0.5210
H28 H 0.2515 -0.1330 0.5278
C28 C 0.3893(15) -0.0444(7) 0.6369(8)
C29 C 0.3217(15) 0.0353(7) 0.6350(7)
C30 C 0.3231(15) 0.0914(7) 0.7102(7)
H29 H 0.3653 0.0777 0.7596
C31 C 0.2638(15) 0.1671(8) 0.7144(8)
H30 H 0.2678 0.2053 0.7650
C32 C 0.1994(14) 0.1821(8) 0.6401(8)
C33 C 0.1937(14) 0.1318(8) 0.5629(8)
H31 H 0.1532 0.1470 0.5141
C34 C 0.2535(16) 0.0554(8) 0.5625(8)
H32 H 0.2468 0.0171 0.5115
O9 O 0.8812(14) -0.2192(7) 0.9942(7)
H33 H 0.8151 -0.2182 0.9496
H34 H 0.9861 -0.1922 0.9975
O10 O 0.274(3) 0.2763(13) 0.9541(11)
H35 H 0.1888 0.2966 0.9792
H36 H 0.3934 0.2965 0.9633
loop_
_geom_bond_atom_site_label_1
_geom_bond_atom_site_label_2
_geom_bond_site_symmetry_1
_geom_bond_site_symmetry_2
S1 C9 1_555 1_555
O1 N1 1_555 1_555
O2 N1 1_555 1_555
O3 N6 1_555 1_555
O4 N6 1_555 1_555
N1 C1 1_555 1_555
N2 N3 1_555 1_555
N3 H1 1_555 1_555
N4 H2 1_555 1_555
N5 N4 1_555 1_555
N6 C15 1_555 1_555
C1 C2 1_555 1_555
C2 H3 1_555 1_555
C3 C2 1_555 1_555
H4 C3 1_555 1_555
C4 C3 1_555 1_555
C5 C4 1_555 1_555
H5 C5 1_555 1_555
C6 C1 1_555 1_555
H6 C6 1_555 1_555
C7 N2 1_555 1_555
C8 C7 1_555 1_555
H7 C8 1_555 1_555
H8 C8 1_555 1_555
H9 C8 1_555 1_555
C9 N3 1_555 1_555
C10 H10 1_555 1_555
H11 C10 1_555 1_555
H12 C10 1_555 1_555
C11 N5 1_555 1_555
C12 C11 1_555 1_555
C13 C12 1_555 1_555
H13 C13 1_555 1_555
C14 C13 1_555 1_555
H14 C14 1_555 1_555
C15 C14 1_555 1_555
C16 C15 1_555 1_555
H15 C16 1_555 1_555
C17 C12 1_555 1_555
H16 C17 1_555 1_555
S2 C26 1_555 1_555
O5 N7 1_555 1_555
O6 N7 1_555 1_555
O7 N12 1_555 1_555
O8 N12 1_555 1_555
N7 C18 1_555 1_555
N8 N9 1_555 1_555
N9 H17 1_555 1_555
N10 H18 1_555 1_555
N11 N10 1_555 1_555
N12 C32 1_555 1_555
C18 C19 1_555 1_555
C19 H19 1_555 1_555
C20 C19 1_555 1_555
H20 C20 1_555 1_555
C21 C20 1_555 1_555
C22 C21 1_555 1_555
H21 C22 1_555 1_555
C23 C18 1_555 1_555
H22 C23 1_555 1_555
C24 N8 1_555 1_555
C25 C24 1_555 1_555
H23 C25 1_555 1_555
H24 C25 1_555 1_555
H25 C25 1_555 1_555
C26 N9 1_555 1_555
C27 H26 1_555 1_555
H27 C27 1_555 1_555
H28 C27 1_555 1_555
C28 N11 1_555 1_555
C29 C28 1_555 1_555
C30 C29 1_555 1_555
H29 C30 1_555 1_555
C31 C30 1_555 1_555
H30 C31 1_555 1_555
C32 C31 1_555 1_555
C33 C32 1_555 1_555
H31 C33 1_555 1_555
C34 C29 1_555 1_555
H32 C34 1_555 1_555
O9 H33 1_555 1_555
H34 O9 1_555 1_555
O10 H35 1_555 1_555
H36 O10 1_555 1_555
N4 C9 1_555 1_555
C4 C7 1_555 1_555
C5 C6 1_555 1_555
C10 C11 1_555 1_555
C16 C17 1_555 1_555
N10 C26 1_555 1_555
C21 C24 1_555 1_555
C22 C23 1_555 1_555
C27 C28 1_555 1_555
C33 C34 1_555 1_555

#END
