
#######################################################################
#
#                 Cambridge Crystallographic Data Centre
#                                CCDC 
#
#######################################################################
#
# If this CIF has been generated from an entry in the Cambridge 
# Structural Database, then it will include bibliographic, chemical, 
# crystal, experimental, refinement or atomic coordinate data resulting 
# from the CCDC's data processing and validation procedures.
#
#######################################################################

data_KUXSUT
_chemical_formula_moiety         'C30 H32 N2 O6 S1'
_chemical_name_systematic        
"dimethyl (2'-((4-methylphenyl)sulfonyl)-1',2',3,3',4,4'-hexahydro-1H-2,4'-biisoquinolin-1'-yl)malonate"
_symmetry_cell_setting           monoclinic
_symmetry_space_group_name_H-M   'P 21/c'
_symmetry_Int_Tables_number      14
_space_group_name_Hall           '-P 2ybc'
loop_
_symmetry_equiv_pos_site_id
_symmetry_equiv_pos_as_xyz
1 x,y,z
2 -x,1/2+y,1/2-z
3 -x,-y,-z
4 x,1/2-y,1/2+z
_cell_length_a                   15.1630(11)
_cell_length_b                   10.2586(7)
_cell_length_c                   17.5827(12)
_cell_angle_alpha                90
_cell_angle_beta                 98.2410(10)
_cell_angle_gamma                90
_cell_volume                     2706.77
_exptl_crystal_colour            colorless
_exptl_crystal_description       BLOCK
_cell_formula_units_Z            4
loop_
_atom_site_label
_atom_site_type_symbol
_atom_site_fract_x
_atom_site_fract_y
_atom_site_fract_z
S1 S 0.27002(2) 0.42720(3) 0.35668(2)
O1 O 0.30610(7) 0.48665(10) 0.29430(6)
O2 O 0.20792(7) 0.49704(10) 0.39606(7)
O3 O 0.34286(8) -0.06664(12) 0.21332(8)
O4 O 0.23988(8) -0.08385(11) 0.29307(8)
O5 O 0.43261(7) 0.22803(12) 0.24027(7)
O6 O 0.47347(7) 0.08504(12) 0.33596(7)
N1 N 0.21800(8) 0.29579(12) 0.32279(7)
N2 N -0.00290(8) 0.14601(11) 0.34262(7)
C1 C 0.35922(9) 0.37782(14) 0.42592(8)
C2 C 0.33912(10) 0.32838(17) 0.49518(9)
H1 H 0.2790 0.3251 0.5046
C3 C 0.40693(10) 0.28404(17) 0.55013(9)
H2 H 0.3930 0.2498 0.5972
C4 C 0.49559(10) 0.28909(15) 0.53728(9)
C5 C 0.51425(10) 0.33997(16) 0.46795(9)
H3 H 0.5744 0.3446 0.4588
C6 C 0.44687(10) 0.38415(15) 0.41176(9)
H4 H 0.4606 0.4180 0.3646
C7 C 0.56824(11) 0.24086(19) 0.59814(10)
H5 H 0.5876 0.1563 0.5840
H6 H 0.5458 0.2351 0.6464
H7 H 0.6176 0.3003 0.6028
C8 C 0.15522(9) 0.22911(14) 0.36539(8)
H8 H 0.1461 0.2803 0.4113
H9 H 0.1784 0.1420 0.3823
C9 C 0.06740(9) 0.21581(13) 0.31088(8)
H10 H 0.0448 0.3064 0.2999
C10 C 0.08443(9) 0.15908(13) 0.23425(8)
C11 C 0.01316(9) 0.11151(14) 0.18228(8)
H11 H -0.0448 0.1085 0.1968
C12 C 0.02597(10) 0.06864(14) 0.10977(9)
H12 H -0.0233 0.0380 0.0748
C13 C 0.11061(10) 0.07043(14) 0.08813(9)
H13 H 0.1195 0.0407 0.0386
C14 C 0.18196(10) 0.11600(14) 0.13946(8)
H14 H 0.2399 0.1168 0.1250
C15 C 0.16956(9) 0.16072(13) 0.21227(8)
C16 C 0.25043(9) 0.21657(14) 0.26338(8)
H15 H 0.2813 0.2766 0.2309
C17 C 0.32024(9) 0.11173(14) 0.29797(8)
H16 H 0.3176 0.1046 0.3543
C18 C 0.30387(10) -0.02301(15) 0.26232(10)
C19 C 0.21242(15) -0.20889(19) 0.25880(16)
H17 H 0.1929 -0.1975 0.2048
H18 H 0.1644 -0.2434 0.2828
H19 H 0.2618 -0.2683 0.2661
C20 C 0.41441(10) 0.15080(15) 0.28721(9)
C21 C 0.56625(11) 0.1039(2) 0.32642(12)
H20 H 0.5766 0.0675 0.2782
H21 H 0.6039 0.0613 0.3675
H22 H 0.5795 0.1955 0.3272
C22 C 0.01527(10) 0.00855(13) 0.36208(9)
H23 H 0.0549 0.0017 0.4118
H24 H 0.0450 -0.0338 0.3220
C23 C -0.07324(10) -0.05756(14) 0.36734(9)
H25 H -0.1072 -0.0660 0.3151
H26 H -0.0621 -0.1464 0.3885
C24 C -0.12815(9) 0.01746(14) 0.41744(8)
C25 C -0.20104(10) -0.04017(15) 0.44477(9)
H27 H -0.2168 -0.1274 0.4307
C26 C -0.25074(10) 0.02752(16) 0.49195(9)
H28 H -0.3003 -0.0131 0.5097
C27 C -0.22801(11) 0.15482(17) 0.51319(10)
H29 H -0.2611 0.2011 0.5465
C28 C -0.15707(10) 0.21376(16) 0.48567(9)
H30 H -0.1421 0.3013 0.4997
C29 C -0.10698(9) 0.14658(14) 0.43745(8)
C30 C -0.02982(10) 0.21372(14) 0.40870(9)
H31 H -0.0469 0.3044 0.3939
H32 H 0.0213 0.2173 0.4505
loop_
_geom_bond_atom_site_label_1
_geom_bond_atom_site_label_2
_geom_bond_site_symmetry_1
_geom_bond_site_symmetry_2
S1 O1 1_555 1_555
O2 S1 1_555 1_555
O3 C18 1_555 1_555
O4 C18 1_555 1_555
O5 C20 1_555 1_555
O6 C20 1_555 1_555
N1 S1 1_555 1_555
N2 C9 1_555 1_555
C1 S1 1_555 1_555
C2 C1 1_555 1_555
H1 C2 1_555 1_555
C3 C2 1_555 1_555
H2 C3 1_555 1_555
C4 C3 1_555 1_555
C5 C4 1_555 1_555
H3 C5 1_555 1_555
C6 C1 1_555 1_555
H4 C6 1_555 1_555
C7 C4 1_555 1_555
H5 C7 1_555 1_555
H6 C7 1_555 1_555
H7 C7 1_555 1_555
C8 N1 1_555 1_555
H8 C8 1_555 1_555
H9 C8 1_555 1_555
C9 C8 1_555 1_555
H10 C9 1_555 1_555
C10 C9 1_555 1_555
C11 C10 1_555 1_555
H11 C11 1_555 1_555
C12 C11 1_555 1_555
H12 C12 1_555 1_555
C13 C12 1_555 1_555
H13 C13 1_555 1_555
C14 C13 1_555 1_555
H14 C14 1_555 1_555
C15 C10 1_555 1_555
C16 N1 1_555 1_555
H15 C16 1_555 1_555
C17 C16 1_555 1_555
H16 C17 1_555 1_555
C18 C17 1_555 1_555
C19 O4 1_555 1_555
H17 C19 1_555 1_555
H18 C19 1_555 1_555
H19 C19 1_555 1_555
C20 C17 1_555 1_555
C21 O6 1_555 1_555
H20 C21 1_555 1_555
H21 C21 1_555 1_555
H22 C21 1_555 1_555
C22 N2 1_555 1_555
H23 C22 1_555 1_555
H24 C22 1_555 1_555
C23 C22 1_555 1_555
H25 C23 1_555 1_555
H26 C23 1_555 1_555
C24 C23 1_555 1_555
C25 C24 1_555 1_555
H27 C25 1_555 1_555
C26 C25 1_555 1_555
H28 C26 1_555 1_555
C27 C26 1_555 1_555
H29 C27 1_555 1_555
C28 C27 1_555 1_555
H30 C28 1_555 1_555
C29 C24 1_555 1_555
C30 N2 1_555 1_555
H31 C30 1_555 1_555
H32 C30 1_555 1_555
C5 C6 1_555 1_555
C14 C15 1_555 1_555
C15 C16 1_555 1_555
C28 C29 1_555 1_555
C29 C30 1_555 1_555

#END
