
#######################################################################
#
#                 Cambridge Crystallographic Data Centre
#                                CCDC 
#
#######################################################################
#
# If this CIF has been generated from an entry in the Cambridge 
# Structural Database, then it will include bibliographic, chemical, 
# crystal, experimental, refinement or atomic coordinate data resulting 
# from the CCDC's data processing and validation procedures.
#
#######################################################################

data_KUXTII
_chemical_formula_moiety         'C28 H26 N6 O2'
_chemical_name_systematic        
2,8,14,20-tetramethyl-2,8,14,20,25,27-hexaazapentacyclo[19.3.1.1^3,7^.1^9,13^.1^15,19^]octacosa-1(25),3(28),4,6,9(27),10,12,15(26),16,18,21,23-dodecaene-10,24-dicarbaldehyde
_symmetry_cell_setting           triclinic
_symmetry_space_group_name_H-M   'P -1'
_symmetry_Int_Tables_number      2
_space_group_name_Hall           '-P 1'
loop_
_symmetry_equiv_pos_site_id
_symmetry_equiv_pos_as_xyz
1 x,y,z
2 -x,-y,-z
_cell_length_a                   8.9573(9)
_cell_length_b                   10.2459(9)
_cell_length_c                   13.7280(14)
_cell_angle_alpha                108.560(9)
_cell_angle_beta                 91.146(8)
_cell_angle_gamma                96.441(8)
_cell_volume                     1184.75
_cell_formula_units_Z            2
loop_
_atom_site_label
_atom_site_type_symbol
_atom_site_fract_x
_atom_site_fract_y
_atom_site_fract_z
N1 N 0.7242(2) 0.7593(2) 0.4160(2)
N2 N 0.7652(3) 0.9948(2) 0.49766(19)
N3 N 1.0126(2) 0.9273(2) 0.16827(19)
O1 O 1.4305(2) 0.7976(2) -0.03543(18)
N4 N 0.6924(2) 0.5239(2) 0.3208(2)
N5 N 1.0743(2) 0.7051(2) 0.1332(2)
N6 N 0.9290(3) 1.1395(2) 0.2072(2)
C1 C 1.1071(3) 0.8380(3) 0.1240(2)
C2 C 1.1623(3) 1.1035(3) 0.1193(2)
H1 H 1.1803 1.1954 0.1209
C3 C 1.0349(3) 1.0566(3) 0.1640(2)
C4 C 1.2305(3) 0.8714(3) 0.0707(2)
C5 C 0.7510(3) 0.8639(3) 0.5046(2)
C6 C 0.9213(3) 0.6606(3) 0.1461(2)
C7 C 1.2570(3) 1.0111(3) 0.0740(2)
H2 H 1.3414 1.0403 0.0445
C8 C 0.7311(3) 1.0161(3) 0.4016(2)
C9 C 0.8101(3) 1.0892(3) 0.2599(2)
C10 C 0.7652(3) 0.7080(3) 0.5995(3)
H3 H 0.7754 0.6901 0.6614
C11 C 0.7639(3) 0.8419(3) 0.6010(2)
H4 H 0.7711 0.9152 0.6625
C12 C 0.7275(3) 0.5680(3) 0.2336(2)
C13 C 0.8784(3) 0.6114(3) 0.2248(2)
H5 H 0.9509 0.6071 0.2728
C14 C 1.3179(3) 0.7706(3) 0.0062(3)
H6 H 1.2854 0.6774 -0.0044
C15 C 0.7230(3) 0.6297(3) 0.4173(2)
C16 C 0.8424(3) 1.0709(3) 0.3527(2)
H7 H 0.9398 1.0956 0.3826
C17 C 0.6639(3) 0.6207(3) 0.0825(3)
H8 H 0.5914 0.6234 0.0340
C18 C 0.9329(3) 1.2804(3) 0.2024(3)
H9 H 1.0117 1.3402 0.2493
H10 H 0.8380 1.3135 0.2212
H11 H 0.9515 1.2799 0.1337
C19 C 0.6210(3) 0.5708(3) 0.1620(3)
H12 H 0.5206 0.5397 0.1665
O2 O 0.8096(3) 0.4340(3) 0.5863(2)
C20 C 0.7516(3) 0.5978(3) 0.5076(3)
C21 C 0.5542(3) 1.0022(4) 0.2659(3)
H13 H 0.4564 0.9793 0.2365
C22 C 1.1925(3) 0.6384(3) 0.1660(3)
H14 H 1.2884 0.6916 0.1678
H15 H 1.1923 0.5465 0.1185
H16 H 1.1744 0.6332 0.2335
C23 C 0.8106(3) 0.6654(3) 0.0743(3)
H17 H 0.8373 0.6993 0.0210
C24 C 0.5509(3) 0.4331(3) 0.3114(3)
H18 H 0.4678 0.4850 0.3123
H19 H 0.5468 0.3971 0.3681
H20 H 0.5452 0.3576 0.2479
C25 C 0.6650(3) 1.0553(3) 0.2160(3)
H21 H 0.6425 1.0681 0.1535
C26 C 0.5850(3) 0.9823(3) 0.3580(3)
H22 H 0.5089 0.9465 0.3909
C27 C 0.8218(3) 1.1153(3) 0.5861(3)
H23 H 0.7514 1.1270 0.6391
H24 H 0.8342 1.1967 0.5653
H25 H 0.9170 1.1013 0.6119
C28 C 0.7824(4) 0.4618(3) 0.5074(3)
H26 H 0.7815 0.3919 0.4444
loop_
_geom_bond_atom_site_label_1
_geom_bond_atom_site_label_2
_geom_bond_site_symmetry_1
_geom_bond_site_symmetry_2
N1 C5 1_555 1_555
N2 C5 1_555 1_555
N3 C1 1_555 1_555
O1 C14 1_555 1_555
N4 C12 1_555 1_555
N5 C1 1_555 1_555
N6 C3 1_555 1_555
C1 C4 1_555 1_555
C2 H1 1_555 1_555
C3 N3 1_555 1_555
C4 C7 1_555 1_555
C5 C11 1_555 1_555
C6 N5 1_555 1_555
C7 C2 1_555 1_555
H2 C7 1_555 1_555
C8 N2 1_555 1_555
C9 N6 1_555 1_555
C10 H3 1_555 1_555
C11 C10 1_555 1_555
H4 C11 1_555 1_555
C12 C13 1_555 1_555
C13 C6 1_555 1_555
H5 C13 1_555 1_555
C14 C4 1_555 1_555
H6 C14 1_555 1_555
C15 N1 1_555 1_555
C16 C8 1_555 1_555
H7 C16 1_555 1_555
C17 H8 1_555 1_555
C18 N6 1_555 1_555
H9 C18 1_555 1_555
H10 C18 1_555 1_555
H11 C18 1_555 1_555
C19 C12 1_555 1_555
H12 C19 1_555 1_555
O2 C28 1_555 1_555
C20 C10 1_555 1_555
C21 H13 1_555 1_555
C22 N5 1_555 1_555
H14 C22 1_555 1_555
H15 C22 1_555 1_555
H16 C22 1_555 1_555
C23 C6 1_555 1_555
H17 C23 1_555 1_555
C24 N4 1_555 1_555
H18 C24 1_555 1_555
H19 C24 1_555 1_555
H20 C24 1_555 1_555
C25 C9 1_555 1_555
H21 C25 1_555 1_555
C26 C8 1_555 1_555
H22 C26 1_555 1_555
C27 N2 1_555 1_555
H23 C27 1_555 1_555
H24 C27 1_555 1_555
H25 C27 1_555 1_555
C28 C20 1_555 1_555
H26 C28 1_555 1_555
N4 C15 1_555 1_555
C2 C3 1_555 1_555
C9 C16 1_555 1_555
C15 C20 1_555 1_555
C17 C19 1_555 1_555
C17 C23 1_555 1_555
C21 C25 1_555 1_555
C21 C26 1_555 1_555

#END
