
#######################################################################
#
#                 Cambridge Crystallographic Data Centre
#                                CCDC 
#
#######################################################################
#
# If this CIF has been generated from an entry in the Cambridge 
# Structural Database, then it will include bibliographic, chemical, 
# crystal, experimental, refinement or atomic coordinate data resulting 
# from the CCDC's data processing and validation procedures.
#
#######################################################################

data_KUXTOO
_chemical_formula_moiety         'C28 H24 N8 O4,C1 H1 Cl3'
_chemical_name_systematic        
'2,8,14,20-tetramethyl-2,8,14,20,25,26,27,28-octaazapentacyclo[19.3.1.1^3,7^.1^9,13^.1^15,19^]octacosa-1(25),3(28),4,6,9(27),10,12,15(26),16,18,21,23-dodecaene-4,12,16,24-tetracarbaldehyde chloroform solvate'
_symmetry_cell_setting           triclinic
_symmetry_space_group_name_H-M   'P -1'
_symmetry_Int_Tables_number      2
_space_group_name_Hall           '-P 1'
loop_
_symmetry_equiv_pos_site_id
_symmetry_equiv_pos_as_xyz
1 x,y,z
2 -x,-y,-z
_cell_length_a                   9.641(3)
_cell_length_b                   11.263(4)
_cell_length_c                   13.731(5)
_cell_angle_alpha                82.779(12)
_cell_angle_beta                 83.587(14)
_cell_angle_gamma                81.730(11)
_cell_volume                     1457.13
_exptl_crystal_colour            'light yellow'
_exptl_crystal_description       block
_cell_formula_units_Z            2
loop_
_atom_site_label
_atom_site_type_symbol
_atom_site_fract_x
_atom_site_fract_y
_atom_site_fract_z
Cl1 Cl 0.3000(2) 0.66361(18) 0.03376(14)
Cl2 Cl 0.09778(10) 0.86773(8) 0.04343(6)
Cl3 Cl 0.0261(3) 0.6302(2) 0.12385(14)
C1 C 0.1544(6) 0.7275(5) 0.1057(5)
H1 H 0.1838 0.7393 0.1710
O1 O 0.5785(2) 0.20874(16) 0.2809(2)
O2 O 0.62416(18) 0.50404(16) 0.41715(15)
O3 O -0.0901(4) 1.3831(3) 0.1771(3)
O4 O 0.2399(2) 1.10163(18) 0.50112(15)
N1 N 0.24843(19) 1.02827(15) 0.21474(13)
N2 N 0.01960(19) 1.03070(16) 0.28498(14)
N3 N 0.04778(17) 0.82257(15) 0.33759(13)
N4 N 0.07913(18) 0.61317(16) 0.37895(14)
N5 N 0.30505(17) 0.58964(14) 0.30654(13)
N6 N 0.52918(18) 0.58624(15) 0.22862(14)
N7 N 0.51268(18) 0.79613(15) 0.19220(13)
N8 N 0.4777(2) 1.00554(16) 0.14979(14)
C3 C 0.3500(2) 1.07500(18) 0.15382(16)
C4 C 0.3242(3) 1.1865(2) 0.0945(2)
H3 H 0.3948 1.2158 0.0475
C5 C 0.1932(3) 1.2500(2) 0.1080(2)
H4 H 0.1734 1.3260 0.0702
C6 C 0.0874(3) 1.2074(2) 0.1752(2)
C7 C 0.1201(2) 1.09031(18) 0.22400(16)
C8 C -0.0556(10) 1.2803(8) 0.2155(7)
H5 H -0.1138 1.2451 0.2685
C9 C -0.1155(2) 1.0229(3) 0.24730(19)
H6 H -0.1323 1.0867 0.1928
H7 H -0.1918 1.0328 0.3003
H8 H -0.1125 0.9439 0.2237
C10 C 0.07247(19) 0.93256(18) 0.35125(15)
C11 C 0.1472(2) 0.95415(18) 0.42769(15)
C12 C 0.2034(2) 0.8552(2) 0.48875(15)
H9 H 0.2558 0.8664 0.5408
C13 C 0.1826(2) 0.74052(19) 0.47318(16)
H10 H 0.2212 0.6713 0.5132
C14 C 0.1036(2) 0.72998(18) 0.39733(16)
C15 C 0.1623(2) 1.0782(2) 0.44534(16)
H11 H 0.1076 1.1434 0.4106
C16 C -0.0655(2) 0.5871(2) 0.38384(18)
H12 H -0.0883 0.5378 0.4461
H13 H -0.0756 0.5430 0.3284
H14 H -0.1297 0.6630 0.3803
C17 C 0.1920(2) 0.53685(17) 0.34302(15)
C18 C 0.1870(2) 0.41210(19) 0.34255(17)
H15 H 0.1026 0.3776 0.3626
C19 C 0.3088(2) 0.34361(18) 0.31207(17)
H16 H 0.3102 0.2590 0.3129
C20 C 0.4315(2) 0.39515(18) 0.27973(17)
C21 C 0.4211(2) 0.52165(17) 0.27323(16)
C22 C 0.5666(3) 0.3184(2) 0.2692(2)
H17 H 0.6495 0.3560 0.2524
C23 C 0.5986(4) 0.5623(3) 0.1329(3)
H18 H 0.5712 0.4881 0.1148
H19 H 0.7009 0.5526 0.1352
H20 H 0.5708 0.6299 0.0837
C24 C 0.52979(19) 0.70043(17) 0.25971(15)
C25 C 0.5464(2) 0.71047(18) 0.35856(16)
C26 C 0.5333(2) 0.82550(19) 0.38803(16)
H21 H 0.5408 0.8354 0.4549
C27 C 0.5093(2) 0.92527(19) 0.31965(17)
H22 H 0.4989 1.0048 0.3381
C28 C 0.5010(2) 0.90535(17) 0.22368(16)
C29 C 0.5864(2) 0.6077(2) 0.43249(19)
H23 H 0.5819 0.6247 0.4989
C30 C 0.6003(3) 1.0430(2) 0.08791(18)
H24 H 0.5740 1.0725 0.0214
H25 H 0.6747 0.9741 0.0846
H26 H 0.6347 1.1077 0.1162
Cl4? Cl 0.1935(6) 0.6087(4) 0.0618(3)
Cl5? Cl -0.0850(5) 0.7058(4) 0.13292(16)
C2? C 0.0908(7) 0.7286(6) 0.1144(6)
H2? H 0.1243 0.7337 0.1799
O5? O -0.1052(5) 1.2980(4) 0.2560(4)
C31? C -0.0205(10) 1.2991(9) 0.1844(8)
H27? H -0.0290 1.3648 0.1338
loop_
_geom_bond_atom_site_label_1
_geom_bond_atom_site_label_2
_geom_bond_site_symmetry_1
_geom_bond_site_symmetry_2
Cl1 C1 1_555 1_555
Cl2 C1 1_555 1_555
Cl3 C1 1_555 1_555
C1 H1 1_555 1_555
O1 C22 1_555 1_555
O2 C29 1_555 1_555
O3 C8 1_555 1_555
O4 C15 1_555 1_555
N1 C3 1_555 1_555
N2 C7 1_555 1_555
N3 C10 1_555 1_555
N4 C14 1_555 1_555
N5 C17 1_555 1_555
N6 C21 1_555 1_555
N7 C24 1_555 1_555
N8 C3 1_555 1_555
C3 C4 1_555 1_555
C4 H3 1_555 1_555
C5 C4 1_555 1_555
H4 C5 1_555 1_555
C6 C5 1_555 1_555
C7 N1 1_555 1_555
C8 C6 1_555 1_555
H5 C8 1_555 1_555
C9 N2 1_555 1_555
H6 C9 1_555 1_555
H7 C9 1_555 1_555
H8 C9 1_555 1_555
C10 N2 1_555 1_555
C11 C10 1_555 1_555
C12 C11 1_555 1_555
H9 C12 1_555 1_555
C13 C12 1_555 1_555
H10 C13 1_555 1_555
C14 N3 1_555 1_555
C15 C11 1_555 1_555
H11 C15 1_555 1_555
C16 N4 1_555 1_555
H12 C16 1_555 1_555
H13 C16 1_555 1_555
H14 C16 1_555 1_555
C17 N4 1_555 1_555
C18 C17 1_555 1_555
H15 C18 1_555 1_555
C19 C18 1_555 1_555
H16 C19 1_555 1_555
C20 C19 1_555 1_555
C21 N5 1_555 1_555
C22 C20 1_555 1_555
H17 C22 1_555 1_555
C23 N6 1_555 1_555
H18 C23 1_555 1_555
H19 C23 1_555 1_555
H20 C23 1_555 1_555
C24 N6 1_555 1_555
C25 C24 1_555 1_555
C26 C25 1_555 1_555
H21 C26 1_555 1_555
C27 C26 1_555 1_555
H22 C27 1_555 1_555
C28 N7 1_555 1_555
C29 C25 1_555 1_555
H23 C29 1_555 1_555
C30 N8 1_555 1_555
H24 C30 1_555 1_555
H25 C30 1_555 1_555
H26 C30 1_555 1_555
N8 C28 1_555 1_555
C6 C7 1_555 1_555
C13 C14 1_555 1_555
C20 C21 1_555 1_555
C27 C28 1_555 1_555

#END
