
#######################################################################
#
#                 Cambridge Crystallographic Data Centre
#                                CCDC 
#
#######################################################################
#
# If this CIF has been generated from an entry in the Cambridge 
# Structural Database, then it will include bibliographic, chemical, 
# crystal, experimental, refinement or atomic coordinate data resulting 
# from the CCDC's data processing and validation procedures.
#
#######################################################################

data_KUXTUU
_chemical_formula_moiety         'C30 H26 N6 O4'
_chemical_name_systematic        
2,8,14,20-tetramethyl-2,8,14,20,25,27-hexaazapentacyclo[19.3.1.1^3,7^.1^9,13^.1^15,19^]octacosa-1(25),3(28),4,6,9(27),10,12,15(26),16,18,21,23-dodecaene-10,12,22,24-tetracarbaldehyde
_symmetry_cell_setting           triclinic
_symmetry_space_group_name_H-M   'P -1'
_symmetry_Int_Tables_number      2
_space_group_name_Hall           '-P 1'
loop_
_symmetry_equiv_pos_site_id
_symmetry_equiv_pos_as_xyz
1 x,y,z
2 -x,-y,-z
_cell_length_a                   10.070(3)
_cell_length_b                   10.403(3)
_cell_length_c                   12.774(3)
_cell_angle_alpha                70.851(7)
_cell_angle_beta                 79.601(9)
_cell_angle_gamma                88.998(11)
_cell_volume                     1242.12
_exptl_crystal_colour            yellow
_exptl_crystal_description       block
_cell_formula_units_Z            2
loop_
_atom_site_label
_atom_site_type_symbol
_atom_site_fract_x
_atom_site_fract_y
_atom_site_fract_z
O1 O -0.03088(17) -0.17336(15) 0.82504(14)
O2 O 0.20778(19) -0.19699(18) 1.12634(15)
O3 O 0.84503(16) 0.99073(16) 0.55224(14)
O4 O 0.43685(17) 0.93447(16) 0.26269(13)
N1 N 0.09180(16) 0.25364(15) 0.68094(13)
N2 N 0.20709(15) 0.22128(15) 0.82342(12)
N3 N 0.32796(15) 0.22218(15) 0.95846(13)
N4 N 0.56513(16) 0.66776(17) 0.76049(13)
N5 N 0.46616(15) 0.69045(15) 0.60753(12)
N6 N 0.36506(16) 0.67491(15) 0.46567(12)
C1 C 0.25377(17) 0.60154(18) 0.55052(14)
C2 C 0.16827(18) 0.67292(18) 0.60748(16)
H1 H 0.1844 0.7659 0.5908
C3 C 0.05906(19) 0.60585(19) 0.68905(17)
H2 H 0.0024 0.6540 0.7272
C4 C 0.03356(19) 0.4671(2) 0.71430(16)
H3 H -0.0401 0.4221 0.7686
C5 C 0.11955(18) 0.39735(17) 0.65729(15)
C6 C 0.22933(18) 0.46280(18) 0.57504(15)
H4 H 0.2858 0.4144 0.5369
C7 C 0.0037(2) 0.2221(2) 0.61278(19)
H5 H -0.0776 0.1751 0.6609
H6 H 0.0493 0.1654 0.5730
H7 H -0.0187 0.3052 0.5596
C8 C 0.13032(18) 0.16347(18) 0.77323(15)
C9 C 0.09608(19) 0.02001(18) 0.81677(15)
C10 C 0.13655(19) -0.05032(18) 0.91797(16)
H8 H 0.1123 -0.1427 0.9506
C11 C 0.21048(19) 0.00809(19) 0.97322(15)
C12 C 0.24763(18) 0.14977(18) 0.91850(15)
C13 C 0.0194(2) -0.0601(2) 0.77049(19)
H9 H 0.0085 -0.0227 0.6959
C14 C 0.2277(2) -0.0741(2) 1.08773(18)
H10 H 0.2553 -0.0296 1.1330
C15 C 0.4355(3) 0.1633(2) 1.0161(3)
H11 H 0.4221 0.1769 1.0880
H12 H 0.5203 0.2061 0.9718
H13 H 0.4360 0.0675 1.0270
C16 C 0.32756(18) 0.36815(17) 0.91839(14)
C17 C 0.20915(18) 0.43212(19) 0.94236(15)
H14 H 0.1297 0.3808 0.9802
C18 C 0.21047(19) 0.57297(19) 0.90935(16)
H15 H 0.1318 0.6161 0.9261
C19 C 0.3283(2) 0.65031(19) 0.85140(16)
H16 H 0.3284 0.7449 0.8295
C20 C 0.44529(18) 0.58630(19) 0.82637(14)
C21 C 0.44592(18) 0.44475(18) 0.86132(14)
H17 H 0.5254 0.4017 0.8465
C22 C 0.6933(2) 0.6262(3) 0.7977(2)
H18 H 0.7219 0.6888 0.8310
H19 H 0.7607 0.6261 0.7340
H20 H 0.6814 0.5363 0.8523
C23 C 0.56351(18) 0.73420(18) 0.64786(15)
C24 C 0.66159(18) 0.83854(19) 0.57699(16)
C25 C 0.64912(19) 0.89141(19) 0.46448(16)
H21 H 0.7111 0.9597 0.4162
C26 C 0.54953(18) 0.84808(18) 0.42026(15)
C27 C 0.45943(17) 0.73928(17) 0.49794(15)
C28 C 0.7592(2) 0.9074(2) 0.61607(18)
H22 H 0.7549 0.8862 0.6933
C29 C 0.5324(2) 0.9332(2) 0.30753(16)
H23 H 0.6042 0.9938 0.2652
C30 C 0.3922(2) 0.6489(2) 0.35818(16)
H24 H 0.3812 0.5530 0.3717
H25 H 0.4831 0.6797 0.3206
H26 H 0.3302 0.6970 0.3117
loop_
_geom_bond_atom_site_label_1
_geom_bond_atom_site_label_2
_geom_bond_site_symmetry_1
_geom_bond_site_symmetry_2
O1 C13 1_555 1_555
O2 C14 1_555 1_555
O3 C28 1_555 1_555
O4 C29 1_555 1_555
N1 C5 1_555 1_555
N2 C8 1_555 1_555
N3 C12 1_555 1_555
N4 C20 1_555 1_555
N5 C23 1_555 1_555
N6 C1 1_555 1_555
C1 C2 1_555 1_555
C2 H1 1_555 1_555
C3 C2 1_555 1_555
H2 C3 1_555 1_555
C4 C3 1_555 1_555
H3 C4 1_555 1_555
C5 C4 1_555 1_555
C6 C1 1_555 1_555
H4 C6 1_555 1_555
C7 N1 1_555 1_555
H5 C7 1_555 1_555
H6 C7 1_555 1_555
H7 C7 1_555 1_555
C8 N1 1_555 1_555
C9 C8 1_555 1_555
C10 C9 1_555 1_555
H8 C10 1_555 1_555
C11 C10 1_555 1_555
C12 N2 1_555 1_555
C13 C9 1_555 1_555
H9 C13 1_555 1_555
C14 C11 1_555 1_555
H10 C14 1_555 1_555
C15 N3 1_555 1_555
H11 C15 1_555 1_555
H12 C15 1_555 1_555
H13 C15 1_555 1_555
C16 N3 1_555 1_555
C17 C16 1_555 1_555
H14 C17 1_555 1_555
C18 C17 1_555 1_555
H15 C18 1_555 1_555
C19 C18 1_555 1_555
H16 C19 1_555 1_555
C20 C19 1_555 1_555
C21 C16 1_555 1_555
H17 C21 1_555 1_555
C22 N4 1_555 1_555
H18 C22 1_555 1_555
H19 C22 1_555 1_555
H20 C22 1_555 1_555
C23 N4 1_555 1_555
C24 C23 1_555 1_555
C25 C24 1_555 1_555
H21 C25 1_555 1_555
C26 C25 1_555 1_555
C27 N5 1_555 1_555
C28 C24 1_555 1_555
H22 C28 1_555 1_555
C29 C26 1_555 1_555
H23 C29 1_555 1_555
C30 N6 1_555 1_555
H24 C30 1_555 1_555
H25 C30 1_555 1_555
H26 C30 1_555 1_555
N6 C27 1_555 1_555
C5 C6 1_555 1_555
C11 C12 1_555 1_555
C20 C21 1_555 1_555
C26 C27 1_555 1_555

#END
