
#######################################################################
#
#                 Cambridge Crystallographic Data Centre
#                                CCDC 
#
#######################################################################
#
# If this CIF has been generated from an entry in the Cambridge 
# Structural Database, then it will include bibliographic, chemical, 
# crystal, experimental, refinement or atomic coordinate data resulting 
# from the CCDC's data processing and validation procedures.
#
#######################################################################

data_KUXVEG
_chemical_formula_moiety         'C62 H59 N4 O4 P1,C3 H6 O1'
_chemical_name_systematic        
"2,2,2',2'-tetramethyl-4,4,4',4',8,8,8',8'-octaphenyl-3a',4,4',5,5',7,8,8',8a,8a'-decahydro-3aH-6,6'-spirobi[[1,3]dioxolo[4,5-e][1,3,2]diazaphosphepine] acetone solvate"
_symmetry_cell_setting           monoclinic
_symmetry_space_group_name_H-M   'P 21'
_symmetry_Int_Tables_number      4
_space_group_name_Hall           'P 2yb'
loop_
_symmetry_equiv_pos_site_id
_symmetry_equiv_pos_as_xyz
1 x,y,z
2 -x,1/2+y,-z
_cell_length_a                   12.0658(10)
_cell_length_b                   17.7295(13)
_cell_length_c                   13.2309(10)
_cell_angle_alpha                90
_cell_angle_beta                 104.155(2)
_cell_angle_gamma                90
_cell_volume                     2744.43
_exptl_crystal_colour            colorless
_exptl_crystal_description       prismatic
_cell_formula_units_Z            2
loop_
_atom_site_label
_atom_site_type_symbol
_atom_site_fract_x
_atom_site_fract_y
_atom_site_fract_z
P1 P 0.74776(9) 0.39635(6) 0.72461(8)
N1 N 0.7572(3) 0.31662(18) 0.6807(3)
N2 N 0.7138(3) 0.4618(2) 0.6337(3)
N3 N 0.8594(3) 0.41988(18) 0.8189(2)
N4 N 0.6421(3) 0.4078(2) 0.7805(3)
O1 O 0.9001(3) 0.30306(15) 0.4640(2)
O2 O 0.8427(3) 0.42145(15) 0.4132(2)
O3 O 0.7925(2) 0.56024(15) 1.0002(2)
O4 O 0.7014(3) 0.46042(18) 1.0544(2)
C1 C 0.8377(3) 0.2845(2) 0.6274(3)
C2 C 0.8182(4) 0.3260(2) 0.5211(3)
H1 H 0.7427 0.3108 0.4796
C3 C 0.8240(4) 0.4128(2) 0.5148(3)
H2 H 0.8908 0.4313 0.5669
C4 C 0.8971(4) 0.3567(2) 0.3836(4)
C5 C 0.7172(3) 0.4587(2) 0.5221(3)
C6 C 1.0179(4) 0.3745(3) 0.3807(4)
H3 H 1.0176 0.4083 0.3239
H4 H 1.0566 0.3287 0.3710
H5 H 1.0568 0.3978 0.4451
C7 C 0.8230(5) 0.3284(3) 0.2809(4)
H6 H 0.7483 0.3161 0.2895
H7 H 0.8572 0.2842 0.2595
H8 H 0.8167 0.3669 0.2289
C8 C 0.9603(4) 0.2864(2) 0.6981(3)
C9 C 1.0523(4) 0.3247(3) 0.6780(4)
H9 H 1.0437 0.3518 0.6165
C10 C 1.1586(4) 0.3225(3) 0.7504(5)
H10 H 1.2199 0.3494 0.7377
C11 C 1.1727(5) 0.2805(3) 0.8407(5)
H11 H 1.2436 0.2784 0.8880
C12 C 1.0828(6) 0.2425(3) 0.8599(4)
H12 H 1.0927 0.2141 0.9205
C13 C 0.9768(4) 0.2454(3) 0.7909(4)
H13 H 0.9156 0.2198 0.8063
C14 C 0.8064(3) 0.2009(2) 0.6047(3)
C15 C 0.7133(4) 0.1700(2) 0.6316(4)
H14 H 0.6670 0.2004 0.6613
C16 C 0.6869(4) 0.0933(3) 0.6150(4)
H15 H 0.6241 0.0730 0.6344
C17 C 0.7547(4) 0.0479(3) 0.5698(4)
H16 H 0.7372 -0.0029 0.5583
C18 C 0.8471(5) 0.0780(3) 0.5422(4)
H17 H 0.8927 0.0476 0.5116
C19 C 0.8732(4) 0.1533(3) 0.5596(4)
H18 H 0.9368 0.1730 0.5408
C20 C 0.7217(4) 0.5426(2) 0.4886(3)
C21 C 0.6273(4) 0.5863(3) 0.4914(4)
H19 H 0.5675 0.5653 0.5148
C22 C 0.6214(5) 0.6610(3) 0.4594(4)
H20 H 0.5581 0.6900 0.4623
C23 C 0.7073(5) 0.6920(3) 0.4239(4)
H21 H 0.7024 0.7420 0.4017
C24 C 0.8010(4) 0.6498(3) 0.4207(4)
H22 H 0.8597 0.6711 0.3959
C25 C 0.8095(4) 0.5751(3) 0.4542(3)
H23 H 0.8745 0.5472 0.4533
C26 C 0.6070(4) 0.4242(2) 0.4527(3)
C27 C 0.5305(4) 0.3829(3) 0.4916(4)
H24 H 0.5445 0.3744 0.5630
C28 C 0.4319(4) 0.3536(3) 0.4251(5)
H25 H 0.3806 0.3255 0.4521
C29 C 0.4110(5) 0.3663(3) 0.3203(6)
H26 H 0.3455 0.3464 0.2759
C30 C 0.4852(5) 0.4077(4) 0.2801(4)
H27 H 0.4703 0.4163 0.2087
C31 C 0.5823(5) 0.4368(3) 0.3458(4)
H28 H 0.6324 0.4654 0.3181
C32 C 0.8842(3) 0.4913(2) 0.8807(3)
C33 C 0.7729(3) 0.5068(2) 0.9180(3)
H29 H 0.7122 0.5248 0.8595
C34 C 0.7465(4) 0.5333(3) 1.0840(3)
C35 C 0.7338(3) 0.4355(2) 0.9641(3)
H30 H 0.7995 0.4015 0.9856
C36 C 0.6349(3) 0.3918(2) 0.8883(3)
C37 C 0.8434(4) 0.5279(3) 1.1799(4)
H31 H 0.9000 0.4936 1.1673
H32 H 0.8149 0.5098 1.2372
H33 H 0.8770 0.5768 1.1966
C38 C 0.6514(5) 0.5829(3) 1.0979(5)
H34 H 0.6816 0.6311 1.1241
H35 H 0.6142 0.5600 1.1465
H36 H 0.5972 0.5895 1.0321
C39 C 0.9137(4) 0.5538(2) 0.8121(3)
C40 C 0.8551(4) 0.6208(3) 0.7931(4)
H37 H 0.7955 0.6304 0.8246
C41 C 0.8844(6) 0.6745(3) 0.7267(5)
H38 H 0.8430 0.7192 0.7128
C42 C 0.9739(6) 0.6616(3) 0.6819(4)
H39 H 0.9932 0.6974 0.6377
C43 C 1.0340(5) 0.5968(3) 0.7022(4)
H40 H 1.0957 0.5886 0.6731
C44 C 1.0041(4) 0.5419(3) 0.7667(4)
H41 H 1.0452 0.4971 0.7791
C45 C 0.9839(3) 0.4780(3) 0.9741(3)
C46 C 1.0188(4) 0.4080(3) 1.0141(3)
H42 H 0.9842 0.3652 0.9797
C47 C 1.1045(4) 0.4000(3) 1.1046(4)
H43 H 1.1271 0.3520 1.1299
C48 C 1.1568(4) 0.4628(4) 1.1578(4)
H44 H 1.2135 0.4572 1.2192
C49 C 1.1243(4) 0.5331(3) 1.1193(4)
H45 H 1.1591 0.5755 1.1546
C50 C 1.0391(4) 0.5414(3) 1.0275(3)
H46 H 1.0186 0.5894 1.0012
C51 C 0.5184(3) 0.4196(2) 0.9009(3)
C52 C 0.4691(4) 0.3885(3) 0.9757(3)
H47 H 0.5071 0.3501 1.0183
C53 C 0.3661(4) 0.4132(4) 0.9879(4)
H48 H 0.3356 0.3917 1.0393
C54 C 0.3077(4) 0.4682(4) 0.9269(5)
H49 H 0.2369 0.4840 0.9351
C55 C 0.3538(5) 0.5000(3) 0.8533(5)
H50 H 0.3145 0.5384 0.8115
C56 C 0.4581(4) 0.4763(3) 0.8397(4)
H51 H 0.4881 0.4988 0.7887
C57 C 0.6429(4) 0.3050(2) 0.9069(4)
C58 C 0.7133(5) 0.2739(3) 0.9942(4)
H52 H 0.7582 0.3044 1.0454
C59 C 0.7162(6) 0.1947(3) 1.0048(6)
H53 H 0.7655 0.1726 1.0623
C60 C 0.6470(6) 0.1498(3) 0.9309(6)
H54 H 0.6484 0.0977 0.9387
C61 C 0.5766(6) 0.1822(3) 0.8468(5)
H55 H 0.5292 0.1522 0.7967
C62 C 0.5746(4) 0.2589(3) 0.8348(4)
H56 H 0.5257 0.2802 0.7764
H57 H 0.698(3) 0.5005(15) 0.656(3)
H58 H 0.582(2) 0.415(2) 0.736(3)
H59 H 0.918(2) 0.399(2) 0.815(3)
O5 O 0.5638(6) 0.6193(5) 0.7252(5)
C63 C 0.5032(10) 0.6671(5) 0.7444(11)
C64 C 0.3982(7) 0.6739(4) 0.6681(6)
H60 H 0.4041 0.7135 0.6203
H61 H 0.3381 0.6855 0.7016
H62 H 0.3813 0.6271 0.6309
C65 C 0.5473(10) 0.7059(4) 0.8491(6)
H63 H 0.5603 0.6690 0.9037
H64 H 0.4917 0.7419 0.8598
H65 H 0.6176 0.7315 0.8498
loop_
_geom_bond_atom_site_label_1
_geom_bond_atom_site_label_2
_geom_bond_site_symmetry_1
_geom_bond_site_symmetry_2
P1 N1 1_555 1_555
N1 C1 1_555 1_555
N2 P1 1_555 1_555
N3 P1 1_555 1_555
N4 P1 1_555 1_555
O1 C2 1_555 1_555
O2 C3 1_555 1_555
O3 C33 1_555 1_555
O4 C34 1_555 1_555
C1 C2 1_555 1_555
C2 H1 1_555 1_555
C3 C2 1_555 1_555
H2 C3 1_555 1_555
C4 O1 1_555 1_555
C5 N2 1_555 1_555
C6 C4 1_555 1_555
H3 C6 1_555 1_555
H4 C6 1_555 1_555
H5 C6 1_555 1_555
C7 C4 1_555 1_555
H6 C7 1_555 1_555
H7 C7 1_555 1_555
H8 C7 1_555 1_555
C8 C1 1_555 1_555
C9 C8 1_555 1_555
H9 C9 1_555 1_555
C10 C9 1_555 1_555
H10 C10 1_555 1_555
C11 C10 1_555 1_555
H11 C11 1_555 1_555
C12 C11 1_555 1_555
H12 C12 1_555 1_555
C13 C8 1_555 1_555
H13 C13 1_555 1_555
C14 C1 1_555 1_555
C15 C14 1_555 1_555
H14 C15 1_555 1_555
C16 C15 1_555 1_555
H15 C16 1_555 1_555
C17 C16 1_555 1_555
H16 C17 1_555 1_555
C18 C17 1_555 1_555
H17 C18 1_555 1_555
C19 C14 1_555 1_555
H18 C19 1_555 1_555
C20 C5 1_555 1_555
C21 C20 1_555 1_555
H19 C21 1_555 1_555
C22 C21 1_555 1_555
H20 C22 1_555 1_555
C23 C22 1_555 1_555
H21 C23 1_555 1_555
C24 C23 1_555 1_555
H22 C24 1_555 1_555
C25 C20 1_555 1_555
H23 C25 1_555 1_555
C26 C5 1_555 1_555
C27 C26 1_555 1_555
H24 C27 1_555 1_555
C28 C27 1_555 1_555
H25 C28 1_555 1_555
C29 C28 1_555 1_555
H26 C29 1_555 1_555
C30 C29 1_555 1_555
H27 C30 1_555 1_555
C31 C26 1_555 1_555
H28 C31 1_555 1_555
C32 N3 1_555 1_555
C33 C32 1_555 1_555
H29 C33 1_555 1_555
C34 O3 1_555 1_555
C35 O4 1_555 1_555
H30 C35 1_555 1_555
C36 N4 1_555 1_555
C37 C34 1_555 1_555
H31 C37 1_555 1_555
H32 C37 1_555 1_555
H33 C37 1_555 1_555
C38 C34 1_555 1_555
H34 C38 1_555 1_555
H35 C38 1_555 1_555
H36 C38 1_555 1_555
C39 C32 1_555 1_555
C40 C39 1_555 1_555
H37 C40 1_555 1_555
C41 C40 1_555 1_555
H38 C41 1_555 1_555
C42 C41 1_555 1_555
H39 C42 1_555 1_555
C43 C42 1_555 1_555
H40 C43 1_555 1_555
C44 C39 1_555 1_555
H41 C44 1_555 1_555
C45 C32 1_555 1_555
C46 C45 1_555 1_555
H42 C46 1_555 1_555
C47 C46 1_555 1_555
H43 C47 1_555 1_555
C48 C47 1_555 1_555
H44 C48 1_555 1_555
C49 C48 1_555 1_555
H45 C49 1_555 1_555
C50 C45 1_555 1_555
H46 C50 1_555 1_555
C51 C36 1_555 1_555
C52 C51 1_555 1_555
H47 C52 1_555 1_555
C53 C52 1_555 1_555
H48 C53 1_555 1_555
C54 C53 1_555 1_555
H49 C54 1_555 1_555
C55 C54 1_555 1_555
H50 C55 1_555 1_555
C56 C51 1_555 1_555
H51 C56 1_555 1_555
C57 C36 1_555 1_555
C58 C57 1_555 1_555
H52 C58 1_555 1_555
C59 C58 1_555 1_555
H53 C59 1_555 1_555
C60 C59 1_555 1_555
H54 C60 1_555 1_555
C61 C60 1_555 1_555
H55 C61 1_555 1_555
C62 C57 1_555 1_555
H56 C62 1_555 1_555
H57 N2 1_555 1_555
H58 N4 1_555 1_555
H59 N3 1_555 1_555
O5 C63 1_555 1_555
C63 C64 1_555 1_555
C64 H60 1_555 1_555
H61 C64 1_555 1_555
H62 C64 1_555 1_555
C65 C63 1_555 1_555
H63 C65 1_555 1_555
H64 C65 1_555 1_555
H65 C65 1_555 1_555
O2 C4 1_555 1_555
C3 C5 1_555 1_555
C12 C13 1_555 1_555
C18 C19 1_555 1_555
C24 C25 1_555 1_555
C30 C31 1_555 1_555
C33 C35 1_555 1_555
C35 C36 1_555 1_555
C43 C44 1_555 1_555
C49 C50 1_555 1_555
C55 C56 1_555 1_555
C61 C62 1_555 1_555

#END
