
#######################################################################
#
#                 Cambridge Crystallographic Data Centre
#                                CCDC 
#
#######################################################################
#
# If this CIF has been generated from an entry in the Cambridge 
# Structural Database, then it will include bibliographic, chemical, 
# crystal, experimental, refinement or atomic coordinate data resulting 
# from the CCDC's data processing and validation procedures.
#
#######################################################################

data_KUYGUI
_chemical_formula_moiety         'C10 H15 N1 O6'
_chemical_name_systematic        
2,2,5-trimethyl-5-(2-nitropropyl)-1,3-dioxane-4,6-dione
_symmetry_cell_setting           monoclinic
_symmetry_space_group_name_H-M   'P 21'
_symmetry_Int_Tables_number      4
_space_group_name_Hall           'P 2yb'
loop_
_symmetry_equiv_pos_site_id
_symmetry_equiv_pos_as_xyz
1 x,y,z
2 -x,1/2+y,-z
_cell_length_a                   7.8901(7)
_cell_length_b                   11.4722(11)
_cell_length_c                   12.9352(12)
_cell_angle_alpha                90
_cell_angle_beta                 91.536(3)
_cell_angle_gamma                90
_cell_volume                     1170.43
_exptl_crystal_colour            colorless
_exptl_crystal_description       blade
_cell_formula_units_Z            4
loop_
_atom_site_label
_atom_site_type_symbol
_atom_site_fract_x
_atom_site_fract_y
_atom_site_fract_z
O1 O -0.22091(14) 0.44568(11) 0.69846(9)
O2 O 0.05298(13) 0.45283(10) 0.70258(8)
O3 O 0.31108(13) 0.20695(10) 0.65992(8)
O4 O 0.39739(12) 0.36892(11) 0.59002(8)
O5 O 0.21281(12) 0.48369(10) 0.47944(8)
O6 O -0.05484(12) 0.43661(9) 0.45949(7)
N1 N -0.08264(15) 0.39878(12) 0.69859(8)
C1 C -0.23159(18) 0.20889(16) 0.72479(11)
H1 H -0.2535 0.2298 0.7950
H2 H -0.2195 0.1258 0.7198
H3 H -0.3243 0.2340 0.6807
C2 C -0.06974(17) 0.26719(13) 0.69146(10)
H4 H 0.0232 0.2413 0.7377
C3 C -0.02792(16) 0.23214(13) 0.58088(10)
H5 H -0.1271 0.2487 0.5374
H6 H -0.0121 0.1483 0.5803
C4 C 0.12587(17) 0.28703(13) 0.52865(10)
C5 C 0.28228(17) 0.28379(14) 0.59914(10)
C6 C 0.38218(17) 0.46784(14) 0.52293(11)
C7 C 0.08524(16) 0.40804(13) 0.48877(10)
C8 C 0.16409(18) 0.21062(14) 0.43294(11)
H7 H 0.2541 0.2455 0.3951
H8 H 0.0642 0.2051 0.3892
H9 H 0.1976 0.1341 0.4554
C9 C 0.50267(18) 0.45328(16) 0.43564(12)
H10 H 0.4680 0.3879 0.3938
H11 H 0.6151 0.4401 0.4634
H12 H 0.5017 0.5226 0.3940
C10 C 0.4165(2) 0.57354(16) 0.58944(13)
H13 H 0.3313 0.5795 0.6408
H14 H 0.4141 0.6422 0.5470
H15 H 0.5261 0.5663 0.6229
O7 O 0.46633(18) 0.55637(15) 0.03550(11)
O8 O 0.19557(15) 0.53750(12) 0.05010(10)
O9 O -0.03384(14) 0.31264(12) -0.07934(8)
O10 O -0.12605(13) 0.36580(12) 0.07056(7)
O11 O 0.06130(12) 0.37600(11) 0.21996(7)
O12 O 0.33234(13) 0.34190(13) 0.20645(8)
N2 N 0.33068(18) 0.51108(14) 0.01167(10)
C11 C 0.4784(2) 0.4164(2) -0.13368(13)
H16 H 0.4875 0.4918 -0.1651
H17 H 0.4671 0.3580 -0.1866
H18 H 0.5784 0.4011 -0.0919
C12 C 0.3237(2) 0.41351(17) -0.06619(11)
H19 H 0.2226 0.4245 -0.1108
C13 C 0.30739(19) 0.29668(16) -0.01027(11)
H20 H 0.4116 0.2839 0.0296
H21 H 0.3005 0.2361 -0.0625
C14 C 0.15784(19) 0.27873(15) 0.06319(11)
C15 C -0.00629(19) 0.32024(15) 0.01176(11)
C16 C -0.11268(18) 0.37981(16) 0.18110(10)
C17 C 0.19321(19) 0.33650(15) 0.16725(11)
C18 C 0.1429(2) 0.14645(16) 0.08574(14)
H22 H 0.0552 0.1336 0.1345
H23 H 0.2489 0.1181 0.1140
H24 H 0.1155 0.1057 0.0227
C19 C -0.2124(2) 0.28485(18) 0.23166(12)
H25 H -0.1662 0.2104 0.2137
H26 H -0.3287 0.2890 0.2082
H27 H -0.2059 0.2946 0.3054
C20 C -0.1757(2) 0.50035(17) 0.20431(12)
H28 H -0.1068 0.5567 0.1702
H29 H -0.1694 0.5135 0.2776
H30 H -0.2912 0.5078 0.1800
loop_
_geom_bond_atom_site_label_1
_geom_bond_atom_site_label_2
_geom_bond_site_symmetry_1
_geom_bond_site_symmetry_2
O1 N1 1_555 1_555
O2 N1 1_555 1_555
O3 C5 1_555 1_555
O4 C5 1_555 1_555
O5 C6 1_555 1_555
O6 C7 1_555 1_555
N1 C2 1_555 1_555
C1 H1 1_555 1_555
H2 C1 1_555 1_555
H3 C1 1_555 1_555
C2 C1 1_555 1_555
H4 C2 1_555 1_555
C3 C2 1_555 1_555
H5 C3 1_555 1_555
H6 C3 1_555 1_555
C4 C3 1_555 1_555
C5 C4 1_555 1_555
C6 O4 1_555 1_555
C7 O5 1_555 1_555
C8 C4 1_555 1_555
H7 C8 1_555 1_555
H8 C8 1_555 1_555
H9 C8 1_555 1_555
C9 C6 1_555 1_555
H10 C9 1_555 1_555
H11 C9 1_555 1_555
H12 C9 1_555 1_555
C10 C6 1_555 1_555
H13 C10 1_555 1_555
H14 C10 1_555 1_555
H15 C10 1_555 1_555
O7 N2 1_555 1_555
O8 N2 1_555 1_555
O9 C15 1_555 1_555
O10 C15 1_555 1_555
O11 C16 1_555 1_555
O12 C17 1_555 1_555
N2 C12 1_555 1_555
C11 H16 1_555 1_555
H17 C11 1_555 1_555
H18 C11 1_555 1_555
C12 C11 1_555 1_555
H19 C12 1_555 1_555
C13 C12 1_555 1_555
H20 C13 1_555 1_555
H21 C13 1_555 1_555
C14 C13 1_555 1_555
C15 C14 1_555 1_555
C16 O10 1_555 1_555
C17 O11 1_555 1_555
C18 C14 1_555 1_555
H22 C18 1_555 1_555
H23 C18 1_555 1_555
H24 C18 1_555 1_555
C19 C16 1_555 1_555
H25 C19 1_555 1_555
H26 C19 1_555 1_555
H27 C19 1_555 1_555
C20 C16 1_555 1_555
H28 C20 1_555 1_555
H29 C20 1_555 1_555
H30 C20 1_555 1_555
C4 C7 1_555 1_555
C14 C17 1_555 1_555

#END
