
#######################################################################
#
#                 Cambridge Crystallographic Data Centre
#                                CCDC 
#
#######################################################################
#
# If this CIF has been generated from an entry in the Cambridge 
# Structural Database, then it will include bibliographic, chemical, 
# crystal, experimental, refinement or atomic coordinate data resulting 
# from the CCDC's data processing and validation procedures.
#
#######################################################################

data_KUYGIU
_chemical_name_common            'Eprazinone dihydrochloride'
_chemical_formula_moiety         'C24 H34 N2 O2 2+,2(Cl1 1-)'
_chemical_name_systematic        
'3-(4-(2-Ethoxy-2-phenylethyl)-1-piperazinyl)-2-methyl-1-phenyl-1-propanone dihydrochloride'
_chemical_properties_biological  'antitussive agent'
_symmetry_cell_setting           monoclinic
_symmetry_space_group_name_H-M   'P 21/n'
_symmetry_Int_Tables_number      14
_space_group_name_Hall           '-P 2yn'
loop_
_symmetry_equiv_pos_site_id
_symmetry_equiv_pos_as_xyz
1 x,y,z
2 1/2-x,1/2+y,1/2-z
3 -x,-y,-z
4 1/2+x,1/2-y,1/2+z
_cell_length_a                   11.381(2)
_cell_length_b                   28.318(2)
_cell_length_c                   7.840(1)
_cell_angle_alpha                90
_cell_angle_beta                 92.45(2)
_cell_angle_gamma                90
_cell_volume                     2524.42
_exptl_crystal_colour            colorless
_cell_formula_units_Z            4
loop_
_atom_site_label
_atom_site_type_symbol
_atom_site_fract_x
_atom_site_fract_y
_atom_site_fract_z
Cl1 Cl 0.4576(2) -0.0328(1) 0.2335(2)
Cl2 Cl 1.0257(2) 0.0431(1) 0.2639(3)
C1 C 0.6228(10) 0.1824(4) -0.1132(13)
C2 C 0.5424(8) 0.1517(4) -0.0231(14)
O1 O 0.6007(4) 0.1319(2) 0.1224(6)
C3 C 0.5287(7) 0.1022(3) 0.2228(10)
C4 C 0.4347(7) 0.1305(3) 0.3096(11)
C5 C 0.3168(8) 0.1200(3) 0.2767(12)
C6 C 0.2305(9) 0.1454(4) 0.3577(15)
C7 C 0.2628(11) 0.1805(4) 0.4650(17)
C8 C 0.3786(10) 0.1918(3) 0.5037(13)
C9 C 0.4634(8) 0.1658(4) 0.4194(13)
C10 C 0.6103(7) 0.0793(3) 0.3518(10)
N1 N 0.6598(5) 0.0333(2) 0.2929(7)
C11 C 0.7244(7) 0.0361(3) 0.1332(10)
C12 C 0.7628(7) -0.0130(3) 0.0796(10)
N2 N 0.8396(5) -0.0356(2) 0.2180(7)
C13 C 0.7747(7) -0.0374(3) 0.3789(11)
C14 C 0.7378(7) 0.0115(3) 0.4315(10)
C15 C 0.8775(7) -0.0846(3) 0.1646(10)
C16 C 0.9811(6) -0.1020(3) 0.2731(10)
C17 C 1.0996(6) -0.0836(3) 0.2102(12)
C18 C 0.9861(7) -0.1561(3) 0.2711(11)
O2 O 0.9290(6) -0.1771(2) 0.1604(9)
C19 C 1.0667(7) -0.1800(3) 0.3955(11)
C20 C 1.0980(7) -0.1626(3) 0.5530(13)
C21 C 1.1739(9) -0.1865(4) 0.6620(15)
C22 C 1.2208(10) -0.2294(5) 0.6155(21)
C23 C 1.1896(11) -0.2468(4) 0.4606(23)
C24 C 1.1129(9) -0.2246(3) 0.3504(15)
loop_
_geom_bond_atom_site_label_1
_geom_bond_atom_site_label_2
_geom_bond_site_symmetry_1
_geom_bond_site_symmetry_2
C1 C2 1_555 1_555
C2 O1 1_555 1_555
O1 C3 1_555 1_555
C3 C4 1_555 1_555
C4 C5 1_555 1_555
C5 C6 1_555 1_555
C6 C7 1_555 1_555
C7 C8 1_555 1_555
C8 C9 1_555 1_555
C9 C4 1_555 1_555
C10 C3 1_555 1_555
N1 C10 1_555 1_555
C11 N1 1_555 1_555
C12 C11 1_555 1_555
N2 C12 1_555 1_555
C13 N2 1_555 1_555
C14 N1 1_555 1_555
C15 N2 1_555 1_555
C16 C15 1_555 1_555
C17 C16 1_555 1_555
C18 C16 1_555 1_555
O2 C18 1_555 1_555
C19 C18 1_555 1_555
C20 C19 1_555 1_555
C21 C20 1_555 1_555
C22 C21 1_555 1_555
C23 C22 1_555 1_555
C24 C19 1_555 1_555
C13 C14 1_555 1_555
C23 C24 1_555 1_555

#END
