
#######################################################################
#
#                 Cambridge Crystallographic Data Centre
#                                CCDC 
#
#######################################################################
#
# If this CIF has been generated from an entry in the Cambridge 
# Structural Database, then it will include bibliographic, chemical, 
# crystal, experimental, refinement or atomic coordinate data resulting 
# from the CCDC's data processing and validation procedures.
#
#######################################################################

data_KUYRUT
_chemical_formula_moiety         'C24 H22 N2 O5'
_chemical_name_systematic        
'4-ethyl 7-methyl 2-benzyl-3-methyl-1-oxo-1,2-dihydropyrimido[1,6-a]indole-4,7-dicarboxylate'
_symmetry_cell_setting           monoclinic
_symmetry_space_group_name_H-M   'P 21/c'
_symmetry_Int_Tables_number      14
_space_group_name_Hall           '-P 2ybc'
loop_
_symmetry_equiv_pos_site_id
_symmetry_equiv_pos_as_xyz
1 x,y,z
2 -x,1/2+y,1/2-z
3 -x,-y,-z
4 x,1/2-y,1/2+z
_cell_length_a                   8.322(6)
_cell_length_b                   21.996(16)
_cell_length_c                   11.667(9)
_cell_angle_alpha                90
_cell_angle_beta                 107.208(8)
_cell_angle_gamma                90
_cell_volume                     2040.05
_exptl_crystal_colour            colorless
_exptl_crystal_description       Plane
_cell_formula_units_Z            4
loop_
_atom_site_label
_atom_site_type_symbol
_atom_site_fract_x
_atom_site_fract_y
_atom_site_fract_z
O1 O -0.21494(15) 0.47662(5) 1.24225(10)
O2 O -0.60902(18) 0.71883(6) 0.86396(11)
O3 O -0.52112(16) 0.68849(5) 0.71082(10)
O4 O -0.00852(17) 0.30162(5) 0.87752(11)
O5 O -0.01162(14) 0.39443(5) 0.79972(9)
N1 N -0.08621(15) 0.39566(5) 1.18265(10)
N2 N -0.21009(14) 0.47314(5) 1.04896(10)
C1 C 0.10711(19) 0.38684(7) 1.39412(13)
C2 C 0.1453(2) 0.44696(8) 1.42839(15)
H1 H 0.0710 0.4777 1.3918
C3 C 0.2920(2) 0.46150(10) 1.51604(17)
H2 H 0.3163 0.5019 1.5382
C4 C 0.4023(2) 0.41634(11) 1.57063(17)
H3 H 0.5013 0.4262 1.6297
C5 C 0.3670(3) 0.35686(10) 1.53836(17)
H4 H 0.4419 0.3264 1.5754
C6 C 0.2191(2) 0.34207(8) 1.45012(15)
H5 H 0.1953 0.3016 1.4286
C7 C -0.0582(2) 0.36989(7) 1.30429(13)
H6 H -0.0644 0.3259 1.2978
H7 H -0.1487 0.3832 1.3349
C8 C -0.17377(18) 0.45043(7) 1.16369(13)
C9 C -0.16436(17) 0.44557(6) 0.95400(12)
C10 C -0.07599(17) 0.38836(6) 0.98044(12)
C11 C -0.03882(18) 0.36467(6) 1.09307(13)
C12 C 0.0575(2) 0.30707(7) 1.13277(15)
H8 H 0.0849 0.2890 1.0660
H9 H -0.0098 0.2793 1.1624
H10 H 0.1592 0.3160 1.1953
C13 C -0.02863(18) 0.35584(7) 0.88355(13)
C14 C 0.0239(2) 0.36867(8) 0.69531(15)
H11 H 0.0950 0.3331 0.7190
H12 H 0.0839 0.3982 0.6618
C15 C -0.1344(3) 0.35118(9) 0.60307(16)
H13 H -0.1085 0.3343 0.5347
H14 H -0.2042 0.3865 0.5789
H15 H -0.1929 0.3215 0.6359
C16 C -0.22201(18) 0.48165(6) 0.85483(13)
H16 H -0.2089 0.4743 0.7796
C17 C -0.30582(17) 0.53261(6) 0.88686(12)
C18 C -0.29824(16) 0.52674(6) 1.00822(12)
C19 C -0.37186(19) 0.56866(7) 1.06663(13)
H17 H -0.3681 0.5636 1.1465
C20 C -0.45032(19) 0.61789(7) 1.00110(13)
H18 H -0.5009 0.6467 1.0376
C21 C -0.45626(18) 0.62593(6) 0.88075(13)
C22 C -0.38531(18) 0.58333(6) 0.82261(13)
H19 H -0.3906 0.5884 0.7424
C23 C -0.53649(19) 0.68214(7) 0.82064(14)
C24 C -0.5868(3) 0.74386(9) 0.64911(18)
H20 H -0.5697 0.7439 0.5713
H21 H -0.5296 0.7780 0.6945
H22 H -0.7049 0.7467 0.6404
loop_
_geom_bond_atom_site_label_1
_geom_bond_atom_site_label_2
_geom_bond_site_symmetry_1
_geom_bond_site_symmetry_2
O1 C8 1_555 1_555
O2 C23 1_555 1_555
O3 C23 1_555 1_555
O4 C13 1_555 1_555
O5 C13 1_555 1_555
N1 C7 1_555 1_555
N2 C8 1_555 1_555
C1 C2 1_555 1_555
C2 H1 1_555 1_555
C3 C2 1_555 1_555
H2 C3 1_555 1_555
C4 C3 1_555 1_555
H3 C4 1_555 1_555
C5 C4 1_555 1_555
H4 C5 1_555 1_555
C6 C1 1_555 1_555
H5 C6 1_555 1_555
C7 C1 1_555 1_555
H6 C7 1_555 1_555
H7 C7 1_555 1_555
C8 N1 1_555 1_555
C9 N2 1_555 1_555
C10 C9 1_555 1_555
C11 N1 1_555 1_555
C12 C11 1_555 1_555
H8 C12 1_555 1_555
H9 C12 1_555 1_555
H10 C12 1_555 1_555
C13 C10 1_555 1_555
C14 O5 1_555 1_555
H11 C14 1_555 1_555
H12 C14 1_555 1_555
C15 C14 1_555 1_555
H13 C15 1_555 1_555
H14 C15 1_555 1_555
H15 C15 1_555 1_555
C16 C9 1_555 1_555
H16 C16 1_555 1_555
C17 C16 1_555 1_555
C18 N2 1_555 1_555
C19 C18 1_555 1_555
H17 C19 1_555 1_555
C20 C19 1_555 1_555
H18 C20 1_555 1_555
C21 C20 1_555 1_555
C22 C17 1_555 1_555
H19 C22 1_555 1_555
C23 C21 1_555 1_555
C24 O3 1_555 1_555
H20 C24 1_555 1_555
H21 C24 1_555 1_555
H22 C24 1_555 1_555
C5 C6 1_555 1_555
C10 C11 1_555 1_555
C17 C18 1_555 1_555
C21 C22 1_555 1_555

#END
