
#######################################################################
#
#                 Cambridge Crystallographic Data Centre
#                                CCDC 
#
#######################################################################
#
# If this CIF has been generated from an entry in the Cambridge 
# Structural Database, then it will include bibliographic, chemical, 
# crystal, experimental, refinement or atomic coordinate data resulting 
# from the CCDC's data processing and validation procedures.
#
#######################################################################

data_KUYRAZ
_chemical_formula_moiety         'C32 H27 N2 O2 P1'
_chemical_name_systematic        
4-(diphenylphosphoryl)-2,6-dimethyl-5-phenyl-3,6-dihydroazepino[4,3-b]indol-1(2H)-one
_symmetry_cell_setting           monoclinic
_symmetry_space_group_name_H-M   'P 21/c'
_symmetry_Int_Tables_number      14
_space_group_name_Hall           '-P 2ybc'
loop_
_symmetry_equiv_pos_site_id
_symmetry_equiv_pos_as_xyz
1 x,y,z
2 -x,1/2+y,1/2-z
3 -x,-y,-z
4 x,1/2-y,1/2+z
_cell_length_a                   14.0310(7)
_cell_length_b                   8.9510(3)
_cell_length_c                   20.9862(11)
_cell_angle_alpha                90
_cell_angle_beta                 106.794(6)
_cell_angle_gamma                90
_cell_volume                     2523.28
_exptl_crystal_colour            'light yellow'
_exptl_crystal_description       block
_cell_formula_units_Z            4
loop_
_atom_site_label
_atom_site_type_symbol
_atom_site_fract_x
_atom_site_fract_y
_atom_site_fract_z
P1 P 0.27055(5) 0.71038(7) 0.02103(4)
O1 O 0.23981(15) 1.09640(19) -0.19749(9)
O2 O 0.20421(14) 0.60320(19) 0.04154(10)
N1 N 0.06794(16) 1.2169(2) -0.04875(10)
N2 N 0.20565(16) 0.8886(2) -0.14640(11)
C1 C 0.0412(2) 1.3095(3) -0.10375(13)
C2 C -0.0238(2) 1.4313(3) -0.11588(15)
H1 H -0.0575 1.4597 -0.0857
C3 C -0.0354(2) 1.5074(3) -0.17464(16)
H2 H -0.0779 1.5893 -0.1842
C4 C 0.0151(2) 1.4644(3) -0.22046(15)
H3 H 0.0071 1.5202 -0.2590
C5 C 0.0767(2) 1.3408(3) -0.20922(14)
H4 H 0.1087 1.3115 -0.2403
C6 C 0.08971(19) 1.2606(3) -0.15010(13)
C7 C 0.14467(19) 1.1291(3) -0.12219(13)
C8 C 0.13155(19) 1.1060(3) -0.05990(13)
C9 C 0.18293(19) 0.9983(3) -0.00941(13)
C10 C 0.20136(19) 0.8601(3) -0.02979(13)
C11 C 0.15336(19) 0.8203(3) -0.10280(13)
H5 H 0.1535 0.7126 -0.1079
H6 H 0.0846 0.8536 -0.1160
C12 C 0.20175(19) 1.0388(3) -0.15714(13)
C13 C 0.2394(2) 0.7933(3) -0.19206(14)
H7 H 0.1833 0.7639 -0.2283
H8 H 0.2712 0.7060 -0.1688
H9 H 0.2858 0.8474 -0.2091
C14 C 0.0307(2) 1.2358(3) 0.00871(14)
H10 H 0.0253 1.1399 0.0278
H11 H -0.0336 1.2824 -0.0050
H12 H 0.0758 1.2975 0.0412
C15 C 0.2144(2) 1.0521(3) 0.06091(13)
C16 C 0.2623(2) 1.1900(3) 0.07531(14)
H13 H 0.2772 1.2445 0.0417
C17 C 0.2877(2) 1.2457(3) 0.13967(15)
H14 H 0.3198 1.3374 0.1492
C18 C 0.2653(2) 1.1653(3) 0.18965(16)
H15 H 0.2823 1.2027 0.2328
C19 C 0.2179(2) 1.0294(3) 0.17543(14)
H16 H 0.2031 0.9750 0.2091
C20 C 0.1921(2) 0.9736(3) 0.11139(14)
H17 H 0.1594 0.8822 0.1022
C21 C 0.3646(2) 0.7857(3) 0.09094(13)
C22 C 0.4297(2) 0.9009(3) 0.08535(16)
H18 H 0.4225 0.9462 0.0444
C23 C 0.5044(3) 0.9471(4) 0.14064(18)
H19 H 0.5482 1.0220 0.1364
C24 C 0.5145(3) 0.8832(4) 0.20149(18)
H20 H 0.5651 0.9147 0.2383
C25 C 0.4504(3) 0.7732(4) 0.20851(17)
H21 H 0.4568 0.7319 0.2502
C26 C 0.3755(2) 0.7228(3) 0.15330(15)
H22 H 0.3328 0.6470 0.1582
C27 C 0.3356(2) 0.6205(3) -0.03159(14)
C28 C 0.2943(2) 0.4889(3) -0.06340(15)
H23 H 0.2374 0.4492 -0.0557
C29 C 0.3378(2) 0.4170(3) -0.10646(16)
H24 H 0.3094 0.3298 -0.1278
C30 C 0.4223(2) 0.4733(3) -0.11796(16)
H25 H 0.4509 0.4252 -0.1472
C31 C 0.4644(2) 0.6022(3) -0.08569(16)
H26 H 0.5222 0.6399 -0.0928
C32 C 0.4218(2) 0.6754(3) -0.04313(15)
H27 H 0.4509 0.7623 -0.0219
loop_
_geom_bond_atom_site_label_1
_geom_bond_atom_site_label_2
_geom_bond_site_symmetry_1
_geom_bond_site_symmetry_2
P1 O2 1_555 1_555
O1 C12 1_555 1_555
N1 C1 1_555 1_555
N2 C11 1_555 1_555
C1 C2 1_555 1_555
C2 H1 1_555 1_555
C3 C2 1_555 1_555
H2 C3 1_555 1_555
C4 C3 1_555 1_555
H3 C4 1_555 1_555
C5 C4 1_555 1_555
H4 C5 1_555 1_555
C6 C1 1_555 1_555
C7 C6 1_555 1_555
C8 N1 1_555 1_555
C9 C8 1_555 1_555
C10 P1 1_555 1_555
C11 C10 1_555 1_555
H5 C11 1_555 1_555
H6 C11 1_555 1_555
C12 N2 1_555 1_555
C13 N2 1_555 1_555
H7 C13 1_555 1_555
H8 C13 1_555 1_555
H9 C13 1_555 1_555
C14 N1 1_555 1_555
H10 C14 1_555 1_555
H11 C14 1_555 1_555
H12 C14 1_555 1_555
C15 C9 1_555 1_555
C16 C15 1_555 1_555
H13 C16 1_555 1_555
C17 C16 1_555 1_555
H14 C17 1_555 1_555
C18 C17 1_555 1_555
H15 C18 1_555 1_555
C19 C18 1_555 1_555
H16 C19 1_555 1_555
C20 C15 1_555 1_555
H17 C20 1_555 1_555
C21 P1 1_555 1_555
C22 C21 1_555 1_555
H18 C22 1_555 1_555
C23 C22 1_555 1_555
H19 C23 1_555 1_555
C24 C23 1_555 1_555
H20 C24 1_555 1_555
C25 C24 1_555 1_555
H21 C25 1_555 1_555
C26 C21 1_555 1_555
H22 C26 1_555 1_555
C27 P1 1_555 1_555
C28 C27 1_555 1_555
H23 C28 1_555 1_555
C29 C28 1_555 1_555
H24 C29 1_555 1_555
C30 C29 1_555 1_555
H25 C30 1_555 1_555
C31 C30 1_555 1_555
H26 C31 1_555 1_555
C32 C27 1_555 1_555
H27 C32 1_555 1_555
C5 C6 1_555 1_555
C7 C8 1_555 1_555
C7 C12 1_555 1_555
C9 C10 1_555 1_555
C19 C20 1_555 1_555
C25 C26 1_555 1_555
C31 C32 1_555 1_555

#END
