
#######################################################################
#
#                 Cambridge Crystallographic Data Centre
#                                CCDC 
#
#######################################################################
#
# If this CIF has been generated from an entry in the Cambridge 
# Structural Database, then it will include bibliographic, chemical, 
# crystal, experimental, refinement or atomic coordinate data resulting 
# from the CCDC's data processing and validation procedures.
#
#######################################################################

data_KUYYAE
_chemical_formula_moiety         'C15 H13 N3 O6'
_chemical_name_systematic        
'2-(2,4-Dinitrophenylamino)-3-phenylpropanoic acid'
_symmetry_cell_setting           monoclinic
_symmetry_space_group_name_H-M   'P 21'
_symmetry_Int_Tables_number      4
_space_group_name_Hall           'P 2yb'
loop_
_symmetry_equiv_pos_site_id
_symmetry_equiv_pos_as_xyz
1 x,y,z
2 -x,1/2+y,-z
_cell_length_a                   7.294(1)
_cell_length_b                   19.147(4)
_cell_length_c                   10.760(2)
_cell_angle_alpha                90
_cell_angle_beta                 98.823(6)
_cell_angle_gamma                90
_cell_volume                     1484.94
_exptl_crystal_colour            yellow
_cell_formula_units_Z            4
loop_
_atom_site_label
_atom_site_type_symbol
_atom_site_fract_x
_atom_site_fract_y
_atom_site_fract_z
O1 O 0.6260(6) 0.186 0.9956(4)
O2 O 0.4139(7) 0.2062(2) 0.8385(5)
O3 O 0.3194(7) -0.0619(2) 0.5376(4)
O4 O 0.2163(6) 0.0433(2) 0.5235(4)
O5 O 1.0338(6) -0.0135(2) 1.2963(3)
O6 O 0.9356(7) 0.0965(2) 1.2601(4)
N1 N 0.7808(7) 0.0630(3) 1.0252(4)
N2 N 0.5242(7) 0.1672(3) 0.8993(5)
N3 N 0.3129(7) -0.0028(3) 0.5778(4)
C1 C 0.6629(8) 0.0465(3) 0.9208(5)
C2 C 0.5364(8) 0.0967(3) 0.8552(5)
C3 C 0.4221(8) 0.0787(3) 0.7459(5)
C4 C 0.4281(8) 0.0140(3) 0.6973(5)
C5 C 0.5469(9) -0.0372(3) 0.7592(5)
C6 C 0.6606(8) -0.0204(3) 0.8671(5)
C7 C 0.9287(8) 0.0173(3) 1.0857(5)
C8 C 1.1039(9) 0.0294(3) 1.0247(5)
C9 C 1.2633(8) -0.0185(3) 1.0723(5)
C10 C 1.2751(9) -0.0843(3) 1.0185(6)
C11 C 1.419(1) -0.1280(4) 1.0634(7)
C12 C 1.551(1) -0.1089(4) 1.1627(7)
C13 C 1.5413(9) -0.0446(4) 1.2163(7)
C14 C 1.397(1) 0.0019(4) 1.1734(6)
C15 C 0.9654(8) 0.0394(3) 1.2230(5)
O7 O 0.7611(7) 0.0752(2) 0.5251(4)
O8 O 0.9371(7) 0.0512(2) 0.6990(4)
O9 O 1.1086(7) 0.2191(2) 1.0141(4)
O10 O 1.0960(6) 0.3290(2) 0.9680(4)
O11 O 0.4168(5) 0.2788(2) 0.1929(4)
O12 O 0.4621(6) 0.1677(2) 0.2583(4)
N4 N 0.7223(6) 0.2060(2) 0.4488(4)
N5 N 0.8545(7) 0.0927(3) 0.6247(4)
N6 N 1.0637(7) 0.2676(3) 0.9397(4)
C16 C 0.8022(7) 0.2192(3) 0.5672(5)
C17 C 0.8661(8) 0.1671(3) 0.6558(5)
C18 C 0.9516(8) 0.1827(3) 0.7776(5)
C19 C 0.9696(8) 0.2507(3) 0.8138(5)
C20 C 0.9076(8) 0.3054(3) 0.7314(5)
C21 C 0.8252(8) 0.2894(3) 0.6115(5)
C22 C 0.6742(7) 0.2562(3) 0.3482(5)
C23 C 0.8310(8) 0.2674(3) 0.2700(5)
C24 C 1.0067(8) 0.2909(3) 0.3526(5)
C25 C 1.1261(8) 0.2423(3) 0.4145(6)
C26 C 1.2799(9) 0.2629(4) 0.4999(6)
C27 C 1.316(1) 0.3326(4) 0.5180(6)
C28 C 1.201(1) 0.3821(4) 0.4560(7)
C29 C 1.049(1) 0.3616(3) 0.3713(7)
C30 C 0.5030(8) 0.2271(3) 0.2627(5)
loop_
_geom_bond_atom_site_label_1
_geom_bond_atom_site_label_2
_geom_bond_site_symmetry_1
_geom_bond_site_symmetry_2
O1 N2 1_555 1_555
O2 N2 1_555 1_555
O3 N3 1_555 1_555
O4 N3 1_555 1_555
O5 C15 1_555 1_555
O6 C15 1_555 1_555
N1 C1 1_555 1_555
N2 C2 1_555 1_555
N3 C4 1_555 1_555
C1 C2 1_555 1_555
C2 C3 1_555 1_555
C3 C4 1_555 1_555
C4 C5 1_555 1_555
C5 C6 1_555 1_555
C6 C1 1_555 1_555
C7 N1 1_555 1_555
C8 C7 1_555 1_555
C9 C8 1_555 1_555
C10 C9 1_555 1_555
C11 C10 1_555 1_555
C12 C11 1_555 1_555
C13 C12 1_555 1_555
C14 C9 1_555 1_555
C15 C7 1_555 1_555
O7 N5 1_555 1_555
O8 N5 1_555 1_555
O9 N6 1_555 1_555
O10 N6 1_555 1_555
O11 C30 1_555 1_555
O12 C30 1_555 1_555
N4 C16 1_555 1_555
N5 C17 1_555 1_555
N6 C19 1_555 1_555
C16 C17 1_555 1_555
C17 C18 1_555 1_555
C18 C19 1_555 1_555
C19 C20 1_555 1_555
C20 C21 1_555 1_555
C21 C16 1_555 1_555
C22 N4 1_555 1_555
C23 C22 1_555 1_555
C24 C23 1_555 1_555
C25 C24 1_555 1_555
C26 C25 1_555 1_555
C27 C26 1_555 1_555
C28 C27 1_555 1_555
C29 C24 1_555 1_555
C30 C22 1_555 1_555
C13 C14 1_555 1_555
C28 C29 1_555 1_555

#END
