
#######################################################################
#
#                 Cambridge Crystallographic Data Centre
#                                CCDC 
#
#######################################################################
#
# If this CIF has been generated from an entry in the Cambridge 
# Structural Database, then it will include bibliographic, chemical, 
# crystal, experimental, refinement or atomic coordinate data resulting 
# from the CCDC's data processing and validation procedures.
#
#######################################################################

data_KUYYAF
_chemical_formula_moiety         'C16 H15 N3 O6'
_chemical_name_systematic        
'Methyl 2-(2,4-dinitrophenylamino)-3-phenylpropanoate'
_symmetry_cell_setting           orthorhombic
_symmetry_space_group_name_H-M   'P 21 21 2'
_symmetry_Int_Tables_number      18
_space_group_name_Hall           'P 2 2ab'
loop_
_symmetry_equiv_pos_site_id
_symmetry_equiv_pos_as_xyz
1 x,y,z
2 1/2+x,1/2-y,-z
3 1/2-x,1/2+y,-z
4 -x,-y,z
_cell_length_a                   12.985(5)
_cell_length_b                   18.400(10)
_cell_length_c                   13.727(6)
_cell_angle_alpha                90
_cell_angle_beta                 90
_cell_angle_gamma                90
_cell_volume                     3279.71
_exptl_crystal_colour            yellow
_cell_formula_units_Z            8
loop_
_atom_site_label
_atom_site_type_symbol
_atom_site_fract_x
_atom_site_fract_y
_atom_site_fract_z
O1 O 0.3887(5) 0.6283(2) 0.4947(3)
O2 O 0.3960(4) 0.6598(2) 0.6453(4)
O3 O 0.3769(6) 0.4931(3) 0.9008(3)
O4 O 0.3766(4) 0.3784(3) 0.8745(3)
O5 O 0.3746(5) 0.5297(2) 0.2594(3)
O6 O 0.3381(6) 0.4166(3) 0.2091(3)
N1 N 0.3454(5) 0.4935(3) 0.4455(3)
N2 N 0.3859(4) 0.6137(3) 0.5818(4)
N3 N 0.3747(5) 0.4409(3) 0.8464(4)
C1 C 0.3596(5) 0.4818(3) 0.5404(4)
C2 C 0.3739(5) 0.5380(3) 0.6107(5)
C3 C 0.3755(5) 0.5248(3) 0.7102(5)
C4 C 0.3703(5) 0.4543(3) 0.7421(4)
C5 C 0.3645(5) 0.3962(3) 0.6767(4)
C6 C 0.3601(5) 0.4093(3) 0.5802(4)
C7 C 0.3106(6) 0.4403(3) 0.3749(5)
C8 C 0.1956(6) 0.4303(4) 0.3711(5)
C9 C 0.1525(5) 0.4043(3) 0.4673(5)
C10 C 0.1205(5) 0.4518(3) 0.5402(5)
C11 C 0.0905(6) 0.4268(4) 0.6305(5)
C12 C 0.0902(6) 0.3531(5) 0.6490(6)
C13 C 0.1175(6) 0.3053(4) 0.5777(6)
C14 C 0.1475(6) 0.3290(4) 0.4867(5)
C15 C 0.3462(6) 0.4687(3) 0.2755(5)
C16 C 0.3607(9) 0.4372(4) 0.1091(5)
O7 O 0.1197(5) 0.5003(2) 1.0202(4)
O8 O 0.1357(6) 0.4707(2) 0.8702(4)
O9 O 0.1693(4) 0.6393(3) 0.6178(3)
O10 O 0.1564(5) 0.7542(3) 0.6454(3)
O11 O 0.0976(5) 0.5933(3) 1.2526(4)
O12 O 0.0963(4) 0.7075(3) 1.3036(3)
N4 N 0.0743(4) 0.6349(3) 1.0669(4)
N5 N 0.1257(5) 0.5158(3) 0.9338(4)
N6 N 0.1577(4) 0.6913(3) 0.6728(4)
C17 C 0.1006(5) 0.6494(3) 0.9738(4)
C18 C 0.1225(5) 0.5929(3) 0.9058(4)
C19 C 0.1437(5) 0.6069(3) 0.8089(4)
C20 C 0.1421(5) 0.6763(3) 0.7768(4)
C21 C 0.1244(5) 0.7346(3) 0.8394(4)
C22 C 0.1037(5) 0.7210(3) 0.9339(5)
C23 C 0.0479(5) 0.6879(4) 1.1410(5)
C24 C -0.0668(6) 0.7019(4) 1.1478(5)
C25 C -0.1101(5) 0.7388(3) 1.0577(5)
C26 C -0.1045(6) 0.814(4) 1.0512(5)
C27 C -0.1346(6) 0.8485(4) 0.9658(6)
C28 C -0.1699(6) 0.8093(5) 0.8882(6)
C29 C -0.1796(6) 0.7356(5) 0.8958(5)
C30 C -0.1481(6) 0.6999(3) 0.9799(5)
C31 C 0.0837(6) 0.6555(4) 1.2378(5)
C32 C 0.1255(7) 0.6836(5) 1.4016(5)
loop_
_geom_bond_atom_site_label_1
_geom_bond_atom_site_label_2
_geom_bond_site_symmetry_1
_geom_bond_site_symmetry_2
O1 N2 1_555 1_555
O2 N2 1_555 1_555
O3 N3 1_555 1_555
O4 N3 1_555 1_555
O5 C15 1_555 1_555
O6 C15 1_555 1_555
N1 C1 1_555 1_555
N2 C2 1_555 1_555
N3 C4 1_555 1_555
C1 C2 1_555 1_555
C2 C3 1_555 1_555
C3 C4 1_555 1_555
C4 C5 1_555 1_555
C5 C6 1_555 1_555
C6 C1 1_555 1_555
C7 N1 1_555 1_555
C8 C7 1_555 1_555
C9 C8 1_555 1_555
C10 C9 1_555 1_555
C11 C10 1_555 1_555
C12 C11 1_555 1_555
C13 C12 1_555 1_555
C14 C9 1_555 1_555
C15 C7 1_555 1_555
C16 O6 1_555 1_555
O7 N5 1_555 1_555
O8 N5 1_555 1_555
O9 N6 1_555 1_555
O10 N6 1_555 1_555
O11 C31 1_555 1_555
O12 C31 1_555 1_555
N4 C17 1_555 1_555
N5 C18 1_555 1_555
N6 C20 1_555 1_555
C17 C18 1_555 1_555
C18 C19 1_555 1_555
C19 C20 1_555 1_555
C20 C21 1_555 1_555
C21 C22 1_555 1_555
C22 C17 1_555 1_555
C23 N4 1_555 1_555
C24 C23 1_555 1_555
C25 C24 1_555 1_555
C26 C25 1_555 1_555
C27 C26 1_555 1_555
C28 C27 1_555 1_555
C29 C28 1_555 1_555
C30 C25 1_555 1_555
C31 C23 1_555 1_555
C32 O12 1_555 1_555
C13 C14 1_555 1_555
C29 C30 1_555 1_555

#END
