
#######################################################################
#
#                 Cambridge Crystallographic Data Centre
#                                CCDC 
#
#######################################################################
#
# If this CIF has been generated from an entry in the Cambridge 
# Structural Database, then it will include bibliographic, chemical, 
# crystal, experimental, refinement or atomic coordinate data resulting 
# from the CCDC's data processing and validation procedures.
#
#######################################################################

data_KUZBOY
_chemical_formula_moiety         'C34 H28 O9'
_chemical_name_systematic        '5-oxohexane-1,2,3,6-tetrayl tetrabenzoate'
_symmetry_cell_setting           monoclinic
_symmetry_space_group_name_H-M   'P 21'
_symmetry_Int_Tables_number      4
_space_group_name_Hall           'P 2yb'
loop_
_symmetry_equiv_pos_site_id
_symmetry_equiv_pos_as_xyz
1 x,y,z
2 -x,1/2+y,-z
_cell_length_a                   5.4629(5)
_cell_length_b                   48.100(4)
_cell_length_c                   10.9336(10)
_cell_angle_alpha                90
_cell_angle_beta                 97.337(2)
_cell_angle_gamma                90
_cell_volume                     2849.45
_exptl_crystal_colour            colorless
_exptl_crystal_description       prism
_cell_formula_units_Z            4
loop_
_atom_site_label
_atom_site_type_symbol
_atom_site_fract_x
_atom_site_fract_y
_atom_site_fract_z
C1 C 0.7090(5) 0.67362(6) 0.5971(2)
C2 C 0.8979(5) 0.65182(5) 0.5927(2)
C3 C 1.0729(5) 0.64824(6) 0.6949(3)
H1 H 1.0672 0.6591 0.7669
C4 C 1.2570(6) 0.62846(7) 0.6906(3)
H2 H 1.3773 0.6257 0.7603
C5 C 1.2657(6) 0.61287(7) 0.5863(4)
H3 H 1.3938 0.5996 0.5836
C6 C 1.0905(6) 0.61631(6) 0.4854(3)
H4 H 1.0970 0.6053 0.4137
C7 C 0.9064(5) 0.63558(6) 0.4884(2)
H5 H 0.7844 0.6378 0.4190
C8 C 0.3606(5) 0.69520(5) 0.4918(3)
H6 H 0.3048 0.6964 0.5743
H7 H 0.2168 0.6898 0.4321
C9 C 0.4494(4) 0.72337(5) 0.4572(2)
C10 C 0.2730(4) 0.74618(5) 0.4797(2)
H8 H 0.3157 0.7530 0.5652
H9 H 0.1046 0.7383 0.4730
C11 C 0.2694(4) 0.77077(5) 0.39309(18)
H10 H 0.4317 0.7807 0.4046
C12 C 0.3749(4) 0.76678(5) 0.1876(2)
C13 C 0.3172(4) 0.75196(5) 0.0683(2)
C14 C 0.1144(4) 0.73464(5) 0.0438(2)
H11 H 0.0075 0.7317 0.1047
C15 C 0.0678(5) 0.72160(6) -0.0695(2)
H12 H -0.0705 0.7096 -0.0865
C16 C 0.2223(5) 0.72605(6) -0.1580(2)
H13 H 0.1883 0.7173 -0.2362
C17 C 0.4237(5) 0.74292(6) -0.1343(2)
H14 H 0.5306 0.7456 -0.1953
C18 C 0.4713(4) 0.75602(5) -0.0214(2)
H15 H 0.6106 0.7679 -0.0051
C19 C 0.0607(4) 0.79052(5) 0.41396(17)
H16 H -0.0988 0.7801 0.4090
C20 C 0.0350(4) 0.81469(5) 0.3269(2)
H17 H 0.1930 0.8249 0.3306
H18 H -0.0133 0.8082 0.2413
C21 C -0.2706(4) 0.84941(5) 0.2797(2)
C22 C -0.4598(4) 0.86679(5) 0.3302(2)
C23 C -0.6147(4) 0.88272(5) 0.2483(2)
H19 H -0.5974 0.8823 0.1630
C24 C -0.7936(5) 0.89922(6) 0.2889(3)
H20 H -0.8991 0.9101 0.2319
C25 C -0.8188(5) 0.89990(6) 0.4113(3)
H21 H -0.9415 0.9114 0.4396
C26 C -0.6662(5) 0.88392(7) 0.4948(3)
H22 H -0.6857 0.8843 0.5798
C27 C -0.4854(5) 0.86739(6) 0.4541(2)
H23 H -0.3798 0.8565 0.5111
C28 C -0.0284(4) 0.79659(5) 0.6216(2)
C29 C 0.0700(4) 0.80816(5) 0.7444(2)
C30 C 0.2904(4) 0.82279(5) 0.7651(2)
H24 H 0.3857 0.8260 0.6996
C31 C 0.3700(5) 0.83275(6) 0.8829(2)
H25 H 0.5200 0.8429 0.8981
C32 C 0.2313(5) 0.82791(6) 0.9780(2)
H26 H 0.2877 0.8345 1.0585
C33 C 0.0133(5) 0.81361(6) 0.9569(2)
H27 H -0.0821 0.8105 1.0225
C34 C -0.0679(4) 0.80365(5) 0.8403(2)
H28 H -0.2189 0.7937 0.8259
O1 O 0.6982(4) 0.68941(4) 0.68074(18)
O2 O 0.5459(3) 0.67415(3) 0.49394(16)
O3 O 0.6403(3) 0.72662(4) 0.41493(17)
O4 O 0.2179(2) 0.75987(3) 0.26862(13)
O5 O 0.5405(3) 0.78321(4) 0.20992(14)
O6 O -0.1544(3) 0.83236(3) 0.36593(13)
O7 O -0.2255(3) 0.85023(4) 0.17487(15)
O8 O 0.1283(2) 0.80121(3) 0.53784(13)
O9 O -0.2211(3) 0.78464(4) 0.59910(15)
C35 C 0.2177(5) 0.61584(6) 0.0903(2)
C36 C 0.0272(4) 0.63767(5) 0.0930(2)
C37 C 0.0256(5) 0.65587(6) 0.1910(2)
H29 H 0.1522 0.6548 0.2590
C38 C -0.1592(5) 0.67562(6) 0.1907(3)
H30 H -0.1603 0.6879 0.2586
C39 C -0.3407(5) 0.67730(7) 0.0918(3)
H31 H -0.4678 0.6908 0.0916
C40 C -0.3397(5) 0.65961(7) -0.0068(3)
H32 H -0.4647 0.6611 -0.0753
C41 C -0.1577(5) 0.63975(6) -0.0064(2)
H33 H -0.1586 0.6274 -0.0744
C42 C 0.5647(5) 0.59433(5) 0.2052(2)
H34 H 0.7163 0.6016 0.2540
H35 H 0.6050 0.5897 0.1218
C43 C 0.4843(4) 0.56833(5) 0.2652(2)
C44 C 0.6818(4) 0.54684(5) 0.2985(2)
H36 H 0.6587 0.5385 0.3789
H37 H 0.8450 0.5561 0.3080
C45 C 0.6803(4) 0.52377(5) 0.20262(19)
H38 H 0.5282 0.5121 0.2007
C46 C 0.5215(4) 0.52935(5) -0.0120(2)
C47 C 0.5884(4) 0.54047(5) -0.1291(2)
C48 C 0.4411(4) 0.53363(5) -0.2386(2)
H39 H 0.2970 0.5226 -0.2368
C49 C 0.5060(5) 0.54295(5) -0.3501(2)
H40 H 0.4060 0.5383 -0.4249
C50 C 0.7141(5) 0.55881(5) -0.3527(2)
H41 H 0.7584 0.5649 -0.4296
C51 C 0.8592(5) 0.56604(5) -0.2453(2)
H42 H 1.0008 0.5774 -0.2480
C52 C 0.7978(4) 0.55667(5) -0.1328(2)
H43 H 0.8990 0.5614 -0.0585
C53 C 0.9112(4) 0.50578(5) 0.22518(19)
H44 H 1.0598 0.5175 0.2184
C54 C 0.9106(4) 0.48148(5) 0.1385(2)
H45 H 0.8836 0.4879 0.0518
H46 H 1.0705 0.4715 0.1524
C55 C 0.6275(4) 0.44488(5) 0.0760(2)
C56 C 0.4355(4) 0.42664(5) 0.1172(2)
C57 C 0.3081(4) 0.40870(5) 0.0318(2)
H47 H 0.3461 0.4083 -0.0505
C58 C 0.1268(5) 0.39147(6) 0.0663(3)
H48 H 0.0399 0.3793 0.0077
C59 C 0.0724(5) 0.39199(6) 0.1852(3)
H49 H -0.0520 0.3801 0.2089
C60 C 0.1975(5) 0.40977(6) 0.2707(3)
H50 H 0.1581 0.4101 0.3528
C61 C 0.3798(5) 0.42704(5) 0.2371(2)
H51 H 0.4665 0.4391 0.2962
C62 C 1.1392(4) 0.48841(5) 0.4104(2)
C63 C 1.1231(4) 0.47893(5) 0.5383(2)
C64 C 1.3142(4) 0.46324(5) 0.5978(2)
H52 H 1.4474 0.4578 0.5551
C65 C 1.3125(4) 0.45540(5) 0.7194(2)
H53 H 1.4425 0.4443 0.7594
C66 C 1.1216(4) 0.46373(5) 0.7827(2)
H54 H 1.1234 0.4590 0.8672
C67 C 0.9282(4) 0.47898(5) 0.7227(2)
H55 H 0.7950 0.4843 0.7656
C68 C 0.9271(4) 0.48655(5) 0.6010(2)
H56 H 0.7930 0.4969 0.5601
O10 O 0.2322(3) 0.59993(4) 0.00678(18)
O11 O 0.3793(3) 0.61542(3) 0.19519(15)
O12 O 0.2753(3) 0.56536(4) 0.28632(18)
O13 O 0.6924(2) 0.53663(3) 0.08410(12)
O14 O 0.3437(3) 0.51541(4) -0.00062(16)
O15 O 0.7125(3) 0.46333(3) 0.16349(14)
O16 O 0.7030(3) 0.44366(4) -0.02300(15)
O17 O 0.9182(2) 0.49607(3) 0.35139(13)
O18 O 1.3274(3) 0.48951(4) 0.36396(14)
loop_
_geom_bond_atom_site_label_1
_geom_bond_atom_site_label_2
_geom_bond_site_symmetry_1
_geom_bond_site_symmetry_2
C1 C2 1_555 1_555
C2 C3 1_555 1_555
C3 H1 1_555 1_555
C4 C3 1_555 1_555
H2 C4 1_555 1_555
C5 C4 1_555 1_555
H3 C5 1_555 1_555
C6 C5 1_555 1_555
H4 C6 1_555 1_555
C7 C2 1_555 1_555
H5 C7 1_555 1_555
C8 H6 1_555 1_555
H7 C8 1_555 1_555
C9 C8 1_555 1_555
C10 C9 1_555 1_555
H8 C10 1_555 1_555
H9 C10 1_555 1_555
C11 C10 1_555 1_555
H10 C11 1_555 1_555
C12 C13 1_555 1_555
C13 C14 1_555 1_555
C14 H11 1_555 1_555
C15 C14 1_555 1_555
H12 C15 1_555 1_555
C16 C15 1_555 1_555
H13 C16 1_555 1_555
C17 C16 1_555 1_555
H14 C17 1_555 1_555
C18 C13 1_555 1_555
H15 C18 1_555 1_555
C19 C11 1_555 1_555
H16 C19 1_555 1_555
C20 C19 1_555 1_555
H17 C20 1_555 1_555
H18 C20 1_555 1_555
C21 C22 1_555 1_555
C22 C23 1_555 1_555
C23 H19 1_555 1_555
C24 C23 1_555 1_555
H20 C24 1_555 1_555
C25 C24 1_555 1_555
H21 C25 1_555 1_555
C26 C25 1_555 1_555
H22 C26 1_555 1_555
C27 C22 1_555 1_555
H23 C27 1_555 1_555
C28 C29 1_555 1_555
C29 C30 1_555 1_555
C30 H24 1_555 1_555
C31 C30 1_555 1_555
H25 C31 1_555 1_555
C32 C31 1_555 1_555
H26 C32 1_555 1_555
C33 C32 1_555 1_555
H27 C33 1_555 1_555
C34 C29 1_555 1_555
H28 C34 1_555 1_555
O1 C1 1_555 1_555
O2 C1 1_555 1_555
O3 C9 1_555 1_555
O4 C11 1_555 1_555
O5 C12 1_555 1_555
O6 C20 1_555 1_555
O7 C21 1_555 1_555
O8 C19 1_555 1_555
O9 C28 1_555 1_555
C35 C36 1_555 1_555
C36 C37 1_555 1_555
C37 H29 1_555 1_555
C38 C37 1_555 1_555
H30 C38 1_555 1_555
C39 C38 1_555 1_555
H31 C39 1_555 1_555
C40 C39 1_555 1_555
H32 C40 1_555 1_555
C41 C36 1_555 1_555
H33 C41 1_555 1_555
C42 H34 1_555 1_555
H35 C42 1_555 1_555
C43 C42 1_555 1_555
C44 C43 1_555 1_555
H36 C44 1_555 1_555
H37 C44 1_555 1_555
C45 C44 1_555 1_555
H38 C45 1_555 1_555
C46 C47 1_555 1_555
C47 C48 1_555 1_555
C48 H39 1_555 1_555
C49 C48 1_555 1_555
H40 C49 1_555 1_555
C50 C49 1_555 1_555
H41 C50 1_555 1_555
C51 C50 1_555 1_555
H42 C51 1_555 1_555
C52 C47 1_555 1_555
H43 C52 1_555 1_555
C53 C45 1_555 1_555
H44 C53 1_555 1_555
C54 C53 1_555 1_555
H45 C54 1_555 1_555
H46 C54 1_555 1_555
C55 C56 1_555 1_555
C56 C57 1_555 1_555
C57 H47 1_555 1_555
C58 C57 1_555 1_555
H48 C58 1_555 1_555
C59 C58 1_555 1_555
H49 C59 1_555 1_555
C60 C59 1_555 1_555
H50 C60 1_555 1_555
C61 C56 1_555 1_555
H51 C61 1_555 1_555
C62 C63 1_555 1_555
C63 C64 1_555 1_555
C64 H52 1_555 1_555
C65 C64 1_555 1_555
H53 C65 1_555 1_555
C66 C65 1_555 1_555
H54 C66 1_555 1_555
C67 C66 1_555 1_555
H55 C67 1_555 1_555
C68 C63 1_555 1_555
H56 C68 1_555 1_555
O10 C35 1_555 1_555
O11 C35 1_555 1_555
O12 C43 1_555 1_555
O13 C45 1_555 1_555
O14 C46 1_555 1_555
O15 C54 1_555 1_555
O16 C55 1_555 1_555
O17 C53 1_555 1_555
O18 C62 1_555 1_555
C6 C7 1_555 1_555
C8 O2 1_555 1_555
C12 O4 1_555 1_555
C17 C18 1_555 1_555
C21 O6 1_555 1_555
C26 C27 1_555 1_555
C28 O8 1_555 1_555
C33 C34 1_555 1_555
C40 C41 1_555 1_555
C42 O11 1_555 1_555
C46 O13 1_555 1_555
C51 C52 1_555 1_555
C55 O15 1_555 1_555
C60 C61 1_555 1_555
C62 O17 1_555 1_555
C67 C68 1_555 1_555

#END
