
#######################################################################
#
#                 Cambridge Crystallographic Data Centre
#                                CCDC 
#
#######################################################################
#
# If this CIF has been generated from an entry in the Cambridge 
# Structural Database, then it will include bibliographic, chemical, 
# crystal, experimental, refinement or atomic coordinate data resulting 
# from the CCDC's data processing and validation procedures.
#
#######################################################################

data_KUZFIV
_chemical_formula_moiety         'C32 H44 N10 S4'
_chemical_name_systematic        
'bis[2-((4,6-dimethylpyrimidin-2-yl)(2-[(4,6-dimethylpyrimidin-2-yl)sulfanyl]ethyl)amino)ethyl] disulfide'
_symmetry_cell_setting           triclinic
_symmetry_space_group_name_H-M   'P -1'
_symmetry_Int_Tables_number      2
_space_group_name_Hall           '-P 1'
loop_
_symmetry_equiv_pos_site_id
_symmetry_equiv_pos_as_xyz
1 x,y,z
2 -x,-y,-z
_cell_length_a                   11.7626(5)
_cell_length_b                   12.7672(6)
_cell_length_c                   13.7444(7)
_cell_angle_alpha                106.382(4)
_cell_angle_beta                 103.276(4)
_cell_angle_gamma                102.294(4)
_cell_volume                     1840.15
_exptl_crystal_colour            colorless
_exptl_crystal_description       prism
_cell_formula_units_Z            2
loop_
_atom_site_label
_atom_site_type_symbol
_atom_site_fract_x
_atom_site_fract_y
_atom_site_fract_z
S1 S 0.74226(10) 0.71528(10) 0.39171(9)
S2 S 0.57455(12) 0.67895(10) 0.41240(10)
S3 S 0.96757(10) 0.65326(9) 0.03184(10)
S4 S 0.36046(14) 0.95980(10) 0.78051(12)
N1 N 0.6607(3) 0.6061(3) 0.1261(3)
N2 N 0.5256(3) 0.4838(3) 0.1734(3)
N3 N 0.6443(3) 0.4147(3) 0.0636(2)
N4 N 0.9874(3) 0.8593(3) 0.1672(3)
N5 N 1.0838(3) 0.8487(3) 0.0304(3)
N6 N 0.6477(4) 0.9727(4) 0.6648(4)
N7 N 0.7688(3) 1.0764(3) 0.5901(3)
N8 N 0.6908(4) 1.1703(3) 0.7257(3)
N9 N 0.3262(4) 0.7490(3) 0.6468(3)
N10 N 0.1976(4) 0.7779(3) 0.7571(3)
C1 C 0.7241(4) 0.7789(3) 0.2897(3)
H1 H 0.7028 0.8486 0.3162
H2 H 0.8021 0.8000 0.2770
C2 C 0.6275(4) 0.7027(3) 0.1837(3)
H3 H 0.5514 0.6746 0.1972
H4 H 0.6132 0.7485 0.1392
C3 C 0.6078(3) 0.4974(3) 0.1210(3)
C4 C 0.4770(3) 0.3770(3) 0.1680(3)
C5 C 0.3843(5) 0.3613(4) 0.2253(4)
H5 H 0.4117 0.4218 0.2932
H6 H 0.3743 0.2891 0.2358
H7 H 0.3075 0.3628 0.1837
C6 C 0.5088(4) 0.2862(3) 0.1110(3)
H8 H 0.4739 0.2122 0.1075
C7 C 0.5939(3) 0.3083(3) 0.0593(3)
C8 C 0.6332(5) 0.2155(4) -0.0056(4)
H9 H 0.7200 0.2308 0.0227
H10 H 0.6130 0.2129 -0.0782
H11 H 0.5918 0.1434 -0.0031
C9 C 0.7418(3) 0.6247(3) 0.0630(3)
H12 H 0.7489 0.6996 0.0571
H13 H 0.7049 0.5684 -0.0084
C10 C 0.8697(3) 0.6174(4) 0.1083(3)
H14 H 0.8643 0.5404 0.1081
H15 H 0.9051 0.6693 0.1816
C11 C 1.0171(3) 0.8040(3) 0.0842(3)
C12 C 1.0309(4) 0.9735(4) 0.2019(4)
C13 C 0.9967(5) 1.0376(4) 0.2947(5)
H16 H 1.0156 1.0076 0.3511
H17 H 0.9106 1.0291 0.2729
H18 H 1.0418 1.1172 0.3196
C14 C 1.1014(4) 1.0279(4) 0.1525(4)
H19 H 1.1308 1.1073 0.1768
C15 C 1.1274(4) 0.9623(4) 0.0662(4)
C16 C 1.2025(4) 1.0147(4) 0.0081(4)
H20 H 1.1798 0.9639 -0.0643
H21 H 1.2876 1.0277 0.0425
H22 H 1.1883 1.0862 0.0088
C17 C 0.5658(5) 0.8234(6) 0.4963(4)
H23 H 0.5790 0.8783 0.4604
H24 H 0.4857 0.8149 0.5061
C18 C 0.6604(5) 0.8636(5) 0.5998(4)
H25 H 0.7409 0.8759 0.5906
H26 H 0.6495 0.8076 0.6347
C19 C 0.7040(5) 1.0778(4) 0.6585(4)
C20 C 0.8330(4) 1.1790(4) 0.5960(3)
C21 C 0.9099(5) 1.1770(6) 0.5229(5)
H27 H 0.8579 1.1487 0.4503
H28 H 0.9600 1.1280 0.5320
H29 H 0.9613 1.2530 0.5393
C22 C 0.8282(4) 1.2782(4) 0.6648(4)
H30 H 0.8742 1.3490 0.6685
C23 C 0.7540(4) 1.2708(3) 0.7285(3)
C24 C 0.7415(5) 1.3748(4) 0.8051(4)
H31 H 0.6594 1.3786 0.7827
H32 H 0.7977 1.4422 0.8062
H33 H 0.7595 1.3701 0.8752
C25 C 0.5709(5) 0.9658(4) 0.7391(4)
H34 H 0.5534 0.8904 0.7449
H35 H 0.6147 1.0219 0.8097
C26 C 0.4571(4) 0.9884(4) 0.6943(5)
H36 H 0.4172 0.9381 0.6208
H37 H 0.4727 1.0671 0.6971
C27 C 0.2882(4) 0.8113(4) 0.7202(4)
C28 C 0.2640(5) 0.6370(4) 0.6049(4)
C29 C 0.3050(7) 0.5657(5) 0.5205(5)
H38 H 0.3261 0.6081 0.4762
H39 H 0.2399 0.4968 0.4776
H40 H 0.3751 0.5468 0.5536
C30 C 0.1711(6) 0.5938(4) 0.6403(5)
H41 H 0.1300 0.5159 0.6127
C31 C 0.1387(5) 0.6670(5) 0.7175(5)
C32 C 0.0362(7) 0.6270(6) 0.7581(7)
H42 H 0.0588 0.6671 0.8335
H43 H 0.0197 0.5464 0.7445
H44 H -0.0357 0.6419 0.7225
loop_
_geom_bond_atom_site_label_1
_geom_bond_atom_site_label_2
_geom_bond_site_symmetry_1
_geom_bond_site_symmetry_2
S1 S2 1_555 1_555
S2 C17 1_555 1_555
S3 C10 1_555 1_555
S4 C26 1_555 1_555
N1 C2 1_555 1_555
N2 C3 1_555 1_555
N3 C3 1_555 1_555
N4 C11 1_555 1_555
N5 C11 1_555 1_555
N6 C18 1_555 1_555
N7 C19 1_555 1_555
N8 C19 1_555 1_555
N9 C27 1_555 1_555
N10 C27 1_555 1_555
C1 S1 1_555 1_555
H1 C1 1_555 1_555
H2 C1 1_555 1_555
C2 C1 1_555 1_555
H3 C2 1_555 1_555
H4 C2 1_555 1_555
C3 N1 1_555 1_555
C4 N2 1_555 1_555
C5 C4 1_555 1_555
H5 C5 1_555 1_555
H6 C5 1_555 1_555
H7 C5 1_555 1_555
C6 C4 1_555 1_555
H8 C6 1_555 1_555
C7 N3 1_555 1_555
C8 C7 1_555 1_555
H9 C8 1_555 1_555
H10 C8 1_555 1_555
H11 C8 1_555 1_555
C9 N1 1_555 1_555
H12 C9 1_555 1_555
H13 C9 1_555 1_555
C10 C9 1_555 1_555
H14 C10 1_555 1_555
H15 C10 1_555 1_555
C11 S3 1_555 1_555
C12 N4 1_555 1_555
C13 C12 1_555 1_555
H16 C13 1_555 1_555
H17 C13 1_555 1_555
H18 C13 1_555 1_555
C14 C12 1_555 1_555
H19 C14 1_555 1_555
C15 N5 1_555 1_555
C16 C15 1_555 1_555
H20 C16 1_555 1_555
H21 C16 1_555 1_555
H22 C16 1_555 1_555
C17 H23 1_555 1_555
H24 C17 1_555 1_555
C18 C17 1_555 1_555
H25 C18 1_555 1_555
H26 C18 1_555 1_555
C19 N6 1_555 1_555
C20 N7 1_555 1_555
C21 C20 1_555 1_555
H27 C21 1_555 1_555
H28 C21 1_555 1_555
H29 C21 1_555 1_555
C22 C20 1_555 1_555
H30 C22 1_555 1_555
C23 N8 1_555 1_555
C24 C23 1_555 1_555
H31 C24 1_555 1_555
H32 C24 1_555 1_555
H33 C24 1_555 1_555
C25 N6 1_555 1_555
H34 C25 1_555 1_555
H35 C25 1_555 1_555
C26 C25 1_555 1_555
H36 C26 1_555 1_555
H37 C26 1_555 1_555
C27 S4 1_555 1_555
C28 N9 1_555 1_555
C29 C28 1_555 1_555
H38 C29 1_555 1_555
H39 C29 1_555 1_555
H40 C29 1_555 1_555
C30 C28 1_555 1_555
H41 C30 1_555 1_555
C31 N10 1_555 1_555
C32 C31 1_555 1_555
H42 C32 1_555 1_555
H43 C32 1_555 1_555
H44 C32 1_555 1_555
C6 C7 1_555 1_555
C14 C15 1_555 1_555
C22 C23 1_555 1_555
C30 C31 1_555 1_555

#END
