
#######################################################################
#
#                 Cambridge Crystallographic Data Centre
#                                CCDC 
#
#######################################################################
#
# If this CIF has been generated from an entry in the Cambridge 
# Structural Database, then it will include bibliographic, chemical, 
# crystal, experimental, refinement or atomic coordinate data resulting 
# from the CCDC's data processing and validation procedures.
#
#######################################################################

data_KUZFOB
_chemical_formula_moiety         'C17 H14 F2 O3'
_chemical_name_systematic        
(E)-1-(3,5-Difluorophenyl)-3-(2,4-dimethoxyphenyl)prop-2-en-1-one
_symmetry_cell_setting           triclinic
_symmetry_space_group_name_H-M   'P -1'
_symmetry_Int_Tables_number      2
_space_group_name_Hall           '-P 1'
loop_
_symmetry_equiv_pos_site_id
_symmetry_equiv_pos_as_xyz
1 x,y,z
2 -x,-y,-z
_cell_length_a                   7.8047(8)
_cell_length_b                   11.2591(12)
_cell_length_c                   17.0080(18)
_cell_angle_alpha                81.407(2)
_cell_angle_beta                 81.231(2)
_cell_angle_gamma                76.319(2)
_cell_volume                     1425.15
_exptl_crystal_colour            green
_exptl_crystal_description       prismatic
_cell_formula_units_Z            4
_exptl_crystal_recrystallization_method dichloromethane/ethanol
loop_
_atom_site_label
_atom_site_type_symbol
_atom_site_fract_x
_atom_site_fract_y
_atom_site_fract_z
F1 F -0.1189(2) 0.41876(16) 1.15514(9)
F2 F -0.4957(2) 0.73654(16) 1.01469(11)
O1 O -0.2308(3) 0.4469(2) 0.81479(12)
O2 O 0.0468(3) 0.10719(18) 0.67405(11)
O3 O 0.4032(3) -0.26852(18) 0.79562(12)
C1 C -0.1733(4) 0.3926(3) 0.87639(17)
C2 C -0.0645(4) 0.2671(3) 0.87879(17)
H1 H -0.0239 0.2287 0.9269
C3 C -0.0216(4) 0.2062(3) 0.81555(17)
H2 H -0.0661 0.2473 0.7688
C4 C 0.0863(4) 0.0833(3) 0.81000(16)
C5 C 0.1221(4) 0.0337(3) 0.73634(16)
C6 C 0.2271(4) -0.0839(3) 0.72881(17)
H3 H 0.2496 -0.1154 0.6798
C7 C 0.2975(4) -0.1533(3) 0.79590(18)
C8 C 0.2621(4) -0.1065(3) 0.86926(18)
H4 H 0.3096 -0.1533 0.9139
C9 C 0.1576(4) 0.0082(3) 0.87555(17)
H5 H 0.1329 0.0374 0.9253
C10 C -0.2167(3) 0.4558(2) 0.95157(16)
C11 C -0.1461(4) 0.4034(3) 1.02204(16)
H6 H -0.0681 0.3269 1.0249
C12 C -0.1941(4) 0.4671(3) 1.08689(16)
C13 C -0.3090(4) 0.5794(3) 1.08698(18)
H7 H -0.3390 0.6210 1.1321
C14 C -0.3774(4) 0.6268(3) 1.01672(18)
C15 C -0.3339(4) 0.5702(3) 0.94908(17)
H8 H -0.3814 0.6070 0.9022
C16 C 0.0892(5) 0.0699(3) 0.59549(16)
H9 H 0.2140 0.0624 0.5787
H10 H 0.0229 0.1302 0.5589
H11 H 0.0590 -0.0081 0.5960
C17 C 0.4356(4) -0.3267(3) 0.72383(19)
H12 H 0.3244 -0.3278 0.7067
H13 H 0.5025 -0.4096 0.7340
H14 H 0.5018 -0.2817 0.6826
F3 F -0.1962(3) 0.85773(17) 0.95482(10)
F4 F -0.5094(3) 1.19504(18) 0.80248(13)
O4 O -0.2520(3) 0.8979(2) 0.60758(13)
O5 O 0.1805(3) 0.61876(18) 0.46058(11)
O6 O 0.4537(3) 0.21210(18) 0.57760(12)
C18 C -0.2005(4) 0.8425(3) 0.67020(17)
C19 C -0.0831(4) 0.7203(3) 0.67198(17)
H15 H -0.0649 0.6735 0.7211
C20 C -0.0021(4) 0.6746(3) 0.60528(17)
H16 H -0.0241 0.7249 0.5577
C21 C 0.1172(4) 0.5552(2) 0.59737(16)
C22 C 0.2083(3) 0.5271(3) 0.52183(16)
C23 C 0.3202(3) 0.4129(2) 0.51277(16)
H17 H 0.3787 0.3950 0.4626
C24 C 0.3438(4) 0.3257(3) 0.57915(17)
C25 C 0.2562(4) 0.3512(3) 0.65383(17)
H18 H 0.2723 0.2921 0.6981
C26 C 0.1461(4) 0.4637(3) 0.66228(16)
H19 H 0.0885 0.4800 0.7128
C27 C -0.2562(4) 0.9035(3) 0.74549(17)
C28 C -0.2002(4) 0.8479(3) 0.81899(17)
H20 H -0.1295 0.7687 0.8238
C29 C -0.2513(4) 0.9119(3) 0.88340(17)
C30 C -0.3563(4) 1.0274(3) 0.88054(19)
H21 H -0.3918 1.0683 0.9259
C31 C -0.4070(4) 1.0801(3) 0.8076(2)
C32 C -0.3603(4) 1.0222(3) 0.74061(19)
H22 H -0.3975 1.0615 0.6921
C33 C 0.2640(4) 0.5973(3) 0.38187(16)
H23 H 0.3906 0.5764 0.3817
H24 H 0.2316 0.6703 0.3454
H25 H 0.2259 0.5307 0.3655
C34 C 0.5535(4) 0.1789(3) 0.50357(19)
H26 H 0.4738 0.1760 0.4665
H27 H 0.6313 0.0996 0.5126
H28 H 0.6226 0.2390 0.4818
loop_
_geom_bond_atom_site_label_1
_geom_bond_atom_site_label_2
_geom_bond_site_symmetry_1
_geom_bond_site_symmetry_2
F1 C12 1_555 1_555
F2 C14 1_555 1_555
F3 C29 1_555 1_555
F4 C31 1_555 1_555
O1 C1 1_555 1_555
O2 C5 1_555 1_555
O3 C7 1_555 1_555
O4 C18 1_555 1_555
O5 C22 1_555 1_555
O6 C24 1_555 1_555
C1 C2 1_555 1_555
C2 H1 1_555 1_555
C3 C2 1_555 1_555
H2 C3 1_555 1_555
C4 C3 1_555 1_555
C5 C4 1_555 1_555
C6 C5 1_555 1_555
H3 C6 1_555 1_555
C7 C6 1_555 1_555
C8 C7 1_555 1_555
H4 C8 1_555 1_555
C9 C4 1_555 1_555
H5 C9 1_555 1_555
C10 C1 1_555 1_555
C11 C10 1_555 1_555
H6 C11 1_555 1_555
C12 C11 1_555 1_555
C13 C12 1_555 1_555
H7 C13 1_555 1_555
C14 C13 1_555 1_555
C15 C10 1_555 1_555
H8 C15 1_555 1_555
C16 O2 1_555 1_555
H9 C16 1_555 1_555
H10 C16 1_555 1_555
H11 C16 1_555 1_555
C17 O3 1_555 1_555
H12 C17 1_555 1_555
H13 C17 1_555 1_555
H14 C17 1_555 1_555
C18 C19 1_555 1_555
C19 H15 1_555 1_555
C20 C19 1_555 1_555
H16 C20 1_555 1_555
C21 C20 1_555 1_555
C22 C21 1_555 1_555
C23 C22 1_555 1_555
H17 C23 1_555 1_555
C24 C23 1_555 1_555
C25 C24 1_555 1_555
H18 C25 1_555 1_555
C26 C21 1_555 1_555
H19 C26 1_555 1_555
C27 C18 1_555 1_555
C28 C27 1_555 1_555
H20 C28 1_555 1_555
C29 C28 1_555 1_555
C30 C29 1_555 1_555
H21 C30 1_555 1_555
C31 C30 1_555 1_555
C32 C27 1_555 1_555
H22 C32 1_555 1_555
C33 O5 1_555 1_555
H23 C33 1_555 1_555
H24 C33 1_555 1_555
H25 C33 1_555 1_555
C34 O6 1_555 1_555
H26 C34 1_555 1_555
H27 C34 1_555 1_555
H28 C34 1_555 1_555
C8 C9 1_555 1_555
C14 C15 1_555 1_555
C25 C26 1_555 1_555
C31 C32 1_555 1_555

#END
