
#######################################################################
#
#                 Cambridge Crystallographic Data Centre
#                                CCDC 
#
#######################################################################
#
# If this CIF has been generated from an entry in the Cambridge 
# Structural Database, then it will include bibliographic, chemical, 
# crystal, experimental, refinement or atomic coordinate data resulting 
# from the CCDC's data processing and validation procedures.
#
#######################################################################

data_KUZFOC
_chemical_formula_moiety         'C21 H16 N2 O3'
_chemical_name_systematic        
N'-(2-Hydroxybenzylidene)-9H-xanthene-9-carbohydrazide
_symmetry_cell_setting           monoclinic
_symmetry_space_group_name_H-M   'P 21/c'
_symmetry_Int_Tables_number      14
_space_group_name_Hall           '-P 2ybc'
loop_
_symmetry_equiv_pos_site_id
_symmetry_equiv_pos_as_xyz
1 x,y,z
2 -x,1/2+y,1/2-z
3 -x,-y,-z
4 x,1/2-y,1/2+z
_cell_length_a                   16.7245(10)
_cell_length_b                   11.3341(6)
_cell_length_c                   9.6962(5)
_cell_angle_alpha                90
_cell_angle_beta                 105.028(5)
_cell_angle_gamma                90
_cell_volume                     1775.12
_exptl_crystal_colour            colorless
_exptl_crystal_description       needle
_cell_formula_units_Z            4
loop_
_atom_site_label
_atom_site_type_symbol
_atom_site_fract_x
_atom_site_fract_y
_atom_site_fract_z
O1 O 0.40555(9) 0.44837(13) 0.33511(11)
H1 H 0.3656 0.4105 0.2898
O2 O 0.22004(8) 0.24473(12) 0.26162(11)
O3 O 0.13472(8) -0.03837(14) 0.26974(13)
N1 N 0.23297(9) 0.30338(13) 0.04737(13)
H2 H 0.2148 0.3001 -0.0440
N2 N 0.29448(9) 0.38132(13) 0.11137(13)
C1 C 0.39545(10) 0.52292(15) 0.09806(16)
C2 C 0.32644(10) 0.44718(16) 0.03301(16)
H3 H 0.3054 0.4464 -0.0657
C3 C 0.20217(10) 0.23281(15) 0.13168(15)
C4 C 0.14689(10) 0.13287(16) 0.05629(16)
H4 H 0.1292 0.1490 -0.0464
C5 C 0.43368(11) 0.51868(16) 0.24489(17)
C6 C 0.19778(10) 0.02077(16) 0.08228(17)
C7 C 0.19006(11) -0.05721(17) 0.18795(18)
C8 C 0.07205(11) 0.12101(16) 0.11422(17)
C9 C 0.00338(12) 0.1933(2) 0.0683(2)
H5 H 0.0022 0.2480 -0.0036
C10 C 0.50281(13) 0.58652(19) 0.3021(2)
H6 H 0.5293 0.5810 0.3989
C11 C -0.06242(13) 0.1050(2) 0.2326(3)
H7 H -0.1070 0.1005 0.2732
C12 C 0.25507(12) -0.00590(19) 0.0063(2)
H8 H 0.2610 0.0447 -0.0659
C13 C 0.00384(13) 0.0312(2) 0.2781(2)
H9 H 0.0041 -0.0244 0.3487
C14 C 0.07066(11) 0.03946(18) 0.21853(18)
C15 C 0.42783(12) 0.59978(18) 0.0136(2)
H10 H 0.4035 0.6038 -0.0840
C16 C 0.23750(13) -0.1578(2) 0.2174(2)
H11 H 0.2312 -0.2093 0.2885
C17 C -0.06302(13) 0.1855(2) 0.1271(3)
H12 H -0.1084 0.2350 0.0951
C18 C 0.30321(14) -0.1053(2) 0.0352(2)
H13 H 0.3417 -0.1212 -0.0165
C19 C 0.49540(14) 0.6698(2) 0.0732(2)
H14 H 0.5157 0.7219 0.0164
C20 C 0.29447(13) -0.1817(2) 0.1408(3)
H15 H 0.3270 -0.2492 0.1604
C21 C 0.53253(14) 0.6620(2) 0.2168(2)
H16 H 0.5785 0.7085 0.2568
loop_
_geom_bond_atom_site_label_1
_geom_bond_atom_site_label_2
_geom_bond_site_symmetry_1
_geom_bond_site_symmetry_2
O1 H1 1_555 1_555
O2 C3 1_555 1_555
O3 C7 1_555 1_555
N1 H2 1_555 1_555
N2 N1 1_555 1_555
C1 C2 1_555 1_555
C2 N2 1_555 1_555
H3 C2 1_555 1_555
C3 N1 1_555 1_555
C4 C3 1_555 1_555
H4 C4 1_555 1_555
C5 O1 1_555 1_555
C6 C4 1_555 1_555
C7 C6 1_555 1_555
C8 C4 1_555 1_555
C9 C8 1_555 1_555
H5 C9 1_555 1_555
C10 C5 1_555 1_555
H6 C10 1_555 1_555
C11 H7 1_555 1_555
C12 C6 1_555 1_555
H8 C12 1_555 1_555
C13 C11 1_555 1_555
H9 C13 1_555 1_555
C14 O3 1_555 1_555
C15 C1 1_555 1_555
H10 C15 1_555 1_555
C16 C7 1_555 1_555
H11 C16 1_555 1_555
C17 C9 1_555 1_555
H12 C17 1_555 1_555
C18 C12 1_555 1_555
H13 C18 1_555 1_555
C19 C15 1_555 1_555
H14 C19 1_555 1_555
C20 C16 1_555 1_555
H15 C20 1_555 1_555
C21 C10 1_555 1_555
H16 C21 1_555 1_555
C1 C5 1_555 1_555
C8 C14 1_555 1_555
C11 C17 1_555 1_555
C13 C14 1_555 1_555
C18 C20 1_555 1_555
C19 C21 1_555 1_555

#END
