
#######################################################################
#
#                 Cambridge Crystallographic Data Centre
#                                CCDC 
#
#######################################################################
#
# If this CIF has been generated from an entry in the Cambridge 
# Structural Database, then it will include bibliographic, chemical, 
# crystal, experimental, refinement or atomic coordinate data resulting 
# from the CCDC's data processing and validation procedures.
#
#######################################################################

data_KUZGES
_chemical_formula_moiety         'C15 H14 Cl1 N1 O2'
_chemical_name_systematic        
N-Benzyl-2-(3-chloro-4-hydroxyphenyl)acetamide
_chemical_properties_biological  
'moderate cytotoxicity against human melanoma and prostate cancer cell lines'
_symmetry_cell_setting           monoclinic
_symmetry_space_group_name_H-M   'P 21'
_symmetry_Int_Tables_number      4
_space_group_name_Hall           'P 2yb'
loop_
_symmetry_equiv_pos_site_id
_symmetry_equiv_pos_as_xyz
1 x,y,z
2 -x,1/2+y,-z
_cell_length_a                   4.8255(2)
_cell_length_b                   10.8520(5)
_cell_length_c                   12.7701(6)
_cell_angle_alpha                90
_cell_angle_beta                 96.055(4)
_cell_angle_gamma                90
_cell_volume                     664.992
_exptl_crystal_colour            colorless
_exptl_crystal_description       plate
_cell_formula_units_Z            2
_exptl_crystal_recrystallization_method 'methanol/water/trifluoroacetic acid'
loop_
_atom_site_label
_atom_site_type_symbol
_atom_site_fract_x
_atom_site_fract_y
_atom_site_fract_z
Cl1 Cl -0.22153(16) 0.10603(6) 0.70233(4)
O1 O -0.5174(3) 0.33833(14) 0.69050(12)
O2 O -0.3412(2) 0.08182(14) 0.27899(10)
N1 N 0.0633(3) 0.05425(16) 0.21183(12)
C1 C -0.1150(4) 0.25973(19) 0.42574(15)
C2 C -0.1047(4) 0.1808(2) 0.51082(16)
C3 C -0.2387(4) 0.20842(19) 0.59745(15)
C4 C -0.3886(4) 0.31713(18) 0.60254(15)
C5 C -0.3982(4) 0.39584(19) 0.51848(17)
C6 C -0.2645(4) 0.36758(19) 0.43020(16)
C7 C 0.0273(4) 0.2253(2) 0.33001(16)
C8 C -0.0977(3) 0.1137(2) 0.27214(13)
C9 C -0.0319(5) -0.0518(2) 0.14734(18)
C10 C 0.1377(4) -0.06951(19) 0.05671(16)
C11 C 0.1558(4) 0.0217(2) -0.01686(18)
C12 C 0.3073(5) 0.0053(2) -0.10153(19)
C13 C 0.4390(5) -0.1045(3) -0.11432(19)
C14 C 0.4229(5) -0.1963(2) -0.04274(19)
C15 C 0.2735(5) -0.1792(2) 0.04367(18)
H1 H 0.23170 0.07840 0.20990
H2 H -0.00440 0.10590 0.50930
H3 H -0.56440 0.41910 0.70050
H4 H -0.49940 0.47080 0.52080
H5 H -0.27380 0.42290 0.37290
H6 H 0.06190 0.09810 -0.00830
H7 H 0.31640 0.06970 -0.15180
H8 H 0.54640 -0.11580 -0.17020
H9 H 0.50880 -0.27320 -0.05200
H10 H 0.26570 -0.24260 0.09380
H11 H 0.01580 0.29320 0.28310
H12 H 0.21760 0.20810 0.35260
H13 H -0.22280 -0.03950 0.12110
H14 H -0.01890 -0.12390 0.19040
loop_
_geom_bond_atom_site_label_1
_geom_bond_atom_site_label_2
_geom_bond_site_symmetry_1
_geom_bond_site_symmetry_2
Cl1 C3 1_555 1_555
O1 C4 1_555 1_555
O2 C8 1_555 1_555
N1 C8 1_555 1_555
C1 C2 1_555 1_555
C2 C3 1_555 1_555
C3 C4 1_555 1_555
C4 C5 1_555 1_555
C5 C6 1_555 1_555
C6 C1 1_555 1_555
C7 C1 1_555 1_555
C8 C7 1_555 1_555
C9 N1 1_555 1_555
C10 C9 1_555 1_555
C11 C10 1_555 1_555
C12 C11 1_555 1_555
C13 C12 1_555 1_555
C14 C13 1_555 1_555
C15 C10 1_555 1_555
H1 N1 1_555 1_555
H2 C2 1_555 1_555
H3 O1 1_555 1_555
H4 C5 1_555 1_555
H5 C6 1_555 1_555
H6 C11 1_555 1_555
H7 C12 1_555 1_555
H8 C13 1_555 1_555
H9 C14 1_555 1_555
H10 C15 1_555 1_555
H11 C7 1_555 1_555
H12 C7 1_555 1_555
H13 C9 1_555 1_555
H14 C9 1_555 1_555
C14 C15 1_555 1_555

#END
