
#######################################################################
#
#                 Cambridge Crystallographic Data Centre
#                                CCDC 
#
#######################################################################
#
# If this CIF has been generated from an entry in the Cambridge 
# Structural Database, then it will include bibliographic, chemical, 
# crystal, experimental, refinement or atomic coordinate data resulting 
# from the CCDC's data processing and validation procedures.
#
#######################################################################

data_KUZJIA
_chemical_formula_moiety         'C15 H10 O3'
_chemical_name_systematic        7-hydroxy-3-phenyl-4H-chromen-4-one
_symmetry_cell_setting           monoclinic
_symmetry_space_group_name_H-M   'P 21/n'
_symmetry_Int_Tables_number      14
_space_group_name_Hall           '-P 2yn'
loop_
_symmetry_equiv_pos_site_id
_symmetry_equiv_pos_as_xyz
1 x,y,z
2 1/2-x,1/2+y,1/2-z
3 -x,-y,-z
4 1/2+x,1/2-y,1/2+z
_cell_length_a                   12.330(8)
_cell_length_b                   7.976(5)
_cell_length_c                   12.395(8)
_cell_angle_alpha                90
_cell_angle_beta                 103.736(12)
_cell_angle_gamma                90
_cell_volume                     1184.11
_exptl_crystal_colour            colorless
_exptl_crystal_description       column
_cell_formula_units_Z            4
loop_
_atom_site_label
_atom_site_type_symbol
_atom_site_fract_x
_atom_site_fract_y
_atom_site_fract_z
O1 O 0.72418(12) 0.79159(16) 0.46686(10)
O2 O 0.60161(13) 0.36326(17) 0.30322(11)
O3 O 0.58440(11) 1.12510(16) 0.14833(10)
H1 H 0.5892 1.2002 0.1944
C1 C 0.73072(17) 0.6417(2) 0.51814(15)
H2 H 0.7671 0.6387 0.5930
C2 C 0.68960(14) 0.4966(2) 0.47115(14)
C3 C 0.63566(14) 0.4947(2) 0.35285(15)
C4 C 0.57055(15) 0.6779(2) 0.18587(14)
H3 H 0.5426 0.5845 0.1434
C5 C 0.55794(15) 0.8334(2) 0.13788(14)
H4 H 0.5212 0.8451 0.0635
C6 C 0.60025(14) 0.9751(2) 0.20068(14)
C7 C 0.65675(14) 0.9587(2) 0.31064(14)
H5 H 0.6867 1.0519 0.3522
C8 C 0.66771(14) 0.8004(2) 0.35736(13)
C9 C 0.62508(14) 0.6570(2) 0.29830(14)
C10 C 0.70223(15) 0.3407(2) 0.53862(14)
C11 C 0.80587(16) 0.2897(3) 0.59892(15)
H6 H 0.8687 0.3520 0.5955
C12 C 0.8177(2) 0.1475(3) 0.66438(17)
H7 H 0.8882 0.1146 0.7042
C13 C 0.7262(2) 0.0551(3) 0.67079(17)
H8 H 0.7342 -0.0402 0.7152
C14 C 0.6226(2) 0.1036(3) 0.6113(2)
H9 H 0.5603 0.0406 0.6154
C15 C 0.61003(17) 0.2453(3) 0.54554(18)
H10 H 0.5393 0.2770 0.5056
loop_
_geom_bond_atom_site_label_1
_geom_bond_atom_site_label_2
_geom_bond_site_symmetry_1
_geom_bond_site_symmetry_2
O1 C1 1_555 1_555
O2 C3 1_555 1_555
O3 H1 1_555 1_555
C1 H2 1_555 1_555
C2 C1 1_555 1_555
C3 C2 1_555 1_555
C4 H3 1_555 1_555
C5 C4 1_555 1_555
H4 C5 1_555 1_555
C6 O3 1_555 1_555
C7 C6 1_555 1_555
H5 C7 1_555 1_555
C8 O1 1_555 1_555
C9 C3 1_555 1_555
C10 C2 1_555 1_555
C11 C10 1_555 1_555
H6 C11 1_555 1_555
C12 C11 1_555 1_555
H7 C12 1_555 1_555
C13 C12 1_555 1_555
H8 C13 1_555 1_555
C14 C13 1_555 1_555
H9 C14 1_555 1_555
C15 C10 1_555 1_555
H10 C15 1_555 1_555
C4 C9 1_555 1_555
C5 C6 1_555 1_555
C7 C8 1_555 1_555
C8 C9 1_555 1_555
C14 C15 1_555 1_555

#END
