
#######################################################################
#
#                 Cambridge Crystallographic Data Centre
#                                CCDC 
#
#######################################################################
#
# If this CIF has been generated from an entry in the Cambridge 
# Structural Database, then it will include bibliographic, chemical, 
# crystal, experimental, refinement or atomic coordinate data resulting 
# from the CCDC's data processing and validation procedures.
#
#######################################################################

data_KUZKEX
_chemical_formula_moiety         'C15 H10 O3,C4 H10 O1'
_chemical_name_systematic        
'7-hydroxy-3-phenyl-4H-chromen-4-one butan-1-ol solvate'
_symmetry_cell_setting           monoclinic
_symmetry_space_group_name_H-M   'P 21/c'
_symmetry_Int_Tables_number      14
_space_group_name_Hall           '-P 2ybc'
loop_
_symmetry_equiv_pos_site_id
_symmetry_equiv_pos_as_xyz
1 x,y,z
2 -x,1/2+y,1/2-z
3 -x,-y,-z
4 x,1/2-y,1/2+z
_cell_length_a                   6.496(3)
_cell_length_b                   37.718(14)
_cell_length_c                   7.231(4)
_cell_angle_alpha                90
_cell_angle_beta                 108.761(14)
_cell_angle_gamma                90
_cell_volume                     1677.58
_exptl_crystal_colour            colorless
_exptl_crystal_description       plate
_cell_formula_units_Z            4
loop_
_atom_site_label
_atom_site_type_symbol
_atom_site_fract_x
_atom_site_fract_y
_atom_site_fract_z
O1 O 0.73821(19) 0.28258(4) 0.7601(2)
O2 O 1.3509(2) 0.32279(4) 0.8990(3)
O3 O 1.0023(3) 0.16442(4) 0.8203(2)
H1 H 0.8726 0.1601 0.7963
C1 C 0.7773(3) 0.31792(5) 0.7671(3)
H2 H 0.6577 0.3329 0.7410
C2 C 0.9716(3) 0.33308(5) 0.8080(3)
C3 C 1.1637(3) 0.31068(6) 0.8517(3)
C4 C 1.2882(3) 0.24744(6) 0.8759(3)
H3 H 1.4314 0.2550 0.9057
C5 C 1.2447(3) 0.21189(6) 0.8677(3)
H4 H 1.3578 0.1956 0.8917
C6 C 1.0321(3) 0.20006(5) 0.8238(3)
C7 C 0.8628(3) 0.22399(5) 0.7873(3)
H5 H 0.7198 0.2162 0.7575
C8 C 0.9117(3) 0.25994(5) 0.7962(3)
C9 C 1.1218(3) 0.27264(5) 0.8403(3)
C10 C 0.9890(3) 0.37258(6) 0.8090(3)
C11 C 0.8720(4) 0.39324(6) 0.8974(4)
H6 H 0.7853 0.3823 0.9611
C12 C 0.8812(5) 0.42996(7) 0.8929(5)
H7 H 0.8008 0.4433 0.9533
C13 C 1.0065(6) 0.44654(8) 0.8013(5)
H8 H 1.0122 0.4712 0.7980
C14 C 1.1244(5) 0.42644(8) 0.7139(5)
H9 H 1.2112 0.4376 0.6512
C15 C 1.1171(4) 0.38989(7) 0.7170(4)
H10 H 1.1988 0.3768 0.6568
O4 O 0.5840(3) 0.35186(4) 0.2456(3)
H11 H 0.5060 0.3469 0.1348
C16 C 0.4945(4) 0.38108(6) 0.3165(5)
H12 H 0.5444 0.3805 0.4581
H13 H 0.3374 0.3790 0.2720
C17 C 0.5550(5) 0.41526(7) 0.2513(5)
H14 H 0.5001 0.4160 0.1098
H15 H 0.7123 0.4166 0.2905
C18 C 0.4720(6) 0.44716(8) 0.3294(5)
H16 H 0.3144 0.4465 0.2865
H17 H 0.5236 0.4463 0.4709
C19 C 0.5436(10) 0.48107(9) 0.2636(7)
H18 H 0.4884 0.5007 0.3182
H19 H 0.4889 0.4824 0.1236
H20 H 0.6995 0.4820 0.3065
loop_
_geom_bond_atom_site_label_1
_geom_bond_atom_site_label_2
_geom_bond_site_symmetry_1
_geom_bond_site_symmetry_2
O1 C1 1_555 1_555
O2 C3 1_555 1_555
O3 H1 1_555 1_555
C1 H2 1_555 1_555
C2 C1 1_555 1_555
C3 C2 1_555 1_555
C4 H3 1_555 1_555
C5 C4 1_555 1_555
H4 C5 1_555 1_555
C6 O3 1_555 1_555
C7 C6 1_555 1_555
H5 C7 1_555 1_555
C8 O1 1_555 1_555
C9 C3 1_555 1_555
C10 C2 1_555 1_555
C11 C10 1_555 1_555
H6 C11 1_555 1_555
C12 C11 1_555 1_555
H7 C12 1_555 1_555
C13 C12 1_555 1_555
H8 C13 1_555 1_555
C14 C13 1_555 1_555
H9 C14 1_555 1_555
C15 C10 1_555 1_555
H10 C15 1_555 1_555
O4 H11 1_555 1_555
C16 O4 1_555 1_555
H12 C16 1_555 1_555
H13 C16 1_555 1_555
C17 C16 1_555 1_555
H14 C17 1_555 1_555
H15 C17 1_555 1_555
C18 C17 1_555 1_555
H16 C18 1_555 1_555
H17 C18 1_555 1_555
C19 C18 1_555 1_555
H18 C19 1_555 1_555
H19 C19 1_555 1_555
H20 C19 1_555 1_555
C4 C9 1_555 1_555
C5 C6 1_555 1_555
C7 C8 1_555 1_555
C8 C9 1_555 1_555
C14 C15 1_555 1_555

#END
