
#######################################################################
#
#                 Cambridge Crystallographic Data Centre
#                                CCDC 
#
#######################################################################
#
# If this CIF has been generated from an entry in the Cambridge 
# Structural Database, then it will include bibliographic, chemical, 
# crystal, experimental, refinement or atomic coordinate data resulting 
# from the CCDC's data processing and validation procedures.
#
#######################################################################

data_KUZKAS
_chemical_compound_source        'leaves of Aglaia exima'
_chemical_name_common            Cabraleahydroxylactone
_chemical_formula_moiety         'C27 H44 O3'
_chemical_name_systematic        
5-(3-Hydroxy-4,4,8,10,14-pentamethylgonan-17-yl)-5-methyldihydrofuran-2(3H)-one
_symmetry_cell_setting           orthorhombic
_symmetry_space_group_name_H-M   'P 21 21 21'
_symmetry_Int_Tables_number      19
_space_group_name_Hall           'P 2ac 2ab'
loop_
_symmetry_equiv_pos_site_id
_symmetry_equiv_pos_as_xyz
1 x,y,z
2 1/2-x,-y,1/2+z
3 1/2+x,1/2-y,-z
4 -x,1/2+y,1/2-z
_cell_length_a                   7.2077(5)
_cell_length_b                   20.8363(15)
_cell_length_c                   30.464(2)
_cell_angle_alpha                90
_cell_angle_beta                 90
_cell_angle_gamma                90
_cell_volume                     4575.14
_exptl_crystal_colour            colorless
_exptl_crystal_description       prism
_cell_formula_units_Z            8
loop_
_atom_site_label
_atom_site_type_symbol
_atom_site_fract_x
_atom_site_fract_y
_atom_site_fract_z
O1 O 0.2796(5) 0.58659(13) 0.38176(9)
H1 H 0.2911 0.5471 0.3770
O2 O 0.4571(4) 1.09025(13) 0.60025(8)
O3 O 0.3075(4) 1.06676(12) 0.53818(8)
C1 C 0.2089(6) 0.61757(19) 0.34291(12)
H3 H 0.1912 0.5842 0.3197
C2 C 0.3559(6) 0.66442(19) 0.32737(13)
H4 H 0.3199 0.6817 0.2983
H5 H 0.4753 0.6415 0.3239
C3 C 0.3817(5) 0.72036(19) 0.35968(13)
H6 H 0.4273 0.7033 0.3880
H7 H 0.4773 0.7499 0.3480
C4 C 0.2018(5) 0.75810(18) 0.36769(12)
C5 C 0.1559(6) 0.79549(19) 0.32509(11)
H8 H 0.2078 0.7727 0.2998
H9 H 0.2098 0.8386 0.3267
H10 H 0.0210 0.7988 0.3218
C6 C 0.0509(5) 0.70880(18) 0.38243(12)
H11 H 0.0993 0.6905 0.4105
C7 C 0.0202(5) 0.64947(18) 0.35207(12)
C8 C -0.0750(6) 0.6656(2) 0.30844(12)
H12 H 0.0071 0.6928 0.2907
H13 H -0.1911 0.6886 0.3142
H14 H -0.1018 0.6259 0.2925
C9 C -0.1035(6) 0.59982(19) 0.37536(13)
H15 H -0.0986 0.5590 0.3594
H16 H -0.2317 0.6154 0.3761
H17 H -0.0590 0.5934 0.4054
C10 C -0.1287(5) 0.74284(18) 0.39526(12)
H18 H -0.2243 0.7106 0.4030
H19 H -0.1752 0.7682 0.3701
C11 C -0.0943(5) 0.78739(19) 0.43454(12)
H20 H -0.0567 0.7611 0.4601
H21 H -0.2118 0.8093 0.4422
C12 C 0.0556(5) 0.83837(18) 0.42601(12)
C13 C -0.0256(6) 0.88744(18) 0.39315(12)
H22 H -0.1171 0.9145 0.4081
H23 H -0.0857 0.8645 0.3689
H24 H 0.0744 0.9144 0.3816
C14 C 0.2335(5) 0.80400(18) 0.40804(11)
H25 H 0.2734 0.7749 0.4324
C15 C 0.3967(5) 0.85132(19) 0.40226(13)
H26 H 0.5085 0.8272 0.3931
H27 H 0.3660 0.8822 0.3787
C16 C 0.4400(5) 0.88847(19) 0.44474(13)
H28 H 0.4863 0.8584 0.4674
H29 H 0.5381 0.9207 0.4390
C17 C 0.2675(5) 0.92170(17) 0.46118(12)
H30 H 0.2242 0.9505 0.4370
C18 C 0.1089(5) 0.87326(18) 0.46999(12)
C19 C 0.1657(6) 0.82524(19) 0.50616(12)
H31 H 0.2378 0.8476 0.5287
H32 H 0.2411 0.7910 0.4933
H33 H 0.0541 0.8067 0.5194
C20 C -0.0365(6) 0.91833(18) 0.49069(12)
H34 H -0.0975 0.9449 0.4680
H35 H -0.1324 0.8935 0.5066
C21 C 0.0764(5) 0.96028(19) 0.52249(13)
H36 H 0.0775 0.9410 0.5522
H37 H 0.0221 1.0038 0.5244
C22 C 0.2785(5) 0.96349(17) 0.50328(12)
H38 H 0.3646 0.9421 0.5245
C23 C 0.3445(5) 1.03260(18) 0.49629(12)
C24 C 0.2401(6) 1.06900(18) 0.46072(12)
H39 H 0.2721 1.1147 0.4622
H40 H 0.1062 1.0638 0.4651
H41 H 0.2746 1.0520 0.4319
C25 C 0.5553(6) 1.03897(18) 0.49164(12)
H42 H 0.6083 1.0014 0.4762
H43 H 0.5885 1.0784 0.4753
C26 C 0.6246(6) 1.0423(2) 0.53885(13)
H44 H 0.6581 0.9992 0.5500
H45 H 0.7336 1.0709 0.5414
C27 C 0.4611(6) 1.06908(18) 0.56309(13)
O4 O 0.7658(4) 1.04183(13) 0.64896(8)
H2 H 0.6726 1.0594 0.6376
O5 O 0.9808(4) 0.79695(14) 1.01455(9)
O6 O 0.9900(4) 0.79834(12) 0.94154(8)
C28 C 0.8607(6) 1.08736(18) 0.67638(12)
H46 H 0.8733 1.1285 0.6597
C29 C 1.0527(5) 1.06106(18) 0.68467(12)
H47 H 1.1296 1.0949 0.6984
H48 H 1.1104 1.0497 0.6562
C30 C 1.0532(5) 1.00155(17) 0.71448(11)
H49 H 1.1831 0.9884 0.7199
H50 H 0.9904 0.9658 0.6990
C31 C 0.9560(5) 1.01284(17) 0.75894(12)
C32 C 1.0809(6) 1.05702(18) 0.78677(13)
H51 H 1.1486 1.0864 0.7674
H52 H 1.1695 1.0309 0.8034
H53 H 1.0041 1.0818 0.8072
C33 C 0.7601(5) 1.04067(17) 0.74876(12)
H54 H 0.6976 1.0065 0.7311
C34 C 0.7524(6) 1.10136(17) 0.71919(12)
C35 C 0.8312(6) 1.16297(18) 0.74021(13)
H55 H 0.7960 1.2002 0.7224
H56 H 0.9667 1.1600 0.7417
H57 H 0.7808 1.1679 0.7699
C36 C 0.5499(6) 1.11633(19) 0.70719(13)
H58 H 0.5469 1.1470 0.6828
H59 H 0.4866 1.1349 0.7327
H60 H 0.4869 1.0767 0.6984
C37 C 0.6416(5) 1.04637(18) 0.79052(12)
H61 H 0.7045 1.0749 0.8118
H62 H 0.5201 1.0657 0.7831
C38 C 0.6115(5) 0.98016(18) 0.81121(12)
H63 H 0.5358 0.9852 0.8381
H64 H 0.5404 0.9531 0.7905
C39 C 0.7913(5) 0.94578(18) 0.82302(12)
C40 C 0.8788(6) 0.98119(18) 0.86242(12)
H65 H 0.8759 1.0276 0.8571
H66 H 1.0077 0.9672 0.8661
H67 H 0.8085 0.9713 0.8891
C41 C 0.9237(5) 0.94567(17) 0.78171(12)
H68 H 0.8549 0.9200 0.7592
C42 C 1.1012(5) 0.90678(17) 0.79026(12)
H69 H 1.1759 0.9056 0.7630
H70 H 1.1755 0.9288 0.8130
C43 C 1.0627(5) 0.83765(18) 0.80528(12)
H71 H 1.0020 0.8134 0.7813
H72 H 1.1809 0.8160 0.8126
C44 C 0.9364(5) 0.83886(18) 0.84565(12)
H73 H 1.0012 0.8653 0.8683
C45 C 0.7527(5) 0.87339(18) 0.83525(12)
C46 C 0.6461(6) 0.83813(19) 0.79815(13)
H74 H 0.6665 0.7918 0.8008
H75 H 0.6913 0.8530 0.7696
H76 H 0.5132 0.8473 0.8007
C47 C 0.6450(6) 0.86004(18) 0.87787(12)
H77 H 0.5112 0.8693 0.8742
H78 H 0.6941 0.8860 0.9025
C48 C 0.6785(5) 0.78814(19) 0.88553(13)
H79 H 0.5870 0.7621 0.8691
H80 H 0.6686 0.7776 0.9171
C49 C 0.8794(5) 0.77520(18) 0.86838(12)
H81 H 0.8726 0.7409 0.8454
C50 C 1.0103(6) 0.75229(18) 0.90459(12)
C51 C 1.2139(5) 0.75294(19) 0.89235(13)
H82 H 1.2529 0.7971 0.8862
H83 H 1.2333 0.7264 0.8662
H84 H 1.2874 0.7358 0.9167
C52 C 0.9517(6) 0.68784(18) 0.92501(12)
H85 H 0.8179 0.6797 0.9203
H86 H 1.0239 0.6519 0.9124
C53 C 0.9947(6) 0.69623(19) 0.97360(13)
H87 H 0.9010 0.6743 0.9920
H88 H 1.1191 0.6791 0.9808
C54 C 0.9876(5) 0.76753(19) 0.98025(12)
loop_
_geom_bond_atom_site_label_1
_geom_bond_atom_site_label_2
_geom_bond_site_symmetry_1
_geom_bond_site_symmetry_2
O1 H1 1_555 1_555
O2 C27 1_555 1_555
O3 C23 1_555 1_555
O4 H2 1_555 1_555
O5 C54 1_555 1_555
O6 C50 1_555 1_555
C1 O1 1_555 1_555
H3 C1 1_555 1_555
C2 C1 1_555 1_555
H4 C2 1_555 1_555
H5 C2 1_555 1_555
C3 C2 1_555 1_555
H6 C3 1_555 1_555
H7 C3 1_555 1_555
C4 C3 1_555 1_555
C5 C4 1_555 1_555
H8 C5 1_555 1_555
H9 C5 1_555 1_555
H10 C5 1_555 1_555
C6 C4 1_555 1_555
H11 C6 1_555 1_555
C7 C1 1_555 1_555
C8 C7 1_555 1_555
H12 C8 1_555 1_555
H13 C8 1_555 1_555
H14 C8 1_555 1_555
C9 C7 1_555 1_555
H15 C9 1_555 1_555
H16 C9 1_555 1_555
H17 C9 1_555 1_555
C10 C6 1_555 1_555
H18 C10 1_555 1_555
H19 C10 1_555 1_555
C11 C10 1_555 1_555
H20 C11 1_555 1_555
H21 C11 1_555 1_555
C12 C11 1_555 1_555
C13 C12 1_555 1_555
H22 C13 1_555 1_555
H23 C13 1_555 1_555
H24 C13 1_555 1_555
C14 C4 1_555 1_555
H25 C14 1_555 1_555
C15 C14 1_555 1_555
H26 C15 1_555 1_555
H27 C15 1_555 1_555
C16 C15 1_555 1_555
H28 C16 1_555 1_555
H29 C16 1_555 1_555
C17 C16 1_555 1_555
H30 C17 1_555 1_555
C18 C12 1_555 1_555
C19 C18 1_555 1_555
H31 C19 1_555 1_555
H32 C19 1_555 1_555
H33 C19 1_555 1_555
C20 C18 1_555 1_555
H34 C20 1_555 1_555
H35 C20 1_555 1_555
C21 C20 1_555 1_555
H36 C21 1_555 1_555
H37 C21 1_555 1_555
C22 C17 1_555 1_555
H38 C22 1_555 1_555
C23 C22 1_555 1_555
C24 C23 1_555 1_555
H39 C24 1_555 1_555
H40 C24 1_555 1_555
H41 C24 1_555 1_555
C25 C23 1_555 1_555
H42 C25 1_555 1_555
H43 C25 1_555 1_555
C26 C25 1_555 1_555
H44 C26 1_555 1_555
H45 C26 1_555 1_555
C27 O3 1_555 1_555
C28 O4 1_555 1_555
H46 C28 1_555 1_555
C29 C28 1_555 1_555
H47 C29 1_555 1_555
H48 C29 1_555 1_555
C30 C29 1_555 1_555
H49 C30 1_555 1_555
H50 C30 1_555 1_555
C31 C30 1_555 1_555
C32 C31 1_555 1_555
H51 C32 1_555 1_555
H52 C32 1_555 1_555
H53 C32 1_555 1_555
C33 C31 1_555 1_555
H54 C33 1_555 1_555
C34 C28 1_555 1_555
C35 C34 1_555 1_555
H55 C35 1_555 1_555
H56 C35 1_555 1_555
H57 C35 1_555 1_555
C36 C34 1_555 1_555
H58 C36 1_555 1_555
H59 C36 1_555 1_555
H60 C36 1_555 1_555
C37 C33 1_555 1_555
H61 C37 1_555 1_555
H62 C37 1_555 1_555
C38 C37 1_555 1_555
H63 C38 1_555 1_555
H64 C38 1_555 1_555
C39 C38 1_555 1_555
C40 C39 1_555 1_555
H65 C40 1_555 1_555
H66 C40 1_555 1_555
H67 C40 1_555 1_555
C41 C31 1_555 1_555
H68 C41 1_555 1_555
C42 C41 1_555 1_555
H69 C42 1_555 1_555
H70 C42 1_555 1_555
C43 C42 1_555 1_555
H71 C43 1_555 1_555
H72 C43 1_555 1_555
C44 C43 1_555 1_555
H73 C44 1_555 1_555
C45 C39 1_555 1_555
C46 C45 1_555 1_555
H74 C46 1_555 1_555
H75 C46 1_555 1_555
H76 C46 1_555 1_555
C47 C45 1_555 1_555
H77 C47 1_555 1_555
H78 C47 1_555 1_555
C48 C47 1_555 1_555
H79 C48 1_555 1_555
H80 C48 1_555 1_555
C49 C44 1_555 1_555
H81 C49 1_555 1_555
C50 C49 1_555 1_555
C51 C50 1_555 1_555
H82 C51 1_555 1_555
H83 C51 1_555 1_555
H84 C51 1_555 1_555
C52 C50 1_555 1_555
H85 C52 1_555 1_555
H86 C52 1_555 1_555
C53 C52 1_555 1_555
H87 C53 1_555 1_555
H88 C53 1_555 1_555
C54 O6 1_555 1_555
C6 C7 1_555 1_555
C12 C14 1_555 1_555
C17 C18 1_555 1_555
C21 C22 1_555 1_555
C26 C27 1_555 1_555
C33 C34 1_555 1_555
C39 C41 1_555 1_555
C44 C45 1_555 1_555
C48 C49 1_555 1_555
C53 C54 1_555 1_555

#END
