
#######################################################################
#
#                 Cambridge Crystallographic Data Centre
#                                CCDC 
#
#######################################################################
#
# If this CIF has been generated from an entry in the Cambridge 
# Structural Database, then it will include bibliographic, chemical, 
# crystal, experimental, refinement or atomic coordinate data resulting 
# from the CCDC's data processing and validation procedures.
#
#######################################################################

data_KUZKIB
_chemical_formula_moiety         'C18 H10 N4 S3'
_chemical_name_systematic        
4,7-bis(5-methyl-2-thienyl)-2,1,3-benzothiadiazole-5,6-dicarbonitrile
_symmetry_cell_setting           orthorhombic
_symmetry_space_group_name_H-M   'P m n 21'
_symmetry_Int_Tables_number      31
_space_group_name_Hall           'P 2ac -2'
loop_
_symmetry_equiv_pos_site_id
_symmetry_equiv_pos_as_xyz
1 x,y,z
2 1/2-x,-y,1/2+z
3 1/2+x,-y,1/2+z
4 -x,y,z
_cell_length_a                   20.099(6)
_cell_length_b                   11.717(4)
_cell_length_c                   7.027(2)
_cell_angle_alpha                90
_cell_angle_beta                 90
_cell_angle_gamma                90
_cell_volume                     1654.86
_exptl_crystal_colour            red
_exptl_crystal_description       prism
_cell_formula_units_Z            4
_exptl_crystal_recrystallization_method 
'Re-crystallisation from solvent: chloroform layered with methanol'
loop_
_atom_site_label
_atom_site_type_symbol
_atom_site_fract_x
_atom_site_fract_y
_atom_site_fract_z
S1 S 0.5000 0.64823(6) 0.18691(15)
S2 S 0.69390(2) 0.46439(3) 0.18943(7)
N1 N 0.56183(8) 0.56269(13) 0.1560(3)
N2 N 0.58590(8) 0.05590(14) 0.0690(3)
C1 C 0.53553(9) 0.45880(14) 0.1241(3)
C2 C 0.57420(8) 0.35769(14) 0.0928(3)
C3 C 0.53593(8) 0.25898(14) 0.0778(3)
C4 C 0.64616(9) 0.35889(14) 0.0815(3)
C5 C 0.68701(8) 0.28087(15) -0.0068(3)
H1 H 0.6708 0.2170 -0.0760
C6 C 0.75502(9) 0.30479(15) 0.0152(3)
H2 H 0.7893 0.2587 -0.0372
C7 C 0.76703(9) 0.40124(15) 0.1200(3)
C8 C 0.83285(9) 0.45278(15) 0.1698(3)
H3 H 0.8682 0.4130 0.1005
H4 H 0.8405 0.4455 0.3070
H5 H 0.8330 0.5337 0.1345
C9 C 0.56617(9) 0.14751(15) 0.0714(3)
S2C S 0.30610(2) 0.46439(3) 0.18943(7)
N1C N 0.43817(8) 0.56269(13) 0.1560(3)
N2C N 0.41410(8) 0.05590(14) 0.0690(3)
C1C C 0.46447(9) 0.45880(14) 0.1241(3)
C2C C 0.42580(8) 0.35769(14) 0.0928(3)
C3C C 0.46407(8) 0.25898(14) 0.0778(3)
C4C C 0.35384(9) 0.35889(14) 0.0815(3)
C5C C 0.31299(8) 0.28087(15) -0.0068(3)
H1C H 0.3292 0.2170 -0.0760
C6C C 0.24498(9) 0.30479(15) 0.0152(3)
H2C H 0.2107 0.2587 -0.0372
C7C C 0.23297(9) 0.40124(15) 0.1200(3)
C8C C 0.16715(9) 0.45278(15) 0.1698(3)
H3C H 0.1318 0.4130 0.1005
H4C H 0.1595 0.4455 0.3070
H5C H 0.1670 0.5337 0.1345
C9C C 0.43383(9) 0.14751(15) 0.0714(3)
S3 S 0.5000 0.40090(5) 0.60892(10)
S4 S 0.69425(2) 0.21535(4) 0.48867(7)
N3 N 0.56184(8) 0.31400(13) 0.5957(2)
N4 N 0.58819(8) -0.18982(14) 0.4836(3)
C10 C 0.53588(8) 0.20874(14) 0.5797(3)
C11 C 0.57379(9) 0.10574(15) 0.5660(2)
C12 C 0.53589(9) 0.00785(15) 0.5457(2)
C13 C 0.64606(9) 0.10555(14) 0.5782(3)
C14 C 0.68581(9) 0.02487(15) 0.6629(3)
H6 H 0.6688 -0.0420 0.7221
C15 C 0.75443(9) 0.05074(15) 0.6536(3)
H7 H 0.7882 0.0033 0.7052
C16 C 0.76682(9) 0.15197(15) 0.5618(2)
C17 C 0.83219(9) 0.20872(16) 0.5264(3)
H8 H 0.8683 0.1565 0.5605
H9 H 0.8354 0.2780 0.6040
H10 H 0.8358 0.2289 0.3914
C18 C 0.56704(9) -0.10132(15) 0.5130(3)
S4C S 0.30575(2) 0.21535(4) 0.48867(7)
N3C N 0.43816(8) 0.31400(13) 0.5957(2)
N4C N 0.41181(8) -0.18982(14) 0.4836(3)
C10C C 0.46412(8) 0.20874(14) 0.5797(3)
C11C C 0.42621(9) 0.10574(15) 0.5660(2)
C12C C 0.46411(9) 0.00785(15) 0.5457(2)
C13C C 0.35394(9) 0.10555(14) 0.5782(3)
C14C C 0.31419(9) 0.02487(15) 0.6629(3)
H6C H 0.3312 -0.0420 0.7221
C15C C 0.24557(9) 0.05074(15) 0.6536(3)
H7C H 0.2118 0.0033 0.7052
C16C C 0.23318(9) 0.15197(15) 0.5618(2)
C17C C 0.16781(9) 0.20872(16) 0.5264(3)
H8C H 0.1317 0.1565 0.5605
H9C H 0.1646 0.2780 0.6040
H10C H 0.1642 0.2289 0.3914
C18C C 0.43296(9) -0.10132(15) 0.5130(3)
loop_
_geom_bond_atom_site_label_1
_geom_bond_atom_site_label_2
_geom_bond_site_symmetry_1
_geom_bond_site_symmetry_2
S1 N1 1_555 1_555
S2 C4 1_555 1_555
N1 C1 1_555 1_555
N2 C9 1_555 1_555
C1 C2 1_555 1_555
C2 C3 1_555 1_555
C3 C9 1_555 1_555
C4 C2 1_555 1_555
C5 C4 1_555 1_555
H1 C5 1_555 1_555
C6 C5 1_555 1_555
H2 C6 1_555 1_555
C7 S2 1_555 1_555
C8 C7 1_555 1_555
H3 C8 1_555 1_555
H4 C8 1_555 1_555
H5 C8 1_555 1_555
S3 N3 1_555 1_555
S4 C13 1_555 1_555
N3 C10 1_555 1_555
N4 C18 1_555 1_555
C10 C11 1_555 1_555
C11 C12 1_555 1_555
C12 C18 1_555 1_555
C13 C11 1_555 1_555
C14 C13 1_555 1_555
H6 C14 1_555 1_555
C15 C14 1_555 1_555
H7 C15 1_555 1_555
C16 S4 1_555 1_555
C17 C16 1_555 1_555
H8 C17 1_555 1_555
H9 C17 1_555 1_555
H10 C17 1_555 1_555
S2C C4C 1_555 1_555
N1C S1 1_555 1_555
N2C C9C 1_555 1_555
C1C C1 1_555 1_555
C2C C1C 1_555 1_555
C3C C3 1_555 1_555
C4C C2C 1_555 1_555
C5C C4C 1_555 1_555
H1C C5C 1_555 1_555
C6C C5C 1_555 1_555
H2C C6C 1_555 1_555
C7C S2C 1_555 1_555
C8C C7C 1_555 1_555
H3C C8C 1_555 1_555
H4C C8C 1_555 1_555
H5C C8C 1_555 1_555
C9C C3C 1_555 1_555
S4C C13C 1_555 1_555
N3C S3 1_555 1_555
N4C C18C 1_555 1_555
C10C C10 1_555 1_555
C11C C10C 1_555 1_555
C12C C12 1_555 1_555
C13C C11C 1_555 1_555
C14C C13C 1_555 1_555
H6C C14C 1_555 1_555
C15C C14C 1_555 1_555
H7C C15C 1_555 1_555
C16C S4C 1_555 1_555
C17C C16C 1_555 1_555
H8C C17C 1_555 1_555
H9C C17C 1_555 1_555
H10C C17C 1_555 1_555
C18C C12C 1_555 1_555
C6 C7 1_555 1_555
C15 C16 1_555 1_555
N1C C1C 1_555 1_555
C2C C3C 1_555 1_555
C6C C7C 1_555 1_555
N3C C10C 1_555 1_555
C11C C12C 1_555 1_555
C15C C16C 1_555 1_555

#END
