
#######################################################################
#
#                 Cambridge Crystallographic Data Centre
#                                CCDC 
#
#######################################################################
#
# If this CIF has been generated from an entry in the Cambridge 
# Structural Database, then it will include bibliographic, chemical, 
# crystal, experimental, refinement or atomic coordinate data resulting 
# from the CCDC's data processing and validation procedures.
#
#######################################################################

data_KUZKAT
_chemical_formula_moiety         'C15 H10 O3,C3 H8 O1'
_chemical_name_systematic        
'7-hydroxy-3-phenyl-4H-chromen-4-one propan-1-ol solvate'
_symmetry_cell_setting           monoclinic
_symmetry_space_group_name_H-M   'P 21/c'
_symmetry_Int_Tables_number      14
_space_group_name_Hall           '-P 2ybc'
loop_
_symmetry_equiv_pos_site_id
_symmetry_equiv_pos_as_xyz
1 x,y,z
2 -x,1/2+y,1/2-z
3 -x,-y,-z
4 x,1/2-y,1/2+z
_cell_length_a                   6.511(3)
_cell_length_b                   34.420(15)
_cell_length_c                   6.987(5)
_cell_angle_alpha                90
_cell_angle_beta                 109.853(17)
_cell_angle_gamma                90
_cell_volume                     1472.78
_exptl_crystal_colour            colorless
_exptl_crystal_description       plate
_cell_formula_units_Z            4
loop_
_atom_site_label
_atom_site_type_symbol
_atom_site_fract_x
_atom_site_fract_y
_atom_site_fract_z
O1 O 0.2709(2) 0.28461(4) 0.1897(2)
O2 O 0.8872(2) 0.32915(4) 0.3242(2)
O3 O 0.5397(2) 0.15530(4) 0.2488(2)
H1 H 0.4109 0.1504 0.2291
C1 C 0.3073(3) 0.32315(5) 0.1967(3)
H2 H 0.1868 0.3394 0.1719
C2 C 0.5052(3) 0.34036(6) 0.2369(3)
C3 C 0.6982(3) 0.31555(6) 0.2774(3)
C4 C 0.8260(3) 0.24643(6) 0.2999(3)
H3 H 0.9690 0.2549 0.3282
C5 C 0.7837(3) 0.20767(6) 0.2919(3)
H4 H 0.8974 0.1900 0.3135
C6 C 0.5678(3) 0.19405(5) 0.2510(3)
C7 C 0.3975(3) 0.22036(5) 0.2151(3)
H5 H 0.2546 0.2118 0.1858
C8 C 0.4453(3) 0.25971(5) 0.2239(3)
C9 C 0.6574(3) 0.27413(5) 0.2660(3)
C10 C 0.5212(3) 0.38328(6) 0.2390(3)
C11 C 0.4071(3) 0.40596(6) 0.3351(3)
H6 H 0.3265 0.3938 0.4053
C12 C 0.4118(4) 0.44615(6) 0.3281(4)
H7 H 0.3335 0.4607 0.3921
C13 C 0.5329(4) 0.46477(6) 0.2258(3)
H8 H 0.5366 0.4918 0.2208
C14 C 0.6486(4) 0.44259(6) 0.1310(4)
H9 H 0.7304 0.4549 0.0625
C15 C 0.6439(3) 0.40242(6) 0.1369(3)
H10 H 0.7226 0.3880 0.0729
O4 O 0.1218(2) 0.36237(4) 0.6818(3)
H11 H 0.0382 0.3557 0.5699
C16 C 0.0315(3) 0.39500(6) 0.7529(3)
H12 H 0.0920 0.3959 0.9003
H13 H -0.1251 0.3915 0.7148
C17 C 0.0761(4) 0.43303(6) 0.6691(4)
H14 H 0.0133 0.4325 0.5218
H15 H 0.2326 0.4365 0.7056
C18 C -0.0190(4) 0.46717(6) 0.7499(4)
H16 H 0.0114 0.4909 0.6924
H17 H 0.0458 0.4682 0.8954
H18 H -0.1741 0.4639 0.7129
loop_
_geom_bond_atom_site_label_1
_geom_bond_atom_site_label_2
_geom_bond_site_symmetry_1
_geom_bond_site_symmetry_2
O1 C1 1_555 1_555
O2 C3 1_555 1_555
O3 H1 1_555 1_555
C1 H2 1_555 1_555
C2 C1 1_555 1_555
C3 C2 1_555 1_555
C4 H3 1_555 1_555
C5 C4 1_555 1_555
H4 C5 1_555 1_555
C6 O3 1_555 1_555
C7 C6 1_555 1_555
H5 C7 1_555 1_555
C8 O1 1_555 1_555
C9 C3 1_555 1_555
C10 C2 1_555 1_555
C11 C10 1_555 1_555
H6 C11 1_555 1_555
C12 C11 1_555 1_555
H7 C12 1_555 1_555
C13 C12 1_555 1_555
H8 C13 1_555 1_555
C14 C13 1_555 1_555
H9 C14 1_555 1_555
C15 C10 1_555 1_555
H10 C15 1_555 1_555
O4 H11 1_555 1_555
C16 O4 1_555 1_555
H12 C16 1_555 1_555
H13 C16 1_555 1_555
C17 C16 1_555 1_555
H14 C17 1_555 1_555
H15 C17 1_555 1_555
C18 C17 1_555 1_555
H16 C18 1_555 1_555
H17 C18 1_555 1_555
H18 C18 1_555 1_555
C4 C9 1_555 1_555
C5 C6 1_555 1_555
C7 C8 1_555 1_555
C8 C9 1_555 1_555
C14 C15 1_555 1_555

#END
