
#######################################################################
#
#                 Cambridge Crystallographic Data Centre
#                                CCDC 
#
#######################################################################
#
# If this CIF has been generated from an entry in the Cambridge 
# Structural Database, then it will include bibliographic, chemical, 
# crystal, experimental, refinement or atomic coordinate data resulting 
# from the CCDC's data processing and validation procedures.
#
#######################################################################

data_KUZNIE
_chemical_formula_moiety         'C15 H10 O3,C2 H6 O1 S1'
_chemical_name_systematic        
'7-hydroxy-3-phenyl-4H-chromen-4-one dimethyl sulfoxide solvate'
_symmetry_cell_setting           monoclinic
_symmetry_space_group_name_H-M   'P 21/n'
_symmetry_Int_Tables_number      14
_space_group_name_Hall           '-P 2yn'
loop_
_symmetry_equiv_pos_site_id
_symmetry_equiv_pos_as_xyz
1 x,y,z
2 1/2-x,1/2+y,1/2-z
3 -x,-y,-z
4 1/2+x,1/2-y,1/2+z
_cell_length_a                   6.003(4)
_cell_length_b                   11.308(4)
_cell_length_c                   22.106(8)
_cell_angle_alpha                90
_cell_angle_beta                 90.516(8)
_cell_angle_gamma                90
_cell_volume                     1500.54
_exptl_crystal_colour            colorless
_exptl_crystal_description       plate
_cell_formula_units_Z            4
loop_
_atom_site_label
_atom_site_type_symbol
_atom_site_fract_x
_atom_site_fract_y
_atom_site_fract_z
O1 O 0.3324(2) -0.00587(10) 0.05823(6)
O2 O -0.2350(2) 0.00295(10) 0.15914(6)
O3 O 0.0777(3) -0.34086(11) -0.05143(6)
H1 H 0.2053 -0.3383 -0.0643
C1 C 0.3055(3) 0.07194(14) 0.10415(8)
H2 H 0.4199 0.1259 0.1110
C2 C 0.1282(3) 0.07812(14) 0.14063(8)
C3 C -0.0621(3) -0.00036(14) 0.12941(8)
C4 C -0.1890(3) -0.17280(16) 0.06622(9)
H3 H -0.3229 -0.1740 0.0870
C5 C -0.1523(3) -0.25478(15) 0.02184(9)
H4 H -0.2616 -0.3103 0.0125
C6 C 0.0500(3) -0.25528(15) -0.00958(9)
C7 C 0.2104(3) -0.17075(14) 0.00313(8)
H5 H 0.3440 -0.1694 -0.0179
C8 C 0.1675(3) -0.08790(14) 0.04796(8)
C9 C -0.0276(3) -0.08659(14) 0.08099(8)
C10 C 0.1346(3) 0.15978(14) 0.19304(8)
C11 C 0.3260(3) 0.16510(15) 0.22926(9)
H6 H 0.4476 0.1175 0.2203
C12 C 0.3363(3) 0.24099(16) 0.27862(9)
H7 H 0.4655 0.2453 0.3020
C13 C 0.1541(3) 0.31019(16) 0.29291(9)
H8 H 0.1600 0.3602 0.3263
C14 C -0.0367(3) 0.30493(15) 0.25747(9)
H9 H -0.1589 0.3515 0.2672
C15 C -0.0471(3) 0.23051(14) 0.20751(8)
H10 H -0.1755 0.2280 0.1837
S1 S 0.08503(10) 0.93476(4) 0.36530(3)
O4 O -0.0190(3) 0.84087(11) 0.40428(7)
C16 C 0.1945(4) 1.04292(19) 0.41572(12)
H11 H 0.3241 1.0118 0.4359
H12 H 0.0840 1.0630 0.4451
H13 H 0.2346 1.1124 0.3934
C17 C -0.1419(6) 1.0222(2) 0.33722(13)
H14 H -0.2250 0.9775 0.3078
H15 H -0.0850 1.0927 0.3187
H16 H -0.2375 1.0433 0.3701
loop_
_geom_bond_atom_site_label_1
_geom_bond_atom_site_label_2
_geom_bond_site_symmetry_1
_geom_bond_site_symmetry_2
O1 C1 1_555 1_555
O2 C3 1_555 1_555
O3 H1 1_555 1_555
C1 H2 1_555 1_555
C2 C1 1_555 1_555
C3 C2 1_555 1_555
C4 H3 1_555 1_555
C5 C4 1_555 1_555
H4 C5 1_555 1_555
C6 O3 1_555 1_555
C7 C6 1_555 1_555
H5 C7 1_555 1_555
C8 O1 1_555 1_555
C9 C3 1_555 1_555
C10 C2 1_555 1_555
C11 C10 1_555 1_555
H6 C11 1_555 1_555
C12 C11 1_555 1_555
H7 C12 1_555 1_555
C13 C12 1_555 1_555
H8 C13 1_555 1_555
C14 C13 1_555 1_555
H9 C14 1_555 1_555
C15 C10 1_555 1_555
H10 C15 1_555 1_555
S1 O4 1_555 1_555
C16 S1 1_555 1_555
H11 C16 1_555 1_555
H12 C16 1_555 1_555
H13 C16 1_555 1_555
C17 S1 1_555 1_555
H14 C17 1_555 1_555
H15 C17 1_555 1_555
H16 C17 1_555 1_555
C4 C9 1_555 1_555
C5 C6 1_555 1_555
C7 C8 1_555 1_555
C8 C9 1_555 1_555
C14 C15 1_555 1_555

#END
