
#######################################################################
#
#                 Cambridge Crystallographic Data Centre
#                                CCDC 
#
#######################################################################
#
# If this CIF has been generated from an entry in the Cambridge 
# Structural Database, then it will include bibliographic, chemical, 
# crystal, experimental, refinement or atomic coordinate data resulting 
# from the CCDC's data processing and validation procedures.
#
#######################################################################

data_KUZNEZ
_chemical_name_common            
'6-Methyl-2-pyridyl N-acetyl-1-thio-beta-D-glucosaminide methanol solvate'
_chemical_formula_moiety         'C14 H20 N2 O5 S1,C1 H4 O1'
_chemical_name_systematic        
'N-(4,5-Dihydroxy-6-(hydroxymethyl)-2-((6-methylpyridin-2-yl)sulfanyl)tetrahydro-2H-pyran-3-yl)acetamide methanol solvate'
_symmetry_cell_setting           orthorhombic
_symmetry_space_group_name_H-M   'P 21 21 21'
_symmetry_Int_Tables_number      19
_space_group_name_Hall           'P 2ac 2ab'
loop_
_symmetry_equiv_pos_site_id
_symmetry_equiv_pos_as_xyz
1 x,y,z
2 1/2-x,-y,1/2+z
3 1/2+x,1/2-y,-z
4 -x,1/2+y,1/2-z
_cell_length_a                   7.3841(15)
_cell_length_b                   14.041(3)
_cell_length_c                   17.038(4)
_cell_angle_alpha                90
_cell_angle_beta                 90
_cell_angle_gamma                90
_cell_volume                     1766.5
_exptl_crystal_colour            colorless
_exptl_crystal_description       block
_cell_formula_units_Z            4
loop_
_atom_site_label
_atom_site_type_symbol
_atom_site_fract_x
_atom_site_fract_y
_atom_site_fract_z
S1 S 0.80502(12) 0.14422(6) 0.34312(4)
O1 O 0.6461(3) 0.24215(17) 0.23124(11)
O2 O 0.3258(3) 0.26631(17) 0.13049(12)
H1 H 0.3087 0.2660 0.0829
O3 O 0.7290(3) 0.28865(18) 0.02141(12)
H2 H 0.6376 0.3204 0.0135
O4 O 0.9501(3) 0.12909(17) 0.04864(13)
H3 H 0.8695 0.0906 0.0392
O5 O 1.0621(4) -0.03011(17) 0.24234(16)
N1 N 1.0936(4) 0.1246(2) 0.20602(15)
H5 H 1.1689 0.1711 0.2024
N2 N 0.8034(4) 0.1914(2) 0.49004(14)
C1 C 0.8218(5) 0.2112(2) 0.25267(16)
H6 H 0.9010 0.2665 0.2604
C2 C 0.9047(4) 0.1441(2) 0.19007(17)
H7 H 0.8369 0.0841 0.1891
C3 C 0.8913(4) 0.1928(2) 0.10900(16)
H8 H 0.9773 0.2460 0.1096
C4 C 0.7073(4) 0.2349(2) 0.09201(15)
H9 H 0.6190 0.1837 0.0837
C5 C 0.6461(4) 0.2985(2) 0.15999(16)
H10 H 0.7311 0.3516 0.1658
C6 C 0.4550(4) 0.3376(2) 0.14950(17)
H11 H 0.4181 0.3690 0.1976
H12 H 0.4562 0.3850 0.1081
C7 C 0.8079(5) 0.2318(2) 0.41830(17)
C8 C 0.8187(5) 0.3293(2) 0.40626(18)
H13 H 0.8197 0.3549 0.3559
C9 C 0.8281(6) 0.3875(3) 0.4726(2)
H14 H 0.8383 0.4532 0.4671
C10 C 0.8221(5) 0.3470(3) 0.5465(2)
H15 H 0.8265 0.3853 0.5910
C11 C 0.8095(5) 0.2491(3) 0.55384(17)
C12 C 0.8040(6) 0.2002(3) 0.63295(18)
H16 H 0.7956 0.1326 0.6255
H17 H 0.7005 0.2221 0.6619
H18 H 0.9123 0.2149 0.6616
C13 C 1.1595(5) 0.0380(2) 0.22624(18)
C14 C 1.3633(5) 0.0325(3) 0.2284(2)
H19 H 1.3997 -0.0307 0.2431
H20 H 1.4089 0.0773 0.2661
H21 H 1.4111 0.0473 0.1775
O6 O 0.8051(4) -0.00609(19) 0.51072(18)
H4 H 0.7982 0.0517 0.5048
C15 C 0.9488(6) -0.0426(3) 0.4639(3)
H22 H 1.0311 0.0080 0.4511
H23 H 0.9002 -0.0691 0.4164
H24 H 1.0120 -0.0912 0.4925
loop_
_geom_bond_atom_site_label_1
_geom_bond_atom_site_label_2
_geom_bond_site_symmetry_1
_geom_bond_site_symmetry_2
S1 C1 1_555 1_555
O1 C1 1_555 1_555
O2 H1 1_555 1_555
O3 H2 1_555 1_555
O4 H3 1_555 1_555
O5 C13 1_555 1_555
O6 H4 1_555 1_555
N1 H5 1_555 1_555
N2 C7 1_555 1_555
C1 H6 1_555 1_555
C2 N1 1_555 1_555
H7 C2 1_555 1_555
C3 O4 1_555 1_555
H8 C3 1_555 1_555
C4 O3 1_555 1_555
H9 C4 1_555 1_555
C5 O1 1_555 1_555
H10 C5 1_555 1_555
C6 O2 1_555 1_555
H11 C6 1_555 1_555
H12 C6 1_555 1_555
C7 S1 1_555 1_555
C8 C7 1_555 1_555
H13 C8 1_555 1_555
C9 C8 1_555 1_555
H14 C9 1_555 1_555
C10 C9 1_555 1_555
H15 C10 1_555 1_555
C11 N2 1_555 1_555
C12 C11 1_555 1_555
H16 C12 1_555 1_555
H17 C12 1_555 1_555
H18 C12 1_555 1_555
C13 N1 1_555 1_555
C14 C13 1_555 1_555
H19 C14 1_555 1_555
H20 C14 1_555 1_555
H21 C14 1_555 1_555
C15 O6 1_555 1_555
H22 C15 1_555 1_555
H23 C15 1_555 1_555
H24 C15 1_555 1_555
C1 C2 1_555 1_555
C2 C3 1_555 1_555
C3 C4 1_555 1_555
C4 C5 1_555 1_555
C5 C6 1_555 1_555
C10 C11 1_555 1_555

#END
