
#######################################################################
#
#                 Cambridge Crystallographic Data Centre
#                                CCDC 
#
#######################################################################
#
# If this CIF has been generated from an entry in the Cambridge 
# Structural Database, then it will include bibliographic, chemical, 
# crystal, experimental, refinement or atomic coordinate data resulting 
# from the CCDC's data processing and validation procedures.
#
#######################################################################

data_KUZPOL01
_chemical_formula_moiety         'C34 H30 N2 O4'
_chemical_name_systematic        
2,9-bis(pentan-3-yl)isoquinolino[4',5',6':6,5,10]anthra[2,1,9-def]isoquinoline-1,3,8,10(2H,9H)-tetrone
_symmetry_cell_setting           monoclinic
_symmetry_space_group_name_H-M   'P 21/c'
_symmetry_Int_Tables_number      14
_space_group_name_Hall           '-P 2ybc'
loop_
_symmetry_equiv_pos_site_id
_symmetry_equiv_pos_as_xyz
1 x,y,z
2 -x,1/2+y,1/2-z
3 -x,-y,-z
4 x,1/2-y,1/2+z
_cell_length_a                   33.897(6)
_cell_length_b                   7.3290(10)
_cell_length_c                   21.104(4)
_cell_angle_alpha                90
_cell_angle_beta                 100.329(4)
_cell_angle_gamma                90
_cell_volume                     5157.93
_exptl_crystal_colour            red
_exptl_crystal_description       needle
_cell_formula_units_Z            8
loop_
_atom_site_label
_atom_site_type_symbol
_atom_site_fract_x
_atom_site_fract_y
_atom_site_fract_z
O1 O 0.15200(10) 0.1754(4) 0.15862(16)
O2 O 0.05644(10) 0.2851(4) 0.28114(17)
N1 N 0.10603(11) 0.2427(5) 0.22237(19)
C1 C 0.06708(15) 0.2933(6) 0.2285(2)
C2 C 0.03933(14) 0.3556(6) 0.1704(2)
C3 C 0.00105(14) 0.4083(6) 0.1743(2)
H1 H -0.0078 0.4013 0.2145
C4 C -0.02515(14) 0.4720(6) 0.1204(2)
H2 H -0.0515 0.5075 0.1246
C5 C -0.01359(13) 0.4850(5) 0.0606(2)
C6 C 0.02628(13) 0.4319(5) 0.0555(2)
C7 C 0.05251(13) 0.3656(5) 0.1112(2)
C8 C 0.04055(12) 0.4462(5) -0.0037(2)
C9 C 0.07960(13) 0.3907(5) -0.0054(2)
H3 H 0.0894 0.4007 -0.0447
C10 C 0.10476(14) 0.3212(6) 0.0484(2)
H4 H 0.1310 0.2812 0.0451
C11 C 0.09177(13) 0.3101(5) 0.1061(2)
C12 C 0.11882(15) 0.2379(6) 0.1633(2)
C13 C 0.13502(15) 0.1907(7) 0.2816(3)
C14 C 0.1310(2) -0.0033(9) 0.2976(3)
H5 H 0.1028 -0.0213 0.3030
H6 H 0.1345 -0.0739 0.2590
C15 C 0.15504(19) -0.0873(10) 0.3503(3)
H7 H 0.1831 -0.0840 0.3446
H8 H 0.1466 -0.2144 0.3532
H9 H 0.1523 -0.0224 0.3898
C16 C 0.1865(2) 0.3721(10) 0.3534(5)
H10 H 0.2109 0.4430 0.3521
H11 H 0.1663 0.4509 0.3671
H12 H 0.1928 0.2710 0.3839
C17 C 0.1720(4) 0.3044(17) 0.2937(6)
H13 H 0.1937 0.2310 0.2806
H14 H 0.1673 0.4097 0.2639
O1B O -0.15200(10) 0.8246(4) -0.15862(16)
O2B O -0.05644(10) 0.7149(4) -0.28114(17)
N1B N -0.10603(11) 0.7573(5) -0.22237(19)
C1B C -0.06708(15) 0.7067(6) -0.2285(2)
C2B C -0.03933(14) 0.6444(6) -0.1704(2)
C3B C -0.00105(14) 0.5917(6) -0.1743(2)
H1B H 0.0078 0.5987 -0.2145
C4B C 0.02515(14) 0.5280(6) -0.1204(2)
H2B H 0.0515 0.4925 -0.1246
C5B C 0.01359(13) 0.5150(5) -0.0606(2)
C6B C -0.02628(13) 0.5681(5) -0.0555(2)
C7B C -0.05251(13) 0.6344(5) -0.1112(2)
C8B C -0.04055(12) 0.5538(5) 0.0037(2)
C9B C -0.07960(13) 0.6093(5) 0.0054(2)
H3B H -0.0894 0.5993 0.0447
C10B C -0.10476(14) 0.6788(6) -0.0484(2)
H4B H -0.1310 0.7188 -0.0451
C11B C -0.09177(13) 0.6899(5) -0.1061(2)
C12B C -0.11882(15) 0.7621(6) -0.1633(2)
C13B C -0.13502(15) 0.8093(7) -0.2816(3)
C14B C -0.1310(2) 1.0033(9) -0.2976(3)
H5B H -0.1028 1.0213 -0.3030
H6B H -0.1345 1.0739 -0.2590
C15B C -0.15504(19) 1.0873(10) -0.3503(3)
H7B H -0.1831 1.0840 -0.3446
H8B H -0.1466 1.2144 -0.3532
H9B H -0.1523 1.0224 -0.3898
C16B C -0.1865(2) 0.6279(10) -0.3534(5)
H10B H -0.2109 0.5570 -0.3521
H11B H -0.1663 0.5491 -0.3671
H12B H -0.1928 0.7290 -0.3839
C17B C -0.1720(4) 0.6956(17) -0.2937(6)
H13B H -0.1937 0.7690 -0.2806
H14B H -0.1673 0.5903 -0.2639
O3 O 0.34746(8) 0.1422(3) 0.35665(12)
O4 O 0.43548(7) 0.2641(4) 0.22286(13)
N2 N 0.38888(9) 0.2180(4) 0.28702(14)
C19 C 0.37868(12) 0.2131(5) 0.34839(19)
C20 C 0.40698(10) 0.2953(5) 0.40239(18)
C21 C 0.39601(11) 0.3099(5) 0.46165(19)
H20 H 0.3702 0.2690 0.4672
C22 C 0.42212(11) 0.3837(5) 0.51378(19)
H21 H 0.4136 0.3951 0.5541
C23 C 0.46042(10) 0.4413(5) 0.50805(18)
C24 C 0.47251(10) 0.4268(5) 0.44702(18)
C25 C 0.44498(10) 0.3557(5) 0.39392(18)
C26 C 0.51110(10) 0.4862(5) 0.43705(17)
C27 C 0.51996(11) 0.4761(5) 0.37541(19)
H22 H 0.5454 0.5175 0.3682
C28 C 0.49247(11) 0.4066(5) 0.32354(18)
H23 H 0.4995 0.4019 0.2820
C29 C 0.45544(10) 0.3452(5) 0.33189(18)
C30 C 0.42654(11) 0.2740(5) 0.2766(2)
C31 C 0.35875(11) 0.1536(5) 0.22989(18)
H24 H 0.3692 0.1905 0.1904
C32 C 0.31780(11) 0.2471(5) 0.2263(2)
H25 H 0.3004 0.2127 0.1852
H26 H 0.3051 0.2003 0.2618
C33 C 0.31975(12) 0.4544(5) 0.2307(2)
H27 H 0.3333 0.5022 0.1969
H28 H 0.3347 0.4903 0.2730
H29 H 0.2925 0.5040 0.2250
C34 C 0.35569(11) -0.0539(5) 0.2288(2)
H30 H 0.3508 -0.0967 0.2712
H31 H 0.3324 -0.0905 0.1959
C35 C 0.39311(12) -0.1472(5) 0.2140(2)
H32 H 0.3967 -0.1152 0.1703
H33 H 0.3902 -0.2797 0.2173
H34 H 0.4166 -0.1066 0.2450
O3B O 0.65254(8) 0.8578(3) 0.64335(12)
O4B O 0.56452(7) 0.7359(4) 0.77714(13)
N2B N 0.61112(9) 0.7820(4) 0.71298(14)
C19B C 0.62132(12) 0.7869(5) 0.65161(19)
C20B C 0.59302(10) 0.7047(5) 0.59761(18)
C21B C 0.60399(11) 0.6901(5) 0.53835(19)
H20B H 0.6298 0.7310 0.5328
C22B C 0.57788(11) 0.6163(5) 0.48622(19)
H21B H 0.5864 0.6049 0.4459
C23B C 0.53958(10) 0.5587(5) 0.49195(18)
C24B C 0.52749(10) 0.5732(5) 0.55298(18)
C25B C 0.55502(10) 0.6443(5) 0.60608(18)
C26B C 0.48890(10) 0.5138(5) 0.56295(17)
C27B C 0.48004(11) 0.5239(5) 0.62459(19)
H22B H 0.4546 0.4825 0.6318
C28B C 0.50753(11) 0.5934(5) 0.67646(18)
H23B H 0.5005 0.5981 0.7180
C29B C 0.54456(10) 0.6548(5) 0.66811(18)
C30B C 0.57346(11) 0.7260(5) 0.7234(2)
C31B C 0.64125(11) 0.8464(5) 0.77011(18)
H24B H 0.6308 0.8095 0.8096
C32B C 0.68220(11) 0.7529(5) 0.7737(2)
H25B H 0.6996 0.7873 0.8148
H26B H 0.6949 0.7997 0.7382
C33B C 0.68025(12) 0.5456(5) 0.7693(2)
H27B H 0.6667 0.4978 0.8031
H28B H 0.6653 0.5097 0.7270
H29B H 0.7075 0.4960 0.7750
C34B C 0.64431(11) 1.0539(5) 0.7712(2)
H30B H 0.6492 1.0967 0.7288
H31B H 0.6676 1.0905 0.8041
C35B C 0.60689(12) 1.1472(5) 0.7860(2)
H32B H 0.6033 1.1152 0.8297
H33B H 0.6098 1.2797 0.7827
H34B H 0.5834 1.1066 0.7550
O5 O 0.33772(8) 0.8825(4) 0.58100(14)
O6 O 0.34030(8) 0.6529(4) 0.38055(13)
N3 N 0.33737(9) 0.7677(4) 0.47998(15)
C36 C 0.35604(11) 0.8533(5) 0.5371(2)
C37 C 0.39885(10) 0.9029(5) 0.54301(18)
C38 C 0.41907(11) 0.9769(5) 0.59915(19)
H35 H 0.4055 0.9931 0.6344
C39 C 0.45918(11) 1.0291(5) 0.60565(19)
H36 H 0.4726 1.0762 0.6457
C40 C 0.47989(11) 1.0136(5) 0.55483(18)
C41 C 0.45959(10) 0.9397(5) 0.49536(18)
C42 C 0.41897(11) 0.8809(5) 0.49052(18)
C43 C 0.47832(10) 0.9254(5) 0.44029(17)
C44 C 0.45667(10) 0.8508(5) 0.38399(18)
H37 H 0.4689 0.8420 0.3470
C45 C 0.41749(11) 0.7887(5) 0.38063(18)
H38 H 0.4037 0.7358 0.3418
C46 C 0.39863(11) 0.8032(5) 0.43292(18)
C47 C 0.35688(11) 0.7353(5) 0.4283(2)
C48 C 0.29488(11) 0.7050(5) 0.47596(19)
H39 H 0.2858 0.7537 0.5152
C49 C 0.29247(11) 0.4986(5) 0.48023(19)
H40 H 0.3038 0.4440 0.4445
H41 H 0.2639 0.4620 0.4747
C50 C 0.31486(11) 0.4225(6) 0.54401(19)
H42 H 0.3137 0.2889 0.5429
H43 H 0.3023 0.4675 0.5794
H44 H 0.3429 0.4623 0.5507
C51 C 0.26649(11) 0.7852(6) 0.4183(2)
H45 H 0.2386 0.7509 0.4213
H46 H 0.2727 0.7306 0.3783
C52 C 0.26909(12) 0.9926(6) 0.4136(2)
H47 H 0.2494 1.0357 0.3768
H48 H 0.2961 1.0274 0.4077
H49 H 0.2634 1.0479 0.4533
O5B O 0.66228(8) 1.1175(4) 0.41900(14)
O6B O 0.65970(8) 1.3471(4) 0.61945(13)
N3B N 0.66263(9) 1.2323(4) 0.52002(15)
C36B C 0.64396(11) 1.1467(5) 0.4629(2)
C37B C 0.60115(10) 1.0971(5) 0.45699(18)
C38B C 0.58093(11) 1.0231(5) 0.40085(19)
H35B H 0.5945 1.0069 0.3656
C39B C 0.54082(11) 0.9709(5) 0.39435(19)
H36B H 0.5274 0.9238 0.3543
C40B C 0.52011(11) 0.9864(5) 0.44517(18)
C41B C 0.54041(10) 1.0603(5) 0.50464(18)
C42B C 0.58103(11) 1.1191(5) 0.50948(18)
C43B C 0.52168(10) 1.0746(5) 0.55971(17)
C44B C 0.54333(10) 1.1492(5) 0.61601(18)
H37B H 0.5311 1.1580 0.6530
C45B C 0.58251(11) 1.2113(5) 0.61937(18)
H38B H 0.5963 1.2642 0.6582
C46B C 0.60137(11) 1.1968(5) 0.56708(18)
C47B C 0.64312(11) 1.2647(5) 0.5717(2)
C48B C 0.70512(11) 1.2950(5) 0.52404(19)
H39B H 0.7142 1.2463 0.4848
C49B C 0.70753(11) 1.5014(5) 0.51977(19)
H40B H 0.6962 1.5560 0.5555
H41B H 0.7361 1.5380 0.5253
C50B C 0.68514(11) 1.5775(6) 0.45599(19)
H42B H 0.6863 1.7111 0.4571
H43B H 0.6977 1.5325 0.4206
H44B H 0.6571 1.5377 0.4493
C51B C 0.73351(11) 1.2148(6) 0.5817(2)
H45B H 0.7614 1.2491 0.5787
H46B H 0.7273 1.2694 0.6217
C52B C 0.73091(12) 1.0074(6) 0.5864(2)
H47B H 0.7506 0.9643 0.6232
H48B H 0.7039 0.9726 0.5923
H49B H 0.7366 0.9521 0.5467
O7 O 0.17641(8) 0.8489(4) -0.00455(14)
O8 O 0.13998(8) 0.6537(4) 0.18222(14)
N4 N 0.15844(9) 0.7352(4) 0.08690(16)
C53 C 0.13139(11) 0.7270(5) 0.1297(2)
C54 C 0.09100(11) 0.8086(5) 0.10800(19)
C55 C 0.06393(11) 0.8107(5) 0.14937(19)
H50 H 0.0717 0.7671 0.1922
C56 C 0.02498(11) 0.8767(5) 0.12860(19)
H51 H 0.0068 0.8790 0.1580
C57 C 0.01226(11) 0.9389(5) 0.06626(19)
C58 C 0.03986(11) 0.9365(5) 0.02265(18)
C59 C 0.07977(11) 0.8737(5) 0.04487(19)
C60 C 0.02902(11) 0.9958(5) -0.04271(19)
C61 C 0.05761(11) 0.9927(5) -0.0824(2)
H52 H 0.0503 1.0287 -0.1262
C62 C 0.09692(12) 0.9376(5) -0.0591(2)
H53 H 0.1162 0.9407 -0.0867
C63 C 0.10813(11) 0.8788(5) 0.0034(2)
C64 C 0.15021(12) 0.8233(5) 0.0275(2)
C65 C 0.19812(11) 0.6407(6) 0.1061(2)
H54 H 0.1957 0.5614 0.1437
C66 C 0.23193(12) 0.7757(6) 0.1294(2)
H55 H 0.2579 0.7110 0.1332
H56 H 0.2314 0.8725 0.0966
C67 C 0.22959(13) 0.8643(6) 0.1935(2)
H57 H 0.2042 0.9309 0.1901
H58 H 0.2520 0.9492 0.2052
H59 H 0.2310 0.7699 0.2268
C68 C 0.20658(12) 0.5129(6) 0.0524(2)
H60 H 0.1809 0.4691 0.0272
H61 H 0.2208 0.5813 0.0229
C69 C 0.23181(14) 0.3502(6) 0.0798(2)
H62 H 0.2361 0.2697 0.0446
H63 H 0.2178 0.2830 0.1093
H64 H 0.2578 0.3930 0.1032
O7B O -0.17641(8) 1.1511(4) 0.00455(14)
O8B O -0.13998(8) 1.3463(4) -0.18222(14)
N4B N -0.15844(9) 1.2648(4) -0.08690(16)
C53B C -0.13139(11) 1.2730(5) -0.1297(2)
C54B C -0.09100(11) 1.1914(5) -0.10800(19)
C55B C -0.06393(11) 1.1893(5) -0.14937(19)
H50B H -0.0717 1.2329 -0.1922
C56B C -0.02498(11) 1.1233(5) -0.12860(19)
H51B H -0.0068 1.1210 -0.1580
C57B C -0.01226(11) 1.0611(5) -0.06626(19)
C58B C -0.03986(11) 1.0635(5) -0.02265(18)
C59B C -0.07977(11) 1.1263(5) -0.04487(19)
C60B C -0.02902(11) 1.0042(5) 0.04271(19)
C61B C -0.05761(11) 1.0073(5) 0.0824(2)
H52B H -0.0503 0.9713 0.1262
C62B C -0.09692(12) 1.0624(5) 0.0591(2)
H53B H -0.1162 1.0593 0.0867
C63B C -0.10813(11) 1.1212(5) -0.0034(2)
C64B C -0.15021(12) 1.1767(5) -0.0275(2)
C65B C -0.19812(11) 1.3593(6) -0.1061(2)
H54B H -0.1957 1.4386 -0.1437
C66B C -0.23193(12) 1.2243(6) -0.1294(2)
H55B H -0.2579 1.2890 -0.1332
H56B H -0.2314 1.1275 -0.0966
C67B C -0.22959(13) 1.1357(6) -0.1935(2)
H57B H -0.2042 1.0691 -0.1901
H58B H -0.2520 1.0508 -0.2052
H59B H -0.2310 1.2301 -0.2268
C68B C -0.20658(12) 1.4871(6) -0.0524(2)
H60B H -0.1809 1.5309 -0.0272
H61B H -0.2208 1.4187 -0.0229
C69B C -0.23181(14) 1.6498(6) -0.0798(2)
H62B H -0.2361 1.7303 -0.0446
H63B H -0.2178 1.7170 -0.1093
H64B H -0.2578 1.6070 -0.1032
C18? C 0.1465(5) 0.336(2) 0.3210(7)
H15? H 0.1298 0.3307 0.3550
H16? H 0.1378 0.4461 0.2951
H17? H 0.1868 0.4843 0.3787
H18? H 0.1960 0.2700 0.3821
H19? H 0.2041 0.3866 0.3216
loop_
_geom_bond_atom_site_label_1
_geom_bond_atom_site_label_2
_geom_bond_site_symmetry_1
_geom_bond_site_symmetry_2
O1 C12 1_555 1_555
O2 C1 1_555 1_555
N1 C1 1_555 1_555
C1 C2 1_555 1_555
C2 C3 1_555 1_555
C3 H1 1_555 1_555
C4 C3 1_555 1_555
H2 C4 1_555 1_555
C5 C4 1_555 1_555
C6 C5 1_555 1_555
C7 C2 1_555 1_555
C8 C6 1_555 1_555
C9 C8 1_555 1_555
H3 C9 1_555 1_555
C10 C9 1_555 1_555
H4 C10 1_555 1_555
C11 C7 1_555 1_555
C12 N1 1_555 1_555
C13 N1 1_555 1_555
C14 C13 1_555 1_555
H5 C14 1_555 1_555
H6 C14 1_555 1_555
C15 C14 1_555 1_555
H7 C15 1_555 1_555
H8 C15 1_555 1_555
H9 C15 1_555 1_555
C16 H10 1_555 1_555
H11 C16 1_555 1_555
H12 C16 1_555 1_555
C17 C13 1_555 1_555
H13 C17 1_555 1_555
H14 C17 1_555 1_555
O3 C19 1_555 1_555
O4 C30 1_555 1_555
N2 C19 1_555 1_555
C19 C20 1_555 1_555
C20 C21 1_555 1_555
C21 H20 1_555 1_555
C22 C21 1_555 1_555
H21 C22 1_555 1_555
C23 C22 1_555 1_555
C24 C23 1_555 1_555
C25 C20 1_555 1_555
C26 C24 1_555 1_555
C27 C26 1_555 1_555
H22 C27 1_555 1_555
C28 C27 1_555 1_555
H23 C28 1_555 1_555
C29 C25 1_555 1_555
C30 N2 1_555 1_555
C31 N2 1_555 1_555
H24 C31 1_555 1_555
C32 C31 1_555 1_555
H25 C32 1_555 1_555
H26 C32 1_555 1_555
C33 C32 1_555 1_555
H27 C33 1_555 1_555
H28 C33 1_555 1_555
H29 C33 1_555 1_555
C34 C31 1_555 1_555
H30 C34 1_555 1_555
H31 C34 1_555 1_555
C35 C34 1_555 1_555
H32 C35 1_555 1_555
H33 C35 1_555 1_555
H34 C35 1_555 1_555
O5 C36 1_555 1_555
O6 C47 1_555 1_555
N3 C36 1_555 1_555
C36 C37 1_555 1_555
C37 C38 1_555 1_555
C38 H35 1_555 1_555
C39 C38 1_555 1_555
H36 C39 1_555 1_555
C40 C39 1_555 1_555
C41 C40 1_555 1_555
C42 C37 1_555 1_555
C43 C41 1_555 1_555
C44 C43 1_555 1_555
H37 C44 1_555 1_555
C45 C44 1_555 1_555
H38 C45 1_555 1_555
C46 C42 1_555 1_555
C47 N3 1_555 1_555
C48 N3 1_555 1_555
H39 C48 1_555 1_555
C49 C48 1_555 1_555
H40 C49 1_555 1_555
H41 C49 1_555 1_555
C50 C49 1_555 1_555
H42 C50 1_555 1_555
H43 C50 1_555 1_555
H44 C50 1_555 1_555
C51 C48 1_555 1_555
H45 C51 1_555 1_555
H46 C51 1_555 1_555
C52 C51 1_555 1_555
H47 C52 1_555 1_555
H48 C52 1_555 1_555
H49 C52 1_555 1_555
O7 C64 1_555 1_555
O8 C53 1_555 1_555
N4 C53 1_555 1_555
C53 C54 1_555 1_555
C54 C55 1_555 1_555
C55 H50 1_555 1_555
C56 C55 1_555 1_555
H51 C56 1_555 1_555
C57 C56 1_555 1_555
C58 C57 1_555 1_555
C59 C54 1_555 1_555
C60 C58 1_555 1_555
C61 C60 1_555 1_555
H52 C61 1_555 1_555
C62 C61 1_555 1_555
H53 C62 1_555 1_555
C63 C59 1_555 1_555
C64 N4 1_555 1_555
C65 N4 1_555 1_555
H54 C65 1_555 1_555
C66 C65 1_555 1_555
H55 C66 1_555 1_555
H56 C66 1_555 1_555
C67 C66 1_555 1_555
H57 C67 1_555 1_555
H58 C67 1_555 1_555
H59 C67 1_555 1_555
C68 C65 1_555 1_555
H60 C68 1_555 1_555
H61 C68 1_555 1_555
C69 C68 1_555 1_555
H62 C69 1_555 1_555
H63 C69 1_555 1_555
H64 C69 1_555 1_555
O1B C12B 1_555 1_555
O2B C1B 1_555 1_555
N1B C1B 1_555 1_555
C1B C2B 1_555 1_555
C2B C3B 1_555 1_555
C3B H1B 1_555 1_555
C4B C3B 1_555 1_555
H2B C4B 1_555 1_555
C5B C8 1_555 1_555
C6B C5B 1_555 1_555
C7B C2B 1_555 1_555
C8B C5 1_555 1_555
C9B C8B 1_555 1_555
H3B C9B 1_555 1_555
C10B C9B 1_555 1_555
H4B C10B 1_555 1_555
C11B C7B 1_555 1_555
C12B N1B 1_555 1_555
C13B N1B 1_555 1_555
C14B C13B 1_555 1_555
H5B C14B 1_555 1_555
H6B C14B 1_555 1_555
C15B C14B 1_555 1_555
H7B C15B 1_555 1_555
H8B C15B 1_555 1_555
H9B C15B 1_555 1_555
C16B H10B 1_555 1_555
H11B C16B 1_555 1_555
H12B C16B 1_555 1_555
C17B C13B 1_555 1_555
H13B C17B 1_555 1_555
H14B C17B 1_555 1_555
O3B C19B 1_555 1_555
O4B C30B 1_555 1_555
N2B C19B 1_555 1_555
C19B C20B 1_555 1_555
C20B C21B 1_555 1_555
C21B H20B 1_555 1_555
C22B C21B 1_555 1_555
H21B C22B 1_555 1_555
C23B C26 1_555 1_555
C24B C23B 1_555 1_555
C25B C20B 1_555 1_555
C26B C23 1_555 1_555
C27B C26B 1_555 1_555
H22B C27B 1_555 1_555
C28B C27B 1_555 1_555
H23B C28B 1_555 1_555
C29B C25B 1_555 1_555
C30B N2B 1_555 1_555
C31B N2B 1_555 1_555
H24B C31B 1_555 1_555
C32B C31B 1_555 1_555
H25B C32B 1_555 1_555
H26B C32B 1_555 1_555
C33B C32B 1_555 1_555
H27B C33B 1_555 1_555
H28B C33B 1_555 1_555
H29B C33B 1_555 1_555
C34B C31B 1_555 1_555
H30B C34B 1_555 1_555
H31B C34B 1_555 1_555
C35B C34B 1_555 1_555
H32B C35B 1_555 1_555
H33B C35B 1_555 1_555
H34B C35B 1_555 1_555
O5B C36B 1_555 1_555
O6B C47B 1_555 1_555
N3B C36B 1_555 1_555
C36B C37B 1_555 1_555
C37B C38B 1_555 1_555
C38B H35B 1_555 1_555
C39B C38B 1_555 1_555
H36B C39B 1_555 1_555
C40B C43 1_555 1_555
C41B C40B 1_555 1_555
C42B C37B 1_555 1_555
C43B C40 1_555 1_555
C44B C43B 1_555 1_555
H37B C44B 1_555 1_555
C45B C44B 1_555 1_555
H38B C45B 1_555 1_555
C46B C42B 1_555 1_555
C47B N3B 1_555 1_555
C48B N3B 1_555 1_555
H39B C48B 1_555 1_555
C49B C48B 1_555 1_555
H40B C49B 1_555 1_555
H41B C49B 1_555 1_555
C50B C49B 1_555 1_555
H42B C50B 1_555 1_555
H43B C50B 1_555 1_555
H44B C50B 1_555 1_555
C51B C48B 1_555 1_555
H45B C51B 1_555 1_555
H46B C51B 1_555 1_555
C52B C51B 1_555 1_555
H47B C52B 1_555 1_555
H48B C52B 1_555 1_555
H49B C52B 1_555 1_555
O7B C64B 1_555 1_555
O8B C53B 1_555 1_555
N4B C53B 1_555 1_555
C53B C54B 1_555 1_555
C54B C55B 1_555 1_555
C55B H50B 1_555 1_555
C56B C55B 1_555 1_555
H51B C56B 1_555 1_555
C57B C60 1_555 1_555
C58B C57B 1_555 1_555
C59B C54B 1_555 1_555
C60B C57 1_555 1_555
C61B C60B 1_555 1_555
H52B C61B 1_555 1_555
C62B C61B 1_555 1_555
H53B C62B 1_555 1_555
C63B C59B 1_555 1_555
C64B N4B 1_555 1_555
C65B N4B 1_555 1_555
H54B C65B 1_555 1_555
C66B C65B 1_555 1_555
H55B C66B 1_555 1_555
H56B C66B 1_555 1_555
C67B C66B 1_555 1_555
H57B C67B 1_555 1_555
H58B C67B 1_555 1_555
H59B C67B 1_555 1_555
C68B C65B 1_555 1_555
H60B C68B 1_555 1_555
H61B C68B 1_555 1_555
C69B C68B 1_555 1_555
H62B C69B 1_555 1_555
H63B C69B 1_555 1_555
H64B C69B 1_555 1_555
C6 C7 1_555 1_555
C10 C11 1_555 1_555
C11 C12 1_555 1_555
C16 C17 1_555 1_555
C24 C25 1_555 1_555
C28 C29 1_555 1_555
C29 C30 1_555 1_555
C41 C42 1_555 1_555
C45 C46 1_555 1_555
C46 C47 1_555 1_555
C58 C59 1_555 1_555
C62 C63 1_555 1_555
C63 C64 1_555 1_555
C4B C5B 1_555 1_555
C6B C7B 1_555 1_555
C6B C8B 1_555 1_555
C10B C11B 1_555 1_555
C11B C12B 1_555 1_555
C16B C17B 1_555 1_555
C22B C23B 1_555 1_555
C24B C25B 1_555 1_555
C24B C26B 1_555 1_555
C28B C29B 1_555 1_555
C29B C30B 1_555 1_555
C39B C40B 1_555 1_555
C41B C42B 1_555 1_555
C41B C43B 1_555 1_555
C45B C46B 1_555 1_555
C46B C47B 1_555 1_555
C56B C57B 1_555 1_555
C58B C59B 1_555 1_555
C58B C60B 1_555 1_555
C62B C63B 1_555 1_555
C63B C64B 1_555 1_555

#END
