
#######################################################################
#
#                 Cambridge Crystallographic Data Centre
#                                CCDC 
#
#######################################################################
#
# If this CIF has been generated from an entry in the Cambridge 
# Structural Database, then it will include bibliographic, chemical, 
# crystal, experimental, refinement or atomic coordinate data resulting 
# from the CCDC's data processing and validation procedures.
#
#######################################################################

data_KUZVUX
_chemical_formula_moiety         'C8 H11 N3 O4'
_chemical_name_systematic        
'Ethyl 2-(2-methyl-4-nitro-1H-imidazol-1-yl)acetate'
_symmetry_cell_setting           orthorhombic
_symmetry_space_group_name_H-M   'P 21 21 21'
_symmetry_Int_Tables_number      19
_space_group_name_Hall           'P 2ac 2ab'
loop_
_symmetry_equiv_pos_site_id
_symmetry_equiv_pos_as_xyz
1 x,y,z
2 1/2-x,-y,1/2+z
3 1/2+x,1/2-y,-z
4 -x,1/2+y,1/2-z
_cell_length_a                   4.416(3)
_cell_length_b                   10.290(6)
_cell_length_c                   20.769(12)
_cell_angle_alpha                90
_cell_angle_beta                 90
_cell_angle_gamma                90
_cell_volume                     943.757
_exptl_crystal_colour            colorless
_exptl_crystal_description       chunk
_cell_formula_units_Z            4
loop_
_atom_site_label
_atom_site_type_symbol
_atom_site_fract_x
_atom_site_fract_y
_atom_site_fract_z
O1 O 0.3643(3) 0.58804(13) 0.42377(6)
O2 O 0.7058(4) 0.74979(13) 0.42394(6)
O3 O 1.0605(4) 0.80751(14) 0.14662(6)
O4 O 1.1820(4) 1.00386(14) 0.17463(7)
N1 N 0.5079(4) 0.82884(15) 0.30422(7)
N2 N 0.7748(4) 1.00021(15) 0.27284(7)
N3 N 1.0373(4) 0.90341(16) 0.18170(7)
C1 C 0.6719(5) 0.78850(18) 0.25230(8)
H1 H 0.6754 0.7046 0.2332
C2 C 0.8285(5) 0.89536(18) 0.23422(8)
C3 C 0.5780(5) 0.95693(18) 0.31538(9)
C4 C 0.4430(5) 1.03335(19) 0.36860(9)
H2 H 0.5425 1.1183 0.3711
H3 H 0.4712 0.9868 0.4093
H4 H 0.2262 1.0455 0.3606
C5 C 0.3162(5) 0.74537(19) 0.34314(8)
H5 H 0.2462 0.6708 0.3170
H6 H 0.1357 0.7945 0.3576
C6 C 0.4893(5) 0.69604(18) 0.40139(8)
C7 C 0.5214(5) 0.52893(19) 0.47784(9)
H7 H 0.4783 0.5775 0.5180
H8 H 0.7428 0.5295 0.4704
C8 C 0.4071(6) 0.39131(19) 0.48318(10)
H9 H 0.1868 0.3921 0.4889
H10 H 0.5021 0.3489 0.5203
H11 H 0.4582 0.3435 0.4438
loop_
_geom_bond_atom_site_label_1
_geom_bond_atom_site_label_2
_geom_bond_site_symmetry_1
_geom_bond_site_symmetry_2
O1 C6 1_555 1_555
O2 C6 1_555 1_555
O3 N3 1_555 1_555
O4 N3 1_555 1_555
N1 C1 1_555 1_555
N2 C2 1_555 1_555
N3 C2 1_555 1_555
C1 H1 1_555 1_555
C2 C1 1_555 1_555
C3 N1 1_555 1_555
C4 C3 1_555 1_555
H2 C4 1_555 1_555
H3 C4 1_555 1_555
H4 C4 1_555 1_555
C5 N1 1_555 1_555
H5 C5 1_555 1_555
H6 C5 1_555 1_555
C6 C5 1_555 1_555
C7 O1 1_555 1_555
H7 C7 1_555 1_555
H8 C7 1_555 1_555
C8 C7 1_555 1_555
H9 C8 1_555 1_555
H10 C8 1_555 1_555
H11 C8 1_555 1_555
N2 C3 1_555 1_555

#END
