
#######################################################################
#
#                 Cambridge Crystallographic Data Centre
#                                CCDC 
#
#######################################################################
#
# If this CIF has been generated from an entry in the Cambridge 
# Structural Database, then it will include bibliographic, chemical, 
# crystal, experimental, refinement or atomic coordinate data resulting 
# from the CCDC's data processing and validation procedures.
#
#######################################################################

data_KUZXOT
_chemical_formula_moiety         'C17 H16 Cl2 N2 O3,H2 O1'
_chemical_name_systematic        
"N'-[(1E)-1-(3,5-Dichloro-2-hydroxyphenyl)propylidene]-4-methoxybenzohydrazide monohydrate"
_symmetry_cell_setting           monoclinic
_symmetry_space_group_name_H-M   'C 2/c'
_symmetry_Int_Tables_number      15
_space_group_name_Hall           '-C 2yn'
loop_
_symmetry_equiv_pos_site_id
_symmetry_equiv_pos_as_xyz
1 x,y,z
2 -x,y,1/2-z
3 1/2+x,1/2+y,z
4 1/2-x,1/2+y,1/2-z
5 -x,-y,-z
6 x,-y,1/2+z
7 1/2-x,1/2-y,-z
8 1/2+x,1/2-y,1/2+z
_cell_length_a                   32.925(3)
_cell_length_b                   7.3733(7)
_cell_length_c                   15.1252(13)
_cell_angle_alpha                90
_cell_angle_beta                 92.319(2)
_cell_angle_gamma                90
_cell_volume                     3668.88
_exptl_crystal_colour            colorless
_exptl_crystal_description       block
_cell_formula_units_Z            8
loop_
_atom_site_label
_atom_site_type_symbol
_atom_site_fract_x
_atom_site_fract_y
_atom_site_fract_z
Cl1 Cl 0.90858(2) 0.20782(14) 0.56665(4)
Cl2 Cl 0.96867(2) 0.10906(15) 0.90003(5)
N1 N 0.78571(6) 0.0580(3) 0.76338(12)
N2 N 0.74565(5) 0.0416(3) 0.78172(11)
H1 H 0.7378 0.0201 0.8342
O1 O 0.83142(5) 0.1268(2) 0.64024(10)
H2 H 0.8097 0.1104 0.6635
O2 O 0.73122(5) 0.0679(2) 0.63564(10)
O3 O 0.55192(6) 0.1318(3) 0.76671(15)
C1 C 0.86185(7) 0.1190(3) 0.70224(14)
C2 C 0.90114(8) 0.1561(4) 0.67682(15)
C3 C 0.93372(8) 0.1525(4) 0.73556(18)
H5 H 0.9597 0.1786 0.7172
C4 C 0.92734(8) 0.1095(4) 0.82283(17)
C5 C 0.88941(7) 0.0692(3) 0.85008(16)
H6 H 0.8860 0.0387 0.9090
C6 C 0.85555(7) 0.0729(3) 0.79125(14)
C7 C 0.81465(7) 0.0354(3) 0.82230(14)
C8 C 0.80792(7) -0.0152(3) 0.91630(14)
H7 H 0.8310 -0.0844 0.9394
H8 H 0.7840 -0.0916 0.9186
C9 C 0.80230(9) 0.1511(4) 0.97375(16)
H9 H 0.8275 0.2160 0.9799
H10 H 0.7939 0.1141 1.0311
H11 H 0.7819 0.2284 0.9466
C10 C 0.71868(7) 0.0615(3) 0.71071(14)
C11 C 0.67535(7) 0.0788(3) 0.72990(14)
C12 C 0.66180(7) 0.1335(3) 0.81114(15)
H12 H 0.6807 0.1569 0.8570
C13 C 0.62131(8) 0.1540(4) 0.82595(17)
H13 H 0.6130 0.1909 0.8812
C14 C 0.59297(8) 0.1198(4) 0.75892(19)
C15 C 0.60576(8) 0.0678(4) 0.67635(18)
H14 H 0.5867 0.0458 0.6306
C16 C 0.64623(7) 0.0488(3) 0.66187(16)
H15 H 0.6545 0.0154 0.6061
C17 C 0.53716(10) 0.1785(6) 0.8521(2)
H16 H 0.5465 0.0903 0.8950
H17 H 0.5080 0.1802 0.8491
H18 H 0.5472 0.2962 0.8692
O4 O 0.28854(6) 0.0811(2) 0.04707(10)
H3 H 0.2830 0.0895 -0.0081
H4 H 0.3050 0.1670 0.0597
loop_
_geom_bond_atom_site_label_1
_geom_bond_atom_site_label_2
_geom_bond_site_symmetry_1
_geom_bond_site_symmetry_2
Cl1 C2 1_555 1_555
Cl2 C4 1_555 1_555
N1 N2 1_555 1_555
N2 H1 1_555 1_555
O1 H2 1_555 1_555
O2 C10 1_555 1_555
O3 C14 1_555 1_555
O4 H3 1_555 1_555
H4 O4 1_555 1_555
C1 O1 1_555 1_555
C2 C1 1_555 1_555
C3 C2 1_555 1_555
H5 C3 1_555 1_555
C4 C3 1_555 1_555
C5 C4 1_555 1_555
H6 C5 1_555 1_555
C6 C1 1_555 1_555
C7 N1 1_555 1_555
C8 C7 1_555 1_555
H7 C8 1_555 1_555
H8 C8 1_555 1_555
C9 C8 1_555 1_555
H9 C9 1_555 1_555
H10 C9 1_555 1_555
H11 C9 1_555 1_555
C10 N2 1_555 1_555
C11 C10 1_555 1_555
C12 C11 1_555 1_555
H12 C12 1_555 1_555
C13 C12 1_555 1_555
H13 C13 1_555 1_555
C14 C13 1_555 1_555
C15 C14 1_555 1_555
H14 C15 1_555 1_555
C16 C11 1_555 1_555
H15 C16 1_555 1_555
C17 O3 1_555 1_555
H16 C17 1_555 1_555
H17 C17 1_555 1_555
H18 C17 1_555 1_555
C5 C6 1_555 1_555
C6 C7 1_555 1_555
C15 C16 1_555 1_555

#END
