
#######################################################################
#
#                 Cambridge Crystallographic Data Centre
#                                CCDC 
#
#######################################################################
#
# If this CIF has been generated from an entry in the Cambridge 
# Structural Database, then it will include bibliographic, chemical, 
# crystal, experimental, refinement or atomic coordinate data resulting 
# from the CCDC's data processing and validation procedures.
#
#######################################################################

data_KUZYIO
_chemical_formula_moiety         'C16 H10 O8,H2 O1'
_chemical_name_systematic        
"Biphenyl-2,2',4,4'-tetracarboxylic acid monohydrate"
_symmetry_cell_setting           triclinic
_symmetry_space_group_name_H-M   'P -1'
_symmetry_Int_Tables_number      2
_space_group_name_Hall           '-P 1'
loop_
_symmetry_equiv_pos_site_id
_symmetry_equiv_pos_as_xyz
1 x,y,z
2 -x,-y,-z
_cell_length_a                   7.17650(10)
_cell_length_b                   9.4677(2)
_cell_length_c                   11.9301(2)
_cell_angle_alpha                106.0130(10)
_cell_angle_beta                 100.0980(10)
_cell_angle_gamma                96.7530(10)
_cell_volume                     755.181
_exptl_crystal_colour            yellow
_exptl_crystal_description       block
_cell_formula_units_Z            2
loop_
_atom_site_label
_atom_site_type_symbol
_atom_site_fract_x
_atom_site_fract_y
_atom_site_fract_z
O1 O 0.7651(3) 1.4462(2) 0.51405(19)
H1 H 0.8362 1.4851 0.4799
O2 O 1.0447(2) 1.4309(2) 0.61981(17)
O3 O 0.19262(18) 1.12724(18) 0.49778(13)
H2 H 0.0770 1.0941 0.4759
O4 O 0.17196(18) 0.97698(17) 0.60878(13)
O5 O 0.3535(2) 1.20930(14) 0.88045(14)
O6 O 0.1817(2) 1.07466(14) 0.96298(13)
H3 H 0.1502 1.1551 0.9916
O7 O 0.4508(2) 0.46084(14) 0.83504(15)
H4 H 0.4132 0.3873 0.8539
O8 O 0.2313(2) 0.55361(14) 0.92899(13)
C1 C 0.7674(2) 1.1428(2) 0.77090(16)
H5 H 0.8355 1.1113 0.8306
C2 C 0.8611(3) 1.2492(2) 0.73154(17)
H6 H 0.9908 1.2877 0.7640
C3 C 0.7614(2) 1.29848(19) 0.64325(15)
C4 C 0.5674(2) 1.24238(18) 0.59864(14)
H7 H 0.4990 1.2783 0.5419
C5 C 0.4723(2) 1.13359(17) 0.63672(13)
C6 C 0.5744(2) 1.08125(17) 0.72423(14)
C7 C 0.4997(2) 0.95149(17) 0.76245(14)
C8 C 0.3751(2) 0.95295(17) 0.84121(14)
C9 C 0.3250(2) 0.82523(17) 0.87296(14)
H8 H 0.2409 0.8259 0.9241
C10 C 0.3984(2) 0.69691(17) 0.82967(14)
C11 C 0.5231(3) 0.69593(18) 0.75326(15)
H9 H 0.5729 0.6103 0.7236
C12 C 0.5734(2) 0.82211(19) 0.72119(15)
H10 H 0.6588 0.8206 0.6707
C13 C 0.8643(3) 1.4007(2) 0.59059(18)
C14 C 0.2659(2) 1.07440(18) 0.57925(14)
C15 C 0.3025(2) 1.09080(18) 0.89507(15)
C16 C 0.3493(2) 0.56452(18) 0.86928(15)
O9 O 0.1086(2) 1.34013(16) 1.05603(16)
H11 H 0.0046(19) 1.370(2) 1.0685(19)
H12 H 0.177(2) 1.4042(19) 1.037(2)
loop_
_geom_bond_atom_site_label_1
_geom_bond_atom_site_label_2
_geom_bond_site_symmetry_1
_geom_bond_site_symmetry_2
O1 H1 1_555 1_555
O2 C13 1_555 1_555
O3 H2 1_555 1_555
O4 C14 1_555 1_555
O5 C15 1_555 1_555
O6 H3 1_555 1_555
O7 H4 1_555 1_555
O8 C16 1_555 1_555
O9 H11 1_555 1_555
C1 H5 1_555 1_555
C2 C1 1_555 1_555
H6 C2 1_555 1_555
C3 C2 1_555 1_555
C4 C3 1_555 1_555
H7 C4 1_555 1_555
C5 C4 1_555 1_555
C6 C1 1_555 1_555
C7 C6 1_555 1_555
C8 C7 1_555 1_555
C9 C8 1_555 1_555
H8 C9 1_555 1_555
C10 C9 1_555 1_555
C11 C10 1_555 1_555
H9 C11 1_555 1_555
C12 C7 1_555 1_555
H10 C12 1_555 1_555
C13 O1 1_555 1_555
C14 O3 1_555 1_555
C15 O6 1_555 1_555
C16 O7 1_555 1_555
H12 O9 1_555 1_555
C3 C13 1_555 1_555
C5 C6 1_555 1_555
C5 C14 1_555 1_555
C8 C15 1_555 1_555
C10 C16 1_555 1_555
C11 C12 1_555 1_555

#END
