
#######################################################################
#
#                 Cambridge Crystallographic Data Centre
#                                CCDC 
#
#######################################################################
#
# If this CIF has been generated from an entry in the Cambridge 
# Structural Database, then it will include bibliographic, chemical, 
# crystal, experimental, refinement or atomic coordinate data resulting 
# from the CCDC's data processing and validation procedures.
#
#######################################################################

data_KUZZOV
_chemical_formula_moiety         'C17 H11 N3 O2'
_chemical_name_systematic        Pyridine-2,5-diylbis(pyridin-2-ylmethanone)
_symmetry_cell_setting           triclinic
_symmetry_space_group_name_H-M   'P -1'
_symmetry_Int_Tables_number      2
_space_group_name_Hall           '-P 1'
loop_
_symmetry_equiv_pos_site_id
_symmetry_equiv_pos_as_xyz
1 x,y,z
2 -x,-y,-z
_cell_length_a                   3.8453(13)
_cell_length_b                   8.447(3)
_cell_length_c                   11.202(3)
_cell_angle_alpha                108.672(6)
_cell_angle_beta                 97.251(6)
_cell_angle_gamma                99.772(6)
_cell_volume                     333.29
_exptl_crystal_colour            yellow
_exptl_crystal_description       block
_chemical_melting_point          '401 K'
_cell_formula_units_Z            1
loop_
_atom_site_label
_atom_site_type_symbol
_atom_site_fract_x
_atom_site_fract_y
_atom_site_fract_z
O1 O 0.6820(5) 0.90853(19) -0.33644(14)
N1 N 1.2541(5) 1.3162(2) -0.16816(16)
C1 C 1.0409(5) 0.8740(2) -0.10902(16)
H1 H 1.0669 0.7873 -0.1798
C2 C 1.0287(5) 1.1927(2) -0.26845(17)
C3 C 0.9470(6) 1.2061(3) -0.38842(19)
H2 H 0.7892 1.1174 -0.4556
C4 C 1.1066(7) 1.3548(3) -0.4057(2)
H3 H 1.0622 1.3669 -0.4855
C5 C 1.3311(7) 1.4843(3) -0.3033(2)
H4 H 1.4367 1.5866 -0.3120
C6 C 1.3972(6) 1.4598(3) -0.1870(2)
H5 H 1.5498 1.5481 -0.1181
C7 C 0.8680(5) 1.0309(2) -0.24786(17)
C8 C 0.9456(5) 1.0191(2) -0.11607(17)
C9 C 0.9031(5) 1.1447(2) -0.00732(18)
H6 H 0.8358 1.2427 -0.0141
O1A O 1.3180(5) 1.09147(19) 0.33644(14)
N1A N 0.7459(5) 0.6838(2) 0.16816(16)
C1A C 0.9591(5) 1.1260(2) 0.10902(16)
H1A H 0.9331 1.2127 0.1798
C2A C 0.9713(5) 0.8073(2) 0.26845(17)
C3A C 1.0530(6) 0.7939(3) 0.38842(19)
H2A H 1.2108 0.8826 0.4556
C4A C 0.8934(7) 0.6452(3) 0.4057(2)
H3A H 0.9378 0.6331 0.4855
C5A C 0.6689(7) 0.5157(3) 0.3033(2)
H4A H 0.5633 0.4134 0.3120
C6A C 0.6028(6) 0.5402(3) 0.1870(2)
H5A H 0.4502 0.4519 0.1181
C7A C 1.1320(5) 0.9691(2) 0.24786(17)
C8A C 1.0544(5) 0.9809(2) 0.11607(17)
C9A C 1.0969(5) 0.8553(2) 0.00732(18)
H6A H 1.1642 0.7573 0.0141
N2? N 1.0409(5) 0.8740(2) -0.10902(16)
loop_
_geom_bond_atom_site_label_1
_geom_bond_atom_site_label_2
_geom_bond_site_symmetry_1
_geom_bond_site_symmetry_2
O1 C7 1_555 1_555
N1 C2 1_555 1_555
C1 H1 1_555 1_555
C2 C3 1_555 1_555
C3 H2 1_555 1_555
C4 C3 1_555 1_555
H3 C4 1_555 1_555
C5 C4 1_555 1_555
H4 C5 1_555 1_555
C6 N1 1_555 1_555
H5 C6 1_555 1_555
C7 C2 1_555 1_555
C8 C1 1_555 1_555
C9 C8 1_555 1_555
H6 C9 1_555 1_555
O1A C7A 1_555 1_555
N1A C2A 1_555 1_555
C1A C9 1_555 1_555
H1A C1A 1_555 1_555
C2A C3A 1_555 1_555
C3A H2A 1_555 1_555
C4A C3A 1_555 1_555
H3A C4A 1_555 1_555
C5A C4A 1_555 1_555
H4A C5A 1_555 1_555
C6A N1A 1_555 1_555
H5A C6A 1_555 1_555
C7A C2A 1_555 1_555
C8A C1A 1_555 1_555
C9A C1 1_555 1_555
H6A C9A 1_555 1_555
C5 C6 1_555 1_555
C7 C8 1_555 1_555
C5A C6A 1_555 1_555
C7A C8A 1_555 1_555
C8A C9A 1_555 1_555

#END
