
#######################################################################
#
#                 Cambridge Crystallographic Data Centre
#                                CCDC 
#
#######################################################################
#
# If this CIF has been generated from an entry in the Cambridge 
# Structural Database, then it will include bibliographic, chemical, 
# crystal, experimental, refinement or atomic coordinate data resulting 
# from the CCDC's data processing and validation procedures.
#
#######################################################################

data_LABSEM07
_chemical_name_common            Glycinophosphite
_chemical_formula_moiety         'C2 H6 N1 O2 1+,H2 O3 P1 1-'
_chemical_name_systematic        'Glycinium phosphite'
_symmetry_cell_setting           monoclinic
_symmetry_space_group_name_H-M   'P 21/c'
_symmetry_Int_Tables_number      14
_space_group_name_Hall           '-P 2ybc'
loop_
_symmetry_equiv_pos_site_id
_symmetry_equiv_pos_as_xyz
1 x,y,z
2 -x,1/2+y,1/2-z
3 -x,-y,-z
4 x,1/2-y,1/2+z
_cell_length_a                   7.401(3)
_cell_length_b                   8.465(3)
_cell_length_c                   9.737(3)
_cell_angle_alpha                90
_cell_angle_beta                 100.73(5)
_cell_angle_gamma                90
_cell_volume                     599.352
_exptl_crystal_colour            colorless
_cell_formula_units_Z            4
loop_
_atom_site_label
_atom_site_type_symbol
_atom_site_fract_x
_atom_site_fract_y
_atom_site_fract_z
P1 P 0.24508(4) 0.68730(4) 0.49132(4)
O1 O 0.2844(2) 0.8565(2) 0.5333(2)
O2 O 0.0567(2) 0.6376(2) 0.5157(2)
O3 O 0.3940(2) 0.5749(2) 0.5637(2)
H1 H 0.250(3) 0.672(2) 0.362(2)
H3 H 0.460(7) 0.527(6) 0.520(6)
O4 O 0.3872(2) 0.1990(2) 0.6366(2)
O5 O 0.1455(2) 0.0625(2) 0.6810(2)
C1 C 0.2601(2) 0.1834(2) 0.6966(2)
C2 C 0.2138(2) 0.3012(2) 0.7995(2)
N1 N 0.3533(2) 0.4271(2) 0.8231(2)
H4 H 0.182(4) -0.005(3) 0.628(3)
H5 H 0.105(3) 0.341(3) 0.765(3)
H6 H 0.217(3) 0.250(3) 0.886(3)
H7 H 0.367(3) 0.479(3) 0.741(3)
H8 H 0.324(3) 0.500(3) 0.885(3)
H9 H 0.460(3) 0.388(3) 0.857(2)
H2? H 0.000 0.500 0.500
loop_
_geom_bond_atom_site_label_1
_geom_bond_atom_site_label_2
_geom_bond_site_symmetry_1
_geom_bond_site_symmetry_2
P1 O1 1_555 1_555
O2 P1 1_555 1_555
O3 P1 1_555 1_555
O4 C1 1_555 1_555
O5 C1 1_555 1_555
C1 C2 1_555 1_555
C2 N1 1_555 1_555
N1 H7 1_555 1_555
H1 P1 1_555 1_555
H3 O3 1_555 1_555
H4 O5 1_555 1_555
H5 C2 1_555 1_555
H6 C2 1_555 1_555
H8 N1 1_555 1_555
H9 N1 1_555 1_555

#END
