
#######################################################################
#
#                 Cambridge Crystallographic Data Centre
#                                CCDC 
#
#######################################################################
#
# If this CIF has been generated from an entry in the Cambridge 
# Structural Database, then it will include bibliographic, chemical, 
# crystal, experimental, refinement or atomic coordinate data resulting 
# from the CCDC's data processing and validation procedures.
#
#######################################################################

data_LABWUJ
_chemical_formula_moiety         'C25 H25 Cl1 N2 O5 S2'
_chemical_name_systematic        
2-(2-chlorophenyl)-N-methoxy-N-methyl-3-(N-((4-methylphenyl)sulfonyl)-S-phenylsulfonimidoyl)cyclopropanecarboxamide
_symmetry_cell_setting           monoclinic
_symmetry_space_group_name_H-M   'P 21'
_symmetry_Int_Tables_number      4
_space_group_name_Hall           'P 2yb'
loop_
_symmetry_equiv_pos_site_id
_symmetry_equiv_pos_as_xyz
1 x,y,z
2 -x,1/2+y,-z
_cell_length_a                   7.9502(7)
_cell_length_b                   15.2261(14)
_cell_length_c                   10.4847(9)
_cell_angle_alpha                90
_cell_angle_beta                 97.620(2)
_cell_angle_gamma                90
_cell_volume                     1257.97
_exptl_crystal_colour            colorless
_exptl_crystal_description       prismatic
_cell_formula_units_Z            2
loop_
_atom_site_label
_atom_site_type_symbol
_atom_site_fract_x
_atom_site_fract_y
_atom_site_fract_z
S1 S 0.30565(8) 0.87516(5) 0.66464(6)
S2 S 0.33382(10) 1.01729(5) 0.83343(8)
Cl1 Cl 0.56253(12) 0.61238(6) 0.65724(10)
N1 N 0.0417(3) 0.74312(19) 1.0351(2)
N2 N 0.3772(3) 0.96666(17) 0.7062(2)
O1 O 0.3194(3) 0.77207(18) 1.0597(2)
O2 O -0.0867(3) 0.70556(16) 0.9483(2)
O3 O 0.1360(2) 0.86794(16) 0.60142(19)
O4 O 0.1968(3) 0.97631(18) 0.8864(3)
O5 O 0.3185(3) 1.10768(16) 0.7998(3)
C1 C 0.3334(3) 0.80150(19) 0.7964(3)
H1 H 0.4280 0.8155 0.8630
C2 C 0.2902(4) 0.70474(19) 0.7827(3)
H2 H 0.3613 0.6679 0.8448
C3 C 0.1786(4) 0.76666(19) 0.8453(3)
H3 H 0.0684 0.7818 0.7969
C4 C 0.1889(4) 0.7615(2) 0.9890(3)
C5 C 0.0370(5) 0.7189(3) 1.1685(3)
H4 H -0.0525 0.6772 1.1733
H5 H 0.0168 0.7703 1.2172
H6 H 0.1436 0.6932 1.2030
C6 C -0.2363(5) 0.7551(3) 0.9423(5)
H7 H -0.2752 0.7553 1.0251
H8 H -0.3219 0.7296 0.8800
H9 H -0.2143 0.8143 0.9175
C7 C 0.2317(4) 0.65841(19) 0.6599(3)
C8 C 0.0632(4) 0.6545(2) 0.6054(3)
H10 H -0.0180 0.6845 0.6446
C9 C 0.0125(5) 0.6074(2) 0.4945(4)
H11 H -0.1016 0.6054 0.4605
C10 C 0.1305(6) 0.5633(3) 0.4342(3)
H12 H 0.0961 0.5315 0.3595
C11 C 0.2996(6) 0.5661(2) 0.4842(4)
H13 H 0.3801 0.5370 0.4431
C12 C 0.3479(4) 0.6123(2) 0.5951(3)
C13 C 0.4493(4) 0.84002(18) 0.5609(3)
C14 C 0.6215(4) 0.85080(19) 0.5950(3)
H14 H 0.6638 0.8779 0.6721
C15 C 0.7295(4) 0.8208(2) 0.5127(4)
H15 H 0.8460 0.8280 0.5335
C16 C 0.6661(5) 0.7804(3) 0.4005(3)
H16 H 0.7405 0.7595 0.3462
C17 C 0.4963(5) 0.7701(3) 0.3666(3)
H17 H 0.4555 0.7426 0.2895
C18 C 0.3842(4) 0.8004(2) 0.4464(3)
H18 H 0.2677 0.7943 0.4236
C19 C 0.5206(4) 1.00366(19) 0.9426(3)
C20 C 0.5183(5) 0.9663(2) 1.0603(3)
H19 H 0.4167 0.9473 1.0858
C21 C 0.6692(6) 0.9572(3) 1.1417(4)
H20 H 0.6668 0.9326 1.2226
C22 C 0.8226(5) 0.9830(2) 1.1072(4)
C23 C 0.8210(5) 1.0196(3) 0.9874(4)
H21 H 0.9231 1.0369 0.9611
C24 C 0.6730(5) 1.0314(3) 0.9050(3)
H22 H 0.6750 1.0577 0.8252
C25 C 0.9858(6) 0.9707(4) 1.1937(5)
H23 H 1.0496 0.9242 1.1609
H24 H 0.9625 0.9557 1.2785
H25 H 1.0503 1.0241 1.1972
loop_
_geom_bond_atom_site_label_1
_geom_bond_atom_site_label_2
_geom_bond_site_symmetry_1
_geom_bond_site_symmetry_2
S1 N2 1_555 1_555
S2 N2 1_555 1_555
Cl1 C12 1_555 1_555
N1 O2 1_555 1_555
O1 C4 1_555 1_555
O2 C6 1_555 1_555
O3 S1 1_555 1_555
O4 S2 1_555 1_555
O5 S2 1_555 1_555
C1 S1 1_555 1_555
H1 C1 1_555 1_555
C2 C1 1_555 1_555
H2 C2 1_555 1_555
C3 C1 1_555 1_555
H3 C3 1_555 1_555
C4 N1 1_555 1_555
C5 N1 1_555 1_555
H4 C5 1_555 1_555
H5 C5 1_555 1_555
H6 C5 1_555 1_555
C6 H7 1_555 1_555
H8 C6 1_555 1_555
H9 C6 1_555 1_555
C7 C2 1_555 1_555
C8 C7 1_555 1_555
H10 C8 1_555 1_555
C9 C8 1_555 1_555
H11 C9 1_555 1_555
C10 C9 1_555 1_555
H12 C10 1_555 1_555
C11 C10 1_555 1_555
H13 C11 1_555 1_555
C12 C7 1_555 1_555
C13 S1 1_555 1_555
C14 C13 1_555 1_555
H14 C14 1_555 1_555
C15 C14 1_555 1_555
H15 C15 1_555 1_555
C16 C15 1_555 1_555
H16 C16 1_555 1_555
C17 C16 1_555 1_555
H17 C17 1_555 1_555
C18 C13 1_555 1_555
H18 C18 1_555 1_555
C19 S2 1_555 1_555
C20 C19 1_555 1_555
H19 C20 1_555 1_555
C21 C20 1_555 1_555
H20 C21 1_555 1_555
C22 C21 1_555 1_555
C23 C22 1_555 1_555
H21 C23 1_555 1_555
C24 C19 1_555 1_555
H22 C24 1_555 1_555
C25 C22 1_555 1_555
H23 C25 1_555 1_555
H24 C25 1_555 1_555
H25 C25 1_555 1_555
C2 C3 1_555 1_555
C3 C4 1_555 1_555
C11 C12 1_555 1_555
C17 C18 1_555 1_555
C23 C24 1_555 1_555

#END
