
#######################################################################
#
#                 Cambridge Crystallographic Data Centre
#                                CCDC 
#
#######################################################################
#
# If this CIF has been generated from an entry in the Cambridge 
# Structural Database, then it will include bibliographic, chemical, 
# crystal, experimental, refinement or atomic coordinate data resulting 
# from the CCDC's data processing and validation procedures.
#
#######################################################################

data_LABZAS
_chemical_formula_moiety         'C17 H11 Br2 N1 O2'
_chemical_name_systematic        
(1-benzyl-5-bromo-2-oxo-1,2-dihydro-3H-indol-3-ylidene)(bromo)acetaldehyde
_symmetry_cell_setting           triclinic
_symmetry_space_group_name_H-M   'P -1'
_symmetry_Int_Tables_number      2
_space_group_name_Hall           '-P 1'
loop_
_symmetry_equiv_pos_site_id
_symmetry_equiv_pos_as_xyz
1 x,y,z
2 -x,-y,-z
_cell_length_a                   8.7580(18)
_cell_length_b                   9.0190(18)
_cell_length_c                   10.089(2)
_cell_angle_alpha                93.78(3)
_cell_angle_beta                 98.83(3)
_cell_angle_gamma                107.13(3)
_cell_volume                     747.306
_cell_formula_units_Z            2
loop_
_atom_site_label
_atom_site_type_symbol
_atom_site_fract_x
_atom_site_fract_y
_atom_site_fract_z
N1 N 0.4079(9) 0.1576(9) 0.3291(7)
Br1 Br 0.97404(13) 0.74526(12) 0.38823(10)
O1 O 0.4698(9) 0.1762(9) 0.8844(6)
C1 C 0.5328(10) 0.2992(9) 0.3260(8)
Br2 Br 0.71933(15) 0.42815(15) 0.79312(12)
O2 O 0.3062(7) 0.0128(8) 0.4909(6)
C2 C 0.5752(10) 0.3645(11) 0.2160(8)
H1 H 0.5196 0.3191 0.1299
C3 C 0.7070(11) 0.5042(11) 0.2349(9)
H2 H 0.7363 0.5547 0.1609
C4 C 0.7900(11) 0.5641(10) 0.3606(10)
C5 C 0.7441(10) 0.4934(11) 0.4728(8)
H3 H 0.8023 0.5361 0.5587
C6 C 0.6128(9) 0.3606(10) 0.4568(8)
C7 C 0.5340(9) 0.2599(10) 0.5512(8)
C8 C 0.4007(11) 0.1239(11) 0.4576(9)
C9 C 0.5557(10) 0.2718(10) 0.6859(8)
C10 C 0.4445(12) 0.1658(12) 0.7654(11)
H4 H 0.3524 0.0893 0.7182
C11 C 0.2877(11) 0.0645(11) 0.2096(8)
H5 H 0.3426 0.0592 0.1338
H6 H 0.2410 -0.0412 0.2301
C12 C 0.1559(10) 0.1343(10) 0.1718(9)
C13 C 0.0515(11) 0.1443(11) 0.2502(9)
H7 H 0.0648 0.1107 0.3351
C14 C -0.0754(11) 0.2013(12) 0.2140(9)
H8 H -0.1480 0.2037 0.2719
C15 C -0.0933(12) 0.2564(12) 0.0867(10)
H9 H -0.1749 0.3008 0.0607
C16 C 0.0092(12) 0.2438(11) 0.0037(9)
H10 H -0.0046 0.2760 -0.0818
C17 C 0.1303(12) 0.1860(11) 0.0418(9)
H11 H 0.1999 0.1791 -0.0177
loop_
_geom_bond_atom_site_label_1
_geom_bond_atom_site_label_2
_geom_bond_site_symmetry_1
_geom_bond_site_symmetry_2
N1 C1 1_555 1_555
Br1 C4 1_555 1_555
O1 C10 1_555 1_555
C1 C2 1_555 1_555
Br2 C9 1_555 1_555
O2 C8 1_555 1_555
C2 H1 1_555 1_555
C3 C2 1_555 1_555
H2 C3 1_555 1_555
C4 C3 1_555 1_555
C5 C4 1_555 1_555
H3 C5 1_555 1_555
C6 C1 1_555 1_555
C7 C6 1_555 1_555
C8 N1 1_555 1_555
C9 C7 1_555 1_555
C10 C9 1_555 1_555
H4 C10 1_555 1_555
C11 N1 1_555 1_555
H5 C11 1_555 1_555
H6 C11 1_555 1_555
C12 C11 1_555 1_555
C13 C12 1_555 1_555
H7 C13 1_555 1_555
C14 C13 1_555 1_555
H8 C14 1_555 1_555
C15 C14 1_555 1_555
H9 C15 1_555 1_555
C16 C15 1_555 1_555
H10 C16 1_555 1_555
C17 C12 1_555 1_555
H11 C17 1_555 1_555
C5 C6 1_555 1_555
C7 C8 1_555 1_555
C16 C17 1_555 1_555

#END
