
#######################################################################
#
#                 Cambridge Crystallographic Data Centre
#                                CCDC 
#
#######################################################################
#
# If this CIF has been generated from an entry in the Cambridge 
# Structural Database, then it will include bibliographic, chemical, 
# crystal, experimental, refinement or atomic coordinate data resulting 
# from the CCDC's data processing and validation procedures.
#
#######################################################################

data_LACZEW
_chemical_name_common            
'beta-cyclodextrin (4-nitrophenoxy)acetic acid clathrate hydrate'
_chemical_formula_moiety         'C42 H70 O35,C8 H7 N1 O5,17.13(H2 O1)'
_chemical_name_systematic        
'5,10,15,20,25,30,35-heptakis(hydroxymethyl)-2,4,7,9,12,14,17,19,22,24,27,29,32,34-tetradecaoxaoctacyclo[31.2.2.2^3,6^.2^8,11^.2^13,16^.2^18,21^.2^23,26^.2^28,31^]nonatetracontane-36,37,38,39,40,41,42,43,44,45,46,47,48,49-tetradecol (4-nitrophenoxy)acetic acid clathrate hydrate'
_symmetry_cell_setting           monoclinic
_symmetry_space_group_name_H-M   'C 2'
_symmetry_Int_Tables_number      5
_space_group_name_Hall           'C 2y'
loop_
_symmetry_equiv_pos_site_id
_symmetry_equiv_pos_as_xyz
1 x,y,z
2 -x,y,-z
3 1/2+x,1/2+y,z
4 1/2-x,1/2+y,-z
_cell_length_a                   18.6864(16)
_cell_length_b                   24.961(2)
_cell_length_c                   16.6644(14)
_cell_angle_alpha                90
_cell_angle_beta                 105.129(5)
_cell_angle_gamma                90
_cell_volume                     7503.4
_exptl_crystal_colour            colorless
_exptl_crystal_description       block
_cell_formula_units_Z            4
loop_
_atom_site_label
_atom_site_type_symbol
_atom_site_fract_x
_atom_site_fract_y
_atom_site_fract_z
O1 O 0.70596(10) 0.85142(7) 0.55781(10)
H1 H 0.6630 0.8408 0.5566
O2 O 0.85649(11) 0.66143(8) 0.51533(11)
H2 H 0.8927 0.6710 0.4976
O3 O 0.76429(10) 0.44639(7) 0.51868(10)
H3 H 0.7769 0.4212 0.4917
O4 O 0.50281(10) 0.37621(9) 0.59593(10)
H4 H 0.4692 0.3554 0.5705
O5 O 0.25150(10) 0.48425(8) 0.65337(10)
H5 H 0.2908 0.4694 0.6496
O6 O 0.20466(10) 0.71301(8) 0.64153(11)
H6 H 0.2180 0.6809 0.6416
O7 O 0.41444(9) 0.86993(8) 0.60022(10)
H7 H 0.3890 0.8437 0.6083
O8 O 0.78654(10) 0.75828(8) 0.53097(10)
H8 H 0.7955 0.7257 0.5251
O9 O 0.82519(13) 0.54969(8) 0.51067(11)
H9 H 0.8017 0.5213 0.5133
O10 O 0.62769(9) 0.41032(8) 0.54457(10)
H10 H 0.5889 0.4059 0.5602
O11 O 0.37112(9) 0.42786(8) 0.62131(10)
H11 H 0.3704 0.4343 0.5716
O12 O 0.21397(10) 0.59714(8) 0.64916(10)
H12 H 0.2130 0.5880 0.6004
O13 O 0.30536(10) 0.79619(8) 0.61662(10)
H13 H 0.2898 0.7793 0.5718
O14 O 0.55850(9) 0.86060(8) 0.57145(10)
H14 H 0.5834 0.8890 0.5824
O15 O 0.82130(9) 0.68339(7) 0.66285(10)
O16 O 0.79722(9) 0.51030(7) 0.66102(10)
O17 O 0.60793(9) 0.43393(7) 0.70503(10)
O18 O 0.39593(9) 0.49771(7) 0.75786(10)
O19 O 0.31526(9) 0.66110(7) 0.76591(10)
O20 O 0.44199(9) 0.80029(7) 0.73806(10)
O21 O 0.66683(9) 0.81065(7) 0.69771(9)
O22 O 0.79110(9) 0.80595(7) 0.77125(10)
O23 O 0.91581(9) 0.62677(7) 0.73557(10)
O24 O 0.81161(9) 0.43388(7) 0.74517(10)
O25 O 0.56076(9) 0.41048(7) 0.81606(10)
O26 O 0.34512(9) 0.52797(7) 0.86417(9)
O27 O 0.32109(9) 0.73594(7) 0.85223(9)
O28 O 0.53495(9) 0.85760(7) 0.81256(9)
O29 O 0.92258(11) 0.74718(9) 0.84620(14)
H15 H 0.9231 0.7802 0.8561
O30 O 0.90942(12) 0.58348(9) 0.89047(11)
H16 H 0.9421 0.6071 0.8938
O31 O 0.75099(10) 0.36109(8) 0.84666(11)
H17 H 0.7893 0.3513 0.8825
O32 O 0.59350(10) 0.48506(8) 0.95137(10)
H18 H 0.5916 0.5152 0.9732
O33 O 0.42732(11) 0.58639(8) 0.99837(11)
H19 H 0.4160 0.5546 1.0063
O34 O 0.39416(10) 0.83461(8) 0.92224(11)
H20 H 0.4260 0.8575 0.9450
O35 O 0.68767(10) 0.88900(8) 0.88098(11)
H21 H 0.6540 0.9102 0.8852
C1 C 0.73890(12) 0.83214(10) 0.70620(14)
H22 H 0.7385 0.8713 0.7190
C2 C 0.89065(13) 0.66012(10) 0.66500(14)
H23 H 0.9278 0.6892 0.6665
C3 C 0.81476(13) 0.45491(10) 0.66704(14)
H24 H 0.8656 0.4495 0.6595
C4 C 0.56820(13) 0.39492(10) 0.73742(14)
H25 H 0.5956 0.3601 0.7429
C5 C 0.33385(13) 0.49609(10) 0.79142(13)
H26 H 0.3247 0.4582 0.8054
C6 C 0.27649(13) 0.70582(10) 0.78541(14)
H27 H 0.2310 0.6932 0.8007
C7 C 0.46809(12) 0.85372(10) 0.74845(13)
H28 H 0.4296 0.8768 0.7631
C8 C 0.75855(13) 0.82462(10) 0.62317(14)
H29 H 0.8083 0.8411 0.6282
C9 C 0.88170(15) 0.62738(11) 0.58522(15)
H30 H 0.9311 0.6124 0.5843
C10 C 0.75823(13) 0.42678(10) 0.59717(13)
H31 H 0.7680 0.3873 0.6005
C11 C 0.49239(13) 0.38800(11) 0.67590(14)
H32 H 0.4671 0.3567 0.6941
C12 C 0.26645(13) 0.51677(10) 0.72595(14)
H33 H 0.2226 0.5151 0.7497
C13 C 0.25401(13) 0.74087(10) 0.70810(14)
H34 H 0.2278 0.7732 0.7217
C14 C 0.48020(12) 0.87289(10) 0.66533(13)
H35 H 0.4960 0.9113 0.6719
C15 C 0.76391(13) 0.76522(10) 0.60578(13)
H36 H 0.7142 0.7482 0.5991
C16 C 0.82849(14) 0.58153(10) 0.58283(14)
H37 H 0.7781 0.5962 0.5799
C17 C 0.68150(13) 0.43743(10) 0.60779(13)
H38 H 0.6714 0.4768 0.6036
C18 C 0.44385(13) 0.43716(11) 0.67311(14)
H39 H 0.4665 0.4683 0.6509
C19 C 0.27850(13) 0.57526(10) 0.70550(13)
H40 H 0.3215 0.5777 0.6803
C20 C 0.32329(13) 0.75938(10) 0.68400(13)
H41 H 0.3501 0.7278 0.6690
C21 C 0.54277(12) 0.84067(10) 0.64536(13)
H42 H 0.5274 0.8023 0.6368
C22 C 0.81985(13) 0.73930(10) 0.67925(13)
H43 H 0.8701 0.7550 0.6848
C23 C 0.85451(13) 0.54813(10) 0.66125(14)
H44 H 0.9014 0.5289 0.6608
C24 C 0.67855(12) 0.41770(10) 0.69342(13)
H45 H 0.6825 0.3777 0.6957
C25 C 0.43876(13) 0.44992(10) 0.76129(14)
H46 H 0.4146 0.4196 0.7835
C26 C 0.29477(13) 0.60834(10) 0.78528(13)
H47 H 0.2495 0.6102 0.8065
C27 C 0.37336(12) 0.78903(10) 0.75760(13)
H48 H 0.3492 0.8234 0.7669
C28 C 0.61222(12) 0.84461(10) 0.71772(13)
H49 H 0.6305 0.8824 0.7234
C29 C 0.79579(13) 0.74927(10) 0.75884(13)
H50 H 0.7458 0.7329 0.7528
C30 C 0.86676(14) 0.58297(10) 0.73911(14)
H51 H 0.8181 0.5973 0.7439
C31 C 0.74075(13) 0.44240(10) 0.76271(13)
H52 H 0.7318 0.4818 0.7653
C32 C 0.51801(13) 0.45852(10) 0.81592(14)
H53 H 0.5416 0.4890 0.7934
C33 C 0.35928(14) 0.58336(10) 0.85190(14)
H54 H 0.4062 0.5867 0.8340
C34 C 0.38946(13) 0.75543(10) 0.83667(13)
H55 H 0.4201 0.7239 0.8293
C35 C 0.59574(12) 0.82679(10) 0.79877(13)
H56 H 0.5820 0.7880 0.7947
C36 C 0.84913(14) 0.72681(12) 0.83603(15)
H57 H 0.8316 0.7363 0.8854
H58 H 0.8500 0.6873 0.8321
C37 C 0.90386(17) 0.55190(11) 0.81766(15)
H59 H 0.8748 0.5192 0.8207
H60 H 0.9541 0.5407 0.8152
C38 C 0.74543(14) 0.41781(11) 0.84770(14)
H61 H 0.7892 0.4325 0.8887
H62 H 0.7007 0.4279 0.8656
C39 C 0.52052(14) 0.46930(11) 0.90604(14)
H63 H 0.4849 0.4981 0.9092
H64 H 0.5058 0.4366 0.9313
C40 C 0.36905(16) 0.61018(11) 0.93570(14)
H65 H 0.3801 0.6486 0.9307
H66 H 0.3221 0.6076 0.9525
C41 C 0.43028(13) 0.78544(11) 0.91339(14)
H67 H 0.4334 0.7628 0.9630
H68 H 0.4814 0.7930 0.9101
C42 C 0.66030(13) 0.83557(11) 0.87481(13)
H69 H 0.6441 0.8270 0.9254
H70 H 0.7009 0.8107 0.8724
O36 O 0.5000 0.90780(11) 0.0000
O37 O 0.83874(11) 0.54901(8) 0.00130(12)
O38 O 0.58621(12) 0.96323(9) 0.90970(13)
O39 O 0.01033(10) 0.66589(8) 0.92275(11)
O40 O 0.10046(12) 0.46762(10) 0.60475(14)
O41 O 0.70342(12) 0.53817(9) 0.89069(13)
O42 O 0.15004(13) 0.63902(10) 0.90486(15)
O43 O 0.66111(15) 0.30428(13) 0.91707(17)
O44 O 0.05523(15) 0.50367(11) 0.74525(15)
O45 O 0.7549(2) 0.71943(13) 0.01104(17)
O46 O 0.66388(14) 0.40097(16) 0.0433(3)
O47 O 0.0000 0.53410(17) 0.5000
O48 O 0.9052(3) 0.8038(2) 0.4972(3)
O49 O 0.0473(2) 0.76693(19) 0.7883(2)
O50 O 0.0959(4) 0.6146(2) 0.7243(7)
O51 O 0.9449(2) 0.84252(17) 0.9134(3)
O52 O 0.9418(3) 0.6374(3) 0.4183(3)
O53 O 0.6343(3) 0.70974(17) 0.9159(3)
H71 H 0.6773 0.7115 0.9476
O54 O 0.6857(2) 0.64785(19) 0.8577(3)
O55 O 0.5725(4) 0.6050(4) 0.7747(4)
O56 O 0.6361(6) 0.6317(4) 0.4261(5)
O57 O 0.5955(4) 0.7101(2) 0.4431(4)
N1 N 0.6119(4) 0.6644(3) 0.4669(3)
C43 C 0.6303(5) 0.6711(3) 0.8674(4)
C44 C 0.5565(4) 0.6519(4) 0.8194(5)
H72 H 0.5253 0.6420 0.8569
H73 H 0.5305 0.6797 0.7801
C45 C 0.5823(3) 0.61956(18) 0.6996(2)
C46 C 0.5702(3) 0.67225(17) 0.6725(3)
H74 H 0.5550 0.6982 0.7063
C47 C 0.5803(3) 0.68697(14) 0.5957(3)
H75 H 0.5721 0.7230 0.5772
C48 C 0.6026(2) 0.64900(18) 0.5462(2)
C49 C 0.6146(3) 0.59631(17) 0.5733(2)
H76 H 0.6298 0.5704 0.5394
C50 C 0.6045(3) 0.58159(14) 0.6500(3)
H77 H 0.6127 0.5456 0.6686
O58 O 0.0564(5) 0.7421(4) 0.6268(6)
O59 O 0.0000 0.6964(8) 0.5000
C51? C 0.5917(3) 0.6720(2) 0.8748(3)
C52? C 0.5388(5) 0.6348(4) 0.8217(5)
C53? C 0.5681(4) 0.6152(3) 0.6898(3)
C54? C 0.5811(5) 0.6642(2) 0.6565(4)
C55? C 0.5923(4) 0.6666(3) 0.5773(4)
C56? C 0.5905(3) 0.6199(3) 0.5314(3)
C57? C 0.5775(4) 0.5709(2) 0.5646(3)
C58? C 0.5663(4) 0.5685(2) 0.6438(3)
H78? H 0.6843 0.6896 0.9115
H79? H 0.5210 0.6108 0.8595
H80? H 0.4957 0.6566 0.7922
H81? H 0.5823 0.6962 0.6879
H82? H 0.6011 0.7001 0.5546
H83? H 0.5763 0.5390 0.5332
H84? H 0.5575 0.5350 0.6665
N2? N 0.5987(3) 0.6212(4) 0.4477(4)
O60? O 0.5678(3) 0.70638(19) 0.9116(3)
O61? O 0.6599(3) 0.6662(3) 0.8797(4)
O62? O 0.5565(5) 0.6029(5) 0.7634(5)
O63? O 0.5884(5) 0.5804(4) 0.4072(5)
O64? O 0.6140(7) 0.6643(5) 0.4223(8)
O65? O 0.9439(5) 0.7838(3) 0.5435(7)
O66? O 0.0733(6) 0.6113(2) 0.7544(6)
O67? O 0.9237(3) 0.8239(2) 0.9751(3)
O68? O 0.0634(5) 0.7182(5) 0.6721(10)
loop_
_geom_bond_atom_site_label_1
_geom_bond_atom_site_label_2
_geom_bond_site_symmetry_1
_geom_bond_site_symmetry_2
O1 H1 1_555 1_555
O2 H2 1_555 1_555
O3 H3 1_555 1_555
O4 H4 1_555 1_555
O5 H5 1_555 1_555
O6 H6 1_555 1_555
O7 H7 1_555 1_555
O8 H8 1_555 1_555
O9 H9 1_555 1_555
O10 H10 1_555 1_555
O11 H11 1_555 1_555
O12 H12 1_555 1_555
O13 H13 1_555 1_555
O14 H14 1_555 1_555
O15 C2 1_555 1_555
O16 C3 1_555 1_555
O17 C4 1_555 1_555
O18 C5 1_555 1_555
O19 C6 1_555 1_555
O20 C7 1_555 1_555
O21 C1 1_555 1_555
O22 C1 1_555 1_555
O23 C2 1_555 1_555
O24 C3 1_555 1_555
O25 C4 1_555 1_555
O26 C5 1_555 1_555
O27 C6 1_555 1_555
O28 C7 1_555 1_555
O29 H15 1_555 1_555
O30 H16 1_555 1_555
O31 H17 1_555 1_555
O32 H18 1_555 1_555
O33 H19 1_555 1_555
O34 H20 1_555 1_555
O35 H21 1_555 1_555
C1 H22 1_555 1_555
C2 H23 1_555 1_555
C3 H24 1_555 1_555
C4 H25 1_555 1_555
C5 H26 1_555 1_555
C6 H27 1_555 1_555
C7 H28 1_555 1_555
C8 O1 1_555 1_555
H29 C8 1_555 1_555
C9 O2 1_555 1_555
H30 C9 1_555 1_555
C10 O3 1_555 1_555
H31 C10 1_555 1_555
C11 O4 1_555 1_555
H32 C11 1_555 1_555
C12 O5 1_555 1_555
H33 C12 1_555 1_555
C13 O6 1_555 1_555
H34 C13 1_555 1_555
C14 O7 1_555 1_555
H35 C14 1_555 1_555
C15 O8 1_555 1_555
H36 C15 1_555 1_555
C16 O9 1_555 1_555
H37 C16 1_555 1_555
C17 O10 1_555 1_555
H38 C17 1_555 1_555
C18 O11 1_555 1_555
H39 C18 1_555 1_555
C19 O12 1_555 1_555
H40 C19 1_555 1_555
C20 O13 1_555 1_555
H41 C20 1_555 1_555
C21 O14 1_555 1_555
H42 C21 1_555 1_555
C22 O15 1_555 1_555
H43 C22 1_555 1_555
C23 O16 1_555 1_555
H44 C23 1_555 1_555
C24 O17 1_555 1_555
H45 C24 1_555 1_555
C25 O18 1_555 1_555
H46 C25 1_555 1_555
C26 O19 1_555 1_555
H47 C26 1_555 1_555
C27 O20 1_555 1_555
H48 C27 1_555 1_555
C28 O21 1_555 1_555
H49 C28 1_555 1_555
C29 O22 1_555 1_555
H50 C29 1_555 1_555
C30 O23 1_555 1_555
H51 C30 1_555 1_555
C31 O24 1_555 1_555
H52 C31 1_555 1_555
C32 O25 1_555 1_555
H53 C32 1_555 1_555
C33 O26 1_555 1_555
H54 C33 1_555 1_555
C34 O27 1_555 1_555
H55 C34 1_555 1_555
C35 O28 1_555 1_555
H56 C35 1_555 1_555
C36 O29 1_555 1_555
H57 C36 1_555 1_555
H58 C36 1_555 1_555
C37 O30 1_555 1_555
H59 C37 1_555 1_555
H60 C37 1_555 1_555
C38 O31 1_555 1_555
H61 C38 1_555 1_555
H62 C38 1_555 1_555
C39 O32 1_555 1_555
H63 C39 1_555 1_555
H64 C39 1_555 1_555
C40 O33 1_555 1_555
H65 C40 1_555 1_555
H66 C40 1_555 1_555
C41 O34 1_555 1_555
H67 C41 1_555 1_555
H68 C41 1_555 1_555
C42 O35 1_555 1_555
H69 C42 1_555 1_555
H70 C42 1_555 1_555
O53 H71 1_555 1_555
O54 C43 1_555 1_555
O55 C44 1_555 1_555
O56 N1 1_555 1_555
O57 N1 1_555 1_555
N1 C48 1_555 1_555
C43 O53 1_555 1_555
C44 C43 1_555 1_555
H72 C44 1_555 1_555
H73 C44 1_555 1_555
C45 O55 1_555 1_555
C46 C45 1_555 1_555
H74 C46 1_555 1_555
C47 C46 1_555 1_555
H75 C47 1_555 1_555
C48 C47 1_555 1_555
C49 C48 1_555 1_555
H76 C49 1_555 1_555
C50 C45 1_555 1_555
H77 C50 1_555 1_555
C1 C8 1_555 1_555
C2 C9 1_555 1_555
C3 C10 1_555 1_555
C4 C11 1_555 1_555
C5 C12 1_555 1_555
C6 C13 1_555 1_555
C7 C14 1_555 1_555
C8 C15 1_555 1_555
C9 C16 1_555 1_555
C10 C17 1_555 1_555
C11 C18 1_555 1_555
C12 C19 1_555 1_555
C13 C20 1_555 1_555
C14 C21 1_555 1_555
C15 C22 1_555 1_555
C16 C23 1_555 1_555
C17 C24 1_555 1_555
C18 C25 1_555 1_555
C19 C26 1_555 1_555
C20 C27 1_555 1_555
C21 C28 1_555 1_555
C22 C29 1_555 1_555
C23 C30 1_555 1_555
C24 C31 1_555 1_555
C25 C32 1_555 1_555
C26 C33 1_555 1_555
C27 C34 1_555 1_555
C28 C35 1_555 1_555
C29 C36 1_555 1_555
C30 C37 1_555 1_555
C31 C38 1_555 1_555
C32 C39 1_555 1_555
C33 C40 1_555 1_555
C34 C41 1_555 1_555
C35 C42 1_555 1_555
C49 C50 1_555 1_555

#END
