
#######################################################################
#
#                 Cambridge Crystallographic Data Centre
#                                CCDC 
#
#######################################################################
#
# If this CIF has been generated from an entry in the Cambridge 
# Structural Database, then it will include bibliographic, chemical, 
# crystal, experimental, refinement or atomic coordinate data resulting 
# from the CCDC's data processing and validation procedures.
#
#######################################################################

data_LADBEZ01
_chemical_formula_moiety         'C7 H4 Cl1 O2 1-,C5 H7 N2 1+'
_chemical_name_systematic        '2-Aminopyridinium 4-chlorobenzoate'
_symmetry_cell_setting           monoclinic
_symmetry_space_group_name_H-M   'P n'
_symmetry_Int_Tables_number      7
_space_group_name_Hall           'P -2yac'
loop_
_symmetry_equiv_pos_site_id
_symmetry_equiv_pos_as_xyz
1 x,y,z
2 1/2+x,-y,1/2+z
_cell_length_a                   6.6045(2)
_cell_length_b                   7.9601(3)
_cell_length_c                   11.1004(4)
_cell_angle_alpha                90
_cell_angle_beta                 99.625(2)
_cell_angle_gamma                90
_cell_volume                     575.361
_exptl_crystal_colour            colorless
_exptl_crystal_description       needle
_chemical_melting_point          '417 K'
_cell_formula_units_Z            2
loop_
_atom_site_label
_atom_site_type_symbol
_atom_site_fract_x
_atom_site_fract_y
_atom_site_fract_z
C1 C 0.8340(3) 0.7099(3) 0.51992(19)
C2 C 0.7627(3) 0.6505(3) 0.40294(18)
H1 H 0.8415 0.6695 0.3400
C3 C 0.5786(3) 0.5640(3) 0.3764(2)
H2 H 0.5323 0.5220 0.2964
C4 C 0.4630(3) 0.5398(3) 0.4681(2)
C5 C 0.5282(3) 0.5991(3) 0.5852(2)
H3 H 0.4464 0.5828 0.6470
C6 C 0.7152(3) 0.6831(3) 0.6115(2)
H4 H 0.7626 0.7225 0.6920
C7 C 1.0344(3) 0.8025(3) 0.5524(2)
O1 O 1.1171(2) 0.8604(2) 0.46639(12)
O2 O 1.1075(2) 0.8149(2) 0.66360(14)
Cl1 Cl 0.23298(8) 0.42930(7) 0.43669(6)
C8 C 1.5430(3) 1.0775(3) 0.6460(2)
C9 C 1.7241(3) 1.1745(3) 0.6721(2)
H5 H 1.7760 1.2064 0.7539
C10 C 1.8236(3) 1.2220(3) 0.5804(2)
H6 H 1.9473 1.2849 0.5984
C11 C 1.7449(4) 1.1788(3) 0.4586(2)
H7 H 1.8129 1.2134 0.3938
C12 C 1.5698(3) 1.0865(3) 0.4355(2)
H8 H 1.5149 1.0565 0.3537
N1 N 1.4723(3) 1.0367(2) 0.52769(16)
N2 N 1.4393(3) 1.0237(3) 0.73116(17)
H9 H 1.342(4) 0.974(3) 0.510(2)
H10 H 1.313(5) 0.956(3) 0.706(2)
H11 H 1.494(5) 1.053(4) 0.812(3)
loop_
_geom_bond_atom_site_label_1
_geom_bond_atom_site_label_2
_geom_bond_site_symmetry_1
_geom_bond_site_symmetry_2
C1 C2 1_555 1_555
C2 H1 1_555 1_555
C3 C2 1_555 1_555
H2 C3 1_555 1_555
C4 C3 1_555 1_555
C5 C4 1_555 1_555
H3 C5 1_555 1_555
C6 C1 1_555 1_555
H4 C6 1_555 1_555
C7 C1 1_555 1_555
O1 C7 1_555 1_555
O2 C7 1_555 1_555
Cl1 C4 1_555 1_555
C8 C9 1_555 1_555
C9 H5 1_555 1_555
C10 C9 1_555 1_555
H6 C10 1_555 1_555
C11 C10 1_555 1_555
H7 C11 1_555 1_555
C12 C11 1_555 1_555
H8 C12 1_555 1_555
N1 C8 1_555 1_555
N2 C8 1_555 1_555
H9 N1 1_555 1_555
H10 N2 1_555 1_555
H11 N2 1_555 1_555
C5 C6 1_555 1_555
C12 N1 1_555 1_555

#END
