
#######################################################################
#
#                 Cambridge Crystallographic Data Centre
#                                CCDC 
#
#######################################################################
#
# If this CIF has been generated from an entry in the Cambridge 
# Structural Database, then it will include bibliographic, chemical, 
# crystal, experimental, refinement or atomic coordinate data resulting 
# from the CCDC's data processing and validation procedures.
#
#######################################################################

data_LADBIB05
_chemical_formula_moiety         'C15 H12 N2'
_chemical_name_systematic        3,5-Diphenyl-1H-pyrazole
_symmetry_cell_setting           monoclinic
_symmetry_space_group_name_H-M   'C 2/c'
_symmetry_Int_Tables_number      15
_space_group_name_Hall           '-C 2yn'
loop_
_symmetry_equiv_pos_site_id
_symmetry_equiv_pos_as_xyz
1 x,y,z
2 -x,y,1/2-z
3 1/2+x,1/2+y,z
4 1/2-x,1/2+y,1/2-z
5 -x,-y,-z
6 x,-y,1/2+z
7 1/2-x,1/2-y,-z
8 1/2+x,1/2-y,1/2+z
_cell_length_a                   16.9366(9)
_cell_length_b                   17.1465(7)
_cell_length_c                   17.6534(9)
_cell_angle_alpha                90
_cell_angle_beta                 109.578(6)
_cell_angle_gamma                90
_cell_volume                     4830.22
_exptl_crystal_colour            'light yellow'
_exptl_crystal_description       block
_cell_formula_units_Z            16
loop_
_atom_site_label
_atom_site_type_symbol
_atom_site_fract_x
_atom_site_fract_y
_atom_site_fract_z
N1 N 0.09060(10) 0.74025(9) 0.27710(10)
H1 H 0.0378 0.7492 0.2648
N2 N 0.12591(10) 0.69143(9) 0.23769(9)
C1 C 0.13234(13) 0.82988(11) 0.39169(12)
C2 C 0.05150(16) 0.85838(13) 0.37624(14)
H2 H 0.0084 0.8405 0.3314
C3 C 0.03436(19) 0.91215(15) 0.42581(18)
H3 H -0.0200 0.9306 0.4146
C4 C 0.0978(2) 0.93903(16) 0.49241(18)
H4 H 0.0863 0.9759 0.5260
C5 C 0.1776(2) 0.91140(15) 0.50904(16)
H5 H 0.2202 0.9293 0.5541
C6 C 0.19493(16) 0.85707(13) 0.45921(13)
H6 H 0.2493 0.8385 0.4711
C7 C 0.15151(12) 0.77264(11) 0.33877(11)
C8 C 0.22748(12) 0.74361(11) 0.33826(12)
H7 H 0.2803 0.7560 0.3740
C9 C 0.20955(11) 0.69239(11) 0.27406(11)
C10 C 0.26514(13) 0.64496(12) 0.24451(13)
C11 C 0.23971(16) 0.61424(15) 0.16773(15)
H8 H 0.1861 0.6249 0.1325
C12 C 0.29258(18) 0.56828(18) 0.14292(19)
H9 H 0.2745 0.5485 0.0908
C13 C 0.37145(18) 0.55098(17) 0.1935(2)
H10 H 0.4066 0.5189 0.1767
C14 C 0.39756(17) 0.58179(18) 0.26921(19)
H11 H 0.4512 0.5708 0.3040
C15 C 0.34555(14) 0.62906(15) 0.29497(15)
H12 H 0.3647 0.6502 0.3464
N3 N 0.96413(11) 0.44736(10) 0.66208(10)
N4 N 0.99933(11) 0.39746(10) 0.62389(9)
H14 H 1.0403 0.3665 0.6468
C16 C 0.84799(13) 0.54214(12) 0.62923(12)
C17 C 0.81699(17) 0.60642(14) 0.58125(15)
H15 H 0.8339 0.6163 0.5372
C18 C 0.7611(2) 0.65596(17) 0.5984(2)
H16 H 0.7405 0.6991 0.5658
C19 C 0.7354(2) 0.64235(19) 0.6630(2)
H17 H 0.6970 0.6755 0.6737
C20 C 0.76670(18) 0.57961(18) 0.71174(18)
H18 H 0.7500 0.5704 0.7560
C21 C 0.82308(15) 0.52999(14) 0.69519(14)
H19 H 0.8446 0.4878 0.7289
C22 C 0.90243(12) 0.48643(11) 0.60717(11)
C23 C 0.89926(13) 0.46077(12) 0.53166(11)
H20 H 0.8633 0.4784 0.4824
C24 C 0.96010(12) 0.40385(11) 0.54409(11)
C25 C 0.98048(13) 0.35383(12) 0.48566(12)
C26 C 0.95190(15) 0.37263(14) 0.40456(13)
H21 H 0.9207 0.4179 0.3876
C27 C 0.96875(17) 0.32579(16) 0.34866(15)
H22 H 0.9483 0.3392 0.2945
C28 C 1.01567(18) 0.25933(17) 0.37245(16)
H23 H 1.0282 0.2283 0.3348
C29 C 1.04389(19) 0.23895(15) 0.45222(17)
H24 H 1.0751 0.1936 0.4686
C30 C 1.02622(16) 0.28547(14) 0.50833(14)
H25 H 1.0453 0.2708 0.5621
H13? H 0.0993 0.6641 0.1961
H26? H 0.983(2) 0.4542(19) 0.7133(11)
loop_
_geom_bond_atom_site_label_1
_geom_bond_atom_site_label_2
_geom_bond_site_symmetry_1
_geom_bond_site_symmetry_2
N1 H1 1_555 1_555
N2 N1 1_555 1_555
C1 C2 1_555 1_555
C2 H2 1_555 1_555
C3 C2 1_555 1_555
H3 C3 1_555 1_555
C4 C3 1_555 1_555
H4 C4 1_555 1_555
C5 C4 1_555 1_555
H5 C5 1_555 1_555
C6 C1 1_555 1_555
H6 C6 1_555 1_555
C7 N1 1_555 1_555
C8 C7 1_555 1_555
H7 C8 1_555 1_555
C9 N2 1_555 1_555
C10 C9 1_555 1_555
C11 C10 1_555 1_555
H8 C11 1_555 1_555
C12 C11 1_555 1_555
H9 C12 1_555 1_555
C13 C12 1_555 1_555
H10 C13 1_555 1_555
C14 C13 1_555 1_555
H11 C14 1_555 1_555
C15 C10 1_555 1_555
H12 C15 1_555 1_555
N3 N4 1_555 1_555
N4 H14 1_555 1_555
C16 C17 1_555 1_555
C17 H15 1_555 1_555
C18 C17 1_555 1_555
H16 C18 1_555 1_555
C19 C18 1_555 1_555
H17 C19 1_555 1_555
C20 C19 1_555 1_555
H18 C20 1_555 1_555
C21 C16 1_555 1_555
H19 C21 1_555 1_555
C22 N3 1_555 1_555
C23 C22 1_555 1_555
H20 C23 1_555 1_555
C24 N4 1_555 1_555
C25 C24 1_555 1_555
C26 C25 1_555 1_555
H21 C26 1_555 1_555
C27 C26 1_555 1_555
H22 C27 1_555 1_555
C28 C27 1_555 1_555
H23 C28 1_555 1_555
C29 C28 1_555 1_555
H24 C29 1_555 1_555
C30 C25 1_555 1_555
H25 C30 1_555 1_555
C1 C7 1_555 1_555
C5 C6 1_555 1_555
C8 C9 1_555 1_555
C14 C15 1_555 1_555
C16 C22 1_555 1_555
C20 C21 1_555 1_555
C23 C24 1_555 1_555
C29 C30 1_555 1_555

#END
