
#######################################################################
#
#                 Cambridge Crystallographic Data Centre
#                                CCDC 
#
#######################################################################
#
# If this CIF has been generated from an entry in the Cambridge 
# Structural Database, then it will include bibliographic, chemical, 
# crystal, experimental, refinement or atomic coordinate data resulting 
# from the CCDC's data processing and validation procedures.
#
#######################################################################

data_LADKOT
_chemical_formula_moiety         'C11 H28 N4 2+,2(C24 H20 B1 1-),C3 H6 O1'
_chemical_name_systematic        
"N,N',N',N'',N''-Pentamethyl-N-(2-(trimethylammonio)ethyl)guanidium bis(tetraphenylborate) acetone solvate"
_symmetry_cell_setting           triclinic
_symmetry_space_group_name_H-M   'P -1'
_symmetry_Int_Tables_number      2
_space_group_name_Hall           '-P 1'
loop_
_symmetry_equiv_pos_site_id
_symmetry_equiv_pos_as_xyz
1 x,y,z
2 -x,-y,-z
_cell_length_a                   14.1885(5)
_cell_length_b                   17.5801(7)
_cell_length_c                   22.2543(9)
_cell_angle_alpha                72.911(5)
_cell_angle_beta                 86.243(6)
_cell_angle_gamma                80.123(6)
_cell_volume                     5226.61
_exptl_crystal_colour            colorless
_exptl_crystal_description       block
_cell_formula_units_Z            4
loop_
_atom_site_label
_atom_site_type_symbol
_atom_site_fract_x
_atom_site_fract_y
_atom_site_fract_z
N1 N 0.82487(8) 0.57886(7) 0.09708(5)
N2 N 0.66238(8) 0.57289(7) 0.10053(5)
N3 N 0.71391(8) 0.69638(6) 0.08244(5)
N4 N 0.64058(8) 0.84798(6) 0.16732(5)
C1 C 0.73409(9) 0.61530(7) 0.09380(6)
C2 C 0.90111(10) 0.61008(9) 0.11925(7)
H1 H 0.9387 0.6371 0.0832
H2 H 0.9429 0.5654 0.1474
H3 H 0.8728 0.6487 0.1420
C3 C 0.85562(12) 0.50601(9) 0.07669(7)
H4 H 0.8661 0.4588 0.1137
H5 H 0.9153 0.5110 0.0521
H6 H 0.8060 0.4997 0.0507
C4 C 0.66930(12) 0.48963(8) 0.14116(7)
H7 H 0.6850 0.4523 0.1155
H8 H 0.6080 0.4817 0.1631
H9 H 0.7196 0.4792 0.1720
C5 C 0.57415(11) 0.60457(10) 0.06484(8)
H10 H 0.5796 0.6573 0.0352
H11 H 0.5201 0.6103 0.0938
H12 H 0.5636 0.5673 0.0416
C6 C 0.77106(10) 0.74951(8) 0.03749(6)
H13 H 0.8121 0.7708 0.0603
H14 H 0.7285 0.7943 0.0101
H15 H 0.8109 0.7191 0.0120
C7 C 0.63600(9) 0.73577(8) 0.11471(6)
H16 H 0.5905 0.6980 0.1334
H17 H 0.6010 0.7835 0.0841
C8 C 0.67607(10) 0.76210(7) 0.16664(6)
H18 H 0.6602 0.7256 0.2079
H19 H 0.7467 0.7548 0.1622
C9 C 0.67268(11) 0.90746(8) 0.10968(7)
H20 H 0.6441 0.9021 0.0725
H21 H 0.7426 0.8969 0.1058
H22 H 0.6523 0.9622 0.1130
C10 C 0.68387(14) 0.85863(10) 0.22370(8)
H23 H 0.6639 0.9141 0.2255
H24 H 0.7538 0.8474 0.2203
H25 H 0.6621 0.8212 0.2620
C11 C 0.53426(11) 0.86399(9) 0.17301(8)
H26 H 0.5137 0.9192 0.1754
H27 H 0.5132 0.8259 0.2112
H28 H 0.5059 0.8574 0.1362
N5 N 0.38823(7) 0.17506(6) 0.34383(5)
C12 C 0.21387(14) 0.37260(11) 0.42126(16)
N6 N 0.28056(9) 0.41857(7) 0.41886(6)
N7 N 0.12393(9) 0.40661(8) 0.40406(6)
N8 N 0.23556(8) 0.29141(7) 0.44257(6)
C13 C 0.35642(12) 0.39696(10) 0.46513(8)
H29 H 0.4184 0.3855 0.4447
H30 H 0.3450 0.3490 0.4989
H31 H 0.3568 0.4419 0.4828
C14 C 0.28006(16) 0.49709(14) 0.37137(8)
H32 H 0.3451 0.5018 0.3546
H33 H 0.2572 0.5404 0.3908
H34 H 0.2375 0.5014 0.3371
C15 C 0.07899(14) 0.48276(10) 0.41545(8)
H35 H 0.0162 0.4766 0.4356
H36 H 0.0712 0.5253 0.3754
H37 H 0.1195 0.4973 0.4430
C16 C 0.0642(3) 0.3705(3) 0.3723(2)
H38 H 0.1019 0.3226 0.3636
H39 H 0.0415 0.4097 0.3327
H40 H 0.0092 0.3550 0.3994
C17 C 0.16544(12) 0.23986(10) 0.47681(7)
H41 H 0.1082 0.2738 0.4872
H42 H 0.1940 0.2026 0.5156
H43 H 0.1477 0.2090 0.4503
C18 C 0.32576(12) 0.24767(10) 0.42601(7)
H44 H 0.3394 0.1935 0.4566
H45 H 0.3789 0.2772 0.4268
C19 C 0.31651(9) 0.24013(8) 0.35999(6)
H46 H 0.2514 0.2293 0.3558
H47 H 0.3234 0.2924 0.3290
C20 C 0.36799(10) 0.09339(8) 0.38122(7)
H48 H 0.3750 0.0867 0.4261
H49 H 0.4132 0.0518 0.3686
H50 H 0.3025 0.0882 0.3734
C21 C 0.37749(10) 0.18370(9) 0.27524(6)
H51 H 0.4238 0.1424 0.2630
H52 H 0.3893 0.2373 0.2501
H53 H 0.3125 0.1770 0.2679
C22 C 0.48842(9) 0.18242(8) 0.35574(6)
H54 H 0.4968 0.1719 0.4010
H55 H 0.5005 0.2370 0.3336
H56 H 0.5335 0.1432 0.3404
O1 O 0.13203(7) 0.14615(7) 0.36965(5)
C30 C 0.05544(11) 0.12979(9) 0.36045(7)
C31 C -0.03168(13) 0.14734(13) 0.39853(9)
H74 H -0.0136 0.1640 0.4339
H75 H -0.0615 0.0988 0.4145
H76 H -0.0771 0.1908 0.3721
C32 C 0.04366(15) 0.09457(12) 0.30869(8)
H77 H 0.1064 0.0806 0.2901
H78 H 0.0026 0.1340 0.2764
H79 H 0.0142 0.0459 0.3255
O2 O 0.90315(8) 0.81071(7) 0.13537(6)
C33 C 0.97511(10) 0.83664(9) 0.11052(7)
C34 C 1.06708(11) 0.78230(10) 0.10691(8)
H80 H 1.1153 0.7927 0.1318
H81 H 1.0890 0.7925 0.0630
H82 H 1.0573 0.7260 0.1236
C35 C 0.97528(13) 0.92445(10) 0.08092(9)
H83 H 0.9790 0.9357 0.0351
H84 H 1.0307 0.9403 0.0954
H85 H 0.9163 0.9551 0.0928
B1 B 0.73124(10) 0.50461(8) 0.35535(6)
C36 C 0.63251(9) 0.56156(7) 0.32308(6)
C37 C 0.58480(9) 0.55070(8) 0.27418(6)
H86 H 0.6093 0.5065 0.2583
C38 C 0.50251(10) 0.60210(8) 0.24754(7)
H87 H 0.4721 0.5922 0.2144
C39 C 0.46503(9) 0.66747(8) 0.26921(7)
H88 H 0.4095 0.7031 0.2509
C40 C 0.51005(10) 0.67986(8) 0.31820(7)
H89 H 0.4851 0.7241 0.3339
C41 C 0.59141(9) 0.62778(8) 0.34428(6)
H90 H 0.6207 0.6373 0.3780
C42 C 0.70822(9) 0.44652(7) 0.42565(6)
C43 C 0.78258(10) 0.39271(8) 0.46173(6)
H91 H 0.8451 0.3886 0.4436
C44 C 0.76879(10) 0.34518(8) 0.52270(6)
H92 H 0.8215 0.3105 0.5457
C45 C 0.67795(11) 0.34853(8) 0.54986(6)
H93 H 0.6680 0.3169 0.5917
C46 C 0.60202(10) 0.39841(8) 0.51533(6)
H94 H 0.5392 0.4001 0.5331
C47 C 0.61746(9) 0.44649(8) 0.45430(6)
H95 H 0.5643 0.4804 0.4314
C48 C 0.78052(9) 0.44510(7) 0.31305(5)
C49 C 0.73995(9) 0.37708(7) 0.31401(6)
H96 H 0.6837 0.3674 0.3388
C50 C 0.77838(10) 0.32334(8) 0.28041(6)
H97 H 0.7479 0.2786 0.2822
C51 C 0.86123(10) 0.33495(8) 0.24428(6)
H98 H 0.8881 0.2983 0.2215
C52 C 0.90389(9) 0.40097(8) 0.24213(6)
H99 H 0.9607 0.4097 0.2178
C53 C 0.86353(9) 0.45484(8) 0.27571(6)
H100 H 0.8937 0.5000 0.2731
C54 C 0.80014(9) 0.56870(7) 0.36063(6)
C55 C 0.82057(9) 0.63030(7) 0.30710(6)
H101 H 0.7987 0.6308 0.2675
C56 C 0.87125(10) 0.69042(8) 0.30944(7)
H102 H 0.8832 0.7308 0.2720
C57 C 0.90441(10) 0.69138(8) 0.36650(7)
H103 H 0.9389 0.7322 0.3687
C58 C 0.88612(10) 0.63170(8) 0.42001(7)
H104 H 0.9088 0.6312 0.4594
C59 C 0.83471(10) 0.57201(8) 0.41695(6)
H105 H 0.8228 0.5321 0.4547
B2 B 0.25154(10) 0.48260(8) 0.14556(6)
C60 C 0.35673(9) 0.43199(7) 0.17107(6)
C61 C 0.39992(9) 0.43296(7) 0.22558(6)
H106 H 0.3683 0.4672 0.2492
C62 C 0.48748(10) 0.38577(8) 0.24654(6)
H107 H 0.5142 0.3883 0.2838
C63 C 0.53581(9) 0.33514(8) 0.21329(7)
H108 H 0.5957 0.3032 0.2273
C64 C 0.49517(9) 0.33187(8) 0.15917(6)
H109 H 0.5270 0.2972 0.1360
C65 C 0.40797(9) 0.37934(7) 0.13895(6)
H110 H 0.3816 0.3762 0.1018
C66 C 0.18616(9) 0.41291(7) 0.14802(6)
C67 C 0.17790(9) 0.35183(8) 0.20447(6)
H111 H 0.2059 0.3549 0.2411
C68 C 0.13078(10) 0.28712(8) 0.20928(7)
H112 H 0.1274 0.2473 0.2485
C69 C 0.08871(10) 0.28067(9) 0.15679(7)
H113 H 0.0575 0.2361 0.1594
C70 C 0.09326(11) 0.34039(10) 0.10076(7)
H114 H 0.0637 0.3376 0.0645
C71 C 0.14105(11) 0.40498(9) 0.09687(6)
H115 H 0.1429 0.4452 0.0577
C72 C 0.25935(9) 0.54335(7) 0.07414(6)
C73 C 0.17740(10) 0.59419(8) 0.04480(6)
H116 H 0.1177 0.5911 0.0666
C74 C 0.17972(11) 0.64881(8) -0.01465(7)
H117 H 0.1223 0.6814 -0.0328
C75 C 0.26575(12) 0.65573(8) -0.04738(6)
H118 H 0.2679 0.6928 -0.0881
C76 C 0.34830(11) 0.60797(8) -0.01988(6)
H119 H 0.4079 0.6127 -0.0416
C77 C 0.34470(10) 0.55272(8) 0.03959(6)
H120 H 0.4025 0.5202 0.0573
C78 C 0.20511(9) 0.54107(7) 0.18889(6)
C79 C 0.25152(9) 0.60399(8) 0.19299(6)
H121 H 0.3112 0.6100 0.1717
C80 C 0.21409(10) 0.65752(8) 0.22673(6)
H122 H 0.2490 0.6980 0.2292
C81 C 0.12553(10) 0.65194(8) 0.25693(6)
H123 H 0.0992 0.6886 0.2799
C82 C 0.07637(9) 0.59213(8) 0.25294(6)
H124 H 0.0151 0.5883 0.2725
C83 C 0.11633(9) 0.53736(7) 0.22030(6)
H125 H 0.0820 0.4959 0.2193
B3 B 0.25906(10) 0.99580(8) 0.12831(6)
C84 C 0.27088(9) 0.93178(7) 0.08536(6)
C85 C 0.31932(9) 0.85227(8) 0.10491(6)
H126 H 0.3461 0.8329 0.1457
C86 C 0.32999(10) 0.80033(8) 0.06712(7)
H127 H 0.3631 0.7468 0.0826
C87 C 0.29283(10) 0.82617(9) 0.00744(7)
H128 H 0.2997 0.7909 -0.0183
C88 C 0.24530(10) 0.90448(9) -0.01421(7)
H129 H 0.2197 0.9235 -0.0553
C89 C 0.23489(10) 0.95547(8) 0.02409(6)
H130 H 0.2019 1.0089 0.0081
C90 C 0.28744(8) 0.94719(7) 0.20161(6)
C91 C 0.24970(9) 0.87692(7) 0.23391(6)
H131 H 0.2053 0.8592 0.2130
C92 C 0.27460(9) 0.83237(8) 0.29507(6)
H132 H 0.2479 0.7849 0.3148
C93 C 0.33842(9) 0.85702(8) 0.32745(6)
H133 H 0.3560 0.8266 0.3692
C94 C 0.37598(10) 0.92650(8) 0.29794(6)
H134 H 0.4192 0.9444 0.3196
C95 C 0.35058(9) 0.97033(8) 0.23640(6)
H135 H 0.3772 1.0179 0.2172
C96 C 0.14791(9) 1.04397(7) 0.12482(6)
C97 C 0.11600(9) 1.10691(8) 0.07111(6)
H136 H 0.1604 1.1218 0.0376
C98 C 0.02294(10) 1.14836(8) 0.06457(6)
H137 H 0.0051 1.1903 0.0272
C99 C -0.04398(9) 1.12862(8) 0.11255(6)
H138 H -0.1080 1.1562 0.1083
C100 C -0.01551(9) 1.06792(8) 0.16684(6)
H139 H -0.0602 1.0539 0.2003
C101 C 0.07857(9) 1.02723(8) 0.17261(6)
H140 H 0.0963 0.9864 0.2106
C102 C 0.33082(9) 1.06264(7) 0.10002(5)
C103 C 0.31729(9) 1.13486(7) 0.11712(6)
H141 H 0.2633 1.1457 0.1427
C104 C 0.37946(10) 1.19096(8) 0.09825(6)
H142 H 0.3678 1.2387 0.1112
C105 C 0.45864(10) 1.17713(8) 0.06044(6)
H143 H 0.5015 1.2152 0.0474
C106 C 0.47446(9) 1.10714(8) 0.04191(6)
H144 H 0.5281 1.0971 0.0159
C107 C 0.41121(9) 1.05129(7) 0.06164(6)
H145 H 0.4233 1.0037 0.0485
B4 B 0.73431(10) 0.99633(8) 0.37926(6)
C108 C 0.73191(8) 1.05294(7) 0.42675(6)
C109 C 0.71416(9) 1.13735(7) 0.40836(6)
H146 H 0.6978 1.1649 0.3659
C110 C 0.71942(9) 1.18296(8) 0.44961(6)
H147 H 0.7069 1.2402 0.4349
C111 C 0.74287(9) 1.14494(8) 0.51182(6)
H148 H 0.7485 1.1756 0.5398
C112 C 0.75813(9) 1.06126(8) 0.53281(6)
H149 H 0.7729 1.0342 0.5756
C113 C 0.75168(9) 1.01714(8) 0.49108(6)
H150 H 0.7611 0.9600 0.5067
C114 C 0.66263(9) 0.92926(7) 0.40695(5)
C115 C 0.67618(9) 0.85512(7) 0.39293(6)
H151 H 0.7327 0.8406 0.3708
C116 C 0.61016(10) 0.80235(8) 0.41024(6)
H152 H 0.6221 0.7530 0.3996
C117 C 0.52682(10) 0.82079(8) 0.44300(6)
H153 H 0.4817 0.7846 0.4548
C118 C 0.51070(9) 0.89320(8) 0.45813(6)
H154 H 0.4541 0.9070 0.4804
C119 C 0.57788(9) 0.94569(7) 0.44047(6)
H155 H 0.5657 0.9947 0.4516
C120 C 0.84502(9) 0.95046(7) 0.37163(6)
C121 C 0.87449(10) 0.92849(8) 0.31665(6)
H156 H 0.8299 0.9411 0.2837
C122 C 0.96626(10) 0.88903(8) 0.30825(7)
H157 H 0.9831 0.8758 0.2701
C123 C 1.03263(11) 0.86919(9) 0.35537(8)
H158 H 1.0953 0.8423 0.3500
C124 C 1.00659(10) 0.88896(10) 0.41035(8)
H159 H 1.0513 0.8751 0.4433
C125 C 0.91482(10) 0.92922(9) 0.41785(7)
H160 H 0.8991 0.9428 0.4560
C126 C 0.69929(9) 1.04997(7) 0.30787(6)
C127 C 0.75272(9) 1.10808(7) 0.27122(6)
H161 H 0.8059 1.1184 0.2897
C128 C 0.73128(10) 1.15105(8) 0.20929(6)
H162 H 0.7689 1.1903 0.1866
C129 C 0.65482(10) 1.13683(8) 0.18036(6)
H163 H 0.6407 1.1652 0.1377
C130 C 0.59957(10) 1.08066(8) 0.21476(6)
H164 H 0.5466 1.0707 0.1958
C131 C 0.62159(9) 1.03844(7) 0.27750(6)
H165 H 0.5824 1.0006 0.3003
C23? C 0.2131(15) 0.3729(11) 0.426(2)
N9? N 0.1439(11) 0.3299(9) 0.4250(7)
N10? N 0.1950(11) 0.4530(9) 0.3979(8)
N11? N 0.3051(10) 0.3351(9) 0.4381(8)
C24? C 0.1249(19) 0.2587(13) 0.4773(10)
H57? H 0.1734 0.2464 0.5096
H58? H 0.1274 0.2122 0.4611
H59? H 0.0613 0.2706 0.4956
C25? C 0.066(5) 0.361(5) 0.379(3)
H60? H 0.0387 0.4158 0.3789
H61? H 0.0167 0.3262 0.3910
H62? H 0.0919 0.3604 0.3373
C26? C 0.1186(18) 0.5088(14) 0.4165(12)
H63? H 0.0850 0.4796 0.4537
H64? H 0.0734 0.5331 0.3819
H65? H 0.1460 0.5513 0.4262
C27? C 0.267(2) 0.497(2) 0.3580(16)
H66? H 0.2850 0.5357 0.3778
H67? H 0.2405 0.5265 0.3165
H68? H 0.3242 0.4590 0.3533
C28? C 0.3706(19) 0.3667(15) 0.4709(14)
H69? H 0.4178 0.3221 0.4943
H70? H 0.3336 0.3929 0.5002
H71? H 0.4037 0.4060 0.4399
C29? C 0.341(2) 0.2618(15) 0.4187(10)
H72? H 0.3267 0.2165 0.4548
H73? H 0.4117 0.2580 0.4172
loop_
_geom_bond_atom_site_label_1
_geom_bond_atom_site_label_2
_geom_bond_site_symmetry_1
_geom_bond_site_symmetry_2
N1 C1 1_555 1_555
N2 C1 1_555 1_555
N3 C1 1_555 1_555
N4 C8 1_555 1_555
C2 N1 1_555 1_555
H1 C2 1_555 1_555
H2 C2 1_555 1_555
H3 C2 1_555 1_555
C3 N1 1_555 1_555
H4 C3 1_555 1_555
H5 C3 1_555 1_555
H6 C3 1_555 1_555
C4 N2 1_555 1_555
H7 C4 1_555 1_555
H8 C4 1_555 1_555
H9 C4 1_555 1_555
C5 N2 1_555 1_555
H10 C5 1_555 1_555
H11 C5 1_555 1_555
H12 C5 1_555 1_555
C6 N3 1_555 1_555
H13 C6 1_555 1_555
H14 C6 1_555 1_555
H15 C6 1_555 1_555
C7 N3 1_555 1_555
H16 C7 1_555 1_555
H17 C7 1_555 1_555
C8 C7 1_555 1_555
H18 C8 1_555 1_555
H19 C8 1_555 1_555
C9 N4 1_555 1_555
H20 C9 1_555 1_555
H21 C9 1_555 1_555
H22 C9 1_555 1_555
C10 N4 1_555 1_555
H23 C10 1_555 1_555
H24 C10 1_555 1_555
H25 C10 1_555 1_555
C11 N4 1_555 1_555
H26 C11 1_555 1_555
H27 C11 1_555 1_555
H28 C11 1_555 1_555
N5 C19 1_555 1_555
C12 N6 1_555 1_555
N6 C13 1_555 1_555
N7 C12 1_555 1_555
N8 C12 1_555 1_555
C13 H29 1_555 1_555
H30 C13 1_555 1_555
H31 C13 1_555 1_555
C14 N6 1_555 1_555
H32 C14 1_555 1_555
H33 C14 1_555 1_555
H34 C14 1_555 1_555
C15 N7 1_555 1_555
H35 C15 1_555 1_555
H36 C15 1_555 1_555
H37 C15 1_555 1_555
C16 N7 1_555 1_555
H38 C16 1_555 1_555
H39 C16 1_555 1_555
H40 C16 1_555 1_555
C17 N8 1_555 1_555
H41 C17 1_555 1_555
H42 C17 1_555 1_555
H43 C17 1_555 1_555
C18 N8 1_555 1_555
H44 C18 1_555 1_555
H45 C18 1_555 1_555
C19 C18 1_555 1_555
H46 C19 1_555 1_555
H47 C19 1_555 1_555
C20 N5 1_555 1_555
H48 C20 1_555 1_555
H49 C20 1_555 1_555
H50 C20 1_555 1_555
C21 N5 1_555 1_555
H51 C21 1_555 1_555
H52 C21 1_555 1_555
H53 C21 1_555 1_555
C22 N5 1_555 1_555
H54 C22 1_555 1_555
H55 C22 1_555 1_555
H56 C22 1_555 1_555
O1 C30 1_555 1_555
C30 C31 1_555 1_555
C31 H74 1_555 1_555
H75 C31 1_555 1_555
H76 C31 1_555 1_555
C32 C30 1_555 1_555
H77 C32 1_555 1_555
H78 C32 1_555 1_555
H79 C32 1_555 1_555
O2 C33 1_555 1_555
C33 C34 1_555 1_555
C34 H80 1_555 1_555
H81 C34 1_555 1_555
H82 C34 1_555 1_555
C35 C33 1_555 1_555
H83 C35 1_555 1_555
H84 C35 1_555 1_555
H85 C35 1_555 1_555
B1 C36 1_555 1_555
C36 C37 1_555 1_555
C37 H86 1_555 1_555
C38 C37 1_555 1_555
H87 C38 1_555 1_555
C39 C38 1_555 1_555
H88 C39 1_555 1_555
C40 C39 1_555 1_555
H89 C40 1_555 1_555
C41 C36 1_555 1_555
H90 C41 1_555 1_555
C42 B1 1_555 1_555
C43 C42 1_555 1_555
H91 C43 1_555 1_555
C44 C43 1_555 1_555
H92 C44 1_555 1_555
C45 C44 1_555 1_555
H93 C45 1_555 1_555
C46 C45 1_555 1_555
H94 C46 1_555 1_555
C47 C42 1_555 1_555
H95 C47 1_555 1_555
C48 B1 1_555 1_555
C49 C48 1_555 1_555
H96 C49 1_555 1_555
C50 C49 1_555 1_555
H97 C50 1_555 1_555
C51 C50 1_555 1_555
H98 C51 1_555 1_555
C52 C51 1_555 1_555
H99 C52 1_555 1_555
C53 C48 1_555 1_555
H100 C53 1_555 1_555
C54 B1 1_555 1_555
C55 C54 1_555 1_555
H101 C55 1_555 1_555
C56 C55 1_555 1_555
H102 C56 1_555 1_555
C57 C56 1_555 1_555
H103 C57 1_555 1_555
C58 C57 1_555 1_555
H104 C58 1_555 1_555
C59 C54 1_555 1_555
H105 C59 1_555 1_555
B2 C60 1_555 1_555
C60 C61 1_555 1_555
C61 H106 1_555 1_555
C62 C61 1_555 1_555
H107 C62 1_555 1_555
C63 C62 1_555 1_555
H108 C63 1_555 1_555
C64 C63 1_555 1_555
H109 C64 1_555 1_555
C65 C60 1_555 1_555
H110 C65 1_555 1_555
C66 B2 1_555 1_555
C67 C66 1_555 1_555
H111 C67 1_555 1_555
C68 C67 1_555 1_555
H112 C68 1_555 1_555
C69 C68 1_555 1_555
H113 C69 1_555 1_555
C70 C69 1_555 1_555
H114 C70 1_555 1_555
C71 C66 1_555 1_555
H115 C71 1_555 1_555
C72 B2 1_555 1_555
C73 C72 1_555 1_555
H116 C73 1_555 1_555
C74 C73 1_555 1_555
H117 C74 1_555 1_555
C75 C74 1_555 1_555
H118 C75 1_555 1_555
C76 C75 1_555 1_555
H119 C76 1_555 1_555
C77 C72 1_555 1_555
H120 C77 1_555 1_555
C78 B2 1_555 1_555
C79 C78 1_555 1_555
H121 C79 1_555 1_555
C80 C79 1_555 1_555
H122 C80 1_555 1_555
C81 C80 1_555 1_555
H123 C81 1_555 1_555
C82 C81 1_555 1_555
H124 C82 1_555 1_555
C83 C78 1_555 1_555
H125 C83 1_555 1_555
B3 C84 1_555 1_555
C84 C85 1_555 1_555
C85 H126 1_555 1_555
C86 C85 1_555 1_555
H127 C86 1_555 1_555
C87 C86 1_555 1_555
H128 C87 1_555 1_555
C88 C87 1_555 1_555
H129 C88 1_555 1_555
C89 C84 1_555 1_555
H130 C89 1_555 1_555
C90 B3 1_555 1_555
C91 C90 1_555 1_555
H131 C91 1_555 1_555
C92 C91 1_555 1_555
H132 C92 1_555 1_555
C93 C92 1_555 1_555
H133 C93 1_555 1_555
C94 C93 1_555 1_555
H134 C94 1_555 1_555
C95 C90 1_555 1_555
H135 C95 1_555 1_555
C96 B3 1_555 1_555
C97 C96 1_555 1_555
H136 C97 1_555 1_555
C98 C97 1_555 1_555
H137 C98 1_555 1_555
C99 C98 1_555 1_555
H138 C99 1_555 1_555
C100 C99 1_555 1_555
H139 C100 1_555 1_555
C101 C96 1_555 1_555
H140 C101 1_555 1_555
C102 B3 1_555 1_555
C103 C102 1_555 1_555
H141 C103 1_555 1_555
C104 C103 1_555 1_555
H142 C104 1_555 1_555
C105 C104 1_555 1_555
H143 C105 1_555 1_555
C106 C105 1_555 1_555
H144 C106 1_555 1_555
C107 C102 1_555 1_555
H145 C107 1_555 1_555
B4 C108 1_555 1_555
C108 C109 1_555 1_555
C109 H146 1_555 1_555
C110 C109 1_555 1_555
H147 C110 1_555 1_555
C111 C110 1_555 1_555
H148 C111 1_555 1_555
C112 C111 1_555 1_555
H149 C112 1_555 1_555
C113 C108 1_555 1_555
H150 C113 1_555 1_555
C114 B4 1_555 1_555
C115 C114 1_555 1_555
H151 C115 1_555 1_555
C116 C115 1_555 1_555
H152 C116 1_555 1_555
C117 C116 1_555 1_555
H153 C117 1_555 1_555
C118 C117 1_555 1_555
H154 C118 1_555 1_555
C119 C114 1_555 1_555
H155 C119 1_555 1_555
C120 B4 1_555 1_555
C121 C120 1_555 1_555
H156 C121 1_555 1_555
C122 C121 1_555 1_555
H157 C122 1_555 1_555
C123 C122 1_555 1_555
H158 C123 1_555 1_555
C124 C123 1_555 1_555
H159 C124 1_555 1_555
C125 C120 1_555 1_555
H160 C125 1_555 1_555
C126 B4 1_555 1_555
C127 C126 1_555 1_555
H161 C127 1_555 1_555
C128 C127 1_555 1_555
H162 C128 1_555 1_555
C129 C128 1_555 1_555
H163 C129 1_555 1_555
C130 C129 1_555 1_555
H164 C130 1_555 1_555
C131 C126 1_555 1_555
H165 C131 1_555 1_555
C40 C41 1_555 1_555
C46 C47 1_555 1_555
C52 C53 1_555 1_555
C58 C59 1_555 1_555
C64 C65 1_555 1_555
C70 C71 1_555 1_555
C76 C77 1_555 1_555
C82 C83 1_555 1_555
C88 C89 1_555 1_555
C94 C95 1_555 1_555
C100 C101 1_555 1_555
C106 C107 1_555 1_555
C112 C113 1_555 1_555
C118 C119 1_555 1_555
C124 C125 1_555 1_555
C130 C131 1_555 1_555

#END
