
#######################################################################
#
#                 Cambridge Crystallographic Data Centre
#                                CCDC 
#
#######################################################################
#
# If this CIF has been generated from an entry in the Cambridge 
# Structural Database, then it will include bibliographic, chemical, 
# crystal, experimental, refinement or atomic coordinate data resulting 
# from the CCDC's data processing and validation procedures.
#
#######################################################################

data_LADZOI
_chemical_formula_moiety         'C45 H31 N3,C6 H5 Cl1'
_chemical_name_systematic        
"9-(4'-(1,4,5-Triphenyl-1H-imidazol-2-yl)biphenyl-4-yl)-9H-carbazole chlorobenzene solvate"
_symmetry_cell_setting           monoclinic
_symmetry_space_group_name_H-M   'P 21'
_symmetry_Int_Tables_number      4
_space_group_name_Hall           'P 2yb'
loop_
_symmetry_equiv_pos_site_id
_symmetry_equiv_pos_as_xyz
1 x,y,z
2 -x,1/2+y,-z
_cell_length_a                   9.4055(18)
_cell_length_b                   24.140(5)
_cell_length_c                   16.757(3)
_cell_angle_alpha                90
_cell_angle_beta                 90.566(6)
_cell_angle_gamma                90
_cell_volume                     3804.47
_exptl_crystal_colour            colorless
_exptl_crystal_description       Prism
_cell_formula_units_Z            4
loop_
_atom_site_label
_atom_site_type_symbol
_atom_site_fract_x
_atom_site_fract_y
_atom_site_fract_z
N1 N 0.6759(4) 0.90779(13) 1.16161(19)
N2 N 0.6676(4) 0.61094(13) 0.68293(19)
N3 N 0.7456(4) 0.55021(12) 0.77144(18)
C1 C 0.6636(4) 0.90522(15) 1.2442(2)
C2 C 0.6409(5) 0.85857(16) 1.2920(2)
H1 H 0.6366 0.8225 1.2695
C3 C 0.6249(5) 0.86671(17) 1.3726(3)
H2 H 0.6105 0.8356 1.4063
C4 C 0.6296(5) 0.92028(18) 1.4063(2)
H3 H 0.6173 0.9249 1.4621
C5 C 0.6519(5) 0.96583(16) 1.3587(2)
H4 H 0.6542 1.0018 1.3816
C6 C 0.6709(4) 0.95921(16) 1.2772(2)
C7 C 0.6912(5) 0.99644(16) 1.2105(2)
C8 C 0.7053(5) 1.05353(18) 1.2044(3)
H5 H 0.7016 1.0762 1.2507
C9 C 0.7249(6) 1.07706(17) 1.1300(3)
H6 H 0.7373 1.1160 1.1253
C10 C 0.7265(6) 1.04404(17) 1.0620(3)
H7 H 0.7407 1.0612 1.0117
C11 C 0.7082(5) 0.98677(18) 1.0647(3)
H8 H 0.7062 0.9646 1.0179
C12 C 0.6928(4) 0.96401(15) 1.1413(2)
C13 C 0.6767(5) 0.86197(15) 1.1089(2)
C14 C 0.5515(5) 0.84431(19) 1.0745(3)
H9 H 0.4647 0.8626 1.0859
C15 C 0.5531(5) 0.7994(2) 1.0228(3)
H10 H 0.4659 0.7869 1.0002
C16 C 0.6782(5) 0.77209(15) 1.0028(2)
C17 C 0.8042(5) 0.79038(17) 1.0409(2)
H11 H 0.8914 0.7721 1.0302
C18 C 0.8029(5) 0.83463(16) 1.0937(2)
H12 H 0.8884 0.8461 1.1194
C19 C 0.6805(5) 0.72753(15) 0.9422(2)
C20 C 0.5698(5) 0.72001(16) 0.8872(2)
H13 H 0.4881 0.7431 0.8901
C21 C 0.5759(5) 0.67975(16) 0.8283(2)
H14 H 0.4992 0.6761 0.7913
C22 C 0.6912(5) 0.64495(15) 0.8226(2)
C23 C 0.8026(5) 0.65153(18) 0.8768(2)
H15 H 0.8835 0.6281 0.8735
C24 C 0.7971(5) 0.69210(17) 0.9360(3)
H16 H 0.8741 0.6957 0.9727
C25 C 0.6979(4) 0.60311(15) 0.7586(2)
C26 C 0.6951(4) 0.56176(15) 0.6439(2)
C27 C 0.6761(4) 0.55754(17) 0.5564(2)
C28 C 0.6665(5) 0.60538(17) 0.5117(2)
H17 H 0.6686 0.6403 0.5378
C29 C 0.6537(5) 0.60312(19) 0.4292(2)
H18 H 0.6473 0.6364 0.3991
C30 C 0.6504(5) 0.55204(19) 0.3905(2)
H19 H 0.6422 0.5502 0.3340
C31 C 0.6594(5) 0.50371(18) 0.4354(2)
H20 H 0.6574 0.4687 0.4095
C32 C 0.6710(5) 0.50634(17) 0.5173(2)
H21 H 0.6757 0.4731 0.5476
C33 C 0.7444(4) 0.52323(16) 0.6985(2)
C34 C 0.7927(5) 0.46486(15) 0.6925(2)
C35 C 0.7040(5) 0.42248(17) 0.7190(2)
H22 H 0.6121 0.4310 0.7386
C36 C 0.7501(6) 0.36801(18) 0.7166(3)
H23 H 0.6889 0.3391 0.7335
C37 C 0.8838(6) 0.35571(18) 0.6900(2)
H24 H 0.9155 0.3183 0.6899
C38 C 0.9726(5) 0.39698(18) 0.6635(3)
H25 H 1.0640 0.3881 0.6436
C39 C 0.9270(5) 0.45236(17) 0.6661(3)
H26 H 0.9889 0.4812 0.6497
C40 C 0.7667(5) 0.52427(14) 0.8479(2)
C41 C 0.8987(5) 0.50356(17) 0.8681(2)
H27 H 0.9759 0.5066 0.8322
C42 C 0.9170(6) 0.47811(17) 0.9419(3)
H28 H 1.0065 0.4626 0.9563
C43 C 0.8032(5) 0.47540(18) 0.9950(2)
H29 H 0.8166 0.4591 1.0461
C44 C 0.6725(5) 0.49617(18) 0.9737(3)
H30 H 0.5955 0.4937 1.0098
C45 C 0.6524(5) 0.52079(18) 0.8996(2)
H31 H 0.5619 0.5350 0.8844
N4 N 0.8392(4) -0.08424(13) 0.6597(2)
N5 N 0.8292(4) 0.21399(13) 0.18142(19)
N6 N 0.7494(4) 0.27477(13) 0.27064(18)
C46 C 0.8226(5) -0.13886(16) 0.6381(2)
C47 C 0.8074(5) -0.16247(17) 0.5626(2)
H32 H 0.8105 -0.1404 0.5158
C48 C 0.7877(6) -0.21935(18) 0.5582(3)
H33 H 0.7744 -0.2361 0.5074
C49 C 0.7868(5) -0.25269(18) 0.6263(3)
H34 H 0.7740 -0.2916 0.6211
C50 C 0.8046(5) -0.22947(17) 0.7018(3)
H35 H 0.8060 -0.2520 0.7482
C51 C 0.8204(4) -0.17183(16) 0.7074(2)
C52 C 0.8395(4) -0.13459(16) 0.7740(2)
C53 C 0.8544(5) -0.14249(17) 0.8559(2)
H36 H 0.8507 -0.1785 0.8785
C54 C 0.8750(5) -0.09567(18) 0.9038(2)
H37 H 0.8830 -0.0999 0.9600
C55 C 0.8838(5) -0.04336(17) 0.8708(2)
H38 H 0.9010 -0.0127 0.9050
C56 C 0.8687(4) -0.03412(16) 0.7898(2)
H39 H 0.8719 0.0021 0.7679
C57 C 0.8485(4) -0.08053(16) 0.7421(2)
C58 C 0.8386(4) -0.03748(15) 0.6067(2)
C59 C 0.7167(5) -0.00773(19) 0.5953(3)
H40 H 0.6333 -0.0175 0.6236
C60 C 0.7136(5) 0.03658(17) 0.5428(3)
H41 H 0.6276 0.0564 0.5342
C61 C 0.8357(4) 0.05205(16) 0.5026(2)
C62 C 0.9558(5) 0.0234(2) 0.5163(3)
H42 H 1.0403 0.0341 0.4898
C63 C 0.9596(5) -0.0218(2) 0.5687(3)
H43 H 1.0459 -0.0414 0.5776
C64 C 0.8283(4) 0.09833(14) 0.4405(2)
C65 C 0.7104(5) 0.13279(18) 0.4342(2)
H44 H 0.6346 0.1285 0.4707
C66 C 0.7007(5) 0.17334(16) 0.3756(2)
H45 H 0.6190 0.1964 0.3725
C67 C 0.8103(5) 0.18032(15) 0.3218(2)
C68 C 0.9289(5) 0.14640(16) 0.3274(2)
H46 H 1.0046 0.1507 0.2908
C69 C 0.9372(5) 0.10590(15) 0.3868(2)
H47 H 1.0194 0.0831 0.3903
C70 C 0.8007(4) 0.22215(15) 0.2581(2)
C71 C 0.7980(4) 0.26381(15) 0.1435(2)
C72 C 0.8132(4) 0.26788(17) 0.0564(2)
C73 C 0.8188(5) 0.21978(16) 0.0097(2)
H48 H 0.8168 0.1846 0.0351
C74 C 0.8272(5) 0.22258(18) -0.0725(2)
H49 H 0.8311 0.1894 -0.1029
C75 C 0.8302(5) 0.2734(2) -0.1108(2)
H50 H 0.8355 0.2752 -0.1673
C76 C 0.8253(5) 0.32129(19) -0.0660(2)
H51 H 0.8267 0.3562 -0.0920
C77 C 0.8182(5) 0.31914(17) 0.0177(2)
H52 H 0.8167 0.3524 0.0479
C78 C 0.7480(4) 0.30176(15) 0.1967(2)
C79 C 0.6977(5) 0.36018(15) 0.1920(2)
C80 C 0.5643(5) 0.37338(17) 0.1632(2)
H53 H 0.5036 0.3449 0.1437
C81 C 0.5178(6) 0.42799(19) 0.1625(3)
H54 H 0.4255 0.4366 0.1426
C82 C 0.6044(5) 0.46937(17) 0.1902(3)
H55 H 0.5727 0.5067 0.1890
C83 C 0.7375(5) 0.45688(17) 0.2199(3)
H56 H 0.7972 0.4856 0.2397
C84 C 0.7850(5) 0.40224(17) 0.2210(3)
H57 H 0.8769 0.3937 0.2416
C85 C 0.7251(5) 0.30088(15) 0.3471(2)
C86 C 0.8365(5) 0.30376(16) 0.4001(2)
H58 H 0.9270 0.2892 0.3867
C87 C 0.8143(5) 0.32869(19) 0.4745(2)
H59 H 0.8899 0.3309 0.5124
C88 C 0.6821(5) 0.34999(17) 0.4927(3)
H60 H 0.6677 0.3672 0.5429
C89 C 0.5719(6) 0.34658(18) 0.4392(3)
H61 H 0.4814 0.3612 0.4524
C90 C 0.5927(5) 0.32140(16) 0.3649(2)
H62 H 0.5167 0.3186 0.3274
Cl2 Cl 0.4033(4) 0.72973(16) 0.34241(17)
C97 C 0.4183(8) 0.68441(19) 0.2629(3)
C98 C 0.3571(10) 0.6321(2) 0.2672(4)
H68 H 0.3054 0.6216 0.3132
C99 C 0.3715(11) 0.5951(2) 0.2042(5)
H69 H 0.3297 0.5594 0.2071
C100 C 0.4472(10) 0.6105(3) 0.1369(4)
H70 H 0.4571 0.5852 0.0938
C101 C 0.5084(9) 0.6628(3) 0.1326(3)
H71 H 0.5601 0.6733 0.0865
C102 C 0.4939(7) 0.69977(19) 0.1956(3)
H72 H 0.5357 0.7355 0.1926
Cl3 Cl 0.9067(3) 0.59184(8) 0.15182(15)
C103 C 0.9195(5) 0.63773(15) 0.2292(3)
C104 C 0.8812(6) 0.69271(17) 0.2169(3)
H73 H 0.8463 0.7043 0.1662
C105 C 0.8939(6) 0.73075(13) 0.2788(4)
H74 H 0.8677 0.7683 0.2704
C106 C 0.9449(6) 0.71382(17) 0.3531(3)
H75 H 0.9536 0.7398 0.3954
C107 C 0.9832(6) 0.6588(2) 0.3653(2)
H76 H 1.0181 0.6473 0.4161
C108 C 0.9705(6) 0.62080(14) 0.3034(3)
H77 H 0.9967 0.5832 0.3118
Cl1? Cl 0.359(2) 0.7051(7) 0.3409(9)
C91? C 0.415(4) 0.6665(11) 0.2601(15)
C92? C 0.335(5) 0.6208(14) 0.236(2)
H63? H 0.2626 0.6067 0.2692
C93? C 0.362(6) 0.5959(16) 0.163(2)
H64? H 0.3075 0.5647 0.1462
C94? C 0.468(6) 0.6166(17) 0.1139(18)
H65? H 0.4863 0.5995 0.0640
C95? C 0.548(5) 0.6622(16) 0.1382(17)
H66? H 0.6201 0.6763 0.1048
C96? C 0.521(3) 0.6872(12) 0.2113(16)
H67? H 0.5752 0.7183 0.2279
loop_
_geom_bond_atom_site_label_1
_geom_bond_atom_site_label_2
_geom_bond_site_symmetry_1
_geom_bond_site_symmetry_2
N1 C1 1_555 1_555
N2 C25 1_555 1_555
N3 C25 1_555 1_555
C1 C2 1_555 1_555
C2 H1 1_555 1_555
C3 C2 1_555 1_555
H2 C3 1_555 1_555
C4 C3 1_555 1_555
H3 C4 1_555 1_555
C5 C4 1_555 1_555
H4 C5 1_555 1_555
C6 C1 1_555 1_555
C7 C6 1_555 1_555
C8 C7 1_555 1_555
H5 C8 1_555 1_555
C9 C8 1_555 1_555
H6 C9 1_555 1_555
C10 C9 1_555 1_555
H7 C10 1_555 1_555
C11 C10 1_555 1_555
H8 C11 1_555 1_555
C12 N1 1_555 1_555
C13 N1 1_555 1_555
C14 C13 1_555 1_555
H9 C14 1_555 1_555
C15 C14 1_555 1_555
H10 C15 1_555 1_555
C16 C15 1_555 1_555
C17 C16 1_555 1_555
H11 C17 1_555 1_555
C18 C13 1_555 1_555
H12 C18 1_555 1_555
C19 C16 1_555 1_555
C20 C19 1_555 1_555
H13 C20 1_555 1_555
C21 C20 1_555 1_555
H14 C21 1_555 1_555
C22 C21 1_555 1_555
C23 C22 1_555 1_555
H15 C23 1_555 1_555
C24 C19 1_555 1_555
H16 C24 1_555 1_555
C25 C22 1_555 1_555
C26 N2 1_555 1_555
C27 C26 1_555 1_555
C28 C27 1_555 1_555
H17 C28 1_555 1_555
C29 C28 1_555 1_555
H18 C29 1_555 1_555
C30 C29 1_555 1_555
H19 C30 1_555 1_555
C31 C30 1_555 1_555
H20 C31 1_555 1_555
C32 C27 1_555 1_555
H21 C32 1_555 1_555
C33 N3 1_555 1_555
C34 C33 1_555 1_555
C35 C34 1_555 1_555
H22 C35 1_555 1_555
C36 C35 1_555 1_555
H23 C36 1_555 1_555
C37 C36 1_555 1_555
H24 C37 1_555 1_555
C38 C37 1_555 1_555
H25 C38 1_555 1_555
C39 C34 1_555 1_555
H26 C39 1_555 1_555
C40 N3 1_555 1_555
C41 C40 1_555 1_555
H27 C41 1_555 1_555
C42 C41 1_555 1_555
H28 C42 1_555 1_555
C43 C42 1_555 1_555
H29 C43 1_555 1_555
C44 C43 1_555 1_555
H30 C44 1_555 1_555
C45 C40 1_555 1_555
H31 C45 1_555 1_555
N4 C46 1_555 1_555
N5 C70 1_555 1_555
N6 C70 1_555 1_555
C46 C47 1_555 1_555
C47 H32 1_555 1_555
C48 C47 1_555 1_555
H33 C48 1_555 1_555
C49 C48 1_555 1_555
H34 C49 1_555 1_555
C50 C49 1_555 1_555
H35 C50 1_555 1_555
C51 C46 1_555 1_555
C52 C51 1_555 1_555
C53 C52 1_555 1_555
H36 C53 1_555 1_555
C54 C53 1_555 1_555
H37 C54 1_555 1_555
C55 C54 1_555 1_555
H38 C55 1_555 1_555
C56 C55 1_555 1_555
H39 C56 1_555 1_555
C57 N4 1_555 1_555
C58 N4 1_555 1_555
C59 C58 1_555 1_555
H40 C59 1_555 1_555
C60 C59 1_555 1_555
H41 C60 1_555 1_555
C61 C60 1_555 1_555
C62 C61 1_555 1_555
H42 C62 1_555 1_555
C63 C58 1_555 1_555
H43 C63 1_555 1_555
C64 C61 1_555 1_555
C65 C64 1_555 1_555
H44 C65 1_555 1_555
C66 C65 1_555 1_555
H45 C66 1_555 1_555
C67 C66 1_555 1_555
C68 C67 1_555 1_555
H46 C68 1_555 1_555
C69 C64 1_555 1_555
H47 C69 1_555 1_555
C70 C67 1_555 1_555
C71 N5 1_555 1_555
C72 C71 1_555 1_555
C73 C72 1_555 1_555
H48 C73 1_555 1_555
C74 C73 1_555 1_555
H49 C74 1_555 1_555
C75 C74 1_555 1_555
H50 C75 1_555 1_555
C76 C75 1_555 1_555
H51 C76 1_555 1_555
C77 C72 1_555 1_555
H52 C77 1_555 1_555
C78 N6 1_555 1_555
C79 C78 1_555 1_555
C80 C79 1_555 1_555
H53 C80 1_555 1_555
C81 C80 1_555 1_555
H54 C81 1_555 1_555
C82 C81 1_555 1_555
H55 C82 1_555 1_555
C83 C82 1_555 1_555
H56 C83 1_555 1_555
C84 C79 1_555 1_555
H57 C84 1_555 1_555
C85 N6 1_555 1_555
C86 C85 1_555 1_555
H58 C86 1_555 1_555
C87 C86 1_555 1_555
H59 C87 1_555 1_555
C88 C87 1_555 1_555
H60 C88 1_555 1_555
C89 C88 1_555 1_555
H61 C89 1_555 1_555
C90 C85 1_555 1_555
H62 C90 1_555 1_555
Cl2 C97 1_555 1_555
C97 C98 1_555 1_555
C98 H68 1_555 1_555
C99 C98 1_555 1_555
H69 C99 1_555 1_555
C100 C99 1_555 1_555
H70 C100 1_555 1_555
C101 C100 1_555 1_555
H71 C101 1_555 1_555
C102 C97 1_555 1_555
H72 C102 1_555 1_555
Cl3 C103 1_555 1_555
C103 C104 1_555 1_555
C104 H73 1_555 1_555
C105 C104 1_555 1_555
H74 C105 1_555 1_555
C106 C105 1_555 1_555
H75 C106 1_555 1_555
C107 C106 1_555 1_555
H76 C107 1_555 1_555
C108 C103 1_555 1_555
H77 C108 1_555 1_555
C5 C6 1_555 1_555
C7 C12 1_555 1_555
C11 C12 1_555 1_555
C17 C18 1_555 1_555
C23 C24 1_555 1_555
C26 C33 1_555 1_555
C31 C32 1_555 1_555
C38 C39 1_555 1_555
C44 C45 1_555 1_555
C50 C51 1_555 1_555
C52 C57 1_555 1_555
C56 C57 1_555 1_555
C62 C63 1_555 1_555
C68 C69 1_555 1_555
C71 C78 1_555 1_555
C76 C77 1_555 1_555
C83 C84 1_555 1_555
C89 C90 1_555 1_555
C101 C102 1_555 1_555
C107 C108 1_555 1_555

#END
