
#######################################################################
#
#                 Cambridge Crystallographic Data Centre
#                                CCDC 
#
#######################################################################
#
# If this CIF has been generated from an entry in the Cambridge 
# Structural Database, then it will include bibliographic, chemical, 
# crystal, experimental, refinement or atomic coordinate data resulting 
# from the CCDC's data processing and validation procedures.
#
#######################################################################

data_LAFVOG
_chemical_formula_moiety         'C23 H19 F1 O4'
_chemical_name_systematic        
3-(4-fluorophenyl)-4,5,6-trimethoxy-2-phenyl-1-benzofuran
_symmetry_cell_setting           monoclinic
_symmetry_space_group_name_H-M   'P 21/c'
_symmetry_Int_Tables_number      14
_space_group_name_Hall           '-P 2ybc'
loop_
_symmetry_equiv_pos_site_id
_symmetry_equiv_pos_as_xyz
1 x,y,z
2 -x,1/2+y,1/2-z
3 -x,-y,-z
4 x,1/2-y,1/2+z
_cell_length_a                   10.908(7)
_cell_length_b                   13.050(9)
_cell_length_c                   13.425(9)
_cell_angle_alpha                90
_cell_angle_beta                 93.055(14)
_cell_angle_gamma                90
_cell_volume                     1908.32
_exptl_crystal_colour            colorless
_exptl_crystal_description       tabular
_cell_formula_units_Z            4
loop_
_atom_site_label
_atom_site_type_symbol
_atom_site_fract_x
_atom_site_fract_y
_atom_site_fract_z
C1 C 0.6490(5) 0.5461(5) 0.5902(5)
C2 C 0.7090(5) 0.4881(5) 0.5225(5)
C3 C 0.7650(5) 0.5574(4) 0.4521(5)
C4 C 0.8407(5) 0.5507(4) 0.3718(4)
C5 C 0.8811(5) 0.6389(5) 0.3277(4)
C6 C 0.8466(5) 0.7368(5) 0.3622(5)
C7 C 0.7707(6) 0.7451(5) 0.4424(5)
H1 H 0.7454 0.8086 0.4650
C8 C 0.7347(5) 0.6559(5) 0.4867(4)
C9 C 0.5776(5) 0.5238(5) 0.6755(5)
C10 C 0.5683(6) 0.5965(6) 0.7518(6)
H2 H 0.6079 0.6592 0.7468
C11 C 0.5015(7) 0.5766(7) 0.8339(7)
H3 H 0.4957 0.6253 0.8840
C12 C 0.4445(7) 0.4847(8) 0.8405(7)
H4 H 0.3998 0.4704 0.8960
C13 C 0.4514(6) 0.4138(7) 0.7680(8)
H5 H 0.4115 0.3514 0.7742
C14 C 0.5175(5) 0.4324(6) 0.6837(6)
H6 H 0.5206 0.3833 0.6337
C15 C 0.7243(5) 0.3736(4) 0.5218(5)
C16 C 0.7785(5) 0.3249(5) 0.6042(5)
H7 H 0.8006 0.3627 0.6610
C17 C 0.8004(6) 0.2211(6) 0.6032(6)
H8 H 0.8381 0.1883 0.6582
C18 C 0.7652(6) 0.1684(5) 0.5196(6)
C19 C 0.7112(6) 0.2124(5) 0.4354(6)
H9 H 0.6905 0.1738 0.3787
C20 C 0.6892(6) 0.3154(5) 0.4384(5)
H10 H 0.6500 0.3473 0.3835
C21 C 0.9753(6) 0.4093(6) 0.3834(5)
H11 H 1.0469 0.4509 0.3767
H12 H 0.9886 0.3429 0.3551
H13 H 0.9597 0.4021 0.4527
C22 C 0.9045(6) 0.6393(5) 0.1547(5)
H14 H 0.8585 0.5778 0.1409
H15 H 0.9660 0.6469 0.1066
H16 H 0.8502 0.6972 0.1508
C23 C 0.8822(7) 0.9157(5) 0.3537(5)
H17 H 0.7971 0.9344 0.3543
H18 H 0.9249 0.9644 0.3147
H19 H 0.9174 0.9153 0.4208
F1 F 0.7881(5) 0.0654(3) 0.5173(4)
O1 O 0.6640(4) 0.6497(3) 0.5673(3)
O2 O 0.8714(4) 0.4571(3) 0.3318(3)
O3 O 0.9621(4) 0.6335(3) 0.2523(3)
O4 O 0.8927(4) 0.8165(3) 0.3114(3)
loop_
_geom_bond_atom_site_label_1
_geom_bond_atom_site_label_2
_geom_bond_site_symmetry_1
_geom_bond_site_symmetry_2
C1 C2 1_555 1_555
C2 C3 1_555 1_555
C3 C4 1_555 1_555
C4 C5 1_555 1_555
C5 C6 1_555 1_555
C6 C7 1_555 1_555
C7 H1 1_555 1_555
C8 C3 1_555 1_555
C9 C1 1_555 1_555
C10 C9 1_555 1_555
H2 C10 1_555 1_555
C11 C10 1_555 1_555
H3 C11 1_555 1_555
C12 C11 1_555 1_555
H4 C12 1_555 1_555
C13 C12 1_555 1_555
H5 C13 1_555 1_555
C14 C9 1_555 1_555
H6 C14 1_555 1_555
C15 C2 1_555 1_555
C16 C15 1_555 1_555
H7 C16 1_555 1_555
C17 C16 1_555 1_555
H8 C17 1_555 1_555
C18 C17 1_555 1_555
C19 C18 1_555 1_555
H9 C19 1_555 1_555
C20 C15 1_555 1_555
H10 C20 1_555 1_555
C21 H11 1_555 1_555
H12 C21 1_555 1_555
H13 C21 1_555 1_555
C22 H14 1_555 1_555
H15 C22 1_555 1_555
H16 C22 1_555 1_555
C23 H17 1_555 1_555
H18 C23 1_555 1_555
H19 C23 1_555 1_555
F1 C18 1_555 1_555
O1 C1 1_555 1_555
O2 C4 1_555 1_555
O3 C5 1_555 1_555
O4 C6 1_555 1_555
C7 C8 1_555 1_555
C8 O1 1_555 1_555
C13 C14 1_555 1_555
C19 C20 1_555 1_555
C21 O2 1_555 1_555
C22 O3 1_555 1_555
C23 O4 1_555 1_555

#END
