
#######################################################################
#
#                 Cambridge Crystallographic Data Centre
#                                CCDC 
#
#######################################################################
#
# If this CIF has been generated from an entry in the Cambridge 
# Structural Database, then it will include bibliographic, chemical, 
# crystal, experimental, refinement or atomic coordinate data resulting 
# from the CCDC's data processing and validation procedures.
#
#######################################################################

data_LAGKIP
_chemical_formula_moiety         'C9 H11 N2 O4 S1 1-,C5 H6 N1 1+'
_chemical_name_systematic        
'pyridinium ((benzylcarbamoyl)amino)methanesulfonate'
_symmetry_cell_setting           orthorhombic
_symmetry_space_group_name_H-M   'P c a 21'
_symmetry_Int_Tables_number      29
_space_group_name_Hall           'P 2c -2ac'
loop_
_symmetry_equiv_pos_site_id
_symmetry_equiv_pos_as_xyz
1 x,y,z
2 -x,-y,1/2+z
3 1/2-x,y,1/2+z
4 1/2+x,-y,z
_cell_length_a                   31.444(4)
_cell_length_b                   4.8418(10)
_cell_length_c                   9.516(2)
_cell_angle_alpha                90
_cell_angle_beta                 90
_cell_angle_gamma                90
_cell_volume                     1448.77
_exptl_crystal_colour            colorless
_exptl_crystal_description       block
_cell_formula_units_Z            4
loop_
_atom_site_label
_atom_site_type_symbol
_atom_site_fract_x
_atom_site_fract_y
_atom_site_fract_z
S1 S 0.06332(1) 0.64169(7) 0.02887(5)
O1 O 0.15778(4) 0.2282(2) 0.26115(14)
O2 O 0.03975(4) 0.5378(3) 0.15115(13)
O3 O 0.06880(4) 0.9387(2) 0.03291(18)
O4 O 0.04640(4) 0.5410(3) -0.10328(13)
N1 N 0.17042(5) 0.6416(3) 0.36865(16)
N2 N 0.13952(5) 0.6312(3) 0.15198(17)
C1 C 0.19761(5) 0.7242(4) 0.60345(18)
C2 C 0.16053(6) 0.7972(4) 0.6736(2)
C3 C 0.16138(6) 0.9773(4) 0.7864(2)
C4 C 0.19962(6) 1.0910(5) 0.8293(2)
C5 C 0.23673(7) 1.0217(5) 0.7600(2)
C6 C 0.23582(6) 0.8401(4) 0.6478(2)
C7 C 0.19642(7) 0.5277(4) 0.4809(2)
C8 C 0.15625(5) 0.4833(3) 0.26027(19)
C9 C 0.11609(5) 0.5037(3) 0.03968(19)
H1 H 0.1717(8) 0.817(5) 0.350(3)
H2 H 0.1402(8) 0.814(5) 0.155(3)
H3 H 0.1345(8) 0.717(5) 0.646(3)
H4 H 0.1353(7) 1.027(5) 0.831(3)
H5 H 0.2003(8) 1.201(6) 0.906(3)
H6 H 0.2639(9) 1.108(5) 0.781(3)
H7 H 0.2626(8) 0.798(5) 0.601(3)
H8 H 0.2254(8) 0.477(5) 0.449(3)
H9 H 0.1839(7) 0.352(5) 0.513(3)
H10 H 0.1154(7) 0.308(5) 0.052(2)
H11 H 0.1294(7) 0.543(5) -0.054(2)
N3 N 0.02278(5) -0.1662(3) 0.58145(18)
C10 C 0.03990(6) 0.0103(4) 0.6724(2)
C11 C 0.06783(6) 0.2069(4) 0.6259(2)
C12 C 0.07813(6) 0.2152(4) 0.4847(2)
C13 C 0.06045(6) 0.0279(4) 0.3929(2)
C14 C 0.03232(6) -0.1636(4) 0.4439(2)
H12 H 0.0049(8) -0.286(5) 0.604(3)
H13 H 0.0325(7) -0.016(5) 0.766(3)
H14 H 0.0781(8) 0.323(5) 0.694(3)
H15 H 0.0982(8) 0.351(5) 0.450(3)
H16 H 0.0681(7) 0.024(5) 0.291(3)
H17 H 0.0192(8) -0.302(5) 0.387(3)
loop_
_geom_bond_atom_site_label_1
_geom_bond_atom_site_label_2
_geom_bond_site_symmetry_1
_geom_bond_site_symmetry_2
S1 O2 1_555 1_555
O1 C8 1_555 1_555
O3 S1 1_555 1_555
O4 S1 1_555 1_555
N1 C7 1_555 1_555
N2 C8 1_555 1_555
C1 C2 1_555 1_555
C2 C3 1_555 1_555
C3 C4 1_555 1_555
C4 C5 1_555 1_555
C5 C6 1_555 1_555
C6 C1 1_555 1_555
C7 C1 1_555 1_555
C8 N1 1_555 1_555
C9 S1 1_555 1_555
N3 C10 1_555 1_555
C10 C11 1_555 1_555
C11 C12 1_555 1_555
C12 C13 1_555 1_555
C13 C14 1_555 1_555
C14 N3 1_555 1_555
H1 N1 1_555 1_555
H2 N2 1_555 1_555
H3 C2 1_555 1_555
H4 C3 1_555 1_555
H5 C4 1_555 1_555
H6 C5 1_555 1_555
H7 C6 1_555 1_555
H8 C7 1_555 1_555
H9 C7 1_555 1_555
H10 C9 1_555 1_555
H11 C9 1_555 1_555
H12 N3 1_555 1_555
H13 C10 1_555 1_555
H14 C11 1_555 1_555
H15 C12 1_555 1_555
H16 C13 1_555 1_555
H17 C14 1_555 1_555
N2 C9 1_555 1_555

#END
