
#######################################################################
#
#                 Cambridge Crystallographic Data Centre
#                                CCDC 
#
#######################################################################
#
# If this CIF has been generated from an entry in the Cambridge 
# Structural Database, then it will include bibliographic, chemical, 
# crystal, experimental, refinement or atomic coordinate data resulting 
# from the CCDC's data processing and validation procedures.
#
#######################################################################

data_LAGNAI
_chemical_name_common            
'Teaching Subset: Fundamental Chemistry, Symmetry'
_chemical_formula_moiety         'C9 H3 N3,C12 H18'
_chemical_name_systematic        '1,3,5-Tricyanobenzene hexamethylbenzene'
_symmetry_cell_setting           monoclinic
_symmetry_space_group_name_H-M   'C 2/c'
_symmetry_Int_Tables_number      15
_space_group_name_Hall           '-C 2yn'
loop_
_symmetry_equiv_pos_site_id
_symmetry_equiv_pos_as_xyz
1 x,y,z
2 1/2+x,1/2+y,z
3 -x,y,1/2-z
4 1/2-x,1/2+y,1/2-z
5 -x,-y,-z
6 1/2-x,1/2-y,-z
7 x,-y,1/2+z
8 1/2+x,1/2-y,1/2+z
_cell_length_a                   15.207(3)
_cell_length_b                   8.839(2)
_cell_length_c                   14.460(2)
_cell_angle_alpha                90
_cell_angle_beta                 110.48(7)
_cell_angle_gamma                90
_cell_volume                     1820.79
_chemical_melting_point          '255 deg.C'
_cell_formula_units_Z            4
loop_
_atom_site_label
_atom_site_type_symbol
_atom_site_fract_x
_atom_site_fract_y
_atom_site_fract_z
C1 C 0.5000 0.2449(4) 0.7500
C2 C 0.4201(2) 0.1674(3) 0.7474(2)
C3 C 0.4207(2) 0.0120(3) 0.7463(2)
C4 C 0.5000 -0.0667(4) 0.7500
C5 C 0.5000 0.4080(5) 0.7500
C6 C 0.3370(2) -0.0699(4) 0.7407(2)
N1 N 0.5000 0.5355(5) 0.7500
N2 N 0.2703(2) -0.1339(4) 0.7350(2)
H1 H 0.366(2) 0.220(3) 0.745(2)
H2 H 0.500 -0.177(5) 0.750
C2B C 0.5799(2) 0.1674(3) 0.7526(2)
C3B C 0.5793(2) 0.0120(3) 0.7537(2)
H1B H 0.634(2) 0.220(3) 0.755(2)
C6B C 0.6630(2) -0.0699(4) 0.7593(2)
N2B N 0.7297(2) -0.1339(4) 0.7650(2)
C7 C 0.5369(2) 0.1443(3) 0.5006(2)
C8 C 0.4425(2) 0.1265(3) 0.4882(3)
C9 C 0.5947(2) 0.0179(3) 0.5127(2)
C10 C 0.5753(3) 0.3026(4) 0.5014(3)
C11 C 0.3799(3) 0.2630(4) 0.4762(4)
C12 C 0.6975(2) 0.0387(5) 0.5274(3)
H3 H 0.639(3) 0.316(5) 0.550(4)
H4 H 0.528(6) 0.370(8) 0.481(6)
H5 H 0.614(3) 0.303(5) 0.461(4)
H6 H 0.371(4) 0.304(6) 0.421(4)
H7 H 0.410(4) 0.335(6) 0.527(4)
H8 H 0.325(5) 0.276(10) 0.486(6)
H9 H 0.724(4) -0.057(7) 0.512(4)
H10 H 0.732(3) 0.109(5) 0.583(3)
H11 H 0.718(3) 0.097(5) 0.472(4)
C9D C 0.4053(2) -0.0179(3) 0.4873(2)
C8D C 0.5575(2) -0.1265(3) 0.5118(3)
C7D C 0.4631(2) -0.1443(3) 0.4994(2)
C12D C 0.3025(2) -0.0387(5) 0.4726(3)
C11D C 0.6201(3) -0.2630(4) 0.5238(4)
C10D C 0.4247(3) -0.3026(4) 0.4986(3)
H9D H 0.276(4) 0.057(7) 0.488(4)
H10D H 0.268(3) -0.109(5) 0.417(3)
H11D H 0.282(3) -0.097(5) 0.528(4)
H6D H 0.629(4) -0.304(6) 0.579(4)
H7D H 0.590(4) -0.335(6) 0.473(4)
H8D H 0.675(5) -0.276(10) 0.514(6)
H3D H 0.361(3) -0.316(5) 0.450(4)
H4D H 0.472(6) -0.370(8) 0.519(6)
H5D H 0.386(3) -0.303(5) 0.539(4)
loop_
_geom_bond_atom_site_label_1
_geom_bond_atom_site_label_2
_geom_bond_site_symmetry_1
_geom_bond_site_symmetry_2
C1 C2 1_555 1_555
C2 C3 1_555 1_555
C3 C4 1_555 1_555
C4 H2 1_555 1_555
C5 C1 1_555 1_555
C6 C3 1_555 1_555
N1 C5 1_555 1_555
N2 C6 1_555 1_555
H1 C2 1_555 1_555
C7 C8 1_555 1_555
C8 C11 1_555 1_555
C9 C7 1_555 1_555
C10 C7 1_555 1_555
C11 H6 1_555 1_555
C12 C9 1_555 1_555
H3 C10 1_555 1_555
H4 C10 1_555 1_555
H5 C10 1_555 1_555
H7 C11 1_555 1_555
H8 C11 1_555 1_555
H9 C12 1_555 1_555
H10 C12 1_555 1_555
H11 C12 1_555 1_555
C2B C1 1_555 1_555
C3B C4 1_555 1_555
H1B C2B 1_555 1_555
C6B C3B 1_555 1_555
N2B C6B 1_555 1_555
C9D C8 1_555 1_555
C8D C9 1_555 1_555
C7D C9D 1_555 1_555
C12D C9D 1_555 1_555
C11D C8D 1_555 1_555
C10D C7D 1_555 1_555
H9D C12D 1_555 1_555
H10D C12D 1_555 1_555
H11D C12D 1_555 1_555
H6D C11D 1_555 1_555
H7D C11D 1_555 1_555
H8D C11D 1_555 1_555
H3D C10D 1_555 1_555
H4D C10D 1_555 1_555
H5D C10D 1_555 1_555
C2B C3B 1_555 1_555
C8D C7D 1_555 1_555

#END
