
#######################################################################
#
#                 Cambridge Crystallographic Data Centre
#                                CCDC 
#
#######################################################################
#
# If this CIF has been generated from an entry in the Cambridge 
# Structural Database, then it will include bibliographic, chemical, 
# crystal, experimental, refinement or atomic coordinate data resulting 
# from the CCDC's data processing and validation procedures.
#
#######################################################################

data_LAGQES
_chemical_compound_source        'endolichenic fungus Myxotrichum sp.'
_chemical_formula_moiety         'C11 H12 O4'
_chemical_name_systematic        
(7R,8S)-7,8-Dihydroxy-3,7-dimethyl-7,8-dihydro-6H-isochromen-6-one
_chemical_properties_biological  'seedling growth inhibition activity'
_symmetry_cell_setting           monoclinic
_symmetry_space_group_name_H-M   'P 21'
_symmetry_Int_Tables_number      4
_space_group_name_Hall           'P 2yb'
loop_
_symmetry_equiv_pos_site_id
_symmetry_equiv_pos_as_xyz
1 x,y,z
2 -x,1/2+y,-z
_cell_length_a                   10.45029(14)
_cell_length_b                   12.10356(17)
_cell_length_c                   15.9859(2)
_cell_angle_alpha                90
_cell_angle_beta                 97.5509(13)
_cell_angle_gamma                90
_cell_volume                     2004.45
_cell_formula_units_Z            8
loop_
_atom_site_label
_atom_site_type_symbol
_atom_site_fract_x
_atom_site_fract_y
_atom_site_fract_z
O1 O -0.15977(12) -0.83742(11) 0.44879(9)
H1 H -0.1874 -0.7736 0.4566
O2 O 0.35377(12) -0.98238(11) 0.34749(8)
O3 O -0.01107(12) -1.02651(10) 0.41820(8)
H2 H 0.0022 -1.0645 0.4625
O4 O -0.05868(13) -0.64110(11) 0.43793(10)
C1 C 0.04248(16) -0.92055(14) 0.43357(10)
H3 H 0.0632 -0.9112 0.4960
C2 C -0.05433(16) -0.83080(14) 0.40110(11)
C3 C 0.34139(17) -0.78765(16) 0.36321(11)
H4 H 0.3810 -0.7173 0.3607
C4 C 0.21363(16) -0.79482(14) 0.38640(11)
C5 C 0.53883(18) -0.88228(19) 0.32096(12)
H5 H 0.5349 -0.9060 0.2621
H6 H 0.5913 -0.9346 0.3576
H7 H 0.5777 -0.8086 0.3275
C6 C 0.40600(17) -0.87863(16) 0.34491(11)
C7 C 0.16640(16) -0.90597(14) 0.39533(10)
C8 C 0.01010(17) -0.71693(14) 0.41651(11)
C9 C -0.10190(17) -0.84397(17) 0.30706(12)
H8 H -0.1618 -0.7839 0.2885
H9 H -0.1463 -0.9151 0.2973
H10 H -0.0281 -0.8414 0.2751
C10 C 0.23660(16) -0.99224(15) 0.37552(11)
H11 H 0.2029 -1.0643 0.3813
C11 C 0.14083(18) -0.70419(15) 0.40247(11)
H12 H 0.1783 -0.6326 0.4042
O5 O -0.85577(12) -0.91517(10) 0.67039(8)
O6 O -0.36847(12) -0.73566(10) 0.52255(9)
O7 O -0.54062(12) -1.07943(10) 0.60079(8)
H13 H -0.5666 -1.1233 0.5615
O8 O -0.34336(13) -0.95822(11) 0.53518(9)
H14 H -0.2903 -0.9120 0.5209
C12 C -0.65979(16) -0.90986(14) 0.60973(10)
C13 C -0.45353(16) -0.78436(14) 0.55559(11)
C14 C -0.57139(16) -0.73178(15) 0.57165(11)
H15 H -0.5822 -0.6547 0.5619
C15 C -0.78643(16) -0.74349(14) 0.62118(11)
H16 H -0.8020 -0.6669 0.6118
C16 C -0.66859(16) -0.79099(14) 0.60080(10)
C17 C -0.42794(16) -0.90521(14) 0.58487(11)
C18 C -0.36973(17) -0.90596(16) 0.67797(12)
H17 H -0.2888 -0.8641 0.6849
H18 H -0.3526 -0.9823 0.6965
H19 H -0.4306 -0.8720 0.7120
C19 C -0.87526(17) -0.80526(15) 0.65333(11)
C20 C -0.75062(16) -0.96496(15) 0.64495(11)
H20 H -0.7410 -1.0425 0.6525
C21 C -0.55567(16) -0.96941(14) 0.57111(11)
H21 H -0.5835 -0.9730 0.5089
C22 C -1.00471(17) -0.76931(16) 0.67182(12)
H22 H -1.0137 -0.7865 0.7307
H23 H -1.0717 -0.8082 0.6344
H24 H -1.0140 -0.6895 0.6626
O9 O 0.37839(12) -1.00683(11) -0.02091(9)
O10 O 0.85779(12) -1.19391(11) -0.17500(8)
O11 O 0.54670(12) -1.35359(10) -0.09800(8)
H25 H 0.5689 -1.3986 -0.0587
C23 C 0.57885(17) -1.00610(15) -0.07318(11)
H26 H 0.5898 -0.9287 -0.0656
O12 O 0.36163(13) -1.23115(11) -0.02050(9)
H27 H 0.3054 -1.1865 -0.0082
C24 C 0.36931(18) -1.18240(16) -0.16703(13)
H28 H 0.2920 -1.1359 -0.1714
H29 H 0.3444 -1.2585 -0.1824
H30 H 0.4277 -1.1545 -0.2054
C25 C 0.78688(16) -1.01936(14) -0.13172(10)
H31 H 0.8015 -0.9421 -0.1259
C26 C 0.67329(16) -1.06610(14) -0.10386(10)
C27 C 0.87267(17) -1.08168(15) -0.16564(11)
C28 C 0.66661(16) -1.18563(14) -0.10893(10)
C29 C 0.43788(16) -1.17970(14) -0.07615(12)
C30 C 0.46373(16) -1.05742(14) -0.05221(11)
C31 C 0.99334(19) -1.04381(17) -0.19694(14)
H32 H 0.9919 -1.0659 -0.2560
H33 H 1.0681 -1.0774 -0.1628
H34 H 0.9995 -0.9632 -0.1925
C32 C 0.56509(16) -1.24410(14) -0.06707(11)
H35 H 0.5974 -1.2490 -0.0055
C33 C 0.75610(16) -1.24206(15) -0.14408(11)
H36 H 0.7481 -1.3202 -0.1476
O13 O 0.15823(13) -1.10582(11) 0.03545(9)
H37 H 0.1889 -1.0441 0.0247
O14 O 0.03009(12) -1.28835(10) 0.10148(8)
H38 H 0.0192 -1.3358 0.0628
O15 O -0.33753(11) -1.24163(11) 0.16756(8)
O16 O 0.05173(12) -0.90948(11) 0.03427(9)
C34 C -0.39261(17) -1.13918(16) 0.16330(11)
C35 C 0.06118(16) -1.09108(14) 0.08922(11)
C36 C -0.33202(17) -1.05020(15) 0.13602(11)
H39 H -0.3741 -0.9805 0.1336
C37 C -0.01053(17) -0.98231(14) 0.06515(11)
C38 C -0.03165(16) -1.18885(14) 0.07302(11)
H40 H -0.0564 -1.1952 0.0106
C39 C -0.13913(17) -0.96999(14) 0.08405(11)
H41 H -0.1795 -0.8996 0.0782
C40 C -0.22050(16) -1.25299(15) 0.13987(11)
H42 H -0.1840 -1.3249 0.1403
C41 C -0.20579(16) -1.05825(15) 0.11065(10)
C42 C -0.15360(16) -1.16961(14) 0.11217(10)
C43 C 0.12230(17) -1.08267(15) 0.18101(12)
H43 H 0.1810 -1.0192 0.1876
H44 H 0.1707 -1.1504 0.1971
H45 H 0.0545 -1.0730 0.2173
C44 C -0.52455(17) -1.14091(18) 0.18939(13)
H46 H -0.5187 -1.1621 0.2489
H47 H -0.5783 -1.1945 0.1548
H48 H -0.5633 -1.0673 0.1816
loop_
_geom_bond_atom_site_label_1
_geom_bond_atom_site_label_2
_geom_bond_site_symmetry_1
_geom_bond_site_symmetry_2
O1 H1 1_555 1_555
O2 C6 1_555 1_555
O3 H2 1_555 1_555
O4 C8 1_555 1_555
C1 O3 1_555 1_555
H3 C1 1_555 1_555
C2 O1 1_555 1_555
C3 H4 1_555 1_555
C4 C3 1_555 1_555
C5 H5 1_555 1_555
H6 C5 1_555 1_555
H7 C5 1_555 1_555
C6 C3 1_555 1_555
C7 C1 1_555 1_555
C8 C2 1_555 1_555
C9 C2 1_555 1_555
H8 C9 1_555 1_555
H9 C9 1_555 1_555
H10 C9 1_555 1_555
C10 O2 1_555 1_555
H11 C10 1_555 1_555
C11 C4 1_555 1_555
H12 C11 1_555 1_555
O5 C19 1_555 1_555
O6 C13 1_555 1_555
O7 H13 1_555 1_555
O8 H14 1_555 1_555
C12 C16 1_555 1_555
C13 C14 1_555 1_555
C14 H15 1_555 1_555
C15 H16 1_555 1_555
C16 C14 1_555 1_555
C17 O8 1_555 1_555
C18 C17 1_555 1_555
H17 C18 1_555 1_555
H18 C18 1_555 1_555
H19 C18 1_555 1_555
C19 C15 1_555 1_555
C20 O5 1_555 1_555
H20 C20 1_555 1_555
C21 O7 1_555 1_555
H21 C21 1_555 1_555
C22 C19 1_555 1_555
H22 C22 1_555 1_555
H23 C22 1_555 1_555
H24 C22 1_555 1_555
O9 C30 1_555 1_555
O10 C27 1_555 1_555
O11 H25 1_555 1_555
C23 H26 1_555 1_555
O12 H27 1_555 1_555
C24 H28 1_555 1_555
H29 C24 1_555 1_555
H30 C24 1_555 1_555
C25 H31 1_555 1_555
C26 C23 1_555 1_555
C27 C25 1_555 1_555
C28 C26 1_555 1_555
C29 O12 1_555 1_555
C30 C23 1_555 1_555
C31 C27 1_555 1_555
H32 C31 1_555 1_555
H33 C31 1_555 1_555
H34 C31 1_555 1_555
C32 O11 1_555 1_555
H35 C32 1_555 1_555
C33 O10 1_555 1_555
H36 C33 1_555 1_555
O13 H37 1_555 1_555
O14 H38 1_555 1_555
O15 C34 1_555 1_555
O16 C37 1_555 1_555
C34 C36 1_555 1_555
C35 O13 1_555 1_555
C36 H39 1_555 1_555
C37 C35 1_555 1_555
C38 O14 1_555 1_555
H40 C38 1_555 1_555
C39 C37 1_555 1_555
H41 C39 1_555 1_555
C40 O15 1_555 1_555
H42 C40 1_555 1_555
C41 C36 1_555 1_555
C42 C38 1_555 1_555
C43 C35 1_555 1_555
H43 C43 1_555 1_555
H44 C43 1_555 1_555
H45 C43 1_555 1_555
C44 C34 1_555 1_555
H46 C44 1_555 1_555
H47 C44 1_555 1_555
H48 C44 1_555 1_555
C1 C2 1_555 1_555
C4 C7 1_555 1_555
C5 C6 1_555 1_555
C7 C10 1_555 1_555
C8 C11 1_555 1_555
C12 C20 1_555 1_555
C12 C21 1_555 1_555
C13 C17 1_555 1_555
C15 C16 1_555 1_555
C17 C21 1_555 1_555
C24 C29 1_555 1_555
C25 C26 1_555 1_555
C28 C32 1_555 1_555
C28 C33 1_555 1_555
C29 C30 1_555 1_555
C29 C32 1_555 1_555
C35 C38 1_555 1_555
C39 C41 1_555 1_555
C40 C42 1_555 1_555
C41 C42 1_555 1_555

#END
