
#######################################################################
#
#                 Cambridge Crystallographic Data Centre
#                                CCDC 
#
#######################################################################
#
# If this CIF has been generated from an entry in the Cambridge 
# Structural Database, then it will include bibliographic, chemical, 
# crystal, experimental, refinement or atomic coordinate data resulting 
# from the CCDC's data processing and validation procedures.
#
#######################################################################

data_LAGSUI
_chemical_formula_moiety         'C14 H14 F3 N1 O2'
_chemical_name_systematic        
3-Benzyl-4-hydroxy-4-trifluoromethyl-3-azabicyclo(3.2.0)heptane-2-one
_symmetry_cell_setting           triclinic
_symmetry_space_group_name_H-M   'P -1'
_symmetry_Int_Tables_number      2
_space_group_name_Hall           '-P 1'
loop_
_symmetry_equiv_pos_site_id
_symmetry_equiv_pos_as_xyz
1 x,y,z
2 -x,-y,-z
_cell_length_a                   6.4271(3)
_cell_length_b                   7.7669(4)
_cell_length_c                   14.1095(8)
_cell_angle_alpha                95.290(2)
_cell_angle_beta                 94.206(2)
_cell_angle_gamma                111.866(2)
_cell_volume                     646.438
_exptl_crystal_colour            colorless
_cell_formula_units_Z            2
loop_
_atom_site_label
_atom_site_type_symbol
_atom_site_fract_x
_atom_site_fract_y
_atom_site_fract_z
C1 C -0.0002(3) 0.2977(3) 0.31736(13)
N1 N 0.1963(2) 0.2868(2) 0.27524(11)
C2 C 0.3913(3) 0.4326(3) 0.30835(14)
C3 C 0.3419(3) 0.5773(3) 0.37164(15)
H1 H 0.4164 0.6076 0.4392
C4 C 0.0825(3) 0.5037(3) 0.35917(13)
H2 H 0.0153 0.5274 0.4183
C5 C 0.0961(3) 0.6426(3) 0.28580(16)
H3 H 0.0633 0.5838 0.2182
H4 H 0.0056 0.7194 0.2985
C6 C 0.3501(3) 0.7459(3) 0.31980(17)
H5 H 0.3866 0.8631 0.3635
H6 H 0.4467 0.7667 0.2671
O1 O 0.5783(2) 0.4457(2) 0.28848(12)
O2 O -0.1886(2) 0.23044(19) 0.24913(10)
H7 H -0.2686 0.2935 0.2582
C7 C -0.0512(4) 0.1724(3) 0.39725(15)
F1 F -0.0954(2) -0.00700(17) 0.36584(10)
F2 F -0.2311(2) 0.17612(19) 0.43896(10)
F3 F 0.1220(2) 0.2279(2) 0.46711(9)
C8 C 0.1862(3) 0.1336(3) 0.20310(14)
H8 H 0.0359 0.0310 0.1986
H9 H 0.3008 0.0841 0.2244
C9 C 0.2270(3) 0.1939(3) 0.10506(14)
C10 C 0.0816(4) 0.2600(3) 0.05715(15)
H10 H -0.0425 0.2696 0.0867
C11 C 0.1161(4) 0.3121(3) -0.03370(16)
H11 H 0.0158 0.3575 -0.0659
C12 C 0.2961(4) 0.2983(3) -0.07763(15)
H12 H 0.3196 0.3341 -0.1398
C13 C 0.4402(4) 0.2325(3) -0.03067(16)
H13 H 0.5635 0.2222 -0.0606
C14 C 0.4066(3) 0.1805(3) 0.06082(15)
H14 H 0.5076 0.1357 0.0929
loop_
_geom_bond_atom_site_label_1
_geom_bond_atom_site_label_2
_geom_bond_site_symmetry_1
_geom_bond_site_symmetry_2
C1 N1 1_555 1_555
N1 C2 1_555 1_555
C2 C3 1_555 1_555
C3 H1 1_555 1_555
C4 C1 1_555 1_555
H2 C4 1_555 1_555
C5 C4 1_555 1_555
H3 C5 1_555 1_555
H4 C5 1_555 1_555
C6 C3 1_555 1_555
H5 C6 1_555 1_555
H6 C6 1_555 1_555
O1 C2 1_555 1_555
O2 C1 1_555 1_555
H7 O2 1_555 1_555
C7 C1 1_555 1_555
F1 C7 1_555 1_555
F2 C7 1_555 1_555
F3 C7 1_555 1_555
C8 N1 1_555 1_555
H8 C8 1_555 1_555
H9 C8 1_555 1_555
C9 C8 1_555 1_555
C10 C9 1_555 1_555
H10 C10 1_555 1_555
C11 C10 1_555 1_555
H11 C11 1_555 1_555
C12 C11 1_555 1_555
H12 C12 1_555 1_555
C13 C12 1_555 1_555
H13 C13 1_555 1_555
C14 C9 1_555 1_555
H14 C14 1_555 1_555
C3 C4 1_555 1_555
C5 C6 1_555 1_555
C13 C14 1_555 1_555

#END
