
#######################################################################
#
#                 Cambridge Crystallographic Data Centre
#                                CCDC 
#
#######################################################################
#
# If this CIF has been generated from an entry in the Cambridge 
# Structural Database, then it will include bibliographic, chemical, 
# crystal, experimental, refinement or atomic coordinate data resulting 
# from the CCDC's data processing and validation procedures.
#
#######################################################################

data_LAGXIB
_chemical_formula_moiety         'C23 H26 O6 S1'
_chemical_name_systematic        
'8-Methyl-4-phenyl-4-((phenylsulfonyl)methyl)-2,3-dioxabicyclo[3.3.1]non-8-yl acetate'
_symmetry_cell_setting           monoclinic
_symmetry_space_group_name_H-M   'P 21/c'
_symmetry_Int_Tables_number      14
_space_group_name_Hall           '-P 2ybc'
loop_
_symmetry_equiv_pos_site_id
_symmetry_equiv_pos_as_xyz
1 x,y,z
2 x,1/2-y,1/2+z
3 -x,-y,-z
4 -x,1/2+y,1/2-z
_cell_length_a                   5.8206(5)
_cell_length_b                   11.2647(9)
_cell_length_c                   31.491(3)
_cell_angle_alpha                90
_cell_angle_beta                 91.9450(10)
_cell_angle_gamma                90
_cell_volume                     2063.59
_cell_formula_units_Z            4
loop_
_atom_site_label
_atom_site_type_symbol
_atom_site_fract_x
_atom_site_fract_y
_atom_site_fract_z
C1 C 0.7951(3) 0.35950(18) 0.00188(6)
H1 H 0.7990 0.4240 -0.0199
C2 C 0.8028(3) 0.29445(16) 0.08959(5)
C3 C 0.5803(3) 0.28167(17) 0.06136(5)
H2 H 0.4446 0.2944 0.0795
C4 C 0.5566(3) 0.16013(17) 0.03986(6)
H3 H 0.4018 0.1544 0.0260
H4 H 0.5678 0.0978 0.0620
C5 C 0.7376(3) 0.13492(18) 0.00648(6)
H5 H 0.8807 0.1079 0.0214
H6 H 0.6816 0.0688 -0.0118
C6 C 0.7959(3) 0.24029(18) -0.02203(6)
C7 C 0.5779(3) 0.37668(17) 0.02657(5)
H7 H 0.4402 0.3675 0.0075
H8 H 0.5755 0.4570 0.0393
C8 C 1.0208(3) 0.2226(2) -0.04430(6)
H9 H 1.0195 0.1451 -0.0585
H10 H 1.1491 0.2259 -0.0234
H11 H 1.0388 0.2854 -0.0655
C9 C 0.8063(3) 0.41721(16) 0.11110(5)
H12 H 0.6550 0.4286 0.1239
H13 H 0.8180 0.4774 0.0884
C10 C 0.8227(3) 0.19371(16) 0.12164(5)
C11 C 1.0073(3) 0.11540(17) 0.12384(6)
H14 H 1.1283 0.1229 0.1045
C12 C 1.0148(3) 0.02591(18) 0.15434(6)
H15 H 1.1414 -0.0273 0.1558
C13 C 0.8386(3) 0.01384(18) 0.18265(6)
H16 H 0.8458 -0.0464 0.2038
C14 C 0.6520(3) 0.09028(18) 0.17992(6)
H17 H 0.5297 0.0814 0.1989
C15 C 0.6429(3) 0.17912(17) 0.14979(6)
H18 H 0.5141 0.2309 0.1481
C16 C 0.5762(3) 0.1935(2) -0.08785(6)
C17 C 0.4455(4) 0.2533(2) -0.12319(6)
H19 H 0.5482 0.3067 -0.1382
H20 H 0.3189 0.2992 -0.1116
H21 H 0.3833 0.1935 -0.1430
C18 C 0.9409(3) 0.37990(17) 0.19832(5)
C19 C 0.7379(3) 0.41428(18) 0.21732(6)
H22 H 0.6434 0.4748 0.2050
C20 C 0.6771(3) 0.35824(19) 0.25453(6)
H23 H 0.5395 0.3802 0.2679
C21 C 0.8169(4) 0.27019(19) 0.27230(6)
H24 H 0.7739 0.2321 0.2978
C22 C 1.0183(3) 0.23741(18) 0.25330(6)
H25 H 1.1133 0.1774 0.2658
C23 C 1.0815(3) 0.29229(17) 0.21589(6)
H26 H 1.2191 0.2700 0.2026
O1 O 0.9936(2) 0.37512(12) 0.03019(4)
O2 O 1.0003(2) 0.28240(12) 0.06324(4)
O3 O 1.2420(2) 0.40521(13) 0.13951(4)
O4 O 1.0005(2) 0.57760(12) 0.15767(4)
O5 O 0.6120(2) 0.26664(13) -0.05449(4)
O6 O 0.6444(3) 0.09232(14) -0.08924(5)
S1 S 1.02164(7) 0.45137(4) 0.150996(13)
loop_
_geom_bond_atom_site_label_1
_geom_bond_atom_site_label_2
_geom_bond_site_symmetry_1
_geom_bond_site_symmetry_2
C1 H1 1_555 1_555
C2 C3 1_555 1_555
C3 H2 1_555 1_555
C4 C3 1_555 1_555
H3 C4 1_555 1_555
H4 C4 1_555 1_555
C5 C4 1_555 1_555
H5 C5 1_555 1_555
H6 C5 1_555 1_555
C6 C1 1_555 1_555
C7 C1 1_555 1_555
H7 C7 1_555 1_555
H8 C7 1_555 1_555
C8 C6 1_555 1_555
H9 C8 1_555 1_555
H10 C8 1_555 1_555
H11 C8 1_555 1_555
C9 C2 1_555 1_555
H12 C9 1_555 1_555
H13 C9 1_555 1_555
C10 C2 1_555 1_555
C11 C10 1_555 1_555
H14 C11 1_555 1_555
C12 C11 1_555 1_555
H15 C12 1_555 1_555
C13 C12 1_555 1_555
H16 C13 1_555 1_555
C14 C13 1_555 1_555
H17 C14 1_555 1_555
C15 C10 1_555 1_555
H18 C15 1_555 1_555
C16 C17 1_555 1_555
C17 H19 1_555 1_555
H20 C17 1_555 1_555
H21 C17 1_555 1_555
C18 C19 1_555 1_555
C19 H22 1_555 1_555
C20 C19 1_555 1_555
H23 C20 1_555 1_555
C21 C20 1_555 1_555
H24 C21 1_555 1_555
C22 C21 1_555 1_555
H25 C22 1_555 1_555
C23 C18 1_555 1_555
H26 C23 1_555 1_555
O1 C1 1_555 1_555
O2 C2 1_555 1_555
O3 S1 1_555 1_555
O4 S1 1_555 1_555
O5 C6 1_555 1_555
O6 C16 1_555 1_555
S1 C9 1_555 1_555
C3 C7 1_555 1_555
C5 C6 1_555 1_555
C14 C15 1_555 1_555
C16 O5 1_555 1_555
C18 S1 1_555 1_555
C22 C23 1_555 1_555
O1 O2 1_555 1_555

#END
