
#######################################################################
#
#                 Cambridge Crystallographic Data Centre
#                                CCDC 
#
#######################################################################
#
# If this CIF has been generated from an entry in the Cambridge 
# Structural Database, then it will include bibliographic, chemical, 
# crystal, experimental, refinement or atomic coordinate data resulting 
# from the CCDC's data processing and validation procedures.
#
#######################################################################

data_LAHBUS
_chemical_formula_moiety         'C13 H5 F4 N1'
_chemical_name_systematic        4-(Phenylethynyl)-2,3,5,6-tetrafluoropyridine
_symmetry_cell_setting           orthorhombic
_symmetry_space_group_name_H-M   'P 21 21 21'
_symmetry_Int_Tables_number      19
_space_group_name_Hall           'P 2ac 2ab'
loop_
_symmetry_equiv_pos_site_id
_symmetry_equiv_pos_as_xyz
1 x,y,z
2 1/2-x,-y,1/2+z
3 -x,1/2+y,1/2-z
4 1/2+x,1/2-y,-z
_cell_length_a                   5.0314(15)
_cell_length_b                   8.831(3)
_cell_length_c                   23.579(7)
_cell_angle_alpha                90
_cell_angle_beta                 90
_cell_angle_gamma                90
_cell_volume                     1047.67
_exptl_crystal_colour            colorless
_exptl_crystal_description       plate
_chemical_melting_point          '378-378 K'
_cell_formula_units_Z            4
_exptl_crystal_recrystallization_method hexane
_exptl_crystal_preparation       luminescent
loop_
_atom_site_label
_atom_site_type_symbol
_atom_site_fract_x
_atom_site_fract_y
_atom_site_fract_z
N1 N 1.0467(3) 0.65290(19) 0.02341(7)
F1 F 1.0855(3) 0.82397(14) 0.09380(6)
F2 F 0.6767(3) 0.69974(14) 0.15141(5)
F3 F 0.5974(3) 0.34421(14) 0.00255(5)
F4 F 1.0151(3) 0.48358(15) -0.04758(5)
C1 C 0.9600(4) 0.7038(2) 0.07186(8)
C2 C 0.7499(4) 0.6411(2) 0.10156(7)
C3 C 0.6198(3) 0.51535(19) 0.07958(7)
C4 C 0.7125(4) 0.4628(2) 0.02744(7)
C5 C 0.9252(4) 0.5353(2) 0.00207(7)
C6 C 0.4081(4) 0.4425(2) 0.10911(8)
C7 C 0.2352(4) 0.3790(2) 0.13458(7)
C8 C 0.0278(3) 0.30298(19) 0.16542(7)
C9 C -0.0533(4) 0.3581(2) 0.21805(8)
H1 H 0.024(6) 0.451(3) 0.2347(11)
C10 C -0.2530(4) 0.2849(2) 0.24786(8)
H2 H -0.306(5) 0.321(3) 0.2818(11)
C11 C -0.3747(4) 0.1576(2) 0.22533(8)
H3 H -0.506(6) 0.106(3) 0.2449(11)
C12 C -0.2942(4) 0.1026(2) 0.17295(8)
H4 H -0.380(5) 0.010(3) 0.1568(11)
C13 C -0.0931(4) 0.1740(2) 0.14301(7)
H5 H -0.048(5) 0.137(3) 0.1077(10)
loop_
_geom_bond_atom_site_label_1
_geom_bond_atom_site_label_2
_geom_bond_site_symmetry_1
_geom_bond_site_symmetry_2
N1 C1 1_555 1_555
F1 C1 1_555 1_555
F2 C2 1_555 1_555
F3 C4 1_555 1_555
F4 C5 1_555 1_555
C1 C2 1_555 1_555
C2 C3 1_555 1_555
C3 C4 1_555 1_555
C4 C5 1_555 1_555
C5 N1 1_555 1_555
C6 C3 1_555 1_555
C7 C6 1_555 1_555
C8 C7 1_555 1_555
C9 C8 1_555 1_555
H1 C9 1_555 1_555
C10 C9 1_555 1_555
H2 C10 1_555 1_555
C11 C10 1_555 1_555
H3 C11 1_555 1_555
C12 C11 1_555 1_555
H4 C12 1_555 1_555
C13 C8 1_555 1_555
H5 C13 1_555 1_555
C12 C13 1_555 1_555

#END
