
#######################################################################
#
#                 Cambridge Crystallographic Data Centre
#                                CCDC 
#
#######################################################################
#
# If this CIF has been generated from an entry in the Cambridge 
# Structural Database, then it will include bibliographic, chemical, 
# crystal, experimental, refinement or atomic coordinate data resulting 
# from the CCDC's data processing and validation procedures.
#
#######################################################################

data_LAHGUW
_chemical_formula_moiety         'C34 H28'
_chemical_name_systematic        
1-(5-Phenylpenta-2(E),4(E)-dienylidene)-2-(5-phenylpenta-1(Z),4(E)-dienyl)acenaphthene
_symmetry_cell_setting           monoclinic
_symmetry_space_group_name_H-M   'P 21/c'
_symmetry_Int_Tables_number      14
_space_group_name_Hall           '-P 2ybc'
loop_
_symmetry_equiv_pos_site_id
_symmetry_equiv_pos_as_xyz
1 x,y,z
2 -x,1/2+y,1/2-z
3 -x,-y,-z
4 x,1/2-y,1/2+z
_cell_length_a                   33.217(6)
_cell_length_b                   5.513(1)
_cell_length_c                   27.033(4)
_cell_angle_alpha                90
_cell_angle_beta                 96.73(2)
_cell_angle_gamma                90
_cell_volume                     4916.32
_exptl_crystal_colour            yellow
_chemical_melting_point          153-155deg.C
_cell_formula_units_Z            8
loop_
_atom_site_label
_atom_site_type_symbol
_atom_site_fract_x
_atom_site_fract_y
_atom_site_fract_z
C1 C 0.1248(1) 0.6412(8) 0.0699(2)
C2 C 0.1662(1) 0.6611(9) 0.0787(2)
C3 C 0.1837(1) 0.8520(9) 0.1049(2)
C4 C 0.1595(1) 1.0250(9) 0.1237(2)
C5 C 0.1177(1) 1.0051(8) 0.1148(2)
C6 C 0.0995(1) 0.8144(8) 0.0875(1)
C7 C 0.0550(1) 0.7926(9) 0.0759(2)
C8 C 0.0281(1) 0.9669(9) 0.0789(2)
C9 C -0.0171(1) 0.9524(8) 0.0652(2)
C10 C -0.0321(1) 0.7247(8) 0.0409(2)
C11 C -0.0638(1) 0.5939(8) 0.0504(1)
C12 C -0.0921(1) 0.6438(8) 0.0889(1)
C13 C -0.1355(1) 0.6791(8) 0.0640(1)
C14 C -0.1520(1) 0.8374(8) 0.0284(2)
C15 C -0.1942(1) 0.8208(9) 0.0125(2)
C16 C -0.2185(1) 0.6523(9) 0.0311(2)
C17 C -0.2019(1) 0.4846(8) 0.0672(1)
C18 C -0.2221(1) 0.2973(8) 0.0902(2)
C19 C -0.2015(1) 0.1512(8) 0.1245(2)
C20 C -0.1596(1) 0.1723(8) 0.1395(1)
C21 C -0.1389(1) 0.3540(8) 0.1179(1)
C22 C -0.1604(1) 0.5043(8) 0.0825(1)
C23 C -0.0965(1) 0.4324(8) 0.1248(1)
C24 C -0.0665(1) 0.3422(9) 0.1573(1)
C25 C -0.0249(1) 0.4209(9) 0.1648(2)
C26 C 0.0041(1) 0.3191(9) 0.1958(2)
C27 C 0.0462(1) 0.3885(9) 0.2017(2)
C28 C 0.0750(1) 0.2706(9) 0.2303(2)
C29 C 0.1187(1) 0.3146(8) 0.2376(1)
C30 C 0.1371(1) 0.5141(9) 0.2179(2)
C31 C 0.1785(1) 0.5411(9) 0.2253(2)
C32 C 0.2025(1) 0.3725(9) 0.2525(2)
C33 C 0.1851(1) 0.1769(9) 0.2724(2)
C34 C 0.1435(1) 0.1494(8) 0.2651(1)
H1 H 0.1130 0.5059 0.0511
H2 H 0.1833 0.5404 0.0663
H3 H 0.2126 0.8660 0.1106
H4 H 0.1715 1.1608 0.1422
H5 H 0.1009 1.1226 0.1287
H6 H 0.0445 0.6370 0.0649
H7 H 0.0393 1.1180 0.0917
H8 H -0.0252 1.0830 0.0427
H9 H -0.0304 0.9746 0.0945
H10 H -0.0162 0.6625 0.0163
H11 H -0.0697 0.4499 0.0310
H12 H -0.0832 0.7868 0.1073
H13 H -0.1353 0.9578 0.0151
H14 H -0.2059 0.9317 -0.0125
H15 H -0.2469 0.6461 0.0195
H16 H -0.2507 0.2747 0.0810
H17 H -0.2162 0.0264 0.1395
H18 H -0.1458 0.0644 0.1636
H19 H -0.0734 0.2111 0.1781
H20 H -0.0178 0.5585 0.1459
H21 H -0.0036 0.1877 0.2160
H22 H 0.0543 0.5270 0.1838
H23 H 0.0654 0.1368 0.2484
H24 H 0.1206 0.6308 0.1985
H25 H 0.1910 0.6794 0.2119
H26 H 0.2314 0.3916 0.2574
H27 H 0.2017 0.0603 0.2918
H28 H 0.1312 0.0103 0.2786
C35 C 0.6279(1) 0.1379(9) 0.4921(2)
C36 C 0.6696(2) 0.1529(10) 0.5040(2)
C37 C 0.6913(2) 0.3401(10) 0.4858(2)
C38 C 0.6706(2) 0.5116(10) 0.4568(2)
C39 C 0.6292(1) 0.5031(9) 0.4453(2)
C40 C 0.6069(1) 0.3143(9) 0.4630(2)
C41 C 0.5620(1) 0.2961(9) 0.4527(2)
C42 C 0.5366(1) 0.4690(9) 0.4367(2)
C43 C 0.4914(1) 0.4580(9) 0.4272(2)
C44 C 0.4737(1) 0.2266(9) 0.4415(2)
C45 C 0.4452(1) 0.0978(9) 0.4146(2)
C46 C 0.4238(1) 0.1583(8) 0.3644(1)
C47 C 0.3787(1) 0.1946(8) 0.3678(2)
C48 C 0.3585(1) 0.3509(9) 0.3958(2)
C49 C 0.3161(1) 0.3361(9) 0.3917(2)
C50 C 0.2942(1) 0.1706(9) 0.3618(2)
C51 C 0.3141(1) 0.0018(9) 0.3333(2)
C52 C 0.2969(1) -0.1852(9) 0.3024(2)
C53 C 0.3212(1) -0.3363(9) 0.2784(2)
C54 C 0.3636(1) -0.3140(9) 0.2833(2)
C55 C 0.3813(1) -0.1308(8) 0.3128(2)
C56 C 0.3565(1) 0.0220(8) 0.3380(1)
C57 C 0.4237(1) -0.0533(8) 0.3264(2)
C58 C 0.4566(1) -0.1476(9) 0.3091(2)
C59 C 0.4977(1) -0.0751(9) 0.3229(2)
C60 C 0.5303(1) -0.1849(10) 0.3081(2)
C61 C 0.5714(1) -0.1224(9) 0.3240(2)
C62 C 0.6034(1) -0.2455(9) 0.3115(2)
C63 C 0.6468(1) -0.1999(8) 0.3268(2)
C64 C 0.6609(1) -0.0003(9) 0.3553(2)
C65 C 0.7022(2) 0.0342(10) 0.3680(2)
C66 C 0.7299(1) -0.1268(10) 0.3528(2)
C67 C 0.7162(1) -0.3211(9) 0.3248(2)
C68 C 0.6752(1) -0.3580(9) 0.3117(2)
H29 H 0.6131 0.0045 0.5039
H30 H 0.6835 0.0290 0.5242
H31 H 0.7202 0.3510 0.4942
H32 H 0.6854 0.6414 0.4437
H33 H 0.6153 0.6264 0.4249
H34 H 0.5501 0.1414 0.4584
H35 H 0.5494 0.6192 0.4297
H36 H 0.4828 0.4851 0.3925
H37 H 0.4805 0.5859 0.4457
H38 H 0.4847 0.1628 0.4732
H39 H 0.4371 -0.0521 0.4285
H40 H 0.4355 0.3014 0.3517
H41 H 0.3733 0.4665 0.4173
H42 H 0.3017 0.4465 0.4107
H43 H 0.2652 0.1665 0.3602
H44 H 0.2681 -0.2095 0.2985
H45 H 0.3086 -0.4622 0.2574
H46 H 0.3800 -0.4244 0.2667
H47 H 0.4523 -0.2721 0.2842
H48 H 0.5025 0.0603 0.3452
H49 H 0.5256 -0.3187 0.2854
H50 H 0.5766 0.0191 0.3445
H51 H 0.5969 -0.3816 0.2899
H52 H 0.6418 0.1124 0.3664
H53 H 0.7117 0.1726 0.3875
H54 H 0.7584 -0.1022 0.3616
H55 H 0.7354 -0.4350 0.3140
H56 H 0.6660 -0.4955 0.2917
loop_
_geom_bond_atom_site_label_1
_geom_bond_atom_site_label_2
_geom_bond_site_symmetry_1
_geom_bond_site_symmetry_2
C1 C2 1_555 1_555
C2 C3 1_555 1_555
C3 C4 1_555 1_555
C4 C5 1_555 1_555
C5 C6 1_555 1_555
C6 C1 1_555 1_555
C7 C6 1_555 1_555
C8 C7 1_555 1_555
C9 C8 1_555 1_555
C10 C9 1_555 1_555
C11 C10 1_555 1_555
C12 C11 1_555 1_555
C13 C12 1_555 1_555
C14 C13 1_555 1_555
C15 C14 1_555 1_555
C16 C15 1_555 1_555
C17 C16 1_555 1_555
C18 C17 1_555 1_555
C19 C18 1_555 1_555
C20 C19 1_555 1_555
C21 C20 1_555 1_555
C22 C13 1_555 1_555
C23 C12 1_555 1_555
C24 C23 1_555 1_555
C25 C24 1_555 1_555
C26 C25 1_555 1_555
C27 C26 1_555 1_555
C28 C27 1_555 1_555
C29 C28 1_555 1_555
C30 C29 1_555 1_555
C31 C30 1_555 1_555
C32 C31 1_555 1_555
C33 C32 1_555 1_555
C34 C29 1_555 1_555
H1 C1 1_555 1_555
H2 C2 1_555 1_555
H3 C3 1_555 1_555
H4 C4 1_555 1_555
H5 C5 1_555 1_555
H6 C7 1_555 1_555
H7 C8 1_555 1_555
H8 C9 1_555 1_555
H9 C9 1_555 1_555
H10 C10 1_555 1_555
H11 C11 1_555 1_555
H12 C12 1_555 1_555
H13 C14 1_555 1_555
H14 C15 1_555 1_555
H15 C16 1_555 1_555
H16 C18 1_555 1_555
H17 C19 1_555 1_555
H18 C20 1_555 1_555
H19 C24 1_555 1_555
H20 C25 1_555 1_555
H21 C26 1_555 1_555
H22 C27 1_555 1_555
H23 C28 1_555 1_555
H24 C30 1_555 1_555
H25 C31 1_555 1_555
H26 C32 1_555 1_555
H27 C33 1_555 1_555
H28 C34 1_555 1_555
C35 C36 1_555 1_555
C36 C37 1_555 1_555
C37 C38 1_555 1_555
C38 C39 1_555 1_555
C39 C40 1_555 1_555
C40 C35 1_555 1_555
C41 C40 1_555 1_555
C42 C41 1_555 1_555
C43 C42 1_555 1_555
C44 C43 1_555 1_555
C45 C44 1_555 1_555
C46 C45 1_555 1_555
C47 C46 1_555 1_555
C48 C47 1_555 1_555
C49 C48 1_555 1_555
C50 C49 1_555 1_555
C51 C50 1_555 1_555
C52 C51 1_555 1_555
C53 C52 1_555 1_555
C54 C53 1_555 1_555
C55 C54 1_555 1_555
C56 C47 1_555 1_555
C57 C46 1_555 1_555
C58 C57 1_555 1_555
C59 C58 1_555 1_555
C60 C59 1_555 1_555
C61 C60 1_555 1_555
C62 C61 1_555 1_555
C63 C62 1_555 1_555
C64 C63 1_555 1_555
C65 C64 1_555 1_555
C66 C65 1_555 1_555
C67 C66 1_555 1_555
C68 C63 1_555 1_555
H29 C35 1_555 1_555
H30 C36 1_555 1_555
H31 C37 1_555 1_555
H32 C38 1_555 1_555
H33 C39 1_555 1_555
H34 C41 1_555 1_555
H35 C42 1_555 1_555
H36 C43 1_555 1_555
H37 C43 1_555 1_555
H38 C44 1_555 1_555
H39 C45 1_555 1_555
H40 C46 1_555 1_555
H41 C48 1_555 1_555
H42 C49 1_555 1_555
H43 C50 1_555 1_555
H44 C52 1_555 1_555
H45 C53 1_555 1_555
H46 C54 1_555 1_555
H47 C58 1_555 1_555
H48 C59 1_555 1_555
H49 C60 1_555 1_555
H50 C61 1_555 1_555
H51 C62 1_555 1_555
H52 C64 1_555 1_555
H53 C65 1_555 1_555
H54 C66 1_555 1_555
H55 C67 1_555 1_555
H56 C68 1_555 1_555
C17 C22 1_555 1_555
C21 C22 1_555 1_555
C21 C23 1_555 1_555
C33 C34 1_555 1_555
C51 C56 1_555 1_555
C55 C56 1_555 1_555
C55 C57 1_555 1_555
C67 C68 1_555 1_555

#END
