
#######################################################################
#
#                 Cambridge Crystallographic Data Centre
#                                CCDC 
#
#######################################################################
#
# If this CIF has been generated from an entry in the Cambridge 
# Structural Database, then it will include bibliographic, chemical, 
# crystal, experimental, refinement or atomic coordinate data resulting 
# from the CCDC's data processing and validation procedures.
#
#######################################################################

data_LAHNUE
_chemical_compound_source        'unidentified fungus BCC 2629'
_chemical_name_common            'Enniatin N dihydrate'
_chemical_formula_moiety         'C36 H63 N3 O10,2(H2 O1)'
_chemical_name_systematic        
'6,12-Di-sec-butyl-18-(1-hydroxy-1-methylpropyl)-3,9,15-tri-isopropyl-4,10,16-trimethyl-1,7,13-trioxa-4,10,16-triaza-cyclo-octadecane-2,5,8,11,14,17-hexaone dihydrate'
_chemical_properties_biological  
'antimalarial, antituberculosis and cytotoxic activities'
_symmetry_cell_setting           trigonal
_symmetry_space_group_name_H-M   'P 31'
_symmetry_Int_Tables_number      144
_space_group_name_Hall           'P 31'
loop_
_symmetry_equiv_pos_site_id
_symmetry_equiv_pos_as_xyz
1 x,y,z
2 -y,x-y,1/3+z
3 -x+y,-x,2/3+z
_cell_length_a                   14.8277(3)
_cell_length_b                   14.8277(3)
_cell_length_c                   16.6565(3)
_cell_angle_alpha                90
_cell_angle_beta                 90
_cell_angle_gamma                120
_cell_volume                     3171.48
_exptl_crystal_colour            colorless
_exptl_crystal_description       prism
_chemical_melting_point          98-99deg.C
_cell_formula_units_Z            3
_exptl_crystal_recrystallization_method ethanol
loop_
_atom_site_label
_atom_site_type_symbol
_atom_site_fract_x
_atom_site_fract_y
_atom_site_fract_z
O1 O 0.0538(4) 0.9234(4) 0.7187(3)
O2 O 0.3025(3) 0.7117(4) 0.7111(3)
N1 N 0.5124(5) 0.9302(5) 0.7878(3)
N2 N 0.2772(4) 1.1553(5) 0.7877(3)
N3 N 0.0749(4) 0.7034(4) 0.7675(3)
O3 O 0.2530(4) 1.0661(4) 0.6719(3)
O4 O 0.5198(4) 1.1719(4) 0.7570(3)
O5 O 0.1047(5) 0.8925(4) 0.8358(4)
C1 C 0.0102(5) 0.7502(5) 0.7463(4)
O6 O 0.4845(5) 0.9970(4) 0.6763(4)
O7 O 0.1042(5) 1.1938(4) 0.7134(4)
C2 C 0.1919(6) 0.6381(6) 0.7254(5)
C3 C 0.3875(5) 1.2166(5) 0.7693(5)
C4 C 0.2164(5) 1.0845(6) 0.7318(4)
C5 C 0.0615(5) 0.8602(6) 0.7720(5)
C6 C 0.0992(5) 1.0329(5) 0.7413(4)
C7 C 0.1366(5) 0.6992(5) 0.7102(5)
C8 C 0.5159(6) 1.0093(6) 0.7448(5)
O8 O 0.1442(5) 0.7374(5) 0.6436(3)
C9 C 0.0531(6) 1.0857(6) 0.6898(5)
C10 C 0.4421(6) 1.1632(7) 0.8043(5)
C11 C 0.4744(6) 0.8292(5) 0.7485(5)
C12 C -0.1011(6) 0.6855(6) 0.7813(5)
C13 C 0.5735(6) 1.1188(6) 0.7830(5)
C14 C 0.5454(6) 0.7854(6) 0.7667(6)
C15 C 0.1595(6) 0.5471(5) 0.6665(5)
C16 C 0.3643(6) 0.7598(7) 0.7719(5)
C17 C 0.4351(6) 1.3294(6) 0.7977(6)
C18 C -0.1668(7) 0.7345(8) 0.7604(6)
C19 C -0.0647(6) 1.0329(7) 0.7049(5)
C20 C 0.0771(8) 0.6735(8) 0.8506(5)
C21 C 0.2403(7) 1.1601(7) 0.8673(5)
C22 C 0.2145(7) 0.4884(7) 0.6865(6)
C23 C -0.1110(8) 1.0970(8) 0.6727(7)
C24 C 0.6864(7) 1.1803(8) 0.7536(9)
C25 C -0.1526(7) 0.5744(7) 0.7474(7)
O10 O 0.4192(7) 1.1148(8) 0.8648(6)
C26 C 0.0791(8) 1.0904(7) 0.6032(5)
O12 O 0.3329(6) 0.7488(8) 0.8387(5)
C27 C 0.0419(7) 0.4770(8) 0.6689(7)
C28 C 0.3737(9) 1.3790(8) 0.7642(7)
C29 C 0.5346(9) 0.9391(8) 0.8743(5)
C30 C 0.6574(7) 0.8609(8) 0.7483(8)
C31 C 0.5075(8) 0.6832(8) 0.7197(8)
C32 C 0.5482(8) 1.3954(7) 0.7708(9)
C33 C 0.6964(10) 1.2057(11) 0.6681(10)
C34 C 0.7500(10) 1.2736(10) 0.8042(13)
C35 C 0.0034(9) 0.3906(9) 0.6061(7)
C36 C 0.783(2) 1.265(2) 0.8739(14)
H1 H 0.0036 0.7473 0.6889
H2 H 0.0639 1.2046 0.7398
H3 H 0.1776 0.6108 0.7791
H4 H 0.3947 1.2194 0.7120
H5 H 0.0830 1.0376 0.7964
H6 H 0.4741 0.8403 0.6917
H7 H -0.0957 0.6827 0.8385
H8 H 0.5727 1.1111 0.8402
H9 H 0.5355 0.7671 0.8226
H10 H 0.1786 0.5751 0.6133
H11 H 0.4332 1.3290 0.8554
H12 H -0.2354 0.6934 0.7823
H13 H -0.1712 0.7384 0.7031
H14 H -0.1347 0.8032 0.7828
H15 H -0.0987 0.9666 0.6783
H16 H -0.0782 1.0229 0.7615
H17 H 0.1224 0.6450 0.8551
H18 H 0.0080 0.6221 0.8664
H19 H 0.1017 0.7332 0.8849
H20 H 0.1662 1.1156 0.8696
H21 H 0.2577 1.2303 0.8791
H22 H 0.2725 1.1374 0.9061
H23 H 0.1937 0.4319 0.6494
H24 H 0.1963 0.4615 0.7400
H25 H 0.2884 0.5340 0.6830
H26 H -0.1843 1.0603 0.6835
H27 H -0.0997 1.1070 0.6159
H28 H -0.0792 1.1633 0.6991
H29 H 0.7147 1.1360 0.7649
H30 H -0.2217 0.5347 0.7687
H31 H -0.1125 0.5428 0.7632
H32 H -0.1558 0.5758 0.6899
H33 H 0.0481 1.0211 0.5820
H34 H 0.1533 1.1242 0.5972
H35 H 0.0532 1.1288 0.5744
H36 H 0.0214 0.4447 0.7207
H37 H 0.0088 0.5173 0.6590
H38 H 0.4051 1.4496 0.7826
H39 H 0.3032 1.3407 0.7831
H40 H 0.3742 1.3779 0.7065
H41 H 0.5268 0.8746 0.8935
H42 H 0.4873 0.9542 0.9025
H43 H 0.6047 0.9940 0.8835
H44 H 0.6994 0.8301 0.7603
H45 H 0.6780 0.9205 0.7820
H46 H 0.6666 0.8819 0.6930
H47 H 0.5527 0.6562 0.7318
H48 H 0.5085 0.6950 0.6629
H49 H 0.4379 0.6340 0.7362
H50 H 0.5761 1.4656 0.7894
H51 H 0.5508 1.3949 0.7132
H52 H 0.5885 1.3668 0.7923
H53 H 0.7687 1.2444 0.6537
H54 H 0.6641 1.2462 0.6562
H55 H 0.6629 1.1421 0.6380
H56 H 0.8098 1.3218 0.7739
H57 H 0.7084 1.3047 0.8168
H58 H -0.0708 0.3489 0.6105
H59 H 0.0342 0.3480 0.6151
H60 H 0.0215 0.4206 0.5534
H61 H 0.8223 1.3299 0.9020
H62 H 0.8257 1.2354 0.8632
H63 H 0.7244 1.2183 0.9062
O9 O 0.3336(5) 0.8754(6) 0.5573(4)
O11 O 0.2068(7) 0.9630(8) 0.5211(5)
loop_
_geom_bond_atom_site_label_1
_geom_bond_atom_site_label_2
_geom_bond_site_symmetry_1
_geom_bond_site_symmetry_2
O1 C5 1_555 1_555
O2 C2 1_555 1_555
N1 C8 1_555 1_555
N2 C3 1_555 1_555
N3 C1 1_555 1_555
O3 C4 1_555 1_555
O4 C10 1_555 1_555
O5 C5 1_555 1_555
C1 C5 1_555 1_555
O6 C8 1_555 1_555
O7 C9 1_555 1_555
C2 C7 1_555 1_555
C3 C10 1_555 1_555
C4 N2 1_555 1_555
C6 O1 1_555 1_555
C7 N3 1_555 1_555
C8 C13 1_555 1_555
O8 C7 1_555 1_555
C9 C6 1_555 1_555
C10 O10 1_555 1_555
C11 N1 1_555 1_555
C12 C1 1_555 1_555
C13 O4 1_555 1_555
C14 C11 1_555 1_555
C15 C2 1_555 1_555
C16 O2 1_555 1_555
C17 C3 1_555 1_555
C18 C12 1_555 1_555
C19 C9 1_555 1_555
C20 N3 1_555 1_555
C21 N2 1_555 1_555
C22 C15 1_555 1_555
C23 C19 1_555 1_555
C24 C13 1_555 1_555
C25 C12 1_555 1_555
C26 C9 1_555 1_555
O12 C16 1_555 1_555
C27 C15 1_555 1_555
C28 C17 1_555 1_555
C29 N1 1_555 1_555
C30 C14 1_555 1_555
C31 C14 1_555 1_555
C32 C17 1_555 1_555
C33 C24 1_555 1_555
C34 C24 1_555 1_555
C35 C27 1_555 1_555
C36 C34 1_555 1_555
H1 C1 1_555 1_555
H2 O7 1_555 1_555
H3 C2 1_555 1_555
H4 C3 1_555 1_555
H5 C6 1_555 1_555
H6 C11 1_555 1_555
H7 C12 1_555 1_555
H8 C13 1_555 1_555
H9 C14 1_555 1_555
H10 C15 1_555 1_555
H11 C17 1_555 1_555
H12 C18 1_555 1_555
H13 C18 1_555 1_555
H14 C18 1_555 1_555
H15 C19 1_555 1_555
H16 C19 1_555 1_555
H17 C20 1_555 1_555
H18 C20 1_555 1_555
H19 C20 1_555 1_555
H20 C21 1_555 1_555
H21 C21 1_555 1_555
H22 C21 1_555 1_555
H23 C22 1_555 1_555
H24 C22 1_555 1_555
H25 C22 1_555 1_555
H26 C23 1_555 1_555
H27 C23 1_555 1_555
H28 C23 1_555 1_555
H29 C24 1_555 1_555
H30 C25 1_555 1_555
H31 C25 1_555 1_555
H32 C25 1_555 1_555
H33 C26 1_555 1_555
H34 C26 1_555 1_555
H35 C26 1_555 1_555
H36 C27 1_555 1_555
H37 C27 1_555 1_555
H38 C28 1_555 1_555
H39 C28 1_555 1_555
H40 C28 1_555 1_555
H41 C29 1_555 1_555
H42 C29 1_555 1_555
H43 C29 1_555 1_555
H44 C30 1_555 1_555
H45 C30 1_555 1_555
H46 C30 1_555 1_555
H47 C31 1_555 1_555
H48 C31 1_555 1_555
H49 C31 1_555 1_555
H50 C32 1_555 1_555
H51 C32 1_555 1_555
H52 C32 1_555 1_555
H53 C33 1_555 1_555
H54 C33 1_555 1_555
H55 C33 1_555 1_555
H56 C34 1_555 1_555
H57 C34 1_555 1_555
H58 C35 1_555 1_555
H59 C35 1_555 1_555
H60 C35 1_555 1_555
H61 C36 1_555 1_555
H62 C36 1_555 1_555
H63 C36 1_555 1_555
C4 C6 1_555 1_555
C11 C16 1_555 1_555

#END
