
#######################################################################
#
#                 Cambridge Crystallographic Data Centre
#                                CCDC 
#
#######################################################################
#
# If this CIF has been generated from an entry in the Cambridge 
# Structural Database, then it will include bibliographic, chemical, 
# crystal, experimental, refinement or atomic coordinate data resulting 
# from the CCDC's data processing and validation procedures.
#
#######################################################################

data_LAHZID
_chemical_formula_moiety         'C23 H50 Li1 N3 Si2'
_chemical_name_systematic        
(N-(Trimethylsilyl)-1-(3-(trimethylsilyl)cyclohex-2-enylidene)-2,2-dimethylpropylamido)-(N,N,N',N'-tetramethylethylenediamine)-lithium
_symmetry_cell_setting           monoclinic
_symmetry_space_group_name_H-M   'P 21/n'
_symmetry_Int_Tables_number      14
_space_group_name_Hall           '-P 2yn'
loop_
_symmetry_equiv_pos_site_id
_symmetry_equiv_pos_as_xyz
1 x,y,z
2 1/2-x,1/2+y,1/2-z
3 -x,-y,-z
4 1/2+x,1/2-y,1/2+z
_cell_length_a                   10.365(1)
_cell_length_b                   16.901(1)
_cell_length_c                   17.684(1)
_cell_angle_alpha                90
_cell_angle_beta                 104.03(1)
_cell_angle_gamma                90
_cell_volume                     3005.45
_exptl_crystal_colour            yellow
_exptl_crystal_description       prism
_cell_formula_units_Z            4
loop_
_atom_site_label
_atom_site_type_symbol
_atom_site_fract_x
_atom_site_fract_y
_atom_site_fract_z
Li1 Li -0.0057(4) 0.7395(2) 0.9956(2)
Si1 Si -0.0351(1) 0.4965(1) 0.6996(1)
C1 C -0.1894(4) 0.5184(3) 0.7310(3)
C2 C -0.0467(6) 0.5418(3) 0.6019(2)
C3 C -0.0243(4) 0.3867(2) 0.6881(2)
C4 C 0.1134(3) 0.5334(2) 0.7705(2)
C5 C 0.2499(3) 0.5056(2) 0.7614(2)
C6 C 0.3630(3) 0.5531(2) 0.8091(2)
C7 C 0.3480(2) 0.5656(2) 0.8912(2)
C8 C 0.2211(2) 0.6112(1) 0.8892(1)
C9 C 0.1101(2) 0.5853(1) 0.8283(1)
C10 C 0.2062(2) 0.6734(1) 0.9371(1)
N1 N 0.0975(2) 0.7234(1) 0.9206(1)
C11 C 0.3137(2) 0.6930(2) 1.0127(2)
C12 C 0.4217(3) 0.7441(2) 0.9896(2)
C13 C 0.3737(3) 0.6195(2) 1.0602(2)
C14 C 0.2539(3) 0.7446(2) 1.0669(2)
Si2 Si 0.0483(1) 0.7814(1) 0.8415(1)
C15 C 0.0705(4) 0.8888(2) 0.8711(2)
C16 C 0.1383(3) 0.7678(2) 0.7630(2)
C17 C -0.1343(3) 0.7702(2) 0.7981(2)
C18 C -0.1770(6) 0.8739(4) 1.0223(3)
C19 C 0.0035(5) 0.8580(4) 1.1247(3)
N2 N -0.0893(2) 0.8158(2) 1.0659(1)
C20 C -0.1601(5) 0.7606(3) 1.0994(3)
C21 C -0.1957(4) 0.6875(2) 1.0744(2)
N3 N -0.1269(2) 0.6525(2) 1.0208(2)
C22 C -0.2177(5) 0.6221(3) 0.9521(3)
C23 C -0.0386(5) 0.5893(2) 1.0592(3)
H1 H -0.2646 0.4984 0.6928
H2 H -0.1982 0.5745 0.7360
H3 H -0.1853 0.4934 0.7803
H4 H -0.1242 0.5219 0.5656
H5 H 0.0312 0.5284 0.5843
H6 H -0.0532 0.5982 0.6057
H7 H -0.1020 0.3683 0.6508
H8 H -0.0189 0.3614 0.7374
H9 H 0.0535 0.3741 0.6701
H10 H 0.2622 0.4505 0.7767
H11 H 0.2517 0.5092 0.7069
H12 H 0.3663 0.6041 0.7845
H13 H 0.4460 0.5259 0.8109
H14 H 0.4239 0.5948 0.9212
H15 H 0.3451 0.5147 0.9163
H16 H 0.0275 0.6065 0.8286
H17 H 0.4625 0.7145 0.9553
H18 H 0.4879 0.7585 1.0356
H19 H 0.3817 0.7911 0.9636
H20 H 0.4134 0.5857 1.0284
H21 H 0.3048 0.5911 1.0764
H22 H 0.4404 0.6359 1.1052
H23 H 0.1856 0.7155 1.0830
H24 H 0.2163 0.7916 1.0397
H25 H 0.3223 0.7590 1.1119
H26 H 0.0260 0.8991 0.9118
H27 H 0.0333 0.9217 0.8269
H28 H 0.1636 0.9003 0.8896
H29 H 0.2321 0.7736 0.7845
H30 H 0.1087 0.8069 0.7231
H31 H 0.1202 0.7160 0.7408
H32 H -0.1818 0.7776 0.8379
H33 H -0.1520 0.7182 0.7762
H34 H -0.1628 0.8091 0.7579
H35 H -0.1271 0.9098 0.9983
H36 H -0.2190 0.9027 1.0565
H37 H -0.2436 0.8482 0.9827
H38 H 0.0504 0.8957 1.1007
H39 H 0.0658 0.8215 1.1554
H40 H -0.0430 0.8853 1.1577
H41 H -0.1095 0.7546 1.1529
H42 H -0.2421 0.7870 1.1019
H43 H -0.2900 0.6880 1.0494
H44 H -0.1835 0.6532 1.1196
H45 H -0.1683 0.5996 0.9180
H46 H -0.2725 0.6644 0.9258
H47 H -0.2729 0.5822 0.9668
H48 H 0.0236 0.6103 1.1041
H49 H 0.0089 0.5680 1.0236
H50 H -0.0902 0.5483 1.0753
loop_
_geom_bond_atom_site_label_1
_geom_bond_atom_site_label_2
_geom_bond_site_symmetry_1
_geom_bond_site_symmetry_2
Li1 N1 1_555 1_555
Si1 C1 1_555 1_555
C1 H1 1_555 1_555
C2 Si1 1_555 1_555
C3 Si1 1_555 1_555
C4 Si1 1_555 1_555
C5 C4 1_555 1_555
C6 C5 1_555 1_555
C7 C6 1_555 1_555
C8 C7 1_555 1_555
C9 C4 1_555 1_555
C10 C8 1_555 1_555
N1 C10 1_555 1_555
C11 C10 1_555 1_555
C12 C11 1_555 1_555
C13 C11 1_555 1_555
C14 C11 1_555 1_555
Si2 N1 1_555 1_555
C15 Si2 1_555 1_555
C16 Si2 1_555 1_555
C17 Si2 1_555 1_555
C18 N2 1_555 1_555
C19 N2 1_555 1_555
N2 Li1 1_555 1_555
C20 N2 1_555 1_555
C21 C20 1_555 1_555
N3 Li1 1_555 1_555
C22 N3 1_555 1_555
C23 N3 1_555 1_555
H2 C1 1_555 1_555
H3 C1 1_555 1_555
H4 C2 1_555 1_555
H5 C2 1_555 1_555
H6 C2 1_555 1_555
H7 C3 1_555 1_555
H8 C3 1_555 1_555
H9 C3 1_555 1_555
H10 C5 1_555 1_555
H11 C5 1_555 1_555
H12 C6 1_555 1_555
H13 C6 1_555 1_555
H14 C7 1_555 1_555
H15 C7 1_555 1_555
H16 C9 1_555 1_555
H17 C12 1_555 1_555
H18 C12 1_555 1_555
H19 C12 1_555 1_555
H20 C13 1_555 1_555
H21 C13 1_555 1_555
H22 C13 1_555 1_555
H23 C14 1_555 1_555
H24 C14 1_555 1_555
H25 C14 1_555 1_555
H26 C15 1_555 1_555
H27 C15 1_555 1_555
H28 C15 1_555 1_555
H29 C16 1_555 1_555
H30 C16 1_555 1_555
H31 C16 1_555 1_555
H32 C17 1_555 1_555
H33 C17 1_555 1_555
H34 C17 1_555 1_555
H35 C18 1_555 1_555
H36 C18 1_555 1_555
H37 C18 1_555 1_555
H38 C19 1_555 1_555
H39 C19 1_555 1_555
H40 C19 1_555 1_555
H41 C20 1_555 1_555
H42 C20 1_555 1_555
H43 C21 1_555 1_555
H44 C21 1_555 1_555
H45 C22 1_555 1_555
H46 C22 1_555 1_555
H47 C22 1_555 1_555
H48 C23 1_555 1_555
H49 C23 1_555 1_555
H50 C23 1_555 1_555
C8 C9 1_555 1_555
C21 N3 1_555 1_555

#END
