
#######################################################################
#
#                 Cambridge Crystallographic Data Centre
#                                CCDC 
#
#######################################################################
#
# If this CIF has been generated from an entry in the Cambridge 
# Structural Database, then it will include bibliographic, chemical, 
# crystal, experimental, refinement or atomic coordinate data resulting 
# from the CCDC's data processing and validation procedures.
#
#######################################################################

data_LAJKOX
_chemical_formula_moiety         'C7 H15 N3 O2'
_chemical_name_systematic        
'O^2^-Methyl 1-(cyclohexylamino)diazen-1-ium-1,2-diolate'
_symmetry_cell_setting           monoclinic
_symmetry_space_group_name_H-M   'P 21/c'
_symmetry_Int_Tables_number      14
_space_group_name_Hall           '-P 2ybc'
loop_
_symmetry_equiv_pos_site_id
_symmetry_equiv_pos_as_xyz
1 x,y,z
2 -x,1/2+y,1/2-z
3 -x,-y,-z
4 x,1/2-y,1/2+z
_cell_length_a                   16.517(5)
_cell_length_b                   6.0509(16)
_cell_length_c                   9.311(3)
_cell_angle_alpha                90
_cell_angle_beta                 94.738(5)
_cell_angle_gamma                90
_cell_volume                     927.387
_exptl_crystal_colour            colorless
_exptl_crystal_description       rod
_chemical_melting_point          84-85deg.C
_cell_formula_units_Z            4
_exptl_crystal_recrystallization_method 'aqueous ethanol'
loop_
_atom_site_label
_atom_site_type_symbol
_atom_site_fract_x
_atom_site_fract_y
_atom_site_fract_z
N1 N 0.88264(11) 0.3796(3) 0.07144(19)
N2 N 0.84208(11) 0.2073(3) 0.0979(2)
N3 N 0.82369(12) 0.0672(3) -0.0196(2)
H1 H 0.8344(14) 0.142(4) -0.092(3)
O1 O 0.82063(10) 0.1464(3) 0.21849(16)
O2 O 0.90166(9) 0.4838(3) 0.20201(16)
C1 C 0.94956(15) 0.6753(4) 0.1769(3)
H2 H 0.9630 0.7506 0.2665
H3 H 0.9192 0.7725 0.1112
H4 H 0.9986 0.6309 0.1363
C2 C 0.73721(13) 0.0050(4) -0.0331(2)
H5 H 0.7254 -0.0719 0.0554
C3 C 0.72334(15) -0.1562(4) -0.1574(2)
H6 H 0.7579 -0.2845 -0.1394
H7 H 0.7379 -0.0866 -0.2455
C4 C 0.63509(14) -0.2285(4) -0.1755(3)
H8 H 0.6224 -0.3120 -0.0913
H9 H 0.6269 -0.3246 -0.2588
C5 C 0.57801(15) -0.0322(4) -0.1949(3)
H10 H 0.5222 -0.0835 -0.2006
H11 H 0.5867 0.0430 -0.2843
C6 C 0.59237(14) 0.1284(4) -0.0696(2)
H12 H 0.5575 0.2563 -0.0864
H13 H 0.5784 0.0575 0.0185
C7 C 0.68051(14) 0.2026(4) -0.0521(3)
H14 H 0.6888 0.2986 0.0312
H15 H 0.6930 0.2860 -0.1364
loop_
_geom_bond_atom_site_label_1
_geom_bond_atom_site_label_2
_geom_bond_site_symmetry_1
_geom_bond_site_symmetry_2
N1 N2 1_555 1_555
N2 N3 1_555 1_555
N3 H1 1_555 1_555
O1 N2 1_555 1_555
O2 N1 1_555 1_555
C1 O2 1_555 1_555
H2 C1 1_555 1_555
H3 C1 1_555 1_555
H4 C1 1_555 1_555
C2 N3 1_555 1_555
H5 C2 1_555 1_555
C3 C2 1_555 1_555
H6 C3 1_555 1_555
H7 C3 1_555 1_555
C4 C3 1_555 1_555
H8 C4 1_555 1_555
H9 C4 1_555 1_555
C5 C4 1_555 1_555
H10 C5 1_555 1_555
H11 C5 1_555 1_555
C6 C5 1_555 1_555
H12 C6 1_555 1_555
H13 C6 1_555 1_555
C7 C2 1_555 1_555
H14 C7 1_555 1_555
H15 C7 1_555 1_555
C6 C7 1_555 1_555

#END
