
#######################################################################
#
#                 Cambridge Crystallographic Data Centre
#                                CCDC 
#
#######################################################################
#
# If this CIF has been generated from an entry in the Cambridge 
# Structural Database, then it will include bibliographic, chemical, 
# crystal, experimental, refinement or atomic coordinate data resulting 
# from the CCDC's data processing and validation procedures.
#
#######################################################################

data_LAJWAW
_chemical_name_common            
N'-(2,4-Dimethylbenzylidene)pyrazine-2-carbohydrazide
_chemical_formula_moiety         'C14 H14 N4 O1'
_chemical_name_systematic        
'2,4-Dimethylbenzaldehyde (pyrazin-2-ylcarbonyl)hydrazone'
_symmetry_cell_setting           triclinic
_symmetry_space_group_name_H-M   'P -1'
_symmetry_Int_Tables_number      2
_space_group_name_Hall           '-P 1'
loop_
_symmetry_equiv_pos_site_id
_symmetry_equiv_pos_as_xyz
1 x,y,z
2 -x,-y,-z
_cell_length_a                   5.85170(10)
_cell_length_b                   7.2468(2)
_cell_length_c                   16.0521(5)
_cell_angle_alpha                82.2189(17)
_cell_angle_beta                 89.779(2)
_cell_angle_gamma                68.1541(18)
_cell_volume                     625.205
_exptl_crystal_colour            colorless
_exptl_crystal_description       slab
_cell_formula_units_Z            2
loop_
_atom_site_label
_atom_site_type_symbol
_atom_site_fract_x
_atom_site_fract_y
_atom_site_fract_z
O1 O 0.00879(18) 0.34096(15) 0.43233(6)
N1 N 0.1850(2) 0.06600(18) 0.68071(7)
N2 N 0.5231(2) 0.16884(16) 0.57925(7)
N3 N 0.3919(2) 0.35537(17) 0.42051(7)
H1 H 0.5356 0.3284 0.4462
N4 N 0.3457(2) 0.44659(16) 0.33762(7)
C1 C 0.2931(2) 0.20651(18) 0.55085(8)
C2 C 0.1263(2) 0.1547(2) 0.60062(8)
H2 H -0.0342 0.1827 0.5774
C3 C 0.4129(3) 0.0308(2) 0.70884(8)
H3 H 0.4622 -0.0306 0.7654
C4 C 0.5819(2) 0.0802(2) 0.65881(8)
H4 H 0.7431 0.0502 0.6818
C5 C 0.2149(2) 0.30764(19) 0.46206(8)
C6 C 0.5358(2) 0.45680(19) 0.30051(8)
H5 H 0.6918 0.4038 0.3303
C7 C 0.5139(2) 0.54992(19) 0.21225(8)
C8 C 0.7244(3) 0.5040(2) 0.16434(8)
C9 C 0.6980(3) 0.5945(2) 0.08084(9)
H6 H 0.8405 0.5669 0.0487
C10 C 0.4725(3) 0.7231(2) 0.04255(8)
C11 C 0.2663(3) 0.7655(2) 0.09095(9)
H7 H 0.1096 0.8527 0.0662
C12 C 0.2867(3) 0.6819(2) 0.17489(8)
H8 H 0.1445 0.7149 0.2073
C13 C 0.9703(3) 0.3507(3) 0.19979(10)
H9 H 0.9565 0.2197 0.2147
H10 H 1.0201 0.3920 0.2501
H11 H 1.0940 0.3406 0.1575
C14 C 0.4543(3) 0.8111(2) -0.04907(9)
H12 H 0.2827 0.8973 -0.0657
H13 H 0.5103 0.7022 -0.0836
H14 H 0.5581 0.8908 -0.0575
loop_
_geom_bond_atom_site_label_1
_geom_bond_atom_site_label_2
_geom_bond_site_symmetry_1
_geom_bond_site_symmetry_2
O1 C5 1_555 1_555
N1 C2 1_555 1_555
N2 C1 1_555 1_555
N3 H1 1_555 1_555
N4 N3 1_555 1_555
C1 C2 1_555 1_555
C2 H2 1_555 1_555
C3 N1 1_555 1_555
H3 C3 1_555 1_555
C4 N2 1_555 1_555
H4 C4 1_555 1_555
C5 N3 1_555 1_555
C6 N4 1_555 1_555
H5 C6 1_555 1_555
C7 C6 1_555 1_555
C8 C7 1_555 1_555
C9 C8 1_555 1_555
H6 C9 1_555 1_555
C10 C9 1_555 1_555
C11 C10 1_555 1_555
H7 C11 1_555 1_555
C12 C7 1_555 1_555
H8 C12 1_555 1_555
C13 C8 1_555 1_555
H9 C13 1_555 1_555
H10 C13 1_555 1_555
H11 C13 1_555 1_555
C14 C10 1_555 1_555
H12 C14 1_555 1_555
H13 C14 1_555 1_555
H14 C14 1_555 1_555
C1 C5 1_555 1_555
C3 C4 1_555 1_555
C11 C12 1_555 1_555

#END
