
#######################################################################
#
#                 Cambridge Crystallographic Data Centre
#                                CCDC 
#
#######################################################################
#
# If this CIF has been generated from an entry in the Cambridge 
# Structural Database, then it will include bibliographic, chemical, 
# crystal, experimental, refinement or atomic coordinate data resulting 
# from the CCDC's data processing and validation procedures.
#
#######################################################################

data_LAJWUR
_chemical_name_common            
'5,11,17,23-tetrakis((cyclohexylammonium)methyl)-2,8,14,20-tetramethyl-4,6,10,12,16,18,22,24-octahydroxycalix(4)arene bromide chloride 1,4-dioxane chloroform unknown solvate'
_chemical_formula_moiety         
'C60 H88 N4 O8 4+,C4 H8 O2,3.22(Br1 1-),0.78(Cl1 1-),0.5(C1 H1 Cl3)'
_chemical_name_systematic        
'5,11,17,23-tetrakis((cyclohexylammonium)methyl)-2,8,14,20-tetramethyl-calix(4)resorcinarene bromide chloride 1,4-dioxane chloroform unknown solvate'
_symmetry_cell_setting           triclinic
_symmetry_space_group_name_H-M   'P -1'
_symmetry_Int_Tables_number      2
_space_group_name_Hall           '-P 1'
loop_
_symmetry_equiv_pos_site_id
_symmetry_equiv_pos_as_xyz
1 x,y,z
2 -x,-y,-z
_cell_length_a                   13.037(2)
_cell_length_b                   13.038(3)
_cell_length_c                   24.631(8)
_cell_angle_alpha                100.77(2)
_cell_angle_beta                 92.65(2)
_cell_angle_gamma                90.068(16)
_cell_volume                     4108.34
_exptl_crystal_colour            colorless
_exptl_crystal_description       plate
_cell_formula_units_Z            2
loop_
_atom_site_label
_atom_site_type_symbol
_atom_site_fract_x
_atom_site_fract_y
_atom_site_fract_z
C1 C -0.0285(13) 0.6571(16) 0.6588(7)
C2 C -0.0853(13) 0.6549(14) 0.7050(6)
C3 C -0.0867(11) 0.5634(13) 0.7305(6)
C4 C -0.0270(11) 0.4735(12) 0.7042(6)
C5 C 0.0287(14) 0.4696(15) 0.6578(7)
C6 C 0.0284(13) 0.5658(14) 0.6350(8)
H1 H 0.0669 0.5682 0.6034
C7 C -0.1490(11) 0.5564(12) 0.7762(6)
H2 H -0.1902 0.4911 0.7679
H3 H -0.1969 0.6159 0.7821
C8 C -0.1434(11) 0.5466(12) 0.8768(5)
H4 H -0.2036 0.5943 0.8783
C9 C -0.1840(11) 0.4337(11) 0.8702(6)
H5 H -0.1269 0.3836 0.8634
H6 H -0.2349 0.4182 0.8386
C10 C -0.2346(12) 0.4249(13) 0.9246(6)
H7 H -0.2984 0.4664 0.9267
H8 H -0.2549 0.3510 0.9227
C11 C -0.1696(11) 0.4606(11) 0.9786(5)
H9 H -0.2117 0.4584 1.0108
H10 H -0.1108 0.4131 0.9803
C12 C -0.1304(11) 0.5722(11) 0.9806(5)
H11 H -0.1893 0.6205 0.9838
H12 H -0.0840 0.5932 1.0138
C13 C -0.0742(12) 0.5814(12) 0.9301(6)
H13 H -0.0122 0.5374 0.9284
H14 H -0.0518 0.6547 0.9324
C14 C 0.0906(13) 0.3709(15) 0.6321(7)
H15 H 0.0568 0.3099 0.6436
C15 C 0.0843(16) 0.3496(15) 0.5694(7)
H16 H 0.1073 0.4116 0.5561
H17 H 0.0131 0.3329 0.5561
H18 H 0.1283 0.2905 0.5555
C16 C 0.1905(13) 0.3789(13) 0.6574(6)
C17 C 0.2216(13) 0.3359(14) 0.7038(7)
C18 C 0.3148(11) 0.3383(11) 0.7281(6)
C19 C 0.3953(13) 0.3849(13) 0.6997(7)
C20 C 0.3750(11) 0.4342(13) 0.6569(6)
C21 C 0.2772(15) 0.4281(15) 0.6338(7)
H19 H 0.2639 0.4564 0.6014
C22 C 0.3463(11) 0.2890(12) 0.7742(6)
H20 H 0.4101 0.2493 0.7656
H21 H 0.2923 0.2395 0.7802
C23 C 0.3970(10) 0.3277(12) 0.8767(5)
H22 H 0.3506 0.2673 0.8783
C24 C 0.3857(10) 0.4079(12) 0.9282(5)
H23 H 0.3134 0.4309 0.9305
H24 H 0.4292 0.4696 0.9269
C25 C 0.4177(12) 0.3619(15) 0.9794(7)
H25 H 0.3706 0.3035 0.9820
H26 H 0.4115 0.4161 1.0131
C26 C 0.5289(11) 0.3218(12) 0.9770(7)
H27 H 0.5774 0.3813 0.9800
H28 H 0.5446 0.2856 1.0083
C27 C 0.5408(12) 0.2479(14) 0.9233(6)
H29 H 0.6135 0.2260 0.9218
H30 H 0.4989 0.1847 0.9239
C28 C 0.5125(12) 0.2857(13) 0.8714(7)
H31 H 0.5166 0.2281 0.8391
H32 H 0.5597 0.3425 0.8666
C29 C 0.4593(15) 0.4794(15) 0.6306(7)
H33 H 0.5234 0.4449 0.6417
C30 C 0.4535(15) 0.4583(19) 0.5671(7)
H34 H 0.4442 0.3833 0.5532
H35 H 0.5173 0.4822 0.5537
H36 H 0.3954 0.4961 0.5539
C31 C 0.4722(14) 0.5944(16) 0.6559(7)
C32 C 0.5313(11) 0.6374(11) 0.7021(6)
C33 C 0.5437(11) 0.7398(14) 0.7267(6)
C34 C 0.4835(13) 0.8117(14) 0.7003(7)
C35 C 0.4157(13) 0.7863(15) 0.6570(7)
C36 C 0.4155(14) 0.6764(16) 0.6336(7)
H37 H 0.3747 0.6545 0.6004
C37 C 0.6087(14) 0.7804(14) 0.7738(7)
H38 H 0.6496 0.8386 0.7648
H39 H 0.6574 0.7251 0.7800
C38 C 0.6169(10) 0.8615(10) 0.8765(5)
H40 H 0.6779 0.8161 0.8793
C39 C 0.6584(11) 0.9802(12) 0.8748(6)
H41 H 0.7004 0.9785 0.8422
H42 H 0.5991 1.0263 0.8713
C40 C 0.7190(12) 1.0215(13) 0.9244(6)
H43 H 0.7408 1.0936 0.9229
H44 H 0.7818 0.9791 0.9255
C41 C 0.6635(12) 1.0227(11) 0.9767(6)
H45 H 0.7096 1.0502 1.0092
H46 H 0.6029 1.0686 0.9774
C42 C 0.6304(13) 0.9154(12) 0.9789(6)
H47 H 0.5919 0.9161 1.0126
H48 H 0.6916 0.8713 0.9810
C43 C 0.5599(13) 0.8668(13) 0.9261(6)
H49 H 0.5369 0.7959 0.9293
H50 H 0.4983 0.9105 0.9239
C44 C 0.3521(15) 0.8600(14) 0.6308(8)
H51 H 0.3879 0.9290 0.6422
C45 C 0.3447(17) 0.840(2) 0.5655(8)
H52 H 0.4138 0.8301 0.5514
H53 H 0.3135 0.9010 0.5533
H54 H 0.3025 0.7781 0.5514
C46 C 0.2459(14) 0.8760(14) 0.6558(7)
C47 C 0.2337(13) 0.9501(13) 0.7002(6)
C48 C 0.1378(12) 0.9695(13) 0.7268(6)
C49 C 0.0531(13) 0.8992(13) 0.7013(6)
C50 C 0.0640(15) 0.8234(14) 0.6562(7)
C51 C 0.1606(14) 0.8114(16) 0.6335(7)
H55 H 0.1695 0.7581 0.6020
C52 C 0.1124(14) 1.0495(13) 0.7751(6)
H56 H 0.0463 1.0819 0.7668
H57 H 0.1659 1.1050 0.7811
C53 C 0.0791(11) 1.0825(12) 0.8775(6)
H58 H 0.1253 1.1444 0.8793
C54 C -0.0331(11) 1.1222(12) 0.8726(6)
H59 H -0.0419 1.1557 0.8398
H60 H -0.0820 1.0628 0.8681
C55 C -0.0544(12) 1.2004(12) 0.9246(6)
H61 H -0.1280 1.2189 0.9236
H62 H -0.0140 1.2649 0.9249
C56 C -0.0282(11) 1.1602(12) 0.9785(6)
H63 H -0.0356 1.2179 1.0105
H64 H -0.0775 1.1042 0.9819
C57 C 0.0732(11) 1.1210(12) 0.9801(5)
H65 H 0.0822 1.0861 1.0124
H66 H 0.1222 1.1805 0.9856
C58 C 0.1008(10) 1.0425(11) 0.9273(6)
H67 H 0.1747 1.0259 0.9299
H68 H 0.0614 0.9769 0.9255
C59 C -0.0276(13) 0.7543(14) 0.6331(7)
H69 H -0.0902 0.7946 0.6455
C60 C -0.0341(16) 0.7348(17) 0.5700(7)
H70 H -0.0886 0.6835 0.5561
H71 H 0.0316 0.7081 0.5559
H72 H -0.0496 0.8004 0.5575
N1 N -0.0835(10) 0.5577(11) 0.8272(5)
H73 H -0.0473 0.6188 0.8350
H74 H -0.0377 0.5048 0.8208
N2 N 0.3650(9) 0.3722(11) 0.8268(5)
H75 H 0.4146 0.4173 0.8208
H76 H 0.3064 0.4091 0.8338
N3 N 0.5585(9) 0.8194(10) 0.8270(5)
H77 H 0.5133 0.8695 0.8205
H78 H 0.5204 0.7655 0.8344
N4 N 0.1043(9) 1.0075(10) 0.8277(4)
H79 H 0.0555 0.9561 0.8217
H80 H 0.1652 0.9774 0.8349
O1 O -0.1367(8) 0.7410(9) 0.7258(4)
H81 H -0.1254 0.7554 0.7602
O2 O -0.0389(9) 0.3891(10) 0.7284(5)
H82 H 0.0190 0.3651 0.7353
O3 O 0.1414(10) 0.2883(9) 0.7251(5)
H83 H 0.1349 0.3167 0.7582
O4 O 0.4915(8) 0.3854(9) 0.7273(4)
H84 H 0.5206 0.4410 0.7268
O5 O 0.5923(8) 0.5687(9) 0.7259(4)
H85 H 0.5806 0.5756 0.7596
O6 O 0.4988(8) 0.9191(9) 0.7291(5)
H86 H 0.4444 0.9504 0.7286
O7 O 0.3170(8) 1.0170(8) 0.7248(4)
H87 H 0.3242 1.0144 0.7586
O8 O -0.0371(8) 0.9240(10) 0.7282(5)
H88 H -0.0706 0.8690 0.7284
C61 C 0.284(3) 0.650(3) 0.7755(15)
H89 H 0.3015 0.5808 0.7836
H90 H 0.3130 0.6566 0.7399
C62 C 0.167(4) 0.661(4) 0.7712(18)
H91 H 0.1475 0.7333 0.7680
H92 H 0.1367 0.6122 0.7387
C63 C 0.182(3) 0.713(4) 0.8670(16)
H93 H 0.1507 0.7016 0.9013
H94 H 0.1673 0.7855 0.8624
C64 C 0.296(3) 0.697(3) 0.8714(14)
H95 H 0.3271 0.7394 0.9057
H96 H 0.3128 0.6228 0.8698
O9 O 0.1358(17) 0.6376(19) 0.8183(9)
O10 O 0.3288(19) 0.735(2) 0.8213(10)
C65 C -0.223(3) 0.483(3) 0.5862(13)
H97 H -0.1533 0.4982 0.6048
Cl1 Cl -0.2032(8) 0.4375(8) 0.5124(3)
Cl2 Cl -0.2867(12) 0.5850(15) 0.6009(6)
Cl3 Cl -0.2695(11) 0.3872(15) 0.6095(7)
Br1 Br 0.11951(13) 0.37626(16) 0.85014(8)
Br2 Br -0.08337(15) 0.81445(15) 0.85035(8)
Br3 Br 0.55895(14) 0.57849(15) 0.84953(8)
Cl4 Cl 0.35517(14) 1.01752(15) 0.84953(8)
C66? C 0.239(3) 0.719(3) 0.7770(14)
H98? H 0.2123 0.7377 0.7419
H99? H 0.3139 0.7333 0.7803
C67? C 0.223(3) 0.614(3) 0.7744(15)
H100? H 0.2474 0.5739 0.7393
H101? H 0.1492 0.5991 0.7765
C68? C 0.254(4) 0.761(4) 0.8679(17)
H102? H 0.2316 0.8050 0.9026
H103? H 0.3265 0.7777 0.8635
C69? C 0.244(4) 0.652(3) 0.8715(15)
H104? H 0.1705 0.6346 0.8749
H105? H 0.2826 0.6384 0.9049
O11? O 0.2824(17) 0.5854(18) 0.8225(8)
O12? O 0.1918(17) 0.7834(18) 0.8217(9)
Cl5? Cl 0.55895(14) 0.57849(15) 0.84953(8)
Cl6? Cl -0.08337(15) 0.81445(15) 0.85035(8)
Cl7? Cl 0.11951(13) 0.37626(16) 0.85014(8)
Br4? Br 0.35517(14) 1.01752(15) 0.84953(8)
loop_
_geom_bond_atom_site_label_1
_geom_bond_atom_site_label_2
_geom_bond_site_symmetry_1
_geom_bond_site_symmetry_2
C1 C2 1_555 1_555
C2 C3 1_555 1_555
C3 C4 1_555 1_555
C4 C5 1_555 1_555
C5 C6 1_555 1_555
C6 C1 1_555 1_555
H1 C6 1_555 1_555
C7 C3 1_555 1_555
H2 C7 1_555 1_555
H3 C7 1_555 1_555
C8 H4 1_555 1_555
C9 C8 1_555 1_555
H5 C9 1_555 1_555
H6 C9 1_555 1_555
C10 C9 1_555 1_555
H7 C10 1_555 1_555
H8 C10 1_555 1_555
C11 C10 1_555 1_555
H9 C11 1_555 1_555
H10 C11 1_555 1_555
C12 C11 1_555 1_555
H11 C12 1_555 1_555
H12 C12 1_555 1_555
C13 C8 1_555 1_555
H13 C13 1_555 1_555
H14 C13 1_555 1_555
C14 C5 1_555 1_555
H15 C14 1_555 1_555
C15 C14 1_555 1_555
H16 C15 1_555 1_555
H17 C15 1_555 1_555
H18 C15 1_555 1_555
C16 C14 1_555 1_555
C17 C16 1_555 1_555
C18 C17 1_555 1_555
C19 C18 1_555 1_555
C20 C19 1_555 1_555
C21 C16 1_555 1_555
H19 C21 1_555 1_555
C22 C18 1_555 1_555
H20 C22 1_555 1_555
H21 C22 1_555 1_555
C23 H22 1_555 1_555
C24 C23 1_555 1_555
H23 C24 1_555 1_555
H24 C24 1_555 1_555
C25 C24 1_555 1_555
H25 C25 1_555 1_555
H26 C25 1_555 1_555
C26 C25 1_555 1_555
H27 C26 1_555 1_555
H28 C26 1_555 1_555
C27 C26 1_555 1_555
H29 C27 1_555 1_555
H30 C27 1_555 1_555
C28 C23 1_555 1_555
H31 C28 1_555 1_555
H32 C28 1_555 1_555
C29 C20 1_555 1_555
H33 C29 1_555 1_555
C30 C29 1_555 1_555
H34 C30 1_555 1_555
H35 C30 1_555 1_555
H36 C30 1_555 1_555
C31 C29 1_555 1_555
C32 C31 1_555 1_555
C33 C32 1_555 1_555
C34 C33 1_555 1_555
C35 C34 1_555 1_555
C36 C31 1_555 1_555
H37 C36 1_555 1_555
C37 C33 1_555 1_555
H38 C37 1_555 1_555
H39 C37 1_555 1_555
C38 H40 1_555 1_555
C39 C38 1_555 1_555
H41 C39 1_555 1_555
H42 C39 1_555 1_555
C40 C39 1_555 1_555
H43 C40 1_555 1_555
H44 C40 1_555 1_555
C41 C40 1_555 1_555
H45 C41 1_555 1_555
H46 C41 1_555 1_555
C42 C41 1_555 1_555
H47 C42 1_555 1_555
H48 C42 1_555 1_555
C43 C38 1_555 1_555
H49 C43 1_555 1_555
H50 C43 1_555 1_555
C44 C35 1_555 1_555
H51 C44 1_555 1_555
C45 C44 1_555 1_555
H52 C45 1_555 1_555
H53 C45 1_555 1_555
H54 C45 1_555 1_555
C46 C44 1_555 1_555
C47 C46 1_555 1_555
C48 C47 1_555 1_555
C49 C48 1_555 1_555
C50 C49 1_555 1_555
C51 C46 1_555 1_555
H55 C51 1_555 1_555
C52 C48 1_555 1_555
H56 C52 1_555 1_555
H57 C52 1_555 1_555
C53 H58 1_555 1_555
C54 C53 1_555 1_555
H59 C54 1_555 1_555
H60 C54 1_555 1_555
C55 C54 1_555 1_555
H61 C55 1_555 1_555
H62 C55 1_555 1_555
C56 C55 1_555 1_555
H63 C56 1_555 1_555
H64 C56 1_555 1_555
C57 C56 1_555 1_555
H65 C57 1_555 1_555
H66 C57 1_555 1_555
C58 C53 1_555 1_555
H67 C58 1_555 1_555
H68 C58 1_555 1_555
C59 C1 1_555 1_555
H69 C59 1_555 1_555
C60 C59 1_555 1_555
H70 C60 1_555 1_555
H71 C60 1_555 1_555
H72 C60 1_555 1_555
N1 C7 1_555 1_555
H73 N1 1_555 1_555
H74 N1 1_555 1_555
N2 C22 1_555 1_555
H75 N2 1_555 1_555
H76 N2 1_555 1_555
N3 C37 1_555 1_555
H77 N3 1_555 1_555
H78 N3 1_555 1_555
N4 C52 1_555 1_555
H79 N4 1_555 1_555
H80 N4 1_555 1_555
O1 C2 1_555 1_555
H81 O1 1_555 1_555
O2 C4 1_555 1_555
H82 O2 1_555 1_555
O3 C17 1_555 1_555
H83 O3 1_555 1_555
O4 C19 1_555 1_555
H84 O4 1_555 1_555
O5 C32 1_555 1_555
H85 O5 1_555 1_555
O6 C34 1_555 1_555
H86 O6 1_555 1_555
O7 C47 1_555 1_555
H87 O7 1_555 1_555
O8 C49 1_555 1_555
H88 O8 1_555 1_555
C61 H89 1_555 1_555
H90 C61 1_555 1_555
C62 C61 1_555 1_555
H91 C62 1_555 1_555
H92 C62 1_555 1_555
C63 H93 1_555 1_555
H94 C63 1_555 1_555
C64 C63 1_555 1_555
H95 C64 1_555 1_555
H96 C64 1_555 1_555
O9 C62 1_555 1_555
O10 C61 1_555 1_555
C65 H97 1_555 1_555
Cl1 C65 1_555 1_555
Cl2 C65 1_555 1_555
Cl3 C65 1_555 1_555
C8 N1 1_555 1_555
C12 C13 1_555 1_555
C20 C21 1_555 1_555
C23 N2 1_555 1_555
C27 C28 1_555 1_555
C35 C36 1_555 1_555
C38 N3 1_555 1_555
C42 C43 1_555 1_555
C50 C51 1_555 1_555
C50 C59 1_555 1_555
C53 N4 1_555 1_555
C57 C58 1_555 1_555
C63 O9 1_555 1_555
C64 O10 1_555 1_555

#END
