
#######################################################################
#
#                 Cambridge Crystallographic Data Centre
#                                CCDC 
#
#######################################################################
#
# If this CIF has been generated from an entry in the Cambridge 
# Structural Database, then it will include bibliographic, chemical, 
# crystal, experimental, refinement or atomic coordinate data resulting 
# from the CCDC's data processing and validation procedures.
#
#######################################################################

data_LAJWOK
_chemical_name_common            
N'-(3,4,5-Trimethoxybenzylidene)pyrazine-2-carbohydrazide
_chemical_formula_moiety         'C15 H16 N4 O4'
_chemical_name_systematic        
'3,4,5-Trimethoxybenzaldehyde (pyrazin-2-ylcarbonyl)hydrazone'
_symmetry_cell_setting           monoclinic
_symmetry_space_group_name_H-M   'P 21/n'
_symmetry_Int_Tables_number      14
_space_group_name_Hall           '-P 2yn'
loop_
_symmetry_equiv_pos_site_id
_symmetry_equiv_pos_as_xyz
1 x,y,z
2 1/2-x,1/2+y,1/2-z
3 -x,-y,-z
4 1/2+x,1/2-y,1/2+z
_cell_length_a                   7.8055(14)
_cell_length_b                   7.5440(13)
_cell_length_c                   24.737(4)
_cell_angle_alpha                90
_cell_angle_beta                 91.932(2)
_cell_angle_gamma                90
_cell_volume                     1455.8
_exptl_crystal_colour            colorless
_exptl_crystal_description       plate
_cell_formula_units_Z            4
loop_
_atom_site_label
_atom_site_type_symbol
_atom_site_fract_x
_atom_site_fract_y
_atom_site_fract_z
O1 O 0.61141(10) 0.33259(12) 0.47930(3)
O2 O 1.22307(10) 0.79219(12) 0.32234(3)
O3 O 1.19622(10) 0.78478(11) 0.21223(3)
O4 O 0.94911(10) 0.60839(11) 0.16124(3)
N1 N 0.12704(13) 0.19057(15) 0.52934(4)
N2 N 0.17870(12) 0.36398(14) 0.43070(4)
N3 N 0.49617(11) 0.43934(13) 0.39962(4)
H1 H 0.4017 0.4588 0.3801
N4 N 0.65308(11) 0.48680(13) 0.38001(4)
C1 C 0.30896(13) 0.31736(15) 0.46419(5)
C2 C 0.28378(15) 0.23246(17) 0.51293(5)
H2 H 0.3807 0.2030 0.5354
C3 C -0.00241(15) 0.23823(16) 0.49603(5)
H3 H -0.1161 0.2116 0.5059
C4 C 0.02195(14) 0.32527(16) 0.44737(5)
H4 H -0.0752 0.3580 0.4254
C5 C 0.48811(14) 0.36284(15) 0.44891(4)
C6 C 0.65072(13) 0.51619(15) 0.32904(5)
H5 H 0.5465 0.4998 0.3087
C7 C 0.80347(13) 0.57423(14) 0.30103(5)
C8 C 0.94465(13) 0.64818(14) 0.32890(5)
H6 H 0.9474 0.6552 0.3673
C9 C 1.08159(14) 0.71156(14) 0.29969(5)
C10 C 1.07737(13) 0.70068(14) 0.24310(5)
C11 C 0.93889(13) 0.61799(14) 0.21598(4)
C12 C 0.80079(13) 0.55697(14) 0.24488(4)
H7 H 0.7052 0.5038 0.2265
C13 C 1.22253(16) 0.82932(18) 0.37911(5)
H8 H 1.1209 0.8996 0.3871
H9 H 1.3260 0.8961 0.3897
H10 H 1.2203 0.7177 0.3993
C14 C 1.36888(14) 0.71853(16) 0.21606(5)
H11 H 1.4241 0.7588 0.2500
H12 H 1.4332 0.7630 0.1855
H13 H 1.3671 0.5887 0.2152
C15 C 0.80332(15) 0.54236(17) 0.13153(5)
H14 H 0.7872 0.4167 0.1401
H15 H 0.8210 0.5557 0.0927
H16 H 0.7014 0.6092 0.1414
loop_
_geom_bond_atom_site_label_1
_geom_bond_atom_site_label_2
_geom_bond_site_symmetry_1
_geom_bond_site_symmetry_2
O1 C5 1_555 1_555
O2 C9 1_555 1_555
O3 C10 1_555 1_555
O4 C11 1_555 1_555
N1 C2 1_555 1_555
N2 C1 1_555 1_555
N3 H1 1_555 1_555
N4 N3 1_555 1_555
C1 C2 1_555 1_555
C2 H2 1_555 1_555
C3 N1 1_555 1_555
H3 C3 1_555 1_555
C4 N2 1_555 1_555
H4 C4 1_555 1_555
C5 N3 1_555 1_555
C6 N4 1_555 1_555
H5 C6 1_555 1_555
C7 C6 1_555 1_555
C8 C7 1_555 1_555
H6 C8 1_555 1_555
C9 C8 1_555 1_555
C10 C9 1_555 1_555
C11 C10 1_555 1_555
C12 C7 1_555 1_555
H7 C12 1_555 1_555
C13 O2 1_555 1_555
H8 C13 1_555 1_555
H9 C13 1_555 1_555
H10 C13 1_555 1_555
C14 O3 1_555 1_555
H11 C14 1_555 1_555
H12 C14 1_555 1_555
H13 C14 1_555 1_555
C15 O4 1_555 1_555
H14 C15 1_555 1_555
H15 C15 1_555 1_555
H16 C15 1_555 1_555
C1 C5 1_555 1_555
C3 C4 1_555 1_555
C11 C12 1_555 1_555

#END
