
#######################################################################
#
#                 Cambridge Crystallographic Data Centre
#                                CCDC 
#
#######################################################################
#
# If this CIF has been generated from an entry in the Cambridge 
# Structural Database, then it will include bibliographic, chemical, 
# crystal, experimental, refinement or atomic coordinate data resulting 
# from the CCDC's data processing and validation procedures.
#
#######################################################################

data_LAJXEC
_chemical_name_common            
'5,11,17,23-tetrakis((cyclohexylammonium)methyl)-2,8,14,20-tetramethyl-4,6,10,12,16,18,22,24-octahydroxycalix(4)arene tetrakis(iodide) chloroform solvate'
_chemical_formula_moiety         'C60 H88 N4 O8 4+,4(I1 1-),6(C1 H1 Cl3)'
_chemical_name_systematic        
'5,11,17,23-tetrakis((cyclohexylammonium)methyl)-2,8,14,20-tetramethylcalix(4)resorcinarene tetrakis(iodide) chloroform solvate'
_symmetry_cell_setting           triclinic
_symmetry_space_group_name_H-M   'P -1'
_symmetry_Int_Tables_number      2
_space_group_name_Hall           '-P 1'
loop_
_symmetry_equiv_pos_site_id
_symmetry_equiv_pos_as_xyz
1 x,y,z
2 -x,-y,-z
_cell_length_a                   13.2199(8)
_cell_length_b                   13.8373(10)
_cell_length_c                   24.565(2)
_cell_angle_alpha                90.043(7)
_cell_angle_beta                 104.115(7)
_cell_angle_gamma                91.686(5)
_cell_volume                     4355.92
_exptl_crystal_colour            colorless
_exptl_crystal_description       plate
_cell_formula_units_Z            2
loop_
_atom_site_label
_atom_site_type_symbol
_atom_site_fract_x
_atom_site_fract_y
_atom_site_fract_z
C1 C 0.2547(18) 0.4279(16) 0.1524(10)
C2 C 0.2960(17) 0.4889(17) 0.1990(10)
C3 C 0.2307(19) 0.5441(17) 0.2209(10)
C4 C 0.1234(17) 0.5384(16) 0.1980(9)
C5 C 0.081(2) 0.4838(19) 0.1502(10)
C6 C 0.1523(19) 0.4279(17) 0.1311(10)
H1 H 0.1251 0.3868 0.1008
C7 C 0.2808(18) 0.6144(17) 0.2697(9)
H2 H 0.3419 0.6465 0.2619
H3 H 0.2314 0.6635 0.2726
C8 C 0.3650(16) 0.6243(16) 0.3745(9)
H4 H 0.3223 0.6808 0.3751
C9 C 0.3692(18) 0.5658(19) 0.4283(10)
H5 H 0.2992 0.5439 0.4292
H6 H 0.4109 0.5093 0.4283
C10 C 0.4152(19) 0.6263(19) 0.4787(10)
H7 H 0.4181 0.5889 0.5124
H8 H 0.3723 0.6817 0.4796
C11 C 0.5232(17) 0.6596(18) 0.4765(11)
H9 H 0.5665 0.6039 0.4776
H10 H 0.5536 0.6997 0.5092
C12 C 0.5218(18) 0.7184(17) 0.4224(11)
H11 H 0.4833 0.7768 0.4228
H12 H 0.5927 0.7372 0.4217
C13 C 0.4713(18) 0.6591(17) 0.3692(10)
H13 H 0.4649 0.6989 0.3362
H14 H 0.5138 0.6045 0.3659
C14 C -0.0367(18) 0.4766(18) 0.1261(10)
H15 H -0.0640 0.5367 0.1371
C15 C -0.065(2) 0.4754(19) 0.0615(10)
H16 H -0.0362 0.5328 0.0482
H17 H -0.1391 0.4732 0.0476
H18 H -0.0359 0.4195 0.0484
C16 C -0.0920(18) 0.394(2) 0.1508(10)
C17 C -0.1328(18) 0.4133(17) 0.1975(10)
C18 C -0.1825(17) 0.3411(17) 0.2209(9)
C19 C -0.1932(17) 0.2497(17) 0.1983(10)
C20 C -0.1550(16) 0.2304(19) 0.1525(10)
C21 C -0.1036(18) 0.3000(18) 0.1301(11)
H19 H -0.0754 0.2843 0.1002
C22 C -0.2320(19) 0.3684(19) 0.2684(10)
H20 H -0.2781 0.3161 0.2748
H21 H -0.2730 0.4255 0.2583
C23 C -0.1868(16) 0.4129(15) 0.3746(9)
H22 H -0.2431 0.3666 0.3769
C24 C -0.0980(18) 0.4034(17) 0.4263(9)
H23 H -0.0719 0.3384 0.4285
H24 H -0.0413 0.4485 0.4245
C25 C -0.139(2) 0.4250(19) 0.4764(12)
H25 H -0.0834 0.4181 0.5102
H26 H -0.1948 0.3795 0.4780
C26 C -0.1780(18) 0.5274(18) 0.4732(10)
H27 H -0.2029 0.5407 0.5064
H28 H -0.1206 0.5725 0.4730
C27 C -0.264(2) 0.543(2) 0.4221(11)
H29 H -0.2817 0.6112 0.4198
H30 H -0.3259 0.5057 0.4246
C28 C -0.2288(17) 0.5127(17) 0.3684(11)
H31 H -0.2876 0.5145 0.3360
H32 H -0.1753 0.5580 0.3623
C29 C -0.1642(18) 0.1262(16) 0.1266(10)
H33 H -0.2231 0.0936 0.1374
C30 C -0.189(2) 0.1228(18) 0.0630(11)
H34 H -0.1307 0.1480 0.0504
H35 H -0.2491 0.1610 0.0481
H36 H -0.2043 0.0571 0.0503
C31 C -0.0682(19) 0.0672(18) 0.1518(11)
C32 C -0.0688(15) 0.0050(15) 0.1997(9)
C33 C 0.0162(17) -0.0491(17) 0.2229(9)
C34 C 0.1052(17) -0.0467(18) 0.1987(9)
C35 C 0.1036(16) 0.0103(15) 0.1524(9)
C36 C 0.0176(17) 0.0662(17) 0.1303(10)
H37 H 0.0187 0.1046 0.0993
C37 C 0.0102(19) -0.1146(19) 0.2691(10)
H38 H 0.0609 -0.1647 0.2713
H39 H -0.0586 -0.1457 0.2613
C38 C 0.0207(17) -0.1260(16) 0.3745(9)
H40 H 0.0639 -0.1825 0.3749
C39 C 0.0691(16) -0.0651(16) 0.4283(9)
H41 H 0.1409 -0.0465 0.4294
H42 H 0.0301 -0.0069 0.4286
C40 C 0.0645(19) -0.1276(18) 0.4790(10)
H43 H 0.0925 -0.0906 0.5132
H44 H 0.1075 -0.1833 0.4796
C41 C -0.0494(19) -0.1624(19) 0.4772(10)
H45 H -0.0503 -0.2023 0.5096
H46 H -0.0925 -0.1072 0.4782
C42 C -0.0926(18) -0.2212(18) 0.4226(10)
H47 H -0.1644 -0.2414 0.4204
H48 H -0.0523 -0.2790 0.4234
C43 C -0.0877(18) -0.1615(18) 0.3697(10)
H49 H -0.1109 -0.2015 0.3363
H50 H -0.1334 -0.1071 0.3665
C44 C 0.1991(18) 0.014(2) 0.1267(10)
H51 H 0.2351 -0.0472 0.1366
C45 C 0.1718(19) 0.019(2) 0.0634(11)
H52 H 0.1390 -0.0408 0.0477
H53 H 0.2343 0.0310 0.0508
H54 H 0.1249 0.0709 0.0515
C46 C 0.2758(18) 0.0946(17) 0.1527(9)
C47 C 0.3588(18) 0.0804(18) 0.1989(10)
C48 C 0.4286(17) 0.1502(17) 0.2220(9)
C49 C 0.4196(18) 0.2440(18) 0.1976(10)
C50 C 0.3399(19) 0.2671(18) 0.1530(10)
C51 C 0.2682(18) 0.1899(18) 0.1309(11)
H55 H 0.2130 0.2025 0.1004
C52 C 0.5220(16) 0.1273(16) 0.2702(9)
H56 H 0.5573 0.0720 0.2603
H57 H 0.5711 0.1821 0.2771
C53 C 0.5720(16) 0.0845(15) 0.3729(9)
H58 H 0.6304 0.1307 0.3746
C54 C 0.6106(17) -0.0203(17) 0.3672(9)
H59 H 0.5521 -0.0664 0.3610
H60 H 0.6421 -0.0238 0.3355
C55 C 0.6915(17) -0.0445(16) 0.4219(9)
H61 H 0.7119 -0.1109 0.4200
H62 H 0.7532 -0.0031 0.4252
C56 C 0.650(2) -0.031(2) 0.4730(11)
H63 H 0.7035 -0.0480 0.5061
H64 H 0.5903 -0.0747 0.4707
C57 C 0.619(2) 0.0732(18) 0.4780(11)
H65 H 0.6786 0.1169 0.4810
H66 H 0.5922 0.0810 0.5111
C58 C 0.5337(17) 0.0954(17) 0.4249(9)
H67 H 0.4739 0.0520 0.4228
H68 H 0.5112 0.1610 0.4273
C59 C 0.3296(18) 0.3656(16) 0.1263(10)
H69 H 0.3988 0.3975 0.1371
C60 C 0.298(2) 0.3639(18) 0.0636(10)
H70 H 0.3449 0.3241 0.0496
H71 H 0.3019 0.4284 0.0498
H72 H 0.2284 0.3380 0.0512
N1 N 0.3120(15) 0.5612(14) 0.3247(8)
H73 H 0.3548 0.5145 0.3211
H74 H 0.2551 0.5332 0.3318
N2 N -0.1456(13) 0.3885(13) 0.3226(7)
H75 H -0.1050 0.4376 0.3164
H76 H -0.1063 0.3368 0.3301
N3 N 0.0305(14) -0.0628(13) 0.3245(8)
H77 H -0.0139 -0.0149 0.3215
H78 H 0.0947 -0.0363 0.3319
N4 N 0.4852(15) 0.1062(14) 0.3215(8)
H79 H 0.4406 0.0557 0.3146
H80 H 0.4507 0.1566 0.3292
O1 O 0.4004(12) 0.4969(11) 0.2243(7)
H81 H 0.4253 0.4431 0.2277
O2 O 0.0559(12) 0.5964(11) 0.2183(6)
H82 H 0.0712 0.5950 0.2527
O3 O -0.1292(13) 0.5033(12) 0.2223(7)
H83 H -0.0745 0.5318 0.2212
O4 O -0.2447(12) 0.1761(11) 0.2198(6)
H84 H -0.2234 0.1751 0.2540
O5 O -0.1495(14) -0.0014(12) 0.2237(8)
H85 H -0.1719 0.0527 0.2262
O6 O 0.1873(12) -0.1046(12) 0.2177(7)
H86 H 0.2038 -0.1032 0.2521
O7 O 0.3763(12) -0.0077(11) 0.2241(7)
H87 H 0.3209 -0.0385 0.2194
O8 O 0.4903(13) 0.3186(11) 0.2196(7)
H88 H 0.5095 0.3129 0.2537
C61 C 0.4911(17) 0.1303(12) 0.0835(8)
H89 H 0.4325 0.1403 0.1006
Cl1 Cl 0.5555(7) 0.0318(7) 0.1169(4)
Cl2 Cl 0.4370(8) 0.1091(9) 0.0131(4)
Cl3 Cl 0.5670(6) 0.2370(6) 0.0951(4)
C62 C -0.303(5) -0.191(5) 0.249(3)
H90 H -0.2574 -0.1357 0.2641
Cl4 Cl -0.2296(18) -0.279(2) 0.2227(11)
Cl5 Cl -0.418(2) -0.151(2) 0.2033(13)
Cl6 Cl -0.3442(18) -0.2500(18) 0.3019(8)
C64 C 0.194(3) 0.2599(16) 0.3026(9)
H92 H 0.2612 0.2883 0.2991
Cl10 Cl 0.2197(9) 0.1480(7) 0.3307(6)
Cl11 Cl 0.1159(18) 0.2530(15) 0.2366(6)
Cl12 Cl 0.1416(11) 0.3416(8) 0.3389(6)
C65 C 0.332(4) 0.704(3) 0.0999(18)
H93 H 0.3894 0.6645 0.1208
Cl13 Cl 0.2720(12) 0.6497(12) 0.0443(6)
Cl14 Cl 0.3891(13) 0.8279(14) 0.0747(7)
Cl15 Cl 0.2623(10) 0.7475(7) 0.1436(5)
C66 C -0.351(4) 0.561(2) 0.1134(17)
H94 H -0.2790 0.5764 0.1333
Cl16 Cl -0.4258(9) 0.5373(10) 0.1605(5)
Cl17 Cl -0.3563(16) 0.4635(13) 0.0707(8)
Cl18 Cl -0.4078(17) 0.6661(15) 0.0666(8)
C67 C -0.057(3) -0.178(3) 0.0787(15)
H95 H -0.0238 -0.1143 0.0884
Cl19 Cl -0.0228(8) -0.2586(6) 0.1369(4)
Cl20 Cl -0.0140(7) -0.2316(7) 0.0217(4)
Cl21 Cl -0.1922(7) -0.1710(7) 0.0579(4)
I1 I 0.06718(11) 0.59287(10) 0.35298(6)
I2 I -0.12463(12) 0.14236(10) 0.35310(7)
I3 I 0.29984(11) -0.09776(10) 0.35278(6)
I4 I 0.49159(12) 0.35336(10) 0.35309(6)
C63? C -0.388(4) -0.251(7) 0.220(5)
H91? H -0.4092 -0.2955 0.1880
Cl7? Cl -0.3244(19) -0.310(2) 0.2834(12)
Cl8? Cl -0.294(3) -0.160(3) 0.2100(16)
Cl9? Cl -0.497(2) -0.198(2) 0.2387(12)
loop_
_geom_bond_atom_site_label_1
_geom_bond_atom_site_label_2
_geom_bond_site_symmetry_1
_geom_bond_site_symmetry_2
C1 C2 1_555 1_555
C2 C3 1_555 1_555
C3 C4 1_555 1_555
C4 C5 1_555 1_555
C5 C6 1_555 1_555
C6 C1 1_555 1_555
H1 C6 1_555 1_555
C7 C3 1_555 1_555
H2 C7 1_555 1_555
H3 C7 1_555 1_555
C8 H4 1_555 1_555
C9 C8 1_555 1_555
H5 C9 1_555 1_555
H6 C9 1_555 1_555
C10 C9 1_555 1_555
H7 C10 1_555 1_555
H8 C10 1_555 1_555
C11 C10 1_555 1_555
H9 C11 1_555 1_555
H10 C11 1_555 1_555
C12 C11 1_555 1_555
H11 C12 1_555 1_555
H12 C12 1_555 1_555
C13 C8 1_555 1_555
H13 C13 1_555 1_555
H14 C13 1_555 1_555
C14 C5 1_555 1_555
H15 C14 1_555 1_555
C15 C14 1_555 1_555
H16 C15 1_555 1_555
H17 C15 1_555 1_555
H18 C15 1_555 1_555
C16 C14 1_555 1_555
C17 C16 1_555 1_555
C18 C17 1_555 1_555
C19 C18 1_555 1_555
C20 C19 1_555 1_555
C21 C16 1_555 1_555
H19 C21 1_555 1_555
C22 C18 1_555 1_555
H20 C22 1_555 1_555
H21 C22 1_555 1_555
C23 H22 1_555 1_555
C24 C23 1_555 1_555
H23 C24 1_555 1_555
H24 C24 1_555 1_555
C25 C24 1_555 1_555
H25 C25 1_555 1_555
H26 C25 1_555 1_555
C26 C25 1_555 1_555
H27 C26 1_555 1_555
H28 C26 1_555 1_555
C27 C26 1_555 1_555
H29 C27 1_555 1_555
H30 C27 1_555 1_555
C28 C23 1_555 1_555
H31 C28 1_555 1_555
H32 C28 1_555 1_555
C29 C20 1_555 1_555
H33 C29 1_555 1_555
C30 C29 1_555 1_555
H34 C30 1_555 1_555
H35 C30 1_555 1_555
H36 C30 1_555 1_555
C31 C29 1_555 1_555
C32 C31 1_555 1_555
C33 C32 1_555 1_555
C34 C33 1_555 1_555
C35 C34 1_555 1_555
C36 C31 1_555 1_555
H37 C36 1_555 1_555
C37 C33 1_555 1_555
H38 C37 1_555 1_555
H39 C37 1_555 1_555
C38 H40 1_555 1_555
C39 C38 1_555 1_555
H41 C39 1_555 1_555
H42 C39 1_555 1_555
C40 C39 1_555 1_555
H43 C40 1_555 1_555
H44 C40 1_555 1_555
C41 C40 1_555 1_555
H45 C41 1_555 1_555
H46 C41 1_555 1_555
C42 C41 1_555 1_555
H47 C42 1_555 1_555
H48 C42 1_555 1_555
C43 C38 1_555 1_555
H49 C43 1_555 1_555
H50 C43 1_555 1_555
C44 C35 1_555 1_555
H51 C44 1_555 1_555
C45 C44 1_555 1_555
H52 C45 1_555 1_555
H53 C45 1_555 1_555
H54 C45 1_555 1_555
C46 C44 1_555 1_555
C47 C46 1_555 1_555
C48 C47 1_555 1_555
C49 C48 1_555 1_555
C50 C49 1_555 1_555
C51 C46 1_555 1_555
H55 C51 1_555 1_555
C52 C48 1_555 1_555
H56 C52 1_555 1_555
H57 C52 1_555 1_555
C53 H58 1_555 1_555
C54 C53 1_555 1_555
H59 C54 1_555 1_555
H60 C54 1_555 1_555
C55 C54 1_555 1_555
H61 C55 1_555 1_555
H62 C55 1_555 1_555
C56 C55 1_555 1_555
H63 C56 1_555 1_555
H64 C56 1_555 1_555
C57 C56 1_555 1_555
H65 C57 1_555 1_555
H66 C57 1_555 1_555
C58 C53 1_555 1_555
H67 C58 1_555 1_555
H68 C58 1_555 1_555
C59 C1 1_555 1_555
H69 C59 1_555 1_555
C60 C59 1_555 1_555
H70 C60 1_555 1_555
H71 C60 1_555 1_555
H72 C60 1_555 1_555
N1 C7 1_555 1_555
H73 N1 1_555 1_555
H74 N1 1_555 1_555
N2 C22 1_555 1_555
H75 N2 1_555 1_555
H76 N2 1_555 1_555
N3 C37 1_555 1_555
H77 N3 1_555 1_555
H78 N3 1_555 1_555
N4 C52 1_555 1_555
H79 N4 1_555 1_555
H80 N4 1_555 1_555
O1 C2 1_555 1_555
H81 O1 1_555 1_555
O2 C4 1_555 1_555
H82 O2 1_555 1_555
O3 C17 1_555 1_555
H83 O3 1_555 1_555
O4 C19 1_555 1_555
H84 O4 1_555 1_555
O5 C32 1_555 1_555
H85 O5 1_555 1_555
O6 C34 1_555 1_555
H86 O6 1_555 1_555
O7 C47 1_555 1_555
H87 O7 1_555 1_555
O8 C49 1_555 1_555
H88 O8 1_555 1_555
C61 H89 1_555 1_555
Cl1 C61 1_555 1_555
Cl2 C61 1_555 1_555
Cl3 C61 1_555 1_555
C62 H90 1_555 1_555
Cl4 C62 1_555 1_555
Cl5 C62 1_555 1_555
Cl6 C62 1_555 1_555
C64 H92 1_555 1_555
Cl10 C64 1_555 1_555
Cl11 C64 1_555 1_555
Cl12 C64 1_555 1_555
C65 H93 1_555 1_555
Cl13 C65 1_555 1_555
Cl14 C65 1_555 1_555
Cl15 C65 1_555 1_555
C66 H94 1_555 1_555
Cl16 C66 1_555 1_555
Cl17 C66 1_555 1_555
Cl18 C66 1_555 1_555
C67 H95 1_555 1_555
Cl19 C67 1_555 1_555
Cl20 C67 1_555 1_555
Cl21 C67 1_555 1_555
C8 N1 1_555 1_555
C12 C13 1_555 1_555
C20 C21 1_555 1_555
C23 N2 1_555 1_555
C27 C28 1_555 1_555
C35 C36 1_555 1_555
C38 N3 1_555 1_555
C42 C43 1_555 1_555
C50 C51 1_555 1_555
C50 C59 1_555 1_555
C53 N4 1_555 1_555
C57 C58 1_555 1_555

#END
