
#######################################################################
#
#                 Cambridge Crystallographic Data Centre
#                                CCDC 
#
#######################################################################
#
# If this CIF has been generated from an entry in the Cambridge 
# Structural Database, then it will include bibliographic, chemical, 
# crystal, experimental, refinement or atomic coordinate data resulting 
# from the CCDC's data processing and validation procedures.
#
#######################################################################

data_LAJXAY
_chemical_name_common            
'5,11,17,23-tetrakis((cyclohexylammonium)methyl)-2,8,14,20-tetramethyl-4,6,10,12,16,18,22,24-octahydroxycalix(4)arene tetrakis(bromide) 1,4-dioxane chloroform unknown solvate'
_chemical_formula_moiety         
'C60 H88 N4 O8 4+,C4 H8 O2,4(Br1 1-),0.83(C1 H1 Cl3)'
_chemical_name_systematic        
'5,11,17,23-tetrakis((cyclohexylammonium)methyl)-2,8,14,20-tetramethyl-calix(4)resorcinarene tetrakis(bromide) 1,4-dioxane chloroform unknown solvate'
_symmetry_cell_setting           triclinic
_symmetry_space_group_name_H-M   'P -1'
_symmetry_Int_Tables_number      2
_space_group_name_Hall           '-P 1'
loop_
_symmetry_equiv_pos_site_id
_symmetry_equiv_pos_as_xyz
1 x,y,z
2 -x,-y,-z
_cell_length_a                   13.0624(12)
_cell_length_b                   13.0763(13)
_cell_length_c                   24.515(4)
_cell_angle_alpha                87.875(10)
_cell_angle_beta                 79.295(11)
_cell_angle_gamma                89.805(8)
_cell_volume                     4111.63
_exptl_crystal_colour            colorless
_exptl_crystal_description       plate
_cell_formula_units_Z            2
loop_
_atom_site_label
_atom_site_type_symbol
_atom_site_fract_x
_atom_site_fract_y
_atom_site_fract_z
Br1 Br 0.48067(9) 0.64175(8) 0.34941(5)
C1 C 0.7172(10) 0.5802(7) 0.1553(5)
C2 C 0.6826(9) 0.5169(7) 0.2003(5)
C3 C 0.7565(9) 0.4579(7) 0.2249(4)
C4 C 0.8616(9) 0.4655(7) 0.2018(4)
C5 C 0.8965(9) 0.5271(7) 0.1555(4)
C6 C 0.8253(9) 0.5848(8) 0.1331(5)
H1 H 0.8493 0.6291 0.1017
C7 C 0.7117(8) 0.3863(7) 0.2752(4)
H2 H 0.6510 0.3486 0.2670
H3 H 0.7652 0.3355 0.2813
C8 C 0.6333(8) 0.3795(7) 0.3756(4)
H4 H 0.6790 0.3186 0.3776
C9 C 0.6298(8) 0.4390(7) 0.4284(4)
H5 H 0.5850 0.4999 0.4272
H6 H 0.7009 0.4630 0.4302
C10 C 0.5876(8) 0.3727(8) 0.4805(4)
H7 H 0.5839 0.4132 0.5141
H8 H 0.6341 0.3136 0.4833
C11 C 0.4773(9) 0.3348(7) 0.4759(5)
H9 H 0.4499 0.2892 0.5084
H10 H 0.4300 0.3942 0.4765
C12 C 0.4780(8) 0.2783(7) 0.4238(4)
H11 H 0.4057 0.2597 0.4214
H12 H 0.5180 0.2142 0.4255
C13 C 0.5263(8) 0.3418(8) 0.3717(4)
H13 H 0.5309 0.2994 0.3387
H14 H 0.4809 0.4010 0.3669
C14 C 1.0127(10) 0.5352(7) 0.1309(5)
H15 H 1.0457 0.4700 0.1413
C15 C 1.0308(12) 0.5433(9) 0.0684(5)
H16 H 1.0004 0.4835 0.0543
H17 H 1.1058 0.5459 0.0536
H18 H 0.9979 0.6057 0.0565
C16 C 1.0634(8) 0.6220(7) 0.1566(4)
C17 C 1.1094(8) 0.6015(7) 0.2018(4)
C18 C 1.1604(8) 0.6793(7) 0.2271(4)
C19 C 1.1640(8) 0.7764(7) 0.2038(5)
C20 C 1.1181(8) 0.8011(7) 0.1560(4)
C21 C 1.0673(8) 0.7202(7) 0.1344(4)
H19 H 1.0347 0.7346 0.1034
C22 C 1.2071(8) 0.6500(7) 0.2735(4)
H20 H 1.2554 0.7048 0.2796
H21 H 1.2484 0.5871 0.2649
C23 C 1.1725(8) 0.5989(7) 0.3771(4)
H22 H 1.2332 0.6440 0.3792
C24 C 1.0906(8) 0.6102(7) 0.4284(4)
H23 H 1.0300 0.5663 0.4262
H24 H 1.0666 0.6821 0.4305
C25 C 1.1338(9) 0.5796(7) 0.4816(5)
H25 H 1.1907 0.6269 0.4857
H26 H 1.0779 0.5846 0.5147
C26 C 1.1741(8) 0.4724(7) 0.4777(4)
H27 H 1.1149 0.4247 0.4791
H28 H 1.2070 0.4557 0.5103
C27 C 1.2542(8) 0.4560(8) 0.4242(5)
H29 H 1.2749 0.3831 0.4229
H30 H 1.3172 0.4973 0.4249
C28 C 1.2100(9) 0.4866(7) 0.3705(4)
H31 H 1.2650 0.4811 0.3370
H32 H 1.1513 0.4412 0.3670
C29 C 1.1200(10) 0.9084(8) 0.1310(4)
H33 H 1.1802 0.9430 0.1426
C30 C 1.1432(12) 0.9134(9) 0.0688(5)
H34 H 1.0866 0.8806 0.0546
H35 H 1.2088 0.8778 0.0555
H36 H 1.1495 0.9851 0.0555
C31 C 1.0227(9) 0.9689(7) 0.1574(4)
C32 C 1.0247(9) 1.0276(6) 0.2036(4)
C33 C 0.9358(9) 1.0840(7) 0.2276(4)
C34 C 0.8462(9) 1.0808(7) 0.2052(4)
C35 C 0.8442(9) 1.0209(8) 0.1567(4)
C36 C 0.9339(9) 0.9663(7) 0.1351(4)
H37 H 0.9334 0.9258 0.1038
C37 C 0.9447(9) 1.1485(7) 0.2749(4)
H38 H 0.8869 1.1984 0.2804
H39 H 1.0112 1.1871 0.2666
C38 C 0.9535(8) 1.1401(6) 0.3778(4)
H40 H 0.9069 1.2013 0.3797
C39 C 0.9186(9) 1.0738(8) 0.4297(4)
H41 H 0.8452 1.0526 0.4317
H42 H 0.9619 1.0113 0.4280
C40 C 0.9277(7) 1.1299(7) 0.4804(4)
H43 H 0.9075 1.0841 0.5137
H44 H 0.8797 1.1890 0.4839
C41 C 1.0409(8) 1.1681(8) 0.4771(4)
H45 H 1.0453 1.2079 0.5102
H46 H 1.0884 1.1088 0.4767
C42 C 1.0736(8) 1.2341(8) 0.4254(4)
H47 H 1.1466 1.2565 0.4233
H48 H 1.0293 1.2959 0.4276
C43 C 1.0650(8) 1.1780(8) 0.3724(5)
H49 H 1.0831 1.2250 0.3394
H50 H 1.1138 1.1194 0.3678
C44 C 0.7475(8) 1.0216(8) 0.1316(4)
H51 H 0.7090 1.0857 0.1434
C45 C 0.7675(10) 1.0244(10) 0.0676(5)
H52 H 0.8163 0.9699 0.0540
H53 H 0.7974 1.0909 0.0533
H54 H 0.7016 1.0142 0.0548
C46 C 0.6738(9) 0.9290(8) 0.1568(5)
C47 C 0.5995(9) 0.9411(7) 0.2024(4)
C48 C 0.5322(8) 0.8606(7) 0.2263(4)
C49 C 0.5447(9) 0.7668(8) 0.2019(5)
C50 C 0.6206(8) 0.7511(7) 0.1555(4)
C51 C 0.6863(10) 0.8328(8) 0.1323(5)
H55 H 0.7386 0.8233 0.1003
C52 C 0.4479(8) 0.8803(8) 0.2753(4)
H56 H 0.3981 0.8223 0.2813
H57 H 0.4094 0.9429 0.2675
C53 C 0.4139(8) 0.9166(7) 0.3764(4)
H58 H 0.3531 0.8695 0.3784
C54 C 0.4595(9) 0.8988(7) 0.4279(4)
H59 H 0.5213 0.9433 0.4258
H60 H 0.4824 0.8268 0.4300
C55 C 0.3793(8) 0.9217(7) 0.4809(4)
H61 H 0.3191 0.8746 0.4845
H62 H 0.4118 0.9111 0.5141
C56 C 0.3434(9) 1.0302(8) 0.4771(4)
H63 H 0.4027 1.0769 0.4776
H64 H 0.2890 1.0437 0.5099
C57 C 0.2996(9) 1.0524(7) 0.4242(4)
H65 H 0.2354 1.0114 0.4259
H66 H 0.2805 1.1256 0.4224
C58 C 0.3755(8) 1.0281(7) 0.3725(5)
H67 H 0.4357 1.0756 0.3677
H68 H 0.3415 1.0374 0.3398
C59 C 0.6387(10) 0.6449(8) 0.1290(4)
H69 H 0.5706 0.6078 0.1385
C60 C 0.6652(10) 0.6536(9) 0.0663(5)
H70 H 0.6088 0.6891 0.0521
H71 H 0.6737 0.5850 0.0514
H72 H 0.7302 0.6923 0.0548
N1 N 0.6795(7) 0.4434(6) 0.3256(3)
H73 H 0.6320 0.4913 0.3192
H74 H 0.7359 0.4771 0.3330
N2 N 1.1275(6) 0.6305(6) 0.3266(3)
H75 H 1.0896 0.6885 0.3342
H76 H 1.0830 0.5806 0.3206
N3 N 0.9408(7) 1.0822(6) 0.3275(3)
H77 H 0.8787 1.0484 0.3350
H78 H 0.9920 1.0344 0.3211
N4 N 0.4924(6) 0.8933(6) 0.3270(3)
H79 H 0.5260 0.8348 0.3343
H80 H 0.5403 0.9447 0.3205
O1 O 0.5816(6) 0.5024(5) 0.2262(3)
H81 H 0.5416 0.5231 0.2050
O2 O 0.9324(6) 0.4077(5) 0.2239(3)
H82 H 0.9227 0.4147 0.2584
O3 O 1.1125(6) 0.5064(5) 0.2273(3)
H83 H 1.0583 0.4735 0.2251
O4 O 1.2105(6) 0.8559(5) 0.2250(3)
H84 H 1.1818 0.8633 0.2582
O5 O 1.1088(6) 1.0370(5) 0.2281(3)
H85 H 1.1481 0.9864 0.2209
O6 O 0.7598(6) 1.1347(5) 0.2254(3)
H86 H 0.7538 1.1384 0.2600
O7 O 0.5772(6) 1.0321(5) 0.2289(3)
H87 H 0.6313 1.0684 0.2243
O8 O 0.4822(6) 0.6845(5) 0.2231(3)
H88 H 0.4703 0.6849 0.2579
C61 C 0.796(3) 0.809(2) 0.3703(12)
H89 H 0.8239 0.8304 0.4032
H90 H 0.7228 0.8317 0.3754
C62 C 0.798(3) 0.707(2) 0.3697(11)
H91 H 0.7486 0.6794 0.4025
H92 H 0.8686 0.6831 0.3732
C63 C 0.823(4) 0.715(2) 0.2742(14)
H93 H 0.7936 0.6898 0.2429
H94 H 0.8969 0.6929 0.2685
C64 C 0.823(4) 0.830(3) 0.2701(15)
H95 H 0.8727 0.8563 0.2372
H96 H 0.7522 0.8562 0.2675
O9 O 0.8537(14) 0.8631(11) 0.3222(7)
O10 O 0.7721(12) 0.6667(11) 0.3216(6)
C69 C 1.0212(10) 1.2167(15) 0.0825(5)
H105 H 1.0053 1.1455 0.0980
Cl1 Cl 1.0667(5) 1.2056(4) 0.0128(2)
Cl2 Cl 0.9098(8) 1.2842(5) 0.1003(3)
Cl3 Cl 1.1098(9) 1.2638(7) 0.1169(5)
C70 C 0.336(3) 0.6633(13) 0.0762(10)
H106 H 0.2622 0.6677 0.0965
Cl4 Cl 0.3901(10) 0.7712(12) 0.1004(5)
Cl5 Cl 0.3716(14) 0.5468(18) 0.1012(11)
Cl6 Cl 0.3166(17) 0.6565(13) 0.0076(9)
Br2 Br 1.12280(9) 0.87892(7) 0.35060(4)
Br3 Br 0.68429(9) 1.08191(8) 0.35080(5)
Br4 Br 0.92014(9) 0.43880(8) 0.35005(5)
C65? C 0.855(2) 0.760(3) 0.3698(11)
H97? H 0.8763 0.8320 0.3715
H98? H 0.8704 0.7222 0.4030
C66? C 0.739(2) 0.756(3) 0.3713(12)
H99? H 0.7151 0.6839 0.3740
H100? H 0.7020 0.7904 0.4047
C67? C 0.768(2) 0.763(3) 0.2730(11)
H101? H 0.7491 0.7986 0.2400
H102? H 0.7503 0.6898 0.2723
C68? C 0.889(2) 0.775(3) 0.2710(10)
H103? H 0.9291 0.7456 0.2369
H104? H 0.9084 0.8481 0.2716
O11? O 0.9125(12) 0.7176(11) 0.3220(6)
O12? O 0.7111(12) 0.8058(11) 0.3222(7)
loop_
_geom_bond_atom_site_label_1
_geom_bond_atom_site_label_2
_geom_bond_site_symmetry_1
_geom_bond_site_symmetry_2
C1 C2 1_555 1_555
C2 C3 1_555 1_555
C3 C4 1_555 1_555
C4 C5 1_555 1_555
C5 C6 1_555 1_555
C6 C1 1_555 1_555
H1 C6 1_555 1_555
C7 C3 1_555 1_555
H2 C7 1_555 1_555
H3 C7 1_555 1_555
C8 H4 1_555 1_555
C9 C8 1_555 1_555
H5 C9 1_555 1_555
H6 C9 1_555 1_555
C10 C9 1_555 1_555
H7 C10 1_555 1_555
H8 C10 1_555 1_555
C11 C10 1_555 1_555
H9 C11 1_555 1_555
H10 C11 1_555 1_555
C12 C11 1_555 1_555
H11 C12 1_555 1_555
H12 C12 1_555 1_555
C13 C8 1_555 1_555
H13 C13 1_555 1_555
H14 C13 1_555 1_555
C14 C5 1_555 1_555
H15 C14 1_555 1_555
C15 C14 1_555 1_555
H16 C15 1_555 1_555
H17 C15 1_555 1_555
H18 C15 1_555 1_555
C16 C14 1_555 1_555
C17 C16 1_555 1_555
C18 C17 1_555 1_555
C19 C18 1_555 1_555
C20 C19 1_555 1_555
C21 C16 1_555 1_555
H19 C21 1_555 1_555
C22 C18 1_555 1_555
H20 C22 1_555 1_555
H21 C22 1_555 1_555
C23 H22 1_555 1_555
C24 C23 1_555 1_555
H23 C24 1_555 1_555
H24 C24 1_555 1_555
C25 C24 1_555 1_555
H25 C25 1_555 1_555
H26 C25 1_555 1_555
C26 C25 1_555 1_555
H27 C26 1_555 1_555
H28 C26 1_555 1_555
C27 C26 1_555 1_555
H29 C27 1_555 1_555
H30 C27 1_555 1_555
C28 C23 1_555 1_555
H31 C28 1_555 1_555
H32 C28 1_555 1_555
C29 C20 1_555 1_555
H33 C29 1_555 1_555
C30 C29 1_555 1_555
H34 C30 1_555 1_555
H35 C30 1_555 1_555
H36 C30 1_555 1_555
C31 C29 1_555 1_555
C32 C31 1_555 1_555
C33 C32 1_555 1_555
C34 C33 1_555 1_555
C35 C34 1_555 1_555
C36 C31 1_555 1_555
H37 C36 1_555 1_555
C37 C33 1_555 1_555
H38 C37 1_555 1_555
H39 C37 1_555 1_555
C38 H40 1_555 1_555
C39 C38 1_555 1_555
H41 C39 1_555 1_555
H42 C39 1_555 1_555
C40 C39 1_555 1_555
H43 C40 1_555 1_555
H44 C40 1_555 1_555
C41 C40 1_555 1_555
H45 C41 1_555 1_555
H46 C41 1_555 1_555
C42 C41 1_555 1_555
H47 C42 1_555 1_555
H48 C42 1_555 1_555
C43 C38 1_555 1_555
H49 C43 1_555 1_555
H50 C43 1_555 1_555
C44 C35 1_555 1_555
H51 C44 1_555 1_555
C45 C44 1_555 1_555
H52 C45 1_555 1_555
H53 C45 1_555 1_555
H54 C45 1_555 1_555
C46 C44 1_555 1_555
C47 C46 1_555 1_555
C48 C47 1_555 1_555
C49 C48 1_555 1_555
C50 C49 1_555 1_555
C51 C46 1_555 1_555
H55 C51 1_555 1_555
C52 C48 1_555 1_555
H56 C52 1_555 1_555
H57 C52 1_555 1_555
C53 H58 1_555 1_555
C54 C53 1_555 1_555
H59 C54 1_555 1_555
H60 C54 1_555 1_555
C55 C54 1_555 1_555
H61 C55 1_555 1_555
H62 C55 1_555 1_555
C56 C55 1_555 1_555
H63 C56 1_555 1_555
H64 C56 1_555 1_555
C57 C56 1_555 1_555
H65 C57 1_555 1_555
H66 C57 1_555 1_555
C58 C53 1_555 1_555
H67 C58 1_555 1_555
H68 C58 1_555 1_555
C59 C1 1_555 1_555
H69 C59 1_555 1_555
C60 C59 1_555 1_555
H70 C60 1_555 1_555
H71 C60 1_555 1_555
H72 C60 1_555 1_555
N1 C7 1_555 1_555
H73 N1 1_555 1_555
H74 N1 1_555 1_555
N2 C22 1_555 1_555
H75 N2 1_555 1_555
H76 N2 1_555 1_555
N3 C37 1_555 1_555
H77 N3 1_555 1_555
H78 N3 1_555 1_555
N4 C52 1_555 1_555
H79 N4 1_555 1_555
H80 N4 1_555 1_555
O1 C2 1_555 1_555
H81 O1 1_555 1_555
O2 C4 1_555 1_555
H82 O2 1_555 1_555
O3 C17 1_555 1_555
H83 O3 1_555 1_555
O4 C19 1_555 1_555
H84 O4 1_555 1_555
O5 C32 1_555 1_555
H85 O5 1_555 1_555
O6 C34 1_555 1_555
H86 O6 1_555 1_555
O7 C47 1_555 1_555
H87 O7 1_555 1_555
O8 C49 1_555 1_555
H88 O8 1_555 1_555
C61 H89 1_555 1_555
H90 C61 1_555 1_555
C62 C61 1_555 1_555
H91 C62 1_555 1_555
H92 C62 1_555 1_555
C63 H93 1_555 1_555
H94 C63 1_555 1_555
C64 C63 1_555 1_555
H95 C64 1_555 1_555
H96 C64 1_555 1_555
O9 C61 1_555 1_555
O10 C62 1_555 1_555
C69 H105 1_555 1_555
Cl1 C69 1_555 1_555
Cl2 C69 1_555 1_555
Cl3 C69 1_555 1_555
C70 H106 1_555 1_555
Cl4 C70 1_555 1_555
Cl5 C70 1_555 1_555
Cl6 C70 1_555 1_555
C8 N1 1_555 1_555
C12 C13 1_555 1_555
C20 C21 1_555 1_555
C23 N2 1_555 1_555
C27 C28 1_555 1_555
C35 C36 1_555 1_555
C38 N3 1_555 1_555
C42 C43 1_555 1_555
C50 C51 1_555 1_555
C50 C59 1_555 1_555
C53 N4 1_555 1_555
C57 C58 1_555 1_555
C63 O10 1_555 1_555
C64 O9 1_555 1_555

#END
