
#######################################################################
#
#                 Cambridge Crystallographic Data Centre
#                                CCDC 
#
#######################################################################
#
# If this CIF has been generated from an entry in the Cambridge 
# Structural Database, then it will include bibliographic, chemical, 
# crystal, experimental, refinement or atomic coordinate data resulting 
# from the CCDC's data processing and validation procedures.
#
#######################################################################

data_LAJYIG
_chemical_formula_moiety         'C22 H26 N4 O2'
_chemical_name_systematic        
N,N'-bis(2-cyanoethyl)-N,N'-bis(2-hydroxybenzyl)ethanediamine
_symmetry_cell_setting           tetragonal
_symmetry_space_group_name_H-M   'P 41 21 2'
_symmetry_Int_Tables_number      92
_space_group_name_Hall           'P 4abw 2nw'
loop_
_symmetry_equiv_pos_site_id
_symmetry_equiv_pos_as_xyz
1 x,y,z
2 -x,-y,1/2+z
3 1/2-y,1/2+x,1/4+z
4 1/2+y,1/2-x,3/4+z
5 1/2-x,1/2+y,1/4-z
6 1/2+x,1/2-y,3/4-z
7 y,x,-z
8 -y,-x,1/2-z
_cell_length_a                   7.7030(11)
_cell_length_b                   7.7030(11)
_cell_length_c                   34.907(7)
_cell_angle_alpha                90
_cell_angle_beta                 90
_cell_angle_gamma                90
_cell_volume                     2071.25
_exptl_crystal_colour            colorless
_exptl_crystal_description       block
_chemical_melting_point          '375.15 K'
_cell_formula_units_Z            4
loop_
_atom_site_label
_atom_site_type_symbol
_atom_site_fract_x
_atom_site_fract_y
_atom_site_fract_z
C1 C 0.4297(8) 0.2247(8) 0.91836(13)
C2 C 0.2842(5) 0.1193(5) 0.93607(9)
H1 H 0.1759 0.1827 0.9337
H2 H 0.2719 0.0107 0.9223
C3 C 0.1602(5) 0.0212(5) 0.99720(12)
N1 N 0.3552(5) 0.3434(6) 0.85079(12)
C4 C 0.3877(6) 0.2901(6) 0.88041(13)
H3 H 0.203(5) -0.033(5) 1.0231(10)
H4 H 0.114(5) -0.078(5) 0.9831(10)
H5 H 0.469(8) 0.261(8) 1.0082(15)
H6 H 0.449(5) 0.337(6) 0.9356(13)
H7 H 0.532(7) 0.171(6) 0.9171(12)
N2 N 0.3179(4) 0.0826(4) 0.97686(8)
C5 C 0.5265(5) -0.0555(6) 1.02223(11)
O1 O 0.5246(5) 0.2571(5) 1.02503(11)
C6 C 0.4573(5) -0.0504(6) 0.98148(11)
H8 H 0.5517 -0.0243 0.9640
H9 H 0.4115 -0.1637 0.9748
C7 C 0.5623(6) -0.2121(7) 1.04037(12)
H10 H 0.5386 -0.3165 1.0280
C8 C 0.5591(5) 0.0999(6) 1.04183(12)
C9 C 0.6286(6) 0.0976(8) 1.07841(13)
H11 H 0.6494 0.2011 1.0914
C10 C 0.6667(7) -0.0595(10) 1.09552(15)
H12 H 0.7154 -0.0614 1.1199
C11 C 0.6335(8) -0.2125(8) 1.07693(15)
H13 H 0.6588 -0.3175 1.0889
C1F C 0.2247(8) 0.4297(8) 1.08164(13)
C2F C 0.1193(5) 0.2842(5) 1.06393(9)
H1F H 0.1827 0.1759 1.0663
H2F H 0.0107 0.2719 1.0777
C3F C 0.0212(5) 0.1602(5) 1.00280(12)
N1F N 0.3434(6) 0.3552(5) 1.14921(12)
C4F C 0.2901(6) 0.3877(6) 1.11959(13)
H3F H -0.033(5) 0.203(5) 0.9769(10)
H4F H -0.078(5) 0.114(5) 1.0169(10)
H5F H 0.261(8) 0.469(8) 0.9918(15)
H6F H 0.337(6) 0.449(5) 1.0644(13)
H7F H 0.171(6) 0.532(7) 1.0829(12)
N2F N 0.0826(4) 0.3179(4) 1.02314(8)
C5F C -0.0555(6) 0.5265(5) 0.97777(11)
O1F O 0.2571(5) 0.5246(5) 0.97497(11)
C6F C -0.0504(6) 0.4573(5) 1.01852(11)
H8F H -0.0243 0.5517 1.0360
H9F H -0.1637 0.4115 1.0252
C7F C -0.2121(7) 0.5623(6) 0.95963(12)
H10F H -0.3165 0.5386 0.9720
C8F C 0.0999(6) 0.5591(5) 0.95817(12)
C9F C 0.0976(8) 0.6286(6) 0.92159(13)
H11F H 0.2011 0.6494 0.9086
C10F C -0.0595(10) 0.6667(7) 0.90448(15)
H12F H -0.0614 0.7154 0.8801
C11F C -0.2125(8) 0.6335(8) 0.92307(15)
H13F H -0.3175 0.6588 0.9111
loop_
_geom_bond_atom_site_label_1
_geom_bond_atom_site_label_2
_geom_bond_site_symmetry_1
_geom_bond_site_symmetry_2
C1 C2 1_555 1_555
C2 H1 1_555 1_555
H2 C2 1_555 1_555
C3 H3 1_555 1_555
N1 C4 1_555 1_555
C4 C1 1_555 1_555
H4 C3 1_555 1_555
H5 O1 1_555 1_555
H6 C1 1_555 1_555
H7 C1 1_555 1_555
N2 C2 1_555 1_555
C5 C6 1_555 1_555
O1 C8 1_555 1_555
C6 N2 1_555 1_555
H8 C6 1_555 1_555
H9 C6 1_555 1_555
C7 C5 1_555 1_555
H10 C7 1_555 1_555
C8 C5 1_555 1_555
C9 C8 1_555 1_555
H11 C9 1_555 1_555
C10 C9 1_555 1_555
H12 C10 1_555 1_555
C11 C7 1_555 1_555
H13 C11 1_555 1_555
C1F C2F 1_555 1_555
C2F H1F 1_555 1_555
H2F C2F 1_555 1_555
C3F C3 1_555 1_555
N1F C4F 1_555 1_555
C4F C1F 1_555 1_555
H3F C3F 1_555 1_555
H4F C3F 1_555 1_555
H5F O1F 1_555 1_555
H6F C1F 1_555 1_555
H7F C1F 1_555 1_555
N2F C2F 1_555 1_555
C5F C6F 1_555 1_555
O1F C8F 1_555 1_555
C6F N2F 1_555 1_555
H8F C6F 1_555 1_555
H9F C6F 1_555 1_555
C7F C5F 1_555 1_555
H10F C7F 1_555 1_555
C8F C5F 1_555 1_555
C9F C8F 1_555 1_555
H11F C9F 1_555 1_555
C10F C9F 1_555 1_555
H12F C10F 1_555 1_555
C11F C7F 1_555 1_555
H13F C11F 1_555 1_555
C3 N2 1_555 1_555
C10 C11 1_555 1_555
C3F N2F 1_555 1_555
C10F C11F 1_555 1_555

#END
