
#######################################################################
#
#                 Cambridge Crystallographic Data Centre
#                                CCDC 
#
#######################################################################
#
# If this CIF has been generated from an entry in the Cambridge 
# Structural Database, then it will include bibliographic, chemical, 
# crystal, experimental, refinement or atomic coordinate data resulting 
# from the CCDC's data processing and validation procedures.
#
#######################################################################

data_LAJZAZ
_chemical_formula_moiety         'C10 H8 N4 O2'
_chemical_name_systematic        
N'-[(1E)-fur-2-ylmethylidene]pyrazine-2-carbohydrazide
_symmetry_cell_setting           monoclinic
_symmetry_space_group_name_H-M   'P 21/c'
_symmetry_Int_Tables_number      14
_space_group_name_Hall           '-P 2ybc'
loop_
_symmetry_equiv_pos_site_id
_symmetry_equiv_pos_as_xyz
1 x,y,z
2 -x,1/2+y,1/2-z
3 -x,-y,-z
4 x,1/2-y,1/2+z
_cell_length_a                   5.7352(3)
_cell_length_b                   17.7561(14)
_cell_length_c                   14.3875(11)
_cell_angle_alpha                90
_cell_angle_beta                 99.497(5)
_cell_angle_gamma                90
_cell_volume                     1445.07
_exptl_crystal_colour            orange
_exptl_crystal_description       needle
_cell_formula_units_Z            6
loop_
_atom_site_label
_atom_site_type_symbol
_atom_site_fract_x
_atom_site_fract_y
_atom_site_fract_z
O1 O 1.0438(3) 0.33789(11) 0.37021(13)
O2 O 0.5137(4) 0.50634(11) 0.14662(13)
N1 N 1.1032(4) 0.19164(12) 0.59721(15)
N2 N 0.6677(3) 0.25654(12) 0.51617(15)
N3 N 0.6530(4) 0.35853(12) 0.37504(15)
H1 H 0.5332 0.3490 0.4044
N4 N 0.6234(4) 0.40682(12) 0.29783(15)
C1 C 0.8706(4) 0.27269(14) 0.48557(17)
C2 C 1.0834(4) 0.24031(15) 0.52504(18)
H2 H 1.2214 0.2531 0.5000
C3 C 0.9002(4) 0.17710(15) 0.62877(19)
H3 H 0.9037 0.1439 0.6808
C4 C 0.6871(4) 0.20823(15) 0.58890(18)
H4 H 0.5490 0.1951 0.6137
C5 C 0.8643(4) 0.32638(14) 0.40487(18)
C6 C 0.4108(5) 0.43201(14) 0.27540(19)
H5 H 0.2942 0.4170 0.3115
C7 C 0.3463(5) 0.48184(15) 0.19757(19)
C8 C 0.1325(5) 0.51225(17) 0.1613(2)
H6 H -0.0124 0.5046 0.1838
C9 C 0.1677(6) 0.55755(17) 0.0835(2)
H7 H 0.0513 0.5856 0.0431
C10 C 0.3981(6) 0.55275(18) 0.0785(2)
H8 H 0.4721 0.5784 0.0333
O3? O 0.5394(6) 0.5353(2) 0.4748(3)
O4? O 1.0822(13) 0.3598(4) 0.6966(5)
N5? N 0.490(2) 0.6792(11) 0.2481(14)
N6? N 0.9209(18) 0.6135(4) 0.3287(7)
N7? N 0.9360(10) 0.5175(3) 0.4748(3)
H9? H 1.0594 0.5306 0.4494
N8? N 0.9622(9) 0.4663(3) 0.5497(4)
C11? C 0.719(2) 0.6009(13) 0.3629(14)
C12? C 0.506(2) 0.6304(12) 0.3193(12)
H10? H 0.3658 0.6154 0.3410
C13? C 0.6935(16) 0.6945(6) 0.2166(6)
H11? H 0.6908 0.7285 0.1654
C14? C 0.9053(14) 0.6624(5) 0.2562(6)
H12? H 1.0443 0.6750 0.2317
C15? C 0.7214(12) 0.5468(4) 0.4416(5)
C16? C 1.1775(12) 0.4442(4) 0.5747(5)
H13? H 1.2946 0.4623 0.5406
C17? C 1.247(3) 0.3939(13) 0.6513(14)
C18? C 1.465(3) 0.3645(14) 0.6846(16)
H14? H 1.6067 0.3758 0.6613
C19? C 1.446(2) 0.3146(11) 0.7597(14)
H15? H 1.5676 0.2878 0.7988
C20? C 1.211(2) 0.3143(5) 0.7620(6)
H16? H 1.1420 0.2849 0.8055
loop_
_geom_bond_atom_site_label_1
_geom_bond_atom_site_label_2
_geom_bond_site_symmetry_1
_geom_bond_site_symmetry_2
O1 C5 1_555 1_555
O2 C7 1_555 1_555
N1 C2 1_555 1_555
N2 C1 1_555 1_555
N3 H1 1_555 1_555
N4 N3 1_555 1_555
C1 C2 1_555 1_555
C2 H2 1_555 1_555
C3 N1 1_555 1_555
H3 C3 1_555 1_555
C4 N2 1_555 1_555
H4 C4 1_555 1_555
C5 N3 1_555 1_555
C6 N4 1_555 1_555
H5 C6 1_555 1_555
C7 C6 1_555 1_555
C8 C7 1_555 1_555
H6 C8 1_555 1_555
C9 C8 1_555 1_555
H7 C9 1_555 1_555
C10 O2 1_555 1_555
H8 C10 1_555 1_555
C1 C5 1_555 1_555
C3 C4 1_555 1_555
C9 C10 1_555 1_555

#END
