
#######################################################################
#
#                 Cambridge Crystallographic Data Centre
#                                CCDC 
#
#######################################################################
#
# If this CIF has been generated from an entry in the Cambridge 
# Structural Database, then it will include bibliographic, chemical, 
# crystal, experimental, refinement or atomic coordinate data resulting 
# from the CCDC's data processing and validation procedures.
#
#######################################################################

data_LAKCIM
_chemical_formula_moiety         'C15 H22 B10'
_chemical_name_systematic        
2-methyl-4,5-diphenyl-1,2-dicarba-closo-dodecaborane(9)
_symmetry_cell_setting           monoclinic
_symmetry_space_group_name_H-M   'P 21/n'
_symmetry_Int_Tables_number      14
_space_group_name_Hall           '-P 2yn'
loop_
_symmetry_equiv_pos_site_id
_symmetry_equiv_pos_as_xyz
1 x,y,z
2 1/2-x,1/2+y,1/2-z
3 -x,-y,-z
4 1/2+x,1/2-y,1/2+z
_cell_length_a                   8.4210(3)
_cell_length_b                   12.6431(4)
_cell_length_c                   17.3048(6)
_cell_angle_alpha                90
_cell_angle_beta                 93.6610(10)
_cell_angle_gamma                90
_cell_volume                     1838.64
_exptl_crystal_colour            colorless
_exptl_crystal_description       block
_cell_formula_units_Z            4
loop_
_atom_site_label
_atom_site_type_symbol
_atom_site_fract_x
_atom_site_fract_y
_atom_site_fract_z
C1 C 0.69596(18) 0.23056(12) 0.16658(9)
H1 H 0.6777 0.1455 0.1759
C2 C 0.87771(19) 0.27845(13) 0.16120(10)
C3 C 1.0155(2) 0.20112(15) 0.16908(12)
H2 H 1.0625 0.1944 0.1202
H3 H 0.9775 0.1333 0.1847
H4 H 1.0939 0.2267 0.2073
C4 C 0.4192(2) 0.23115(13) 0.06217(9)
C5 C 0.4039(3) 0.12193(16) 0.06420(13)
H5 H 0.4757 0.0827 0.0956
C6 C 0.2841(3) 0.06983(18) 0.02053(15)
H6 H 0.2767 -0.0035 0.0230
C7 C 0.1772(3) 0.12533(19) -0.02585(12)
H7 H 0.0981 0.0902 -0.0558
C8 C 0.1874(2) 0.23324(19) -0.02800(12)
H8 H 0.1137 0.2718 -0.0588
C9 C 0.3065(2) 0.28512(16) 0.01525(11)
H9 H 0.3115 0.3585 0.0129
C10 C 0.44110(19) 0.27628(13) 0.26402(9)
C11 C 0.4217(2) 0.17085(15) 0.28423(11)
H10 H 0.4868 0.1200 0.2637
C12 C 0.3089(2) 0.13935(19) 0.33385(13)
H11 H 0.3002 0.0684 0.3470
C13 C 0.2098(3) 0.2123(2) 0.36376(12)
H12 H 0.1325 0.1910 0.3965
C14 C 0.2252(3) 0.3175(2) 0.34505(11)
H13 H 0.1582 0.3675 0.3654
C15 C 0.3397(2) 0.34919(16) 0.29622(10)
H14 H 0.3495 0.4206 0.2845
B1 B 0.7556(2) 0.26908(15) 0.07801(11)
H15 H 0.7777 0.2154 0.0298
B2 B 0.5585(2) 0.29393(14) 0.10630(10)
B3 B 0.5716(2) 0.31544(13) 0.21023(10)
B4 B 0.7766(2) 0.30167(14) 0.24314(11)
H16 H 0.8118 0.2689 0.3006
B5 B 0.8738(3) 0.38234(16) 0.09824(13)
H17 H 0.9723 0.4036 0.0624
B6 B 0.6716(2) 0.39596(15) 0.06413(11)
H18 H 0.6377 0.4270 0.0060
B7 B 0.5593(2) 0.42458(14) 0.14547(11)
H19 H 0.4520 0.4744 0.1401
B8 B 0.6937(2) 0.42878(15) 0.22950(12)
H20 H 0.6744 0.4812 0.2788
B9 B 0.8869(2) 0.40218(15) 0.19977(13)
H21 H 0.9942 0.4362 0.2297
B10 B 0.7529(3) 0.47889(15) 0.13980(12)
H22 H 0.7714 0.5640 0.1308
loop_
_geom_bond_atom_site_label_1
_geom_bond_atom_site_label_2
_geom_bond_site_symmetry_1
_geom_bond_site_symmetry_2
C1 H1 1_555 1_555
C2 C1 1_555 1_555
C3 C2 1_555 1_555
H2 C3 1_555 1_555
H3 C3 1_555 1_555
H4 C3 1_555 1_555
C4 C5 1_555 1_555
C5 H5 1_555 1_555
C6 C5 1_555 1_555
H6 C6 1_555 1_555
C7 C6 1_555 1_555
H7 C7 1_555 1_555
C8 C7 1_555 1_555
H8 C8 1_555 1_555
C9 C4 1_555 1_555
H9 C9 1_555 1_555
C10 C11 1_555 1_555
C11 H10 1_555 1_555
C12 C11 1_555 1_555
H11 C12 1_555 1_555
C13 C12 1_555 1_555
H12 C13 1_555 1_555
C14 C13 1_555 1_555
H13 C14 1_555 1_555
C15 C10 1_555 1_555
H14 C15 1_555 1_555
B1 C1 1_555 1_555
H15 B1 1_555 1_555
B2 C1 1_555 1_555
B3 C1 1_555 1_555
B4 C1 1_555 1_555
H16 B4 1_555 1_555
B5 C2 1_555 1_555
H17 B5 1_555 1_555
B6 B1 1_555 1_555
H18 B6 1_555 1_555
B7 B2 1_555 1_555
H19 B7 1_555 1_555
B8 B3 1_555 1_555
H20 B8 1_555 1_555
B9 C2 1_555 1_555
H21 B9 1_555 1_555
B10 B5 1_555 1_555
H22 B10 1_555 1_555
C2 B1 1_555 1_555
C2 B4 1_555 1_555
C4 B2 1_555 1_555
C8 C9 1_555 1_555
C10 B3 1_555 1_555
C14 C15 1_555 1_555
B1 B2 1_555 1_555
B1 B5 1_555 1_555
B2 B3 1_555 1_555
B2 B6 1_555 1_555
B3 B4 1_555 1_555
B3 B7 1_555 1_555
B4 B8 1_555 1_555
B4 B9 1_555 1_555
B5 B6 1_555 1_555
B5 B9 1_555 1_555
B6 B7 1_555 1_555
B6 B10 1_555 1_555
B7 B8 1_555 1_555
B7 B10 1_555 1_555
B8 B9 1_555 1_555
B8 B10 1_555 1_555
B9 B10 1_555 1_555

#END
