
#######################################################################
#
#                 Cambridge Crystallographic Data Centre
#                                CCDC 
#
#######################################################################
#
# If this CIF has been generated from an entry in the Cambridge 
# Structural Database, then it will include bibliographic, chemical, 
# crystal, experimental, refinement or atomic coordinate data resulting 
# from the CCDC's data processing and validation procedures.
#
#######################################################################

data_LAKCOS
_chemical_formula_moiety         'C17 H26 B10'
_chemical_name_systematic        
2-methyl-4,5-bis(4-methylphenyl)-1,2-dicarba-closo-dodecaborane(9)
_symmetry_cell_setting           monoclinic
_symmetry_space_group_name_H-M   'P 21/c'
_symmetry_Int_Tables_number      14
_space_group_name_Hall           '-P 2ybc'
loop_
_symmetry_equiv_pos_site_id
_symmetry_equiv_pos_as_xyz
1 x,y,z
2 -x,1/2+y,1/2-z
3 -x,-y,-z
4 x,1/2-y,1/2+z
_cell_length_a                   8.4256(6)
_cell_length_b                   18.1445(13)
_cell_length_c                   13.8055(9)
_cell_angle_alpha                90
_cell_angle_beta                 100.357(4)
_cell_angle_gamma                90
_cell_volume                     2076.17
_exptl_crystal_colour            colorless
_exptl_crystal_description       block
_cell_formula_units_Z            4
loop_
_atom_site_label
_atom_site_type_symbol
_atom_site_fract_x
_atom_site_fract_y
_atom_site_fract_z
C1 C 0.3902(4) 0.7224(2) 0.3793(3)
H1 H 0.3587 0.7344 0.3001
C2 C 0.5796(4) 0.7135(2) 0.4336(3)
C3 C 0.7105(5) 0.7228(3) 0.3702(4)
H2 H 0.7597 0.6759 0.3626
H3 H 0.7910 0.7567 0.4018
H4 H 0.6627 0.7417 0.3067
C4 C 0.1352(4) 0.8175(2) 0.4089(3)
C5 C 0.0836(6) 0.8302(3) 0.3110(3)
H5 H 0.1354 0.8058 0.2662
C6 C -0.0418(6) 0.8777(3) 0.2746(4)
H6 H -0.0728 0.8831 0.2069
C7 C -0.1202(6) 0.9163(3) 0.3353(4)
C8 C -0.0658(7) 0.9057(3) 0.4341(5)
H7 H -0.1134 0.9324 0.4787
C9 C 0.0561(6) 0.8572(3) 0.4699(4)
H8 H 0.0857 0.8512 0.5376
C10 C -0.2565(6) 0.9684(3) 0.2979(5)
H9 H -0.2778 0.9679 0.2273
H10 H -0.2272 1.0174 0.3208
H11 H -0.3515 0.9532 0.3219
C11 C 0.1142(4) 0.6275(2) 0.3614(3)
C12 C 0.0621(5) 0.6413(2) 0.2646(3)
H12 H 0.1176 0.6759 0.2339
C13 C -0.0709(5) 0.6061(3) 0.2084(3)
H13 H -0.1012 0.6176 0.1420
C14 C -0.1574(5) 0.5547(3) 0.2505(4)
C15 C -0.1070(6) 0.5412(3) 0.3481(5)
H14 H -0.1630 0.5069 0.3791
C16 C 0.0242(6) 0.5767(3) 0.4026(4)
H15 H 0.0530 0.5660 0.4694
C17 C -0.3003(6) 0.5156(3) 0.1903(4)
H16 H -0.3453 0.4819 0.2317
H17 H -0.2659 0.4888 0.1378
H18 H -0.3805 0.5511 0.1633
B1 B 0.4784(6) 0.7907(3) 0.4558(4)
H19 H 0.5084 0.8461 0.4322
B2 B 0.2746(6) 0.7630(3) 0.4533(3)
B3 B 0.2638(5) 0.6648(3) 0.4269(3)
B4 B 0.4622(5) 0.6372(3) 0.4122(4)
H20 H 0.4816 0.5935 0.3603
B5 B 0.6029(7) 0.7448(3) 0.5506(4)
H21 H 0.7139 0.7705 0.5903
B6 B 0.4090(6) 0.7744(3) 0.5663(4)
H22 H 0.3910 0.8192 0.6169
B7 B 0.2812(6) 0.6971(3) 0.5496(3)
H23 H 0.1801 0.6916 0.5895
B8 B 0.3932(6) 0.6189(3) 0.5246(4)
H24 H 0.3658 0.5630 0.5476
B9 B 0.5936(6) 0.6501(3) 0.5247(4)
H25 H 0.6983 0.6138 0.5473
B10 B 0.4841(7) 0.6870(3) 0.6100(4)
H26 H 0.5167 0.6749 0.6892
loop_
_geom_bond_atom_site_label_1
_geom_bond_atom_site_label_2
_geom_bond_site_symmetry_1
_geom_bond_site_symmetry_2
C1 H1 1_555 1_555
C2 C1 1_555 1_555
C3 C2 1_555 1_555
H2 C3 1_555 1_555
H3 C3 1_555 1_555
H4 C3 1_555 1_555
C4 C5 1_555 1_555
C5 H5 1_555 1_555
C6 C5 1_555 1_555
H6 C6 1_555 1_555
C7 C6 1_555 1_555
C8 C7 1_555 1_555
H7 C8 1_555 1_555
C9 C4 1_555 1_555
H8 C9 1_555 1_555
C10 C7 1_555 1_555
H9 C10 1_555 1_555
H10 C10 1_555 1_555
H11 C10 1_555 1_555
C11 C12 1_555 1_555
C12 H12 1_555 1_555
C13 C12 1_555 1_555
H13 C13 1_555 1_555
C14 C13 1_555 1_555
C15 C14 1_555 1_555
H14 C15 1_555 1_555
C16 C11 1_555 1_555
H15 C16 1_555 1_555
C17 C14 1_555 1_555
H16 C17 1_555 1_555
H17 C17 1_555 1_555
H18 C17 1_555 1_555
B1 C1 1_555 1_555
H19 B1 1_555 1_555
B2 C1 1_555 1_555
B3 C1 1_555 1_555
B4 C1 1_555 1_555
H20 B4 1_555 1_555
B5 C2 1_555 1_555
H21 B5 1_555 1_555
B6 B1 1_555 1_555
H22 B6 1_555 1_555
B7 B2 1_555 1_555
H23 B7 1_555 1_555
B8 B3 1_555 1_555
H24 B8 1_555 1_555
B9 C2 1_555 1_555
H25 B9 1_555 1_555
B10 B5 1_555 1_555
H26 B10 1_555 1_555
C2 B1 1_555 1_555
C2 B4 1_555 1_555
C4 B2 1_555 1_555
C8 C9 1_555 1_555
C11 B3 1_555 1_555
C15 C16 1_555 1_555
B1 B2 1_555 1_555
B1 B5 1_555 1_555
B2 B3 1_555 1_555
B2 B6 1_555 1_555
B3 B4 1_555 1_555
B3 B7 1_555 1_555
B4 B8 1_555 1_555
B4 B9 1_555 1_555
B5 B6 1_555 1_555
B5 B9 1_555 1_555
B6 B7 1_555 1_555
B6 B10 1_555 1_555
B7 B8 1_555 1_555
B7 B10 1_555 1_555
B8 B9 1_555 1_555
B8 B10 1_555 1_555
B9 B10 1_555 1_555

#END
