
#######################################################################
#
#                 Cambridge Crystallographic Data Centre
#                                CCDC 
#
#######################################################################
#
# If this CIF has been generated from an entry in the Cambridge 
# Structural Database, then it will include bibliographic, chemical, 
# crystal, experimental, refinement or atomic coordinate data resulting 
# from the CCDC's data processing and validation procedures.
#
#######################################################################

data_LAKDEH
_chemical_formula_moiety         'C10 H10 O3'
_chemical_name_systematic        
rac-2,8,12-Trioxahexacyclo(8.3.0.0^3,9^0^4,6^0^5,13^0^7,11^)tridecane
_symmetry_cell_setting           triclinic
_symmetry_space_group_name_H-M   'P -1'
_symmetry_Int_Tables_number      2
_space_group_name_Hall           '-P 1'
loop_
_symmetry_equiv_pos_site_id
_symmetry_equiv_pos_as_xyz
1 x,y,z
2 -x,-y,-z
_cell_length_a                   6.3954(2)
_cell_length_b                   6.7956(2)
_cell_length_c                   9.6558(2)
_cell_angle_alpha                80.57(1)
_cell_angle_beta                 80.51(1)
_cell_angle_gamma                63.61(1)
_cell_volume                     368.818
_exptl_crystal_colour            colorless
_exptl_crystal_description       prism
_chemical_melting_point          298-299deg.C
_cell_formula_units_Z            2
_exptl_crystal_recrystallization_method heptane/thf
loop_
_atom_site_label
_atom_site_type_symbol
_atom_site_fract_x
_atom_site_fract_y
_atom_site_fract_z
C1 C -0.17062(18) 0.85917(17) 0.08399(11)
O1 O 0.07142(13) 0.72005(13) 0.10223(8)
C2 C 0.06041(18) 0.58348(17) 0.23210(11)
C3 C -0.00717(18) 0.71765(17) 0.35577(11)
C4 C -0.18281(18) 0.95626(17) 0.33035(11)
C5 C -0.25389(18) 0.79325(17) 0.42865(10)
C6 C -0.40639(18) 0.70833(17) 0.37689(11)
O2 O -0.26587(14) 0.48429(12) 0.34258(8)
C7 C -0.13005(19) 0.50992(17) 0.21312(11)
C8 C -0.29926(19) 0.71004(18) 0.12486(11)
C9 C -0.50088(18) 0.83267(18) 0.23424(11)
O3 O -0.52912(13) 1.05632(13) 0.21483(8)
C10 C -0.29108(18) 1.03322(17) 0.19197(11)
H1 H -0.182(3) 0.932(3) -0.0098(16)
H2 H 0.218(3) 0.461(3) 0.2369(16)
H3 H 0.116(3) 0.685(3) 0.4126(17)
H4 H -0.168(3) 1.072(3) 0.3724(17)
H5 H -0.279(3) 0.805(2) 0.5298(16)
H6 H -0.528(3) 0.705(2) 0.4487(17)
H7 H -0.063(3) 0.371(3) 0.1704(18)
H8 H -0.346(3) 0.677(3) 0.0455(19)
H9 H -0.650(3) 0.835(2) 0.2249(16)
H10 H -0.301(3) 1.176(3) 0.1543(18)
loop_
_geom_bond_atom_site_label_1
_geom_bond_atom_site_label_2
_geom_bond_site_symmetry_1
_geom_bond_site_symmetry_2
C1 O1 1_555 1_555
O1 C2 1_555 1_555
C2 C3 1_555 1_555
C3 C4 1_555 1_555
C4 C5 1_555 1_555
C5 C3 1_555 1_555
C6 C5 1_555 1_555
O2 C6 1_555 1_555
C7 C2 1_555 1_555
C8 C1 1_555 1_555
C9 C6 1_555 1_555
O3 C9 1_555 1_555
C10 C1 1_555 1_555
H1 C1 1_555 1_555
H2 C2 1_555 1_555
H3 C3 1_555 1_555
H4 C4 1_555 1_555
H5 C5 1_555 1_555
H6 C6 1_555 1_555
H7 C7 1_555 1_555
H8 C8 1_555 1_555
H9 C9 1_555 1_555
H10 C10 1_555 1_555
C4 C10 1_555 1_555
O2 C7 1_555 1_555
C7 C8 1_555 1_555
C8 C9 1_555 1_555
O3 C10 1_555 1_555

#END
