
#######################################################################
#
#                 Cambridge Crystallographic Data Centre
#                                CCDC 
#
#######################################################################
#
# If this CIF has been generated from an entry in the Cambridge 
# Structural Database, then it will include bibliographic, chemical, 
# crystal, experimental, refinement or atomic coordinate data resulting 
# from the CCDC's data processing and validation procedures.
#
#######################################################################

data_LAKDAD
_chemical_name_common            'Bullvalene trisepoxide'
_chemical_formula_moiety         'C10 H10 O3'
_chemical_name_systematic        
(+)-(3S,5R,7R,9S,11S,13R)-4,8,12-Trioxahexacyclo(4.4.3.0^3,5^0^2,10^0^11,13^)tridecane
_symmetry_cell_setting           orthorhombic
_symmetry_space_group_name_H-M   'P 21 21 21'
_symmetry_Int_Tables_number      19
_space_group_name_Hall           'P 2ac 2ab'
loop_
_symmetry_equiv_pos_site_id
_symmetry_equiv_pos_as_xyz
1 x,y,z
2 1/2-x,-y,1/2+z
3 -x,1/2+y,1/2-z
4 1/2+x,1/2-y,-z
_cell_length_a                   6.3592(5)
_cell_length_b                   9.2747(8)
_cell_length_c                   13.216(1)
_cell_angle_alpha                90
_cell_angle_beta                 90
_cell_angle_gamma                90
_cell_volume                     779.475
_exptl_crystal_colour            colorless
_exptl_crystal_description       prism
_chemical_melting_point          245-246deg.C
_cell_formula_units_Z            4
_exptl_crystal_recrystallization_method heptane/thf
loop_
_atom_site_label
_atom_site_type_symbol
_atom_site_fract_x
_atom_site_fract_y
_atom_site_fract_z
O1 O -0.15067(12) 0.75156(7) 0.60131(6)
O2 O -0.44274(10) 0.43514(7) 0.75409(5)
O3 O 0.11095(10) 0.35822(8) 0.61478(5)
C1 C -0.19120(15) 0.44050(9) 0.50268(7)
C2 C -0.36734(14) 0.54464(10) 0.52828(7)
C3 C -0.34643(14) 0.66913(9) 0.59929(7)
C4 C -0.21675(14) 0.67183(9) 0.69067(7)
C5 C -0.08118(14) 0.54423(9) 0.72282(7)
C6 C -0.21644(15) 0.41401(10) 0.74866(6)
C7 C -0.35307(15) 0.34557(9) 0.67400(7)
C8 C -0.37668(14) 0.38981(9) 0.56603(7)
C9 C 0.02761(15) 0.46111(9) 0.54133(7)
C10 C 0.08377(14) 0.50815(10) 0.64354(7)
H1 H -0.201(3) 0.4020(16) 0.4363(13)
H2 H -0.465(3) 0.5619(13) 0.4713(11)
H3 H -0.461(3) 0.7278(15) 0.6026(11)
H4 H -0.260(2) 0.7308(14) 0.7430(9)
H5 H -0.011(2) 0.5701(15) 0.7862(11)
H6 H -0.169(2) 0.3557(17) 0.8050(11)
H7 H -0.381(2) 0.2453(18) 0.6869(12)
H8 H -0.469(3) 0.3327(16) 0.5331(11)
H9 H 0.120(2) 0.4859(16) 0.4932(13)
H10 H 0.218(2) 0.5588(14) 0.6532(9)
loop_
_geom_bond_atom_site_label_1
_geom_bond_atom_site_label_2
_geom_bond_site_symmetry_1
_geom_bond_site_symmetry_2
O1 C3 1_555 1_555
O2 C6 1_555 1_555
O3 C9 1_555 1_555
C1 C2 1_555 1_555
C2 C3 1_555 1_555
C3 C4 1_555 1_555
C4 O1 1_555 1_555
C5 C4 1_555 1_555
C6 C5 1_555 1_555
C7 O2 1_555 1_555
C8 C1 1_555 1_555
C9 C1 1_555 1_555
C10 O3 1_555 1_555
H1 C1 1_555 1_555
H2 C2 1_555 1_555
H3 C3 1_555 1_555
H4 C4 1_555 1_555
H5 C5 1_555 1_555
H6 C6 1_555 1_555
H7 C7 1_555 1_555
H8 C8 1_555 1_555
H9 C9 1_555 1_555
H10 C10 1_555 1_555
C2 C8 1_555 1_555
C5 C10 1_555 1_555
C6 C7 1_555 1_555
C7 C8 1_555 1_555
C9 C10 1_555 1_555

#END
