
#######################################################################
#
#                 Cambridge Crystallographic Data Centre
#                                CCDC 
#
#######################################################################
#
# If this CIF has been generated from an entry in the Cambridge 
# Structural Database, then it will include bibliographic, chemical, 
# crystal, experimental, refinement or atomic coordinate data resulting 
# from the CCDC's data processing and validation procedures.
#
#######################################################################

data_LAKDIL
_chemical_name_common            'Bullvalene trisepoxide'
_chemical_formula_moiety         'C10 H10 O3'
_chemical_name_systematic        
rac-4,8,12-Trioxahexacyclo(4.4.3.0^3,5^0^2,10^0^11,13^)tridecane
_symmetry_cell_setting           orthorhombic
_symmetry_space_group_name_H-M   'P n m a'
_symmetry_Int_Tables_number      62
_space_group_name_Hall           '-P 2ac 2n'
loop_
_symmetry_equiv_pos_site_id
_symmetry_equiv_pos_as_xyz
1 x,y,z
2 1/2-x,-y,1/2+z
3 -x,1/2+y,-z
4 1/2+x,1/2-y,1/2-z
5 -x,-y,-z
6 1/2+x,y,1/2-z
7 x,1/2-y,z
8 1/2-x,1/2+y,1/2+z
_cell_length_a                   13.2410(8)
_cell_length_b                   9.3870(6)
_cell_length_c                   6.3534(4)
_cell_angle_alpha                90
_cell_angle_beta                 90
_cell_angle_gamma                90
_cell_volume                     789.685
_exptl_crystal_colour            colorless
_exptl_crystal_description       rod
_chemical_melting_point          237deg.C(dec)
_cell_formula_units_Z            4
_exptl_crystal_recrystallization_method heptane/thf
loop_
_atom_site_label
_atom_site_type_symbol
_atom_site_fract_x
_atom_site_fract_y
_atom_site_fract_z
O1 O 0.1475(2) 0.1125(4) 0.6208(5)
O2 O 0.1240(3) -0.0012(4) 0.3612(6)
H1 H -0.0280 0.0779 0.2349
H2 H 0.1090 0.0292 0.0372
C1 C 0.2147(2) 0.1718(3) 0.1485(4)
H5 H 0.266(2) 0.138(4) 0.056(5)
C2 C 0.2561(3) 0.2500 0.3343(7)
H6 H 0.327(4) 0.2500 0.351(9)
C3 C 0.2109(3) 0.2500 0.5474(6)
C4 C 0.1044(2) 0.2500 0.5911(5)
C5 C 0.0267(2) 0.2500 0.4177(6)
H9 H -0.034(3) 0.2500 0.477(8)
C6 C 0.0348(3) 0.1175(4) 0.2841(4)
C7 C 0.1226(3) 0.0857(3) 0.1605(5)
O1F O 0.1475(2) 0.3875(4) 0.6208(5)
O2F O 0.1240(3) 0.5012(4) 0.3612(6)
H1F H -0.0280 0.4221 0.2349
H2F H 0.1090 0.4708 0.0372
C1F C 0.2147(2) 0.3282(3) 0.1485(4)
H5F H 0.266(2) 0.362(4) 0.056(5)
C6F C 0.0348(3) 0.3825(4) 0.2841(4)
C7F C 0.1226(3) 0.4143(3) 0.1605(5)
O3? O 0.0161(3) 0.1645(4) 0.0559(5)
H3? H -0.0040 0.0371 0.3311
H4? H 0.1310 -0.0142 0.1268
H7? H 0.2526 0.2916 0.6550
H8? H 0.0845 0.2984 0.7184
loop_
_geom_bond_atom_site_label_1
_geom_bond_atom_site_label_2
_geom_bond_site_symmetry_1
_geom_bond_site_symmetry_2
O1 C3 1_555 1_555
O2 C6 1_555 1_555
H1 C6 1_555 1_555
H2 C7 1_555 1_555
C1 H5 1_555 1_555
C2 C1 1_555 1_555
H6 C2 1_555 1_555
C3 C2 1_555 1_555
C4 O1 1_555 1_555
C5 C4 1_555 1_555
H9 C5 1_555 1_555
C6 C5 1_555 1_555
C7 O2 1_555 1_555
O1F C3 1_555 1_555
O2F C6F 1_555 1_555
H1F C6F 1_555 1_555
H2F C7F 1_555 1_555
C1F C1 1_555 1_555
H5F C1F 1_555 1_555
C6F C5 1_555 1_555
C7F O2F 1_555 1_555
C1 C7 1_555 1_555
C2 C1F 1_555 1_555
C3 C4 1_555 1_555
C4 O1F 1_555 1_555
C6 C7 1_555 1_555
C1F C7F 1_555 1_555
C6F C7F 1_555 1_555

#END
