
#######################################################################
#
#                 Cambridge Crystallographic Data Centre
#                                CCDC 
#
#######################################################################
#
# If this CIF has been generated from an entry in the Cambridge 
# Structural Database, then it will include bibliographic, chemical, 
# crystal, experimental, refinement or atomic coordinate data resulting 
# from the CCDC's data processing and validation procedures.
#
#######################################################################

data_LAKFUB
_chemical_formula_moiety         'C18 H24 B2 F4 N4'
_chemical_name_systematic        
5,10-dibutyl-4,4,9,9-tetrafluoro-4,5,9,10-tetrahydro-3a,5,8a,10-tetraaza-4,9-diboratapyrene
_symmetry_cell_setting           triclinic
_symmetry_space_group_name_H-M   'P -1'
_symmetry_Int_Tables_number      2
_space_group_name_Hall           '-P 1'
loop_
_symmetry_equiv_pos_site_id
_symmetry_equiv_pos_as_xyz
1 x,y,z
2 -x,-y,-z
_cell_length_a                   4.8363(14)
_cell_length_b                   8.544(2)
_cell_length_c                   12.159(3)
_cell_angle_alpha                70.697(5)
_cell_angle_beta                 85.130(5)
_cell_angle_gamma                83.212(6)
_cell_volume                     470.295
_exptl_crystal_colour            yellow
_exptl_crystal_description       needle
_cell_formula_units_Z            1
loop_
_atom_site_label
_atom_site_type_symbol
_atom_site_fract_x
_atom_site_fract_y
_atom_site_fract_z
C1 C 0.5066(3) 0.55719(18) 0.53155(13)
C2 C 0.6807(3) 0.52264(19) 0.62632(13)
C3 C 0.6737(4) 0.6449(2) 0.68054(14)
H1 H 0.7872 0.6276 0.7423
C4 C 0.5021(4) 0.7890(2) 0.64361(15)
H2 H 0.4955 0.8681 0.6814
C5 C 0.3402(4) 0.8168(2) 0.55116(15)
H3 H 0.2239 0.9153 0.5262
C6 C 1.0224(4) 0.3423(2) 0.75982(14)
H4 H 1.1118 0.4413 0.7528
H5 H 1.1680 0.2550 0.7572
C7 C 0.8635(4) 0.2884(3) 0.87735(14)
H6 H 0.7183 0.3756 0.8805
H7 H 0.7743 0.1892 0.8849
C8 C 1.0481(5) 0.2524(3) 0.97837(16)
H8 H 1.1431 0.3501 0.9692
H9 H 1.1887 0.1620 0.9770
C9 C 0.8876(7) 0.2052(4) 1.09558(19)
H10 H 1.0143 0.1833 1.1567
H11 H 0.7959 0.1073 1.1059
H12 H 0.7511 0.2953 1.0982
N1 N 0.3461(3) 0.70452(16) 0.49582(11)
N2 N 0.8474(3) 0.37826(16) 0.65973(11)
F1 F 0.3291(2) 0.88569(12) 0.29892(8)
F2 F -0.0760(2) 0.84062(14) 0.40425(10)
B1 B 0.1800(4) 0.7658(2) 0.38029(16)
C1A C 0.4934(3) 0.44281(18) 0.46845(13)
C2A C 0.3193(3) 0.47736(19) 0.37368(13)
C3A C 0.3263(4) 0.3551(2) 0.31946(14)
H1A H 0.2128 0.3724 0.2577
C4A C 0.4979(4) 0.2110(2) 0.35639(15)
H2A H 0.5045 0.1319 0.3186
C5A C 0.6598(4) 0.1832(2) 0.44884(15)
H3A H 0.7761 0.0847 0.4738
C6A C -0.0224(4) 0.6577(2) 0.24018(14)
H4A H -0.1118 0.5587 0.2472
H5A H -0.1680 0.7450 0.2428
C7A C 0.1365(4) 0.7116(3) 0.12265(14)
H6A H 0.2817 0.6244 0.1195
H7A H 0.2257 0.8108 0.1151
C8A C -0.0481(5) 0.7476(3) 0.02163(16)
H8A H -0.1431 0.6499 0.0308
H9A H -0.1887 0.8380 0.0230
C9A C 0.1124(7) 0.7948(4) -0.09558(19)
H10A H -0.0143 0.8167 -0.1567
H11A H 0.2041 0.8927 -0.1059
H12A H 0.2489 0.7047 -0.0982
N1A N 0.6539(3) 0.29548(16) 0.50418(11)
N2A N 0.1526(3) 0.62174(16) 0.34027(11)
F1A F 0.6709(2) 0.11431(12) 0.70108(8)
F2A F 1.0760(2) 0.15938(14) 0.59575(10)
B1A B 0.8200(4) 0.2342(2) 0.61971(16)
loop_
_geom_bond_atom_site_label_1
_geom_bond_atom_site_label_2
_geom_bond_site_symmetry_1
_geom_bond_site_symmetry_2
C1 C2 1_555 1_555
C2 C3 1_555 1_555
C3 H1 1_555 1_555
C4 C3 1_555 1_555
H2 C4 1_555 1_555
C5 C4 1_555 1_555
H3 C5 1_555 1_555
C6 H4 1_555 1_555
H5 C6 1_555 1_555
C7 C6 1_555 1_555
H6 C7 1_555 1_555
H7 C7 1_555 1_555
C8 C7 1_555 1_555
H8 C8 1_555 1_555
H9 C8 1_555 1_555
C9 C8 1_555 1_555
H10 C9 1_555 1_555
H11 C9 1_555 1_555
H12 C9 1_555 1_555
N1 C1 1_555 1_555
N2 C2 1_555 1_555
F1 B1 1_555 1_555
F2 B1 1_555 1_555
B1 N1 1_555 1_555
C1A C1 1_555 1_555
C2A C1A 1_555 1_555
C3A C2A 1_555 1_555
H1A C3A 1_555 1_555
C4A C3A 1_555 1_555
H2A C4A 1_555 1_555
C5A C4A 1_555 1_555
H3A C5A 1_555 1_555
C6A H4A 1_555 1_555
H5A C6A 1_555 1_555
C7A C6A 1_555 1_555
H6A C7A 1_555 1_555
H7A C7A 1_555 1_555
C8A C7A 1_555 1_555
H8A C8A 1_555 1_555
H9A C8A 1_555 1_555
C9A C8A 1_555 1_555
H10A C9A 1_555 1_555
H11A C9A 1_555 1_555
H12A C9A 1_555 1_555
N1A C1A 1_555 1_555
N2A B1 1_555 1_555
F1A B1A 1_555 1_555
F2A B1A 1_555 1_555
B1A N2 1_555 1_555
C5 N1 1_555 1_555
C6 N2 1_555 1_555
C2A N2A 1_555 1_555
C5A N1A 1_555 1_555
C6A N2A 1_555 1_555
N1A B1A 1_555 1_555

#END
