
#######################################################################
#
#                 Cambridge Crystallographic Data Centre
#                                CCDC 
#
#######################################################################
#
# If this CIF has been generated from an entry in the Cambridge 
# Structural Database, then it will include bibliographic, chemical, 
# crystal, experimental, refinement or atomic coordinate data resulting 
# from the CCDC's data processing and validation procedures.
#
#######################################################################

data_LAKGUB
_chemical_formula_moiety         'C56 H52 S2,C1 H2 Cl2'
_chemical_name_systematic        
'syn-1,14,21,22,23,36,43,44-Octamethyl-8,30-dithiatridecacyclo[30.12.2.2^10,13^.1^2,6^.1^24,28^.0^3,43^.0^12,23^.0^14,22^.0^15,20^.0^21,25^.0^35,45^.0^36,44^.0^37,42^]pentaconta-2(50),3,5,10,12,15,17,19,24(47),25,27,32,34,37,39,41,45,48-octadecaene dichloromethane solvate'
_symmetry_cell_setting           monoclinic
_symmetry_space_group_name_H-M   'P 21/c'
_symmetry_Int_Tables_number      14
_space_group_name_Hall           '-P 2ybc'
loop_
_symmetry_equiv_pos_site_id
_symmetry_equiv_pos_as_xyz
1 x,y,z
2 -x,1/2+y,1/2-z
3 -x,-y,-z
4 x,1/2-y,1/2+z
_cell_length_a                   17.1794(10)
_cell_length_b                   10.3248(6)
_cell_length_c                   30.7034(17)
_cell_angle_alpha                90
_cell_angle_beta                 105.852(3)
_cell_angle_gamma                90
_cell_volume                     5238.87
_exptl_crystal_colour            colorless
_exptl_crystal_description       block
_cell_formula_units_Z            4
loop_
_atom_site_label
_atom_site_type_symbol
_atom_site_fract_x
_atom_site_fract_y
_atom_site_fract_z
S1 S 0.84491(15) 0.7496(3) 0.19262(8)
S2 S 0.67968(15) 0.5073(3) 0.42069(8)
C1 C 0.6539(7) 0.3084(9) 0.3570(4)
C2 C 0.7076(6) 0.3507(9) 0.4032(3)
H1 H 0.7634 0.3540 0.4019
H2 H 0.7042 0.2866 0.4256
C3 C 0.7169(6) 0.6037(12) 0.2056(5)
C4 C 0.5821(5) 0.1921(9) 0.2000(3)
C5 C 0.7732(6) 0.7138(10) 0.2244(3)
H3 H 0.8028 0.6932 0.2553
H4 H 0.7412 0.7908 0.2252
C6 C 0.9761(6) 0.6646(12) 0.4368(4)
C7 C 0.7191(6) 0.6129(9) 0.3851(3)
H5 H 0.7064 0.5767 0.3549
H6 H 0.6924 0.6963 0.3832
C8 C 0.8099(6) 0.6328(11) 0.4023(4)
C9 C 0.5493(7) 0.2923(10) 0.1597(3)
C10 C 1.0675(6) 0.6725(12) 0.4514(3)
C11 C 0.6614(8) 0.6108(11) 0.1624(4)
H7 H 0.6607 0.6841 0.1446
C12 C 0.5730(8) 0.2711(9) 0.3513(4)
H8 H 0.5514 0.2739 0.3760
C13 C 1.0155(8) 0.5901(10) 0.3364(4)
C14 C 0.9713(7) 0.6337(11) 0.2560(4)
C15 C 0.6020(6) 0.0596(10) 0.1839(3)
H9 H 0.6241 0.0050 0.2096
H10 H 0.6409 0.0694 0.1668
H11 H 0.5536 0.0210 0.1651
C16 C 0.5154(6) 0.1830(9) 0.2264(3)
C17 C 1.0367(8) 0.7157(11) 0.2615(4)
H12 H 1.0433 0.7600 0.2364
C18 C 0.7186(6) 0.4898(14) 0.2299(3)
H13 H 0.7560 0.4808 0.2580
C19 C 0.8653(9) 0.5743(9) 0.3825(3)
H14 H 0.8460 0.5226 0.3570
C20 C 0.3251(7) 0.3919(14) 0.1847(5)
H15 H 0.2773 0.4120 0.1919
C21 C 0.4764(6) 0.0517(9) 0.2278(3)
H16 H 0.4371 0.0582 0.2447
H17 H 0.5172 -0.0101 0.2420
H18 H 0.4503 0.0239 0.1974
C22 C 0.9474(8) 0.5908(10) 0.3994(4)
C23 C 0.9612(6) 0.5719(9) 0.2940(5)
H19 H 0.9173 0.5169 0.2912
C24 C 1.1363(5) 0.6767(12) 0.3890(3)
C25 C 0.9236(10) 0.7276(11) 0.4566(3)
H20 H 0.9436 0.7826 0.4811
C26 C 0.8408(9) 0.7084(11) 0.4398(4)
H21 H 0.8058 0.7474 0.4542
C27 C 0.7391(6) 0.1810(10) 0.2416(3)
H22 H 0.7505 0.1669 0.2131
H23 H 0.7339 0.0991 0.2554
H24 H 0.7824 0.2295 0.2612
C28 C 1.0917(7) 0.923(2) 0.4655(4)
H25 H 1.0673 0.9254 0.4891
C29 C 0.9121(6) 0.6166(9) 0.2108(3)
H26 H 0.8802 0.5396 0.2117
H27 H 0.9417 0.6020 0.1885
C30 C 1.0137(6) 0.5326(10) 0.3816(3)
C31 C 0.5266(6) 0.2317(9) 0.3111(5)
H28 H 0.4736 0.2056 0.3082
C32 C 1.0021(6) 0.3843(10) 0.3783(3)
H29 H 1.0055 0.3498 0.4078
H30 H 1.0436 0.3464 0.3669
H31 H 0.9500 0.3646 0.3582
C33 C 0.6084(6) 0.4018(11) 0.1708(4)
C34 C 0.6842(6) 0.3060(9) 0.3204(5)
H32 H 0.7378 0.3292 0.3238
C35 C 0.6361(8) 0.2693(8) 0.2780(4)
C36 C 0.6587(5) 0.2582(10) 0.2339(3)
C37 C 1.0999(6) 0.6338(12) 0.5025(3)
H33 H 1.0836 0.6978 0.5209
H34 H 1.1579 0.6288 0.5106
H35 H 1.0782 0.5510 0.5072
C38 C 0.4161(9) 0.4199(13) 0.1376(4)
H36 H 0.4285 0.4587 0.1130
C39 C 0.4687(6) 0.3334(10) 0.1640(4)
C40 C 1.1495(6) 0.4703(12) 0.4394(4)
H37 H 1.1198 0.4137 0.4539
H38 H 1.1954 0.5048 0.4617
H39 H 1.1677 0.4226 0.4172
C41 C 0.3792(10) 0.3045(11) 0.2103(3)
H40 H 0.3671 0.2631 0.2345
C42 C 0.6085(6) 0.5117(16) 0.1460(4)
H41 H 0.5720 0.5194 0.1175
C43 C 1.0816(7) 0.6713(11) 0.3399(4)
C44 C 1.0916(7) 0.7344(9) 0.3020(5)
H42 H 1.1356 0.7889 0.3043
C45 C 0.5416(6) 0.2380(10) 0.1109(3)
H43 H 0.5043 0.1667 0.1050
H44 H 0.5936 0.2090 0.1090
H45 H 0.5221 0.3051 0.0890
C46 C 1.1565(8) 1.0313(18) 0.4159(6)
H46 H 1.1745 1.1072 0.4056
C47 C 0.6655(7) 0.3891(10) 0.2130(4)
C48 C 1.1635(7) 0.9177(19) 0.3960(4)
H47 H 1.1885 0.9161 0.3727
C49 C 1.1349(6) 0.8038(15) 0.4090(4)
C50 C 0.4512(7) 0.2776(10) 0.2005(4)
C51 C 1.0932(6) 0.5845(9) 0.4157(3)
C52 C 1.0973(6) 0.8059(14) 0.4438(4)
C53 C 0.5574(7) 0.2294(8) 0.2735(4)
C54 C 1.2233(6) 0.6373(12) 0.3879(4)
H48 H 1.2410 0.6930 0.3674
H49 H 1.2230 0.5491 0.3779
H50 H 1.2596 0.6454 0.4177
C55 C 1.1223(9) 1.0353(15) 0.4521(6)
H51 H 1.1200 1.1129 0.4670
C56 C 0.3438(9) 0.4494(9) 0.1476(5)
H52 H 0.3078 0.5077 0.1296
Cl1 Cl 0.9024(2) 0.9501(5) 0.30805(13)
Cl2 Cl 0.8780(3) 1.0814(4) 0.38646(18)
C57 C 0.9166(9) 0.9471(14) 0.3659(4)
H53 H 0.9741 0.9412 0.3807
H54 H 0.8911 0.8700 0.3737
loop_
_geom_bond_atom_site_label_1
_geom_bond_atom_site_label_2
_geom_bond_site_symmetry_1
_geom_bond_site_symmetry_2
S1 C5 1_555 1_555
S2 C2 1_555 1_555
C1 C2 1_555 1_555
C2 H1 1_555 1_555
H2 C2 1_555 1_555
C3 C5 1_555 1_555
C4 C9 1_555 1_555
C5 H3 1_555 1_555
H4 C5 1_555 1_555
C6 C10 1_555 1_555
C7 S2 1_555 1_555
H5 C7 1_555 1_555
H6 C7 1_555 1_555
C8 C7 1_555 1_555
C9 C33 1_555 1_555
C10 C37 1_555 1_555
C11 C3 1_555 1_555
H7 C11 1_555 1_555
C12 C1 1_555 1_555
H8 C12 1_555 1_555
C13 C23 1_555 1_555
C14 C17 1_555 1_555
C15 C4 1_555 1_555
H9 C15 1_555 1_555
H10 C15 1_555 1_555
H11 C15 1_555 1_555
C16 C4 1_555 1_555
C17 H12 1_555 1_555
C18 C3 1_555 1_555
H13 C18 1_555 1_555
C19 C8 1_555 1_555
H14 C19 1_555 1_555
C20 H15 1_555 1_555
C21 C16 1_555 1_555
H16 C21 1_555 1_555
H17 C21 1_555 1_555
H18 C21 1_555 1_555
C22 C6 1_555 1_555
C23 C14 1_555 1_555
H19 C23 1_555 1_555
C24 C43 1_555 1_555
C25 C6 1_555 1_555
H20 C25 1_555 1_555
C26 C8 1_555 1_555
H21 C26 1_555 1_555
C27 H22 1_555 1_555
H23 C27 1_555 1_555
H24 C27 1_555 1_555
C28 H25 1_555 1_555
C29 S1 1_555 1_555
H26 C29 1_555 1_555
H27 C29 1_555 1_555
C30 C13 1_555 1_555
C31 C12 1_555 1_555
H28 C31 1_555 1_555
C32 C30 1_555 1_555
H29 C32 1_555 1_555
H30 C32 1_555 1_555
H31 C32 1_555 1_555
C33 C42 1_555 1_555
C34 C1 1_555 1_555
H32 C34 1_555 1_555
C35 C34 1_555 1_555
C36 C4 1_555 1_555
C37 H33 1_555 1_555
H34 C37 1_555 1_555
H35 C37 1_555 1_555
C38 H36 1_555 1_555
C39 C9 1_555 1_555
C40 H37 1_555 1_555
H38 C40 1_555 1_555
H39 C40 1_555 1_555
C41 C20 1_555 1_555
H40 C41 1_555 1_555
C42 C11 1_555 1_555
H41 C42 1_555 1_555
C43 C13 1_555 1_555
C44 C17 1_555 1_555
H42 C44 1_555 1_555
C45 C9 1_555 1_555
H43 C45 1_555 1_555
H44 C45 1_555 1_555
H45 C45 1_555 1_555
C46 H46 1_555 1_555
C47 C18 1_555 1_555
C48 C46 1_555 1_555
H47 C48 1_555 1_555
C49 C24 1_555 1_555
C50 C16 1_555 1_555
C51 C10 1_555 1_555
C52 C10 1_555 1_555
C53 C16 1_555 1_555
C54 C24 1_555 1_555
H48 C54 1_555 1_555
H49 C54 1_555 1_555
H50 C54 1_555 1_555
C55 C28 1_555 1_555
H51 C55 1_555 1_555
C56 C20 1_555 1_555
H52 C56 1_555 1_555
Cl1 C57 1_555 1_555
Cl2 C57 1_555 1_555
C57 H53 1_555 1_555
H54 C57 1_555 1_555
C14 C29 1_555 1_555
C19 C22 1_555 1_555
C22 C30 1_555 1_555
C24 C51 1_555 1_555
C25 C26 1_555 1_555
C27 C36 1_555 1_555
C28 C52 1_555 1_555
C30 C51 1_555 1_555
C31 C53 1_555 1_555
C33 C47 1_555 1_555
C35 C36 1_555 1_555
C35 C53 1_555 1_555
C36 C47 1_555 1_555
C38 C39 1_555 1_555
C38 C56 1_555 1_555
C39 C50 1_555 1_555
C40 C51 1_555 1_555
C41 C50 1_555 1_555
C43 C44 1_555 1_555
C46 C55 1_555 1_555
C48 C49 1_555 1_555
C49 C52 1_555 1_555

#END
