
#######################################################################
#
#                 Cambridge Crystallographic Data Centre
#                                CCDC 
#
#######################################################################
#
# If this CIF has been generated from an entry in the Cambridge 
# Structural Database, then it will include bibliographic, chemical, 
# crystal, experimental, refinement or atomic coordinate data resulting 
# from the CCDC's data processing and validation procedures.
#
#######################################################################

data_LAKTIC
_chemical_formula_moiety         'C18 H17 Br1 I1 N1 O3 S1'
_chemical_name_systematic        
4-Bromo-3-iodo-2-(4-methoxyphenyl)-1-((4-methylphenyl)sulfonyl)-2,5-dihydro-1H-pyrrole
_symmetry_cell_setting           monoclinic
_symmetry_space_group_name_H-M   'P 21/n'
_symmetry_Int_Tables_number      14
_space_group_name_Hall           '-P 2yn'
loop_
_symmetry_equiv_pos_site_id
_symmetry_equiv_pos_as_xyz
1 x,y,z
2 1/2-x,1/2+y,1/2-z
3 -x,-y,-z
4 1/2+x,1/2-y,1/2+z
_cell_length_a                   8.392(4)
_cell_length_b                   18.882(9)
_cell_length_c                   12.334(6)
_cell_angle_alpha                90
_cell_angle_beta                 101.513(6)
_cell_angle_gamma                90
_cell_volume                     1915.09
_exptl_crystal_colour            colorless
_exptl_crystal_description       block
_cell_formula_units_Z            4
loop_
_atom_site_label
_atom_site_type_symbol
_atom_site_fract_x
_atom_site_fract_y
_atom_site_fract_z
Br1 Br 0.12033(6) 1.11013(3) 0.78238(5)
C1 C 0.2086(5) 0.8131(2) 0.9337(3)
C2 C 0.0742(5) 0.8291(2) 0.9771(4)
H1 H 0.0774 0.8666 1.0265
C3 C -0.0659(5) 0.7893(2) 0.9468(4)
H2 H -0.1573 0.8006 0.9753
C4 C -0.0719(5) 0.7327(2) 0.8746(4)
C5 C 0.0648(5) 0.7179(2) 0.8316(4)
H3 H 0.0623 0.6804 0.7825
C6 C 0.2046(5) 0.7578(2) 0.8604(3)
H4 H 0.2953 0.7475 0.8305
C7 C -0.2222(6) 0.6883(3) 0.8436(5)
H5 H -0.2291 0.6698 0.7703
H6 H -0.3161 0.7169 0.8457
H7 H -0.2175 0.6498 0.8950
C8 C 0.2732(5) 0.9909(2) 0.9112(4)
H8 H 0.3296 1.0230 0.9675
H9 H 0.1745 0.9742 0.9324
C9 C 0.2382(5) 1.0250(2) 0.7999(4)
C10 C 0.2915(5) 0.9888(2) 0.7244(3)
C11 C 0.3733(5) 0.9206(2) 0.7709(3)
H10 H 0.3015 0.8806 0.7448
C12 C 0.5378(5) 0.9075(2) 0.7428(3)
C13 C 0.6639(5) 0.9563(2) 0.7734(3)
H11 H 0.6478 0.9963 0.8138
C14 C 0.8107(5) 0.9456(2) 0.7441(4)
H12 H 0.8942 0.9781 0.7655
C15 C 0.8363(5) 0.8866(2) 0.6827(3)
C16 C 0.7108(5) 0.8387(2) 0.6498(4)
H13 H 0.7254 0.7993 0.6075
C17 C 0.5633(5) 0.8503(2) 0.6809(4)
H14 H 0.4790 0.8182 0.6589
C18 C 1.0110(6) 0.8270(3) 0.5832(4)
H15 H 0.9937 0.7814 0.6132
H16 H 1.1201 0.8298 0.5706
H17 H 0.9355 0.8336 0.5144
I1 I 0.27089(4) 1.01348(2) 0.56004(3)
N1 N 0.3785(4) 0.93152(16) 0.8920(3)
O1 O 0.3942(4) 0.89024(16) 1.0809(2)
O2 O 0.5199(3) 0.82050(15) 0.9510(3)
O3 O 0.9868(3) 0.88062(16) 0.6589(3)
S1 S 0.38961(12) 0.86273(5) 0.97285(9)
loop_
_geom_bond_atom_site_label_1
_geom_bond_atom_site_label_2
_geom_bond_site_symmetry_1
_geom_bond_site_symmetry_2
Br1 C9 1_555 1_555
C1 C2 1_555 1_555
C2 H1 1_555 1_555
C3 C2 1_555 1_555
H2 C3 1_555 1_555
C4 C3 1_555 1_555
C5 C4 1_555 1_555
H3 C5 1_555 1_555
C6 C1 1_555 1_555
H4 C6 1_555 1_555
C7 C4 1_555 1_555
H5 C7 1_555 1_555
H6 C7 1_555 1_555
H7 C7 1_555 1_555
C8 H8 1_555 1_555
H9 C8 1_555 1_555
C9 C8 1_555 1_555
C10 C9 1_555 1_555
C11 C10 1_555 1_555
H10 C11 1_555 1_555
C12 C11 1_555 1_555
C13 C12 1_555 1_555
H11 C13 1_555 1_555
C14 C13 1_555 1_555
H12 C14 1_555 1_555
C15 C14 1_555 1_555
C16 C15 1_555 1_555
H13 C16 1_555 1_555
C17 C12 1_555 1_555
H14 C17 1_555 1_555
C18 H15 1_555 1_555
H16 C18 1_555 1_555
H17 C18 1_555 1_555
I1 C10 1_555 1_555
N1 C8 1_555 1_555
O1 S1 1_555 1_555
O2 S1 1_555 1_555
O3 C15 1_555 1_555
S1 C1 1_555 1_555
C5 C6 1_555 1_555
C11 N1 1_555 1_555
C16 C17 1_555 1_555
C18 O3 1_555 1_555
N1 S1 1_555 1_555

#END
