
#######################################################################
#
#                 Cambridge Crystallographic Data Centre
#                                CCDC 
#
#######################################################################
#
# If this CIF has been generated from an entry in the Cambridge 
# Structural Database, then it will include bibliographic, chemical, 
# crystal, experimental, refinement or atomic coordinate data resulting 
# from the CCDC's data processing and validation procedures.
#
#######################################################################

data_LAKTEY
_chemical_formula_moiety         'C16 H10 I2'
_chemical_name_systematic        2,3-Di-iodo-1-phenylnaphthalene
_symmetry_cell_setting           triclinic
_symmetry_space_group_name_H-M   'P -1'
_symmetry_Int_Tables_number      2
_space_group_name_Hall           '-P 1'
loop_
_symmetry_equiv_pos_site_id
_symmetry_equiv_pos_as_xyz
1 x,y,z
2 -x,-y,-z
_cell_length_a                   9.1655(16)
_cell_length_b                   12.387(2)
_cell_length_c                   13.582(3)
_cell_angle_alpha                76.687(3)
_cell_angle_beta                 77.515(4)
_cell_angle_gamma                85.659(3)
_cell_volume                     1464.54
_exptl_crystal_colour            colorless
_exptl_crystal_description       block
_cell_formula_units_Z            4
loop_
_atom_site_label
_atom_site_type_symbol
_atom_site_fract_x
_atom_site_fract_y
_atom_site_fract_z
C1 C -0.0516(8) 0.3795(5) 0.7657(5)
C2 C -0.1343(9) 0.3200(5) 0.7205(6)
C3 C -0.0857(11) 0.3091(6) 0.6229(7)
H1 H -0.1415 0.2695 0.5944
C4 C 0.0485(11) 0.3566(6) 0.5627(6)
C5 C 0.1037(14) 0.3433(8) 0.4611(7)
H2 H 0.0529 0.2997 0.4329
C6 C 0.2313(17) 0.3938(11) 0.4038(7)
H3 H 0.2654 0.3848 0.3365
C7 C 0.3127(12) 0.4592(9) 0.4438(6)
H4 H 0.3992 0.4936 0.4038
C8 C 0.2610(10) 0.4708(7) 0.5433(5)
H5 H 0.3137 0.5139 0.5707
C9 C 0.1309(8) 0.4197(6) 0.6052(5)
C10 C 0.0768(8) 0.4306(5) 0.7091(5)
C11 C 0.1626(8) 0.4996(6) 0.7529(5)
C12 C 0.2944(9) 0.4597(8) 0.7822(6)
H6 H 0.3313 0.3889 0.7764
C13 C 0.3723(10) 0.5284(11) 0.8211(7)
H7 H 0.4626 0.5033 0.8401
C14 C 0.3177(13) 0.6308(10) 0.8313(7)
H8 H 0.3695 0.6748 0.8584
C15 C 0.1875(13) 0.6692(8) 0.8022(6)
H9 H 0.1510 0.7399 0.8087
C16 C 0.1091(10) 0.6048(6) 0.7632(5)
H10 H 0.0198 0.6318 0.7436
I1 I -0.12045(6) 0.38592(4) 0.92211(4)
I2 I -0.33934(8) 0.24700(5) 0.80073(7)
C17 C 0.6071(7) 1.0220(5) 0.6552(5)
C18 C 0.5317(8) 1.1009(6) 0.5893(5)
C19 C 0.3823(8) 1.1228(6) 0.6192(6)
H11 H 0.3337 1.1757 0.5760
C20 C 0.3024(8) 1.0663(6) 0.7141(5)
C21 C 0.1469(9) 1.0819(8) 0.7458(7)
H12 H 0.0973 1.1346 0.7031
C22 C 0.0678(9) 1.0252(8) 0.8336(8)
H13 H -0.0351 1.0373 0.8507
C23 C 0.1402(8) 0.9470(7) 0.9004(6)
H14 H 0.0852 0.9071 0.9621
C24 C 0.2904(7) 0.9291(6) 0.8757(5)
H15 H 0.3373 0.8778 0.9213
C25 C 0.3759(7) 0.9867(5) 0.7825(5)
C26 C 0.5333(7) 0.9672(5) 0.7517(5)
C27 C 0.6097(7) 0.8847(5) 0.8232(5)
C28 C 0.6463(9) 0.9124(6) 0.9070(6)
H16 H 0.6254 0.9832 0.9197
C29 C 0.7171(10) 0.8295(9) 0.9734(6)
H17 H 0.7435 0.8462 1.0305
C30 C 0.7460(10) 0.7287(8) 0.9553(8)
H18 H 0.7927 0.6758 0.9998
C31 C 0.7085(10) 0.7011(7) 0.8729(9)
H19 H 0.7277 0.6296 0.8616
C32 C 0.6417(9) 0.7803(6) 0.8064(6)
H20 H 0.6179 0.7624 0.7491
I3 I 0.63896(7) 1.19012(5) 0.44360(4)
I4 I 0.83709(6) 0.98805(5) 0.60963(4)
loop_
_geom_bond_atom_site_label_1
_geom_bond_atom_site_label_2
_geom_bond_site_symmetry_1
_geom_bond_site_symmetry_2
C1 C2 1_555 1_555
C2 C3 1_555 1_555
C3 H1 1_555 1_555
C4 C3 1_555 1_555
C5 C4 1_555 1_555
H2 C5 1_555 1_555
C6 C5 1_555 1_555
H3 C6 1_555 1_555
C7 C6 1_555 1_555
H4 C7 1_555 1_555
C8 C7 1_555 1_555
H5 C8 1_555 1_555
C9 C4 1_555 1_555
C10 C1 1_555 1_555
C11 C10 1_555 1_555
C12 C11 1_555 1_555
H6 C12 1_555 1_555
C13 C12 1_555 1_555
H7 C13 1_555 1_555
C14 C13 1_555 1_555
H8 C14 1_555 1_555
C15 C14 1_555 1_555
H9 C15 1_555 1_555
C16 C11 1_555 1_555
H10 C16 1_555 1_555
C17 C18 1_555 1_555
C18 C19 1_555 1_555
C19 H11 1_555 1_555
C20 C19 1_555 1_555
C21 C20 1_555 1_555
H12 C21 1_555 1_555
C22 C21 1_555 1_555
H13 C22 1_555 1_555
C23 C22 1_555 1_555
H14 C23 1_555 1_555
C24 C23 1_555 1_555
H15 C24 1_555 1_555
C25 C20 1_555 1_555
C26 C17 1_555 1_555
C27 C26 1_555 1_555
C28 C27 1_555 1_555
H16 C28 1_555 1_555
C29 C28 1_555 1_555
H17 C29 1_555 1_555
C30 C29 1_555 1_555
H18 C30 1_555 1_555
C31 C30 1_555 1_555
H19 C31 1_555 1_555
C32 C27 1_555 1_555
H20 C32 1_555 1_555
I1 C1 1_555 1_555
I2 C2 1_555 1_555
I3 C18 1_555 1_555
I4 C17 1_555 1_555
C8 C9 1_555 1_555
C9 C10 1_555 1_555
C15 C16 1_555 1_555
C24 C25 1_555 1_555
C25 C26 1_555 1_555
C31 C32 1_555 1_555

#END
