
#######################################################################
#
#                 Cambridge Crystallographic Data Centre
#                                CCDC 
#
#######################################################################
#
# If this CIF has been generated from an entry in the Cambridge 
# Structural Database, then it will include bibliographic, chemical, 
# crystal, experimental, refinement or atomic coordinate data resulting 
# from the CCDC's data processing and validation procedures.
#
#######################################################################

data_LAKWEB
_chemical_formula_moiety         'C20 H19 N1 O5 S1'
_chemical_name_systematic        
'Ethyl 2-methyl-5-phenyl-4-((phenylsulfonyl)imino)-3-furoate'
_symmetry_cell_setting           monoclinic
_symmetry_space_group_name_H-M   'P 21/n'
_symmetry_Int_Tables_number      14
_space_group_name_Hall           '-P 2yn'
loop_
_symmetry_equiv_pos_site_id
_symmetry_equiv_pos_as_xyz
1 x,y,z
2 1/2-x,1/2+y,1/2-z
3 -x,-y,-z
4 1/2+x,1/2-y,1/2+z
_cell_length_a                   10.0868(8)
_cell_length_b                   15.8235(13)
_cell_length_c                   12.3174(10)
_cell_angle_alpha                90
_cell_angle_beta                 99.1310(10)
_cell_angle_gamma                90
_cell_volume                     1941.05
_exptl_crystal_colour            colorless
_exptl_crystal_description       block
_chemical_melting_point          '136 deg.C'
_cell_formula_units_Z            4
loop_
_atom_site_label
_atom_site_type_symbol
_atom_site_fract_x
_atom_site_fract_y
_atom_site_fract_z
S1 S 0.23186(6) 0.08240(4) 0.75360(5)
O1 O 0.13544(19) 0.02709(14) 0.78756(16)
O2 O 0.33221(17) 0.11880(12) 0.83300(13)
O3 O 0.22698(17) 0.12958(11) 0.34425(14)
O4 O 0.1681(2) 0.02699(12) 0.45167(14)
O5 O 0.58625(15) 0.12592(10) 0.57211(12)
N1 N 0.30825(19) 0.02435(12) 0.67090(15)
C1 C 0.2138(3) 0.24125(18) 0.6726(3)
H1 H 0.2969 0.2494 0.7162
C2 C 0.1568(5) 0.3047(2) 0.6091(4)
H2 H 0.1993 0.3568 0.6098
C3 C 0.0368(6) 0.2920(4) 0.5438(4)
H3 H -0.0010 0.3352 0.4978
C4 C -0.0309(4) 0.2147(4) 0.5447(3)
H4 H -0.1140 0.2072 0.5008
C5 C 0.0265(3) 0.1494(2) 0.6115(2)
H5 H -0.0169 0.0978 0.6141
C6 C 0.1498(2) 0.16391(15) 0.67361(18)
C7 C 0.4043(2) 0.06515(12) 0.61528(17)
C8 C 0.5340(2) 0.08367(13) 0.65385(17)
C9 C 0.6275(2) 0.06891(13) 0.75584(18)
C10 C 0.5963(2) 0.01153(15) 0.8337(2)
H6 H 0.5149 -0.0172 0.8216
C11 C 0.6862(3) -0.00283(17) 0.9288(2)
H7 H 0.6643 -0.0410 0.9806
C12 C 0.8074(3) 0.03850(17) 0.9479(2)
H8 H 0.8674 0.0284 1.0121
C13 C 0.8388(3) 0.09453(18) 0.8716(2)
H9 H 0.9209 0.1225 0.8839
C14 C 0.7500(2) 0.11007(17) 0.7763(2)
H10 H 0.7728 0.1486 0.7253
C15 C 0.4886(2) 0.13255(14) 0.48210(18)
C16 C 0.5283(3) 0.17516(18) 0.3850(2)
H11 H 0.4504 0.1834 0.3303
H12 H 0.5922 0.1407 0.3553
H13 H 0.5680 0.2289 0.4067
C17 C 0.3750(2) 0.09588(13) 0.50388(17)
C18 C 0.2465(3) 0.08038(15) 0.43151(19)
C19 C 0.1017(3) 0.1148(2) 0.2689(2)
H14 H 0.1011 0.0581 0.2391
H15 H 0.0258 0.1205 0.3078
C20 C 0.0915(4) 0.1763(2) 0.1803(3)
H16 H 0.0902 0.2323 0.2102
H17 H 0.0102 0.1667 0.1296
H18 H 0.1672 0.1706 0.1425
loop_
_geom_bond_atom_site_label_1
_geom_bond_atom_site_label_2
_geom_bond_site_symmetry_1
_geom_bond_site_symmetry_2
S1 O1 1_555 1_555
O2 S1 1_555 1_555
O3 C18 1_555 1_555
O4 C18 1_555 1_555
O5 C8 1_555 1_555
N1 S1 1_555 1_555
C1 H1 1_555 1_555
C2 C1 1_555 1_555
H2 C2 1_555 1_555
C3 C2 1_555 1_555
H3 C3 1_555 1_555
C4 C3 1_555 1_555
H4 C4 1_555 1_555
C5 C4 1_555 1_555
H5 C5 1_555 1_555
C6 S1 1_555 1_555
C7 N1 1_555 1_555
C8 C7 1_555 1_555
C9 C8 1_555 1_555
C10 C9 1_555 1_555
H6 C10 1_555 1_555
C11 C10 1_555 1_555
H7 C11 1_555 1_555
C12 C11 1_555 1_555
H8 C12 1_555 1_555
C13 C12 1_555 1_555
H9 C13 1_555 1_555
C14 C9 1_555 1_555
H10 C14 1_555 1_555
C15 O5 1_555 1_555
C16 C15 1_555 1_555
H11 C16 1_555 1_555
H12 C16 1_555 1_555
H13 C16 1_555 1_555
C17 C7 1_555 1_555
C18 C17 1_555 1_555
C19 O3 1_555 1_555
H14 C19 1_555 1_555
H15 C19 1_555 1_555
C20 C19 1_555 1_555
H16 C20 1_555 1_555
H17 C20 1_555 1_555
H18 C20 1_555 1_555
C1 C6 1_555 1_555
C5 C6 1_555 1_555
C13 C14 1_555 1_555
C15 C17 1_555 1_555

#END
