
#######################################################################
#
#                 Cambridge Crystallographic Data Centre
#                                CCDC 
#
#######################################################################
#
# If this CIF has been generated from an entry in the Cambridge 
# Structural Database, then it will include bibliographic, chemical, 
# crystal, experimental, refinement or atomic coordinate data resulting 
# from the CCDC's data processing and validation procedures.
#
#######################################################################

data_LALCEI
_chemical_formula_moiety         'C21 H31 Br1 O4'
_chemical_name_systematic        
3\b-Acetoxy-5\a-bromo-6\b-hydroxyandrostan-17-one
_symmetry_cell_setting           triclinic
_symmetry_space_group_name_H-M   'P 1'
_symmetry_Int_Tables_number      1
_space_group_name_Hall           'P 1'
loop_
_symmetry_equiv_pos_site_id
_symmetry_equiv_pos_as_xyz
1 x,y,z
_cell_length_a                   7.0518(9)
_cell_length_b                   10.1362(16)
_cell_length_c                   15.3472(19)
_cell_angle_alpha                100.579(8)
_cell_angle_beta                 99.354(6)
_cell_angle_gamma                109.267(5)
_cell_volume                     988.089
_exptl_crystal_colour            colorless
_exptl_crystal_description       prism
_chemical_melting_point          '174-176 deg.C'
_cell_formula_units_Z            2
_exptl_crystal_recrystallization_method toluene
loop_
_atom_site_label
_atom_site_type_symbol
_atom_site_fract_x
_atom_site_fract_y
_atom_site_fract_z
Br1 Br 0.71046(5) 0.95479(4) 0.21180(3)
O1 O 0.8991(4) 0.5687(3) 0.22100(19)
O2 O 1.0056(5) 0.6302(3) 0.3748(2)
O3 O 0.6506(5) 0.7351(3) -0.0514(2)
H1 H 0.5349 0.6669 -0.0713
O4 O 1.2630(5) 1.5468(3) -0.0368(2)
C1 C 1.1718(7) 0.9558(5) 0.2077(3)
H2 H 1.3180 1.0065 0.2075
H3 H 1.1376 1.0164 0.2564
C2 C 1.1475(7) 0.8103(5) 0.2299(3)
H4 H 1.2065 0.7571 0.1883
H5 H 1.2267 0.8281 0.2931
C3 C 0.9228(7) 0.7177(4) 0.2205(3)
H6 H 0.8751 0.7592 0.2731
C4 C 0.7793(6) 0.7055(4) 0.1337(3)
H7 H 0.6350 0.6583 0.1379
H8 H 0.8034 0.6424 0.0828
C5 C 0.8043(6) 0.8503(4) 0.1118(3)
C6 C 0.6434(8) 0.8372(6) 0.0264(4)
H9 H 0.5025 0.8010 0.0385
C7 C 0.6795(7) 0.9822(6) 0.0025(4)
H10 H 0.5924 0.9644 -0.0591
H11 H 0.6331 1.0422 0.0463
C8 C 0.9030(6) 1.0670(4) 0.0039(3)
H12 H 0.9443 1.0118 -0.0456
C9 C 1.0491(6) 1.0886(4) 0.0961(3)
H13 H 0.9949 1.1359 0.1440
C10 C 1.0323(6) 0.9394(4) 0.1147(3)
C11 C 1.2728(6) 1.1921(4) 0.1073(3)
H14 H 1.3408 1.1420 0.0688
H15 H 1.3491 1.2146 0.1717
C12 C 1.2906(6) 1.3350(4) 0.0817(3)
H16 H 1.2493 1.3955 0.1275
H17 H 1.4359 1.3890 0.0817
C13 C 1.1519(6) 1.3040(4) -0.0121(3)
C14 C 0.9278(6) 1.2165(4) -0.0132(3)
H18 H 0.8941 1.2708 0.0395
C15 C 0.7972(8) 1.2260(6) -0.0986(4)
H19 H 0.6513 1.2027 -0.0949
H20 H 0.8024 1.1603 -0.1537
C16 C 0.9023(8) 1.3871(6) -0.0987(4)
H21 H 0.8943 1.3977 -0.1619
H22 H 0.8354 1.4472 -0.0674
C17 C 1.1272(7) 1.4310(5) -0.0470(3)
C18 C 1.2332(6) 1.2291(4) -0.0880(3)
H23 H 1.2272 1.1346 -0.0793
H24 H 1.3766 1.2895 -0.0843
H25 H 1.1467 1.2163 -0.1481
C19 C 1.1036(6) 0.8548(4) 0.0388(3)
H26 H 1.0957 0.7616 0.0508
H27 H 1.2465 0.9114 0.0392
H28 H 1.0131 0.8384 -0.0209
C20 C 0.9434(7) 0.5415(5) 0.3035(3)
C21 C 0.9015(7) 0.3822(5) 0.2905(3)
H29 H 0.9075 0.3589 0.3499
H30 H 1.0060 0.3584 0.2630
H31 H 0.7637 0.3259 0.2503
Br2 Br -0.06071(5) 0.08832(4) 0.43778(3)
O5 O 0.4805(4) 0.4967(3) 0.46519(18)
O6 O 0.4343(5) 0.4416(3) 0.3131(2)
O7 O 0.1474(5) 0.3092(3) 0.70979(19)
H32 H 0.1117 0.3809 0.7185
O8 O -0.0467(4) -0.4995(3) 0.69544(19)
C22 C 0.4160(6) 0.1192(5) 0.4948(3)
H33 H 0.3128 0.0539 0.4386
H34 H 0.5226 0.0774 0.5088
C23 C 0.5196(7) 0.2691(5) 0.4771(3)
H35 H 0.6365 0.3300 0.5299
H36 H 0.5761 0.2567 0.4225
C24 C 0.3694(7) 0.3456(4) 0.4625(3)
H37 H 0.2669 0.2958 0.4024
C25 C 0.2562(6) 0.3500(4) 0.5391(3)
H38 H 0.3563 0.4146 0.5962
H39 H 0.1501 0.3917 0.5240
C26 C 0.1523(6) 0.2029(4) 0.5551(3)
C27 C 0.0214(8) 0.2085(6) 0.6259(4)
H40 H -0.0903 0.2421 0.6020
C28 C -0.0774(8) 0.0630(6) 0.6420(4)
H41 H -0.1880 0.0012 0.5872
H42 H -0.1437 0.0742 0.6936
C29 C 0.0710(6) -0.0139(4) 0.6632(3)
H43 H 0.1747 0.0431 0.7221
C30 C 0.1867(6) -0.0261(4) 0.5856(3)
H44 H 0.0785 -0.0794 0.5275
C31 C 0.3083(6) 0.1268(4) 0.5742(3)
C32 C 0.3224(6) -0.1178(4) 0.6001(3)
H45 H 0.3800 -0.1331 0.5461
H46 H 0.4400 -0.0632 0.6538
C33 C 0.2023(6) -0.2651(4) 0.6149(3)
H47 H 0.0959 -0.3256 0.5584
H48 H 0.2982 -0.3153 0.6288
C34 C 0.0982(6) -0.2457(4) 0.6938(3)
C35 C -0.0463(6) -0.1653(4) 0.6717(3)
H49 H -0.1404 -0.2209 0.6103
C36 C -0.1805(8) -0.1844(6) 0.7412(4)
H50 H -0.3094 -0.1679 0.7207
H51 H -0.1042 -0.1179 0.8020
C37 C -0.2268(8) -0.3438(6) 0.7434(4)
H52 H -0.2236 -0.3548 0.8063
H53 H -0.3644 -0.4071 0.7035
C38 C -0.0560(6) -0.3811(5) 0.7083(3)
C39 C 0.2583(6) -0.1738(4) 0.7863(3)
H54 H 0.3380 -0.2344 0.7977
H55 H 0.1864 -0.1626 0.8351
H56 H 0.3521 -0.0786 0.7849
C40 C 0.4806(6) 0.2171(4) 0.6642(3)
H57 H 0.4163 0.2239 0.7160
H58 H 0.5534 0.3144 0.6580
H59 H 0.5793 0.1693 0.6745
C41 C 0.4899(7) 0.5304(5) 0.3849(3)
C42 C 0.5734(7) 0.6892(4) 0.3968(3)
H60 H 0.5609 0.7103 0.3368
H61 H 0.7194 0.7293 0.4298
H62 H 0.4950 0.7329 0.4318
loop_
_geom_bond_atom_site_label_1
_geom_bond_atom_site_label_2
_geom_bond_site_symmetry_1
_geom_bond_site_symmetry_2
Br1 C5 1_555 1_555
O1 C3 1_555 1_555
O2 C20 1_555 1_555
O3 H1 1_555 1_555
O4 C17 1_555 1_555
C1 H2 1_555 1_555
H3 C1 1_555 1_555
C2 C1 1_555 1_555
H4 C2 1_555 1_555
H5 C2 1_555 1_555
C3 C2 1_555 1_555
H6 C3 1_555 1_555
C4 C3 1_555 1_555
H7 C4 1_555 1_555
H8 C4 1_555 1_555
C5 C4 1_555 1_555
C6 O3 1_555 1_555
H9 C6 1_555 1_555
C7 C6 1_555 1_555
H10 C7 1_555 1_555
H11 C7 1_555 1_555
C8 C7 1_555 1_555
H12 C8 1_555 1_555
C9 C8 1_555 1_555
H13 C9 1_555 1_555
C10 C1 1_555 1_555
C11 C9 1_555 1_555
H14 C11 1_555 1_555
H15 C11 1_555 1_555
C12 C11 1_555 1_555
H16 C12 1_555 1_555
H17 C12 1_555 1_555
C13 C12 1_555 1_555
C14 C8 1_555 1_555
H18 C14 1_555 1_555
C15 C14 1_555 1_555
H19 C15 1_555 1_555
H20 C15 1_555 1_555
C16 C15 1_555 1_555
H21 C16 1_555 1_555
H22 C16 1_555 1_555
C17 C13 1_555 1_555
C18 C13 1_555 1_555
H23 C18 1_555 1_555
H24 C18 1_555 1_555
H25 C18 1_555 1_555
C19 C10 1_555 1_555
H26 C19 1_555 1_555
H27 C19 1_555 1_555
H28 C19 1_555 1_555
C20 O1 1_555 1_555
C21 C20 1_555 1_555
H29 C21 1_555 1_555
H30 C21 1_555 1_555
H31 C21 1_555 1_555
Br2 C26 1_555 1_555
O5 C24 1_555 1_555
O6 C41 1_555 1_555
O7 H32 1_555 1_555
O8 C38 1_555 1_555
C22 H33 1_555 1_555
H34 C22 1_555 1_555
C23 C22 1_555 1_555
H35 C23 1_555 1_555
H36 C23 1_555 1_555
C24 C23 1_555 1_555
H37 C24 1_555 1_555
C25 C24 1_555 1_555
H38 C25 1_555 1_555
H39 C25 1_555 1_555
C26 C25 1_555 1_555
C27 O7 1_555 1_555
H40 C27 1_555 1_555
C28 C27 1_555 1_555
H41 C28 1_555 1_555
H42 C28 1_555 1_555
C29 C28 1_555 1_555
H43 C29 1_555 1_555
C30 C29 1_555 1_555
H44 C30 1_555 1_555
C31 C22 1_555 1_555
C32 C30 1_555 1_555
H45 C32 1_555 1_555
H46 C32 1_555 1_555
C33 C32 1_555 1_555
H47 C33 1_555 1_555
H48 C33 1_555 1_555
C34 C33 1_555 1_555
C35 C29 1_555 1_555
H49 C35 1_555 1_555
C36 C35 1_555 1_555
H50 C36 1_555 1_555
H51 C36 1_555 1_555
C37 C36 1_555 1_555
H52 C37 1_555 1_555
H53 C37 1_555 1_555
C38 C34 1_555 1_555
C39 C34 1_555 1_555
H54 C39 1_555 1_555
H55 C39 1_555 1_555
H56 C39 1_555 1_555
C40 C31 1_555 1_555
H57 C40 1_555 1_555
H58 C40 1_555 1_555
H59 C40 1_555 1_555
C41 O5 1_555 1_555
C42 C41 1_555 1_555
H60 C42 1_555 1_555
H61 C42 1_555 1_555
H62 C42 1_555 1_555
C5 C6 1_555 1_555
C5 C10 1_555 1_555
C9 C10 1_555 1_555
C13 C14 1_555 1_555
C16 C17 1_555 1_555
C26 C27 1_555 1_555
C26 C31 1_555 1_555
C30 C31 1_555 1_555
C34 C35 1_555 1_555
C37 C38 1_555 1_555

#END
