
#######################################################################
#
#                 Cambridge Crystallographic Data Centre
#                                CCDC 
#
#######################################################################
#
# If this CIF has been generated from an entry in the Cambridge 
# Structural Database, then it will include bibliographic, chemical, 
# crystal, experimental, refinement or atomic coordinate data resulting 
# from the CCDC's data processing and validation procedures.
#
#######################################################################

data_LALDOR
_chemical_compound_source        'culture broth of fungus Neosartorya fischeri'
_chemical_formula_moiety         'C26 H27 N5 O4'
_chemical_name_systematic        'Fiscalin A'
_chemical_properties_biological  'pharmacological activity'
_symmetry_cell_setting           orthorhombic
_symmetry_space_group_name_H-M   'P 21 21 21'
_symmetry_Int_Tables_number      19
_space_group_name_Hall           'P 2ac 2ab'
loop_
_symmetry_equiv_pos_site_id
_symmetry_equiv_pos_as_xyz
1 x,y,z
2 1/2+x,1/2-y,-z
3 -x,1/2+y,1/2-z
4 1/2-x,-y,1/2+z
_cell_length_a                   12.398(2)
_cell_length_b                   13.746(3)
_cell_length_c                   13.972(3)
_cell_angle_alpha                90
_cell_angle_beta                 90
_cell_angle_gamma                90
_cell_volume                     2381.15
_exptl_crystal_colour            colorless
_cell_formula_units_Z            4
loop_
_atom_site_label
_atom_site_type_symbol
_atom_site_fract_x
_atom_site_fract_y
_atom_site_fract_z
C1 C 0.2314(3) 0.0829(3) 0.4517(3)
C2 C 0.3264(4) -0.0715(3) 0.4982(4)
C3 C 0.2614(3) -0.0211(3) 0.4202(4)
C4 C 0.3190(4) -0.0258(3) 0.3248(4)
N1 N 0.3271(3) 0.1462(2) 0.4568(3)
C5 C 0.3176(3) 0.2415(3) 0.4750(3)
O1 O 0.3940(2) 0.2954(2) 0.4918(2)
C6 C 0.2034(3) 0.2802(3) 0.4768(3)
C7 C 0.1532(3) 0.2775(3) 0.5784(3)
N2 N 0.1358(2) 0.2296(2) 0.4053(2)
C8 C 0.0561(3) 0.2831(3) 0.3594(3)
O2 O 0.0437(3) 0.3702(2) 0.3776(2)
C9 C -0.0078(3) 0.2294(3) 0.2906(3)
C10 C -0.0895(4) 0.2745(3) 0.2379(3)
C11 C -0.1458(4) 0.2244(3) 0.1704(3)
C12 C -0.1218(4) 0.1268(3) 0.1547(3)
C13 C -0.0445(3) 0.0797(3) 0.2070(3)
C14 C 0.0136(3) 0.1309(3) 0.2761(3)
N3 N 0.0913(3) 0.0812(2) 0.3296(3)
C15 C 0.1470(3) 0.1307(3) 0.3894(3)
N4 N 0.2623(3) 0.5070(3) 0.5597(3)
C16 C 0.2598(4) 0.6073(3) 0.5973(3)
C17 C 0.3655(6) 0.6603(4) 0.5923(5)
C18 C 0.2163(4) 0.5998(3) 0.6967(3)
O3 O 0.1961(3) 0.6666(2) 0.7515(2)
N5 N 0.2002(3) 0.5032(2) 0.7157(2)
C19 C 0.1185(3) 0.4588(3) 0.7699(3)
C20 C 0.0736(4) 0.4900(4) 0.8551(3)
C21 C -0.0082(4) 0.4320(4) 0.8919(4)
C22 C -0.0429(4) 0.3481(4) 0.8464(4)
C23 C 0.0003(4) 0.3213(3) 0.7581(3)
C24 C 0.0809(3) 0.3775(3) 0.7206(3)
C25 C 0.1291(3) 0.3775(3) 0.6199(3)
O4 O 0.0512(2) 0.4283(2) 0.5628(2)
C26 C 0.2297(3) 0.4414(3) 0.6352(3)
H1 H 0.2022 0.0792 0.5153
H2 H 0.2891 -0.0673 0.5583
H3 H 0.3359 -0.1386 0.4811
H4 H 0.3957 -0.0408 0.5038
H5 H 0.1948 -0.0562 0.4138
H6 H 0.2764 0.0068 0.2772
H7 H 0.3882 0.0051 0.3296
H8 H 0.3284 -0.0927 0.3069
H9 H 0.3899(40) 0.1248(31) 0.4541(32)
H10 H 0.2063 0.3474 0.4583
H11 H 0.0876 0.2406 0.5757
H12 H 0.2020 0.2442 0.6205
H13 H -0.1062 0.3416 0.2497
H14 H -0.2018 0.2556 0.1343
H15 H -0.1604 0.0916 0.1062
H16 H -0.0295 0.0122 0.1956
H17 H 0.3240 0.4940 0.5291
H18 H 0.2083 0.6432 0.5600
H19 H 0.3883 0.6641 0.5267
H20 H 0.3588 0.7247 0.6181
H21 H 0.4179 0.6244 0.6286
H22 H 0.0976 0.5478 0.8871
H23 H -0.0408 0.4500 0.9517
H24 H -0.0992 0.3097 0.8749
H25 H -0.0245 0.2643 0.7250
H26 H 0.0701 0.4160 0.5026
H27 H 0.2951 0.3960 0.6554
loop_
_geom_bond_atom_site_label_1
_geom_bond_atom_site_label_2
_geom_bond_site_symmetry_1
_geom_bond_site_symmetry_2
C1 C3 1_555 1_555
C2 C3 1_555 1_555
C3 C4 1_555 1_555
C4 H6 1_555 1_555
N1 C1 1_555 1_555
C5 N1 1_555 1_555
O1 C5 1_555 1_555
C6 C5 1_555 1_555
C7 C6 1_555 1_555
N2 C6 1_555 1_555
C8 N2 1_555 1_555
O2 C8 1_555 1_555
C9 C8 1_555 1_555
C10 C9 1_555 1_555
C11 C10 1_555 1_555
C12 C11 1_555 1_555
C13 C12 1_555 1_555
C14 C9 1_555 1_555
N3 C14 1_555 1_555
C15 C1 1_555 1_555
N4 C16 1_555 1_555
C16 C17 1_555 1_555
C17 H19 1_555 1_555
C18 C16 1_555 1_555
O3 C18 1_555 1_555
N5 C18 1_555 1_555
C19 N5 1_555 1_555
C20 C19 1_555 1_555
C21 C20 1_555 1_555
C22 C21 1_555 1_555
C23 C22 1_555 1_555
C24 C19 1_555 1_555
C25 C7 1_555 1_555
O4 C25 1_555 1_555
C26 N4 1_555 1_555
H1 C1 1_555 1_555
H2 C2 1_555 1_555
H3 C2 1_555 1_555
H4 C2 1_555 1_555
H5 C3 1_555 1_555
H7 C4 1_555 1_555
H8 C4 1_555 1_555
H9 N1 1_555 1_555
H10 C6 1_555 1_555
H11 C7 1_555 1_555
H12 C7 1_555 1_555
H13 C10 1_555 1_555
H14 C11 1_555 1_555
H15 C12 1_555 1_555
H16 C13 1_555 1_555
H17 N4 1_555 1_555
H18 C16 1_555 1_555
H20 C17 1_555 1_555
H21 C17 1_555 1_555
H22 C20 1_555 1_555
H23 C21 1_555 1_555
H24 C22 1_555 1_555
H25 C23 1_555 1_555
H26 O4 1_555 1_555
H27 C26 1_555 1_555
N2 C15 1_555 1_555
C13 C14 1_555 1_555
N3 C15 1_555 1_555
N5 C26 1_555 1_555
C23 C24 1_555 1_555
C24 C25 1_555 1_555
C25 C26 1_555 1_555

#END
