
#######################################################################
#
#                 Cambridge Crystallographic Data Centre
#                                CCDC 
#
#######################################################################
#
# If this CIF has been generated from an entry in the Cambridge 
# Structural Database, then it will include bibliographic, chemical, 
# crystal, experimental, refinement or atomic coordinate data resulting 
# from the CCDC's data processing and validation procedures.
#
#######################################################################

data_LALNIX
_chemical_formula_moiety         'C40 H44 N4 O3'
_chemical_name_systematic        
3',6'-bis(diethylamino)-2-(2-((4-oxo-4-phenylbut-2-en-2-yl)amino)ethyl)spiro[isoindole-1,9'-xanthen]-3(2H)-one
_symmetry_cell_setting           monoclinic
_symmetry_space_group_name_H-M   'P 21/n'
_symmetry_Int_Tables_number      14
_space_group_name_Hall           '-P 2yn'
loop_
_symmetry_equiv_pos_site_id
_symmetry_equiv_pos_as_xyz
1 x,y,z
2 1/2-x,1/2+y,1/2-z
3 -x,-y,-z
4 1/2+x,1/2-y,1/2+z
_cell_length_a                   15.421(11)
_cell_length_b                   11.935(9)
_cell_length_c                   19.703(14)
_cell_angle_alpha                90
_cell_angle_beta                 104.944(10)
_cell_angle_gamma                90
_cell_volume                     3503.68
_cell_formula_units_Z            4
loop_
_atom_site_label
_atom_site_type_symbol
_atom_site_fract_x
_atom_site_fract_y
_atom_site_fract_z
C1 C 0.19963(17) 0.4279(2) 0.84261(14)
H1 H 0.2492 0.4750 0.8503
C2 C 0.11426(17) 0.4733(2) 0.83609(14)
C3 C 0.04217(17) 0.3966(2) 0.82562(15)
H2 H -0.0156 0.4232 0.8218
C4 C 0.05594(15) 0.2837(2) 0.82107(14)
H3 H 0.0068 0.2359 0.8134
C5 C 0.14113(15) 0.2378(2) 0.82753(12)
C6 C 0.21106(15) 0.3136(2) 0.83781(13)
C7 C 0.31789(16) 0.1682(2) 0.84209(13)
C8 C 0.25245(15) 0.0863(2) 0.83111(12)
C9 C 0.15468(14) 0.1119(2) 0.82620(12)
C10 C 0.40838(16) 0.1440(2) 0.85079(14)
H4 H 0.4498 0.2023 0.8574
C11 C 0.43794(16) 0.0339(2) 0.84972(14)
C12 C 0.37177(17) -0.0510(2) 0.83832(15)
H5 H 0.3885 -0.1258 0.8372
C13 C 0.28232(16) -0.0233(2) 0.82884(14)
H6 H 0.2401 -0.0807 0.8206
C14 C 0.2296(3) 0.6919(3) 0.91361(19)
H7 H 0.2754 0.7448 0.9106
H8 H 0.2572 0.6240 0.9349
H9 H 0.1930 0.7229 0.9416
C15 C 0.1721(2) 0.6669(2) 0.84099(17)
H10 H 0.1460 0.7364 0.8195
H11 H 0.2101 0.6376 0.8128
C16 C -0.0075(2) 0.6048(3) 0.9123(2)
H12 H -0.0652 0.6344 0.9127
H13 H 0.0378 0.6383 0.9496
H14 H -0.0073 0.5251 0.9189
C17 C 0.0118(2) 0.6306(2) 0.8435(2)
H15 H -0.0349 0.5982 0.8060
H16 H 0.0107 0.7111 0.8368
C18 C 0.6286(2) 0.1433(4) 0.9352(2)
H17 H 0.6717 0.2013 0.9352
H18 H 0.6564 0.0844 0.9665
H19 H 0.5792 0.1737 0.9506
C19 C 0.5954(2) 0.0979(3) 0.8635(2)
H20 H 0.5696 0.1587 0.8321
H21 H 0.6460 0.0686 0.8483
C20 C 0.5589(2) -0.1075(3) 0.8690(2)
H22 H 0.6197 -0.1113 0.8638
H23 H 0.5216 -0.1542 0.8328
C21 C 0.5584(2) -0.1557(4) 0.9393(2)
H24 H 0.5793 -0.2318 0.9420
H25 H 0.4984 -0.1539 0.9449
H26 H 0.5972 -0.1123 0.9758
C22 C 0.07790(17) 0.0750(2) 0.69361(14)
H27 H 0.1142 0.1257 0.6779
C23 C 0.01125(18) 0.0165(3) 0.64638(16)
H28 H 0.0031 0.0277 0.5984
C24 C -0.04336(19) -0.0584(3) 0.66946(17)
H29 H -0.0881 -0.0962 0.6369
C25 C -0.03236(16) -0.0774(2) 0.73984(16)
H30 H -0.0690 -0.1279 0.7555
C26 C 0.03513(14) -0.0192(2) 0.78713(13)
C27 C 0.08921(14) 0.0567(2) 0.76405(13)
C28 C 0.17259(15) 0.0789(2) 0.95883(13)
H31 H 0.2323 0.1072 0.9614
H32 H 0.1790 0.0093 0.9851
C29 C 0.12273(18) 0.1632(3) 0.99256(14)
H33 H 0.1121 0.2309 0.9643
H34 H 0.0649 0.1324 0.9936
C30 C 0.22404(17) 0.2809(2) 1.08507(15)
C31 C 0.26343(17) 0.2986(2) 1.15534(14)
H35 H 0.2983 0.3626 1.1680
C32 C 0.25391(16) 0.2252(2) 1.20951(14)
C33 C 0.2364(2) 0.3641(3) 1.03191(16)
H36 H 0.2049 0.3392 0.9858
H37 H 0.2991 0.3713 1.0344
H38 H 0.2131 0.4354 1.0413
C34 C 0.29565(15) 0.2519(2) 1.28534(13)
C35 C 0.32516(16) 0.3584(2) 1.30895(14)
H39 H 0.3195 0.4170 1.2770
C36 C 0.36285(17) 0.3782(2) 1.37963(16)
H40 H 0.3817 0.4501 1.3948
C37 C 0.37252(18) 0.2927(3) 1.42740(16)
H41 H 0.3991 0.3061 1.4747
C38 C 0.34276(19) 0.1863(3) 1.40522(15)
H42 H 0.3482 0.1284 1.4376
C39 C 0.30498(18) 0.1664(2) 1.33490(15)
H43 H 0.2853 0.0946 1.3203
C40 C 0.06099(15) -0.0218(2) 0.86500(14)
N1 N 0.09981(16) 0.58677(19) 0.83932(14)
N2 N 0.52754(14) 0.0083(2) 0.85711(14)
N3 N 0.12701(12) 0.05616(16) 0.88560(10)
N4 N 0.17303(15) 0.1913(2) 1.06377(11)
H44 H 0.1693 0.1442 1.0959
O1 O 0.03114(11) -0.08080(15) 0.90503(10)
O2 O 0.29933(11) 0.28125(14) 0.84569(10)
O3 O 0.21112(13) 0.13441(17) 1.19658(10)
loop_
_geom_bond_atom_site_label_1
_geom_bond_atom_site_label_2
_geom_bond_site_symmetry_1
_geom_bond_site_symmetry_2
C1 H1 1_555 1_555
C2 C1 1_555 1_555
C3 C2 1_555 1_555
H2 C3 1_555 1_555
C4 C3 1_555 1_555
H3 C4 1_555 1_555
C5 C4 1_555 1_555
C6 C1 1_555 1_555
C7 C8 1_555 1_555
C8 C9 1_555 1_555
C9 C5 1_555 1_555
C10 C7 1_555 1_555
H4 C10 1_555 1_555
C11 C10 1_555 1_555
C12 C11 1_555 1_555
H5 C12 1_555 1_555
C13 C8 1_555 1_555
H6 C13 1_555 1_555
C14 H7 1_555 1_555
H8 C14 1_555 1_555
H9 C14 1_555 1_555
C15 C14 1_555 1_555
H10 C15 1_555 1_555
H11 C15 1_555 1_555
C16 H12 1_555 1_555
H13 C16 1_555 1_555
H14 C16 1_555 1_555
C17 C16 1_555 1_555
H15 C17 1_555 1_555
H16 C17 1_555 1_555
C18 H17 1_555 1_555
H18 C18 1_555 1_555
H19 C18 1_555 1_555
C19 C18 1_555 1_555
H20 C19 1_555 1_555
H21 C19 1_555 1_555
C20 H22 1_555 1_555
H23 C20 1_555 1_555
C21 C20 1_555 1_555
H24 C21 1_555 1_555
H25 C21 1_555 1_555
H26 C21 1_555 1_555
C22 H27 1_555 1_555
C23 C22 1_555 1_555
H28 C23 1_555 1_555
C24 C23 1_555 1_555
H29 C24 1_555 1_555
C25 C24 1_555 1_555
H30 C25 1_555 1_555
C26 C25 1_555 1_555
C27 C9 1_555 1_555
C28 H31 1_555 1_555
H32 C28 1_555 1_555
C29 C28 1_555 1_555
H33 C29 1_555 1_555
H34 C29 1_555 1_555
C30 C31 1_555 1_555
C31 H35 1_555 1_555
C32 C31 1_555 1_555
C33 C30 1_555 1_555
H36 C33 1_555 1_555
H37 C33 1_555 1_555
H38 C33 1_555 1_555
C34 C32 1_555 1_555
C35 C34 1_555 1_555
H39 C35 1_555 1_555
C36 C35 1_555 1_555
H40 C36 1_555 1_555
C37 C36 1_555 1_555
H41 C37 1_555 1_555
C38 C37 1_555 1_555
H42 C38 1_555 1_555
C39 C34 1_555 1_555
H43 C39 1_555 1_555
C40 C26 1_555 1_555
N1 C2 1_555 1_555
N2 C11 1_555 1_555
N3 C9 1_555 1_555
N4 C29 1_555 1_555
H44 N4 1_555 1_555
O1 C40 1_555 1_555
O2 C6 1_555 1_555
O3 C32 1_555 1_555
C5 C6 1_555 1_555
C7 O2 1_555 1_555
C12 C13 1_555 1_555
C15 N1 1_555 1_555
C17 N1 1_555 1_555
C19 N2 1_555 1_555
C20 N2 1_555 1_555
C22 C27 1_555 1_555
C26 C27 1_555 1_555
C28 N3 1_555 1_555
C30 N4 1_555 1_555
C38 C39 1_555 1_555
C40 N3 1_555 1_555

#END
