
#######################################################################
#
#                 Cambridge Crystallographic Data Centre
#                                CCDC 
#
#######################################################################
#
# If this CIF has been generated from an entry in the Cambridge 
# Structural Database, then it will include bibliographic, chemical, 
# crystal, experimental, refinement or atomic coordinate data resulting 
# from the CCDC's data processing and validation procedures.
#
#######################################################################

data_LALNIN54
_chemical_formula_moiety         'C3 H7 N1 O2'
_chemical_name_systematic        L-Alanine
_symmetry_cell_setting           orthorhombic
_symmetry_space_group_name_H-M   'P 21 21 21'
_symmetry_Int_Tables_number      19
_space_group_name_Hall           'P 2ac 2ab'
loop_
_symmetry_equiv_pos_site_id
_symmetry_equiv_pos_as_xyz
1 x,y,z
2 1/2+x,1/2-y,-z
3 -x,1/2+y,1/2-z
4 1/2-x,-y,1/2+z
_cell_length_a                   5.7837(3)
_cell_length_b                   6.0328(3)
_cell_length_c                   12.3406(6)
_cell_angle_alpha                90
_cell_angle_beta                 90
_cell_angle_gamma                90
_cell_volume                     430.587
_exptl_crystal_colour            colorless
_exptl_crystal_description       block
_cell_formula_units_Z            4
loop_
_atom_site_label
_atom_site_type_symbol
_atom_site_fract_x
_atom_site_fract_y
_atom_site_fract_z
O1 O -0.2615(6) 0.0498(6) 0.1853(2)
O2 O -0.1283(6) -0.2285(6) 0.0843(2)
N1 N 0.3135(6) -0.1554(6) 0.1375(3)
C1 C 0.1446(7) 0.0228(8) 0.1610(3)
C2 C 0.1971(9) 0.2247(9) 0.0915(4)
C3 C -0.1028(8) -0.0594(8) 0.1417(3)
H1 H 0.2828 -0.2727 0.1789
H2 H 0.4557 -0.1070 0.1515
H3 H 0.3033 -0.1937 0.0680
H4 H 0.1598 0.0649 0.2374
H5 H 0.3523 0.2736 0.1052
H6 H 0.0908 0.3416 0.1090
H7 H 0.1813 0.1864 0.0163
loop_
_geom_bond_atom_site_label_1
_geom_bond_atom_site_label_2
_geom_bond_site_symmetry_1
_geom_bond_site_symmetry_2
O1 C3 1_555 1_555
O2 C3 1_555 1_555
N1 C1 1_555 1_555
C1 C2 1_555 1_555
C2 H5 1_555 1_555
C3 C1 1_555 1_555
H1 N1 1_555 1_555
H2 N1 1_555 1_555
H3 N1 1_555 1_555
H4 C1 1_555 1_555
H6 C2 1_555 1_555
H7 C2 1_555 1_555

#END
