
#######################################################################
#
#                 Cambridge Crystallographic Data Centre
#                                CCDC 
#
#######################################################################
#
# If this CIF has been generated from an entry in the Cambridge 
# Structural Database, then it will include bibliographic, chemical, 
# crystal, experimental, refinement or atomic coordinate data resulting 
# from the CCDC's data processing and validation procedures.
#
#######################################################################

data_LALNIN58
_chemical_name_common            2-azaniumylpropanoate
_chemical_formula_moiety         'C3 H7 N1 O2'
_chemical_name_systematic        '(2S)-2-aminopropanoic acid'
_symmetry_cell_setting           orthorhombic
_symmetry_space_group_name_H-M   'P 21 21 21'
_symmetry_Int_Tables_number      19
_space_group_name_Hall           'P 2ac 2ab'
loop_
_symmetry_equiv_pos_site_id
_symmetry_equiv_pos_as_xyz
1 x,y,z
2 1/2+x,1/2-y,-z
3 -x,1/2+y,1/2-z
4 1/2-x,-y,1/2+z
_cell_length_a                   5.7907(18)
_cell_length_b                   6.040(3)
_cell_length_c                   12.350(5)
_cell_angle_alpha                90
_cell_angle_beta                 90
_cell_angle_gamma                90
_cell_volume                     431.951
_exptl_crystal_colour            colorless
_exptl_crystal_description       'microcrystalline suspension'
_cell_formula_units_Z            4
_exptl_crystal_preparation       
'Microcrystalline powder suspension was prepared and subjected to the special rotating magnetic field to form a 3D oriented microcrystalline suspension. The suspension was subjected to in-situ XRD measurement and single-crystal-like diffraction images were acquired.'
loop_
_atom_site_label
_atom_site_type_symbol
_atom_site_fract_x
_atom_site_fract_y
_atom_site_fract_z
O1 O 0.2386(13) 0.5462(18) 0.6845(5)
O2 O 0.3725(12) 0.265(2) 0.5850(5)
N1 N 0.8137(11) 0.353(2) 0.6383(6)
C1 C 0.6458(18) 0.509(3) 0.6605(6)
C2 C 0.3997(18) 0.438(3) 0.6414(7)
C3 C 0.698(2) 0.734(3) 0.5917(8)
H1 H 0.95244 0.41017 0.65187
H2 H 0.79149 0.23455 0.67976
H3 H 0.65947 0.54745 0.7374
H4 H 0.8053 0.31418 0.56889
H5 H 0.58171 0.84245 0.60709
H6 H 0.84693 0.79124 0.61165
H7 H 0.69718 0.70039 0.51568
loop_
_geom_bond_atom_site_label_1
_geom_bond_atom_site_label_2
_geom_bond_site_symmetry_1
_geom_bond_site_symmetry_2
O1 C2 1_555 1_555
O2 C2 1_555 1_555
N1 C1 1_555 1_555
C1 C2 1_555 1_555
C3 C1 1_555 1_555
H1 N1 1_555 1_555
H2 N1 1_555 1_555
H3 C1 1_555 1_555
H4 N1 1_555 1_555
H5 C3 1_555 1_555
H6 C3 1_555 1_555
H7 C3 1_555 1_555

#END
