
#######################################################################
#
#                 Cambridge Crystallographic Data Centre
#                                CCDC 
#
#######################################################################
#
# If this CIF has been generated from an entry in the Cambridge 
# Structural Database, then it will include bibliographic, chemical, 
# crystal, experimental, refinement or atomic coordinate data resulting 
# from the CCDC's data processing and validation procedures.
#
#######################################################################

data_LALPUL
_chemical_formula_moiety         'C14 H14 Br1 F1 O5'
_chemical_name_systematic        
'Dimethyl (1-(4-bromophenyl)-3-oxopropyl)(fluoro)malonate'
_symmetry_cell_setting           monoclinic
_symmetry_space_group_name_H-M   'P 21'
_symmetry_Int_Tables_number      4
_space_group_name_Hall           'P 2yb'
loop_
_symmetry_equiv_pos_site_id
_symmetry_equiv_pos_as_xyz
1 x,y,z
2 -x,1/2+y,-z
_cell_length_a                   9.7107(5)
_cell_length_b                   7.6635(4)
_cell_length_c                   10.6852(7)
_cell_angle_alpha                90
_cell_angle_beta                 109.985(3)
_cell_angle_gamma                90
_cell_volume                     747.287
_exptl_crystal_colour            colorless
_exptl_crystal_description       'thin plate'
_cell_formula_units_Z            2
loop_
_atom_site_label
_atom_site_type_symbol
_atom_site_fract_x
_atom_site_fract_y
_atom_site_fract_z
Br1 Br 0.94903(3) 0.65736(5) 0.45800(3)
F1 F 0.33980(15) 0.2348(2) -0.00804(12)
O1 O 0.5882(2) -0.1374(3) 0.3833(2)
O2 O 0.3171(2) 0.5388(3) 0.09328(19)
O3 O 0.25511(18) 0.4154(2) 0.25681(18)
O4 O 0.08569(19) 0.0960(3) -0.03001(16)
O5 O 0.14567(17) 0.0769(3) 0.19058(16)
C1 C 0.5915(3) 0.3370(4) 0.3963(2)
H1 H 0.5270 0.3112 0.4424
C2 C 0.7040(3) 0.4538(4) 0.4513(3)
H2 H 0.7163 0.5076 0.5335
C3 C 0.7980(2) 0.4896(3) 0.3832(3)
C4 C 0.7817(3) 0.4135(4) 0.2639(3)
H3 H 0.8469 0.4402 0.2189
C5 C 0.6690(3) 0.2974(4) 0.2097(2)
H4 H 0.6581 0.2446 0.1275
C6 C 0.5706(2) 0.2564(3) 0.2745(2)
C7 C 0.4413(2) 0.1346(4) 0.2163(2)
H5 H 0.4071 0.1023 0.2905
C8 C 0.4785(3) -0.0344(4) 0.1619(3)
H6 H 0.3874 -0.0937 0.1101
H7 H 0.5322 -0.0077 0.1014
C9 C 0.5678(3) -0.1533(4) 0.2674(3)
H8 H 0.6120 -0.2489 0.2410
C10 C 0.3113(2) 0.2261(3) 0.1110(2)
C11 C 0.2946(2) 0.4140(4) 0.1502(2)
C12 C 0.2468(3) 0.5831(4) 0.3135(3)
H9 H 0.3408 0.6414 0.3360
H10 H 0.2218 0.5683 0.3933
H11 H 0.1722 0.6530 0.2495
C13 C 0.1676(2) 0.1246(4) 0.0798(2)
C14 C 0.0033(3) 0.0018(5) 0.1758(3)
H12 H -0.0735 0.0762 0.1189
H13 H -0.0074 -0.0076 0.2626
H14 H -0.0043 -0.1132 0.1361
loop_
_geom_bond_atom_site_label_1
_geom_bond_atom_site_label_2
_geom_bond_site_symmetry_1
_geom_bond_site_symmetry_2
Br1 C3 1_555 1_555
F1 C10 1_555 1_555
O1 C9 1_555 1_555
O2 C11 1_555 1_555
O3 C11 1_555 1_555
O4 C13 1_555 1_555
O5 C13 1_555 1_555
C1 H1 1_555 1_555
C2 C1 1_555 1_555
H2 C2 1_555 1_555
C3 C2 1_555 1_555
C4 C3 1_555 1_555
H3 C4 1_555 1_555
C5 C4 1_555 1_555
H4 C5 1_555 1_555
C6 C1 1_555 1_555
C7 C6 1_555 1_555
H5 C7 1_555 1_555
C8 C7 1_555 1_555
H6 C8 1_555 1_555
H7 C8 1_555 1_555
C9 C8 1_555 1_555
H8 C9 1_555 1_555
C10 C7 1_555 1_555
C11 C10 1_555 1_555
C12 O3 1_555 1_555
H9 C12 1_555 1_555
H10 C12 1_555 1_555
H11 C12 1_555 1_555
C13 C10 1_555 1_555
C14 O5 1_555 1_555
H12 C14 1_555 1_555
H13 C14 1_555 1_555
H14 C14 1_555 1_555
C5 C6 1_555 1_555

#END
