
#######################################################################
#
#                 Cambridge Crystallographic Data Centre
#                                CCDC 
#
#######################################################################
#
# If this CIF has been generated from an entry in the Cambridge 
# Structural Database, then it will include bibliographic, chemical, 
# crystal, experimental, refinement or atomic coordinate data resulting 
# from the CCDC's data processing and validation procedures.
#
#######################################################################

data_LALPUK
_chemical_formula_moiety         'C23 H19 N1 O1'
_chemical_name_systematic        3-(1H-Indol-3-yl)-1,3-diphenylpropan-1-one
_symmetry_cell_setting           monoclinic
_symmetry_space_group_name_H-M   'P 21/c'
_symmetry_Int_Tables_number      14
_space_group_name_Hall           '-P 2ybc'
loop_
_symmetry_equiv_pos_site_id
_symmetry_equiv_pos_as_xyz
1 x,y,z
2 -x,1/2+y,1/2-z
3 -x,-y,-z
4 x,1/2-y,1/2+z
_cell_length_a                   15.873(3)
_cell_length_b                   5.8391(9)
_cell_length_c                   17.677(3)
_cell_angle_alpha                90
_cell_angle_beta                 91.183(10)
_cell_angle_gamma                90
_cell_volume                     1638.03
_exptl_crystal_colour            colorless
_exptl_crystal_description       platelet
_cell_formula_units_Z            4
loop_
_atom_site_label
_atom_site_type_symbol
_atom_site_fract_x
_atom_site_fract_y
_atom_site_fract_z
O1 O 0.42335(13) 0.0684(3) 0.18094(12)
N1 N 0.1999(2) 0.7902(5) 0.3502(2)
C1 C 0.4341(2) 0.2735(5) 0.1708(2)
C2 C 0.3765(2) 0.4475(5) 0.2059(2)
C3 C 0.2875(2) 0.3566(5) 0.2195(2)
C4 C 0.5059(2) 0.3530(5) 0.1242(2)
C5 C 0.5415(2) 0.5694(5) 0.1311(2)
C6 C 0.6097(2) 0.6317(6) 0.0873(2)
C7 C 0.6397(2) 0.4786(6) 0.0345(2)
C8 C 0.6039(2) 0.2644(6) 0.0259(2)
C9 C 0.5383(2) 0.2001(5) 0.0721(2)
C10 C 0.2389(2) 0.3314(5) 0.1440(2)
C11 C 0.2448(2) 0.1319(5) 0.1011(2)
C12 C 0.2016(2) 0.1124(5) 0.0318(2)
C13 C 0.1510(2) 0.2864(5) 0.0055(2)
C14 C 0.1434(2) 0.4854(5) 0.0476(2)
C15 C 0.1876(2) 0.5082(5) 0.1161(2)
C16 C 0.2634(2) 0.7077(6) 0.3057(2)
C17 C 0.2403(2) 0.5045(5) 0.2742(2)
C18 C 0.0988(2) 0.2784(5) 0.2866(2)
C19 C 0.0209(2) 0.2873(5) 0.3198(2)
C20 C -0.0010(2) 0.4740(6) 0.3653(2)
C21 C 0.0541(2) 0.6528(6) 0.3801(2)
C22 C 0.1331(2) 0.6411(5) 0.3468(2)
C23 C 0.1564(2) 0.4569(5) 0.3004(2)
H1 H 0.202(2) 0.920(5) 0.373(2)
H2 H 0.3783(2) 0.5994(5) 0.1850(2)
H3 H 0.4083(2) 0.4924(5) 0.2560(2)
H4 H 0.2930(2) 0.1860(5) 0.2386(2)
H5 H 0.519(2) 0.676(5) 0.167(2)
H6 H 0.6356(2) 0.8020(6) 0.0931(2)
H7 H 0.687(2) 0.522(5) 0.004(2)
H8 H 0.624(2) 0.151(5) -0.012(2)
H9 H 0.5136(2) 0.0388(5) 0.0652(2)
H10 H 0.2815(2) -0.0081(5) 0.1227(2)
H11 H 0.2030(2) -0.0314(5) 0.0077(2)
H12 H 0.1186(2) 0.2913(5) -0.0443(2)
H13 H 0.1067(2) 0.6288(5) 0.0285(2)
H14 H 0.1851(2) 0.6352(5) 0.1541(2)
H15 H 0.311(2) 0.793(5) 0.300(2)
H16 H 0.1135(2) 0.1298(5) 0.2597(2)
H17 H -0.0201(2) 0.1492(5) 0.3103(2)
H18 H -0.0605(2) 0.4472(6) 0.3880(2)
H19 H 0.0373(2) 0.8096(6) 0.4128(2)
loop_
_geom_bond_atom_site_label_1
_geom_bond_atom_site_label_2
_geom_bond_site_symmetry_1
_geom_bond_site_symmetry_2
O1 C1 1_555 1_555
N1 C16 1_555 1_555
C1 C2 1_555 1_555
C2 C3 1_555 1_555
C3 C10 1_555 1_555
C4 C1 1_555 1_555
C5 C4 1_555 1_555
C6 C5 1_555 1_555
C7 C6 1_555 1_555
C8 C7 1_555 1_555
C9 C4 1_555 1_555
C10 C11 1_555 1_555
C11 C12 1_555 1_555
C12 C13 1_555 1_555
C13 C14 1_555 1_555
C14 C15 1_555 1_555
C15 C10 1_555 1_555
C16 C17 1_555 1_555
C17 C3 1_555 1_555
C18 C19 1_555 1_555
C19 C20 1_555 1_555
C20 C21 1_555 1_555
C21 C22 1_555 1_555
C22 N1 1_555 1_555
C23 C17 1_555 1_555
H1 N1 1_555 1_555
H2 C2 1_555 1_555
H3 C2 1_555 1_555
H4 C3 1_555 1_555
H5 C5 1_555 1_555
H6 C6 1_555 1_555
H7 C7 1_555 1_555
H8 C8 1_555 1_555
H9 C9 1_555 1_555
H10 C11 1_555 1_555
H11 C12 1_555 1_555
H12 C13 1_555 1_555
H13 C14 1_555 1_555
H14 C15 1_555 1_555
H15 C16 1_555 1_555
H16 C18 1_555 1_555
H17 C19 1_555 1_555
H18 C20 1_555 1_555
H19 C21 1_555 1_555
C8 C9 1_555 1_555
C18 C23 1_555 1_555
C22 C23 1_555 1_555

#END
