
#######################################################################
#
#                 Cambridge Crystallographic Data Centre
#                                CCDC 
#
#######################################################################
#
# If this CIF has been generated from an entry in the Cambridge 
# Structural Database, then it will include bibliographic, chemical, 
# crystal, experimental, refinement or atomic coordinate data resulting 
# from the CCDC's data processing and validation procedures.
#
#######################################################################

data_LANBUY
_chemical_name_common            'Potassium saccharinate hydrate'
_chemical_formula_moiety         'K1 1+,C7 H4 N1 O3 S1 1-,0.78(H2 O1)'
_chemical_name_systematic        
'Potassium 1,2-benzisothiazol-3(2H)-onate 1,1-dioxide hydrate'
_symmetry_cell_setting           triclinic
_symmetry_space_group_name_H-M   'P -1'
_symmetry_Int_Tables_number      2
_space_group_name_Hall           '-P 1'
loop_
_symmetry_equiv_pos_site_id
_symmetry_equiv_pos_as_xyz
1 x,y,z
2 -x,-y,-z
_cell_length_a                   7.6104(5)
_cell_length_b                   12.3049(8)
_cell_length_c                   15.4936(10)
_cell_angle_alpha                72.2780(10)
_cell_angle_beta                 86.5810(10)
_cell_angle_gamma                81.2290(10)
_cell_volume                     1365.75
_exptl_crystal_colour            colorless
_exptl_crystal_description       block
_cell_formula_units_Z            6
loop_
_atom_site_label
_atom_site_type_symbol
_atom_site_fract_x
_atom_site_fract_y
_atom_site_fract_z
K1 K 0.80766(6) 0.92831(3) 0.55165(3)
K2 K 0.30851(5) 0.47853(3) 0.59665(3)
K3 K 0.64832(6) 0.62955(4) 0.70922(3)
O1 O 0.4143(2) 0.69490(12) 0.56610(11)
H1 H 0.460(4) 0.720(3) 0.518(2)
H2 H 0.354(4) 0.750(3) 0.574(2)
O2 O 0.9404(3) 0.7040(2) 0.61728(18)
H3 H 1.009(7) 0.664(4) 0.657(4)
H4 H 0.973(7) 0.689(4) 0.563(4)
O3 O 0.9707(7) 0.8032(5) 0.7080(4)
H5 H 0.995(14) 0.732(10) 0.724(7)
H6 H 1.062(15) 0.841(9) 0.690(7)
S1 S 0.83928(5) 0.37314(3) 0.63562(3)
N1 N 0.9087(2) 0.29712(13) 0.56982(10)
O4 O 0.68664(17) 0.45666(11) 0.59778(9)
O5 O 0.98009(18) 0.42309(12) 0.66027(10)
O6 O 0.9317(2) 0.10859(12) 0.57270(10)
C1 C 0.7741(2) 0.26148(13) 0.72804(11)
C2 C 0.8106(2) 0.16171(14) 0.70305(11)
C3 C 0.7727(3) 0.05860(15) 0.76251(13)
H7 H 0.7974 -0.0094 0.7468
C4 C 0.6975(3) 0.05892(16) 0.84563(14)
H8 H 0.6711 -0.0098 0.8863
C5 C 0.6603(3) 0.16014(17) 0.86981(13)
H9 H 0.6086 0.1582 0.9261
C6 C 0.6994(2) 0.26382(15) 0.81110(12)
H10 H 0.6764 0.3318 0.8269
C7 C 0.8893(2) 0.18526(15) 0.60919(12)
S2 S 0.38963(6) -0.05567(4) 0.66269(3)
N2 N 0.4327(2) 0.06701(13) 0.59817(11)
O7 O 0.2610(2) -0.09930(11) 0.62201(10)
O8 O 0.5515(2) -0.13510(11) 0.68972(10)
O9 O 0.4019(2) 0.25251(11) 0.60365(10)
C8 C 0.3000(2) 0.10726(14) 0.73091(11)
C9 C 0.2961(2) -0.00987(15) 0.75461(11)
C10 C 0.2319(2) -0.07239(17) 0.83716(13)
H11 H 0.2305 -0.1514 0.8518
C11 C 0.1697(3) -0.0110(2) 0.89697(13)
H12 H 0.1256 -0.0495 0.9535
C12 C 0.1721(3) 0.1067(2) 0.87420(14)
H13 H 0.1288 0.1457 0.9156
C13 C 0.2377(3) 0.16767(17) 0.79074(13)
H14 H 0.2395 0.2466 0.7758
C14 C 0.3824(2) 0.15059(15) 0.63834(12)
S3 S 0.27081(6) 0.53726(4) 0.82592(3)
N3 N 0.0652(2) 0.55956(13) 0.80076(10)
O10 O 0.32946(19) 0.63683(12) 0.83940(10)
O11 O 0.3804(2) 0.49163(13) 0.76159(9)
O12 O -0.18907(18) 0.48408(13) 0.85943(11)
C15 C 0.2587(2) 0.42647(14) 0.92862(11)
C16 C 0.0842(2) 0.40643(14) 0.93913(11)
C17 C 0.0323(3) 0.32316(16) 1.01467(14)
H15 H -0.0848 0.3084 1.0225
C18 C 0.1595(3) 0.26264(17) 1.07805(14)
H16 H 0.1273 0.2064 1.1294
C19 C 0.3347(3) 0.28408(17) 1.06671(14)
H17 H 0.4177 0.2418 1.1104
C20 C 0.3881(3) 0.36764(17) 0.99111(13)
H18 H 0.5048 0.3830 0.9831
C21 C -0.0290(2) 0.48596(15) 0.86295(13)
O13? O 0.8136(8) 0.7061(5) 0.5517(4)
loop_
_geom_bond_atom_site_label_1
_geom_bond_atom_site_label_2
_geom_bond_site_symmetry_1
_geom_bond_site_symmetry_2
O1 H1 1_555 1_555
H2 O1 1_555 1_555
O2 H3 1_555 1_555
H4 O2 1_555 1_555
O3 H5 1_555 1_555
H6 O3 1_555 1_555
S1 N1 1_555 1_555
N1 C7 1_555 1_555
O4 S1 1_555 1_555
O5 S1 1_555 1_555
O6 C7 1_555 1_555
C1 S1 1_555 1_555
C2 C1 1_555 1_555
C3 C2 1_555 1_555
H7 C3 1_555 1_555
C4 C3 1_555 1_555
H8 C4 1_555 1_555
C5 C4 1_555 1_555
H9 C5 1_555 1_555
C6 C1 1_555 1_555
H10 C6 1_555 1_555
C7 C2 1_555 1_555
S2 N2 1_555 1_555
N2 C14 1_555 1_555
O7 S2 1_555 1_555
O8 S2 1_555 1_555
O9 C14 1_555 1_555
C8 C9 1_555 1_555
C9 S2 1_555 1_555
C10 C9 1_555 1_555
H11 C10 1_555 1_555
C11 C10 1_555 1_555
H12 C11 1_555 1_555
C12 C11 1_555 1_555
H13 C12 1_555 1_555
C13 C8 1_555 1_555
H14 C13 1_555 1_555
C14 C8 1_555 1_555
S3 N3 1_555 1_555
N3 C21 1_555 1_555
O10 S3 1_555 1_555
O11 S3 1_555 1_555
O12 C21 1_555 1_555
C15 S3 1_555 1_555
C16 C15 1_555 1_555
C17 C16 1_555 1_555
H15 C17 1_555 1_555
C18 C17 1_555 1_555
H16 C18 1_555 1_555
C19 C18 1_555 1_555
H17 C19 1_555 1_555
C20 C15 1_555 1_555
H18 C20 1_555 1_555
C21 C16 1_555 1_555
C5 C6 1_555 1_555
C12 C13 1_555 1_555
C19 C20 1_555 1_555

#END
