
#######################################################################
#
#                 Cambridge Crystallographic Data Centre
#                                CCDC 
#
#######################################################################
#
# If this CIF has been generated from an entry in the Cambridge 
# Structural Database, then it will include bibliographic, chemical, 
# crystal, experimental, refinement or atomic coordinate data resulting 
# from the CCDC's data processing and validation procedures.
#
#######################################################################

data_LANBOS
_chemical_name_common            
'sodium saccharin dihydrate, soluble saccharin, saccharinum soluble, crystallose'
_chemical_formula_moiety         'Na1 1+,C7 H4 N1 O3 S1 1-,1.875(H2 O1)'
_chemical_name_systematic        
'Sodium 1,2-benzisothiazol-3(2H)-onate 1,1-dioxide hydrate'
_symmetry_cell_setting           monoclinic
_symmetry_space_group_name_H-M   'P 21/n'
_symmetry_Int_Tables_number      14
_space_group_name_Hall           '-P 2yn'
loop_
_symmetry_equiv_pos_site_id
_symmetry_equiv_pos_as_xyz
1 x,y,z
2 1/2-x,1/2+y,1/2-z
3 -x,-y,-z
4 1/2+x,1/2-y,1/2+z
_cell_length_a                   18.5918(11)
_cell_length_b                   28.3628(16)
_cell_length_c                   29.0562(16)
_cell_angle_alpha                90
_cell_angle_beta                 93.5940(10)
_cell_angle_gamma                90
_cell_volume                     15291.7
_exptl_crystal_colour            colorless
_exptl_crystal_description       block
_cell_formula_units_Z            64
loop_
_atom_site_label
_atom_site_type_symbol
_atom_site_fract_x
_atom_site_fract_y
_atom_site_fract_z
Na1 Na 0.00370(5) 0.88013(3) 0.25234(3)
Na2 Na -0.00136(5) 1.00254(3) 0.25050(3)
Na3 Na -0.00339(5) 1.12659(3) 0.24868(3)
Na4 Na 0.16480(5) 1.21019(3) 0.19710(3)
Na5 Na 0.17776(5) 0.94360(3) 0.18935(3)
Na6 Na -0.18492(5) 1.06854(3) 0.30524(3)
Na7 Na 0.08956(5) 0.38763(3) 0.15803(3)
Na8 Na 0.20324(5) 0.68470(3) 0.20847(3)
Na9 Na -0.16787(5) 0.80429(3) 0.29806(3)
Na10 Na -0.19148(5) 0.33242(3) 0.29530(3)
Na11 Na -0.02351(5) 0.30054(4) 0.24982(3)
Na12 Na 0.02287(6) 0.76069(4) 0.24228(4)
Na13 Na 0.15236(5) 0.44051(3) 0.27704(3)
Na14 Na -0.13579(8) 0.54739(6) 0.23676(5)
O1 O -0.21767(10) 0.33925(7) 0.21371(7)
H1 H -0.2240(14) 0.3648(10) 0.2080(9)
H2 H -0.1831(15) 0.3298(9) 0.2009(9)
O2 O -0.07894(10) 0.37354(7) 0.27418(7)
H3 H -0.0673(14) 0.3865(9) 0.2987(10)
H4 H -0.0942(14) 0.3940(10) 0.2579(9)
O3 O -0.14213(12) 0.81942(8) 0.37728(8)
H5 H -0.1283(16) 0.8420(11) 0.3895(10)
H6 H -0.1233(16) 0.7994(11) 0.3901(10)
O4 O -0.18841(10) 0.80061(7) 0.21386(7)
H7 H -0.1477(15) 0.8055(9) 0.2077(9)
H8 H -0.1990(14) 0.7747(10) 0.2077(9)
O5 O 0.11436(10) 0.87768(6) 0.21556(7)
H9 H 0.1430(15) 0.8646(9) 0.2340(9)
H10 H 0.1028(14) 0.8585(9) 0.1940(9)
O6 O -0.11179(10) 0.87674(6) 0.28287(7)
H11 H -0.1353(14) 0.8938(9) 0.2639(9)
H12 H -0.1042(14) 0.8924(9) 0.3037(9)
O7 O 0.14097(11) 1.19921(7) 0.11739(7)
H13 H 0.1218(16) 1.1767(10) 0.1045(10)
H14 H 0.1234(16) 1.2194(10) 0.1047(10)
O8 O 0.17056(11) 0.69828(7) 0.13025(7)
H15 H 0.1473(16) 0.6775(10) 0.1174(10)
H16 H 0.1566(16) 0.7220(10) 0.1181(10)
O9 O -0.11463(9) 1.13073(6) 0.28218(7)
H17 H -0.1008(14) 1.1478(9) 0.3038(9)
H18 H -0.1373(14) 1.1479(9) 0.2620(9)
O10 O 0.14025(13) 0.45422(8) 0.12539(9)
H19 H 0.1674(18) 0.4706(12) 0.1399(11)
H20 H 0.1198(18) 0.4734(12) 0.1115(12)
O11 O 0.11113(10) 1.13242(7) 0.21269(7)
H21 H 0.1024(14) 1.1167(10) 0.1909(9)
H22 H 0.1377(15) 1.1152(10) 0.2293(9)
O12 O 0.22084(11) 0.67586(7) 0.29115(7)
H23 H 0.2241(15) 0.6511(10) 0.2924(9)
H24 H 0.1836(16) 0.6850(10) 0.2997(9)
O13 O -0.16988(12) 0.31467(7) 0.37322(7)
H25 H -0.1508(16) 0.2905(11) 0.3838(10)
H26 H -0.1478(16) 0.3346(11) 0.3848(10)
O14 O -0.25372(10) 1.07234(7) 0.23193(7)
H27 H -0.2510(14) 1.0480(10) 0.2150(9)
H28 H -0.2565(14) 1.0944(10) 0.2163(9)
O15 O -0.15307(13) 1.06864(8) 0.38396(8)
H29 H -0.1339(17) 1.0895(11) 0.3967(11)
H30 H -0.1355(17) 1.0487(11) 0.3955(11)
O16 O 0.08162(10) 0.37159(7) 0.23705(7)
H31 H 0.0518(15) 0.3814(10) 0.2511(9)
H32 H 0.1057(14) 0.3527(9) 0.2565(9)
O17 O 0.14193(11) 0.75461(7) 0.22446(7)
H33 H 0.1593(14) 0.7705(10) 0.2458(9)
H34 H 0.1458(14) 0.7682(10) 0.2019(10)
O18 O 0.14465(12) 0.95137(8) 0.11151(7)
H35 H 0.1337(16) 0.9262(11) 0.0988(10)
H36 H 0.1269(16) 0.9718(11) 0.0964(10)
O19 O -0.11572(10) 1.00142(6) 0.28566(7)
H37 H -0.1394(14) 0.9835(9) 0.2666(9)
H38 H -0.1049(14) 0.9845(9) 0.3072(9)
O20 O 0.24345(10) 0.94320(7) 0.26422(7)
H39 H 0.2462(14) 0.9678(10) 0.2800(9)
H40 H 0.2480(14) 0.9220(10) 0.2830(9)
O21 O 0.11046(10) 1.00706(6) 0.21281(7)
H41 H 0.1313(14) 1.0258(9) 0.2312(9)
H42 H 0.1005(14) 1.0230(9) 0.1906(9)
O22 O -0.12067(11) 0.26044(7) 0.27710(8)
H43 H -0.1481(15) 0.2424(10) 0.2608(10)
H44 H -0.1117(15) 0.2432(10) 0.2984(10)
O23 O 0.17831(10) 1.21672(7) 0.28041(6)
H45 H 0.1371(15) 1.2035(9) 0.2870(9)
H46 H 0.1746(14) 1.2422(10) 0.2845(9)
O24 O 0.05226(10) 1.24797(7) 0.20757(7)
H47 H 0.0492(14) 1.2657(9) 0.1836(9)
H48 H 0.0234(14) 1.2275(10) 0.2006(9)
O25 O -0.07947(10) 0.74635(7) 0.28103(7)
H49 H -0.0653(15) 0.7325(10) 0.3068(10)
H50 H -0.1049(15) 0.7264(10) 0.2658(10)
O26 O -0.05565(12) 0.50530(8) 0.28419(9)
H51 H -0.0686(17) 0.4828(11) 0.3029(10)
H52 H -0.0322(17) 0.5144(12) 0.2941(11)
O27 O -0.08369(16) 0.61772(10) 0.27052(11)
H53 H -0.038(2) 0.6239(15) 0.2710(15)
H54 H -0.103(2) 0.6384(14) 0.2521(13)
O28 O 0.06784(16) 0.48706(11) 0.23275(11)
H55 H 0.055(2) 0.4815(14) 0.2068(14)
H56 H 0.038(2) 0.4910(14) 0.2488(14)
O29 O 0.07458(19) 0.64201(11) 0.23526(12)
H57 H 0.050(2) 0.6556(16) 0.2136(16)
H58 H 0.070(2) 0.6559(16) 0.2573(16)
O30 O -0.14468(16) 0.55186(10) 0.37533(11)
H59 H -0.134(2) 0.5234(15) 0.3680(15)
H60 H -0.144(3) 0.5902(16) 0.3769(19)
S1 S 0.04565(3) 1.07290(2) 0.08572(2)
O31 O 0.08210(9) 1.11604(6) 0.07474(6)
O32 O 0.07396(9) 1.03139(6) 0.06450(6)
O33 O -0.04398(9) 1.06063(6) 0.19329(6)
N1 N 0.04229(11) 1.06618(7) 0.14057(7)
C1 C -0.04788(13) 1.07853(8) 0.07241(9)
C2 C -0.08093(13) 1.07376(8) 0.11338(9)
C3 C -0.15538(13) 1.07661(9) 0.11370(9)
H61 H -0.1791 1.0732 0.1415
C4 C -0.19430(14) 1.08470(9) 0.07194(10)
H62 H -0.2454 1.0868 0.0712
C5 C -0.15951(14) 1.08978(9) 0.03137(10)
H63 H -0.1874 1.0956 0.0034
C6 C -0.08501(14) 1.08664(9) 0.03046(9)
H64 H -0.0611 1.0899 0.0027
C7 C -0.02678(13) 1.06596(8) 0.15322(9)
S2 S -0.23904(4) 1.19288(2) 0.17133(2)
O34 O -0.28563(10) 1.15181(7) 0.17029(7)
O35 O -0.27195(12) 1.23519(7) 0.18702(7)
O36 O -0.04516(10) 1.17473(6) 0.18650(6)
N2 N -0.16472(12) 1.18153(8) 0.20030(8)
C8 C -0.20324(13) 1.20189(8) 0.11734(9)
C9 C -0.12936(13) 1.19569(8) 0.12384(9)
C10 C -0.08608(14) 1.20053(9) 0.08738(9)
H65 H -0.0354 1.1961 0.0914
C11 C -0.11874(14) 1.21213(9) 0.04432(9)
H66 H -0.0899 1.2162 0.0188
C12 C -0.19321(15) 1.21788(9) 0.03832(9)
H67 H -0.2144 1.2254 0.0086
C13 C -0.23702(14) 1.21273(9) 0.07497(9)
H68 H -0.2878 1.2165 0.0711
C14 C -0.10847(14) 1.18301(9) 0.17307(9)
S3 S 0.02842(3) 0.31494(2) 0.08265(2)
O37 O 0.07313(9) 0.35595(6) 0.07720(6)
O38 O 0.05666(9) 0.27160(6) 0.06492(6)
O39 O -0.08867(9) 0.31234(6) 0.17883(6)
N3 N 0.00993(11) 0.31026(7) 0.13574(7)
C15 C -0.06107(13) 0.32509(8) 0.05976(9)
C16 C -0.10434(13) 0.32452(9) 0.09664(9)
C17 C -0.17761(13) 0.33187(9) 0.08996(9)
H69 H -0.2079 0.3316 0.1151
C18 C -0.20567(14) 0.33970(9) 0.04490(9)
H70 H -0.2558 0.3453 0.0393
C19 C -0.16135(14) 0.33946(9) 0.00812(9)
H71 H -0.1819 0.3445 -0.0222
C20 C -0.08749(14) 0.33191(9) 0.01484(9)
H72 H -0.0569 0.3315 -0.0102
C21 C -0.06158(13) 0.31535(9) 0.14127(9)
S4 S -0.20280(4) 0.46254(2) 0.17578(3)
O40 O -0.25947(10) 0.42951(7) 0.18424(8)
O41 O -0.21824(10) 0.51065(7) 0.18924(7)
O42 O -0.01339(10) 0.42964(7) 0.17507(7)
N4 N -0.12567(12) 0.44573(8) 0.19928(8)
C22 C -0.18002(14) 0.46122(9) 0.11800(10)
C23 C -0.10725(13) 0.45079(9) 0.11898(9)
C24 C -0.07181(14) 0.45058(9) 0.07864(9)
H73 H -0.0216 0.4441 0.0789
C25 C -0.11168(16) 0.46006(10) 0.03774(10)
H74 H -0.0884 0.4606 0.0096
C26 C -0.18509(16) 0.46877(9) 0.03741(10)
H75 H -0.2112 0.4742 0.0088
C27 C -0.22141(15) 0.46975(9) 0.07748(10)
H76 H -0.2717 0.4759 0.0773
C28 C -0.07725(14) 0.44113(9) 0.16677(10)
S5 S 0.06221(3) 0.57530(2) 0.08961(2)
O43 O 0.10024(10) 0.61897(7) 0.08307(6)
O44 O 0.09838(10) 0.53445(7) 0.07225(6)
O45 O -0.05572(10) 0.56311(7) 0.18362(6)
N5 N 0.04357(11) 0.56813(8) 0.14207(7)
C29 C -0.02700(13) 0.57916(9) 0.06514(9)
C30 C -0.07155(13) 0.57444(8) 0.10117(9)
C31 C -0.14545(13) 0.57679(9) 0.09306(9)
H77 H -0.1767 0.5739 0.1176
C32 C -0.17274(14) 0.58357(9) 0.04789(9)
H78 H -0.2234 0.5851 0.0415
C33 C -0.12730(14) 0.58818(9) 0.01195(10)
H79 H -0.1473 0.5930 -0.0186
C34 C -0.05286(14) 0.58590(9) 0.02009(9)
H80 H -0.0213 0.5888 -0.0042
C35 C -0.02878(14) 0.56785(9) 0.14640(9)
S6 S -0.20554(3) 0.67675(2) 0.17639(2)
O46 O -0.22804(10) 0.62821(6) 0.17822(7)
O47 O -0.25621(10) 0.71067(6) 0.19199(7)
O48 O -0.01263(9) 0.70260(7) 0.18669(7)
N6 N -0.12754(12) 0.68345(8) 0.20397(8)
C36 C -0.17849(13) 0.69154(9) 0.12134(9)
C37 C -0.10461(13) 0.69832(8) 0.12544(9)
C38 C -0.06689(15) 0.70908(9) 0.08714(10)
H81 H -0.0161 0.7132 0.0896
C39 C -0.10601(16) 0.71365(10) 0.04502(10)
H82 H -0.0815 0.7207 0.0181
C40 C -0.18058(16) 0.70806(10) 0.04154(10)
H83 H -0.2061 0.7121 0.0124
C41 C -0.21847(15) 0.69667(9) 0.07970(9)
H84 H -0.2693 0.6926 0.0774
C42 C -0.07647(14) 0.69470(9) 0.17462(10)
S7 S 0.06456(3) 0.81955(2) 0.09060(2)
O49 O 0.10504(9) 0.86072(6) 0.07816(6)
O50 O 0.09382(9) 0.77551(6) 0.07580(6)
O51 O -0.04392(9) 0.81967(6) 0.19126(6)
N7 N 0.05074(11) 0.81870(8) 0.14489(7)
C43 C -0.02666(13) 0.82585(9) 0.07025(9)
C44 C -0.06729(13) 0.82569(9) 0.10835(9)
C45 C -0.14136(14) 0.83039(9) 0.10300(9)
H85 H -0.1702 0.8302 0.1289
C46 C -0.17227(14) 0.83537(9) 0.05820(9)
H86 H -0.2231 0.8385 0.0536
C47 C -0.13039(15) 0.83579(10) 0.02036(10)
H87 H -0.1528 0.8396 -0.0097
C48 C -0.05584(14) 0.83066(9) 0.02581(9)
H88 H -0.0266 0.8305 0.0001
C49 C -0.02011(13) 0.82098(9) 0.15225(9)
S8 S -0.23209(3) 0.94637(2) 0.17097(2)
O52 O -0.27689(9) 0.90537(6) 0.16987(6)
O53 O -0.26970(10) 0.99008(6) 0.18013(6)
O54 O -0.03962(9) 0.93915(6) 0.20325(6)
N8 N -0.16246(11) 0.94035(7) 0.20662(7)
C50 C -0.18578(13) 0.95245(9) 0.12003(9)
C51 C -0.11252(13) 0.94880(8) 0.13316(9)
C52 C -0.06142(14) 0.95294(9) 0.10128(9)
H89 H -0.0116 0.9499 0.1101
C53 C -0.08459(14) 0.96166(9) 0.05566(9)
H90 H -0.0503 0.9649 0.0330
C54 C -0.15792(15) 0.96575(9) 0.04297(9)
H91 H -0.1726 0.9722 0.0117
C55 C -0.21019(14) 0.96070(9) 0.07488(9)
H92 H -0.2602 0.9628 0.0660
C56 C -0.10060(13) 0.94203(8) 0.18404(9)
S9 S 0.23195(3) 1.06758(2) 0.32363(2)
O55 O 0.27055(9) 1.02306(6) 0.32270(6)
O56 O 0.27634(10) 1.10728(6) 0.31289(7)
O57 O 0.03781(9) 1.06440(6) 0.29897(6)
N9 N 0.15933(11) 1.06502(7) 0.29078(7)
C57 C 0.19142(13) 1.07506(9) 0.37649(9)
C58 C 0.11760(14) 1.07361(8) 0.36642(9)
C59 C 0.07028(15) 1.07843(9) 0.40088(9)
H93 H 0.0196 1.0772 0.3942
C60 C 0.09946(16) 1.08517(9) 0.44576(10)
H94 H 0.0681 1.0889 0.4701
C61 C 0.17391(16) 1.08658(9) 0.45553(10)
H95 H 0.1924 1.0912 0.4864
C62 C 0.22139(15) 1.08138(9) 0.42084(9)
H96 H 0.2721 1.0821 0.4273
C63 C 0.10001(13) 1.06717(8) 0.31608(9)
S10 S -0.05960(3) 1.19245(2) 0.40844(2)
O58 O -0.10046(9) 1.23480(6) 0.41588(6)
O59 O -0.08909(10) 1.15061(6) 0.42867(6)
O60 O 0.04878(9) 1.17779(6) 0.30902(6)
N10 N -0.04653(11) 1.18489(7) 0.35460(7)
C64 C 0.03133(13) 1.20029(8) 0.42797(9)
C65 C 0.07168(13) 1.19643(8) 0.38970(8)
C66 C 0.14606(13) 1.20163(9) 0.39449(9)
H97 H 0.1748 1.1986 0.3687
C67 C 0.17715(14) 1.21146(9) 0.43834(9)
H98 H 0.2278 1.2159 0.4423
C68 C 0.13561(14) 1.21485(9) 0.47635(9)
H99 H 0.1583 1.2211 0.5059
C69 C 0.06124(14) 1.20915(9) 0.47170(9)
H100 H 0.0324 1.2113 0.4975
C70 C 0.02488(13) 1.18556(8) 0.34693(9)
S11 S 0.21812(3) 0.33733(2) 0.33810(2)
O61 O 0.28031(9) 0.30729(6) 0.33704(6)
O62 O 0.23025(9) 0.38583(6) 0.32450(6)
O63 O 0.03250(9) 0.29661(6) 0.32190(6)
N11 N 0.14941(11) 0.31582(7) 0.30891(7)
C71 C 0.18195(13) 0.33598(8) 0.39293(9)
C72 C 0.11083(13) 0.32216(8) 0.38561(8)
C73 C 0.06602(13) 0.32085(8) 0.42191(9)
H101 H 0.0168 0.3120 0.4173
C74 C 0.09593(14) 0.33308(9) 0.46535(9)
H102 H 0.0663 0.3333 0.4908
C75 C 0.16861(14) 0.34500(9) 0.47228(9)
H103 H 0.1879 0.3522 0.5025
C76 C 0.21338(14) 0.34651(9) 0.43574(9)
H104 H 0.2630 0.3544 0.4401
C77 C 0.09223(13) 0.31029(8) 0.33611(9)
S12 S -0.06164(3) 0.42724(2) 0.41378(2)
O64 O -0.11048(9) 0.46636(6) 0.41853(6)
O65 O -0.08733(10) 0.38290(6) 0.43129(6)
O66 O 0.06341(9) 0.42676(7) 0.32278(6)
N12 N -0.03871(11) 0.42253(8) 0.36172(7)
C78 C 0.02438(14) 0.44148(9) 0.43952(9)
C79 C 0.07165(14) 0.44144(9) 0.40453(9)
C80 C 0.14352(14) 0.45212(9) 0.41381(9)
H105 H 0.1763 0.4522 0.3900
C81 C 0.16645(14) 0.46280(9) 0.45895(10)
H106 H 0.2157 0.4704 0.4661
C82 C 0.11862(15) 0.46263(9) 0.49391(10)
H107 H 0.1356 0.4701 0.5246
C83 C 0.04629(15) 0.45168(9) 0.48464(9)
H108 H 0.0134 0.4512 0.5084
C84 C 0.03319(13) 0.42941(9) 0.35903(9)
S13 S 0.20399(5) 0.54748(3) 0.32581(3)
O67 O 0.22308(15) 0.49827(13) 0.32188(15)
O68 O 0.25205(17) 0.57872(9) 0.30359(10)
O69 O 0.01516(14) 0.57769(10) 0.33731(11)
N13 N 0.12185(18) 0.55609(12) 0.30750(11)
C85 C 0.1949(2) 0.56370(18) 0.38361(15)
C86 C 0.1231(2) 0.57484(16) 0.38722(12)
C87 C 0.0981(2) 0.58938(14) 0.42898(13)
H109 H 0.0484 0.5956 0.4321
C88 C 0.1487(2) 0.59447(15) 0.46631(14)
H110 H 0.1333 0.6047 0.4952
C89 C 0.2206(2) 0.58478(15) 0.46169(15)
H111 H 0.2539 0.5890 0.4875
C90 C 0.2458(2) 0.56893(13) 0.42022(13)
H112 H 0.2953 0.5621 0.4172
C91 C 0.0810(2) 0.56926(14) 0.34189(14)
S14 S -0.03085(3) 0.70048(2) 0.41233(2)
O70 O -0.07255(10) 0.74131(7) 0.42391(6)
O71 O -0.06217(10) 0.65612(7) 0.42445(6)
O72 O 0.08551(10) 0.70356(7) 0.31583(6)
N14 N -0.01295(11) 0.70001(8) 0.35880(7)
C92 C 0.05880(13) 0.70596(8) 0.43569(9)
C93 C 0.10242(13) 0.70642(8) 0.39877(9)
C94 C 0.17626(14) 0.71080(9) 0.40663(9)
H113 H 0.2072 0.7110 0.3818
C95 C 0.20376(14) 0.71491(9) 0.45209(9)
H114 H 0.2544 0.7177 0.4582
C96 C 0.15923(14) 0.71503(9) 0.48875(9)
H115 H 0.1797 0.7185 0.5194
C97 C 0.08498(14) 0.71009(9) 0.48103(9)
H116 H 0.0539 0.7096 0.5057
C98 C 0.05873(13) 0.70296(8) 0.35368(9)
S15 S 0.24763(3) 0.82529(2) 0.33163(2)
O73 O 0.29140(9) 0.78346(6) 0.33200(6)
O74 O 0.28690(9) 0.86849(6) 0.32375(6)
O75 O 0.05511(9) 0.81904(6) 0.29939(6)
N15 N 0.17791(11) 0.82123(7) 0.29613(7)
C99 C 0.20176(13) 0.83059(9) 0.38262(9)
C100 C 0.12886(13) 0.82760(8) 0.36984(9)
C101 C 0.07847(14) 0.83080(9) 0.40288(9)
H117 H 0.0283 0.8286 0.3946
C102 C 0.10345(15) 0.83738(9) 0.44861(9)
H118 H 0.0699 0.8397 0.4719
C103 C 0.17718(16) 0.84059(9) 0.46070(9)
H119 H 0.1929 0.8453 0.4921
C104 C 0.22810(15) 0.83708(9) 0.42772(9)
H120 H 0.2783 0.8390 0.4358
C105 C 0.11616(13) 0.82213(8) 0.31899(9)
S16 S -0.05785(3) 0.94305(2) 0.41403(2)
O76 O -0.09774(9) 0.98458(6) 0.42632(6)
O77 O -0.08440(10) 0.89952(6) 0.43260(6)
O78 O 0.03901(9) 0.94132(6) 0.30844(6)
N16 N -0.05069(11) 0.93936(7) 0.35912(7)
C106 C 0.03452(13) 0.95086(8) 0.42998(9)
C107 C 0.07037(14) 0.94933(9) 0.38969(9)
C108 C 0.14455(14) 0.95410(9) 0.39128(10)
H121 H 0.1699 0.9531 0.3639
C109 C 0.18098(14) 0.96034(9) 0.43415(10)
H122 H 0.2320 0.9630 0.4361
C110 C 0.14368(14) 0.96278(9) 0.47421(10)
H123 H 0.1697 0.9681 0.5029
C111 C 0.06925(14) 0.95756(9) 0.47302(9)
H124 H 0.0436 0.9586 0.5003
C112 C 0.01912(14) 0.94288(8) 0.34820(9)
Na15? Na -0.09289(7) 0.61984(5) 0.34971(5)
Na16? Na -0.10729(17) 0.51348(11) 0.35022(12)
Na17? Na -0.14185(18) 0.58110(14) 0.23089(12)
Na18? Na 0.10345(8) 0.56509(5) 0.21839(5)
Na19? Na 0.03600(18) 0.56685(12) 0.24668(12)
O79? O -0.0527(4) 0.6120(2) 0.2845(3)
H125? H -0.051(5) 0.606(3) 0.307(3)
O80? O 0.0989(3) 0.4960(2) 0.2192(2)
O81? O 0.0926(4) 0.6335(2) 0.2129(3)
O82? O -0.1474(5) 0.5832(3) 0.3793(3)
S17? S 0.17882(11) 0.54564(8) 0.32319(8)
O83? O 0.2097(3) 0.4990(3) 0.3205(3)
O84? O 0.2075(4) 0.5790(2) 0.2908(2)
O85? O 0.0021(3) 0.5522(2) 0.3678(2)
N17? N 0.0931(4) 0.5422(3) 0.3201(2)
C113? C 0.1898(5) 0.5681(4) 0.3795(3)
C114? C 0.1224(5) 0.5700(4) 0.3970(3)
C115? C 0.1170(4) 0.5865(3) 0.4417(3)
H126? H 0.0713 0.5904 0.4542
C116? C 0.1794(5) 0.5970(3) 0.4672(3)
H127? H 0.1766 0.6073 0.4981
C117? C 0.2451(5) 0.5931(3) 0.4498(3)
H128? H 0.2868 0.6008 0.4689
C118? C 0.2530(4) 0.5783(3) 0.4049(3)
H129? H 0.2988 0.5755 0.3925
C119? C 0.0668(4) 0.5536(3) 0.3614(3)
loop_
_geom_bond_atom_site_label_1
_geom_bond_atom_site_label_2
_geom_bond_site_symmetry_1
_geom_bond_site_symmetry_2
O1 H1 1_555 1_555
H2 O1 1_555 1_555
O2 H3 1_555 1_555
H4 O2 1_555 1_555
O3 H5 1_555 1_555
H6 O3 1_555 1_555
O4 H7 1_555 1_555
H8 O4 1_555 1_555
O5 H9 1_555 1_555
H10 O5 1_555 1_555
O6 H11 1_555 1_555
H12 O6 1_555 1_555
O7 H13 1_555 1_555
H14 O7 1_555 1_555
O8 H15 1_555 1_555
H16 O8 1_555 1_555
O9 H17 1_555 1_555
H18 O9 1_555 1_555
O10 H19 1_555 1_555
H20 O10 1_555 1_555
O11 H21 1_555 1_555
H22 O11 1_555 1_555
O12 H23 1_555 1_555
H24 O12 1_555 1_555
O13 H25 1_555 1_555
H26 O13 1_555 1_555
O14 H27 1_555 1_555
H28 O14 1_555 1_555
O15 H29 1_555 1_555
H30 O15 1_555 1_555
O16 H31 1_555 1_555
H32 O16 1_555 1_555
O17 H33 1_555 1_555
H34 O17 1_555 1_555
O18 H35 1_555 1_555
H36 O18 1_555 1_555
O19 H37 1_555 1_555
H38 O19 1_555 1_555
O20 H39 1_555 1_555
H40 O20 1_555 1_555
O21 H41 1_555 1_555
H42 O21 1_555 1_555
O22 H43 1_555 1_555
H44 O22 1_555 1_555
O23 H45 1_555 1_555
H46 O23 1_555 1_555
O24 H47 1_555 1_555
H48 O24 1_555 1_555
O25 H49 1_555 1_555
H50 O25 1_555 1_555
O26 H51 1_555 1_555
H52 O26 1_555 1_555
O27 H53 1_555 1_555
H54 O27 1_555 1_555
O28 H55 1_555 1_555
H56 O28 1_555 1_555
O29 H57 1_555 1_555
H58 O29 1_555 1_555
O30 H59 1_555 1_555
H60 O30 1_555 1_555
S1 O31 1_555 1_555
O32 S1 1_555 1_555
O33 C7 1_555 1_555
N1 S1 1_555 1_555
C1 S1 1_555 1_555
C2 C1 1_555 1_555
C3 C2 1_555 1_555
H61 C3 1_555 1_555
C4 C3 1_555 1_555
H62 C4 1_555 1_555
C5 C4 1_555 1_555
H63 C5 1_555 1_555
C6 C1 1_555 1_555
H64 C6 1_555 1_555
C7 N1 1_555 1_555
S2 O34 1_555 1_555
O35 S2 1_555 1_555
O36 C14 1_555 1_555
N2 S2 1_555 1_555
C8 S2 1_555 1_555
C9 C8 1_555 1_555
C10 C9 1_555 1_555
H65 C10 1_555 1_555
C11 C10 1_555 1_555
H66 C11 1_555 1_555
C12 C11 1_555 1_555
H67 C12 1_555 1_555
C13 C8 1_555 1_555
H68 C13 1_555 1_555
C14 N2 1_555 1_555
S3 O37 1_555 1_555
O38 S3 1_555 1_555
O39 C21 1_555 1_555
N3 S3 1_555 1_555
C15 S3 1_555 1_555
C16 C15 1_555 1_555
C17 C16 1_555 1_555
H69 C17 1_555 1_555
C18 C17 1_555 1_555
H70 C18 1_555 1_555
C19 C18 1_555 1_555
H71 C19 1_555 1_555
C20 C15 1_555 1_555
H72 C20 1_555 1_555
C21 N3 1_555 1_555
S4 O40 1_555 1_555
O41 S4 1_555 1_555
O42 C28 1_555 1_555
N4 S4 1_555 1_555
C22 S4 1_555 1_555
C23 C22 1_555 1_555
C24 C23 1_555 1_555
H73 C24 1_555 1_555
C25 C24 1_555 1_555
H74 C25 1_555 1_555
C26 C25 1_555 1_555
H75 C26 1_555 1_555
C27 C22 1_555 1_555
H76 C27 1_555 1_555
C28 N4 1_555 1_555
S5 O43 1_555 1_555
O44 S5 1_555 1_555
O45 C35 1_555 1_555
N5 S5 1_555 1_555
C29 S5 1_555 1_555
C30 C29 1_555 1_555
C31 C30 1_555 1_555
H77 C31 1_555 1_555
C32 C31 1_555 1_555
H78 C32 1_555 1_555
C33 C32 1_555 1_555
H79 C33 1_555 1_555
C34 C29 1_555 1_555
H80 C34 1_555 1_555
C35 N5 1_555 1_555
S6 O46 1_555 1_555
O47 S6 1_555 1_555
O48 C42 1_555 1_555
N6 S6 1_555 1_555
C36 S6 1_555 1_555
C37 C36 1_555 1_555
C38 C37 1_555 1_555
H81 C38 1_555 1_555
C39 C38 1_555 1_555
H82 C39 1_555 1_555
C40 C39 1_555 1_555
H83 C40 1_555 1_555
C41 C36 1_555 1_555
H84 C41 1_555 1_555
C42 N6 1_555 1_555
S7 O49 1_555 1_555
O50 S7 1_555 1_555
O51 C49 1_555 1_555
N7 S7 1_555 1_555
C43 S7 1_555 1_555
C44 C43 1_555 1_555
C45 C44 1_555 1_555
H85 C45 1_555 1_555
C46 C45 1_555 1_555
H86 C46 1_555 1_555
C47 C46 1_555 1_555
H87 C47 1_555 1_555
C48 C43 1_555 1_555
H88 C48 1_555 1_555
C49 N7 1_555 1_555
S8 O52 1_555 1_555
O53 S8 1_555 1_555
O54 C56 1_555 1_555
N8 S8 1_555 1_555
C50 S8 1_555 1_555
C51 C50 1_555 1_555
C52 C51 1_555 1_555
H89 C52 1_555 1_555
C53 C52 1_555 1_555
H90 C53 1_555 1_555
C54 C53 1_555 1_555
H91 C54 1_555 1_555
C55 C50 1_555 1_555
H92 C55 1_555 1_555
C56 N8 1_555 1_555
S9 O55 1_555 1_555
O56 S9 1_555 1_555
O57 C63 1_555 1_555
N9 S9 1_555 1_555
C57 S9 1_555 1_555
C58 C57 1_555 1_555
C59 C58 1_555 1_555
H93 C59 1_555 1_555
C60 C59 1_555 1_555
H94 C60 1_555 1_555
C61 C60 1_555 1_555
H95 C61 1_555 1_555
C62 C57 1_555 1_555
H96 C62 1_555 1_555
C63 N9 1_555 1_555
S10 O58 1_555 1_555
O59 S10 1_555 1_555
O60 C70 1_555 1_555
N10 S10 1_555 1_555
C64 S10 1_555 1_555
C65 C64 1_555 1_555
C66 C65 1_555 1_555
H97 C66 1_555 1_555
C67 C66 1_555 1_555
H98 C67 1_555 1_555
C68 C67 1_555 1_555
H99 C68 1_555 1_555
C69 C64 1_555 1_555
H100 C69 1_555 1_555
C70 N10 1_555 1_555
S11 O61 1_555 1_555
O62 S11 1_555 1_555
O63 C77 1_555 1_555
N11 S11 1_555 1_555
C71 S11 1_555 1_555
C72 C71 1_555 1_555
C73 C72 1_555 1_555
H101 C73 1_555 1_555
C74 C73 1_555 1_555
H102 C74 1_555 1_555
C75 C74 1_555 1_555
H103 C75 1_555 1_555
C76 C71 1_555 1_555
H104 C76 1_555 1_555
C77 N11 1_555 1_555
S12 O64 1_555 1_555
O65 S12 1_555 1_555
O66 C84 1_555 1_555
N12 S12 1_555 1_555
C78 S12 1_555 1_555
C79 C78 1_555 1_555
C80 C79 1_555 1_555
H105 C80 1_555 1_555
C81 C80 1_555 1_555
H106 C81 1_555 1_555
C82 C81 1_555 1_555
H107 C82 1_555 1_555
C83 C78 1_555 1_555
H108 C83 1_555 1_555
C84 N12 1_555 1_555
S13 O67 1_555 1_555
O68 S13 1_555 1_555
O69 C91 1_555 1_555
N13 S13 1_555 1_555
C85 S13 1_555 1_555
C86 C85 1_555 1_555
C87 C86 1_555 1_555
H109 C87 1_555 1_555
C88 C87 1_555 1_555
H110 C88 1_555 1_555
C89 C88 1_555 1_555
H111 C89 1_555 1_555
C90 C85 1_555 1_555
H112 C90 1_555 1_555
C91 N13 1_555 1_555
S14 O70 1_555 1_555
O71 S14 1_555 1_555
O72 C98 1_555 1_555
N14 S14 1_555 1_555
C92 S14 1_555 1_555
C93 C92 1_555 1_555
C94 C93 1_555 1_555
H113 C94 1_555 1_555
C95 C94 1_555 1_555
H114 C95 1_555 1_555
C96 C95 1_555 1_555
H115 C96 1_555 1_555
C97 C92 1_555 1_555
H116 C97 1_555 1_555
C98 N14 1_555 1_555
S15 O73 1_555 1_555
O74 S15 1_555 1_555
O75 C105 1_555 1_555
N15 S15 1_555 1_555
C99 S15 1_555 1_555
C100 C99 1_555 1_555
C101 C100 1_555 1_555
H117 C101 1_555 1_555
C102 C101 1_555 1_555
H118 C102 1_555 1_555
C103 C102 1_555 1_555
H119 C103 1_555 1_555
C104 C99 1_555 1_555
H120 C104 1_555 1_555
C105 N15 1_555 1_555
S16 O76 1_555 1_555
O77 S16 1_555 1_555
O78 C112 1_555 1_555
N16 S16 1_555 1_555
C106 S16 1_555 1_555
C107 C106 1_555 1_555
C108 C107 1_555 1_555
H121 C108 1_555 1_555
C109 C108 1_555 1_555
H122 C109 1_555 1_555
C110 C109 1_555 1_555
H123 C110 1_555 1_555
C111 C106 1_555 1_555
H124 C111 1_555 1_555
C112 N16 1_555 1_555
C2 C7 1_555 1_555
C5 C6 1_555 1_555
C9 C14 1_555 1_555
C12 C13 1_555 1_555
C16 C21 1_555 1_555
C19 C20 1_555 1_555
C23 C28 1_555 1_555
C26 C27 1_555 1_555
C30 C35 1_555 1_555
C33 C34 1_555 1_555
C37 C42 1_555 1_555
C40 C41 1_555 1_555
C44 C49 1_555 1_555
C47 C48 1_555 1_555
C51 C56 1_555 1_555
C54 C55 1_555 1_555
C58 C63 1_555 1_555
C61 C62 1_555 1_555
C65 C70 1_555 1_555
C68 C69 1_555 1_555
C72 C77 1_555 1_555
C75 C76 1_555 1_555
C79 C84 1_555 1_555
C82 C83 1_555 1_555
C86 C91 1_555 1_555
C89 C90 1_555 1_555
C93 C98 1_555 1_555
C96 C97 1_555 1_555
C100 C105 1_555 1_555
C103 C104 1_555 1_555
C107 C112 1_555 1_555
C110 C111 1_555 1_555

#END
