
#######################################################################
#
#                 Cambridge Crystallographic Data Centre
#                                CCDC 
#
#######################################################################
#
# If this CIF has been generated from an entry in the Cambridge 
# Structural Database, then it will include bibliographic, chemical, 
# crystal, experimental, refinement or atomic coordinate data resulting 
# from the CCDC's data processing and validation procedures.
#
#######################################################################

data_LANFAJ
_chemical_name_common            '(E)-Isopentyl 3-(3,4-dihydroxyphenyl)acrylate'
_chemical_formula_moiety         'C14 H18 O4'
_chemical_name_systematic        
'(E)-3-Methylbutyl 3-(3,4-dihydroxyphenyl)acrylate'
_symmetry_cell_setting           triclinic
_symmetry_space_group_name_H-M   'P -1'
_symmetry_Int_Tables_number      2
_space_group_name_Hall           '-P 1'
loop_
_symmetry_equiv_pos_site_id
_symmetry_equiv_pos_as_xyz
1 x,y,z
2 -x,-y,-z
_cell_length_a                   5.2790(11)
_cell_length_b                   10.244(2)
_cell_length_c                   13.834(3)
_cell_angle_alpha                69.05(3)
_cell_angle_beta                 80.11(3)
_cell_angle_gamma                78.79(3)
_cell_volume                     681.048
_exptl_crystal_colour            colorless
_exptl_crystal_description       block
_cell_formula_units_Z            2
_exptl_crystal_recrystallization_method ethanol
loop_
_atom_site_label
_atom_site_type_symbol
_atom_site_fract_x
_atom_site_fract_y
_atom_site_fract_z
C1 C 0.2966(5) 0.6252(2) 0.56768(18)
H1 H 0.1700 0.6372 0.5248
O1 O -0.0024(4) 0.16077(18) 0.62733(15)
O2 O 0.1887(4) 0.01321(17) 0.76260(13)
C2 C 0.4057(5) 0.7386(2) 0.55959(18)
O3 O 0.3407(3) 0.87217(15) 0.49143(12)
H2 H 0.2404 0.8698 0.4531
C3 C 0.5921(5) 0.7242(2) 0.62374(18)
O4 O 0.7014(4) 0.83462(17) 0.62142(14)
H3 H 0.6432 0.9064 0.5765
C4 C 0.6631(5) 0.5938(2) 0.6955(2)
H4 H 0.7863 0.5837 0.7393
C5 C 0.5533(5) 0.4770(3) 0.70355(19)
H5 H 0.6029 0.3894 0.7523
C6 C 0.3678(5) 0.4917(2) 0.63792(17)
C7 C 0.2509(5) 0.3738(2) 0.63921(18)
H6 H 0.1330 0.3959 0.5909
C8 C 0.2875(5) 0.2395(2) 0.69908(18)
H7 H 0.4077 0.2102 0.7472
C9 C 0.1449(5) 0.1375(2) 0.69123(18)
C10 C 0.0528(7) -0.0973(3) 0.7622(2)
H8 H 0.1149 -0.1228 0.7003
H9 H -0.1322 -0.0639 0.7620
C11 C 0.1015(8) -0.2212(3) 0.8563(2)
H10 H 0.0061 -0.2928 0.8556
H11 H 0.2847 -0.2584 0.8493
C12 C 0.0392(9) -0.2063(4) 0.9575(2)
H12 H 0.1470 -0.1399 0.9599
C13 C 0.1016(11) -0.3421(5) 1.0451(3)
H13 H 0.2824 -0.3785 1.0352
H14 H -0.0021 -0.4098 1.0459
H15 H 0.0644 -0.3247 1.1102
C14 C -0.2487(11) -0.1421(5) 0.9771(4)
H16 H -0.2887 -0.0562 0.9206
H17 H -0.2751 -0.1222 1.0411
H18 H -0.3602 -0.2082 0.9815
loop_
_geom_bond_atom_site_label_1
_geom_bond_atom_site_label_2
_geom_bond_site_symmetry_1
_geom_bond_site_symmetry_2
C1 H1 1_555 1_555
O1 C9 1_555 1_555
O2 C9 1_555 1_555
C2 C1 1_555 1_555
O3 C2 1_555 1_555
H2 O3 1_555 1_555
C3 C2 1_555 1_555
O4 C3 1_555 1_555
H3 O4 1_555 1_555
C4 C3 1_555 1_555
H4 C4 1_555 1_555
C5 C4 1_555 1_555
H5 C5 1_555 1_555
C6 C1 1_555 1_555
C7 C6 1_555 1_555
H6 C7 1_555 1_555
C8 C7 1_555 1_555
H7 C8 1_555 1_555
C9 C8 1_555 1_555
C10 O2 1_555 1_555
H8 C10 1_555 1_555
H9 C10 1_555 1_555
C11 C10 1_555 1_555
H10 C11 1_555 1_555
H11 C11 1_555 1_555
C12 C11 1_555 1_555
H12 C12 1_555 1_555
C13 C12 1_555 1_555
H13 C13 1_555 1_555
H14 C13 1_555 1_555
H15 C13 1_555 1_555
C14 C12 1_555 1_555
H16 C14 1_555 1_555
H17 C14 1_555 1_555
H18 C14 1_555 1_555
C5 C6 1_555 1_555

#END
