
#######################################################################
#
#                 Cambridge Crystallographic Data Centre
#                                CCDC 
#
#######################################################################
#
# If this CIF has been generated from an entry in the Cambridge 
# Structural Database, then it will include bibliographic, chemical, 
# crystal, experimental, refinement or atomic coordinate data resulting 
# from the CCDC's data processing and validation procedures.
#
#######################################################################

data_LANKES
_chemical_formula_moiety         'C21 H19 F2 N1 O2'
_chemical_name_systematic        
'Ethyl 2-amino-4,6-bis(4-fluorophenyl)cyclohexa-1,3-diene-1-carboxylate'
_symmetry_cell_setting           orthorhombic
_symmetry_space_group_name_H-M   'P b c n'
_symmetry_Int_Tables_number      60
_space_group_name_Hall           '-P 2n 2ab'
loop_
_symmetry_equiv_pos_site_id
_symmetry_equiv_pos_as_xyz
1 x,y,z
2 1/2-x,1/2-y,1/2+z
3 -x,y,1/2-z
4 1/2+x,1/2-y,-z
5 -x,-y,-z
6 1/2+x,1/2+y,1/2-z
7 x,-y,1/2+z
8 1/2-x,1/2+y,z
_cell_length_a                   18.0199(5)
_cell_length_b                   9.6391(2)
_cell_length_c                   21.0754(7)
_cell_angle_alpha                90
_cell_angle_beta                 90
_cell_angle_gamma                90
_cell_volume                     3660.7
_exptl_crystal_colour            yellow
_exptl_crystal_description       block
_chemical_melting_point          '428 K'
_cell_formula_units_Z            8
_exptl_crystal_recrystallization_method dimethylformamide
loop_
_atom_site_label
_atom_site_type_symbol
_atom_site_fract_x
_atom_site_fract_y
_atom_site_fract_z
F1 F 0.28820(7) 0.39132(16) 0.58085(8)
F2 F 0.66890(12) 0.94956(19) 0.80642(12)
O1 O 0.57361(8) 0.00028(13) 0.57519(7)
O2 O 0.66652(8) 0.05261(14) 0.50837(8)
N1 N 0.72288(11) 0.3120(2) 0.51875(9)
H1 H 0.7509(15) 0.380(3) 0.5083(10)
H2 H 0.7197(12) 0.239(2) 0.4942(11)
C1 C 0.49783(15) -0.1988(2) 0.57203(16)
H3 H 0.4854 -0.2832 0.5484
H4 H 0.4545 -0.1375 0.5734
H5 H 0.5124 -0.2235 0.6154
C2 C 0.56045(13) -0.12602(19) 0.53997(12)
H6 H 0.6054 -0.1850 0.5401
H7 H 0.5473 -0.1043 0.4954
C3 C 0.62737(10) 0.08577(18) 0.55369(10)
C4 C 0.63143(11) 0.21328(19) 0.58891(10)
C5 C 0.67799(11) 0.31852(19) 0.56986(10)
C6 C 0.68054(11) 0.44920(19) 0.60540(10)
H8 H 0.7040 0.5274 0.5867
C7 C 0.65069(11) 0.4618(2) 0.66361(10)
C8 C 0.61518(13) 0.3357(2) 0.69326(10)
H9 H 0.5763 0.3668 0.7232
H10 H 0.6532 0.2852 0.7181
C9 C 0.58026(11) 0.23520(19) 0.64523(10)
H11 H 0.5759 0.1435 0.6671
C10 C 0.50212(11) 0.27746(17) 0.62632(9)
C11 C 0.44170(12) 0.2002(2) 0.64594(11)
H12 H 0.4499 0.1195 0.6709
C12 C 0.37006(13) 0.2363(2) 0.63060(12)
H13 H 0.3293 0.1813 0.6443
C13 C 0.35890(12) 0.3530(2) 0.59515(11)
C14 C 0.41611(13) 0.4322(2) 0.57387(12)
H14 H 0.4070 0.5126 0.5490
C15 C 0.48779(12) 0.3937(2) 0.58902(11)
H15 H 0.5281 0.4476 0.5737
C16 C 0.65610(11) 0.5913(2) 0.70079(11)
C17 C 0.66870(14) 0.7180(2) 0.67350(13)
H16 H 0.6753 0.7226 0.6288
C18 C 0.67220(15) 0.8387(3) 0.70790(17)
H17 H 0.6790 0.9256 0.6874
C19 C 0.66577(16) 0.8309(3) 0.77206(18)
C20 C 0.6589(2) 0.7078(3) 0.80307(16)
H18 H 0.6580 0.7039 0.8481
C21 C 0.65327(18) 0.5888(3) 0.76701(13)
H19 H 0.6473 0.5023 0.7879
loop_
_geom_bond_atom_site_label_1
_geom_bond_atom_site_label_2
_geom_bond_site_symmetry_1
_geom_bond_site_symmetry_2
F1 C13 1_555 1_555
F2 C19 1_555 1_555
O1 C2 1_555 1_555
O2 C3 1_555 1_555
N1 H1 1_555 1_555
H2 N1 1_555 1_555
C1 H3 1_555 1_555
H4 C1 1_555 1_555
H5 C1 1_555 1_555
C2 C1 1_555 1_555
H6 C2 1_555 1_555
H7 C2 1_555 1_555
C3 O1 1_555 1_555
C4 C3 1_555 1_555
C5 N1 1_555 1_555
C6 C5 1_555 1_555
H8 C6 1_555 1_555
C7 C6 1_555 1_555
C8 C7 1_555 1_555
H9 C8 1_555 1_555
H10 C8 1_555 1_555
C9 C4 1_555 1_555
H11 C9 1_555 1_555
C10 C9 1_555 1_555
C11 C10 1_555 1_555
H12 C11 1_555 1_555
C12 C11 1_555 1_555
H13 C12 1_555 1_555
C13 C12 1_555 1_555
C14 C13 1_555 1_555
H14 C14 1_555 1_555
C15 C10 1_555 1_555
H15 C15 1_555 1_555
C16 C7 1_555 1_555
C17 C16 1_555 1_555
H16 C17 1_555 1_555
C18 C17 1_555 1_555
H17 C18 1_555 1_555
C19 C18 1_555 1_555
C20 C19 1_555 1_555
H18 C20 1_555 1_555
C21 C16 1_555 1_555
H19 C21 1_555 1_555
C4 C5 1_555 1_555
C8 C9 1_555 1_555
C14 C15 1_555 1_555
C20 C21 1_555 1_555

#END
