
#######################################################################
#
#                 Cambridge Crystallographic Data Centre
#                                CCDC 
#
#######################################################################
#
# If this CIF has been generated from an entry in the Cambridge 
# Structural Database, then it will include bibliographic, chemical, 
# crystal, experimental, refinement or atomic coordinate data resulting 
# from the CCDC's data processing and validation procedures.
#
#######################################################################

data_LANMIX
_chemical_formula_moiety         'C10 H22 N4 S2'
_chemical_name_systematic        N,N'-bis(2-(Dimethylamino)ethyl)dithiooxamide
_symmetry_cell_setting           monoclinic
_symmetry_space_group_name_H-M   'P 21/c'
_symmetry_Int_Tables_number      14
_space_group_name_Hall           '-P 2ybc'
loop_
_symmetry_equiv_pos_site_id
_symmetry_equiv_pos_as_xyz
1 x,y,z
2 -x,1/2+y,1/2-z
3 -x,-y,-z
4 x,1/2-y,1/2+z
_cell_length_a                   9.964(2)
_cell_length_b                   7.2840(16)
_cell_length_c                   11.462(3)
_cell_angle_alpha                90
_cell_angle_beta                 110.917(3)
_cell_angle_gamma                90
_cell_volume                     777.064
_exptl_crystal_colour            orange
_exptl_crystal_description       block
_chemical_melting_point          '365-366 K'
_cell_formula_units_Z            2
_exptl_crystal_recrystallization_method 'petroleum ether'
loop_
_atom_site_label
_atom_site_type_symbol
_atom_site_fract_x
_atom_site_fract_y
_atom_site_fract_z
S1 S 0.34853(6) 0.22246(8) 0.44569(6)
N1 N 0.58653(15) 0.1209(2) 0.41561(13)
H1 H 0.6623 0.0441 0.4400
C1 C 0.48805(17) 0.0890(2) 0.46279(14)
N2 N 0.8349(6) 0.1618(11) 0.3602(6)
C2 C 0.5908(6) 0.2657(7) 0.3278(6)
H3 H 0.6161 0.3817 0.3719
H4 H 0.4965 0.2789 0.2635
C3 C 0.6981(4) 0.2201(5) 0.2691(3)
H5 H 0.6601 0.1228 0.2084
H6 H 0.7134 0.3270 0.2249
C4 C 0.9230(4) 0.0740(6) 0.2986(4)
H7 H 1.0120 0.0343 0.3603
H8 H 0.9424 0.1599 0.2431
H9 H 0.8728 -0.0302 0.2519
C5 C 0.9123(6) 0.3131(7) 0.4366(4)
H10 H 1.0034 0.2704 0.4931
H11 H 0.8574 0.3619 0.4833
H12 H 0.9273 0.4073 0.3840
S1B S 0.65147(6) -0.22246(8) 0.55431(6)
N1B N 0.41347(15) -0.1209(2) 0.58439(13)
H1B H 0.3377 -0.0441 0.5600
C1B C 0.51195(17) -0.0890(2) 0.53721(14)
N2B N 0.1651(6) -0.1618(11) 0.6398(6)
C2B C 0.4092(6) -0.2657(7) 0.6722(6)
H3B H 0.3839 -0.3817 0.6281
H4B H 0.5035 -0.2789 0.7365
C3B C 0.3019(4) -0.2201(5) 0.7309(3)
H5B H 0.3399 -0.1228 0.7916
H6B H 0.2866 -0.3270 0.7751
C4B C 0.0770(4) -0.0740(6) 0.7014(4)
H7B H -0.0120 -0.0343 0.6397
H8B H 0.0576 -0.1599 0.7569
H9B H 0.1272 0.0302 0.7481
C5B C 0.0877(6) -0.3131(7) 0.5634(4)
H10B H -0.0034 -0.2704 0.5069
H11B H 0.1426 -0.3619 0.5167
H12B H 0.0727 -0.4073 0.6160
H2? H 0.6476 0.0323 0.4115
N3? N 0.8247(10) 0.1946(19) 0.3609(11)
C6? C 0.5945(11) 0.3100(13) 0.3685(13)
H13? H 0.5599 0.3980 0.4147
H14? H 0.5338 0.3182 0.2810
C7? C 0.7503(6) 0.3553(8) 0.3838(6)
H15? H 0.7510 0.4520 0.3258
H16? H 0.8009 0.4000 0.4679
C8? C 0.7820(10) 0.1586(13) 0.2265(7)
H17? H 0.6822 0.1255 0.1932
H18? H 0.8387 0.0598 0.2132
H19? H 0.7971 0.2670 0.1851
C9? C 0.9798(7) 0.2200(14) 0.4172(9)
H20? H 1.0277 0.1159 0.3984
H21? H 1.0069 0.2317 0.5060
H22? H 1.0069 0.3291 0.3840
loop_
_geom_bond_atom_site_label_1
_geom_bond_atom_site_label_2
_geom_bond_site_symmetry_1
_geom_bond_site_symmetry_2
S1 C1 1_555 1_555
N1 H1 1_555 1_555
C1 N1 1_555 1_555
N2 C3 1_555 1_555
C2 N1 1_555 1_555
H3 C2 1_555 1_555
H4 C2 1_555 1_555
C3 C2 1_555 1_555
H5 C3 1_555 1_555
H6 C3 1_555 1_555
C4 N2 1_555 1_555
H7 C4 1_555 1_555
H8 C4 1_555 1_555
H9 C4 1_555 1_555
C5 N2 1_555 1_555
H10 C5 1_555 1_555
H11 C5 1_555 1_555
H12 C5 1_555 1_555
S1B C1B 1_555 1_555
N1B H1B 1_555 1_555
C1B C1 1_555 1_555
N2B C3B 1_555 1_555
C2B N1B 1_555 1_555
H3B C2B 1_555 1_555
H4B C2B 1_555 1_555
C3B C2B 1_555 1_555
H5B C3B 1_555 1_555
H6B C3B 1_555 1_555
C4B N2B 1_555 1_555
H7B C4B 1_555 1_555
H8B C4B 1_555 1_555
H9B C4B 1_555 1_555
C5B N2B 1_555 1_555
H10B C5B 1_555 1_555
H11B C5B 1_555 1_555
H12B C5B 1_555 1_555
N1B C1B 1_555 1_555

#END
