
#######################################################################
#
#                 Cambridge Crystallographic Data Centre
#                                CCDC 
#
#######################################################################
#
# If this CIF has been generated from an entry in the Cambridge 
# Structural Database, then it will include bibliographic, chemical, 
# crystal, experimental, refinement or atomic coordinate data resulting 
# from the CCDC's data processing and validation procedures.
#
#######################################################################

data_LANMOD
_chemical_formula_moiety         'C34 H30 O4'
_chemical_name_systematic        
3-(3H-Inden-1-ylmethyl)-2,2'-bis(methoxymethoxy)-1,1'-binaphthalenyl
_symmetry_cell_setting           monoclinic
_symmetry_space_group_name_H-M   'P 21/n'
_symmetry_Int_Tables_number      14
_space_group_name_Hall           '-P 2yn'
loop_
_symmetry_equiv_pos_site_id
_symmetry_equiv_pos_as_xyz
1 x,y,z
2 1/2-x,1/2+y,1/2-z
3 -x,-y,-z
4 1/2+x,1/2-y,1/2+z
_cell_length_a                   16.507(6)
_cell_length_b                   8.361(3)
_cell_length_c                   18.907(7)
_cell_angle_alpha                90
_cell_angle_beta                 100.076(6)
_cell_angle_gamma                90
_cell_volume                     2569.2
_exptl_crystal_colour            colorless
_exptl_crystal_description       block
_cell_formula_units_Z            4
_exptl_crystal_recrystallization_method THF
loop_
_atom_site_label
_atom_site_type_symbol
_atom_site_fract_x
_atom_site_fract_y
_atom_site_fract_z
O1 O 0.55965(9) 0.41332(18) 0.21070(8)
O2 O 0.45683(10) 0.65095(18) 0.27978(8)
O3 O 0.70030(11) 0.4131(3) 0.23789(10)
O4 O 0.51926(13) 0.8994(2) 0.27098(10)
C1 C 0.46171(13) 0.3290(2) 0.28165(11)
C2 C 0.48816(13) 0.3306(2) 0.21658(11)
C3 C 0.44345(14) 0.2570(2) 0.15427(11)
C4 C 0.37138(14) 0.1814(3) 0.16000(12)
H1 H 0.3407 0.1349 0.1192
C5 C 0.34196(13) 0.1713(2) 0.22564(11)
C6 C 0.38747(13) 0.2458(2) 0.28742(11)
C7 C 0.35708(14) 0.2358(3) 0.35254(12)
H2 H 0.3860 0.2850 0.3934
C8 C 0.28654(15) 0.1561(3) 0.35685(13)
H3 H 0.2681 0.1501 0.4005
C9 C 0.24142(15) 0.0830(3) 0.29590(13)
H4 H 0.1929 0.0289 0.2991
C10 C 0.26828(14) 0.0908(3) 0.23219(13)
H5 H 0.2376 0.0421 0.1920
C11 C 0.50683(13) 0.4225(3) 0.34358(11)
C12 C 0.50316(14) 0.5871(3) 0.34077(12)
C13 C 0.54544(16) 0.6823(3) 0.39652(13)
H6 H 0.5421 0.7932 0.3936
C14 C 0.59102(16) 0.6114(3) 0.45458(12)
H7 H 0.6196 0.6753 0.4909
C15 C 0.59651(14) 0.4442(3) 0.46174(12)
C16 C 0.55367(13) 0.3477(3) 0.40547(11)
C17 C 0.56042(15) 0.1796(3) 0.41360(13)
H8 H 0.5340 0.1133 0.3773
C18 C 0.60511(18) 0.1138(3) 0.47388(14)
H9 H 0.6079 0.0032 0.4785
C19 C 0.64704(18) 0.2099(3) 0.52916(14)
H10 H 0.6773 0.1633 0.5701
C20 C 0.64315(16) 0.3705(3) 0.52256(13)
H11 H 0.6719 0.4339 0.5589
C21 C 0.63213(15) 0.3175(3) 0.22952(15)
H12 H 0.6302 0.2605 0.2739
H13 H 0.6348 0.2393 0.1921
C22 C 0.71024(18) 0.5091(4) 0.30078(17)
H14 H 0.6704 0.5939 0.2942
H15 H 0.7646 0.5539 0.3096
H16 H 0.7024 0.4445 0.3410
C23 C 0.47392(16) 0.2627(3) 0.08295(12)
H17 H 0.5221 0.3309 0.0879
H18 H 0.4903 0.1560 0.0711
C24 C 0.41029(15) 0.3242(3) 0.02259(12)
C25 C 0.36990(18) 0.2436(3) -0.03367(13)
H19 H 0.3779 0.1357 -0.0421
C26 C 0.31010(19) 0.3482(3) -0.08152(13)
H20 H 0.3231 0.3538 -0.1295
H21 H 0.2541 0.3102 -0.0844
C27 C 0.32211(16) 0.5066(3) -0.04447(13)
C28 C 0.38243(15) 0.4900(3) 0.01720(12)
C29 C 0.40686(17) 0.6213(3) 0.06004(14)
H22 H 0.4469 0.6112 0.1010
C30 C 0.3707(2) 0.7682(3) 0.04078(17)
H23 H 0.3872 0.8578 0.0688
C31 C 0.3104(2) 0.7830(4) -0.01953(17)
H24 H 0.2863 0.8821 -0.0314
C32 C 0.28569(18) 0.6522(4) -0.06239(15)
H25 H 0.2449 0.6624 -0.1028
C33 C 0.44710(18) 0.8188(3) 0.27426(15)
H26 H 0.4073 0.8433 0.2315
H27 H 0.4250 0.8572 0.3154
C34 C 0.5524(2) 0.8638(4) 0.20855(18)
H28 H 0.5597 0.7503 0.2052
H29 H 0.6046 0.9162 0.2113
H30 H 0.5154 0.9008 0.1669
loop_
_geom_bond_atom_site_label_1
_geom_bond_atom_site_label_2
_geom_bond_site_symmetry_1
_geom_bond_site_symmetry_2
O1 C2 1_555 1_555
O2 C12 1_555 1_555
O3 C21 1_555 1_555
O4 C33 1_555 1_555
C1 C2 1_555 1_555
C2 C3 1_555 1_555
C3 C4 1_555 1_555
C4 H1 1_555 1_555
C5 C4 1_555 1_555
C6 C1 1_555 1_555
C7 C6 1_555 1_555
H2 C7 1_555 1_555
C8 C7 1_555 1_555
H3 C8 1_555 1_555
C9 C8 1_555 1_555
H4 C9 1_555 1_555
C10 C5 1_555 1_555
H5 C10 1_555 1_555
C11 C1 1_555 1_555
C12 C11 1_555 1_555
C13 C12 1_555 1_555
H6 C13 1_555 1_555
C14 C13 1_555 1_555
H7 C14 1_555 1_555
C15 C14 1_555 1_555
C16 C11 1_555 1_555
C17 C16 1_555 1_555
H8 C17 1_555 1_555
C18 C17 1_555 1_555
H9 C18 1_555 1_555
C19 C18 1_555 1_555
H10 C19 1_555 1_555
C20 C15 1_555 1_555
H11 C20 1_555 1_555
C21 O1 1_555 1_555
H12 C21 1_555 1_555
H13 C21 1_555 1_555
C22 O3 1_555 1_555
H14 C22 1_555 1_555
H15 C22 1_555 1_555
H16 C22 1_555 1_555
C23 C3 1_555 1_555
H17 C23 1_555 1_555
H18 C23 1_555 1_555
C24 C23 1_555 1_555
C25 C24 1_555 1_555
H19 C25 1_555 1_555
C26 C25 1_555 1_555
H20 C26 1_555 1_555
H21 C26 1_555 1_555
C27 C26 1_555 1_555
C28 C24 1_555 1_555
C29 C28 1_555 1_555
H22 C29 1_555 1_555
C30 C29 1_555 1_555
H23 C30 1_555 1_555
C31 C30 1_555 1_555
H24 C31 1_555 1_555
C32 C27 1_555 1_555
H25 C32 1_555 1_555
C33 O2 1_555 1_555
H26 C33 1_555 1_555
H27 C33 1_555 1_555
C34 O4 1_555 1_555
H28 C34 1_555 1_555
H29 C34 1_555 1_555
H30 C34 1_555 1_555
C5 C6 1_555 1_555
C9 C10 1_555 1_555
C15 C16 1_555 1_555
C19 C20 1_555 1_555
C27 C28 1_555 1_555
C31 C32 1_555 1_555

#END
