
#######################################################################
#
#                 Cambridge Crystallographic Data Centre
#                                CCDC 
#
#######################################################################
#
# If this CIF has been generated from an entry in the Cambridge 
# Structural Database, then it will include bibliographic, chemical, 
# crystal, experimental, refinement or atomic coordinate data resulting 
# from the CCDC's data processing and validation procedures.
#
#######################################################################

data_LANNAR
_chemical_formula_moiety         'C28 H28 Br2 N2 O2'
_chemical_name_systematic        
(E)-1-(4-(bis(4-Bromophenyl)methyl)piperazin-1-yl)-3-(4-ethoxyphenyl)prop-2-en-1-one
_symmetry_cell_setting           triclinic
_symmetry_space_group_name_H-M   'P -1'
_symmetry_Int_Tables_number      2
_space_group_name_Hall           '-P 1'
loop_
_symmetry_equiv_pos_site_id
_symmetry_equiv_pos_as_xyz
1 x,y,z
2 -x,-y,-z
_cell_length_a                   10.423(2)
_cell_length_b                   10.903(2)
_cell_length_c                   12.824(3)
_cell_angle_alpha                74.29(3)
_cell_angle_beta                 73.56(3)
_cell_angle_gamma                71.59(3)
_cell_volume                     1299.62
_exptl_crystal_colour            colorless
_exptl_crystal_description       block
_cell_formula_units_Z            2
_exptl_crystal_recrystallization_method ethanol
loop_
_atom_site_label
_atom_site_type_symbol
_atom_site_fract_x
_atom_site_fract_y
_atom_site_fract_z
Br1 Br -0.31209(9) 0.97529(9) 0.41018(8)
N1 N 0.4018(6) 0.7583(6) 0.2995(4)
O1 O 0.8264(5) 0.5375(5) 0.4350(4)
C1 C 0.3172(7) 0.8540(7) 0.2261(5)
H1 H 0.3478 0.9354 0.2026
Br2 Br 0.33465(8) 0.64618(9) -0.18076(7)
O2 O 0.8295(5) 0.7395(5) 1.0157(4)
N2 N 0.6065(6) 0.6446(5) 0.4291(4)
C2 C 0.1658(7) 0.8848(7) 0.2841(5)
C3 C 0.1050(7) 0.7871(7) 0.3459(6)
H2 H 0.1594 0.7011 0.3601
C4 C -0.0386(8) 0.8139(8) 0.3888(6)
H3 H -0.0797 0.7472 0.4321
C5 C -0.1149(7) 0.9390(8) 0.3653(6)
C6 C -0.0569(8) 1.0417(8) 0.3059(7)
H4 H -0.1109 1.1281 0.2927
C7 C 0.0832(7) 1.0110(7) 0.2674(6)
H5 H 0.1246 1.0789 0.2280
C8 C 0.3295(6) 0.8018(7) 0.1241(6)
C9 C 0.3366(7) 0.6702(7) 0.1330(6)
H6 H 0.3403 0.6124 0.2010
C10 C 0.3382(7) 0.6244(7) 0.0428(6)
H7 H 0.3439 0.5359 0.0492
C11 C 0.3315(7) 0.7093(8) -0.0554(6)
C12 C 0.3232(7) 0.8403(8) -0.0682(6)
H8 H 0.3177 0.8977 -0.1362
C13 C 0.3234(7) 0.8846(7) 0.0228(6)
H9 H 0.3193 0.9729 0.0153
C14 C 0.5494(7) 0.7223(7) 0.2480(6)
H10 H 0.5864 0.7983 0.2320
H11 H 0.5613 0.6967 0.1784
C15 C 0.6267(7) 0.6126(7) 0.3213(5)
H12 H 0.5958 0.5342 0.3315
H13 H 0.7246 0.5936 0.2867
C16 C 0.4626(7) 0.6980(8) 0.4790(6)
H14 H 0.4580 0.7315 0.5431
H15 H 0.4153 0.6281 0.5043
C17 C 0.3915(7) 0.8055(7) 0.3996(6)
H16 H 0.2948 0.8364 0.4344
H17 H 0.4334 0.8788 0.3791
C18 C 0.7144(8) 0.5993(7) 0.4799(6)
C19 C 0.6976(7) 0.6322(7) 0.5881(6)
H18 H 0.6105 0.6753 0.6236
C20 C 0.8030(7) 0.6019(7) 0.6349(5)
H19 H 0.8859 0.5529 0.5984
C21 C 0.8080(7) 0.6342(7) 0.7358(5)
C22 C 0.9325(7) 0.6010(7) 0.7672(6)
H20 H 1.0115 0.5553 0.7240
C23 C 0.9439(7) 0.6326(7) 0.8587(6)
H21 H 1.0299 0.6093 0.8770
C24 C 0.8290(7) 0.6989(7) 0.9245(6)
C25 C 0.7031(7) 0.7326(7) 0.8959(6)
H22 H 0.6238 0.7761 0.9403
C26 C 0.6947(7) 0.7022(7) 0.8028(6)
H23 H 0.6092 0.7283 0.7833
C27 C 0.9597(8) 0.7367(8) 1.0333(6)
H24 H 1.0113 0.7814 0.9664
H25 H 1.0134 0.6460 1.0502
C28 C 0.9381(10) 0.8017(10) 1.1251(8)
H26 H 1.0262 0.7982 1.1370
H27 H 0.8869 0.7574 1.1912
H28 H 0.8871 0.8921 1.1073
loop_
_geom_bond_atom_site_label_1
_geom_bond_atom_site_label_2
_geom_bond_site_symmetry_1
_geom_bond_site_symmetry_2
Br1 C5 1_555 1_555
N1 C1 1_555 1_555
O1 C18 1_555 1_555
C1 H1 1_555 1_555
Br2 C11 1_555 1_555
O2 C24 1_555 1_555
N2 C15 1_555 1_555
C2 C1 1_555 1_555
C3 C2 1_555 1_555
H2 C3 1_555 1_555
C4 C3 1_555 1_555
H3 C4 1_555 1_555
C5 C4 1_555 1_555
C6 C5 1_555 1_555
H4 C6 1_555 1_555
C7 C2 1_555 1_555
H5 C7 1_555 1_555
C8 C1 1_555 1_555
C9 C8 1_555 1_555
H6 C9 1_555 1_555
C10 C9 1_555 1_555
H7 C10 1_555 1_555
C11 C10 1_555 1_555
C12 C11 1_555 1_555
H8 C12 1_555 1_555
C13 C8 1_555 1_555
H9 C13 1_555 1_555
C14 N1 1_555 1_555
H10 C14 1_555 1_555
H11 C14 1_555 1_555
C15 C14 1_555 1_555
H12 C15 1_555 1_555
H13 C15 1_555 1_555
C16 N2 1_555 1_555
H14 C16 1_555 1_555
H15 C16 1_555 1_555
C17 N1 1_555 1_555
H16 C17 1_555 1_555
H17 C17 1_555 1_555
C18 N2 1_555 1_555
C19 C18 1_555 1_555
H18 C19 1_555 1_555
C20 C19 1_555 1_555
H19 C20 1_555 1_555
C21 C20 1_555 1_555
C22 C21 1_555 1_555
H20 C22 1_555 1_555
C23 C22 1_555 1_555
H21 C23 1_555 1_555
C24 C23 1_555 1_555
C25 C24 1_555 1_555
H22 C25 1_555 1_555
C26 C21 1_555 1_555
H23 C26 1_555 1_555
C27 O2 1_555 1_555
H24 C27 1_555 1_555
H25 C27 1_555 1_555
C28 C27 1_555 1_555
H26 C28 1_555 1_555
H27 C28 1_555 1_555
H28 C28 1_555 1_555
C6 C7 1_555 1_555
C12 C13 1_555 1_555
C16 C17 1_555 1_555
C25 C26 1_555 1_555

#END
