
#######################################################################
#
#                 Cambridge Crystallographic Data Centre
#                                CCDC 
#
#######################################################################
#
# If this CIF has been generated from an entry in the Cambridge 
# Structural Database, then it will include bibliographic, chemical, 
# crystal, experimental, refinement or atomic coordinate data resulting 
# from the CCDC's data processing and validation procedures.
#
#######################################################################

data_LANPOG
_chemical_formula_moiety         'C11 H12 O4'
_chemical_name_systematic        
3-methyl-3,3a,5a,6,8a,8b-hexahydrofuro[3,4-e]benzofuran-1,8-dione
_symmetry_cell_setting           orthorhombic
_symmetry_space_group_name_H-M   'P 21 21 21'
_symmetry_Int_Tables_number      19
_space_group_name_Hall           'P 2ac 2ab'
loop_
_symmetry_equiv_pos_site_id
_symmetry_equiv_pos_as_xyz
1 x,y,z
2 1/2-x,-y,1/2+z
3 1/2+x,1/2-y,-z
4 -x,1/2+y,1/2-z
_cell_length_a                   6.2705(2)
_cell_length_b                   7.9808(2)
_cell_length_c                   19.4486(4)
_cell_angle_alpha                90
_cell_angle_beta                 90
_cell_angle_gamma                90
_cell_volume                     973.278
_exptl_crystal_colour            colorless
_exptl_crystal_description       prism
_cell_formula_units_Z            4
loop_
_atom_site_label
_atom_site_type_symbol
_atom_site_fract_x
_atom_site_fract_y
_atom_site_fract_z
O1 O 0.0171(3) 0.6333(2) 0.33490(9)
O2 O 0.4585(3) 0.2239(2) 0.44051(8)
O3 O 0.0731(3) 0.3683(2) 0.36655(11)
O4 O 0.5139(4) 0.1603(2) 0.33047(9)
C1 C 0.1437(4) 0.4985(3) 0.34577(13)
C2 C 0.1436(4) 0.7741(3) 0.30904(13)
C3 C 0.3721(4) 0.7340(3) 0.33411(12)
C4 C 0.4136(4) 0.7861(3) 0.40712(13)
C5 C 0.4919(4) 0.6855(3) 0.45540(12)
C6 C 0.5635(4) 0.5082(3) 0.44317(12)
C7 C 0.4413(5) 0.3743(3) 0.48244(12)
C8 C 0.5038(4) 0.2654(3) 0.37445(12)
C9 C 0.5432(4) 0.4518(3) 0.36837(11)
C10 C 0.3710(4) 0.5424(3) 0.32741(12)
C11 C 0.0399(6) 0.9335(3) 0.33295(15)
H1 H 0.1522(4) 0.7905(3) 0.25814(13)
H2 H 0.4857(4) 0.7942(3) 0.30781(12)
H3 H 0.3802(4) 0.9044(3) 0.42023(13)
H4 H 0.5038(4) 0.7308(3) 0.50319(12)
H5 H 0.7148(4) 0.5158(3) 0.45911(12)
H6 H 0.2884(5) 0.4074(3) 0.48790(12)
H7 H 0.5062(5) 0.3558(3) 0.52879(12)
H8 H 0.6741(4) 0.4796(3) 0.34132(11)
H9 H 0.4108(4) 0.5029(3) 0.28033(12)
H10 H 0.1235(6) 1.0318(3) 0.31594(15)
H11 H -0.1087(6) 0.9392(3) 0.31442(15)
H12 H 0.0354(6) 0.9354(3) 0.38434(15)
loop_
_geom_bond_atom_site_label_1
_geom_bond_atom_site_label_2
_geom_bond_site_symmetry_1
_geom_bond_site_symmetry_2
O1 C1 1_555 1_555
O2 C7 1_555 1_555
O3 C1 1_555 1_555
O4 C8 1_555 1_555
C1 C10 1_555 1_555
C2 O1 1_555 1_555
C3 C2 1_555 1_555
C4 C3 1_555 1_555
C5 C4 1_555 1_555
C6 C5 1_555 1_555
C7 C6 1_555 1_555
C8 O2 1_555 1_555
C9 C6 1_555 1_555
C10 C3 1_555 1_555
C11 C2 1_555 1_555
H1 C2 1_555 1_555
H2 C3 1_555 1_555
H3 C4 1_555 1_555
H4 C5 1_555 1_555
H5 C6 1_555 1_555
H6 C7 1_555 1_555
H7 C7 1_555 1_555
H8 C9 1_555 1_555
H9 C10 1_555 1_555
H10 C11 1_555 1_555
H11 C11 1_555 1_555
H12 C11 1_555 1_555
C8 C9 1_555 1_555
C9 C10 1_555 1_555

#END
