
#######################################################################
#
#                 Cambridge Crystallographic Data Centre
#                                CCDC 
#
#######################################################################
#
# If this CIF has been generated from an entry in the Cambridge 
# Structural Database, then it will include bibliographic, chemical, 
# crystal, experimental, refinement or atomic coordinate data resulting 
# from the CCDC's data processing and validation procedures.
#
#######################################################################

data_LANPUM
_chemical_formula_moiety         'C12 H16 O5'
_chemical_name_systematic        
'methyl 5-(1-hydroxyethyl)-3-oxo-1,3,3a,4,5,7a-hexahydro-2-benzofuran-4-carboxylate'
_symmetry_cell_setting           monoclinic
_symmetry_space_group_name_H-M   'P 21'
_symmetry_Int_Tables_number      4
_space_group_name_Hall           'P 2yb'
loop_
_symmetry_equiv_pos_site_id
_symmetry_equiv_pos_as_xyz
1 x,y,z
2 -x,1/2+y,-z
_cell_length_a                   8.4510(3)
_cell_length_b                   6.2019(2)
_cell_length_c                   11.6509(3)
_cell_angle_alpha                90
_cell_angle_beta                 105.488(2)
_cell_angle_gamma                90
_cell_volume                     588.475
_exptl_crystal_colour            colorless
_exptl_crystal_description       prism
_cell_formula_units_Z            2
loop_
_atom_site_label
_atom_site_type_symbol
_atom_site_fract_x
_atom_site_fract_y
_atom_site_fract_z
O1 O 0.51962(17) 0.6108(3) -0.02527(12)
O2 O 0.41870(18) 0.6201(3) 0.13243(15)
O3 O 0.6459(2) 0.2337(3) 0.31699(14)
O4 O 0.6920(2) 0.5625(3) 0.40189(15)
O5 O 1.0145(4) 0.3160(5) 0.45742(18)
C1 C 0.6792(2) 0.6268(4) -0.05005(18)
C2 C 0.5356(2) 0.6368(4) 0.09200(19)
C3 C 0.7118(2) 0.6825(3) 0.15858(18)
C4 C 0.7906(2) 0.4814(3) 0.22993(17)
C5 C 0.9760(2) 0.5254(4) 0.28281(18)
C6 C 1.0515(2) 0.5897(4) 0.18437(19)
C7 C 0.9682(2) 0.6807(3) 0.08385(19)
C8 C 0.7907(2) 0.7407(3) 0.05844(17)
C9 C 0.7059(3) 0.4340(4) 0.32663(18)
C10 C 0.5721(4) 0.1650(6) 0.4094(3)
C11 C 1.0717(3) 0.3377(4) 0.35405(19)
C12 C 1.0601(3) 0.1289(4) 0.2875(2)
H1 H 0.996(4) 0.173(3) 0.451(3)
H3 H 0.6710(2) 0.7122(4) -0.12421(18)
H4 H 0.7241(2) 0.4804(4) -0.05883(18)
H5 H 0.7275(2) 0.7996(3) 0.21959(18)
H6 H 0.7772(2) 0.3519(3) 0.17710(17)
H7 H 0.9805(2) 0.6458(4) 0.34070(18)
H8 H 1.1709(2) 0.5592(4) 0.19600(19)
H9 H 1.0273(2) 0.7119(3) 0.02187(19)
H10 H 0.7918(2) 0.9002(3) 0.04616(17)
H11 H 0.5316(4) 0.0133(6) 0.3946(3)
H12 H 0.4776(4) 0.2628(6) 0.4082(3)
H13 H 0.6544(4) 0.1740(6) 0.4888(3)
H14 H 1.1912(3) 0.3745(4) 0.37374(19)
H15 H 1.1275(3) 0.0158(4) 0.3396(2)
H16 H 1.1009(3) 0.1496(4) 0.2151(2)
H17 H 0.9426(3) 0.0825(4) 0.2627(2)
H2? H 1.112(5) 0.260(11) 0.508(4)
loop_
_geom_bond_atom_site_label_1
_geom_bond_atom_site_label_2
_geom_bond_site_symmetry_1
_geom_bond_site_symmetry_2
O1 C1 1_555 1_555
O2 C2 1_555 1_555
O3 C9 1_555 1_555
O4 C9 1_555 1_555
O5 C11 1_555 1_555
C1 C8 1_555 1_555
C2 O1 1_555 1_555
C3 C2 1_555 1_555
C4 C3 1_555 1_555
C5 C4 1_555 1_555
C6 C5 1_555 1_555
C7 C6 1_555 1_555
C8 C3 1_555 1_555
C9 C4 1_555 1_555
C10 O3 1_555 1_555
C11 C5 1_555 1_555
C12 C11 1_555 1_555
H1 O5 1_555 1_555
H3 C1 1_555 1_555
H4 C1 1_555 1_555
H5 C3 1_555 1_555
H6 C4 1_555 1_555
H7 C5 1_555 1_555
H8 C6 1_555 1_555
H9 C7 1_555 1_555
H10 C8 1_555 1_555
H11 C10 1_555 1_555
H12 C10 1_555 1_555
H13 C10 1_555 1_555
H14 C11 1_555 1_555
H15 C12 1_555 1_555
H16 C12 1_555 1_555
H17 C12 1_555 1_555
C7 C8 1_555 1_555

#END
