
#######################################################################
#
#                 Cambridge Crystallographic Data Centre
#                                CCDC 
#
#######################################################################
#
# If this CIF has been generated from an entry in the Cambridge 
# Structural Database, then it will include bibliographic, chemical, 
# crystal, experimental, refinement or atomic coordinate data resulting 
# from the CCDC's data processing and validation procedures.
#
#######################################################################

data_LANRUQ
_chemical_formula_moiety         'C28 H32 O4'
_chemical_name_systematic        
2-((4-(3-(4-(oxiran-2-ylmethoxy)phenyl)tricyclo[3.3.1.1^3,7^]decan-1-yl)phenoxy)methyl)oxirane
_symmetry_cell_setting           monoclinic
_symmetry_space_group_name_H-M   'P 21/n'
_symmetry_Int_Tables_number      14
_space_group_name_Hall           '-P 2yn'
loop_
_symmetry_equiv_pos_site_id
_symmetry_equiv_pos_as_xyz
1 x,y,z
2 1/2-x,1/2+y,1/2-z
3 -x,-y,-z
4 1/2+x,1/2-y,1/2+z
_cell_length_a                   10.510(6)
_cell_length_b                   16.972(9)
_cell_length_c                   13.374(7)
_cell_angle_alpha                90
_cell_angle_beta                 109.356(6)
_cell_angle_gamma                90
_cell_volume                     2250.76
_exptl_crystal_colour            colorless
_exptl_crystal_description       block
_chemical_melting_point          '378.17 K'
_cell_formula_units_Z            4
loop_
_atom_site_label
_atom_site_type_symbol
_atom_site_fract_x
_atom_site_fract_y
_atom_site_fract_z
C1 C 0.27575(18) 0.73082(11) 0.04107(15)
C2 C 0.2875(2) 0.71131(13) -0.06825(16)
H1 H 0.2301 0.7465 -0.1213
H2 H 0.3798 0.7192 -0.0660
C3 C 0.2458(2) 0.62630(14) -0.09857(16)
H3 H 0.2549 0.6149 -0.1677
C4 C 0.0999(2) 0.61378(15) -0.10538(17)
H4 H 0.0733 0.5598 -0.1255
H5 H 0.0414 0.6484 -0.1587
C5 C 0.0867(2) 0.63158(13) 0.00250(17)
H6 H -0.0074 0.6243 -0.0016
C6 C 0.12865(19) 0.71687(12) 0.03377(17)
H7 H 0.1183 0.7283 0.1017
H8 H 0.0703 0.7523 -0.0184
C7 C 0.36374(18) 0.67252(11) 0.12330(14)
H9 H 0.4575 0.6802 0.1294
H10 H 0.3550 0.6837 0.1919
C8 C 0.32479(19) 0.58609(11) 0.09407(15)
C9 C 0.3374(2) 0.57105(13) -0.01581(16)
H11 H 0.4302 0.5790 -0.0122
H12 H 0.3133 0.5168 -0.0366
C10 C 0.1759(2) 0.57576(12) 0.08529(17)
H13 H 0.1482 0.5218 0.0658
H14 H 0.1656 0.5864 0.1535
C11 C 0.32426(19) 0.81427(12) 0.07516(14)
C12 C 0.2520(2) 0.86736(12) 0.11421(17)
H15 H 0.1673 0.8529 0.1158
C13 C 0.3015(2) 0.94055(13) 0.15061(19)
H16 H 0.2506 0.9744 0.1770
C14 C 0.4258(2) 0.96425(12) 0.14842(16)
C15 C 0.4998(2) 0.91371(13) 0.10882(16)
H17 H 0.5834 0.9291 0.1058
C16 C 0.4490(2) 0.84005(13) 0.07357(16)
H18 H 0.5004 0.8063 0.0477
C17 C 0.4129(2) 0.52909(12) 0.17632(16)
C18 C 0.4098(2) 0.44858(13) 0.15465(19)
H19 H 0.3543 0.4306 0.0890
C19 C 0.4855(2) 0.39512(13) 0.2267(2)
H20 H 0.4818 0.3420 0.2090
C20 C 0.5667(2) 0.41968(13) 0.3247(2)
C21 C 0.5727(2) 0.49857(14) 0.35007(19)
H21 H 0.6272 0.5159 0.4164
C22 C 0.4965(2) 0.55211(13) 0.27535(17)
H22 H 0.5020 0.6054 0.2927
O1 O 0.46650(16) 1.03813(9) 0.18804(14)
O2 O 0.6379(2) 0.36134(11) 0.39168(18)
O3 O 0.8490(8) 0.2651(6) 0.5705(11)
C23 C 0.6730(8) 0.3692(4) 0.4971(5)
H23 H 0.5981 0.3882 0.5175
H24 H 0.7488 0.4049 0.5244
C24 C 0.7106(4) 0.2873(3) 0.5352(3)
H25 H 0.6446 0.2459 0.5033
C25 C 0.7844(4) 0.2806(3) 0.6479(3)
H26 H 0.8079 0.3288 0.6888
H27 H 0.7644 0.2360 0.6856
O4 O 0.6559(3) 1.1264(2) 0.3730(3)
C26 C 0.6001(7) 1.0634(5) 0.2020(16)
H28 H 0.6110 1.0725 0.1337
H29 H 0.6643 1.0235 0.2394
C27 C 0.6233(6) 1.1374(4) 0.2642(4)
H30 H 0.5653 1.1824 0.2328
C28 C 0.7543(4) 1.1542(3) 0.3331(4)
H31 H 0.8264 1.1186 0.3331
H32 H 0.7805 1.2091 0.3454
O5? O 0.8455(12) 0.2737(9) 0.5675(17)
C29? C 0.7037(12) 0.3866(6) 0.5018(7)
H33? H 0.6408 0.4205 0.5207
H34? H 0.7804 0.4190 0.5034
C30? C 0.7534(6) 0.3250(3) 0.5886(5)
H35? H 0.7759 0.3436 0.6618
C31? C 0.7195(6) 0.2427(4) 0.5700(6)
H36? H 0.7206 0.2104 0.6301
H37? H 0.6522 0.2281 0.5032
O6? O 0.6021(14) 1.1637(9) 0.3267(12)
C32? C 0.604(3) 1.051(2) 0.197(7)
H38? H 0.6162 1.0467 0.1282
H39? H 0.6628 1.0135 0.2453
C33? C 0.629(3) 1.1338(18) 0.2394(19)
H40? H 0.5857 1.1693 0.1800
C34? C 0.7294(16) 1.1794(14) 0.3184(19)
H41? H 0.8066 1.1516 0.3658
H42? H 0.7475 1.2325 0.3000
loop_
_geom_bond_atom_site_label_1
_geom_bond_atom_site_label_2
_geom_bond_site_symmetry_1
_geom_bond_site_symmetry_2
C1 C2 1_555 1_555
C2 H1 1_555 1_555
H2 C2 1_555 1_555
C3 C2 1_555 1_555
H3 C3 1_555 1_555
C4 C3 1_555 1_555
H4 C4 1_555 1_555
H5 C4 1_555 1_555
C5 C4 1_555 1_555
H6 C5 1_555 1_555
C6 C1 1_555 1_555
H7 C6 1_555 1_555
H8 C6 1_555 1_555
C7 C1 1_555 1_555
H9 C7 1_555 1_555
H10 C7 1_555 1_555
C8 C7 1_555 1_555
C9 C3 1_555 1_555
H11 C9 1_555 1_555
H12 C9 1_555 1_555
C10 C5 1_555 1_555
H13 C10 1_555 1_555
H14 C10 1_555 1_555
C11 C1 1_555 1_555
C12 C11 1_555 1_555
H15 C12 1_555 1_555
C13 C12 1_555 1_555
H16 C13 1_555 1_555
C14 C13 1_555 1_555
C15 C14 1_555 1_555
H17 C15 1_555 1_555
C16 C11 1_555 1_555
H18 C16 1_555 1_555
C17 C8 1_555 1_555
C18 C17 1_555 1_555
H19 C18 1_555 1_555
C19 C18 1_555 1_555
H20 C19 1_555 1_555
C20 C19 1_555 1_555
C21 C20 1_555 1_555
H21 C21 1_555 1_555
C22 C17 1_555 1_555
H22 C22 1_555 1_555
O1 C14 1_555 1_555
O2 C20 1_555 1_555
O3 C24 1_555 1_555
C23 O2 1_555 1_555
H23 C23 1_555 1_555
H24 C23 1_555 1_555
C24 C23 1_555 1_555
H25 C24 1_555 1_555
C25 O3 1_555 1_555
H26 C25 1_555 1_555
H27 C25 1_555 1_555
O4 C27 1_555 1_555
C26 O1 1_555 1_555
H28 C26 1_555 1_555
H29 C26 1_555 1_555
C27 C26 1_555 1_555
H30 C27 1_555 1_555
C28 O4 1_555 1_555
H31 C28 1_555 1_555
H32 C28 1_555 1_555
C5 C6 1_555 1_555
C8 C9 1_555 1_555
C8 C10 1_555 1_555
C15 C16 1_555 1_555
C21 C22 1_555 1_555
C24 C25 1_555 1_555
C27 C28 1_555 1_555

#END
