
#######################################################################
#
#                 Cambridge Crystallographic Data Centre
#                                CCDC 
#
#######################################################################
#
# If this CIF has been generated from an entry in the Cambridge 
# Structural Database, then it will include bibliographic, chemical, 
# crystal, experimental, refinement or atomic coordinate data resulting 
# from the CCDC's data processing and validation procedures.
#
#######################################################################

data_LANSAX
_chemical_formula_moiety         'C31 H24 Br1 N1 O1'
_chemical_name_systematic        
1'-benzyl-2-(2-bromophenyl)-4-phenylspiro[cyclopent-3-ene-1,3'-indol]-2'(1'H)-one
_symmetry_cell_setting           monoclinic
_symmetry_space_group_name_H-M   'P 21'
_symmetry_Int_Tables_number      4
_space_group_name_Hall           'P 2yb'
loop_
_symmetry_equiv_pos_site_id
_symmetry_equiv_pos_as_xyz
1 x,y,z
2 -x,1/2+y,-z
_cell_length_a                   12.615(5)
_cell_length_b                   9.870(4)
_cell_length_c                   19.820(9)
_cell_angle_alpha                90
_cell_angle_beta                 102.263(10)
_cell_angle_gamma                90
_cell_volume                     2411.48
_exptl_crystal_colour            colorless
_exptl_crystal_description       Plate
_cell_formula_units_Z            4
loop_
_atom_site_label
_atom_site_type_symbol
_atom_site_fract_x
_atom_site_fract_y
_atom_site_fract_z
Br1 Br 0.12746(11) 0.46822(15) 0.71451(8)
C1 C 0.0944(10) 1.0060(11) 0.7087(6)
H1 H 0.1074 1.0654 0.7460
C2 C 0.4129(9) 0.8166(11) 0.6282(6)
O1 O 0.1662(6) 0.5540(9) 0.5271(5)
C3 C 0.5201(10) 0.9277(14) 0.5518(7)
H2 H 0.4679 0.8981 0.5141
C4 C 0.1587(9) 0.8339(12) 0.6395(6)
C5 C -0.0320(10) 0.8976(12) 0.6144(6)
H3 H -0.1021 0.8866 0.5885
C6 C 0.0526(9) 0.8193(11) 0.6014(6)
N1 N 0.0473(7) 0.7131(11) 0.5533(4)
C7 C -0.1299(9) 0.5968(14) 0.5391(7)
C8 C 0.5070(9) 0.8999(12) 0.6172(6)
C9 C 0.4105(9) 0.7368(13) 0.6818(6)
H4 H 0.4672 0.7305 0.7203
C10 C 0.6095(11) 0.9990(15) 0.5403(7)
H5 H 0.6180 1.0141 0.4955
C11 C 0.2292(9) 0.7339(14) 0.6131(6)
C12 C 0.3104(8) 0.8062(12) 0.5742(6)
H6 H 0.3213 0.7525 0.5352
H7 H 0.2840 0.8951 0.5579
C13 C -0.0096(10) 0.9926(12) 0.6669(6)
H8 H -0.0649 1.0489 0.6746
C14 C 0.2501(11) 0.4103(14) 0.6808(7)
C15 C 0.6853(10) 1.0471(13) 0.5951(7)
H9 H 0.7444 1.0968 0.5877
C16 C -0.0516(10) 0.6731(15) 0.5025(7)
H10 H -0.0319 0.6154 0.4675
H11 H -0.0871 0.7532 0.4799
C17 C 0.3067(10) 0.6575(13) 0.6740(6)
H12 H 0.2785 0.6702 0.7159
C18 C 0.4149(9) 0.4563(14) 0.6426(6)
H13 H 0.4662 0.5168 0.6329
C19 C 0.4292(12) 0.3172(14) 0.6352(7)
H14 H 0.4885 0.2853 0.6189
C20 C -0.1010(10) 0.4730(17) 0.5709(7)
H15 H -0.0344 0.4348 0.5686
C21 C 0.1492(9) 0.6528(12) 0.5597(6)
C22 C 0.5837(10) 0.9475(17) 0.6709(7)
H16 H 0.5763 0.9305 0.7158
C23 C 0.2674(12) 0.2760(15) 0.6748(8)
H17 H 0.2184 0.2144 0.6865
C24 C 0.6731(11) 1.0213(18) 0.6602(8)
H18 H 0.7244 1.0528 0.6978
C25 C 0.1777(10) 0.9279(11) 0.6927(6)
H19 H 0.2480 0.9390 0.7184
C26 C -0.2669(14) 0.463(2) 0.6079(8)
H20 H -0.3129 0.4184 0.6315
C27 C -0.2989(13) 0.585(2) 0.5766(9)
H21 H -0.3662 0.6210 0.5787
C28 C 0.3236(10) 0.5049(13) 0.6648(6)
C29 C -0.1682(13) 0.4057(17) 0.6055(8)
H22 H -0.1477 0.3231 0.6269
C30 C -0.2302(9) 0.6534(14) 0.5415(7)
H23 H -0.2511 0.7358 0.5200
C31 C 0.3565(13) 0.2286(17) 0.6518(8)
H24 H 0.3666 0.1359 0.6476
Br2 Br 0.88946(13) 0.22387(18) 0.79310(9)
O2 O 0.8537(7) 0.3071(9) 0.9774(4)
N2 N 0.9590(7) 0.4663(12) 0.9353(5)
C32 C 0.4962(9) 0.6177(11) 0.8934(6)
C33 C 0.3284(10) 0.7774(14) 0.9206(7)
H25 H 0.2720 0.8303 0.9298
C34 C 0.4282(10) 0.7811(14) 0.9646(7)
H26 H 0.4400 0.8373 1.0031
C35 C 0.6981(9) 0.5440(13) 0.9240(6)
H27 H 0.7004 0.5006 0.9682
H28 H 0.7199 0.6379 0.9320
C36 C 0.6954(10) 0.2224(12) 0.8456(6)
C37 C 0.9433(9) 0.5591(12) 0.8804(6)
C38 C 1.0613(9) 0.4313(13) 0.9834(6)
H29 H 1.0455 0.3893 1.0244
H30 H 1.1027 0.5132 0.9974
C39 C 0.8640(9) 0.3981(13) 0.9374(6)
C40 C 0.5123(10) 0.6999(13) 0.9513(6)
H31 H 0.5796 0.7011 0.9816
C41 C 0.7732(8) 0.4694(14) 0.8834(6)
C42 C 1.1534(12) 0.1135(15) 0.9053(8)
H32 H 1.1306 0.0241 0.8978
C43 C 1.2801(12) 0.2878(17) 0.8960(8)
H33 H 1.3414 0.3176 0.8813
C44 C 0.8352(9) 0.5609(12) 0.8471(6)
C45 C 0.3111(10) 0.6963(14) 0.8630(7)
H34 H 0.2434 0.6957 0.8331
C46 C 0.3935(10) 0.6153(13) 0.8491(6)
H35 H 0.3808 0.5595 0.8104
C47 C 0.6914(10) 0.3745(13) 0.8307(6)
H36 H 0.7074 0.3871 0.7849
C48 C 0.9883(10) 0.7199(16) 0.8021(8)
H37 H 1.0385 0.7739 0.7864
C49 C 1.1283(10) 0.3346(14) 0.9494(7)
C50 C 1.0954(10) 0.2013(15) 0.9367(7)
H38 H 1.0329 0.1712 0.9498
C51 C 0.5863(9) 0.5344(12) 0.8789(6)
C52 C 0.5840(10) 0.4413(12) 0.8300(6)
H39 H 0.5211 0.4193 0.7981
C53 C 0.6143(14) 0.1581(15) 0.8712(8)
H40 H 0.5565 0.2091 0.8797
C54 C 0.7771(13) 0.1418(16) 0.8324(7)
C55 C 0.7836(17) 0.0027(19) 0.8453(8)
H41 H 0.8393 -0.0503 0.8354
C56 C 0.8024(10) 0.6400(13) 0.7882(7)
H42 H 0.7309 0.6391 0.7636
C57 C 1.2466(14) 0.1569(17) 0.8844(8)
H43 H 1.2856 0.0971 0.8628
C58 C 1.0212(11) 0.6383(15) 0.8604(8)
H44 H 1.0928 0.6375 0.8848
C59 C 1.2230(11) 0.3775(14) 0.9297(8)
H45 H 1.2480 0.4656 0.9390
C60 C 0.8797(11) 0.7198(15) 0.7676(7)
H46 H 0.8585 0.7756 0.7293
C61 C 0.705(2) -0.049(2) 0.8725(9)
H47 H 0.7103 -0.1407 0.8843
C62 C 0.6170(17) 0.0187(18) 0.8847(10)
H48 H 0.5619 -0.0247 0.9010
loop_
_geom_bond_atom_site_label_1
_geom_bond_atom_site_label_2
_geom_bond_site_symmetry_1
_geom_bond_site_symmetry_2
Br1 C14 1_555 1_555
C1 H1 1_555 1_555
C2 C8 1_555 1_555
O1 C21 1_555 1_555
C3 H2 1_555 1_555
C4 C6 1_555 1_555
C5 H3 1_555 1_555
C6 C5 1_555 1_555
N1 C6 1_555 1_555
C7 C16 1_555 1_555
C8 C3 1_555 1_555
C9 C2 1_555 1_555
H4 C9 1_555 1_555
C10 C3 1_555 1_555
H5 C10 1_555 1_555
C11 C4 1_555 1_555
C12 C2 1_555 1_555
H6 C12 1_555 1_555
H7 C12 1_555 1_555
C13 C1 1_555 1_555
H8 C13 1_555 1_555
C14 C23 1_555 1_555
C15 C10 1_555 1_555
H9 C15 1_555 1_555
C16 N1 1_555 1_555
H10 C16 1_555 1_555
H11 C16 1_555 1_555
C17 C9 1_555 1_555
H12 C17 1_555 1_555
C18 H13 1_555 1_555
C19 C18 1_555 1_555
H14 C19 1_555 1_555
C20 C7 1_555 1_555
H15 C20 1_555 1_555
C21 N1 1_555 1_555
C22 C8 1_555 1_555
H16 C22 1_555 1_555
C23 H17 1_555 1_555
C24 C15 1_555 1_555
H18 C24 1_555 1_555
C25 C1 1_555 1_555
H19 C25 1_555 1_555
C26 H20 1_555 1_555
C27 C26 1_555 1_555
H21 C27 1_555 1_555
C28 C14 1_555 1_555
C29 C20 1_555 1_555
H22 C29 1_555 1_555
C30 C7 1_555 1_555
H23 C30 1_555 1_555
C31 C19 1_555 1_555
H24 C31 1_555 1_555
Br2 C54 1_555 1_555
O2 C39 1_555 1_555
N2 C37 1_555 1_555
C32 C40 1_555 1_555
C33 H25 1_555 1_555
C34 C33 1_555 1_555
H26 C34 1_555 1_555
C35 H27 1_555 1_555
H28 C35 1_555 1_555
C36 C47 1_555 1_555
C37 C44 1_555 1_555
C38 N2 1_555 1_555
H29 C38 1_555 1_555
H30 C38 1_555 1_555
C39 N2 1_555 1_555
C40 C34 1_555 1_555
H31 C40 1_555 1_555
C41 C35 1_555 1_555
C42 H32 1_555 1_555
C43 H33 1_555 1_555
C44 C41 1_555 1_555
C45 C33 1_555 1_555
H34 C45 1_555 1_555
C46 C32 1_555 1_555
H35 C46 1_555 1_555
C47 C41 1_555 1_555
H36 C47 1_555 1_555
C48 H37 1_555 1_555
C49 C38 1_555 1_555
C50 C42 1_555 1_555
H38 C50 1_555 1_555
C51 C32 1_555 1_555
C52 C47 1_555 1_555
H39 C52 1_555 1_555
C53 C36 1_555 1_555
H40 C53 1_555 1_555
C54 C36 1_555 1_555
C55 C54 1_555 1_555
H41 C55 1_555 1_555
C56 C44 1_555 1_555
H42 C56 1_555 1_555
C57 C42 1_555 1_555
H43 C57 1_555 1_555
C58 C37 1_555 1_555
H44 C58 1_555 1_555
C59 C43 1_555 1_555
H45 C59 1_555 1_555
C60 C48 1_555 1_555
H46 C60 1_555 1_555
C61 C55 1_555 1_555
H47 C61 1_555 1_555
C62 C53 1_555 1_555
H48 C62 1_555 1_555
C4 C25 1_555 1_555
C5 C13 1_555 1_555
C11 C12 1_555 1_555
C11 C17 1_555 1_555
C11 C21 1_555 1_555
C17 C28 1_555 1_555
C18 C28 1_555 1_555
C22 C24 1_555 1_555
C23 C31 1_555 1_555
C26 C29 1_555 1_555
C27 C30 1_555 1_555
C35 C51 1_555 1_555
C39 C41 1_555 1_555
C43 C57 1_555 1_555
C45 C46 1_555 1_555
C48 C58 1_555 1_555
C49 C50 1_555 1_555
C49 C59 1_555 1_555
C51 C52 1_555 1_555
C56 C60 1_555 1_555
C61 C62 1_555 1_555

#END
