
#######################################################################
#
#                 Cambridge Crystallographic Data Centre
#                                CCDC 
#
#######################################################################
#
# If this CIF has been generated from an entry in the Cambridge 
# Structural Database, then it will include bibliographic, chemical, 
# crystal, experimental, refinement or atomic coordinate data resulting 
# from the CCDC's data processing and validation procedures.
#
#######################################################################

data_LANTAY
_chemical_formula_moiety         'C15 H13 N1 O3'
_chemical_name_systematic        
3-hydroxy-3-(4-methoxyphenyl)-1-(pyridin-2-yl)prop-2-en-1-one
_symmetry_cell_setting           monoclinic
_symmetry_space_group_name_H-M   'C c'
_symmetry_Int_Tables_number      9
_space_group_name_Hall           'C -2yc'
loop_
_symmetry_equiv_pos_site_id
_symmetry_equiv_pos_as_xyz
1 x,y,z
2 x,-y,1/2+z
3 1/2+x,1/2+y,z
4 1/2+x,1/2-y,1/2+z
_cell_length_a                   4.0145(3)
_cell_length_b                   26.7097(18)
_cell_length_c                   11.7285(10)
_cell_angle_alpha                90
_cell_angle_beta                 94.126(7)
_cell_angle_gamma                90
_cell_volume                     1254.34
_cell_formula_units_Z            4
loop_
_atom_site_label
_atom_site_type_symbol
_atom_site_fract_x
_atom_site_fract_y
_atom_site_fract_z
O1 O -0.1784(5) 0.08876(6) 0.35301(16)
O2 O 0.4123(5) 0.05736(7) 0.86257(16)
O3 O 0.4390(5) 0.09713(7) 1.05432(18)
N1 N -0.0040(5) 0.21266(8) 1.0429(2)
C1 C -0.0695(5) 0.08805(9) 0.4655(2)
C2 C 0.1530(6) 0.13389(9) 0.8941(2)
H1 H 0.0259 0.1606 0.8643
C3 C 0.1739(6) 0.17418(9) 1.0884(2)
C4 C 0.1275(6) 0.09268(9) 0.6990(2)
C5 C 0.2593(6) 0.13353(9) 1.0088(2)
C6 C -0.1554(6) 0.12869(10) 0.5299(2)
H2 H -0.2781 0.1547 0.4950
C7 C 0.1178(6) 0.04913(10) 0.5170(2)
H3 H 0.1777 0.0216 0.4744
C8 C -0.0746(7) 0.04930(11) 0.2817(2)
H4 H -0.1574 0.0555 0.2041
H5 H -0.1616 0.0180 0.3069
H6 H 0.1649 0.0478 0.2859
C9 C 0.2132(6) 0.05218(9) 0.6328(2)
H7 H 0.3385 0.0263 0.6672
C10 C -0.0803(8) 0.24897(11) 1.1138(3)
H8 H -0.2038 0.2759 1.0834
C11 C 0.1911(7) 0.20979(12) 1.2748(3)
H9 H 0.2554 0.2088 1.3525
C12 C 0.0112(8) 0.24938(11) 1.2293(3)
H10 H -0.0480 0.2759 1.2751
C13 C 0.2344(5) 0.09449(9) 0.8223(2)
C14 C 0.2761(7) 0.17142(10) 1.2041(2)
H11 H 0.3993 0.1442 1.2331
C15 C -0.0620(6) 0.13116(9) 0.6445(2)
H12 H -0.1249 0.1586 0.6866
H13 H 0.500(15) 0.068(2) 0.926(3)
H14? H 0.434(17) 0.074(2) 1.003(5)
loop_
_geom_bond_atom_site_label_1
_geom_bond_atom_site_label_2
_geom_bond_site_symmetry_1
_geom_bond_site_symmetry_2
O1 C1 1_555 1_555
O2 C13 1_555 1_555
O3 C5 1_555 1_555
N1 C3 1_555 1_555
C1 C6 1_555 1_555
C2 H1 1_555 1_555
C3 C5 1_555 1_555
C4 C9 1_555 1_555
C5 C2 1_555 1_555
C6 H2 1_555 1_555
C7 C1 1_555 1_555
H3 C7 1_555 1_555
C8 O1 1_555 1_555
H4 C8 1_555 1_555
H5 C8 1_555 1_555
H6 C8 1_555 1_555
C9 C7 1_555 1_555
H7 C9 1_555 1_555
C10 N1 1_555 1_555
H8 C10 1_555 1_555
C11 H9 1_555 1_555
C12 C10 1_555 1_555
H10 C12 1_555 1_555
C13 C2 1_555 1_555
C14 C3 1_555 1_555
H11 C14 1_555 1_555
C15 C4 1_555 1_555
H12 C15 1_555 1_555
H13 O2 1_555 1_555
C4 C13 1_555 1_555
C6 C15 1_555 1_555
C11 C12 1_555 1_555
C11 C14 1_555 1_555

#END
