
#######################################################################
#
#                 Cambridge Crystallographic Data Centre
#                                CCDC 
#
#######################################################################
#
# If this CIF has been generated from an entry in the Cambridge 
# Structural Database, then it will include bibliographic, chemical, 
# crystal, experimental, refinement or atomic coordinate data resulting 
# from the CCDC's data processing and validation procedures.
#
#######################################################################

data_LANTIG
_chemical_formula_moiety         'C15 H13 N1 O3'
_chemical_name_systematic        
3-hydroxy-1-(4-methoxyphenyl)-3-(pyridin-4-yl)prop-2-en-1-one
_symmetry_cell_setting           orthorhombic
_symmetry_space_group_name_H-M   'P 21 21 21'
_symmetry_Int_Tables_number      19
_space_group_name_Hall           'P 2ac 2ab'
loop_
_symmetry_equiv_pos_site_id
_symmetry_equiv_pos_as_xyz
1 x,y,z
2 1/2-x,-y,1/2+z
3 1/2+x,1/2-y,-z
4 -x,1/2+y,1/2-z
_cell_length_a                   3.8841(2)
_cell_length_b                   11.6062(6)
_cell_length_c                   27.6220(12)
_cell_angle_alpha                90
_cell_angle_beta                 90
_cell_angle_gamma                90
_cell_volume                     1245.19
_cell_formula_units_Z            4
loop_
_atom_site_label
_atom_site_type_symbol
_atom_site_fract_x
_atom_site_fract_y
_atom_site_fract_z
O1 O 0.6899(5) 1.02420(12) 0.05880(5)
O2 O 0.7640(5) 1.56060(12) 0.08896(5)
O3 O 0.4822(6) 0.84547(13) 0.09647(5)
C1 C 0.2535(5) 0.83745(16) 0.17524(6)
C2 C 0.6533(5) 1.20609(16) 0.09576(6)
N1 N -0.0096(7) 0.70383(16) 0.25146(7)
C3 C 0.4544(5) 1.02161(16) 0.13668(6)
H1 H 0.3936 1.0623 0.1644
C4 C 0.6020(5) 1.08084(17) 0.09642(6)
C5 C 0.5933(6) 1.39537(18) 0.13000(6)
H2 H 0.5233 1.4425 0.1554
C6 C 0.8036(5) 1.25671(16) 0.05497(6)
H3 H 0.8778 1.2097 0.0298
C7 C 0.4024(5) 0.90588(16) 0.13464(6)
C8 C 0.5528(6) 1.27799(17) 0.13354(6)
H4 H 0.4574 1.2464 0.1614
C9 C 0.7383(5) 1.44417(17) 0.08874(6)
C10 C 0.8447(5) 1.37396(17) 0.05111(6)
H5 H 0.9431 1.4058 0.0235
C11 C 0.0019(7) 0.8173(2) 0.25338(7)
H6 H -0.0816 0.8527 0.2812
C12 C 0.1282(6) 0.88736(18) 0.21724(6)
H7 H 0.1294 0.9670 0.2210
C13 C 0.9048(8) 1.6161(2) 0.04731(9)
H8 H 0.7588 1.6021 0.0199
H9 H 1.1305 1.5860 0.0409
H10 H 0.9196 1.6975 0.0531
C14 C 0.2450(8) 0.71945(17) 0.17227(8)
H11 H 0.3280 0.6817 0.1450
C15 C 0.1104(9) 0.6578(2) 0.21078(8)
H12 H 0.1033 0.5780 0.2080
H13 H 0.57(2) 0.898(5) 0.080(2)
H14? H 0.64(3) 0.955(3) 0.065(3)
loop_
_geom_bond_atom_site_label_1
_geom_bond_atom_site_label_2
_geom_bond_site_symmetry_1
_geom_bond_site_symmetry_2
O1 C4 1_555 1_555
O2 C9 1_555 1_555
O3 C7 1_555 1_555
C1 C7 1_555 1_555
C2 C4 1_555 1_555
N1 C11 1_555 1_555
C3 H1 1_555 1_555
C4 C3 1_555 1_555
C5 H2 1_555 1_555
C6 C2 1_555 1_555
H3 C6 1_555 1_555
C7 C3 1_555 1_555
C8 C2 1_555 1_555
H4 C8 1_555 1_555
C9 C5 1_555 1_555
C10 C6 1_555 1_555
H5 C10 1_555 1_555
C11 H6 1_555 1_555
C12 C1 1_555 1_555
H7 C12 1_555 1_555
C13 O2 1_555 1_555
H8 C13 1_555 1_555
H9 C13 1_555 1_555
H10 C13 1_555 1_555
C14 C1 1_555 1_555
H11 C14 1_555 1_555
C15 N1 1_555 1_555
H12 C15 1_555 1_555
H13 O3 1_555 1_555
C5 C8 1_555 1_555
C9 C10 1_555 1_555
C11 C12 1_555 1_555
C14 C15 1_555 1_555

#END
