
#######################################################################
#
#                 Cambridge Crystallographic Data Centre
#                                CCDC 
#
#######################################################################
#
# If this CIF has been generated from an entry in the Cambridge 
# Structural Database, then it will include bibliographic, chemical, 
# crystal, experimental, refinement or atomic coordinate data resulting 
# from the CCDC's data processing and validation procedures.
#
#######################################################################

data_LANTEA
_chemical_formula_moiety         'C29 H18 N4,C3 H7 N1 O1'
_chemical_name_systematic        
'2-amino-4,5,7-triphenylquinoline-3,8-dicarbonitrile dimethylformamide solvate'
_symmetry_cell_setting           triclinic
_symmetry_space_group_name_H-M   'P -1'
_symmetry_Int_Tables_number      2
_space_group_name_Hall           '-P 1'
loop_
_symmetry_equiv_pos_site_id
_symmetry_equiv_pos_as_xyz
1 x,y,z
2 -x,-y,-z
_cell_length_a                   9.549(4)
_cell_length_b                   12.236(5)
_cell_length_c                   13.038(4)
_cell_angle_alpha                114.70(3)
_cell_angle_beta                 98.90(3)
_cell_angle_gamma                96.32(3)
_cell_volume                     1341.18
_exptl_crystal_colour            yellow
_exptl_crystal_description       Block
_chemical_melting_point          '298-200 deg.C'
_cell_formula_units_Z            2
_exptl_crystal_recrystallization_method DMF/ethanol
loop_
_atom_site_label
_atom_site_type_symbol
_atom_site_fract_x
_atom_site_fract_y
_atom_site_fract_z
N1 N 0.2719(3) 0.1443(3) 0.3499(3)
N2 N 0.3634(4) 0.3416(3) 0.4858(3)
H1 H 0.3611 0.3640 0.4313
H2 H 0.3944 0.3949 0.5569
N3 N 0.4188(6) 0.3474(4) 0.7615(4)
N4 N 0.2105(5) 0.0452(4) 0.0633(4)
C1 C 0.1896(4) -0.0566(4) 0.2004(3)
C2 C 0.2291(4) 0.0235(3) 0.3220(3)
C3 C 0.3182(4) 0.2221(4) 0.4596(4)
C4 C 0.3197(4) 0.1830(4) 0.5489(3)
C5 C 0.2756(4) 0.0611(3) 0.5232(3)
C6 C 0.2261(4) -0.0252(3) 0.4036(3)
C7 C 0.1808(4) -0.1563(4) 0.3595(3)
C8 C 0.1473(5) -0.2266(4) 0.2423(4)
H3 H 0.1208 -0.3110 0.2151
C9 C 0.1497(5) -0.1813(4) 0.1595(3)
C10 C 0.2004(5) 0.0003(4) 0.1235(4)
C11 C 0.3755(6) 0.2725(4) 0.6692(4)
C12 C 0.2870(4) 0.0296(3) 0.6227(3)
C13 C 0.1946(5) 0.0610(4) 0.6966(4)
H4 H 0.1224 0.1023 0.6847
C14 C 0.2081(5) 0.0316(4) 0.7886(4)
H5 H 0.1438 0.0522 0.8374
C15 C 0.3138(5) -0.0270(4) 0.8086(4)
H6 H 0.3211 -0.0473 0.8702
C16 C 0.4095(5) -0.0561(4) 0.7384(4)
H7 H 0.4837 -0.0945 0.7531
C17 C 0.3958(4) -0.0283(4) 0.6443(4)
H8 H 0.4605 -0.0489 0.5959
C18 C 0.1675(5) -0.2242(3) 0.4305(3)
C19 C 0.0624(5) -0.2146(4) 0.4937(4)
H9 H 0.0003 -0.1606 0.4958
C20 C 0.0473(5) -0.2834(5) 0.5538(5)
H10 H -0.0243 -0.2754 0.5959
C21 C 0.1371(6) -0.3630(4) 0.5516(4)
H11 H 0.1276 -0.4094 0.5922
C22 C 0.2412(6) -0.3740(4) 0.4890(5)
H12 H 0.3035 -0.4275 0.4879
C23 C 0.2557(5) -0.3068(4) 0.4271(4)
H13 H 0.3252 -0.3175 0.3829
C24 C 0.1127(5) -0.2703(4) 0.0343(4)
C25 C 0.1668(6) -0.3779(4) -0.0013(4)
H14 H 0.2257 -0.3931 0.0532
C26 C 0.1346(8) -0.4626(5) -0.1164(5)
H15 H 0.1727 -0.5338 -0.1389
C27 C 0.0471(8) -0.4422(7) -0.1970(5)
H16 H 0.0246 -0.5002 -0.2742
C28 C -0.0086(7) -0.3357(7) -0.1648(5)
H17 H -0.0672 -0.3217 -0.2202
C29 C 0.0238(6) -0.2491(5) -0.0479(4)
H18 H -0.0139 -0.1779 -0.0256
N5 N 0.5567(6) 0.6579(4) 0.8714(4)
O1 O 0.5468(5) 0.5690(3) 0.6784(3)
C30 C 0.5894(10) 0.5861(7) 0.7761(8)
H19 H 0.6575 0.5403 0.7852
C31 C 0.6213(10) 0.6530(7) 0.9719(7)
H20 H 0.6949 0.6046 0.9563
H21 H 0.5498 0.6164 0.9984
H22 H 0.6639 0.7345 1.0305
C32 C 0.4626(9) 0.7316(9) 0.8760(11)
H23 H 0.5133 0.8113 0.8922
H24 H 0.4124 0.7385 0.9361
H25 H 0.3944 0.6982 0.8030
loop_
_geom_bond_atom_site_label_1
_geom_bond_atom_site_label_2
_geom_bond_site_symmetry_1
_geom_bond_site_symmetry_2
N1 C2 1_555 1_555
N2 H1 1_555 1_555
H2 N2 1_555 1_555
N3 C11 1_555 1_555
N4 C10 1_555 1_555
C1 C2 1_555 1_555
C2 C6 1_555 1_555
C3 N1 1_555 1_555
C4 C3 1_555 1_555
C5 C4 1_555 1_555
C6 C5 1_555 1_555
C7 C6 1_555 1_555
C8 C7 1_555 1_555
H3 C8 1_555 1_555
C9 C1 1_555 1_555
C10 C1 1_555 1_555
C11 C4 1_555 1_555
C12 C5 1_555 1_555
C13 C12 1_555 1_555
H4 C13 1_555 1_555
C14 C13 1_555 1_555
H5 C14 1_555 1_555
C15 C14 1_555 1_555
H6 C15 1_555 1_555
C16 C15 1_555 1_555
H7 C16 1_555 1_555
C17 C12 1_555 1_555
H8 C17 1_555 1_555
C18 C7 1_555 1_555
C19 C18 1_555 1_555
H9 C19 1_555 1_555
C20 C19 1_555 1_555
H10 C20 1_555 1_555
C21 C20 1_555 1_555
H11 C21 1_555 1_555
C22 C21 1_555 1_555
H12 C22 1_555 1_555
C23 C18 1_555 1_555
H13 C23 1_555 1_555
C24 C9 1_555 1_555
C25 C24 1_555 1_555
H14 C25 1_555 1_555
C26 C25 1_555 1_555
H15 C26 1_555 1_555
C27 C26 1_555 1_555
H16 C27 1_555 1_555
C28 C27 1_555 1_555
H17 C28 1_555 1_555
C29 C24 1_555 1_555
H18 C29 1_555 1_555
N5 C30 1_555 1_555
O1 C30 1_555 1_555
C30 H19 1_555 1_555
C31 N5 1_555 1_555
H20 C31 1_555 1_555
H21 C31 1_555 1_555
H22 C31 1_555 1_555
C32 N5 1_555 1_555
H23 C32 1_555 1_555
H24 C32 1_555 1_555
H25 C32 1_555 1_555
N2 C3 1_555 1_555
C8 C9 1_555 1_555
C16 C17 1_555 1_555
C22 C23 1_555 1_555
C28 C29 1_555 1_555

#END
