
#######################################################################
#
#                 Cambridge Crystallographic Data Centre
#                                CCDC 
#
#######################################################################
#
# If this CIF has been generated from an entry in the Cambridge 
# Structural Database, then it will include bibliographic, chemical, 
# crystal, experimental, refinement or atomic coordinate data resulting 
# from the CCDC's data processing and validation procedures.
#
#######################################################################

data_LANVEE
_chemical_formula_moiety         'C33 H40 N4 O1,2(C1 H4 O1)'
_chemical_name_systematic        
'(1,3-bis(2,6-di-isopropylphenyl)-2-phenyl-1H-imidazol-3-ium-5-yl)diazen-1-olate methanol solvate'
_symmetry_cell_setting           monoclinic
_symmetry_space_group_name_H-M   'P 21/n'
_symmetry_Int_Tables_number      14
_space_group_name_Hall           '-P 2yn'
loop_
_symmetry_equiv_pos_site_id
_symmetry_equiv_pos_as_xyz
1 x,y,z
2 1/2-x,1/2+y,1/2-z
3 -x,-y,-z
4 1/2+x,1/2-y,1/2+z
_cell_length_a                   15.0226(3)
_cell_length_b                   11.73248(17)
_cell_length_c                   19.0842(3)
_cell_angle_alpha                90
_cell_angle_beta                 105.0138(18)
_cell_angle_gamma                90
_cell_volume                     3248.81
_exptl_crystal_colour            yellow
_exptl_crystal_description       plate
_cell_formula_units_Z            4
_chemical_properties_physical    Heat-sensitive
loop_
_atom_site_label
_atom_site_type_symbol
_atom_site_fract_x
_atom_site_fract_y
_atom_site_fract_z
O1 O 0.68749(10) 0.29788(12) 0.46717(7)
N1 N 0.57916(8) 0.58287(10) 0.30965(6)
N2 N 0.45637(8) 0.50678(10) 0.24041(6)
N3 N 0.64501(9) 0.43589(11) 0.39227(7)
N4 N 0.62574(11) 0.33674(13) 0.41495(8)
C1 C 0.50645(10) 0.60262(12) 0.25201(7)
C2 C 0.57491(10) 0.47152(12) 0.33431(8)
C3 C 0.49678(11) 0.42461(12) 0.29086(8)
H1 H 0.474325 0.349739 0.294514
C4 C 0.48508(10) 0.70814(12) 0.20995(8)
C5 C 0.49660(10) 0.81406(13) 0.24447(8)
H2 H 0.520501 0.818297 0.295618
C6 C 0.47317(11) 0.91325(13) 0.20419(9)
H3 H 0.481662 0.985222 0.227802
C7 C 0.43737(11) 0.90752(13) 0.12947(9)
H4 H 0.420316 0.975356 0.102104
C8 C 0.42658(12) 0.80236(14) 0.09490(8)
H5 H 0.402503 0.798540 0.043759
C9 C 0.45075(11) 0.70268(13) 0.13460(8)
H6 H 0.443970 0.631040 0.110602
C10 C 0.64954(10) 0.66492(12) 0.34282(8)
C11 C 0.71385(11) 0.69689(14) 0.30491(9)
C12 C 0.77736(12) 0.78058(15) 0.33693(11)
H7 H 0.821989 0.805255 0.312908
C13 C 0.77651(13) 0.82830(16) 0.40307(11)
H8 H 0.819762 0.886095 0.423480
C14 C 0.71321(13) 0.79256(15) 0.43970(10)
H9 H 0.714379 0.825246 0.485471
C15 C 0.64773(11) 0.70941(13) 0.41066(8)
C16 C 0.57814(13) 0.67242(14) 0.45165(8)
H10 H 0.540199 0.609531 0.423448
C17 C 0.51286(16) 0.76998(17) 0.45767(11)
H11 H 0.548537 0.833687 0.484109
H12 H 0.468547 0.743450 0.483786
H13 H 0.479699 0.795273 0.408957
C18 C 0.62637(18) 0.6256(2) 0.52697(10)
H14 H 0.667209 0.562728 0.521934
H15 H 0.580043 0.597879 0.550773
H16 H 0.662688 0.686317 0.556328
C19 C 0.71725(12) 0.64433(16) 0.23276(9)
H17 H 0.663786 0.590941 0.217888
C20 C 0.70686(17) 0.7332(2) 0.17315(12)
H18 H 0.649715 0.776120 0.168805
H19 H 0.704711 0.695228 0.127007
H20 H 0.759465 0.785561 0.185235
C21 C 0.80495(15) 0.5741(2) 0.24014(12)
H21 H 0.858804 0.624347 0.253352
H22 H 0.802872 0.536590 0.193855
H23 H 0.809363 0.516252 0.277950
C22 C 0.36762(10) 0.49165(12) 0.18874(8)
C23 C 0.36268(11) 0.41837(12) 0.12972(8)
C24 C 0.27584(12) 0.40253(14) 0.08215(8)
H24 H 0.269061 0.352320 0.042051
C25 C 0.19944(12) 0.45908(14) 0.09266(9)
H25 H 0.140965 0.447436 0.059513
C26 C 0.20703(11) 0.53237(13) 0.15081(9)
H26 H 0.153900 0.571214 0.156599
C27 C 0.29179(10) 0.54990(12) 0.20103(8)
C28 C 0.29758(11) 0.62721(13) 0.26601(8)
H27 H 0.364206 0.638338 0.291129
C29 C 0.25572(13) 0.74453(14) 0.24236(10)
H28 H 0.286297 0.778283 0.207778
H29 H 0.264361 0.794137 0.284905
H30 H 0.189724 0.736206 0.219254
C30 C 0.25127(14) 0.57101(16) 0.31974(10)
H31 H 0.185058 0.563226 0.297287
H32 H 0.260840 0.618327 0.363383
H33 H 0.278226 0.495466 0.332985
C31 C 0.44706(12) 0.35956(13) 0.11636(9)
H34 H 0.503061 0.400054 0.145472
C32 C 0.44786(14) 0.36572(16) 0.03609(10)
H35 H 0.397866 0.318603 0.007110
H36 H 0.507078 0.337565 0.030556
H37 H 0.439145 0.444933 0.019425
C33 C 0.45305(13) 0.23465(14) 0.14111(10)
H38 H 0.456188 0.231258 0.192999
H39 H 0.508421 0.199580 0.132408
H40 H 0.398352 0.193380 0.113707
O2 O 0.50661(10) 0.15561(12) 0.34985(8)
H41 H 0.535596 0.214105 0.368349
C34 C 0.54483(15) 0.05828(16) 0.39096(10)
H42 H 0.521252 -0.010897 0.363638
H43 H 0.527488 0.058196 0.437056
H44 H 0.612132 0.060357 0.400572
O3 O 0.85630(12) 0.42015(14) 0.49429(8)
H45 H 0.800620 0.400784 0.484876
C35 C 0.86825(14) 0.49913(18) 0.44342(10)
H46 H 0.865735 0.460272 0.397488
H47 H 0.928242 0.536484 0.461010
H48 H 0.819203 0.556426 0.435811
loop_
_geom_bond_atom_site_label_1
_geom_bond_atom_site_label_2
_geom_bond_site_symmetry_1
_geom_bond_site_symmetry_2
O1 N4 1_555 1_555
N1 C1 1_555 1_555
N2 C1 1_555 1_555
N3 N4 1_555 1_555
C1 C4 1_555 1_555
C2 N1 1_555 1_555
C3 N2 1_555 1_555
H1 C3 1_555 1_555
C4 C5 1_555 1_555
C5 H2 1_555 1_555
C6 C5 1_555 1_555
H3 C6 1_555 1_555
C7 C6 1_555 1_555
H4 C7 1_555 1_555
C8 C7 1_555 1_555
H5 C8 1_555 1_555
C9 C4 1_555 1_555
H6 C9 1_555 1_555
C10 N1 1_555 1_555
C11 C10 1_555 1_555
C12 C11 1_555 1_555
H7 C12 1_555 1_555
C13 C12 1_555 1_555
H8 C13 1_555 1_555
C14 C13 1_555 1_555
H9 C14 1_555 1_555
C15 C10 1_555 1_555
C16 C15 1_555 1_555
H10 C16 1_555 1_555
C17 C16 1_555 1_555
H11 C17 1_555 1_555
H12 C17 1_555 1_555
H13 C17 1_555 1_555
C18 C16 1_555 1_555
H14 C18 1_555 1_555
H15 C18 1_555 1_555
H16 C18 1_555 1_555
C19 C11 1_555 1_555
H17 C19 1_555 1_555
C20 C19 1_555 1_555
H18 C20 1_555 1_555
H19 C20 1_555 1_555
H20 C20 1_555 1_555
C21 C19 1_555 1_555
H21 C21 1_555 1_555
H22 C21 1_555 1_555
H23 C21 1_555 1_555
C22 N2 1_555 1_555
C23 C22 1_555 1_555
C24 C23 1_555 1_555
H24 C24 1_555 1_555
C25 C24 1_555 1_555
H25 C25 1_555 1_555
C26 C25 1_555 1_555
H26 C26 1_555 1_555
C27 C22 1_555 1_555
C28 C27 1_555 1_555
H27 C28 1_555 1_555
C29 C28 1_555 1_555
H28 C29 1_555 1_555
H29 C29 1_555 1_555
H30 C29 1_555 1_555
C30 C28 1_555 1_555
H31 C30 1_555 1_555
H32 C30 1_555 1_555
H33 C30 1_555 1_555
C31 C23 1_555 1_555
H34 C31 1_555 1_555
C32 C31 1_555 1_555
H35 C32 1_555 1_555
H36 C32 1_555 1_555
H37 C32 1_555 1_555
C33 C31 1_555 1_555
H38 C33 1_555 1_555
H39 C33 1_555 1_555
H40 C33 1_555 1_555
O2 H41 1_555 1_555
C34 O2 1_555 1_555
H42 C34 1_555 1_555
H43 C34 1_555 1_555
H44 C34 1_555 1_555
O3 H45 1_555 1_555
C35 O3 1_555 1_555
H46 C35 1_555 1_555
H47 C35 1_555 1_555
H48 C35 1_555 1_555
N3 C2 1_555 1_555
C2 C3 1_555 1_555
C8 C9 1_555 1_555
C14 C15 1_555 1_555
C26 C27 1_555 1_555

#END
