
#######################################################################
#
#                 Cambridge Crystallographic Data Centre
#                                CCDC 
#
#######################################################################
#
# If this CIF has been generated from an entry in the Cambridge 
# Structural Database, then it will include bibliographic, chemical, 
# crystal, experimental, refinement or atomic coordinate data resulting 
# from the CCDC's data processing and validation procedures.
#
#######################################################################

data_LANVUT
_chemical_name_common            'Isopropyl gallate'
_chemical_formula_moiety         'C10 H12 O5'
_chemical_name_systematic        'Isopropyl 3,4,5-trihydroxybenzoate'
_symmetry_cell_setting           monoclinic
_symmetry_space_group_name_H-M   'P 21/c'
_symmetry_Int_Tables_number      14
_space_group_name_Hall           '-P 2ybc'
loop_
_symmetry_equiv_pos_site_id
_symmetry_equiv_pos_as_xyz
1 x,y,z
2 -x,1/2+y,1/2-z
3 -x,-y,-z
4 x,1/2-y,1/2+z
_cell_length_a                   19.148(6)
_cell_length_b                   4.7030(15)
_cell_length_c                   11.571(4)
_cell_angle_alpha                90
_cell_angle_beta                 90.159(5)
_cell_angle_gamma                90
_cell_volume                     1042
_exptl_crystal_colour            colorless
_exptl_crystal_description       block
_chemical_melting_point          '396 K'
_cell_formula_units_Z            4
loop_
_atom_site_label
_atom_site_type_symbol
_atom_site_fract_x
_atom_site_fract_y
_atom_site_fract_z
O1 O 0.46197(5) -0.0043(2) 0.24204(10)
H1 H 0.4823 -0.1535 0.2275
O2 O 0.45282(6) -0.3102(3) 0.04068(10)
H2 H 0.4449 -0.3814 -0.0227
O3 O 0.34242(6) -0.2621(3) -0.09898(9)
H3 H 0.3094 -0.2187 -0.1407
O4 O 0.23999(6) 0.5891(3) 0.25056(9)
O5 O 0.18797(6) 0.4562(3) 0.08655(10)
C1 C 0.35320(8) 0.2096(3) 0.20035(12)
H4 H 0.3564 0.3109 0.2692
C2 C 0.40505(7) 0.0233(3) 0.17032(13)
C3 C 0.40050(7) -0.1299(3) 0.06846(12)
C4 C 0.34216(8) -0.0952(3) -0.00283(12)
C5 C 0.29047(8) 0.0934(3) 0.02583(12)
H5 H 0.2522 0.1181 -0.0227
C6 C 0.29573(7) 0.2479(3) 0.12825(12)
C7 C 0.24087(8) 0.4472(3) 0.16310(13)
C8 C 0.13112(9) 0.6509(4) 0.10811(16)
H6 H 0.1488 0.8212 0.1473
C9 C 0.10338(12) 0.7293(5) -0.0096(2)
H7 H 0.1394 0.8223 -0.0530
H8 H 0.0643 0.8552 -0.0012
H9 H 0.0888 0.5603 -0.0495
C10 C 0.07847(11) 0.5047(6) 0.1831(2)
H10 H 0.0618 0.3367 0.1448
H11 H 0.0400 0.6308 0.1974
H12 H 0.0999 0.4529 0.2552
loop_
_geom_bond_atom_site_label_1
_geom_bond_atom_site_label_2
_geom_bond_site_symmetry_1
_geom_bond_site_symmetry_2
O1 H1 1_555 1_555
O2 H2 1_555 1_555
O3 H3 1_555 1_555
O4 C7 1_555 1_555
O5 C7 1_555 1_555
C1 H4 1_555 1_555
C2 O1 1_555 1_555
C3 O2 1_555 1_555
C4 O3 1_555 1_555
C5 C4 1_555 1_555
H5 C5 1_555 1_555
C6 C1 1_555 1_555
C7 C6 1_555 1_555
C8 O5 1_555 1_555
H6 C8 1_555 1_555
C9 C8 1_555 1_555
H7 C9 1_555 1_555
H8 C9 1_555 1_555
H9 C9 1_555 1_555
C10 C8 1_555 1_555
H10 C10 1_555 1_555
H11 C10 1_555 1_555
H12 C10 1_555 1_555
C1 C2 1_555 1_555
C2 C3 1_555 1_555
C3 C4 1_555 1_555
C5 C6 1_555 1_555

#END
