
#######################################################################
#
#                 Cambridge Crystallographic Data Centre
#                                CCDC 
#
#######################################################################
#
# If this CIF has been generated from an entry in the Cambridge 
# Structural Database, then it will include bibliographic, chemical, 
# crystal, experimental, refinement or atomic coordinate data resulting 
# from the CCDC's data processing and validation procedures.
#
#######################################################################

data_LANVON
_chemical_formula_moiety         'C17 H15 N3 O1 S1'
_chemical_name_systematic        
10-Ethyl-3-(5-methyl-1,3,4-oxadiazol-2-yl)-10H-phenothiazine
_symmetry_cell_setting           triclinic
_symmetry_space_group_name_H-M   'P -1'
_symmetry_Int_Tables_number      2
_space_group_name_Hall           '-P 1'
loop_
_symmetry_equiv_pos_site_id
_symmetry_equiv_pos_as_xyz
1 x,y,z
2 -x,-y,-z
_cell_length_a                   7.6752(4)
_cell_length_b                   8.2913(4)
_cell_length_c                   12.9469(8)
_cell_angle_alpha                84.870(4)
_cell_angle_beta                 82.569(4)
_cell_angle_gamma                63.696(3)
_cell_volume                     731.915
_exptl_crystal_colour            yellow
_exptl_crystal_description       block
_cell_formula_units_Z            2
loop_
_atom_site_label
_atom_site_type_symbol
_atom_site_fract_x
_atom_site_fract_y
_atom_site_fract_z
S1 S 0.37243(8) 0.17365(6) 0.11098(4)
O1 O 0.39396(19) 0.69128(15) -0.27750(9)
C1 C 0.2887(2) 0.3831(2) 0.04285(13)
N1 N 0.0965(2) 0.54971(18) 0.19818(11)
C2 C 0.3234(3) 0.5423(2) -0.11819(13)
C3 C 0.0893(3) 0.3994(2) 0.25572(13)
C4 C 0.1642(2) 0.5454(2) 0.09210(13)
C5 C 0.2039(3) 0.2227(2) 0.22245(13)
N2 N 0.5266(2) 0.3956(2) -0.27726(12)
C6 C 0.4168(3) 0.5350(2) -0.22376(13)
C7 C 0.3653(3) 0.3829(2) -0.05932(13)
H1 H 0.4470 0.2736 -0.0898
C8 C 0.1961(3) 0.7029(2) -0.07199(14)
H2 H 0.1633 0.8110 -0.1103
C9 C -0.0285(3) 0.4198(2) 0.34965(14)
H3 H -0.1070 0.5351 0.3734
C10 C 0.0098(3) 0.7238(2) 0.24919(15)
H4 H 0.0783 0.7936 0.2189
H5 H 0.0307 0.7016 0.3224
N3 N 0.5841(2) 0.4600(2) -0.37384(12)
C11 C 0.1174(3) 0.7040(2) 0.03038(14)
H6 H 0.0307 0.8133 0.0592
C12 C 0.1976(3) 0.0770(2) 0.28143(15)
H7 H 0.2731 -0.0388 0.2577
C13 C 0.5034(3) 0.6320(2) -0.36985(13)
C14 C -0.0320(3) 0.2730(3) 0.40882(15)
H8 H -0.1109 0.2908 0.4716
C15 C -0.2063(3) 0.8351(3) 0.24062(18)
H9 H -0.2300 0.8537 0.1685
H10 H -0.2488 0.9493 0.2713
H11 H -0.2773 0.7728 0.2766
C16 C 0.0812(3) 0.1007(3) 0.37469(16)
H12 H 0.0790 0.0020 0.4140
C17 C 0.5164(4) 0.7672(3) -0.44929(15)
H13 H 0.5952 0.8184 -0.4272
H14 H 0.3878 0.8606 -0.4578
H15 H 0.5748 0.7102 -0.5145
loop_
_geom_bond_atom_site_label_1
_geom_bond_atom_site_label_2
_geom_bond_site_symmetry_1
_geom_bond_site_symmetry_2
S1 C1 1_555 1_555
O1 C6 1_555 1_555
C1 C4 1_555 1_555
N1 C3 1_555 1_555
C2 C6 1_555 1_555
C3 C5 1_555 1_555
C4 N1 1_555 1_555
C5 S1 1_555 1_555
N2 C6 1_555 1_555
C7 C1 1_555 1_555
H1 C7 1_555 1_555
C8 C2 1_555 1_555
H2 C8 1_555 1_555
C9 C3 1_555 1_555
H3 C9 1_555 1_555
C10 N1 1_555 1_555
H4 C10 1_555 1_555
H5 C10 1_555 1_555
N3 N2 1_555 1_555
C11 C4 1_555 1_555
H6 C11 1_555 1_555
C12 C5 1_555 1_555
H7 C12 1_555 1_555
C13 O1 1_555 1_555
C14 C9 1_555 1_555
H8 C14 1_555 1_555
C15 C10 1_555 1_555
H9 C15 1_555 1_555
H10 C15 1_555 1_555
H11 C15 1_555 1_555
C16 C12 1_555 1_555
H12 C16 1_555 1_555
C17 C13 1_555 1_555
H13 C17 1_555 1_555
H14 C17 1_555 1_555
H15 C17 1_555 1_555
C2 C7 1_555 1_555
C8 C11 1_555 1_555
N3 C13 1_555 1_555
C14 C16 1_555 1_555

#END
