
#######################################################################
#
#                 Cambridge Crystallographic Data Centre
#                                CCDC 
#
#######################################################################
#
# If this CIF has been generated from an entry in the Cambridge 
# Structural Database, then it will include bibliographic, chemical, 
# crystal, experimental, refinement or atomic coordinate data resulting 
# from the CCDC's data processing and validation procedures.
#
#######################################################################

data_LAPCEL
_chemical_name_common            
"out,out-3',3''-diethyl (+-)-3',3''-(8H,16H-7,15-methanodinaphtho(2,1-b)(2',1'-f)(1,5)diazocin-3,11-diyldimethylene)-3'H,3''H-dicyclopropa(1,9:52,60)(C60-I$h!)(5,6)fullerene-3',3',3'',3''-tetracarboxylate dichloromethane solvate"
_chemical_formula_moiety         'C95 H30 N2 O8,2(C1 H2 Cl2)'
_chemical_name_systematic        
"out,out-3',3''-diethyl (+-)-3',3''-(8H,16H-7,15-methanodinaphtho(2,1-b)(2',1'-f)(1,5)diazocin-3,11-diyldimethylene)-3'H,3''H-dicyclopropa(1,9:52,60)(C60fullerene)-3',3',3'',3''-tetracarboxylate dichloromethane solvate"
_symmetry_cell_setting           orthorhombic
_symmetry_space_group_name_H-M   'P 21 21 21'
_symmetry_Int_Tables_number      19
_space_group_name_Hall           'P 2ac 2ab'
loop_
_symmetry_equiv_pos_site_id
_symmetry_equiv_pos_as_xyz
1 x,y,z
2 1/2-x,-y,1/2+z
3 -x,1/2+y,1/2-z
4 1/2+x,1/2-y,-z
_cell_length_a                   10.3913(13)
_cell_length_b                   23.387(8)
_cell_length_c                   25.186(7)
_cell_angle_alpha                90
_cell_angle_beta                 90
_cell_angle_gamma                90
_cell_volume                     6120.74
_exptl_crystal_colour            black
_cell_formula_units_Z            4
_exptl_crystal_recrystallization_method dichloromethane/chloroform
loop_
_atom_site_label
_atom_site_type_symbol
_atom_site_fract_x
_atom_site_fract_y
_atom_site_fract_z
C1 C 1.2477(7) 0.9073(3) 0.1161(3)
C2 C 1.1435(7) 0.8670(3) 0.0884(2)
C3 C 1.0468(7) 0.8415(3) 0.1238(3)
C4 C 1.0497(7) 0.8465(3) 0.1785(3)
C5 C 1.1438(7) 0.8835(3) 0.2039(2)
C6 C 1.2325(7) 0.9136(3) 0.1748(3)
C7 C 1.2574(7) 0.9728(3) 0.1876(3)
C8 C 1.2748(7) 1.0041(3) 0.1397(3)
C9 C 1.2579(8) 0.9660(3) 0.0947(3)
C10 C 1.1941(8) 0.9844(3) 0.0508(3)
C11 C 1.0985(9) 0.9471(3) 0.0251(2)
C12 C 1.0702(9) 0.8921(3) 0.0441(2)
C13 C 0.9397(9) 0.8731(4) 0.0480(3)
C14 C 0.9254(8) 0.8419(3) 0.0970(3)
C15 C 0.8080(8) 0.8450(3) 0.1255(4)
C16 C 0.8144(8) 0.8489(3) 0.1818(3)
C17 C 0.9327(7) 0.8509(3) 0.2089(3)
C18 C 0.9511(8) 0.8889(3) 0.2520(3)
C19 C 1.0837(8) 0.9100(3) 0.2494(2)
C20 C 1.1123(7) 0.9655(4) 0.2635(3)
C21 C 1.2005(7) 0.9979(3) 0.2320(3)
C22 C 1.1564(7) 1.0565(3) 0.2280(3)
C23 C 1.1693(8) 1.0867(3) 0.1823(4)
C24 C 1.2309(8) 1.0607(3) 0.1359(4)
C25 C 1.1638(8) 1.0800(3) 0.0888(4)
C26 C 1.1432(9) 1.0415(3) 0.0474(3)
C27 C 1.0213(11) 1.0409(4) 0.0203(3)
C28 C 0.9904(10) 0.9820(4) 0.0064(2)
C29 C 0.8686(10) 0.9631(4) 0.0086(3)
C30 C 0.8378(9) 0.9077(4) 0.0296(3)
C31 C 0.7203(9) 0.9098(4) 0.0594(3)
C32 C 0.7065(8) 0.8806(3) 0.1059(4)
C33 C 0.6445(8) 0.9067(3) 0.1514(4)
C34 C 0.7093(8) 0.8870(3) 0.1998(4)
C35 C 0.7332(8) 0.9258(3) 0.2414(3)
C36 C 0.8532(8) 0.9266(3) 0.2680(3)
C37 C 0.8848(7) 0.9852(3) 0.2816(2)
C38 C 1.0095(8) 1.0038(3) 0.2798(2)
C39 C 1.0356(7) 1.0594(3) 0.2579(3)
C40 C 0.9346(7) 1.0929(3) 0.2390(3)
C41 C 0.9485(8) 1.1260(3) 0.1909(3)
C42 C 1.0660(8) 1.1227(3) 0.1618(4)
C43 C 1.0612(9) 1.1180(3) 0.1057(4)
C44 C 0.9427(10) 1.1171(3) 0.0795(3)
C45 C 0.9204(10) 1.0771(4) 0.0358(3)
C46 C 0.7905(10) 1.0566(4) 0.0387(3)
C47 C 0.7610(9) 1.0009(4) 0.0250(3)
C48 C 0.6746(8) 0.9689(4) 0.0566(3)
C49 C 0.6154(8) 0.9948(4) 0.0996(3)
C50 C 0.5996(7) 0.9624(3) 0.1493(3)
C51 C 0.6181(7) 1.0005(3) 0.1934(3)
C52 C 0.6845(7) 0.9838(3) 0.2379(3)
C53 C 0.7777(7) 1.0200(3) 0.2632(2)
C54 C 0.8037(7) 1.0739(3) 0.2427(3)
C55 C 0.7284(7) 1.1006(3) 0.1986(3)
C56 C 0.8262(8) 1.1267(3) 0.1632(3)
C57 C 0.8215(8) 1.1214(3) 0.1090(3)
C58 C 0.7275(9) 1.0833(4) 0.0839(3)
C59 C 0.6415(8) 1.0539(3) 0.1128(3)
C60 C 0.6260(7) 1.0601(3) 0.1722(3)
C61 C 1.2872(7) 0.8510(3) 0.0907(3)
O1 O 1.2631(6) 0.7571(2) 0.1296(3)
C62 C 1.3180(8) 0.8019(3) 0.1281(3)
O2 O 1.4170(5) 0.8160(2) 0.15966(19)
C63 C 1.4468(9) 0.7780(3) 0.2042(3)
H1 H 1.5394 0.7787 0.2115
H2 H 1.4225 0.7386 0.1953
C64 C 1.3743(9) 0.7972(3) 0.2521(3)
C65 C 1.4078(8) 0.8491(3) 0.2748(3)
H3 H 1.4773 0.8699 0.2607
C66 C 1.3402(8) 0.8714(3) 0.3184(3)
C67 C 1.2394(8) 0.8397(3) 0.3410(3)
C68 C 1.2061(9) 0.7859(3) 0.3169(3)
H4 H 1.1389 0.7638 0.3312
C69 C 1.2716(9) 0.7666(3) 0.2735(3)
H5 H 1.2469 0.7319 0.2576
C70 C 1.3663(9) 0.9255(4) 0.3375(3)
H6 H 1.4273 0.9483 0.3200
C71 C 1.3060(9) 0.9462(4) 0.3810(4)
H7 H 1.3288 0.9824 0.3943
C72 C 1.2087(8) 0.9141(3) 0.4070(3)
C73 C 1.1708(8) 0.8626(3) 0.3857(3)
N1 N 1.1534(7) 0.9365(3) 0.4542(2)
C74 C 1.0847(9) 0.8923(4) 0.4832(3)
H8 H 1.0414 0.9094 0.5139
H9 H 1.1463 0.8639 0.4964
N2 N 0.9895(7) 0.8640(3) 0.4495(2)
C75 C 1.0570(8) 0.8320(3) 0.4090(3)
H10 H 0.9965 0.8228 0.3804
H11 H 1.0864 0.7957 0.4244
C76 C 1.0645(8) 0.9832(3) 0.4442(3)
H12 H 1.1006 1.0081 0.4166
H13 H 1.0550 1.0060 0.4766
C77 C 0.9338(8) 0.9626(3) 0.4266(3)
C78 C 0.9028(8) 0.9053(3) 0.4285(3)
C79 C 0.8404(7) 1.0031(3) 0.4086(2)
C80 C 0.7165(7) 0.9836(3) 0.3919(2)
C81 C 0.6929(9) 0.9249(4) 0.3933(3)
H14 H 0.6126 0.9112 0.3817
C82 C 0.7829(9) 0.8865(4) 0.4110(3)
H15 H 0.7636 0.8472 0.4112
C83 C 0.8667(8) 1.0631(3) 0.4065(3)
H16 H 0.9470 1.0772 0.4176
C84 C 0.7736(9) 1.1000(3) 0.3881(3)
H17 H 0.7917 1.1394 0.3868
C85 C 0.6549(8) 1.0811(3) 0.3715(3)
C86 C 0.6263(8) 1.0236(3) 0.3746(3)
H18 H 0.5438 1.0111 0.3648
C87 C 0.5576(9) 1.1231(3) 0.3494(3)
H19 H 0.4708 1.1070 0.3523
H20 H 0.5602 1.1586 0.3700
O3 O 0.5867(5) 1.1352(2) 0.29395(18)
C88 C 0.5299(7) 1.1024(3) 0.2583(3)
O4 O 0.4446(6) 1.0692(3) 0.2677(2)
C89 C 0.5852(7) 1.1127(3) 0.2035(3)
C90 C 0.5295(8) 1.1613(3) 0.1717(3)
O5 O 0.5655(7) 1.1748(3) 0.1286(2)
O6 O 0.4306(5) 1.1851(2) 0.1979(2)
C91 C 0.3638(10) 1.2305(4) 0.1674(4)
H21 H 0.4254 1.2604 0.1576
H22 H 0.3282 1.2142 0.1347
C92 C 0.2589(11) 1.2556(5) 0.1994(5)
H23 H 0.2154 1.2848 0.1789
H24 H 0.2945 1.2724 0.2314
H25 H 0.1979 1.2259 0.2090
C93 C 1.3662(8) 0.8524(4) 0.0405(3)
O7 O 1.3595(9) 0.8878(3) 0.0083(3)
O8 O 1.4414(6) 0.8068(2) 0.0386(2)
C94 C 1.5249(10) 0.8017(4) -0.0080(3)
H26 H 1.4740 0.7895 -0.0388
H27 H 1.5633 0.8390 -0.0162
C95 C 1.6253(11) 0.7605(5) 0.0024(5)
H28 H 1.6807 0.7575 -0.0285
H29 H 1.5869 0.7236 0.0098
H30 H 1.6756 0.7729 0.0327
C96 C 1.1208(18) 1.2539(6) -0.0278(5)
H31 H 1.1666 1.2700 -0.0584
H32 H 1.0551 1.2815 -0.0169
Cl1 Cl 1.0443(5) 1.18970(18) -0.04653(16)
Cl2 Cl 1.2230(7) 1.2422(3) 0.0229(3)
C97 C 1.1891(19) 1.1636(7) 0.3346(6)
Cl4 Cl 1.1976(13) 1.1021(5) 0.3707(5)
Cl7 Cl 1.3010(15) 1.2121(5) 0.3445(9)
Cl3? Cl 1.0363(4) 1.19845(14) 0.33225(19)
Cl5? Cl 1.2117(13) 1.1227(5) 0.3949(7)
Cl6? Cl 1.290(2) 1.2048(9) 0.3732(9)
loop_
_geom_bond_atom_site_label_1
_geom_bond_atom_site_label_2
_geom_bond_site_symmetry_1
_geom_bond_site_symmetry_2
C1 C2 1_555 1_555
C2 C3 1_555 1_555
C3 C4 1_555 1_555
C4 C5 1_555 1_555
C5 C6 1_555 1_555
C6 C1 1_555 1_555
C7 C6 1_555 1_555
C8 C7 1_555 1_555
C9 C1 1_555 1_555
C10 C9 1_555 1_555
C11 C10 1_555 1_555
C12 C2 1_555 1_555
C13 C12 1_555 1_555
C14 C3 1_555 1_555
C15 C14 1_555 1_555
C16 C15 1_555 1_555
C17 C4 1_555 1_555
C18 C17 1_555 1_555
C19 C5 1_555 1_555
C20 C19 1_555 1_555
C21 C7 1_555 1_555
C22 C21 1_555 1_555
C23 C22 1_555 1_555
C24 C8 1_555 1_555
C25 C24 1_555 1_555
C26 C10 1_555 1_555
C27 C26 1_555 1_555
C28 C11 1_555 1_555
C29 C28 1_555 1_555
C30 C13 1_555 1_555
C31 C30 1_555 1_555
C32 C15 1_555 1_555
C33 C32 1_555 1_555
C34 C16 1_555 1_555
C35 C34 1_555 1_555
C36 C18 1_555 1_555
C37 C36 1_555 1_555
C38 C20 1_555 1_555
C39 C22 1_555 1_555
C40 C39 1_555 1_555
C41 C40 1_555 1_555
C42 C23 1_555 1_555
C43 C25 1_555 1_555
C44 C43 1_555 1_555
C45 C27 1_555 1_555
C46 C45 1_555 1_555
C47 C29 1_555 1_555
C48 C31 1_555 1_555
C49 C48 1_555 1_555
C50 C33 1_555 1_555
C51 C50 1_555 1_555
C52 C35 1_555 1_555
C53 C37 1_555 1_555
C54 C40 1_555 1_555
C55 C54 1_555 1_555
C56 C41 1_555 1_555
C57 C44 1_555 1_555
C58 C46 1_555 1_555
C59 C49 1_555 1_555
C60 C51 1_555 1_555
C61 C1 1_555 1_555
O1 C62 1_555 1_555
C62 C61 1_555 1_555
O2 C62 1_555 1_555
C63 O2 1_555 1_555
H1 C63 1_555 1_555
H2 C63 1_555 1_555
C64 C63 1_555 1_555
C65 C64 1_555 1_555
H3 C65 1_555 1_555
C66 C65 1_555 1_555
C67 C66 1_555 1_555
C68 C67 1_555 1_555
H4 C68 1_555 1_555
C69 C64 1_555 1_555
H5 C69 1_555 1_555
C70 C66 1_555 1_555
H6 C70 1_555 1_555
C71 C70 1_555 1_555
H7 C71 1_555 1_555
C72 C71 1_555 1_555
C73 C67 1_555 1_555
N1 C72 1_555 1_555
C74 N1 1_555 1_555
H8 C74 1_555 1_555
H9 C74 1_555 1_555
N2 C74 1_555 1_555
C75 C73 1_555 1_555
H10 C75 1_555 1_555
H11 C75 1_555 1_555
C76 N1 1_555 1_555
H12 C76 1_555 1_555
H13 C76 1_555 1_555
C77 C76 1_555 1_555
C78 N2 1_555 1_555
C79 C77 1_555 1_555
C80 C79 1_555 1_555
C81 C80 1_555 1_555
H14 C81 1_555 1_555
C82 C78 1_555 1_555
H15 C82 1_555 1_555
C83 C79 1_555 1_555
H16 C83 1_555 1_555
C84 C83 1_555 1_555
H17 C84 1_555 1_555
C85 C84 1_555 1_555
C86 C80 1_555 1_555
H18 C86 1_555 1_555
C87 C85 1_555 1_555
H19 C87 1_555 1_555
H20 C87 1_555 1_555
O3 C87 1_555 1_555
C88 O3 1_555 1_555
O4 C88 1_555 1_555
C89 C55 1_555 1_555
C90 C89 1_555 1_555
O5 C90 1_555 1_555
O6 C90 1_555 1_555
C91 O6 1_555 1_555
H21 C91 1_555 1_555
H22 C91 1_555 1_555
C92 C91 1_555 1_555
H23 C92 1_555 1_555
H24 C92 1_555 1_555
H25 C92 1_555 1_555
C93 C61 1_555 1_555
O7 C93 1_555 1_555
O8 C93 1_555 1_555
C94 O8 1_555 1_555
H26 C94 1_555 1_555
H27 C94 1_555 1_555
C95 C94 1_555 1_555
H28 C95 1_555 1_555
H29 C95 1_555 1_555
H30 C95 1_555 1_555
C96 H31 1_555 1_555
H32 C96 1_555 1_555
Cl1 C96 1_555 1_555
Cl2 C96 1_555 1_555
C97 Cl4 1_555 1_555
Cl7 C97 1_555 1_555
C2 C61 1_555 1_555
C8 C9 1_555 1_555
C11 C12 1_555 1_555
C13 C14 1_555 1_555
C16 C17 1_555 1_555
C18 C19 1_555 1_555
C20 C21 1_555 1_555
C23 C24 1_555 1_555
C25 C26 1_555 1_555
C27 C28 1_555 1_555
C29 C30 1_555 1_555
C31 C32 1_555 1_555
C33 C34 1_555 1_555
C35 C36 1_555 1_555
C37 C38 1_555 1_555
C38 C39 1_555 1_555
C41 C42 1_555 1_555
C42 C43 1_555 1_555
C44 C45 1_555 1_555
C46 C47 1_555 1_555
C47 C48 1_555 1_555
C49 C50 1_555 1_555
C51 C52 1_555 1_555
C52 C53 1_555 1_555
C53 C54 1_555 1_555
C55 C56 1_555 1_555
C55 C60 1_555 1_555
C56 C57 1_555 1_555
C57 C58 1_555 1_555
C58 C59 1_555 1_555
C59 C60 1_555 1_555
C60 C89 1_555 1_555
C68 C69 1_555 1_555
C72 C73 1_555 1_555
N2 C75 1_555 1_555
C77 C78 1_555 1_555
C81 C82 1_555 1_555
C85 C86 1_555 1_555
C88 C89 1_555 1_555

#END
