
#######################################################################
#
#                 Cambridge Crystallographic Data Centre
#                                CCDC 
#
#######################################################################
#
# If this CIF has been generated from an entry in the Cambridge 
# Structural Database, then it will include bibliographic, chemical, 
# crystal, experimental, refinement or atomic coordinate data resulting 
# from the CCDC's data processing and validation procedures.
#
#######################################################################

data_LAPCAH
_chemical_formula_moiety         'C29 H34 N2 O8'
_chemical_name_systematic        
"(+-)-1,1'-diethyl 3,3'-(4,10-dimethyl-6H,12H-5,11-methanodibenzo(b,f)(1,5)diazocine-1,7-diyl)dimethylene dimalonate"
_symmetry_cell_setting           triclinic
_symmetry_space_group_name_H-M   'P -1'
_symmetry_Int_Tables_number      2
_space_group_name_Hall           '-P 1'
loop_
_symmetry_equiv_pos_site_id
_symmetry_equiv_pos_as_xyz
1 x,y,z
2 -x,-y,-z
_cell_length_a                   8.3728(2)
_cell_length_b                   12.3137(2)
_cell_length_c                   13.8593(3)
_cell_angle_alpha                106.060(1)
_cell_angle_beta                 97.703(1)
_cell_angle_gamma                98.613(1)
_cell_volume                     1334.29
_exptl_crystal_colour            colorless
_chemical_melting_point          '92-93.5 deg.C'
_cell_formula_units_Z            2
loop_
_atom_site_label
_atom_site_type_symbol
_atom_site_fract_x
_atom_site_fract_y
_atom_site_fract_z
C1 C 0.1289(2) 0.11416(14) -0.02492(15)
H1 H 0.0266 0.1111 -0.0038
C2 C 0.2724(2) 0.16104(13) 0.04786(13)
C3 C 0.42357(18) 0.16663(12) 0.01388(12)
C4 C 0.42985(18) 0.12355(12) -0.08999(12)
C5 C 0.2828(2) 0.07512(13) -0.16174(13)
C6 C 0.1341(2) 0.07207(14) -0.12762(15)
H2 H 0.0353 0.0409 -0.1751
N1 N 0.57190(16) 0.21678(11) 0.08934(10)
C7 C 0.6049(2) 0.34387(13) 0.12104(12)
H3 H 0.6768 0.3731 0.1883
H4 H 0.5010 0.3701 0.1281
C8 C 0.68445(17) 0.39529(12) 0.04727(11)
C9 C 0.74041(17) 0.32502(13) -0.03388(12)
N2 N 0.73129(15) 0.20439(11) -0.04540(10)
C10 C 0.59438(19) 0.12964(14) -0.12553(13)
H5 H 0.6176 0.0518 -0.1475
H6 H 0.5870 0.1587 -0.1847
C11 C 0.71442(19) 0.17915(14) 0.05006(13)
H7 H 0.8140 0.2179 0.1012
H8 H 0.7034 0.0960 0.0387
C12 C 0.70343(19) 0.51443(13) 0.06097(12)
C13 C 0.7777(2) 0.55994(14) -0.00716(14)
H9 H 0.7927 0.6396 0.0020
C14 C 0.8295(2) 0.48916(16) -0.08800(14)
H10 H 0.8783 0.5218 -0.1334
C15 C 0.81164(18) 0.37104(15) -0.10416(12)
C16 C 0.8709(2) 0.29690(19) -0.19230(15)
H11 H 0.8496 0.2175 -0.1917
H12 H 0.9880 0.3231 -0.1863
H13 H 0.8133 0.3023 -0.2559
C17 C 0.2646(3) 0.20086(18) 0.15957(16)
H14 H 0.3750 0.2303 0.1992
H15 H 0.2127 0.1366 0.1795
H16 H 0.2010 0.2614 0.1722
C18 C 0.6372(2) 0.59235(14) 0.14260(13)
H17 H 0.6458 0.6687 0.1327
H18 H 0.5209 0.5611 0.1386
O1 O 0.73037(14) 0.60240(10) 0.24286(9)
C19 C 0.6800(2) 0.66960(14) 0.32186(14)
O2 O 0.56611(17) 0.71712(12) 0.31407(11)
C20 C 0.7852(3) 0.6752(2) 0.42123(15)
H19 H 0.7653 0.5995 0.4324
H20 H 0.9015 0.6946 0.4172
C21 C 0.7475(3) 0.7634(3) 0.50905(16)
O3 O 0.6754(3) 0.7432(3) 0.57293(16)
O4 O 0.8080(2) 0.86905(18) 0.50894(13)
C22 C 0.7768(5) 0.9633(4) 0.5901(3)
H21 H 0.8747 1.0250 0.6152
H22 H 0.7527 0.9348 0.6470
C23 C 0.6290(7) 1.0100(4) 0.5502(4)
C24 C 0.2836(2) 0.03265(15) -0.27433(14)
H23 H 0.1709 0.0184 -0.3119
H24 H 0.3496 0.0930 -0.2939
O5 O 0.34877(15) -0.07224(10) -0.30414(9)
C25 C 0.2424(2) -0.17071(16) -0.32126(15)
O6 O 0.1037(2) -0.17581(14) -0.30730(17)
C26 C 0.3173(3) -0.27393(17) -0.36078(15)
H25 H 0.2826 -0.3323 -0.3280
H26 H 0.4373 -0.2512 -0.3428
C27 C 0.2672(2) -0.32495(15) -0.47474(14)
O7 O 0.2043(2) -0.27838(13) -0.53036(12)
O8 O 0.3050(2) -0.42886(12) -0.50516(11)
C28 C 0.2718(3) -0.4869(2) -0.61498(18)
H27 H 0.3436 -0.5429 -0.6309
H28 H 0.2958 -0.4302 -0.6513
C29 C 0.0964(3) -0.5473(2) -0.65002(18)
H29 H 0.0760 -0.5845 -0.7232
H30 H 0.0255 -0.4918 -0.6342
H31 H 0.0736 -0.6049 -0.6154
C30? C 0.8219(12) 1.0568(5) 0.5795(5)
loop_
_geom_bond_atom_site_label_1
_geom_bond_atom_site_label_2
_geom_bond_site_symmetry_1
_geom_bond_site_symmetry_2
C1 H1 1_555 1_555
C2 C1 1_555 1_555
C3 C2 1_555 1_555
C4 C3 1_555 1_555
C5 C4 1_555 1_555
C6 C1 1_555 1_555
H2 C6 1_555 1_555
N1 C3 1_555 1_555
C7 N1 1_555 1_555
H3 C7 1_555 1_555
H4 C7 1_555 1_555
C8 C7 1_555 1_555
C9 C8 1_555 1_555
N2 C9 1_555 1_555
C10 C4 1_555 1_555
H5 C10 1_555 1_555
H6 C10 1_555 1_555
C11 N1 1_555 1_555
H7 C11 1_555 1_555
H8 C11 1_555 1_555
C12 C8 1_555 1_555
C13 C12 1_555 1_555
H9 C13 1_555 1_555
C14 C13 1_555 1_555
H10 C14 1_555 1_555
C15 C9 1_555 1_555
C16 C15 1_555 1_555
H11 C16 1_555 1_555
H12 C16 1_555 1_555
H13 C16 1_555 1_555
C17 C2 1_555 1_555
H14 C17 1_555 1_555
H15 C17 1_555 1_555
H16 C17 1_555 1_555
C18 C12 1_555 1_555
H17 C18 1_555 1_555
H18 C18 1_555 1_555
O1 C18 1_555 1_555
C19 O1 1_555 1_555
O2 C19 1_555 1_555
C20 C19 1_555 1_555
H19 C20 1_555 1_555
H20 C20 1_555 1_555
C21 C20 1_555 1_555
O3 C21 1_555 1_555
O4 C21 1_555 1_555
C22 O4 1_555 1_555
H21 C22 1_555 1_555
H22 C22 1_555 1_555
C23 C22 1_555 1_555
C24 C5 1_555 1_555
H23 C24 1_555 1_555
H24 C24 1_555 1_555
O5 C24 1_555 1_555
C25 O5 1_555 1_555
O6 C25 1_555 1_555
C26 C25 1_555 1_555
H25 C26 1_555 1_555
H26 C26 1_555 1_555
C27 C26 1_555 1_555
O7 C27 1_555 1_555
O8 C27 1_555 1_555
C28 O8 1_555 1_555
H27 C28 1_555 1_555
H28 C28 1_555 1_555
C29 C28 1_555 1_555
H29 C29 1_555 1_555
H30 C29 1_555 1_555
H31 C29 1_555 1_555
C5 C6 1_555 1_555
N2 C10 1_555 1_555
N2 C11 1_555 1_555
C14 C15 1_555 1_555

#END
