
#######################################################################
#
#                 Cambridge Crystallographic Data Centre
#                                CCDC 
#
#######################################################################
#
# If this CIF has been generated from an entry in the Cambridge 
# Structural Database, then it will include bibliographic, chemical, 
# crystal, experimental, refinement or atomic coordinate data resulting 
# from the CCDC's data processing and validation procedures.
#
#######################################################################

data_LAPDEO01
_chemical_name_common            'methylprednisoloni aceponas'
_chemical_formula_moiety         'C27 H36 O7'
_chemical_name_systematic        
'21-acetoxy-11-hydroxy-6-methyl-3,20-dioxopregna-1,4-dien-17-yl propionate'
_symmetry_cell_setting           orthorhombic
_symmetry_space_group_name_H-M   'P 21 21 21'
_symmetry_Int_Tables_number      19
_space_group_name_Hall           'P 2ac 2ab'
loop_
_symmetry_equiv_pos_site_id
_symmetry_equiv_pos_as_xyz
1 x,y,z
2 1/2-x,-y,1/2+z
3 -x,1/2+y,1/2-z
4 1/2+x,1/2-y,-z
_cell_length_a                   6.57348(14)
_cell_length_b                   14.8295(3)
_cell_length_c                   26.2214(5)
_cell_angle_alpha                90
_cell_angle_beta                 90
_cell_angle_gamma                90
_cell_volume                     2556.1
_exptl_crystal_colour            colorless
_exptl_crystal_description       prism
_cell_formula_units_Z            4
loop_
_atom_site_label
_atom_site_type_symbol
_atom_site_fract_x
_atom_site_fract_y
_atom_site_fract_z
C1 C 0.6919(5) -0.23203(17) 0.25254(10)
C2 C 0.6273(5) -0.31732(17) 0.25530(11)
C3 C 0.7368(5) -0.38891(17) 0.22898(11)
C4 C 0.9260(5) -0.36395(17) 0.20375(11)
C5 C 0.9923(4) -0.27871(16) 0.20079(10)
C6 C 0.8758(4) -0.20136(16) 0.22471(10)
C7 C 1.0142(5) -0.15371(18) 0.26472(11)
H1 H 0.9396 -0.1059 0.2809
H2 H 1.1317 -0.1292 0.248
H3 H 1.0566 -0.1966 0.29
C8 C 1.1829(4) -0.25156(18) 0.17192(12)
C9 C 1.1251(5) -0.18166(18) 0.13082(11)
C10 C 0.9964(4) -0.10274(17) 0.14940(10)
C11 C 0.8103(4) -0.13865(16) 0.17890(10)
C12 C 0.6455(4) -0.06829(16) 0.19219(9)
C13 C 0.5921(4) -0.00702(16) 0.14651(9)
C14 C 0.7805(4) 0.03139(15) 0.12007(9)
C15 C 0.9190(4) -0.04752(17) 0.10427(10)
C16 C 1.0726(4) -0.00446(19) 0.06746(11)
C17 C 0.9564(4) 0.0762(2) 0.04274(12)
C18 C 0.7429(4) 0.07500(16) 0.06668(9)
C19 C 0.8917(4) 0.10019(16) 0.15393(10)
H4 H 0.8031 0.1502 0.1609
H5 H 1.0112 0.1214 0.1366
H6 H 0.9303 0.072 0.1854
C20 C 1.3013(5) -0.32982(19) 0.14870(13)
H7 H 1.3375 -0.3718 0.175
H8 H 1.4226 -0.3073 0.1328
H9 H 1.2185 -0.3596 0.1237
C21 C 0.6215(4) 0.16362(17) 0.07002(9)
C22 C 0.7349(5) 0.25149(19) 0.06153(12)
C23 C 0.5572(5) 0.34441(18) 0.11834(11)
C24 C 0.4108(7) 0.4219(2) 0.12265(13)
H10 H 0.3797 0.4444 0.0892
H11 H 0.288 0.4017 0.1388
H12 H 0.4712 0.4691 0.1426
C25 C 0.5544(4) 0.0353(2) -0.00846(10)
C26 C 0.4490(6) -0.0396(3) -0.03557(12)
C27 C 0.4630(9) -0.1267(3) -0.01844(19)
H13 H 0.6021 -0.1461 -0.02
H14 H 0.3808 -0.1651 -0.0395
H15 H 0.4158 -0.1298 0.0162
O1 O 0.6729(3) -0.46773(12) 0.22765(9)
O2 O 0.7037(3) -0.01788(11) 0.23621(6)
H16 H 0.6151 0.0193 0.2428
O3 O 0.4431(3) 0.16248(12) 0.07983(7)
O4 O 0.6052(3) 0.32770(11) 0.06903(7)
O5 O 0.5820(3) 0.10935(14) -0.02605(7)
O6 O 0.6250(4) 0.30209(13) 0.15329(7)
O7 O 0.6174(3) 0.01026(11) 0.03858(6)
H17 H 1.007(4) -0.4114(14) 0.1903(10)
H18 H 1.273(5) -0.2257(19) 0.1957(10)
H19 H 0.744(4) -0.1796(16) 0.1550(9)
H20 H 0.847(5) 0.2520(19) 0.0838(11)
H21 H 0.524(4) -0.1015(17) 0.1993(9)
H22 H 0.502(4) 0.0411(17) 0.1587(9)
H23 H 0.774(4) 0.2548(19) 0.0246(10)
H24 H 0.514(4) -0.0406(17) 0.1202(9)
H25 H 0.947(4) 0.0702(18) 0.0059(11)
H26 H 1.078(4) -0.0663(16) 0.1713(9)
H27 H 1.046(4) -0.2140(17) 0.1036(10)
H28 H 1.242(4) -0.1593(19) 0.1148(10)
H29 H 0.506(5) -0.3313(19) 0.2730(11)
H30 H 1.027(5) 0.133(2) 0.0526(11)
H31 H 0.617(5) -0.1884(19) 0.2696(11)
H32 H 0.832(4) -0.0881(17) 0.0836(10)
H33 H 1.183(3) 0.0198(19) 0.0863(10)
H34 H 1.116(5) -0.0483(14) 0.0434(8)
H35 H 0.3119(9) -0.0203(4) -0.0320(13)
H36 H 0.483(4) -0.025(2) -0.06980(17)
H37? H 0.3796 0.4324 0.1579
H38? H 0.4712 0.4751 0.1083
H39? H 0.2881 0.4077 0.1045
C28? C 0.3335(16) -0.0350(6) -0.0763(3)
H40? H 0.4059 -0.0049 -0.1031
H41? H 0.2118 -0.0021 -0.0684
H42? H 0.2982 -0.0949 -0.0872
H43? H 0.5728(12) -0.066(2) -0.0468(9)
H44? H 0.418(6) -0.0707(8) -0.0049(3)
loop_
_geom_bond_atom_site_label_1
_geom_bond_atom_site_label_2
_geom_bond_site_symmetry_1
_geom_bond_site_symmetry_2
C1 C2 1_555 1_555
C2 C3 1_555 1_555
C3 C4 1_555 1_555
C4 C5 1_555 1_555
C5 C6 1_555 1_555
C6 C1 1_555 1_555
C7 C6 1_555 1_555
H1 C7 1_555 1_555
H2 C7 1_555 1_555
H3 C7 1_555 1_555
C8 C5 1_555 1_555
C9 C8 1_555 1_555
C10 C9 1_555 1_555
C11 C6 1_555 1_555
C12 C11 1_555 1_555
C13 C12 1_555 1_555
C14 C13 1_555 1_555
C15 C10 1_555 1_555
C16 C15 1_555 1_555
C17 C16 1_555 1_555
C18 C14 1_555 1_555
C19 C14 1_555 1_555
H4 C19 1_555 1_555
H5 C19 1_555 1_555
H6 C19 1_555 1_555
C20 C8 1_555 1_555
H7 C20 1_555 1_555
H8 C20 1_555 1_555
H9 C20 1_555 1_555
C21 C18 1_555 1_555
C22 C21 1_555 1_555
C23 C24 1_555 1_555
C24 H10 1_555 1_555
H11 C24 1_555 1_555
H12 C24 1_555 1_555
C25 C26 1_555 1_555
C26 C27 1_555 1_555
C27 H13 1_555 1_555
H14 C27 1_555 1_555
H15 C27 1_555 1_555
O1 C3 1_555 1_555
O2 C12 1_555 1_555
H16 O2 1_555 1_555
O3 C21 1_555 1_555
O4 C22 1_555 1_555
O5 C25 1_555 1_555
O6 C23 1_555 1_555
O7 C18 1_555 1_555
H17 C4 1_555 1_555
H18 C8 1_555 1_555
H19 C11 1_555 1_555
H20 C22 1_555 1_555
H21 C12 1_555 1_555
H22 C13 1_555 1_555
H23 C22 1_555 1_555
H24 C13 1_555 1_555
H25 C17 1_555 1_555
H26 C10 1_555 1_555
H27 C9 1_555 1_555
H28 C9 1_555 1_555
H29 C2 1_555 1_555
H30 C17 1_555 1_555
H31 C1 1_555 1_555
H32 C15 1_555 1_555
H33 C16 1_555 1_555
H34 C16 1_555 1_555
H35 C26 1_555 1_555
H36 C26 1_555 1_555
C10 C11 1_555 1_555
C14 C15 1_555 1_555
C17 C18 1_555 1_555
C23 O4 1_555 1_555
C25 O7 1_555 1_555

#END
