
#######################################################################
#
#                 Cambridge Crystallographic Data Centre
#                                CCDC 
#
#######################################################################
#
# If this CIF has been generated from an entry in the Cambridge 
# Structural Database, then it will include bibliographic, chemical, 
# crystal, experimental, refinement or atomic coordinate data resulting 
# from the CCDC's data processing and validation procedures.
#
#######################################################################

data_LAPDEO
_chemical_name_common            'methylprednisoloni aceponas'
_chemical_formula_moiety         'C27 H36 O7'
_chemical_name_systematic        
'21-acetoxy-11-hydroxy-6-methyl-3,20-dioxopregna-1,4-dien-17-yl propionate'
_symmetry_cell_setting           orthorhombic
_symmetry_space_group_name_H-M   'P 21 21 21'
_symmetry_Int_Tables_number      19
_space_group_name_Hall           'P 2ac 2ab'
loop_
_symmetry_equiv_pos_site_id
_symmetry_equiv_pos_as_xyz
1 x,y,z
2 1/2-x,-y,1/2+z
3 -x,1/2+y,1/2-z
4 1/2+x,1/2-y,-z
_cell_length_a                   14.8592(2)
_cell_length_b                   19.6844(5)
_cell_length_c                   26.1626(4)
_cell_angle_alpha                90
_cell_angle_beta                 90
_cell_angle_gamma                90
_cell_volume                     7652.41
_exptl_crystal_colour            colorless
_exptl_crystal_description       prism
_cell_formula_units_Z            12
loop_
_atom_site_label
_atom_site_type_symbol
_atom_site_fract_x
_atom_site_fract_y
_atom_site_fract_z
C1 C 0.01236(18) 0.31070(14) -0.00215(10)
H1 H 0.055 0.2857 -0.0202
C2 C -0.07269(17) 0.28789(15) -0.00208(10)
H2 H -0.0868 0.2484 -0.0198
C3 C -0.14338(18) 0.32406(15) 0.02540(11)
C4 C -0.11857(18) 0.38875(15) 0.04919(10)
H3 H -0.1634 0.4148 0.0644
C5 C -0.03336(18) 0.41204(14) 0.04985(10)
C6 C 0.08789(19) 0.41947(15) -0.01671(11)
H4 H 0.1314 0.3936 -0.0356
H5 H 0.1172 0.4571 -0.0004
H6 H 0.0425 0.4361 -0.0396
C7 C -0.00560(18) 0.47651(14) 0.07750(11)
H7 H 0.0234 0.5062 0.0523
C8 C 0.06598(18) 0.45854(14) 0.11808(10)
H8 H 0.0898 0.5005 0.1321
H9 H 0.0366 0.4344 0.1458
C9 C 0.14503(18) 0.41525(13) 0.09897(10)
H10 H 0.1835 0.4423 0.0764
C10 C 0.10865(17) 0.35248(13) 0.06982(10)
H11 H 0.0698 0.3293 0.0945
C11 C 0.18081(17) 0.29908(14) 0.05543(10)
H12 H 0.149 0.2576 0.0452
C12 C 0.24212(17) 0.28046(13) 0.10136(9)
H13 H 0.208 0.2533 0.1255
H14 H 0.292 0.253 0.0892
C13 C 0.27937(17) 0.34314(13) 0.12889(10)
C14 C 0.20001(18) 0.38902(13) 0.14452(10)
H15 H 0.1592 0.3606 0.1647
C15 C 0.24192(19) 0.44047(14) 0.18206(10)
H16 H 0.1983 0.4545 0.2076
H17 H 0.2635 0.4804 0.1641
C16 C 0.32171(19) 0.40119(14) 0.20741(10)
H18 H 0.3783 0.424 0.2006
H19 H 0.3133 0.3982 0.2441
C17 C 0.32100(17) 0.32975(14) 0.18314(10)
C18 C 0.04338(17) 0.37327(14) 0.02460(10)
C19 C -0.08261(19) 0.51663(15) 0.10139(11)
H20 H -0.126 0.5278 0.0755
H21 H -0.0595 0.5576 0.1163
H22 H -0.1109 0.4897 0.1274
C20 C 0.34974(18) 0.38080(14) 0.09601(10)
H23 H 0.324 0.3916 0.0633
H24 H 0.4015 0.3523 0.0913
H25 H 0.3675 0.4219 0.113
C21 C 0.40927(18) 0.28850(14) 0.18083(10)
C22 C 0.49672(18) 0.32634(14) 0.19134(11)
H26 H 0.5013 0.365 0.1685
H27 H 0.4962 0.3434 0.2261
C23 C 0.59230(18) 0.26783(15) 0.13478(11)
C24 C 0.6697(2) 0.21887(18) 0.13053(12)
H28 H 0.65 0.1743 0.1403
H29 H 0.7175 0.2332 0.1527
H30 H 0.6908 0.2179 0.0959
C25 C 0.27436(19) 0.26883(14) 0.25855(10)
C26 C 0.1904(2) 0.24321(16) 0.28555(11)
H31 H 0.1561 0.2818 0.2979
H32 H 0.1531 0.219 0.2611
C27 C 0.2110(2) 0.19699(18) 0.32970(12)
H33 H 0.2413 0.1571 0.3174
H34 H 0.1559 0.184 0.3462
H35 H 0.2489 0.2203 0.3537
O1 O -0.22108(13) 0.30156(10) 0.02920(8)
O2 O 0.23108(12) 0.32190(10) 0.01207(7)
H36 H 0.2500(19) 0.2848(8) -0.0006(11)
O3 O 0.40779(12) 0.22874(9) 0.17032(7)
O4 O 0.57343(12) 0.28297(10) 0.18433(7)
O5 O 0.55070(13) 0.29133(11) 0.09918(7)
O6 O 0.25376(12) 0.28885(9) 0.21055(6)
O7 O 0.34889(13) 0.27369(10) 0.27685(7)
C28 C 0.98416(17) 0.49286(14) 0.49586(10)
H37 H 0.9409 0.4677 0.5132
C29 C 1.06996(18) 0.47269(15) 0.49995(10)
H38 H 1.0844 0.436 0.5208
C30 C 1.14115(18) 0.50799(15) 0.47197(10)
C31 C 1.11539(19) 0.56989(14) 0.44404(10)
H39 H 1.1603 0.5955 0.4285
C32 C 1.02976(18) 0.59089(14) 0.44010(10)
C33 C 0.95233(17) 0.55284(14) 0.46548(10)
C34 C 0.90372(18) 0.60087(14) 0.50368(10)
H40 H 0.8585 0.5759 0.522
H41 H 0.8759 0.6374 0.4853
H42 H 0.9467 0.619 0.5274
C35 C 1.00140(18) 0.65241(13) 0.40870(10)
H43 H 0.9703 0.6837 0.4319
C36 C 0.93256(17) 0.62973(14) 0.36808(10)
H44 H 0.9082 0.6699 0.3517
H45 H 0.9639 0.6037 0.3421
C37 C 0.85391(17) 0.58692(13) 0.38824(10)
H46 H 0.8151 0.6152 0.4098
C38 C 0.89098(17) 0.52684(13) 0.41998(10)
H47 H 0.9327 0.5035 0.3968
C39 C 0.82124(17) 0.47153(14) 0.43517(10)
H48 H 0.8553 0.4308 0.4447
C40 C 0.75915(17) 0.45145(13) 0.39019(9)
H49 H 0.793 0.4238 0.3662
H50 H 0.71 0.424 0.4032
C41 C 0.72022(17) 0.51291(13) 0.36178(9)
C42 C 0.79892(17) 0.55783(14) 0.34377(10)
H51 H 0.8396 0.5284 0.3243
C43 C 0.75624(18) 0.60706(14) 0.30525(10)
H52 H 0.7988 0.619 0.2786
H53 H 0.7365 0.6483 0.3221
C44 C 0.67434(18) 0.56756(14) 0.28245(10)
H54 H 0.6186 0.5915 0.2893
H55 H 0.6809 0.5624 0.2458
C45 C 0.67457(17) 0.49762(14) 0.30907(10)
C46 C 1.07900(18) 0.69167(14) 0.38440(11)
H56 H 1.1206 0.7055 0.4105
H57 H 1.0559 0.7311 0.3673
H58 H 1.1093 0.6631 0.3601
C47 C 0.65215(18) 0.55234(14) 0.39538(10)
H59 H 0.6803 0.5648 0.427
H60 H 0.6009 0.5241 0.4022
H61 H 0.633 0.5926 0.3777
C48 C 0.58426(18) 0.45893(14) 0.31442(9)
C49 C 0.49809(17) 0.49849(14) 0.30458(10)
H62 H 0.4961 0.5377 0.327
H63 H 0.4979 0.5147 0.2696
C50 C 0.40147(19) 0.44341(14) 0.36298(10)
C51 C 0.3211(2) 0.39783(17) 0.36802(11)
H64 H 0.3022 0.3966 0.4031
H65 H 0.3368 0.3528 0.357
H66 H 0.273 0.4149 0.3472
C52 C 0.70941(19) 0.42871(15) 0.23596(10)
C53 C 0.7798(2) 0.38547(16) 0.20994(10)
H67 H 0.778 0.3951 0.1736
H68 H 0.7633 0.3382 0.2144
C54 C 0.8762(2) 0.39445(18) 0.22817(12)
H69 H 0.8945 0.4407 0.2231
H70 H 0.9151 0.3649 0.2091
H71 H 0.8799 0.3834 0.2639
O8 O 1.22013(13) 0.48665(11) 0.47151(8)
O9 O 0.77110(12) 0.49198(10) 0.47928(7)
H72 H 0.7486(19) 0.4551(8) 0.4903(11)
O10 O 0.58376(13) 0.39973(9) 0.32623(7)
O11 O 0.41977(12) 0.45724(10) 0.31314(7)
O12 O 0.44487(13) 0.46629(10) 0.39776(7)
O13 O 0.73741(12) 0.45247(9) 0.28181(7)
O14 O 0.63582(13) 0.43981(10) 0.21820(7)
C55 C 1.47967(17) 0.36258(14) 0.49148(9)
H73 H 1.4363 0.3894 0.4757
C56 C 1.56524(18) 0.38314(14) 0.48878(10)
H74 H 1.5792 0.4226 0.4709
C57 C 1.63744(18) 0.34454(14) 0.51351(10)
C58 C 1.61158(18) 0.28047(14) 0.53812(10)
H75 H 1.6565 0.2537 0.5525
C59 C 1.52614(17) 0.25874(14) 0.54089(9)
C60 C 1.44845(17) 0.29930(14) 0.51807(10)
C61 C 1.39995(18) 0.25549(14) 0.47701(10)
H76 H 1.3545 0.2823 0.4605
H77 H 1.3725 0.2169 0.4931
H78 H 1.4429 0.2403 0.4521
C62 C 1.49869(17) 0.19403(13) 0.56838(10)
H79 H 1.4689 0.1646 0.5434
C63 C 1.42850(18) 0.21172(14) 0.61037(10)
H80 H 1.4045 0.1697 0.6241
H81 H 1.4592 0.2351 0.638
C64 C 1.34963(17) 0.25597(13) 0.59253(10)
H82 H 1.3115 0.2299 0.5691
C65 C 1.38632(17) 0.31968(13) 0.56491(9)
H83 H 1.4277 0.3403 0.5896
C66 C 1.31696(17) 0.37632(14) 0.55340(9)
H84 H 1.3511 0.4178 0.5461
C67 C 1.25577(17) 0.39175(14) 0.59955(9)
H85 H 1.2903 0.4161 0.6251
H86 H 1.207 0.4211 0.5886
C68 C 1.21604(17) 0.32762(14) 0.62371(10)
C69 C 1.29356(17) 0.27963(14) 0.63863(10)
H87 H 1.3341 0.3058 0.6607
C70 C 1.24790(18) 0.22593(14) 0.67296(11)
H88 H 1.2897 0.2089 0.6984
H89 H 1.2262 0.1881 0.6527
C71 C 1.16810(18) 0.26411(14) 0.69885(10)
H90 H 1.1114 0.2422 0.6907
H91 H 1.1755 0.2647 0.7357
C72 C 1.17028(17) 0.33707(14) 0.67724(10)
C73 C 1.57721(19) 0.15403(14) 0.59133(11)
H92 H 1.6206 0.1444 0.5651
H93 H 1.5553 0.1122 0.6054
H94 H 1.605 0.1804 0.6178
C74 C 1.14772(17) 0.29296(14) 0.58754(10)
H95 H 1.0986 0.3234 0.581
H96 H 1.1253 0.2523 0.6033
H97 H 1.1769 0.2817 0.5559
C75 C 1.08251(17) 0.37872(14) 0.67351(9)
C76 C 0.99324(17) 0.34129(14) 0.67838(10)
H98 H 0.9907 0.305 0.6533
H99 H 0.9888 0.3211 0.7121
C77 C 0.90671(19) 0.40677(15) 0.62141(11)
C78 C 0.8333(2) 0.45900(17) 0.61721(12)
H100 H 0.8551 0.502 0.6294
H101 H 0.7826 0.4451 0.6375
H102 H 0.8152 0.4633 0.5821
C79 C 1.20625(19) 0.39660(14) 0.75472(10)
C80 C 1.2773(2) 0.43520(15) 0.78372(11)
H103 H 1.2754 0.4207 0.8191
H104 H 1.2617 0.483 0.783
C81 C 1.3732(2) 0.42777(17) 0.76478(12)
H105 H 1.3906 0.3808 0.7661
H106 H 1.4127 0.4541 0.786
H107 H 1.3771 0.4437 0.7302
O15 O 1.71673(12) 0.36446(10) 0.51382(8)
O16 O 1.26618(12) 0.36047(10) 0.50826(7)
H108 H 1.2452(19) 0.3983(7) 0.4982(11)
O17 O 1.08516(12) 0.43915(10) 0.66632(7)
O18 O 0.91889(12) 0.38679(10) 0.67054(7)
O19 O 0.95050(13) 0.38459(11) 0.58620(7)
O20 O 1.23444(12) 0.37737(9) 0.70754(6)
O21 O 1.13159(13) 0.38476(10) 0.77094(7)
loop_
_geom_bond_atom_site_label_1
_geom_bond_atom_site_label_2
_geom_bond_site_symmetry_1
_geom_bond_site_symmetry_2
C1 H1 1_555 1_555
C2 C1 1_555 1_555
H2 C2 1_555 1_555
C3 C2 1_555 1_555
C4 C3 1_555 1_555
H3 C4 1_555 1_555
C5 C4 1_555 1_555
C6 H4 1_555 1_555
H5 C6 1_555 1_555
H6 C6 1_555 1_555
C7 C5 1_555 1_555
H7 C7 1_555 1_555
C8 C7 1_555 1_555
H8 C8 1_555 1_555
H9 C8 1_555 1_555
C9 C8 1_555 1_555
H10 C9 1_555 1_555
C10 C9 1_555 1_555
H11 C10 1_555 1_555
C11 C10 1_555 1_555
H12 C11 1_555 1_555
C12 C11 1_555 1_555
H13 C12 1_555 1_555
H14 C12 1_555 1_555
C13 C12 1_555 1_555
C14 C9 1_555 1_555
H15 C14 1_555 1_555
C15 C14 1_555 1_555
H16 C15 1_555 1_555
H17 C15 1_555 1_555
C16 C15 1_555 1_555
H18 C16 1_555 1_555
H19 C16 1_555 1_555
C17 C13 1_555 1_555
C18 C1 1_555 1_555
C19 C7 1_555 1_555
H20 C19 1_555 1_555
H21 C19 1_555 1_555
H22 C19 1_555 1_555
C20 C13 1_555 1_555
H23 C20 1_555 1_555
H24 C20 1_555 1_555
H25 C20 1_555 1_555
C21 C17 1_555 1_555
C22 C21 1_555 1_555
H26 C22 1_555 1_555
H27 C22 1_555 1_555
C23 C24 1_555 1_555
C24 H28 1_555 1_555
H29 C24 1_555 1_555
H30 C24 1_555 1_555
C25 C26 1_555 1_555
C26 H31 1_555 1_555
H32 C26 1_555 1_555
C27 C26 1_555 1_555
H33 C27 1_555 1_555
H34 C27 1_555 1_555
H35 C27 1_555 1_555
O1 C3 1_555 1_555
O2 C11 1_555 1_555
H36 O2 1_555 1_555
O3 C21 1_555 1_555
O4 C22 1_555 1_555
O5 C23 1_555 1_555
O6 C17 1_555 1_555
O7 C25 1_555 1_555
C28 H37 1_555 1_555
C29 C28 1_555 1_555
H38 C29 1_555 1_555
C30 C29 1_555 1_555
C31 C30 1_555 1_555
H39 C31 1_555 1_555
C32 C31 1_555 1_555
C33 C28 1_555 1_555
C34 C33 1_555 1_555
H40 C34 1_555 1_555
H41 C34 1_555 1_555
H42 C34 1_555 1_555
C35 C32 1_555 1_555
H43 C35 1_555 1_555
C36 C35 1_555 1_555
H44 C36 1_555 1_555
H45 C36 1_555 1_555
C37 C36 1_555 1_555
H46 C37 1_555 1_555
C38 C33 1_555 1_555
H47 C38 1_555 1_555
C39 C38 1_555 1_555
H48 C39 1_555 1_555
C40 C39 1_555 1_555
H49 C40 1_555 1_555
H50 C40 1_555 1_555
C41 C40 1_555 1_555
C42 C37 1_555 1_555
H51 C42 1_555 1_555
C43 C42 1_555 1_555
H52 C43 1_555 1_555
H53 C43 1_555 1_555
C44 C43 1_555 1_555
H54 C44 1_555 1_555
H55 C44 1_555 1_555
C45 C41 1_555 1_555
C46 C35 1_555 1_555
H56 C46 1_555 1_555
H57 C46 1_555 1_555
H58 C46 1_555 1_555
C47 C41 1_555 1_555
H59 C47 1_555 1_555
H60 C47 1_555 1_555
H61 C47 1_555 1_555
C48 C45 1_555 1_555
C49 C48 1_555 1_555
H62 C49 1_555 1_555
H63 C49 1_555 1_555
C50 C51 1_555 1_555
C51 H64 1_555 1_555
H65 C51 1_555 1_555
H66 C51 1_555 1_555
C52 C53 1_555 1_555
C53 H67 1_555 1_555
H68 C53 1_555 1_555
C54 C53 1_555 1_555
H69 C54 1_555 1_555
H70 C54 1_555 1_555
H71 C54 1_555 1_555
O8 C30 1_555 1_555
O9 C39 1_555 1_555
H72 O9 1_555 1_555
O10 C48 1_555 1_555
O11 C49 1_555 1_555
O12 C50 1_555 1_555
O13 C45 1_555 1_555
O14 C52 1_555 1_555
C55 H73 1_555 1_555
C56 C55 1_555 1_555
H74 C56 1_555 1_555
C57 C56 1_555 1_555
C58 C57 1_555 1_555
H75 C58 1_555 1_555
C59 C58 1_555 1_555
C60 C55 1_555 1_555
C61 C60 1_555 1_555
H76 C61 1_555 1_555
H77 C61 1_555 1_555
H78 C61 1_555 1_555
C62 C59 1_555 1_555
H79 C62 1_555 1_555
C63 C62 1_555 1_555
H80 C63 1_555 1_555
H81 C63 1_555 1_555
C64 C63 1_555 1_555
H82 C64 1_555 1_555
C65 C60 1_555 1_555
H83 C65 1_555 1_555
C66 C65 1_555 1_555
H84 C66 1_555 1_555
C67 C66 1_555 1_555
H85 C67 1_555 1_555
H86 C67 1_555 1_555
C68 C67 1_555 1_555
C69 C64 1_555 1_555
H87 C69 1_555 1_555
C70 C69 1_555 1_555
H88 C70 1_555 1_555
H89 C70 1_555 1_555
C71 C70 1_555 1_555
H90 C71 1_555 1_555
H91 C71 1_555 1_555
C72 C68 1_555 1_555
C73 C62 1_555 1_555
H92 C73 1_555 1_555
H93 C73 1_555 1_555
H94 C73 1_555 1_555
C74 C68 1_555 1_555
H95 C74 1_555 1_555
H96 C74 1_555 1_555
H97 C74 1_555 1_555
C75 C72 1_555 1_555
C76 C75 1_555 1_555
H98 C76 1_555 1_555
H99 C76 1_555 1_555
C77 C78 1_555 1_555
C78 H100 1_555 1_555
H101 C78 1_555 1_555
H102 C78 1_555 1_555
C79 C80 1_555 1_555
C80 H103 1_555 1_555
H104 C80 1_555 1_555
C81 C80 1_555 1_555
H105 C81 1_555 1_555
H106 C81 1_555 1_555
H107 C81 1_555 1_555
O15 C57 1_555 1_555
O16 C66 1_555 1_555
H108 O16 1_555 1_555
O17 C75 1_555 1_555
O18 C76 1_555 1_555
O19 C77 1_555 1_555
O20 C72 1_555 1_555
O21 C79 1_555 1_555
C5 C18 1_555 1_555
C6 C18 1_555 1_555
C10 C18 1_555 1_555
C13 C14 1_555 1_555
C16 C17 1_555 1_555
C23 O4 1_555 1_555
C25 O6 1_555 1_555
C32 C33 1_555 1_555
C37 C38 1_555 1_555
C41 C42 1_555 1_555
C44 C45 1_555 1_555
C50 O11 1_555 1_555
C52 O13 1_555 1_555
C59 C60 1_555 1_555
C64 C65 1_555 1_555
C68 C69 1_555 1_555
C71 C72 1_555 1_555
C77 O18 1_555 1_555
C79 O20 1_555 1_555

#END
