
#######################################################################
#
#                 Cambridge Crystallographic Data Centre
#                                CCDC 
#
#######################################################################
#
# If this CIF has been generated from an entry in the Cambridge 
# Structural Database, then it will include bibliographic, chemical, 
# crystal, experimental, refinement or atomic coordinate data resulting 
# from the CCDC's data processing and validation procedures.
#
#######################################################################

data_LAPLAR01
_chemical_formula_moiety         'C8 H3 Cl2 F1 N2'
_chemical_name_systematic        2,4-Dichloro-7-fluoroquinazoline
_symmetry_cell_setting           monoclinic
_symmetry_space_group_name_H-M   'P 21/c'
_symmetry_Int_Tables_number      14
_space_group_name_Hall           '-P 2ybc'
loop_
_symmetry_equiv_pos_site_id
_symmetry_equiv_pos_as_xyz
1 x,y,z
2 -x,1/2+y,1/2-z
3 -x,-y,-z
4 x,1/2-y,1/2+z
_cell_length_a                   3.8257(3)
_cell_length_b                   15.0664(9)
_cell_length_c                   14.5140(6)
_cell_angle_alpha                90
_cell_angle_beta                 100.120(5)
_cell_angle_gamma                90
_cell_volume                     823.564
_exptl_crystal_colour            yellow
_exptl_crystal_description       block
_cell_formula_units_Z            4
_exptl_crystal_recrystallization_method acetone
_exptl_crystal_preparation       'Magnetic properties'
loop_
_atom_site_label
_atom_site_type_symbol
_atom_site_fract_x
_atom_site_fract_y
_atom_site_fract_z
Cl1 Cl 0.2750(3) 0.59052(6) 0.04823(6)
Cl2 Cl 0.6782(2) 0.74581(6) 0.36580(5)
F1 F -0.2559(6) 1.05058(13) 0.10313(15)
C1 C 0.2717(7) 0.83044(19) 0.22019(19)
C2 C 0.0929(7) 0.82792(19) 0.12607(19)
N1 N 0.4522(7) 0.67964(17) 0.20194(17)
C3 C 0.2693(8) 0.9095(2) 0.2722(2)
H1 H 0.3894 0.9119 0.3337
C4 C -0.0896(8) 0.9036(2) 0.0864(2)
H2 H -0.2118 0.9030 0.0251
N2 N 0.0921(7) 0.75304(16) 0.07252(16)
C5 C -0.0828(8) 0.9771(2) 0.1399(2)
C6 C 0.0921(8) 0.9824(2) 0.2329(2)
H3 H 0.0875 1.0344 0.2670
C7 C 0.2692(8) 0.6869(2) 0.1137(2)
C8 C 0.4484(7) 0.7511(2) 0.2526(2)
loop_
_geom_bond_atom_site_label_1
_geom_bond_atom_site_label_2
_geom_bond_site_symmetry_1
_geom_bond_site_symmetry_2
Cl1 C7 1_555 1_555
Cl2 C8 1_555 1_555
F1 C5 1_555 1_555
C1 C2 1_555 1_555
C2 C4 1_555 1_555
N1 C7 1_555 1_555
C3 C1 1_555 1_555
H1 C3 1_555 1_555
C4 H2 1_555 1_555
N2 C2 1_555 1_555
C5 C4 1_555 1_555
C6 C3 1_555 1_555
H3 C6 1_555 1_555
C7 N2 1_555 1_555
C8 C1 1_555 1_555
N1 C8 1_555 1_555
C5 C6 1_555 1_555

#END
