
#######################################################################
#
#                 Cambridge Crystallographic Data Centre
#                                CCDC 
#
#######################################################################
#
# If this CIF has been generated from an entry in the Cambridge 
# Structural Database, then it will include bibliographic, chemical, 
# crystal, experimental, refinement or atomic coordinate data resulting 
# from the CCDC's data processing and validation procedures.
#
#######################################################################

data_LAPPAV
_chemical_formula_moiety         'C7 H6 I1 N1 O3'
_chemical_name_systematic        1-Iodo-4-methoxy-2-nitrobenzene
_symmetry_cell_setting           orthorhombic
_symmetry_space_group_name_H-M   'P b c a'
_symmetry_Int_Tables_number      61
_space_group_name_Hall           '-P 2ac 2ab'
loop_
_symmetry_equiv_pos_site_id
_symmetry_equiv_pos_as_xyz
1 x,y,z
2 1/2-x,-y,1/2+z
3 1/2+x,1/2-y,-z
4 -x,1/2+y,1/2-z
5 -x,-y,-z
6 1/2+x,y,1/2-z
7 1/2-x,1/2+y,z
8 x,1/2-y,1/2+z
_cell_length_a                   18.6370(13)
_cell_length_b                   11.6257(5)
_cell_length_c                   7.4740(3)
_cell_angle_alpha                90
_cell_angle_beta                 90
_cell_angle_gamma                90
_cell_volume                     1619.38
_exptl_crystal_colour            'dark orange'
_exptl_crystal_description       plate
_chemical_melting_point          '334-335 K'
_cell_formula_units_Z            8
_exptl_crystal_recrystallization_method ethanol
loop_
_atom_site_label
_atom_site_type_symbol
_atom_site_fract_x
_atom_site_fract_y
_atom_site_fract_z
I1 I 0.697282(5) 0.925416(9) -0.003362(13)
O1 O 0.70514(6) 0.66598(11) -0.03589(18)
O2 O 0.62939(7) 0.52986(10) 0.01236(15)
O3 O 0.41118(6) 0.68759(8) 0.23820(15)
N1 N 0.64607(7) 0.63180(12) 0.01188(16)
C1 C 0.60441(8) 0.83551(12) 0.0734(2)
C2 C 0.59202(8) 0.71660(12) 0.0719(2)
C3 C 0.52698(8) 0.67047(12) 0.12652(19)
H1 H 0.5199 0.5896 0.1236
C4 C 0.47214(8) 0.74173(12) 0.1854(2)
C5 C 0.48273(8) 0.86045(12) 0.1870(2)
H2 H 0.4455 0.9104 0.2254
C6 C 0.54812(8) 0.90498(12) 0.1319(2)
H3 H 0.5548 0.9860 0.1342
C7 C 0.35196(8) 0.75849(13) 0.2943(2)
H4 H 0.3658 0.8025 0.4007
H5 H 0.3107 0.7096 0.3228
H6 H 0.3391 0.8116 0.1977
loop_
_geom_bond_atom_site_label_1
_geom_bond_atom_site_label_2
_geom_bond_site_symmetry_1
_geom_bond_site_symmetry_2
I1 C1 1_555 1_555
O1 N1 1_555 1_555
O2 N1 1_555 1_555
O3 C4 1_555 1_555
N1 C2 1_555 1_555
C1 C2 1_555 1_555
C2 C3 1_555 1_555
C3 H1 1_555 1_555
C4 C3 1_555 1_555
C5 C4 1_555 1_555
H2 C5 1_555 1_555
C6 C1 1_555 1_555
H3 C6 1_555 1_555
C7 O3 1_555 1_555
H4 C7 1_555 1_555
H5 C7 1_555 1_555
H6 C7 1_555 1_555
C5 C6 1_555 1_555

#END
