
#######################################################################
#
#                 Cambridge Crystallographic Data Centre
#                                CCDC 
#
#######################################################################
#
# If this CIF has been generated from an entry in the Cambridge 
# Structural Database, then it will include bibliographic, chemical, 
# crystal, experimental, refinement or atomic coordinate data resulting 
# from the CCDC's data processing and validation procedures.
#
#######################################################################

data_LAPREC
_chemical_name_common            'naphthacemycin A9'
_chemical_formula_moiety         'C30 H26 O8'
_chemical_name_systematic        
'7-(2,4-dimethoxy-6-methylphenyl)-2,4-dihydroxy-9-methoxy-12,12-dimethyltetracene-5,6,11(12H)-trione unknown solvate'
_chemical_properties_biological  'tested for anti-MRSA activity'
_symmetry_cell_setting           orthorhombic
_symmetry_space_group_name_H-M   'P 21 21 21'
_symmetry_Int_Tables_number      19
_space_group_name_Hall           'P 2ac 2ab'
loop_
_symmetry_equiv_pos_site_id
_symmetry_equiv_pos_as_xyz
1 x,y,z
2 1/2-x,-y,1/2+z
3 1/2+x,1/2-y,-z
4 -x,1/2+y,1/2-z
_cell_length_a                   13.038(5)
_cell_length_b                   28.426(6)
_cell_length_c                   7.270(5)
_cell_angle_alpha                90
_cell_angle_beta                 90
_cell_angle_gamma                90
_cell_volume                     2694.39
_exptl_crystal_colour            brown
_exptl_crystal_description       prismatic
_cell_formula_units_Z            4
loop_
_atom_site_label
_atom_site_type_symbol
_atom_site_fract_x
_atom_site_fract_y
_atom_site_fract_z
O1 O 1.0762(3) -0.0161(2) -0.1271(7)
O2 O 0.7247(3) 0.1005(2) 0.2034(8)
O3 O 1.2654(4) 0.1804(2) 0.1522(7)
O4 O 1.0919(3) 0.0287(2) 0.2754(7)
O5 O 1.1697(3) 0.1058(2) 0.0959(7)
O6 O 1.0828(4) 0.3127(2) 0.3647(8)
O7 O 0.6712(3) -0.0751(2) 0.1351(9)
O8 O 1.3095(4) -0.1334(2) 0.0627(8)
C1 C 0.8255(5) 0.0325(2) 0.1801(9)
C2 C 0.9238(5) 0.0127(2) 0.1760(9)
C3 C 1.1745(5) 0.2007(2) 0.2000(10)
C4 C 1.0896(5) 0.1242(2) 0.1567(9)
C5 C 1.0129(5) 0.0436(2) 0.2092(10)
C6 C 0.9968(5) 0.0954(2) 0.1898(9)
C7 C 0.9033(5) 0.1154(2) 0.2079(9)
C8 C 1.2198(5) -0.1106(3) 0.099(1)
C9 C 1.1036(5) -0.0511(2) -0.009(1)
C10 C 0.9354(5) -0.0366(2) 0.1509(10)
C11 C 1.0809(6) 0.2674(2) 0.304(1)
C12 C 0.7384(5) 0.0048(2) 0.1706(10)
C13 C 1.1554(5) -0.1200(2) 0.2445(9)
C14 C 1.1952(5) -0.0765(2) -0.0273(10)
C15 C 1.0364(5) -0.0607(2) 0.136(1)
C16 C 0.5702(5) -0.0577(3) 0.172(1)
C17 C 1.0841(5) 0.1730(2) 0.1959(9)
C18 C 0.7503(5) -0.0434(2) 0.146(1)
C19 C 0.8120(5) 0.0835(2) 0.203(1)
C20 C 0.8478(5) -0.0634(2) 0.131(1)
C21 C 0.9904(5) 0.1951(2) 0.246(1)
C22 C 1.0640(5) -0.0943(2) 0.265(1)
C23 C 0.9910(5) 0.2424(2) 0.296(1)
C24 C 0.8886(5) 0.1680(2) 0.231(1)
C25 C 1.1740(6) 0.2478(2) 0.250(1)
C26 C 0.8226(6) 0.1781(3) 0.404(1)
C27 C 1.0016(6) -0.1029(3) 0.434(1)
C28 C 1.1542(6) 0.0014(3) -0.249(1)
C29 C 0.8325(6) 0.1867(3) 0.058(1)
C30 C 1.3358(7) -0.1725(3) 0.172(1)
H1 H 0.6743 0.0183 0.1886
H2 H 1.1714 -0.1442 0.3274
H3 H 1.2388 -0.0697 -0.1288
H4 H 0.8558 -0.0964 0.1107
H5 H 0.9280 0.2569 0.3249
H6 H 1.2357 0.2653 0.2468
H7 H 0.5602 -0.0446 0.2870
H8 H 0.5496 -0.0318 0.0805
H9 H 0.5176 -0.0813 0.1490
H10 H 0.8104 0.2114 0.4068
H11 H 0.7601 0.1623 0.3867
H12 H 0.8577 0.1683 0.5064
H13 H 1.0403 -0.0954 0.5429
H14 H 0.9397 -0.0859 0.4350
H15 H 0.9838 -0.1365 0.4454
H16 H 1.2089 0.0130 -0.1845
H17 H 1.1740 -0.0238 -0.3292
H18 H 1.1245 0.0258 -0.3263
H19 H 0.8203 0.2206 0.0784
H20 H 0.8750 0.1830 -0.0413
H21 H 0.7699 0.1717 0.0483
H22 H 1.2863 -0.1968 0.1719
H23 H 1.4007 -0.1858 0.1323
H24 H 1.3467 -0.1633 0.3007
C31? C 1.505(1) 0.2112(4) 0.226(2)
C32? C 1.4501(6) 0.1877(3) 0.356(1)
H25? H 1.5594 0.2337 0.2756
H26? H 1.5375 0.1940 0.1345
H27? H 1.4611 0.2355 0.1557
H28? H 1.4246 0.2118 0.4448
H29? H 1.5013 0.1704 0.4244
loop_
_geom_bond_atom_site_label_1
_geom_bond_atom_site_label_2
_geom_bond_site_symmetry_1
_geom_bond_site_symmetry_2
O1 C9 1_555 1_555
O2 C19 1_555 1_555
O3 C3 1_555 1_555
O4 C5 1_555 1_555
O5 C4 1_555 1_555
O6 C11 1_555 1_555
O7 C16 1_555 1_555
O8 C8 1_555 1_555
C1 C2 1_555 1_555
C2 C5 1_555 1_555
C3 C17 1_555 1_555
C4 C6 1_555 1_555
C5 C6 1_555 1_555
C6 C7 1_555 1_555
C7 C19 1_555 1_555
C8 C13 1_555 1_555
C9 C14 1_555 1_555
C10 C2 1_555 1_555
C11 C23 1_555 1_555
C12 C1 1_555 1_555
C13 C22 1_555 1_555
C14 C8 1_555 1_555
C15 C9 1_555 1_555
C16 H7 1_555 1_555
C17 C4 1_555 1_555
C18 O7 1_555 1_555
C19 C1 1_555 1_555
C20 C10 1_555 1_555
C21 C17 1_555 1_555
C22 C15 1_555 1_555
C23 C21 1_555 1_555
C24 C7 1_555 1_555
C25 C3 1_555 1_555
C26 C24 1_555 1_555
C27 C22 1_555 1_555
C28 O1 1_555 1_555
C29 C24 1_555 1_555
C30 O8 1_555 1_555
H1 C12 1_555 1_555
H2 C13 1_555 1_555
H3 C14 1_555 1_555
H4 C20 1_555 1_555
H5 C23 1_555 1_555
H6 C25 1_555 1_555
H8 C16 1_555 1_555
H9 C16 1_555 1_555
H10 C26 1_555 1_555
H11 C26 1_555 1_555
H12 C26 1_555 1_555
H13 C27 1_555 1_555
H14 C27 1_555 1_555
H15 C27 1_555 1_555
H16 C28 1_555 1_555
H17 C28 1_555 1_555
H18 C28 1_555 1_555
H19 C29 1_555 1_555
H20 C29 1_555 1_555
H21 C29 1_555 1_555
H22 C30 1_555 1_555
H23 C30 1_555 1_555
H24 C30 1_555 1_555
C10 C15 1_555 1_555
C11 C25 1_555 1_555
C12 C18 1_555 1_555
C18 C20 1_555 1_555
C21 C24 1_555 1_555

#END
