
#######################################################################
#
#                 Cambridge Crystallographic Data Centre
#                                CCDC 
#
#######################################################################
#
# If this CIF has been generated from an entry in the Cambridge 
# Structural Database, then it will include bibliographic, chemical, 
# crystal, experimental, refinement or atomic coordinate data resulting 
# from the CCDC's data processing and validation procedures.
#
#######################################################################

data_LAPRAY
_chemical_formula_moiety         'C30 H25 Cl1 O8,C1 H1 Cl3'
_chemical_name_systematic        
'10-chloro-7-(2,4-dimethoxy-6-methylphenyl)-2,4-dihydroxy-9-methoxy-12,12-dimethyltetracene-5,6,11(12H)-trione chloroform solvate'
_chemical_properties_biological  'tested for anti-MRSA activity'
_symmetry_cell_setting           monoclinic
_symmetry_space_group_name_H-M   'P 21/c'
_symmetry_Int_Tables_number      14
_space_group_name_Hall           '-P 2ybc'
loop_
_symmetry_equiv_pos_site_id
_symmetry_equiv_pos_as_xyz
1 x,y,z
2 -x,1/2+y,1/2-z
3 -x,-y,-z
4 x,1/2-y,1/2+z
_cell_length_a                   7.189(1)
_cell_length_b                   17.186(3)
_cell_length_c                   25.117(2)
_cell_angle_alpha                90
_cell_angle_beta                 90
_cell_angle_gamma                90
_cell_volume                     3103.21
_exptl_crystal_colour            colorless
_exptl_crystal_description       prismatic
_cell_formula_units_Z            4
loop_
_atom_site_label
_atom_site_type_symbol
_atom_site_fract_x
_atom_site_fract_y
_atom_site_fract_z
Cl1 Cl 0.6025(5) 0.3674(2) 0.5063(1)
O1 O -0.0300(10) -0.0219(4) 0.7039(3)
O2 O 0.1253(10) 0.4562(3) 0.6889(3)
O3 O 0.1381(10) 0.2031(4) 0.8080(2)
O4 O 0.223(1) 0.3183(4) 0.5264(3)
O5 O 0.1898(10) 0.3268(3) 0.7572(2)
O6 O 0.360(1) 0.7205(4) 0.8135(3)
O7 O 0.806(1) 0.4978(5) 0.5483(3)
O8 O 0.532(1) 0.4704(5) 0.7552(4)
C1 C 0.064(1) 0.0899(5) 0.6617(4)
C2 C 0.109(1) 0.1675(6) 0.7594(4)
C3 C 0.138(1) 0.2080(5) 0.7117(3)
C4 C 0.141(1) 0.2081(5) 0.6085(3)
C5 C 0.331(1) 0.6663(6) 0.6236(4)
C6 C 0.114(1) 0.1683(5) 0.6623(4)
C7 C 0.172(1) 0.2907(6) 0.7138(4)
C8 C 0.374(1) 0.6440(6) 0.6772(4)
C9 C 0.030(1) 0.0534(6) 0.7089(4)
C10 C 0.434(1) 0.5683(5) 0.6907(3)
C11 C 0.057(1) 0.0896(5) 0.7572(4)
C12 C 0.367(1) 0.4468(5) 0.6331(3)
C13 C 0.272(2) 0.3344(5) 0.5722(4)
C14 C 0.199(1) 0.3295(5) 0.6636(4)
C15 C 0.551(2) 0.4217(6) 0.5610(4)
C16 C 0.227(1) 0.4163(5) 0.6641(4)
C17 C 0.661(2) 0.4863(6) 0.5764(4)
C18 C 0.382(1) 0.6745(6) 0.7705(4)
C19 C 0.286(2) 0.1616(5) 0.5824(4)
C20 C 0.472(2) 0.5147(6) 0.6468(4)
C21 C 0.350(2) 0.6980(5) 0.7190(4)
C22 C 0.432(1) 0.5988(6) 0.7850(4)
C23 C 0.398(2) 0.4019(6) 0.5881(4)
C24 C 0.202(1) 0.2908(6) 0.6181(3)
C25 C -0.051(2) 0.2095(6) 0.5727(4)
C26 C 0.935(2) 0.5599(7) 0.5664(5)
C27 C 0.466(1) 0.5472(5) 0.7450(4)
C28 C 0.618(2) 0.5320(6) 0.6185(4)
C29 C 0.310(2) 0.7985(6) 0.8023(5)
C30 C 0.551(4) 0.443(1) 0.804(1)
H1 H 0.2978 0.7203 0.6215
H2 H 0.4458 0.6613 0.6065
H3 H 0.2386 0.6357 0.6058
H4 H 0.2476 0.1083 0.5773
H5 H 0.3062 0.1829 0.5489
H6 H 0.4042 0.1616 0.6058
H7 H -0.1402 0.2365 0.5889
H8 H -0.0366 0.2331 0.5385
H9 H -0.0925 0.1567 0.5652
H10 H 0.9852 0.5569 0.6026
H11 H 1.0319 0.5661 0.5444
H12 H 0.8643 0.6112 0.5625
H13 H 0.3043 0.8227 0.8371
H14 H 0.3998 0.8229 0.7852
H15 H 0.1904 0.7995 0.7826
H16 H 0.4229 0.4433 0.8182
H17 H 0.5894 0.3903 0.8082
H18 H 0.6271 0.4740 0.8301
H19 H 0.0398 0.0618 0.6264
H20 H 0.0480 0.0608 0.7896
H21 H 0.3114 0.7506 0.7125
H22 H 0.4552 0.5830 0.8222
H23 H 0.6984 0.5769 0.6289
Cl2 Cl 0.325(2) 0.4720(4) 0.9405(4)
Cl3 Cl -0.008(2) 0.4161(5) 0.9386(3)
Cl4 Cl 0.267(1) 0.3137(3) 0.9180(2)
C31 C 0.196(4) 0.406(1) 0.9087(6)
H24 H 0.1475 0.4229 0.8730
loop_
_geom_bond_atom_site_label_1
_geom_bond_atom_site_label_2
_geom_bond_site_symmetry_1
_geom_bond_site_symmetry_2
Cl1 C15 1_555 1_555
O1 C9 1_555 1_555
O2 C16 1_555 1_555
O3 C2 1_555 1_555
O4 C13 1_555 1_555
O5 C7 1_555 1_555
O6 C18 1_555 1_555
O7 C17 1_555 1_555
O8 C27 1_555 1_555
C1 C6 1_555 1_555
C2 C3 1_555 1_555
C3 C6 1_555 1_555
C4 C6 1_555 1_555
C5 C8 1_555 1_555
C7 C3 1_555 1_555
C8 C10 1_555 1_555
C9 C1 1_555 1_555
C10 C20 1_555 1_555
C11 C2 1_555 1_555
C12 C16 1_555 1_555
C13 C23 1_555 1_555
C14 C7 1_555 1_555
C15 C17 1_555 1_555
C16 C14 1_555 1_555
C17 C28 1_555 1_555
C18 C21 1_555 1_555
C19 C4 1_555 1_555
C20 C12 1_555 1_555
C21 C8 1_555 1_555
C22 C18 1_555 1_555
C23 C12 1_555 1_555
C24 C4 1_555 1_555
C25 C4 1_555 1_555
C26 O7 1_555 1_555
C27 C10 1_555 1_555
C28 C20 1_555 1_555
C29 O6 1_555 1_555
C30 O8 1_555 1_555
H1 C5 1_555 1_555
H2 C5 1_555 1_555
H3 C5 1_555 1_555
H4 C19 1_555 1_555
H5 C19 1_555 1_555
H6 C19 1_555 1_555
H7 C25 1_555 1_555
H8 C25 1_555 1_555
H9 C25 1_555 1_555
H10 C26 1_555 1_555
H11 C26 1_555 1_555
H12 C26 1_555 1_555
H13 C29 1_555 1_555
H14 C29 1_555 1_555
H15 C29 1_555 1_555
H16 C30 1_555 1_555
H17 C30 1_555 1_555
H18 C30 1_555 1_555
H19 C1 1_555 1_555
H20 C11 1_555 1_555
H21 C21 1_555 1_555
H22 C22 1_555 1_555
H23 C28 1_555 1_555
Cl2 C31 1_555 1_555
Cl3 C31 1_555 1_555
Cl4 C31 1_555 1_555
C31 H24 1_555 1_555
C9 C11 1_555 1_555
C13 C24 1_555 1_555
C14 C24 1_555 1_555
C15 C23 1_555 1_555
C22 C27 1_555 1_555

#END
