
#######################################################################
#
#                 Cambridge Crystallographic Data Centre
#                                CCDC 
#
#######################################################################
#
# If this CIF has been generated from an entry in the Cambridge 
# Structural Database, then it will include bibliographic, chemical, 
# crystal, experimental, refinement or atomic coordinate data resulting 
# from the CCDC's data processing and validation procedures.
#
#######################################################################

data_LAPTON
_chemical_formula_moiety         'C10 H11 I2 N1 O1'
_chemical_name_systematic        2,4-Diiodo-6-((propylimino)methyl)phenol
_symmetry_cell_setting           orthorhombic
_symmetry_space_group_name_H-M   'P b c a'
_symmetry_Int_Tables_number      61
_space_group_name_Hall           '-P 2ac 2ab'
loop_
_symmetry_equiv_pos_site_id
_symmetry_equiv_pos_as_xyz
1 x,y,z
2 1/2-x,-y,1/2+z
3 -x,1/2+y,1/2-z
4 1/2+x,1/2-y,-z
5 -x,-y,-z
6 1/2+x,y,1/2-z
7 x,1/2-y,1/2+z
8 1/2-x,1/2+y,z
_cell_length_a                   10.7019(14)
_cell_length_b                   7.1483(9)
_cell_length_c                   32.404(4)
_cell_angle_alpha                90
_cell_angle_beta                 90
_cell_angle_gamma                90
_cell_volume                     2478.92
_exptl_crystal_colour            yellow
_exptl_crystal_description       block
_cell_formula_units_Z            8
loop_
_atom_site_label
_atom_site_type_symbol
_atom_site_fract_x
_atom_site_fract_y
_atom_site_fract_z
I1 I 0.14060(4) 0.18844(7) 0.522554(12)
I2 I -0.14147(3) 0.44774(7) 0.371421(13)
N1 N 0.3755(4) 0.4405(7) 0.34042(16)
O1 O 0.1359(4) 0.4554(7) 0.33939(13)
C1 C 0.2521(5) 0.3571(7) 0.39908(16)
C2 C 0.1382(5) 0.3981(8) 0.37824(17)
C3 C 0.0266(5) 0.3772(7) 0.40084(16)
C4 C 0.0250(5) 0.3193(8) 0.44167(17)
H1 H -0.0501 0.3087 0.4559
C5 C 0.1389(5) 0.2770(7) 0.46109(17)
C6 C 0.2501(5) 0.2976(7) 0.44023(16)
H2 H 0.3250 0.2716 0.4537
C7 C 0.3699(5) 0.3819(8) 0.37775(18)
H3 H 0.4438 0.3544 0.3916
C8 C 0.4981(6) 0.4653(9) 0.32071(19)
H4 H 0.5636 0.4343 0.3402
H5 H 0.5085 0.5952 0.3127
C9 C 0.5099(6) 0.3412(10) 0.28282(19)
H6 H 0.4486 0.3791 0.2624
H7 H 0.4926 0.2126 0.2904
C10 C 0.6403(7) 0.3541(14) 0.2642(2)
H8 H 0.6567 0.4809 0.2561
H9 H 0.6453 0.2740 0.2405
H10 H 0.7009 0.3154 0.2843
H11 H 0.211(3) 0.471(11) 0.327(2)
loop_
_geom_bond_atom_site_label_1
_geom_bond_atom_site_label_2
_geom_bond_site_symmetry_1
_geom_bond_site_symmetry_2
I1 C5 1_555 1_555
I2 C3 1_555 1_555
N1 C7 1_555 1_555
O1 C2 1_555 1_555
C1 C2 1_555 1_555
C2 C3 1_555 1_555
C3 C4 1_555 1_555
C4 H1 1_555 1_555
C5 C4 1_555 1_555
C6 C1 1_555 1_555
H2 C6 1_555 1_555
C7 C1 1_555 1_555
H3 C7 1_555 1_555
C8 N1 1_555 1_555
H4 C8 1_555 1_555
H5 C8 1_555 1_555
C9 C8 1_555 1_555
H6 C9 1_555 1_555
H7 C9 1_555 1_555
C10 C9 1_555 1_555
H8 C10 1_555 1_555
H9 C10 1_555 1_555
H10 C10 1_555 1_555
H11 O1 1_555 1_555
C5 C6 1_555 1_555

#END
