
#######################################################################
#
#                 Cambridge Crystallographic Data Centre
#                                CCDC 
#
#######################################################################
#
# If this CIF has been generated from an entry in the Cambridge 
# Structural Database, then it will include bibliographic, chemical, 
# crystal, experimental, refinement or atomic coordinate data resulting 
# from the CCDC's data processing and validation procedures.
#
#######################################################################

data_LAPXEH
_chemical_name_common            'bis(Adefovir dipivoxil) succinic acid'
_chemical_formula_moiety         '2(C20 H32 N5 O8 P1),C4 H6 O4'
_chemical_name_systematic        
'bis(bis[(2,2-dimethylpropanoyloxy)methyl]((2-(6-amino-9H-purin-9-yl)ethoxy)methyl)phosphonate) succinic acid'
_chemical_properties_biological  
'Adefovir dipivoxil is a broad-spectrum antiviral'
_symmetry_cell_setting           triclinic
_symmetry_space_group_name_H-M   'P -1'
_symmetry_Int_Tables_number      2
_space_group_name_Hall           '-P 1'
loop_
_symmetry_equiv_pos_site_id
_symmetry_equiv_pos_as_xyz
1 x,y,z
2 -x,-y,-z
_cell_length_a                   7.7122(12)
_cell_length_b                   10.1577(15)
_cell_length_c                   19.185(3)
_cell_angle_alpha                80.409(8)
_cell_angle_beta                 79.718(9)
_cell_angle_gamma                80.407(8)
_cell_volume                     1443.52
_exptl_crystal_colour            colorless
_exptl_crystal_description       block
_chemical_melting_point          '410 K'
_cell_formula_units_Z            1
loop_
_atom_site_label
_atom_site_type_symbol
_atom_site_fract_x
_atom_site_fract_y
_atom_site_fract_z
P1 P 0.85354(6) 0.35488(4) 0.23364(3)
O1 O 1.16908(15) 0.27477(11) 0.16611(7)
O2 O 0.75924(17) 0.37739(12) 0.17242(7)
H1 H 1.410(3) 0.2107(19) 0.1924(10)
N1 N 1.30471(18) -0.10694(13) 0.07213(8)
H2 H 1.364(3) 0.2683(19) 0.0495(10)
N2 N 1.40907(18) 0.07897(12) 0.08442(7)
H3 H 1.137(3) 0.353(2) 0.2554(13)
H4 H 1.590(3) -0.454(2) 0.1269(10)
N3 N 1.5210(2) -0.38651(15) 0.11658(10)
H5 H 1.177(3) 0.0849(19) 0.0460(10)
O3 O 0.79832(17) 0.45855(12) 0.28933(7)
H6 H 1.377(3) 0.371(2) 0.1459(10)
O4 O 0.83198(18) 0.21639(11) 0.28310(7)
H7 H 1.549(3) 0.2239(18) 0.0706(10)
C1 C 1.4627(2) -0.14293(15) 0.09965(9)
H8 H 1.870(3) -0.1491(19) 0.1681(11)
N4 N 1.7135(2) -0.26489(14) 0.14725(9)
H9 H 0.551(3) 0.523(2) 0.2714(12)
N5 N 1.6779(2) -0.02193(14) 0.13207(9)
H10 H 0.633(3) 0.619(2) 0.3206(12)
C2 C 1.5280(2) -0.02841(15) 0.10754(9)
O5 O 0.9500(2) 0.00392(13) 0.25970(8)
H11 H 1.104(3) 0.456(2) 0.1946(12)
O6 O 0.5407(2) 0.45750(14) 0.37225(8)
C3 C 1.2792(2) 0.02556(16) 0.06432(10)
C4 C 1.5646(2) -0.26729(15) 0.12075(9)
H12 H 0.689(4) 0.071(3) 0.2924(16)
C5 C 1.4277(3) 0.22069(16) 0.08249(11)
H13 H 1.438(3) -0.3928(19) 0.0988(10)
C6 C 1.3572(2) 0.27262(18) 0.15218(11)
H14 H 0.792(3) 0.126(2) 0.2055(14)
C7 C 1.0864(3) 0.3663(2) 0.21406(13)
C8 C 1.7603(3) -0.14515(19) 0.15018(13)
O7 O 0.8495(3) -0.0752(3) 0.37084(13)
C9 C 0.7978(3) 0.10227(19) 0.25713(16)
C10 C 1.1398(3) -0.1700(2) 0.31830(12)
C11 C 0.6237(3) 0.5252(2) 0.30718(14)
O8 O 0.4230(3) 0.3366(2) 0.31153(9)
C12 C 0.4436(3) 0.3614(2) 0.36752(12)
C13 C 0.9642(3) -0.0782(2) 0.32119(13)
C14 C 0.2912(6) 0.3830(4) 0.4914(2)
H15 H 0.1843 0.4337 0.4764
H16 H 0.3726 0.4436 0.4936
H17 H 0.2627 0.3324 0.5379
C15 C 1.2937(4) -0.0882(3) 0.28699(18)
H18 H 1.2850 -0.0523 0.2380
H19 H 1.4052 -0.1458 0.2894
H20 H 1.2870 -0.0155 0.3140
C16 C 1.1638(5) -0.2356(4) 0.39287(18)
H21 H 1.1480 -0.1675 0.4235
H22 H 1.2813 -0.2852 0.3922
H23 H 1.0774 -0.2960 0.4105
C17 C 0.3749(4) 0.2886(3) 0.43929(13)
C18 C 0.5398(7) 0.2122(6) 0.4705(3)
H24 H 0.5030 0.1645 0.5170
H25 H 0.6162 0.2752 0.4746
H26 H 0.6030 0.1491 0.4395
C19 C 0.2625(9) 0.1901(6) 0.4313(2)
H27 H 0.2433 0.1300 0.4754
H28 H 0.3207 0.1392 0.3937
H29 H 0.1501 0.2367 0.4198
C20 C 1.1420(4) -0.2716(3) 0.2684(2)
H30 H 1.2543 -0.3294 0.2651
H31 H 1.1254 -0.2249 0.2217
H32 H 1.0477 -0.3249 0.2866
H33 H 0.869(3) -0.400(2) 0.0252(13)
O9 O 1.08166(19) -0.23084(12) 0.01701(8)
H34 H 0.974(3) -0.383(2) -0.0530(12)
C21 C 0.9785(3) -0.42444(17) -0.00200(12)
H35 H 1.161(3) -0.206(2) 0.0348(13)
C22 C 1.1118(2) -0.36274(17) 0.02458(10)
O10 O 1.2352(2) -0.42677(14) 0.05093(11)
H33A H 1.131(3) -0.600(2) -0.0252(13)
O9A O 0.91834(19) -0.76916(12) -0.01701(8)
H34A H 1.026(3) -0.617(2) 0.0530(12)
C21A C 1.0215(3) -0.57556(17) 0.00200(12)
H35A H 0.839(3) -0.794(2) -0.0348(13)
C22A C 0.8882(2) -0.63726(17) -0.02458(10)
O10A O 0.7648(2) -0.57323(14) -0.05093(11)
loop_
_geom_bond_atom_site_label_1
_geom_bond_atom_site_label_2
_geom_bond_site_symmetry_1
_geom_bond_site_symmetry_2
P1 O2 1_555 1_555
O1 C6 1_555 1_555
H1 C6 1_555 1_555
N1 C1 1_555 1_555
H2 C5 1_555 1_555
N2 C2 1_555 1_555
H3 C7 1_555 1_555
H4 N3 1_555 1_555
N3 C4 1_555 1_555
H5 C3 1_555 1_555
O3 P1 1_555 1_555
H6 C6 1_555 1_555
O4 P1 1_555 1_555
H7 C5 1_555 1_555
C1 C2 1_555 1_555
H8 C8 1_555 1_555
N4 C4 1_555 1_555
H9 C11 1_555 1_555
N5 C2 1_555 1_555
H10 C11 1_555 1_555
O5 C9 1_555 1_555
H11 C7 1_555 1_555
O6 C11 1_555 1_555
C3 N1 1_555 1_555
C4 C1 1_555 1_555
H12 C9 1_555 1_555
C5 N2 1_555 1_555
H13 N3 1_555 1_555
C6 C5 1_555 1_555
H14 C9 1_555 1_555
C7 P1 1_555 1_555
C8 N4 1_555 1_555
O7 C13 1_555 1_555
C9 O4 1_555 1_555
C10 C13 1_555 1_555
C11 O3 1_555 1_555
O8 C12 1_555 1_555
C12 O6 1_555 1_555
C13 O5 1_555 1_555
C14 H15 1_555 1_555
H16 C14 1_555 1_555
H17 C14 1_555 1_555
C15 C10 1_555 1_555
H18 C15 1_555 1_555
H19 C15 1_555 1_555
H20 C15 1_555 1_555
C16 C10 1_555 1_555
H21 C16 1_555 1_555
H22 C16 1_555 1_555
H23 C16 1_555 1_555
C17 C12 1_555 1_555
C18 C17 1_555 1_555
H24 C18 1_555 1_555
H25 C18 1_555 1_555
H26 C18 1_555 1_555
C19 C17 1_555 1_555
H27 C19 1_555 1_555
H28 C19 1_555 1_555
H29 C19 1_555 1_555
C20 C10 1_555 1_555
H30 C20 1_555 1_555
H31 C20 1_555 1_555
H32 C20 1_555 1_555
H33 C21 1_555 1_555
O9 H35 1_555 1_555
H34 C21 1_555 1_555
C21 C22 1_555 1_555
C22 O9 1_555 1_555
O10 C22 1_555 1_555
H33A C21A 1_555 1_555
O9A H35A 1_555 1_555
H34A C21A 1_555 1_555
C21A C21 1_555 1_555
C22A O9A 1_555 1_555
O10A C22A 1_555 1_555
O1 C7 1_555 1_555
N2 C3 1_555 1_555
N5 C8 1_555 1_555
C14 C17 1_555 1_555
C21A C22A 1_555 1_555

#END
