
#######################################################################
#
#                 Cambridge Crystallographic Data Centre
#                                CCDC 
#
#######################################################################
#
# If this CIF has been generated from an entry in the Cambridge 
# Structural Database, then it will include bibliographic, chemical, 
# crystal, experimental, refinement or atomic coordinate data resulting 
# from the CCDC's data processing and validation procedures.
#
#######################################################################

data_LAPYUW
_chemical_formula_moiety         'C20 H22 Br2 O2'
_chemical_name_systematic        
trans-1,4-bis(4-Bromophenyl)-1,4-dimethoxycyclohexane
_symmetry_cell_setting           triclinic
_symmetry_space_group_name_H-M   'P -1'
_symmetry_Int_Tables_number      2
_space_group_name_Hall           '-P 1'
loop_
_symmetry_equiv_pos_site_id
_symmetry_equiv_pos_as_xyz
1 x,y,z
2 -x,-y,-z
_cell_length_a                   7.424(2)
_cell_length_b                   9.653(3)
_cell_length_c                   12.911(4)
_cell_angle_alpha                91.76(2)
_cell_angle_beta                 94.24(2)
_cell_angle_gamma                92.54(2)
_cell_volume                     921.277
_exptl_crystal_colour            colorless
_chemical_melting_point          218-223deg.C
_cell_formula_units_Z            2
loop_
_atom_site_label
_atom_site_type_symbol
_atom_site_fract_x
_atom_site_fract_y
_atom_site_fract_z
Br1 Br -0.1423(1) 0.3491(1) 0.9103(1)
C1 C 0.0266(6) 0.3601(5) 0.8079(4)
C2 C -0.0350(6) 0.3739(5) 0.7068(4)
C3 C 0.0881(6) 0.3881(5) 0.6324(4)
C4 C 0.2733(6) 0.3906(4) 0.6578(3)
C5 C 0.3295(6) 0.3713(5) 0.7613(3)
C6 C 0.2091(7) 0.3565(5) 0.8360(4)
C7 C 0.4124(5) 0.4135(4) 0.5789(3)
C8 C 0.3298(6) 0.4247(5) 0.4688(3)
C9 C 0.5289(6) 0.5446(4) 0.6083(3)
O1 O 0.5378(4) 0.3032(3) 0.5855(3)
C10 C 0.4616(8) 0.1691(5) 0.5607(5)
H1 H -0.1625 0.3727 0.6877
H2 H 0.0445 0.3967 0.5611
H3 H 0.4566 0.3674 0.7805
H4 H 0.2505 0.3445 0.9072
H5 H 0.2465 0.4980 0.4674
H6 H 0.2630 0.3398 0.4476
H7 H 0.5881 0.5352 0.6762
H8 H 0.4522 0.6219 0.6115
H9 H 0.5539 0.1027 0.5674
H10 H 0.3697 0.1473 0.6069
H11 H 0.4090 0.1661 0.4904
C9A C 0.4711(6) 0.4554(4) 0.3917(3)
C8A C 0.6702(6) 0.5753(5) 0.5312(3)
C7A C 0.5876(5) 0.5865(4) 0.4211(3)
H7A H 0.4119 0.4648 0.3238
H8A H 0.5478 0.3781 0.3885
H5A H 0.7535 0.5020 0.5326
H6A H 0.7370 0.6602 0.5524
C4A C 0.7267(6) 0.6094(4) 0.3422(3)
O1A O 0.4622(4) 0.6968(3) 0.4145(3)
C3A C 0.9119(6) 0.6119(5) 0.3676(4)
C5A C 0.6705(6) 0.6287(5) 0.2387(3)
C10A C 0.5384(8) 0.8309(5) 0.4393(5)
C2A C 1.0350(6) 0.6261(5) 0.2932(4)
H2A H 0.9555 0.6033 0.4389
C6A C 0.7909(7) 0.6435(5) 0.1640(4)
H3A H 0.5434 0.6326 0.2195
H9A H 0.4461 0.8973 0.4326
H10A H 0.6303 0.8527 0.3931
H11A H 0.5910 0.8339 0.5096
C1A C 0.9734(6) 0.6399(5) 0.1921(4)
H1A H 1.1625 0.6273 0.3123
H4A H 0.7495 0.6555 0.0928
Br1A Br 1.1423(1) 0.6509(1) 0.0897(1)
Br2 Br -0.1541(1) 0.1628(1) 0.4019(1)
C11 C 0.0154(7) 0.1375(5) 0.3012(4)
C12 C 0.0420(7) 0.2384(5) 0.2317(4)
C13 C 0.1679(7) 0.2206(5) 0.1596(4)
C14 C 0.2678(6) 0.1042(5) 0.1553(3)
C15 C 0.2349(8) 0.0042(5) 0.2266(4)
C16 C 0.1084(8) 0.0201(6) 0.2986(4)
C17 C 0.4011(6) 0.0863(5) 0.0733(3)
C18 C 0.3073(6) 0.0156(5) -0.0237(3)
C19 C 0.5633(7) 0.0035(5) 0.1089(3)
O2 O 0.4592(5) 0.2209(3) 0.0383(2)
C20 C 0.5644(8) 0.3078(6) 0.1107(5)
H12 H -0.0247 0.3212 0.2342
H13 H 0.1856 0.2910 0.1099
H14 H 0.3017 -0.0787 0.2256
H15 H 0.0861 -0.0510 0.3470
H16 H 0.2080 0.0691 -0.0485
H17 H 0.2598 -0.0742 -0.0066
H18 H 0.5213 -0.0868 0.1285
H19 H 0.6253 0.0496 0.1691
H20 H 0.5963 0.3938 0.0798
H21 H 0.4967 0.3259 0.1698
H22 H 0.6723 0.2621 0.1325
C19A C 0.4367(7) -0.0035(5) -0.1089(3)
C18A C 0.6927(6) -0.0156(5) 0.0237(3)
C17A C 0.5989(6) -0.0863(5) -0.0733(3)
H18A H 0.4787 0.0868 -0.1285
H19A H 0.3747 -0.0496 -0.1691
H16A H 0.7920 -0.0691 0.0485
H17A H 0.7402 0.0742 0.0066
C14A C 0.7322(6) -0.1042(5) -0.1553(3)
O2A O 0.5408(5) -0.2209(3) -0.0383(2)
C13A C 0.8321(7) -0.2206(5) -0.1596(4)
C15A C 0.7651(8) -0.0042(5) -0.2266(4)
C20A C 0.4356(8) -0.3078(6) -0.1107(5)
C12A C 0.9580(7) -0.2384(5) -0.2317(4)
H13A H 0.8144 -0.2910 -0.1099
C16A C 0.8916(8) -0.0201(6) -0.2986(4)
H14A H 0.6983 0.0787 -0.2256
H20A H 0.4037 -0.3938 -0.0798
H21A H 0.5033 -0.3259 -0.1698
H22A H 0.3277 -0.2621 -0.1325
C11A C 0.9846(7) -0.1375(5) -0.3012(4)
H12A H 1.0247 -0.3212 -0.2342
H15A H 0.9139 0.0510 -0.3470
Br2A Br 1.1541(1) -0.1628(1) -0.4019(1)
loop_
_geom_bond_atom_site_label_1
_geom_bond_atom_site_label_2
_geom_bond_site_symmetry_1
_geom_bond_site_symmetry_2
Br1 C1 1_555 1_555
C1 C2 1_555 1_555
C2 C3 1_555 1_555
C3 C4 1_555 1_555
C4 C5 1_555 1_555
C5 C6 1_555 1_555
C6 C1 1_555 1_555
C7 C4 1_555 1_555
C8 C7 1_555 1_555
C9 C7 1_555 1_555
O1 C7 1_555 1_555
C10 O1 1_555 1_555
H1 C2 1_555 1_555
H2 C3 1_555 1_555
H3 C5 1_555 1_555
H4 C6 1_555 1_555
H5 C8 1_555 1_555
H6 C8 1_555 1_555
H7 C9 1_555 1_555
H8 C9 1_555 1_555
H9 C10 1_555 1_555
H10 C10 1_555 1_555
H11 C10 1_555 1_555
Br2 C11 1_555 1_555
C11 C12 1_555 1_555
C12 C13 1_555 1_555
C13 C14 1_555 1_555
C14 C15 1_555 1_555
C15 C16 1_555 1_555
C16 C11 1_555 1_555
C17 C14 1_555 1_555
C18 C17 1_555 1_555
C19 C17 1_555 1_555
O2 C17 1_555 1_555
C20 O2 1_555 1_555
H12 C12 1_555 1_555
H13 C13 1_555 1_555
H14 C15 1_555 1_555
H15 C16 1_555 1_555
H16 C18 1_555 1_555
H17 C18 1_555 1_555
H18 C19 1_555 1_555
H19 C19 1_555 1_555
H20 C20 1_555 1_555
H21 C20 1_555 1_555
H22 C20 1_555 1_555
C9A C8 1_555 1_555
C8A C9 1_555 1_555
C7A C9A 1_555 1_555
H7A C9A 1_555 1_555
H8A C9A 1_555 1_555
H5A C8A 1_555 1_555
H6A C8A 1_555 1_555
C4A C7A 1_555 1_555
O1A C7A 1_555 1_555
C3A C4A 1_555 1_555
C5A C4A 1_555 1_555
C10A O1A 1_555 1_555
C2A C3A 1_555 1_555
H2A C3A 1_555 1_555
C6A C5A 1_555 1_555
H3A C5A 1_555 1_555
H9A C10A 1_555 1_555
H10A C10A 1_555 1_555
H11A C10A 1_555 1_555
C1A C2A 1_555 1_555
H1A C2A 1_555 1_555
H4A C6A 1_555 1_555
Br1A C1A 1_555 1_555
C19A C18 1_555 1_555
C18A C19 1_555 1_555
C17A C19A 1_555 1_555
H18A C19A 1_555 1_555
H19A C19A 1_555 1_555
H16A C18A 1_555 1_555
H17A C18A 1_555 1_555
C14A C17A 1_555 1_555
O2A C17A 1_555 1_555
C13A C14A 1_555 1_555
C15A C14A 1_555 1_555
C20A O2A 1_555 1_555
C12A C13A 1_555 1_555
H13A C13A 1_555 1_555
C16A C15A 1_555 1_555
H14A C15A 1_555 1_555
H20A C20A 1_555 1_555
H21A C20A 1_555 1_555
H22A C20A 1_555 1_555
C11A C12A 1_555 1_555
H12A C12A 1_555 1_555
H15A C16A 1_555 1_555
Br2A C11A 1_555 1_555
C8A C7A 1_555 1_555
C6A C1A 1_555 1_555
C18A C17A 1_555 1_555
C16A C11A 1_555 1_555

#END
