
#######################################################################
#
#                 Cambridge Crystallographic Data Centre
#                                CCDC 
#
#######################################################################
#
# If this CIF has been generated from an entry in the Cambridge 
# Structural Database, then it will include bibliographic, chemical, 
# crystal, experimental, refinement or atomic coordinate data resulting 
# from the CCDC's data processing and validation procedures.
#
#######################################################################

data_LAPYIK
_chemical_formula_moiety         'C18 H18 I2'
_chemical_name_systematic        cis-1,4-bis(4-Iodophenyl)cyclohexane
_symmetry_cell_setting           monoclinic
_symmetry_space_group_name_H-M   'P 21/n'
_symmetry_Int_Tables_number      14
_space_group_name_Hall           '-P 2yn'
loop_
_symmetry_equiv_pos_site_id
_symmetry_equiv_pos_as_xyz
1 x,y,z
2 1/2-x,1/2+y,1/2-z
3 -x,-y,-z
4 1/2+x,1/2-y,1/2+z
_cell_length_a                   19.211(4)
_cell_length_b                   14.870(3)
_cell_length_c                   19.970(4)
_cell_angle_alpha                90
_cell_angle_beta                 115.96(1)
_cell_angle_gamma                90
_cell_volume                     5129.17
_exptl_crystal_colour            colorless
_chemical_melting_point          118-121deg.C
_cell_formula_units_Z            12
loop_
_atom_site_label
_atom_site_type_symbol
_atom_site_fract_x
_atom_site_fract_y
_atom_site_fract_z
I1 I 0.5803(1) 0.5474(1) 0.1398(1)
I2 I 0.4850(1) -0.2302(1) 0.1805(1)
C1 C 0.7599(6) 0.2165(7) 0.0791(6)
C2 C 0.7071(7) 0.1582(8) 0.0123(7)
C3 C 0.6488(6) 0.1026(8) 0.0270(6)
C4 C 0.6916(6) 0.0393(7) 0.0929(6)
C5 C 0.7432(6) 0.0954(8) 0.1616(6)
C6 C 0.7994(7) 0.1525(8) 0.1467(7)
C7 C 0.7178(6) 0.2949(8) 0.0947(6)
C8 C 0.7343(7) 0.3238(8) 0.1664(6)
C9 C 0.6976(7) 0.3954(8) 0.1791(7)
C10 C 0.6413(6) 0.4418(8) 0.1204(7)
C11 C 0.6236(7) 0.4160(9) 0.0499(7)
C12 C 0.6610(8) 0.3431(9) 0.0375(7)
C13 C 0.6397(6) -0.0228(7) 0.1106(6)
C14 C 0.6523(6) -0.1152(7) 0.1137(7)
C15 C 0.6096(7) -0.1752(8) 0.1337(7)
C16 C 0.5511(6) -0.1412(8) 0.1501(6)
C17 C 0.5375(6) -0.0528(8) 0.1466(7)
C18 C 0.5795(6) 0.0064(8) 0.1255(7)
H1 H 0.7996 0.2413 0.0677
H2 H 0.7384 0.1177 -0.0004
H3 H 0.6801 0.1968 -0.0297
H4 H 0.6167 0.0684 -0.0163
H5 H 0.6163 0.1420 0.0390
H6 H 0.7251 0.0021 0.0804
H7 H 0.7702 0.0561 0.2031
H8 H 0.7103 0.1339 0.1738
H9 H 0.8284 0.1883 0.1901
H10 H 0.8351 0.1134 0.1391
H11 H 0.7730 0.2920 0.2078
H12 H 0.7101 0.4141 0.2291
H13 H 0.5852 0.4485 0.0089
H14 H 0.6479 0.3248 -0.0127
H15 H 0.6927 -0.1378 0.1023
H16 H 0.6199 -0.2386 0.1366
H17 H 0.4977 -0.0308 0.1591
H18 H 0.5666 0.0692 0.1206
I3 I 0.5617(1) 0.5565(1) 0.4485(1)
I4 I 0.4933(1) -0.2411(1) 0.5240(1)
C19 C 0.6842(7) 0.2137(9) 0.3372(7)
C20 C 0.6184(8) 0.1524(9) 0.2864(7)
C21 C 0.5854(6) 0.0936(8) 0.3279(6)
C22 C 0.6484(6) 0.0346(8) 0.3826(7)
C23 C 0.7136(7) 0.0926(8) 0.4374(7)
C24 C 0.7465(7) 0.1554(9) 0.3975(8)
C25 C 0.6561(7) 0.2937(8) 0.3660(7)
C26 C 0.6808(7) 0.3139(8) 0.4416(7)
C27 C 0.6542(8) 0.3898(8) 0.4630(8)
C28 C 0.6016(8) 0.4452(9) 0.4134(8)
C29 C 0.5752(8) 0.4274(9) 0.3376(8)
C30 C 0.6030(7) 0.3535(9) 0.3157(7)
C31 C 0.6148(6) -0.0307(8) 0.4197(7)
C32 C 0.5836(7) -0.1124(8) 0.3853(7)
C33 C 0.5487(7) -0.1709(8) 0.4146(7)
C34 C 0.5457(7) -0.1503(8) 0.4787(7)
C35 C 0.5766(9) -0.0705(9) 0.5149(8)
C36 C 0.6093(8) -0.0132(9) 0.4856(8)
H19 H 0.7075 0.2377 0.3072
H20 H 0.6363 0.1140 0.2585
H21 H 0.5777 0.1894 0.2515
H22 H 0.5437 0.0572 0.2939
H23 H 0.5661 0.1310 0.3552
H24 H 0.6691 -0.0003 0.3551
H25 H 0.7540 0.0547 0.4716
H26 H 0.6937 0.1281 0.4653
H27 H 0.7848 0.1941 0.4331
H28 H 0.7717 0.1192 0.3748
H29 H 0.7165 0.2741 0.4786
H30 H 0.6734 0.4040 0.5150
H31 H 0.5382 0.4667 0.3013
H32 H 0.5854 0.3416 0.2635
H33 H 0.5865 -0.1281 0.3400
H34 H 0.5269 -0.2267 0.3903
H35 H 0.5756 -0.0581 0.5617
H36 H 0.6293 0.0427 0.5107
I5 I 0.3688(1) -0.4955(1) 0.1417(1)
I6 I 0.4674(1) 0.2914(1) 0.0820(1)
C37 C 0.2602(7) -0.1506(8) 0.2633(7)
C38 C 0.2003(6) -0.0886(8) 0.2059(7)
C39 C 0.2367(7) -0.0288(8) 0.1677(7)
C40 C 0.3038(6) 0.0252(8) 0.2221(7)
C41 C 0.3631(6) -0.0380(8) 0.2766(7)
C42 C 0.3288(7) -0.0934(8) 0.3179(6)
C43 C 0.2844(7) -0.2315(8) 0.2323(6)
C44 C 0.3457(7) -0.2867(8) 0.2795(7)
C45 C 0.3671(7) -0.3620(8) 0.2540(8)
C46 C 0.3314(7) -0.3821(8) 0.1795(7)
C47 C 0.2722(7) -0.3296(8) 0.1322(7)
C48 C 0.2498(7) -0.2558(8) 0.1582(7)
C49 C 0.3395(6) 0.0892(7) 0.1873(7)
C50 C 0.3695(7) 0.1712(8) 0.2180(7)
C51 C 0.4049(8) 0.2290(8) 0.1902(8)
C52 C 0.4105(7) 0.2054(7) 0.1259(7)
C53 C 0.3835(7) 0.1238(8) 0.0926(7)
C54 C 0.3490(7) 0.0657(8) 0.1230(7)
H37 H 0.2360 -0.1747 0.2924
H38 H 0.1773 -0.0511 0.2299
H39 H 0.1600 -0.1243 0.1692
H40 H 0.1985 0.0115 0.1336
H41 H 0.2553 -0.0659 0.1397
H42 H 0.2843 0.0610 0.2501
H43 H 0.4065 -0.0041 0.3111
H44 H 0.3808 -0.0773 0.2492
H45 H 0.3676 -0.1326 0.3524
H46 H 0.3117 -0.0538 0.3457
H47 H 0.3737 -0.2702 0.3310
H48 H 0.4058 -0.4021 0.2877
H49 H 0.2470 -0.3446 0.0802
H50 H 0.2078 -0.2197 0.1241
H51 H 0.3643 0.1888 0.2619
H52 H 0.4255 0.2854 0.2141
H53 H 0.3889 0.1079 0.0485
H54 H 0.3309 0.0082 0.1001
loop_
_geom_bond_atom_site_label_1
_geom_bond_atom_site_label_2
_geom_bond_site_symmetry_1
_geom_bond_site_symmetry_2
I1 C10 1_555 1_555
I2 C16 1_555 1_555
C1 C2 1_555 1_555
C2 C3 1_555 1_555
C3 C4 1_555 1_555
C4 C5 1_555 1_555
C5 C6 1_555 1_555
C6 C1 1_555 1_555
C7 C1 1_555 1_555
C8 C7 1_555 1_555
C9 C8 1_555 1_555
C10 C9 1_555 1_555
C11 C10 1_555 1_555
C12 C7 1_555 1_555
C13 C4 1_555 1_555
C14 C13 1_555 1_555
C15 C14 1_555 1_555
C16 C15 1_555 1_555
C17 C16 1_555 1_555
C18 C13 1_555 1_555
H1 C1 1_555 1_555
H2 C2 1_555 1_555
H3 C2 1_555 1_555
H4 C3 1_555 1_555
H5 C3 1_555 1_555
H6 C4 1_555 1_555
H7 C5 1_555 1_555
H8 C5 1_555 1_555
H9 C6 1_555 1_555
H10 C6 1_555 1_555
H11 C8 1_555 1_555
H12 C9 1_555 1_555
H13 C11 1_555 1_555
H14 C12 1_555 1_555
H15 C14 1_555 1_555
H16 C15 1_555 1_555
H17 C17 1_555 1_555
H18 C18 1_555 1_555
I3 C28 1_555 1_555
I4 C34 1_555 1_555
C19 C20 1_555 1_555
C20 C21 1_555 1_555
C21 C22 1_555 1_555
C22 C23 1_555 1_555
C23 C24 1_555 1_555
C24 C19 1_555 1_555
C25 C19 1_555 1_555
C26 C25 1_555 1_555
C27 C26 1_555 1_555
C28 C27 1_555 1_555
C29 C28 1_555 1_555
C30 C25 1_555 1_555
C31 C22 1_555 1_555
C32 C31 1_555 1_555
C33 C32 1_555 1_555
C34 C33 1_555 1_555
C35 C34 1_555 1_555
C36 C31 1_555 1_555
H19 C19 1_555 1_555
H20 C20 1_555 1_555
H21 C20 1_555 1_555
H22 C21 1_555 1_555
H23 C21 1_555 1_555
H24 C22 1_555 1_555
H25 C23 1_555 1_555
H26 C23 1_555 1_555
H27 C24 1_555 1_555
H28 C24 1_555 1_555
H29 C26 1_555 1_555
H30 C27 1_555 1_555
H31 C29 1_555 1_555
H32 C30 1_555 1_555
H33 C32 1_555 1_555
H34 C33 1_555 1_555
H35 C35 1_555 1_555
H36 C36 1_555 1_555
I5 C46 1_555 1_555
I6 C52 1_555 1_555
C37 C38 1_555 1_555
C38 C39 1_555 1_555
C39 C40 1_555 1_555
C40 C41 1_555 1_555
C41 C42 1_555 1_555
C42 C37 1_555 1_555
C43 C37 1_555 1_555
C44 C43 1_555 1_555
C45 C44 1_555 1_555
C46 C45 1_555 1_555
C47 C46 1_555 1_555
C48 C43 1_555 1_555
C49 C40 1_555 1_555
C50 C49 1_555 1_555
C51 C50 1_555 1_555
C52 C51 1_555 1_555
C53 C52 1_555 1_555
C54 C49 1_555 1_555
H37 C37 1_555 1_555
H38 C38 1_555 1_555
H39 C38 1_555 1_555
H40 C39 1_555 1_555
H41 C39 1_555 1_555
H42 C40 1_555 1_555
H43 C41 1_555 1_555
H44 C41 1_555 1_555
H45 C42 1_555 1_555
H46 C42 1_555 1_555
H47 C44 1_555 1_555
H48 C45 1_555 1_555
H49 C47 1_555 1_555
H50 C48 1_555 1_555
H51 C50 1_555 1_555
H52 C51 1_555 1_555
H53 C53 1_555 1_555
H54 C54 1_555 1_555
C11 C12 1_555 1_555
C17 C18 1_555 1_555
C29 C30 1_555 1_555
C35 C36 1_555 1_555
C47 C48 1_555 1_555
C53 C54 1_555 1_555

#END
