
#######################################################################
#
#                 Cambridge Crystallographic Data Centre
#                                CCDC 
#
#######################################################################
#
# If this CIF has been generated from an entry in the Cambridge 
# Structural Database, then it will include bibliographic, chemical, 
# crystal, experimental, refinement or atomic coordinate data resulting 
# from the CCDC's data processing and validation procedures.
#
#######################################################################

data_LAPZUZ
_chemical_formula_moiety         'C7 H6 O5,0.25(H2 O1)'
_chemical_name_systematic        '2,3,4-Trihydroxybenzoic acid hydrate'
_symmetry_cell_setting           orthorhombic
_symmetry_space_group_name_H-M   'P 21 21 2'
_symmetry_Int_Tables_number      18
_space_group_name_Hall           'P 2 2ab'
loop_
_symmetry_equiv_pos_site_id
_symmetry_equiv_pos_as_xyz
1 x,y,z
2 -x,-y,z
3 1/2-x,1/2+y,-z
4 1/2+x,1/2-y,-z
_cell_length_a                   11.8364(12)
_cell_length_b                   32.598(3)
_cell_length_c                   3.7306(4)
_cell_angle_alpha                90
_cell_angle_beta                 90
_cell_angle_gamma                90
_cell_volume                     1439.43
_exptl_crystal_colour            'light brown'
_exptl_crystal_description       prism
_cell_formula_units_Z            8
loop_
_atom_site_label
_atom_site_type_symbol
_atom_site_fract_x
_atom_site_fract_y
_atom_site_fract_z
O1 O 0.5000 0.0000 -0.1102(7)
H1 H 0.5263 0.0173 0.0258
H1A H 0.4737 -0.0173 0.0258
O2 O 0.65345(12) 0.12870(4) 0.2193(5)
H2 H 0.6637 0.1534 0.1900
O3 O 0.65656(13) 0.04688(4) 0.3549(4)
H3 H 0.6145 0.0640 0.4444
O4 O 0.84576(14) 0.00203(5) 0.2010(5)
H4 H 0.7859 -0.0048 0.2940
O5 O 0.75826(14) 0.19200(4) -0.0346(6)
O6 O 0.93058(15) 0.18491(4) -0.2704(6)
H5 H 0.9243 0.2098 -0.2919
C1 C 0.84467(19) 0.12653(6) -0.0250(7)
C2 C 0.74982(19) 0.10787(6) 0.1337(6)
C3 C 0.74932(18) 0.06626(6) 0.2074(6)
C4 C 0.84311(19) 0.04271(6) 0.1272(7)
C5 C 0.9374(2) 0.06046(7) -0.0324(7)
H6 H 0.9998 0.0444 -0.0891
C6 C 0.9383(2) 0.10180(7) -0.1064(7)
H7 H 1.0018 0.1135 -0.2117
C7 C 0.8406(2) 0.17017(7) -0.1079(7)
O7 O 0.49399(13) 0.17376(4) -0.2824(5)
H8 H 0.4856 0.1982 -0.3270
O8 O 0.49999(12) 0.09083(4) -0.2151(5)
H9 H 0.5380 0.1075 -0.1033
O9 O 0.32290(14) 0.04439(4) -0.4474(5)
H10 H 0.3817 0.0378 -0.3464
O10 O 0.39072(15) 0.23703(5) -0.5434(6)
O11 O 0.22055(15) 0.23003(5) -0.7935(6)
H11 H 0.2294 0.2547 -0.8259
C8 C 0.3088(2) 0.17066(7) -0.5659(7)
C9 C 0.40325(19) 0.15242(6) -0.4052(6)
C10 C 0.40863(19) 0.11019(6) -0.3646(6)
C11 C 0.31874(19) 0.08593(6) -0.4795(7)
C12 C 0.22322(19) 0.10389(7) -0.6322(7)
H12 H 0.1630 0.0876 -0.7056
C13 C 0.2185(2) 0.14569(7) -0.6737(7)
H13 H 0.1546 0.1576 -0.7746
C14 C 0.3098(2) 0.21492(7) -0.6310(7)
loop_
_geom_bond_atom_site_label_1
_geom_bond_atom_site_label_2
_geom_bond_site_symmetry_1
_geom_bond_site_symmetry_2
O1 H1 1_555 1_555
O2 H2 1_555 1_555
O3 H3 1_555 1_555
O4 H4 1_555 1_555
O5 C7 1_555 1_555
O6 H5 1_555 1_555
C1 C2 1_555 1_555
C2 O2 1_555 1_555
C3 O3 1_555 1_555
C4 O4 1_555 1_555
C5 C4 1_555 1_555
H6 C5 1_555 1_555
C6 C1 1_555 1_555
H7 C6 1_555 1_555
C7 O6 1_555 1_555
O7 H8 1_555 1_555
O8 H9 1_555 1_555
O9 H10 1_555 1_555
O10 C14 1_555 1_555
O11 H11 1_555 1_555
C8 C9 1_555 1_555
C9 O7 1_555 1_555
C10 O8 1_555 1_555
C11 O9 1_555 1_555
C12 C11 1_555 1_555
H12 C12 1_555 1_555
C13 C8 1_555 1_555
H13 C13 1_555 1_555
C14 O11 1_555 1_555
H1A O1 1_555 1_555
C1 C7 1_555 1_555
C2 C3 1_555 1_555
C3 C4 1_555 1_555
C5 C6 1_555 1_555
C8 C14 1_555 1_555
C9 C10 1_555 1_555
C10 C11 1_555 1_555
C12 C13 1_555 1_555

#END
