
#######################################################################
#
#                 Cambridge Crystallographic Data Centre
#                                CCDC 
#
#######################################################################
#
# If this CIF has been generated from an entry in the Cambridge 
# Structural Database, then it will include bibliographic, chemical, 
# crystal, experimental, refinement or atomic coordinate data resulting 
# from the CCDC's data processing and validation procedures.
#
#######################################################################

data_LAPZEJ
_chemical_formula_moiety         'C23 H34 N4 O4'
_chemical_name_systematic        
5-Methyl-3,3-bis(morpholin-4-yl)-1-[2-(morpholin-4-yl)ethyl]-2,3-dihydro-1H-indol-2-one
_symmetry_cell_setting           monoclinic
_symmetry_space_group_name_H-M   'P 21/c'
_symmetry_Int_Tables_number      14
_space_group_name_Hall           '-P 2ybc'
loop_
_symmetry_equiv_pos_site_id
_symmetry_equiv_pos_as_xyz
1 x,y,z
2 -x,1/2+y,1/2-z
3 -x,-y,-z
4 x,1/2-y,1/2+z
_cell_length_a                   10.1772(10)
_cell_length_b                   14.2576(14)
_cell_length_c                   15.8950(16)
_cell_angle_alpha                90
_cell_angle_beta                 97.332(2)
_cell_angle_gamma                90
_cell_volume                     2287.54
_exptl_crystal_colour            colorless
_exptl_crystal_description       block
_chemical_melting_point          '450.2-451.9 K'
_cell_formula_units_Z            4
loop_
_atom_site_label
_atom_site_type_symbol
_atom_site_fract_x
_atom_site_fract_y
_atom_site_fract_z
N1 N 0.58843(17) 0.24574(12) 0.17404(11)
N2 N 0.80352(17) 0.17783(11) 0.08141(13)
N3 N 0.36653(15) 0.22400(10) -0.00090(9)
N4 N 0.29148(16) 0.34238(10) 0.08565(9)
O1 O 0.58871(14) 0.35530(10) 0.06837(9)
O2 O 0.90210(18) 0.16969(14) -0.07774(12)
O3 O 0.31081(16) 0.09322(10) -0.13528(9)
O4 O 0.17921(17) 0.52235(10) 0.10253(10)
C1 C 0.3731(2) 0.19469(12) 0.15619(12)
C2 C 0.2663(2) 0.14541(13) 0.17824(12)
H1 H 0.1832 0.1533 0.1471
C3 C 0.2818(2) 0.08355(13) 0.24716(14)
C4 C 0.4063(3) 0.07408(15) 0.29203(14)
H2 H 0.4176 0.0328 0.3377
C5 C 0.5156(3) 0.12359(16) 0.27181(14)
H3 H 0.5987 0.1160 0.3029
C6 C 0.4963(2) 0.18449(13) 0.20389(13)
C7 C 0.1639(3) 0.03148(16) 0.27269(16)
H4 H 0.1921 -0.0078 0.3207
H5 H 0.1253 -0.0066 0.2262
H6 H 0.0995 0.0757 0.2874
C8 C 0.5323(2) 0.29554(14) 0.10519(13)
C9 C 0.38464(19) 0.26432(12) 0.08495(12)
C10 C 0.7280(2) 0.25298(17) 0.20717(15)
H7 H 0.7376 0.2489 0.2686
H8 H 0.7611 0.3137 0.1922
C11 C 0.8101(2) 0.17647(17) 0.17284(16)
H9 H 0.9018 0.1836 0.1975
H10 H 0.7795 0.1160 0.1903
C12 C 0.8768(2) 0.25529(14) 0.05026(17)
H11 H 0.9702 0.2493 0.0712
H12 H 0.8452 0.3142 0.0707
C13 C 0.8582(3) 0.25463(18) -0.04466(18)
H13 H 0.7651 0.2636 -0.0651
H14 H 0.9070 0.3065 -0.0651
C14 C 0.8346(3) 0.09313(19) -0.0469(2)
H15 H 0.8684 0.0352 -0.0678
H16 H 0.7411 0.0974 -0.0681
C15 C 0.8511(3) 0.09099(15) 0.0481(2)
H17 H 0.8019 0.0385 0.0672
H18 H 0.9439 0.0824 0.0695
C16 C 0.2317(2) 0.19163(14) -0.02867(12)
H19 H 0.1688 0.2409 -0.0204
H20 H 0.2117 0.1376 0.0045
C17 C 0.2202(2) 0.16579(16) -0.12093(13)
H21 H 0.1306 0.1451 -0.1400
H22 H 0.2379 0.2206 -0.1538
C18 C 0.4419(2) 0.12244(16) -0.10682(13)
H23 H 0.4637 0.1760 -0.1401
H24 H 0.5028 0.0721 -0.1157
C19 C 0.4594(2) 0.14893(13) -0.01383(13)
H25 H 0.4426 0.0949 0.0203
H26 H 0.5495 0.1699 0.0033
C20 C 0.2886(2) 0.38543(13) 0.16874(12)
H27 H 0.3701 0.4197 0.1852
H28 H 0.2805 0.3373 0.2109
C21 C 0.1725(2) 0.45096(14) 0.16374(15)
H29 H 0.0914 0.4155 0.1494
H30 H 0.1695 0.4795 0.2188
C22 C 0.1873(3) 0.48121(16) 0.02166(15)
H31 H 0.1942 0.5305 -0.0196
H32 H 0.1067 0.4463 0.0040
C23 C 0.3039(2) 0.41675(13) 0.02300(13)
H33 H 0.3060 0.3894 -0.0327
H34 H 0.3855 0.4514 0.0383
loop_
_geom_bond_atom_site_label_1
_geom_bond_atom_site_label_2
_geom_bond_site_symmetry_1
_geom_bond_site_symmetry_2
N1 C6 1_555 1_555
N2 C11 1_555 1_555
N3 C9 1_555 1_555
N4 C9 1_555 1_555
O1 C8 1_555 1_555
O2 C13 1_555 1_555
O3 C17 1_555 1_555
O4 C21 1_555 1_555
C1 C2 1_555 1_555
C2 H1 1_555 1_555
C3 C2 1_555 1_555
C4 C3 1_555 1_555
H2 C4 1_555 1_555
C5 C4 1_555 1_555
H3 C5 1_555 1_555
C6 C1 1_555 1_555
C7 C3 1_555 1_555
H4 C7 1_555 1_555
H5 C7 1_555 1_555
H6 C7 1_555 1_555
C8 N1 1_555 1_555
C9 C1 1_555 1_555
C10 N1 1_555 1_555
H7 C10 1_555 1_555
H8 C10 1_555 1_555
C11 C10 1_555 1_555
H9 C11 1_555 1_555
H10 C11 1_555 1_555
C12 N2 1_555 1_555
H11 C12 1_555 1_555
H12 C12 1_555 1_555
C13 C12 1_555 1_555
H13 C13 1_555 1_555
H14 C13 1_555 1_555
C14 O2 1_555 1_555
H15 C14 1_555 1_555
H16 C14 1_555 1_555
C15 N2 1_555 1_555
H17 C15 1_555 1_555
H18 C15 1_555 1_555
C16 N3 1_555 1_555
H19 C16 1_555 1_555
H20 C16 1_555 1_555
C17 C16 1_555 1_555
H21 C17 1_555 1_555
H22 C17 1_555 1_555
C18 O3 1_555 1_555
H23 C18 1_555 1_555
H24 C18 1_555 1_555
C19 N3 1_555 1_555
H25 C19 1_555 1_555
H26 C19 1_555 1_555
C20 N4 1_555 1_555
H27 C20 1_555 1_555
H28 C20 1_555 1_555
C21 C20 1_555 1_555
H29 C21 1_555 1_555
H30 C21 1_555 1_555
C22 O4 1_555 1_555
H31 C22 1_555 1_555
H32 C22 1_555 1_555
C23 N4 1_555 1_555
H33 C23 1_555 1_555
H34 C23 1_555 1_555
C5 C6 1_555 1_555
C8 C9 1_555 1_555
C14 C15 1_555 1_555
C18 C19 1_555 1_555
C22 C23 1_555 1_555

#END
