
#######################################################################
#
#                 Cambridge Crystallographic Data Centre
#                                CCDC 
#
#######################################################################
#
# If this CIF has been generated from an entry in the Cambridge 
# Structural Database, then it will include bibliographic, chemical, 
# crystal, experimental, refinement or atomic coordinate data resulting 
# from the CCDC's data processing and validation procedures.
#
#######################################################################

data_LAPZEH
_chemical_formula_moiety         'C24 H28 S1'
_chemical_name_systematic        
cis,cis-3,10-Diphenyl-13-thiadispiro(5.0.5.1)tridecane
_symmetry_cell_setting           monoclinic
_symmetry_space_group_name_H-M   'C 2/c'
_symmetry_Int_Tables_number      15
_space_group_name_Hall           '-C 2yn'
loop_
_symmetry_equiv_pos_site_id
_symmetry_equiv_pos_as_xyz
1 x,y,z
2 1/2+x,1/2+y,z
3 -x,y,1/2-z
4 1/2-x,1/2+y,1/2-z
5 -x,-y,-z
6 1/2-x,1/2-y,-z
7 x,-y,1/2+z
8 1/2+x,1/2-y,1/2+z
_cell_length_a                   19.312(5)
_cell_length_b                   5.426(1)
_cell_length_c                   19.131(5)
_cell_angle_alpha                90
_cell_angle_beta                 107.56(2)
_cell_angle_gamma                90
_cell_volume                     1911.26
_exptl_crystal_colour            colorless
_chemical_melting_point          215deg.C
_cell_formula_units_Z            4
loop_
_atom_site_label
_atom_site_type_symbol
_atom_site_fract_x
_atom_site_fract_y
_atom_site_fract_z
S1 S 0.5000 0.6104(1) 0.7500
C1 C 0.4791(1) 0.2990(3) 0.7104(1)
C2 C 0.5157(1) 0.2264(3) 0.6536(1)
C3 C 0.4757(1) 0.3289(3) 0.5781(1)
C4 C 0.3958(1) 0.2550(3) 0.5533(1)
C5 C 0.3607(1) 0.3412(4) 0.6105(1)
C6 C 0.3990(1) 0.2334(4) 0.6856(1)
C7 C 0.3588(1) 0.3410(3) 0.4757(1)
C8 C 0.3689(1) 0.2081(4) 0.4176(1)
C9 C 0.3384(1) 0.2803(5) 0.3461(1)
C10 C 0.2959(1) 0.4871(5) 0.3301(1)
C11 C 0.2848(1) 0.6225(4) 0.3866(1)
C12 C 0.3164(1) 0.5512(4) 0.4591(1)
H1 H 0.5174 0.0500 0.6507
H2 H 0.5648 0.2863 0.6685
H3 H 0.4985 0.2698 0.5431
H4 H 0.4793 0.5054 0.5795
H5 H 0.3939 0.0781 0.5528
H6 H 0.3105 0.2935 0.5957
H7 H 0.3629 0.5178 0.6134
H8 H 0.3766 0.2947 0.7207
H9 H 0.3936 0.0574 0.6835
H10 H 0.3981 0.0615 0.4279
H11 H 0.3467 0.1846 0.3072
H12 H 0.2745 0.5378 0.2802
H13 H 0.2547 0.7668 0.3759
H14 H 0.3089 0.6484 0.4982
C1B C 0.5209(1) 0.2990(3) 0.7896(1)
C2B C 0.4843(1) 0.2264(3) 0.8464(1)
C6B C 0.6010(1) 0.2334(4) 0.8144(1)
C3B C 0.5243(1) 0.3289(3) 0.9219(1)
H1B H 0.4826 0.0500 0.8493
H2B H 0.4352 0.2863 0.8315
C5B C 0.6393(1) 0.3412(4) 0.8895(1)
H8B H 0.6234 0.2947 0.7793
H9B H 0.6064 0.0574 0.8165
C4B C 0.6042(1) 0.2550(3) 0.9467(1)
H3B H 0.5015 0.2698 0.9569
H4B H 0.5207 0.5054 0.9205
H6B H 0.6895 0.2935 0.9043
H7B H 0.6371 0.5178 0.8866
C7B C 0.6412(1) 0.3410(3) 1.0243(1)
H5B H 0.6061 0.0781 0.9472
C8B C 0.6311(1) 0.2081(4) 1.0824(1)
C12B C 0.6836(1) 0.5512(4) 1.0409(1)
C9B C 0.6616(1) 0.2803(5) 1.1539(1)
H10B H 0.6019 0.0615 1.0721
C11B C 0.7152(1) 0.6225(4) 1.1134(1)
H14B H 0.6911 0.6484 1.0018
C10B C 0.7041(1) 0.4871(5) 1.1699(1)
H11B H 0.6533 0.1846 1.1928
H13B H 0.7453 0.7668 1.1241
H12B H 0.7255 0.5378 1.2198
loop_
_geom_bond_atom_site_label_1
_geom_bond_atom_site_label_2
_geom_bond_site_symmetry_1
_geom_bond_site_symmetry_2
S1 C1 1_555 1_555
C1 C2 1_555 1_555
C2 C3 1_555 1_555
C3 C4 1_555 1_555
C4 C5 1_555 1_555
C5 C6 1_555 1_555
C6 C1 1_555 1_555
C7 C4 1_555 1_555
C8 C7 1_555 1_555
C9 C8 1_555 1_555
C10 C9 1_555 1_555
C11 C10 1_555 1_555
C12 C7 1_555 1_555
H1 C2 1_555 1_555
H2 C2 1_555 1_555
H3 C3 1_555 1_555
H4 C3 1_555 1_555
H5 C4 1_555 1_555
H6 C5 1_555 1_555
H7 C5 1_555 1_555
H8 C6 1_555 1_555
H9 C6 1_555 1_555
H10 C8 1_555 1_555
H11 C9 1_555 1_555
H12 C10 1_555 1_555
H13 C11 1_555 1_555
H14 C12 1_555 1_555
C1B S1 1_555 1_555
C2B C1B 1_555 1_555
C6B C1B 1_555 1_555
C3B C2B 1_555 1_555
H1B C2B 1_555 1_555
H2B C2B 1_555 1_555
C5B C6B 1_555 1_555
H8B C6B 1_555 1_555
H9B C6B 1_555 1_555
C4B C3B 1_555 1_555
H3B C3B 1_555 1_555
H4B C3B 1_555 1_555
H6B C5B 1_555 1_555
H7B C5B 1_555 1_555
C7B C4B 1_555 1_555
H5B C4B 1_555 1_555
C8B C7B 1_555 1_555
C12B C7B 1_555 1_555
C9B C8B 1_555 1_555
H10B C8B 1_555 1_555
C11B C12B 1_555 1_555
H14B C12B 1_555 1_555
C10B C9B 1_555 1_555
H11B C9B 1_555 1_555
H13B C11B 1_555 1_555
H12B C10B 1_555 1_555
C1 C1B 1_555 1_555
C11 C12 1_555 1_555
C5B C4B 1_555 1_555
C11B C10B 1_555 1_555

#END
