
#######################################################################
#
#                 Cambridge Crystallographic Data Centre
#                                CCDC 
#
#######################################################################
#
# If this CIF has been generated from an entry in the Cambridge 
# Structural Database, then it will include bibliographic, chemical, 
# crystal, experimental, refinement or atomic coordinate data resulting 
# from the CCDC's data processing and validation procedures.
#
#######################################################################

data_LAQCUE
_chemical_formula_moiety         
'C178 H169 F9 N32 O26,C25 H34 N2 O2,2(C6 H14),3(C1 H1 Cl3)'
_chemical_name_systematic        
"2,8-bis{[2-{[2-{[2-({2-[(6-{[6-({6-[(2,2-dimethylpropanoyl)amino]pyridin-2-yl}carbamoyl)pyridine-2-carbonyl]amino}pyridin-2-yl)carbamoyl]-8-fluoro-4-(2-methylpropoxy)quinolin-7-yl}carbamoyl)-8-fluoro-4-(2-methylpropoxy)quinolin-7-yl]carbamoyl}-8-fluoro-4-(2-methylpropoxy)quinolin-7-yl]carbamoyl}-8-fluoro-4-(2-methylpropoxy)quinolin-7-yl]carbamoyl}-10-fluoro-4,6-bis(2-methylpropoxy)pyrido[3,2-g]quinoline N,N'-(pentane-1,5-diyl)bis(3-phenylbutanamide) chloroform n-hexane unknown solvate"
_symmetry_cell_setting           monoclinic
_symmetry_space_group_name_H-M   'C 2/c'
_symmetry_Int_Tables_number      15
_space_group_name_Hall           '-C 2yn'
loop_
_symmetry_equiv_pos_site_id
_symmetry_equiv_pos_as_xyz
1 x,y,z
2 -x,y,1/2-z
3 1/2+x,1/2+y,z
4 1/2-x,1/2+y,1/2-z
5 -x,-y,-z
6 x,-y,1/2+z
7 1/2-x,1/2-y,-z
8 1/2+x,1/2-y,1/2+z
_cell_length_a                   22.404
_cell_length_b                   39.025
_cell_length_c                   26.435
_cell_angle_alpha                90
_cell_angle_beta                 112.62
_cell_angle_gamma                90
_cell_volume                     21334.6
_exptl_crystal_colour            yellow
_exptl_crystal_description       prism
_cell_formula_units_Z            4
_chemical_properties_physical    Air-sensitive
loop_
_atom_site_label
_atom_site_type_symbol
_atom_site_fract_x
_atom_site_fract_y
_atom_site_fract_z
Cl1 Cl 0.89222(17) 0.36130(9) 0.05908(13)
Cl2 Cl 1.01212(16) 0.37497(9) 0.14937(13)
Cl3 Cl 1.01315(17) 0.33724(8) 0.05564(13)
C1 C 0.9687(6) 0.3454(3) 0.0981(5)
H1 H 0.9641 0.3239 0.1154
Cl4 Cl 0.4335(2) 0.19701(10) 0.21120(18)
Cl5 Cl 0.5000 0.13193(13) 0.2500
C2 C 0.5000 0.1753(4) 0.2500
Cl4A Cl 0.5665(2) 0.19701(10) 0.28880(18)
F1 F 0.8418(3) 0.13383(14) 0.1571(2)
F2 F 0.9549(3) 0.02109(15) 0.1802(2)
F3 F 1.1798(3) 0.04900(15) 0.2362(2)
F4 F 1.0000 0.2033(2) 0.2500
F5 F 1.1652(3) 0.15129(15) 0.2182(2)
O1 O 1.1875(4) -0.0765(2) 0.2288(3)
O2 O 0.5686(4) 0.08647(19) 0.0425(3)
O3 O 0.7362(5) 0.1082(2) -0.0133(3)
O4 O 0.7237(4) -0.0122(2) 0.1079(3)
O5 O 0.7257(4) 0.2440(2) 0.1013(3)
O6 O 0.9669(3) -0.1318(2) 0.1753(3)
O7 O 1.3994(4) 0.1532(2) 0.3137(4)
N1 N 1.1025(5) 0.2106(3) 0.1778(4)
O8 O 0.8864(4) 0.3425(2) 0.1869(3)
N2 N 1.0392(5) -0.0316(2) 0.1982(3)
N3 N 0.8893(5) 0.2359(2) 0.1879(4)
O9 O 0.9734(4) 0.2658(2) 0.1069(3)
N4 N 0.8234(5) 0.0134(2) 0.1418(3)
H2 H 0.8421 0.0329 0.1518
O10 O 0.9418(4) -0.0347(2) 0.0497(3)
N5 N 0.7687(4) 0.0751(3) 0.1252(3)
O11 O 1.2071(4) 0.3013(2) 0.2170(3)
N6 N 1.2901(5) 0.1462(3) 0.2754(4)
H3 H 1.2628 0.1297 0.2694
N7 N 0.9768(5) 0.2079(3) 0.1078(4)
H4 H 1.0017 0.1911 0.1237
N8 N 0.7909(4) 0.1970(2) 0.1363(3)
H5 H 0.8309 0.1923 0.1549
N9 N 0.8459(5) 0.1162(2) 0.0323(3)
H6 H 0.8826 0.1060 0.0465
N10 N 1.0866(6) 0.0410(3) 0.0862(4)
C3 C 1.0577(6) -0.0921(3) 0.1983(4)
H7 H 1.0877 -0.1097 0.2034
C4 C 0.9455(6) 0.2550(3) 0.2195(4)
O12 O 1.4633(5) 0.0234(2) 0.3282(3)
N11 N 0.9048(5) 0.1646(3) 0.0669(4)
C5 C 1.0000 0.3092(4) 0.2500
H8 H 1.0000 0.3331 0.2500
C6 C 0.6337(6) 0.0795(3) 0.0713(4)
C7 C 0.9301(6) -0.0112(3) 0.1705(4)
C8 C 0.8407(5) -0.0500(3) 0.1429(4)
H9 H 0.7965 -0.0541 0.1305
N12 N 1.1666(5) -0.0199(2) 0.2326(3)
H10 H 1.1350 -0.0059 0.2266
N13 N 0.8638(5) 0.0458(3) 0.0306(4)
N14 N 0.9851(6) 0.0195(2) 0.0623(4)
H11 H 0.9750 0.0409 0.0607
C9 C 0.9493(6) -0.0711(3) 0.1723(4)
C10 C 1.0000 0.2385(4) 0.2500
C11 C 1.0782(5) -0.0587(3) 0.2066(4)
C12 C 0.8259(6) 0.3607(3) 0.1616(5)
H12 H 0.7965 0.3550 0.1793
H13 H 0.8055 0.3551 0.1230
C13 C 1.2287(8) -0.0050(3) 0.2517(5)
C14 C 0.7501(6) 0.1687(3) 0.1191(4)
C15 C 1.3001(6) 0.2100(4) 0.2762(5)
H14 H 1.3444 0.2092 0.2967
C16 C 0.7473(7) 0.0377(4) -0.0080(5)
H15 H 0.7062 0.0473 -0.0209
N15 N 1.2964(5) 0.0809(3) 0.2754(3)
C17 C 0.5290(6) 0.0591(3) 0.0200(5)
H16 H 0.5234 0.0456 0.0487
H17 H 0.5484 0.0445 0.0007
C18 C 0.6851(6) 0.1727(3) 0.0922(5)
H18 H 0.6670 0.1944 0.0837
C19 C 0.7383(5) 0.1075(3) 0.1123(4)
C20 C 1.4108(8) 0.0442(4) 0.3132(5)
C21 C 0.8305(6) 0.2886(3) 0.1550(4)
H19 H 0.7919 0.2990 0.1327
C22 C 0.8439(6) 0.3980(3) 0.1693(5)
H20 H 0.8693 0.4038 0.1474
C23 C 0.9737(6) -0.0391(3) 0.1815(4)
C24 C 1.3452(7) -0.0097(3) 0.2885(4)
H21 H 1.3825 -0.0229 0.2990
C25 C 1.2597(7) 0.1789(3) 0.2602(5)
C26 C 1.0785(7) -0.0210(3) 0.0854(5)
H22 H 1.0536 -0.0408 0.0791
C27 C 1.0736(6) 0.2404(4) 0.1602(5)
N16 N 1.1849(6) 0.0676(3) 0.1046(4)
H23 H 1.1645 0.0863 0.1046
C28 C 1.2278(7) 0.1356(4) 0.1156(6)
H24 H 1.1849 0.1316 0.0892
H25 H 1.2278 0.1341 0.1519
H26 H 1.2421 0.1579 0.1101
C29 C 1.0192(8) -0.2235(3) 0.1815(6)
H27 H 1.0520 -0.2226 0.2179
H28 H 0.9964 -0.2449 0.1764
H29 H 1.0390 -0.2217 0.1552
C30 C 0.8821(7) 0.4079(3) 0.2291(6)
H30 H 0.8921 0.4319 0.2313
H31 H 0.8568 0.4030 0.2503
H32 H 0.9216 0.3949 0.2431
C31 C 0.7784(6) 0.1375(3) 0.1293(5)
C32 C 1.0110(6) -0.1605(3) 0.1813(5)
H33 H 1.0455 -0.1602 0.2175
H34 H 1.0301 -0.1591 0.1541
C33 C 1.0054(7) 0.2390(4) 0.1220(6)
C34 C 1.5717(7) -0.0136(4) 0.4039(6)
H35 H 1.5723 -0.0023 0.4363
H36 H 1.5313 -0.0254 0.3865
H37 H 1.6066 -0.0298 0.4136
C35 C 0.8676(7) 0.2219(3) 0.0453(5)
H38 H 0.8753 0.2453 0.0506
C36 C 0.8369(7) 0.2527(3) 0.1589(5)
C37 C 0.9451(6) 0.2912(3) 0.2184(4)
C38 C 1.3534(8) 0.0970(3) 0.2968(5)
C39 C 1.3410(7) 0.1136(4) 0.1492(6)
H39 H 1.3680 0.0962 0.1436
H40 H 1.3565 0.1358 0.1441
H41 H 1.3422 0.1119 0.1859
C40 C 1.1821(7) 0.0068(5) 0.1105(5)
H42 H 1.2269 0.0055 0.1223
C41 C 0.9937(6) -0.0998(3) 0.1825(4)
C42 C 0.7590(5) 0.0136(4) 0.1193(4)
C43 C 1.2027(6) 0.2422(3) 0.2259(5)
C44 C 0.7763(7) 0.2316(3) 0.1277(5)
C45 C 1.1666(6) 0.2116(3) 0.2120(4)
C46 C 1.1975(5) 0.1812(3) 0.2302(4)
C47 C 0.6719(5) 0.1104(3) 0.0858(4)
C48 C 0.6468(6) 0.1443(3) 0.0778(4)
H43 H 0.6022 0.1472 0.0620
C49 C 1.2062(7) 0.3873(3) 0.1575(5)
H44 H 1.2396 0.4042 0.1653
H45 H 1.1929 0.3799 0.1202
H46 H 1.1698 0.3969 0.1632
C50 C 0.9710(7) -0.1932(3) 0.1734(5)
H47 H 0.9508 -0.1945 0.2004
C51 C 1.1021(5) 0.2714(3) 0.1684(5)
H48 H 1.0794 0.2911 0.1523
O13 O 1.2835(5) 0.0490(3) 0.1179(6)
C52 C 0.8644(6) -0.0155(3) 0.1509(4)
C53 C 0.6628(6) 0.0490(3) 0.0830(4)
H49 H 0.6393 0.0287 0.0738
C54 C 0.7279(5) 0.0490(3) 0.1089(4)
C55 C 0.8007(8) 0.0580(3) 0.0103(5)
C56 C 1.2938(7) 0.0459(3) 0.2728(5)
C57 C 1.1436(7) -0.0223(4) 0.1021(5)
H50 H 1.1635 -0.0437 0.1082
C58 C 1.3504(6) 0.0262(3) 0.2919(4)
C59 C 1.2672(7) 0.2402(3) 0.2585(5)
H51 H 1.2901 0.2606 0.2693
C60 C 0.7943(7) 0.1738(4) 0.0047(5)
H52 H 0.7533 0.1654 -0.0162
C61 C 0.7789(7) 0.4186(3) 0.1472(5)
H53 H 0.7881 0.4428 0.1513
H54 H 0.7556 0.4134 0.1092
H55 H 0.7532 0.4124 0.1676
C62 C 1.1798(7) 0.3309(3) 0.1829(5)
H56 H 1.1440 0.3400 0.1908
H57 H 1.1639 0.3246 0.1445
C63 C 0.9136(6) 0.1974(4) 0.0718(5)
C64 C 0.8839(7) 0.3079(3) 0.1858(5)
C65 C 1.1501(6) -0.0533(4) 0.2224(4)
C66 C 1.1672(7) 0.2724(3) 0.2022(5)
C67 C 1.5267(7) 0.0403(3) 0.3491(6)
H58 H 1.5311 0.0544 0.3806
H59 H 1.5312 0.0548 0.3211
C68 C 0.9226(7) -0.1955(3) 0.1185(5)
H60 H 0.8982 -0.2162 0.1146
H61 H 0.8940 -0.1761 0.1115
H62 H 0.9433 -0.1955 0.0927
C69 C 0.8170(8) -0.0110(3) 0.0139(4)
H63 H 0.8236 -0.0346 0.0170
C70 C 1.1482(9) 0.0389(4) 0.0997(4)
C71 C 1.0513(7) 0.0110(4) 0.0784(4)
C72 C 1.2329(7) 0.0296(3) 0.2534(4)
C73 C 0.8479(8) 0.1518(3) 0.0345(5)
C74 C 0.7922(7) 0.0951(4) 0.0103(5)
C75 C 1.4122(7) 0.0794(3) 0.3154(4)
H64 H 1.4513 0.0912 0.3290
C76 C 0.8691(8) 0.0124(4) 0.0304(5)
C77 C 0.8825(6) -0.0763(3) 0.1532(4)
H65 H 0.8665 -0.0986 0.1476
C78 C 1.2861(8) -0.0256(3) 0.2702(5)
H66 H 1.2833 -0.0494 0.2697
C79 C 0.7550(7) 0.0032(4) -0.0072(4)
H67 H 0.7190 -0.0111 -0.0208
C80 C 0.4642(7) 0.0719(3) -0.0194(5)
H68 H 0.4722 0.0868 -0.0459
C81 C 1.2910(6) 0.3429(3) 0.1883(6)
H69 H 1.3232 0.3605 0.1967
H70 H 1.3077 0.3239 0.2127
H71 H 1.2796 0.3354 0.1512
C82 C 0.8083(8) 0.2083(4) 0.0097(5)
H72 H 0.7767 0.2235 -0.0117
C83 C 1.3542(9) 0.1350(3) 0.2977(5)
C84 C 1.2316(6) 0.3568(3) 0.1953(5)
H73 H 1.2439 0.3645 0.2332
C85 C 0.9367(7) -0.0034(4) 0.0494(5)
C86 C 0.4186(6) 0.0426(3) -0.0522(5)
H74 H 0.4403 0.0290 -0.0702
H75 H 0.4074 0.0284 -0.0275
H76 H 0.3801 0.0523 -0.0790
C87 C 1.2729(8) 0.1090(4) 0.1090(6)
C88 C 0.4296(7) 0.0929(4) 0.0087(6)
H77 H 0.3888 0.1005 -0.0179
H78 H 0.4225 0.0792 0.0360
H79 H 0.4555 0.1125 0.0258
C89 C 1.2473(10) 0.0728(5) 0.1097(7)
C90 C 1.2713(6) 0.1144(4) 0.0509(5)
H80 H 1.2279 0.1115 0.0246
H81 H 1.2859 0.1372 0.0478
H82 H 1.2991 0.0980 0.0439
C91 C 1.5792(6) 0.0119(4) 0.3658(6)
H83 H 1.6214 0.0230 0.3839
C92 C 1.5785(9) -0.0054(5) 0.3142(7)
H84 H 1.5834 0.0115 0.2898
H85 H 1.6134 -0.0216 0.3236
H86 H 1.5381 -0.0172 0.2965
F1A F 1.1582(3) 0.13383(14) 0.3429(2)
F2A F 1.0451(3) 0.02109(15) 0.3198(2)
F3A F 0.8202(3) 0.04900(15) 0.2638(2)
F5A F 0.8348(3) 0.15129(15) 0.2818(2)
O1A O 0.8125(4) -0.0765(2) 0.2712(3)
O2A O 1.4314(4) 0.08647(19) 0.4575(3)
O3A O 1.2638(5) 0.1082(2) 0.5133(3)
O4A O 1.2763(4) -0.0122(2) 0.3921(3)
O5A O 1.2743(4) 0.2440(2) 0.3987(3)
O6A O 1.0331(3) -0.1318(2) 0.3247(3)
O7A O 0.6006(4) 0.1532(2) 0.1863(4)
N1A N 0.8975(5) 0.2106(3) 0.3222(4)
O8A O 1.1136(4) 0.3425(2) 0.3131(3)
N2A N 0.9608(5) -0.0316(2) 0.3018(3)
N3A N 1.1107(5) 0.2359(2) 0.3121(4)
O9A O 1.0266(4) 0.2658(2) 0.3931(3)
N4A N 1.1766(5) 0.0134(2) 0.3582(3)
H2A H 1.1579 0.0329 0.3482
O10A O 1.0582(4) -0.0347(2) 0.4503(3)
N5A N 1.2313(4) 0.0751(3) 0.3748(3)
O11A O 0.7929(4) 0.3013(2) 0.2830(3)
N6A N 0.7099(5) 0.1462(3) 0.2246(4)
H3A H 0.7372 0.1297 0.2306
N7A N 1.0232(5) 0.2079(3) 0.3922(4)
H4A H 0.9983 0.1911 0.3763
N8A N 1.2091(4) 0.1970(2) 0.3637(3)
H5A H 1.1691 0.1923 0.3451
N9A N 1.1541(5) 0.1162(2) 0.4677(3)
H6A H 1.1174 0.1060 0.4535
N10A N 0.9134(6) 0.0410(3) 0.4138(4)
C3A C 0.9423(6) -0.0921(3) 0.3017(4)
H7A H 0.9123 -0.1097 0.2966
C4A C 1.0545(6) 0.2550(3) 0.2805(4)
O12A O 0.5367(5) 0.0234(2) 0.1718(3)
N11A N 1.0952(5) 0.1646(3) 0.4331(4)
C6A C 1.3663(6) 0.0795(3) 0.4287(4)
C7A C 1.0699(6) -0.0112(3) 0.3295(4)
C8A C 1.1593(5) -0.0500(3) 0.3571(4)
H9A H 1.2035 -0.0541 0.3695
N12A N 0.8334(5) -0.0199(2) 0.2674(3)
H10A H 0.8650 -0.0059 0.2734
N13A N 1.1362(5) 0.0458(3) 0.4694(4)
N14A N 1.0149(6) 0.0195(2) 0.4377(4)
H11A H 1.0250 0.0409 0.4393
C9A C 1.0507(6) -0.0711(3) 0.3277(4)
C11A C 0.9218(5) -0.0587(3) 0.2934(4)
C12A C 1.1741(6) 0.3607(3) 0.3384(5)
H12A H 1.2035 0.3550 0.3207
H13A H 1.1945 0.3551 0.3770
C13A C 0.7713(8) -0.0050(3) 0.2483(5)
C14A C 1.2499(6) 0.1687(3) 0.3809(4)
C15A C 0.6999(6) 0.2100(4) 0.2238(5)
H14A H 0.6556 0.2092 0.2033
C16A C 1.2527(7) 0.0377(4) 0.5080(5)
H15A H 1.2938 0.0473 0.5209
N15A N 0.7036(5) 0.0809(3) 0.2246(3)
C17A C 1.4710(6) 0.0591(3) 0.4800(5)
H16A H 1.4766 0.0456 0.4513
H17A H 1.4516 0.0445 0.4993
C18A C 1.3149(6) 0.1727(3) 0.4078(5)
H18A H 1.3330 0.1944 0.4163
C19A C 1.2617(5) 0.1075(3) 0.3877(4)
C20A C 0.5892(8) 0.0442(4) 0.1868(5)
C21A C 1.1695(6) 0.2886(3) 0.3450(4)
H19A H 1.2081 0.2990 0.3673
C22A C 1.1561(6) 0.3980(3) 0.3307(5)
H20A H 1.1307 0.4038 0.3526
C23A C 1.0263(6) -0.0391(3) 0.3185(4)
C24A C 0.6548(7) -0.0097(3) 0.2115(4)
H21A H 0.6175 -0.0229 0.2010
C25A C 0.7403(7) 0.1789(3) 0.2398(5)
C26A C 0.9215(7) -0.0210(3) 0.4146(5)
H22A H 0.9464 -0.0408 0.4209
C27A C 0.9264(6) 0.2404(4) 0.3398(5)
N16A N 0.8151(6) 0.0676(3) 0.3954(4)
H23A H 0.8355 0.0863 0.3954
C28A C 0.7722(7) 0.1356(4) 0.3844(6)
H24A H 0.8151 0.1316 0.4108
H25A H 0.7722 0.1341 0.3481
H26A H 0.7579 0.1579 0.3899
C29A C 0.9808(8) -0.2235(3) 0.3185(6)
H27A H 0.9480 -0.2226 0.2821
H28A H 1.0036 -0.2449 0.3236
H29A H 0.9610 -0.2217 0.3448
C30A C 1.1179(7) 0.4079(3) 0.2709(6)
H30A H 1.1079 0.4319 0.2687
H31A H 1.1432 0.4030 0.2497
H32A H 1.0784 0.3949 0.2569
C31A C 1.2216(6) 0.1375(3) 0.3707(5)
C32A C 0.9890(6) -0.1605(3) 0.3187(5)
H33A H 0.9545 -0.1602 0.2825
H34A H 0.9699 -0.1591 0.3459
C33A C 0.9946(7) 0.2390(4) 0.3780(6)
C34A C 0.4283(7) -0.0136(4) 0.0961(6)
H35A H 0.4277 -0.0023 0.0637
H36A H 0.4687 -0.0254 0.1135
H37A H 0.3934 -0.0298 0.0864
C35A C 1.1324(7) 0.2219(3) 0.4547(5)
H38A H 1.1247 0.2453 0.4494
C36A C 1.1631(7) 0.2527(3) 0.3411(5)
C37A C 1.0549(6) 0.2912(3) 0.2816(4)
C38A C 0.6466(8) 0.0970(3) 0.2032(5)
C39A C 0.6590(7) 0.1136(4) 0.3508(6)
H39A H 0.6320 0.0962 0.3564
H40A H 0.6435 0.1358 0.3559
H41A H 0.6578 0.1119 0.3141
C40A C 0.8179(7) 0.0068(5) 0.3895(5)
H42A H 0.7731 0.0055 0.3777
C41A C 1.0063(6) -0.0998(3) 0.3175(4)
C42A C 1.2410(5) 0.0136(4) 0.3807(4)
C43A C 0.7973(6) 0.2422(3) 0.2741(5)
C44A C 1.2237(7) 0.2316(3) 0.3723(5)
C45A C 0.8334(6) 0.2116(3) 0.2880(4)
C46A C 0.8025(5) 0.1812(3) 0.2698(4)
C47A C 1.3281(5) 0.1104(3) 0.4142(4)
C48A C 1.3532(6) 0.1443(3) 0.4222(4)
H43A H 1.3978 0.1472 0.4380
C49A C 0.7938(7) 0.3873(3) 0.3425(5)
H44A H 0.7604 0.4042 0.3347
H45A H 0.8071 0.3799 0.3798
H46A H 0.8302 0.3969 0.3368
C50A C 1.0290(7) -0.1932(3) 0.3266(5)
H47A H 1.0492 -0.1945 0.2996
C51A C 0.8979(5) 0.2714(3) 0.3316(5)
H48A H 0.9206 0.2911 0.3477
O13A O 0.7165(5) 0.0490(3) 0.3821(6)
C52A C 1.1356(6) -0.0155(3) 0.3491(4)
C53A C 1.3372(6) 0.0490(3) 0.4170(4)
H49A H 1.3607 0.0287 0.4262
C54A C 1.2721(5) 0.0490(3) 0.3911(4)
C55A C 1.1993(8) 0.0580(3) 0.4897(5)
C56A C 0.7062(7) 0.0459(3) 0.2272(5)
C57A C 0.8564(7) -0.0223(4) 0.3979(5)
H50A H 0.8365 -0.0437 0.3918
C58A C 0.6496(6) 0.0262(3) 0.2081(4)
C59A C 0.7328(7) 0.2402(3) 0.2415(5)
H51A H 0.7099 0.2606 0.2307
C60A C 1.2057(7) 0.1738(4) 0.4953(5)
H52A H 1.2467 0.1654 0.5162
C61A C 1.2211(7) 0.4186(3) 0.3528(5)
H53A H 1.2119 0.4428 0.3487
H54A H 1.2444 0.4134 0.3908
H55A H 1.2468 0.4124 0.3324
C62A C 0.8202(7) 0.3309(3) 0.3171(5)
H56A H 0.8560 0.3400 0.3092
H57A H 0.8361 0.3246 0.3555
C63A C 1.0864(6) 0.1974(4) 0.4282(5)
C64A C 1.1161(7) 0.3079(3) 0.3142(5)
C65A C 0.8499(6) -0.0533(4) 0.2776(4)
C66A C 0.8328(7) 0.2724(3) 0.2978(5)
C67A C 0.4733(7) 0.0403(3) 0.1509(6)
H58A H 0.4689 0.0544 0.1194
H59A H 0.4688 0.0548 0.1789
C68A C 1.0774(7) -0.1955(3) 0.3815(5)
H60A H 1.1018 -0.2162 0.3854
H61A H 1.1060 -0.1761 0.3885
H62A H 1.0567 -0.1955 0.4073
C69A C 1.1830(8) -0.0110(3) 0.4861(4)
H63A H 1.1764 -0.0346 0.4830
C70A C 0.8518(9) 0.0389(4) 0.4003(4)
C71A C 0.9487(7) 0.0110(4) 0.4216(4)
C72A C 0.7671(7) 0.0296(3) 0.2466(4)
C73A C 1.1521(8) 0.1518(3) 0.4655(5)
C74A C 1.2078(7) 0.0951(4) 0.4897(5)
C75A C 0.5878(7) 0.0794(3) 0.1846(4)
H64A H 0.5487 0.0912 0.1710
C76A C 1.1309(8) 0.0124(4) 0.4696(5)
C77A C 1.1175(6) -0.0763(3) 0.3468(4)
H65A H 1.1335 -0.0986 0.3524
C78A C 0.7139(8) -0.0256(3) 0.2298(5)
H66A H 0.7167 -0.0494 0.2303
C79A C 1.2450(7) 0.0032(4) 0.5072(4)
H67A H 1.2810 -0.0111 0.5208
C80A C 1.5358(7) 0.0719(3) 0.5194(5)
H68A H 1.5278 0.0868 0.5459
C81A C 0.7090(6) 0.3429(3) 0.3117(6)
H69A H 0.6768 0.3605 0.3033
H70A H 0.6923 0.3239 0.2873
H71A H 0.7204 0.3354 0.3488
C82A C 1.1917(8) 0.2083(4) 0.4903(5)
H72A H 1.2233 0.2235 0.5117
C83A C 0.6458(9) 0.1350(3) 0.2023(5)
C84A C 0.7684(6) 0.3568(3) 0.3047(5)
H73A H 0.7561 0.3645 0.2668
C85A C 1.0633(7) -0.0034(4) 0.4506(5)
C86A C 1.5814(6) 0.0426(3) 0.5522(5)
H74A H 1.5597 0.0290 0.5702
H75A H 1.5926 0.0284 0.5275
H76A H 1.6199 0.0523 0.5790
C87A C 0.7271(8) 0.1090(4) 0.3910(6)
C88A C 1.5704(7) 0.0929(4) 0.4913(6)
H77A H 1.6112 0.1005 0.5179
H78A H 1.5775 0.0792 0.4640
H79A H 1.5445 0.1125 0.4742
C89A C 0.7527(10) 0.0728(5) 0.3903(7)
C90A C 0.7287(6) 0.1144(4) 0.4491(5)
H80A H 0.7721 0.1115 0.4754
H81A H 0.7141 0.1372 0.4522
H82A H 0.7009 0.0980 0.4561
C91A C 0.4208(6) 0.0119(4) 0.1342(6)
H83A H 0.3786 0.0230 0.1161
C92A C 0.4215(9) -0.0054(5) 0.1858(7)
H84A H 0.4166 0.0115 0.2102
H85A H 0.3866 -0.0216 0.1764
H86A H 0.4619 -0.0172 0.2035
O14 O 0.9764(4) 0.0934(2) 0.0616(3)
C93 C 1.0524(5) 0.1254(2) 0.0481(4)
H87 H 1.0977 0.1191 0.0627
H88 H 1.0502 0.1502 0.0504
C94 C 0.8659(8) 0.1830(5) -0.1022(7)
H89 H 0.8324 0.1974 -0.1232
N17 N 1.0536(5) 0.1198(2) 0.1312(5)
H90 H 1.0817 0.1361 0.1407
C95 C 0.9195(10) 0.1965(4) -0.0603(8)
H91 H 0.9202 0.2198 -0.0525
C96 C 1.0249(7) 0.1158(3) -0.0083(6)
H92 H 1.0082 0.0923 -0.0119
C97 C 0.9736(7) 0.1758(4) -0.0288(5)
H93 H 1.0106 0.1857 -0.0030
C98 C 1.0264(8) 0.1125(4) 0.0780(6)
C99 C 1.0151(6) 0.1243(3) 0.2074(5)
H94 H 0.9761 0.1357 0.1831
H95 H 1.0469 0.1417 0.2261
C100 C 1.0396(7) 0.1025(3) 0.1763(6)
H96 H 1.0085 0.0843 0.1603
H97 H 1.0792 0.0919 0.2012
C101 C 0.9701(7) 0.1406(3) -0.0372(5)
C102 C 0.9155(8) 0.1275(3) -0.0789(6)
H98 H 0.9137 0.1040 -0.0852
C103 C 0.8622(8) 0.1477(5) -0.1127(7)
H99 H 0.8267 0.1380 -0.1404
C104 C 1.0000 0.1019(5) 0.2500
H100 H 1.0368 0.0873 0.2692
C105 C 1.0783(6) 0.1178(3) -0.0296(5)
H101 H 1.0617 0.1115 -0.0676
H102 H 1.0948 0.1408 -0.0255
H103 H 1.1125 0.1024 -0.0091
O14A O 1.0236(4) 0.0934(2) 0.4384(3)
C93A C 0.9476(5) 0.1254(2) 0.4519(4)
H87A H 0.9023 0.1191 0.4373
H88A H 0.9498 0.1502 0.4496
C94A C 1.1341(8) 0.1830(5) 0.6022(7)
H89A H 1.1676 0.1974 0.6232
N17A N 0.9464(5) 0.1198(2) 0.3688(5)
H90A H 0.9183 0.1361 0.3593
C95A C 1.0805(10) 0.1965(4) 0.5603(8)
H91A H 1.0798 0.2198 0.5525
C96A C 0.9751(7) 0.1158(3) 0.5083(6)
H92A H 0.9918 0.0923 0.5119
C97A C 1.0264(7) 0.1758(4) 0.5288(5)
H93A H 0.9894 0.1857 0.5030
C98A C 0.9736(8) 0.1125(4) 0.4220(6)
C99A C 0.9849(6) 0.1243(3) 0.2926(5)
H94A H 1.0239 0.1357 0.3169
H95A H 0.9531 0.1417 0.2739
C100A C 0.9604(7) 0.1025(3) 0.3237(6)
H96A H 0.9915 0.0843 0.3397
H97A H 0.9208 0.0919 0.2988
C101A C 1.0299(7) 0.1406(3) 0.5372(5)
C102A C 1.0845(8) 0.1275(3) 0.5789(6)
H98A H 1.0863 0.1040 0.5852
C103A C 1.1378(8) 0.1477(5) 0.6127(7)
H99A H 1.1733 0.1380 0.6404
H100A H 0.9632 0.0873 0.2308
C105A C 0.9217(6) 0.1178(3) 0.5296(5)
H101A H 0.9383 0.1115 0.5676
H102A H 0.9052 0.1408 0.5255
H103A H 0.8875 0.1024 0.5091
C106 C 0.2682(8) 0.2387(4) 0.1121(6)
H104 H 0.2772 0.2184 0.1344
H105 H 0.2941 0.2386 0.0904
H106 H 0.2784 0.2586 0.1352
C107 C 0.0033(12) 0.2983(6) -0.0726(8)
H107 H -0.0034 0.3174 -0.0969
H108 H -0.0121 0.2777 -0.0936
H109 H -0.0198 0.3019 -0.0491
C108 C 0.1701(14) 0.2661(6) 0.0372(9)
H110 H 0.1923 0.2664 0.0121
H111 H 0.1808 0.2874 0.0577
C109 C 0.1018(12) 0.2670(5) 0.0045(9)
H112 H 0.0795 0.2685 0.0294
H113 H 0.0903 0.2451 -0.0141
C110 C 0.1974(11) 0.2393(5) 0.0748(8)
H114 H 0.1887 0.2183 0.0537
H115 H 0.1731 0.2381 0.0982
C111 C 0.0743(16) 0.2947(6) -0.0384(10)
H116 H 0.0882 0.3164 -0.0197
H117 H 0.0958 0.2925 -0.0638
H118? H 1.0368 0.0873 0.2692
H119? H 0.4852 0.1753 0.2804
loop_
_geom_bond_atom_site_label_1
_geom_bond_atom_site_label_2
_geom_bond_site_symmetry_1
_geom_bond_site_symmetry_2
Cl1 C1 1_555 1_555
Cl2 C1 1_555 1_555
Cl3 C1 1_555 1_555
C1 H1 1_555 1_555
Cl4 C2 1_555 1_555
Cl5 C2 1_555 1_555
C2 Cl4A 1_555 1_555
F1 C31 1_555 1_555
F2 C7 1_555 1_555
F3 C72 1_555 1_555
F4 C10 1_555 1_555
F5 C46 1_555 1_555
O1 C65 1_555 1_555
O2 C6 1_555 1_555
O3 C74 1_555 1_555
O4 C42 1_555 1_555
O5 C44 1_555 1_555
O6 C32 1_555 1_555
O7 C83 1_555 1_555
N1 C27 1_555 1_555
O8 C12 1_555 1_555
N2 C11 1_555 1_555
N3 C4 1_555 1_555
O9 C33 1_555 1_555
N4 H2 1_555 1_555
O10 C85 1_555 1_555
N5 C19 1_555 1_555
O11 C62 1_555 1_555
N6 H3 1_555 1_555
N7 H4 1_555 1_555
N8 H5 1_555 1_555
N9 H6 1_555 1_555
N10 C70 1_555 1_555
C3 H7 1_555 1_555
C4 C10 1_555 1_555
O12 C20 1_555 1_555
N11 C63 1_555 1_555
C5 H8 1_555 1_555
C6 C47 1_555 1_555
C7 C23 1_555 1_555
C8 H9 1_555 1_555
N12 H10 1_555 1_555
N13 C55 1_555 1_555
N14 H11 1_555 1_555
C9 C23 1_555 1_555
C10 C4A 1_555 1_555
C11 C3 1_555 1_555
C12 H12 1_555 1_555
H13 C12 1_555 1_555
C13 N12 1_555 1_555
C14 N8 1_555 1_555
C15 H14 1_555 1_555
C16 H15 1_555 1_555
N15 C38 1_555 1_555
C17 O2 1_555 1_555
H16 C17 1_555 1_555
H17 C17 1_555 1_555
C18 C14 1_555 1_555
H18 C18 1_555 1_555
C19 C31 1_555 1_555
C20 C58 1_555 1_555
C21 H19 1_555 1_555
C22 C12 1_555 1_555
H20 C22 1_555 1_555
C23 N2 1_555 1_555
C24 H21 1_555 1_555
C25 N6 1_555 1_555
C26 H22 1_555 1_555
C27 C33 1_555 1_555
N16 H23 1_555 1_555
C28 H24 1_555 1_555
H25 C28 1_555 1_555
H26 C28 1_555 1_555
C29 H27 1_555 1_555
H28 C29 1_555 1_555
H29 C29 1_555 1_555
C30 C22 1_555 1_555
H30 C30 1_555 1_555
H31 C30 1_555 1_555
H32 C30 1_555 1_555
C31 C14 1_555 1_555
C32 H33 1_555 1_555
H34 C32 1_555 1_555
C33 N7 1_555 1_555
C34 H35 1_555 1_555
H36 C34 1_555 1_555
H37 C34 1_555 1_555
C35 H38 1_555 1_555
C36 N3 1_555 1_555
C37 C4 1_555 1_555
C38 C75 1_555 1_555
C39 H39 1_555 1_555
H40 C39 1_555 1_555
H41 C39 1_555 1_555
C40 H42 1_555 1_555
C41 O6 1_555 1_555
C42 N4 1_555 1_555
C43 C45 1_555 1_555
C44 N8 1_555 1_555
C45 N1 1_555 1_555
C46 C25 1_555 1_555
C47 C19 1_555 1_555
C48 C18 1_555 1_555
H43 C48 1_555 1_555
C49 H44 1_555 1_555
H45 C49 1_555 1_555
H46 C49 1_555 1_555
C50 C29 1_555 1_555
H47 C50 1_555 1_555
C51 C27 1_555 1_555
H48 C51 1_555 1_555
O13 C89 1_555 1_555
C52 N4 1_555 1_555
C53 C6 1_555 1_555
H49 C53 1_555 1_555
C54 N5 1_555 1_555
C55 C16 1_555 1_555
C56 N15 1_555 1_555
C57 C26 1_555 1_555
H50 C57 1_555 1_555
C58 C24 1_555 1_555
C59 C15 1_555 1_555
H51 C59 1_555 1_555
C60 H52 1_555 1_555
C61 C22 1_555 1_555
H53 C61 1_555 1_555
H54 C61 1_555 1_555
H55 C61 1_555 1_555
C62 H56 1_555 1_555
H57 C62 1_555 1_555
C63 N7 1_555 1_555
C64 O8 1_555 1_555
C65 N12 1_555 1_555
C66 O11 1_555 1_555
C67 O12 1_555 1_555
H58 C67 1_555 1_555
H59 C67 1_555 1_555
C68 C50 1_555 1_555
H60 C68 1_555 1_555
H61 C68 1_555 1_555
H62 C68 1_555 1_555
C69 H63 1_555 1_555
C70 N16 1_555 1_555
C71 N10 1_555 1_555
C72 C13 1_555 1_555
C73 N9 1_555 1_555
C74 N9 1_555 1_555
C75 C20 1_555 1_555
H64 C75 1_555 1_555
C76 N13 1_555 1_555
C77 C8 1_555 1_555
H65 C77 1_555 1_555
C78 C13 1_555 1_555
H66 C78 1_555 1_555
C79 C16 1_555 1_555
H67 C79 1_555 1_555
C80 C17 1_555 1_555
H68 C80 1_555 1_555
C81 H69 1_555 1_555
H70 C81 1_555 1_555
H71 C81 1_555 1_555
C82 C35 1_555 1_555
H72 C82 1_555 1_555
C83 N6 1_555 1_555
C84 C49 1_555 1_555
H73 C84 1_555 1_555
C85 N14 1_555 1_555
C86 C80 1_555 1_555
H74 C86 1_555 1_555
H75 C86 1_555 1_555
H76 C86 1_555 1_555
C87 C28 1_555 1_555
C88 C80 1_555 1_555
H77 C88 1_555 1_555
H78 C88 1_555 1_555
H79 C88 1_555 1_555
C89 N16 1_555 1_555
C90 C87 1_555 1_555
H80 C90 1_555 1_555
H81 C90 1_555 1_555
H82 C90 1_555 1_555
C91 C34 1_555 1_555
H83 C91 1_555 1_555
C92 C91 1_555 1_555
H84 C92 1_555 1_555
H85 C92 1_555 1_555
H86 C92 1_555 1_555
O14 C98 1_555 1_555
C93 H87 1_555 1_555
H88 C93 1_555 1_555
C94 H89 1_555 1_555
N17 H90 1_555 1_555
C95 C94 1_555 1_555
H91 C95 1_555 1_555
C96 C93 1_555 1_555
H92 C96 1_555 1_555
C97 C95 1_555 1_555
H93 C97 1_555 1_555
C98 C93 1_555 1_555
C99 H94 1_555 1_555
H95 C99 1_555 1_555
C100 N17 1_555 1_555
H96 C100 1_555 1_555
H97 C100 1_555 1_555
C101 C96 1_555 1_555
C102 C101 1_555 1_555
H98 C102 1_555 1_555
C103 C94 1_555 1_555
H99 C103 1_555 1_555
C104 C99 1_555 1_555
H100 C104 1_555 1_555
C105 C96 1_555 1_555
H101 C105 1_555 1_555
H102 C105 1_555 1_555
H103 C105 1_555 1_555
C106 H104 1_555 1_555
H105 C106 1_555 1_555
H106 C106 1_555 1_555
C107 H107 1_555 1_555
H108 C107 1_555 1_555
H109 C107 1_555 1_555
C108 H110 1_555 1_555
H111 C108 1_555 1_555
C109 C108 1_555 1_555
H112 C109 1_555 1_555
H113 C109 1_555 1_555
C110 C106 1_555 1_555
H114 C110 1_555 1_555
H115 C110 1_555 1_555
C111 C107 1_555 1_555
H116 C111 1_555 1_555
H117 C111 1_555 1_555
F1A C31A 1_555 1_555
F2A C7A 1_555 1_555
F3A C72A 1_555 1_555
F5A C46A 1_555 1_555
O1A C65A 1_555 1_555
O2A C6A 1_555 1_555
O3A C74A 1_555 1_555
O4A C42A 1_555 1_555
O5A C44A 1_555 1_555
O6A C32A 1_555 1_555
O7A C83A 1_555 1_555
N1A C27A 1_555 1_555
O8A C12A 1_555 1_555
N2A C11A 1_555 1_555
N3A C4A 1_555 1_555
O9A C33A 1_555 1_555
N4A H2A 1_555 1_555
O10A C85A 1_555 1_555
N5A C19A 1_555 1_555
O11A C62A 1_555 1_555
N6A H3A 1_555 1_555
N7A H4A 1_555 1_555
N8A H5A 1_555 1_555
N9A H6A 1_555 1_555
N10A C70A 1_555 1_555
C3A H7A 1_555 1_555
C4A C37A 1_555 1_555
O12A C20A 1_555 1_555
N11A C63A 1_555 1_555
C6A C47A 1_555 1_555
C7A C23A 1_555 1_555
C8A H9A 1_555 1_555
N12A H10A 1_555 1_555
N13A C55A 1_555 1_555
N14A H11A 1_555 1_555
C9A C23A 1_555 1_555
C11A C3A 1_555 1_555
C12A H12A 1_555 1_555
H13A C12A 1_555 1_555
C13A N12A 1_555 1_555
C14A N8A 1_555 1_555
C15A H14A 1_555 1_555
C16A H15A 1_555 1_555
N15A C38A 1_555 1_555
C17A O2A 1_555 1_555
H16A C17A 1_555 1_555
H17A C17A 1_555 1_555
C18A C14A 1_555 1_555
H18A C18A 1_555 1_555
C19A C31A 1_555 1_555
C20A C58A 1_555 1_555
C21A H19A 1_555 1_555
C22A C12A 1_555 1_555
H20A C22A 1_555 1_555
C23A N2A 1_555 1_555
C24A H21A 1_555 1_555
C25A N6A 1_555 1_555
C26A H22A 1_555 1_555
C27A C33A 1_555 1_555
N16A H23A 1_555 1_555
C28A H24A 1_555 1_555
H25A C28A 1_555 1_555
H26A C28A 1_555 1_555
C29A H27A 1_555 1_555
H28A C29A 1_555 1_555
H29A C29A 1_555 1_555
C30A C22A 1_555 1_555
H30A C30A 1_555 1_555
H31A C30A 1_555 1_555
H32A C30A 1_555 1_555
C31A C14A 1_555 1_555
C32A H33A 1_555 1_555
H34A C32A 1_555 1_555
C33A N7A 1_555 1_555
C34A H35A 1_555 1_555
H36A C34A 1_555 1_555
H37A C34A 1_555 1_555
C35A H38A 1_555 1_555
C36A N3A 1_555 1_555
C37A C5 1_555 1_555
C38A C75A 1_555 1_555
C39A H39A 1_555 1_555
H40A C39A 1_555 1_555
H41A C39A 1_555 1_555
C40A H42A 1_555 1_555
C41A O6A 1_555 1_555
C42A N4A 1_555 1_555
C43A C45A 1_555 1_555
C44A N8A 1_555 1_555
C45A N1A 1_555 1_555
C46A C25A 1_555 1_555
C47A C19A 1_555 1_555
C48A C18A 1_555 1_555
H43A C48A 1_555 1_555
C49A H44A 1_555 1_555
H45A C49A 1_555 1_555
H46A C49A 1_555 1_555
C50A C29A 1_555 1_555
H47A C50A 1_555 1_555
C51A C27A 1_555 1_555
H48A C51A 1_555 1_555
O13A C89A 1_555 1_555
C52A N4A 1_555 1_555
C53A C6A 1_555 1_555
H49A C53A 1_555 1_555
C54A N5A 1_555 1_555
C55A C16A 1_555 1_555
C56A N15A 1_555 1_555
C57A C26A 1_555 1_555
H50A C57A 1_555 1_555
C58A C24A 1_555 1_555
C59A C15A 1_555 1_555
H51A C59A 1_555 1_555
C60A H52A 1_555 1_555
C61A C22A 1_555 1_555
H53A C61A 1_555 1_555
H54A C61A 1_555 1_555
H55A C61A 1_555 1_555
C62A H56A 1_555 1_555
H57A C62A 1_555 1_555
C63A N7A 1_555 1_555
C64A O8A 1_555 1_555
C65A N12A 1_555 1_555
C66A O11A 1_555 1_555
C67A O12A 1_555 1_555
H58A C67A 1_555 1_555
H59A C67A 1_555 1_555
C68A C50A 1_555 1_555
H60A C68A 1_555 1_555
H61A C68A 1_555 1_555
H62A C68A 1_555 1_555
C69A H63A 1_555 1_555
C70A N16A 1_555 1_555
C71A N10A 1_555 1_555
C72A C13A 1_555 1_555
C73A N9A 1_555 1_555
C74A N9A 1_555 1_555
C75A C20A 1_555 1_555
H64A C75A 1_555 1_555
C76A N13A 1_555 1_555
C77A C8A 1_555 1_555
H65A C77A 1_555 1_555
C78A C13A 1_555 1_555
H66A C78A 1_555 1_555
C79A C16A 1_555 1_555
H67A C79A 1_555 1_555
C80A C17A 1_555 1_555
H68A C80A 1_555 1_555
C81A H69A 1_555 1_555
H70A C81A 1_555 1_555
H71A C81A 1_555 1_555
C82A C35A 1_555 1_555
H72A C82A 1_555 1_555
C83A N6A 1_555 1_555
C84A C49A 1_555 1_555
H73A C84A 1_555 1_555
C85A N14A 1_555 1_555
C86A C80A 1_555 1_555
H74A C86A 1_555 1_555
H75A C86A 1_555 1_555
H76A C86A 1_555 1_555
C87A C28A 1_555 1_555
C88A C80A 1_555 1_555
H77A C88A 1_555 1_555
H78A C88A 1_555 1_555
H79A C88A 1_555 1_555
C89A N16A 1_555 1_555
C90A C87A 1_555 1_555
H80A C90A 1_555 1_555
H81A C90A 1_555 1_555
H82A C90A 1_555 1_555
C91A C34A 1_555 1_555
H83A C91A 1_555 1_555
C92A C91A 1_555 1_555
H84A C92A 1_555 1_555
H85A C92A 1_555 1_555
H86A C92A 1_555 1_555
O14A C98A 1_555 1_555
C93A H87A 1_555 1_555
H88A C93A 1_555 1_555
C94A H89A 1_555 1_555
N17A H90A 1_555 1_555
C95A C94A 1_555 1_555
H91A C95A 1_555 1_555
C96A C93A 1_555 1_555
H92A C96A 1_555 1_555
C97A C95A 1_555 1_555
H93A C97A 1_555 1_555
C98A C93A 1_555 1_555
C99A C104 1_555 1_555
H94A C99A 1_555 1_555
H95A C99A 1_555 1_555
C100A N17A 1_555 1_555
H96A C100A 1_555 1_555
H97A C100A 1_555 1_555
C101A C96A 1_555 1_555
C102A C101A 1_555 1_555
H98A C102A 1_555 1_555
C103A C94A 1_555 1_555
H99A C103A 1_555 1_555
H100A C104 1_555 1_555
C105A C96A 1_555 1_555
H101A C105A 1_555 1_555
H102A C105A 1_555 1_555
H103A C105A 1_555 1_555
C3 C41 1_555 1_555
N11 C73 1_555 1_555
C5 C37 1_555 1_555
C7 C52 1_555 1_555
C8 C52 1_555 1_555
N14 C71 1_555 1_555
C9 C41 1_555 1_555
C9 C77 1_555 1_555
C11 C65 1_555 1_555
C15 C25 1_555 1_555
C21 C36 1_555 1_555
C21 C64 1_555 1_555
C24 C78 1_555 1_555
C26 C71 1_555 1_555
C32 C50 1_555 1_555
C35 C63 1_555 1_555
C36 C44 1_555 1_555
C37 C64 1_555 1_555
C38 C83 1_555 1_555
C39 C87 1_555 1_555
C40 C57 1_555 1_555
C40 C70 1_555 1_555
C42 C54 1_555 1_555
C43 C59 1_555 1_555
C43 C66 1_555 1_555
C45 C46 1_555 1_555
C47 C48 1_555 1_555
C51 C66 1_555 1_555
C53 C54 1_555 1_555
C55 C74 1_555 1_555
C56 C58 1_555 1_555
C56 C72 1_555 1_555
C60 C73 1_555 1_555
C60 C82 1_555 1_555
C62 C84 1_555 1_555
C67 C91 1_555 1_555
C69 C76 1_555 1_555
C69 C79 1_555 1_555
C76 C85 1_555 1_555
C81 C84 1_555 1_555
C87 C89 1_555 1_555
N17 C98 1_555 1_555
C97 C101 1_555 1_555
C99 C100 1_555 1_555
C102 C103 1_555 1_555
C108 C110 1_555 1_555
C109 C111 1_555 1_555
C3A C41A 1_555 1_555
N11A C73A 1_555 1_555
C7A C52A 1_555 1_555
C8A C52A 1_555 1_555
N14A C71A 1_555 1_555
C9A C41A 1_555 1_555
C9A C77A 1_555 1_555
C11A C65A 1_555 1_555
C15A C25A 1_555 1_555
C21A C36A 1_555 1_555
C21A C64A 1_555 1_555
C24A C78A 1_555 1_555
C26A C71A 1_555 1_555
C32A C50A 1_555 1_555
C35A C63A 1_555 1_555
C36A C44A 1_555 1_555
C37A C64A 1_555 1_555
C38A C83A 1_555 1_555
C39A C87A 1_555 1_555
C40A C57A 1_555 1_555
C40A C70A 1_555 1_555
C42A C54A 1_555 1_555
C43A C59A 1_555 1_555
C43A C66A 1_555 1_555
C45A C46A 1_555 1_555
C47A C48A 1_555 1_555
C51A C66A 1_555 1_555
C53A C54A 1_555 1_555
C55A C74A 1_555 1_555
C56A C58A 1_555 1_555
C56A C72A 1_555 1_555
C60A C73A 1_555 1_555
C60A C82A 1_555 1_555
C62A C84A 1_555 1_555
C67A C91A 1_555 1_555
C69A C76A 1_555 1_555
C69A C79A 1_555 1_555
C76A C85A 1_555 1_555
C81A C84A 1_555 1_555
C87A C89A 1_555 1_555
N17A C98A 1_555 1_555
C97A C101A 1_555 1_555
C99A C100A 1_555 1_555
C102A C103A 1_555 1_555

#END
