
#######################################################################
#
#                 Cambridge Crystallographic Data Centre
#                                CCDC 
#
#######################################################################
#
# If this CIF has been generated from an entry in the Cambridge 
# Structural Database, then it will include bibliographic, chemical, 
# crystal, experimental, refinement or atomic coordinate data resulting 
# from the CCDC's data processing and validation procedures.
#
#######################################################################

data_LAQCUD
_chemical_formula_moiety         'C12 H13 Cl1 N2 O2'
_chemical_name_systematic        
1-(5-(2-Chlorophenyl)-5-hydroxy-3-methyl-4,5-dihydro-1H-pyrazol-1-yl)ethanone
_symmetry_cell_setting           monoclinic
_symmetry_space_group_name_H-M   'P 21/c'
_symmetry_Int_Tables_number      14
_space_group_name_Hall           '-P 2ybc'
loop_
_symmetry_equiv_pos_site_id
_symmetry_equiv_pos_as_xyz
1 x,y,z
2 -x,1/2+y,1/2-z
3 -x,-y,-z
4 x,1/2-y,1/2+z
_cell_length_a                   10.320(3)
_cell_length_b                   14.916(4)
_cell_length_c                   16.346(4)
_cell_angle_alpha                90
_cell_angle_beta                 95.158(3)
_cell_angle_gamma                90
_cell_volume                     2506
_exptl_crystal_colour            colorless
_exptl_crystal_description       block
_cell_formula_units_Z            8
_exptl_crystal_recrystallization_method dichloromethane
loop_
_atom_site_label
_atom_site_type_symbol
_atom_site_fract_x
_atom_site_fract_y
_atom_site_fract_z
C1 C 0.5236(3) 0.2945(2) 0.27457(16)
C2 C 0.6517(3) 0.32278(17) 0.26911(14)
C3 C 0.6858(3) 0.40628(19) 0.30087(17)
H1 H 0.7701 0.4272 0.2977
C4 C 0.5966(5) 0.4597(2) 0.3375(2)
H2 H 0.6214 0.5154 0.3591
C5 C 0.4714(5) 0.4294(3) 0.3415(2)
H3 H 0.4112 0.4653 0.3650
C6 C 0.4349(4) 0.3468(3) 0.3110(2)
H4 H 0.3506 0.3261 0.3148
C7 C 0.7497(2) 0.27082(16) 0.22292(14)
C8 C 0.7104(2) 0.26559(16) 0.12996(14)
H5 H 0.6204 0.2833 0.1172
H6 H 0.7656 0.3035 0.0997
C9 C 0.7293(2) 0.16951(17) 0.11060(15)
C10 C 0.7195(3) 0.1336(2) 0.02506(16)
H7 H 0.7276 0.0695 0.0267
H8 H 0.7879 0.1585 -0.0040
H9 H 0.6368 0.1497 -0.0026
C11 C 0.7751(3) 0.14051(18) 0.32065(16)
C12 C 0.7807(4) 0.0402(2) 0.32863(19)
H10 H 0.8560 0.0181 0.3047
H11 H 0.7038 0.0144 0.3006
H12 H 0.7857 0.0240 0.3857
Cl1 Cl 0.46874(8) 0.19108(7) 0.23531(5)
N1 N 0.7575(2) 0.17426(13) 0.24382(12)
N2 N 0.7540(2) 0.11902(14) 0.17364(13)
O1 O 0.87374(17) 0.30941(12) 0.23266(10)
H25 H 0.9088 0.2968 0.2782
O2 O 0.7846(2) 0.19093(13) 0.37965(11)
C13 C 0.3110(3) 0.3263(2) -0.02266(16)
C14 C 0.1813(3) 0.34881(17) -0.01755(14)
C15 C 0.1388(3) 0.43010(17) -0.05224(17)
H13 H 0.0529 0.4476 -0.0491
C16 C 0.2215(5) 0.4854(2) -0.0913(2)
H14 H 0.1904 0.5387 -0.1151
C17 C 0.3479(5) 0.4620(3) -0.0950(2)
H15 H 0.4032 0.4998 -0.1207
C18 C 0.3958(4) 0.3819(3) -0.0606(2)
H16 H 0.4825 0.3659 -0.0628
C19 C 0.0867(2) 0.29137(16) 0.02655(14)
C20 C 0.1250(2) 0.27892(16) 0.11897(14)
H17 H 0.2142 0.2975 0.1335
H18 H 0.0680 0.3128 0.1515
C21 C 0.1094(2) 0.18061(16) 0.13134(15)
C22 C 0.1166(3) 0.13570(19) 0.21316(15)
H19 H 0.1115 0.0719 0.2057
H20 H 0.0455 0.1555 0.2427
H21 H 0.1974 0.1508 0.2438
C23 C 0.0645(2) 0.16960(16) -0.07964(15)
C24 C 0.0633(3) 0.07144(18) -0.09644(19)
H22 H 0.0579 0.0615 -0.1547
H23 H -0.0106 0.0447 -0.0742
H24 H 0.1417 0.0449 -0.0712
Cl2 Cl 0.37469(8) 0.22580(7) 0.01857(5)
N3 N 0.0850(2) 0.19699(13) -0.00094(11)
N4 N 0.0897(2) 0.13575(14) 0.06455(12)
O3 O -0.03948(17) 0.32648(13) 0.01884(10)
H26 H -0.0705 0.3216 -0.0289
O4 O 0.04921(19) 0.22575(12) -0.13467(10)
loop_
_geom_bond_atom_site_label_1
_geom_bond_atom_site_label_2
_geom_bond_site_symmetry_1
_geom_bond_site_symmetry_2
C1 C2 1_555 1_555
C2 C3 1_555 1_555
C3 H1 1_555 1_555
C4 C3 1_555 1_555
H2 C4 1_555 1_555
C5 C4 1_555 1_555
H3 C5 1_555 1_555
C6 C1 1_555 1_555
H4 C6 1_555 1_555
C7 C2 1_555 1_555
C8 C7 1_555 1_555
H5 C8 1_555 1_555
H6 C8 1_555 1_555
C9 C8 1_555 1_555
C10 C9 1_555 1_555
H7 C10 1_555 1_555
H8 C10 1_555 1_555
H9 C10 1_555 1_555
C11 C12 1_555 1_555
C12 H10 1_555 1_555
H11 C12 1_555 1_555
H12 C12 1_555 1_555
C13 C14 1_555 1_555
C14 C15 1_555 1_555
C15 H13 1_555 1_555
C16 C15 1_555 1_555
H14 C16 1_555 1_555
C17 C16 1_555 1_555
H15 C17 1_555 1_555
C18 C13 1_555 1_555
H16 C18 1_555 1_555
C19 C14 1_555 1_555
C20 C19 1_555 1_555
H17 C20 1_555 1_555
H18 C20 1_555 1_555
C21 C20 1_555 1_555
C22 C21 1_555 1_555
H19 C22 1_555 1_555
H20 C22 1_555 1_555
H21 C22 1_555 1_555
C23 C24 1_555 1_555
C24 H22 1_555 1_555
H23 C24 1_555 1_555
H24 C24 1_555 1_555
Cl1 C1 1_555 1_555
Cl2 C13 1_555 1_555
N1 C7 1_555 1_555
N2 C9 1_555 1_555
N3 C19 1_555 1_555
N4 C21 1_555 1_555
O1 C7 1_555 1_555
H25 O1 1_555 1_555
O2 C11 1_555 1_555
O3 C19 1_555 1_555
H26 O3 1_555 1_555
O4 C23 1_555 1_555
C5 C6 1_555 1_555
C11 N1 1_555 1_555
C17 C18 1_555 1_555
C23 N3 1_555 1_555
N1 N2 1_555 1_555
N3 N4 1_555 1_555

#END
