
#######################################################################
#
#                 Cambridge Crystallographic Data Centre
#                                CCDC 
#
#######################################################################
#
# If this CIF has been generated from an entry in the Cambridge 
# Structural Database, then it will include bibliographic, chemical, 
# crystal, experimental, refinement or atomic coordinate data resulting 
# from the CCDC's data processing and validation procedures.
#
#######################################################################

data_LAQFOA
_chemical_formula_moiety         'C19 H16 N4 S4'
_chemical_name_systematic        
2-(4-Methylphenyl)-5-[(([5-(4-methylphenyl)-1,3,4-thiadiazol-2-yl]sulfanyl)methyl)sulfanyl]-1,3,4-thiadiazole
_symmetry_cell_setting           monoclinic
_symmetry_space_group_name_H-M   'P 21/n'
_symmetry_Int_Tables_number      14
_space_group_name_Hall           '-P 2yn'
loop_
_symmetry_equiv_pos_site_id
_symmetry_equiv_pos_as_xyz
1 x,y,z
2 1/2-x,1/2+y,1/2-z
3 -x,-y,-z
4 1/2+x,1/2-y,1/2+z
_cell_length_a                   16.8944(14)
_cell_length_b                   4.1959(5)
_cell_length_c                   27.107(2)
_cell_angle_alpha                90
_cell_angle_beta                 96.084(8)
_cell_angle_gamma                90
_cell_volume                     1910.72
_exptl_crystal_colour            colorless
_exptl_crystal_description       prism
_cell_formula_units_Z            4
loop_
_atom_site_label
_atom_site_type_symbol
_atom_site_fract_x
_atom_site_fract_y
_atom_site_fract_z
S1 S 0.41711(5) 0.77165(19) -0.01333(3)
S2 S 0.39123(5) 1.1072(2) 0.08165(3)
S3 S 0.26282(5) 1.06832(19) 0.15267(3)
S4 S 0.33462(5) 1.07934(19) 0.26002(3)
N1 N 0.26848(16) 0.6479(6) -0.02748(10)
N2 N 0.27897(16) 0.8187(6) 0.01681(10)
N3 N 0.39960(17) 1.3525(6) 0.18983(10)
N4 N 0.44931(16) 1.4137(6) 0.23312(10)
C1 C 0.3546(2) -0.0838(8) -0.23078(12)
H1 H 0.3223 -0.2782 -0.2313
H2 H 0.4101 -0.1403 -0.2341
H3 H 0.3343 0.0547 -0.2584
C2 C 0.3500(2) 0.0891(7) -0.18231(12)
C3 C 0.4179(2) 0.2240(8) -0.15616(12)
H4 H 0.4680 0.2007 -0.1687
C4 C 0.4135(2) 0.3902(7) -0.11251(12)
H5 H 0.4602 0.4807 -0.0955
C5 C 0.34068(19) 0.4251(7) -0.09335(11)
C6 C 0.27246(19) 0.2897(7) -0.11872(12)
H6 H 0.2225 0.3126 -0.1060
C7 C 0.2776(2) 0.1227(7) -0.16224(12)
H7 H 0.2309 0.0289 -0.1788
C8 C 0.33463(19) 0.6019(7) -0.04729(11)
C9 C 0.35275(19) 0.8994(7) 0.02832(11)
C10 C 0.2996(2) 1.2661(7) 0.10072(12)
H8 H 0.3080 1.4939 0.1092
H9 H 0.2581 1.2551 0.0721
C11 C 0.33781(19) 1.1814(7) 0.19861(12)
C12 C 0.42392(18) 1.2861(7) 0.27270(12)
C13 C 0.46511(19) 1.3186(7) 0.32295(12)
C14 C 0.43531(19) 1.1764(8) 0.36363(12)
H10 H 0.3872 1.0580 0.3591
C15 C 0.4755(2) 1.2068(8) 0.41067(12)
H11 H 0.4540 1.1096 0.4380
C16 C 0.54653(19) 1.3758(7) 0.41906(12)
C17 C 0.5753(2) 1.5225(8) 0.37799(12)
H12 H 0.6231 1.6434 0.3826
C18 C 0.53548(19) 1.4947(8) 0.33077(12)
H13 H 0.5562 1.5961 0.3035
C19 C 0.5928(2) 1.3981(9) 0.46959(12)
H14 H 0.6398 1.2602 0.4708
H15 H 0.5590 1.3294 0.4949
H16 H 0.6096 1.6190 0.4760
loop_
_geom_bond_atom_site_label_1
_geom_bond_atom_site_label_2
_geom_bond_site_symmetry_1
_geom_bond_site_symmetry_2
S1 C8 1_555 1_555
S2 C9 1_555 1_555
S3 C10 1_555 1_555
S4 C11 1_555 1_555
N1 N2 1_555 1_555
N2 C9 1_555 1_555
N3 N4 1_555 1_555
N4 C12 1_555 1_555
C1 H1 1_555 1_555
H2 C1 1_555 1_555
H3 C1 1_555 1_555
C2 C1 1_555 1_555
C3 C2 1_555 1_555
H4 C3 1_555 1_555
C4 C3 1_555 1_555
H5 C4 1_555 1_555
C5 C4 1_555 1_555
C6 C5 1_555 1_555
H6 C6 1_555 1_555
C7 C2 1_555 1_555
H7 C7 1_555 1_555
C8 N1 1_555 1_555
C9 S1 1_555 1_555
C10 S2 1_555 1_555
H8 C10 1_555 1_555
H9 C10 1_555 1_555
C11 S3 1_555 1_555
C12 S4 1_555 1_555
C13 C12 1_555 1_555
C14 C13 1_555 1_555
H10 C14 1_555 1_555
C15 C14 1_555 1_555
H11 C15 1_555 1_555
C16 C15 1_555 1_555
C17 C16 1_555 1_555
H12 C17 1_555 1_555
C18 C13 1_555 1_555
H13 C18 1_555 1_555
C19 C16 1_555 1_555
H14 C19 1_555 1_555
H15 C19 1_555 1_555
H16 C19 1_555 1_555
N3 C11 1_555 1_555
C5 C8 1_555 1_555
C6 C7 1_555 1_555
C17 C18 1_555 1_555

#END
