
#######################################################################
#
#                 Cambridge Crystallographic Data Centre
#                                CCDC 
#
#######################################################################
#
# If this CIF has been generated from an entry in the Cambridge 
# Structural Database, then it will include bibliographic, chemical, 
# crystal, experimental, refinement or atomic coordinate data resulting 
# from the CCDC's data processing and validation procedures.
#
#######################################################################

data_LAQFIT
_chemical_formula_moiety         'C11 H12 O4'
_chemical_name_systematic        
3,3a,5a,6,8a,8b-hexahydrofuro[3,4-e]benzofuran-1,8-dione
_symmetry_cell_setting           orthorhombic
_symmetry_space_group_name_H-M   'P 21 21 21'
_symmetry_Int_Tables_number      19
_space_group_name_Hall           'P 2ac 2ab'
loop_
_symmetry_equiv_pos_site_id
_symmetry_equiv_pos_as_xyz
1 x,y,z
2 1/2+x,1/2-y,-z
3 -x,1/2+y,1/2-z
4 1/2-x,-y,1/2+z
_cell_length_a                   7.4420(1)
_cell_length_b                   8.1357(1)
_cell_length_c                   16.2950(3)
_cell_angle_alpha                90
_cell_angle_beta                 90
_cell_angle_gamma                90
_cell_volume                     986.595
_exptl_crystal_colour            colorless
_exptl_crystal_description       plate
_cell_formula_units_Z            4
_exptl_crystal_recrystallization_method 
t-butylmethylether/dichloromethane/chloroform
loop_
_atom_site_label
_atom_site_type_symbol
_atom_site_fract_x
_atom_site_fract_y
_atom_site_fract_z
O1 O 0.48655(19) 0.38093(17) 0.36074(7)
O2 O 0.4746(2) 0.29741(15) 0.69601(7)
O3 O 0.3769(2) 0.14659(16) 0.41015(8)
O4 O 0.42993(18) 0.10358(14) 0.60153(8)
C1 C 0.3967(2) 0.2933(2) 0.4171(1)
C2 C 0.5013(3) 0.5536(2) 0.3856(1)
C3 C 0.3492(2) 0.57806(19) 0.4478(1)
C4 C 0.3866(2) 0.7156(2) 0.50752(11)
C5 C 0.3998(2) 0.69613(18) 0.5881(1)
C6 C 0.3760(3) 0.52841(18) 0.6238(1)
C7 C 0.4821(4) 0.4773(2) 0.69937(12)
C8 C 0.4435(2) 0.24695(19) 0.6176(1)
C9 C 0.4388(2) 0.39731(18) 0.56343(9)
C10 C 0.3280(2) 0.4047(2) 0.48527(9)
C11 C 0.4929(4) 0.6605(4) 0.31004(13)
H1 H 0.618(3) 0.560(3) 0.4107(13)
H2 H 0.238(3) 0.600(3) 0.4161(12)
H3 H 0.401(3) 0.825(3) 0.4823(12)
H4 H 0.422(3) 0.793(3) 0.6236(12)
H5 H 0.244(3) 0.509(3) 0.6362(12)
H6 H 0.430(3) 0.516(3) 0.7536(16)
H7 H 0.610(4) 0.512(3) 0.6926(14)
H8 H 0.563(3) 0.419(2) 0.5520(11)
H9 H 0.205(3) 0.378(2) 0.4963(11)
H10 H 0.501(4) 0.777(4) 0.3284(17)
H11 H 0.590(4) 0.626(4) 0.2733(18)
H12 H 0.374(5) 0.653(4) 0.2850(17)
loop_
_geom_bond_atom_site_label_1
_geom_bond_atom_site_label_2
_geom_bond_site_symmetry_1
_geom_bond_site_symmetry_2
O1 C1 1_555 1_555
O2 C7 1_555 1_555
O3 C1 1_555 1_555
O4 C8 1_555 1_555
C1 C10 1_555 1_555
C2 O1 1_555 1_555
C3 C2 1_555 1_555
C4 C3 1_555 1_555
C5 C4 1_555 1_555
C6 C5 1_555 1_555
C7 C6 1_555 1_555
C8 O2 1_555 1_555
C9 C6 1_555 1_555
C10 C3 1_555 1_555
C11 C2 1_555 1_555
H1 C2 1_555 1_555
H2 C3 1_555 1_555
H3 C4 1_555 1_555
H4 C5 1_555 1_555
H5 C6 1_555 1_555
H6 C7 1_555 1_555
H7 C7 1_555 1_555
H8 C9 1_555 1_555
H9 C10 1_555 1_555
H10 C11 1_555 1_555
H11 C11 1_555 1_555
H12 C11 1_555 1_555
C8 C9 1_555 1_555
C9 C10 1_555 1_555

#END
