
#######################################################################
#
#                 Cambridge Crystallographic Data Centre
#                                CCDC 
#
#######################################################################
#
# If this CIF has been generated from an entry in the Cambridge 
# Structural Database, then it will include bibliographic, chemical, 
# crystal, experimental, refinement or atomic coordinate data resulting 
# from the CCDC's data processing and validation procedures.
#
#######################################################################

data_LAQGIV
_chemical_formula_moiety         'C21 H22 Br2 N4,0.5(H2 O1)'
_chemical_name_systematic        
"2,2'-Dimethyl-1,1'-[2,2-bis(bromomethyl)propane-1,3-diyl]dibenzimidazole hemihydrate"
_symmetry_cell_setting           monoclinic
_symmetry_space_group_name_H-M   'P 21/c'
_symmetry_Int_Tables_number      14
_space_group_name_Hall           '-P 2ybc'
loop_
_symmetry_equiv_pos_site_id
_symmetry_equiv_pos_as_xyz
1 x,y,z
2 -x,1/2+y,1/2-z
3 -x,-y,-z
4 x,1/2-y,1/2+z
_cell_length_a                   12.647(3)
_cell_length_b                   8.1065(16)
_cell_length_c                   20.580(4)
_cell_angle_alpha                90
_cell_angle_beta                 107.42(3)
_cell_angle_gamma                90
_cell_volume                     2013.15
_exptl_crystal_colour            colorless
_exptl_crystal_description       prism
_cell_formula_units_Z            4
loop_
_atom_site_label
_atom_site_type_symbol
_atom_site_fract_x
_atom_site_fract_y
_atom_site_fract_z
C1 C 0.6424(6) 0.2016(8) 0.9301(3)
H1 H 0.7009 0.1863 0.9726
H2 H 0.6036 0.3025 0.9342
C2 C 0.4530(6) 0.0612(8) 0.8838(3)
C3 C 0.3807(6) 0.1770(9) 0.8446(3)
H3 H 0.4043 0.2829 0.8386
C4 C 0.2721(6) 0.1286(10) 0.8149(4)
H4 H 0.2216 0.2040 0.7888
C5 C 0.2365(7) -0.0308(10) 0.8233(4)
H5 H 0.1634 -0.0600 0.8014
C6 C 0.3062(7) -0.1452(10) 0.8627(4)
H6 H 0.2813 -0.2502 0.8690
C7 C 0.4159(6) -0.0989(9) 0.8933(3)
C8 C 0.5876(6) -0.0897(9) 0.9525(4)
C9 C 0.6978(6) -0.1342(10) 0.9993(4)
H7 H 0.7479 -0.0432 1.0028
H8 H 0.7259 -0.2289 0.9818
H9 H 0.6911 -0.1592 1.0434
C10 C 0.8018(5) 0.3379(8) 0.8972(3)
H10 H 0.8364 0.3435 0.8611
H11 H 0.7769 0.4483 0.9034
C11 C 1.0146(6) 0.1356(10) 0.9069(4)
H12 H 0.9545 0.1503 0.8658
H13 H 1.0283 0.0200 0.9153
H14 H 1.0800 0.1877 0.9020
C12 C 0.9851(6) 0.2113(9) 0.9649(4)
C13 C 0.9953(6) 0.3007(9) 1.0651(4)
C14 C 1.0284(6) 0.3408(10) 1.1335(4)
H15 H 1.0959 0.3042 1.1623
C15 C 0.9585(7) 0.4364(10) 1.1578(4)
H16 H 0.9791 0.4651 1.2037
C16 C 0.8556(7) 0.4915(9) 1.1138(4)
H17 H 0.8099 0.5572 1.1310
C17 C 0.8226(6) 0.4492(8) 1.0462(4)
H18 H 0.7551 0.4853 1.0172
C18 C 0.8938(6) 0.3495(8) 1.0220(3)
C19 C 0.7252(6) 0.0544(9) 0.8506(4)
H19 H 0.6603 -0.0156 0.8428
H20 H 0.7833 0.0069 0.8880
C20 C 0.6175(6) 0.3104(9) 0.8090(3)
H21 H 0.5539 0.2397 0.7899
H22 H 0.6553 0.3245 0.7747
C21 C 0.6969(5) 0.2250(8) 0.8721(3)
N1 N 0.5029(5) -0.1870(7) 0.9376(3)
N2 N 0.5642(5) 0.0633(7) 0.9216(3)
N3 N 0.8870(5) 0.2914(7) 0.9599(3)
N4 N 1.0516(5) 0.2108(8) 1.0281(3)
Br1 Br 0.56570(7) 0.52696(9) 0.83015(4)
Br2 Br 0.77367(7) 0.05147(10) 0.76915(4)
O1? O 0.5525(10) -0.4843(13) 1.0222(6)
loop_
_geom_bond_atom_site_label_1
_geom_bond_atom_site_label_2
_geom_bond_site_symmetry_1
_geom_bond_site_symmetry_2
C1 H1 1_555 1_555
H2 C1 1_555 1_555
C2 C3 1_555 1_555
C3 H3 1_555 1_555
C4 C3 1_555 1_555
H4 C4 1_555 1_555
C5 C4 1_555 1_555
H5 C5 1_555 1_555
C6 C5 1_555 1_555
H6 C6 1_555 1_555
C7 C2 1_555 1_555
C8 C9 1_555 1_555
C9 H7 1_555 1_555
H8 C9 1_555 1_555
H9 C9 1_555 1_555
C10 H10 1_555 1_555
H11 C10 1_555 1_555
C11 H12 1_555 1_555
H13 C11 1_555 1_555
H14 C11 1_555 1_555
C12 C11 1_555 1_555
C13 C14 1_555 1_555
C14 H15 1_555 1_555
C15 C14 1_555 1_555
H16 C15 1_555 1_555
C16 C15 1_555 1_555
H17 C16 1_555 1_555
C17 C16 1_555 1_555
H18 C17 1_555 1_555
C18 C13 1_555 1_555
C19 H19 1_555 1_555
H20 C19 1_555 1_555
C20 H21 1_555 1_555
H22 C20 1_555 1_555
C21 C1 1_555 1_555
N1 C7 1_555 1_555
N2 C1 1_555 1_555
N3 C10 1_555 1_555
N4 C12 1_555 1_555
Br1 C20 1_555 1_555
Br2 C19 1_555 1_555
C2 N2 1_555 1_555
C6 C7 1_555 1_555
C8 N1 1_555 1_555
C8 N2 1_555 1_555
C10 C21 1_555 1_555
C12 N3 1_555 1_555
C13 N4 1_555 1_555
C17 C18 1_555 1_555
C18 N3 1_555 1_555
C19 C21 1_555 1_555
C20 C21 1_555 1_555

#END
