
#######################################################################
#
#                 Cambridge Crystallographic Data Centre
#                                CCDC 
#
#######################################################################
#
# If this CIF has been generated from an entry in the Cambridge 
# Structural Database, then it will include bibliographic, chemical, 
# crystal, experimental, refinement or atomic coordinate data resulting 
# from the CCDC's data processing and validation procedures.
#
#######################################################################

data_LAQKIZ
_chemical_formula_moiety         'C9 H10 N2 O5'
_chemical_name_systematic        (1R*,2S*)-2-Nitro-1-(4-nitrophenyl)propanol
_symmetry_cell_setting           monoclinic
_symmetry_space_group_name_H-M   'P 21/c'
_symmetry_Int_Tables_number      14
_space_group_name_Hall           '-P 2ybc'
loop_
_symmetry_equiv_pos_site_id
_symmetry_equiv_pos_as_xyz
1 x,y,z
2 -x,1/2+y,1/2-z
3 -x,-y,-z
4 x,1/2-y,1/2+z
_cell_length_a                   7.4013(15)
_cell_length_b                   10.504(2)
_cell_length_c                   13.681(3)
_cell_angle_alpha                90
_cell_angle_beta                 100.465(4)
_cell_angle_gamma                90
_cell_volume                     1045.91
_exptl_crystal_colour            colorless
_exptl_crystal_description       prism
_cell_formula_units_Z            4
loop_
_atom_site_label
_atom_site_type_symbol
_atom_site_fract_x
_atom_site_fract_y
_atom_site_fract_z
N1 N 0.1671(2) -0.04487(15) 0.18274(12)
N2 N 0.3598(3) 0.67086(16) 0.05631(16)
O1 O 0.2260(2) -0.09283(15) 0.26305(12)
O2 O 0.0497(3) -0.09303(15) 0.12111(11)
O3 O 0.0003(3) 0.17439(15) 0.21466(14)
O4 O 0.4510(3) 0.72894(16) 0.12539(14)
O5 O 0.3235(3) 0.71279(16) -0.02787(15)
C1 C 0.3609(4) 0.0580(2) 0.07942(18)
H1 H 0.4478 -0.0088 0.1005
H2 H 0.4254 0.1345 0.0684
H3 H 0.2816 0.0334 0.0188
C2 C 0.2477(3) 0.08152(17) 0.15862(16)
H4 H 0.3297 0.1121 0.2184
C3 C 0.0905(3) 0.17561(18) 0.13254(15)
H5 H 0.0060 0.1456 0.0734
C4 C 0.1629(3) 0.30631(17) 0.11196(14)
C5 C 0.2240(3) 0.3894(2) 0.18973(15)
H6 H 0.2211 0.3644 0.2546
C6 C 0.2890(3) 0.50863(19) 0.17205(15)
H7 H 0.3295 0.5643 0.2243
C7 C 0.2926(3) 0.54335(17) 0.07561(15)
C8 C 0.2320(3) 0.46360(18) -0.00374(15)
H8 H 0.2347 0.4892 -0.0685
C9 C 0.1676(3) 0.34498(18) 0.01569(15)
H9 H 0.1266 0.2898 -0.0368
H10 H -0.076(4) 0.230(3) 0.209(2)
loop_
_geom_bond_atom_site_label_1
_geom_bond_atom_site_label_2
_geom_bond_site_symmetry_1
_geom_bond_site_symmetry_2
N1 O1 1_555 1_555
N2 O4 1_555 1_555
O2 N1 1_555 1_555
O3 C3 1_555 1_555
O5 N2 1_555 1_555
C1 H1 1_555 1_555
H2 C1 1_555 1_555
H3 C1 1_555 1_555
C2 N1 1_555 1_555
H4 C2 1_555 1_555
C3 C2 1_555 1_555
H5 C3 1_555 1_555
C4 C3 1_555 1_555
C5 C4 1_555 1_555
H6 C5 1_555 1_555
C6 C5 1_555 1_555
H7 C6 1_555 1_555
C7 N2 1_555 1_555
C8 C7 1_555 1_555
H8 C8 1_555 1_555
C9 C4 1_555 1_555
H9 C9 1_555 1_555
H10 O3 1_555 1_555
C1 C2 1_555 1_555
C6 C7 1_555 1_555
C8 C9 1_555 1_555

#END
