
#######################################################################
#
#                 Cambridge Crystallographic Data Centre
#                                CCDC 
#
#######################################################################
#
# If this CIF has been generated from an entry in the Cambridge 
# Structural Database, then it will include bibliographic, chemical, 
# crystal, experimental, refinement or atomic coordinate data resulting 
# from the CCDC's data processing and validation procedures.
#
#######################################################################

data_LAQKIA
_chemical_formula_moiety         'C14 H8 Cl2 O4'
_chemical_name_systematic        'bis(4-chlorophenyl) oxalate'
_symmetry_cell_setting           monoclinic
_symmetry_space_group_name_H-M   'P 21/c'
_symmetry_Int_Tables_number      14
_space_group_name_Hall           '-P 2ybc'
loop_
_symmetry_equiv_pos_site_id
_symmetry_equiv_pos_as_xyz
1 x,y,z
2 -x,1/2+y,1/2-z
3 -x,-y,-z
4 x,1/2-y,1/2+z
_cell_length_a                   12.480(3)
_cell_length_b                   3.8099(8)
_cell_length_c                   14.151(3)
_cell_angle_alpha                90
_cell_angle_beta                 96.90(3)
_cell_angle_gamma                90
_cell_volume                     667.972
_exptl_crystal_colour            white
_exptl_crystal_description       Prism
_cell_formula_units_Z            2
loop_
_atom_site_label
_atom_site_type_symbol
_atom_site_fract_x
_atom_site_fract_y
_atom_site_fract_z
Cl1 Cl 0.07939(5) 0.26560(19) 0.09354(5)
O1 O 0.37281(11) -0.0602(4) 0.43778(10)
C1 C 0.33761(17) -0.0501(6) 0.26515(15)
H1 H 0.4043 -0.1528 0.2601
C2 C 0.26712(18) 0.0231(6) 0.18507(15)
H2 H 0.2859 -0.0290 0.1250
C3 C 0.30723(17) 0.0319(6) 0.35242(15)
O2 O 0.51252(14) 0.2672(5) 0.40257(13)
C4 C 0.20978(18) 0.1814(6) 0.36278(17)
H3 H 0.1914 0.2342 0.4229
C5 C 0.47251(17) 0.0707(6) 0.45265(15)
C6 C 0.16862(18) 0.1743(6) 0.19455(16)
C7 C 0.13901(18) 0.2527(6) 0.28222(17)
H4 H 0.0720 0.3529 0.2875
Cl1B Cl 0.92061(5) -0.26560(19) 0.90646(5)
O1B O 0.62719(11) 0.0602(4) 0.56222(10)
C1B C 0.66239(17) 0.0501(6) 0.73485(15)
H1B H 0.5957 0.1528 0.7399
C2B C 0.73288(18) -0.0231(6) 0.81493(15)
H2B H 0.7141 0.0290 0.8750
C3B C 0.69277(17) -0.0319(6) 0.64758(15)
O2B O 0.48748(14) -0.2672(5) 0.59743(13)
C4B C 0.79022(18) -0.1814(6) 0.63722(17)
H3B H 0.8086 -0.2342 0.5771
C5B C 0.52749(17) -0.0707(6) 0.54735(15)
C6B C 0.83138(18) -0.1743(6) 0.80545(16)
C7B C 0.86099(18) -0.2527(6) 0.71778(17)
H4B H 0.9280 -0.3529 0.7125
loop_
_geom_bond_atom_site_label_1
_geom_bond_atom_site_label_2
_geom_bond_site_symmetry_1
_geom_bond_site_symmetry_2
Cl1 C6 1_555 1_555
O1 C3 1_555 1_555
C1 H1 1_555 1_555
C2 C1 1_555 1_555
H2 C2 1_555 1_555
C3 C1 1_555 1_555
O2 C5 1_555 1_555
C4 C3 1_555 1_555
H3 C4 1_555 1_555
C5 O1 1_555 1_555
C6 C2 1_555 1_555
C7 C4 1_555 1_555
H4 C7 1_555 1_555
Cl1B C6B 1_555 1_555
O1B C3B 1_555 1_555
C1B H1B 1_555 1_555
C2B C1B 1_555 1_555
H2B C2B 1_555 1_555
C3B C1B 1_555 1_555
O2B C5B 1_555 1_555
C4B C3B 1_555 1_555
H3B C4B 1_555 1_555
C5B C5 1_555 1_555
C6B C2B 1_555 1_555
C7B C4B 1_555 1_555
H4B C7B 1_555 1_555
C6 C7 1_555 1_555
O1B C5B 1_555 1_555
C6B C7B 1_555 1_555

#END
