
#######################################################################
#
#                 Cambridge Crystallographic Data Centre
#                                CCDC 
#
#######################################################################
#
# If this CIF has been generated from an entry in the Cambridge 
# Structural Database, then it will include bibliographic, chemical, 
# crystal, experimental, refinement or atomic coordinate data resulting 
# from the CCDC's data processing and validation procedures.
#
#######################################################################

data_LAQLAS
_chemical_formula_moiety         'C21 H21 N1 O2,C3 H7 N1 O1'
_chemical_name_systematic        
'1-[(2-Hydroxyphenyl)(pyrrolidin-1-yl)methyl]naphthalen-2-ol dimethylformamide solvate'
_symmetry_cell_setting           monoclinic
_symmetry_space_group_name_H-M   'P 21/n'
_symmetry_Int_Tables_number      14
_space_group_name_Hall           '-P 2yn'
loop_
_symmetry_equiv_pos_site_id
_symmetry_equiv_pos_as_xyz
1 x,y,z
2 1/2-x,1/2+y,1/2-z
3 -x,-y,-z
4 1/2+x,1/2-y,1/2+z
_cell_length_a                   13.675(3)
_cell_length_b                   9.6518(19)
_cell_length_c                   16.505(3)
_cell_angle_alpha                90
_cell_angle_beta                 102.84(3)
_cell_angle_gamma                90
_cell_volume                     2123.99
_exptl_crystal_colour            colorless
_exptl_crystal_description       prism
_cell_formula_units_Z            4
_exptl_crystal_recrystallization_method 
dichloromethane/methanol/dimethylformamide
loop_
_atom_site_label
_atom_site_type_symbol
_atom_site_fract_x
_atom_site_fract_y
_atom_site_fract_z
O1 O 0.86622(14) 0.7318(2) 1.01567(12)
H1 H 0.8484 0.7762 1.0522
O2 O 0.59379(14) 1.15741(19) 1.04615(12)
H2 H 0.5723 1.2281 1.0636
N1 N 0.73008(15) 0.8368(2) 1.08164(11)
C1 C 0.72196(18) 0.8476(3) 0.93131(15)
C2 C 0.66100(19) 0.8697(2) 0.84998(15)
C3 C 0.5776(2) 0.9595(3) 0.83292(16)
H3 H 0.5614 1.0099 0.8761
C4 C 0.69749(19) 0.9227(2) 1.00552(14)
H4 H 0.6245 0.9335 0.9952
C5 C 0.8026(2) 0.7581(3) 0.94091(17)
C6 C 0.6846(2) 0.7971(3) 0.78094(16)
C7 C 0.8420(2) 1.0914(3) 1.00816(15)
H5 H 0.8790 1.0181 0.9940
C8 C 0.7445(2) 1.0671(3) 1.01694(14)
C9 C 0.6901(2) 1.1791(3) 1.03819(15)
C10 C 0.8248(2) 0.6866(3) 0.8726(2)
H6 H 0.8794 0.6267 0.8806
C11 C 0.5201(2) 0.9739(3) 0.75428(19)
H7 H 0.4650 1.0330 0.7451
C12 C 0.8301(3) 1.3300(3) 1.04007(18)
H8 H 0.8585 1.4179 1.0477
C13 C 0.6236(3) 0.8158(4) 0.70070(17)
H9 H 0.6392 0.7685 0.6561
C14 C 0.5429(3) 0.9011(4) 0.68713(19)
H10 H 0.5030 0.9113 0.6340
C15 C 0.6664(2) 0.7135(3) 1.08117(17)
H11 H 0.6778 0.6458 1.0409
H12 H 0.5958 0.7382 1.0690
C16 C 0.7670(2) 0.7048(3) 0.7955(2)
H13 H 0.7817 0.6557 0.7512
C17 C 0.7284(2) 0.9051(3) 1.16070(15)
H14 H 0.6674 0.9587 1.1564
H15 H 0.7858 0.9658 1.1778
C18 C 0.7332(3) 1.3106(3) 1.04918(17)
H16 H 0.6967 1.3851 1.0626
C19 C 0.7325(3) 0.7847(3) 1.22155(18)
H17 H 0.8000 0.7729 1.2547
H18 H 0.6876 0.8013 1.2585
C20 C 0.7004(3) 0.6593(4) 1.16925(18)
H19 H 0.6458 0.6123 1.1867
H20 H 0.7558 0.5951 1.1732
C21 C 0.8852(2) 1.2218(4) 1.01990(18)
H21 H 0.9507 1.2357 1.0142
N2 N 0.45935(18) 1.5046(3) 1.20142(17)
O3 O 0.50827(19) 1.3762(2) 1.10246(16)
C22 C 0.5038(2) 1.3964(4) 1.1737(3)
H22 H 0.5340 1.3312 1.2128
C23 C 0.4627(3) 1.5224(4) 1.2890(2)
H23 H 0.5010 1.4487 1.3198
H24 H 0.3957 1.5206 1.2979
H25 H 0.4934 1.6096 1.3073
C24 C 0.4053(3) 1.6046(4) 1.1449(3)
H26 H 0.4091 1.5807 1.0892
H27 H 0.4342 1.6946 1.1585
H28 H 0.3364 1.6056 1.1491
loop_
_geom_bond_atom_site_label_1
_geom_bond_atom_site_label_2
_geom_bond_site_symmetry_1
_geom_bond_site_symmetry_2
O1 H1 1_555 1_555
O2 H2 1_555 1_555
N1 C4 1_555 1_555
C1 C2 1_555 1_555
C2 C3 1_555 1_555
C3 H3 1_555 1_555
C4 C1 1_555 1_555
H4 C4 1_555 1_555
C5 O1 1_555 1_555
C6 C2 1_555 1_555
C7 H5 1_555 1_555
C8 C4 1_555 1_555
C9 O2 1_555 1_555
C10 C5 1_555 1_555
H6 C10 1_555 1_555
C11 C3 1_555 1_555
H7 C11 1_555 1_555
C12 H8 1_555 1_555
C13 C6 1_555 1_555
H9 C13 1_555 1_555
C14 C11 1_555 1_555
H10 C14 1_555 1_555
C15 N1 1_555 1_555
H11 C15 1_555 1_555
H12 C15 1_555 1_555
C16 C6 1_555 1_555
H13 C16 1_555 1_555
C17 N1 1_555 1_555
H14 C17 1_555 1_555
H15 C17 1_555 1_555
C18 C9 1_555 1_555
H16 C18 1_555 1_555
C19 C17 1_555 1_555
H17 C19 1_555 1_555
H18 C19 1_555 1_555
C20 C15 1_555 1_555
H19 C20 1_555 1_555
H20 C20 1_555 1_555
C21 C7 1_555 1_555
H21 C21 1_555 1_555
N2 C22 1_555 1_555
O3 C22 1_555 1_555
C22 H22 1_555 1_555
C23 N2 1_555 1_555
H23 C23 1_555 1_555
H24 C23 1_555 1_555
H25 C23 1_555 1_555
C24 N2 1_555 1_555
H26 C24 1_555 1_555
H27 C24 1_555 1_555
H28 C24 1_555 1_555
C1 C5 1_555 1_555
C7 C8 1_555 1_555
C8 C9 1_555 1_555
C10 C16 1_555 1_555
C12 C18 1_555 1_555
C12 C21 1_555 1_555
C13 C14 1_555 1_555
C19 C20 1_555 1_555

#END
