
#######################################################################
#
#                 Cambridge Crystallographic Data Centre
#                                CCDC 
#
#######################################################################
#
# If this CIF has been generated from an entry in the Cambridge 
# Structural Database, then it will include bibliographic, chemical, 
# crystal, experimental, refinement or atomic coordinate data resulting 
# from the CCDC's data processing and validation procedures.
#
#######################################################################

data_LAQSED
_chemical_formula_moiety         'C19 H19 N1 O10'
_chemical_name_systematic        
'1,3-Dioxo-2,3-dihydro-1H-isoindol-2-yl 2,3,4-tri-O-acetyl-\b-D-xyloside'
_symmetry_cell_setting           monoclinic
_symmetry_space_group_name_H-M   'P 21'
_symmetry_Int_Tables_number      4
_space_group_name_Hall           'P 2yb'
loop_
_symmetry_equiv_pos_site_id
_symmetry_equiv_pos_as_xyz
1 x,y,z
2 -x,1/2+y,-z
_cell_length_a                   11.722(2)
_cell_length_b                   9.2270(18)
_cell_length_c                   19.615(4)
_cell_angle_alpha                90
_cell_angle_beta                 104.52(3)
_cell_angle_gamma                90
_cell_volume                     2053.78
_exptl_crystal_colour            colorless
_exptl_crystal_description       block
_chemical_melting_point          '455.6-456 K'
_cell_formula_units_Z            4
_exptl_crystal_recrystallization_method 'ethyl acetate'
loop_
_atom_site_label
_atom_site_type_symbol
_atom_site_fract_x
_atom_site_fract_y
_atom_site_fract_z
C1 C 0.7869(7) -0.0615(11) 0.5590(4)
H1 H 0.7057 -0.0752 0.5347
H2 H 0.7919 -0.0293 0.6062
H3 H 0.8286 -0.1514 0.5604
O1 O 0.8981(5) 0.1670(8) 0.5445(3)
O2 O 0.8245(3) 0.0151(4) 0.45501(15)
O3 O 0.5499(3) 0.0723(5) 0.3498(2)
O4 O 0.6896(3) 0.2426(3) 0.36472(17)
O5 O 0.7255(4) 0.4574(4) 0.2203(2)
O6 O 0.7291(3) 0.2142(3) 0.22473(15)
O7 O 1.0122(3) 0.1240(4) 0.34194(17)
O8 O 0.9724(3) 0.2386(3) 0.23545(16)
O9 O 1.2187(3) 0.2686(4) 0.28619(19)
O10 O 0.9277(3) 0.0843(5) 0.10753(18)
N1 N 1.0553(3) 0.1711(4) 0.20799(18)
C2 C 0.8407(6) 0.0501(10) 0.5213(3)
C3 C 0.5069(4) 0.3108(7) 0.3831(3)
H4 H 0.4296 0.2725 0.3798
H5 H 0.5018 0.3899 0.3507
H6 H 0.5402 0.3447 0.4302
C4 C 0.5824(4) 0.1965(6) 0.3658(3)
C5 C 0.6116(6) 0.3217(9) 0.1216(3)
H7 H 0.5418 0.2725 0.1262
H8 H 0.6499 0.2650 0.0928
H9 H 0.5906 0.4146 0.0999
C6 C 0.6941(4) 0.3424(6) 0.1934(3)
C7 C 0.8168(4) 0.2182(5) 0.2902(2)
H10 H 0.8351 0.3192 0.3041
C8 C 0.9257(4) 0.1452(5) 0.2785(2)
H11 H 0.9045 0.0520 0.2546
C9 C 0.9693(4) 0.0343(7) 0.3882(3)
H12 H 1.0326 0.0122 0.4292
H13 H 0.9409 -0.0561 0.3648
C10 C 0.8700(4) 0.1095(6) 0.4110(2)
H14 H 0.8986 0.1993 0.4363
C11 C 0.7720(4) 0.1427(5) 0.3462(2)
H15 H 0.7314 0.0530 0.3273
C12 C 1.0261(4) 0.1045(6) 0.1424(2)
C13 C 1.1421(4) 0.0666(5) 0.1293(2)
C14 C 1.1708(5) -0.0142(6) 0.0768(3)
H16 H 1.1125 -0.0563 0.0412
C15 C 1.2878(6) -0.0308(7) 0.0784(4)
H17 H 1.3087 -0.0842 0.0432
C16 C 1.3747(5) 0.0298(7) 0.1309(3)
H18 H 1.4533 0.0196 0.1302
C17 C 1.3452(5) 0.1074(6) 0.1859(3)
H19 H 1.4032 0.1463 0.2226
C18 C 1.2312(4) 0.1231(5) 0.1834(2)
C19 C 1.1734(4) 0.1982(6) 0.2336(2)
O11 O 0.4128(4) 0.7342(6) 0.4406(2)
O12 O 0.3423(3) 0.8357(4) 0.33808(15)
O13 O 0.0676(3) 0.8442(5) 0.2317(3)
O14 O 0.1691(3) 0.6402(4) 0.26372(16)
O15 O 0.7126(3) 0.7988(4) 0.29705(18)
O16 O 0.5774(2) 0.6731(4) 0.33357(16)
O17 O 0.4092(3) 0.5377(3) 0.19975(17)
O18 O 0.2382(3) 0.6188(3) 0.12131(16)
O19 O 0.0646(3) 0.4089(4) 0.07830(19)
O20 O 0.3982(3) 0.5904(5) 0.03530(19)
N2 N 0.2382(4) 0.5133(5) 0.0720(2)
C20 C 0.3261(6) 0.9705(9) 0.4350(3)
H20 H 0.3465 0.9642 0.4854
H21 H 0.2427 0.9845 0.4180
H22 H 0.3669 1.0507 0.4207
C21 C 0.3611(5) 0.8328(8) 0.4048(3)
C22 C -0.0176(4) 0.6513(7) 0.2828(3)
H23 H 0.0112 0.6384 0.3327
H24 H -0.0351 0.5585 0.2606
H25 H -0.0877 0.7094 0.2732
C23 C 0.0733(4) 0.7248(6) 0.2550(2)
C24 C 0.7675(5) 0.6422(8) 0.3972(3)
H26 H 0.7657 0.5396 0.3891
H27 H 0.7434 0.6620 0.4396
H28 H 0.8462 0.6777 0.4021
C25 C 0.6864(4) 0.7153(6) 0.3371(2)
C26 C 0.4855(4) 0.7379(5) 0.2796(2)
H29 H 0.4995 0.8422 0.2770
C27 C 0.3697(3) 0.7111(5) 0.3015(2)
H30 H 0.3784 0.6260 0.3323
C28 C 0.2668(4) 0.6885(5) 0.2378(2)
H31 H 0.2473 0.7789 0.2112
C29 C 0.2899(4) 0.5686(5) 0.1910(2)
H32 H 0.2490 0.4806 0.1998
C30 C 0.4795(4) 0.6667(6) 0.2084(2)
H33 H 0.4458 0.7344 0.1709
H34 H 0.5585 0.6428 0.2051
C31 C 0.1439(4) 0.4156(5) 0.0513(2)
C32 C 0.1726(4) 0.3348(5) -0.0062(2)
C33 C 0.1103(5) 0.2213(6) -0.0463(2)
H35 H 0.0399 0.1875 -0.0387
C34 C 0.1565(6) 0.1625(7) -0.0968(3)
H36 H 0.1193 0.0848 -0.1235
C35 C 0.2655(7) 0.2222(10) -0.1092(4)
H37 H 0.2941 0.1859 -0.1459
C36 C 0.3239(6) 0.3267(8) -0.0691(4)
H38 H 0.3956 0.3599 -0.0752
C37 C 0.2751(4) 0.3856(6) -0.0175(2)
C38 C 0.3176(4) 0.5078(6) 0.0295(2)
loop_
_geom_bond_atom_site_label_1
_geom_bond_atom_site_label_2
_geom_bond_site_symmetry_1
_geom_bond_site_symmetry_2
C1 H1 1_555 1_555
H2 C1 1_555 1_555
H3 C1 1_555 1_555
O1 C2 1_555 1_555
O2 C2 1_555 1_555
O3 C4 1_555 1_555
O4 C4 1_555 1_555
O5 C6 1_555 1_555
O6 C6 1_555 1_555
O7 C8 1_555 1_555
O8 N1 1_555 1_555
O9 C19 1_555 1_555
O10 C12 1_555 1_555
N1 C12 1_555 1_555
C2 C1 1_555 1_555
C3 H4 1_555 1_555
H5 C3 1_555 1_555
H6 C3 1_555 1_555
C4 C3 1_555 1_555
C5 H7 1_555 1_555
H8 C5 1_555 1_555
H9 C5 1_555 1_555
C6 C5 1_555 1_555
C7 O6 1_555 1_555
H10 C7 1_555 1_555
C8 O8 1_555 1_555
H11 C8 1_555 1_555
C9 O7 1_555 1_555
H12 C9 1_555 1_555
H13 C9 1_555 1_555
C10 O2 1_555 1_555
H14 C10 1_555 1_555
C11 O4 1_555 1_555
H15 C11 1_555 1_555
C12 C13 1_555 1_555
C13 C14 1_555 1_555
C14 H16 1_555 1_555
C15 C14 1_555 1_555
H17 C15 1_555 1_555
C16 C15 1_555 1_555
H18 C16 1_555 1_555
C17 C16 1_555 1_555
H19 C17 1_555 1_555
C18 C13 1_555 1_555
C19 N1 1_555 1_555
O11 C21 1_555 1_555
O12 C21 1_555 1_555
O13 C23 1_555 1_555
O14 C23 1_555 1_555
O15 C25 1_555 1_555
O16 C25 1_555 1_555
O17 C29 1_555 1_555
O18 N2 1_555 1_555
O19 C31 1_555 1_555
O20 C38 1_555 1_555
N2 C31 1_555 1_555
C20 H20 1_555 1_555
H21 C20 1_555 1_555
H22 C20 1_555 1_555
C21 C20 1_555 1_555
C22 H23 1_555 1_555
H24 C22 1_555 1_555
H25 C22 1_555 1_555
C23 C22 1_555 1_555
C24 H26 1_555 1_555
H27 C24 1_555 1_555
H28 C24 1_555 1_555
C25 C24 1_555 1_555
C26 O16 1_555 1_555
H29 C26 1_555 1_555
C27 O12 1_555 1_555
H30 C27 1_555 1_555
C28 O14 1_555 1_555
H31 C28 1_555 1_555
C29 O18 1_555 1_555
H32 C29 1_555 1_555
C30 O17 1_555 1_555
H33 C30 1_555 1_555
H34 C30 1_555 1_555
C31 C32 1_555 1_555
C32 C33 1_555 1_555
C33 H35 1_555 1_555
C34 C33 1_555 1_555
H36 C34 1_555 1_555
C35 C34 1_555 1_555
H37 C35 1_555 1_555
C36 C35 1_555 1_555
H38 C36 1_555 1_555
C37 C32 1_555 1_555
C38 N2 1_555 1_555
C7 C8 1_555 1_555
C7 C11 1_555 1_555
C9 C10 1_555 1_555
C10 C11 1_555 1_555
C17 C18 1_555 1_555
C18 C19 1_555 1_555
C26 C27 1_555 1_555
C26 C30 1_555 1_555
C27 C28 1_555 1_555
C28 C29 1_555 1_555
C36 C37 1_555 1_555
C37 C38 1_555 1_555

#END
