
#######################################################################
#
#                 Cambridge Crystallographic Data Centre
#                                CCDC 
#
#######################################################################
#
# If this CIF has been generated from an entry in the Cambridge 
# Structural Database, then it will include bibliographic, chemical, 
# crystal, experimental, refinement or atomic coordinate data resulting 
# from the CCDC's data processing and validation procedures.
#
#######################################################################

data_LAQTAB
_chemical_formula_moiety         'C24 H23 N1 O5 S2'
_chemical_name_systematic        
N-((2-oxo-1-phenylcyclopentyl)methyl)-N-(phenylsulfonyl)benzenesulfonamide
_symmetry_cell_setting           triclinic
_symmetry_space_group_name_H-M   'P -1'
_symmetry_Int_Tables_number      2
_space_group_name_Hall           '-P 1'
loop_
_symmetry_equiv_pos_site_id
_symmetry_equiv_pos_as_xyz
1 x,y,z
2 -x,-y,-z
_cell_length_a                   10.2544(16)
_cell_length_b                   18.750(3)
_cell_length_c                   19.610(3)
_cell_angle_alpha                68.755(3)
_cell_angle_beta                 78.726(3)
_cell_angle_gamma                83.462(3)
_cell_volume                     3442.54
_cell_formula_units_Z            6
loop_
_atom_site_label
_atom_site_type_symbol
_atom_site_fract_x
_atom_site_fract_y
_atom_site_fract_z
C1 C 0.6489(4) 0.0358(2) 0.13575(19)
H1 H 0.6069 0.0044 0.1817
C2 C 0.5770(4) 0.0909(3) 0.0877(2)
H2 H 0.4853 0.0963 0.1012
C3 C 0.6378(6) 0.1373(3) 0.0210(3)
H3 H 0.5876 0.1740 -0.0111
C4 C 0.7741(6) 0.1303(2) 0.0004(2)
H4 H 0.8152 0.1632 -0.0449
C5 C 0.8500(4) 0.0751(2) 0.04647(19)
H5 H 0.9416 0.0696 0.0325
C6 C 0.7848(3) 0.02801(18) 0.11448(16)
C7 C 1.1442(4) 0.1410(2) 0.1062(2)
H6 H 1.1040 0.1577 0.1449
C8 C 1.1858(5) 0.1932(3) 0.0360(3)
H7 H 1.1716 0.2455 0.0266
C9 C 1.2483(5) 0.1667(3) -0.0198(2)
H8 H 1.2762 0.2013 -0.0670
C10 C 1.2692(5) 0.0903(3) -0.0060(2)
H9 H 1.3126 0.0731 -0.0439
C11 C 1.2273(4) 0.0385(2) 0.0628(2)
H10 H 1.2422 -0.0138 0.0720
C12 C 1.1634(3) 0.0644(2) 0.11747(18)
C13 C 0.8592(3) 0.02557(18) 0.27046(16)
H11 H 0.7755 0.0436 0.2524
H12 H 0.9004 0.0697 0.2702
C14 C 0.8281(3) -0.02969(17) 0.35170(15)
C15 C 0.9281(4) -0.09744(19) 0.37691(17)
H13 H 0.9625 -0.1177 0.3375
H14 H 1.0019 -0.0824 0.3922
C16 C 0.8460(4) -0.1562(2) 0.44249(18)
H15 H 0.8878 -0.2072 0.4523
H16 H 0.8349 -0.1431 0.4869
C17 C 0.7127(4) -0.1514(2) 0.4173(2)
H17 H 0.7128 -0.1872 0.3919
H18 H 0.6406 -0.1625 0.4593
C18 C 0.6986(4) -0.07009(19) 0.36546(17)
C19 C 0.8116(4) 0.01810(18) 0.40288(17)
C20 C 0.9199(4) 0.0529(2) 0.4068(2)
H19 H 1.0013 0.0477 0.3779
C21 C 0.9108(5) 0.0951(2) 0.4521(2)
H20 H 0.9855 0.1184 0.4530
C22 C 0.7934(6) 0.1032(2) 0.4958(2)
H21 H 0.7879 0.1307 0.5274
C23 C 0.6841(5) 0.0703(2) 0.4924(2)
H22 H 0.6031 0.0759 0.5215
C24 C 0.6926(4) 0.0287(2) 0.4459(2)
H23 H 0.6166 0.0074 0.4437
N1 N 0.9464(3) -0.00596(15) 0.21751(13)
O1 O 0.7866(2) -0.09955(12) 0.22481(12)
O2 O 0.9835(3) -0.07168(14) 0.12510(13)
O3 O 1.1275(3) 0.0329(2) 0.25915(14)
O4 O 1.1752(3) -0.07387(17) 0.21186(18)
O5 O 0.5992(3) -0.04008(14) 0.33964(14)
S1 S 0.87806(8) -0.04682(5) 0.17143(4)
S2 S 1.11282(9) -0.00118(6) 0.20720(5)
C25 C 0.0751(4) 0.5063(3) 0.0861(2)
H24 H 0.0231 0.4728 0.0792
C26 C 0.0323(6) 0.5822(4) 0.0728(3)
H25 H -0.0492 0.5996 0.0570
C27 C 0.1085(8) 0.6312(4) 0.0825(4)
H26 H 0.0798 0.6823 0.0727
C28 C 0.2267(7) 0.6057(3) 0.1066(3)
H27 H 0.2772 0.6396 0.1140
C29 C 0.2733(5) 0.5311(3) 0.1201(2)
H28 H 0.3548 0.5142 0.1358
C30 C 0.1946(3) 0.4814(2) 0.10947(18)
C31 C 0.1042(3) 0.46724(19) 0.30732(18)
H29 H 0.0716 0.4897 0.2629
C32 C 0.1166(4) 0.5105(2) 0.3489(2)
H30 H 0.0936 0.5627 0.3324
C33 C 0.1632(4) 0.4761(2) 0.4151(2)
H31 H 0.1701 0.5054 0.4435
C34 C 0.1996(4) 0.3994(2) 0.43994(19)
H32 H 0.2324 0.3773 0.4844
C35 C 0.1873(3) 0.3550(2) 0.39835(16)
H33 H 0.2099 0.3028 0.4148
C36 C 0.1405(3) 0.39029(17) 0.33199(15)
C37 C 0.6491(4) 0.2535(2) 0.1601(2)
H34 H 0.5974 0.2621 0.1236
C38 C 0.7863(4) 0.2578(3) 0.1407(3)
H35 H 0.8251 0.2693 0.0911
C39 C 0.8660(4) 0.2455(2) 0.1928(3)
H36 H 0.9578 0.2489 0.1791
C40 C 0.8073(4) 0.2282(2) 0.2653(3)
H37 H 0.8596 0.2199 0.3014
C41 C 0.6708(4) 0.22293(19) 0.2854(2)
H38 H 0.6331 0.2100 0.3353
C42 C 0.5888(3) 0.23642(17) 0.23322(17)
C43 C 0.3745(3) 0.1958(2) 0.2144(2)
H39 H 0.2799 0.2087 0.2159
H40 H 0.4175 0.2083 0.1631
C44 C 0.3995(4) 0.1122(2) 0.2584(2)
H41 H 0.4917 0.0958 0.2466
H42 H 0.3424 0.0801 0.2490
C45 C 0.3656(4) 0.1097(2) 0.3377(2)
H43 H 0.2721 0.1005 0.3569
H44 H 0.4184 0.0694 0.3691
C46 C 0.3975(3) 0.18633(19) 0.3351(2)
C47 C 0.4357(3) 0.23813(17) 0.25349(16)
C48 C 0.3890(3) 0.32216(17) 0.24170(16)
H45 H 0.3844 0.3305 0.2881
H46 H 0.4563 0.3547 0.2057
N2 N 0.2588(2) 0.34753(14) 0.21625(12)
O6 O 0.1637(3) 0.34790(16) 0.10622(13)
O7 O 0.3913(2) 0.38643(16) 0.09207(12)
O8 O 0.0135(2) 0.36871(13) 0.23931(12)
O9 O 0.1207(2) 0.25703(12) 0.32569(12)
O10 O 0.3947(2) 0.20647(14) 0.38754(13)
S3 S 0.11990(8) 0.33514(5) 0.27954(4)
S4 S 0.25417(9) 0.38632(6) 0.12529(4)
C49 C 0.8056(4) 0.3117(2) 0.63096(19)
H47 H 0.7535 0.3284 0.5937
C50 C 0.9414(4) 0.3148(2) 0.6121(2)
H48 H 0.9801 0.3340 0.5624
C51 C 1.0209(4) 0.2901(2) 0.6658(3)
H49 H 1.1129 0.2925 0.6524
C52 C 0.9652(4) 0.2623(2) 0.7383(3)
H50 H 1.0189 0.2450 0.7747
C53 C 0.8269(4) 0.2595(2) 0.7581(2)
H51 H 0.7896 0.2409 0.8081
C54 C 0.7443(3) 0.28368(16) 0.70529(17)
C55 C 0.5931(3) 0.28493(16) 0.72347(15)
C56 C 0.5315(3) 0.24886(18) 0.67808(19)
H52 H 0.4375 0.2634 0.6788
H53 H 0.5767 0.2644 0.6270
C57 C 0.5526(4) 0.16287(19) 0.7178(2)
H54 H 0.4947 0.1341 0.7048
H55 H 0.6444 0.1459 0.7059
C58 C 0.5169(4) 0.1544(2) 0.7988(2)
H56 H 0.4227 0.1462 0.8163
H57 H 0.5672 0.1114 0.8287
C59 C 0.5517(3) 0.22784(19) 0.8032(2)
C60 C 0.5429(3) 0.36699(16) 0.71826(15)
H58 H 0.5393 0.3712 0.7664
H59 H 0.6082 0.4019 0.6835
C61 C 0.3569(3) 0.53421(17) 0.59578(14)
C62 C 0.4504(3) 0.57880(19) 0.60093(19)
H60 H 0.5342 0.5575 0.6105
C63 C 0.4197(4) 0.6544(2) 0.5920(2)
H61 H 0.4823 0.6850 0.5947
C64 C 0.2928(5) 0.6844(2) 0.5787(2)
H62 H 0.2701 0.7353 0.5735
C65 C 0.2022(4) 0.6408(2) 0.57314(19)
H63 H 0.1184 0.6621 0.5635
C66 C 0.2331(3) 0.5643(2) 0.58178(16)
H64 H 0.1707 0.5342 0.5781
C67 C 0.2582(3) 0.5126(2) 0.78894(18)
H65 H 0.2210 0.5347 0.7459
C68 C 0.2729(4) 0.5558(2) 0.8299(2)
H66 H 0.2442 0.6072 0.8155
C69 C 0.3309(4) 0.5224(3) 0.8933(2)
H67 H 0.3424 0.5520 0.9206
C70 C 0.3714(4) 0.4464(3) 0.91601(19)
H68 H 0.4097 0.4247 0.9587
C71 C 0.3554(3) 0.4014(2) 0.87540(17)
H69 H 0.3819 0.3497 0.8906
C72 C 0.2991(3) 0.43560(18) 0.81194(15)
N3 N 0.4114(2) 0.39317(13) 0.69513(12)
O11 O 0.3067(3) 0.40761(13) 0.58391(12)
O12 O 0.5407(2) 0.43555(13) 0.57028(11)
O13 O 0.1662(2) 0.41438(13) 0.72214(12)
O14 O 0.2784(2) 0.30245(12) 0.80563(12)
O15 O 0.5486(3) 0.24222(15) 0.85860(13)
S5 S 0.40543(8) 0.43919(4) 0.60415(4)
S6 S 0.27512(8) 0.38106(4) 0.75969(4)
loop_
_geom_bond_atom_site_label_1
_geom_bond_atom_site_label_2
_geom_bond_site_symmetry_1
_geom_bond_site_symmetry_2
C1 H1 1_555 1_555
C2 C1 1_555 1_555
H2 C2 1_555 1_555
C3 C2 1_555 1_555
H3 C3 1_555 1_555
C4 C3 1_555 1_555
H4 C4 1_555 1_555
C5 C4 1_555 1_555
H5 C5 1_555 1_555
C6 C1 1_555 1_555
C7 H6 1_555 1_555
C8 C7 1_555 1_555
H7 C8 1_555 1_555
C9 C8 1_555 1_555
H8 C9 1_555 1_555
C10 C9 1_555 1_555
H9 C10 1_555 1_555
C11 C10 1_555 1_555
H10 C11 1_555 1_555
C12 C7 1_555 1_555
C13 H11 1_555 1_555
H12 C13 1_555 1_555
C14 C13 1_555 1_555
C15 C14 1_555 1_555
H13 C15 1_555 1_555
H14 C15 1_555 1_555
C16 C15 1_555 1_555
H15 C16 1_555 1_555
H16 C16 1_555 1_555
C17 C16 1_555 1_555
H17 C17 1_555 1_555
H18 C17 1_555 1_555
C18 C14 1_555 1_555
C19 C14 1_555 1_555
C20 C19 1_555 1_555
H19 C20 1_555 1_555
C21 C20 1_555 1_555
H20 C21 1_555 1_555
C22 C21 1_555 1_555
H21 C22 1_555 1_555
C23 C22 1_555 1_555
H22 C23 1_555 1_555
C24 C19 1_555 1_555
H23 C24 1_555 1_555
N1 C13 1_555 1_555
O1 S1 1_555 1_555
O2 S1 1_555 1_555
O3 S2 1_555 1_555
O4 S2 1_555 1_555
O5 C18 1_555 1_555
S1 C6 1_555 1_555
S2 C12 1_555 1_555
C25 H24 1_555 1_555
C26 C25 1_555 1_555
H25 C26 1_555 1_555
C27 C26 1_555 1_555
H26 C27 1_555 1_555
C28 C27 1_555 1_555
H27 C28 1_555 1_555
C29 C28 1_555 1_555
H28 C29 1_555 1_555
C30 C25 1_555 1_555
C31 H29 1_555 1_555
C32 C31 1_555 1_555
H30 C32 1_555 1_555
C33 C32 1_555 1_555
H31 C33 1_555 1_555
C34 C33 1_555 1_555
H32 C34 1_555 1_555
C35 C34 1_555 1_555
H33 C35 1_555 1_555
C36 C31 1_555 1_555
C37 H34 1_555 1_555
C38 C37 1_555 1_555
H35 C38 1_555 1_555
C39 C38 1_555 1_555
H36 C39 1_555 1_555
C40 C39 1_555 1_555
H37 C40 1_555 1_555
C41 C40 1_555 1_555
H38 C41 1_555 1_555
C42 C37 1_555 1_555
C43 H39 1_555 1_555
H40 C43 1_555 1_555
C44 C43 1_555 1_555
H41 C44 1_555 1_555
H42 C44 1_555 1_555
C45 C44 1_555 1_555
H43 C45 1_555 1_555
H44 C45 1_555 1_555
C46 C45 1_555 1_555
C47 C42 1_555 1_555
C48 C47 1_555 1_555
H45 C48 1_555 1_555
H46 C48 1_555 1_555
N2 C48 1_555 1_555
O6 S4 1_555 1_555
O7 S4 1_555 1_555
O8 S3 1_555 1_555
O9 S3 1_555 1_555
O10 C46 1_555 1_555
S3 C36 1_555 1_555
S4 C30 1_555 1_555
C49 H47 1_555 1_555
C50 C49 1_555 1_555
H48 C50 1_555 1_555
C51 C50 1_555 1_555
H49 C51 1_555 1_555
C52 C51 1_555 1_555
H50 C52 1_555 1_555
C53 C52 1_555 1_555
H51 C53 1_555 1_555
C54 C49 1_555 1_555
C55 C54 1_555 1_555
C56 C55 1_555 1_555
H52 C56 1_555 1_555
H53 C56 1_555 1_555
C57 C56 1_555 1_555
H54 C57 1_555 1_555
H55 C57 1_555 1_555
C58 C57 1_555 1_555
H56 C58 1_555 1_555
H57 C58 1_555 1_555
C59 C55 1_555 1_555
C60 C55 1_555 1_555
H58 C60 1_555 1_555
H59 C60 1_555 1_555
C61 C62 1_555 1_555
C62 H60 1_555 1_555
C63 C62 1_555 1_555
H61 C63 1_555 1_555
C64 C63 1_555 1_555
H62 C64 1_555 1_555
C65 C64 1_555 1_555
H63 C65 1_555 1_555
C66 C61 1_555 1_555
H64 C66 1_555 1_555
C67 H65 1_555 1_555
C68 C67 1_555 1_555
H66 C68 1_555 1_555
C69 C68 1_555 1_555
H67 C69 1_555 1_555
C70 C69 1_555 1_555
H68 C70 1_555 1_555
C71 C70 1_555 1_555
H69 C71 1_555 1_555
C72 C67 1_555 1_555
N3 C60 1_555 1_555
O11 S5 1_555 1_555
O12 S5 1_555 1_555
O13 S6 1_555 1_555
O14 S6 1_555 1_555
O15 C59 1_555 1_555
S5 C61 1_555 1_555
S6 C72 1_555 1_555
C5 C6 1_555 1_555
C11 C12 1_555 1_555
C17 C18 1_555 1_555
C23 C24 1_555 1_555
N1 S1 1_555 1_555
N1 S2 1_555 1_555
C29 C30 1_555 1_555
C35 C36 1_555 1_555
C41 C42 1_555 1_555
C43 C47 1_555 1_555
C46 C47 1_555 1_555
N2 S3 1_555 1_555
N2 S4 1_555 1_555
C53 C54 1_555 1_555
C58 C59 1_555 1_555
C65 C66 1_555 1_555
C71 C72 1_555 1_555
N3 S5 1_555 1_555
N3 S6 1_555 1_555

#END
