
#######################################################################
#
#                 Cambridge Crystallographic Data Centre
#                                CCDC 
#
#######################################################################
#
# If this CIF has been generated from an entry in the Cambridge 
# Structural Database, then it will include bibliographic, chemical, 
# crystal, experimental, refinement or atomic coordinate data resulting 
# from the CCDC's data processing and validation procedures.
#
#######################################################################

data_LAQTAB02
_chemical_formula_moiety         'C24 H23 N1 O5 S2'
_chemical_name_systematic        
N-[(2-oxo-1-phenylcyclopentyl)methyl]-N-(phenylsulfonyl)benzenesulfonamide
_symmetry_cell_setting           triclinic
_symmetry_space_group_name_H-M   'P -1'
_symmetry_Int_Tables_number      2
_space_group_name_Hall           '-P 1'
loop_
_symmetry_equiv_pos_site_id
_symmetry_equiv_pos_as_xyz
1 x,y,z
2 -x,-y,-z
_cell_length_a                   10.251
_cell_length_b                   18.766
_cell_length_c                   19.616
_cell_angle_alpha                68.78
_cell_angle_beta                 78.76
_cell_angle_gamma                83.42
_cell_volume                     3446.2
_exptl_crystal_colour            colorless
_exptl_crystal_description       block
_cell_formula_units_Z            6
loop_
_atom_site_label
_atom_site_type_symbol
_atom_site_fract_x
_atom_site_fract_y
_atom_site_fract_z
C1 C 0.7449(3) 0.28373(16) 0.20520(16)
C2 C 0.5321(3) 0.24900(17) 0.17783(19)
H1 H 0.5783 0.2645 0.1270
H2 H 0.4382 0.2636 0.1780
C3 C 0.3556(3) 0.4014(2) 0.37557(17)
H3 H 0.3822 0.3497 0.3907
C4 C 0.2327(3) 0.5643(2) 0.08174(16)
H4 H 0.1703 0.5342 0.0781
C5 C 0.2587(3) 0.51275(19) 0.28905(18)
H5 H 0.2205 0.5349 0.2464
C6 C 0.4508(3) 0.57911(19) 0.1009(2)
H6 H 0.5352 0.5584 0.1102
C7 C 0.8065(3) 0.3116(2) 0.13114(19)
H7 H 0.7544 0.3283 0.0939
C8 C 0.9415(4) 0.3147(2) 0.1125(2)
H8 H 0.9798 0.3339 0.0627
C9 C 0.8266(3) 0.25935(19) 0.2584(2)
H9 H 0.7891 0.2407 0.3084
C10 C 0.2756(4) 0.5558(2) 0.3299(2)
H10 H 0.2501 0.6077 0.3147
C11 C 0.5514(3) 0.22779(18) 0.30305(19)
C12 C 0.3714(4) 0.4463(3) 0.41631(19)
H11 H 0.4097 0.4248 0.4590
C13 C 0.2014(4) 0.6409(2) 0.0731(2)
H12 H 0.1174 0.6623 0.0637
C14 C 1.0213(4) 0.2902(2) 0.1654(3)
H13 H 1.1133 0.2925 0.1520
C15 C 0.2944(5) 0.6847(2) 0.0785(2)
H14 H 0.2731 0.7359 0.0728
C16 C 0.9646(4) 0.2623(2) 0.2383(3)
H15 H 1.0183 0.2451 0.2748
C17 C 0.5533(4) 0.16285(19) 0.2178(2)
H16 H 0.4952 0.1341 0.2048
H17 H 0.6450 0.1458 0.2057
C18 C 0.3306(4) 0.5219(3) 0.3935(2)
H18 H 0.3402 0.5512 0.4215
C19 C 0.5183(4) 0.1539(2) 0.2985(2)
H19 H 0.4244 0.1449 0.3164
H20 H 0.5699 0.1113 0.3280
C20 C 0.4180(5) 0.6541(2) 0.0921(3)
H21 H 0.4803 0.6845 0.0954
C21 C 0.5917(3) 0.28459(15) 0.22348(15)
C22 C 0.2992(3) 0.43581(18) 0.31203(14)
C23 C 0.5427(3) 0.36712(16) 0.21839(15)
H22 H 0.5392 0.3713 0.2666
H23 H 0.6083 0.4018 0.1837
C24 C 0.3579(3) 0.53389(16) 0.09578(14)
N1 N 0.4114(2) 0.39320(13) 0.19524(12)
O1 O 0.3063(3) 0.40753(13) 0.08391(12)
O2 O 0.5412(2) 0.43540(13) 0.07032(11)
O3 O 0.16586(19) 0.41454(13) 0.22200(12)
O4 O 0.2778(2) 0.30233(12) 0.30565(12)
O5 O 0.5484(3) 0.24181(15) 0.35831(13)
S1 S 0.40576(7) 0.43920(4) 0.10412(4)
S2 S 0.27504(7) 0.38111(4) 0.25968(4)
C25 C 0.8596(3) 0.61004(16) 0.16787(15)
C26 C 0.8964(3) 0.53238(19) 0.19264(19)
H24 H 0.9292 0.5098 0.2370
C27 C 0.8050(3) 0.5185(2) 0.39002(18)
C28 C 0.6256(3) 0.80411(19) 0.2858(2)
H25 H 0.7203 0.7913 0.2845
H26 H 0.5823 0.7917 0.3370
C29 C 0.8005(3) 0.6009(2) 0.05980(18)
H27 H 0.7690 0.6233 0.0150
C30 C 0.8356(4) 0.5238(2) 0.0845(2)
H28 H 0.8269 0.4945 0.0564
C31 C 0.8838(4) 0.4894(2) 0.1507(2)
H29 H 0.9075 0.4374 0.1668
C32 C 0.3298(3) 0.77698(18) 0.2142(2)
H30 H 0.3674 0.7892 0.1645
C33 C 0.1921(3) 0.7720(2) 0.2350(3)
H31 H 0.1390 0.7809 0.1990
C34 C 0.3507(4) 0.7465(2) 0.3397(2)
H32 H 0.4028 0.7375 0.3761
C35 C 0.6021(3) 0.81319(19) 0.16473(19)
C36 C 0.6002(4) 0.8875(2) 0.2416(2)
H33 H 0.6573 0.9196 0.2509
H34 H 0.5080 0.9037 0.2536
C37 C 0.1355(4) 0.7543(2) 0.3065(3)
H35 H 0.0438 0.7502 0.3200
C38 C 0.7276(5) 0.4689(3) 0.3796(3)
H36 H 0.6467 0.4861 0.3631
C39 C 0.9257(4) 0.4935(3) 0.4138(2)
H37 H 0.9777 0.5268 0.4210
C40 C 0.2136(4) 0.7421(3) 0.3594(3)
H38 H 0.1744 0.7310 0.4088
C41 C 0.6332(4) 0.8907(2) 0.1617(2)
H39 H 0.5792 0.9306 0.1308
H40 H 0.7264 0.9005 0.1420
C42 C 0.9675(5) 0.4177(4) 0.4267(3)
H41 H 1.0489 0.4001 0.4424
C43 C 0.8915(7) 0.3686(3) 0.4168(4)
H42 H 0.9208 0.3178 0.4256
C44 C 0.7717(7) 0.3945(3) 0.3938(4)
H43 H 0.7192 0.3606 0.3878
C45 C 0.4107(3) 0.76407(17) 0.26623(17)
C46 C 0.5642(3) 0.76189(17) 0.24606(16)
C47 C 0.6117(3) 0.67797(16) 0.25814(15)
H44 H 0.5443 0.6455 0.2940
H45 H 0.6165 0.6695 0.2118
N2 N 0.7409(2) 0.65240(14) 0.28372(13)
C48 C 0.8119(3) 0.64502(19) 0.10152(16)
H46 H 0.7880 0.6970 0.0853
O6 O 0.8795(2) 0.74315(12) 0.17410(12)
O7 O 0.98691(19) 0.63124(13) 0.26040(12)
O8 O 0.8370(3) 0.65203(16) 0.39346(14)
O9 O 0.6092(2) 0.61341(16) 0.40776(12)
O10 O 0.6057(2) 0.79360(14) 0.11232(13)
S3 S 0.74583(8) 0.61355(5) 0.37468(4)
S4 S 0.88033(7) 0.66477(4) 0.22037(4)
C49 C 0.2153(3) 0.97183(17) 0.38558(16)
C50 C 0.1893(3) 0.98188(17) 0.09700(16)
C51 C 0.3513(3) 0.96439(19) 0.36410(19)
H47 H 0.3930 0.9960 0.3183
C52 C 0.1416(3) 0.97422(17) 0.22995(15)
H48 H 0.1012 0.9297 0.2304
H49 H 0.2254 0.9568 0.2480
C53 C -0.1627(3) 0.93541(19) 0.38261(17)
C54 C 0.0727(3) 1.09754(18) 0.12343(17)
H50 H -0.0018 1.0827 0.1085
H51 H 0.0393 1.1177 0.1629
C55 C 0.3018(3) 1.06978(19) 0.13471(17)
C56 C 0.1722(3) 1.02964(17) 0.14815(15)
C57 C 0.1508(4) 0.9251(2) 0.45365(19)
H52 H 0.0592 0.9309 0.4675
C58 C 0.1541(4) 1.1564(2) 0.05753(18)
H53 H 0.1123 1.2074 0.0479
H54 H 0.1648 1.1434 0.0131
C59 C 0.0788(4) 0.9471(2) 0.0940(2)
H55 H -0.0024 0.9522 0.1231
C60 C 0.3075(4) 0.9712(2) 0.0540(2)
H56 H 0.3837 0.9924 0.0561
C61 C -0.2271(4) 0.9611(2) 0.4376(2)
H57 H -0.2432 1.0133 0.4282
C62 C -0.1423(4) 0.8591(2) 0.3937(2)
H58 H -0.1015 0.8423 0.3552
C63 C 0.3157(5) 0.9296(2) 0.0077(2)
H59 H 0.3967 0.9239 -0.0214
C64 C 0.2068(5) 0.8967(2) 0.0040(2)
H60 H 0.2121 0.8691 -0.0275
C65 C 0.2863(4) 1.1511(2) 0.0828(2)
H61 H 0.2863 1.1868 0.1082
H62 H 0.3583 1.1623 0.0408
C66 C 0.2253(6) 0.8701(3) 0.4999(2)
H63 H 0.1841 0.8380 0.5456
C67 C 0.0885(5) 0.9053(2) 0.0483(2)
H64 H 0.0136 0.8823 0.0472
C68 C -0.2469(5) 0.8338(3) 0.5199(2)
H65 H -0.2750 0.7991 0.5670
C69 C -0.2681(5) 0.9090(3) 0.5071(2)
H66 H -0.3106 0.9260 0.5452
C70 C 0.3596(6) 0.8622(3) 0.4792(3)
H67 H 0.4087 0.8246 0.5111
C71 C 0.4240(4) 0.9090(3) 0.4120(2)
H68 H 0.5158 0.9033 0.3990
C72 C -0.1846(5) 0.8070(3) 0.4647(3)
H69 H -0.1706 0.7547 0.4744
N3 N 0.0535(2) 1.00605(15) 0.28232(13)
O11 O 0.0164(2) 1.07150(14) 0.37500(13)
O12 O 0.2126(2) 1.09953(12) 0.27508(12)
O13 O -0.1749(2) 1.07381(16) 0.28836(18)
O14 O -0.1275(3) 0.9672(2) 0.24081(14)
O15 O 0.3999(2) 1.03986(14) 0.16051(14)
S5 S 0.12210(8) 1.04667(4) 0.32871(4)
S6 S -0.11275(8) 1.00114(6) 0.29282(5)
loop_
_geom_bond_atom_site_label_1
_geom_bond_atom_site_label_2
_geom_bond_site_symmetry_1
_geom_bond_site_symmetry_2
C1 C7 1_555 1_555
C2 H1 1_555 1_555
H2 C2 1_555 1_555
C3 H3 1_555 1_555
C4 H4 1_555 1_555
C5 H5 1_555 1_555
C6 H6 1_555 1_555
C7 H7 1_555 1_555
C8 C7 1_555 1_555
H8 C8 1_555 1_555
C9 C1 1_555 1_555
H9 C9 1_555 1_555
C10 C5 1_555 1_555
H10 C10 1_555 1_555
C11 C19 1_555 1_555
C12 C3 1_555 1_555
H11 C12 1_555 1_555
C13 C4 1_555 1_555
H12 C13 1_555 1_555
C14 C8 1_555 1_555
H13 C14 1_555 1_555
C15 C13 1_555 1_555
H14 C15 1_555 1_555
C16 C9 1_555 1_555
H15 C16 1_555 1_555
C17 C2 1_555 1_555
H16 C17 1_555 1_555
H17 C17 1_555 1_555
C18 C10 1_555 1_555
H18 C18 1_555 1_555
C19 C17 1_555 1_555
H19 C19 1_555 1_555
H20 C19 1_555 1_555
C20 C6 1_555 1_555
H21 C20 1_555 1_555
C21 C1 1_555 1_555
C22 C3 1_555 1_555
C23 C21 1_555 1_555
H22 C23 1_555 1_555
H23 C23 1_555 1_555
C24 C4 1_555 1_555
N1 C23 1_555 1_555
O1 S1 1_555 1_555
O2 S1 1_555 1_555
O3 S2 1_555 1_555
O4 S2 1_555 1_555
O5 C11 1_555 1_555
S1 C24 1_555 1_555
S2 C22 1_555 1_555
C25 C26 1_555 1_555
C26 H24 1_555 1_555
C27 C38 1_555 1_555
C28 H25 1_555 1_555
H26 C28 1_555 1_555
C29 H27 1_555 1_555
C30 C29 1_555 1_555
H28 C30 1_555 1_555
C31 C26 1_555 1_555
H29 C31 1_555 1_555
C32 H30 1_555 1_555
C33 C32 1_555 1_555
H31 C33 1_555 1_555
C34 H32 1_555 1_555
C35 C41 1_555 1_555
C36 C28 1_555 1_555
H33 C36 1_555 1_555
H34 C36 1_555 1_555
C37 C33 1_555 1_555
H35 C37 1_555 1_555
C38 H36 1_555 1_555
C39 C27 1_555 1_555
H37 C39 1_555 1_555
C40 C34 1_555 1_555
H38 C40 1_555 1_555
C41 C36 1_555 1_555
H39 C41 1_555 1_555
H40 C41 1_555 1_555
C42 C39 1_555 1_555
H41 C42 1_555 1_555
C43 C42 1_555 1_555
H42 C43 1_555 1_555
C44 C38 1_555 1_555
H43 C44 1_555 1_555
C45 C32 1_555 1_555
C46 C28 1_555 1_555
C47 C46 1_555 1_555
H44 C47 1_555 1_555
H45 C47 1_555 1_555
N2 C47 1_555 1_555
C48 C25 1_555 1_555
H46 C48 1_555 1_555
O6 S4 1_555 1_555
O7 S4 1_555 1_555
O8 S3 1_555 1_555
O9 S3 1_555 1_555
O10 C35 1_555 1_555
S3 C27 1_555 1_555
S4 C25 1_555 1_555
C49 C51 1_555 1_555
C50 C56 1_555 1_555
C51 H47 1_555 1_555
C52 H48 1_555 1_555
H49 C52 1_555 1_555
C53 C61 1_555 1_555
C54 H50 1_555 1_555
H51 C54 1_555 1_555
C55 C56 1_555 1_555
C56 C52 1_555 1_555
C57 C49 1_555 1_555
H52 C57 1_555 1_555
C58 C54 1_555 1_555
H53 C58 1_555 1_555
H54 C58 1_555 1_555
C59 C50 1_555 1_555
H55 C59 1_555 1_555
C60 C50 1_555 1_555
H56 C60 1_555 1_555
C61 H57 1_555 1_555
C62 C53 1_555 1_555
H58 C62 1_555 1_555
C63 C60 1_555 1_555
H59 C63 1_555 1_555
C64 C63 1_555 1_555
H60 C64 1_555 1_555
C65 C55 1_555 1_555
H61 C65 1_555 1_555
H62 C65 1_555 1_555
C66 C57 1_555 1_555
H63 C66 1_555 1_555
C67 C59 1_555 1_555
H64 C67 1_555 1_555
C68 H65 1_555 1_555
C69 C61 1_555 1_555
H66 C69 1_555 1_555
C70 C66 1_555 1_555
H67 C70 1_555 1_555
C71 C51 1_555 1_555
H68 C71 1_555 1_555
C72 C62 1_555 1_555
H69 C72 1_555 1_555
N3 C52 1_555 1_555
O11 S5 1_555 1_555
O12 S5 1_555 1_555
O13 S6 1_555 1_555
O14 S6 1_555 1_555
O15 C55 1_555 1_555
S5 C49 1_555 1_555
S6 C53 1_555 1_555
C2 C21 1_555 1_555
C5 C22 1_555 1_555
C6 C24 1_555 1_555
C11 C21 1_555 1_555
C12 C18 1_555 1_555
C14 C16 1_555 1_555
C15 C20 1_555 1_555
N1 S1 1_555 1_555
N1 S2 1_555 1_555
C29 C48 1_555 1_555
C30 C31 1_555 1_555
C34 C45 1_555 1_555
C35 C46 1_555 1_555
C37 C40 1_555 1_555
C43 C44 1_555 1_555
C45 C46 1_555 1_555
N2 S3 1_555 1_555
N2 S4 1_555 1_555
C54 C56 1_555 1_555
C58 C65 1_555 1_555
C64 C67 1_555 1_555
C68 C69 1_555 1_555
C68 C72 1_555 1_555
C70 C71 1_555 1_555
N3 S5 1_555 1_555
N3 S6 1_555 1_555

#END
