
#######################################################################
#
#                 Cambridge Crystallographic Data Centre
#                                CCDC 
#
#######################################################################
#
# If this CIF has been generated from an entry in the Cambridge 
# Structural Database, then it will include bibliographic, chemical, 
# crystal, experimental, refinement or atomic coordinate data resulting 
# from the CCDC's data processing and validation procedures.
#
#######################################################################

data_LAQTAZ
_chemical_formula_moiety         'C22 H18 N2 O5'
_chemical_name_systematic        
3-((E)-1,2-bis(Methoxycarbonyl)vinyl)-2-((E)-styryl)quinazolin-4(3H)-one
_symmetry_cell_setting           monoclinic
_symmetry_space_group_name_H-M   'P 21/n'
_symmetry_Int_Tables_number      14
_space_group_name_Hall           '-P 2yn'
loop_
_symmetry_equiv_pos_site_id
_symmetry_equiv_pos_as_xyz
1 x,y,z
2 1/2-x,1/2+y,1/2-z
3 -x,-y,-z
4 1/2+x,1/2-y,1/2+z
_cell_length_a                   11.4490(10)
_cell_length_b                   14.098(2)
_cell_length_c                   12.6940(10)
_cell_angle_alpha                90.00
_cell_angle_beta                 105.939(7)
_cell_angle_gamma                90.00
_cell_volume                     1970.14
_exptl_crystal_colour            colorless
_exptl_crystal_description       prism
_chemical_melting_point          '189-190 deg.C'
_cell_formula_units_Z            4
_exptl_crystal_recrystallization_method 'ethyl acetate'
loop_
_atom_site_label
_atom_site_type_symbol
_atom_site_fract_x
_atom_site_fract_y
_atom_site_fract_z
N1 N 0.0189(3) 0.1092(2) 0.1262(3)
N2 N 0.1280(3) 0.1344(2) -0.0039(2)
O1 O 0.3334(2) 0.1389(2) 0.0393(2)
O2 O 0.1411(3) 0.3179(2) -0.0793(3)
O3 O 0.2015(3) 0.2605(2) -0.2195(2)
O4 O 0.1484(3) 0.0559(2) -0.3550(2)
O5 O -0.0033(3) 0.1537(2) -0.3541(2)
C1 C 0.0202(3) 0.1257(3) 0.0272(3)
C2 C 0.2435(3) 0.1304(3) 0.0726(3)
C3 C 0.2413(3) 0.1141(3) 0.1838(3)
C4 C 0.3489(4) 0.1087(3) 0.2677(3)
C5 C 0.3453(5) 0.0928(4) 0.3729(4)
C6 C 0.2342(5) 0.0816(4) 0.3963(4)
C7 C 0.1292(4) 0.0875(3) 0.3154(3)
C8 C 0.1290(3) 0.1031(3) 0.2073(3)
C9 C -0.0938(4) 0.1354(3) -0.0587(4)
C10 C -0.2019(3) 0.1158(3) -0.0485(3)
C11 C -0.3176(3) 0.1232(3) -0.1321(3)
C12 C -0.4243(4) 0.1063(4) -0.1037(4)
C13 C -0.5343(4) 0.1131(4) -0.1822(5)
C14 C -0.5412(5) 0.1350(4) -0.2872(5)
C15 C -0.4363(5) 0.1503(3) -0.3182(4)
C16 C -0.3265(4) 0.1448(3) -0.2397(4)
C17 C 0.1282(3) 0.1534(3) -0.1139(3)
C18 C 0.1577(3) 0.2538(3) -0.1352(3)
C19 C 0.1014(4) 0.0860(3) -0.1889(3)
C20 C 0.0874(3) 0.0971(3) -0.3076(3)
C21 C 0.2250(6) 0.3550(4) -0.2530(4)
H1 H 0.2848 0.3521 -0.2931
H2 H 0.2546 0.3942 -0.1893
H3 H 0.1512 0.3816 -0.2987
C22 C -0.0248(6) 0.1656(4) -0.4712(4)
H4 H -0.0820 0.2161 -0.4962
H5 H -0.0569 0.1078 -0.5078
H6 H 0.0502 0.1808 -0.4872
H7 H 0.425(3) 0.124(2) 0.238(3)
H8 H 0.414(4) 0.085(3) 0.432(3)
H9 H 0.228(3) 0.069(3) 0.469(3)
H10 H 0.044(3) 0.082(2) 0.325(3)
H11 H -0.090(3) 0.155(2) -0.126(3)
H12 H -0.205(3) 0.095(3) 0.025(3)
H13 H -0.421(3) 0.084(2) -0.029(3)
H14 H -0.598(4) 0.106(3) -0.158(3)
H15 H -0.619(4) 0.144(3) -0.348(3)
H16 H -0.442(3) 0.166(3) -0.395(3)
H17 H -0.257(3) 0.157(2) -0.260(2)
H18 H 0.082(3) 0.029(2) -0.168(3)
loop_
_geom_bond_atom_site_label_1
_geom_bond_atom_site_label_2
_geom_bond_site_symmetry_1
_geom_bond_site_symmetry_2
N1 C1 1_555 1_555
N2 C1 1_555 1_555
O1 C2 1_555 1_555
O2 C18 1_555 1_555
O3 C18 1_555 1_555
O4 C20 1_555 1_555
O5 C20 1_555 1_555
C1 C9 1_555 1_555
C2 N2 1_555 1_555
C3 C2 1_555 1_555
C4 C3 1_555 1_555
C5 C4 1_555 1_555
C6 C5 1_555 1_555
C7 C6 1_555 1_555
C8 N1 1_555 1_555
C9 C10 1_555 1_555
C10 C11 1_555 1_555
C11 C12 1_555 1_555
C12 C13 1_555 1_555
C13 C14 1_555 1_555
C14 C15 1_555 1_555
C15 C16 1_555 1_555
C16 C11 1_555 1_555
C17 N2 1_555 1_555
C18 C17 1_555 1_555
C19 C17 1_555 1_555
C20 C19 1_555 1_555
C21 O3 1_555 1_555
H1 C21 1_555 1_555
H2 C21 1_555 1_555
H3 C21 1_555 1_555
C22 O5 1_555 1_555
H4 C22 1_555 1_555
H5 C22 1_555 1_555
H6 C22 1_555 1_555
H7 C4 1_555 1_555
H8 C5 1_555 1_555
H9 C6 1_555 1_555
H10 C7 1_555 1_555
H11 C9 1_555 1_555
H12 C10 1_555 1_555
H13 C12 1_555 1_555
H14 C13 1_555 1_555
H15 C14 1_555 1_555
H16 C15 1_555 1_555
H17 C16 1_555 1_555
H18 C19 1_555 1_555
C3 C8 1_555 1_555
C7 C8 1_555 1_555

#END
