
#######################################################################
#
#                 Cambridge Crystallographic Data Centre
#                                CCDC 
#
#######################################################################
#
# If this CIF has been generated from an entry in the Cambridge 
# Structural Database, then it will include bibliographic, chemical, 
# crystal, experimental, refinement or atomic coordinate data resulting 
# from the CCDC's data processing and validation procedures.
#
#######################################################################

data_LAQVIK
_chemical_formula_moiety         'C19 H16 N2 O1'
_chemical_name_systematic        
2-[(E)-Phenyl(2-phenylhydrazin-1-ylidene)methyl]phenol
_symmetry_cell_setting           monoclinic
_symmetry_space_group_name_H-M   'P 21/c'
_symmetry_Int_Tables_number      14
_space_group_name_Hall           '-P 2ybc'
loop_
_symmetry_equiv_pos_site_id
_symmetry_equiv_pos_as_xyz
1 x,y,z
2 -x,1/2+y,1/2-z
3 -x,-y,-z
4 x,1/2-y,1/2+z
_cell_length_a                   9.6796(3)
_cell_length_b                   15.3312(5)
_cell_length_c                   10.3593(2)
_cell_angle_alpha                90
_cell_angle_beta                 108.149(2)
_cell_angle_gamma                90
_cell_volume                     1460.84
_exptl_crystal_colour            yellow
_exptl_crystal_description       slab
_cell_formula_units_Z            4
loop_
_atom_site_label
_atom_site_type_symbol
_atom_site_fract_x
_atom_site_fract_y
_atom_site_fract_z
O1 O 0.55543(11) 0.62061(7) 0.67432(9)
H1 H 0.5167(19) 0.6457(11) 0.5981(12)
N1 N 0.49781(12) 0.67646(7) 0.42953(11)
N2 N 0.42408(13) 0.73657(8) 0.33672(11)
H2 H 0.4722(16) 0.7602(10) 0.2854(14)
C1 C 0.68370(14) 0.57283(9) 0.51935(12)
C2 C 0.65661(15) 0.56890(9) 0.64615(13)
C3 C 0.73482(15) 0.51112(9) 0.74555(13)
H3 H 0.7182 0.5098 0.8312
C4 C 0.83577(16) 0.45602(9) 0.72145(14)
H4 H 0.8872 0.4163 0.7900
C5 C 0.86344(16) 0.45784(9) 0.59745(14)
H5 H 0.9333 0.4196 0.5808
C6 C 0.78782(15) 0.51608(9) 0.49900(13)
H6 H 0.8073 0.5176 0.4146
C7 C 0.60591(14) 0.63406(8) 0.41159(12)
C8 C 0.65557(15) 0.64475(9) 0.28938(13)
C9 C 0.57166(16) 0.61134(10) 0.16460(13)
H7 H 0.4805 0.5848 0.1559
C10 C 0.62186(17) 0.61703(10) 0.05272(14)
H8 H 0.5659 0.5929 -0.0319
C11 C 0.75214(18) 0.65735(10) 0.06393(14)
H9 H 0.7858 0.6608 -0.0128
C12 C 0.83445(17) 0.69288(10) 0.18688(15)
H10 H 0.9230 0.7221 0.1939
C13 C 0.78680(16) 0.68548(9) 0.29963(14)
H11 H 0.8444 0.7084 0.3845
C14 C 0.31426(15) 0.78382(9) 0.36540(12)
C15 C 0.26578(17) 0.86137(10) 0.29652(14)
H12 H 0.3084 0.8820 0.2312
C16 C 0.15586(17) 0.90856(11) 0.32279(15)
H13 H 0.1232 0.9613 0.2749
C17 C 0.09268(16) 0.87973(10) 0.41823(14)
H14 H 0.0173 0.9124 0.4362
C18 C 0.14125(15) 0.80271(10) 0.48685(14)
H15 H 0.0990 0.7827 0.5528
C19 C 0.25048(15) 0.75439(9) 0.46098(13)
H16 H 0.2820 0.7013 0.5082
loop_
_geom_bond_atom_site_label_1
_geom_bond_atom_site_label_2
_geom_bond_site_symmetry_1
_geom_bond_site_symmetry_2
O1 H1 1_555 1_555
N1 N2 1_555 1_555
N2 H2 1_555 1_555
C1 C2 1_555 1_555
C2 O1 1_555 1_555
C3 C2 1_555 1_555
H3 C3 1_555 1_555
C4 C3 1_555 1_555
H4 C4 1_555 1_555
C5 C4 1_555 1_555
H5 C5 1_555 1_555
C6 C1 1_555 1_555
H6 C6 1_555 1_555
C7 N1 1_555 1_555
C8 C7 1_555 1_555
C9 C8 1_555 1_555
H7 C9 1_555 1_555
C10 C9 1_555 1_555
H8 C10 1_555 1_555
C11 C10 1_555 1_555
H9 C11 1_555 1_555
C12 C11 1_555 1_555
H10 C12 1_555 1_555
C13 C8 1_555 1_555
H11 C13 1_555 1_555
C14 N2 1_555 1_555
C15 C14 1_555 1_555
H12 C15 1_555 1_555
C16 C15 1_555 1_555
H13 C16 1_555 1_555
C17 C16 1_555 1_555
H14 C17 1_555 1_555
C18 C17 1_555 1_555
H15 C18 1_555 1_555
C19 C14 1_555 1_555
H16 C19 1_555 1_555
C1 C7 1_555 1_555
C5 C6 1_555 1_555
C12 C13 1_555 1_555
C18 C19 1_555 1_555

#END
