
#######################################################################
#
#                 Cambridge Crystallographic Data Centre
#                                CCDC 
#
#######################################################################
#
# If this CIF has been generated from an entry in the Cambridge 
# Structural Database, then it will include bibliographic, chemical, 
# crystal, experimental, refinement or atomic coordinate data resulting 
# from the CCDC's data processing and validation procedures.
#
#######################################################################

data_LAQVAC
_chemical_formula_moiety         'C14 H13 N3 O4,H2 O1'
_chemical_name_systematic        
'2-((E)-1-[2-(2-Nitrophenyl)hydrazin-1-ylidene]ethyl)benzene-1,3-diol monohydrate'
_symmetry_cell_setting           monoclinic
_symmetry_space_group_name_H-M   'P 21/n'
_symmetry_Int_Tables_number      14
_space_group_name_Hall           '-P 2yn'
loop_
_symmetry_equiv_pos_site_id
_symmetry_equiv_pos_as_xyz
1 x,y,z
2 1/2-x,1/2+y,1/2-z
3 -x,-y,-z
4 1/2+x,1/2-y,1/2+z
_cell_length_a                   7.6448(6)
_cell_length_b                   21.405(2)
_cell_length_c                   8.5755(7)
_cell_angle_alpha                90
_cell_angle_beta                 106.976(5)
_cell_angle_gamma                90
_cell_volume                     1342.12
_exptl_crystal_colour            brown
_exptl_crystal_description       plate
_cell_formula_units_Z            4
_exptl_crystal_recrystallization_method methanol
loop_
_atom_site_label
_atom_site_type_symbol
_atom_site_fract_x
_atom_site_fract_y
_atom_site_fract_z
O1 O 0.6688(3) -0.09682(11) 0.3317(3)
H1 H 0.659(5) -0.0590(7) 0.356(5)
O2 O 1.1256(3) -0.07064(10) 0.8502(3)
H2 H 1.189(4) -0.0952(12) 0.921(3)
O3 O 0.6421(3) 0.18198(10) 0.5589(3)
O4 O 0.4717(3) 0.25227(10) 0.4047(3)
N1 N 0.7166(3) 0.00802(11) 0.4628(3)
N2 N 0.6577(3) 0.06852(12) 0.4550(3)
H3 H 0.702(4) 0.0956(11) 0.534(3)
N3 N 0.5292(3) 0.19801(13) 0.4289(3)
C1 C 0.8928(4) -0.07782(14) 0.5935(4)
C2 C 0.8060(4) -0.11805(15) 0.4603(4)
C3 C 0.8560(4) -0.17972(15) 0.4541(4)
H4 H 0.7969 -0.2048 0.3625
C4 C 0.9922(4) -0.20473(15) 0.5816(4)
H5 H 1.0262 -0.2473 0.5779
C5 C 1.0795(4) -0.16848(14) 0.7142(4)
H6 H 1.1721 -0.1863 0.8019
C6 C 1.0333(4) -0.10608(14) 0.7204(4)
C7 C 0.8350(4) -0.01181(14) 0.5962(3)
C8 C 0.9016(4) 0.03103(14) 0.7387(4)
H7 H 0.9969 0.0584 0.7212
H8 H 0.9522 0.0063 0.8380
H9 H 0.7996 0.0564 0.7506
C9 C 0.5300(4) 0.09005(14) 0.3180(3)
C10 C 0.4639(4) 0.15195(14) 0.3020(3)
C11 C 0.3303(4) 0.17195(15) 0.1615(4)
H10 H 0.2881 0.2139 0.1538
C12 C 0.2596(4) 0.13127(15) 0.0345(4)
H11 H 0.1681 0.1446 -0.0605
C13 C 0.3240(4) 0.07063(15) 0.0477(4)
H12 H 0.2763 0.0424 -0.0399
C14 C 0.4557(4) 0.05009(15) 0.1848(4)
H13 H 0.4973 0.0081 0.1895
O5 O 0.6617(3) 0.14329(12) 0.9035(3)
H14 H 0.560(3) 0.1348(17) 0.836(3)
H15 H 0.714(4) 0.1722(13) 0.867(4)
loop_
_geom_bond_atom_site_label_1
_geom_bond_atom_site_label_2
_geom_bond_site_symmetry_1
_geom_bond_site_symmetry_2
O1 H1 1_555 1_555
O2 H2 1_555 1_555
O3 N3 1_555 1_555
O4 N3 1_555 1_555
N1 N2 1_555 1_555
N2 H3 1_555 1_555
N3 C10 1_555 1_555
C1 C2 1_555 1_555
C2 O1 1_555 1_555
C3 C2 1_555 1_555
H4 C3 1_555 1_555
C4 C3 1_555 1_555
H5 C4 1_555 1_555
C5 C4 1_555 1_555
H6 C5 1_555 1_555
C6 O2 1_555 1_555
C7 N1 1_555 1_555
C8 C7 1_555 1_555
H7 C8 1_555 1_555
H8 C8 1_555 1_555
H9 C8 1_555 1_555
C9 N2 1_555 1_555
C10 C9 1_555 1_555
C11 C10 1_555 1_555
H10 C11 1_555 1_555
C12 C11 1_555 1_555
H11 C12 1_555 1_555
C13 C12 1_555 1_555
H12 C13 1_555 1_555
C14 C9 1_555 1_555
H13 C14 1_555 1_555
O5 H14 1_555 1_555
H15 O5 1_555 1_555
C1 C6 1_555 1_555
C1 C7 1_555 1_555
C5 C6 1_555 1_555
C13 C14 1_555 1_555

#END
