
#######################################################################
#
#                 Cambridge Crystallographic Data Centre
#                                CCDC 
#
#######################################################################
#
# If this CIF has been generated from an entry in the Cambridge 
# Structural Database, then it will include bibliographic, chemical, 
# crystal, experimental, refinement or atomic coordinate data resulting 
# from the CCDC's data processing and validation procedures.
#
#######################################################################

data_LAQVEG
_chemical_formula_moiety         'C11 H17 N1 O2 S1'
_chemical_name_systematic        (R)-N-(3-Methoxyphenyl)-t-butanesulfinamide
_symmetry_cell_setting           orthorhombic
_symmetry_space_group_name_H-M   'P 21 21 21'
_symmetry_Int_Tables_number      19
_space_group_name_Hall           'P 2ac 2ab'
loop_
_symmetry_equiv_pos_site_id
_symmetry_equiv_pos_as_xyz
1 x,y,z
2 1/2-x,-y,1/2+z
3 1/2+x,1/2-y,-z
4 -x,1/2+y,1/2-z
_cell_length_a                   7.4418(9)
_cell_length_b                   9.7027(12)
_cell_length_c                   16.862(2)
_cell_angle_alpha                90
_cell_angle_beta                 90
_cell_angle_gamma                90
_cell_volume                     1217.53
_exptl_crystal_colour            colorless
_exptl_crystal_description       block
_chemical_melting_point          '375 K'
_cell_formula_units_Z            4
loop_
_atom_site_label
_atom_site_type_symbol
_atom_site_fract_x
_atom_site_fract_y
_atom_site_fract_z
S1 S -0.84124(9) -0.41552(6) -0.07783(3)
O1 O -0.6725(4) 0.18196(19) -0.18439(11)
O2 O -1.0171(2) -0.39294(19) -0.03812(10)
N1 N -0.7259(3) -0.2699(2) -0.08452(13)
C1 C -0.7230(3) 0.0498(3) -0.20153(15)
C2 C -0.7075(3) -0.0421(3) -0.13905(15)
C3 C -0.7532(3) -0.1789(3) -0.14907(14)
C4 C -0.8154(4) -0.2233(3) -0.22198(15)
C5 C -0.8331(5) -0.1298(3) -0.28284(17)
C6 C -0.7857(4) 0.0065(3) -0.27436(17)
C7 C -0.6704(6) 0.2798(4) -0.2476(2)
C8 C -0.6971(3) -0.5045(3) -0.00507(14)
C9 C -0.5083(4) -0.5131(4) -0.0392(2)
C10 C -0.7023(5) -0.4311(3) 0.07445(17)
C11 C -0.7817(6) -0.6475(3) 0.0011(2)
H1 H -0.509(4) -0.550(3) -0.0879(18)
H2 H -0.667(3) -0.012(2) -0.0913(14)
H3 H -0.641(4) -0.337(3) 0.0697(16)
H4 H -0.593(4) 0.247(3) -0.2904(19)
H5 H -0.438(5) -0.567(4) -0.005(2)
H6 H -0.439(4) -0.423(3) -0.0417(16)
H7 H -0.878(4) -0.161(3) -0.3324(17)
H8 H -0.807(4) 0.066(3) -0.3158(15)
H9 H -0.692(4) -0.237(2) -0.0438(14)
H10 H -0.845(4) -0.312(3) -0.2268(15)
H11 H -0.913(5) -0.641(3) 0.0169(18)
H12 H -0.819(4) -0.425(3) 0.0947(17)
H13 H -0.709(4) -0.705(3) 0.0376(17)
H14 H -0.643(4) -0.481(3) 0.1119(16)
H15 H -0.620(5) 0.361(4) -0.224(2)
H16 H -0.793(5) 0.285(4) -0.2714(18)
H17 H -0.775(4) -0.695(3) -0.0537(18)
loop_
_geom_bond_atom_site_label_1
_geom_bond_atom_site_label_2
_geom_bond_site_symmetry_1
_geom_bond_site_symmetry_2
S1 O2 1_555 1_555
O1 C1 1_555 1_555
N1 S1 1_555 1_555
C1 C2 1_555 1_555
C2 C3 1_555 1_555
C3 N1 1_555 1_555
C4 C3 1_555 1_555
C5 C4 1_555 1_555
C6 C1 1_555 1_555
C7 O1 1_555 1_555
C8 S1 1_555 1_555
C9 C8 1_555 1_555
C10 C8 1_555 1_555
C11 C8 1_555 1_555
H1 C9 1_555 1_555
H2 C2 1_555 1_555
H3 C10 1_555 1_555
H4 C7 1_555 1_555
H5 C9 1_555 1_555
H6 C9 1_555 1_555
H7 C5 1_555 1_555
H8 C6 1_555 1_555
H9 N1 1_555 1_555
H10 C4 1_555 1_555
H11 C11 1_555 1_555
H12 C10 1_555 1_555
H13 C11 1_555 1_555
H14 C10 1_555 1_555
H15 C7 1_555 1_555
H16 C7 1_555 1_555
H17 C11 1_555 1_555
C5 C6 1_555 1_555

#END
