
#######################################################################
#
#                 Cambridge Crystallographic Data Centre
#                                CCDC 
#
#######################################################################
#
# If this CIF has been generated from an entry in the Cambridge 
# Structural Database, then it will include bibliographic, chemical, 
# crystal, experimental, refinement or atomic coordinate data resulting 
# from the CCDC's data processing and validation procedures.
#
#######################################################################

data_LAQVUV
_chemical_name_common            'Tetraresorcinol tetrahydrofuran clathrate'
_chemical_formula_moiety         'C24 H20 O8 Si1,3.3(C4 H8 O1)'
_chemical_name_systematic        
'tetrakis(3,5-Dihydroxyphenyl)silane tetrahydrofuran clathrate'
_symmetry_cell_setting           tetragonal
_symmetry_space_group_name_H-M   'I 41/a'
_symmetry_Int_Tables_number      88
_space_group_name_Hall           '-I 4ad'
loop_
_symmetry_equiv_pos_site_id
_symmetry_equiv_pos_as_xyz
1 x,y,z
2 3/4-y,1/4+x,1/4+z
3 1/2+x,1/2+y,1/2+z
4 1/4-y,3/4+x,3/4+z
5 1/4+y,1/4-x,1/4+z
6 1/2-x,-y,1/2+z
7 3/4+y,3/4-x,3/4+z
8 -x,1/2-y,z
9 -x,-y,-z
10 1/4+y,3/4-x,3/4-z
11 1/2-x,1/2-y,1/2-z
12 3/4+y,1/4-x,1/4-z
13 3/4-y,3/4+x,3/4-z
14 1/2+x,y,1/2-z
15 1/4-y,1/4+x,1/4-z
16 x,1/2+y,-z
_cell_length_a                   17.106(5)
_cell_length_b                   17.106(5)
_cell_length_c                   38.635(5)
_cell_angle_alpha                90
_cell_angle_beta                 90
_cell_angle_gamma                90
_cell_volume                     11305.2
_exptl_crystal_colour            colorless
_exptl_crystal_description       block
_cell_formula_units_Z            12
_exptl_crystal_recrystallization_method hexane/tetrahydrofuran
loop_
_atom_site_label
_atom_site_type_symbol
_atom_site_fract_x
_atom_site_fract_y
_atom_site_fract_z
Si1 Si 0.5000 0.7500 0.1250
O1 O 0.31416(13) 0.51941(14) 0.09794(5)
H1 H 0.2966 0.4925 0.0818
O2 O 0.51626(12) 0.57117(12) 0.01509(5)
H2 H 0.5134 0.5237 0.0108
C1 C 0.46721(18) 0.66723(18) 0.09693(7)
C2 C 0.40285(18) 0.62235(18) 0.10698(7)
H3 H 0.3762 0.6341 0.1276
C3 C 0.3785(2) 0.5607(2) 0.08656(8)
C4 C 0.4168(2) 0.5408(2) 0.05661(8)
H4 H 0.4014 0.4971 0.0436
C5 C 0.4781(2) 0.5867(2) 0.04637(9)
C6 C 0.5040(2) 0.6496(2) 0.06585(8)
H5 H 0.5462 0.6802 0.0581
O1N O 0.73059(14) 0.56416(13) 0.15206(5)
O1K O 0.26941(14) 0.93584(13) 0.15206(5)
O1G O 0.68584(13) 0.98059(14) 0.09794(5)
H1N H 0.7575 0.5466 0.1682
H1K H 0.2425 0.9534 0.1682
H1G H 0.7034 1.0075 0.0818
O2N O 0.67883(12) 0.76626(12) 0.23491(5)
O2K O 0.32117(12) 0.73374(12) 0.23491(5)
O2G O 0.48374(12) 0.92883(12) 0.01509(5)
H2N H 0.7263 0.7634 0.2392
H2K H 0.2737 0.7366 0.2392
H2G H 0.4866 0.9763 0.0108
C1N C 0.58277(18) 0.71721(18) 0.15307(7)
C1K C 0.41723(18) 0.78279(18) 0.15307(7)
C1G C 0.53279(18) 0.83277(18) 0.09693(7)
C2N C 0.62765(18) 0.65285(18) 0.14302(7)
C2K C 0.37235(18) 0.84715(18) 0.14302(7)
C2G C 0.59715(18) 0.87765(18) 0.10698(7)
H3N H 0.6159 0.6262 0.1224
H3K H 0.3841 0.8738 0.1224
H3G H 0.6238 0.8659 0.1276
C3N C 0.6893(2) 0.6285(2) 0.16344(8)
C3K C 0.3107(2) 0.8715(2) 0.16344(8)
C3G C 0.6215(2) 0.9393(2) 0.08656(8)
C4N C 0.7092(2) 0.6668(2) 0.19339(8)
C4K C 0.2908(2) 0.8332(2) 0.19339(8)
C4G C 0.5832(2) 0.9592(2) 0.05661(8)
H4N H 0.7529 0.6514 0.2064
H4K H 0.2471 0.8486 0.2064
H4G H 0.5986 1.0029 0.0436
C5N C 0.6633(2) 0.7281(2) 0.20363(9)
C5K C 0.3367(2) 0.7719(2) 0.20363(9)
C5G C 0.5219(2) 0.9133(2) 0.04637(9)
C6N C 0.6004(2) 0.7540(2) 0.18415(8)
C6K C 0.3996(2) 0.7460(2) 0.18415(8)
C6G C 0.4960(2) 0.8504(2) 0.06585(8)
H5N H 0.5698 0.7962 0.1919
H5K H 0.4302 0.7038 0.1919
H5G H 0.4538 0.8198 0.0581
Si2 Si 0.0000 0.2500 0.02887(3)
O3 O -0.17322(11) 0.49445(13) -0.00205(5)
H6 H -0.2030 0.4723 0.0118
O4 O 0.03195(15) 0.43394(14) -0.07857(6)
H7 H 0.0606 0.3966 -0.0839
C7 C -0.03069(17) 0.33426(18) 0.00097(8)
C8 C -0.0925(2) 0.3818(2) 0.01037(8)
H8 H -0.1203 0.3718 0.0309
C9 C -0.1136(2) 0.4448(2) -0.01082(8)
C10 C -0.0708(2) 0.4609(2) -0.04010(8)
H9 H -0.0846 0.5040 -0.0539
C11 C -0.0090(3) 0.4159(3) -0.04937(9)
C12 C 0.0098(2) 0.35059(19) -0.02966(8)
H10 H 0.0501 0.3171 -0.0370
O5 O 0.24914(15) 0.42081(12) 0.05084(5)
H11 H 0.2322 0.4389 0.0324
O6 O 0.18172(14) 0.23533(13) 0.13808(5)
H12 H 0.2200 0.2564 0.1474
C13 C 0.0857(2) 0.2808(2) 0.05610(8)
C14 C 0.13545(17) 0.33929(19) 0.04363(8)
H13 H 0.1248 0.3632 0.0222
C15 C 0.19966(17) 0.36199(17) 0.06236(7)
C16 C 0.2175(2) 0.32680(19) 0.09355(8)
H14 H 0.2624 0.3415 0.1060
C17 C 0.1683(2) 0.26987(19) 0.10607(8)
C18 C 0.10228(18) 0.2461(2) 0.08802(7)
H15 H 0.0693 0.2073 0.0971
O3G O 0.17322(11) 0.00555(13) -0.00205(5)
H6G H 0.2030 0.0277 0.0118
O4G O -0.03195(15) 0.06606(14) -0.07857(6)
H7G H -0.0606 0.1034 -0.0839
C7G C 0.03069(17) 0.16574(18) 0.00097(8)
C8G C 0.0925(2) 0.1182(2) 0.01037(8)
H8G H 0.1203 0.1282 0.0309
C9G C 0.1136(2) 0.0552(2) -0.01082(8)
C10G C 0.0708(2) 0.0391(2) -0.04010(8)
H9G H 0.0846 -0.0040 -0.0539
C11G C 0.0090(3) 0.0841(3) -0.04937(9)
C12G C -0.0098(2) 0.14941(19) -0.02966(8)
H10G H -0.0501 0.1829 -0.0370
O5G O -0.24914(15) 0.07919(12) 0.05084(5)
H11G H -0.2322 0.0611 0.0324
O6G O -0.18172(14) 0.26467(13) 0.13808(5)
H12G H -0.2200 0.2436 0.1474
C13G C -0.0857(2) 0.2192(2) 0.05610(8)
C14G C -0.13545(17) 0.16071(19) 0.04363(8)
H13G H -0.1248 0.1368 0.0222
C15G C -0.19966(17) 0.13801(17) 0.06236(7)
C16G C -0.2175(2) 0.17320(19) 0.09355(8)
H14G H -0.2624 0.1585 0.1060
C17G C -0.1683(2) 0.23013(19) 0.10607(8)
C18G C -0.10228(18) 0.2539(2) 0.08802(7)
H15G H -0.0693 0.2927 0.0971
O7 O 0.20170(13) 0.50593(16) 0.19827(6)
C19 C 0.1798(2) 0.4894(2) 0.16384(8)
H16 H 0.1373 0.4510 0.1634
H17 H 0.2243 0.4681 0.1510
C20 C 0.1534(2) 0.5648(2) 0.14786(9)
H18 H 0.1681 0.5674 0.1234
H19 H 0.0966 0.5709 0.1499
C21 C 0.1949(3) 0.6248(2) 0.16821(9)
H20 H 0.2441 0.6396 0.1570
H21 H 0.1625 0.6717 0.1711
C22 C 0.2093(3) 0.5863(2) 0.20176(9)
H22 H 0.2621 0.5990 0.2099
H23 H 0.1718 0.6055 0.2190
O8 O 0.8398(2) 0.6600(2) 0.08678(9)
C23 C 0.7756(3) 0.6568(3) 0.06328(13)
H24 H 0.7321 0.6302 0.0748
H25 H 0.7910 0.6245 0.0434
C24 C 0.7481(4) 0.7305(3) 0.05050(15)
H26 H 0.6919 0.7368 0.0547
H27 H 0.7586 0.7361 0.0257
C25 C 0.7931(4) 0.7856(3) 0.07049(13)
H28 H 0.8288 0.8148 0.0555
H29 H 0.7584 0.8227 0.0823
C26 C 0.8362(3) 0.7402(4) 0.09530(13)
H30 H 0.8895 0.7609 0.0969
H31 H 0.8117 0.7459 0.1181
O9? O 0.6253(4) 0.6716(4) -0.00414(19)
C27? C 0.6466(7) 0.7497(7) -0.0088(3)
H32? H 0.5991 0.7818 -0.0087
H33? H 0.6709 0.7553 -0.0317
C28? C 0.7008(7) 0.7802(6) 0.0175(3)
H34? H 0.6738 0.8143 0.0340
H35? H 0.7438 0.8093 0.0068
C29? C 0.7295(8) 0.7084(7) 0.0345(3)
H36? H 0.7848 0.6996 0.0292
H37? H 0.7232 0.7119 0.0597
C30? C 0.6818(7) 0.6463(6) 0.0205(3)
H38? H 0.7160 0.6076 0.0095
H39? H 0.6546 0.6202 0.0396
O10? O 0.4442(6) 0.2926(6) 0.0263(2)
C31? C 0.5133(9) 0.2506(16) 0.0187(3)
H40? H 0.5391 0.2747 -0.0012
H41? H 0.4994 0.1969 0.0123
C32? C 0.5676(7) 0.2486(9) 0.0478(3)
H42? H 0.6031 0.2935 0.0474
H43? H 0.5982 0.2002 0.0480
C33? C 0.5124(15) 0.252(2) 0.0775(3)
H44? H 0.4933 0.2004 0.0839
H45? H 0.5367 0.2770 0.0977
C34? C 0.4494(8) 0.3014(9) 0.0632(3)
H46? H 0.3995 0.2865 0.0738
H47? H 0.4595 0.3563 0.0688
O11? O 0.5698(11) 0.1463(10) 0.1369(4)
C35? C 0.5671(15) 0.1369(12) 0.1006(5)
H48? H 0.5343 0.0916 0.0951
H49? H 0.6199 0.1261 0.0920
C36? C 0.537(2) 0.2047(15) 0.0830(5)
H50? H 0.4932 0.1901 0.0677
H51? H 0.5774 0.2299 0.0691
C37? C 0.509(2) 0.2573(17) 0.1108(5)
H52? H 0.5245 0.3116 0.1063
H53? H 0.4525 0.2545 0.1136
C38? C 0.5496(15) 0.2264(11) 0.1409(5)
H54? H 0.5972 0.2569 0.1449
H55? H 0.5160 0.2322 0.1612
loop_
_geom_bond_atom_site_label_1
_geom_bond_atom_site_label_2
_geom_bond_site_symmetry_1
_geom_bond_site_symmetry_2
Si1 C1 1_555 1_555
O1 H1 1_555 1_555
O2 H2 1_555 1_555
C1 C2 1_555 1_555
C2 H3 1_555 1_555
C3 O1 1_555 1_555
C4 C3 1_555 1_555
H4 C4 1_555 1_555
C5 O2 1_555 1_555
C6 C1 1_555 1_555
H5 C6 1_555 1_555
Si2 C7 1_555 1_555
O3 H6 1_555 1_555
O4 H7 1_555 1_555
C7 C8 1_555 1_555
C8 H8 1_555 1_555
C9 O3 1_555 1_555
C10 C9 1_555 1_555
H9 C10 1_555 1_555
C11 O4 1_555 1_555
C12 C7 1_555 1_555
H10 C12 1_555 1_555
O5 H11 1_555 1_555
O6 H12 1_555 1_555
C13 Si2 1_555 1_555
C14 C13 1_555 1_555
H13 C14 1_555 1_555
C15 O5 1_555 1_555
C16 C15 1_555 1_555
H14 C16 1_555 1_555
C17 O6 1_555 1_555
C18 C13 1_555 1_555
H15 C18 1_555 1_555
O7 C19 1_555 1_555
C19 H16 1_555 1_555
H17 C19 1_555 1_555
C20 C19 1_555 1_555
H18 C20 1_555 1_555
H19 C20 1_555 1_555
C21 C20 1_555 1_555
H20 C21 1_555 1_555
H21 C21 1_555 1_555
C22 O7 1_555 1_555
H22 C22 1_555 1_555
H23 C22 1_555 1_555
O8 C23 1_555 1_555
C23 H24 1_555 1_555
H25 C23 1_555 1_555
C24 C23 1_555 1_555
H26 C24 1_555 1_555
H27 C24 1_555 1_555
C25 C24 1_555 1_555
H28 C25 1_555 1_555
H29 C25 1_555 1_555
C26 O8 1_555 1_555
H30 C26 1_555 1_555
H31 C26 1_555 1_555
O1N H1N 1_555 1_555
O1K H1K 1_555 1_555
O1G H1G 1_555 1_555
O2N H2N 1_555 1_555
O2K H2K 1_555 1_555
O2G H2G 1_555 1_555
C1N Si1 1_555 1_555
C1K Si1 1_555 1_555
C1G Si1 1_555 1_555
C2N C1N 1_555 1_555
C2K C1K 1_555 1_555
C2G C1G 1_555 1_555
H3N C2N 1_555 1_555
H3K C2K 1_555 1_555
H3G C2G 1_555 1_555
C3N O1N 1_555 1_555
C3K O1K 1_555 1_555
C3G O1G 1_555 1_555
C4N C3N 1_555 1_555
C4K C3K 1_555 1_555
C4G C3G 1_555 1_555
H4N C4N 1_555 1_555
H4K C4K 1_555 1_555
H4G C4G 1_555 1_555
C5N O2N 1_555 1_555
C5K O2K 1_555 1_555
C5G O2G 1_555 1_555
C6N C1N 1_555 1_555
C6K C1K 1_555 1_555
C6G C1G 1_555 1_555
H5N C6N 1_555 1_555
H5K C6K 1_555 1_555
H5G C6G 1_555 1_555
O3G H6G 1_555 1_555
O4G H7G 1_555 1_555
C7G Si2 1_555 1_555
C8G C7G 1_555 1_555
H8G C8G 1_555 1_555
C9G O3G 1_555 1_555
C10G C9G 1_555 1_555
H9G C10G 1_555 1_555
C11G O4G 1_555 1_555
C12G C7G 1_555 1_555
H10G C12G 1_555 1_555
O5G H11G 1_555 1_555
O6G H12G 1_555 1_555
C13G Si2 1_555 1_555
C14G C13G 1_555 1_555
H13G C14G 1_555 1_555
C15G O5G 1_555 1_555
C16G C15G 1_555 1_555
H14G C16G 1_555 1_555
C17G O6G 1_555 1_555
C18G C13G 1_555 1_555
H15G C18G 1_555 1_555
C2 C3 1_555 1_555
C4 C5 1_555 1_555
C5 C6 1_555 1_555
C8 C9 1_555 1_555
C10 C11 1_555 1_555
C11 C12 1_555 1_555
C14 C15 1_555 1_555
C16 C17 1_555 1_555
C17 C18 1_555 1_555
C21 C22 1_555 1_555
C25 C26 1_555 1_555
C2N C3N 1_555 1_555
C2K C3K 1_555 1_555
C2G C3G 1_555 1_555
C4N C5N 1_555 1_555
C4K C5K 1_555 1_555
C4G C5G 1_555 1_555
C5N C6N 1_555 1_555
C5K C6K 1_555 1_555
C5G C6G 1_555 1_555
C8G C9G 1_555 1_555
C10G C11G 1_555 1_555
C11G C12G 1_555 1_555
C14G C15G 1_555 1_555
C16G C17G 1_555 1_555
C17G C18G 1_555 1_555

#END
