
#######################################################################
#
#                 Cambridge Crystallographic Data Centre
#                                CCDC 
#
#######################################################################
#
# If this CIF has been generated from an entry in the Cambridge 
# Structural Database, then it will include bibliographic, chemical, 
# crystal, experimental, refinement or atomic coordinate data resulting 
# from the CCDC's data processing and validation procedures.
#
#######################################################################

data_LAQVOP
_chemical_name_common            'Tetraresorcinol ethyl acetate clathrate'
_chemical_formula_moiety         'C24 H20 O8 Si1,2.7(C4 H8 O2)'
_chemical_name_systematic        
'tetrakis(3,5-Dihydroxyphenyl)silane ethyl acetate clathrate'
_symmetry_cell_setting           tetragonal
_symmetry_space_group_name_H-M   'I -4 2 d'
_symmetry_Int_Tables_number      122
_space_group_name_Hall           'I -4 2bw'
loop_
_symmetry_equiv_pos_site_id
_symmetry_equiv_pos_as_xyz
1 x,y,z
2 y,-x,-z
3 -x,-y,z
4 -y,x,-z
5 1/2-x,y,3/4-z
6 1/2-y,-x,3/4+z
7 1/2+x,-y,3/4-z
8 1/2+y,x,3/4+z
9 1/2+x,1/2+y,1/2+z
10 1/2+y,1/2-x,1/2-z
11 1/2-x,1/2-y,1/2+z
12 1/2-y,1/2+x,1/2-z
13 -x,1/2+y,1/4-z
14 -y,1/2-x,1/4+z
15 x,1/2-y,1/4-z
16 y,1/2+x,1/4+z
_cell_length_a                   17.050(5)
_cell_length_b                   17.050(5)
_cell_length_c                   37.082(9)
_cell_angle_alpha                90
_cell_angle_beta                 90
_cell_angle_gamma                90
_cell_volume                     10779.8
_exptl_crystal_colour            colorless
_exptl_crystal_description       block
_cell_formula_units_Z            12
_exptl_crystal_recrystallization_method 'hexane/ethyl acetate'
loop_
_atom_site_label
_atom_site_type_symbol
_atom_site_fract_x
_atom_site_fract_y
_atom_site_fract_z
Si2 Si 0.5000 0.5000 0.19901(2)
O3 O 0.40424(10) 0.69038(10) 0.29787(5)
H6 H 0.4173 0.7235 0.3131
O4 O 0.67503(11) 0.71739(11) 0.25683(5)
H7 H 0.6765 0.7480 0.2742
O5 O 0.26906(11) 0.66760(11) 0.14700(5)
H8 H 0.2874 0.6946 0.1304
O6 O 0.29365(11) 0.40259(11) 0.10474(5)
H9 H 0.3292 0.3697 0.1022
C7 C 0.51532(16) 0.58605(17) 0.22924(8)
C8 C 0.45672(15) 0.61175(14) 0.25136(7)
H10 H 0.4072 0.5876 0.2501
C9 C 0.46826(17) 0.67299(16) 0.27585(8)
C10 C 0.53807(17) 0.71065(18) 0.27817(8)
H11 H 0.5456 0.7530 0.2940
C11 C 0.60094(15) 0.68250(15) 0.25495(7)
C12 C 0.59003(17) 0.62457(17) 0.23171(8)
H12 H 0.6315 0.6085 0.2167
C13 C 0.41180(15) 0.51610(14) 0.16991(7)
C14 C 0.37328(17) 0.58889(17) 0.16965(8)
H13 H 0.3915 0.6312 0.1836
C15 C 0.30541(17) 0.59593(18) 0.14744(8)
C16 C 0.28086(17) 0.53697(16) 0.12530(8)
H14 H 0.2380 0.5447 0.1098
C17 C 0.32040(16) 0.46394(17) 0.12589(8)
C18 C 0.38555(14) 0.45560(15) 0.14790(7)
H15 H 0.4128 0.4077 0.1479
O3B O 0.59576(10) 0.30962(10) 0.29787(5)
H6B H 0.5827 0.2765 0.3131
O4B O 0.32497(11) 0.28261(11) 0.25683(5)
H7B H 0.3235 0.2520 0.2742
O5B O 0.73094(11) 0.33240(11) 0.14700(5)
H8B H 0.7126 0.3054 0.1304
O6B O 0.70635(11) 0.59741(11) 0.10474(5)
H9B H 0.6708 0.6303 0.1022
C7B C 0.48468(16) 0.41395(17) 0.22924(8)
C8B C 0.54328(15) 0.38825(14) 0.25136(7)
H10B H 0.5928 0.4124 0.2501
C9B C 0.53174(17) 0.32701(16) 0.27585(8)
C10B C 0.46193(17) 0.28935(18) 0.27817(8)
H11B H 0.4544 0.2470 0.2940
C11B C 0.39906(15) 0.31750(15) 0.25495(7)
C12B C 0.40997(17) 0.37543(17) 0.23171(8)
H12B H 0.3685 0.3915 0.2167
C13B C 0.58820(15) 0.48390(14) 0.16991(7)
C14B C 0.62672(17) 0.41111(17) 0.16965(8)
H13B H 0.6085 0.3688 0.1836
C15B C 0.69459(17) 0.40407(18) 0.14744(8)
C16B C 0.71914(17) 0.46303(16) 0.12530(8)
H14B H 0.7620 0.4553 0.1098
C17B C 0.67960(16) 0.53606(17) 0.12589(8)
C18B C 0.61445(14) 0.54440(15) 0.14790(7)
H15B H 0.5872 0.5923 0.1479
Si1 Si 0.5000 0.5000 0.0000
O1 O 0.67609(10) 0.28421(10) 0.05911(5)
H1 H 0.6776 0.2529 0.0762
O2 O 0.40836(11) 0.29300(11) 0.09529(5)
H2 H 0.4224 0.2930 0.1167
C1 C 0.51592(14) 0.41145(14) 0.02958(7)
C2 C 0.58698(16) 0.37701(16) 0.03229(8)
H3 H 0.6275 0.3948 0.0171
C3 C 0.60357(15) 0.31556(15) 0.05676(7)
C4 C 0.54212(15) 0.28886(15) 0.07743(8)
H4 H 0.5502 0.2477 0.0939
C5 C 0.46776(17) 0.32267(17) 0.07409(8)
C6 C 0.45299(17) 0.38200(17) 0.05062(8)
H5 H 0.4023 0.4031 0.0484
O1A O 0.28421(10) 0.32391(10) -0.05911(5)
O1B O 0.32391(10) 0.71579(10) 0.05911(5)
O1C O 0.71579(10) 0.67609(10) -0.05911(5)
H1A H 0.2529 0.3224 -0.0762
H1B H 0.3224 0.7471 0.0762
H1C H 0.7471 0.6776 -0.0762
O2A O 0.29300(11) 0.59164(11) -0.09529(5)
O2B O 0.59164(11) 0.70700(11) 0.09529(5)
O2C O 0.70700(11) 0.40836(11) -0.09529(5)
H2A H 0.2930 0.5776 -0.1167
H2B H 0.5776 0.7070 0.1167
H2C H 0.7070 0.4224 -0.1167
C1A C 0.41145(14) 0.48408(14) -0.02958(7)
C1B C 0.48408(14) 0.58855(14) 0.02958(7)
C1C C 0.58855(14) 0.51592(14) -0.02958(7)
C2A C 0.37701(16) 0.41302(16) -0.03229(8)
C2B C 0.41302(16) 0.62299(16) 0.03229(8)
C2C C 0.62299(16) 0.58698(16) -0.03229(8)
H3A H 0.3948 0.3725 -0.0171
H3B H 0.3725 0.6052 0.0171
H3C H 0.6052 0.6275 -0.0171
C3A C 0.31556(15) 0.39643(15) -0.05676(7)
C3B C 0.39643(15) 0.68444(15) 0.05676(7)
C3C C 0.68444(15) 0.60357(15) -0.05676(7)
C4A C 0.28886(15) 0.45788(15) -0.07743(8)
C4B C 0.45788(15) 0.71114(15) 0.07743(8)
C4C C 0.71114(15) 0.54212(15) -0.07743(8)
H4A H 0.2477 0.4498 -0.0939
H4B H 0.4498 0.7523 0.0939
H4C H 0.7523 0.5502 -0.0939
C5A C 0.32267(17) 0.53224(17) -0.07409(8)
C5B C 0.53224(17) 0.67733(17) 0.07409(8)
C5C C 0.67733(17) 0.46776(17) -0.07409(8)
C6A C 0.38200(17) 0.54701(17) -0.05062(8)
C6B C 0.54701(17) 0.61800(17) 0.05062(8)
C6C C 0.61800(17) 0.45299(17) -0.05062(8)
H5A H 0.4031 0.5977 -0.0484
H5B H 0.5977 0.5969 0.0484
H5C H 0.5969 0.4023 -0.0484
loop_
_geom_bond_atom_site_label_1
_geom_bond_atom_site_label_2
_geom_bond_site_symmetry_1
_geom_bond_site_symmetry_2
Si1 C1 1_555 1_555
O1 H1 1_555 1_555
O2 H2 1_555 1_555
C1 C2 1_555 1_555
C2 H3 1_555 1_555
C3 O1 1_555 1_555
C4 C3 1_555 1_555
H4 C4 1_555 1_555
C5 O2 1_555 1_555
C6 C1 1_555 1_555
H5 C6 1_555 1_555
Si2 C7 1_555 1_555
O3 H6 1_555 1_555
O4 H7 1_555 1_555
O5 H8 1_555 1_555
O6 H9 1_555 1_555
C7 C8 1_555 1_555
C8 H10 1_555 1_555
C9 O3 1_555 1_555
C10 C9 1_555 1_555
H11 C10 1_555 1_555
C11 O4 1_555 1_555
C12 C7 1_555 1_555
H12 C12 1_555 1_555
C13 Si2 1_555 1_555
C14 C13 1_555 1_555
H13 C14 1_555 1_555
C15 O5 1_555 1_555
C16 C15 1_555 1_555
H14 C16 1_555 1_555
C17 O6 1_555 1_555
C18 C13 1_555 1_555
H15 C18 1_555 1_555
O1A H1A 1_555 1_555
O1B H1B 1_555 1_555
O1C H1C 1_555 1_555
O2A H2A 1_555 1_555
O2B H2B 1_555 1_555
O2C H2C 1_555 1_555
C1A Si1 1_555 1_555
C1B Si1 1_555 1_555
C1C Si1 1_555 1_555
C2A C1A 1_555 1_555
C2B C1B 1_555 1_555
C2C C1C 1_555 1_555
H3A C2A 1_555 1_555
H3B C2B 1_555 1_555
H3C C2C 1_555 1_555
C3A O1A 1_555 1_555
C3B O1B 1_555 1_555
C3C O1C 1_555 1_555
C4A C3A 1_555 1_555
C4B C3B 1_555 1_555
C4C C3C 1_555 1_555
H4A C4A 1_555 1_555
H4B C4B 1_555 1_555
H4C C4C 1_555 1_555
C5A O2A 1_555 1_555
C5B O2B 1_555 1_555
C5C O2C 1_555 1_555
C6A C1A 1_555 1_555
C6B C1B 1_555 1_555
C6C C1C 1_555 1_555
H5A C6A 1_555 1_555
H5B C6B 1_555 1_555
H5C C6C 1_555 1_555
O3B H6B 1_555 1_555
O4B H7B 1_555 1_555
O5B H8B 1_555 1_555
O6B H9B 1_555 1_555
C7B Si2 1_555 1_555
C8B C7B 1_555 1_555
H10B C8B 1_555 1_555
C9B O3B 1_555 1_555
C10B C9B 1_555 1_555
H11B C10B 1_555 1_555
C11B O4B 1_555 1_555
C12B C7B 1_555 1_555
H12B C12B 1_555 1_555
C13B Si2 1_555 1_555
C14B C13B 1_555 1_555
H13B C14B 1_555 1_555
C15B O5B 1_555 1_555
C16B C15B 1_555 1_555
H14B C16B 1_555 1_555
C17B O6B 1_555 1_555
C18B C13B 1_555 1_555
H15B C18B 1_555 1_555
C2 C3 1_555 1_555
C4 C5 1_555 1_555
C5 C6 1_555 1_555
C8 C9 1_555 1_555
C10 C11 1_555 1_555
C11 C12 1_555 1_555
C14 C15 1_555 1_555
C16 C17 1_555 1_555
C17 C18 1_555 1_555
C2A C3A 1_555 1_555
C2B C3B 1_555 1_555
C2C C3C 1_555 1_555
C4A C5A 1_555 1_555
C4B C5B 1_555 1_555
C4C C5C 1_555 1_555
C5A C6A 1_555 1_555
C5B C6B 1_555 1_555
C5C C6C 1_555 1_555
C8B C9B 1_555 1_555
C10B C11B 1_555 1_555
C11B C12B 1_555 1_555
C14B C15B 1_555 1_555
C16B C17B 1_555 1_555
C17B C18B 1_555 1_555

#END
