
#######################################################################
#
#                 Cambridge Crystallographic Data Centre
#                                CCDC 
#
#######################################################################
#
# If this CIF has been generated from an entry in the Cambridge 
# Structural Database, then it will include bibliographic, chemical, 
# crystal, experimental, refinement or atomic coordinate data resulting 
# from the CCDC's data processing and validation procedures.
#
#######################################################################

data_LAQWOQ
_chemical_formula_moiety         'C42 H46 N6 O2'
_chemical_name_systematic        
3,6-bis(Diethylamino)-N-(N',N'-bis(2-pyridylmethyl)-2-aminoethyl)-1',3'-dihydrospiro(xanthene-9,3'-isobenzopyrrolidine)-1'-one
_chemical_properties_biological  
'highly selective fluorescent chemosensor for lead 2+'
_symmetry_cell_setting           monoclinic
_symmetry_space_group_name_H-M   'P 21'
_symmetry_Int_Tables_number      4
_space_group_name_Hall           'P 2yb'
loop_
_symmetry_equiv_pos_site_id
_symmetry_equiv_pos_as_xyz
1 x,y,z
2 -x,1/2+y,-z
_cell_length_a                   11.896(3)
_cell_length_b                   11.812(3)
_cell_length_c                   12.988(3)
_cell_angle_alpha                90.00
_cell_angle_beta                 90.592(4)
_cell_angle_gamma                90.00
_cell_volume                     1824.92
_chemical_melting_point          '56-59 deg.C'
_cell_formula_units_Z            2
_exptl_crystal_recrystallization_method chloroform/acetonitrile
loop_
_atom_site_label
_atom_site_type_symbol
_atom_site_fract_x
_atom_site_fract_y
_atom_site_fract_z
O1 O 0.0303(3) 0.7299(3) 0.1483(3)
O2 O 0.3987(3) 1.1036(3) 0.0540(3)
N1 N 0.2904(4) 0.4323(4) 0.0910(4)
N2 N -0.2345(4) 1.0001(4) 0.2655(4)
N3 N 0.2660(3) 0.9735(3) 0.1007(3)
N4 N 0.2881(3) 0.9718(4) 0.3886(3)
N5 N 0.4499(5) 1.1456(5) 0.5645(5)
N6 N 0.0613(4) 0.8191(5) 0.5180(4)
C1 C 0.1753(4) 0.9012(4) 0.0520(3)
C2 C 0.2043(4) 0.7775(4) 0.0617(4)
C3 C 0.3068(4) 0.7362(4) 0.0286(4)
H1 H 0.3575 0.7859 -0.0013
C4 C 0.3358(5) 0.6240(5) 0.0385(4)
H2 H 0.4056 0.5994 0.0161
C5 C 0.2616(4) 0.5470(4) 0.0817(4)
C6 C 0.1619(5) 0.5873(4) 0.1177(4)
H3 H 0.1127 0.5381 0.1504
C7 C 0.1324(4) 0.7013(4) 0.1063(4)
C8 C -0.0013(4) 0.8435(5) 0.1482(4)
C9 C -0.0973(4) 0.8644(5) 0.2016(4)
H4 H -0.1354 0.8051 0.2330
C10 C -0.1382(4) 0.9741(5) 0.2091(4)
C11 C -0.0781(4) 1.0611(4) 0.1596(4)
H5 H -0.1033 1.1355 0.1627
C12 C 0.0180(4) 1.0348(4) 0.1067(4)
H6 H 0.0554 1.0926 0.0727
C13 C 0.0618(4) 0.9257(4) 0.1016(4)
C14 C 0.2016(5) 0.3479(5) 0.1070(5)
H7 H 0.2195 0.2794 0.0694
H8 H 0.1308 0.3769 0.0803
C15 C 0.1894(6) 0.3201(6) 0.2209(6)
H9 H 0.1315 0.2643 0.2293
H10 H 0.1698 0.3875 0.2579
H11 H 0.2593 0.2909 0.2473
C16 C 0.3961(5) 0.3891(5) 0.0532(5)
H12 H 0.4118 0.3171 0.0863
H13 H 0.4557 0.4412 0.0726
C17 C 0.3978(5) 0.3727(5) -0.0618(5)
H14 H 0.4704 0.3456 -0.0819
H15 H 0.3826 0.4436 -0.0953
H16 H 0.3414 0.3185 -0.0815
C18 C -0.2917(6) 0.9093(6) 0.3243(5)
H17 H -0.3688 0.9324 0.3359
H18 H -0.2939 0.8415 0.2822
C19 C -0.2403(6) 0.8808(7) 0.4236(6)
H19 H -0.2836 0.8225 0.4563
H20 H -0.2386 0.9468 0.4667
H21 H -0.1650 0.8542 0.4132
C20 C -0.2645(10) 1.1155(8) 0.2881(11)
H22 H -0.2508 1.1232 0.3615
H23 H -0.2068 1.1604 0.2551
C21 C -0.3449(11) 1.1640(10) 0.2735(13)
H24 H -0.3402 1.2366 0.3066
H25 H -0.4072 1.1224 0.3008
H26 H -0.3557 1.1744 0.2008
C22 C 0.1813(4) 0.9438(4) -0.0575(4)
C23 C 0.1180(5) 0.9090(4) -0.1431(4)
H27 H 0.0637 0.8528 -0.1373
C24 C 0.1390(5) 0.9617(5) -0.2384(4)
H28 H 0.0965 0.9426 -0.2963
C25 C 0.2233(6) 1.0419(6) -0.2451(5)
H29 H 0.2384 1.0735 -0.3091
C26 C 0.2861(5) 1.0772(5) -0.1610(5)
H30 H 0.3410 1.1329 -0.1668
C27 C 0.2631(4) 1.0249(5) -0.0662(4)
C28 C 0.3196(4) 1.0437(4) 0.0325(4)
C29 C 0.3111(4) 0.9518(4) 0.2045(4)
H31 H 0.3816 0.9922 0.2128
H32 H 0.3268 0.8716 0.2114
C30 C 0.2321(5) 0.9874(5) 0.2899(4)
H33 H 0.2113 1.0662 0.2812
H34 H 0.1642 0.9421 0.2870
C31 C 0.3567(5) 1.0688(5) 0.4158(4)
H35 H 0.3077 1.1330 0.4277
H36 H 0.4041 1.0873 0.3579
C32 C 0.4296(5) 1.0516(6) 0.5090(4)
C33 C 0.5152(7) 1.1307(10) 0.6489(7)
H37 H 0.5276 1.1935 0.6908
C34 C 0.5656(7) 1.0291(12) 0.6789(6)
H38 H 0.6129 1.0245 0.7362
C35 C 0.5421(7) 0.9383(8) 0.6202(7)
H39 H 0.5711 0.8679 0.6385
C36 C 0.4770(6) 0.9480(6) 0.5351(5)
H40 H 0.4637 0.8851 0.4937
C37 C 0.2042(4) 0.9473(5) 0.4681(4)
H41 H 0.1438 1.0021 0.4622
H42 H 0.2392 0.9569 0.5353
C38 C 0.1543(4) 0.8288(5) 0.4615(4)
C39 C 0.0187(6) 0.7133(9) 0.5163(8)
H43 H -0.0410 0.6991 0.5601
C40 C 0.0548(7) 0.6224(8) 0.4557(7)
H44 H 0.0163 0.5540 0.4541
C41 C 0.1470(6) 0.6390(6) 0.4003(5)
H45 H 0.1774 0.5805 0.3615
C42 C 0.1975(6) 0.7467(6) 0.4016(5)
H46 H 0.2603 0.7611 0.3615
loop_
_geom_bond_atom_site_label_1
_geom_bond_atom_site_label_2
_geom_bond_site_symmetry_1
_geom_bond_site_symmetry_2
O1 C7 1_555 1_555
O2 C28 1_555 1_555
N1 C5 1_555 1_555
N2 C10 1_555 1_555
N3 C1 1_555 1_555
N4 C30 1_555 1_555
N5 C32 1_555 1_555
N6 C38 1_555 1_555
C1 C2 1_555 1_555
C2 C3 1_555 1_555
C3 H1 1_555 1_555
C4 C3 1_555 1_555
H2 C4 1_555 1_555
C5 C4 1_555 1_555
C6 C5 1_555 1_555
H3 C6 1_555 1_555
C7 C2 1_555 1_555
C8 O1 1_555 1_555
C9 C8 1_555 1_555
H4 C9 1_555 1_555
C10 C9 1_555 1_555
C11 C10 1_555 1_555
H5 C11 1_555 1_555
C12 C11 1_555 1_555
H6 C12 1_555 1_555
C13 C1 1_555 1_555
C14 N1 1_555 1_555
H7 C14 1_555 1_555
H8 C14 1_555 1_555
C15 C14 1_555 1_555
H9 C15 1_555 1_555
H10 C15 1_555 1_555
H11 C15 1_555 1_555
C16 N1 1_555 1_555
H12 C16 1_555 1_555
H13 C16 1_555 1_555
C17 C16 1_555 1_555
H14 C17 1_555 1_555
H15 C17 1_555 1_555
H16 C17 1_555 1_555
C18 N2 1_555 1_555
H17 C18 1_555 1_555
H18 C18 1_555 1_555
C19 C18 1_555 1_555
H19 C19 1_555 1_555
H20 C19 1_555 1_555
H21 C19 1_555 1_555
C20 N2 1_555 1_555
H22 C20 1_555 1_555
H23 C20 1_555 1_555
C21 C20 1_555 1_555
H24 C21 1_555 1_555
H25 C21 1_555 1_555
H26 C21 1_555 1_555
C22 C1 1_555 1_555
C23 C22 1_555 1_555
H27 C23 1_555 1_555
C24 C23 1_555 1_555
H28 C24 1_555 1_555
C25 C24 1_555 1_555
H29 C25 1_555 1_555
C26 C25 1_555 1_555
H30 C26 1_555 1_555
C27 C22 1_555 1_555
C28 N3 1_555 1_555
C29 N3 1_555 1_555
H31 C29 1_555 1_555
H32 C29 1_555 1_555
C30 C29 1_555 1_555
H33 C30 1_555 1_555
H34 C30 1_555 1_555
C31 N4 1_555 1_555
H35 C31 1_555 1_555
H36 C31 1_555 1_555
C32 C31 1_555 1_555
C33 N5 1_555 1_555
H37 C33 1_555 1_555
C34 C33 1_555 1_555
H38 C34 1_555 1_555
C35 C34 1_555 1_555
H39 C35 1_555 1_555
C36 C32 1_555 1_555
H40 C36 1_555 1_555
C37 N4 1_555 1_555
H41 C37 1_555 1_555
H42 C37 1_555 1_555
C38 C37 1_555 1_555
C39 N6 1_555 1_555
H43 C39 1_555 1_555
C40 C39 1_555 1_555
H44 C40 1_555 1_555
C41 C40 1_555 1_555
H45 C41 1_555 1_555
C42 C38 1_555 1_555
H46 C42 1_555 1_555
C6 C7 1_555 1_555
C8 C13 1_555 1_555
C12 C13 1_555 1_555
C26 C27 1_555 1_555
C27 C28 1_555 1_555
C35 C36 1_555 1_555
C41 C42 1_555 1_555

#END
