
#######################################################################
#
#                 Cambridge Crystallographic Data Centre
#                                CCDC 
#
#######################################################################
#
# If this CIF has been generated from an entry in the Cambridge 
# Structural Database, then it will include bibliographic, chemical, 
# crystal, experimental, refinement or atomic coordinate data resulting 
# from the CCDC's data processing and validation procedures.
#
#######################################################################

data_LAQWUW
_chemical_formula_moiety         'C27 H20 N2 O1'
_chemical_name_systematic        2-(1,4,5-Triphenyl-1H-imidazol-2-yl)phenol
_symmetry_cell_setting           triclinic
_symmetry_space_group_name_H-M   'P -1'
_symmetry_Int_Tables_number      2
_space_group_name_Hall           '-P 1'
loop_
_symmetry_equiv_pos_site_id
_symmetry_equiv_pos_as_xyz
1 x,y,z
2 -x,-y,-z
_cell_length_a                   10.442(2)
_cell_length_b                   10.423(2)
_cell_length_c                   18.967(4)
_cell_angle_alpha                91.734(4)
_cell_angle_beta                 97.363(4)
_cell_angle_gamma                91.588(4)
_cell_volume                     2045.31
_chemical_melting_point          '254 deg.C'
_cell_formula_units_Z            4
_exptl_crystal_recrystallization_method 'ethyl acetate'
loop_
_atom_site_label
_atom_site_type_symbol
_atom_site_fract_x
_atom_site_fract_y
_atom_site_fract_z
N1 N 0.7338(3) 0.6637(2) 0.43519(14)
N2 N 0.7001(3) 0.4572(2) 0.44801(14)
O1 O 0.6765(3) 0.7819(2) 0.32122(14)
H1 H 0.7060 0.7704 0.3627
C1 C 0.6840(3) 0.5570(3) 0.40237(17)
C2 C 0.6242(3) 0.5547(3) 0.32744(16)
C3 C 0.8424(3) 0.7370(3) 0.55309(17)
C4 C 0.7985(3) 0.4241(3) 0.57346(17)
C5 C 0.7634(3) 0.5069(3) 0.51229(16)
C6 C 0.7835(3) 0.6346(3) 0.50314(17)
C7 C 0.6617(3) 0.3237(3) 0.43585(17)
C8 C 0.6251(3) 0.6694(3) 0.29061(17)
C9 C 0.5140(4) 0.5654(3) 0.18559(18)
H2 H 0.4768 0.5691 0.1385
C10 C 0.5716(3) 0.6724(3) 0.22017(18)
H3 H 0.5751 0.7486 0.1961
C11 C 0.5661(4) 0.4476(3) 0.29018(19)
H4 H 0.5643 0.3701 0.3131
C12 C 0.9195(4) 0.3767(4) 0.5868(2)
H5 H 0.9800 0.3930 0.5560
C13 C 0.5427(4) 0.2824(4) 0.4507(2)
H6 H 0.4873 0.3400 0.4684
C14 C 0.5110(4) 0.4520(4) 0.2206(2)
H7 H 0.4718 0.3786 0.1972
C15 C 0.7443(4) 0.2390(4) 0.4108(2)
H8 H 0.8256 0.2669 0.4015
C16 C 0.9523(4) 0.3048(4) 0.6459(2)
H9 H 1.0348 0.2725 0.6546
C17 C 0.8649(5) 0.2808(4) 0.6914(2)
H10 H 0.8879 0.2334 0.7315
C18 C 0.8885(4) 0.7170(4) 0.6231(2)
H11 H 0.8841 0.6347 0.6404
C19 C 0.8524(4) 0.8599(4) 0.5296(2)
H12 H 0.8246 0.8765 0.4823
C20 C 0.7109(4) 0.3977(4) 0.6194(2)
H13 H 0.6279 0.4286 0.6107
C21 C 0.9409(4) 0.8165(4) 0.6681(2)
H14 H 0.9721 0.8006 0.7151
C22 C 0.7445(5) 0.3262(4) 0.6782(2)
H15 H 0.6841 0.3088 0.7090
C23 C 0.5879(5) 0.0703(4) 0.4136(2)
H16 H 0.5629 -0.0158 0.4059
C24 C 0.5057(5) 0.1544(5) 0.4391(2)
H17 H 0.4248 0.1255 0.4486
C25 C 0.9032(5) 0.9588(4) 0.5756(2)
H18 H 0.9071 1.0417 0.5590
C26 C 0.9473(4) 0.9374(4) 0.6442(2)
H19 H 0.9816 1.0048 0.6747
C27 C 0.7055(5) 0.1115(4) 0.3996(2)
H20 H 0.7609 0.0534 0.3823
N3 N 0.1558(2) 0.2245(2) 0.02405(13)
N4 N -0.0541(2) 0.2483(2) 0.02211(13)
O2 O -0.1861(2) 0.3990(2) -0.05963(13)
H21 H -0.1690 0.3507 -0.0267
C28 C 0.0374(3) 0.3615(3) -0.07148(16)
C29 C -0.0124(3) 0.1696(3) 0.07714(16)
C30 C 0.0476(3) 0.2799(3) -0.00954(16)
C31 C 0.1167(3) 0.1546(3) 0.07923(16)
C32 C -0.1027(3) 0.1191(3) 0.12380(16)
C33 C 0.2876(3) 0.2302(3) 0.00919(16)
C34 C 0.3673(3) 0.3321(3) 0.03498(18)
H22 H 0.3360 0.3990 0.0608
C35 C -0.0803(3) 0.4181(3) -0.09283(17)
C36 C 0.2094(3) 0.0877(3) 0.13046(16)
C37 C 0.1377(3) 0.3868(3) -0.11155(18)
H23 H 0.2168 0.3492 -0.0992
C38 C -0.0841(3) 0.0035(3) 0.15752(18)
H24 H -0.0119 -0.0437 0.1512
C39 C 0.3337(3) 0.1313(3) -0.02878(17)
H25 H 0.2796 0.0614 -0.0453
C40 C -0.0940(4) 0.4975(3) -0.15073(19)
H26 H -0.1727 0.5349 -0.1644
C41 C 0.2340(3) -0.0404(3) 0.12090(18)
H27 H 0.1965 -0.0854 0.0800
C42 C 0.4594(3) 0.1356(3) -0.04230(18)
H28 H 0.4903 0.0696 -0.0690
C43 C -0.1709(4) -0.0426(4) 0.20017(18)
H29 H -0.1568 -0.1202 0.2224
C44 C 0.4948(3) 0.3346(4) 0.0222(2)
H30 H 0.5500 0.4029 0.0400
C45 C -0.2111(4) 0.1854(3) 0.13395(19)
H31 H -0.2258 0.2632 0.1120
C46 C 0.0074(4) 0.5209(3) -0.18757(19)
H32 H -0.0023 0.5749 -0.2259
C47 C 0.5396(3) 0.2369(4) -0.01657(19)
H33 H 0.6251 0.2393 -0.0255
C48 C 0.3703(4) -0.0371(4) 0.2313(2)
H34 H 0.4239 -0.0794 0.2655
C49 C 0.3139(3) -0.1023(4) 0.1717(2)
H35 H 0.3293 -0.1890 0.1651
C50 C -0.2781(4) 0.0252(4) 0.2101(2)
H36 H -0.3361 -0.0053 0.2395
C51 C 0.2668(4) 0.1524(3) 0.1907(2)
H37 H 0.2510 0.2389 0.1978
C52 C -0.2987(4) 0.1382(4) 0.1763(2)
H38 H -0.3723 0.1837 0.1819
C53 C 0.1235(4) 0.4655(4) -0.16866(19)
H39 H 0.1923 0.4810 -0.1942
C54 C 0.3483(4) 0.0900(4) 0.2411(2)
H40 H 0.3880 0.1348 0.2816
loop_
_geom_bond_atom_site_label_1
_geom_bond_atom_site_label_2
_geom_bond_site_symmetry_1
_geom_bond_site_symmetry_2
N1 C1 1_555 1_555
N2 C1 1_555 1_555
O1 H1 1_555 1_555
C1 C2 1_555 1_555
C2 C8 1_555 1_555
C3 C6 1_555 1_555
C4 C5 1_555 1_555
C5 N2 1_555 1_555
C6 N1 1_555 1_555
C7 N2 1_555 1_555
C8 O1 1_555 1_555
C9 H2 1_555 1_555
C10 C8 1_555 1_555
H3 C10 1_555 1_555
C11 C2 1_555 1_555
H4 C11 1_555 1_555
C12 C4 1_555 1_555
H5 C12 1_555 1_555
C13 C7 1_555 1_555
H6 C13 1_555 1_555
C14 C9 1_555 1_555
H7 C14 1_555 1_555
C15 C7 1_555 1_555
H8 C15 1_555 1_555
C16 C12 1_555 1_555
H9 C16 1_555 1_555
C17 C16 1_555 1_555
H10 C17 1_555 1_555
C18 C3 1_555 1_555
H11 C18 1_555 1_555
C19 C3 1_555 1_555
H12 C19 1_555 1_555
C20 C4 1_555 1_555
H13 C20 1_555 1_555
C21 C18 1_555 1_555
H14 C21 1_555 1_555
C22 C17 1_555 1_555
H15 C22 1_555 1_555
C23 H16 1_555 1_555
C24 C13 1_555 1_555
H17 C24 1_555 1_555
C25 C19 1_555 1_555
H18 C25 1_555 1_555
C26 C21 1_555 1_555
H19 C26 1_555 1_555
C27 C15 1_555 1_555
H20 C27 1_555 1_555
N3 C30 1_555 1_555
N4 C29 1_555 1_555
O2 H21 1_555 1_555
C28 C30 1_555 1_555
C29 C31 1_555 1_555
C30 N4 1_555 1_555
C31 N3 1_555 1_555
C32 C29 1_555 1_555
C33 N3 1_555 1_555
C34 C33 1_555 1_555
H22 C34 1_555 1_555
C35 O2 1_555 1_555
C36 C31 1_555 1_555
C37 C28 1_555 1_555
H23 C37 1_555 1_555
C38 C32 1_555 1_555
H24 C38 1_555 1_555
C39 C33 1_555 1_555
H25 C39 1_555 1_555
C40 C35 1_555 1_555
H26 C40 1_555 1_555
C41 C36 1_555 1_555
H27 C41 1_555 1_555
C42 C39 1_555 1_555
H28 C42 1_555 1_555
C43 C38 1_555 1_555
H29 C43 1_555 1_555
C44 C34 1_555 1_555
H30 C44 1_555 1_555
C45 C32 1_555 1_555
H31 C45 1_555 1_555
C46 C40 1_555 1_555
H32 C46 1_555 1_555
C47 C42 1_555 1_555
H33 C47 1_555 1_555
C48 H34 1_555 1_555
C49 C41 1_555 1_555
H35 C49 1_555 1_555
C50 C43 1_555 1_555
H36 C50 1_555 1_555
C51 C36 1_555 1_555
H37 C51 1_555 1_555
C52 C45 1_555 1_555
H38 C52 1_555 1_555
C53 C37 1_555 1_555
H39 C53 1_555 1_555
C54 C48 1_555 1_555
H40 C54 1_555 1_555
C5 C6 1_555 1_555
C9 C10 1_555 1_555
C11 C14 1_555 1_555
C20 C22 1_555 1_555
C23 C24 1_555 1_555
C23 C27 1_555 1_555
C25 C26 1_555 1_555
C28 C35 1_555 1_555
C44 C47 1_555 1_555
C46 C53 1_555 1_555
C48 C49 1_555 1_555
C50 C52 1_555 1_555
C51 C54 1_555 1_555

#END
