
#######################################################################
#
#                 Cambridge Crystallographic Data Centre
#                                CCDC 
#
#######################################################################
#
# If this CIF has been generated from an entry in the Cambridge 
# Structural Database, then it will include bibliographic, chemical, 
# crystal, experimental, refinement or atomic coordinate data resulting 
# from the CCDC's data processing and validation procedures.
#
#######################################################################

data_LAQXEJ
_chemical_formula_moiety         'C23 H23 N1 O5 S2'
_chemical_name_systematic        
N-(2-methyl-3-oxo-2-phenylbutyl)-N-(phenylsulfonyl)benzenesulfonamide
_symmetry_cell_setting           triclinic
_symmetry_space_group_name_H-M   'P -1'
_symmetry_Int_Tables_number      2
_space_group_name_Hall           '-P 1'
loop_
_symmetry_equiv_pos_site_id
_symmetry_equiv_pos_as_xyz
1 x,y,z
2 -x,-y,-z
_cell_length_a                   9.4684(7)
_cell_length_b                   10.4688(7)
_cell_length_c                   12.0392(8)
_cell_angle_alpha                72.1241(17)
_cell_angle_beta                 84.177(2)
_cell_angle_gamma                73.794(2)
_cell_volume                     1090.46
_cell_formula_units_Z            2
loop_
_atom_site_label
_atom_site_type_symbol
_atom_site_fract_x
_atom_site_fract_y
_atom_site_fract_z
C1 C -0.0786(3) -0.2045(2) 0.17742(18)
H1 H 0.0007 -0.2072 0.1251
C2 C -0.2069(3) -0.2253(3) 0.1491(2)
H2 H -0.2129 -0.2420 0.0784
C3 C -0.3262(3) -0.2214(2) 0.2256(2)
H3 H -0.4126 -0.2350 0.2066
C4 C -0.3158(3) -0.1971(2) 0.3306(2)
H4 H -0.3960 -0.1933 0.3821
C5 C -0.1858(2) -0.1782(2) 0.35982(18)
H5 H -0.1792 -0.1644 0.4316
C6 C -0.0660(2) -0.1797(2) 0.28282(16)
C7 C 0.0814(2) -0.1651(2) 0.31300(17)
C8 C 0.0783(3) -0.1475(2) 0.43545(17)
H6 H 0.0560 -0.2266 0.4925
H7 H 0.0044 -0.0647 0.4391
H8 H 0.1726 -0.1401 0.4512
C9 C 0.1981(3) -0.3028(2) 0.3174(2)
C10 C 0.1597(3) -0.4373(2) 0.3830(3)
H9 H 0.1568 -0.4879 0.3293
H10 H 0.0652 -0.4172 0.4206
H11 H 0.2328 -0.4922 0.4407
C11 C 0.1350(2) -0.0476(2) 0.22016(17)
H12 H 0.2415 -0.0707 0.2228
H13 H 0.1096 -0.0462 0.1437
C12 C 0.3057(2) 0.2224(2) 0.16040(17)
C13 C 0.4289(2) 0.1257(3) 0.1363(2)
H14 H 0.4476 0.0326 0.1796
C14 C 0.5236(3) 0.1701(3) 0.0468(2)
H15 H 0.6063 0.1065 0.0291
C15 C 0.4951(3) 0.3093(3) -0.0164(2)
H16 H 0.5594 0.3390 -0.0762
C16 C 0.3723(3) 0.4041(3) 0.0086(2)
H17 H 0.3544 0.4973 -0.0346
C17 C 0.2749(3) 0.3621(2) 0.09757(18)
H18 H 0.1916 0.4257 0.1145
C18 C -0.2092(2) 0.2580(2) 0.24832(17)
C19 C -0.2294(3) 0.3853(2) 0.2701(2)
H19 H -0.1670 0.4420 0.2361
C20 C -0.3436(3) 0.4255(2) 0.3431(2)
H20 H -0.3587 0.5103 0.3582
C21 C -0.4360(3) 0.3412(3) 0.3940(2)
H21 H -0.5118 0.3690 0.4439
C22 C -0.4160(3) 0.2155(3) 0.3711(2)
H22 H -0.4785 0.1592 0.4057
C23 C -0.3036(2) 0.1736(2) 0.29712(19)
H23 H -0.2912 0.0903 0.2801
N1 N 0.07441(19) 0.09597(17) 0.23281(14)
O1 O 0.27968(19) 0.05406(17) 0.36467(13)
O2 O 0.09862(18) 0.28455(16) 0.30979(13)
O3 O -0.02682(17) 0.32611(15) 0.07867(12)
O4 O -0.11782(17) 0.12134(16) 0.09595(12)
O5 O 0.3197(2) -0.30483(19) 0.2745(2)
S1 S 0.18951(6) 0.16615(5) 0.27893(4)
S2 S -0.07061(6) 0.20608(5) 0.14975(4)
loop_
_geom_bond_atom_site_label_1
_geom_bond_atom_site_label_2
_geom_bond_site_symmetry_1
_geom_bond_site_symmetry_2
C1 H1 1_555 1_555
C2 C1 1_555 1_555
H2 C2 1_555 1_555
C3 C2 1_555 1_555
H3 C3 1_555 1_555
C4 C3 1_555 1_555
H4 C4 1_555 1_555
C5 C4 1_555 1_555
H5 C5 1_555 1_555
C6 C1 1_555 1_555
C7 C6 1_555 1_555
C8 C7 1_555 1_555
H6 C8 1_555 1_555
H7 C8 1_555 1_555
H8 C8 1_555 1_555
C9 C7 1_555 1_555
C10 C9 1_555 1_555
H9 C10 1_555 1_555
H10 C10 1_555 1_555
H11 C10 1_555 1_555
C11 C7 1_555 1_555
H12 C11 1_555 1_555
H13 C11 1_555 1_555
C12 C13 1_555 1_555
C13 H14 1_555 1_555
C14 C13 1_555 1_555
H15 C14 1_555 1_555
C15 C14 1_555 1_555
H16 C15 1_555 1_555
C16 C15 1_555 1_555
H17 C16 1_555 1_555
C17 C12 1_555 1_555
H18 C17 1_555 1_555
C18 C19 1_555 1_555
C19 H19 1_555 1_555
C20 C19 1_555 1_555
H20 C20 1_555 1_555
C21 C20 1_555 1_555
H21 C21 1_555 1_555
C22 C21 1_555 1_555
H22 C22 1_555 1_555
C23 C18 1_555 1_555
H23 C23 1_555 1_555
N1 C11 1_555 1_555
O1 S1 1_555 1_555
O2 S1 1_555 1_555
O3 S2 1_555 1_555
O4 S2 1_555 1_555
O5 C9 1_555 1_555
S1 C12 1_555 1_555
S2 C18 1_555 1_555
C5 C6 1_555 1_555
C16 C17 1_555 1_555
C22 C23 1_555 1_555
N1 S1 1_555 1_555
N1 S2 1_555 1_555

#END
