
#######################################################################
#
#                 Cambridge Crystallographic Data Centre
#                                CCDC 
#
#######################################################################
#
# If this CIF has been generated from an entry in the Cambridge 
# Structural Database, then it will include bibliographic, chemical, 
# crystal, experimental, refinement or atomic coordinate data resulting 
# from the CCDC's data processing and validation procedures.
#
#######################################################################

data_LARHET
_chemical_formula_moiety         'C23 H32 F3 N1 O6 Si1'
_chemical_name_systematic        
'Methyl 6-(4-methoxybenzyl)-2,2,7a-trimethyl-5-oxo-7-(4,4,4-trifluoro-1-hydroxybutyl)octahydro[1,2]oxasilino[5,6-c]pyrrole-7-carboxylate'
_symmetry_cell_setting           orthorhombic
_symmetry_space_group_name_H-M   'P 21 21 21'
_symmetry_Int_Tables_number      19
_space_group_name_Hall           'P 2ac 2ab'
loop_
_symmetry_equiv_pos_site_id
_symmetry_equiv_pos_as_xyz
1 x,y,z
2 1/2-x,-y,1/2+z
3 -x,1/2+y,1/2-z
4 1/2+x,1/2-y,-z
_cell_length_a                   9.543(4)
_cell_length_b                   9.948(4)
_cell_length_c                   27.348(10)
_cell_angle_alpha                90
_cell_angle_beta                 90
_cell_angle_gamma                90
_cell_volume                     2596.25
_exptl_crystal_colour            colorless
_exptl_crystal_description       prismatic
_cell_formula_units_Z            4
loop_
_atom_site_label
_atom_site_type_symbol
_atom_site_fract_x
_atom_site_fract_y
_atom_site_fract_z
Si1 Si 1.17213(10) 0.79177(10) 0.92635(3)
F1 F 0.4025(6) 0.7840(12) 0.7367(2)
F2 F 0.4507(17) 0.7216(11) 0.6596(4)
F3 F 0.4481(10) 0.5842(9) 0.7144(3)
N1 N 0.9323(2) 0.5742(2) 0.83023(8)
O1 O 1.1222(2) 0.4410(2) 0.81641(7)
O2 O 1.03846(19) 0.80430(19) 0.88847(6)
O3 O 0.9287(2) 0.7134(2) 0.73922(6)
H1 H 0.9369 0.7743 0.7193
O4 O 0.7404(2) 0.6848(2) 0.89611(8)
O5 O 0.7508(2) 0.8850(2) 0.86022(7)
O6 O 0.9941(3) 0.1218(2) 0.99569(9)
C1 C 1.0679(3) 0.5528(3) 0.82156(9)
C2 C 0.8939(3) 0.7169(3) 0.82621(9)
C3 C 1.0374(3) 0.7873(3) 0.83656(9)
C4 C 1.1443(3) 0.6848(3) 0.81859(10)
H2 H 1.1605 0.7032 0.7839
C5 C 1.2890(3) 0.6811(4) 0.84361(12)
H3 H 1.3447 0.6104 0.8289
H4 H 1.3364 0.7658 0.8377
C6 C 1.2806(4) 0.6568(4) 0.89906(12)
H5 H 1.3738 0.6580 0.9132
H6 H 1.2387 0.5697 0.9056
C7 C 0.8306(3) 0.7512(3) 0.77549(9)
H7 H 0.8192 0.8490 0.7738
C8 C 0.6892(3) 0.6880(4) 0.76520(10)
H8 H 0.6244 0.7101 0.7913
H9 H 0.6986 0.5910 0.7639
C9 C 0.6317(3) 0.7400(4) 0.71652(12)
H10 H 0.6331 0.8375 0.7173
H11 H 0.6946 0.7115 0.6906
C10 C 0.4947(5) 0.6979(6) 0.70438(16)
C11 C 1.0568(3) 0.9251(3) 0.81330(11)
H12 H 0.9851 0.9848 0.8248
H13 H 1.0505 0.9171 0.7784
H14 H 1.1472 0.9602 0.8220
C12 C 1.0934(5) 0.7545(4) 0.98628(12)
H15 H 1.0218 0.8195 0.9933
H16 H 1.1644 0.7584 1.0111
H17 H 1.0528 0.6662 0.9857
C13 C 1.2698(4) 0.9517(4) 0.92929(14)
H18 H 1.3014 0.9758 0.8971
H19 H 1.3492 0.9415 0.9505
H20 H 1.2097 1.0211 0.9417
C14 C 0.7883(3) 0.7562(3) 0.86573(10)
C15 C 0.6511(4) 0.9344(4) 0.89565(13)
H21 H 0.5659 0.8835 0.8933
H22 H 0.6318 1.0274 0.8893
H23 H 0.6894 0.9250 0.9279
C16 C 0.8385(3) 0.4589(3) 0.83759(10)
H24 H 0.8380 0.4041 0.8082
H25 H 0.7438 0.4913 0.8429
C17 C 0.8823(3) 0.3729(3) 0.88071(10)
C18 C 0.8884(3) 0.2358(3) 0.87622(11)
H26 H 0.8666 0.1967 0.8463
C19 C 0.9257(4) 0.1544(3) 0.91473(12)
H27 H 0.9291 0.0616 0.9107
C20 C 0.9581(4) 0.2112(3) 0.95937(11)
C21 C 0.9547(4) 0.3465(3) 0.96433(11)
H28 H 0.9785 0.3855 0.9941
C22 C 0.9163(4) 0.4271(3) 0.92555(11)
H29 H 0.9132 0.5198 0.9297
C23 C 1.0293(6) 0.1727(5) 1.04218(14)
H30 H 1.1054 0.2352 1.0391
H31 H 1.0568 0.1000 1.0632
H32 H 0.9495 0.2177 1.0560
F4? F 0.3991(8) 0.6745(18) 0.7318(3)
F5? F 0.443(2) 0.7695(16) 0.6648(6)
F6? F 0.5282(15) 0.5479(9) 0.6915(4)
loop_
_geom_bond_atom_site_label_1
_geom_bond_atom_site_label_2
_geom_bond_site_symmetry_1
_geom_bond_site_symmetry_2
Si1 O2 1_555 1_555
F1 C10 1_555 1_555
F2 C10 1_555 1_555
F3 C10 1_555 1_555
N1 C1 1_555 1_555
O1 C1 1_555 1_555
O2 C3 1_555 1_555
O3 H1 1_555 1_555
O4 C14 1_555 1_555
O5 C14 1_555 1_555
O6 C20 1_555 1_555
C1 C4 1_555 1_555
C2 N1 1_555 1_555
C3 C2 1_555 1_555
C4 C3 1_555 1_555
H2 C4 1_555 1_555
C5 C4 1_555 1_555
H3 C5 1_555 1_555
H4 C5 1_555 1_555
C6 Si1 1_555 1_555
H5 C6 1_555 1_555
H6 C6 1_555 1_555
C7 O3 1_555 1_555
H7 C7 1_555 1_555
C8 C7 1_555 1_555
H8 C8 1_555 1_555
H9 C8 1_555 1_555
C9 C8 1_555 1_555
H10 C9 1_555 1_555
H11 C9 1_555 1_555
C10 C9 1_555 1_555
C11 C3 1_555 1_555
H12 C11 1_555 1_555
H13 C11 1_555 1_555
H14 C11 1_555 1_555
C12 Si1 1_555 1_555
H15 C12 1_555 1_555
H16 C12 1_555 1_555
H17 C12 1_555 1_555
C13 Si1 1_555 1_555
H18 C13 1_555 1_555
H19 C13 1_555 1_555
H20 C13 1_555 1_555
C14 C2 1_555 1_555
C15 O5 1_555 1_555
H21 C15 1_555 1_555
H22 C15 1_555 1_555
H23 C15 1_555 1_555
C16 N1 1_555 1_555
H24 C16 1_555 1_555
H25 C16 1_555 1_555
C17 C16 1_555 1_555
C18 C17 1_555 1_555
H26 C18 1_555 1_555
C19 C18 1_555 1_555
H27 C19 1_555 1_555
C20 C19 1_555 1_555
C21 C20 1_555 1_555
H28 C21 1_555 1_555
C22 C17 1_555 1_555
H29 C22 1_555 1_555
C23 O6 1_555 1_555
H30 C23 1_555 1_555
H31 C23 1_555 1_555
H32 C23 1_555 1_555
C2 C7 1_555 1_555
C5 C6 1_555 1_555
C21 C22 1_555 1_555

#END
