
#######################################################################
#
#                 Cambridge Crystallographic Data Centre
#                                CCDC 
#
#######################################################################
#
# If this CIF has been generated from an entry in the Cambridge 
# Structural Database, then it will include bibliographic, chemical, 
# crystal, experimental, refinement or atomic coordinate data resulting 
# from the CCDC's data processing and validation procedures.
#
#######################################################################

data_LARJEV
_chemical_formula_moiety         'C36 H37 N3 O5,H2 O1'
_chemical_name_systematic        
"Methyl 4'-((6-((3,4-dimethoxybenzyl)carbamoyl)-4-methyl-2-propyl-1H-benzimidazol-1-yl)methyl)biphenyl-2-carboxylate monohydrate"
_symmetry_cell_setting           triclinic
_symmetry_space_group_name_H-M   'P -1'
_symmetry_Int_Tables_number      2
_space_group_name_Hall           '-P 1'
loop_
_symmetry_equiv_pos_site_id
_symmetry_equiv_pos_as_xyz
1 x,y,z
2 -x,-y,-z
_cell_length_a                   11.4927(6)
_cell_length_b                   12.1538(6)
_cell_length_c                   14.1173(12)
_cell_angle_alpha                107.023(4)
_cell_angle_beta                 106.171(4)
_cell_angle_gamma                105.350(3)
_cell_volume                     1677.27
_exptl_crystal_colour            colorless
_exptl_crystal_description       bar
_chemical_melting_point          '126-127 deg.C'
_cell_formula_units_Z            2
loop_
_atom_site_label
_atom_site_type_symbol
_atom_site_fract_x
_atom_site_fract_y
_atom_site_fract_z
C1 C 0.5665(3) 0.3660(3) 0.1765(2)
H1 H 0.6085 0.3957 0.2531
H2 H 0.6308 0.3884 0.1471
H3 H 0.5232 0.2773 0.1466
C2 C 0.2114(3) 0.5743(3) 0.0931(3)
H4 H 0.2168 0.6270 0.1611
H5 H 0.1256 0.5102 0.0547
H6 H 0.2278 0.6227 0.0519
C3 C 0.3126(2) 0.44109(18) 0.02143(16)
C4 C 0.40399(19) 0.38716(17) 0.04384(15)
C5 C 0.4193(2) 0.30613(18) -0.03913(16)
H7 H 0.4802 0.2699 -0.0237
C6 C 0.3450(2) 0.27804(19) -0.14531(16)
C7 C 0.2557(3) 0.3329(2) -0.16642(19)
H8 H 0.2053 0.3148 -0.2372
C8 C 0.2398(2) 0.4144(2) -0.0838(2)
H9 H 0.1797 0.4514 -0.0994
C9 C 0.3650(3) 0.1906(2) -0.23483(19)
H10 H 0.4072 0.1406 -0.2077
H11 H 0.2807 0.1351 -0.2915
C10 C 0.4550(2) 0.19880(17) -0.37000(15)
C11 C 0.53400(19) 0.27614(17) -0.41190(14)
C12 C 0.5696(2) 0.21322(18) -0.49374(15)
H12 H 0.5466 0.1278 -0.5153
C13 C 0.6367(2) 0.27259(19) -0.54303(15)
C14 C 0.66965(18) 0.40166(18) -0.50725(15)
C15 C 0.63652(18) 0.46376(17) -0.42483(14)
C16 C 0.56892(19) 0.40394(17) -0.37554(15)
H13 H 0.5479 0.4472 -0.3208
C17 C 0.7417(2) 0.5948(2) -0.48079(16)
C18 C 0.8069(2) 0.7135(2) -0.4889(2)
H14 H 0.7564 0.7654 -0.4789
H15 H 0.8068 0.6950 -0.5606
C19 C 0.9465(3) 0.7856(3) -0.4078(3)
H16 H 0.9937 0.7301 -0.4088
H17 H 0.9461 0.8180 -0.3364
C20 C 1.0161(4) 0.8928(3) -0.4323(4)
H18 H 1.1039 0.9369 -0.3795
H19 H 0.9700 0.9482 -0.4306
H20 H 1.0183 0.8607 -0.5023
C21 C 0.6837(2) 0.68860(18) -0.32298(17)
H21 H 0.6004 0.6633 -0.3156
H22 H 0.6919 0.7598 -0.3423
C22 C 0.79224(18) 0.72752(16) -0.21597(16)
C23 C 0.8879(2) 0.67810(19) -0.20364(17)
H23 H 0.8857 0.6168 -0.2627
C24 C 0.9875(2) 0.71884(19) -0.10399(17)
H24 H 1.0511 0.6845 -0.0974
C25 C 0.99373(19) 0.80976(17) -0.01410(16)
C26 C 0.8958(2) 0.85728(19) -0.02685(17)
H25 H 0.8967 0.9172 0.0324
C27 C 0.7968(2) 0.81710(18) -0.12615(18)
H26 H 0.7325 0.8507 -0.1327
C28 C 1.0981(2) 0.85405(18) 0.09413(16)
C29 C 1.0618(3) 0.8626(3) 0.1813(2)
H27 H 0.9742 0.8433 0.1710
C30 C 1.1548(4) 0.8998(3) 0.2837(2)
H28 H 1.1282 0.9055 0.3408
C31 C 1.2825(3) 0.9277(3) 0.3016(2)
H29 H 1.3437 0.9528 0.3705
C32 C 1.3213(3) 0.9186(2) 0.2172(2)
H30 H 1.4091 0.9358 0.2290
C33 C 1.2310(2) 0.88403(19) 0.11370(17)
C34 C 1.2859(2) 0.8833(2) 0.0301(2)
C35 C 1.2784(4) 0.9314(4) -0.1213(3)
H31 H 1.2373 0.9723 -0.1608
H32 H 1.2534 0.8464 -0.1677
H33 H 1.3717 0.9727 -0.0941
C36 C 0.6721(3) 0.2031(2) -0.6302(2)
H34 H 0.7181 0.2601 -0.6545
H35 H 0.5939 0.1417 -0.6892
H36 H 0.7270 0.1630 -0.6030
N1 N 0.44498(19) 0.25855(16) -0.27848(14)
N2 N 0.73525(17) 0.48592(17) -0.54101(14)
N3 N 0.68329(16) 0.58754(15) -0.40945(13)
O2 O 1.3674(3) 0.8414(3) 0.0201(2)
O3 O 0.30550(16) 0.51999(14) 0.11006(13)
O4 O 0.47268(16) 0.42058(16) 0.15060(12)
O5 O 0.39815(18) 0.08603(14) -0.41896(13)
O6 O 1.23782(17) 0.93585(16) -0.03325(14)
H37 H 0.512(3) 0.335(3) -0.229(2)
O1 O 0.8861(4) 0.4530(5) -0.6781(4)
O7? O 0.9895(5) 0.5526(6) -0.6476(5)
loop_
_geom_bond_atom_site_label_1
_geom_bond_atom_site_label_2
_geom_bond_site_symmetry_1
_geom_bond_site_symmetry_2
C1 H1 1_555 1_555
H2 C1 1_555 1_555
H3 C1 1_555 1_555
C2 H4 1_555 1_555
H5 C2 1_555 1_555
H6 C2 1_555 1_555
C3 C4 1_555 1_555
C4 C5 1_555 1_555
C5 H7 1_555 1_555
C6 C5 1_555 1_555
C7 C6 1_555 1_555
H8 C7 1_555 1_555
C8 C3 1_555 1_555
H9 C8 1_555 1_555
C9 C6 1_555 1_555
H10 C9 1_555 1_555
H11 C9 1_555 1_555
C10 C11 1_555 1_555
C11 C12 1_555 1_555
C12 H12 1_555 1_555
C13 C12 1_555 1_555
C14 C13 1_555 1_555
C15 C14 1_555 1_555
C16 C11 1_555 1_555
H13 C16 1_555 1_555
C17 C18 1_555 1_555
C18 H14 1_555 1_555
H15 C18 1_555 1_555
C19 C18 1_555 1_555
H16 C19 1_555 1_555
H17 C19 1_555 1_555
C20 C19 1_555 1_555
H18 C20 1_555 1_555
H19 C20 1_555 1_555
H20 C20 1_555 1_555
C21 H21 1_555 1_555
H22 C21 1_555 1_555
C22 C21 1_555 1_555
C23 C22 1_555 1_555
H23 C23 1_555 1_555
C24 C23 1_555 1_555
H24 C24 1_555 1_555
C25 C24 1_555 1_555
C26 C25 1_555 1_555
H25 C26 1_555 1_555
C27 C22 1_555 1_555
H26 C27 1_555 1_555
C28 C25 1_555 1_555
C29 C28 1_555 1_555
H27 C29 1_555 1_555
C30 C29 1_555 1_555
H28 C30 1_555 1_555
C31 C30 1_555 1_555
H29 C31 1_555 1_555
C32 C31 1_555 1_555
H30 C32 1_555 1_555
C33 C28 1_555 1_555
C34 C33 1_555 1_555
C35 H31 1_555 1_555
H32 C35 1_555 1_555
H33 C35 1_555 1_555
C36 C13 1_555 1_555
H34 C36 1_555 1_555
H35 C36 1_555 1_555
H36 C36 1_555 1_555
N1 C9 1_555 1_555
N2 C14 1_555 1_555
N3 C15 1_555 1_555
O2 C34 1_555 1_555
O3 C2 1_555 1_555
O4 C1 1_555 1_555
O5 C10 1_555 1_555
O6 C34 1_555 1_555
H37 N1 1_555 1_555
C3 O3 1_555 1_555
C4 O4 1_555 1_555
C7 C8 1_555 1_555
C10 N1 1_555 1_555
C15 C16 1_555 1_555
C17 N2 1_555 1_555
C17 N3 1_555 1_555
C21 N3 1_555 1_555
C26 C27 1_555 1_555
C32 C33 1_555 1_555
C35 O6 1_555 1_555

#END
