
#######################################################################
#
#                 Cambridge Crystallographic Data Centre
#                                CCDC 
#
#######################################################################
#
# If this CIF has been generated from an entry in the Cambridge 
# Structural Database, then it will include bibliographic, chemical, 
# crystal, experimental, refinement or atomic coordinate data resulting 
# from the CCDC's data processing and validation procedures.
#
#######################################################################

data_LARKEW
_chemical_formula_moiety         'C17 H21 Cl1 N1 O4 P1,C3 H7 N1 O1'
_chemical_name_systematic        
'Diethyl (((4-chlorophenyl)amino)(2-hydroxyphenyl)methyl)phosphonate N,N-dimethylformamide solvate'
_symmetry_cell_setting           triclinic
_symmetry_space_group_name_H-M   'P -1'
_symmetry_Int_Tables_number      2
_space_group_name_Hall           '-P 1'
loop_
_symmetry_equiv_pos_site_id
_symmetry_equiv_pos_as_xyz
1 x,y,z
2 -x,-y,-z
_cell_length_a                   8.1795(16)
_cell_length_b                   11.188(2)
_cell_length_c                   14.126(3)
_cell_angle_alpha                109.29(3)
_cell_angle_beta                 96.41(3)
_cell_angle_gamma                104.07(3)
_cell_volume                     1157.22
_exptl_crystal_colour            colorless
_exptl_crystal_description       block
_cell_formula_units_Z            2
loop_
_atom_site_label
_atom_site_type_symbol
_atom_site_fract_x
_atom_site_fract_y
_atom_site_fract_z
P1 P 0.5194(2) 0.27413(14) 0.50233(9)
O1 O 0.4575(5) 0.2183(4) 0.7588(3)
H1 H 0.4340 0.1945 0.8059
O2 O 0.4468(7) 0.3307(4) 0.4387(2)
O3 O 0.4163(9) 0.1340(4) 0.4900(3)
O4 O 0.7062(9) 0.2551(7) 0.4906(4)
Cl1 Cl 1.10832(19) 0.84919(15) 1.06624(11)
N1 N 0.6670(5) 0.5000(4) 0.6603(3)
H2 H 0.6716 0.5300 0.6116
C1 C 0.5585(6) 0.3662(4) 0.6384(3)
H3 H 0.6251 0.3247 0.6727
C2 C 0.3925(6) 0.3591(4) 0.6778(3)
C3 C 0.3482(6) 0.2841(4) 0.7380(3)
C4 C 0.1981(7) 0.2799(5) 0.7749(4)
H4 H 0.1697 0.2302 0.8152
C5 C 0.0923(8) 0.3473(7) 0.7529(5)
H5 H -0.0078 0.3437 0.7786
C6 C 0.1303(8) 0.4204(7) 0.6938(6)
H6 H 0.0560 0.4658 0.6787
C7 C 0.2817(7) 0.4270(5) 0.6555(4)
H7 H 0.3081 0.4770 0.6151
C8 C 0.7629(5) 0.5801(4) 0.7574(3)
C9 C 0.7793(6) 0.5363(4) 0.8383(3)
H8 H 0.7184 0.4501 0.8291
C10 C 0.8847(6) 0.6193(5) 0.9318(3)
H9 H 0.8953 0.5883 0.9850
C11 C 0.9732(6) 0.7460(5) 0.9472(4)
C12 C 0.9561(7) 0.7928(5) 0.8699(4)
H10 H 1.0156 0.8799 0.8809
C13 C 0.8512(6) 0.7116(5) 0.7761(4)
H11 H 0.8390 0.7450 0.7244
C14 C 0.808(3) 0.263(2) 0.4125(12)
H12 H 0.7424 0.2770 0.3577
H13 H 0.9131 0.3359 0.4426
C15 C 0.845(3) 0.146(2) 0.3749(13)
H14 H 0.7513 0.0745 0.3745
H15 H 0.9482 0.1501 0.4176
H16 H 0.8626 0.1301 0.3063
C16 C 0.273(2) 0.057(2) 0.4302(14)
H17 H 0.2290 -0.0061 0.4617
H18 H 0.1961 0.1110 0.4350
C17 C 0.251(3) -0.0109(14) 0.3363(16)
H19 H 0.1405 -0.0774 0.3141
H20 H 0.3399 -0.0530 0.3252
H21 H 0.2547 0.0460 0.2980
C18 C 0.6026(8) 0.8793(6) 1.0185(5)
H22 H 0.6484 0.9499 0.9989
C19 C 0.4490(9) 0.7726(7) 0.8455(5)
H23 H 0.3275 0.7607 0.8299
H24 H 0.4760 0.7008 0.7968
H25 H 0.5114 0.8550 0.8418
C20 C 0.4237(9) 0.6587(6) 0.9688(5)
H26 H 0.4855 0.6664 1.0335
H27 H 0.4312 0.5815 0.9156
H28 H 0.3049 0.6505 0.9717
N2 N 0.4975(5) 0.7746(4) 0.9474(3)
O5 O 0.6496(6) 0.8972(4) 1.1094(3)
loop_
_geom_bond_atom_site_label_1
_geom_bond_atom_site_label_2
_geom_bond_site_symmetry_1
_geom_bond_site_symmetry_2
P1 O2 1_555 1_555
O1 H1 1_555 1_555
O3 P1 1_555 1_555
O4 P1 1_555 1_555
Cl1 C11 1_555 1_555
N1 H2 1_555 1_555
C1 P1 1_555 1_555
H3 C1 1_555 1_555
C2 C1 1_555 1_555
C3 O1 1_555 1_555
C4 C3 1_555 1_555
H4 C4 1_555 1_555
C5 C4 1_555 1_555
H5 C5 1_555 1_555
C6 C5 1_555 1_555
H6 C6 1_555 1_555
C7 C2 1_555 1_555
H7 C7 1_555 1_555
C8 N1 1_555 1_555
C9 C8 1_555 1_555
H8 C9 1_555 1_555
C10 C9 1_555 1_555
H9 C10 1_555 1_555
C11 C10 1_555 1_555
C12 C11 1_555 1_555
H10 C12 1_555 1_555
C13 C8 1_555 1_555
H11 C13 1_555 1_555
C14 O4 1_555 1_555
H12 C14 1_555 1_555
H13 C14 1_555 1_555
C15 C14 1_555 1_555
H14 C15 1_555 1_555
H15 C15 1_555 1_555
H16 C15 1_555 1_555
C16 O3 1_555 1_555
H17 C16 1_555 1_555
H18 C16 1_555 1_555
C17 C16 1_555 1_555
H19 C17 1_555 1_555
H20 C17 1_555 1_555
H21 C17 1_555 1_555
C18 H22 1_555 1_555
C19 H23 1_555 1_555
H24 C19 1_555 1_555
H25 C19 1_555 1_555
C20 H26 1_555 1_555
H27 C20 1_555 1_555
H28 C20 1_555 1_555
N2 C18 1_555 1_555
O5 C18 1_555 1_555
N1 C1 1_555 1_555
C2 C3 1_555 1_555
C6 C7 1_555 1_555
C12 C13 1_555 1_555
C19 N2 1_555 1_555
C20 N2 1_555 1_555

#END
