
#######################################################################
#
#                 Cambridge Crystallographic Data Centre
#                                CCDC 
#
#######################################################################
#
# If this CIF has been generated from an entry in the Cambridge 
# Structural Database, then it will include bibliographic, chemical, 
# crystal, experimental, refinement or atomic coordinate data resulting 
# from the CCDC's data processing and validation procedures.
#
#######################################################################

data_LARVAB
_chemical_formula_moiety         'C16 H18 N2 O4 Te1'
_chemical_name_systematic        bis(o-Aminobenzoato)-dimethyl-tellurium
_symmetry_cell_setting           monoclinic
_symmetry_space_group_name_H-M   'P 21/n'
_symmetry_Int_Tables_number      14
_space_group_name_Hall           '-P 2yn'
loop_
_symmetry_equiv_pos_site_id
_symmetry_equiv_pos_as_xyz
1 x,y,z
2 1/2-x,1/2+y,1/2-z
3 -x,-y,-z
4 1/2+x,1/2-y,1/2+z
_cell_length_a                   10.202(1)
_cell_length_b                   24.538(3)
_cell_length_c                   6.706(1)
_cell_angle_alpha                90
_cell_angle_beta                 98.7(1)
_cell_angle_gamma                90
_cell_volume                     1659.44
_exptl_crystal_colour            colorless
_chemical_melting_point          210-212deg.C
_cell_formula_units_Z            4
loop_
_atom_site_label
_atom_site_type_symbol
_atom_site_fract_x
_atom_site_fract_y
_atom_site_fract_z
Te1 Te 0.17963(7) -0.04182(4) -0.02890(10)
O1 O 0.2733(4) 0.0250(2) 0.1395(7)
O2 O 0.1156(4) 0.0092(2) 0.3264(7)
O3 O 0.1388(4) -0.1151(2) -0.2140(7)
O4 O -0.0110(6) -0.1311(2) -0.0164(8)
N1 N 0.1236(5) 0.0653(2) 0.6777(8)
N2 N -0.1815 -0.2122 -0.0992
C1 C 0.2139(6) 0.0357(2) 0.2969(10)
C2 C 0.2739(5) 0.0801(2) 0.4298(8)
C3 C 0.2282(5) 0.0921(2) 0.6145(9)
C4 C 0.2973(7) 0.1321(3) 0.7384(12)
C5 C 0.3995(7) 0.1603(3) 0.6836(12)
C6 C 0.4414(6) 0.1499(3) 0.4999(12)
C7 C 0.3812(6) 0.1099(2) 0.3769(10)
C8 C 0.0376(6) -0.1421(2) -0.1686(10)
C9 C -0.0176(5) -0.1859(2) -0.3107(9)
C10 C -0.1265(6) -0.2178(2) -0.2745(10)
C11 C -0.1793(7) -0.2552(3) -0.4250(15)
C12 C -0.1271(8) -0.2619(3) -0.6000(14)
C13 C -0.0200(8) -0.2324(3) -0.6302(12)
C14 C 0.0338(6) -0.1943(2) -0.4906(10)
C15 C 0.3422(8) -0.0355(4) -0.1914(17)
C16 C 0.2726(17) -0.0920(5) 0.2007(20)
N3? N 0.1421 -0.1615 -0.5348
loop_
_geom_bond_atom_site_label_1
_geom_bond_atom_site_label_2
_geom_bond_site_symmetry_1
_geom_bond_site_symmetry_2
Te1 O1 1_555 1_555
O1 C1 1_555 1_555
O2 C1 1_555 1_555
O3 Te1 1_555 1_555
O4 C8 1_555 1_555
N1 C3 1_555 1_555
N2 C10 1_555 1_555
C1 C2 1_555 1_555
C2 C3 1_555 1_555
C3 C4 1_555 1_555
C4 C5 1_555 1_555
C5 C6 1_555 1_555
C6 C7 1_555 1_555
C7 C2 1_555 1_555
C8 O3 1_555 1_555
C9 C8 1_555 1_555
C10 C9 1_555 1_555
C11 C10 1_555 1_555
C12 C11 1_555 1_555
C13 C12 1_555 1_555
C14 C9 1_555 1_555
C15 Te1 1_555 1_555
C16 Te1 1_555 1_555
C13 C14 1_555 1_555

#END
