
#######################################################################
#
#                 Cambridge Crystallographic Data Centre
#                                CCDC 
#
#######################################################################
#
# If this CIF has been generated from an entry in the Cambridge 
# Structural Database, then it will include bibliographic, chemical, 
# crystal, experimental, refinement or atomic coordinate data resulting 
# from the CCDC's data processing and validation procedures.
#
#######################################################################

data_LARVUY
_chemical_formula_moiety         'C12 H24 O6,2(C5 H2 N4)'
_chemical_name_systematic        
'bis(1H-imidazole-4,5-dicarbonitrile) 18-crown-6'
_symmetry_cell_setting           triclinic
_symmetry_space_group_name_H-M   'P -1'
_symmetry_Int_Tables_number      2
_space_group_name_Hall           '-P 1'
loop_
_symmetry_equiv_pos_site_id
_symmetry_equiv_pos_as_xyz
1 x,y,z
2 -x,-y,-z
_cell_length_a                   10.354
_cell_length_b                   10.530
_cell_length_c                   13.562
_cell_angle_alpha                77.99
_cell_angle_beta                 82.82
_cell_angle_gamma                65.80
_cell_volume                     1317.86
_cell_formula_units_Z            2
loop_
_atom_site_label
_atom_site_type_symbol
_atom_site_fract_x
_atom_site_fract_y
_atom_site_fract_z
O1 O 0.4191(3) 0.9159(3) 0.1983(2)
O2 O 0.4092(3) 0.7633(3) 0.0570(2)
O3 O 0.5664(3) 1.1039(3) 0.1430(2)
C1 C 0.5033(5) 0.9362(4) 0.2623(3)
H1 H 0.6009 0.8703 0.2552
H2 H 0.4706 0.9180 0.3319
C2 C 0.4062(4) 0.7847(4) 0.2273(3)
H3 H 0.3564 0.7812 0.2927
H4 H 0.4995 0.7084 0.2327
C3 C 0.5695(5) 1.2398(5) 0.1199(3)
H5 H 0.6102 1.2558 0.1744
H6 H 0.4741 1.3115 0.1115
C4 C 0.3263(5) 0.7676(4) 0.1504(3)
H7 H 0.3109 0.6809 0.1714
H8 H 0.2348 0.8463 0.1422
C5 C 0.4955(5) 1.0835(4) 0.2367(3)
H9 H 0.3971 1.1494 0.2339
H10 H 0.5385 1.1019 0.2888
C6 C 0.3423(5) 0.7515(5) -0.0241(3)
H11 H 0.2488 0.8271 -0.0314
H12 H 0.3317 0.6621 -0.0100
O1A O 0.5809(3) 1.0841(3) -0.1983(2)
O2A O 0.5908(3) 1.2367(3) -0.0570(2)
O3A O 0.4336(3) 0.8961(3) -0.1430(2)
C1A C 0.4967(5) 1.0638(4) -0.2623(3)
H1A H 0.3991 1.1297 -0.2552
H2A H 0.5294 1.0820 -0.3319
C2A C 0.5938(4) 1.2153(4) -0.2273(3)
H3A H 0.6436 1.2188 -0.2927
H4A H 0.5005 1.2916 -0.2327
C3A C 0.4305(5) 0.7602(5) -0.1199(3)
H5A H 0.3898 0.7442 -0.1744
H6A H 0.5259 0.6885 -0.1115
C4A C 0.6737(5) 1.2324(4) -0.1504(3)
H7A H 0.6891 1.3191 -0.1714
H8A H 0.7652 1.1537 -0.1422
C5A C 0.5045(5) 0.9165(4) -0.2367(3)
H9A H 0.6029 0.8506 -0.2339
H10A H 0.4615 0.8981 -0.2888
C6A C 0.6577(5) 1.2485(5) 0.0241(3)
H11A H 0.7512 1.1729 0.0314
H12A H 0.6683 1.3379 0.0100
O4 O 0.0681(3) 0.1782(3) 0.3649(2)
O5 O -0.0208(4) -0.2666(4) 0.4547(2)
O6 O 0.0204(3) -0.0476(3) 0.3066(2)
C7 C -0.0267(5) 0.0924(4) 0.2550(3)
H13 H -0.1215 0.1454 0.2805
H14 H -0.0319 0.0931 0.1839
C8 C -0.0676(5) -0.1143(5) 0.2939(4)
H15 H -0.0678 -0.1160 0.2227
H16 H -0.1637 -0.0591 0.3158
C9 C 0.1151(5) 0.2790(5) 0.3781(4)
H17 H 0.0480 0.3722 0.3502
H18 H 0.2054 0.2635 0.3415
C10 C -0.0247(6) -0.2565(5) 0.3489(4)
H19 H -0.0898 -0.2958 0.3364
H20 H 0.0687 -0.3132 0.3234
C11 C 0.0659(4) 0.1624(4) 0.2657(3)
H21 H 0.1615 0.1075 0.2425
H22 H 0.0340 0.2548 0.2231
C12 C 0.1313(6) 0.2742(6) 0.4839(4)
H23 H 0.2164 0.1929 0.5062
H24 H 0.1445 0.3581 0.4905
O4A O -0.0681(3) -0.1782(3) 0.6351(2)
O5A O 0.0208(4) 0.2666(4) 0.5453(2)
O6A O -0.0204(3) 0.0476(3) 0.6934(2)
C7A C 0.0267(5) -0.0924(4) 0.7450(3)
H13A H 0.1215 -0.1454 0.7195
H14A H 0.0319 -0.0931 0.8161
C8A C 0.0676(5) 0.1143(5) 0.7061(4)
H15A H 0.0678 0.1160 0.7773
H16A H 0.1637 0.0591 0.6842
C9A C -0.1151(5) -0.2790(5) 0.6219(4)
H17A H -0.0480 -0.3722 0.6498
H18A H -0.2054 -0.2635 0.6585
C10A C 0.0247(6) 0.2565(5) 0.6511(4)
H19A H 0.0898 0.2958 0.6636
H20A H -0.0687 0.3132 0.6766
C11A C -0.0659(4) -0.1624(4) 0.7343(3)
H21A H -0.1615 -0.1075 0.7575
H22A H -0.0340 -0.2548 0.7769
C12A C -0.1313(6) -0.2742(6) 0.5161(4)
H23A H -0.2164 -0.1929 0.4938
H24A H -0.1445 -0.3581 0.5095
N1 N 0.7458(4) 0.4324(4) 0.1675(3)
N2 N 1.1483(4) 0.5094(5) 0.1226(3)
N3 N 0.6761(3) 0.7750(3) 0.0391(2)
H25 H 0.5888 0.7886 0.0364
N4 N 0.8709(4) 0.8187(4) 0.0178(3)
C13 C 0.8997(5) 0.6834(4) 0.0688(3)
C14 C 0.7600(4) 0.5322(4) 0.1295(3)
C15 C 0.7809(4) 0.6556(4) 0.0823(3)
C16 C 1.0394(5) 0.5869(5) 0.0998(3)
C17 C 0.7350(5) 0.8677(5) 0.0017(3)
H26 H 0.6846 0.9583 -0.0325
N5 N 0.6252(4) 0.1643(4) 0.4657(3)
N6 N 0.7942(3) 0.2311(4) 0.4905(2)
H27 H 0.8717 0.2263 0.5110
N7 N 0.3563(4) 0.4630(4) 0.3396(3)
N8 N 0.7131(4) 0.5842(4) 0.3780(3)
C18 C 0.4597(5) 0.3908(5) 0.3765(3)
C19 C 0.5916(4) 0.3036(4) 0.4249(3)
C20 C 0.7052(4) 0.4784(5) 0.4054(3)
C21 C 0.6945(4) 0.3465(4) 0.4384(3)
C22 C 0.7491(5) 0.1266(5) 0.5041(3)
H28 H 0.8003 0.0358 0.5375
loop_
_geom_bond_atom_site_label_1
_geom_bond_atom_site_label_2
_geom_bond_site_symmetry_1
_geom_bond_site_symmetry_2
O1 C1 1_555 1_555
O2 C4 1_555 1_555
O3 C3 1_555 1_555
C1 H1 1_555 1_555
H2 C1 1_555 1_555
C2 O1 1_555 1_555
H3 C2 1_555 1_555
H4 C2 1_555 1_555
C3 H5 1_555 1_555
H6 C3 1_555 1_555
C4 C2 1_555 1_555
H7 C4 1_555 1_555
H8 C4 1_555 1_555
C5 O3 1_555 1_555
H9 C5 1_555 1_555
H10 C5 1_555 1_555
C6 O2 1_555 1_555
H11 C6 1_555 1_555
H12 C6 1_555 1_555
O4 C9 1_555 1_555
O5 C10 1_555 1_555
O6 C7 1_555 1_555
C7 H13 1_555 1_555
H14 C7 1_555 1_555
C8 O6 1_555 1_555
H15 C8 1_555 1_555
H16 C8 1_555 1_555
C9 H17 1_555 1_555
H18 C9 1_555 1_555
C10 C8 1_555 1_555
H19 C10 1_555 1_555
H20 C10 1_555 1_555
C11 O4 1_555 1_555
H21 C11 1_555 1_555
H22 C11 1_555 1_555
C12 C9 1_555 1_555
H23 C12 1_555 1_555
H24 C12 1_555 1_555
N1 C14 1_555 1_555
N2 C16 1_555 1_555
N3 H25 1_555 1_555
N4 C13 1_555 1_555
C13 C15 1_555 1_555
C14 C15 1_555 1_555
C15 N3 1_555 1_555
C16 C13 1_555 1_555
C17 N3 1_555 1_555
H26 C17 1_555 1_555
N5 C19 1_555 1_555
N6 H27 1_555 1_555
N7 C18 1_555 1_555
N8 C20 1_555 1_555
C18 C19 1_555 1_555
C19 C21 1_555 1_555
C20 C21 1_555 1_555
C21 N6 1_555 1_555
C22 N5 1_555 1_555
H28 C22 1_555 1_555
O1A C1A 1_555 1_555
O2A C4A 1_555 1_555
O3A C3A 1_555 1_555
C1A H1A 1_555 1_555
H2A C1A 1_555 1_555
C2A O1A 1_555 1_555
H3A C2A 1_555 1_555
H4A C2A 1_555 1_555
C3A C6 1_555 1_555
H5A C3A 1_555 1_555
H6A C3A 1_555 1_555
C4A C2A 1_555 1_555
H7A C4A 1_555 1_555
H8A C4A 1_555 1_555
C5A O3A 1_555 1_555
H9A C5A 1_555 1_555
H10A C5A 1_555 1_555
C6A C3 1_555 1_555
H11A C6A 1_555 1_555
H12A C6A 1_555 1_555
O4A C9A 1_555 1_555
O5A C12 1_555 1_555
O6A C7A 1_555 1_555
C7A H13A 1_555 1_555
H14A C7A 1_555 1_555
C8A O6A 1_555 1_555
H15A C8A 1_555 1_555
H16A C8A 1_555 1_555
C9A H17A 1_555 1_555
H18A C9A 1_555 1_555
C10A O5A 1_555 1_555
H19A C10A 1_555 1_555
H20A C10A 1_555 1_555
C11A O4A 1_555 1_555
H21A C11A 1_555 1_555
H22A C11A 1_555 1_555
C12A O5 1_555 1_555
H23A C12A 1_555 1_555
H24A C12A 1_555 1_555
C1 C5 1_555 1_555
C7 C11 1_555 1_555
N4 C17 1_555 1_555
N6 C22 1_555 1_555
O2A C6A 1_555 1_555
C1A C5A 1_555 1_555
C7A C11A 1_555 1_555
C8A C10A 1_555 1_555
C9A C12A 1_555 1_555

#END
