
#######################################################################
#
#                 Cambridge Crystallographic Data Centre
#                                CCDC 
#
#######################################################################
#
# If this CIF has been generated from an entry in the Cambridge 
# Structural Database, then it will include bibliographic, chemical, 
# crystal, experimental, refinement or atomic coordinate data resulting 
# from the CCDC's data processing and validation procedures.
#
#######################################################################

data_LARWIN
_chemical_formula_moiety         'C5 H2 N4,H2 O1'
_chemical_name_systematic        '1H-imidazole-4,5-dicarbonitrile monohydrate'
_symmetry_cell_setting           orthorhombic
_symmetry_space_group_name_H-M   'P n a 21'
_symmetry_Int_Tables_number      33
_space_group_name_Hall           'P 2c -2n'
loop_
_symmetry_equiv_pos_site_id
_symmetry_equiv_pos_as_xyz
1 x,y,z
2 -x,-y,1/2+z
3 1/2+x,1/2-y,z
4 1/2-x,1/2+y,1/2+z
_cell_length_a                   11.953(2)
_cell_length_b                   4.8340(10)
_cell_length_c                   11.514(2)
_cell_angle_alpha                90
_cell_angle_beta                 90
_cell_angle_gamma                90
_cell_volume                     665.288
_cell_formula_units_Z            4
loop_
_atom_site_label
_atom_site_type_symbol
_atom_site_fract_x
_atom_site_fract_y
_atom_site_fract_z
C1 C 0.22530(16) 0.2109(4) 0.73848(16)
N1 N 0.07642(14) 0.0587(4) 0.82710(16)
H1 H 0.0173 -0.0325 0.8459
N2 N 0.21395(15) 0.3651(4) 0.83728(16)
C2 C 0.11832(17) -0.1765(4) 0.6419(2)
C3 C 0.14039(15) 0.0207(4) 0.73047(19)
N3 N 0.10535(18) -0.3320(5) 0.5693(2)
C4 C 0.12329(17) 0.2654(5) 0.8871(2)
H2 H 0.0948 0.3319 0.9569
C5 C 0.31513(19) 0.2516(5) 0.6584(2)
N4 N 0.38547(18) 0.2860(6) 0.5934(2)
O1 O 0.60719(14) 0.2518(4) 0.37580(16)
H3 H 0.665(3) 0.352(7) 0.377(3)
H4 H 0.607(3) 0.134(9) 0.431(4)
loop_
_geom_bond_atom_site_label_1
_geom_bond_atom_site_label_2
_geom_bond_site_symmetry_1
_geom_bond_site_symmetry_2
C1 N2 1_555 1_555
N1 H1 1_555 1_555
N2 C4 1_555 1_555
C2 C3 1_555 1_555
C3 C1 1_555 1_555
N3 C2 1_555 1_555
C4 N1 1_555 1_555
H2 C4 1_555 1_555
C5 C1 1_555 1_555
N4 C5 1_555 1_555
O1 H3 1_555 1_555
H4 O1 1_555 1_555
N1 C3 1_555 1_555

#END
