
#######################################################################
#
#                 Cambridge Crystallographic Data Centre
#                                CCDC 
#
#######################################################################
#
# If this CIF has been generated from an entry in the Cambridge 
# Structural Database, then it will include bibliographic, chemical, 
# crystal, experimental, refinement or atomic coordinate data resulting 
# from the CCDC's data processing and validation procedures.
#
#######################################################################

data_LASBUC
_chemical_formula_moiety         'C40 H30 N4,2(C4 H8 O2)'
_chemical_name_systematic        
'tetrakis(3-Indolyl)p-xylene ethyl acetate solvate'
_symmetry_cell_setting           triclinic
_symmetry_space_group_name_H-M   'P -1'
_symmetry_Int_Tables_number      2
_space_group_name_Hall           '-P 1'
loop_
_symmetry_equiv_pos_site_id
_symmetry_equiv_pos_as_xyz
1 x,y,z
2 -x,-y,-z
_cell_length_a                   7.700(1)
_cell_length_b                   11.025(3)
_cell_length_c                   12.080(2)
_cell_angle_alpha                89.11(2)
_cell_angle_beta                 81.83(1)
_cell_angle_gamma                89.87(2)
_cell_volume                     1014.97
_exptl_crystal_colour            colorless
_chemical_melting_point          138-140deg.C
_cell_formula_units_Z            1
loop_
_atom_site_label
_atom_site_type_symbol
_atom_site_fract_x
_atom_site_fract_y
_atom_site_fract_z
C1 C 0.942(1) 0.3241(8) -0.1822(7)
C2 C 0.982(1) 0.2217(8) -0.2470(7)
C3 C 1.052(1) 0.227(1) -0.3609(8)
C4 C 1.082(1) 0.345(1) -0.4065(8)
C5 C 1.040(1) 0.4519(9) -0.3422(8)
C6 C 0.970(1) 0.4413(8) -0.2295(7)
C7 C 0.877(1) 0.2811(7) -0.0707(7)
C8 C 0.879(1) 0.1565(8) -0.0728(8)
N1 N 0.944(1) 0.1195(7) -0.1813(6)
C9 C 0.926(1) 0.2362(7) 0.1920(7)
C10 C 1.107(1) 0.2177(8) 0.1575(8)
C11 C 1.202(1) 0.1610(8) 0.2328(8)
C12 C 1.119(1) 0.1224(8) 0.3404(8)
C13 C 0.935(1) 0.1388(8) 0.3761(8)
C14 C 0.848(1) 0.1974(8) 0.2978(7)
C15 C 0.792(1) 0.2965(7) 0.1385(7)
C16 C 0.641(1) 0.2926(8) 0.2155(7)
N2 N 0.673(1) 0.2323(7) 0.3113(6)
C17 C 0.819(1) 0.3633(7) 0.0278(7)
C18 C 0.653(1) 0.4335(7) 0.0096(6)
C19 C 0.524(1) 0.3841(8) -0.0454(7)
C20 C 0.629(1) 0.5504(7) 0.0561(7)
C20A C 0.371(1) 0.4496(7) -0.0561(7)
C19A C 0.476(1) 0.6159(8) 0.0454(7)
C18A C 0.347(1) 0.5665(7) -0.0096(6)
C17A C 0.181(1) 0.6367(7) -0.0278(7)
C7A C 0.123(1) 0.7189(7) 0.0707(7)
C15A C 0.208(1) 0.7035(7) -0.1385(7)
C1A C 0.058(1) 0.6759(8) 0.1822(7)
C8A C 0.121(1) 0.8435(8) 0.0728(8)
C9A C 0.074(1) 0.7638(7) -0.1920(7)
C16A C 0.359(1) 0.7074(8) -0.2155(7)
C2A C 0.018(1) 0.7783(8) 0.2470(7)
C6A C 0.030(1) 0.5587(8) 0.2295(7)
N1A N 0.056(1) 0.8805(7) 0.1813(6)
C10A C -0.107(1) 0.7823(8) -0.1575(8)
C14A C 0.152(1) 0.8026(8) -0.2978(7)
N2A N 0.327(1) 0.7677(7) -0.3113(6)
C3A C -0.052(1) 0.773(1) 0.3609(8)
C5A C -0.040(1) 0.5481(9) 0.3422(8)
C11A C -0.202(1) 0.8390(8) -0.2328(8)
C13A C 0.065(1) 0.8612(8) -0.3761(8)
C4A C -0.082(1) 0.655(1) 0.4065(8)
C12A C -0.119(1) 0.8776(8) -0.3404(8)
O1 O 0.5168(8) 0.7920(6) 0.2776(5)
O2 O 0.483(1) 0.8076(8) 0.4617(6)
C21 C 0.600(1) 0.949(1) 0.1450(9)
C22 C 0.561(1) 0.9218(8) 0.2693(9)
C23 C 0.477(1) 0.747(1) 0.3789(6)
C24 C 0.436(2) 0.612(1) 0.381(1)
loop_
_geom_bond_atom_site_label_1
_geom_bond_atom_site_label_2
_geom_bond_site_symmetry_1
_geom_bond_site_symmetry_2
C1 C2 1_555 1_555
C2 C3 1_555 1_555
C3 C4 1_555 1_555
C4 C5 1_555 1_555
C5 C6 1_555 1_555
C6 C1 1_555 1_555
C7 C1 1_555 1_555
C8 C7 1_555 1_555
N1 C2 1_555 1_555
C9 C10 1_555 1_555
C10 C11 1_555 1_555
C11 C12 1_555 1_555
C12 C13 1_555 1_555
C13 C14 1_555 1_555
C14 C9 1_555 1_555
C15 C9 1_555 1_555
C16 C15 1_555 1_555
N2 C14 1_555 1_555
C17 C7 1_555 1_555
C18 C17 1_555 1_555
C19 C18 1_555 1_555
C20 C18 1_555 1_555
O1 C22 1_555 1_555
O2 C23 1_555 1_555
C21 C22 1_555 1_555
C23 O1 1_555 1_555
C24 C23 1_555 1_555
C20A C19 1_555 1_555
C19A C20 1_555 1_555
C18A C20A 1_555 1_555
C17A C18A 1_555 1_555
C7A C17A 1_555 1_555
C15A C17A 1_555 1_555
C1A C7A 1_555 1_555
C8A C7A 1_555 1_555
C9A C15A 1_555 1_555
C16A C15A 1_555 1_555
C2A C1A 1_555 1_555
C6A C1A 1_555 1_555
N1A C8A 1_555 1_555
C10A C9A 1_555 1_555
C14A C9A 1_555 1_555
N2A C16A 1_555 1_555
C3A C2A 1_555 1_555
C5A C6A 1_555 1_555
C11A C10A 1_555 1_555
C13A C14A 1_555 1_555
C4A C3A 1_555 1_555
C12A C11A 1_555 1_555
C8 N1 1_555 1_555
C15 C17 1_555 1_555
C16 N2 1_555 1_555
C19A C18A 1_555 1_555
C2A N1A 1_555 1_555
C14A N2A 1_555 1_555
C5A C4A 1_555 1_555
C13A C12A 1_555 1_555

#END
