
#######################################################################
#
#                 Cambridge Crystallographic Data Centre
#                                CCDC 
#
#######################################################################
#
# If this CIF has been generated from an entry in the Cambridge 
# Structural Database, then it will include bibliographic, chemical, 
# crystal, experimental, refinement or atomic coordinate data resulting 
# from the CCDC's data processing and validation procedures.
#
#######################################################################

data_LASFET
_chemical_formula_moiety         'C52 H32 N4,3(C4 H8 O1)'
_chemical_name_systematic        
'4-(2,2-bis(4-(9H-carbazol-9-yl)phenyl)-1-(4-cyanophenyl)vinyl)benzonitrile tetrahydrofuran solvate'
_symmetry_cell_setting           monoclinic
_symmetry_space_group_name_H-M   'C 2/c'
_symmetry_Int_Tables_number      15
_space_group_name_Hall           '-C 2yn'
loop_
_symmetry_equiv_pos_site_id
_symmetry_equiv_pos_as_xyz
1 x,y,z
2 -x,y,1/2-z
3 1/2+x,1/2+y,z
4 1/2-x,1/2+y,1/2-z
5 -x,-y,-z
6 x,-y,1/2+z
7 1/2-x,1/2-y,-z
8 1/2+x,1/2-y,1/2+z
_cell_length_a                   16.083(4)
_cell_length_b                   19.122(4)
_cell_length_c                   17.420(4)
_cell_angle_alpha                90
_cell_angle_beta                 106.778(3)
_cell_angle_gamma                90
_cell_volume                     5129.27
_exptl_crystal_colour            'light yellow'
_exptl_crystal_description       block
_cell_formula_units_Z            4
loop_
_atom_site_label
_atom_site_type_symbol
_atom_site_fract_x
_atom_site_fract_y
_atom_site_fract_z
N1 N 0.33487(12) 0.52834(10) 0.45449(10)
N2 N 0.33228(18) 0.15359(16) 0.39196(14)
C1 C 0.32150(14) 0.59899(12) 0.43457(13)
C2 C 0.33913(16) 0.65701(13) 0.48429(15)
H1 H 0.3647 0.6525 0.5405
C3 C 0.31781(18) 0.72179(14) 0.44853(17)
H2 H 0.3291 0.7627 0.4809
C4 C 0.2801(2) 0.72836(14) 0.36595(18)
H3 H 0.2670 0.7736 0.3431
C5 C 0.26142(17) 0.67047(14) 0.31720(16)
H4 H 0.2348 0.6755 0.2612
C6 C 0.28214(15) 0.60423(13) 0.35100(14)
C7 C 0.27072(15) 0.53402(13) 0.31971(13)
C8 C 0.23720(18) 0.50581(15) 0.24312(14)
H5 H 0.2139 0.5355 0.1983
C9 C 0.2384(2) 0.43436(16) 0.23339(15)
H6 H 0.2150 0.4148 0.1815
C10 C 0.2734(2) 0.39032(15) 0.29866(15)
H7 H 0.2742 0.3413 0.2902
C11 C 0.30696(17) 0.41655(13) 0.37546(14)
H8 H 0.3311 0.3866 0.4198
C12 C 0.30389(14) 0.48852(12) 0.38493(13)
C13 C 0.37346(14) 0.50015(11) 0.53218(12)
C14 C 0.32881(14) 0.45006(12) 0.56248(13)
H9 H 0.2708 0.4383 0.5338
C15 C 0.36885(14) 0.41732(12) 0.63436(12)
H10 H 0.3382 0.3829 0.6546
C16 C 0.45384(14) 0.43438(11) 0.67742(12)
C17 C 0.49548(14) 0.48868(11) 0.64982(12)
H11 H 0.5511 0.5038 0.6813
C18 C 0.45642(15) 0.52079(11) 0.57685(13)
H12 H 0.4860 0.5566 0.5575
C19 C 0.5000 0.39385(16) 0.7500
C20 C 0.5000 0.32266(16) 0.7500
C21 C 0.46712(14) 0.28191(11) 0.67448(12)
C22 C 0.49465(15) 0.29835(12) 0.60769(13)
H13 H 0.5376 0.3334 0.6120
C23 C 0.46047(16) 0.26438(13) 0.53539(13)
H14 H 0.4789 0.2766 0.4900
C24 C 0.39883(16) 0.21206(13) 0.52965(14)
C25 C 0.37380(18) 0.19291(14) 0.59668(15)
H15 H 0.3331 0.1562 0.5931
C26 C 0.40841(17) 0.22752(13) 0.66862(14)
H16 H 0.3918 0.2139 0.7145
C27 C 0.36153(18) 0.17850(16) 0.45378(15)
N1A N 0.66513(12) 0.52834(10) 1.04551(10)
N2A N 0.66772(18) 0.15359(16) 1.10804(14)
C1A C 0.67850(14) 0.59899(12) 1.06543(13)
C2A C 0.66087(16) 0.65701(13) 1.01571(15)
H1A H 0.6353 0.6525 0.9595
C3A C 0.68219(18) 0.72179(14) 1.05147(17)
H2A H 0.6709 0.7627 1.0191
C4A C 0.7199(2) 0.72836(14) 1.13405(18)
H3A H 0.7330 0.7736 1.1569
C5A C 0.73858(17) 0.67047(14) 1.18280(16)
H4A H 0.7652 0.6755 1.2388
C6A C 0.71786(15) 0.60423(13) 1.14900(14)
C7A C 0.72928(15) 0.53402(13) 1.18029(13)
C8A C 0.76280(18) 0.50581(15) 1.25688(14)
H5A H 0.7861 0.5355 1.3017
C9A C 0.7616(2) 0.43436(16) 1.26661(15)
H6A H 0.7850 0.4148 1.3185
C10A C 0.7266(2) 0.39032(15) 1.20134(15)
H7A H 0.7258 0.3413 1.2098
C11A C 0.69304(17) 0.41655(13) 1.12454(14)
H8A H 0.6689 0.3866 1.0802
C12A C 0.69611(14) 0.48852(12) 1.11507(13)
C13A C 0.62654(14) 0.50015(11) 0.96782(12)
C14A C 0.67119(14) 0.45006(12) 0.93752(13)
H9A H 0.7292 0.4383 0.9662
C15A C 0.63115(14) 0.41732(12) 0.86564(12)
H10A H 0.6618 0.3829 0.8454
C16A C 0.54616(14) 0.43438(11) 0.82258(12)
C17A C 0.50452(14) 0.48868(11) 0.85018(12)
H11A H 0.4489 0.5038 0.8187
C18A C 0.54358(15) 0.52079(11) 0.92315(13)
H12A H 0.5140 0.5566 0.9425
C21A C 0.53288(14) 0.28191(11) 0.82552(12)
C22A C 0.50535(15) 0.29835(12) 0.89231(13)
H13A H 0.4624 0.3334 0.8880
C23A C 0.53953(16) 0.26438(13) 0.96461(13)
H14A H 0.5211 0.2766 1.0100
C24A C 0.60117(16) 0.21206(13) 0.97035(14)
C25A C 0.62620(18) 0.19291(14) 0.90332(15)
H15A H 0.6669 0.1562 0.9069
C26A C 0.59159(17) 0.22752(13) 0.83138(14)
H16A H 0.6082 0.2139 0.7855
C27A C 0.63847(18) 0.17850(16) 1.04622(15)
O1 O 0.11578(18) 0.47638(14) 0.45077(15)
C28 C 0.0621(3) 0.4865(2) 0.3731(2)
H17 H 0.0110 0.4552 0.3626
H18 H 0.0940 0.4759 0.3337
C29 C 0.0341(4) 0.5599(3) 0.3660(3)
H19 H -0.0284 0.5637 0.3367
H20 H 0.0679 0.5876 0.3375
C30 C 0.0513(7) 0.5847(5) 0.4513(4)
H21 H 0.0700 0.6342 0.4568
H22 H -0.0009 0.5795 0.4700
C31 C 0.1214(3) 0.5382(2) 0.4954(3)
H23 H 0.1785 0.5608 0.5024
H24 H 0.1151 0.5277 0.5491
H25? H 0.0416 0.5807 0.3164
H26? H -0.0279 0.5632 0.3640
H27? H 0.1823 0.5473 0.5267
H28? H 0.0858 0.5344 0.5330
C32? C 0.0879(10) 0.5966(4) 0.4361(6)
H29? H 0.0532 0.6304 0.4569
H30? H 0.1362 0.6216 0.4235
O2? O 0.5155(9) 0.6902(5) 0.6851(6)
C33? C 0.4759(14) 0.7521(8) 0.6855(7)
H31? H 0.4176 0.7518 0.6462
H32? H 0.5104 0.7902 0.6712
C34? C 0.4689(12) 0.7628(6) 0.7661(8)
H33? H 0.4069 0.7623 0.7647
H34? H 0.4933 0.8090 0.7863
C35? C 0.5159(15) 0.7075(8) 0.8207(8)
H35? H 0.5688 0.7259 0.8601
H36? H 0.4784 0.6847 0.8496
C36? C 0.5375(9) 0.6596(5) 0.7636(7)
H37? H 0.6004 0.6489 0.7815
H38? H 0.5053 0.6152 0.7616
loop_
_geom_bond_atom_site_label_1
_geom_bond_atom_site_label_2
_geom_bond_site_symmetry_1
_geom_bond_site_symmetry_2
N1 C1 1_555 1_555
N2 C27 1_555 1_555
C1 C2 1_555 1_555
C2 H1 1_555 1_555
C3 C2 1_555 1_555
H2 C3 1_555 1_555
C4 C3 1_555 1_555
H3 C4 1_555 1_555
C5 C4 1_555 1_555
H4 C5 1_555 1_555
C6 C1 1_555 1_555
C7 C6 1_555 1_555
C8 C7 1_555 1_555
H5 C8 1_555 1_555
C9 C8 1_555 1_555
H6 C9 1_555 1_555
C10 C9 1_555 1_555
H7 C10 1_555 1_555
C11 C10 1_555 1_555
H8 C11 1_555 1_555
C12 N1 1_555 1_555
C13 N1 1_555 1_555
C14 C13 1_555 1_555
H9 C14 1_555 1_555
C15 C14 1_555 1_555
H10 C15 1_555 1_555
C16 C15 1_555 1_555
C17 C16 1_555 1_555
H11 C17 1_555 1_555
C18 C13 1_555 1_555
H12 C18 1_555 1_555
C19 C16 1_555 1_555
C20 C19 1_555 1_555
C21 C20 1_555 1_555
C22 C21 1_555 1_555
H13 C22 1_555 1_555
C23 C22 1_555 1_555
H14 C23 1_555 1_555
C24 C23 1_555 1_555
C25 C24 1_555 1_555
H15 C25 1_555 1_555
C26 C21 1_555 1_555
H16 C26 1_555 1_555
C27 C24 1_555 1_555
O1 C28 1_555 1_555
C28 H17 1_555 1_555
H18 C28 1_555 1_555
C29 C28 1_555 1_555
H19 C29 1_555 1_555
H20 C29 1_555 1_555
C30 C29 1_555 1_555
H21 C30 1_555 1_555
H22 C30 1_555 1_555
C31 O1 1_555 1_555
H23 C31 1_555 1_555
H24 C31 1_555 1_555
N1A C1A 1_555 1_555
N2A C27A 1_555 1_555
C1A C2A 1_555 1_555
C2A H1A 1_555 1_555
C3A C2A 1_555 1_555
H2A C3A 1_555 1_555
C4A C3A 1_555 1_555
H3A C4A 1_555 1_555
C5A C4A 1_555 1_555
H4A C5A 1_555 1_555
C6A C1A 1_555 1_555
C7A C6A 1_555 1_555
C8A C7A 1_555 1_555
H5A C8A 1_555 1_555
C9A C8A 1_555 1_555
H6A C9A 1_555 1_555
C10A C9A 1_555 1_555
H7A C10A 1_555 1_555
C11A C10A 1_555 1_555
H8A C11A 1_555 1_555
C12A N1A 1_555 1_555
C13A N1A 1_555 1_555
C14A C13A 1_555 1_555
H9A C14A 1_555 1_555
C15A C14A 1_555 1_555
H10A C15A 1_555 1_555
C16A C19 1_555 1_555
C17A C16A 1_555 1_555
H11A C17A 1_555 1_555
C18A C13A 1_555 1_555
H12A C18A 1_555 1_555
C21A C20 1_555 1_555
C22A C21A 1_555 1_555
H13A C22A 1_555 1_555
C23A C22A 1_555 1_555
H14A C23A 1_555 1_555
C24A C23A 1_555 1_555
C25A C24A 1_555 1_555
H15A C25A 1_555 1_555
C26A C21A 1_555 1_555
H16A C26A 1_555 1_555
C27A C24A 1_555 1_555
C5 C6 1_555 1_555
C7 C12 1_555 1_555
C11 C12 1_555 1_555
C17 C18 1_555 1_555
C25 C26 1_555 1_555
C30 C31 1_555 1_555
C5A C6A 1_555 1_555
C7A C12A 1_555 1_555
C11A C12A 1_555 1_555
C15A C16A 1_555 1_555
C17A C18A 1_555 1_555
C25A C26A 1_555 1_555

#END
