
#######################################################################
#
#                 Cambridge Crystallographic Data Centre
#                                CCDC 
#
#######################################################################
#
# If this CIF has been generated from an entry in the Cambridge 
# Structural Database, then it will include bibliographic, chemical, 
# crystal, experimental, refinement or atomic coordinate data resulting 
# from the CCDC's data processing and validation procedures.
#
#######################################################################

data_LASHEU
_chemical_name_common            'PDB Chemical Component code: TFZ'
_chemical_formula_moiety         'C14 H10 F3 N1 O1'
_chemical_name_systematic        N-Phenyl-2-(trifluoromethyl)benzamide
_symmetry_cell_setting           monoclinic
_symmetry_space_group_name_H-M   'P 21/c'
_symmetry_Int_Tables_number      14
_space_group_name_Hall           '-P 2ybc'
loop_
_symmetry_equiv_pos_site_id
_symmetry_equiv_pos_as_xyz
1 x,y,z
2 -x,1/2+y,1/2-z
3 -x,-y,-z
4 x,1/2-y,1/2+z
_cell_length_a                   9.991(5)
_cell_length_b                   16.421(5)
_cell_length_c                   15.645(5)
_cell_angle_alpha                90
_cell_angle_beta                 108.492(5)
_cell_angle_gamma                90
_cell_volume                     2434.23
_exptl_crystal_colour            colorless
_exptl_crystal_description       plate
_chemical_melting_point          '158-160 deg.C'
_cell_formula_units_Z            8
_exptl_crystal_recrystallization_method dichloromethane/hexane
loop_
_atom_site_label
_atom_site_type_symbol
_atom_site_fract_x
_atom_site_fract_y
_atom_site_fract_z
C1 C 0.7137(3) 0.16234(19) 1.0190(2)
C2 C 0.7708(3) 0.2400(2) 1.0403(2)
C3 C 0.7656(4) 0.2785(2) 1.1186(2)
C4 C 0.7032(4) 0.2406(2) 1.1745(2)
C5 C 0.6452(4) 0.1641(2) 1.1538(2)
C6 C 0.6494(3) 0.1254(2) 1.0758(2)
C7 C 0.5692(3) 0.05686(18) 0.7936(2)
C8 C 0.6673(4) 0.0535(2) 0.7473(2)
C9 C 0.6293(4) 0.0158(2) 0.6632(2)
C10 C 0.4971(4) -0.0181(2) 0.6256(2)
C11 C 0.4003(4) -0.0145(2) 0.6720(2)
C12 C 0.4363(3) 0.02314(19) 0.7554(2)
C13 C 0.7233(3) 0.11619(19) 0.9377(2)
C14 C 0.8347(4) 0.2853(2) 0.9790(2)
N1 N 0.5962(3) 0.09684(16) 0.87800(17)
O1 O 0.8373(2) 0.09809(15) 0.92961(16)
F1 F 0.7637(2) 0.27298(13) 0.89160(13)
F2 F 0.9693(2) 0.26464(15) 0.99100(16)
F3 F 0.8344(2) 0.36611(12) 0.99152(14)
H1 H 0.517(4) 0.105(2) 0.901(3)
H2 H 0.808(4) 0.332(2) 1.133(3)
H3 H 0.708(4) 0.271(2) 1.229(2)
H4 H 0.595(4) 0.137(2) 1.195(3)
H5 H 0.611(4) 0.070(2) 1.059(3)
H6 H 0.761(4) 0.076(2) 0.775(2)
H7 H 0.706(4) 0.009(2) 0.632(2)
H8 H 0.469(4) -0.039(2) 0.571(2)
H9 H 0.311(4) -0.036(2) 0.648(2)
H10 H 0.373(4) 0.028(2) 0.786(2)
C15 C 0.2655(3) 0.17063(19) 1.0323(2)
C16 C 0.3065(3) 0.2525(2) 1.0426(2)
C17 C 0.3389(4) 0.2897(2) 1.1258(2)
C18 C 0.3317(4) 0.2464(2) 1.2004(2)
C19 C 0.2912(4) 0.1654(2) 1.1914(2)
C20 C 0.2574(3) 0.1277(2) 1.1075(2)
C21 C 0.0743(3) 0.0477(2) 0.8272(2)
C22 C 0.0799(4) 0.0834(3) 0.7478(2)
C23 C 0.0466(4) 0.0372(3) 0.6700(3)
C24 C 0.0081(4) -0.0433(3) 0.6709(3)
C25 C 0.0014(4) -0.0784(3) 0.7497(3)
C26 C 0.0341(3) -0.0334(2) 0.8280(3)
C27 C 0.2398(3) 0.1260(2) 0.9453(2)
C28 C 0.3147(4) 0.3016(2) 0.9640(2)
N2 N 0.1114(3) 0.09401(17) 0.90887(19)
O2 O 0.3349(2) 0.11810(16) 0.91115(16)
F4 F 0.2109(2) 0.28329(13) 0.88700(12)
F5 F 0.4372(2) 0.29215(13) 0.94649(14)
F6 F 0.3022(2) 0.38171(12) 0.97680(14)
H11 H 0.055(3) 0.101(2) 0.935(2)
H12 H 0.364(3) 0.343(2) 1.131(2)
H13 H 0.348(4) 0.270(2) 1.262(3)
H14 H 0.281(3) 0.136(2) 1.243(2)
H15 H 0.227(4) 0.070(2) 1.106(2)
H16 H 0.111(4) 0.136(2) 0.754(2)
H17 H 0.060(4) 0.068(2) 0.616(3)
H18 H -0.014(5) -0.075(3) 0.619(3)
H19 H -0.024(4) -0.137(3) 0.750(3)
H20 H 0.033(4) -0.061(2) 0.884(2)
loop_
_geom_bond_atom_site_label_1
_geom_bond_atom_site_label_2
_geom_bond_site_symmetry_1
_geom_bond_site_symmetry_2
C1 C2 1_555 1_555
C2 C3 1_555 1_555
C3 C4 1_555 1_555
C4 C5 1_555 1_555
C5 C6 1_555 1_555
C6 C1 1_555 1_555
C7 C8 1_555 1_555
C8 C9 1_555 1_555
C9 C10 1_555 1_555
C10 C11 1_555 1_555
C11 C12 1_555 1_555
C12 C7 1_555 1_555
C13 C1 1_555 1_555
C14 C2 1_555 1_555
N1 C7 1_555 1_555
O1 C13 1_555 1_555
F1 C14 1_555 1_555
F2 C14 1_555 1_555
F3 C14 1_555 1_555
H1 N1 1_555 1_555
H2 C3 1_555 1_555
H3 C4 1_555 1_555
H4 C5 1_555 1_555
H5 C6 1_555 1_555
H6 C8 1_555 1_555
H7 C9 1_555 1_555
H8 C10 1_555 1_555
H9 C11 1_555 1_555
H10 C12 1_555 1_555
C15 C16 1_555 1_555
C16 C17 1_555 1_555
C17 C18 1_555 1_555
C18 C19 1_555 1_555
C19 C20 1_555 1_555
C20 C15 1_555 1_555
C21 C22 1_555 1_555
C22 C23 1_555 1_555
C23 C24 1_555 1_555
C24 C25 1_555 1_555
C25 C26 1_555 1_555
C26 C21 1_555 1_555
C27 C15 1_555 1_555
C28 C16 1_555 1_555
N2 C21 1_555 1_555
O2 C27 1_555 1_555
F4 C28 1_555 1_555
F5 C28 1_555 1_555
F6 C28 1_555 1_555
H11 N2 1_555 1_555
H12 C17 1_555 1_555
H13 C18 1_555 1_555
H14 C19 1_555 1_555
H15 C20 1_555 1_555
H16 C22 1_555 1_555
H17 C23 1_555 1_555
H18 C24 1_555 1_555
H19 C25 1_555 1_555
H20 C26 1_555 1_555
C13 N1 1_555 1_555
C27 N2 1_555 1_555

#END
