
#######################################################################
#
#                 Cambridge Crystallographic Data Centre
#                                CCDC 
#
#######################################################################
#
# If this CIF has been generated from an entry in the Cambridge 
# Structural Database, then it will include bibliographic, chemical, 
# crystal, experimental, refinement or atomic coordinate data resulting 
# from the CCDC's data processing and validation procedures.
#
#######################################################################

data_LASHUL
_chemical_compound_source        'Croton crassifolius roots'
_chemical_name_common            'crassin H'
_chemical_formula_moiety         'C21 H30 O5'
_chemical_name_systematic        
'methyl 5-(2-(2-hydroxy-5-oxo-2,5-dihydrofuran-3-yl)ethyl)-1,5,6-trimethyl-1,2,3,4,5,6,7,8-octahydronaphthalene-1-carboxylate'
_chemical_properties_biological  
'selective cytotoxicity against A549 cells (IC50 5.2  M) compared with HL-60 cells (IC50 11.8  M)'
_symmetry_cell_setting           orthorhombic
_symmetry_space_group_name_H-M   'P 21 21 21'
_symmetry_Int_Tables_number      19
_space_group_name_Hall           'P 2ac 2ab'
loop_
_symmetry_equiv_pos_site_id
_symmetry_equiv_pos_as_xyz
1 x,y,z
2 1/2+x,1/2-y,-z
3 -x,1/2+y,1/2-z
4 1/2-x,-y,1/2+z
_cell_length_a                   9.9833(5)
_cell_length_b                   12.0569(8)
_cell_length_c                   16.3459(13)
_cell_angle_alpha                90
_cell_angle_beta                 90
_cell_angle_gamma                90
_cell_volume                     1967.52
_exptl_crystal_colour            colorless
_exptl_crystal_description       block
_cell_formula_units_Z            4
loop_
_atom_site_label
_atom_site_type_symbol
_atom_site_fract_x
_atom_site_fract_y
_atom_site_fract_z
O1 O 0.73601(10) 0.43831(9) 0.83491(7)
O2 O 0.51345(10) 0.44817(9) 0.83281(7)
O3 O 0.82998(10) -0.36136(8) 0.53964(7)
O4 O 1.00176(9) -0.24645(7) 0.52182(6)
O5 O 1.07012(10) -0.07936(9) 0.46284(6)
H1 H 1.1511 -0.0946 0.4545
C1 C 0.78926(16) 0.12058(11) 0.77452(9)
H2 H 0.8694 0.0960 0.8053
H3 H 0.7553 0.0562 0.7431
C2 C 0.68234(15) 0.15740(11) 0.83494(9)
H4 H 0.6489 0.0926 0.8660
H5 H 0.7210 0.2110 0.8743
C3 C 0.56835(14) 0.21097(11) 0.78883(9)
H6 H 0.4963 0.2309 0.8277
H7 H 0.5312 0.1573 0.7490
C4 C 0.61485(13) 0.31623(11) 0.74300(8)
C5 C 0.75127(13) 0.30023(10) 0.70175(8)
C6 C 0.79240(14) 0.39514(10) 0.64659(8)
H8 H 0.7673 0.4663 0.6727
H9 H 0.7432 0.3895 0.5942
C7 C 0.94271(14) 0.39490(11) 0.62952(8)
H10 H 0.9634 0.4487 0.5856
H11 H 0.9918 0.4178 0.6794
C8 C 0.98773(13) 0.27960(10) 0.60372(8)
H12 H 0.9270 0.2556 0.5584
C9 C 0.96782(13) 0.19653(10) 0.67496(7)
C10 C 0.82972(13) 0.21145(10) 0.71516(7)
C11 C 0.98400(13) 0.07618(10) 0.64356(8)
H13 H 1.0754 0.0679 0.6209
H14 H 0.9764 0.0252 0.6908
C12 C 0.88277(13) 0.03962(11) 0.57795(8)
H15 H 0.7907 0.0562 0.5969
H16 H 0.8989 0.0817 0.5269
C13 C 0.89564(12) -0.08205(11) 0.56128(7)
C14 C 0.80759(13) -0.16374(11) 0.56627(8)
H17 H 0.7167 -0.1565 0.5826
C15 C 0.87383(14) -0.26765(11) 0.54238(8)
C16 C 1.02886(12) -0.12821(10) 0.53416(8)
H18 H 1.0977 -0.1177 0.5780
C17 C 1.13051(16) 0.28169(14) 0.56860(10)
H19 H 1.1913 0.3160 0.6083
H20 H 1.1314 0.3248 0.5178
H21 H 1.1600 0.2057 0.5573
C18 C 0.63111(13) 0.40725(11) 0.80735(8)
C19 C 0.50644(15) 0.34917(12) 0.68036(9)
H22 H 0.5267 0.4229 0.6583
H23 H 0.4188 0.3506 0.7073
H24 H 0.5050 0.2950 0.6357
C20 C 1.07735(15) 0.21319(12) 0.74096(8)
H25 H 1.0624 0.1611 0.7861
H26 H 1.0732 0.2894 0.7617
H27 H 1.1657 0.1996 0.7168
C21 C 0.52231(18) 0.52736(14) 0.89884(10)
H28 H 0.5906 0.5830 0.8858
H29 H 0.5469 0.4889 0.9495
H30 H 0.4354 0.5639 0.9060
loop_
_geom_bond_atom_site_label_1
_geom_bond_atom_site_label_2
_geom_bond_site_symmetry_1
_geom_bond_site_symmetry_2
O1 C18 1_555 1_555
O2 C18 1_555 1_555
O3 C15 1_555 1_555
O4 C15 1_555 1_555
O5 H1 1_555 1_555
C1 H2 1_555 1_555
H3 C1 1_555 1_555
C2 C1 1_555 1_555
H4 C2 1_555 1_555
H5 C2 1_555 1_555
C3 C2 1_555 1_555
H6 C3 1_555 1_555
H7 C3 1_555 1_555
C4 C3 1_555 1_555
C5 C4 1_555 1_555
C6 C5 1_555 1_555
H8 C6 1_555 1_555
H9 C6 1_555 1_555
C7 C6 1_555 1_555
H10 C7 1_555 1_555
H11 C7 1_555 1_555
C8 C7 1_555 1_555
H12 C8 1_555 1_555
C9 C8 1_555 1_555
C10 C1 1_555 1_555
C11 C9 1_555 1_555
H13 C11 1_555 1_555
H14 C11 1_555 1_555
C12 C11 1_555 1_555
H15 C12 1_555 1_555
H16 C12 1_555 1_555
C13 C12 1_555 1_555
C14 C13 1_555 1_555
H17 C14 1_555 1_555
C15 C14 1_555 1_555
C16 O4 1_555 1_555
H18 C16 1_555 1_555
C17 C8 1_555 1_555
H19 C17 1_555 1_555
H20 C17 1_555 1_555
H21 C17 1_555 1_555
C18 C4 1_555 1_555
C19 C4 1_555 1_555
H22 C19 1_555 1_555
H23 C19 1_555 1_555
H24 C19 1_555 1_555
C20 C9 1_555 1_555
H25 C20 1_555 1_555
H26 C20 1_555 1_555
H27 C20 1_555 1_555
C21 O2 1_555 1_555
H28 C21 1_555 1_555
H29 C21 1_555 1_555
H30 C21 1_555 1_555
O5 C16 1_555 1_555
C5 C10 1_555 1_555
C9 C10 1_555 1_555
C13 C16 1_555 1_555

#END
