
#######################################################################
#
#                 Cambridge Crystallographic Data Centre
#                                CCDC 
#
#######################################################################
#
# If this CIF has been generated from an entry in the Cambridge 
# Structural Database, then it will include bibliographic, chemical, 
# crystal, experimental, refinement or atomic coordinate data resulting 
# from the CCDC's data processing and validation procedures.
#
#######################################################################

data_LASHOE
_chemical_formula_moiety         'C14 H10 F3 N1 O1'
_chemical_name_systematic        N-(2-(Trifluoromethyl)phenyl)benzamide
_symmetry_cell_setting           tetragonal
_symmetry_space_group_name_H-M   'P 41'
_symmetry_Int_Tables_number      76
_space_group_name_Hall           'P 4w'
loop_
_symmetry_equiv_pos_site_id
_symmetry_equiv_pos_as_xyz
1 x,y,z
2 -x,-y,1/2+z
3 -y,x,1/4+z
4 y,-x,3/4+z
_cell_length_a                   9.052(5)
_cell_length_b                   9.052(5)
_cell_length_c                   15.156(5)
_cell_angle_alpha                90
_cell_angle_beta                 90
_cell_angle_gamma                90
_cell_volume                     1241.86
_exptl_crystal_colour            colorless
_exptl_crystal_description       needle
_chemical_melting_point          '143-145 deg.C'
_cell_formula_units_Z            4
_exptl_crystal_recrystallization_method dichloromethane/hexane
loop_
_atom_site_label
_atom_site_type_symbol
_atom_site_fract_x
_atom_site_fract_y
_atom_site_fract_z
C1 C -0.23975(15) 0.23937(14) 0.63682(9)
C2 C -0.39101(15) 0.20664(17) 0.63433(11)
C3 C -0.48040(17) 0.26805(18) 0.56968(11)
C4 C -0.42169(19) 0.36476(18) 0.50806(11)
C5 C -0.27224(17) 0.39849(16) 0.51040(10)
C6 C -0.18140(15) 0.33599(15) 0.57413(10)
C7 C 0.09694(15) 0.09194(16) 0.75395(9)
C8 C 0.0829(2) -0.05843(18) 0.77118(11)
C9 C 0.1848(2) -0.1303(2) 0.82427(12)
C10 C 0.3012(2) -0.0536(2) 0.85982(12)
C11 C 0.31646(18) 0.0964(2) 0.84434(12)
C12 C 0.21282(15) 0.17123(17) 0.79205(10)
C13 C -0.14876(15) 0.17327(14) 0.70868(9)
C14 C 0.22380(16) 0.33425(19) 0.77907(11)
N1 N -0.00249(12) 0.16225(13) 0.69423(8)
O1 O -0.20698(11) 0.13384(11) 0.77868(6)
F1 F 0.33967(11) 0.39357(14) 0.82180(8)
F2 F 0.10385(11) 0.40663(11) 0.80918(8)
F3 F 0.23809(11) 0.37354(10) 0.69398(6)
H1 H 0.0235(18) 0.1746(18) 0.6415(14)
H2 H -0.4320(18) 0.136(2) 0.6800(12)
H3 H -0.5869(19) 0.2510(17) 0.5691(11)
H4 H -0.488(2) 0.4051(19) 0.4667(13)
H5 H -0.230(2) 0.474(2) 0.4676(14)
H6 H -0.0746(19) 0.3612(17) 0.5720(11)
H7 H 0.005(2) -0.109(2) 0.7434(14)
H8 H 0.181(2) -0.236(2) 0.8365(15)
H9 H 0.379(2) -0.101(2) 0.8986(15)
H10 H 0.392(2) 0.155(2) 0.8678(13)
loop_
_geom_bond_atom_site_label_1
_geom_bond_atom_site_label_2
_geom_bond_site_symmetry_1
_geom_bond_site_symmetry_2
C1 C2 1_555 1_555
C2 C3 1_555 1_555
C3 C4 1_555 1_555
C4 C5 1_555 1_555
C5 C6 1_555 1_555
C6 C1 1_555 1_555
C7 C8 1_555 1_555
C8 C9 1_555 1_555
C9 C10 1_555 1_555
C10 C11 1_555 1_555
C11 C12 1_555 1_555
C12 C7 1_555 1_555
C13 C1 1_555 1_555
C14 C12 1_555 1_555
N1 C7 1_555 1_555
O1 C13 1_555 1_555
F1 C14 1_555 1_555
F2 C14 1_555 1_555
F3 C14 1_555 1_555
H1 N1 1_555 1_555
H2 C2 1_555 1_555
H3 C3 1_555 1_555
H4 C4 1_555 1_555
H5 C5 1_555 1_555
H6 C6 1_555 1_555
H7 C8 1_555 1_555
H8 C9 1_555 1_555
H9 C10 1_555 1_555
H10 C11 1_555 1_555
C13 N1 1_555 1_555

#END
