
#######################################################################
#
#                 Cambridge Crystallographic Data Centre
#                                CCDC 
#
#######################################################################
#
# If this CIF has been generated from an entry in the Cambridge 
# Structural Database, then it will include bibliographic, chemical, 
# crystal, experimental, refinement or atomic coordinate data resulting 
# from the CCDC's data processing and validation procedures.
#
#######################################################################

data_LASHIY
_chemical_formula_moiety         'C14 H10 F3 N1 O1'
_chemical_name_systematic        N-Phenyl-4-(trifluoromethyl)benzamide
_symmetry_cell_setting           triclinic
_symmetry_space_group_name_H-M   'P -1'
_symmetry_Int_Tables_number      2
_space_group_name_Hall           '-P 1'
loop_
_symmetry_equiv_pos_site_id
_symmetry_equiv_pos_as_xyz
1 x,y,z
2 -x,-y,-z
_cell_length_a                   5.359(5)
_cell_length_b                   7.714(5)
_cell_length_c                   14.242(5)
_cell_angle_alpha                77.099(5)
_cell_angle_beta                 81.606(5)
_cell_angle_gamma                89.607(5)
_cell_volume                     567.543
_exptl_crystal_colour            colorless
_exptl_crystal_description       plate
_chemical_melting_point          '218-220 deg.C'
_cell_formula_units_Z            2
_exptl_crystal_recrystallization_method 'dry dichloromethane'
loop_
_atom_site_label
_atom_site_type_symbol
_atom_site_fract_x
_atom_site_fract_y
_atom_site_fract_z
C1 C 0.6039(2) 0.25967(17) 0.63315(9)
C2 C 0.4097(3) 0.17977(18) 0.70594(9)
C3 C 0.4197(3) 0.18194(17) 0.80250(10)
C4 C 0.6223(2) 0.26753(17) 0.82565(9)
C5 C 0.8147(3) 0.35056(17) 0.75350(9)
C6 C 0.8066(2) 0.34516(17) 0.65702(9)
C7 C 0.8380(2) 0.23981(16) 0.37175(9)
C8 C 0.6703(2) 0.31459(17) 0.30903(9)
C9 C 0.7218(3) 0.30873(18) 0.21120(9)
C10 C 0.9386(3) 0.23023(18) 0.17554(9)
C11 C 1.1044(3) 0.15571(18) 0.23871(10)
C12 C 1.0552(2) 0.15981(17) 0.33660(9)
C13 C 0.5811(2) 0.25317(17) 0.53002(9)
C14 C 0.6438(3) 0.26306(18) 0.92996(10)
N1 N 0.8047(2) 0.24810(15) 0.47162(8)
O1 O 0.37350(18) 0.24995(14) 0.50342(7)
F1 F 0.7462(2) 0.41207(13) 0.94175(6)
F2 F 0.7900(2) 0.13081(14) 0.96625(7)
F3 F 0.4229(2) 0.23752(16) 0.98791(7)
H1 H 0.945(3) 0.234(2) 0.5007(12)
H2 H 0.273(3) 0.120(2) 0.6891(12)
H3 H 0.292(3) 0.122(2) 0.8527(12)
H4 H 0.955(3) 0.414(2) 0.7693(11)
H5 H 0.936(3) 0.405(2) 0.6074(12)
H6 H 0.527(3) 0.372(2) 0.3317(11)
H7 H 0.606(3) 0.361(2) 0.1694(12)
H8 H 0.979(3) 0.231(2) 0.1078(12)
H9 H 1.255(3) 0.101(2) 0.2154(12)
H10 H 1.172(3) 0.109(2) 0.3817(12)
loop_
_geom_bond_atom_site_label_1
_geom_bond_atom_site_label_2
_geom_bond_site_symmetry_1
_geom_bond_site_symmetry_2
C1 C2 1_555 1_555
C2 C3 1_555 1_555
C3 C4 1_555 1_555
C4 C5 1_555 1_555
C5 C6 1_555 1_555
C6 C1 1_555 1_555
C7 C8 1_555 1_555
C8 C9 1_555 1_555
C9 C10 1_555 1_555
C10 C11 1_555 1_555
C11 C12 1_555 1_555
C12 C7 1_555 1_555
C13 C1 1_555 1_555
C14 C4 1_555 1_555
N1 C7 1_555 1_555
O1 C13 1_555 1_555
F1 C14 1_555 1_555
F2 C14 1_555 1_555
F3 C14 1_555 1_555
H1 N1 1_555 1_555
H2 C2 1_555 1_555
H3 C3 1_555 1_555
H4 C5 1_555 1_555
H5 C6 1_555 1_555
H6 C8 1_555 1_555
H7 C9 1_555 1_555
H8 C10 1_555 1_555
H9 C11 1_555 1_555
H10 C12 1_555 1_555
C13 N1 1_555 1_555

#END
