
#######################################################################
#
#                 Cambridge Crystallographic Data Centre
#                                CCDC 
#
#######################################################################
#
# If this CIF has been generated from an entry in the Cambridge 
# Structural Database, then it will include bibliographic, chemical, 
# crystal, experimental, refinement or atomic coordinate data resulting 
# from the CCDC's data processing and validation procedures.
#
#######################################################################

data_LASJEW
_chemical_formula_moiety         'C15 H9 F6 N1 O1'
_chemical_name_systematic        
3-(Trifluoromethyl)-N-(3-(trifluoromethyl)phenyl)benzamide
_symmetry_cell_setting           monoclinic
_symmetry_space_group_name_H-M   'P 21/c'
_symmetry_Int_Tables_number      14
_space_group_name_Hall           '-P 2ybc'
loop_
_symmetry_equiv_pos_site_id
_symmetry_equiv_pos_as_xyz
1 x,y,z
2 -x,1/2+y,1/2-z
3 -x,-y,-z
4 x,1/2-y,1/2+z
_cell_length_a                   12.059(5)
_cell_length_b                   12.540(5)
_cell_length_c                   8.884(5)
_cell_angle_alpha                90
_cell_angle_beta                 91.804(5)
_cell_angle_gamma                90
_cell_volume                     1342.77
_exptl_crystal_colour            colorless
_exptl_crystal_description       plate
_chemical_melting_point          '123-125 deg.C'
_cell_formula_units_Z            4
_exptl_crystal_recrystallization_method acetonitrile/hexane
loop_
_atom_site_label
_atom_site_type_symbol
_atom_site_fract_x
_atom_site_fract_y
_atom_site_fract_z
C1 C 0.19957(13) 0.38209(13) 0.51049(17)
C2 C 0.21279(14) 0.49119(14) 0.4907(2)
C3 C 0.15626(15) 0.56283(15) 0.5786(2)
C4 C 0.08403(15) 0.52642(14) 0.6855(2)
C5 C 0.06880(13) 0.41749(13) 0.70348(18)
C6 C 0.12645(13) 0.34490(13) 0.61727(18)
C7 C 0.34156(12) 0.12479(13) 0.40299(17)
C8 C 0.41335(13) 0.13427(14) 0.28337(18)
C9 C 0.46262(14) 0.04357(14) 0.22556(19)
C10 C 0.44136(14) -0.05674(14) 0.28479(19)
C11 C 0.37008(13) -0.06504(13) 0.40336(18)
C12 C 0.32086(14) 0.02490(13) 0.46289(19)
C13 C 0.26330(13) 0.30859(14) 0.41144(18)
C14 C 0.34035(15) -0.17204(14) 0.4646(2)
C15 C -0.00880(14) 0.37890(14) 0.8196(2)
N1 N 0.28952(12) 0.21297(11) 0.47271(16)
O1 O 0.28845(11) 0.33580(10) 0.28369(13)
F1 F 0.42054(11) -0.24534(9) 0.44631(14)
F2 F 0.24825(11) -0.21168(10) 0.39643(14)
F3 F 0.32064(9) -0.17106(8) 0.61209(12)
F4 F -0.03933(14) 0.27795(10) 0.79824(18)
F5 F -0.10070(9) 0.43703(11) 0.82568(14)
F6 F 0.03706(10) 0.38295(11) 0.95936(13)
H1 H 0.2726(19) 0.2080(18) 0.568(3)
H2 H 0.2641(15) 0.5173(14) 0.413(2)
H3 H 0.1667(15) 0.6340(17) 0.568(2)
H4 H 0.0455(17) 0.5762(17) 0.748(2)
H5 H 0.1153(16) 0.2688(16) 0.630(2)
H6 H 0.4287(16) 0.2026(16) 0.243(2)
H7 H 0.5146(18) 0.0519(16) 0.145(2)
H8 H 0.4745(17) -0.1164(17) 0.247(2)
H9 H 0.2743(16) 0.0154(15) 0.543(2)
loop_
_geom_bond_atom_site_label_1
_geom_bond_atom_site_label_2
_geom_bond_site_symmetry_1
_geom_bond_site_symmetry_2
C1 C2 1_555 1_555
C2 C3 1_555 1_555
C3 C4 1_555 1_555
C4 C5 1_555 1_555
C5 C6 1_555 1_555
C6 C1 1_555 1_555
C7 C8 1_555 1_555
C8 C9 1_555 1_555
C9 C10 1_555 1_555
C10 C11 1_555 1_555
C11 C12 1_555 1_555
C12 C7 1_555 1_555
C13 C1 1_555 1_555
C14 C11 1_555 1_555
C15 C5 1_555 1_555
N1 C7 1_555 1_555
O1 C13 1_555 1_555
F1 C14 1_555 1_555
F2 C14 1_555 1_555
F3 C14 1_555 1_555
F4 C15 1_555 1_555
F5 C15 1_555 1_555
F6 C15 1_555 1_555
H1 N1 1_555 1_555
H2 C2 1_555 1_555
H3 C3 1_555 1_555
H4 C4 1_555 1_555
H5 C6 1_555 1_555
H6 C8 1_555 1_555
H7 C9 1_555 1_555
H8 C10 1_555 1_555
H9 C12 1_555 1_555
C13 N1 1_555 1_555

#END
