
#######################################################################
#
#                 Cambridge Crystallographic Data Centre
#                                CCDC 
#
#######################################################################
#
# If this CIF has been generated from an entry in the Cambridge 
# Structural Database, then it will include bibliographic, chemical, 
# crystal, experimental, refinement or atomic coordinate data resulting 
# from the CCDC's data processing and validation procedures.
#
#######################################################################

data_LASJUM
_chemical_formula_moiety         'C15 H9 F6 N1 O1'
_chemical_name_systematic        
4-(Trifluoromethyl)-N-(4-(trifluoromethyl)phenyl)benzamide
_symmetry_cell_setting           monoclinic
_symmetry_space_group_name_H-M   'P 21/n'
_symmetry_Int_Tables_number      14
_space_group_name_Hall           '-P 2yn'
loop_
_symmetry_equiv_pos_site_id
_symmetry_equiv_pos_as_xyz
1 x,y,z
2 1/2-x,1/2+y,1/2-z
3 -x,-y,-z
4 1/2+x,1/2-y,1/2+z
_cell_length_a                   5.2019(3)
_cell_length_b                   14.3865(7)
_cell_length_c                   18.1844(9)
_cell_angle_alpha                90
_cell_angle_beta                 97.367(5)
_cell_angle_gamma                90
_cell_volume                     1349.63
_exptl_crystal_colour            colorless
_exptl_crystal_description       plate
_chemical_melting_point          '222-224 deg.C'
_cell_formula_units_Z            4
_exptl_crystal_recrystallization_method hexane/methanol
loop_
_atom_site_label
_atom_site_type_symbol
_atom_site_fract_x
_atom_site_fract_y
_atom_site_fract_z
C1 C 0.2323(5) 0.00082(18) 0.13188(15)
C2 C 0.0962(6) 0.02076(19) 0.19076(15)
C3 C 0.1666(5) 0.09464(19) 0.23708(15)
C4 C 0.3731(5) 0.15071(19) 0.22425(14)
C5 C 0.5100(6) 0.1322(2) 0.16576(15)
C6 C 0.4414(6) 0.0563(2) 0.12008(15)
C7 C 0.2798(5) -0.20949(19) 0.01023(14)
C8 C 0.0589(6) -0.2221(2) -0.04098(16)
C9 C 0.0348(6) -0.3016(2) -0.08391(15)
C10 C 0.2296(5) -0.36818(19) -0.07621(14)
C11 C 0.4475(6) -0.3546(2) -0.02507(16)
C12 C 0.4728(6) -0.2753(2) 0.01753(15)
C13 C 0.1354(6) -0.0792(2) 0.08227(15)
C14 C 0.1974(6) -0.4551(2) -0.12067(17)
C15 C 0.4491(6) 0.2307(2) 0.27477(16)
N1 N 0.3230(5) -0.12742(17) 0.05466(13)
O1 O -0.0983(3) -0.09767(13) 0.06890(10)
F1 F 0.0989(4) -0.43975(14) -0.19106(10)
F2 F 0.4170(4) -0.50029(15) -0.12381(13)
F3 F 0.0414(5) -0.51582(14) -0.09347(12)
F4 F 0.515(2) 0.3041(4) 0.2369(3)
F5 F 0.641(2) 0.2110(4) 0.3210(5)
F6 F 0.2596(13) 0.2625(6) 0.3070(6)
H1 H 0.466(8) -0.098(3) 0.077(2)
H2 H -0.040(6) -0.021(2) 0.1981(16)
H3 H 0.074(5) 0.1071(19) 0.2798(16)
H4 H 0.643(5) 0.1692(19) 0.1563(14)
H5 H 0.536(5) 0.0435(19) 0.0794(16)
H6 H -0.065(6) -0.179(2) -0.0470(15)
H7 H -0.112(5) -0.3112(19) -0.1203(15)
H8 H 0.591(6) -0.401(2) -0.0198(15)
H9 H 0.629(6) -0.266(2) 0.0559(16)
F7? F 0.425(2) 0.2122(4) 0.3466(2)
F8? F 0.320(2) 0.3044(5) 0.2601(5)
F9? F 0.6981(14) 0.2546(8) 0.2806(7)
loop_
_geom_bond_atom_site_label_1
_geom_bond_atom_site_label_2
_geom_bond_site_symmetry_1
_geom_bond_site_symmetry_2
C1 C2 1_555 1_555
C2 C3 1_555 1_555
C3 C4 1_555 1_555
C4 C5 1_555 1_555
C5 C6 1_555 1_555
C6 C1 1_555 1_555
C7 C8 1_555 1_555
C8 C9 1_555 1_555
C9 C10 1_555 1_555
C10 C11 1_555 1_555
C11 C12 1_555 1_555
C12 C7 1_555 1_555
C13 C1 1_555 1_555
C14 C10 1_555 1_555
C15 C4 1_555 1_555
N1 C7 1_555 1_555
O1 C13 1_555 1_555
F1 C14 1_555 1_555
F2 C14 1_555 1_555
F3 C14 1_555 1_555
F4 C15 1_555 1_555
F5 C15 1_555 1_555
F6 C15 1_555 1_555
H1 N1 1_555 1_555
H2 C2 1_555 1_555
H3 C3 1_555 1_555
H4 C5 1_555 1_555
H5 C6 1_555 1_555
H6 C8 1_555 1_555
H7 C9 1_555 1_555
H8 C11 1_555 1_555
H9 C12 1_555 1_555
C13 N1 1_555 1_555

#END
