
#######################################################################
#
#                 Cambridge Crystallographic Data Centre
#                                CCDC 
#
#######################################################################
#
# If this CIF has been generated from an entry in the Cambridge 
# Structural Database, then it will include bibliographic, chemical, 
# crystal, experimental, refinement or atomic coordinate data resulting 
# from the CCDC's data processing and validation procedures.
#
#######################################################################

data_LASJAS
_chemical_formula_moiety         'C15 H9 F6 N1 O1'
_chemical_name_systematic        
2-(Trifluoromethyl)-N-(3-(trifluoromethyl)phenyl)benzamide
_symmetry_cell_setting           orthorhombic
_symmetry_space_group_name_H-M   'P n a 21'
_symmetry_Int_Tables_number      33
_space_group_name_Hall           'P 2c -2n'
loop_
_symmetry_equiv_pos_site_id
_symmetry_equiv_pos_as_xyz
1 x,y,z
2 -x,-y,1/2+z
3 1/2-x,1/2+y,1/2+z
4 1/2+x,1/2-y,z
_cell_length_a                   9.034(5)
_cell_length_b                   13.743(5)
_cell_length_c                   11.372(5)
_cell_angle_alpha                90
_cell_angle_beta                 90
_cell_angle_gamma                90
_cell_volume                     1411.88
_exptl_crystal_colour            colorless
_exptl_crystal_description       needle
_chemical_melting_point          '114-117 deg.C'
_cell_formula_units_Z            4
_exptl_crystal_recrystallization_method chloroform/hexane
loop_
_atom_site_label
_atom_site_type_symbol
_atom_site_fract_x
_atom_site_fract_y
_atom_site_fract_z
C1 C 0.03938(12) 0.62418(8) 0.20322(11)
C2 C 0.13923(14) 0.55878(10) 0.15415(14)
C3 C 0.21257(15) 0.49196(11) 0.22612(19)
C4 C 0.18608(17) 0.49044(12) 0.34526(18)
C5 C 0.09087(19) 0.55716(12) 0.39548(16)
C6 C 0.01708(15) 0.62477(9) 0.32517(13)
C7 C -0.03483(13) 0.82759(9) -0.00975(12)
C8 C -0.12109(14) 0.79852(9) -0.10485(12)
C9 C -0.17970(15) 0.86924(10) -0.17888(13)
C10 C -0.15172(15) 0.96803(10) -0.15961(13)
C11 C -0.06422(16) 0.99578(10) -0.06523(15)
C12 C -0.00572(15) 0.92579(9) 0.01007(14)
C13 C -0.04891(13) 0.68783(9) 0.12199(12)
C14 C -0.27114(18) 0.84079(11) -0.28226(14)
C15 C -0.0791(2) 0.69978(12) 0.38303(16)
N1 N 0.02903(12) 0.75731(8) 0.06675(11)
O1 O -0.18181(10) 0.67285(7) 0.10762(10)
F1 F -0.21099(18) 0.87180(11) -0.38364(10)
F2 F -0.40709(13) 0.87812(10) -0.27918(12)
F3 F -0.28729(17) 0.74529(8) -0.29445(12)
F4 F -0.22246(13) 0.67688(9) 0.38261(17)
F5 F -0.07291(13) 0.78677(7) 0.32859(12)
F6 F -0.0373(2) 0.71773(13) 0.49295(12)
H1 H 0.120(2) 0.7661(13) 0.0957(19)
H2 H 0.156(2) 0.5615(16) 0.069(2)
H3 H 0.278(3) 0.4499(17) 0.196(2)
H4 H 0.226(3) 0.4477(16) 0.397(2)
H5 H 0.067(3) 0.5621(18) 0.482(3)
H6 H -0.1476(17) 0.7323(12) -0.1146(16)
H7 H -0.192(2) 1.0190(14) -0.2143(19)
H8 H -0.038(2) 1.0629(15) -0.049(2)
H9 H 0.062(2) 0.9412(14) 0.069(2)
loop_
_geom_bond_atom_site_label_1
_geom_bond_atom_site_label_2
_geom_bond_site_symmetry_1
_geom_bond_site_symmetry_2
C1 C2 1_555 1_555
C2 C3 1_555 1_555
C3 C4 1_555 1_555
C4 C5 1_555 1_555
C5 C6 1_555 1_555
C6 C1 1_555 1_555
C7 C8 1_555 1_555
C8 C9 1_555 1_555
C9 C10 1_555 1_555
C10 C11 1_555 1_555
C11 C12 1_555 1_555
C12 C7 1_555 1_555
C13 C1 1_555 1_555
C14 C9 1_555 1_555
C15 C6 1_555 1_555
N1 C7 1_555 1_555
O1 C13 1_555 1_555
F1 C14 1_555 1_555
F2 C14 1_555 1_555
F3 C14 1_555 1_555
F4 C15 1_555 1_555
F5 C15 1_555 1_555
F6 C15 1_555 1_555
H1 N1 1_555 1_555
H2 C2 1_555 1_555
H3 C3 1_555 1_555
H4 C4 1_555 1_555
H5 C5 1_555 1_555
H6 C8 1_555 1_555
H7 C10 1_555 1_555
H8 C11 1_555 1_555
H9 C12 1_555 1_555
C13 N1 1_555 1_555

#END
