
#######################################################################
#
#                 Cambridge Crystallographic Data Centre
#                                CCDC 
#
#######################################################################
#
# If this CIF has been generated from an entry in the Cambridge 
# Structural Database, then it will include bibliographic, chemical, 
# crystal, experimental, refinement or atomic coordinate data resulting 
# from the CCDC's data processing and validation procedures.
#
#######################################################################

data_LASKIB
_chemical_formula_moiety         'C1 H2 Cl2,2(C4 H6 O1)'
_chemical_name_systematic        'Dichloromethane bis(cyclobutanone) clathrate'
_symmetry_cell_setting           orthorhombic
_symmetry_space_group_name_H-M   'P n m a'
_symmetry_Int_Tables_number      62
_space_group_name_Hall           '-P 2ac 2n'
loop_
_symmetry_equiv_pos_site_id
_symmetry_equiv_pos_as_xyz
1 x,y,z
2 1/2-x,-y,1/2+z
3 1/2+x,1/2-y,1/2-z
4 -x,1/2+y,-z
5 -x,-y,-z
6 1/2+x,y,1/2-z
7 1/2-x,1/2+y,1/2+z
8 x,1/2-y,z
_cell_length_a                   10.3053(12)
_cell_length_b                   20.118(2)
_cell_length_c                   5.5119(4)
_cell_angle_alpha                90
_cell_angle_beta                 90
_cell_angle_gamma                90
_cell_volume                     1142.74
_exptl_crystal_colour            colorless
_exptl_crystal_description       cylinder
_chemical_melting_point          '185-186 K'
_cell_formula_units_Z            4
loop_
_atom_site_label
_atom_site_type_symbol
_atom_site_fract_x
_atom_site_fract_y
_atom_site_fract_z
Cl1 Cl 0.51729(6) 0.2500 -0.19167(13)
Cl2 Cl 0.75403(6) 0.2500 0.09371(14)
C2 C 0.5836(2) 0.2500 0.1010(4)
H1 H 0.5573(15) 0.2901(8) 0.180(3)
H1G H 0.5573(15) 0.2099(8) 0.180(3)
O1 O 0.53666(10) 0.39516(5) 0.36012(19)
C1 C 0.61449(12) 0.40471(6) 0.5191(3)
C3 C 0.61138(13) 0.44373(8) 0.7521(3)
C4 C 0.76037(14) 0.43508(9) 0.7660(3)
C5 C 0.75626(14) 0.38665(8) 0.5509(3)
H2 H 0.5684(15) 0.4221(9) 0.870(3)
H3 H 0.5811(13) 0.4891(9) 0.737(3)
H4 H 0.7895(16) 0.4184(9) 0.907(3)
H5 H 0.8096(17) 0.4802(10) 0.724(4)
H6 H 0.7657(15) 0.3415(9) 0.596(3)
H7 H 0.8105(16) 0.3951(9) 0.414(3)
loop_
_geom_bond_atom_site_label_1
_geom_bond_atom_site_label_2
_geom_bond_site_symmetry_1
_geom_bond_site_symmetry_2
Cl1 C2 1_555 1_555
Cl2 C2 1_555 1_555
O1 C1 1_555 1_555
C1 C3 1_555 1_555
C2 H1 1_555 1_555
C3 C4 1_555 1_555
C4 C5 1_555 1_555
C5 C1 1_555 1_555
H2 C3 1_555 1_555
H3 C3 1_555 1_555
H4 C4 1_555 1_555
H5 C4 1_555 1_555
H6 C5 1_555 1_555
H7 C5 1_555 1_555
H1G C2 1_555 1_555

#END
