
#######################################################################
#
#                 Cambridge Crystallographic Data Centre
#                                CCDC 
#
#######################################################################
#
# If this CIF has been generated from an entry in the Cambridge 
# Structural Database, then it will include bibliographic, chemical, 
# crystal, experimental, refinement or atomic coordinate data resulting 
# from the CCDC's data processing and validation procedures.
#
#######################################################################

data_LASKUO
_chemical_compound_source        
'root, stem bark, and leaf extracts of Erythrina schliebenii'
_chemical_name_common            piscerythrinetin
_chemical_formula_moiety         'C22 H22 O6'
_chemical_name_systematic        
3-(3,4-dimethoxy-5-(3-methylbut-2-en-1-yl)phenyl)-5,7-dihydroxy-4H-chromen-4-one
_chemical_properties_biological  
'moderate antitubercular and cytotoxic activities'
_symmetry_cell_setting           orthorhombic
_symmetry_space_group_name_H-M   'P b c a'
_symmetry_Int_Tables_number      61
_space_group_name_Hall           '-P 2ac 2ab'
loop_
_symmetry_equiv_pos_site_id
_symmetry_equiv_pos_as_xyz
1 x,y,z
2 1/2-x,-y,1/2+z
3 1/2+x,1/2-y,-z
4 -x,1/2+y,1/2-z
5 -x,-y,-z
6 1/2+x,y,1/2-z
7 1/2-x,1/2+y,z
8 x,1/2-y,1/2+z
_cell_length_a                   6.92797(19)
_cell_length_b                   14.3084(3)
_cell_length_c                   37.5013(19)
_cell_angle_alpha                90
_cell_angle_beta                 90
_cell_angle_gamma                90
_cell_volume                     3717.44
_exptl_crystal_colour            colorless
_exptl_crystal_description       plate
_cell_formula_units_Z            8
loop_
_atom_site_label
_atom_site_type_symbol
_atom_site_fract_x
_atom_site_fract_y
_atom_site_fract_z
O1 O 0.09498(19) 0.81727(9) 0.30241(3)
O2 O 0.1805(2) 0.54105(9) 0.27907(3)
O3 O 0.1841(2) 0.58542(9) 0.21119(3)
H1 H 0.197557 0.551072 0.229187
O4 O 0.0054(2) 0.89257(9) 0.18097(4)
H2 H -0.045065 0.940234 0.190140
O5 O 0.2232(2) 0.42746(9) 0.44313(4)
O6 O 0.4901(2) 0.41600(9) 0.39152(4)
C1 C 0.0969(2) 0.78897(13) 0.26757(5)
C2 C 0.1360(2) 0.69568(12) 0.25866(5)
C3 C 0.1426(3) 0.67356(12) 0.22178(5)
C4 C 0.1038(3) 0.74069(13) 0.19628(5)
H3 H 0.110012 0.725352 0.171658
C5 C 0.0550(3) 0.83170(13) 0.20698(5)
C6 C 0.0558(3) 0.85714(12) 0.24273(5)
H4 H 0.028965 0.919530 0.249832
C7 C 0.1249(3) 0.75299(13) 0.32817(5)
H5 H 0.126592 0.774456 0.352143
C8 C 0.1525(2) 0.66123(12) 0.32272(5)
C9 C 0.1594(2) 0.62617(12) 0.28625(5)
C10 C 0.1734(3) 0.59856(12) 0.35404(5)
C11 C 0.0421(3) 0.60581(13) 0.38176(5)
H6 H -0.061164 0.649232 0.379961
C12 C 0.0587(3) 0.55038(13) 0.41237(5)
C13 C 0.2093(3) 0.48658(12) 0.41404(5)
C14 C 0.3445(3) 0.47918(12) 0.38636(5)
C15 C 0.3264(3) 0.53503(12) 0.35608(5)
H7 H 0.416638 0.530002 0.337105
C16 C 0.3498(3) 0.46110(16) 0.47024(5)
H8 H 0.480903 0.466299 0.460626
H9 H 0.349591 0.417453 0.490380
H10 H 0.305918 0.522651 0.478340
C17 C -0.0783(9) 0.5623(7) 0.44370(18)
H11 H -0.106769 0.499993 0.453943
H12 H -0.013403 0.599781 0.462364
C18 C -0.2653(4) 0.60897(16) 0.43388(6)
H13 H -0.354569 0.571526 0.421011
C19 C -0.3217(6) 0.6954(3) 0.44081(10)
C20 C -0.2020(7) 0.7660(3) 0.46040(11)
H14 H -0.267884 0.783973 0.482478
H15 H -0.183856 0.821318 0.445369
H16 H -0.075940 0.738787 0.466155
C21 C -0.5156(6) 0.7303(2) 0.42847(9)
H17 H -0.581822 0.680700 0.415225
H18 H -0.497814 0.784718 0.412958
H19 H -0.593444 0.748118 0.449207
C22 C 0.6527(3) 0.42151(14) 0.36774(5)
H20 H 0.611179 0.406012 0.343468
H21 H 0.752258 0.377218 0.375423
H22 H 0.705422 0.485061 0.368132
C23? C -0.120(2) 0.6469(9) 0.4549(4)
H23? H -0.020067 0.664856 0.470747
C24? C -0.259(3) 0.7112(10) 0.4490(4)
C25? C -0.439(3) 0.6947(14) 0.4271(5)
H24? H -0.431978 0.632996 0.415838
H25? H -0.449008 0.742908 0.408591
H26? H -0.552666 0.697634 0.442591
C26? C -0.252(3) 0.8069(14) 0.4662(5)
H27? H -0.139308 0.810489 0.482028
H28? H -0.369656 0.817153 0.480095
H29? H -0.241209 0.854905 0.447684
C27? C -0.105(4) 0.549(3) 0.4393(9)
H30? H -0.227964 0.531892 0.427497
H31? H -0.078467 0.503360 0.458402
loop_
_geom_bond_atom_site_label_1
_geom_bond_atom_site_label_2
_geom_bond_site_symmetry_1
_geom_bond_site_symmetry_2
O1 C1 1_555 1_555
O2 C9 1_555 1_555
O3 H1 1_555 1_555
O4 H2 1_555 1_555
O5 C13 1_555 1_555
O6 C14 1_555 1_555
C1 C2 1_555 1_555
C2 C3 1_555 1_555
C3 O3 1_555 1_555
C4 C3 1_555 1_555
H3 C4 1_555 1_555
C5 O4 1_555 1_555
C6 C1 1_555 1_555
H4 C6 1_555 1_555
C7 O1 1_555 1_555
H5 C7 1_555 1_555
C8 C7 1_555 1_555
C9 C2 1_555 1_555
C10 C8 1_555 1_555
C11 C10 1_555 1_555
H6 C11 1_555 1_555
C12 C11 1_555 1_555
C13 C12 1_555 1_555
C14 C13 1_555 1_555
C15 C10 1_555 1_555
H7 C15 1_555 1_555
C16 O5 1_555 1_555
H8 C16 1_555 1_555
H9 C16 1_555 1_555
H10 C16 1_555 1_555
C17 C12 1_555 1_555
H11 C17 1_555 1_555
H12 C17 1_555 1_555
C18 C17 1_555 1_555
H13 C18 1_555 1_555
C19 C18 1_555 1_555
C20 C19 1_555 1_555
H14 C20 1_555 1_555
H15 C20 1_555 1_555
H16 C20 1_555 1_555
C21 C19 1_555 1_555
H17 C21 1_555 1_555
H18 C21 1_555 1_555
H19 C21 1_555 1_555
C22 O6 1_555 1_555
H20 C22 1_555 1_555
H21 C22 1_555 1_555
H22 C22 1_555 1_555
C4 C5 1_555 1_555
C5 C6 1_555 1_555
C8 C9 1_555 1_555
C14 C15 1_555 1_555

#END
