
#######################################################################
#
#                 Cambridge Crystallographic Data Centre
#                                CCDC 
#
#######################################################################
#
# If this CIF has been generated from an entry in the Cambridge 
# Structural Database, then it will include bibliographic, chemical, 
# crystal, experimental, refinement or atomic coordinate data resulting 
# from the CCDC's data processing and validation procedures.
#
#######################################################################

data_LASLUP
_chemical_compound_source        
'isolated from Penicillium griseofulvum CPCC 400528'
_chemical_name_common            'clopiamine C methanol solvate'
_chemical_formula_moiety         'C26 H33 N3 O5,C1 H4 O1'
_chemical_name_systematic        
"7'-methoxy-4',4',8,8-tetramethyl-5a-nitro-2,3,4',5',5a,6,8,8a,9,9a-decahydro-1H,5H,6'H-spiro[cyclopenta[f]indolizine-7,1'-pyrrolo[3,2,1-ij]quinoline]-2',6'-dione methanol solvate"
_symmetry_cell_setting           orthorhombic
_symmetry_space_group_name_H-M   'P 21 21 21'
_symmetry_Int_Tables_number      19
_space_group_name_Hall           'P 2ac 2ab'
loop_
_symmetry_equiv_pos_site_id
_symmetry_equiv_pos_as_xyz
1 x,y,z
2 1/2-x,-y,1/2+z
3 -x,1/2+y,1/2-z
4 1/2+x,1/2-y,-z
_cell_length_a                   10.831(2)
_cell_length_b                   14.3307(19)
_cell_length_c                   16.615(3)
_cell_angle_alpha                90
_cell_angle_beta                 90
_cell_angle_gamma                90
_cell_volume                     2578.91
_exptl_crystal_colour            colorless
_exptl_crystal_description       block
_cell_formula_units_Z            4
loop_
_atom_site_label
_atom_site_type_symbol
_atom_site_fract_x
_atom_site_fract_y
_atom_site_fract_z
O1 O -1.13933(11) -0.62360(12) 0.07302(8)
O2 O -0.67541(14) -0.51852(13) -0.12786(9)
O3 O -0.51171(10) -0.53440(10) 0.00334(8)
O4 O -1.26794(17) -0.50516(11) 0.23973(12)
O5 O -1.32989(13) -0.64602(13) 0.22307(10)
N1 N -0.94453(12) -0.61169(11) 0.01897(9)
N2 N -1.19043(14) -0.69035(11) 0.39285(9)
N3 N -1.24954(14) -0.58946(12) 0.23867(10)
C1 C -0.95648(14) -0.62525(12) 0.16095(10)
C2 C -1.02825(15) -0.62101(13) 0.08101(10)
C3 C -0.97285(16) -0.60317(14) -0.06798(11)
C4 C -0.85116(19) -0.61919(18) -0.11354(12)
H1 H -0.8303 -0.6849 -0.1103
H2 H -0.8642 -0.6043 -0.1699
C5 C -0.74184(16) -0.56250(14) -0.08296(11)
C6 C -0.72363(14) -0.56941(11) 0.00504(11)
C7 C -0.61304(14) -0.55261(11) 0.04773(11)
C8 C -0.61284(15) -0.55700(13) 0.13174(11)
H3 H -0.5399 -0.5460 0.1597
C9 C -0.72051(16) -0.57760(13) 0.17417(11)
H4 H -0.7195 -0.5775 0.2301
C10 C -0.82850(14) -0.59808(12) 0.13379(11)
C11 C -0.82676(14) -0.59395(11) 0.05005(11)
C12 C -0.96712(15) -0.72625(12) 0.19807(11)
C13 C -1.10103(15) -0.72440(11) 0.23133(11)
H5 H -1.1551 -0.7300 0.1843
C14 C -1.13917(18) -0.80356(13) 0.28884(12)
H6 H -1.2242 -0.8205 0.2777
H7 H -1.0883 -0.8578 0.2778
C15 C -1.12777(18) -0.77960(12) 0.37672(12)
H8 H -1.0402 -0.7738 0.3907
C16 C -1.1900(3) -0.84638(16) 0.43556(15)
H9 H -1.1322 -0.8934 0.4541
H10 H -1.2597 -0.8772 0.4104
C17 C -1.2327(3) -0.78517(17) 0.50538(15)
H11 H -1.1916 -0.8030 0.5549
H12 H -1.3212 -0.7903 0.5130
C18 C -1.1971(2) -0.68587(16) 0.48100(12)
H13 H -1.2592 -0.6414 0.4983
H14 H -1.1181 -0.6684 0.5039
C19 C -1.12124(17) -0.61489(12) 0.35587(11)
H15 H -1.0370 -0.6158 0.3756
H16 H -1.1579 -0.5556 0.3708
C20 C -1.12069(15) -0.62408(11) 0.26408(10)
C21 C -1.02045(15) -0.56293(11) 0.22410(10)
H17 H -1.0575 -0.5089 0.1985
H18 H -0.9613 -0.5416 0.2639
C22 C -1.0675(2) -0.6768(2) -0.09380(16)
H19 H -1.0349 -0.7379 -0.0835
H20 H -1.0843 -0.6702 -0.1502
H21 H -1.1424 -0.6683 -0.0638
C23 C -1.0220(2) -0.50483(18) -0.08367(15)
H22 H -0.9617 -0.4598 -0.0669
H23 H -1.0970 -0.4956 -0.0539
H24 H -1.0382 -0.4973 -0.1401
C24 C -0.9516(2) -0.80298(14) 0.13513(14)
H25 H -0.9589 -0.8629 0.1606
H26 H -0.8718 -0.7976 0.1105
H27 H -1.0145 -0.7967 0.0947
C25 C -0.86943(18) -0.74045(15) 0.26343(14)
H28 H -0.8770 -0.8021 0.2854
H29 H -0.8813 -0.6953 0.3054
H30 H -0.7887 -0.7329 0.2405
C26 C -0.39399(16) -0.54564(17) 0.04126(14)
H31 H -0.3298 -0.5308 0.0036
H32 H -0.3848 -0.6091 0.0589
H33 H -0.3885 -0.5046 0.0868
O6 O -0.0355(2) -0.2748(2) -0.11580(14)
H34 H -0.1278 -0.2848 -0.1252
C27 C 0.0139(3) -0.2196(3) -0.1749(2)
H35 H -0.0457 -0.1738 -0.1911
H36 H 0.0359 -0.2576 -0.2203
H37 H 0.0863 -0.1889 -0.1547
loop_
_geom_bond_atom_site_label_1
_geom_bond_atom_site_label_2
_geom_bond_site_symmetry_1
_geom_bond_site_symmetry_2
O1 C2 1_555 1_555
O2 C5 1_555 1_555
O3 C7 1_555 1_555
O4 N3 1_555 1_555
O5 N3 1_555 1_555
N1 C2 1_555 1_555
N2 C15 1_555 1_555
N3 C20 1_555 1_555
C1 C2 1_555 1_555
C3 N1 1_555 1_555
C4 C3 1_555 1_555
H1 C4 1_555 1_555
H2 C4 1_555 1_555
C5 C4 1_555 1_555
C6 C5 1_555 1_555
C7 C6 1_555 1_555
C8 C7 1_555 1_555
H3 C8 1_555 1_555
C9 C8 1_555 1_555
H4 C9 1_555 1_555
C10 C1 1_555 1_555
C11 N1 1_555 1_555
C12 C1 1_555 1_555
C13 C12 1_555 1_555
H5 C13 1_555 1_555
C14 C13 1_555 1_555
H6 C14 1_555 1_555
H7 C14 1_555 1_555
C15 C14 1_555 1_555
H8 C15 1_555 1_555
C16 C15 1_555 1_555
H9 C16 1_555 1_555
H10 C16 1_555 1_555
C17 C16 1_555 1_555
H11 C17 1_555 1_555
H12 C17 1_555 1_555
C18 N2 1_555 1_555
H13 C18 1_555 1_555
H14 C18 1_555 1_555
C19 N2 1_555 1_555
H15 C19 1_555 1_555
H16 C19 1_555 1_555
C20 C13 1_555 1_555
C21 C1 1_555 1_555
H17 C21 1_555 1_555
H18 C21 1_555 1_555
C22 C3 1_555 1_555
H19 C22 1_555 1_555
H20 C22 1_555 1_555
H21 C22 1_555 1_555
C23 C3 1_555 1_555
H22 C23 1_555 1_555
H23 C23 1_555 1_555
H24 C23 1_555 1_555
C24 C12 1_555 1_555
H25 C24 1_555 1_555
H26 C24 1_555 1_555
H27 C24 1_555 1_555
C25 C12 1_555 1_555
H28 C25 1_555 1_555
H29 C25 1_555 1_555
H30 C25 1_555 1_555
C26 O3 1_555 1_555
H31 C26 1_555 1_555
H32 C26 1_555 1_555
H33 C26 1_555 1_555
O6 H34 1_555 1_555
C27 O6 1_555 1_555
H35 C27 1_555 1_555
H36 C27 1_555 1_555
H37 C27 1_555 1_555
C6 C11 1_555 1_555
C9 C10 1_555 1_555
C10 C11 1_555 1_555
C17 C18 1_555 1_555
C19 C20 1_555 1_555
C20 C21 1_555 1_555

#END
