
#######################################################################
#
#                 Cambridge Crystallographic Data Centre
#                                CCDC 
#
#######################################################################
#
# If this CIF has been generated from an entry in the Cambridge 
# Structural Database, then it will include bibliographic, chemical, 
# crystal, experimental, refinement or atomic coordinate data resulting 
# from the CCDC's data processing and validation procedures.
#
#######################################################################

data_LASLEY
_chemical_name_common            'Chloroform acetone clathrate'
_chemical_formula_moiety         'C1 H1 Cl3,C3 H6 O1'
_chemical_name_systematic        'Trichloromethane propan-2-one clathrate'
_symmetry_cell_setting           monoclinic
_symmetry_space_group_name_H-M   'P 21/n'
_symmetry_Int_Tables_number      14
_space_group_name_Hall           '-P 2yn'
loop_
_symmetry_equiv_pos_site_id
_symmetry_equiv_pos_as_xyz
1 x,y,z
2 1/2-x,1/2+y,1/2-z
3 -x,-y,-z
4 1/2+x,1/2-y,1/2+z
_cell_length_a                   5.8895(4)
_cell_length_b                   13.6031(10)
_cell_length_c                   10.0396(8)
_cell_angle_alpha                90
_cell_angle_beta                 90.99(2)
_cell_angle_gamma                90
_cell_volume                     804.207
_exptl_crystal_colour            colorless
_exptl_crystal_description       cylinder
_chemical_melting_point          '164-166 K'
_cell_formula_units_Z            4
loop_
_atom_site_label
_atom_site_type_symbol
_atom_site_fract_x
_atom_site_fract_y
_atom_site_fract_z
Cl1 Cl 0.40558(6) 0.72482(2) 0.30271(3)
Cl2 Cl 0.82565(6) 0.73141(3) 0.45562(3)
Cl3 Cl 0.39674(6) 0.74139(3) 0.58997(3)
C1 C 0.54117(19) 0.69129(9) 0.45389(10)
H1 H 0.538(2) 0.6256(11) 0.4624(12)
O1 O 0.30909(19) 0.48467(8) 0.37084(10)
C2 C 0.1852(2) 0.48718(8) 0.27288(12)
C3 C -0.0670(3) 0.48957(12) 0.28333(17)
C4 C 0.2818(3) 0.48895(13) 0.13559(16)
H2 H -0.116(3) 0.5476(15) 0.237(2)
H3 H -0.120(3) 0.4912(13) 0.375(2)
H4 H -0.120(3) 0.4379(14) 0.235(2)
H5 H 0.224(4) 0.5512(16) 0.091(2)
H6 H 0.424(4) 0.4848(17) 0.133(2)
H7 H 0.214(3) 0.4376(14) 0.088(2)
loop_
_geom_bond_atom_site_label_1
_geom_bond_atom_site_label_2
_geom_bond_site_symmetry_1
_geom_bond_site_symmetry_2
Cl1 C1 1_555 1_555
Cl2 C1 1_555 1_555
Cl3 C1 1_555 1_555
C1 H1 1_555 1_555
O1 C2 1_555 1_555
C2 C3 1_555 1_555
C3 H2 1_555 1_555
C4 C2 1_555 1_555
H3 C3 1_555 1_555
H4 C3 1_555 1_555
H5 C4 1_555 1_555
H6 C4 1_555 1_555
H7 C4 1_555 1_555

#END
