
#######################################################################
#
#                 Cambridge Crystallographic Data Centre
#                                CCDC 
#
#######################################################################
#
# If this CIF has been generated from an entry in the Cambridge 
# Structural Database, then it will include bibliographic, chemical, 
# crystal, experimental, refinement or atomic coordinate data resulting 
# from the CCDC's data processing and validation procedures.
#
#######################################################################

data_LASMUQ
_chemical_formula_moiety         'C22 H26 N2 O6'
_chemical_name_systematic        
6,14-diphenyl-1,3,9,11-tetraoxa-6,14-diazacyclohexadecane-2,10-dione
_symmetry_cell_setting           monoclinic
_symmetry_space_group_name_H-M   'P 21/c'
_symmetry_Int_Tables_number      14
_space_group_name_Hall           '-P 2ybc'
loop_
_symmetry_equiv_pos_site_id
_symmetry_equiv_pos_as_xyz
1 x,y,z
2 -x,1/2+y,1/2-z
3 -x,-y,-z
4 x,1/2-y,1/2+z
_cell_length_a                   5.7911(8)
_cell_length_b                   15.084(2)
_cell_length_c                   11.3898(19)
_cell_angle_alpha                90
_cell_angle_beta                 97.346(5)
_cell_angle_gamma                90
_cell_volume                     986.766
_exptl_crystal_colour            colorless
_exptl_crystal_description       needle
_cell_formula_units_Z            2
loop_
_atom_site_label
_atom_site_type_symbol
_atom_site_fract_x
_atom_site_fract_y
_atom_site_fract_z
O1 O 0.5351(8) 0.6080(2) 0.9920(4)
O2 O 0.2253(8) 0.5726(2) 0.8738(4)
O3 O 0.5709(8) 0.5768(3) 0.8005(4)
N1 N 0.1794(10) 0.3914(3) 0.7748(5)
C1 C 0.4568(12) 0.5847(4) 0.8807(7)
C2 C 0.3231(12) 0.3698(4) 0.6898(6)
C3 C 0.5164(12) 0.3137(4) 0.7174(6)
H1 H 0.5473 0.2891 0.7946
C4 C 0.1050(11) 0.5534(4) 0.7561(6)
H2 H 0.2156 0.5584 0.6970
H3 H -0.0213 0.5971 0.7356
C5 C 0.1520(11) 0.3311(4) 0.8722(6)
H4 H 0.2483 0.2777 0.8643
H5 H -0.0126 0.3118 0.8654
C6 C 0.0044(11) 0.4613(4) 0.7531(6)
H6 H -0.1039 0.4570 0.8135
H7 H -0.0871 0.4513 0.6747
C7 C 0.6256(12) 0.3298(4) 0.5214(6)
H8 H 0.7277 0.3164 0.4649
C8 C 0.2883(12) 0.4057(4) 0.5754(6)
H9 H 0.1603 0.4443 0.5540
C9 C 0.7808(11) 0.6297(4) 1.0067(6)
H10 H 0.8133 0.6727 0.9453
H11 H 0.8735 0.5755 0.9977
C10 C 0.4370(13) 0.3858(4) 0.4930(6)
H12 H 0.4093 0.4108 0.4159
C11 C 0.6618(12) 0.2940(4) 0.6342(6)
H13 H 0.7894 0.2550 0.6546
O1B O 0.4649(8) 0.3920(2) 1.0080(4)
O2B O 0.7747(8) 0.4274(2) 1.1262(4)
O3B O 0.4291(8) 0.4232(3) 1.1995(4)
N1B N 0.8206(10) 0.6086(3) 1.2252(5)
C1B C 0.5432(12) 0.4153(4) 1.1193(7)
C2B C 0.6769(12) 0.6302(4) 1.3102(6)
C3B C 0.4836(12) 0.6863(4) 1.2826(6)
H1B H 0.4527 0.7109 1.2054
C4B C 0.8950(11) 0.4466(4) 1.2439(6)
H2B H 0.7844 0.4416 1.3030
H3B H 1.0213 0.4029 1.2644
C5B C 0.8480(11) 0.6689(4) 1.1278(6)
H4B H 0.7517 0.7223 1.1357
H5B H 1.0126 0.6882 1.1346
C6B C 0.9956(11) 0.5387(4) 1.2469(6)
H6B H 1.1039 0.5430 1.1865
H7B H 1.0871 0.5487 1.3253
C7B C 0.3744(12) 0.6702(4) 1.4786(6)
H8B H 0.2723 0.6836 1.5351
C8B C 0.7117(12) 0.5943(4) 1.4246(6)
H9B H 0.8397 0.5557 1.4460
C9B C 0.2192(11) 0.3703(4) 0.9933(6)
H10B H 0.1867 0.3273 1.0547
H11B H 0.1265 0.4245 1.0023
C10B C 0.5630(13) 0.6142(4) 1.5070(6)
H12B H 0.5907 0.5892 1.5841
C11B C 0.3382(12) 0.7060(4) 1.3658(6)
H13B H 0.2106 0.7450 1.3454
loop_
_geom_bond_atom_site_label_1
_geom_bond_atom_site_label_2
_geom_bond_site_symmetry_1
_geom_bond_site_symmetry_2
O1 C1 1_555 1_555
O2 C1 1_555 1_555
O3 C1 1_555 1_555
N1 C2 1_555 1_555
C2 C3 1_555 1_555
C3 H1 1_555 1_555
C4 O2 1_555 1_555
H2 C4 1_555 1_555
H3 C4 1_555 1_555
C5 N1 1_555 1_555
H4 C5 1_555 1_555
H5 C5 1_555 1_555
C6 N1 1_555 1_555
H6 C6 1_555 1_555
H7 C6 1_555 1_555
C7 H8 1_555 1_555
C8 C2 1_555 1_555
H9 C8 1_555 1_555
C9 O1 1_555 1_555
H10 C9 1_555 1_555
H11 C9 1_555 1_555
C10 C7 1_555 1_555
H12 C10 1_555 1_555
C11 C3 1_555 1_555
H13 C11 1_555 1_555
O1B C1B 1_555 1_555
O2B C1B 1_555 1_555
O3B C1B 1_555 1_555
N1B C2B 1_555 1_555
C2B C3B 1_555 1_555
C3B H1B 1_555 1_555
C4B O2B 1_555 1_555
H2B C4B 1_555 1_555
H3B C4B 1_555 1_555
C5B C9 1_555 1_555
H4B C5B 1_555 1_555
H5B C5B 1_555 1_555
C6B N1B 1_555 1_555
H6B C6B 1_555 1_555
H7B C6B 1_555 1_555
C7B H8B 1_555 1_555
C8B C2B 1_555 1_555
H9B C8B 1_555 1_555
C9B C5 1_555 1_555
H10B C9B 1_555 1_555
H11B C9B 1_555 1_555
C10B C7B 1_555 1_555
H12B C10B 1_555 1_555
C11B C3B 1_555 1_555
H13B C11B 1_555 1_555
C4 C6 1_555 1_555
C7 C11 1_555 1_555
C8 C10 1_555 1_555
O1B C9B 1_555 1_555
N1B C5B 1_555 1_555
C4B C6B 1_555 1_555
C7B C11B 1_555 1_555
C8B C10B 1_555 1_555

#END
