
#######################################################################
#
#                 Cambridge Crystallographic Data Centre
#                                CCDC 
#
#######################################################################
#
# If this CIF has been generated from an entry in the Cambridge 
# Structural Database, then it will include bibliographic, chemical, 
# crystal, experimental, refinement or atomic coordinate data resulting 
# from the CCDC's data processing and validation procedures.
#
#######################################################################

data_LATWEI
_chemical_formula_moiety         'C23 H20 N2 O4 S2'
_chemical_name_systematic        8-(N,N-Di-p-toluenesulfonylamino)quinoline
_symmetry_cell_setting           orthorhombic
_symmetry_space_group_name_H-M   'P b c a'
_symmetry_Int_Tables_number      61
_space_group_name_Hall           '-P 2ac 2ab'
loop_
_symmetry_equiv_pos_site_id
_symmetry_equiv_pos_as_xyz
1 x,y,z
2 1/2-x,1/2+y,z
3 x,1/2-y,1/2+z
4 1/2-x,-y,1/2+z
5 -x,-y,-z
6 1/2+x,1/2-y,-z
7 -x,1/2+y,1/2-z
8 1/2+x,y,1/2-z
_cell_length_a                   13.784(4)
_cell_length_b                   22.510(4)
_cell_length_c                   13.409(3)
_cell_angle_alpha                90
_cell_angle_beta                 90
_cell_angle_gamma                90
_cell_volume                     4160.52
_exptl_crystal_colour            Colorless
_cell_formula_units_Z            8
loop_
_atom_site_label
_atom_site_type_symbol
_atom_site_fract_x
_atom_site_fract_y
_atom_site_fract_z
S1 S 0.1189(2) 0.2900(1) 0.0473(2)
S2 S 0.0525(2) 0.3961(2) 0.1534(2)
O1 O 0.1386(5) 0.2840(3) -0.0557(5)
O2 O 0.0294(5) 0.2703(3) 0.0869(5)
O3 O 0.0837(5) 0.4567(3) 0.1506(6)
O4 O 0.0551(5) 0.3643(3) 0.2438(6)
N1 N 0.1208(8) 0.4243(4) -0.1038(8)
N2 N 0.1255(6) 0.3628(3) 0.0711(6)
C1 C 0.124(1) 0.4534(6) -0.1887(10)
C2 C 0.205(1) 0.4803(7) -0.223(1)
C3 C 0.290(1) 0.4787(7) -0.175(1)
C4 C 0.294(1) 0.4497(5) -0.088(1)
C5 C 0.383(1) 0.4486(6) -0.031(1)
C6 C 0.3792(9) 0.4203(5) 0.056(1)
C7 C 0.2942(9) 0.3943(5) 0.0890(9)
C8 C 0.2118(9) 0.3943(5) 0.0372(10)
C9 C 0.2104(10) 0.4227(5) -0.0522(9)
C10 C 0.2148(7) 0.2569(4) 0.1108(8)
C11 C 0.1995(7) 0.2345(5) 0.2055(9)
C12 C 0.2729(8) 0.2044(5) 0.2521(8)
C13 C 0.3619(8) 0.1967(5) 0.2097(9)
C14 C 0.4402(8) 0.1620(5) 0.260(1)
C15 C 0.3750(8) 0.2204(5) 0.117(1)
C16 C 0.3023(9) 0.2502(5) 0.0667(8)
C17 C -0.0639(7) 0.3916(5) 0.1051(8)
C18 C -0.0877(9) 0.4268(5) 0.0258(9)
C19 C -0.1798(10) 0.4262(5) -0.0105(9)
C20 C -0.2497(9) 0.3915(6) 0.0315(10)
C21 C -0.3508(8) 0.3897(5) -0.0061(10)
C22 C -0.2251(8) 0.3584(5) 0.110(1)
C23 C -0.1318(9) 0.3561(5) 0.1474(8)
H1 H 0.0596 0.4582 -0.2303
H2 H 0.2026 0.5029 -0.2864
H3 H 0.3498 0.4966 -0.2048
H4 H 0.4473 0.4662 -0.0551
H5 H 0.4391 0.4169 0.1009
H6 H 0.2937 0.3724 0.1559
H7 H 0.1350 0.2399 0.2391
H8 H 0.2637 0.1871 0.3203
H9 H 0.4212 0.1202 0.2703
H10 H 0.5013 0.1605 0.2192
H11 H 0.4586 0.1784 0.3247
H12 H 0.4413 0.2163 0.0834
H13 H 0.3161 0.2668 -0.0019
H14 H -0.0366 0.4522 -0.0059
H15 H -0.1961 0.4518 -0.0701
H16 H -0.3986 0.4027 0.0445
H17 H -0.3603 0.4165 -0.0645
H18 H -0.3714 0.3498 -0.0283
H19 H -0.2737 0.3329 0.1451
H20 H -0.1110 0.3286 0.2017
loop_
_geom_bond_atom_site_label_1
_geom_bond_atom_site_label_2
_geom_bond_site_symmetry_1
_geom_bond_site_symmetry_2
S1 O1 1_555 1_555
S2 O3 1_555 1_555
O2 S1 1_555 1_555
O4 S2 1_555 1_555
N1 C1 1_555 1_555
N2 S1 1_555 1_555
C1 C2 1_555 1_555
C2 C3 1_555 1_555
C3 C4 1_555 1_555
C4 C5 1_555 1_555
C5 C6 1_555 1_555
C6 C7 1_555 1_555
C7 C8 1_555 1_555
C8 N2 1_555 1_555
C9 N1 1_555 1_555
C10 S1 1_555 1_555
C11 C10 1_555 1_555
C12 C11 1_555 1_555
C13 C12 1_555 1_555
C14 C13 1_555 1_555
C15 C13 1_555 1_555
C16 C10 1_555 1_555
C17 S2 1_555 1_555
C18 C17 1_555 1_555
C19 C18 1_555 1_555
C20 C19 1_555 1_555
C21 C20 1_555 1_555
C22 C20 1_555 1_555
C23 C17 1_555 1_555
H1 C1 1_555 1_555
H2 C2 1_555 1_555
H3 C3 1_555 1_555
H4 C5 1_555 1_555
H5 C6 1_555 1_555
H6 C7 1_555 1_555
H7 C11 1_555 1_555
H8 C12 1_555 1_555
H9 C14 1_555 1_555
H10 C14 1_555 1_555
H11 C14 1_555 1_555
H12 C15 1_555 1_555
H13 C16 1_555 1_555
H14 C18 1_555 1_555
H15 C19 1_555 1_555
H16 C21 1_555 1_555
H17 C21 1_555 1_555
H18 C21 1_555 1_555
H19 C22 1_555 1_555
H20 C23 1_555 1_555
S2 N2 1_555 1_555
C4 C9 1_555 1_555
C8 C9 1_555 1_555
C15 C16 1_555 1_555
C22 C23 1_555 1_555

#END
