
#######################################################################
#
#                 Cambridge Crystallographic Data Centre
#                                CCDC 
#
#######################################################################
#
# If this CIF has been generated from an entry in the Cambridge 
# Structural Database, then it will include bibliographic, chemical, 
# crystal, experimental, refinement or atomic coordinate data resulting 
# from the CCDC's data processing and validation procedures.
#
#######################################################################

data_LATXUC
_chemical_formula_moiety         'C25 H24 Cl1 N1 O2 S1'
_chemical_name_systematic        
3-(2-chloroethyl)-2-methyl-1-((4-methylphenyl)sulfonyl)-4-phenyl-1,2-dihydroquinoline
_symmetry_cell_setting           monoclinic
_symmetry_space_group_name_H-M   'P 21/c'
_symmetry_Int_Tables_number      14
_space_group_name_Hall           '-P 2ybc'
loop_
_symmetry_equiv_pos_site_id
_symmetry_equiv_pos_as_xyz
1 x,y,z
2 -x,1/2+y,1/2-z
3 -x,-y,-z
4 x,1/2-y,1/2+z
_cell_length_a                   13.2671(17)
_cell_length_b                   18.296(3)
_cell_length_c                   19.283(3)
_cell_angle_alpha                90
_cell_angle_beta                 108.684(3)
_cell_angle_gamma                90
_cell_volume                     4433.98
_exptl_crystal_colour            colorless
_exptl_crystal_description       prismatic
_cell_formula_units_Z            8
loop_
_atom_site_label
_atom_site_type_symbol
_atom_site_fract_x
_atom_site_fract_y
_atom_site_fract_z
S1 S 0.21431(9) 0.95921(5) 0.40833(6)
Cl1 Cl 0.18226(10) 0.97654(7) 0.72990(6)
N1 N 0.1253(2) 0.89861(16) 0.41343(16)
O1 O 0.2284(3) 0.94961(16) 0.33852(15)
O2 O 0.1786(2) 1.02766(14) 0.42673(17)
C1 C 0.1465(3) 0.82349(19) 0.40041(19)
C2 C 0.1410(3) 0.8009(2) 0.3311(2)
H1 H 0.1210 0.8338 0.2922
C3 C 0.1651(3) 0.7297(2) 0.3194(2)
H2 H 0.1632 0.7147 0.2729
C4 C 0.1923(3) 0.6804(2) 0.3771(2)
H3 H 0.2081 0.6322 0.3693
C5 C 0.1959(3) 0.7031(2) 0.4458(2)
H4 H 0.2143 0.6697 0.4841
C6 C 0.1726(3) 0.77513(19) 0.45941(19)
C7 C 0.1732(3) 0.80077(19) 0.53205(19)
C8 C 0.1257(3) 0.8639(2) 0.5376(2)
C9 C 0.0721(3) 0.9080(2) 0.4696(2)
H5 H 0.0760 0.9597 0.4834
C10 C -0.0439(3) 0.8873(3) 0.4371(2)
H6 H -0.0761 0.9162 0.3941
H7 H -0.0797 0.8962 0.4723
H8 H -0.0494 0.8365 0.4242
C11 C 0.1144(3) 0.8921(2) 0.6081(2)
H9 H 0.0471 0.9177 0.5975
H10 H 0.1129 0.8509 0.6395
C12 C 0.2031(3) 0.9428(2) 0.6484(2)
H11 H 0.2063 0.9835 0.6169
H12 H 0.2705 0.9170 0.6611
C13 C 0.2227(3) 0.7529(2) 0.5962(2)
C14 C 0.1641(4) 0.6994(2) 0.6166(2)
H13 H 0.0925 0.6936 0.5901
C15 C 0.2098(6) 0.6550(3) 0.6751(3)
H14 H 0.1693 0.6191 0.6879
C16 C 0.3141(6) 0.6629(3) 0.7145(3)
H15 H 0.3446 0.6328 0.7546
C17 C 0.3751(4) 0.7151(3) 0.6957(3)
H16 H 0.4468 0.7201 0.7226
C18 C 0.3290(4) 0.7602(3) 0.6366(2)
H17 H 0.3700 0.7957 0.6239
C19 C 0.3355(3) 0.9365(2) 0.4757(2)
C20 C 0.3910(3) 0.8755(2) 0.4669(2)
H18 H 0.3660 0.8474 0.4247
C21 C 0.4835(3) 0.8563(2) 0.5209(2)
H19 H 0.5199 0.8145 0.5150
C22 C 0.5234(3) 0.8977(2) 0.5835(2)
C23 C 0.4684(4) 0.9600(2) 0.5896(2)
H20 H 0.4954 0.9899 0.6303
C24 C 0.3740(3) 0.9792(2) 0.5366(2)
H21 H 0.3372 1.0208 0.5423
C25 C 0.6238(4) 0.8757(3) 0.6427(3)
H22 H 0.6630 0.9186 0.6641
H23 H 0.6664 0.8459 0.6220
H24 H 0.6059 0.8485 0.6797
S2 S 0.25216(9) 0.47625(5) 0.45617(6)
Cl2 Cl 0.50001(13) 0.42630(14) 0.71505(10)
N2 N 0.3096(2) 0.40035(16) 0.44181(16)
O3 O 0.3355(2) 0.52919(15) 0.48035(18)
O4 O 0.1656(2) 0.48958(16) 0.39119(16)
C26 C 0.2435(3) 0.33681(19) 0.42244(19)
C27 C 0.1659(3) 0.3315(2) 0.3547(2)
H25 H 0.1545 0.3699 0.3215
C28 C 0.1057(3) 0.2689(3) 0.3369(2)
H26 H 0.0528 0.2652 0.2917
C29 C 0.1234(3) 0.2117(3) 0.3857(2)
H27 H 0.0838 0.1690 0.3728
C30 C 0.1996(3) 0.2177(2) 0.4534(2)
H28 H 0.2100 0.1791 0.4864
C31 C 0.2615(3) 0.28069(19) 0.47341(19)
C32 C 0.3473(3) 0.28689(19) 0.54370(18)
C33 C 0.4271(3) 0.3344(2) 0.5494(2)
C34 C 0.4207(3) 0.3841(2) 0.4861(2)
H29 H 0.4552 0.4304 0.5060
C35 C 0.4786(3) 0.3527(2) 0.4355(2)
H30 H 0.4412 0.3103 0.4108
H31 H 0.5497 0.3392 0.4640
H32 H 0.4810 0.3889 0.4000
C36 C 0.5284(3) 0.3364(3) 0.6125(2)
H33 H 0.5856 0.3200 0.5952
H34 H 0.5224 0.3014 0.6487
C37 C 0.5606(5) 0.4092(4) 0.6505(3)
H35 H 0.5426 0.4479 0.6142
H36 H 0.6372 0.4098 0.6739
C38 C 0.3409(3) 0.2395(2) 0.60571(19)
C39 C 0.3864(4) 0.1719(2) 0.6214(2)
H37 H 0.4254 0.1535 0.5930
C40 C 0.3759(4) 0.1304(2) 0.6785(2)
H38 H 0.4083 0.0848 0.6883
C41 C 0.3187(4) 0.1557(2) 0.7201(2)
H39 H 0.3105 0.1275 0.7580
C42 C 0.2732(4) 0.2232(3) 0.7060(3)
H40 H 0.2349 0.2415 0.7350
C43 C 0.2836(4) 0.2647(2) 0.6488(2)
H41 H 0.2513 0.3104 0.6393
C44 C 0.1985(3) 0.4599(2) 0.5271(2)
C45 C 0.1017(3) 0.4253(3) 0.5122(2)
H42 H 0.0640 0.4109 0.4647
C46 C 0.0613(3) 0.4122(3) 0.5686(3)
H43 H -0.0042 0.3888 0.5583
C47 C 0.1151(3) 0.4327(2) 0.6402(2)
C48 C 0.2102(4) 0.4677(2) 0.6528(2)
H44 H 0.2479 0.4823 0.7002
C49 C 0.2520(3) 0.4821(2) 0.5975(2)
H45 H 0.3163 0.5068 0.6076
C50 C 0.0701(4) 0.4170(3) 0.7005(3)
H46 H 0.1244 0.4238 0.7469
H47 H 0.0452 0.3674 0.6966
H48 H 0.0120 0.4496 0.6968
loop_
_geom_bond_atom_site_label_1
_geom_bond_atom_site_label_2
_geom_bond_site_symmetry_1
_geom_bond_site_symmetry_2
S1 N1 1_555 1_555
Cl1 C12 1_555 1_555
N1 C1 1_555 1_555
O1 S1 1_555 1_555
O2 S1 1_555 1_555
C1 C2 1_555 1_555
C2 H1 1_555 1_555
C3 C2 1_555 1_555
H2 C3 1_555 1_555
C4 C3 1_555 1_555
H3 C4 1_555 1_555
C5 C4 1_555 1_555
H4 C5 1_555 1_555
C6 C1 1_555 1_555
C7 C6 1_555 1_555
C8 C7 1_555 1_555
C9 N1 1_555 1_555
H5 C9 1_555 1_555
C10 C9 1_555 1_555
H6 C10 1_555 1_555
H7 C10 1_555 1_555
H8 C10 1_555 1_555
C11 C8 1_555 1_555
H9 C11 1_555 1_555
H10 C11 1_555 1_555
C12 C11 1_555 1_555
H11 C12 1_555 1_555
H12 C12 1_555 1_555
C13 C7 1_555 1_555
C14 C13 1_555 1_555
H13 C14 1_555 1_555
C15 C14 1_555 1_555
H14 C15 1_555 1_555
C16 C15 1_555 1_555
H15 C16 1_555 1_555
C17 C16 1_555 1_555
H16 C17 1_555 1_555
C18 C13 1_555 1_555
H17 C18 1_555 1_555
C19 S1 1_555 1_555
C20 C19 1_555 1_555
H18 C20 1_555 1_555
C21 C20 1_555 1_555
H19 C21 1_555 1_555
C22 C21 1_555 1_555
C23 C22 1_555 1_555
H20 C23 1_555 1_555
C24 C19 1_555 1_555
H21 C24 1_555 1_555
C25 C22 1_555 1_555
H22 C25 1_555 1_555
H23 C25 1_555 1_555
H24 C25 1_555 1_555
S2 N2 1_555 1_555
Cl2 C37 1_555 1_555
N2 C26 1_555 1_555
O3 S2 1_555 1_555
O4 S2 1_555 1_555
C26 C27 1_555 1_555
C27 H25 1_555 1_555
C28 C27 1_555 1_555
H26 C28 1_555 1_555
C29 C28 1_555 1_555
H27 C29 1_555 1_555
C30 C29 1_555 1_555
H28 C30 1_555 1_555
C31 C26 1_555 1_555
C32 C31 1_555 1_555
C33 C32 1_555 1_555
C34 N2 1_555 1_555
H29 C34 1_555 1_555
C35 C34 1_555 1_555
H30 C35 1_555 1_555
H31 C35 1_555 1_555
H32 C35 1_555 1_555
C36 C33 1_555 1_555
H33 C36 1_555 1_555
H34 C36 1_555 1_555
C37 C36 1_555 1_555
H35 C37 1_555 1_555
H36 C37 1_555 1_555
C38 C32 1_555 1_555
C39 C38 1_555 1_555
H37 C39 1_555 1_555
C40 C39 1_555 1_555
H38 C40 1_555 1_555
C41 C40 1_555 1_555
H39 C41 1_555 1_555
C42 C41 1_555 1_555
H40 C42 1_555 1_555
C43 C38 1_555 1_555
H41 C43 1_555 1_555
C44 S2 1_555 1_555
C45 C44 1_555 1_555
H42 C45 1_555 1_555
C46 C45 1_555 1_555
H43 C46 1_555 1_555
C47 C46 1_555 1_555
C48 C47 1_555 1_555
H44 C48 1_555 1_555
C49 C44 1_555 1_555
H45 C49 1_555 1_555
C50 C47 1_555 1_555
H46 C50 1_555 1_555
H47 C50 1_555 1_555
H48 C50 1_555 1_555
C5 C6 1_555 1_555
C8 C9 1_555 1_555
C17 C18 1_555 1_555
C23 C24 1_555 1_555
C30 C31 1_555 1_555
C33 C34 1_555 1_555
C42 C43 1_555 1_555
C48 C49 1_555 1_555

#END
