
#######################################################################
#
#                 Cambridge Crystallographic Data Centre
#                                CCDC 
#
#######################################################################
#
# If this CIF has been generated from an entry in the Cambridge 
# Structural Database, then it will include bibliographic, chemical, 
# crystal, experimental, refinement or atomic coordinate data resulting 
# from the CCDC's data processing and validation procedures.
#
#######################################################################

data_LATYUD
_chemical_formula_moiety         'C26 H31 N1 O8 S1'
_chemical_name_systematic        
'3,5-dimethoxy-2-((R)-2-nitro-1-phenylethyl)phenyl ((1R,4S)-7,7-dimethyl-2-oxobicyclo[2.2.1]heptan-1-yl)methanesulfonate'
_symmetry_cell_setting           monoclinic
_symmetry_space_group_name_H-M   'P 21'
_symmetry_Int_Tables_number      4
_space_group_name_Hall           'P 2yb'
loop_
_symmetry_equiv_pos_site_id
_symmetry_equiv_pos_as_xyz
1 x,y,z
2 -x,1/2+y,-z
_cell_length_a                   11.7760(9)
_cell_length_b                   8.4171(6)
_cell_length_c                   13.9685(11)
_cell_angle_alpha                90
_cell_angle_beta                 114.786(3)
_cell_angle_gamma                90
_cell_volume                     1257.01
_exptl_crystal_colour            colorless
_exptl_crystal_description       plate
_cell_formula_units_Z            2
loop_
_atom_site_label
_atom_site_type_symbol
_atom_site_fract_x
_atom_site_fract_y
_atom_site_fract_z
C1 C 0.6402(2) 0.6362(3) 0.86534(19)
C2 C 0.5134(2) 0.6686(3) 0.8171(2)
H1 H 0.4830 0.7683 0.7845
C3 C 0.4320(2) 0.5489(3) 0.81839(19)
C4 C 0.2587(2) 0.7261(3) 0.7469(2)
H2 H 0.2963 0.7980 0.8073
H3 H 0.1676 0.7262 0.7224
H4 H 0.2802 0.7620 0.6898
C5 C 0.4771(2) 0.4000(3) 0.86186(19)
H5 H 0.4205 0.3171 0.8578
C6 C 0.6046(2) 0.3742(3) 0.91077(18)
C7 C 0.5727(3) 0.1016(3) 0.9409(2)
H6 H 0.5160 0.1236 0.9743
H7 H 0.6216 0.0059 0.9721
H8 H 0.5238 0.0851 0.8651
C8 C 0.6907(2) 0.4940(3) 0.91600(19)
C9 C 0.8297(2) 0.4674(3) 0.97743(18)
H9 H 0.8393 0.3606 1.0113
C10 C 0.8913(2) 0.5871(3) 1.0676(2)
H10 H 0.9827 0.5681 1.1017
H11 H 0.8771 0.6963 1.0386
C11 C 0.8993(2) 0.4591(3) 0.90593(19)
C12 C 0.8532(2) 0.3572(3) 0.8189(2)
H12 H 0.7781 0.2998 0.8035
C13 C 0.9161(3) 0.3387(3) 0.7543(2)
H13 H 0.8837 0.2686 0.6957
C14 C 1.0259(3) 0.4224(3) 0.7751(2)
H14 H 1.0688 0.4100 0.7312
C15 C 1.0715(3) 0.5238(3) 0.8610(2)
H15 H 1.1465 0.5812 0.8758
C16 C 1.0094(2) 0.5433(3) 0.9263(2)
H16 H 1.0420 0.6139 0.9846
C17 C 0.7353(2) 0.7223(3) 0.68603(19)
H17 H 0.8223 0.6821 0.7158
H18 H 0.6792 0.6310 0.6785
C18 C 0.7041(2) 0.7935(3) 0.5772(2)
C19 C 0.7427(3) 0.9706(3) 0.5732(2)
H19 H 0.6830 1.0443 0.5831
H20 H 0.8277 0.9918 0.6282
C20 C 0.7387(3) 0.9879(4) 0.4608(2)
H21 H 0.6790 1.0717 0.4201
H22 H 0.8225 1.0134 0.4644
C21 C 0.6949(3) 0.8238(3) 0.4119(2)
H23 H 0.7115 0.8007 0.3487
C22 C 0.7612(3) 0.7094(3) 0.5064(2)
C23 C 0.7209(3) 0.5352(4) 0.4817(3)
H24 H 0.7462 0.4955 0.4276
H25 H 0.6298 0.5275 0.4559
H26 H 0.7610 0.4713 0.5459
C24 C 0.9038(3) 0.7175(4) 0.5501(2)
H27 H 0.9408 0.6498 0.6128
H28 H 0.9314 0.8275 0.5693
H29 H 0.9308 0.6805 0.4964
C25 C 0.5564(3) 0.8104(4) 0.3925(2)
H30 H 0.5103 0.9097 0.3621
H31 H 0.5148 0.7206 0.3450
C26 C 0.5656(3) 0.7814(3) 0.5035(2)
N1 N 0.8385(2) 0.5718(3) 1.14796(19)
O1 O 0.30588(16) 0.5675(2) 0.77812(15)
O2 O 0.65568(18) 0.2340(2) 0.95713(15)
O3 O 0.7372(2) 0.6314(3) 1.1286(2)
O4 O 0.8993(2) 0.5004(3) 1.22909(18)
O5 O 0.72861(16) 0.7536(2) 0.87273(13)
O6 O 0.60018(19) 0.9388(2) 0.72933(16)
O7 O 0.82902(18) 0.9591(2) 0.82037(15)
O8 O 0.48297(19) 0.7438(3) 0.52778(17)
S1 S 0.71926(5) 0.86271(7) 0.77490(5)
loop_
_geom_bond_atom_site_label_1
_geom_bond_atom_site_label_2
_geom_bond_site_symmetry_1
_geom_bond_site_symmetry_2
C1 C2 1_555 1_555
C2 H1 1_555 1_555
C3 C2 1_555 1_555
C4 H2 1_555 1_555
H3 C4 1_555 1_555
H4 C4 1_555 1_555
C5 C3 1_555 1_555
H5 C5 1_555 1_555
C6 C5 1_555 1_555
C7 H6 1_555 1_555
H7 C7 1_555 1_555
H8 C7 1_555 1_555
C8 C1 1_555 1_555
C9 C8 1_555 1_555
H9 C9 1_555 1_555
C10 C9 1_555 1_555
H10 C10 1_555 1_555
H11 C10 1_555 1_555
C11 C9 1_555 1_555
C12 C11 1_555 1_555
H12 C12 1_555 1_555
C13 C12 1_555 1_555
H13 C13 1_555 1_555
C14 C13 1_555 1_555
H14 C14 1_555 1_555
C15 C14 1_555 1_555
H15 C15 1_555 1_555
C16 C11 1_555 1_555
H16 C16 1_555 1_555
C17 H17 1_555 1_555
H18 C17 1_555 1_555
C18 C17 1_555 1_555
C19 C18 1_555 1_555
H19 C19 1_555 1_555
H20 C19 1_555 1_555
C20 C19 1_555 1_555
H21 C20 1_555 1_555
H22 C20 1_555 1_555
C21 C20 1_555 1_555
H23 C21 1_555 1_555
C22 C18 1_555 1_555
C23 C22 1_555 1_555
H24 C23 1_555 1_555
H25 C23 1_555 1_555
H26 C23 1_555 1_555
C24 C22 1_555 1_555
H27 C24 1_555 1_555
H28 C24 1_555 1_555
H29 C24 1_555 1_555
C25 C21 1_555 1_555
H30 C25 1_555 1_555
H31 C25 1_555 1_555
C26 C18 1_555 1_555
N1 C10 1_555 1_555
O1 C3 1_555 1_555
O2 C6 1_555 1_555
O3 N1 1_555 1_555
O4 N1 1_555 1_555
O5 C1 1_555 1_555
O6 S1 1_555 1_555
O7 S1 1_555 1_555
O8 C26 1_555 1_555
S1 C17 1_555 1_555
C4 O1 1_555 1_555
C6 C8 1_555 1_555
C7 O2 1_555 1_555
C15 C16 1_555 1_555
C21 C22 1_555 1_555
C25 C26 1_555 1_555
O5 S1 1_555 1_555

#END
