
#######################################################################
#
#                 Cambridge Crystallographic Data Centre
#                                CCDC 
#
#######################################################################
#
# If this CIF has been generated from an entry in the Cambridge 
# Structural Database, then it will include bibliographic, chemical, 
# crystal, experimental, refinement or atomic coordinate data resulting 
# from the CCDC's data processing and validation procedures.
#
#######################################################################

data_LAVPIK
_chemical_formula_moiety         'C19 H11 N1'
_chemical_name_systematic        tetracene-5-carbonitrile
_symmetry_cell_setting           monoclinic
_symmetry_space_group_name_H-M   'P 21/c'
_symmetry_Int_Tables_number      14
_space_group_name_Hall           '-P 2ybc'
loop_
_symmetry_equiv_pos_site_id
_symmetry_equiv_pos_as_xyz
1 x,y,z
2 -x,1/2+y,1/2-z
3 -x,-y,-z
4 x,1/2-y,1/2+z
_cell_length_a                   10.6580(4)
_cell_length_b                   14.5210(4)
_cell_length_c                   8.1247(2)
_cell_angle_alpha                90
_cell_angle_beta                 95.596(2)
_cell_angle_gamma                90
_cell_volume                     1251.43
_cell_formula_units_Z            4
loop_
_atom_site_label
_atom_site_type_symbol
_atom_site_fract_x
_atom_site_fract_y
_atom_site_fract_z
C1 C 0.2282(1) 0.0510(1) -0.1524(1)
C2 C 0.3097(1) 0.0915(1) -0.0207(1)
C3 C 0.2594(1) 0.1142(1) 0.1267(1)
C4 C 0.1299(1) 0.1021(1) 0.1509(2)
C5 C 0.0852(1) 0.1275(1) 0.2946(2)
C6 C 0.1664(1) 0.1656(1) 0.4263(2)
C7 C 0.2906(1) 0.1769(1) 0.4099(1)
C8 C 0.3422(1) 0.1530(1) 0.2596(1)
C9 C 0.4680(1) 0.1675(1) 0.2378(1)
C10 C 0.5183(1) 0.1473(1) 0.0887(1)
C11 C 0.6446(1) 0.1654(1) 0.0658(1)
C12 C 0.6937(1) 0.1461(1) -0.0821(1)
C13 C 0.8227(1) 0.1638(1) -0.1061(2)
C14 C 0.8691(1) 0.1421(1) -0.2506(2)
C15 C 0.7903(1) 0.1013(1) -0.3821(2)
C16 C 0.6672(1) 0.0847(1) -0.3659(2)
C17 C 0.6134(1) 0.1058(1) -0.2158(1)
C18 C 0.4882(1) 0.0879(1) -0.1948(1)
C19 C 0.4373(1) 0.1076(1) -0.0458(1)
N1 N 0.1638(1) 0.0181(1) -0.2567(1)
H1 H 0.0741 0.0759 0.0652
H2 H -0.0018 0.1197 0.3076
H3 H 0.1334 0.1832 0.5261
H4 H 0.3443 0.2010 0.4998
H5 H 0.5221 0.1920 0.3270
H6 H 0.6979 0.1916 0.1541
H7 H 0.8765 0.1912 -0.0196
H8 H 0.9550 0.1543 -0.2642
H9 H 0.8244 0.0857 -0.4822
H10 H 0.6155 0.0585 -0.4558
H11 H 0.4355 0.0617 -0.2836
loop_
_geom_bond_atom_site_label_1
_geom_bond_atom_site_label_2
_geom_bond_site_symmetry_1
_geom_bond_site_symmetry_2
C1 C2 1_555 1_555
C2 C3 1_555 1_555
C3 C4 1_555 1_555
C4 C5 1_555 1_555
C5 C6 1_555 1_555
C6 C7 1_555 1_555
C7 C8 1_555 1_555
C8 C3 1_555 1_555
C9 C8 1_555 1_555
C10 C9 1_555 1_555
C11 C10 1_555 1_555
C12 C11 1_555 1_555
C13 C12 1_555 1_555
C14 C13 1_555 1_555
C15 C14 1_555 1_555
C16 C15 1_555 1_555
C17 C12 1_555 1_555
C18 C17 1_555 1_555
C19 C2 1_555 1_555
N1 C1 1_555 1_555
H1 C4 1_555 1_555
H2 C5 1_555 1_555
H3 C6 1_555 1_555
H4 C7 1_555 1_555
H5 C9 1_555 1_555
H6 C11 1_555 1_555
H7 C13 1_555 1_555
H8 C14 1_555 1_555
H9 C15 1_555 1_555
H10 C16 1_555 1_555
H11 C18 1_555 1_555
C10 C19 1_555 1_555
C16 C17 1_555 1_555
C18 C19 1_555 1_555

#END
