
#######################################################################
#
#                 Cambridge Crystallographic Data Centre
#                                CCDC 
#
#######################################################################
#
# If this CIF has been generated from an entry in the Cambridge 
# Structural Database, then it will include bibliographic, chemical, 
# crystal, experimental, refinement or atomic coordinate data resulting 
# from the CCDC's data processing and validation procedures.
#
#######################################################################

data_LAVQIJ
_chemical_formula_moiety         'C1 H6 N3 1+,C10 H13 O3 S1 1-'
_chemical_name_systematic        'Guanidinium 4-n-butylbenzenesulfonate'
_symmetry_cell_setting           orthorhombic
_symmetry_space_group_name_H-M   'P n m a'
_symmetry_Int_Tables_number      62
_space_group_name_Hall           '-P 2ac 2n'
loop_
_symmetry_equiv_pos_site_id
_symmetry_equiv_pos_as_xyz
1 x,y,z
2 1/2-x,-y,1/2+z
3 1/2+x,1/2-y,1/2-z
4 -x,1/2+y,-z
5 -x,-y,-z
6 1/2+x,y,1/2-z
7 1/2-x,1/2+y,1/2+z
8 x,1/2-y,z
_cell_length_a                   24.773(2)
_cell_length_b                   7.5708(6)
_cell_length_c                   22.3375(19)
_cell_angle_alpha                90
_cell_angle_beta                 90
_cell_angle_gamma                90
_cell_volume                     4189.43
_exptl_crystal_colour            colorless
_exptl_crystal_description       block
_cell_formula_units_Z            12
loop_
_atom_site_label
_atom_site_type_symbol
_atom_site_fract_x
_atom_site_fract_y
_atom_site_fract_z
S2 S 0.14612(3) 0.2500 0.55339(3)
O3 O 0.19993(7) 0.2500 0.52706(10)
O4 O 0.13621(6) 0.09051(16) 0.58849(6)
C11 C 0.10224(13) 0.235(3) 0.49059(12)
C12 C 0.04679(13) 0.258(2) 0.49594(10)
C13 C 0.01494(11) 0.2722(17) 0.44492(15)
H15 H -0.0230 0.2880 0.4486
C14 C 0.03855(14) 0.2630(12) 0.38856(11)
C15 C 0.09400(15) 0.2399(12) 0.38321(11)
H16 H 0.1101 0.2336 0.3447
C16 C 0.12585(11) 0.226(2) 0.43423(15)
H17 H 0.1638 0.2104 0.4306
C17 C 0.0072(2) 0.2591(15) 0.3301(2)
H18 H 0.0159 0.3680 0.3075
H19 H 0.0204 0.1579 0.3062
C18 C -0.0518(2) 0.2454(19) 0.3343(3)
H20 H -0.0658 0.3429 0.3594
C19 C -0.0785(2) 0.255(4) 0.2701(3)
H22 H -0.0723 0.3722 0.2519
C20 C -0.1386(2) 0.222(3) 0.2781(3)
H24 H -0.1562 0.2191 0.2389
H26 H -0.1440 0.1083 0.2984
O4G O 0.13621(6) 0.40949(16) 0.58849(6)
C11G C 0.10224(13) 0.265(3) 0.49059(12)
C12G C 0.04679(13) 0.242(2) 0.49594(10)
C13G C 0.01494(11) 0.2278(17) 0.44492(15)
H15G H -0.0230 0.2120 0.4486
C14G C 0.03855(14) 0.2370(12) 0.38856(11)
C15G C 0.09400(15) 0.2601(12) 0.38321(11)
H16G H 0.1101 0.2664 0.3447
C16G C 0.12585(11) 0.274(2) 0.43423(15)
H17G H 0.1638 0.2896 0.4306
C17G C 0.0072(2) 0.2409(15) 0.3301(2)
H18G H 0.0159 0.1320 0.3075
H19G H 0.0204 0.3421 0.3062
C18G C -0.0518(2) 0.2546(19) 0.3343(3)
H20G H -0.0658 0.1571 0.3594
C19G C -0.0785(2) 0.245(4) 0.2701(3)
H22G H -0.0723 0.1278 0.2519
C20G C -0.1386(2) 0.278(3) 0.2781(3)
H24G H -0.1562 0.2809 0.2389
H26G H -0.1440 0.3917 0.2984
H37 H -0.1208 0.2347 0.2044
H37G H -0.1208 0.2653 0.2044
S3 S 0.17033(3) 0.2500 0.87073(3)
O5 O 0.21647(7) 0.2500 0.83026(9)
O6 O 0.16805(5) 0.09121(17) 0.90811(6)
C31 C 0.11150(7) 0.2357(8) 0.82627(8)
C32 C 0.06307(9) 0.1966(5) 0.85475(7)
H40 H 0.0628 0.1690 0.8962
C33 C 0.01507(7) 0.1979(5) 0.82254(9)
H41 H -0.0180 0.1711 0.8420
C34 C 0.01549(6) 0.2383(8) 0.76184(9)
C35 C 0.06392(8) 0.2774(8) 0.73335(7)
H42 H 0.0642 0.3050 0.6919
C36 C 0.11193(7) 0.2761(8) 0.76556(9)
C37 C -0.03943(11) 0.2500 0.73070(13)
H44 H -0.0616 0.1494 0.7447
C38 C -0.04054(13) 0.2500 0.66313(14)
H46 H -0.0215 0.1441 0.6479
H47 H -0.0215 0.3559 0.6479
C39 C -0.09871(17) 0.2500 0.64035(19)
H48 H -0.1175 0.1443 0.6560
H49 H -0.1175 0.3557 0.6560
C40 C -0.1023(2) 0.2500 0.5729(2)
H50 H -0.1403 0.2500 0.5607
H51 H -0.0844 0.1443 0.5570
H52 H -0.0844 0.3557 0.5570
O6G O 0.16805(5) 0.40879(17) 0.90811(6)
C31G C 0.11150(7) 0.2643(8) 0.82627(8)
C32G C 0.06307(9) 0.3034(5) 0.85475(7)
H40G H 0.0628 0.3310 0.8962
C33G C 0.01507(7) 0.3021(5) 0.82254(9)
H41G H -0.0180 0.3289 0.8420
C34G C 0.01549(6) 0.2617(8) 0.76184(9)
C35G C 0.06392(8) 0.2226(8) 0.73335(7)
H42G H 0.0642 0.1950 0.6919
C36G C 0.11193(7) 0.2239(8) 0.76556(9)
H44G H -0.0616 0.3506 0.7447
N1 N 0.25423(6) 0.0986(2) 0.00210(7)
H53 H 0.2678 -0.0022 0.0147
H54 H 0.2266 0.0990 -0.0227
N2 N 0.31703(9) 0.2500 0.05777(10)
H55 H 0.3306 0.3507 0.0704
H56 H 0.3310 0.1493 0.0699
C41 C 0.27545(10) 0.2500 0.02047(12)
N1G N 0.25423(6) 0.4014(2) 0.00210(7)
H53G H 0.2678 0.5022 0.0147
H54G H 0.2266 0.4010 -0.0227
N3 N 0.22663(7) 0.0977(2) 0.32782(7)
H57 H 0.2414 -0.0028 0.3389
H58 H 0.1966 0.0974 0.3068
N4 N 0.29487(10) 0.2500 0.37438(10)
H59 H 0.3096 0.3506 0.3854
H60 H 0.3102 0.1494 0.3844
C42 C 0.24968(11) 0.2500 0.34284(11)
N3G N 0.22663(7) 0.4023(2) 0.32782(7)
H57G H 0.2414 0.5028 0.3389
H58G H 0.1966 0.4026 0.3068
N5 N 0.23810(6) 0.0979(2) 0.66929(7)
H61 H 0.2543 -0.0027 0.6776
H62 H 0.2056 0.0977 0.6534
N6 N 0.31175(9) 0.2500 0.70460(10)
H63 H 0.3279 0.1493 0.7129
H64 H 0.3281 0.3507 0.7122
C43 C 0.26281(11) 0.2500 0.68072(11)
N5G N 0.23810(6) 0.4021(2) 0.66929(7)
H61G H 0.2543 0.5027 0.6776
H62G H 0.2056 0.4023 0.6534
S1 S 0.15118(3) 0.2500 0.19896(3)
O1 O 0.20497(7) 0.2500 0.17223(9)
O2 O 0.14107(5) 0.09063(16) 0.23422(6)
C1 C 0.10451(7) 0.2474(17) 0.14020(7)
C2 C 0.05003(8) 0.2208(13) 0.15204(7)
C3 C 0.01300(7) 0.2182(10) 0.10529(10)
C4 C 0.03045(8) 0.2421(10) 0.04671(8)
C5 C 0.08494(9) 0.2687(14) 0.03488(7)
C6 C 0.12197(8) 0.2713(18) 0.08162(9)
C7 C -0.00730(13) 0.2500 -0.00654(14)
H5 H 0.0011 0.3581 -0.0296
C8 C -0.06660(12) 0.2500 0.00697(14)
H7 H -0.0756 0.3558 0.0310
H8 H -0.0756 0.1442 0.0310
C9 C -0.10099(11) 0.2500 -0.05105(13)
H9 H -0.0923 0.3559 -0.0752
H10 H -0.0923 0.1441 -0.0752
C10 C -0.15963(12) 0.2500 -0.03588(15)
H11 H -0.1809 0.2500 -0.0728
H12 H -0.1682 0.3557 -0.0124
H13 H -0.1682 0.1443 -0.0124
O2G O 0.14107(5) 0.40937(16) 0.23422(6)
C1G C 0.10451(7) 0.2526(17) 0.14020(7)
C2G C 0.05003(8) 0.2792(13) 0.15204(7)
C3G C 0.01300(7) 0.2818(10) 0.10529(10)
C4G C 0.03045(8) 0.2579(10) 0.04671(8)
C5G C 0.08494(9) 0.2313(14) 0.03488(7)
C6G C 0.12197(8) 0.2287(18) 0.08162(9)
H5G H 0.0011 0.1419 -0.0296
H1? H 0.0381 0.2044 0.1921
H2? H -0.0242 0.2000 0.1134
H3? H 0.0969 0.2851 -0.0052
H4? H 0.1592 0.2895 0.0735
H6? H 0.0006 0.1477 -0.0327
H14? H 0.0307 0.2648 0.5345
H21? H -0.0616 0.1324 0.3538
H23? H -0.0626 0.1637 0.2435
H25? H -0.1542 0.3168 0.3024
C21? C 0.0960(3) 0.267(4) 0.4993(3)
C22? C 0.0440(4) 0.296(3) 0.5208(3)
H27? H 0.0384 0.3159 0.5623
C23? C 0.0005(3) 0.295(2) 0.4816(4)
H28? H -0.0350 0.3142 0.4964
C24? C 0.0088(3) 0.265(3) 0.4209(3)
C25? C 0.0607(4) 0.236(3) 0.3994(3)
H29? H 0.0664 0.2158 0.3579
C26? C 0.1043(3) 0.237(4) 0.4386(4)
H30? H 0.1398 0.2175 0.4239
C27? C -0.0398(5) 0.231(3) 0.3825(5)
H31? H -0.0522 0.1094 0.3908
H32? H -0.0687 0.3118 0.3962
C28? C -0.0356(6) 0.250(5) 0.3168(6)
H33? H -0.0140 0.1519 0.3000
H34? H -0.0176 0.3629 0.3066
C29? C -0.0941(5) 0.247(10) 0.2904(5)
H35? H -0.1126 0.1351 0.3008
H36? H -0.1156 0.3470 0.3058
C30? C -0.0867(5) 0.261(10) 0.2246(5)
H38? H -0.0589 0.1776 0.2115
H39? H -0.0753 0.3819 0.2145
H43? H 0.1450 0.3029 0.7461
H45? H -0.0574 0.3594 0.7446
loop_
_geom_bond_atom_site_label_1
_geom_bond_atom_site_label_2
_geom_bond_site_symmetry_1
_geom_bond_site_symmetry_2
S1 O1 1_555 1_555
O2 S1 1_555 1_555
C1 S1 1_555 1_555
C2 C1 1_555 1_555
C3 C2 1_555 1_555
C4 C3 1_555 1_555
C5 C4 1_555 1_555
C6 C1 1_555 1_555
C7 C4 1_555 1_555
H5 C7 1_555 1_555
C8 C7 1_555 1_555
H7 C8 1_555 1_555
H8 C8 1_555 1_555
C9 C8 1_555 1_555
H9 C9 1_555 1_555
H10 C9 1_555 1_555
C10 C9 1_555 1_555
H11 C10 1_555 1_555
H12 C10 1_555 1_555
H13 C10 1_555 1_555
S2 O3 1_555 1_555
O4 S2 1_555 1_555
C11 S2 1_555 1_555
C12 C11 1_555 1_555
C13 C12 1_555 1_555
H15 C13 1_555 1_555
C14 C13 1_555 1_555
C15 C14 1_555 1_555
H16 C15 1_555 1_555
C16 C11 1_555 1_555
H17 C16 1_555 1_555
C17 C14 1_555 1_555
H18 C17 1_555 1_555
H19 C17 1_555 1_555
C18 C17 1_555 1_555
H20 C18 1_555 1_555
C19 C18 1_555 1_555
H22 C19 1_555 1_555
C20 C19 1_555 1_555
H24 C20 1_555 1_555
H26 C20 1_555 1_555
H37 H37G 1_555 1_555
S3 O5 1_555 1_555
O6 S3 1_555 1_555
C31 S3 1_555 1_555
C32 C31 1_555 1_555
H40 C32 1_555 1_555
C33 C32 1_555 1_555
H41 C33 1_555 1_555
C34 C33 1_555 1_555
C35 C34 1_555 1_555
H42 C35 1_555 1_555
C36 C31 1_555 1_555
C37 C34 1_555 1_555
H44 C37 1_555 1_555
C38 C37 1_555 1_555
H46 C38 1_555 1_555
H47 C38 1_555 1_555
C39 C38 1_555 1_555
H48 C39 1_555 1_555
H49 C39 1_555 1_555
C40 C39 1_555 1_555
H50 C40 1_555 1_555
H51 C40 1_555 1_555
H52 C40 1_555 1_555
N1 H53 1_555 1_555
H54 N1 1_555 1_555
N2 H55 1_555 1_555
H56 N2 1_555 1_555
N3 H57 1_555 1_555
H58 N3 1_555 1_555
N4 H59 1_555 1_555
H60 N4 1_555 1_555
N5 H61 1_555 1_555
H62 N5 1_555 1_555
N6 H63 1_555 1_555
H64 N6 1_555 1_555
C41 N1 1_555 1_555
C42 N3 1_555 1_555
C43 N5 1_555 1_555
O2G S1 1_555 1_555
C1G S1 1_555 1_555
C2G C1 1_555 1_555
C3G C2 1_555 1_555
C4G C3 1_555 1_555
C5G C4 1_555 1_555
C6G C1 1_555 1_555
H5G C7 1_555 1_555
O4G S2 1_555 1_555
C11G S2 1_555 1_555
C12G C11 1_555 1_555
C13G C12 1_555 1_555
H15G C13 1_555 1_555
C14G C13 1_555 1_555
C15G C14 1_555 1_555
H16G C15 1_555 1_555
C16G C11 1_555 1_555
H17G C16 1_555 1_555
C17G C14 1_555 1_555
H18G C17 1_555 1_555
H19G C17 1_555 1_555
C18G C17 1_555 1_555
H20G C18 1_555 1_555
C19G C18 1_555 1_555
H22G C19 1_555 1_555
C20G C19 1_555 1_555
H24G C20 1_555 1_555
H26G C20G 1_555 1_555
O6G S3 1_555 1_555
C31G S3 1_555 1_555
C32G C31 1_555 1_555
H40G C32G 1_555 1_555
C33G C32 1_555 1_555
H41G C33G 1_555 1_555
C34G C33 1_555 1_555
C35G C34 1_555 1_555
H42G C35 1_555 1_555
C36G C31 1_555 1_555
H44G C37 1_555 1_555
N1G C41 1_555 1_555
H53G N1G 1_555 1_555
H54G N1G 1_555 1_555
N3G C42 1_555 1_555
H57G N3G 1_555 1_555
H58G N3G 1_555 1_555
N5G C43 1_555 1_555
H61G N5G 1_555 1_555
H62G N5G 1_555 1_555
C2 C1G 1_555 1_555
C2 C2G 1_555 1_555
C3 C2G 1_555 1_555
C3 C3G 1_555 1_555
C4 C3G 1_555 1_555
C4 C4G 1_555 1_555
C5 C6 1_555 1_555
C5 C4G 1_555 1_555
C5 C5G 1_555 1_555
C5 C6G 1_555 1_555
C6 C1G 1_555 1_555
C6 C5G 1_555 1_555
C6 C6G 1_555 1_555
C7 C4G 1_555 1_555
C11 C11G 1_555 1_555
C12 C11G 1_555 1_555
C12 C12G 1_555 1_555
C13 C12G 1_555 1_555
C13 C13G 1_555 1_555
H15 C13G 1_555 1_555
H15 H15G 1_555 1_555
C14 C13G 1_555 1_555
C14 C14G 1_555 1_555
C15 C16 1_555 1_555
C15 C14G 1_555 1_555
C15 C15G 1_555 1_555
C15 C16G 1_555 1_555
H16 C15G 1_555 1_555
H16 H16G 1_555 1_555
C16 C11G 1_555 1_555
C16 C15G 1_555 1_555
C16 C16G 1_555 1_555
H17 C16G 1_555 1_555
H17 H17G 1_555 1_555
C17 C14G 1_555 1_555
C17 C17G 1_555 1_555
H18 C17G 1_555 1_555
H18 H19G 1_555 1_555
H19 C17G 1_555 1_555
H19 H18G 1_555 1_555
C18 C17G 1_555 1_555
C18 C18G 1_555 1_555
H20 C18G 1_555 1_555
C19 C18G 1_555 1_555
C19 C19G 1_555 1_555
H22 C19G 1_555 1_555
C20 C19G 1_555 1_555
C20 C20G 1_555 1_555
H24 C20G 1_555 1_555
H24 H24G 1_555 1_555
C31 C31G 1_555 1_555
C32 C31G 1_555 1_555
C32 C32G 1_555 1_555
C33 C32G 1_555 1_555
C33 C33G 1_555 1_555
C34 C33G 1_555 1_555
C34 C34G 1_555 1_555
C35 C36 1_555 1_555
C35 C34G 1_555 1_555
C35 C35G 1_555 1_555
C35 C36G 1_555 1_555
H42 C35G 1_555 1_555
H42 H42G 1_555 1_555
C36 C31G 1_555 1_555
C36 C35G 1_555 1_555
C36 C36G 1_555 1_555
C37 C34G 1_555 1_555
N2 C41 1_555 1_555
N4 C42 1_555 1_555
N6 C43 1_555 1_555
C1G C2G 1_555 1_555
C1G C6G 1_555 1_555
C2G C3G 1_555 1_555
C3G C4G 1_555 1_555
C4G C5G 1_555 1_555
C5G C6G 1_555 1_555
C11G C12G 1_555 1_555
C11G C16G 1_555 1_555
C12G C13G 1_555 1_555
C13G H15G 1_555 1_555
C13G C14G 1_555 1_555
C14G C15G 1_555 1_555
C14G C17G 1_555 1_555
C15G H16G 1_555 1_555
C15G C16G 1_555 1_555
C16G H17G 1_555 1_555
C17G H18G 1_555 1_555
C17G H19G 1_555 1_555
C17G C18G 1_555 1_555
C18G H20G 1_555 1_555
C18G C19G 1_555 1_555
C19G H22G 1_555 1_555
C19G C20G 1_555 1_555
C20G H24G 1_555 1_555
C31G C32G 1_555 1_555
C31G C36G 1_555 1_555
C32G C33G 1_555 1_555
C33G C34G 1_555 1_555
C34G C35G 1_555 1_555
C35G H42G 1_555 1_555
C35G C36G 1_555 1_555

#END
