
#######################################################################
#
#                 Cambridge Crystallographic Data Centre
#                                CCDC 
#
#######################################################################
#
# If this CIF has been generated from an entry in the Cambridge 
# Structural Database, then it will include bibliographic, chemical, 
# crystal, experimental, refinement or atomic coordinate data resulting 
# from the CCDC's data processing and validation procedures.
#
#######################################################################

data_LAVRAE
_chemical_formula_moiety         'C25 H32 B1 N1 O6'
_chemical_name_systematic        
'methyl 6-methoxy-2-(4-methoxyphenyl)-3-(4,4,5,5-tetramethyl-1,3,2-dioxaborolan-2-yl)-3,4-dihydroquinoline-1(2H)-carboxylate'
_symmetry_cell_setting           orthorhombic
_symmetry_space_group_name_H-M   'P 21 21 21'
_symmetry_Int_Tables_number      19
_space_group_name_Hall           'P 2ac 2ab'
loop_
_symmetry_equiv_pos_site_id
_symmetry_equiv_pos_as_xyz
1 x,y,z
2 1/2-x,-y,1/2+z
3 -x,1/2+y,1/2-z
4 1/2+x,1/2-y,-z
_cell_length_a                   11.0936(3)
_cell_length_b                   14.6662(2)
_cell_length_c                   14.7500(2)
_cell_angle_alpha                90
_cell_angle_beta                 90
_cell_angle_gamma                90
_cell_volume                     2399.84
_exptl_crystal_colour            colorless
_exptl_crystal_description       block
_cell_formula_units_Z            4
loop_
_atom_site_label
_atom_site_type_symbol
_atom_site_fract_x
_atom_site_fract_y
_atom_site_fract_z
O1 O 0.24272(15) 0.32904(11) 0.87204(11)
O2 O 0.17958(16) 0.37393(11) 0.17191(11)
O3 O 0.55134(16) 0.16699(10) 0.43534(11)
O4 O 0.48040(15) 0.09960(10) 0.56269(12)
O5 O 0.67208(15) 0.48138(10) 0.43862(11)
O6 O 0.52164(14) 0.58506(10) 0.46427(11)
N1 N 0.45918(17) 0.25386(12) 0.53853(13)
C1 C 0.4884(2) 0.33035(14) 0.47626(15)
H1 H 0.5709 0.3213 0.4544
C2 C 0.4839(2) 0.42272(14) 0.52556(15)
H2 H 0.3997 0.4430 0.5275
C3 C 0.5285(2) 0.41078(15) 0.62414(15)
H3 H 0.6080 0.3832 0.6249
H4 H 0.5329 0.4694 0.6545
C4 C 0.4388(2) 0.34992(14) 0.67060(15)
C5 C 0.3855(2) 0.37211(15) 0.75341(15)
H5 H 0.4081 0.4251 0.7836
C6 C 0.2984(2) 0.31493(15) 0.79077(15)
C7 C 0.2626(2) 0.23638(15) 0.74382(16)
H6 H 0.2050 0.1980 0.7690
C8 C 0.3126(2) 0.21540(15) 0.65990(16)
H7 H 0.2865 0.1644 0.6280
C9 C 0.4021(2) 0.27135(15) 0.62400(15)
C10 C 0.2734(2) 0.41033(17) 0.92062(16)
H8 H 0.2519 0.4627 0.8851
H9 H 0.3585 0.4111 0.9323
H10 H 0.2304 0.4117 0.9771
C11 C 0.4059(2) 0.33315(14) 0.39436(15)
C12 C 0.2873(2) 0.30294(15) 0.39792(15)
H11 H 0.2595 0.2746 0.4503
C13 C 0.2091(2) 0.31410(16) 0.32509(16)
H12 H 0.1304 0.2926 0.3287
C14 C 0.2494(2) 0.35766(15) 0.24657(15)
C15 C 0.3692(2) 0.38617(15) 0.24122(16)
H13 H 0.3974 0.4137 0.1885
C16 C 0.4462(2) 0.37363(15) 0.31418(16)
H14 H 0.5261 0.3925 0.3097
C17 C 0.0583(2) 0.34162(17) 0.17489(18)
H15 H 0.0188 0.3554 0.1186
H16 H 0.0162 0.3708 0.2238
H17 H 0.0583 0.2768 0.1843
C18 C 0.4949(2) 0.16713(15) 0.51665(15)
C19 C 0.5990(3) 0.08043(16) 0.40811(18)
H18 H 0.6412 0.0871 0.3517
H19 H 0.5341 0.0377 0.4007
H20 H 0.6535 0.0585 0.4537
C20 C 0.7241(2) 0.57133(15) 0.41713(16)
C21 C 0.6096(2) 0.63255(15) 0.40727(15)
C22 C 0.8038(2) 0.59617(18) 0.4970(2)
H21 H 0.7558 0.5990 0.5511
H22 H 0.8405 0.6544 0.4863
H23 H 0.8653 0.5507 0.5042
C23 C 0.7992(2) 0.56079(17) 0.33110(19)
H24 H 0.8668 0.5218 0.3431
H25 H 0.8275 0.6195 0.3119
H26 H 0.7504 0.5344 0.2841
C24 C 0.6230(2) 0.72860(16) 0.44425(17)
H27 H 0.5484 0.7609 0.4369
H28 H 0.6857 0.7597 0.4118
H29 H 0.6434 0.7259 0.5074
C25 C 0.5573(2) 0.63461(17) 0.31171(16)
H30 H 0.5480 0.5734 0.2898
H31 H 0.6109 0.6675 0.2724
H32 H 0.4802 0.6643 0.3127
B1 B 0.5599(2) 0.49737(17) 0.47366(17)
loop_
_geom_bond_atom_site_label_1
_geom_bond_atom_site_label_2
_geom_bond_site_symmetry_1
_geom_bond_site_symmetry_2
O1 C6 1_555 1_555
O2 C14 1_555 1_555
O3 C18 1_555 1_555
O4 C18 1_555 1_555
O5 C20 1_555 1_555
O6 C21 1_555 1_555
N1 C1 1_555 1_555
C1 H1 1_555 1_555
C2 C1 1_555 1_555
H2 C2 1_555 1_555
C3 C2 1_555 1_555
H3 C3 1_555 1_555
H4 C3 1_555 1_555
C4 C3 1_555 1_555
C5 C4 1_555 1_555
H5 C5 1_555 1_555
C6 C5 1_555 1_555
C7 C6 1_555 1_555
H6 C7 1_555 1_555
C8 C7 1_555 1_555
H7 C8 1_555 1_555
C9 N1 1_555 1_555
C10 O1 1_555 1_555
H8 C10 1_555 1_555
H9 C10 1_555 1_555
H10 C10 1_555 1_555
C11 C1 1_555 1_555
C12 C11 1_555 1_555
H11 C12 1_555 1_555
C13 C12 1_555 1_555
H12 C13 1_555 1_555
C14 C13 1_555 1_555
C15 C14 1_555 1_555
H13 C15 1_555 1_555
C16 C11 1_555 1_555
H14 C16 1_555 1_555
C17 O2 1_555 1_555
H15 C17 1_555 1_555
H16 C17 1_555 1_555
H17 C17 1_555 1_555
C18 N1 1_555 1_555
C19 O3 1_555 1_555
H18 C19 1_555 1_555
H19 C19 1_555 1_555
H20 C19 1_555 1_555
C20 C21 1_555 1_555
C21 C24 1_555 1_555
C22 C20 1_555 1_555
H21 C22 1_555 1_555
H22 C22 1_555 1_555
H23 C22 1_555 1_555
C23 C20 1_555 1_555
H24 C23 1_555 1_555
H25 C23 1_555 1_555
H26 C23 1_555 1_555
C24 H27 1_555 1_555
H28 C24 1_555 1_555
H29 C24 1_555 1_555
C25 C21 1_555 1_555
H30 C25 1_555 1_555
H31 C25 1_555 1_555
H32 C25 1_555 1_555
B1 O5 1_555 1_555
O6 B1 1_555 1_555
C2 B1 1_555 1_555
C4 C9 1_555 1_555
C8 C9 1_555 1_555
C15 C16 1_555 1_555

#END
