
#######################################################################
#
#                 Cambridge Crystallographic Data Centre
#                                CCDC 
#
#######################################################################
#
# If this CIF has been generated from an entry in the Cambridge 
# Structural Database, then it will include bibliographic, chemical, 
# crystal, experimental, refinement or atomic coordinate data resulting 
# from the CCDC's data processing and validation procedures.
#
#######################################################################

data_LAVSAD
_chemical_compound_source        'Ligularia virgaurea ssp. oligocephala Good'
_chemical_formula_moiety         'C15 H18 O4'
_chemical_name_systematic        
10\a-Hydroxy-1-oxoeremophila-7(11),8(9)-dien-12,8-olide
_chemical_properties_biological  
'The parent plant is used for the treatment of stomach ache and nausea; no significant anticancer activity'
_symmetry_cell_setting           orthorhombic
_symmetry_space_group_name_H-M   'P 21 21 21'
_symmetry_Int_Tables_number      19
_space_group_name_Hall           'P 2ac 2ab'
loop_
_symmetry_equiv_pos_site_id
_symmetry_equiv_pos_as_xyz
1 x,y,z
2 1/2-x,-y,1/2+z
3 -x,1/2+y,1/2-z
4 1/2+x,1/2-y,-z
_cell_length_a                   6.885(2)
_cell_length_b                   6.969(2)
_cell_length_c                   27.348(9)
_cell_angle_alpha                90
_cell_angle_beta                 90
_cell_angle_gamma                90
_cell_volume                     1312.2
_exptl_crystal_colour            colorless
_exptl_crystal_description       block
_chemical_melting_point          '450-451 K'
_cell_formula_units_Z            4
_exptl_crystal_recrystallization_method chloroform/methanol
loop_
_atom_site_label
_atom_site_type_symbol
_atom_site_fract_x
_atom_site_fract_y
_atom_site_fract_z
O1 O -0.1059(2) 0.1052(2) 0.09328(6)
O2 O -0.0539(3) 0.6271(3) 0.21861(6)
O3 O 0.2935(3) 0.3119(2) 0.20765(6)
H1 H 0.2218 0.2487 0.2254
O4 O -0.1141(3) -0.0623(3) 0.02258(7)
C1 C 0.1148(4) 0.6010(4) 0.20783(8)
C2 C 0.2772(4) 0.7254(4) 0.22633(9)
H2 H 0.3442 0.6582 0.2524
H3 H 0.2224 0.8418 0.2400
C3 C 0.4239(4) 0.7795(4) 0.18704(9)
H4 H 0.3667 0.8756 0.1658
H5 H 0.5367 0.8365 0.2025
C4 C 0.4891(4) 0.6097(4) 0.15619(8)
H6 H 0.5551 0.5196 0.1781
C5 C 0.3136(3) 0.5030(3) 0.13384(7)
C6 C 0.3817(4) 0.3259(3) 0.10428(8)
H7 H 0.4558 0.3679 0.0761
H8 H 0.4657 0.2472 0.1245
C7 C 0.2121(4) 0.2102(3) 0.08773(8)
C8 C 0.0352(4) 0.2163(3) 0.11600(8)
C9 C 0.0080(4) 0.3175(3) 0.15637(8)
H9 H -0.1116 0.3190 0.1722
C10 C 0.1781(4) 0.4303(3) 0.17578(7)
C11 C 0.1817(4) 0.0979(3) 0.04869(8)
C12 C -0.0202(4) 0.0318(4) 0.05057(9)
C13 C 0.3154(5) 0.0427(4) 0.00774(9)
H10 H 0.2750 0.1056 -0.0218
H11 H 0.3112 -0.0938 0.0031
H12 H 0.4456 0.0810 0.0157
C14 C 0.1983(4) 0.6363(3) 0.09990(8)
H13 H 0.2842 0.6910 0.0760
H14 H 0.1399 0.7370 0.1188
H15 H 0.0986 0.5642 0.0836
C15 C 0.6382(4) 0.6757(4) 0.11841(9)
H16 H 0.5762 0.7577 0.0949
H17 H 0.6917 0.5659 0.1020
H18 H 0.7403 0.7449 0.1345
loop_
_geom_bond_atom_site_label_1
_geom_bond_atom_site_label_2
_geom_bond_site_symmetry_1
_geom_bond_site_symmetry_2
O1 C8 1_555 1_555
O2 C1 1_555 1_555
O3 H1 1_555 1_555
O4 C12 1_555 1_555
C1 C2 1_555 1_555
C2 H2 1_555 1_555
H3 C2 1_555 1_555
C3 C2 1_555 1_555
H4 C3 1_555 1_555
H5 C3 1_555 1_555
C4 C3 1_555 1_555
H6 C4 1_555 1_555
C5 C4 1_555 1_555
C6 C5 1_555 1_555
H7 C6 1_555 1_555
H8 C6 1_555 1_555
C7 C6 1_555 1_555
C8 C7 1_555 1_555
C9 C8 1_555 1_555
H9 C9 1_555 1_555
C10 O3 1_555 1_555
C11 C7 1_555 1_555
C12 O1 1_555 1_555
C13 C11 1_555 1_555
H10 C13 1_555 1_555
H11 C13 1_555 1_555
H12 C13 1_555 1_555
C14 C5 1_555 1_555
H13 C14 1_555 1_555
H14 C14 1_555 1_555
H15 C14 1_555 1_555
C15 C4 1_555 1_555
H16 C15 1_555 1_555
H17 C15 1_555 1_555
H18 C15 1_555 1_555
C1 C10 1_555 1_555
C5 C10 1_555 1_555
C9 C10 1_555 1_555
C11 C12 1_555 1_555

#END
