
#######################################################################
#
#                 Cambridge Crystallographic Data Centre
#                                CCDC 
#
#######################################################################
#
# If this CIF has been generated from an entry in the Cambridge 
# Structural Database, then it will include bibliographic, chemical, 
# crystal, experimental, refinement or atomic coordinate data resulting 
# from the CCDC's data processing and validation procedures.
#
#######################################################################

data_LAVVOV
_chemical_name_common            
difluoro-(2-(pyridin-2-yl)-4,5-dibromo-1H-imidazol-1-yl)-boron
_chemical_formula_moiety         'C8 H4 B1 Br2 F2 N3'
_chemical_name_systematic        
2,3-Dibromo-5,5-difluoro-5H-imidazo[1',2':3,4][1,3,2]diazaborolo[1,5-a]pyridine
_symmetry_cell_setting           monoclinic
_symmetry_space_group_name_H-M   'P 21/n'
_symmetry_Int_Tables_number      14
_space_group_name_Hall           '-P 2yn'
loop_
_symmetry_equiv_pos_site_id
_symmetry_equiv_pos_as_xyz
1 x,y,z
2 1/2-x,1/2+y,1/2-z
3 -x,-y,-z
4 1/2+x,1/2-y,1/2+z
_cell_length_a                   10.097(9)
_cell_length_b                   8.296(6)
_cell_length_c                   13.118(10)
_cell_angle_alpha                90
_cell_angle_beta                 108.898(13)
_cell_angle_gamma                90
_cell_volume                     1039.6
_cell_formula_units_Z            4
loop_
_atom_site_label
_atom_site_type_symbol
_atom_site_fract_x
_atom_site_fract_y
_atom_site_fract_z
C1 C 0.3833(6) 0.3373(7) 0.8511(4)
H1 H 0.3013 0.3507 0.7934
C2 C 0.5043(6) 0.4092(7) 0.8489(4)
H2 H 0.5049 0.4696 0.7893
C3 C 0.6264(6) 0.3916(6) 0.9357(5)
H3 H 0.7087 0.4413 0.9349
C4 C 0.6249(5) 0.2998(7) 1.0233(4)
H4 H 0.7059 0.2855 1.0818
C5 C 0.5002(5) 0.2299(6) 1.0217(4)
C6 C 0.4659(5) 0.1319(6) 1.1015(4)
C7 C 0.4373(5) -0.0059(7) 1.2263(4)
C8 C 0.3087(5) -0.0024(7) 1.1445(4)
B1 B 0.2496(6) 0.1584(8) 0.9510(4)
N1 N 0.3823(4) 0.2486(5) 0.9353(3)
N2 N 0.5343(4) 0.0795(5) 1.1995(3)
N3 N 0.3291(4) 0.0865(5) 1.0641(3)
Br1 Br 0.47059(7) -0.11116(8) 1.35771(4)
Br2 Br 0.14208(5) -0.10527(8) 1.13211(5)
F1 F 0.1492(3) 0.2638(4) 0.9521(2)
F2 F 0.2021(3) 0.0410(4) 0.8742(2)
loop_
_geom_bond_atom_site_label_1
_geom_bond_atom_site_label_2
_geom_bond_site_symmetry_1
_geom_bond_site_symmetry_2
C1 H1 1_555 1_555
C2 C1 1_555 1_555
H2 C2 1_555 1_555
C3 C2 1_555 1_555
H3 C3 1_555 1_555
C4 C3 1_555 1_555
H4 C4 1_555 1_555
C5 C4 1_555 1_555
C6 C5 1_555 1_555
C7 C8 1_555 1_555
C8 N3 1_555 1_555
B1 N1 1_555 1_555
N1 C1 1_555 1_555
N2 C6 1_555 1_555
N3 C6 1_555 1_555
Br1 C7 1_555 1_555
Br2 C8 1_555 1_555
F1 B1 1_555 1_555
F2 B1 1_555 1_555
C5 N1 1_555 1_555
C7 N2 1_555 1_555
B1 N3 1_555 1_555

#END
