
#######################################################################
#
#                 Cambridge Crystallographic Data Centre
#                                CCDC 
#
#######################################################################
#
# If this CIF has been generated from an entry in the Cambridge 
# Structural Database, then it will include bibliographic, chemical, 
# crystal, experimental, refinement or atomic coordinate data resulting 
# from the CCDC's data processing and validation procedures.
#
#######################################################################

data_LAVVIP
_chemical_formula_moiety         'C8 H5 Br2 N3'
_chemical_name_systematic        2-(4,5-Dibromo-1H-imidazol-2-yl)pyridine
_symmetry_cell_setting           orthorhombic
_symmetry_space_group_name_H-M   'P c c n'
_symmetry_Int_Tables_number      56
_space_group_name_Hall           '-P 2ab 2ac'
loop_
_symmetry_equiv_pos_site_id
_symmetry_equiv_pos_as_xyz
1 x,y,z
2 1/2-x,1/2-y,z
3 1/2+x,-y,1/2-z
4 -x,1/2+y,1/2-z
5 -x,-y,-z
6 1/2+x,1/2+y,-z
7 1/2-x,y,1/2+z
8 x,1/2-y,1/2+z
_cell_length_a                   13.529(10)
_cell_length_b                   14.187(9)
_cell_length_c                   10.234(8)
_cell_angle_alpha                90
_cell_angle_beta                 90
_cell_angle_gamma                90
_cell_volume                     1964.27
_exptl_crystal_colour            colorless
_exptl_crystal_description       prism
_cell_formula_units_Z            8
loop_
_atom_site_label
_atom_site_type_symbol
_atom_site_fract_x
_atom_site_fract_y
_atom_site_fract_z
Br1 Br 0.91962(4) 0.45408(5) 0.21479(7)
Br2 Br 0.71257(5) 0.59438(5) 0.34341(9)
N1 N 0.7460(3) 0.3746(3) 0.1020(5)
C1 C 0.7088(4) 0.4938(4) 0.2257(6)
N2 N 0.6220(3) 0.4617(3) 0.1756(5)
H1 H 0.5638 0.4842 0.1888
C2 C 0.5781(3) 0.3299(4) 0.0316(5)
C3 C 0.7856(4) 0.4423(4) 0.1814(6)
C4 C 0.6461(3) 0.3893(3) 0.1030(5)
C5 C 0.6125(3) 0.2499(3) -0.0169(5)
H2 H 0.6782 0.2328 -0.0042
N3 N 0.4785(4) 0.3572(4) 0.0168(6)
C6 C 0.4167(4) 0.2979(5) -0.0528(7)
H3 H 0.3503 0.3133 -0.0629
C7 C 0.5510(5) 0.1932(5) -0.0852(7)
H4 H 0.5752 0.1368 -0.1186
C8 C 0.4529(5) 0.2167(5) -0.1067(7)
H5 H 0.4125 0.1781 -0.1569
loop_
_geom_bond_atom_site_label_1
_geom_bond_atom_site_label_2
_geom_bond_site_symmetry_1
_geom_bond_site_symmetry_2
Br1 C3 1_555 1_555
Br2 C1 1_555 1_555
N1 C3 1_555 1_555
C1 N2 1_555 1_555
N2 H1 1_555 1_555
C2 C4 1_555 1_555
C3 C1 1_555 1_555
C4 N1 1_555 1_555
C5 C2 1_555 1_555
H2 C5 1_555 1_555
N3 C2 1_555 1_555
C6 N3 1_555 1_555
H3 C6 1_555 1_555
C7 C5 1_555 1_555
H4 C7 1_555 1_555
C8 C6 1_555 1_555
H5 C8 1_555 1_555
N2 C4 1_555 1_555
C7 C8 1_555 1_555

#END
