
#######################################################################
#
#                 Cambridge Crystallographic Data Centre
#                                CCDC 
#
#######################################################################
#
# If this CIF has been generated from an entry in the Cambridge 
# Structural Database, then it will include bibliographic, chemical, 
# crystal, experimental, refinement or atomic coordinate data resulting 
# from the CCDC's data processing and validation procedures.
#
#######################################################################

data_LAVWIP
_chemical_formula_moiety         'C19 H21 N1 O3'
_chemical_name_systematic        
'Methyl 2-methyl-5-oxo-4-p-tolyl-1,4,5,6,7,8-hexahydroquinoline-3-carboxylate'
_symmetry_cell_setting           monoclinic
_symmetry_space_group_name_H-M   'P 21/c'
_symmetry_Int_Tables_number      14
_space_group_name_Hall           '-P 2ybc'
loop_
_symmetry_equiv_pos_site_id
_symmetry_equiv_pos_as_xyz
1 x,y,z
2 -x,1/2+y,1/2-z
3 -x,-y,-z
4 x,1/2-y,1/2+z
_cell_length_a                   7.8338(15)
_cell_length_b                   15.095(3)
_cell_length_c                   13.962(3)
_cell_angle_alpha                90
_cell_angle_beta                 105.436(5)
_cell_angle_gamma                90
_cell_volume                     1591.47
_exptl_crystal_colour            colorless
_exptl_crystal_description       block
_cell_formula_units_Z            4
_exptl_crystal_recrystallization_method ethanol
loop_
_atom_site_label
_atom_site_type_symbol
_atom_site_fract_x
_atom_site_fract_y
_atom_site_fract_z
O1 O 0.39522(14) 0.21452(7) 0.09977(7)
O2 O 0.96668(14) 0.41203(9) 0.41562(8)
O3 O 0.86076(12) 0.42985(7) 0.25115(7)
N1 N 0.43779(14) 0.33862(7) 0.41278(8)
C1 C 0.35039(16) 0.28794(8) 0.33350(9)
C2 C 0.40187(15) 0.28928(8) 0.24778(8)
C3 C 0.53959(15) 0.35590(8) 0.23502(8)
H1 H 0.6117 0.3276 0.1941
C4 C 0.66256(16) 0.37812(8) 0.33611(9)
C5 C 0.60375(16) 0.37424(8) 0.41910(9)
C6 C 0.33129(16) 0.22424(8) 0.17099(9)
C7 C 0.18101(18) 0.16599(9) 0.18145(11)
H2 H 0.2293 0.1081 0.2093
H3 H 0.1000 0.1552 0.1148
C8 C 0.07639(18) 0.20670(9) 0.24836(10)
H4 H 0.0133 0.2603 0.2164
H5 H -0.0128 0.1638 0.2585
C9 C 0.20191(18) 0.23118(9) 0.34801(10)
H6 H 0.1361 0.2636 0.3885
H7 H 0.2511 0.1766 0.3843
C10 C 0.44748(16) 0.43728(8) 0.17868(9)
C11 C 0.3751(3) 0.43195(11) 0.07656(11)
H8 H 0.3873 0.3787 0.0427
C12 C 0.2854(3) 0.50304(12) 0.02328(12)
H9 H 0.2369 0.4974 -0.0464
C13 C 0.2648(2) 0.58212(10) 0.06909(11)
C14 C 0.33865(18) 0.58778(9) 0.17087(10)
H10 H 0.3277 0.6414 0.2044
C15 C 0.42844(16) 0.51653(9) 0.22486(9)
H11 H 0.4775 0.5223 0.2945
C16 C 0.84361(17) 0.40792(9) 0.34183(9)
C17 C 1.03324(17) 0.46132(10) 0.24855(11)
H12 H 1.0679 0.5111 0.2947
H13 H 1.0292 0.4809 0.1811
H14 H 1.1198 0.4133 0.2681
C18 C 0.69805(19) 0.40596(10) 0.52161(10)
H15 H 0.7600 0.3562 0.5609
H16 H 0.6117 0.4306 0.5538
H17 H 0.7840 0.4518 0.5169
C19 C 0.1671(3) 0.65923(12) 0.00988(14)
H18 H 0.1741 0.7107 0.0536
H19 H 0.0427 0.6431 -0.0184
H20 H 0.2212 0.6739 -0.0439
H21 H 0.404(2) 0.3317(12) 0.4656(13)
loop_
_geom_bond_atom_site_label_1
_geom_bond_atom_site_label_2
_geom_bond_site_symmetry_1
_geom_bond_site_symmetry_2
O1 C6 1_555 1_555
O2 C16 1_555 1_555
O3 C16 1_555 1_555
N1 C1 1_555 1_555
C1 C2 1_555 1_555
C2 C3 1_555 1_555
C3 H1 1_555 1_555
C4 C3 1_555 1_555
C5 N1 1_555 1_555
C6 C2 1_555 1_555
C7 C6 1_555 1_555
H2 C7 1_555 1_555
H3 C7 1_555 1_555
C8 C7 1_555 1_555
H4 C8 1_555 1_555
H5 C8 1_555 1_555
C9 C1 1_555 1_555
H6 C9 1_555 1_555
H7 C9 1_555 1_555
C10 C3 1_555 1_555
C11 C10 1_555 1_555
H8 C11 1_555 1_555
C12 C11 1_555 1_555
H9 C12 1_555 1_555
C13 C12 1_555 1_555
C14 C13 1_555 1_555
H10 C14 1_555 1_555
C15 C10 1_555 1_555
H11 C15 1_555 1_555
C16 C4 1_555 1_555
C17 O3 1_555 1_555
H12 C17 1_555 1_555
H13 C17 1_555 1_555
H14 C17 1_555 1_555
C18 C5 1_555 1_555
H15 C18 1_555 1_555
H16 C18 1_555 1_555
H17 C18 1_555 1_555
C19 C13 1_555 1_555
H18 C19 1_555 1_555
H19 C19 1_555 1_555
H20 C19 1_555 1_555
H21 N1 1_555 1_555
C4 C5 1_555 1_555
C8 C9 1_555 1_555
C14 C15 1_555 1_555

#END
