
#######################################################################
#
#                 Cambridge Crystallographic Data Centre
#                                CCDC 
#
#######################################################################
#
# If this CIF has been generated from an entry in the Cambridge 
# Structural Database, then it will include bibliographic, chemical, 
# crystal, experimental, refinement or atomic coordinate data resulting 
# from the CCDC's data processing and validation procedures.
#
#######################################################################

data_LAVXOY
_chemical_formula_moiety         'C38 H35 Cl1 N1 O5 P1'
_chemical_name_systematic        
'methyl 5-t-butyl-3-(4-chlorophenyl)-4-cyano-2-[2-methoxy-2-oxo-1-(triphenyl-\l^5^-phosphanylidene)ethyl]-2,3-dihydrofuran-2-carboxylate'
_symmetry_cell_setting           monoclinic
_symmetry_space_group_name_H-M   'P 21/c'
_symmetry_Int_Tables_number      14
_space_group_name_Hall           '-P 2ybc'
loop_
_symmetry_equiv_pos_site_id
_symmetry_equiv_pos_as_xyz
1 x,y,z
2 -x,1/2+y,1/2-z
3 -x,-y,-z
4 x,1/2-y,1/2+z
_cell_length_a                   11.413(2)
_cell_length_b                   14.016(3)
_cell_length_c                   22.194(4)
_cell_angle_alpha                90
_cell_angle_beta                 107.720(9)
_cell_angle_gamma                90
_cell_volume                     3381.81
_exptl_crystal_colour            colorless
_exptl_crystal_description       BLOCK
_cell_formula_units_Z            4
loop_
_atom_site_label
_atom_site_type_symbol
_atom_site_fract_x
_atom_site_fract_y
_atom_site_fract_z
C1 C 0.6819(3) 0.7651(3) 0.6628(2)
H1 H 0.6741 0.7569 0.6202
C2 C 0.7969(4) 0.7745(4) 0.7063(3)
H2 H 0.8664 0.7724 0.6928
C3 C 0.8100(4) 0.7868(4) 0.7687(3)
H3 H 0.8880 0.7945 0.7974
C4 C 0.7077(4) 0.7881(3) 0.7897(2)
H4 H 0.7165 0.7961 0.8325
C5 C 0.5919(3) 0.7773(3) 0.74641(19)
H5 H 0.5230 0.7763 0.7604
C6 C 0.5776(3) 0.7680(2) 0.68259(18)
C7 C 0.2446(3) 0.9023(3) 0.58996(17)
H6 H 0.2080 0.8594 0.5578
C8 C 0.1902(4) 0.9888(3) 0.59157(19)
H7 H 0.1162 1.0039 0.5613
C9 C 0.2453(4) 1.0532(3) 0.6380(2)
H8 H 0.2094 1.1125 0.6389
C10 C 0.3516(4) 1.0304(3) 0.6823(2)
H9 H 0.3888 1.0746 0.7135
C11 C 0.4059(3) 0.9428(3) 0.6822(2)
H10 H 0.4784 0.9277 0.7137
C12 C 0.3533(3) 0.8775(2) 0.63550(16)
C13 C 0.4989(3) 0.8403(3) 0.52983(19)
H11 H 0.5432 0.8843 0.5595
C14 C 0.5010(4) 0.8454(3) 0.4680(2)
H12 H 0.5492 0.8912 0.4566
C15 C 0.4322(4) 0.7832(4) 0.4235(2)
H13 H 0.4335 0.7870 0.3819
C16 C 0.3618(4) 0.7153(3) 0.4404(2)
H14 H 0.3132 0.6746 0.4098
C17 C 0.3624(4) 0.7070(3) 0.50241(19)
H15 H 0.3168 0.6591 0.5137
C18 C 0.4306(3) 0.7697(2) 0.54798(17)
C19 C 0.1123(5) 0.8691(3) 0.7413(3)
H16 H 0.1305 0.8355 0.7808
H17 H 0.0328 0.8985 0.7320
H18 H 0.1736 0.9173 0.7442
C20 C 0.2183(4) 0.7530(2) 0.7024(2)
C21 C 0.2152(3) 0.6779(2) 0.65026(16)
C22 C 0.3386(3) 0.6660(2) 0.64153(17)
C23 C 0.3945(4) 0.5774(3) 0.6376(2)
C24 C 0.5675(5) 0.5063(4) 0.6160(3)
H19 H 0.5756 0.4642 0.6512
H20 H 0.6478 0.5249 0.6148
H21 H 0.5247 0.4742 0.5774
C25 C 0.2614(4) 0.5347(3) 0.77665(19)
H22 H 0.3255 0.5146 0.7620
C26 C 0.2711(6) 0.5245(3) 0.8389(2)
H23 H 0.3419 0.4981 0.8665
C27 C 0.1770(6) 0.5527(4) 0.8609(2)
C28 C 0.0748(5) 0.5928(4) 0.8207(2)
H24 H 0.0115 0.6134 0.8358
C29 C 0.0650(4) 0.6030(3) 0.75744(19)
H25 H -0.0058 0.6295 0.7298
C30 C 0.1585(3) 0.5743(2) 0.73525(16)
C31 C 0.1531(3) 0.5849(2) 0.66634(16)
H26 H 0.1954 0.5300 0.6552
C32 C 0.0275(3) 0.5895(3) 0.61980(17)
C33 C -0.0629(4) 0.5188(3) 0.61959(19)
C34 C 0.0204(3) 0.6599(3) 0.57822(18)
C35 C -0.0786(4) 0.6936(4) 0.5202(2)
C36 C -0.0291(5) 0.6970(6) 0.4661(2)
H27 H -0.0076 0.6338 0.4567
H28 H 0.0427 0.7368 0.4765
H29 H -0.0902 0.7227 0.4299
C37 C -0.1134(5) 0.7954(5) 0.5324(3)
H30 H -0.0422 0.8357 0.5408
H31 H -0.1440 0.7959 0.5682
H32 H -0.1760 0.8186 0.4958
C38 C -0.1953(5) 0.6353(5) 0.5084(3)
H33 H -0.2581 0.6615 0.4730
H34 H -0.2224 0.6371 0.5453
H35 H -0.1793 0.5705 0.4994
Cl1 Cl 0.18911(19) 0.53810(13) 0.93971(6)
N1 N -0.1285(4) 0.4599(3) 0.6228(2)
O1 O 0.1125(2) 0.80052(19) 0.68979(13)
O2 O 0.3028(3) 0.76262(19) 0.74851(14)
O3 O 0.3622(3) 0.4971(2) 0.6462(2)
O4 O 0.5006(2) 0.58852(18) 0.62301(14)
O5 O 0.1255(2) 0.71065(17) 0.59085(11)
P1 P 0.42309(8) 0.76285(6) 0.62799(4)
loop_
_geom_bond_atom_site_label_1
_geom_bond_atom_site_label_2
_geom_bond_site_symmetry_1
_geom_bond_site_symmetry_2
C1 H1 1_555 1_555
C2 C1 1_555 1_555
H2 C2 1_555 1_555
C3 C2 1_555 1_555
H3 C3 1_555 1_555
C4 C3 1_555 1_555
H4 C4 1_555 1_555
C5 C4 1_555 1_555
H5 C5 1_555 1_555
C6 C1 1_555 1_555
C7 H6 1_555 1_555
C8 C7 1_555 1_555
H7 C8 1_555 1_555
C9 C8 1_555 1_555
H8 C9 1_555 1_555
C10 C9 1_555 1_555
H9 C10 1_555 1_555
C11 C10 1_555 1_555
H10 C11 1_555 1_555
C12 C7 1_555 1_555
C13 H11 1_555 1_555
C14 C13 1_555 1_555
H12 C14 1_555 1_555
C15 C14 1_555 1_555
H13 C15 1_555 1_555
C16 C15 1_555 1_555
H14 C16 1_555 1_555
C17 C16 1_555 1_555
H15 C17 1_555 1_555
C18 C13 1_555 1_555
C19 H16 1_555 1_555
H17 C19 1_555 1_555
H18 C19 1_555 1_555
C20 C21 1_555 1_555
C21 C22 1_555 1_555
C22 C23 1_555 1_555
C23 O3 1_555 1_555
C24 H19 1_555 1_555
H20 C24 1_555 1_555
H21 C24 1_555 1_555
C25 H22 1_555 1_555
C26 C25 1_555 1_555
H23 C26 1_555 1_555
C27 C26 1_555 1_555
C28 C27 1_555 1_555
H24 C28 1_555 1_555
C29 C28 1_555 1_555
H25 C29 1_555 1_555
C30 C25 1_555 1_555
C31 C21 1_555 1_555
H26 C31 1_555 1_555
C32 C31 1_555 1_555
C33 C32 1_555 1_555
C34 C32 1_555 1_555
C35 C34 1_555 1_555
C36 C35 1_555 1_555
H27 C36 1_555 1_555
H28 C36 1_555 1_555
H29 C36 1_555 1_555
C37 C35 1_555 1_555
H30 C37 1_555 1_555
H31 C37 1_555 1_555
H32 C37 1_555 1_555
C38 C35 1_555 1_555
H33 C38 1_555 1_555
H34 C38 1_555 1_555
H35 C38 1_555 1_555
Cl1 C27 1_555 1_555
N1 C33 1_555 1_555
O1 C19 1_555 1_555
O2 C20 1_555 1_555
O4 C23 1_555 1_555
O5 C21 1_555 1_555
P1 C6 1_555 1_555
C5 C6 1_555 1_555
C11 C12 1_555 1_555
C12 P1 1_555 1_555
C17 C18 1_555 1_555
C18 P1 1_555 1_555
C20 O1 1_555 1_555
C22 P1 1_555 1_555
C24 O4 1_555 1_555
C29 C30 1_555 1_555
C30 C31 1_555 1_555
C34 O5 1_555 1_555

#END
