
#######################################################################
#
#                 Cambridge Crystallographic Data Centre
#                                CCDC 
#
#######################################################################
#
# If this CIF has been generated from an entry in the Cambridge 
# Structural Database, then it will include bibliographic, chemical, 
# crystal, experimental, refinement or atomic coordinate data resulting 
# from the CCDC's data processing and validation procedures.
#
#######################################################################

data_LAWCOC
_chemical_formula_moiety         'C13 H10 N4 O4'
_chemical_name_systematic        
'(E)-2-Nitrobenzaldehyde 3-nitrophenylhydrazone'
_symmetry_cell_setting           monoclinic
_symmetry_space_group_name_H-M   'P 21/c'
_symmetry_Int_Tables_number      14
_space_group_name_Hall           '-P 2ybc'
loop_
_symmetry_equiv_pos_site_id
_symmetry_equiv_pos_as_xyz
1 x,y,z
2 -x,1/2+y,1/2-z
3 -x,-y,-z
4 x,1/2-y,1/2+z
_cell_length_a                   5.9845(2)
_cell_length_b                   5.5962(2)
_cell_length_c                   19.1168(6)
_cell_angle_alpha                90
_cell_angle_beta                 104.558(2)
_cell_angle_gamma                90
_cell_volume                     619.675
_exptl_crystal_colour            orange
_exptl_crystal_description       block
_cell_formula_units_Z            2
_exptl_crystal_recrystallization_method methanol/1,2-dichloroethane
loop_
_atom_site_label
_atom_site_type_symbol
_atom_site_fract_x
_atom_site_fract_y
_atom_site_fract_z
O1 O -0.1887(3) 0.8431(4) 0.43869(10)
O2 O -0.4466(3) 0.7503(4) 0.34233(12)
N1 N 0.4510(7) 0.2491(8) 0.4389(2)
N2 N 0.5531(7) 0.4005(8) 0.4928(2)
N3 N -0.2584(4) 0.7171(4) 0.38563(11)
C1 C 0.2337(4) 0.2959(5) 0.39702(13)
C2 C 0.1116(4) 0.4918(5) 0.41351(13)
C3 C -0.1153(4) 0.5182(5) 0.37179(13)
C4 C -0.2180(4) 0.3638(5) 0.31671(13)
C5 C -0.0907(4) 0.1734(5) 0.30107(13)
C6 C 0.1348(4) 0.1399(5) 0.34160(13)
C7 C 0.2413(8) 0.6580(9) 0.4713(3)
H1 H 0.5247 0.1201 0.4307
H2 H 0.3926 0.2922 0.4218
H3 H 0.1832 0.5996 0.4508
H4 H -0.3732 0.3878 0.2900
H5 H -0.1572 0.0665 0.2629
H6 H 0.2220 0.0087 0.3312
H7 H 0.1734 0.8034 0.4813
O1B O 1.1887(3) 0.1569(4) 0.56131(10)
O2B O 1.4466(3) 0.2497(4) 0.65767(12)
N1B N 0.5490(7) 0.7509(8) 0.5611(2)
N2B N 0.4469(7) 0.5995(8) 0.5072(2)
N3B N 1.2584(4) 0.2829(4) 0.61437(11)
C1B C 0.7663(4) 0.7041(5) 0.60298(13)
C2B C 0.8884(4) 0.5082(5) 0.58649(13)
C3B C 1.1153(4) 0.4818(5) 0.62821(13)
C4B C 1.2180(4) 0.6362(5) 0.68329(13)
C5B C 1.0907(4) 0.8266(5) 0.69893(13)
C6B C 0.8652(4) 0.8601(5) 0.65840(13)
C7B C 0.7587(8) 0.3420(9) 0.5287(3)
H1B H 0.4753 0.8799 0.5693
H2B H 0.6074 0.7078 0.5782
H3B H 0.8168 0.4004 0.5492
H4B H 1.3732 0.6122 0.7100
H5B H 1.1572 0.9335 0.7371
H6B H 0.7780 0.9913 0.6688
H7B H 0.8266 0.1966 0.5187
loop_
_geom_bond_atom_site_label_1
_geom_bond_atom_site_label_2
_geom_bond_site_symmetry_1
_geom_bond_site_symmetry_2
O1 N3 1_555 1_555
O2 N3 1_555 1_555
N1 N2 1_555 1_555
N2 N2B 1_555 1_555
N3 C3 1_555 1_555
C1 N1 1_555 1_555
C2 C1 1_555 1_555
C3 C2 1_555 1_555
C4 C3 1_555 1_555
C5 C4 1_555 1_555
C6 C1 1_555 1_555
C7 C2 1_555 1_555
H1 N1 1_555 1_555
H2 N1 1_555 1_555
H3 C2 1_555 1_555
H4 C4 1_555 1_555
H5 C5 1_555 1_555
H6 C6 1_555 1_555
H7 C7 1_555 1_555
O1B N3B 1_555 1_555
O2B N3B 1_555 1_555
N1B N2B 1_555 1_555
N2B C7 1_555 1_555
N3B C3B 1_555 1_555
C1B N1B 1_555 1_555
C2B C1B 1_555 1_555
C3B C2B 1_555 1_555
C4B C3B 1_555 1_555
C5B C4B 1_555 1_555
C6B C1B 1_555 1_555
C7B N2 1_555 1_555
H1B N1B 1_555 1_555
H2B N1B 1_555 1_555
H3B C2B 1_555 1_555
H4B C4B 1_555 1_555
H5B C5B 1_555 1_555
H6B C6B 1_555 1_555
H7B C7B 1_555 1_555
C1 H2 1_555 1_555
C5 C6 1_555 1_555
C7 H3 1_555 1_555
C1B H2B 1_555 1_555
C2B C7B 1_555 1_555
C5B C6B 1_555 1_555
C7B H3B 1_555 1_555

#END
