
#######################################################################
#
#                 Cambridge Crystallographic Data Centre
#                                CCDC 
#
#######################################################################
#
# If this CIF has been generated from an entry in the Cambridge 
# Structural Database, then it will include bibliographic, chemical, 
# crystal, experimental, refinement or atomic coordinate data resulting 
# from the CCDC's data processing and validation procedures.
#
#######################################################################

data_LAWDET
_chemical_formula_moiety         'C13 H9 Cl2 N3 O1'
_chemical_name_systematic        
'2,3-Dichlorobenzaldehyde isonicotinoylhydrazone'
_symmetry_cell_setting           monoclinic
_symmetry_space_group_name_H-M   'P 21/c'
_symmetry_Int_Tables_number      14
_space_group_name_Hall           '-P 2ybc'
loop_
_symmetry_equiv_pos_site_id
_symmetry_equiv_pos_as_xyz
1 x,y,z
2 -x,1/2+y,1/2-z
3 -x,-y,-z
4 x,1/2-y,1/2+z
_cell_length_a                   7.7369(2)
_cell_length_b                   10.7764(4)
_cell_length_c                   14.9091(5)
_cell_angle_alpha                90
_cell_angle_beta                 90.2400(18)
_cell_angle_gamma                90
_cell_volume                     1243.05
_exptl_crystal_colour            colorless
_exptl_crystal_description       plate
_chemical_melting_point          '511-512 K'
_cell_formula_units_Z            4
_exptl_crystal_recrystallization_method ethanol
loop_
_atom_site_label
_atom_site_type_symbol
_atom_site_fract_x
_atom_site_fract_y
_atom_site_fract_z
Cl1 Cl 0.04940(5) 0.24580(4) 0.42803(2)
Cl2 Cl -0.10886(5) 0.09016(3) 0.58410(3)
O1 O 0.51413(15) 0.78229(11) 0.53171(7)
N1 N 0.63516(16) 0.99082(12) 0.23853(9)
N2 N 0.39121(15) 0.64469(12) 0.43497(8)
N3 N 0.32647(16) 0.57712(11) 0.50549(9)
C1 C 0.5589(2) 0.88125(15) 0.22055(10)
C2 C 0.5094(2) 0.79782(15) 0.28652(10)
C3 C 0.53873(18) 0.82704(14) 0.37632(10)
C4 C 0.62092(19) 0.93893(15) 0.39518(11)
C5 C 0.6659(2) 1.01645(15) 0.32536(11)
C6 C 0.48243(19) 0.74973(13) 0.45513(11)
C7 C 0.15624(18) 0.40883(13) 0.55589(10)
C8 C 0.06857(18) 0.29789(14) 0.53716(10)
C9 C -0.00409(19) 0.22879(14) 0.60658(10)
C10 C 0.0077(2) 0.26876(15) 0.69431(11)
C11 C 0.0932(2) 0.37925(16) 0.71337(11)
C12 C 0.1665(2) 0.44816(15) 0.64513(11)
C13 C 0.23389(18) 0.48333(14) 0.48410(10)
H1 H 0.5380 0.8600 0.1596
H2 H 0.4560 0.7215 0.2706
H3 H 0.6458 0.9617 0.4554
H4 H 0.7220 1.0924 0.3395
H5 H 0.3793 0.6147 0.3804
H6 H -0.0420 0.2212 0.7413
H7 H 0.1012 0.4076 0.7736
H8 H 0.2248 0.5234 0.6591
H9 H 0.2157 0.4622 0.4229
loop_
_geom_bond_atom_site_label_1
_geom_bond_atom_site_label_2
_geom_bond_site_symmetry_1
_geom_bond_site_symmetry_2
Cl1 C8 1_555 1_555
Cl2 C9 1_555 1_555
O1 C6 1_555 1_555
N1 C1 1_555 1_555
N2 N3 1_555 1_555
N3 C13 1_555 1_555
C1 C2 1_555 1_555
C2 C3 1_555 1_555
C3 C4 1_555 1_555
C4 C5 1_555 1_555
C5 N1 1_555 1_555
C6 N2 1_555 1_555
C7 C8 1_555 1_555
C8 C9 1_555 1_555
C9 C10 1_555 1_555
C10 C11 1_555 1_555
C11 C12 1_555 1_555
C12 C7 1_555 1_555
C13 C7 1_555 1_555
H1 C1 1_555 1_555
H2 C2 1_555 1_555
H3 C4 1_555 1_555
H4 C5 1_555 1_555
H5 N2 1_555 1_555
H6 C10 1_555 1_555
H7 C11 1_555 1_555
H8 C12 1_555 1_555
H9 C13 1_555 1_555
C3 C6 1_555 1_555

#END
