
#######################################################################
#
#                 Cambridge Crystallographic Data Centre
#                                CCDC 
#
#######################################################################
#
# If this CIF has been generated from an entry in the Cambridge 
# Structural Database, then it will include bibliographic, chemical, 
# crystal, experimental, refinement or atomic coordinate data resulting 
# from the CCDC's data processing and validation procedures.
#
#######################################################################

data_LAWDOD
_chemical_name_common            Tetraresorcinol
_chemical_formula_moiety         'C24 H20 O8 Si1'
_chemical_name_systematic        tetrakis(3,5-Dihydroxyphenyl)silane
_symmetry_cell_setting           tetragonal
_symmetry_space_group_name_H-M   'I -4 2 d'
_symmetry_Int_Tables_number      122
_space_group_name_Hall           'I -4 2bw'
loop_
_symmetry_equiv_pos_site_id
_symmetry_equiv_pos_as_xyz
1 x,y,z
2 y,-x,-z
3 -x,-y,z
4 -y,x,-z
5 x,1/2-y,1/4-z
6 1/2-y,-x,3/4+z
7 -x,1/2+y,1/4-z
8 1/2+y,x,3/4+z
9 1/2+x,1/2+y,1/2+z
10 1/2+y,1/2-x,1/2-z
11 1/2-x,1/2-y,1/2+z
12 1/2-y,1/2+x,1/2-z
13 1/2+x,-y,3/4-z
14 -y,1/2-x,1/4+z
15 1/2-x,y,3/4-z
16 y,1/2+x,1/4+z
_cell_length_a                   17.3347(8)
_cell_length_b                   17.3347(8)
_cell_length_c                   36.855(3)
_cell_angle_alpha                90
_cell_angle_beta                 90
_cell_angle_gamma                90
_cell_volume                     11074.6
_exptl_crystal_colour            colorless
_exptl_crystal_description       block
_cell_formula_units_Z            20
_exptl_crystal_recrystallization_method 'hexane/methyl propiolate'
loop_
_atom_site_label
_atom_site_type_symbol
_atom_site_fract_x
_atom_site_fract_y
_atom_site_fract_z
Si1 Si 0.5000 0.5000 0.0000
C1 C 0.5138(5) 0.4118(7) 0.0295(3)
C2 C 0.5860(5) 0.3730(5) 0.0293(2)
H1 H 0.6256 0.3894 0.0137
C3 C 0.5975(5) 0.3109(5) 0.0521(2)
C4 C 0.5391(5) 0.2868(5) 0.0753(3)
H2 H 0.5455 0.2447 0.0911
C5 C 0.4701(6) 0.3285(6) 0.0738(3)
C6 C 0.4543(6) 0.3910(6) 0.0516(2)
H3 H 0.4066 0.4169 0.0517
O1 O 0.6728(3) 0.2804(3) 0.05650(16)
H4 H 0.6748 0.2550 0.0755
O2 O 0.4106(4) 0.3015(4) 0.09551(18)
H5 H 0.4268 0.2944 0.1164
C1A C 0.4118(7) 0.4862(5) -0.0295(3)
C1B C 0.4862(5) 0.5882(7) 0.0295(3)
C1C C 0.5882(7) 0.5138(5) -0.0295(3)
C2A C 0.3730(5) 0.4140(5) -0.0293(2)
C2B C 0.4140(5) 0.6270(5) 0.0293(2)
C2C C 0.6270(5) 0.5860(5) -0.0293(2)
H1A H 0.3894 0.3744 -0.0137
H1B H 0.3744 0.6106 0.0137
H1C H 0.6106 0.6256 -0.0137
C3A C 0.3109(5) 0.4025(5) -0.0521(2)
C3B C 0.4025(5) 0.6891(5) 0.0521(2)
C3C C 0.6891(5) 0.5975(5) -0.0521(2)
C4A C 0.2868(5) 0.4609(5) -0.0753(3)
C4B C 0.4609(5) 0.7132(5) 0.0753(3)
C4C C 0.7132(5) 0.5391(5) -0.0753(3)
H2A H 0.2447 0.4545 -0.0911
H2B H 0.4545 0.7553 0.0911
H2C H 0.7553 0.5455 -0.0911
C5A C 0.3285(6) 0.5299(6) -0.0738(3)
C5B C 0.5299(6) 0.6715(6) 0.0738(3)
C5C C 0.6715(6) 0.4701(6) -0.0738(3)
C6A C 0.3910(6) 0.5457(6) -0.0516(2)
C6B C 0.5457(6) 0.6090(6) 0.0516(2)
C6C C 0.6090(6) 0.4543(6) -0.0516(2)
H3A H 0.4169 0.5934 -0.0517
H3B H 0.5934 0.5831 0.0517
H3C H 0.5831 0.4066 -0.0517
O1A O 0.2804(3) 0.3272(3) -0.05650(16)
O1B O 0.3272(3) 0.7196(3) 0.05650(16)
O1C O 0.7196(3) 0.6728(3) -0.05650(16)
H4A H 0.2550 0.3252 -0.0755
H4B H 0.3252 0.7450 0.0755
H4C H 0.7450 0.6748 -0.0755
O2A O 0.3015(4) 0.5894(4) -0.09551(18)
O2B O 0.5894(4) 0.6985(4) 0.09551(18)
O2C O 0.6985(4) 0.4106(4) -0.09551(18)
H5A H 0.2944 0.5732 -0.1164
H5B H 0.5732 0.7056 0.1164
H5C H 0.7056 0.4268 -0.1164
Si2 Si 0.5000 0.5000 0.20003(15)
C7 C 0.5174(5) 0.5845(6) 0.2294(3)
C8 C 0.4569(6) 0.6125(5) 0.2529(2)
H6 H 0.4077 0.5896 0.2528
C9 C 0.4736(6) 0.6743(7) 0.2757(3)
C10 C 0.5409(5) 0.7113(6) 0.2753(3)
H7 H 0.5492 0.7548 0.2901
C11 C 0.5995(6) 0.6834(6) 0.2522(3)
C12 C 0.5876(5) 0.6263(5) 0.2286(2)
H8 H 0.6259 0.6137 0.2115
O3 O 0.4088(3) 0.6991(3) 0.29707(15)
H9 H 0.4242 0.7265 0.3140
O4 O 0.6668(3) 0.7307(3) 0.25184(15)
H10 H 0.6762 0.7457 0.2727
C13 C 0.4149(6) 0.5193(5) 0.1699(3)
C14 C 0.3774(5) 0.5850(6) 0.1680(2)
H11 H 0.3950 0.6249 0.1831
C15 C 0.3135(5) 0.6019(5) 0.1457(2)
C16 C 0.2894(5) 0.5422(5) 0.1232(3)
H12 H 0.2487 0.5508 0.1068
C17 C 0.3227(6) 0.4731(6) 0.1244(3)
C18 C 0.3879(6) 0.4579(6) 0.1468(2)
H13 H 0.4125 0.4096 0.1466
O5 O 0.2718(4) 0.6695(4) 0.14658(16)
H14 H 0.2863 0.6982 0.1299
O6 O 0.2967(3) 0.4136(3) 0.10221(15)
H15 H 0.3272 0.3767 0.1034
C7B C 0.4826(5) 0.4155(6) 0.2294(3)
C8B C 0.5431(6) 0.3875(5) 0.2529(2)
H6B H 0.5923 0.4104 0.2528
C9B C 0.5264(6) 0.3257(7) 0.2757(3)
C10B C 0.4591(5) 0.2887(6) 0.2753(3)
H7B H 0.4508 0.2452 0.2901
C11B C 0.4005(6) 0.3166(6) 0.2522(3)
C12B C 0.4124(5) 0.3737(5) 0.2286(2)
H8B H 0.3741 0.3863 0.2115
O3B O 0.5912(3) 0.3009(3) 0.29707(15)
H9B H 0.5758 0.2735 0.3140
O4B O 0.3332(3) 0.2693(3) 0.25184(15)
H10B H 0.3238 0.2543 0.2727
C13B C 0.5851(6) 0.4807(5) 0.1699(3)
C14B C 0.6226(5) 0.4150(6) 0.1680(2)
H11B H 0.6050 0.3751 0.1831
C15B C 0.6865(5) 0.3981(5) 0.1457(2)
C16B C 0.7106(5) 0.4578(5) 0.1232(3)
H12B H 0.7513 0.4492 0.1068
C17B C 0.6773(6) 0.5269(6) 0.1244(3)
C18B C 0.6121(6) 0.5421(6) 0.1468(2)
H13B H 0.5875 0.5904 0.1466
O5B O 0.7282(4) 0.3305(4) 0.14658(16)
H14B H 0.7137 0.3018 0.1299
O6B O 0.7033(3) 0.5864(3) 0.10221(15)
H15B H 0.6728 0.6233 0.1034
Si3 Si 0.0000 0.0000 0.10019(16)
C19 C -0.0088(5) 0.0885(8) 0.1293(3)
C20 C -0.0766(5) 0.1273(6) 0.1308(3)
H16 H -0.1146 0.1123 0.1141
C21 C -0.0960(6) 0.1869(5) 0.1544(3)
C22 C -0.0394(6) 0.2124(5) 0.1770(3)
H17 H -0.0477 0.2539 0.1929
C23 C 0.0307(6) 0.1747(6) 0.1756(3)
C24 C 0.0484(6) 0.1133(6) 0.1520(2)
H18 H 0.0975 0.0903 0.1519
O7 O -0.1733(3) 0.2135(3) 0.15924(15)
H19 H -0.1788 0.2554 0.1486
O8 O 0.0945(3) 0.1934(3) 0.19502(16)
H20 H 0.0827 0.2248 0.2111
C25 C -0.0845(6) -0.0169(5) 0.0709(3)
C26 C -0.1233(5) -0.0899(5) 0.0705(2)
H21 H -0.1089 -0.1289 0.0869
C27 C -0.1843(6) -0.1029(5) 0.0449(2)
C28 C -0.2096(5) -0.0413(6) 0.0239(3)
H22 H -0.2508 -0.0497 0.0078
C29 C -0.1783(7) 0.0299(7) 0.0254(3)
C30 C -0.1195(6) 0.0384(6) 0.0496(3)
H23 H -0.1001 0.0887 0.0521
O9 O -0.2281(3) -0.1709(4) 0.04806(17)
H24 H -0.2558 -0.1760 0.0299
O10 O -0.2044(3) 0.0918(3) 0.00496(17)
H25 H -0.2134 0.0773 -0.0161
C19B C 0.0088(5) -0.0885(8) 0.1293(3)
C20B C 0.0766(5) -0.1273(6) 0.1308(3)
H16B H 0.1146 -0.1123 0.1141
C21B C 0.0960(6) -0.1869(5) 0.1544(3)
C22B C 0.0394(6) -0.2124(5) 0.1770(3)
H17B H 0.0477 -0.2539 0.1929
C23B C -0.0307(6) -0.1747(6) 0.1756(3)
C24B C -0.0484(6) -0.1133(6) 0.1520(2)
H18B H -0.0975 -0.0903 0.1519
O7B O 0.1733(3) -0.2135(3) 0.15924(15)
H19B H 0.1788 -0.2554 0.1486
O8B O -0.0945(3) -0.1934(3) 0.19502(16)
H20B H -0.0827 -0.2248 0.2111
C25B C 0.0845(6) 0.0169(5) 0.0709(3)
C26B C 0.1233(5) 0.0899(5) 0.0705(2)
H21B H 0.1089 0.1289 0.0869
C27B C 0.1843(6) 0.1029(5) 0.0449(2)
C28B C 0.2096(5) 0.0413(6) 0.0239(3)
H22B H 0.2508 0.0497 0.0078
C29B C 0.1783(7) -0.0299(7) 0.0254(3)
C30B C 0.1195(6) -0.0384(6) 0.0496(3)
H23B H 0.1001 -0.0887 0.0521
O9B O 0.2281(3) 0.1709(4) 0.04806(17)
H24B H 0.2558 0.1760 0.0299
O10B O 0.2044(3) -0.0918(3) 0.00496(17)
H25B H 0.2134 -0.0773 -0.0161
loop_
_geom_bond_atom_site_label_1
_geom_bond_atom_site_label_2
_geom_bond_site_symmetry_1
_geom_bond_site_symmetry_2
Si1 C1 1_555 1_555
C1 C2 1_555 1_555
C2 H1 1_555 1_555
C3 C2 1_555 1_555
C4 C3 1_555 1_555
H2 C4 1_555 1_555
C5 C4 1_555 1_555
C6 C1 1_555 1_555
H3 C6 1_555 1_555
O1 C3 1_555 1_555
H4 O1 1_555 1_555
O2 C5 1_555 1_555
H5 O2 1_555 1_555
Si2 C7 1_555 1_555
C7 C8 1_555 1_555
C8 H6 1_555 1_555
C9 C8 1_555 1_555
C10 C9 1_555 1_555
H7 C10 1_555 1_555
C11 C10 1_555 1_555
C12 C7 1_555 1_555
H8 C12 1_555 1_555
O3 C9 1_555 1_555
H9 O3 1_555 1_555
O4 C11 1_555 1_555
H10 O4 1_555 1_555
C13 Si2 1_555 1_555
C14 C13 1_555 1_555
H11 C14 1_555 1_555
C15 C14 1_555 1_555
C16 C15 1_555 1_555
H12 C16 1_555 1_555
C17 C16 1_555 1_555
C18 C13 1_555 1_555
H13 C18 1_555 1_555
O5 C15 1_555 1_555
H14 O5 1_555 1_555
O6 C17 1_555 1_555
H15 O6 1_555 1_555
Si3 C19 1_555 1_555
C19 C20 1_555 1_555
C20 H16 1_555 1_555
C21 C20 1_555 1_555
C22 C21 1_555 1_555
H17 C22 1_555 1_555
C23 C22 1_555 1_555
C24 C19 1_555 1_555
H18 C24 1_555 1_555
O7 C21 1_555 1_555
H19 O7 1_555 1_555
O8 C23 1_555 1_555
H20 O8 1_555 1_555
C25 Si3 1_555 1_555
C26 C25 1_555 1_555
H21 C26 1_555 1_555
C27 C26 1_555 1_555
C28 C27 1_555 1_555
H22 C28 1_555 1_555
C29 C28 1_555 1_555
C30 C25 1_555 1_555
H23 C30 1_555 1_555
O9 C27 1_555 1_555
H24 O9 1_555 1_555
O10 C29 1_555 1_555
H25 O10 1_555 1_555
C1A Si1 1_555 1_555
C1B Si1 1_555 1_555
C1C Si1 1_555 1_555
C2A C1A 1_555 1_555
C2B C1B 1_555 1_555
C2C C1C 1_555 1_555
H1A C2A 1_555 1_555
H1B C2B 1_555 1_555
H1C C2C 1_555 1_555
C3A C2A 1_555 1_555
C3B C2B 1_555 1_555
C3C C2C 1_555 1_555
C4A C3A 1_555 1_555
C4B C3B 1_555 1_555
C4C C3C 1_555 1_555
H2A C4A 1_555 1_555
H2B C4B 1_555 1_555
H2C C4C 1_555 1_555
C5A C4A 1_555 1_555
C5B C4B 1_555 1_555
C5C C4C 1_555 1_555
C6A C1A 1_555 1_555
C6B C1B 1_555 1_555
C6C C1C 1_555 1_555
H3A C6A 1_555 1_555
H3B C6B 1_555 1_555
H3C C6C 1_555 1_555
O1A C3A 1_555 1_555
O1B C3B 1_555 1_555
O1C C3C 1_555 1_555
H4A O1A 1_555 1_555
H4B O1B 1_555 1_555
H4C O1C 1_555 1_555
O2A C5A 1_555 1_555
O2B C5B 1_555 1_555
O2C C5C 1_555 1_555
H5A O2A 1_555 1_555
H5B O2B 1_555 1_555
H5C O2C 1_555 1_555
C7B Si2 1_555 1_555
C8B C7B 1_555 1_555
H6B C8B 1_555 1_555
C9B C8B 1_555 1_555
C10B C9B 1_555 1_555
H7B C10B 1_555 1_555
C11B C10B 1_555 1_555
C12B C7B 1_555 1_555
H8B C12B 1_555 1_555
O3B C9B 1_555 1_555
H9B O3B 1_555 1_555
O4B C11B 1_555 1_555
H10B O4B 1_555 1_555
C13B Si2 1_555 1_555
C14B C13B 1_555 1_555
H11B C14B 1_555 1_555
C15B C14B 1_555 1_555
C16B C15B 1_555 1_555
H12B C16B 1_555 1_555
C17B C16B 1_555 1_555
C18B C13B 1_555 1_555
H13B C18B 1_555 1_555
O5B C15B 1_555 1_555
H14B O5B 1_555 1_555
O6B C17B 1_555 1_555
H15B O6B 1_555 1_555
C19B Si3 1_555 1_555
C20B C19B 1_555 1_555
H16B C20B 1_555 1_555
C21B C20B 1_555 1_555
C22B C21B 1_555 1_555
H17B C22B 1_555 1_555
C23B C22B 1_555 1_555
C24B C19B 1_555 1_555
H18B C24B 1_555 1_555
O7B C21B 1_555 1_555
H19B O7B 1_555 1_555
O8B C23B 1_555 1_555
H20B O8B 1_555 1_555
C25B Si3 1_555 1_555
C26B C25B 1_555 1_555
H21B C26B 1_555 1_555
C27B C26B 1_555 1_555
C28B C27B 1_555 1_555
H22B C28B 1_555 1_555
C29B C28B 1_555 1_555
C30B C25B 1_555 1_555
H23B C30B 1_555 1_555
O9B C27B 1_555 1_555
H24B O9B 1_555 1_555
O10B C29B 1_555 1_555
H25B O10B 1_555 1_555
C5 C6 1_555 1_555
C11 C12 1_555 1_555
C17 C18 1_555 1_555
C23 C24 1_555 1_555
C29 C30 1_555 1_555
C5A C6A 1_555 1_555
C5B C6B 1_555 1_555
C5C C6C 1_555 1_555
C11B C12B 1_555 1_555
C17B C18B 1_555 1_555
C23B C24B 1_555 1_555
C29B C30B 1_555 1_555

#END
