
#######################################################################
#
#                 Cambridge Crystallographic Data Centre
#                                CCDC 
#
#######################################################################
#
# If this CIF has been generated from an entry in the Cambridge 
# Structural Database, then it will include bibliographic, chemical, 
# crystal, experimental, refinement or atomic coordinate data resulting 
# from the CCDC's data processing and validation procedures.
#
#######################################################################

data_LAWKAW
_chemical_formula_moiety         'C16 H15 N3 O2'
_chemical_name_systematic        
(+-)-(3aSR,4SR,8aRS,8bRS)-4-(1,3-dioxodecahydropyrrolo[3,4-a]pyrolizin-4-yl)benzonitrile
_symmetry_cell_setting           monoclinic
_symmetry_space_group_name_H-M   'P 21/c'
_symmetry_Int_Tables_number      14
_space_group_name_Hall           '-P 2ybc'
loop_
_symmetry_equiv_pos_site_id
_symmetry_equiv_pos_as_xyz
1 x,y,z
2 -x,1/2+y,1/2-z
3 -x,-y,-z
4 x,1/2-y,1/2+z
_cell_length_a                   9.305(2)
_cell_length_b                   16.216(4)
_cell_length_c                   9.240(2)
_cell_angle_alpha                90
_cell_angle_beta                 90.83(2)
_cell_angle_gamma                90
_cell_volume                     1394.08
_exptl_crystal_colour            colorless
_chemical_melting_point          'above 220 deg.C(dec.)'
_cell_formula_units_Z            4
loop_
_atom_site_label
_atom_site_type_symbol
_atom_site_fract_x
_atom_site_fract_y
_atom_site_fract_z
C1 C 0.27392(18) 0.14108(11) -0.11569(17)
N1 N 0.37938(16) 0.09006(9) -0.06105(15)
H1 H 0.4260 0.0558 -0.1136
C2 C 0.40336(17) 0.09884(10) 0.08463(17)
C3 C 0.28832(17) 0.15390(10) 0.14440(16)
H2 H 0.3298 0.1993 0.2011
C4 C 0.17350(17) 0.10574(10) 0.23214(16)
H3 H 0.1320 0.1430 0.3038
N2 N 0.06255(15) 0.08575(9) 0.12242(14)
C5 C -0.0809(2) 0.07676(15) 0.1853(2)
H4 H -0.0731 0.0538 0.2820
H5 H -0.1397 0.0402 0.1262
C6 C -0.1480(3) 0.16198(18) 0.1906(3)
H6 H -0.1545 0.1809 0.2899
H7 H -0.2438 0.1611 0.1479
C7 C -0.0503(2) 0.21852(15) 0.1046(2)
H8 H 0.0029 0.2555 0.1682
H9 H -0.1052 0.2509 0.0350
C8 C 0.05086(18) 0.15843(12) 0.02830(18)
H10 H 0.0094 0.1425 -0.0657
C9 C 0.20636(17) 0.18593(11) 0.00954(17)
H11 H 0.2143 0.2459 -0.0004
O1 O 0.50126(13) 0.06605(8) 0.15196(13)
O2 O 0.24117(16) 0.14648(10) -0.24193(13)
C10 C 0.22797(17) 0.02941(11) 0.30874(16)
C11 C 0.2444(2) -0.04411(12) 0.23401(19)
H12 H 0.2131 -0.0476 0.1382
C12 C 0.3064(2) -0.11227(12) 0.2995(2)
H13 H 0.3183 -0.1610 0.2479
C13 C 0.35055(18) -0.10715(12) 0.44314(19)
C14 C 0.33078(19) -0.03516(12) 0.52050(18)
H14 H 0.3586 -0.0324 0.6175
C15 C 0.26958(18) 0.03258(12) 0.45319(16)
H15 H 0.2562 0.0809 0.5055
C16 C 0.4192(2) -0.17703(13) 0.5110(2)
N3 N 0.4738(2) -0.23216(13) 0.5646(2)
loop_
_geom_bond_atom_site_label_1
_geom_bond_atom_site_label_2
_geom_bond_site_symmetry_1
_geom_bond_site_symmetry_2
C1 N1 1_555 1_555
N1 H1 1_555 1_555
C2 N1 1_555 1_555
C3 C2 1_555 1_555
H2 C3 1_555 1_555
C4 C3 1_555 1_555
H3 C4 1_555 1_555
N2 C4 1_555 1_555
C5 N2 1_555 1_555
H4 C5 1_555 1_555
H5 C5 1_555 1_555
C6 C5 1_555 1_555
H6 C6 1_555 1_555
H7 C6 1_555 1_555
C7 C6 1_555 1_555
H8 C7 1_555 1_555
H9 C7 1_555 1_555
C8 N2 1_555 1_555
H10 C8 1_555 1_555
C9 C1 1_555 1_555
H11 C9 1_555 1_555
O1 C2 1_555 1_555
O2 C1 1_555 1_555
C10 C4 1_555 1_555
C11 C10 1_555 1_555
H12 C11 1_555 1_555
C12 C11 1_555 1_555
H13 C12 1_555 1_555
C13 C12 1_555 1_555
C14 C13 1_555 1_555
H14 C14 1_555 1_555
C15 C10 1_555 1_555
H15 C15 1_555 1_555
C16 C13 1_555 1_555
N3 C16 1_555 1_555
C3 C9 1_555 1_555
C7 C8 1_555 1_555
C8 C9 1_555 1_555
C14 C15 1_555 1_555

#END
