
#######################################################################
#
#                 Cambridge Crystallographic Data Centre
#                                CCDC 
#
#######################################################################
#
# If this CIF has been generated from an entry in the Cambridge 
# Structural Database, then it will include bibliographic, chemical, 
# crystal, experimental, refinement or atomic coordinate data resulting 
# from the CCDC's data processing and validation procedures.
#
#######################################################################

data_LAWKAY
_chemical_formula_moiety         'C20 H20 N2 O3'
_chemical_name_systematic        
2,8,8-trimethyl-5-phenyl-5,7,8,9-tetrahydro-4H-chromeno[2,3-d]pyrimidine-4,6(3H)-dione
_symmetry_cell_setting           monoclinic
_symmetry_space_group_name_H-M   'P 21/c'
_symmetry_Int_Tables_number      14
_space_group_name_Hall           '-P 2ybc'
loop_
_symmetry_equiv_pos_site_id
_symmetry_equiv_pos_as_xyz
1 x,y,z
2 -x,1/2+y,1/2-z
3 -x,-y,-z
4 x,1/2-y,1/2+z
_cell_length_a                   8.6371(15)
_cell_length_b                   20.371(3)
_cell_length_c                   10.0965(18)
_cell_angle_alpha                90
_cell_angle_beta                 109.172(3)
_cell_angle_gamma                90
_cell_volume                     1677.92
_exptl_crystal_colour            colorless
_exptl_crystal_description       needle
_cell_formula_units_Z            4
loop_
_atom_site_label
_atom_site_type_symbol
_atom_site_fract_x
_atom_site_fract_y
_atom_site_fract_z
O1 O 0.02524(15) 0.63008(7) 0.15635(12)
O2 O -0.33546(18) 0.58919(8) -0.30056(14)
O3 O 0.29327(17) 0.50819(7) -0.10554(13)
N1 N 0.2828(2) 0.59481(8) 0.25336(16)
N2 N 0.4151(2) 0.53714(8) 0.12264(16)
H1 H 0.5067 0.5185 0.1219
C1 C -0.3062(2) 0.61518(10) -0.18591(19)
C2 C -0.4399(2) 0.64822(10) -0.1446(2)
H2 H -0.5006 0.6142 -0.1116
H3 H -0.5179 0.6689 -0.2290
C3 C -0.3799(2) 0.70056(10) -0.0302(2)
C4 C -0.2449(2) 0.66955(10) 0.09266(19)
H4 H -0.1908 0.7043 0.1608
H5 H -0.2949 0.6378 0.1409
C5 C -0.1194(2) 0.63520(9) 0.04637(19)
C6 C 0.1530(2) 0.59717(9) 0.13390(18)
C7 C 0.4121(2) 0.56426(9) 0.24436(19)
C8 C 0.2836(2) 0.53694(9) 0.00004(19)
C9 C 0.1420(2) 0.57152(9) 0.00646(18)
C10 C -0.0078(2) 0.57757(9) -0.12281(18)
H6 H -0.0466 0.5322 -0.1550
C11 C -0.1411(2) 0.61144(9) -0.08188(19)
C12 C -0.3125(3) 0.76023(10) -0.0849(2)
H7 H -0.2707 0.7922 -0.0091
H8 H -0.4001 0.7803 -0.1621
H9 H -0.2233 0.7464 -0.1187
C13 C -0.5216(2) 0.72290(12) 0.0182(2)
H10 H -0.4827 0.7568 0.0904
H11 H -0.5633 0.6854 0.0569
H12 H -0.6095 0.7409 -0.0618
C14 C 0.5622(3) 0.55695(11) 0.3685(2)
H13 H 0.5486 0.5811 0.4479
H14 H 0.6566 0.5746 0.3466
H15 H 0.5806 0.5104 0.3929
C15 C 0.0321(2) 0.61204(9) -0.24227(18)
C16 C 0.0299(3) 0.57791(11) -0.3608(2)
H16 H -0.0034 0.5332 -0.3706
C17 C 0.0752(3) 0.60766(12) -0.4654(2)
H17 H 0.0734 0.5832 -0.5461
C18 C 0.1226(3) 0.67215(11) -0.4537(2)
H18 H 0.1547 0.6925 -0.5253
C19 C 0.1233(2) 0.70701(11) -0.3373(2)
H19 H 0.1553 0.7518 -0.3287
C20 C 0.0775(2) 0.67741(10) -0.2318(2)
H20 H 0.0774 0.7022 -0.1521
loop_
_geom_bond_atom_site_label_1
_geom_bond_atom_site_label_2
_geom_bond_site_symmetry_1
_geom_bond_site_symmetry_2
O1 C5 1_555 1_555
O2 C1 1_555 1_555
O3 C8 1_555 1_555
N1 C6 1_555 1_555
N2 H1 1_555 1_555
C1 C2 1_555 1_555
C2 H2 1_555 1_555
H3 C2 1_555 1_555
C3 C2 1_555 1_555
C4 C3 1_555 1_555
H4 C4 1_555 1_555
H5 C4 1_555 1_555
C5 C4 1_555 1_555
C6 O1 1_555 1_555
C7 N1 1_555 1_555
C8 N2 1_555 1_555
C9 C6 1_555 1_555
C10 C9 1_555 1_555
H6 C10 1_555 1_555
C11 C1 1_555 1_555
C12 C3 1_555 1_555
H7 C12 1_555 1_555
H8 C12 1_555 1_555
H9 C12 1_555 1_555
C13 C3 1_555 1_555
H10 C13 1_555 1_555
H11 C13 1_555 1_555
H12 C13 1_555 1_555
C14 C7 1_555 1_555
H13 C14 1_555 1_555
H14 C14 1_555 1_555
H15 C14 1_555 1_555
C15 C10 1_555 1_555
C16 C15 1_555 1_555
H16 C16 1_555 1_555
C17 C16 1_555 1_555
H17 C17 1_555 1_555
C18 C17 1_555 1_555
H18 C18 1_555 1_555
C19 C18 1_555 1_555
H19 C19 1_555 1_555
C20 C15 1_555 1_555
H20 C20 1_555 1_555
N2 C7 1_555 1_555
C5 C11 1_555 1_555
C8 C9 1_555 1_555
C10 C11 1_555 1_555
C19 C20 1_555 1_555

#END
