
#######################################################################
#
#                 Cambridge Crystallographic Data Centre
#                                CCDC 
#
#######################################################################
#
# If this CIF has been generated from an entry in the Cambridge 
# Structural Database, then it will include bibliographic, chemical, 
# crystal, experimental, refinement or atomic coordinate data resulting 
# from the CCDC's data processing and validation procedures.
#
#######################################################################

data_LAWLEB
_chemical_formula_moiety         'C30 H28 N2 O4'
_chemical_name_systematic        
1,2-bis(2-Hydroxybenzylideneamino)-1,2-bis(2-methoxyphenyl)ethane
_symmetry_cell_setting           triclinic
_symmetry_space_group_name_H-M   'P -1'
_symmetry_Int_Tables_number      2
_space_group_name_Hall           '-P 1'
loop_
_symmetry_equiv_pos_site_id
_symmetry_equiv_pos_as_xyz
1 x,y,z
2 -x,-y,-z
_cell_length_a                   9.2775(7)
_cell_length_b                   10.3554(8)
_cell_length_c                   13.6763(8)
_cell_angle_alpha                85.718(4)
_cell_angle_beta                 73.325(4)
_cell_angle_gamma                83.745(4)
_cell_volume                     1249.87
_exptl_crystal_colour            'pale yellow'
_exptl_crystal_description       needle
_cell_formula_units_Z            2
_exptl_crystal_recrystallization_method dichloromethane
loop_
_atom_site_label
_atom_site_type_symbol
_atom_site_fract_x
_atom_site_fract_y
_atom_site_fract_z
O1 O 0.8495(2) 0.4638(2) -0.02367(15)
H1 H 0.820(4) 0.512(3) 0.040(3)
O2 O 0.7362(2) 0.2108(2) 0.39843(15)
H2 H 0.742(4) 0.301(4) 0.379(3)
O3 O 0.4879(2) 0.83698(18) 0.32307(13)
O4 O 1.0620(2) 0.61953(18) 0.35441(13)
N1 N 0.7059(2) 0.5402(2) 0.15839(16)
N2 N 0.8236(2) 0.4319(2) 0.31146(15)
C1 C 0.6890(3) 0.6213(2) 0.2449(2)
H3 H 0.5874 0.6156 0.2952
C2 C 0.5997(3) 0.4707(2) 0.15919(19)
H4 H 0.5137 0.4700 0.2172
C3 C 0.6077(3) 0.3927(2) 0.07331(18)
C4 C 0.4895(3) 0.3187(3) 0.0762(2)
H5 H 0.4061 0.3170 0.1358
C5 C 0.4911(3) 0.2477(3) -0.0059(2)
H6 H 0.4102 0.1970 -0.0026
C6 C 0.6125(3) 0.2515(3) -0.0930(2)
H7 H 0.6138 0.2041 -0.1501
C7 C 0.7304(3) 0.3227(3) -0.0977(2)
H8 H 0.8130 0.3234 -0.1578
C8 C 0.7304(3) 0.3940(3) -0.01540(19)
C9 C 0.7082(3) 0.7628(3) 0.2008(2)
C10 C 0.8307(3) 0.7817(3) 0.11665(18)
H9 H 0.9022 0.7108 0.0908
C11 C 0.8484(4) 0.9067(3) 0.0698(2)
H10 H 0.9306 0.9205 0.0111
C12 C 0.7439(4) 1.0104(3) 0.1101(2)
H11 H 0.7558 1.0952 0.0790
C13 C 0.6237(4) 0.9905(3) 0.1947(2)
H12 H 0.5534 1.0616 0.2220
C14 C 0.6051(3) 0.8654(3) 0.2404(2)
C15 C 0.3961(4) 0.9457(3) 0.3758(2)
H13 H 0.3223 0.9139 0.4371
H14 H 0.3430 0.9953 0.3306
H15 H 0.4607 1.0019 0.3954
C16 C 0.8153(3) 0.5741(2) 0.29567(18)
H16 H 0.9137 0.5975 0.2480
C17 C 0.9380(3) 0.3679(3) 0.25250(19)
H17 H 1.0099 0.4145 0.2027
C18 C 0.9615(3) 0.2266(3) 0.25923(19)
C19 C 1.0876(3) 0.1617(3) 0.1930(2)
H18 H 1.1564 0.2106 0.1428
C20 C 1.1139(4) 0.0287(3) 0.1989(2)
H19 H 1.1999 -0.0142 0.1533
C21 C 1.0129(4) -0.0422(3) 0.2727(2)
H20 H 1.0309 -0.1342 0.2773
C22 C 0.8882(4) 0.0178(3) 0.3388(2)
H21 H 0.8208 -0.0325 0.3888
C23 C 0.8598(3) 0.1532(3) 0.3326(2)
C24 C 0.7970(3) 0.6324(2) 0.39799(19)
C25 C 0.6579(3) 0.6615(3) 0.4680(2)
H22 H 0.5682 0.6491 0.4509
C26 C 0.6470(4) 0.7086(3) 0.5626(2)
H23 H 0.5507 0.7286 0.6094
C27 C 0.7762(3) 0.7260(3) 0.5883(2)
H24 H 0.7688 0.7580 0.6531
C28 C 0.9170(3) 0.6975(3) 0.5206(2)
H25 H 1.0060 0.7095 0.5387
C29 C 0.9270(3) 0.6509(3) 0.42568(19)
C30 C 1.1970(3) 0.6350(3) 0.3809(2)
H26 H 1.2851 0.6093 0.3242
H27 H 1.1999 0.5800 0.4420
H28 H 1.1987 0.7262 0.3949
loop_
_geom_bond_atom_site_label_1
_geom_bond_atom_site_label_2
_geom_bond_site_symmetry_1
_geom_bond_site_symmetry_2
O1 H1 1_555 1_555
O2 H2 1_555 1_555
O3 C14 1_555 1_555
O4 C29 1_555 1_555
N1 C1 1_555 1_555
N2 C16 1_555 1_555
C1 H3 1_555 1_555
C2 N1 1_555 1_555
H4 C2 1_555 1_555
C3 C2 1_555 1_555
C4 C3 1_555 1_555
H5 C4 1_555 1_555
C5 C4 1_555 1_555
H6 C5 1_555 1_555
C6 C5 1_555 1_555
H7 C6 1_555 1_555
C7 C6 1_555 1_555
H8 C7 1_555 1_555
C8 O1 1_555 1_555
C9 C1 1_555 1_555
C10 C9 1_555 1_555
H9 C10 1_555 1_555
C11 C10 1_555 1_555
H10 C11 1_555 1_555
C12 C11 1_555 1_555
H11 C12 1_555 1_555
C13 C12 1_555 1_555
H12 C13 1_555 1_555
C14 C9 1_555 1_555
C15 O3 1_555 1_555
H13 C15 1_555 1_555
H14 C15 1_555 1_555
H15 C15 1_555 1_555
C16 C1 1_555 1_555
H16 C16 1_555 1_555
C17 N2 1_555 1_555
H17 C17 1_555 1_555
C18 C17 1_555 1_555
C19 C18 1_555 1_555
H18 C19 1_555 1_555
C20 C19 1_555 1_555
H19 C20 1_555 1_555
C21 C20 1_555 1_555
H20 C21 1_555 1_555
C22 C21 1_555 1_555
H21 C22 1_555 1_555
C23 O2 1_555 1_555
C24 C16 1_555 1_555
C25 C24 1_555 1_555
H22 C25 1_555 1_555
C26 C25 1_555 1_555
H23 C26 1_555 1_555
C27 C26 1_555 1_555
H24 C27 1_555 1_555
C28 C27 1_555 1_555
H25 C28 1_555 1_555
C29 C24 1_555 1_555
C30 O4 1_555 1_555
H26 C30 1_555 1_555
H27 C30 1_555 1_555
H28 C30 1_555 1_555
C3 C8 1_555 1_555
C7 C8 1_555 1_555
C13 C14 1_555 1_555
C18 C23 1_555 1_555
C22 C23 1_555 1_555
C28 C29 1_555 1_555

#END
