
#######################################################################
#
#                 Cambridge Crystallographic Data Centre
#                                CCDC 
#
#######################################################################
#
# If this CIF has been generated from an entry in the Cambridge 
# Structural Database, then it will include bibliographic, chemical, 
# crystal, experimental, refinement or atomic coordinate data resulting 
# from the CCDC's data processing and validation procedures.
#
#######################################################################

data_LAWNUV
_chemical_formula_moiety         
'C66 H51 N15 O12,3(C12 H24 O6),O4 P1 3-,0.25(P4),3(K1 1+),x(H2 O1)'
_chemical_name_systematic        
'tri-potassium phosphate 1,3,5-tris(4-{[(4-nitrophenyl)carbamoyl]amino}phenyl)benzene tris(18-crown-6) tricyclo[1.1.0.0^2,4^]tetraphosphane unknown solvate hydrate'
_symmetry_cell_setting           monoclinic
_symmetry_space_group_name_H-M   'C c'
_symmetry_Int_Tables_number      9
_space_group_name_Hall           'C -2yc'
loop_
_symmetry_equiv_pos_site_id
_symmetry_equiv_pos_as_xyz
1 x,y,z
2 x,-y,1/2+z
3 1/2+x,1/2+y,z
4 1/2+x,1/2-y,1/2+z
_cell_length_a                   47.7790(11)
_cell_length_b                   23.9812(6)
_cell_length_c                   47.7106(11)
_cell_angle_alpha                90
_cell_angle_beta                 101.7870(10)
_cell_angle_gamma                90
_cell_volume                     53514
_exptl_crystal_colour            yellow
_exptl_crystal_description       block
_cell_formula_units_Z            16
loop_
_atom_site_label
_atom_site_type_symbol
_atom_site_fract_x
_atom_site_fract_y
_atom_site_fract_z
C1 C 0.9342(2) 0.4895(5) 1.0066(2)
H1 H 0.9481 0.4632 1.0138
C2 C 0.9064(2) 0.4818(5) 1.0107(3)
C3 C 0.8851(2) 0.5195(5) 0.9972(2)
H2 H 0.8660 0.5127 0.9973
C4 C 0.8929(2) 0.5684(5) 0.9832(3)
C5 C 0.9215(2) 0.5752(5) 0.9817(3)
H3 H 0.9268 0.6077 0.9735
C6 C 0.9420(2) 0.5364(5) 0.9917(2)
C7 C 0.89856(14) 0.4332(3) 1.02718(17)
C8 C 0.86990(12) 0.4222(3) 1.02670(17)
H4 H 0.8558 0.4447 1.0160
C9 C 0.86231(11) 0.3776(3) 1.04220(18)
H5 H 0.8431 0.3703 1.0419
C10 C 0.88337(15) 0.3440(3) 1.05817(17)
C11 C 0.91204(13) 0.3549(3) 1.0587(2)
H6 H 0.9261 0.3324 1.0693
C12 C 0.91963(10) 0.3995(4) 1.0432(2)
H7 H 0.9388 0.4068 1.0435
C13 C 0.8511(3) 0.2867(5) 1.0798(3)
C14 C 0.8271(2) 0.2184(4) 1.1073(2)
C15 C 0.8074(2) 0.2541(5) 1.1148(3)
H8 H 0.8101 0.2923 1.1136
C16 C 0.7831(3) 0.2344(5) 1.1242(3)
H9 H 0.7687 0.2583 1.1272
C17 C 0.7819(3) 0.1752(5) 1.1290(3)
H10 H 0.7668 0.1600 1.1361
C18 C 0.8029(2) 0.1417(5) 1.1230(3)
H11 H 0.8015 0.1034 1.1255
C19 C 0.82631(18) 0.1619(4) 1.1132(2)
C20 C 0.84651(19) 0.0723(4) 1.1022(2)
C21 C 0.87557(19) -0.0059(4) 1.0910(2)
C22 C 0.8531(3) -0.0416(5) 1.0784(3)
H12 H 0.8343 -0.0292 1.0753
C23 C 0.8592(3) -0.0948(6) 1.0707(3)
H13 H 0.8446 -0.1193 1.0628
C24 C 0.8876(2) -0.1110(5) 1.0750(3)
C25 C 0.9095(2) -0.0777(5) 1.0862(3)
H14 H 0.9283 -0.0899 1.0879
C26 C 0.9039(2) -0.0265(4) 1.0950(2)
H15 H 0.9190 -0.0041 1.1040
C27 C 0.87173(13) 0.6117(3) 0.97045(16)
C28 C 0.84661(15) 0.6191(3) 0.98042(14)
H16 H 0.8440 0.6005 0.9968
C29 C 0.82540(12) 0.6543(3) 0.96592(16)
H17 H 0.8086 0.6593 0.9726
C30 C 0.82933(13) 0.6822(3) 0.94146(16)
C31 C 0.85446(15) 0.6748(4) 0.93150(15)
H18 H 0.8571 0.6934 0.9151
C32 C 0.87566(13) 0.6395(4) 0.94599(18)
H19 H 0.8925 0.6346 0.9393
C33 C 0.8103(2) 0.7632(5) 0.9108(3)
C34 C 0.78323(15) 0.8345(3) 0.88165(16)
C35 C 0.80503(13) 0.8738(3) 0.88488(16)
H20 H 0.8211 0.8699 0.8995
C36 C 0.80282(16) 0.9189(3) 0.8663(2)
H21 H 0.8174 0.9452 0.8684
C37 C 0.77882(19) 0.9247(3) 0.84442(18)
H22 H 0.7773 0.9549 0.8320
C38 C 0.75702(16) 0.8854(4) 0.84120(17)
H23 H 0.7410 0.8892 0.8266
C39 C 0.75923(14) 0.8403(3) 0.85982(18)
C40 C 0.7159(3) 0.7893(7) 0.8348(4)
C41 C 0.6763(2) 0.7286(5) 0.8169(2)
C42 C 0.6530(3) 0.7043(6) 0.8255(2)
H24 H 0.6524 0.7026 0.8448
C43 C 0.6306(2) 0.6827(6) 0.8051(3)
H25 H 0.6150 0.6665 0.8109
C44 C 0.6315(3) 0.6852(6) 0.7762(3)
C45 C 0.6548(3) 0.7095(7) 0.7677(2)
H26 H 0.6554 0.7112 0.7483
C46 C 0.6772(2) 0.7311(6) 0.7880(3)
H27 H 0.6928 0.7473 0.7822
C47 C 0.9730(2) 0.5437(5) 0.9895(3)
C48 C 0.9799(3) 0.5742(6) 0.9669(3)
H28 H 0.9651 0.5892 0.9534
C49 C 1.0070(2) 0.5829(6) 0.9636(3)
H29 H 1.0104 0.6013 0.9475
C50 C 1.0308(2) 0.5634(5) 0.9856(3)
C51 C 1.0240(2) 0.5300(5) 1.0068(3)
H30 H 1.0386 0.5148 1.0207
C52 C 0.9952(2) 0.5188(5) 1.0077(3)
H31 H 0.9912 0.4935 1.0211
C53 C 1.0813(2) 0.5470(5) 0.9923(3)
C54 C 1.13411(13) 0.5510(4) 0.99669(19)
C55 C 1.13967(16) 0.5127(4) 1.0190(2)
H32 H 1.1248 0.4995 1.0271
C56 C 1.16743(18) 0.4941(4) 1.0292(2)
H33 H 1.1711 0.4684 1.0441
C57 C 1.18964(14) 0.5138(4) 1.0171(2)
H34 H 1.2082 0.5013 1.0239
C58 C 1.18408(15) 0.5521(4) 0.9948(2)
H35 H 1.1989 0.5652 0.9867
C59 C 1.15632(17) 0.5707(4) 0.98459(18)
C60 C 1.1641(3) 0.6112(8) 0.9394(4)
C61 C 1.1682(2) 0.6764(6) 0.9001(2)
C62 C 1.19737(19) 0.6721(6) 0.9011(2)
H36 H 1.2090 0.6542 0.9165
C63 C 1.20911(17) 0.6946(6) 0.8793(3)
H37 H 1.2287 0.6917 0.8800
C64 C 1.1916(3) 0.7213(7) 0.8563(3)
C65 C 1.1624(2) 0.7257(7) 0.8553(3)
H38 H 1.1508 0.7436 0.8399
C66 C 1.15069(17) 0.7032(7) 0.8771(3)
H39 H 1.1311 0.7061 0.8764
N1 N 0.87704(15) 0.2959(3) 1.07255(17)
H40 H 0.8901 0.2710 1.0770
N2 N 0.85196(18) 0.2395(4) 1.0979(2)
H41 H 0.8680 0.2227 1.1036
N3 N 0.84854(15) 0.1280(3) 1.10883(16)
H42 H 0.8651 0.1432 1.1104
N4 N 0.87195(16) 0.0492(3) 1.09869(18)
H43 H 0.8867 0.0705 1.1014
N5 N 0.8940(3) -0.1693(6) 1.0648(3)
N6 N 0.80669(17) 0.7170(3) 0.92770(18)
H44 H 0.7897 0.7093 0.9299
N7 N 0.78523(19) 0.7878(4) 0.8996(2)
H45 H 0.7698 0.7744 0.9037
N8 N 0.73668(19) 0.8028(4) 0.8575(2)
H46 H 0.7358 0.7854 0.8730
N9 N 0.6973(2) 0.7487(5) 0.8374(3)
H47 H 0.6990 0.7339 0.8541
N10 N 0.6057(5) 0.6569(9) 0.7556(5)
N11 N 1.05759(16) 0.5781(4) 0.98215(19)
H48 H 1.0595 0.6085 0.9732
N12 N 1.10588(18) 0.5695(4) 0.9866(2)
H49 H 1.1038 0.5982 0.9755
N13 N 1.15011(19) 0.6060(4) 0.9612(2)
H50 H 1.1355 0.6273 0.9604
N14 N 1.1543(3) 0.6551(6) 0.9204(3)
H51 H 1.1382 0.6701 0.9216
N15 N 1.2015(6) 0.7396(11) 0.8308(7)
O1 O 0.82910(16) 0.3135(3) 1.07156(19)
O2 O 0.82372(13) 0.0449(3) 1.09906(15)
O3 O 0.8731(2) -0.2006(5) 1.0584(2)
O4 O 0.9189(2) -0.1823(4) 1.0650(3)
O5 O 0.83425(16) 0.7773(3) 0.90726(18)
O6 O 0.7146(2) 0.8128(5) 0.8103(2)
O7 O 0.6086(5) 0.6645(11) 0.7311(5)
O8 O 0.5873(5) 0.6352(10) 0.7663(5)
O9 O 1.08042(15) 0.5019(4) 1.00291(18)
O10 O 1.1872(2) 0.5832(6) 0.9390(3)
O11 O 1.2276(3) 0.7276(6) 0.8324(3)
O12 O 1.1888(4) 0.7788(12) 0.8174(5)
K1 K 0.80339(6) -0.04236(13) 1.12284(7)
K2 K 0.87315(11) 0.7341(2) 1.01092(11)
K3 K 0.87561(11) 0.7193(2) 1.01988(11)
C67 C 0.8017(3) -0.1864(8) 1.1092(4)
C68 C 0.8326(4) -0.1836(8) 1.1287(5)
C69 C 0.8643(3) -0.1251(6) 1.1589(3)
C70 C 0.8644(3) -0.0739(5) 1.1773(3)
C71 C 0.8568(3) 0.0234(6) 1.1780(3)
C72 C 0.8294(3) 0.0261(6) 1.1908(3)
C73 C 0.7803(3) 0.0345(6) 1.1819(3)
C74 C 0.7536(3) 0.0383(8) 1.1538(4)
C75 C 0.7282(3) -0.0124(7) 1.1160(3)
C76 C 0.7266(5) -0.0636(9) 1.1014(5)
C77 C 0.7461(5) -0.1346(11) 1.0768(6)
C78 C 0.7726(4) -0.1469(10) 1.0703(5)
O13 O 0.83558(19) -0.1326(4) 1.1435(2)
O14 O 0.85696(18) -0.0275(4) 1.16025(19)
O15 O 0.80524(17) 0.0285(4) 1.16937(18)
O16 O 0.75162(19) -0.0137(4) 1.1396(2)
O17 O 0.7496(3) -0.0715(6) 1.0907(3)
O18 O 0.79764(19) -0.1397(4) 1.0905(2)
C79 C 1.2237(7) 0.5643(13) 0.8471(7)
C80 C 1.2443(8) 0.5549(13) 0.8302(9)
C81 C 1.2846(6) 0.5954(16) 0.8125(6)
C82 C 1.2948(4) 0.6494(7) 0.8014(4)
C83 C 1.2779(5) 0.7176(9) 0.7700(4)
C84 C 1.2577(5) 0.7420(9) 0.7428(5)
C85 C 1.2121(4) 0.7653(10) 0.7308(6)
C86 C 1.1820(5) 0.7762(9) 0.7375(5)
C87 C 1.1470(6) 0.7228(13) 0.7595(7)
C88 C 1.1423(6) 0.6608(13) 0.7655(8)
C89 C 1.1740(6) 0.5928(14) 0.8346(7)
C90 C 1.1511(10) 0.6065(16) 0.8066(9)
O19 O 1.2030(4) 0.5753(8) 0.8217(4)
O20 O 1.2628(5) 0.6067(9) 0.8198(4)
O21 O 1.2738(3) 0.6688(7) 0.7789(3)
O22 O 1.2317(3) 0.7500(5) 0.7492(3)
O23 O 1.1729(3) 0.7179(7) 0.7454(3)
O24 O 1.1617(4) 0.6503(9) 0.7948(5)
K4 K 1.22045(13) 0.6617(3) 0.78535(13)
K5 K 1.21435(15) 0.6541(3) 0.77420(16)
C91 C 0.8739(2) 0.5235(5) 0.8336(3)
H52 H 0.8599 0.5011 0.8227
C92 C 0.9037(2) 0.5136(5) 0.8336(3)
C93 C 0.9235(2) 0.5511(5) 0.8479(3)
H53 H 0.9427 0.5452 0.8474
C94 C 0.9168(2) 0.5973(5) 0.8632(2)
C95 C 0.8867(2) 0.6023(5) 0.8647(3)
H54 H 0.8813 0.6303 0.8760
C96 C 0.8661(2) 0.5673(5) 0.8502(3)
C97 C 0.91162(19) 0.4681(3) 0.8165(2)
C98 C 0.93905(19) 0.4465(5) 0.8249(3)
H55 H 0.9523 0.4645 0.8390
C99 C 0.9467(2) 0.3981(5) 0.8123(3)
H56 H 0.9651 0.3837 0.8180
C100 C 0.9269(3) 0.3713(4) 0.7912(3)
C101 C 0.8995(2) 0.3928(5) 0.7828(3)
H57 H 0.8862 0.3748 0.7687
C102 C 0.89182(17) 0.4412(5) 0.7954(3)
H58 H 0.8735 0.4556 0.7897
C103 C 0.9574(3) 0.3072(6) 0.7675(4)
C104 C 0.9796(2) 0.2413(4) 0.7411(3)
C105 C 1.0027(3) 0.2739(3) 0.7377(4)
H59 H 1.0030 0.3118 0.7420
C106 C 1.0254(3) 0.2500(4) 0.7279(5)
H60 H 1.0409 0.2718 0.7256
C107 C 1.0250(2) 0.1934(4) 0.7215(4)
H61 H 1.0402 0.1773 0.7150
C108 C 1.0019(2) 0.1607(3) 0.7250(3)
H62 H 1.0016 0.1229 0.7207
C109 C 0.97916(18) 0.1847(4) 0.7347(2)
C110 C 0.9558(2) 0.0974(5) 0.7483(3)
C111 C 0.9252(2) 0.0257(4) 0.7621(2)
C112 C 0.9482(2) -0.0051(5) 0.7795(2)
H63 H 0.9669 0.0082 0.7833
C113 C 0.9412(3) -0.0552(5) 0.7901(3)
H64 H 0.9554 -0.0763 0.8016
C114 C 0.9135(2) -0.0747(5) 0.7839(2)
C115 C 0.8920(2) -0.0455(5) 0.7673(2)
H65 H 0.8733 -0.0591 0.7630
C116 C 0.8988(2) 0.0046(4) 0.7572(2)
H66 H 0.8842 0.0253 0.7460
C117 C 0.93889(12) 0.6331(3) 0.88073(16)
C118 C 0.96647(14) 0.6324(3) 0.87554(15)
H67 H 0.9706 0.6112 0.8605
C119 C 0.98794(11) 0.6633(3) 0.89275(17)
H68 H 1.0064 0.6628 0.8893
C120 C 0.98182(13) 0.6950(3) 0.91515(16)
C121 C 0.95424(15) 0.6957(3) 0.92035(16)
H69 H 0.9501 0.7169 0.9353
C122 C 0.93277(11) 0.6648(4) 0.90314(18)
H70 H 0.9143 0.6653 0.9066
C123 C 1.0036(2) 0.7687(5) 0.9488(3)
C124 C 1.0198(3) 0.9270(5) 0.9969(4)
H71 H 1.0057 0.9537 0.9972
C125 C 1.0134(2) 0.8795(6) 0.9802(3)
H72 H 0.9951 0.8744 0.9693
C126 C 1.0344(2) 0.8396(4) 0.9797(3)
C127 C 1.0618(2) 0.8472(5) 0.9960(3)
C128 C 1.0681(2) 0.8947(6) 1.0128(3)
H73 H 1.0865 0.8998 1.0237
C129 C 1.0472(3) 0.9346(6) 1.0132(4)
H74 H 1.0514 0.9664 1.0245
C130 C 1.1010(4) 0.7934(11) 1.0192(6)
C131 C 1.1416(2) 0.7302(5) 1.0336(2)
C132 C 1.1522(3) 0.7606(5) 1.0583(3)
H75 H 1.1452 0.7962 1.0605
C133 C 1.1732(3) 0.7378(7) 1.0798(3)
H76 H 1.1802 0.7582 1.0963
C134 C 1.1836(3) 0.6847(6) 1.0765(2)
C135 C 1.1731(2) 0.6543(4) 1.0518(3)
H77 H 1.1801 0.6187 1.0496
C136 C 1.1521(2) 0.6770(5) 1.0304(2)
H78 H 1.1450 0.6567 1.0139
C137 C 0.8354(2) 0.5743(5) 0.8516(3)
C138 C 0.8245(2) 0.6241(5) 0.8623(2)
H79 H 0.8365 0.6546 0.8675
C139 C 0.7961(2) 0.6265(6) 0.8650(3)
H80 H 0.7891 0.6599 0.8707
C140 C 0.77885(19) 0.5836(4) 0.8599(2)
C141 C 0.7875(3) 0.5360(6) 0.8472(3)
H81 H 0.7747 0.5069 0.8416
C142 C 0.8155(2) 0.5324(5) 0.8430(3)
H82 H 0.8210 0.5008 0.8342
C143 C 0.7265(2) 0.5628(5) 0.8520(3)
C144 C 0.67411(15) 0.5702(4) 0.8470(2)
C145 C 0.6658(2) 0.5492(5) 0.8194(2)
H83 H 0.6793 0.5435 0.8082
C146 C 0.6372(2) 0.5369(6) 0.8085(2)
H84 H 0.6316 0.5229 0.7901
C147 C 0.61693(16) 0.5456(6) 0.8253(3)
H85 H 0.5978 0.5374 0.8180
C148 C 0.62528(18) 0.5665(6) 0.8529(3)
H86 H 0.6117 0.5723 0.8641
C149 C 0.6539(2) 0.5788(5) 0.8638(2)
C150 C 0.6472(3) 0.6034(6) 0.9117(3)
C151 C 0.6455(2) 0.6473(6) 0.9586(3)
C152 C 0.6630(3) 0.6695(7) 0.9828(4)
H87 H 0.6826 0.6715 0.9840
C153 C 0.6513(3) 0.6884(7) 1.0047(4)
H88 H 0.6625 0.7084 1.0196
C154 C 0.6233(2) 0.6781(6) 1.0051(3)
C155 C 0.6062(3) 0.6589(5) 0.9818(3)
H89 H 0.5867 0.6564 0.9813
C156 C 0.6168(2) 0.6421(5) 0.9578(3)
H90 H 0.6046 0.6278 0.9417
N16 N 0.9326(2) 0.3204(5) 0.7767(3)
H91 H 0.9192 0.2960 0.7735
N17 N 0.9552(3) 0.2652(5) 0.7509(4)
H92 H 0.9386 0.2503 0.7453
N18 N 0.9549(2) 0.1537(4) 0.7392(2)
H93 H 0.9386 0.1703 0.7361
N19 N 0.93008(18) 0.0787(4) 0.75165(19)
H94 H 0.9157 0.1008 0.7470
N20 N 0.9075(2) -0.1322(4) 0.7934(2)
N21 N 1.00483(19) 0.7225(4) 0.9317(2)
H95 H 1.0216 0.7095 0.9314
N22 N 1.0291(2) 0.7903(5) 0.9630(2)
H96 H 1.0440 0.7713 0.9615
N23 N 1.0823(3) 0.8074(6) 0.9948(3)
H97 H 1.0833 0.7917 0.9788
N24 N 1.1200(2) 0.7494(6) 1.0152(3)
H98 H 1.1166 0.7338 0.9986
N25 N 1.2016(4) 0.6604(9) 1.1049(4)
N26 N 0.75023(17) 0.5917(4) 0.86462(19)
H99 H 0.7480 0.6173 0.8766
N27 N 0.70287(18) 0.5885(4) 0.8578(2)
H100 H 0.7054 0.6176 0.8686
N28 N 0.6608(2) 0.6065(5) 0.8906(3)
H101 H 0.6756 0.6277 0.8933
N29 N 0.6586(2) 0.6353(5) 0.9355(3)
H102 H 0.6753 0.6492 0.9362
N30 N 0.6124(2) 0.6954(5) 1.0298(3)
O25 O 0.9794(3) 0.3378(6) 0.7756(4)
O26 O 0.97774(16) 0.0693(3) 0.75136(17)
O27 O 0.88367(19) -0.1487(4) 0.78933(19)
O28 O 0.9282(2) -0.1600(4) 0.8050(2)
O29 O 0.98028(16) 0.7885(4) 0.95229(19)
O30 O 1.1034(3) 0.8110(6) 1.0441(3)
O31 O 1.2133(4) 0.6945(8) 1.1226(4)
O32 O 1.2115(3) 0.6192(7) 1.0961(3)
O33 O 0.72581(16) 0.5210(3) 0.83680(18)
O34 O 0.6257(2) 0.5735(4) 0.9112(2)
O35 O 0.5860(2) 0.6874(4) 1.0283(2)
O36 O 0.6274(3) 0.7097(6) 1.0516(3)
K6 K 0.99445(11) -0.0161(2) 0.73138(11)
C157 C 0.8924(3) 0.6372(7) 0.7849(4)
C158 C 0.9193(3) 0.6473(7) 0.7753(4)
C159 C 0.9673(3) 0.6747(7) 0.7852(4)
C160 C 0.9901(3) 0.6924(6) 0.8061(3)
C161 C 1.0036(3) 0.7691(7) 0.8406(3)
C162 C 0.9957(3) 0.8192(7) 0.8538(3)
C163 C 0.9621(4) 0.8574(7) 0.8815(4)
C164 C 0.9367(5) 0.8340(10) 0.8927(5)
C165 C 0.8866(4) 0.8126(9) 0.8804(4)
C166 C 0.8644(3) 0.7965(7) 0.8530(3)
C167 C 0.8513(4) 0.7403(8) 0.8150(4)
C168 C 0.8566(3) 0.6917(6) 0.8025(3)
O37 O 0.88419(18) 0.6904(4) 0.7936(2)
O38 O 0.94263(19) 0.6634(4) 0.7960(2)
O39 O 0.98153(15) 0.7456(3) 0.81938(18)
O40 O 0.97148(17) 0.8069(4) 0.86810(19)
O41 O 0.91307(19) 0.8251(4) 0.8691(2)
O42 O 0.87170(16) 0.7481(4) 0.84006(18)
C169 C 0.9885(5) -0.1615(9) 0.7566(5)
C170 C 0.9717(10) -0.158(2) 0.7535(12)
C171 C 0.9409(5) -0.1185(10) 0.7206(4)
C172 C 0.9331(3) -0.0987(5) 0.6920(3)
C173 C 0.9333(3) -0.0189(8) 0.6657(4)
C174 C 0.9439(3) 0.0456(7) 0.6722(4)
C175 C 0.9863(4) 0.0344(10) 0.6628(5)
C176 C 1.0207(4) 0.0533(7) 0.6705(3)
C177 C 1.0588(6) 0.0287(13) 0.7102(6)
C178 C 1.0701(5) 0.0134(13) 0.7392(8)
C179 C 1.0532(6) -0.0434(11) 0.7726(7)
C180 C 1.0475(7) -0.0959(17) 0.7824(7)
O43 O 0.9704(2) -0.1256(5) 0.7269(3)
O44 O 0.9422(2) -0.0387(5) 0.6920(3)
O45 O 0.9724(4) 0.0500(6) 0.6785(3)
O46 O 1.0327(4) 0.0316(8) 0.6975(5)
O47 O 1.0568(3) -0.0241(8) 0.7468(4)
O48 O 1.0148(4) -0.1117(9) 0.7678(4)
K7 K 0.93041(10) 0.7478(2) 0.83922(9)
K8 K 1.09691(15) 0.7387(4) 1.09602(17)
K9 K 1.0904(3) 0.7710(7) 1.0856(3)
K10 K 0.92672(8) 0.73812(18) 0.83100(9)
K11 K 0.99711(12) -0.0241(2) 0.72455(12)
C181 C 0.5363(4) 0.7638(7) 0.9409(4)
C182 C 0.5618(4) 0.7996(9) 0.9565(4)
C183 C 0.5794(3) 0.8572(7) 0.9985(3)
C184 C 0.5700(3) 0.8777(6) 1.0247(3)
C185 C 0.5656(3) 0.8406(7) 1.0686(3)
C186 C 0.5682(3) 0.7876(7) 1.0881(4)
C187 C 0.5498(3) 0.6973(7) 1.0915(3)
C188 C 0.5250(3) 0.6604(7) 1.0749(4)
C189 C 0.5043(4) 0.6113(8) 1.0364(5)
C190 C 0.5061(3) 0.5969(7) 1.0088(4)
C191 C 0.5066(4) 0.6287(10) 0.9626(5)
C192 C 0.5100(4) 0.6844(8) 0.9436(4)
O49 O 0.55575(18) 0.8208(4) 0.9825(2)
O50 O 0.57027(18) 0.8260(4) 1.0421(2)
O51 O 0.54611(18) 0.7499(4) 1.0748(2)
O52 O 0.52550(19) 0.6482(4) 1.0475(2)
O53 O 0.5046(2) 0.6445(4) 0.9897(3)
O54 O 0.5344(2) 0.7187(4) 0.9582(2)
O55 O 1.1352(8) 0.6485(18) 1.1238(10)
O56 O 1.1307(6) 0.7571(14) 1.1522(7)
K12 K 0.53501(5) 0.74040(12) 1.01572(7)
C193 C 0.4703(2) 0.8544(4) 0.9060(3)
H103 H 0.4702 0.8612 0.8868
C194 C 0.4545(2) 0.8108(5) 0.9129(2)
C195 C 0.4557(2) 0.7995(5) 0.9427(2)
H104 H 0.4447 0.7710 0.9480
C196 C 0.4735(2) 0.8311(4) 0.9639(2)
C197 C 0.4885(2) 0.8773(4) 0.9559(2)
H105 H 0.4995 0.8996 0.9700
C198 C 0.4871(2) 0.8896(5) 0.9270(2)
C199 C 0.43596(16) 0.7761(3) 0.89043(14)
C200 C 0.42866(16) 0.7220(3) 0.89666(12)
H106 H 0.4337 0.7086 0.9153
C201 C 0.41378(17) 0.6881(2) 0.87504(15)
H107 H 0.4089 0.6519 0.8792
C202 C 0.40620(16) 0.7082(3) 0.84720(14)
C203 C 0.41350(18) 0.7622(3) 0.84097(13)
H108 H 0.4084 0.7757 0.8223
C204 C 0.42838(19) 0.7962(3) 0.86258(17)
H109 H 0.4333 0.8323 0.8584
C205 C 0.3763(2) 0.6290(5) 0.8243(3)
C206 C 0.3511(2) 0.5532(5) 0.7950(2)
C207 C 0.3560(3) 0.5124(5) 0.8155(3)
H110 H 0.3690 0.5179 0.8327
C208 C 0.3401(3) 0.4598(6) 0.8098(3)
H111 H 0.3428 0.4317 0.8235
C209 C 0.3221(2) 0.4523(5) 0.7855(3)
H112 H 0.3116 0.4194 0.7824
C210 C 0.3185(3) 0.4928(6) 0.7645(3)
H113 H 0.3068 0.4850 0.7468
C211 C 0.3319(2) 0.5453(5) 0.7686(2)
C212 C 0.3034(2) 0.5981(5) 0.7291(2)
C213 C 0.2833(2) 0.6663(5) 0.6909(3)
C214 C 0.2558(3) 0.6403(8) 0.6837(3)
H114 H 0.2517 0.6074 0.6924
C215 C 0.2357(4) 0.6673(8) 0.6629(4)
H115 H 0.2197 0.6478 0.6536
C216 C 0.2388(3) 0.7192(8) 0.6561(3)
C217 C 0.2652(3) 0.7448(8) 0.6627(3)
H116 H 0.2682 0.7793 0.6549
C218 C 0.2874(3) 0.7177(7) 0.6813(3)
H117 H 0.3050 0.7352 0.6871
C219 C 0.47499(19) 0.8192(4) 0.9945(2)
C220 C 0.4671(2) 0.7646(5) 1.0028(2)
H118 H 0.4617 0.7367 0.9892
C221 C 0.4676(2) 0.7545(5) 1.0315(2)
H119 H 0.4617 0.7196 1.0365
C222 C 0.47598(19) 0.7913(4) 1.0525(2)
C223 C 0.4845(2) 0.8447(4) 1.0446(2)
H120 H 0.4899 0.8723 1.0582
C224 C 0.4846(2) 0.8547(5) 1.0162(2)
H121 H 0.4918 0.8888 1.0117
C225 C 0.4915(2) 0.7985(5) 1.1057(2)
C226 C 0.50139(17) 0.7824(4) 1.15754(14)
C227 C 0.52914(17) 0.8032(5) 1.16360(18)
H122 H 0.5389 0.8090 1.1489
C228 C 0.54232(15) 0.8152(5) 1.1917(2)
H123 H 0.5609 0.8291 1.1957
C229 C 0.52776(19) 0.8065(5) 1.21373(15)
H124 H 0.5366 0.8145 1.2325
C230 C 0.50001(18) 0.7857(4) 1.20768(15)
H125 H 0.4903 0.7799 1.2224
C231 C 0.48683(14) 0.7737(4) 1.17958(17)
C232 C 0.4377(2) 0.7586(5) 1.1896(3)
C233 C 0.3910(2) 0.7210(5) 1.1933(2)
C234 C 0.3904(3) 0.7373(5) 1.2210(3)
H126 H 0.4059 0.7565 1.2316
C235 C 0.3673(2) 0.7257(5) 1.2331(3)
H127 H 0.3672 0.7382 1.2515
C236 C 0.3447(2) 0.6963(5) 1.2186(2)
C237 C 0.3443(3) 0.6801(5) 1.1896(3)
H128 H 0.3287 0.6610 1.1790
C238 C 0.3663(2) 0.6926(5) 1.1781(3)
H129 H 0.3657 0.6825 1.1592
C239 C 0.5038(2) 0.9369(4) 0.9172(2)
C240 C 0.5309(2) 0.9532(4) 0.9332(2)
H130 H 0.5392 0.9337 0.9497
C241 C 0.5449(2) 0.9981(5) 0.9243(2)
H131 H 0.5628 1.0085 0.9345
C242 C 0.53208(19) 1.0272(4) 0.9004(2)
C243 C 0.5069(3) 1.0126(6) 0.8849(3)
H132 H 0.4996 1.0308 0.8678
C244 C 0.4910(3) 0.9685(6) 0.8945(3)
H133 H 0.4722 0.9617 0.8854
C245 C 0.5460(2) 1.0931(5) 0.8658(2)
C246 C 0.56777(14) 1.1647(3) 0.83903(12)
C247 C 0.56461(15) 1.1347(2) 0.81366(15)
H134 H 0.5590 1.0975 0.8131
C248 C 0.56978(17) 1.1602(3) 0.78907(12)
H135 H 0.5677 1.1401 0.7721
C249 C 0.57811(17) 1.2159(3) 0.78984(13)
H136 H 0.5816 1.2330 0.7734
C250 C 0.58127(16) 1.2459(2) 0.81520(16)
H137 H 0.5868 1.2831 0.8157
C251 C 0.57610(15) 1.2203(3) 0.83980(12)
C252 C 0.5741(2) 1.3084(5) 0.8677(3)
C253 C 0.5705(2) 1.3832(3) 0.9008(2)
C254 C 0.5731(2) 1.4281(4) 0.8831(2)
H138 H 0.5764 1.4219 0.8648
C255 C 0.5708(2) 1.4823(3) 0.8927(3)
H139 H 0.5725 1.5123 0.8808
C256 C 0.5659(2) 1.4915(3) 0.9201(3)
C257 C 0.5633(3) 1.4466(5) 0.9378(2)
H140 H 0.5600 1.4528 0.9561
C258 C 0.5656(3) 1.3925(4) 0.9282(2)
H141 H 0.5639 1.3624 0.9400
N31 N 0.39323(16) 0.6759(4) 0.82298(19)
H142 H 0.3960 0.6860 0.8065
N32 N 0.36591(17) 0.6061(4) 0.79908(18)
H143 H 0.3681 0.6239 0.7841
N33 N 0.32884(18) 0.5877(4) 0.74690(19)
H144 H 0.3435 0.6071 0.7452
N34 N 0.3060(2) 0.6446(5) 0.7113(2)
H145 H 0.3225 0.6602 0.7131
N35 N 0.2156(3) 0.7593(8) 0.6330(3)
N36 N 0.47475(16) 0.7774(3) 1.08143(17)
H146 H 0.4621 0.7531 1.0837
N37 N 0.4880(2) 0.7708(4) 1.1288(2)
H147 H 0.4763 0.7430 1.1261
N38 N 0.45801(19) 0.7507(4) 1.1727(2)
H148 H 0.4533 0.7310 1.1574
N39 N 0.41256(18) 0.7301(4) 1.1779(2)
H149 H 0.4103 0.7177 1.1606
N40 N 0.3213(2) 0.6831(5) 1.2308(3)
N41 N 0.54683(16) 1.0770(3) 0.89326(18)
H150 H 0.5564 1.0969 0.9069
N42 N 0.56239(17) 1.1419(3) 0.86496(19)
H151 H 0.5694 1.1585 0.8808
N43 N 0.57890(16) 1.2519(4) 0.86622(19)
H152 H 0.5839 1.2340 0.8821
N44 N 0.57483(19) 1.3287(4) 0.8940(2)
H153 H 0.5783 1.3054 0.9080
N45 N 0.5621(3) 1.5522(6) 0.9349(4)
O57 O 0.37095(17) 0.6119(4) 0.84743(18)
O58 O 0.28209(16) 0.5726(4) 0.72919(18)
O59 O 0.1968(4) 0.7266(8) 0.6285(4)
O60 O 0.2199(3) 0.8052(7) 0.6317(3)
O61 O 0.50700(19) 0.8364(4) 1.1060(2)
O62 O 0.4416(2) 0.7871(4) 1.2111(2)
O63 O 0.3201(2) 0.7047(5) 1.2541(2)
O64 O 0.3028(3) 0.6499(5) 1.2200(3)
O65 O 0.53070(16) 1.0725(3) 0.84538(17)
O66 O 0.56687(19) 1.3381(4) 0.8442(2)
O67 O 0.5581(4) 1.5795(9) 0.9147(5)
O68 O 0.5660(3) 1.5531(7) 0.9585(4)
K13 K 0.70198(6) 0.42128(14) 0.82580(7)
C259 C 0.8609(2) 0.3079(5) 0.9121(3)
H154 H 0.8705 0.2778 0.9062
C260 C 0.8453(3) 0.3455(5) 0.8917(3)
C261 C 0.8305(3) 0.3899(5) 0.9018(3)
H155 H 0.8194 0.4135 0.8885
C262 C 0.8320(2) 0.3995(4) 0.9310(2)
C263 C 0.8478(2) 0.3609(5) 0.9507(3)
H156 H 0.8487 0.3655 0.9702
C264 C 0.8616(2) 0.3170(5) 0.9414(3)
C265 C 0.8440(2) 0.3379(3) 0.86122(12)
C266 C 0.8409(2) 0.3839(2) 0.84312(17)
H157 H 0.8402 0.4196 0.8506
C267 C 0.8387(2) 0.3766(3) 0.81386(16)
H158 H 0.8366 0.4074 0.8017
C268 C 0.83976(18) 0.3232(3) 0.80270(12)
C269 C 0.84291(17) 0.2772(2) 0.82080(15)
H159 H 0.8436 0.2416 0.8133
C270 C 0.84504(17) 0.2846(2) 0.85006(14)
H160 H 0.8471 0.2538 0.8622
C271 C 0.8267(2) 0.3441(5) 0.7513(3)
C272 C 0.8164(2) 0.3472(4) 0.69764(17)
C273 C 0.7920(2) 0.3801(5) 0.6943(2)
H161 H 0.7847 0.3903 0.7102
C274 C 0.7785(2) 0.3977(6) 0.6671(2)
H162 H 0.7622 0.4198 0.6649
C275 C 0.7894(3) 0.3825(6) 0.64335(18)
H163 H 0.7803 0.3943 0.6252
C276 C 0.8138(3) 0.3495(6) 0.64672(19)
H164 H 0.8211 0.3393 0.6308
C277 C 0.8273(2) 0.3319(5) 0.6739(2)
C278 C 0.8720(4) 0.3026(7) 0.6641(4)
C279 C 0.9144(2) 0.2491(4) 0.6552(2)
C280 C 0.9161(2) 0.2719(4) 0.6288(2)
H165 H 0.9029 0.2987 0.6205
C281 C 0.9374(2) 0.2547(5) 0.6148(2)
H166 H 0.9385 0.2700 0.5972
C282 C 0.9571(2) 0.2147(5) 0.6272(2)
C283 C 0.9555(2) 0.1918(4) 0.6536(2)
H167 H 0.9686 0.1650 0.6619
C284 C 0.9341(2) 0.2090(4) 0.66759(18)
H168 H 0.9330 0.1937 0.6852
C285 C 0.8161(2) 0.4462(4) 0.9402(3)
C286 C 0.8125(2) 0.4970(5) 0.9237(2)
H169 H 0.8211 0.5010 0.9080
C287 C 0.7957(2) 0.5412(5) 0.9319(2)
H170 H 0.7921 0.5731 0.9207
C288 C 0.7848(2) 0.5363(5) 0.9568(3)
C289 C 0.7894(2) 0.4907(5) 0.9738(2)
H171 H 0.7821 0.4883 0.9904
C290 C 0.80545(19) 0.4473(4) 0.9655(2)
H172 H 0.8094 0.4168 0.9777
C291 C 0.7650(3) 0.5961(6) 0.9897(3)
C292 C 0.7397(2) 0.6691(3) 1.01448(18)
C293 C 0.7422(2) 0.6401(3) 1.0401(2)
H173 H 0.7495 0.6040 1.0417
C294 C 0.7337(3) 0.6649(5) 1.06331(18)
H174 H 0.7353 0.6455 1.0804
C295 C 0.7227(2) 0.7188(5) 1.06093(17)
H175 H 0.7170 0.7354 1.0765
C296 C 0.72025(19) 0.7478(3) 1.0353(2)
H176 H 0.7129 0.7839 1.0337
C297 C 0.72876(17) 0.7230(3) 1.01210(16)
C298 C 0.7322(2) 0.8131(5) 0.9866(3)
C299 C 0.7376(2) 0.8843(3) 0.95251(19)
C300 C 0.7370(3) 0.9294(4) 0.97066(19)
H177 H 0.7324 0.9240 0.9885
C301 C 0.7431(3) 0.9827(3) 0.9621(3)
H178 H 0.7426 1.0129 0.9743
C302 C 0.7499(3) 0.9909(3) 0.9355(3)
C303 C 0.7506(2) 0.9458(4) 0.91734(19)
H179 H 0.7552 0.9512 0.8995
C304 C 0.7445(2) 0.8925(3) 0.92585(18)
H180 H 0.7449 0.8623 0.9137
C305 C 0.8760(2) 0.2725(5) 0.9623(2)
C306 C 0.8883(4) 0.2880(8) 0.9897(4)
H181 H 0.8874 0.3252 0.9949
C307 C 0.9012(3) 0.2522(6) 1.0089(3)
H182 H 0.9108 0.2650 1.0267
C308 C 0.9006(3) 0.1926(5) 1.0026(3)
C309 C 0.8928(3) 0.1834(6) 0.9746(3)
H183 H 0.8955 0.1480 0.9677
C310 C 0.8809(2) 0.2234(5) 0.9559(3)
H184 H 0.8760 0.2135 0.9366
C311 C 0.9224(3) 0.1045(6) 1.0200(3)
C312 C 0.94343(15) 0.0220(3) 1.04705(17)
C313 C 0.93576(18) -0.0164(4) 1.02496(15)
H185 H 0.9222 -0.0069 1.0087
C314 C 0.9483(2) -0.0689(3) 1.02714(17)
H186 H 0.9432 -0.0945 1.0124
C315 C 0.96854(18) -0.0831(3) 1.05140(19)
H187 H 0.9769 -0.1182 1.0529
C316 C 0.97621(15) -0.0447(3) 1.07348(15)
H188 H 0.9897 -0.0542 1.0897
C317 C 0.96365(15) 0.0078(3) 1.07131(15)
C318 C 0.9963(2) 0.0563(5) 1.1112(2)
C319 C 1.02075(12) 0.1105(3) 1.15029(15)
C320 C 1.04862(14) 0.0971(3) 1.14843(15)
H189 H 1.0520 0.0751 1.1334
C321 C 1.07142(11) 0.1165(4) 1.16904(18)
H190 H 1.0901 0.1075 1.1678
C322 C 1.06634(13) 0.1493(4) 1.19150(17)
C323 C 1.03848(16) 0.1627(4) 1.19335(16)
H191 H 1.0351 0.1846 1.2084
C324 C 1.01568(12) 0.1433(4) 1.17275(17)
H192 H 0.9970 0.1522 1.1740
N46 N 0.83913(17) 0.3123(4) 0.77339(18)
H193 H 0.8475 0.2825 0.7694
N47 N 0.8308(2) 0.3257(4) 0.7254(2)
H194 H 0.8429 0.2992 0.7254
N48 N 0.8522(2) 0.3005(5) 0.6783(2)
H195 H 0.8546 0.2771 0.6923
N49 N 0.8934(2) 0.2623(5) 0.6697(2)
H196 H 0.8935 0.2426 0.6848
N50 N 0.9777(3) 0.1946(7) 0.6119(4)
N51 N 0.7673(2) 0.5827(4) 0.9627(2)
H197 H 0.7581 0.6022 0.9486
N52 N 0.7465(2) 0.6442(4) 0.9894(2)
H198 H 0.7392 0.6587 0.9731
N53 N 0.72769(18) 0.7524(4) 0.9878(2)
H199 H 0.7241 0.7344 0.9718
N54 N 0.73213(17) 0.8293(4) 0.95870(19)
H200 H 0.7287 0.8052 0.9451
N55 N 0.91095(19) 0.1564(4) 1.02478(19)
H201 H 0.9103 0.1660 1.0420
N56 N 0.92961(19) 0.0735(4) 1.0452(2)
H202 H 0.9253 0.0869 1.0605
N57 N 0.96984(16) 0.0494(4) 1.09352(18)
H203 H 0.9562 0.0712 1.0959
N58 N 0.99642(17) 0.0954(4) 1.13004(19)
H204 H 0.9807 0.1131 1.1300
N59 N 1.0902(2) 0.1752(6) 1.2122(3)
O69 O 0.8131(2) 0.3881(4) 0.7542(2)
O70 O 0.8703(3) 0.3301(5) 0.6407(3)
O71 O 0.9813(3) 0.2186(6) 0.5889(3)
O72 O 0.9925(3) 0.1532(5) 0.6216(3)
O73 O 0.77974(19) 0.5767(4) 1.0121(2)
O74 O 0.73630(17) 0.8406(4) 1.00695(19)
O75 O 0.92615(18) 0.0887(4) 0.99702(18)
O76 O 1.01711(15) 0.0239(3) 1.10923(17)
O77 O 1.1144(2) 0.1644(6) 1.2072(3)
O78 O 1.0856(2) 0.1954(5) 1.2337(2)
O79 O 0.7580(4) 1.0837(7) 0.9465(5)
N60 N 0.7572(5) 1.0450(8) 0.9280(5)
O80 O 0.7633(4) 1.0542(6) 0.9086(4)
K14 K 0.81712(17) 1.1483(3) 0.95769(14)
K15 K 0.80120(14) 1.1258(3) 0.96067(14)
K16 K 0.69696(12) 0.4049(3) 1.00472(13)
K17 K 0.70718(16) 0.3699(4) 0.99702(18)
O81 O 0.6602(7) 0.4878(13) 0.9951(7)
O82 O 0.7157(4) 0.4846(10) 1.0228(5)
K18 K 0.6106(3) 0.8725(5) 0.8686(3)
O83 O 0.6601(10) 0.8420(19) 0.8895(8)
K19 K 0.91892(17) 0.5163(3) 0.67511(16)
O84 O 0.8658(8) 0.569(2) 0.6926(9)
O85 O 0.9532(8) 0.4760(17) 0.6490(8)
O86 O 0.90487(18) 0.2167(4) 0.7246(2)
O87 O 0.88024(15) 0.1409(3) 0.74832(16)
O88 O 0.88446(16) 0.2383(4) 0.76902(17)
O89 O 0.85133(16) 0.2192(3) 0.72175(17)
P1 P 0.88036(6) 0.20347(13) 0.74064(7)
O90 O 0.92062(12) 0.1098(2) 1.09693(13)
O91 O 0.95347(12) 0.1764(3) 1.12757(13)
O92 O 0.90046(13) 0.1867(3) 1.12267(14)
O93 O 0.92318(13) 0.2107(3) 1.08113(14)
P2 P 0.92463(5) 0.17077(10) 1.10717(5)
O94 O 1.07656(14) 0.7572(3) 0.94117(17)
O95 O 1.10696(15) 0.6804(3) 0.96643(17)
O96 O 1.05796(14) 0.6593(3) 0.93792(16)
O97 O 1.09813(14) 0.6868(3) 0.91272(16)
P3 P 1.08485(6) 0.69620(13) 0.93962(7)
O98 O 0.71258(13) 0.6850(3) 0.94026(15)
O99 O 0.70453(14) 0.6838(3) 0.88685(16)
O100 O 0.75293(13) 0.6583(3) 0.91552(15)
O101 O 0.73495(14) 0.7590(3) 0.91368(16)
P4 P 0.72567(5) 0.69595(11) 0.91413(6)
P5 P 0.88704(15) 0.4930(3) 0.91937(15)
P6 P 0.93104(16) 0.4910(4) 0.92138(16)
P7 P 0.91215(13) 0.4281(3) 0.94100(14)
P8 P 0.90531(16) 0.4307(3) 0.89579(17)
C325? C 0.8274(6) 1.2361(12) 1.0143(5)
C326? C 0.7945(4) 1.2698(11) 0.9729(5)
C327? C 0.7701(6) 1.2693(10) 0.9484(6)
C328? C 0.7900(5) 1.2386(15) 0.9125(6)
C329? C 0.7969(4) 1.2050(8) 0.8902(4)
C330? C 0.8239(6) 1.1280(10) 0.8891(6)
C331? C 0.8489(4) 1.0824(8) 1.0256(5)
C332? C 0.8315(8) 1.1733(17) 1.0278(9)
O102? O 0.8003(3) 1.2243(7) 0.9938(3)
O103? O 0.7753(3) 1.2213(6) 0.9300(3)
O104? O 0.8165(3) 1.1717(6) 0.9052(3)
O105? O 0.8406(4) 1.1362(10) 1.0151(4)
C333? C 0.6394(6) 0.4380(17) 0.9539(8)
C334? C 0.6375(5) 0.3392(12) 0.9573(6)
C335? C 0.6574(4) 0.2917(10) 0.9523(4)
C336? C 0.6971(6) 0.2481(12) 0.9827(6)
C337? C 0.7128(10) 0.246(2) 1.0123(9)
C338? C 0.7542(8) 0.297(2) 1.0464(8)
C339? C 0.7585(7) 0.3596(16) 1.0440(6)
O106? O 0.6563(3) 0.3898(7) 0.9543(3)
O107? O 0.6773(3) 0.2926(8) 0.9814(3)
O108? O 0.7323(5) 0.2983(14) 1.0160(5)
O109? O 0.7396(6) 0.4009(14) 1.0543(6)
C340? C 0.5317(12) 0.851(3) 0.8550(13)
C341? C 0.5376(9) 0.784(2) 0.8504(12)
O110? O 0.5502(7) 0.8793(12) 0.8419(5)
O111? O 0.5695(7) 0.7877(16) 0.8732(7)
C342? C 0.8728(7) 0.6399(12) 0.6650(7)
C343? C 0.9060(11) 0.6486(15) 0.6347(6)
O112? O 0.9461(11) 0.5736(18) 0.6250(12)
O113? O 0.8978(6) 0.6294(9) 0.6594(5)
C344? C 0.9342(13) 0.6217(18) 0.6430(14)
C345? C 0.6553(4) 0.4054(10) 0.8760(4)
C346? C 0.6801(6) 0.3811(13) 0.8974(7)
C347? C 0.7282(8) 0.3821(15) 0.9039(7)
C348? C 0.7541(5) 0.3976(11) 0.8879(5)
C349? C 0.7721(6) 0.3711(13) 0.8464(6)
C350? C 0.7646(3) 0.3470(7) 0.8182(3)
C351? C 0.7483(5) 0.3983(10) 0.7762(5)
C352? C 0.7288(7) 0.4308(11) 0.7563(7)
C353? C 0.6710(6) 0.4424(10) 0.7501(5)
C354? C 0.6486(6) 0.4133(12) 0.7570(6)
C355? C 0.6298(4) 0.3686(10) 0.8008(5)
O114? O 0.6494(4) 0.3857(7) 0.8395(5)
O115? O 0.7034(3) 0.4030(6) 0.8825(3)
O116? O 0.7438(6) 0.3584(11) 0.8596(5)
O117? O 0.7493(3) 0.3969(5) 0.8054(3)
O118? O 0.7014(5) 0.4200(14) 0.7635(6)
O119? O 0.6507(4) 0.4051(8) 0.7843(4)
C356? C 0.8394(7) 1.0706(15) 0.9208(10)
C357? C 0.8540(9) 1.0178(15) 0.9545(12)
C358? C 0.5799(8) 0.710(2) 0.8735(10)
C359? C 0.6064(5) 0.7321(12) 0.8878(6)
O120? O 0.6245(6) 0.7650(12) 0.8860(6)
C360? C 0.6043(13) 0.998(3) 0.8419(15)
C361? C 0.9363(12) 0.4084(17) 0.6723(11)
C362? C 0.9139(12) 0.395(2) 0.7082(11)
C363? C 0.8105(6) 0.7902(13) 1.0043(6)
C364? C 0.8166(4) 0.8293(12) 0.9930(6)
C365? C 0.8590(7) 0.8512(13) 0.9737(7)
C366? C 0.8890(7) 0.8298(12) 0.9620(5)
C367? C 0.9261(4) 0.7750(11) 0.9820(5)
C368? C 0.9447(4) 0.7525(10) 1.0053(5)
C369? C 0.9483(5) 0.6810(11) 1.0367(6)
C370? C 0.9313(5) 0.6277(10) 1.0515(5)
C371? C 0.8909(9) 0.6101(18) 1.0744(10)
O121? O 0.9030(3) 0.8000(6) 0.9865(3)
O122? O 0.9313(3) 0.7047(6) 1.0160(3)
O123? O 0.9073(5) 0.6576(11) 1.0583(4)
O124? O 0.8399(5) 0.8072(10) 0.9836(5)
C372? C 0.8224(8) 0.6900(17) 1.0599(8)
C373? C 0.8474(5) 0.6564(11) 1.0566(6)
C374? C 0.8176(7) 0.7304(17) 1.0306(6)
C375? C 1.0616(8) 0.8666(16) 1.1229(7)
C376? C 1.0511(5) 0.8572(10) 1.0903(6)
C377? C 1.0338(7) 0.8006(16) 1.0492(7)
C378? C 1.1117(11) 0.8246(17) 1.1608(7)
C379? C 1.0298(8) 0.7513(18) 1.0399(9)
O125? O 1.0895(5) 0.8435(10) 1.1285(5)
O126? O 1.0481(5) 0.7957(12) 1.0854(5)
C380? C 1.0467(10) 0.647(2) 1.0489(12)
C381? C 1.0812(6) 0.6304(13) 1.0497(6)
O127? O 1.0561(6) 0.6901(15) 1.0531(6)
O128? O 1.0920(5) 0.6208(10) 1.0784(5)
C382? C 0.8892(17) 0.447(4) 0.7403(16)
O129? O 0.8874(7) 0.4639(13) 0.7112(6)
loop_
_geom_bond_atom_site_label_1
_geom_bond_atom_site_label_2
_geom_bond_site_symmetry_1
_geom_bond_site_symmetry_2
C1 H1 1_555 1_555
C2 C1 1_555 1_555
C3 C2 1_555 1_555
H2 C3 1_555 1_555
C4 C3 1_555 1_555
C5 C4 1_555 1_555
H3 C5 1_555 1_555
C6 C1 1_555 1_555
C7 C2 1_555 1_555
C8 C7 1_555 1_555
H4 C8 1_555 1_555
C9 C8 1_555 1_555
H5 C9 1_555 1_555
C10 C9 1_555 1_555
C11 C10 1_555 1_555
H6 C11 1_555 1_555
C12 C7 1_555 1_555
H7 C12 1_555 1_555
C13 N1 1_555 1_555
C14 C15 1_555 1_555
C15 H8 1_555 1_555
C16 C15 1_555 1_555
H9 C16 1_555 1_555
C17 C16 1_555 1_555
H10 C17 1_555 1_555
C18 C17 1_555 1_555
H11 C18 1_555 1_555
C19 C14 1_555 1_555
C20 N3 1_555 1_555
C21 C22 1_555 1_555
C22 H12 1_555 1_555
C23 C22 1_555 1_555
H13 C23 1_555 1_555
C24 C23 1_555 1_555
C25 C24 1_555 1_555
H14 C25 1_555 1_555
C26 C21 1_555 1_555
H15 C26 1_555 1_555
C27 C4 1_555 1_555
C28 C27 1_555 1_555
H16 C28 1_555 1_555
C29 C28 1_555 1_555
H17 C29 1_555 1_555
C30 C29 1_555 1_555
C31 C30 1_555 1_555
H18 C31 1_555 1_555
C32 C27 1_555 1_555
H19 C32 1_555 1_555
C33 N6 1_555 1_555
C34 C35 1_555 1_555
C35 H20 1_555 1_555
C36 C35 1_555 1_555
H21 C36 1_555 1_555
C37 C36 1_555 1_555
H22 C37 1_555 1_555
C38 C37 1_555 1_555
H23 C38 1_555 1_555
C39 C34 1_555 1_555
C40 N8 1_555 1_555
C41 C42 1_555 1_555
C42 H24 1_555 1_555
C43 C42 1_555 1_555
H25 C43 1_555 1_555
C44 C43 1_555 1_555
C45 C44 1_555 1_555
H26 C45 1_555 1_555
C46 C41 1_555 1_555
H27 C46 1_555 1_555
C47 C6 1_555 1_555
C48 C47 1_555 1_555
H28 C48 1_555 1_555
C49 C48 1_555 1_555
H29 C49 1_555 1_555
C50 C49 1_555 1_555
C51 C50 1_555 1_555
H30 C51 1_555 1_555
C52 C47 1_555 1_555
H31 C52 1_555 1_555
C53 N11 1_555 1_555
C54 C55 1_555 1_555
C55 H32 1_555 1_555
C56 C55 1_555 1_555
H33 C56 1_555 1_555
C57 C56 1_555 1_555
H34 C57 1_555 1_555
C58 C57 1_555 1_555
H35 C58 1_555 1_555
C59 C54 1_555 1_555
C60 N13 1_555 1_555
C61 C62 1_555 1_555
C62 H36 1_555 1_555
C63 C62 1_555 1_555
H37 C63 1_555 1_555
C64 C63 1_555 1_555
C65 C64 1_555 1_555
H38 C65 1_555 1_555
C66 C61 1_555 1_555
H39 C66 1_555 1_555
N1 C10 1_555 1_555
H40 N1 1_555 1_555
N2 C13 1_555 1_555
H41 N2 1_555 1_555
N3 C19 1_555 1_555
H42 N3 1_555 1_555
N4 C20 1_555 1_555
H43 N4 1_555 1_555
N5 C24 1_555 1_555
N6 C30 1_555 1_555
H44 N6 1_555 1_555
N7 C33 1_555 1_555
H45 N7 1_555 1_555
N8 C39 1_555 1_555
H46 N8 1_555 1_555
N9 C40 1_555 1_555
H47 N9 1_555 1_555
N10 C44 1_555 1_555
N11 C50 1_555 1_555
H48 N11 1_555 1_555
N12 C53 1_555 1_555
H49 N12 1_555 1_555
N13 C59 1_555 1_555
H50 N13 1_555 1_555
N14 C60 1_555 1_555
H51 N14 1_555 1_555
N15 C64 1_555 1_555
O1 C13 1_555 1_555
O2 C20 1_555 1_555
O3 N5 1_555 1_555
O4 N5 1_555 1_555
O5 C33 1_555 1_555
O6 C40 1_555 1_555
O7 N10 1_555 1_555
O8 N10 1_555 1_555
O9 C53 1_555 1_555
O10 C60 1_555 1_555
O11 N15 1_555 1_555
O12 N15 1_555 1_555
C67 C68 1_555 1_555
C68 O13 1_555 1_555
C69 C70 1_555 1_555
C70 O14 1_555 1_555
C71 C72 1_555 1_555
C72 O15 1_555 1_555
C73 C74 1_555 1_555
C74 O16 1_555 1_555
C75 C76 1_555 1_555
C76 O17 1_555 1_555
C77 C78 1_555 1_555
C78 O18 1_555 1_555
O13 C69 1_555 1_555
O14 C71 1_555 1_555
O15 C73 1_555 1_555
O16 C75 1_555 1_555
O17 C77 1_555 1_555
O18 C67 1_555 1_555
C79 C80 1_555 1_555
C80 O20 1_555 1_555
C81 C82 1_555 1_555
C82 O21 1_555 1_555
C83 C84 1_555 1_555
C84 O22 1_555 1_555
C85 C86 1_555 1_555
C86 O23 1_555 1_555
C87 C88 1_555 1_555
C88 O24 1_555 1_555
C89 C90 1_555 1_555
C90 O24 1_555 1_555
O19 C79 1_555 1_555
O20 C81 1_555 1_555
O21 C83 1_555 1_555
O22 C85 1_555 1_555
O23 C87 1_555 1_555
C91 H52 1_555 1_555
C92 C91 1_555 1_555
C93 C92 1_555 1_555
H53 C93 1_555 1_555
C94 C93 1_555 1_555
C95 C94 1_555 1_555
H54 C95 1_555 1_555
C96 C91 1_555 1_555
C97 C92 1_555 1_555
C98 C97 1_555 1_555
H55 C98 1_555 1_555
C99 C98 1_555 1_555
H56 C99 1_555 1_555
C100 C99 1_555 1_555
C101 C100 1_555 1_555
H57 C101 1_555 1_555
C102 C97 1_555 1_555
H58 C102 1_555 1_555
C103 N16 1_555 1_555
C104 C105 1_555 1_555
C105 H59 1_555 1_555
C106 C105 1_555 1_555
H60 C106 1_555 1_555
C107 C106 1_555 1_555
H61 C107 1_555 1_555
C108 C107 1_555 1_555
H62 C108 1_555 1_555
C109 C104 1_555 1_555
C110 N18 1_555 1_555
C111 C112 1_555 1_555
C112 H63 1_555 1_555
C113 C112 1_555 1_555
H64 C113 1_555 1_555
C114 C113 1_555 1_555
C115 C114 1_555 1_555
H65 C115 1_555 1_555
C116 C111 1_555 1_555
H66 C116 1_555 1_555
C117 C94 1_555 1_555
C118 C117 1_555 1_555
H67 C118 1_555 1_555
C119 C118 1_555 1_555
H68 C119 1_555 1_555
C120 C119 1_555 1_555
C121 C120 1_555 1_555
H69 C121 1_555 1_555
C122 C117 1_555 1_555
H70 C122 1_555 1_555
C123 N21 1_555 1_555
C124 H71 1_555 1_555
C125 C124 1_555 1_555
H72 C125 1_555 1_555
C126 C125 1_555 1_555
C127 C126 1_555 1_555
C128 C127 1_555 1_555
H73 C128 1_555 1_555
C129 C124 1_555 1_555
H74 C129 1_555 1_555
C130 N23 1_555 1_555
C131 C132 1_555 1_555
C132 H75 1_555 1_555
C133 C132 1_555 1_555
H76 C133 1_555 1_555
C134 C133 1_555 1_555
C135 C134 1_555 1_555
H77 C135 1_555 1_555
C136 C131 1_555 1_555
H78 C136 1_555 1_555
C137 C96 1_555 1_555
C138 C137 1_555 1_555
H79 C138 1_555 1_555
C139 C138 1_555 1_555
H80 C139 1_555 1_555
C140 C139 1_555 1_555
C141 C140 1_555 1_555
H81 C141 1_555 1_555
C142 C137 1_555 1_555
H82 C142 1_555 1_555
C143 N26 1_555 1_555
C144 C145 1_555 1_555
C145 H83 1_555 1_555
C146 C145 1_555 1_555
H84 C146 1_555 1_555
C147 C146 1_555 1_555
H85 C147 1_555 1_555
C148 C147 1_555 1_555
H86 C148 1_555 1_555
C149 C144 1_555 1_555
C150 N28 1_555 1_555
C151 C152 1_555 1_555
C152 H87 1_555 1_555
C153 C152 1_555 1_555
H88 C153 1_555 1_555
C154 C153 1_555 1_555
C155 C154 1_555 1_555
H89 C155 1_555 1_555
C156 C151 1_555 1_555
H90 C156 1_555 1_555
N16 C100 1_555 1_555
H91 N16 1_555 1_555
N17 C103 1_555 1_555
H92 N17 1_555 1_555
N18 C109 1_555 1_555
H93 N18 1_555 1_555
N19 C110 1_555 1_555
H94 N19 1_555 1_555
N20 C114 1_555 1_555
N21 C120 1_555 1_555
H95 N21 1_555 1_555
N22 C123 1_555 1_555
H96 N22 1_555 1_555
N23 C127 1_555 1_555
H97 N23 1_555 1_555
N24 C130 1_555 1_555
H98 N24 1_555 1_555
N25 C134 1_555 1_555
N26 C140 1_555 1_555
H99 N26 1_555 1_555
N27 C143 1_555 1_555
H100 N27 1_555 1_555
N28 C149 1_555 1_555
H101 N28 1_555 1_555
N29 C150 1_555 1_555
H102 N29 1_555 1_555
N30 C154 1_555 1_555
O25 C103 1_555 1_555
O26 C110 1_555 1_555
O27 N20 1_555 1_555
O28 N20 1_555 1_555
O29 C123 1_555 1_555
O30 C130 1_555 1_555
O31 N25 1_555 1_555
O32 N25 1_555 1_555
O33 C143 1_555 1_555
O34 C150 1_555 1_555
O35 N30 1_555 1_555
O36 N30 1_555 1_555
C157 C158 1_555 1_555
C158 O38 1_555 1_555
C159 C160 1_555 1_555
C160 O39 1_555 1_555
C161 C162 1_555 1_555
C162 O40 1_555 1_555
C163 C164 1_555 1_555
C164 O41 1_555 1_555
C165 C166 1_555 1_555
C166 O42 1_555 1_555
C167 C168 1_555 1_555
C168 O37 1_555 1_555
O37 C157 1_555 1_555
O38 C159 1_555 1_555
O39 C161 1_555 1_555
O40 C163 1_555 1_555
O41 C165 1_555 1_555
O42 C167 1_555 1_555
C169 C170 1_555 1_555
C170 O43 1_555 1_555
C171 C172 1_555 1_555
C172 O44 1_555 1_555
C173 C174 1_555 1_555
C174 O45 1_555 1_555
C175 C176 1_555 1_555
C176 O46 1_555 1_555
C177 C178 1_555 1_555
C178 O47 1_555 1_555
C179 C180 1_555 1_555
C180 O48 1_555 1_555
O43 C171 1_555 1_555
O44 C173 1_555 1_555
O45 C175 1_555 1_555
O46 C177 1_555 1_555
O47 C179 1_555 1_555
O48 C169 1_555 1_555
C181 C182 1_555 1_555
C182 O49 1_555 1_555
C183 C184 1_555 1_555
C184 O50 1_555 1_555
C185 C186 1_555 1_555
C186 O51 1_555 1_555
C187 C188 1_555 1_555
C188 O52 1_555 1_555
C189 C190 1_555 1_555
C190 O53 1_555 1_555
C191 C192 1_555 1_555
C192 O54 1_555 1_555
O49 C183 1_555 1_555
O50 C185 1_555 1_555
O51 C187 1_555 1_555
O52 C189 1_555 1_555
O53 C191 1_555 1_555
O54 C181 1_555 1_555
C193 H103 1_555 1_555
C194 C193 1_555 1_555
C195 C194 1_555 1_555
H104 C195 1_555 1_555
C196 C195 1_555 1_555
C197 C196 1_555 1_555
H105 C197 1_555 1_555
C198 C193 1_555 1_555
C199 C194 1_555 1_555
C200 C199 1_555 1_555
H106 C200 1_555 1_555
C201 C200 1_555 1_555
H107 C201 1_555 1_555
C202 C201 1_555 1_555
C203 C202 1_555 1_555
H108 C203 1_555 1_555
C204 C199 1_555 1_555
H109 C204 1_555 1_555
C205 N31 1_555 1_555
C206 C207 1_555 1_555
C207 H110 1_555 1_555
C208 C207 1_555 1_555
H111 C208 1_555 1_555
C209 C208 1_555 1_555
H112 C209 1_555 1_555
C210 C209 1_555 1_555
H113 C210 1_555 1_555
C211 C206 1_555 1_555
C212 N33 1_555 1_555
C213 C214 1_555 1_555
C214 H114 1_555 1_555
C215 C214 1_555 1_555
H115 C215 1_555 1_555
C216 C215 1_555 1_555
C217 C216 1_555 1_555
H116 C217 1_555 1_555
C218 C213 1_555 1_555
H117 C218 1_555 1_555
C219 C196 1_555 1_555
C220 C219 1_555 1_555
H118 C220 1_555 1_555
C221 C220 1_555 1_555
H119 C221 1_555 1_555
C222 C221 1_555 1_555
C223 C222 1_555 1_555
H120 C223 1_555 1_555
C224 C219 1_555 1_555
H121 C224 1_555 1_555
C225 N36 1_555 1_555
C226 C227 1_555 1_555
C227 H122 1_555 1_555
C228 C227 1_555 1_555
H123 C228 1_555 1_555
C229 C228 1_555 1_555
H124 C229 1_555 1_555
C230 C229 1_555 1_555
H125 C230 1_555 1_555
C231 C226 1_555 1_555
C232 N38 1_555 1_555
C233 C234 1_555 1_555
C234 H126 1_555 1_555
C235 C234 1_555 1_555
H127 C235 1_555 1_555
C236 C235 1_555 1_555
C237 C236 1_555 1_555
H128 C237 1_555 1_555
C238 C233 1_555 1_555
H129 C238 1_555 1_555
C239 C198 1_555 1_555
C240 C239 1_555 1_555
H130 C240 1_555 1_555
C241 C240 1_555 1_555
H131 C241 1_555 1_555
C242 C241 1_555 1_555
C243 C242 1_555 1_555
H132 C243 1_555 1_555
C244 C239 1_555 1_555
H133 C244 1_555 1_555
C245 N41 1_555 1_555
C246 C247 1_555 1_555
C247 H134 1_555 1_555
C248 C247 1_555 1_555
H135 C248 1_555 1_555
C249 C248 1_555 1_555
H136 C249 1_555 1_555
C250 C249 1_555 1_555
H137 C250 1_555 1_555
C251 C246 1_555 1_555
C252 N43 1_555 1_555
C253 C254 1_555 1_555
C254 H138 1_555 1_555
C255 C254 1_555 1_555
H139 C255 1_555 1_555
C256 C255 1_555 1_555
C257 C256 1_555 1_555
H140 C257 1_555 1_555
C258 C253 1_555 1_555
H141 C258 1_555 1_555
N31 C202 1_555 1_555
H142 N31 1_555 1_555
N32 C205 1_555 1_555
H143 N32 1_555 1_555
N33 C211 1_555 1_555
H144 N33 1_555 1_555
N34 C212 1_555 1_555
H145 N34 1_555 1_555
N35 C216 1_555 1_555
N36 C222 1_555 1_555
H146 N36 1_555 1_555
N37 C225 1_555 1_555
H147 N37 1_555 1_555
N38 C231 1_555 1_555
H148 N38 1_555 1_555
N39 C232 1_555 1_555
H149 N39 1_555 1_555
N40 C236 1_555 1_555
N41 C242 1_555 1_555
H150 N41 1_555 1_555
N42 C245 1_555 1_555
H151 N42 1_555 1_555
N43 C251 1_555 1_555
H152 N43 1_555 1_555
N44 C252 1_555 1_555
H153 N44 1_555 1_555
N45 C256 1_555 1_555
O57 C205 1_555 1_555
O58 C212 1_555 1_555
O59 N35 1_555 1_555
O60 N35 1_555 1_555
O61 C225 1_555 1_555
O62 C232 1_555 1_555
O63 N40 1_555 1_555
O64 N40 1_555 1_555
O65 C245 1_555 1_555
O66 C252 1_555 1_555
O67 N45 1_555 1_555
O68 N45 1_555 1_555
C259 H154 1_555 1_555
C260 C259 1_555 1_555
C261 C260 1_555 1_555
H155 C261 1_555 1_555
C262 C261 1_555 1_555
C263 C262 1_555 1_555
H156 C263 1_555 1_555
C264 C259 1_555 1_555
C265 C260 1_555 1_555
C266 C265 1_555 1_555
H157 C266 1_555 1_555
C267 C266 1_555 1_555
H158 C267 1_555 1_555
C268 C267 1_555 1_555
C269 C268 1_555 1_555
H159 C269 1_555 1_555
C270 C265 1_555 1_555
H160 C270 1_555 1_555
C271 N46 1_555 1_555
C272 C273 1_555 1_555
C273 H161 1_555 1_555
C274 C273 1_555 1_555
H162 C274 1_555 1_555
C275 C274 1_555 1_555
H163 C275 1_555 1_555
C276 C275 1_555 1_555
H164 C276 1_555 1_555
C277 C272 1_555 1_555
C278 N48 1_555 1_555
C279 C280 1_555 1_555
C280 H165 1_555 1_555
C281 C280 1_555 1_555
H166 C281 1_555 1_555
C282 C281 1_555 1_555
C283 C282 1_555 1_555
H167 C283 1_555 1_555
C284 C279 1_555 1_555
H168 C284 1_555 1_555
C285 C262 1_555 1_555
C286 C285 1_555 1_555
H169 C286 1_555 1_555
C287 C286 1_555 1_555
H170 C287 1_555 1_555
C288 C287 1_555 1_555
C289 C288 1_555 1_555
H171 C289 1_555 1_555
C290 C285 1_555 1_555
H172 C290 1_555 1_555
C291 N51 1_555 1_555
C292 C293 1_555 1_555
C293 H173 1_555 1_555
C294 C293 1_555 1_555
H174 C294 1_555 1_555
C295 C294 1_555 1_555
H175 C295 1_555 1_555
C296 C295 1_555 1_555
H176 C296 1_555 1_555
C297 C292 1_555 1_555
C298 N53 1_555 1_555
C299 C300 1_555 1_555
C300 H177 1_555 1_555
C301 C300 1_555 1_555
H178 C301 1_555 1_555
C302 C301 1_555 1_555
C303 C302 1_555 1_555
H179 C303 1_555 1_555
C304 C299 1_555 1_555
H180 C304 1_555 1_555
C305 C264 1_555 1_555
C306 C305 1_555 1_555
H181 C306 1_555 1_555
C307 C306 1_555 1_555
H182 C307 1_555 1_555
C308 C307 1_555 1_555
C309 C308 1_555 1_555
H183 C309 1_555 1_555
C310 C305 1_555 1_555
H184 C310 1_555 1_555
C311 N55 1_555 1_555
C312 C313 1_555 1_555
C313 H185 1_555 1_555
C314 C313 1_555 1_555
H186 C314 1_555 1_555
C315 C314 1_555 1_555
H187 C315 1_555 1_555
C316 C315 1_555 1_555
H188 C316 1_555 1_555
C317 C312 1_555 1_555
C318 N57 1_555 1_555
C319 C320 1_555 1_555
C320 H189 1_555 1_555
C321 C320 1_555 1_555
H190 C321 1_555 1_555
C322 C321 1_555 1_555
C323 C322 1_555 1_555
H191 C323 1_555 1_555
C324 C319 1_555 1_555
H192 C324 1_555 1_555
N46 C268 1_555 1_555
H193 N46 1_555 1_555
N47 C271 1_555 1_555
H194 N47 1_555 1_555
N48 C277 1_555 1_555
H195 N48 1_555 1_555
N49 C278 1_555 1_555
H196 N49 1_555 1_555
N50 C282 1_555 1_555
N51 C288 1_555 1_555
H197 N51 1_555 1_555
N52 C291 1_555 1_555
H198 N52 1_555 1_555
N53 C297 1_555 1_555
H199 N53 1_555 1_555
N54 C298 1_555 1_555
H200 N54 1_555 1_555
N55 C308 1_555 1_555
H201 N55 1_555 1_555
N56 C311 1_555 1_555
H202 N56 1_555 1_555
N57 C317 1_555 1_555
H203 N57 1_555 1_555
N58 C318 1_555 1_555
H204 N58 1_555 1_555
N59 C322 1_555 1_555
O69 C271 1_555 1_555
O70 C278 1_555 1_555
O71 N50 1_555 1_555
O72 N50 1_555 1_555
O73 C291 1_555 1_555
O74 C298 1_555 1_555
O75 C311 1_555 1_555
O76 C318 1_555 1_555
O77 N59 1_555 1_555
O78 N59 1_555 1_555
O79 N60 1_555 1_555
N60 C302 1_555 1_555
O80 N60 1_555 1_555
O86 P1 1_555 1_555
O87 P1 1_555 1_555
O88 P1 1_555 1_555
O89 P1 1_555 1_555
O90 P2 1_555 1_555
O91 P2 1_555 1_555
O92 P2 1_555 1_555
O93 P2 1_555 1_555
O94 P3 1_555 1_555
O95 P3 1_555 1_555
O96 P3 1_555 1_555
O97 P3 1_555 1_555
O98 P4 1_555 1_555
O99 P4 1_555 1_555
O100 P4 1_555 1_555
O101 P4 1_555 1_555
P5 P6 1_555 1_555
P6 P7 1_555 1_555
P7 P5 1_555 1_555
P8 P5 1_555 1_555
C5 C6 1_555 1_555
C11 C12 1_555 1_555
C14 N2 1_555 1_555
C18 C19 1_555 1_555
C21 N4 1_555 1_555
C25 C26 1_555 1_555
C31 C32 1_555 1_555
C34 N7 1_555 1_555
C38 C39 1_555 1_555
C41 N9 1_555 1_555
C45 C46 1_555 1_555
C51 C52 1_555 1_555
C54 N12 1_555 1_555
C58 C59 1_555 1_555
C61 N14 1_555 1_555
C65 C66 1_555 1_555
C89 O19 1_555 1_555
C95 C96 1_555 1_555
C101 C102 1_555 1_555
C104 N17 1_555 1_555
C108 C109 1_555 1_555
C111 N19 1_555 1_555
C115 C116 1_555 1_555
C121 C122 1_555 1_555
C126 N22 1_555 1_555
C128 C129 1_555 1_555
C131 N24 1_555 1_555
C135 C136 1_555 1_555
C141 C142 1_555 1_555
C144 N27 1_555 1_555
C148 C149 1_555 1_555
C151 N29 1_555 1_555
C155 C156 1_555 1_555
C197 C198 1_555 1_555
C203 C204 1_555 1_555
C206 N32 1_555 1_555
C210 C211 1_555 1_555
C213 N34 1_555 1_555
C217 C218 1_555 1_555
C223 C224 1_555 1_555
C226 N37 1_555 1_555
C230 C231 1_555 1_555
C233 N39 1_555 1_555
C237 C238 1_555 1_555
C243 C244 1_555 1_555
C246 N42 1_555 1_555
C250 C251 1_555 1_555
C253 N44 1_555 1_555
C257 C258 1_555 1_555
C263 C264 1_555 1_555
C269 C270 1_555 1_555
C272 N47 1_555 1_555
C276 C277 1_555 1_555
C279 N49 1_555 1_555
C283 C284 1_555 1_555
C289 C290 1_555 1_555
C292 N52 1_555 1_555
C296 C297 1_555 1_555
C299 N54 1_555 1_555
C303 C304 1_555 1_555
C309 C310 1_555 1_555
C312 N56 1_555 1_555
C316 C317 1_555 1_555
C319 N58 1_555 1_555
C323 C324 1_555 1_555
P6 P8 1_555 1_555
P7 P8 1_555 1_555

#END
