
#######################################################################
#
#                 Cambridge Crystallographic Data Centre
#                                CCDC 
#
#######################################################################
#
# If this CIF has been generated from an entry in the Cambridge 
# Structural Database, then it will include bibliographic, chemical, 
# crystal, experimental, refinement or atomic coordinate data resulting 
# from the CCDC's data processing and validation procedures.
#
#######################################################################

data_LAWPAD
_chemical_formula_moiety         
'C66 H51 N15 O12,3(C12 H24 O6),O4 P1 3-,0.25(As4),3(K1 1+),H2 O1'
_chemical_name_systematic        
'tri-potassium phosphate 1,3,5-tris(4-{[(4-nitrophenyl)carbamoyl]amino}phenyl)benzene tris(18-crown-6) tricyclo[1.1.0.0^2,4^]tetraarsane unknown solvate hydrate'
_symmetry_cell_setting           monoclinic
_symmetry_space_group_name_H-M   'C c'
_symmetry_Int_Tables_number      9
_space_group_name_Hall           'C -2yc'
loop_
_symmetry_equiv_pos_site_id
_symmetry_equiv_pos_as_xyz
1 x,y,z
2 x,-y,1/2+z
3 1/2+x,1/2+y,z
4 1/2+x,1/2-y,1/2+z
_cell_length_a                   47.4242(12)
_cell_length_b                   23.9285(6)
_cell_length_c                   47.8610(11)
_cell_angle_alpha                90
_cell_angle_beta                 101.5960(10)
_cell_angle_gamma                90
_cell_volume                     53203.6
_exptl_crystal_colour            yellow
_exptl_crystal_description       block
_cell_formula_units_Z            16
loop_
_atom_site_label
_atom_site_type_symbol
_atom_site_fract_x
_atom_site_fract_y
_atom_site_fract_z
As1 As 0.43052(8) 0.92373(15) 0.87902(8)
As2 As 0.42238(10) 0.92844(19) 0.82819(9)
As3 As 0.45178(9) 0.99618(17) 0.85606(8)
As4 As 0.40157(9) 0.99699(17) 0.85448(8)
C1 C -0.0746(3) 0.5182(5) 0.4450(3)
C2 C -0.0960(3) 0.4822(5) 0.4330(3)
H1 H -0.1149 0.4890 0.4346
C3 C -0.0893(3) 0.4350(5) 0.4183(3)
C4 C -0.0602(3) 0.4271(7) 0.4159(3)
H2 H -0.0547 0.3953 0.4072
C5 C -0.0399(3) 0.4687(6) 0.4270(3)
C6 C -0.0484(3) 0.5132(6) 0.4408(3)
H3 H -0.0351 0.5411 0.4475
C7 C -0.1109(3) 0.3945(5) 0.4049(3)
C8 C -0.1077(3) 0.3640(7) 0.3808(3)
H4 H -0.0907 0.3675 0.3741
C9 C -0.1290(3) 0.3287(6) 0.3664(3)
H5 H -0.1264 0.3105 0.3499
C10 C -0.1540(2) 0.3206(5) 0.3765(2)
C11 C -0.1566(2) 0.3483(4) 0.4006(2)
H6 H -0.1727 0.3415 0.4084
C12 C -0.1365(2) 0.3861(4) 0.4143(2)
H7 H -0.1401 0.4061 0.4298
C13 C -0.1718(3) 0.2394(5) 0.3469(2)
C14 C -0.1995(3) 0.1660(6) 0.3175(3)
C15 C -0.1781(3) 0.1274(6) 0.3200(3)
H8 H -0.1619 0.1315 0.3345
C16 C -0.1794(3) 0.0828(6) 0.3018(3)
H9 H -0.1648 0.0562 0.3047
C17 C -0.2007(3) 0.0776(7) 0.2809(3)
H10 H -0.2010 0.0482 0.2681
C18 C -0.2238(3) 0.1163(5) 0.2770(3)
H11 H -0.2396 0.1111 0.2622
C19 C -0.2231(3) 0.1627(6) 0.2955(3)
C20 C -0.2658(4) 0.2142(7) 0.2692(3)
C21 C -0.3064(2) 0.2761(5) 0.2512(2)
C22 C -0.3061(2) 0.2706(6) 0.2223(3)
H12 H -0.2908 0.2527 0.2166
C23 C -0.3287(3) 0.2920(7) 0.2020(2)
H13 H -0.3285 0.2883 0.1827
C24 C -0.3516(3) 0.3187(7) 0.2106(3)
C25 C -0.3518(2) 0.3242(6) 0.2395(3)
H14 H -0.3671 0.3421 0.2452
C26 C -0.3293(3) 0.3028(6) 0.2597(2)
H15 H -0.3294 0.3065 0.2790
C27 C -0.0841(2) 0.5695(5) 0.4618(2)
C28 C -0.1117(3) 0.5816(6) 0.4602(3)
H16 H -0.1260 0.5606 0.4486
C29 C -0.1193(3) 0.6272(6) 0.4765(3)
H17 H -0.1386 0.6333 0.4765
C30 C -0.0997(2) 0.6619(5) 0.4918(2)
C31 C -0.0700(3) 0.6447(7) 0.4935(3)
H18 H -0.0553 0.6648 0.5050
C32 C -0.0633(4) 0.6007(7) 0.4791(4)
H19 H -0.0441 0.5909 0.4807
C33 C -0.1319(3) 0.7174(5) 0.5152(3)
C34 C -0.1555(3) 0.7848(5) 0.5416(3)
C35 C -0.1756(3) 0.7489(6) 0.5492(3)
H20 H -0.1729 0.7105 0.5485
C36 C -0.1997(3) 0.7699(6) 0.5579(3)
H21 H -0.2142 0.7460 0.5610
C37 C -0.2018(3) 0.8273(7) 0.5618(3)
H22 H -0.2175 0.8420 0.5682
C38 C -0.1805(3) 0.8623(5) 0.5561(2)
H23 H -0.1818 0.9005 0.5592
C39 C -0.1575(2) 0.8419(5) 0.5461(2)
C40 C -0.1365(2) 0.9325(5) 0.5355(2)
C41 C -0.1071(2) 1.0096(4) 0.5248(2)
C42 C -0.1299(3) 1.0462(6) 0.5116(3)
H24 H -0.1490 1.0348 0.5079
C43 C -0.1221(4) 1.0985(7) 0.5047(3)
H25 H -0.1366 1.1223 0.4957
C44 C -0.0942(3) 1.1189(5) 0.5099(3)
C45 C -0.0712(4) 1.0842(6) 0.5219(3)
H26 H -0.0522 1.0966 0.5251
C46 C -0.0783(3) 1.0299(5) 0.5289(3)
H27 H -0.0634 1.0057 0.5367
C47 C -0.0087(3) 0.4607(7) 0.4230(3)
C48 C 0.0136(3) 0.4857(5) 0.4410(2)
H28 H 0.0098 0.5107 0.4546
C49 C 0.0418(3) 0.4749(5) 0.4394(3)
H29 H 0.0567 0.4908 0.4527
C50 C 0.0485(3) 0.4392(5) 0.4175(3)
C51 C 0.0261(4) 0.4181(8) 0.3981(4)
H30 H 0.0297 0.3955 0.3835
C52 C -0.0037(3) 0.4304(7) 0.4000(3)
H31 H -0.0189 0.4180 0.3859
C53 C 0.1010(3) 0.4560(5) 0.4250(3)
C54 C 0.1535(3) 0.4508(6) 0.4290(3)
C55 C 0.1606(3) 0.4884(6) 0.4506(3)
H32 H 0.1460 0.5026 0.4591
C56 C 0.1892(3) 0.5070(7) 0.4610(4)
H33 H 0.1938 0.5309 0.4765
C57 C 0.2090(3) 0.4887(7) 0.4475(3)
H34 H 0.2277 0.5025 0.4530
C58 C 0.2034(3) 0.4496(6) 0.4253(3)
H35 H 0.2184 0.4358 0.4174
C59 C 0.1753(3) 0.4313(5) 0.4151(3)
C60 C 0.1825(4) 0.3882(10) 0.3711(4)
C61 C 0.1860(2) 0.3195(6) 0.3324(2)
C62 C 0.2151(2) 0.3258(6) 0.3322(3)
H36 H 0.2268 0.3461 0.3466
C63 C 0.22664(19) 0.3018(7) 0.3106(3)
H37 H 0.2461 0.3060 0.3105
C64 C 0.2091(3) 0.2714(7) 0.2891(3)
C65 C 0.1800(3) 0.2651(7) 0.2893(3)
H38 H 0.1682 0.2448 0.2749
C66 C 0.16843(19) 0.2891(7) 0.3109(3)
H39 H 0.1490 0.2849 0.3110
N1 N -0.17614(19) 0.2862(4) 0.36333(19)
H40 H -0.1934 0.2938 0.3653
N2 N -0.1971(2) 0.2130(4) 0.3359(2)
H41 H -0.2125 0.2257 0.3404
N3 N -0.2453(2) 0.2007(4) 0.2930(2)
H42 H -0.2466 0.2183 0.3084
N4 N -0.2847(2) 0.2539(5) 0.2722(3)
H43 H -0.2833 0.2674 0.2891
N5 N -0.3777(6) 0.3461(14) 0.1866(8)
N6 N -0.10593(19) 0.7080(4) 0.50695(18)
H44 H -0.0926 0.7326 0.5116
N7 N -0.1304(2) 0.7649(4) 0.5322(2)
H45 H -0.1143 0.7825 0.5370
N8 N -0.1342(2) 0.8768(4) 0.54179(18)
H46 H -0.1175 0.8615 0.5432
N9 N -0.1109(2) 0.9552(4) 0.53270(18)
H47 H -0.0960 0.9340 0.5361
N10 N -0.0872(3) 1.1745(6) 0.5009(3)
N11 N 0.0761(2) 0.4256(4) 0.4142(2)
H48 H 0.0780 0.3958 0.4047
N12 N 0.1251(2) 0.4331(4) 0.41797(19)
H49 H 0.1227 0.4059 0.4059
N13 N 0.1685(2) 0.3926(5) 0.3926(2)
H50 H 0.1543 0.3702 0.3927
N14 N 0.1709(3) 0.3486(7) 0.3501(3)
H51 H 0.1527 0.3417 0.3479
N15 N 0.2170(5) 0.2660(12) 0.2595(5)
O1 O -0.14836(19) 0.2232(4) 0.34368(19)
O2 O -0.2655(3) 0.1907(6) 0.2456(3)
O3 O -0.3920(6) 0.3720(11) 0.2021(6)
O4 O -0.3742(6) 0.3347(15) 0.1661(6)
O5 O -0.15280(19) 0.6874(4) 0.5070(2)
O6 O -0.15939(18) 0.9591(4) 0.53226(17)
O7 O -0.1081(3) 1.2081(5) 0.4966(3)
O8 O -0.0623(3) 1.1866(5) 0.5013(3)
O9 O 0.0999(2) 0.5021(4) 0.4358(2)
O10 O 0.2042(3) 0.4156(6) 0.3679(3)
O11 O 0.2421(3) 0.2732(6) 0.2608(3)
O12 O 0.2053(5) 0.2074(9) 0.2500(4)
K1 K -0.17948(8) 1.04483(15) 0.55734(7)
K2 K 0.23386(13) 0.3439(2) 0.21780(13)
C67 C 0.0043(3) -0.3855(5) 0.3606(3)
C68 C 0.0062(3) -0.3707(6) 0.3894(3)
H52 H 0.0187 -0.3900 0.4036
C69 C -0.0104(2) -0.3275(5) 0.3968(2)
C70 C -0.0276(3) -0.2972(5) 0.3759(2)
H53 H -0.0384 -0.2682 0.3814
C71 C -0.0299(3) -0.3079(5) 0.3459(3)
C72 C -0.0125(3) -0.3525(5) 0.3396(3)
H54 H -0.0122 -0.3601 0.3206
C73 C -0.0470(3) -0.2736(6) 0.3244(3)
C74 C -0.0546(3) -0.2184(6) 0.3283(3)
H55 H -0.0491 -0.2030 0.3464
C75 C -0.0698(3) -0.1850(6) 0.3068(3)
H56 H -0.0748 -0.1489 0.3109
C76 C -0.0776(3) -0.2050(5) 0.2791(3)
C77 C -0.0722(4) -0.2637(7) 0.2759(3)
H57 H -0.0804 -0.2807 0.2588
C78 C -0.0560(4) -0.2954(7) 0.2962(3)
H58 H -0.0507 -0.3313 0.2920
C79 C -0.1096(3) -0.1279(6) 0.2567(3)
C80 C -0.1348(3) -0.0537(5) 0.2273(2)
C81 C -0.1294(3) -0.0125(6) 0.2489(3)
H59 H -0.1161 -0.0184 0.2658
C82 C -0.1456(3) 0.0398(6) 0.2436(3)
H60 H -0.1437 0.0671 0.2577
C83 C -0.1631(3) 0.0478(7) 0.2182(3)
H61 H -0.1733 0.0812 0.2151
C84 C -0.1667(3) 0.0085(6) 0.1965(3)
H62 H -0.1781 0.0165 0.1787
C85 C -0.1527(3) -0.0443(5) 0.2019(3)
C86 C -0.1806(3) -0.0997(6) 0.1617(3)
C87 C -0.2008(2) -0.1663(5) 0.1247(2)
C88 C -0.2272(3) -0.1401(4) 0.1154(3)
H63 H -0.2302 -0.1043 0.1217
C89 C -0.2490(2) -0.1675(6) 0.0967(3)
H64 H -0.2667 -0.1500 0.0905
C90 C -0.2445(2) -0.2211(6) 0.0873(2)
C91 C -0.2181(3) -0.2473(4) 0.0966(2)
H65 H -0.2151 -0.2832 0.0903
C92 C -0.1963(2) -0.2199(5) 0.1153(2)
H66 H -0.1786 -0.2375 0.1216
C93 C 0.0203(3) -0.4319(5) 0.3518(2)
C94 C 0.0077(4) -0.4682(7) 0.3302(4)
H67 H -0.0114 -0.4622 0.3215
C95 C 0.0225(4) -0.5143(7) 0.3206(4)
H68 H 0.0136 -0.5360 0.3053
C96 C 0.0483(2) -0.5250(5) 0.3336(2)
C97 C 0.0627(3) -0.4952(6) 0.3569(3)
H69 H 0.0812 -0.5046 0.3664
C98 C 0.0471(3) -0.4485(6) 0.3655(3)
H70 H 0.0559 -0.4283 0.3814
C99 C 0.0615(3) -0.5941(5) 0.2992(3)
C100 C 0.08245(18) -0.6632(3) 0.27193(12)
C101 C 0.0794(2) -0.6329(2) 0.24670(15)
H71 H 0.0741 -0.5955 0.2463
C102 C 0.0844(2) -0.6586(3) 0.22211(12)
H72 H 0.0824 -0.6384 0.2052
C103 C 0.0924(2) -0.7146(3) 0.22275(13)
H73 H 0.0958 -0.7318 0.2063
C104 C 0.09545(19) -0.7448(2) 0.24797(15)
H74 H 0.1008 -0.7822 0.2484
C105 C 0.09045(18) -0.7191(3) 0.27256(12)
C106 C 0.0870(2) -0.8064(5) 0.2989(2)
C107 C 0.0850(3) -0.8820(6) 0.3338(3)
C108 C 0.0875(4) -0.9244(7) 0.3148(4)
H75 H 0.0902 -0.9181 0.2964
C109 C 0.0854(3) -0.9827(6) 0.3273(3)
H76 H 0.0873 -1.0144 0.3166
C110 C 0.0806(4) -0.9876(8) 0.3544(4)
C111 C 0.0799(4) -0.9431(7) 0.3710(4)
H77 H 0.0783 -0.9490 0.3898
C112 C 0.0813(4) -0.8924(7) 0.3624(4)
H78 H 0.0799 -0.8628 0.3746
C113 C -0.0082(2) -0.3136(5) 0.4276(2)
C114 C 0.0027(2) -0.3509(5) 0.4491(2)
H79 H 0.0099 -0.3851 0.4444
C115 C 0.0032(2) -0.3384(5) 0.4779(2)
H80 H 0.0091 -0.3658 0.4916
C116 C -0.0047(2) -0.2863(5) 0.4864(2)
C117 C -0.0166(3) -0.2494(5) 0.4635(2)
H81 H -0.0245 -0.2158 0.4678
C118 C -0.0167(3) -0.2611(5) 0.4368(2)
H82 H -0.0227 -0.2336 0.4231
C119 C 0.0097(3) -0.2936(5) 0.5382(2)
C120 C 0.0194(3) -0.2794(6) 0.5899(3)
C121 C 0.0483(3) -0.2994(7) 0.5963(3)
H83 H 0.0591 -0.3035 0.5822
C122 C 0.0593(4) -0.3123(8) 0.6243(4)
H84 H 0.0780 -0.3262 0.6286
C123 C 0.0462(4) -0.3069(8) 0.6446(4)
H85 H 0.0557 -0.3170 0.6628
C124 C 0.0177(3) -0.2861(6) 0.6407(3)
H86 H 0.0086 -0.2824 0.6561
C125 C 0.0033(3) -0.2708(5) 0.6123(3)
C126 C -0.0452(3) -0.2572(5) 0.6209(2)
C127 C -0.0932(3) -0.2219(5) 0.6256(2)
C128 C -0.0929(3) -0.2403(6) 0.6520(3)
H87 H -0.0772 -0.2606 0.6618
C129 C -0.1157(3) -0.2290(6) 0.6645(3)
H88 H -0.1155 -0.2416 0.6829
C130 C -0.1389(3) -0.1994(6) 0.6504(3)
C131 C -0.1399(4) -0.1787(7) 0.6225(3)
H89 H -0.1552 -0.1579 0.6124
C132 C -0.1158(3) -0.1926(5) 0.6117(3)
H90 H -0.1153 -0.1806 0.5933
N16 N -0.0911(2) -0.1754(4) 0.2562(2)
H91 H -0.0884 -0.1860 0.2398
N17 N -0.1193(2) -0.1046(4) 0.2312(2)
H92 H -0.1159 -0.1214 0.2164
N18 N -0.1552(2) -0.0874(4) 0.1800(2)
H93 H -0.1401 -0.1061 0.1786
N19 N -0.1779(3) -0.1422(6) 0.1440(2)
H94 H -0.1609 -0.1555 0.1446
N20 N -0.2663(4) -0.2637(8) 0.0670(3)
N21 N 0.0632(2) -0.5737(4) 0.3270(2)
H95 H 0.0737 -0.5915 0.3408
N22 N 0.0776(2) -0.6392(4) 0.2973(2)
H96 H 0.0857 -0.6549 0.3130
N23 N 0.09341(19) -0.7509(4) 0.29866(19)
H97 H 0.0995 -0.7342 0.3146
N24 N 0.0903(2) -0.8260(4) 0.3270(2)
H98 H 0.0958 -0.8029 0.3408
N25 N 0.0786(4) -1.0456(7) 0.3662(4)
N26 N -0.00731(19) -0.2719(4) 0.51401(17)
H99 H -0.0203 -0.2480 0.5160
N27 N 0.0054(2) -0.2656(4) 0.56204(19)
H100 H -0.0066 -0.2382 0.5598
N28 N -0.0243(2) -0.2495(4) 0.6057(2)
H101 H -0.0286 -0.2293 0.5906
N29 N -0.0699(2) -0.2301(4) 0.61054(19)
H102 H -0.0720 -0.2166 0.5936
N30 N -0.1629(3) -0.1865(5) 0.6632(2)
O13 O -0.1139(2) -0.1103(4) 0.27981(18)
O14 O -0.2027(2) -0.0721(5) 0.1614(2)
O15 O -0.2861(4) -0.2332(8) 0.0610(4)
O16 O -0.2613(4) -0.3091(8) 0.0659(3)
O17 O 0.0465(2) -0.5682(4) 0.2780(2)
O18 O 0.08051(19) -0.8363(4) 0.27830(18)
O19 O 0.0749(3) -1.0798(6) 0.3497(4)
O20 O 0.0812(4) -1.0500(7) 0.3914(4)
O21 O 0.0261(2) -0.3327(4) 0.53862(18)
O22 O -0.0425(2) -0.2876(4) 0.64263(18)
O23 O -0.1650(3) -0.2060(5) 0.6860(2)
O24 O -0.1810(3) -0.1540(6) 0.6524(3)
C133 C 0.4320(3) -0.0965(5) 0.2960(3)
C134 C 0.4393(3) -0.0507(5) 0.2805(3)
H103 H 0.4585 -0.0445 0.2798
C135 C 0.4193(3) -0.0158(5) 0.2667(3)
C136 C 0.3900(3) -0.0244(6) 0.2675(3)
H104 H 0.3760 -0.0004 0.2576
C137 C 0.3822(3) -0.0672(5) 0.2824(3)
C138 C 0.4025(3) -0.1017(5) 0.2966(3)
H105 H 0.3968 -0.1303 0.3074
C139 C 0.3509(3) -0.0729(6) 0.2855(3)
C140 C 0.3312(3) -0.0324(5) 0.2767(3)
H106 H 0.3368 -0.0016 0.2673
C141 C 0.3026(3) -0.0346(5) 0.2812(3)
H107 H 0.2901 -0.0047 0.2762
C142 C 0.2938(2) -0.0820(4) 0.2932(2)
C143 C 0.3117(3) -0.1263(7) 0.3008(3)
H108 H 0.3054 -0.1583 0.3088
C144 C 0.3407(3) -0.1218(6) 0.2962(3)
H109 H 0.3531 -0.1522 0.3004
C145 C 0.2421(2) -0.0628(5) 0.2870(2)
C146 C 0.18847(16) -0.0683(4) 0.2826(2)
C147 C 0.1806(2) -0.0449(5) 0.2556(2)
H110 H 0.1945 -0.0392 0.2446
C148 C 0.1521(2) -0.0301(6) 0.2450(2)
H111 H 0.1469 -0.0145 0.2269
C149 C 0.13149(18) -0.0387(6) 0.2615(3)
H112 H 0.1124 -0.0288 0.2544
C150 C 0.13933(19) -0.0620(6) 0.2885(3)
H113 H 0.1255 -0.0677 0.2995
C151 C 0.1678(2) -0.0768(4) 0.29909(18)
C152 C 0.1618(3) -0.1025(6) 0.3480(3)
C153 C 0.1623(3) -0.1456(7) 0.3941(3)
C154 C 0.1327(3) -0.1425(5) 0.3938(3)
H114 H 0.1199 -0.1306 0.3776
C155 C 0.1231(3) -0.1574(6) 0.4180(3)
H115 H 0.1036 -0.1540 0.4178
C156 C 0.1404(3) -0.1768(6) 0.4420(3)
C157 C 0.1705(3) -0.1813(7) 0.4425(3)
H116 H 0.1831 -0.1932 0.4589
C158 C 0.1803(3) -0.1676(8) 0.4181(3)
H117 H 0.1997 -0.1733 0.4177
C159 C 0.4541(3) -0.1311(5) 0.3135(3)
C160 C 0.4501(3) -0.1621(5) 0.3360(2)
H118 H 0.4317 -0.1625 0.3398
C161 C 0.4701(3) -0.1921(6) 0.3533(3)
H119 H 0.4651 -0.2127 0.3681
C162 C 0.4986(2) -0.1923(5) 0.3490(2)
C163 C 0.5036(3) -0.1654(6) 0.3252(3)
H120 H 0.5215 -0.1690 0.3201
C164 C 0.4833(3) -0.1342(6) 0.3092(3)
H121 H 0.4881 -0.1132 0.2945
C165 C 0.5193(3) -0.2656(5) 0.3828(2)
C166 C 0.5503(2) -0.3357(4) 0.4129(2)
C167 C 0.52875(18) -0.3743(5) 0.4143(3)
H122 H 0.5101 -0.3678 0.4044
C168 C 0.5351(2) -0.4225(5) 0.4306(3)
H123 H 0.5206 -0.4483 0.4316
C169 C 0.5630(3) -0.4321(4) 0.4455(3)
H124 H 0.5672 -0.4643 0.4563
C170 C 0.5846(2) -0.3935(5) 0.4440(3)
H125 H 0.6033 -0.4000 0.4540
C171 C 0.57825(18) -0.3453(4) 0.4278(2)
C172 C 0.6185(4) -0.2891(8) 0.4516(4)
C173 C 0.6580(2) -0.2255(5) 0.4674(2)
C174 C 0.6688(3) -0.2539(5) 0.4925(3)
H126 H 0.6621 -0.2895 0.4955
C175 C 0.6898(3) -0.2292(6) 0.5134(2)
H127 H 0.6971 -0.2482 0.5302
C176 C 0.6999(3) -0.1760(6) 0.5090(2)
C177 C 0.6890(3) -0.1475(4) 0.4838(3)
H128 H 0.6957 -0.1120 0.4809
C178 C 0.6680(2) -0.1723(4) 0.4630(2)
H129 H 0.6607 -0.1533 0.4462
C179 C 0.4271(3) 0.0346(5) 0.2506(4)
C180 C 0.4535(5) 0.0599(8) 0.2589(4)
H130 H 0.4676 0.0440 0.2730
C181 C 0.4587(5) 0.1099(10) 0.2459(6)
H131 H 0.4764 0.1268 0.2529
C182 C 0.4424(4) 0.1349(8) 0.2260(5)
C183 C 0.4151(4) 0.1101(8) 0.2154(5)
H132 H 0.4017 0.1271 0.2010
C184 C 0.4085(5) 0.0558(9) 0.2281(6)
H133 H 0.3916 0.0367 0.2206
C185 C 0.4774(4) 0.1932(7) 0.2081(5)
C186 C 0.4989(3) 0.2605(5) 0.1794(3)
C187 C 0.5243(3) 0.2308(5) 0.1803(4)
H134 H 0.5259 0.1943 0.1872
C188 C 0.5472(3) 0.2557(6) 0.1710(4)
H135 H 0.5642 0.2358 0.1716
C189 C 0.5448(2) 0.3102(6) 0.1608(4)
H136 H 0.5602 0.3268 0.1546
C190 C 0.5194(2) 0.3398(4) 0.1598(3)
H137 H 0.5178 0.3763 0.1530
C191 C 0.4965(2) 0.3150(4) 0.1691(3)
C192 C 0.4732(3) 0.4036(5) 0.1819(2)
C193 C 0.44186(15) 0.4746(2) 0.19647(16)
C194 C 0.46366(12) 0.5056(3) 0.21329(17)
H138 H 0.4823 0.4917 0.2175
C195 C 0.45753(14) 0.5574(3) 0.22382(17)
H139 H 0.4721 0.5781 0.2351
C196 C 0.42961(16) 0.5782(2) 0.21751(17)
C197 C 0.40781(12) 0.5472(3) 0.20069(17)
H140 H 0.3891 0.5611 0.1965
C198 C 0.41394(13) 0.4954(3) 0.19016(15)
H141 H 0.3994 0.4747 0.1789
N31 N 0.2658(2) -0.0900(4) 0.2993(2)
H142 H 0.2641 -0.1145 0.3120
N32 N 0.2172(2) -0.0862(4) 0.2921(2)
H143 H 0.2194 -0.1158 0.3025
N33 N 0.1760(3) -0.1057(5) 0.3260(3)
H144 H 0.1911 -0.1264 0.3284
N34 N 0.1747(2) -0.1339(5) 0.3705(2)
H145 H 0.1915 -0.1473 0.3704
N35 N 0.1299(2) -0.1887(5) 0.4670(3)
N36 N 0.5218(2) -0.2206(4) 0.3662(2)
H146 H 0.5389 -0.2085 0.3662
N37 N 0.5460(2) -0.2869(5) 0.3964(2)
H147 H 0.5611 -0.2684 0.3945
N38 N 0.6004(3) -0.3058(5) 0.4279(2)
H148 H 0.6024 -0.2917 0.4119
N39 N 0.6383(3) -0.2463(5) 0.4481(3)
H149 H 0.6368 -0.2331 0.4312
N40 N 0.7212(6) -0.1403(14) 0.5345(6)
N41 N 0.4494(3) 0.1816(5) 0.2119(3)
H150 H 0.4359 0.2048 0.2052
N42 N 0.4762(4) 0.2401(6) 0.1888(4)
H151 H 0.4598 0.2560 0.1830
N43 N 0.4720(2) 0.3488(5) 0.1728(2)
H152 H 0.4553 0.3333 0.1689
N44 N 0.4465(2) 0.4228(4) 0.18576(19)
H153 H 0.4320 0.4008 0.1811
N45 N 0.4231(3) 0.6327(5) 0.2270(2)
O25 O 0.2407(2) -0.0208(4) 0.27045(19)
O26 O 0.1411(2) -0.0704(4) 0.3477(2)
O27 O 0.1041(2) -0.1864(4) 0.4662(2)
O28 O 0.1467(3) -0.2027(6) 0.4892(3)
O29 O 0.4963(2) -0.2861(4) 0.3856(2)
O30 O 0.6221(3) -0.3136(6) 0.4757(3)
O31 O 0.7258(4) -0.1728(11) 0.5562(4)
O32 O 0.7303(5) -0.1026(11) 0.5270(5)
O33 O 0.4993(4) 0.1659(6) 0.2167(4)
O34 O 0.49502(19) 0.4321(3) 0.18603(18)
O35 O 0.4427(2) 0.6630(4) 0.2373(2)
O36 O 0.3981(2) 0.6489(4) 0.2227(2)
K3 K 0.21726(6) 0.07978(12) 0.25922(6)
C199 C 0.0682(4) -0.1945(7) 0.5228(3)
C200 C 0.0422(3) -0.1576(6) 0.5085(3)
C201 C 0.0216(4) -0.1049(7) 0.4717(4)
C202 C 0.0240(4) -0.0881(7) 0.4400(4)
C203 C 0.0248(5) -0.1259(9) 0.3963(5)
C204 C 0.0236(5) -0.1849(10) 0.3768(4)
C205 C 0.0534(4) -0.2587(9) 0.3731(4)
C206 C 0.0798(4) -0.2930(8) 0.3868(3)
C207 C 0.0976(4) -0.3488(7) 0.4274(3)
C208 C 0.0890(3) -0.3703(6) 0.4552(4)
C209 C 0.0836(3) -0.3346(6) 0.4993(3)
C210 C 0.0869(4) -0.2867(7) 0.5186(3)
O37 O 0.06447(19) -0.2465(4) 0.50670(18)
O38 O 0.0430(2) -0.1457(4) 0.4811(2)
O39 O 0.0225(2) -0.1403(4) 0.4239(2)
O40 O 0.0502(3) -0.2126(5) 0.3903(3)
O41 O 0.0727(2) -0.3162(4) 0.4132(2)
O42 O 0.0891(2) -0.3217(4) 0.4734(2)
C211 C 0.3696(3) -0.1890(6) 0.2341(3)
C212 C 0.3643(3) -0.2425(7) 0.2491(3)
C213 C 0.3791(3) -0.2974(7) 0.2877(3)
C214 C 0.4004(4) -0.3078(7) 0.3131(4)
C215 C 0.4507(4) -0.3354(8) 0.3256(4)
C216 C 0.4774(4) -0.3541(7) 0.3141(3)
C217 C 0.5083(4) -0.3196(8) 0.2856(4)
C218 C 0.5170(3) -0.2664(6) 0.2725(3)
C219 C 0.5047(3) -0.1929(6) 0.2386(3)
C220 C 0.4808(4) -0.1759(7) 0.2148(3)
C221 C 0.4317(3) -0.1432(6) 0.2061(3)
C222 C 0.4050(4) -0.1378(7) 0.2183(3)
O43 O 0.38561(18) -0.2500(4) 0.27363(18)
O44 O 0.42880(19) -0.3218(4) 0.30288(18)
O45 O 0.48586(18) -0.3039(4) 0.29951(18)
O46 O 0.49577(17) -0.2431(4) 0.25179(18)
O47 O 0.45518(19) -0.1620(4) 0.22756(16)
O48 O 0.39707(19) -0.1915(4) 0.22650(19)
C223 C 0.1592(7) 0.0972(14) 0.1925(5)
C224 C 0.1824(7) 0.0633(10) 0.1838(5)
C225 C 0.2388(8) 0.0639(14) 0.1928(8)
C226 C 0.2637(5) 0.1020(11) 0.2083(5)
C227 C 0.2805(4) 0.1542(8) 0.2505(3)
C228 C 0.2888(8) 0.128(2) 0.2793(10)
C229 C 0.2684(6) 0.1072(12) 0.3203(5)
C230 C 0.2448(11) 0.116(2) 0.3334(11)
C231 C 0.1940(9) 0.1134(15) 0.3229(8)
C232 C 0.1702(4) 0.0962(8) 0.3082(4)
C233 C 0.1413(7) 0.1080(13) 0.2613(7)
C234 C 0.1471(4) 0.1397(12) 0.2316(5)
O49 O 0.1655(4) 0.0877(8) 0.2178(4)
O50 O 0.2146(5) 0.0872(10) 0.1977(5)
O51 O 0.2651(3) 0.1035(5) 0.2385(3)
O52 O 0.2636(4) 0.1377(8) 0.2925(3)
O53 O 0.2129(4) 0.1026(7) 0.3145(3)
O54 O 0.1665(4) 0.1187(8) 0.2752(5)
C235 C -0.2321(12) 1.136(2) 0.5103(9)
C236 C -0.2087(6) 1.1472(12) 0.5032(6)
C237 C -0.1810(4) 1.1907(8) 0.5444(4)
C238 C -0.1487(6) 1.1812(10) 0.5609(5)
C239 C -0.1165(4) 1.1256(9) 0.5940(4)
C240 C -0.1179(3) 1.0736(7) 0.6116(3)
C241 C -0.1277(4) 0.9757(7) 0.6101(3)
C242 C -0.1539(3) 0.9753(8) 0.6247(3)
C243 C -0.2050(4) 0.9636(7) 0.6138(3)
C244 C -0.2311(5) 0.9664(9) 0.5879(4)
C245 C -0.2554(4) 1.0189(9) 0.5501(3)
C246 C -0.2564(6) 1.0708(11) 0.5352(5)
O55 O -0.2329(4) 1.0732(7) 0.5231(4)
O56 O -0.1859(2) 1.1412(5) 0.5244(2)
O57 O -0.1474(2) 1.1351(5) 0.5767(2)
O58 O -0.1267(2) 1.0258(5) 0.5942(2)
O59 O -0.1792(2) 0.9704(5) 0.6022(2)
O60 O -0.2323(2) 1.0160(5) 0.5731(2)
C247 C -0.1842(6) 0.2346(13) 0.4452(7)
C248 C -0.1685(6) 0.1911(11) 0.4331(5)
C249 C -0.1255(6) 0.1560(12) 0.4105(5)
C250 C -0.0983(6) 0.1795(10) 0.4000(4)
C251 C -0.0563(5) 0.2243(10) 0.4153(5)
C252 C -0.0375(5) 0.2537(11) 0.4405(4)
C253 C -0.0332(6) 0.3252(12) 0.4764(5)
C254 C -0.0455(7) 0.3728(12) 0.4868(6)
C255 C -0.0841(6) 0.4032(14) 0.5072(7)
C256 C -0.1079(8) 0.3768(17) 0.5136(6)
C257 C -0.1541(7) 0.3265(16) 0.4959(8)
C258 C -0.1746(8) 0.3063(16) 0.4740(7)
O61 O -0.1631(5) 0.2648(11) 0.4645(5)
O62 O -0.1400(4) 0.2012(8) 0.4199(4)
O63 O -0.0788(4) 0.2044(6) 0.4237(3)
O64 O -0.0490(3) 0.2968(6) 0.4513(2)
O65 O -0.0717(4) 0.3501(8) 0.4944(3)
O66 O -0.1303(5) 0.3559(11) 0.4920(4)
K4 K 0.05191(6) -0.23562(12) 0.44830(6)
K5 K 0.44200(5) -0.23959(10) 0.26738(5)
K6 K 0.51206(6) 0.52070(12) 0.16184(6)
K7 K -0.10603(14) 0.2878(2) 0.45649(11)
K8 K 0.61367(17) -0.2402(4) 0.52818(17)
K9 K 0.22752(15) 0.3512(3) 0.20462(16)
K10 K -0.10861(16) 0.2762(3) 0.44938(13)
C259 C 0.3484(2) 0.8963(5) 0.8654(2)
C260 C 0.3632(2) 0.8574(4) 0.8841(2)
H154 H 0.3634 0.8609 0.9035
C261 C 0.3780(2) 0.8122(5) 0.8744(2)
C262 C 0.3765(3) 0.8039(5) 0.8459(2)
H155 H 0.3854 0.7729 0.8397
C263 C 0.3618(3) 0.8412(5) 0.8263(2)
C264 C 0.3470(3) 0.8875(5) 0.8360(3)
H156 H 0.3365 0.9118 0.8228
C265 C 0.3602(3) 0.8347(5) 0.7960(3)
C266 C 0.3598(3) 0.7801(5) 0.7834(2)
H157 H 0.3610 0.7485 0.7948
C267 C 0.3579(3) 0.7743(5) 0.7546(3)
H158 H 0.3585 0.7386 0.7470
C268 C 0.3549(2) 0.8203(5) 0.7363(2)
C269 C 0.3553(3) 0.8722(6) 0.7476(3)
H159 H 0.3539 0.9031 0.7356
C270 C 0.3580(3) 0.8806(6) 0.7778(3)
H160 H 0.3582 0.9166 0.7851
C271 C 0.3417(3) 0.8430(5) 0.6853(2)
C272 C 0.3337(3) 0.8487(5) 0.63313(17)
C273 C 0.3092(3) 0.8820(6) 0.6293(2)
H161 H 0.3009 0.8908 0.6448
C274 C 0.2971(3) 0.9022(7) 0.6023(3)
H162 H 0.2808 0.9246 0.5997
C275 C 0.3095(4) 0.8891(8) 0.5792(2)
H163 H 0.3015 0.9026 0.5611
C276 C 0.3340(4) 0.8557(7) 0.58302(19)
H164 H 0.3423 0.8469 0.5675
C277 C 0.3461(3) 0.8355(5) 0.6100(2)
C278 C 0.3922(5) 0.8072(7) 0.5999(3)
C279 C 0.4351(3) 0.7544(5) 0.5929(2)
C280 C 0.4380(3) 0.7803(5) 0.5676(2)
H165 H 0.4261 0.8102 0.5605
C281 C 0.4586(3) 0.7615(5) 0.5528(2)
H166 H 0.4605 0.7788 0.5359
C282 C 0.4763(3) 0.7168(6) 0.5633(3)
C283 C 0.4734(3) 0.6910(5) 0.5886(2)
H167 H 0.4853 0.6611 0.5956
C284 C 0.4528(3) 0.7097(5) 0.6034(2)
H168 H 0.4509 0.6924 0.6203
C285 C 0.3331(3) 0.9456(5) 0.8748(2)
C286 C 0.3290(3) 0.9923(5) 0.8590(2)
H169 H 0.3373 0.9948 0.8430
C287 C 0.3124(3) 1.0385(5) 0.8658(2)
H170 H 0.3089 1.0698 0.8541
C288 C 0.3017(3) 1.0343(5) 0.8907(3)
C289 C 0.3049(2) 0.9862(5) 0.9072(2)
H171 H 0.2965 0.9832 0.9231
C290 C 0.3207(3) 0.9434(5) 0.8994(2)
H172 H 0.3235 0.9114 0.9107
C291 C 0.2818(3) 1.0946(6) 0.9236(3)
C292 C 0.2573(3) 1.1656(6) 0.9485(3)
C293 C 0.2592(4) 1.1387(7) 0.9742(3)
H173 H 0.2658 1.1020 0.9759
C294 C 0.2517(4) 1.1636(8) 0.9968(4)
H174 H 0.2537 1.1434 1.0137
C295 C 0.2415(4) 1.2153(7) 0.9964(3)
H175 H 0.2364 1.2311 1.0124
C296 C 0.2388(3) 1.2462(6) 0.9699(3)
H176 H 0.2314 1.2823 0.9686
C297 C 0.2472(3) 1.2225(5) 0.9464(3)
C298 C 0.2502(3) 1.3095(6) 0.9201(3)
C299 C 0.2547(3) 1.3836(5) 0.8863(3)
C300 C 0.2562(3) 1.3920(6) 0.8580(3)
H177 H 0.2527 1.3625 0.8451
C301 C 0.2632(5) 1.4469(7) 0.8485(4)
H178 H 0.2656 1.4530 0.8299
C302 C 0.2662(4) 1.4884(7) 0.8675(4)
C303 C 0.2658(4) 1.4818(8) 0.8958(4)
H179 H 0.2701 1.5111 0.9088
C304 C 0.2583(4) 1.4266(7) 0.9044(4)
H180 H 0.2560 1.4209 0.9231
C305 C 0.3918(3) 0.7698(5) 0.8958(2)
C306 C 0.4055(3) 0.7886(7) 0.9230(3)
H181 H 0.4069 0.8265 0.9274
C307 C 0.4170(3) 0.7486(6) 0.9429(3)
H182 H 0.4250 0.7603 0.9613
C308 C 0.4171(3) 0.6888(5) 0.9365(3)
C309 C 0.4091(3) 0.6769(5) 0.9080(2)
H183 H 0.4117 0.6411 0.9014
C310 C 0.3970(3) 0.7186(5) 0.8889(2)
H184 H 0.3923 0.7091 0.8697
C311 C 0.4394(3) 0.5974(5) 0.9541(2)
C312 C 0.4605(2) 0.5159(5) 0.9805(2)
C313 C 0.4523(3) 0.4764(5) 0.9592(3)
H185 H 0.4382 0.4851 0.9433
C314 C 0.4653(4) 0.4236(7) 0.9614(3)
H186 H 0.4603 0.3971 0.9470
C315 C 0.4852(3) 0.4124(5) 0.9847(3)
H187 H 0.4934 0.3769 0.9862
C316 C 0.4951(3) 0.4514(5) 1.0076(3)
H188 H 0.5095 0.4424 1.0232
C317 C 0.4812(2) 0.5049(4) 1.0048(2)
C318 C 0.5142(2) 0.5511(4) 1.0444(2)
C319 C 0.5373(2) 0.6084(5) 1.0846(2)
C320 C 0.5668(3) 0.5957(6) 1.0828(3)
H189 H 0.5708 0.5727 1.0684
C321 C 0.5884(3) 0.6180(6) 1.1025(3)
H190 H 0.6073 0.6115 1.1010
C322 C 0.5830(3) 0.6494(5) 1.1242(3)
C323 C 0.5556(3) 0.6605(6) 1.1272(3)
H191 H 0.5519 0.6811 1.1425
C324 C 0.5336(3) 0.6402(5) 1.1065(3)
H192 H 0.5148 0.6493 1.1078
N46 N 0.3557(2) 0.8095(4) 0.70741(19)
H193 H 0.3653 0.7811 0.7034
N47 N 0.3459(3) 0.8241(5) 0.6600(2)
H194 H 0.3567 0.7952 0.6600
N48 N 0.3710(3) 0.8008(5) 0.6140(2)
H195 H 0.3724 0.7741 0.6262
N49 N 0.4132(3) 0.7661(5) 0.6068(2)
H196 H 0.4124 0.7458 0.6215
N50 N 0.4993(4) 0.7023(8) 0.5509(4)
N51 N 0.2831(2) 1.0791(4) 0.89666(19)
H197 H 0.2725 1.0963 0.8826
N52 N 0.2635(2) 1.1409(4) 0.9235(2)
H198 H 0.2555 1.1550 0.9073
N53 N 0.2446(2) 1.2529(4) 0.9214(2)
H199 H 0.2390 1.2354 0.9056
N54 N 0.2507(2) 1.3271(4) 0.8931(2)
H200 H 0.2484 1.3027 0.8796
N55 N 0.2684(5) 1.5565(14) 0.8600(7)
N56 N 0.4282(2) 0.6515(4) 0.95769(18)
H201 H 0.4284 0.6620 0.9749
N57 N 0.4468(2) 0.5717(4) 0.97837(18)
H202 H 0.4437 0.5875 0.9936
N58 N 0.48770(19) 0.5445(4) 1.02634(17)
H203 H 0.4741 0.5668 1.0286
N59 N 0.5144(2) 0.5914(4) 1.06395(18)
H204 H 0.4984 0.6086 1.0635
N60 N 0.6070(3) 0.6720(5) 1.1462(3)
O67 O 0.3284(2) 0.8847(4) 0.68803(19)
O68 O 0.3912(4) 0.8376(6) 0.5799(3)
O69 O 0.5009(4) 0.7239(7) 0.5264(4)
O70 O 0.5107(4) 0.6589(7) 0.5561(3)
O71 O 0.2944(2) 1.0724(4) 0.94519(18)
O72 O 0.2549(2) 1.3385(4) 0.9412(2)
O73 O 0.2727(5) 1.5530(5) 0.8378(4)
O74 O 0.2862(5) 1.5796(9) 0.8850(5)
O75 O 0.4433(2) 0.5812(4) 0.93014(17)
O76 O 0.53545(18) 0.5212(3) 1.04278(17)
O77 O 0.6314(3) 0.6688(6) 1.1402(3)
O78 O 0.6014(2) 0.6937(5) 1.1677(2)
K11 K 0.31682(12) 1.6212(2) 0.89698(11)
K12 K 0.33715(13) 0.6436(2) 0.89176(12)
K13 K 0.71342(14) 0.4000(3) 0.93957(13)
K14 K 0.72201(14) 0.3657(3) 0.93012(13)
K15 K 0.1252(3) 0.6296(5) 0.3088(3)
O79 O 0.0833(8) 0.7123(17) 0.3109(9)
K16 K 0.4312(2) 0.0203(3) 0.60612(17)
K17 K 0.4494(2) 0.0097(4) 0.61557(19)
O80 O 0.39647(17) 0.6373(3) 0.68114(16)
O81 O 0.36802(19) 0.7185(4) 0.65429(17)
O82 O 0.40076(18) 0.7356(3) 0.70218(16)
O83 O 0.4225(2) 0.7150(4) 0.6590(2)
P1 P 0.39703(8) 0.70237(15) 0.67455(7)
O84 O 0.43763(15) 0.6048(3) 0.03025(14)
O85 O 0.41802(14) 0.6815(3) 0.05665(13)
O86 O 0.47161(15) 0.6728(3) 0.06104(14)
O87 O 0.44062(15) 0.7060(3) 0.01447(13)
P2 P 0.44193(6) 0.66696(11) 0.04051(5)
O88 O 0.57470(16) 0.1554(3) 0.87079(16)
O89 O 0.61447(16) 0.1853(3) 0.84566(15)
O90 O 0.59285(16) 0.2562(3) 0.87421(15)
O91 O 0.62499(16) 0.1778(3) 0.89957(16)
P3 P 0.60150(6) 0.19302(13) 0.87242(6)
O92 O 0.21984(16) 0.1825(3) 0.82154(17)
O93 O 0.26939(15) 0.1569(3) 0.85014(15)
O94 O 0.22839(16) 0.1835(3) 0.87465(15)
O95 O 0.25113(16) 0.2573(3) 0.84843(16)
P4 P 0.24198(6) 0.19428(11) 0.84871(6)
O96 O 0.6521(10) 0.873(3) 0.5591(13)
C325? C 0.1781(12) 0.423(3) 0.2414(11)
C326? C 0.1895(7) 0.4082(14) 0.2703(8)
C327? C 0.2393(7) 0.4382(14) 0.2796(7)
C328? C 0.2612(7) 0.4541(13) 0.2636(6)
C329? C 0.2972(5) 0.4121(9) 0.2438(4)
C330? C 0.3076(4) 0.3509(7) 0.2359(4)
C331? C 0.2951(4) 0.2824(7) 0.2027(4)
C332? C 0.2760(4) 0.2640(9) 0.1776(4)
C333? C 0.2278(5) 0.2364(10) 0.1615(5)
C334? C 0.1988(5) 0.2282(11) 0.1720(5)
C335? C 0.1623(6) 0.2852(13) 0.1881(7)
C336? C 0.1612(5) 0.3447(12) 0.2025(6)
O97? O 0.1780(4) 0.3482(7) 0.2272(4)
O98? O 0.2153(4) 0.4242(8) 0.2528(5)
O99? O 0.2721(4) 0.4021(7) 0.2542(3)
O100? O 0.2876(2) 0.3330(5) 0.2123(2)
O101? O 0.2483(2) 0.2533(5) 0.1843(2)
O102? O 0.1895(3) 0.2851(7) 0.1786(4)
C337? C 0.1361(10) 0.4775(16) 0.3191(10)
C338? C 0.1482(12) 0.518(3) 0.3648(8)
C339? C 0.1672(14) 0.548(3) 0.3692(15)
O103? O 0.1486(6) 0.5346(13) 0.3353(6)
C340? C 0.1694(9) 0.6990(17) 0.3710(10)
C341? C 0.1181(8) 0.7727(13) 0.3153(12)
C342? C 0.0942(6) 0.787(2) 0.3069(11)
C343? C 0.1618(14) 0.724(2) 0.3400(11)
O104? O 0.1676(7) 0.6391(18) 0.3609(6)
O105? O 0.1358(7) 0.7335(15) 0.3246(8)
C344? C 0.0466(11) 0.667(3) 0.2835(9)
O106? O 0.0676(7) 0.6254(12) 0.2754(5)
C345? C 0.0837(11) 0.5308(16) 0.2643(11)
C346? C 0.1178(9) 0.501(2) 0.2791(12)
C347? C 0.6256(12) -0.092(2) 0.5137(10)
C348? C 0.5968(7) -0.1123(14) 0.4784(6)
C349? C 0.5870(6) -0.1577(18) 0.4891(7)
O107? O 0.6022(11) -0.125(2) 0.5083(11)
O108? O 0.5657(7) -0.178(2) 0.4767(9)
C350? C 0.5473(11) -0.245(2) 0.4725(10)
C351? C 0.5450(8) -0.294(2) 0.4861(8)
C352? C 0.5667(6) -0.3522(13) 0.5194(7)
O109? O 0.5630(7) -0.3011(16) 0.5170(8)
C353? C 0.5802(12) -0.391(3) 0.5567(14)
O110? O 0.6007(11) -0.343(2) 0.5641(10)
C354? C 0.6270(14) -0.306(3) 0.5952(7)
O111? O 0.6440(8) -0.250(2) 0.5810(8)
C355? C 0.6635(15) 0.482(3) 0.8937(13)
C356? C 0.6599(9) 0.4200(19) 0.8880(8)
C357? C 0.6556(5) 0.3330(11) 0.8868(5)
C358? C 0.6747(5) 0.2858(11) 0.8875(5)
C359? C 0.7140(6) 0.2475(14) 0.9198(6)
O112? O 0.6738(3) 0.3790(8) 0.8886(3)
O113? O 0.6933(4) 0.2849(9) 0.9156(3)
C360? C 0.7483(7) 0.2553(12) 0.9495(6)
C361? C 0.7722(9) 0.3081(14) 0.9824(6)
C362? C 0.7892(7) 0.4049(16) 0.9802(9)
C363? C 0.7710(11) 0.463(2) 0.9851(13)
O114? O 0.7492(4) 0.3019(9) 0.9555(3)
O115? O 0.7694(6) 0.3639(14) 0.9803(4)
C364? C 0.7191(9) 0.4972(13) 0.9704(7)
C365? C 0.7196(12) 0.510(2) 0.9303(13)
O116? O 0.6957(8) 0.4652(14) 0.9208(8)
C366? C 0.4324(8) -0.0952(15) 0.6589(9)
C367? C 0.4017(13) -0.069(2) 0.6465(12)
C368? C 0.3781(8) 0.0181(17) 0.6413(7)
C369? C 0.3793(8) 0.0694(15) 0.6182(7)
C370? C 0.4104(6) 0.1327(8) 0.5912(5)
C371? C 0.4245(8) 0.1503(17) 0.5668(8)
C372? C 0.4682(7) 0.0883(15) 0.5654(6)
O117? O 0.4515(6) -0.0990(11) 0.6363(5)
O118? O 0.4059(7) -0.0210(13) 0.6444(5)
O119? O 0.4015(7) 0.0771(13) 0.6031(6)
O120? O 0.4455(6) 0.1114(12) 0.5835(5)
C373? C 0.477(3) -0.101(5) 0.587(2)
C374? C 0.3291(10) 0.0235(15) 0.6988(9)
C375? C 0.3142(11) 0.076(2) 0.6898(8)
C376? C 0.3118(9) 0.164(2) 0.6656(9)
C377? C 0.3139(8) 0.1832(11) 0.6366(7)
O121? O 0.3197(3) 0.1051(6) 0.6685(4)
C378? C 0.5261(15) 0.002(3) 0.6006(15)
C379? C 0.1551(8) 0.5565(18) 0.5339(8)
C380? C 0.1634(7) 0.608(2) 0.5265(8)
C381? C 0.1735(7) 0.6650(13) 0.4817(7)
C382? C 0.1760(10) 0.657(2) 0.4561(12)
O122? O 0.1693(5) 0.6143(10) 0.4974(6)
C383? C 0.3758(14) 0.5325(12) 0.8783(10)
C384? C 0.3737(7) 0.5049(16) 0.9003(6)
C385? C 0.3682(6) 0.5647(18) 0.9343(8)
C386? C 0.3630(4) 0.5784(9) 0.9614(4)
O123? O 0.3568(7) 0.5242(16) 0.9194(7)
C387? C 0.2894(5) 0.7666(10) 0.8829(5)
C388? C 0.3040(5) 0.7536(13) 0.8466(6)
C389? C 0.3098(4) 0.6989(8) 0.8266(5)
C390? C 0.3386(7) 0.6182(11) 0.8278(7)
O124? O 0.2923(3) 0.7183(7) 0.8667(3)
O125? O 0.3325(4) 0.6631(8) 0.8392(3)
C391? C 0.4488(5) 0.5155(9) 0.0980(4)
C392? C 0.4607(5) 0.4536(9) 0.1051(4)
C393? C 0.5025(5) 0.4710(9) 0.0952(4)
C394? C 0.5398(4) 0.4497(7) 0.1055(3)
C395? C 0.5738(7) 0.4656(14) 0.1417(8)
C396? C 0.5887(8) 0.4894(17) 0.1720(12)
C397? C 0.5675(7) 0.5427(11) 0.2077(6)
C398? C 0.5583(10) 0.591(2) 0.2203(8)
C399? C 0.5033(5) 0.6601(7) 0.1897(4)
C400? C 0.4567(6) 0.6239(12) 0.1545(5)
C401? C 0.4501(3) 0.5988(6) 0.1255(3)
O126? O 0.4915(9) 0.4508(12) 0.1126(6)
O127? O 0.5489(4) 0.4724(8) 0.1320(4)
O128? O 0.5734(5) 0.5313(10) 0.1846(5)
O129? O 0.5259(4) 0.6110(8) 0.2000(3)
O130? O 0.4873(4) 0.6272(6) 0.1608(3)
O131? O 0.4581(3) 0.5416(6) 0.1251(3)
C402? C 0.3538(11) 0.655(2) 0.9613(12)
C403? C 0.3457(8) 0.7252(13) 0.9494(7)
O132? O 0.3176(4) 0.7207(7) 0.9287(4)
loop_
_geom_bond_atom_site_label_1
_geom_bond_atom_site_label_2
_geom_bond_site_symmetry_1
_geom_bond_site_symmetry_2
As1 As2 1_555 1_555
As2 As3 1_555 1_555
As3 As1 1_555 1_555
As4 As1 1_555 1_555
C1 C2 1_555 1_555
C2 H1 1_555 1_555
C3 C2 1_555 1_555
C4 C3 1_555 1_555
H2 C4 1_555 1_555
C5 C4 1_555 1_555
C6 C1 1_555 1_555
H3 C6 1_555 1_555
C7 C3 1_555 1_555
C8 C7 1_555 1_555
H4 C8 1_555 1_555
C9 C8 1_555 1_555
H5 C9 1_555 1_555
C10 C9 1_555 1_555
C11 C10 1_555 1_555
H6 C11 1_555 1_555
C12 C7 1_555 1_555
H7 C12 1_555 1_555
C13 N1 1_555 1_555
C14 C15 1_555 1_555
C15 H8 1_555 1_555
C16 C15 1_555 1_555
H9 C16 1_555 1_555
C17 C16 1_555 1_555
H10 C17 1_555 1_555
C18 C17 1_555 1_555
H11 C18 1_555 1_555
C19 C14 1_555 1_555
C20 N3 1_555 1_555
C21 C22 1_555 1_555
C22 H12 1_555 1_555
C23 C22 1_555 1_555
H13 C23 1_555 1_555
C24 C23 1_555 1_555
C25 C24 1_555 1_555
H14 C25 1_555 1_555
C26 C21 1_555 1_555
H15 C26 1_555 1_555
C27 C1 1_555 1_555
C28 C27 1_555 1_555
H16 C28 1_555 1_555
C29 C28 1_555 1_555
H17 C29 1_555 1_555
C30 C29 1_555 1_555
C31 C30 1_555 1_555
H18 C31 1_555 1_555
C32 C27 1_555 1_555
H19 C32 1_555 1_555
C33 N6 1_555 1_555
C34 C35 1_555 1_555
C35 H20 1_555 1_555
C36 C35 1_555 1_555
H21 C36 1_555 1_555
C37 C36 1_555 1_555
H22 C37 1_555 1_555
C38 C37 1_555 1_555
H23 C38 1_555 1_555
C39 C34 1_555 1_555
C40 N8 1_555 1_555
C41 C42 1_555 1_555
C42 H24 1_555 1_555
C43 C42 1_555 1_555
H25 C43 1_555 1_555
C44 C43 1_555 1_555
C45 C44 1_555 1_555
H26 C45 1_555 1_555
C46 C41 1_555 1_555
H27 C46 1_555 1_555
C47 C5 1_555 1_555
C48 C47 1_555 1_555
H28 C48 1_555 1_555
C49 C48 1_555 1_555
H29 C49 1_555 1_555
C50 C49 1_555 1_555
C51 C50 1_555 1_555
H30 C51 1_555 1_555
C52 C47 1_555 1_555
H31 C52 1_555 1_555
C53 N11 1_555 1_555
C54 C55 1_555 1_555
C55 H32 1_555 1_555
C56 C55 1_555 1_555
H33 C56 1_555 1_555
C57 C56 1_555 1_555
H34 C57 1_555 1_555
C58 C57 1_555 1_555
H35 C58 1_555 1_555
C59 C54 1_555 1_555
C60 N13 1_555 1_555
C61 C62 1_555 1_555
C62 H36 1_555 1_555
C63 C62 1_555 1_555
H37 C63 1_555 1_555
C64 C63 1_555 1_555
C65 C64 1_555 1_555
H38 C65 1_555 1_555
C66 C61 1_555 1_555
H39 C66 1_555 1_555
N1 C10 1_555 1_555
H40 N1 1_555 1_555
N2 C13 1_555 1_555
H41 N2 1_555 1_555
N3 C19 1_555 1_555
H42 N3 1_555 1_555
N4 C20 1_555 1_555
H43 N4 1_555 1_555
N5 C24 1_555 1_555
N6 C30 1_555 1_555
H44 N6 1_555 1_555
N7 C33 1_555 1_555
H45 N7 1_555 1_555
N8 C39 1_555 1_555
H46 N8 1_555 1_555
N9 C40 1_555 1_555
H47 N9 1_555 1_555
N10 C44 1_555 1_555
N11 C50 1_555 1_555
H48 N11 1_555 1_555
N12 C53 1_555 1_555
H49 N12 1_555 1_555
N13 C59 1_555 1_555
H50 N13 1_555 1_555
N14 C60 1_555 1_555
H51 N14 1_555 1_555
N15 C64 1_555 1_555
O1 C13 1_555 1_555
O2 C20 1_555 1_555
O3 N5 1_555 1_555
O4 N5 1_555 1_555
O5 C33 1_555 1_555
O6 C40 1_555 1_555
O7 N10 1_555 1_555
O8 N10 1_555 1_555
O9 C53 1_555 1_555
O10 C60 1_555 1_555
O11 N15 1_555 1_555
O12 N15 1_555 1_555
C67 C68 1_555 1_555
C68 H52 1_555 1_555
C69 C68 1_555 1_555
C70 C69 1_555 1_555
H53 C70 1_555 1_555
C71 C70 1_555 1_555
C72 C67 1_555 1_555
H54 C72 1_555 1_555
C73 C71 1_555 1_555
C74 C73 1_555 1_555
H55 C74 1_555 1_555
C75 C74 1_555 1_555
H56 C75 1_555 1_555
C76 C75 1_555 1_555
C77 C76 1_555 1_555
H57 C77 1_555 1_555
C78 C73 1_555 1_555
H58 C78 1_555 1_555
C79 N16 1_555 1_555
C80 C81 1_555 1_555
C81 H59 1_555 1_555
C82 C81 1_555 1_555
H60 C82 1_555 1_555
C83 C82 1_555 1_555
H61 C83 1_555 1_555
C84 C83 1_555 1_555
H62 C84 1_555 1_555
C85 C80 1_555 1_555
C86 N18 1_555 1_555
C87 C88 1_555 1_555
C88 H63 1_555 1_555
C89 C88 1_555 1_555
H64 C89 1_555 1_555
C90 C89 1_555 1_555
C91 C90 1_555 1_555
H65 C91 1_555 1_555
C92 C87 1_555 1_555
H66 C92 1_555 1_555
C93 C67 1_555 1_555
C94 C93 1_555 1_555
H67 C94 1_555 1_555
C95 C94 1_555 1_555
H68 C95 1_555 1_555
C96 C95 1_555 1_555
C97 C96 1_555 1_555
H69 C97 1_555 1_555
C98 C93 1_555 1_555
H70 C98 1_555 1_555
C99 N21 1_555 1_555
C100 C101 1_555 1_555
C101 H71 1_555 1_555
C102 C101 1_555 1_555
H72 C102 1_555 1_555
C103 C102 1_555 1_555
H73 C103 1_555 1_555
C104 C103 1_555 1_555
H74 C104 1_555 1_555
C105 C100 1_555 1_555
C106 N23 1_555 1_555
C107 C108 1_555 1_555
C108 H75 1_555 1_555
C109 C108 1_555 1_555
H76 C109 1_555 1_555
C110 C109 1_555 1_555
C111 C110 1_555 1_555
H77 C111 1_555 1_555
C112 C107 1_555 1_555
H78 C112 1_555 1_555
C113 C69 1_555 1_555
C114 C113 1_555 1_555
H79 C114 1_555 1_555
C115 C114 1_555 1_555
H80 C115 1_555 1_555
C116 C115 1_555 1_555
C117 C116 1_555 1_555
H81 C117 1_555 1_555
C118 C113 1_555 1_555
H82 C118 1_555 1_555
C119 N26 1_555 1_555
C120 C121 1_555 1_555
C121 H83 1_555 1_555
C122 C121 1_555 1_555
H84 C122 1_555 1_555
C123 C122 1_555 1_555
H85 C123 1_555 1_555
C124 C123 1_555 1_555
H86 C124 1_555 1_555
C125 C120 1_555 1_555
C126 N28 1_555 1_555
C127 C128 1_555 1_555
C128 H87 1_555 1_555
C129 C128 1_555 1_555
H88 C129 1_555 1_555
C130 C129 1_555 1_555
C131 C130 1_555 1_555
H89 C131 1_555 1_555
C132 C127 1_555 1_555
H90 C132 1_555 1_555
N16 C76 1_555 1_555
H91 N16 1_555 1_555
N17 C79 1_555 1_555
H92 N17 1_555 1_555
N18 C85 1_555 1_555
H93 N18 1_555 1_555
N19 C86 1_555 1_555
H94 N19 1_555 1_555
N20 C90 1_555 1_555
N21 C96 1_555 1_555
H95 N21 1_555 1_555
N22 C99 1_555 1_555
H96 N22 1_555 1_555
N23 C105 1_555 1_555
H97 N23 1_555 1_555
N24 C106 1_555 1_555
H98 N24 1_555 1_555
N25 C110 1_555 1_555
N26 C116 1_555 1_555
H99 N26 1_555 1_555
N27 C119 1_555 1_555
H100 N27 1_555 1_555
N28 C125 1_555 1_555
H101 N28 1_555 1_555
N29 C126 1_555 1_555
H102 N29 1_555 1_555
N30 C130 1_555 1_555
O13 C79 1_555 1_555
O14 C86 1_555 1_555
O15 N20 1_555 1_555
O16 N20 1_555 1_555
O17 C99 1_555 1_555
O18 C106 1_555 1_555
O19 N25 1_555 1_555
O20 N25 1_555 1_555
O21 C119 1_555 1_555
O22 C126 1_555 1_555
O23 N30 1_555 1_555
O24 N30 1_555 1_555
C133 C134 1_555 1_555
C134 H103 1_555 1_555
C135 C134 1_555 1_555
C136 C135 1_555 1_555
H104 C136 1_555 1_555
C137 C136 1_555 1_555
C138 C133 1_555 1_555
H105 C138 1_555 1_555
C139 C137 1_555 1_555
C140 C139 1_555 1_555
H106 C140 1_555 1_555
C141 C140 1_555 1_555
H107 C141 1_555 1_555
C142 C141 1_555 1_555
C143 C142 1_555 1_555
H108 C143 1_555 1_555
C144 C139 1_555 1_555
H109 C144 1_555 1_555
C145 N31 1_555 1_555
C146 C147 1_555 1_555
C147 H110 1_555 1_555
C148 C147 1_555 1_555
H111 C148 1_555 1_555
C149 C148 1_555 1_555
H112 C149 1_555 1_555
C150 C149 1_555 1_555
H113 C150 1_555 1_555
C151 C146 1_555 1_555
C152 N33 1_555 1_555
C153 C154 1_555 1_555
C154 H114 1_555 1_555
C155 C154 1_555 1_555
H115 C155 1_555 1_555
C156 C155 1_555 1_555
C157 C156 1_555 1_555
H116 C157 1_555 1_555
C158 C153 1_555 1_555
H117 C158 1_555 1_555
C159 C133 1_555 1_555
C160 C159 1_555 1_555
H118 C160 1_555 1_555
C161 C160 1_555 1_555
H119 C161 1_555 1_555
C162 C161 1_555 1_555
C163 C162 1_555 1_555
H120 C163 1_555 1_555
C164 C159 1_555 1_555
H121 C164 1_555 1_555
C165 N36 1_555 1_555
C166 C167 1_555 1_555
C167 H122 1_555 1_555
C168 C167 1_555 1_555
H123 C168 1_555 1_555
C169 C168 1_555 1_555
H124 C169 1_555 1_555
C170 C169 1_555 1_555
H125 C170 1_555 1_555
C171 C166 1_555 1_555
C172 N38 1_555 1_555
C173 C174 1_555 1_555
C174 H126 1_555 1_555
C175 C174 1_555 1_555
H127 C175 1_555 1_555
C176 C175 1_555 1_555
C177 C176 1_555 1_555
H128 C177 1_555 1_555
C178 C173 1_555 1_555
H129 C178 1_555 1_555
C179 C135 1_555 1_555
C180 C179 1_555 1_555
H130 C180 1_555 1_555
C181 C180 1_555 1_555
H131 C181 1_555 1_555
C182 C181 1_555 1_555
C183 C182 1_555 1_555
H132 C183 1_555 1_555
C184 C179 1_555 1_555
H133 C184 1_555 1_555
C185 N41 1_555 1_555
C186 C187 1_555 1_555
C187 H134 1_555 1_555
C188 C187 1_555 1_555
H135 C188 1_555 1_555
C189 C188 1_555 1_555
H136 C189 1_555 1_555
C190 C189 1_555 1_555
H137 C190 1_555 1_555
C191 C186 1_555 1_555
C192 N43 1_555 1_555
C193 C194 1_555 1_555
C194 H138 1_555 1_555
C195 C194 1_555 1_555
H139 C195 1_555 1_555
C196 C195 1_555 1_555
C197 C196 1_555 1_555
H140 C197 1_555 1_555
C198 C193 1_555 1_555
H141 C198 1_555 1_555
N31 C142 1_555 1_555
H142 N31 1_555 1_555
N32 C145 1_555 1_555
H143 N32 1_555 1_555
N33 C151 1_555 1_555
H144 N33 1_555 1_555
N34 C152 1_555 1_555
H145 N34 1_555 1_555
N35 C156 1_555 1_555
N36 C162 1_555 1_555
H146 N36 1_555 1_555
N37 C165 1_555 1_555
H147 N37 1_555 1_555
N38 C171 1_555 1_555
H148 N38 1_555 1_555
N39 C172 1_555 1_555
H149 N39 1_555 1_555
N40 C176 1_555 1_555
N41 C182 1_555 1_555
H150 N41 1_555 1_555
N42 C185 1_555 1_555
H151 N42 1_555 1_555
N43 C191 1_555 1_555
H152 N43 1_555 1_555
N44 C192 1_555 1_555
H153 N44 1_555 1_555
N45 C196 1_555 1_555
O25 C145 1_555 1_555
O26 C152 1_555 1_555
O27 N35 1_555 1_555
O28 N35 1_555 1_555
O29 C165 1_555 1_555
O30 C172 1_555 1_555
O31 N40 1_555 1_555
O32 N40 1_555 1_555
O33 C185 1_555 1_555
O34 C192 1_555 1_555
O35 N45 1_555 1_555
O36 N45 1_555 1_555
C199 C200 1_555 1_555
C200 O38 1_555 1_555
C201 C202 1_555 1_555
C202 O39 1_555 1_555
C203 C204 1_555 1_555
C204 O40 1_555 1_555
C205 C206 1_555 1_555
C206 O41 1_555 1_555
C207 C208 1_555 1_555
C208 O42 1_555 1_555
C209 C210 1_555 1_555
C210 O37 1_555 1_555
O37 C199 1_555 1_555
O38 C201 1_555 1_555
O39 C203 1_555 1_555
O40 C205 1_555 1_555
O41 C207 1_555 1_555
O42 C209 1_555 1_555
C211 C212 1_555 1_555
C212 O43 1_555 1_555
C213 C214 1_555 1_555
C214 O44 1_555 1_555
C215 C216 1_555 1_555
C216 O45 1_555 1_555
C217 C218 1_555 1_555
C218 O46 1_555 1_555
C219 C220 1_555 1_555
C220 O47 1_555 1_555
C221 C222 1_555 1_555
C222 O48 1_555 1_555
O43 C213 1_555 1_555
O44 C215 1_555 1_555
O45 C217 1_555 1_555
O46 C219 1_555 1_555
O47 C221 1_555 1_555
O48 C211 1_555 1_555
C223 C224 1_555 1_555
C224 O50 1_555 1_555
C225 C226 1_555 1_555
C226 O51 1_555 1_555
C227 C228 1_555 1_555
C228 O52 1_555 1_555
C229 C230 1_555 1_555
C230 O53 1_555 1_555
C231 C232 1_555 1_555
C232 O54 1_555 1_555
C233 C234 1_555 1_555
C234 O49 1_555 1_555
O49 C223 1_555 1_555
O50 C225 1_555 1_555
O51 C227 1_555 1_555
O52 C229 1_555 1_555
O53 C231 1_555 1_555
O54 C233 1_555 1_555
C235 C236 1_555 1_555
C236 O56 1_555 1_555
C237 C238 1_555 1_555
C238 O57 1_555 1_555
C239 C240 1_555 1_555
C240 O58 1_555 1_555
C241 C242 1_555 1_555
C242 O59 1_555 1_555
C243 C244 1_555 1_555
C244 O60 1_555 1_555
C245 C246 1_555 1_555
C246 O55 1_555 1_555
O55 C235 1_555 1_555
O56 C237 1_555 1_555
O57 C239 1_555 1_555
O58 C241 1_555 1_555
O59 C243 1_555 1_555
O60 C245 1_555 1_555
C247 C248 1_555 1_555
C248 O62 1_555 1_555
C249 C250 1_555 1_555
C250 O63 1_555 1_555
C251 C252 1_555 1_555
C252 O64 1_555 1_555
C253 C254 1_555 1_555
C254 O65 1_555 1_555
C255 C256 1_555 1_555
C256 O66 1_555 1_555
C257 C258 1_555 1_555
C258 O61 1_555 1_555
O61 C247 1_555 1_555
O62 C249 1_555 1_555
O63 C251 1_555 1_555
O64 C253 1_555 1_555
O65 C255 1_555 1_555
O66 C257 1_555 1_555
C259 C260 1_555 1_555
C260 H154 1_555 1_555
C261 C260 1_555 1_555
C262 C261 1_555 1_555
H155 C262 1_555 1_555
C263 C262 1_555 1_555
C264 C259 1_555 1_555
H156 C264 1_555 1_555
C265 C263 1_555 1_555
C266 C265 1_555 1_555
H157 C266 1_555 1_555
C267 C266 1_555 1_555
H158 C267 1_555 1_555
C268 C267 1_555 1_555
C269 C268 1_555 1_555
H159 C269 1_555 1_555
C270 C265 1_555 1_555
H160 C270 1_555 1_555
C271 N46 1_555 1_555
C272 C273 1_555 1_555
C273 H161 1_555 1_555
C274 C273 1_555 1_555
H162 C274 1_555 1_555
C275 C274 1_555 1_555
H163 C275 1_555 1_555
C276 C275 1_555 1_555
H164 C276 1_555 1_555
C277 C272 1_555 1_555
C278 N48 1_555 1_555
C279 C280 1_555 1_555
C280 H165 1_555 1_555
C281 C280 1_555 1_555
H166 C281 1_555 1_555
C282 C281 1_555 1_555
C283 C282 1_555 1_555
H167 C283 1_555 1_555
C284 C279 1_555 1_555
H168 C284 1_555 1_555
C285 C259 1_555 1_555
C286 C285 1_555 1_555
H169 C286 1_555 1_555
C287 C286 1_555 1_555
H170 C287 1_555 1_555
C288 C287 1_555 1_555
C289 C288 1_555 1_555
H171 C289 1_555 1_555
C290 C285 1_555 1_555
H172 C290 1_555 1_555
C291 N51 1_555 1_555
C292 C293 1_555 1_555
C293 H173 1_555 1_555
C294 C293 1_555 1_555
H174 C294 1_555 1_555
C295 C294 1_555 1_555
H175 C295 1_555 1_555
C296 C295 1_555 1_555
H176 C296 1_555 1_555
C297 C292 1_555 1_555
C298 N53 1_555 1_555
C299 C300 1_555 1_555
C300 H177 1_555 1_555
C301 C300 1_555 1_555
H178 C301 1_555 1_555
C302 C301 1_555 1_555
C303 C302 1_555 1_555
H179 C303 1_555 1_555
C304 C299 1_555 1_555
H180 C304 1_555 1_555
C305 C261 1_555 1_555
C306 C305 1_555 1_555
H181 C306 1_555 1_555
C307 C306 1_555 1_555
H182 C307 1_555 1_555
C308 C307 1_555 1_555
C309 C308 1_555 1_555
H183 C309 1_555 1_555
C310 C305 1_555 1_555
H184 C310 1_555 1_555
C311 N56 1_555 1_555
C312 C313 1_555 1_555
C313 H185 1_555 1_555
C314 C313 1_555 1_555
H186 C314 1_555 1_555
C315 C314 1_555 1_555
H187 C315 1_555 1_555
C316 C315 1_555 1_555
H188 C316 1_555 1_555
C317 C312 1_555 1_555
C318 N58 1_555 1_555
C319 C320 1_555 1_555
C320 H189 1_555 1_555
C321 C320 1_555 1_555
H190 C321 1_555 1_555
C322 C321 1_555 1_555
C323 C322 1_555 1_555
H191 C323 1_555 1_555
C324 C319 1_555 1_555
H192 C324 1_555 1_555
N46 C268 1_555 1_555
H193 N46 1_555 1_555
N47 C271 1_555 1_555
H194 N47 1_555 1_555
N48 C277 1_555 1_555
H195 N48 1_555 1_555
N49 C278 1_555 1_555
H196 N49 1_555 1_555
N50 C282 1_555 1_555
N51 C288 1_555 1_555
H197 N51 1_555 1_555
N52 C291 1_555 1_555
H198 N52 1_555 1_555
N53 C297 1_555 1_555
H199 N53 1_555 1_555
N54 C298 1_555 1_555
H200 N54 1_555 1_555
N55 C302 1_555 1_555
N56 C308 1_555 1_555
H201 N56 1_555 1_555
N57 C311 1_555 1_555
H202 N57 1_555 1_555
N58 C317 1_555 1_555
H203 N58 1_555 1_555
N59 C318 1_555 1_555
H204 N59 1_555 1_555
N60 C322 1_555 1_555
O67 C271 1_555 1_555
O68 C278 1_555 1_555
O69 N50 1_555 1_555
O70 N50 1_555 1_555
O71 C291 1_555 1_555
O72 C298 1_555 1_555
O73 N55 1_555 1_555
O74 N55 1_555 1_555
O75 C311 1_555 1_555
O76 C318 1_555 1_555
O77 N60 1_555 1_555
O78 N60 1_555 1_555
O80 P1 1_555 1_555
O81 P1 1_555 1_555
O82 P1 1_555 1_555
O83 P1 1_555 1_555
O84 P2 1_555 1_555
O85 P2 1_555 1_555
O86 P2 1_555 1_555
O87 P2 1_555 1_555
O88 P3 1_555 1_555
O89 P3 1_555 1_555
O90 P3 1_555 1_555
O91 P3 1_555 1_555
O92 P4 1_555 1_555
O93 P4 1_555 1_555
O94 P4 1_555 1_555
O95 P4 1_555 1_555
As2 As4 1_555 1_555
As3 As4 1_555 1_555
C5 C6 1_555 1_555
C11 C12 1_555 1_555
C14 N2 1_555 1_555
C18 C19 1_555 1_555
C21 N4 1_555 1_555
C25 C26 1_555 1_555
C31 C32 1_555 1_555
C34 N7 1_555 1_555
C38 C39 1_555 1_555
C41 N9 1_555 1_555
C45 C46 1_555 1_555
C51 C52 1_555 1_555
C54 N12 1_555 1_555
C58 C59 1_555 1_555
C61 N14 1_555 1_555
C65 C66 1_555 1_555
C71 C72 1_555 1_555
C77 C78 1_555 1_555
C80 N17 1_555 1_555
C84 C85 1_555 1_555
C87 N19 1_555 1_555
C91 C92 1_555 1_555
C97 C98 1_555 1_555
C100 N22 1_555 1_555
C104 C105 1_555 1_555
C107 N24 1_555 1_555
C111 C112 1_555 1_555
C117 C118 1_555 1_555
C120 N27 1_555 1_555
C124 C125 1_555 1_555
C127 N29 1_555 1_555
C131 C132 1_555 1_555
C137 C138 1_555 1_555
C143 C144 1_555 1_555
C146 N32 1_555 1_555
C150 C151 1_555 1_555
C153 N34 1_555 1_555
C157 C158 1_555 1_555
C163 C164 1_555 1_555
C166 N37 1_555 1_555
C170 C171 1_555 1_555
C173 N39 1_555 1_555
C177 C178 1_555 1_555
C183 C184 1_555 1_555
C186 N42 1_555 1_555
C190 C191 1_555 1_555
C193 N44 1_555 1_555
C197 C198 1_555 1_555
C263 C264 1_555 1_555
C269 C270 1_555 1_555
C272 N47 1_555 1_555
C276 C277 1_555 1_555
C279 N49 1_555 1_555
C283 C284 1_555 1_555
C289 C290 1_555 1_555
C292 N52 1_555 1_555
C296 C297 1_555 1_555
C299 N54 1_555 1_555
C303 C304 1_555 1_555
C309 C310 1_555 1_555
C312 N57 1_555 1_555
C316 C317 1_555 1_555
C319 N59 1_555 1_555
C323 C324 1_555 1_555

#END
