
#######################################################################
#
#                 Cambridge Crystallographic Data Centre
#                                CCDC 
#
#######################################################################
#
# If this CIF has been generated from an entry in the Cambridge 
# Structural Database, then it will include bibliographic, chemical, 
# crystal, experimental, refinement or atomic coordinate data resulting 
# from the CCDC's data processing and validation procedures.
#
#######################################################################

data_LAWQOS
_chemical_compound_source        'Peganum harmala seeds'
_chemical_name_common            'Pegaharmine F'
_chemical_formula_moiety         'C17 H18 N2 O4'
_chemical_name_systematic        
'methyl (2-acetyl-7-methoxy-2,3,4,9-tetrahydro-1H-\b-carbolin-1-ylidene)acetate'
_chemical_properties_biological  
'tested for antiproliferative activity against HL-60, PC-3 and SGC-7901 cancer cell lines'
_symmetry_cell_setting           monoclinic
_symmetry_space_group_name_H-M   'P 21/c'
_symmetry_Int_Tables_number      14
_space_group_name_Hall           '-P 2ybc'
loop_
_symmetry_equiv_pos_site_id
_symmetry_equiv_pos_as_xyz
1 x,y,z
2 -x,1/2+y,1/2-z
3 -x,-y,-z
4 x,1/2-y,1/2+z
_cell_length_a                   7.6922(15)
_cell_length_b                   7.9904(16)
_cell_length_c                   24.276(5)
_cell_angle_alpha                90
_cell_angle_beta                 93.51(3)
_cell_angle_gamma                90
_cell_volume                     1489.3
_exptl_crystal_colour            'orange red'
_exptl_crystal_description       prism
_cell_formula_units_Z            4
loop_
_atom_site_label
_atom_site_type_symbol
_atom_site_fract_x
_atom_site_fract_y
_atom_site_fract_z
O1 O 0.92195(16) -0.15678(16) 0.79058(5)
O2 O -0.09522(14) 0.20532(16) 0.56822(5)
O3 O 0.21098(15) 0.29799(16) 0.45316(5)
O4 O 0.48371(14) 0.38046(15) 0.43930(5)
N1 N 0.61891(16) 0.08181(16) 0.62438(5)
H1 H 0.7038(18) 0.133(2) 0.6071(7)
N2 N 0.17781(15) 0.11540(17) 0.55546(5)
C1 C 0.44916(19) 0.05546(19) 0.60349(6)
C2 C 0.36298(18) 0.14018(19) 0.55653(6)
C3 C 0.1270(2) -0.0606(2) 0.56419(7)
H2 H 0.1815 -0.1333 0.5371
H3 H -0.0010 -0.0719 0.5585
C4 C 0.1855(2) -0.1159(2) 0.62276(7)
H4 H 0.1070 -0.0677 0.6494
H5 H 0.1797 -0.2394 0.6255
C5 C 0.36805(19) -0.05827(19) 0.63635(6)
C6 C 0.49210(19) -0.10289(19) 0.67981(6)
C7 C 0.4889(2) -0.2089(2) 0.72596(7)
H6 H 0.3870 -0.2711 0.7326
C8 C 0.6347(2) -0.2215(2) 0.76132(7)
H7 H 0.6336 -0.2932 0.7925
C9 C 0.7863(2) -0.1290(2) 0.75176(7)
C10 C 0.7952(2) -0.0231(2) 0.70720(7)
H8 H 0.8970 0.0400 0.7012
C11 C 0.64664(19) -0.01351(19) 0.67126(6)
C12 C 1.0739(2) -0.0580(3) 0.78682(8)
H9 H 1.1227 -0.0770 0.7510
H10 H 1.1600 -0.0893 0.8165
H11 H 1.0440 0.0605 0.7904
C13 C 0.44637(19) 0.22558(19) 0.51823(6)
H12 H 0.5690 0.2374 0.5240
C14 C 0.36356(19) 0.30175(19) 0.46836(7)
C15 C 0.4114(2) 0.4605(2) 0.38968(7)
H13 H 0.3517 0.3769 0.3658
H14 H 0.5054 0.5122 0.3701
H15 H 0.3282 0.5468 0.3995
C16 C 0.06035(19) 0.2398(2) 0.56417(6)
C17 C 0.1214(2) 0.4168(2) 0.57127(7)
H16 H 0.0254 0.4933 0.5608
H17 H 0.2182 0.4370 0.5477
H18 H 0.1605 0.4359 0.6099
loop_
_geom_bond_atom_site_label_1
_geom_bond_atom_site_label_2
_geom_bond_site_symmetry_1
_geom_bond_site_symmetry_2
O1 C9 1_555 1_555
O2 C16 1_555 1_555
O3 C14 1_555 1_555
O4 C14 1_555 1_555
N1 H1 1_555 1_555
N2 C2 1_555 1_555
C1 N1 1_555 1_555
C2 C1 1_555 1_555
C3 N2 1_555 1_555
H2 C3 1_555 1_555
H3 C3 1_555 1_555
C4 C3 1_555 1_555
H4 C4 1_555 1_555
H5 C4 1_555 1_555
C5 C1 1_555 1_555
C6 C5 1_555 1_555
C7 C6 1_555 1_555
H6 C7 1_555 1_555
C8 C7 1_555 1_555
H7 C8 1_555 1_555
C9 C8 1_555 1_555
C10 C9 1_555 1_555
H8 C10 1_555 1_555
C11 N1 1_555 1_555
C12 O1 1_555 1_555
H9 C12 1_555 1_555
H10 C12 1_555 1_555
H11 C12 1_555 1_555
C13 C2 1_555 1_555
H12 C13 1_555 1_555
C14 C13 1_555 1_555
C15 O4 1_555 1_555
H13 C15 1_555 1_555
H14 C15 1_555 1_555
H15 C15 1_555 1_555
C16 N2 1_555 1_555
C17 C16 1_555 1_555
H16 C17 1_555 1_555
H17 C17 1_555 1_555
H18 C17 1_555 1_555
C4 C5 1_555 1_555
C6 C11 1_555 1_555
C10 C11 1_555 1_555

#END
