
#######################################################################
#
#                 Cambridge Crystallographic Data Centre
#                                CCDC 
#
#######################################################################
#
# If this CIF has been generated from an entry in the Cambridge 
# Structural Database, then it will include bibliographic, chemical, 
# crystal, experimental, refinement or atomic coordinate data resulting 
# from the CCDC's data processing and validation procedures.
#
#######################################################################

data_LAWSOT
_chemical_compound_source        'taproots of Hortia oreadica'
_chemical_name_common            'Hortiolide C methanol solvate hemihydrate'
_chemical_formula_moiety         'C27 H32 O8,0.5(C1 H4 O1),0.5(H2 O1)'
_chemical_name_systematic        
"Methyl (3-(3-furyl)-6-hydroxy-2a,6b,10,10,11a-pentamethyl-5,9-dioxo-1,2,2a,3,5,6,9,10,11,11a-decahydropyrano[4'',3'':2',3']cyclopenta[1',2':2,3]-cyclopropa[1,2-b][1]benzofuran-11-yl)acetate methanol solvate hemihydrate"
_symmetry_cell_setting           monoclinic
_symmetry_space_group_name_H-M   'P 21'
_symmetry_Int_Tables_number      4
_space_group_name_Hall           'P 2yb'
loop_
_symmetry_equiv_pos_site_id
_symmetry_equiv_pos_as_xyz
1 x,y,z
2 -x,1/2+y,-z
_cell_length_a                   10.5190(6)
_cell_length_b                   22.442(2)
_cell_length_c                   11.1851(5)
_cell_angle_alpha                90
_cell_angle_beta                 105.321(4)
_cell_angle_gamma                90
_cell_volume                     2546.6
_exptl_crystal_colour            colorless
_exptl_crystal_description       plate
_cell_formula_units_Z            4
loop_
_atom_site_label
_atom_site_type_symbol
_atom_site_fract_x
_atom_site_fract_y
_atom_site_fract_z
O1 O 0.5329(5) 0.6409(2) 0.5937(5)
O2 O 0.1211(4) 0.55631(15) 0.4135(4)
O3 O 0.1497(4) 0.35142(15) 0.6130(3)
O4 O 0.2062(4) 0.41089(18) 0.7724(3)
O5 O 0.0174(4) 0.48472(19) 0.5983(4)
H1 H 0.0338 0.5027 0.6645
O6 O 0.1158(5) 0.17797(19) 0.4182(4)
O7 O 0.4561(3) 0.37130(16) 0.5929(3)
O8 O 0.6134(3) 0.34355(17) 0.5023(3)
C1 C 0.2531(5) 0.5575(2) 0.4401(5)
C2 C 0.3253(6) 0.5999(2) 0.5125(6)
H2 H 0.2833 0.6310 0.5415
C3 C 0.4652(7) 0.5974(3) 0.5453(6)
C4 C 0.5370(6) 0.5403(2) 0.5232(5)
C5 C 0.4383(5) 0.4872(2) 0.4772(4)
H3 H 0.4113 0.4738 0.5502
C6 C 0.5064(5) 0.4335(2) 0.4357(4)
H4 H 0.4564 0.4216 0.3533
H5 H 0.5935 0.4455 0.4306
C7 C 0.5198(5) 0.3812(2) 0.5202(4)
C8 C 0.0736(5) 0.5004(2) 0.3546(5)
C9 C 0.1944(5) 0.4642(2) 0.3522(4)
C10 C 0.3103(5) 0.5075(2) 0.3822(5)
C11 C 0.1748(5) 0.4153(2) 0.2546(4)
H6 H 0.1577 0.4324 0.1723
H7 H 0.2527 0.3904 0.2687
C12 C 0.0570(5) 0.3788(2) 0.2671(4)
H8 H 0.0700 0.3371 0.2512
H9 H -0.0226 0.3924 0.2078
C13 C 0.0443(5) 0.3870(2) 0.4014(5)
C14 C 0.1090(5) 0.4484(2) 0.4408(5)
C15 C 0.1367(5) 0.4611(2) 0.5793(5)
H10 H 0.2074 0.4907 0.6038
C16 C 0.1714(5) 0.4062(2) 0.6606(5)
C17 C 0.1337(5) 0.3410(2) 0.4804(4)
H11 H 0.2207 0.3448 0.4648
C18 C -0.0980(5) 0.3837(3) 0.4112(6)
H12 H -0.0983 0.3828 0.4969
H13 H -0.1391 0.3482 0.3707
H14 H -0.1460 0.4180 0.3720
C19 C 0.3276(5) 0.5295(2) 0.2566(4)
H15 H 0.3798 0.5652 0.2692
H16 H 0.2427 0.5376 0.2014
H17 H 0.3711 0.4993 0.2212
C20 C 0.0929(6) 0.2762(2) 0.4612(5)
C21 C 0.1680(7) 0.2327(2) 0.4252(5)
H18 H 0.2479 0.2407 0.4075
C22 C -0.0193(6) 0.2462(3) 0.4754(6)
H19 H -0.0890 0.2627 0.5008
C23 C -0.0064(8) 0.1886(3) 0.4448(7)
H20 H -0.0702 0.1595 0.4417
C24 C 0.6270(7) 0.5227(3) 0.6496(6)
H21 H 0.5748 0.5163 0.7070
H22 H 0.6894 0.5540 0.6797
H23 H 0.6732 0.4867 0.6412
C25 C 0.6297(6) 0.5568(3) 0.4399(6)
H24 H 0.6920 0.5253 0.4428
H25 H 0.6760 0.5930 0.4697
H26 H 0.5781 0.5624 0.3560
C26 C -0.0522(5) 0.5119(3) 0.2557(6)
H27 H -0.0355 0.5396 0.1962
H28 H -0.1169 0.5283 0.2929
H29 H -0.0844 0.4751 0.2149
C27 C 0.6229(6) 0.2873(3) 0.5677(6)
H30 H 0.5362 0.2712 0.5578
H31 H 0.6641 0.2936 0.6541
H32 H 0.6747 0.2599 0.5343
O9 O -0.0138(4) 0.08814(17) 1.0093(4)
O10 O 0.4167(3) 0.13767(16) 1.0057(5)
O11 O 0.4360(3) 0.34685(13) 1.1753(3)
O12 O 0.3784(4) 0.29464(19) 1.3174(3)
O13 O 0.5456(3) 0.20920(16) 1.2421(4)
H33 H 0.5297 0.2027 1.3089
O14 O 0.5126(8) 0.5092(2) 0.9893(5)
O15 O 0.0880(5) 0.35165(17) 0.9975(4)
O16 O -0.0708(5) 0.3601(3) 0.8220(5)
C28 C 0.2848(4) 0.1461(2) 0.9776(5)
C29 C 0.2064(5) 0.1119(2) 1.0249(5)
H34 H 0.2406 0.0804 1.0776
C30 C 0.0666(5) 0.1251(2) 0.9919(4)
C31 C 0.0179(4) 0.1872(2) 0.9444(4)
C32 C 0.1301(4) 0.2288(2) 0.9251(4)
H35 H 0.1698 0.2470 1.0061
C33 C 0.0763(5) 0.2811(2) 0.8363(4)
H36 H 0.1440 0.2935 0.7972
H37 H 0.0016 0.2670 0.7715
C34 C 0.0347(5) 0.3332(2) 0.8960(5)
C35 C 0.4797(5) 0.1885(3) 0.9665(6)
C36 C 0.3713(5) 0.2308(2) 0.9062(5)
C37 C 0.2422(4) 0.1954(2) 0.8894(5)
C38 C 0.4012(6) 0.2752(3) 0.8130(5)
H38 H 0.3305 0.3040 0.7875
H39 H 0.4124 0.2547 0.7402
C39 C 0.5301(6) 0.3060(3) 0.8828(5)
H40 H 0.5293 0.3475 0.8582
H41 H 0.6051 0.2865 0.8645
C40 C 0.5390(4) 0.3012(2) 1.0224(4)
C41 C 0.4630(4) 0.2440(2) 1.0367(5)
C42 C 0.4341(4) 0.2365(2) 1.1599(4)
H42 H 0.3569 0.2106 1.1506
C43 C 0.4114(4) 0.2949(2) 1.2217(4)
C44 C 0.4537(5) 0.3514(2) 1.0513(4)
H43 H 0.3667 0.3488 0.9920
C45 C 0.6794(5) 0.3030(3) 1.1052(6)
H44 H 0.7239 0.2667 1.0956
H45 H 0.6774 0.3072 1.1901
H46 H 0.7254 0.3362 1.0821
C46 C 0.2037(5) 0.1713(3) 0.7552(5)
H47 H 0.1266 0.1468 0.7429
H48 H 0.2751 0.1481 0.7411
H49 H 0.1856 0.2041 0.6981
C47 C 0.5042(6) 0.4133(2) 1.0467(5)
C48 C 0.4537(14) 0.4545(4) 0.9613(9)
H50 H 0.3861 0.4470 0.8904
C49 C 0.6071(5) 0.4431(2) 1.1322(5)
H51 H 0.6608 0.4270 1.2047
C50 C 0.6141(7) 0.4988(3) 1.0908(5)
H52 H 0.6791 0.5263 1.1265
C51 C -0.0375(5) 0.2144(2) 1.0467(5)
H53 H 0.0329 0.2202 1.1204
H54 H -0.1020 0.1880 1.0644
H55 H -0.0779 0.2521 1.0192
C52 C -0.0979(5) 0.1787(3) 0.8264(5)
H56 H -0.1556 0.1480 0.8409
H57 H -0.0637 0.1675 0.7581
H58 H -0.1460 0.2154 0.8072
C53 C 0.5941(6) 0.1676(4) 0.9203(10)
H59 H 0.5617 0.1473 0.8427
H60 H 0.6478 0.1409 0.9798
H61 H 0.6459 0.2013 0.9089
C54 C -0.1044(16) 0.4179(6) 0.8720(13)
H62 H -0.0250 0.4372 0.9177
H63 H -0.1603 0.4107 0.9258
H64 H -0.1495 0.4430 0.8046
O17 O 0.6516(7) 0.0946(3) 0.1886(6)
O18 O 0.9137(7) 0.0680(3) 0.2327(6)
H65 H 0.9122 0.0561 0.3017
C55 C 0.842(2) 0.0265(9) 0.1392(14)
H66 H 0.7944 -0.0012 0.1762
H67 H 0.9036 0.0051 0.1050
H68 H 0.7818 0.0481 0.0744
loop_
_geom_bond_atom_site_label_1
_geom_bond_atom_site_label_2
_geom_bond_site_symmetry_1
_geom_bond_site_symmetry_2
O1 C3 1_555 1_555
O2 C1 1_555 1_555
O3 C16 1_555 1_555
O4 C16 1_555 1_555
O5 H1 1_555 1_555
O6 C21 1_555 1_555
O7 C7 1_555 1_555
O8 C7 1_555 1_555
C1 C2 1_555 1_555
C2 H2 1_555 1_555
C3 C2 1_555 1_555
C4 C3 1_555 1_555
C5 C4 1_555 1_555
H3 C5 1_555 1_555
C6 C5 1_555 1_555
H4 C6 1_555 1_555
H5 C6 1_555 1_555
C7 C6 1_555 1_555
C8 O2 1_555 1_555
C9 C8 1_555 1_555
C10 C1 1_555 1_555
C11 C9 1_555 1_555
H6 C11 1_555 1_555
H7 C11 1_555 1_555
C12 C11 1_555 1_555
H8 C12 1_555 1_555
H9 C12 1_555 1_555
C13 C12 1_555 1_555
C14 C8 1_555 1_555
C15 O5 1_555 1_555
H10 C15 1_555 1_555
C16 C15 1_555 1_555
C17 O3 1_555 1_555
H11 C17 1_555 1_555
C18 C13 1_555 1_555
H12 C18 1_555 1_555
H13 C18 1_555 1_555
H14 C18 1_555 1_555
C19 C10 1_555 1_555
H15 C19 1_555 1_555
H16 C19 1_555 1_555
H17 C19 1_555 1_555
C20 C17 1_555 1_555
C21 C20 1_555 1_555
H18 C21 1_555 1_555
C22 C20 1_555 1_555
H19 C22 1_555 1_555
C23 O6 1_555 1_555
H20 C23 1_555 1_555
C24 C4 1_555 1_555
H21 C24 1_555 1_555
H22 C24 1_555 1_555
H23 C24 1_555 1_555
C25 C4 1_555 1_555
H24 C25 1_555 1_555
H25 C25 1_555 1_555
H26 C25 1_555 1_555
C26 C8 1_555 1_555
H27 C26 1_555 1_555
H28 C26 1_555 1_555
H29 C26 1_555 1_555
C27 O8 1_555 1_555
H30 C27 1_555 1_555
H31 C27 1_555 1_555
H32 C27 1_555 1_555
O9 C30 1_555 1_555
O10 C28 1_555 1_555
O11 C43 1_555 1_555
O12 C43 1_555 1_555
O13 H33 1_555 1_555
O14 C48 1_555 1_555
O15 C34 1_555 1_555
O16 C34 1_555 1_555
C28 C29 1_555 1_555
C29 H34 1_555 1_555
C30 C29 1_555 1_555
C31 C30 1_555 1_555
C32 C31 1_555 1_555
H35 C32 1_555 1_555
C33 C32 1_555 1_555
H36 C33 1_555 1_555
H37 C33 1_555 1_555
C34 C33 1_555 1_555
C35 O10 1_555 1_555
C36 C35 1_555 1_555
C37 C28 1_555 1_555
C38 C36 1_555 1_555
H38 C38 1_555 1_555
H39 C38 1_555 1_555
C39 C38 1_555 1_555
H40 C39 1_555 1_555
H41 C39 1_555 1_555
C40 C39 1_555 1_555
C41 C35 1_555 1_555
C42 O13 1_555 1_555
H42 C42 1_555 1_555
C43 C42 1_555 1_555
C44 O11 1_555 1_555
H43 C44 1_555 1_555
C45 C40 1_555 1_555
H44 C45 1_555 1_555
H45 C45 1_555 1_555
H46 C45 1_555 1_555
C46 C37 1_555 1_555
H47 C46 1_555 1_555
H48 C46 1_555 1_555
H49 C46 1_555 1_555
C47 C44 1_555 1_555
C48 C47 1_555 1_555
H50 C48 1_555 1_555
C49 C47 1_555 1_555
H51 C49 1_555 1_555
C50 O14 1_555 1_555
H52 C50 1_555 1_555
C51 C31 1_555 1_555
H53 C51 1_555 1_555
H54 C51 1_555 1_555
H55 C51 1_555 1_555
C52 C31 1_555 1_555
H56 C52 1_555 1_555
H57 C52 1_555 1_555
H58 C52 1_555 1_555
C53 C35 1_555 1_555
H59 C53 1_555 1_555
H60 C53 1_555 1_555
H61 C53 1_555 1_555
C54 O16 1_555 1_555
H62 C54 1_555 1_555
H63 C54 1_555 1_555
H64 C54 1_555 1_555
O18 H65 1_555 1_555
C55 O18 1_555 1_555
H66 C55 1_555 1_555
H67 C55 1_555 1_555
H68 C55 1_555 1_555
C5 C10 1_555 1_555
C9 C10 1_555 1_555
C9 C14 1_555 1_555
C13 C14 1_555 1_555
C13 C17 1_555 1_555
C14 C15 1_555 1_555
C22 C23 1_555 1_555
C32 C37 1_555 1_555
C36 C37 1_555 1_555
C36 C41 1_555 1_555
C40 C41 1_555 1_555
C40 C44 1_555 1_555
C41 C42 1_555 1_555
C49 C50 1_555 1_555

#END
