
#######################################################################
#
#                 Cambridge Crystallographic Data Centre
#                                CCDC 
#
#######################################################################
#
# If this CIF has been generated from an entry in the Cambridge 
# Structural Database, then it will include bibliographic, chemical, 
# crystal, experimental, refinement or atomic coordinate data resulting 
# from the CCDC's data processing and validation procedures.
#
#######################################################################

data_LAWSOS
_chemical_name_common            
'bis(2-Carboxybenzene-1-carboxylato)-bis(hydrogen 1-cyclopropyl-6-fluoro-1,4-dihydro-4-oxo-7-(1-piperazinyl)-3-quinolinecarboxylato)-calcium(ii) dihydrate'
_chemical_formula_moiety         'C50 H46 Ca1 F2 N6 O14,2(H2 O1)'
_chemical_name_systematic        
'bis(2-Carboxybenzene-1-carboxylato)-bis(hydrogen ciprofloxacin)-calcium(ii) dihydrate'
_symmetry_cell_setting           monoclinic
_symmetry_space_group_name_H-M   'P 21/n'
_symmetry_Int_Tables_number      14
_space_group_name_Hall           '-P 2yn'
loop_
_symmetry_equiv_pos_site_id
_symmetry_equiv_pos_as_xyz
1 x,y,z
2 1/2-x,1/2+y,1/2-z
3 -x,-y,-z
4 1/2+x,1/2-y,1/2+z
_cell_length_a                   9.5003(19)
_cell_length_b                   22.112(4)
_cell_length_c                   11.869(2)
_cell_angle_alpha                90
_cell_angle_beta                 99.30(3)
_cell_angle_gamma                90
_cell_volume                     2460.56
_exptl_crystal_colour            colorless
_exptl_crystal_description       block
_cell_formula_units_Z            2
loop_
_atom_site_label
_atom_site_type_symbol
_atom_site_fract_x
_atom_site_fract_y
_atom_site_fract_z
Ca1 Ca 0.5000 0.0000 0.5000
F1 F 0.87120(11) -0.02967(5) 1.05401(10)
O1 O 0.14015(14) 0.09084(8) 0.62456(12)
O3 O 0.29080(13) 0.03617(6) 0.54538(11)
O4 O 0.52844(14) -0.00536(6) 0.69762(11)
O5 O 0.58151(16) 0.09859(7) 0.50971(14)
O6 O 0.4900(2) 0.18810(8) 0.52277(18)
O7 O 0.5825(3) 0.28645(9) 0.8346(2)
O8 O 0.4861(3) 0.26601(10) 0.6607(3)
H3 H 0.481(4) 0.2385(14) 0.606(3)
N1 N 1.02149(16) 0.10053(7) 1.40046(13)
H4 H 1.049(2) 0.1375(10) 1.380(2)
H5 H 1.065(3) 0.0948(11) 1.475(2)
N2 N 0.82700(14) 0.06372(7) 1.20230(12)
N3 N 0.41468(14) 0.12120(6) 0.91953(12)
C1 C 0.25741(17) 0.06534(8) 0.62794(15)
C2 C 0.36336(16) 0.07005(8) 0.73784(14)
C3 C 0.48762(16) 0.03287(7) 0.76385(13)
C4 C 0.57021(16) 0.04168(7) 0.87740(14)
C5 C 0.68763(17) 0.00382(7) 0.91413(14)
H6 H 0.7116 -0.0264 0.8661
C6 C 0.76583(17) 0.01120(7) 1.01905(15)
C7 C 0.74014(16) 0.05786(7) 1.09571(14)
C8 C 0.62178(17) 0.09418(8) 1.06059(15)
H7 H 0.5988 0.1246 1.1086
C9 C 0.53611(16) 0.08565(7) 0.95323(14)
C10 C 0.33325(17) 0.11112(8) 0.81718(15)
H8 H 0.2502 0.1338 0.7990
C11 C 0.3640(2) 0.16205(9) 1.00126(17)
H9 H 0.3212 0.1421 1.0613
C12 C 0.4385(3) 0.21968(11) 1.0353(2)
H10 H 0.5220 0.2295 1.0014
H11 H 0.4425 0.2330 1.1137
C13 C 0.2963(3) 0.22034(11) 0.9594(2)
H12 H 0.2145 0.2340 0.9918
H13 H 0.2939 0.2305 0.8795
C14 C 0.98228(17) 0.06721(9) 1.20142(16)
H14 H 1.0069 0.1071 1.1768
H15 H 1.0094 0.0377 1.1484
C15 C 1.06145(19) 0.05474(9) 1.32049(17)
H16 H 1.0375 0.0147 1.3447
H17 H 1.1635 0.0562 1.3204
C16 C 0.86545(18) 0.09972(9) 1.40009(15)
H18 H 0.8405 0.1317 1.4492
H19 H 0.8388 0.0614 1.4305
C17 C 0.78274(18) 0.10833(9) 1.28055(15)
H20 H 0.6815 0.1041 1.2821
H21 H 0.7994 0.1488 1.2538
C18 C 0.5761(3) 0.25461(9) 0.7501(2)
C19 C 0.6793(2) 0.20264(8) 0.75283(18)
C20 C 0.7845(3) 0.20199(12) 0.8497(2)
H22 H 0.7836 0.2319 0.9047
C21 C 0.8905(3) 0.15805(14) 0.8666(2)
H23 H 0.9590 0.1584 0.9322
C22 C 0.8928(2) 0.11434(12) 0.7855(2)
H24 H 0.9652 0.0856 0.7942
C23 C 0.7881(2) 0.11290(9) 0.69127(19)
H25 H 0.7894 0.0819 0.6384
C24 C 0.67983(18) 0.15611(7) 0.67156(16)
C25 C 0.5763(2) 0.14661(8) 0.56130(18)
F1B F 0.12880(11) 0.02967(5) -0.05401(10)
O1B O 0.85985(14) -0.09084(8) 0.37544(12)
O3B O 0.70920(13) -0.03617(6) 0.45462(11)
O4B O 0.47156(14) 0.00536(6) 0.30238(11)
O5B O 0.41849(16) -0.09859(7) 0.49029(14)
O6B O 0.5100(2) -0.18810(8) 0.47723(18)
O7B O 0.4175(3) -0.28645(9) 0.1654(2)
O8B O 0.5139(3) -0.26601(10) 0.3393(3)
H3B H 0.519(4) -0.2385(14) 0.394(3)
N1B N -0.02149(16) -0.10053(7) -0.40046(13)
H4B H -0.049(2) -0.1375(10) -0.380(2)
H5B H -0.065(3) -0.0948(11) -0.475(2)
N2B N 0.17300(14) -0.06372(7) -0.20230(12)
N3B N 0.58532(14) -0.12120(6) 0.08047(12)
C1B C 0.74259(17) -0.06534(8) 0.37206(15)
C2B C 0.63664(16) -0.07005(8) 0.26216(14)
C3B C 0.51238(16) -0.03287(7) 0.23615(13)
C4B C 0.42979(16) -0.04168(7) 0.12260(14)
C5B C 0.31237(17) -0.00382(7) 0.08587(14)
H6B H 0.2884 0.0264 0.1339
C6B C 0.23417(17) -0.01120(7) -0.01905(15)
C7B C 0.25986(16) -0.05786(7) -0.09571(14)
C8B C 0.37822(17) -0.09418(8) -0.06059(15)
H7B H 0.4012 -0.1246 -0.1086
C9B C 0.46389(16) -0.08565(7) 0.04677(14)
C10B C 0.66675(17) -0.11112(8) 0.18282(15)
H8B H 0.7498 -0.1338 0.2010
C11B C 0.6360(2) -0.16205(9) -0.00126(17)
H9B H 0.6788 -0.1421 -0.0613
C12B C 0.5615(3) -0.21968(11) -0.0353(2)
H10B H 0.4780 -0.2295 -0.0014
H11B H 0.5575 -0.2330 -0.1137
C13B C 0.7037(3) -0.22034(11) 0.0406(2)
H12B H 0.7855 -0.2340 0.0082
H13B H 0.7061 -0.2305 0.1205
C14B C 0.01772(17) -0.06721(9) -0.20142(16)
H14B H -0.0069 -0.1071 -0.1768
H15B H -0.0094 -0.0377 -0.1484
C15B C -0.06145(19) -0.05474(9) -0.32049(17)
H16B H -0.0375 -0.0147 -0.3447
H17B H -0.1635 -0.0562 -0.3204
C16B C 0.13455(18) -0.09972(9) -0.40009(15)
H18B H 0.1595 -0.1317 -0.4492
H19B H 0.1612 -0.0614 -0.4305
C17B C 0.21726(18) -0.10833(9) -0.28055(15)
H20B H 0.3185 -0.1041 -0.2821
H21B H 0.2006 -0.1488 -0.2538
C18B C 0.4239(3) -0.25461(9) 0.2499(2)
C19B C 0.3207(2) -0.20264(8) 0.24717(18)
C20B C 0.2155(3) -0.20199(12) 0.1503(2)
H22B H 0.2164 -0.2319 0.0953
C21B C 0.1095(3) -0.15805(14) 0.1334(2)
H23B H 0.0410 -0.1584 0.0678
C22B C 0.1072(2) -0.11434(12) 0.2145(2)
H24B H 0.0348 -0.0856 0.2058
C23B C 0.2119(2) -0.11290(9) 0.30873(19)
H25B H 0.2106 -0.0819 0.3616
C24B C 0.32017(18) -0.15611(7) 0.32844(16)
C25B C 0.4237(2) -0.14661(8) 0.43870(18)
O2 O 0.3717(3) 0.13418(12) 0.2791(2)
H1 H 0.423(7) 0.158(3) 0.325(5)
H2 H 0.409(5) 0.1020(13) 0.309(4)
loop_
_geom_bond_atom_site_label_1
_geom_bond_atom_site_label_2
_geom_bond_site_symmetry_1
_geom_bond_site_symmetry_2
Ca1 O3 1_555 1_555
F1 C6 1_555 1_555
O1 C1 1_555 1_555
O2 H1 1_555 1_555
H2 O2 1_555 1_555
O3 C1 1_555 1_555
O4 Ca1 1_555 1_555
O5 Ca1 1_555 1_555
O6 C25 1_555 1_555
O7 C18 1_555 1_555
O8 H3 1_555 1_555
N1 H4 1_555 1_555
H5 N1 1_555 1_555
N2 C7 1_555 1_555
N3 C9 1_555 1_555
C1 C2 1_555 1_555
C2 C3 1_555 1_555
C3 O4 1_555 1_555
C4 C3 1_555 1_555
C5 C4 1_555 1_555
H6 C5 1_555 1_555
C6 C5 1_555 1_555
C7 C6 1_555 1_555
C8 C7 1_555 1_555
H7 C8 1_555 1_555
C9 C4 1_555 1_555
C10 N3 1_555 1_555
H8 C10 1_555 1_555
C11 N3 1_555 1_555
H9 C11 1_555 1_555
C12 C11 1_555 1_555
H10 C12 1_555 1_555
H11 C12 1_555 1_555
C13 C11 1_555 1_555
H12 C13 1_555 1_555
H13 C13 1_555 1_555
C14 N2 1_555 1_555
H14 C14 1_555 1_555
H15 C14 1_555 1_555
C15 N1 1_555 1_555
H16 C15 1_555 1_555
H17 C15 1_555 1_555
C16 N1 1_555 1_555
H18 C16 1_555 1_555
H19 C16 1_555 1_555
C17 N2 1_555 1_555
H20 C17 1_555 1_555
H21 C17 1_555 1_555
C18 O8 1_555 1_555
C19 C18 1_555 1_555
C20 C19 1_555 1_555
H22 C20 1_555 1_555
C21 C20 1_555 1_555
H23 C21 1_555 1_555
C22 C21 1_555 1_555
H24 C22 1_555 1_555
C23 C22 1_555 1_555
H25 C23 1_555 1_555
C24 C19 1_555 1_555
C25 O5 1_555 1_555
F1B C6B 1_555 1_555
O1B C1B 1_555 1_555
O3B Ca1 1_555 1_555
O4B Ca1 1_555 1_555
O5B Ca1 1_555 1_555
O6B C25B 1_555 1_555
O7B C18B 1_555 1_555
O8B H3B 1_555 1_555
N1B H4B 1_555 1_555
H5B N1B 1_555 1_555
N2B C7B 1_555 1_555
N3B C9B 1_555 1_555
C1B O3B 1_555 1_555
C2B C1B 1_555 1_555
C3B O4B 1_555 1_555
C4B C3B 1_555 1_555
C5B C4B 1_555 1_555
H6B C5B 1_555 1_555
C6B C5B 1_555 1_555
C7B C6B 1_555 1_555
C8B C7B 1_555 1_555
H7B C8B 1_555 1_555
C9B C4B 1_555 1_555
C10B N3B 1_555 1_555
H8B C10B 1_555 1_555
C11B N3B 1_555 1_555
H9B C11B 1_555 1_555
C12B C11B 1_555 1_555
H10B C12B 1_555 1_555
H11B C12B 1_555 1_555
C13B C11B 1_555 1_555
H12B C13B 1_555 1_555
H13B C13B 1_555 1_555
C14B N2B 1_555 1_555
H14B C14B 1_555 1_555
H15B C14B 1_555 1_555
C15B N1B 1_555 1_555
H16B C15B 1_555 1_555
H17B C15B 1_555 1_555
C16B N1B 1_555 1_555
H18B C16B 1_555 1_555
H19B C16B 1_555 1_555
C17B N2B 1_555 1_555
H20B C17B 1_555 1_555
H21B C17B 1_555 1_555
C18B O8B 1_555 1_555
C19B C18B 1_555 1_555
C20B C19B 1_555 1_555
H22B C20B 1_555 1_555
C21B C20B 1_555 1_555
H23B C21B 1_555 1_555
C22B C21B 1_555 1_555
H24B C22B 1_555 1_555
C23B C22B 1_555 1_555
H25B C23B 1_555 1_555
C24B C19B 1_555 1_555
C25B O5B 1_555 1_555
C2 C10 1_555 1_555
C8 C9 1_555 1_555
C12 C13 1_555 1_555
C14 C15 1_555 1_555
C16 C17 1_555 1_555
C23 C24 1_555 1_555
C24 C25 1_555 1_555
C2B C3B 1_555 1_555
C2B C10B 1_555 1_555
C8B C9B 1_555 1_555
C12B C13B 1_555 1_555
C14B C15B 1_555 1_555
C16B C17B 1_555 1_555
C23B C24B 1_555 1_555
C24B C25B 1_555 1_555

#END
