
#######################################################################
#
#                 Cambridge Crystallographic Data Centre
#                                CCDC 
#
#######################################################################
#
# If this CIF has been generated from an entry in the Cambridge 
# Structural Database, then it will include bibliographic, chemical, 
# crystal, experimental, refinement or atomic coordinate data resulting 
# from the CCDC's data processing and validation procedures.
#
#######################################################################

data_LAWWIR
_chemical_compound_source        
'Centipeda minima, whole plant (supercritical fluid extraction)'
_chemical_name_common            'Minimolide A'
_chemical_formula_moiety         'C20 H28 O6'
_chemical_name_systematic        
'7-Hydroxy-3,4a,8-trimethyl-2,5-dioxododecahydroazuleno[6,5-b]furan-4-yl 2-methylbut-2-enoate'
_chemical_properties_biological  
'Inhibitory activity against human nasopharyngeal cancer cells (CNE) with IC50 value 20.3  5.2 M. Paper mentions related compounds with comparable inhibitory activity to that of cisplatin.'
_symmetry_cell_setting           monoclinic
_symmetry_space_group_name_H-M   'C 2'
_symmetry_Int_Tables_number      5
_space_group_name_Hall           'C 2y'
loop_
_symmetry_equiv_pos_site_id
_symmetry_equiv_pos_as_xyz
1 x,y,z
2 -x,y,-z
3 1/2+x,1/2+y,z
4 1/2-x,1/2+y,-z
_cell_length_a                   24.517(3)
_cell_length_b                   7.8966(9)
_cell_length_c                   10.0262(9)
_cell_angle_alpha                90
_cell_angle_beta                 91.618(9)
_cell_angle_gamma                90
_cell_volume                     1940.31
_exptl_crystal_colour            colorless
_exptl_crystal_description       block
_cell_formula_units_Z            4
_exptl_crystal_recrystallization_method methanol
loop_
_atom_site_label
_atom_site_type_symbol
_atom_site_fract_x
_atom_site_fract_y
_atom_site_fract_z
O1 O 0.50154(8) 0.2679(4) 0.7887(3)
H1 H 0.5271 0.3348 0.7906
O2 O 0.34148(8) 0.0815(3) 0.74861(19)
O3 O 0.39660(7) 0.4336(3) 0.22216(17)
O4 O 0.40915(6) 0.6059(3) 0.39760(16)
O5 O 0.30631(6) 0.4618(3) 0.74107(15)
O6 O 0.22402(7) 0.3883(3) 0.65572(17)
C1 C 0.42135(9) 0.4579(4) 0.7559(2)
H2 H 0.3950 0.5136 0.8132
C2 C 0.45566(10) 0.3433(5) 0.8501(3)
H3 H 0.4670 0.4045 0.9313
C3 C 0.41632(12) 0.2006(6) 0.8821(3)
H4 H 0.4359 0.0948 0.8945
H5 H 0.3971 0.2258 0.9630
C4 C 0.37660(10) 0.1881(4) 0.7644(3)
C5 C 0.38719(9) 0.3351(4) 0.6677(2)
C6 C 0.33174(9) 0.4052(4) 0.6183(2)
H6 H 0.3102 0.3104 0.5822
C7 C 0.32822(9) 0.5507(4) 0.5165(2)
H7 H 0.2959 0.6174 0.5379
C8 C 0.37561(9) 0.6767(4) 0.5040(2)
H8 H 0.3595 0.7812 0.4678
C9 C 0.41236(10) 0.7296(4) 0.6217(3)
H9 H 0.3889 0.7723 0.6903
H10 H 0.4341 0.8244 0.5924
C10 C 0.45185(9) 0.6015(4) 0.6893(2)
H11 H 0.4756 0.5539 0.6218
C11 C 0.32108(9) 0.4966(4) 0.3683(2)
H12 H 0.3011 0.5889 0.3234
C12 C 0.37839(10) 0.5045(4) 0.3188(2)
C13 C 0.29032(11) 0.3355(4) 0.3322(3)
H13 H 0.2897 0.3205 0.2371
H14 H 0.2536 0.3436 0.3623
H15 H 0.3081 0.2405 0.3742
C14 C 0.48681(11) 0.7015(5) 0.7915(3)
H16 H 0.5122 0.6264 0.8357
H17 H 0.4636 0.7519 0.8561
H18 H 0.5064 0.7888 0.7465
C15 C 0.41850(10) 0.2528(4) 0.5529(3)
H19 H 0.4530 0.2111 0.5866
H20 H 0.4245 0.3356 0.4847
H21 H 0.3975 0.1606 0.5160
C16 C 0.25201(9) 0.4392(4) 0.7494(2)
C17 C 0.23317(10) 0.4846(4) 0.8848(2)
C18 C 0.18099(12) 0.4800(5) 0.9148(3)
H22 H 0.1740 0.5071 1.0029
C19 C 0.13149(12) 0.4387(7) 0.8309(4)
H23 H 0.0997 0.4466 0.8842
H24 H 0.1346 0.3257 0.7966
H25 H 0.1284 0.5173 0.7580
C20 C 0.27687(12) 0.5375(6) 0.9860(3)
H26 H 0.2603 0.5640 1.0691
H27 H 0.2956 0.6356 0.9538
H28 H 0.3024 0.4466 0.9992
loop_
_geom_bond_atom_site_label_1
_geom_bond_atom_site_label_2
_geom_bond_site_symmetry_1
_geom_bond_site_symmetry_2
O1 H1 1_555 1_555
O2 C4 1_555 1_555
O3 C12 1_555 1_555
O4 C8 1_555 1_555
O5 C6 1_555 1_555
O6 C16 1_555 1_555
C1 H2 1_555 1_555
C2 O1 1_555 1_555
H3 C2 1_555 1_555
C3 C2 1_555 1_555
H4 C3 1_555 1_555
H5 C3 1_555 1_555
C4 C3 1_555 1_555
C5 C1 1_555 1_555
C6 C5 1_555 1_555
H6 C6 1_555 1_555
C7 C6 1_555 1_555
H7 C7 1_555 1_555
C8 C7 1_555 1_555
H8 C8 1_555 1_555
C9 C8 1_555 1_555
H9 C9 1_555 1_555
H10 C9 1_555 1_555
C10 C1 1_555 1_555
H11 C10 1_555 1_555
C11 C7 1_555 1_555
H12 C11 1_555 1_555
C12 O4 1_555 1_555
C13 C11 1_555 1_555
H13 C13 1_555 1_555
H14 C13 1_555 1_555
H15 C13 1_555 1_555
C14 C10 1_555 1_555
H16 C14 1_555 1_555
H17 C14 1_555 1_555
H18 C14 1_555 1_555
C15 C5 1_555 1_555
H19 C15 1_555 1_555
H20 C15 1_555 1_555
H21 C15 1_555 1_555
C16 O5 1_555 1_555
C17 C16 1_555 1_555
C18 C17 1_555 1_555
H22 C18 1_555 1_555
C19 C18 1_555 1_555
H23 C19 1_555 1_555
H24 C19 1_555 1_555
H25 C19 1_555 1_555
C20 C17 1_555 1_555
H26 C20 1_555 1_555
H27 C20 1_555 1_555
H28 C20 1_555 1_555
C1 C2 1_555 1_555
C4 C5 1_555 1_555
C9 C10 1_555 1_555
C11 C12 1_555 1_555

#END
