
#######################################################################
#
#                 Cambridge Crystallographic Data Centre
#                                CCDC 
#
#######################################################################
#
# If this CIF has been generated from an entry in the Cambridge 
# Structural Database, then it will include bibliographic, chemical, 
# crystal, experimental, refinement or atomic coordinate data resulting 
# from the CCDC's data processing and validation procedures.
#
#######################################################################

data_LAWWAK
_chemical_formula_moiety         'C29 H18 F6 N2 O1'
_chemical_name_systematic        
2-{1-[3,5-bis(trifluoromethyl)phenyl]-4,5-diphenyl-1H-imidazol-2-yl}phenol
_symmetry_cell_setting           triclinic
_symmetry_space_group_name_H-M   'P -1'
_symmetry_Int_Tables_number      2
_space_group_name_Hall           '-P 1'
loop_
_symmetry_equiv_pos_site_id
_symmetry_equiv_pos_as_xyz
1 x,y,z
2 -x,-y,-z
_cell_length_a                   8.7109(5)
_cell_length_b                   11.2803(6)
_cell_length_c                   13.2037(7)
_cell_angle_alpha                68.693(2)
_cell_angle_beta                 81.786(2)
_cell_angle_gamma                75.238(2)
_cell_volume                     1167.01
_exptl_crystal_colour            colorless
_exptl_crystal_description       BLOCK
_cell_formula_units_Z            2
_exptl_crystal_recrystallization_method 'ethyl acetate'
_exptl_crystal_preparation       ', Luminescent'
loop_
_atom_site_label
_atom_site_type_symbol
_atom_site_fract_x
_atom_site_fract_y
_atom_site_fract_z
F1 F 0.7899(2) 0.99641(17) -0.49225(12)
F2 F 0.77054(19) 1.13827(15) -0.41854(14)
F3 F 0.88569(17) 0.94453(19) -0.34080(15)
F4 F 0.21832(19) 0.75294(17) -0.30014(19)
F5 F 0.4324(3) 0.6992(2) -0.37956(19)
F6 F 0.4133(3) 0.63059(16) -0.2109(2)
O1 O 0.06283(17) 0.97841(16) 0.14161(13)
N1 N 0.14285(17) 1.16008(14) -0.03130(12)
N2 N 0.28358(16) 1.10344(14) -0.16577(12)
C1 C 0.24279(19) 1.06343(17) -0.05617(14)
C2 C 0.2044(2) 1.23350(16) -0.21116(15)
C3 C 0.1180(2) 1.26579(17) -0.12592(15)
C4 C 0.2947(2) 0.93539(17) 0.02495(14)
C5 C 0.1980(2) 0.89748(18) 0.12122(15)
C6 C 0.2393(2) 0.7744(2) 0.19789(17)
C7 C 0.3783(3) 0.6891(2) 0.18342(17)
C8 C 0.4791(2) 0.72697(19) 0.09261(17)
C9 C 0.4376(2) 0.84798(18) 0.01465(16)
C10 C 0.3785(2) 1.02732(16) -0.22767(14)
C11 C 0.3287(2) 0.92321(17) -0.23349(15)
C12 C 0.4219(2) 0.84937(17) -0.29258(15)
C13 C 0.5621(2) 0.87962(18) -0.34680(16)
C14 C 0.6095(2) 0.98556(17) -0.34168(14)
C15 C 0.5185(2) 1.05953(17) -0.28125(15)
C16 C 0.7629(3) 1.0166(2) -0.39870(18)
C17 C 0.3712(3) 0.7332(2) -0.2950(2)
C18 C 0.2076(2) 1.30102(17) -0.33032(15)
C19 C 0.1316(2) 1.2612(2) -0.39428(17)
C20 C 0.1272(3) 1.3264(2) -0.50553(18)
C21 C 0.1990(3) 1.4297(2) -0.55423(19)
C22 C 0.2778(3) 1.4687(2) -0.4924(2)
C23 C 0.2824(3) 1.4042(2) -0.38084(19)
C24 C 0.0049(2) 1.38712(17) -0.12410(15)
C25 C 0.0209(3) 1.5087(2) -0.1942(2)
C26 C -0.0880(3) 1.6199(2) -0.1896(2)
C27 C -0.2135(3) 1.6112(2) -0.1148(2)
C28 C -0.2325(3) 1.4926(3) -0.0457(2)
C29 C -0.1231(3) 1.3804(2) -0.0488(2)
H1 H 0.062(3) 1.057(3) 0.093(2)
H2 H 0.168(3) 0.750(2) 0.2581(19)
H3 H 0.404(3) 0.603(2) 0.2405(17)
H4 H 0.576(3) 0.671(2) 0.0820(17)
H5 H 0.512(2) 0.8736(18) -0.0484(16)
H6 H 0.232(3) 0.904(2) -0.1978(16)
H7 H 0.624(3) 0.833(2) -0.3906(18)
H8 H 0.551(2) 1.132(2) -0.2736(15)
H9 H 0.079(3) 1.192(2) -0.3605(17)
H10 H 0.068(3) 1.297(3) -0.547(2)
H11 H 0.197(3) 1.478(3) -0.634(2)
H12 H 0.332(3) 1.546(3) -0.527(2)
H13 H 0.330(3) 1.432(2) -0.336(2)
H14 H 0.112(4) 1.515(3) -0.248(2)
H15 H -0.077(4) 1.701(3) -0.235(2)
H16 H -0.283(3) 1.690(3) -0.112(2)
H17 H -0.318(4) 1.481(3) 0.004(3)
H18 H -0.134(3) 1.297(3) 0.002(2)
loop_
_geom_bond_atom_site_label_1
_geom_bond_atom_site_label_2
_geom_bond_site_symmetry_1
_geom_bond_site_symmetry_2
F1 C16 1_555 1_555
F2 C16 1_555 1_555
F3 C16 1_555 1_555
F4 C17 1_555 1_555
F5 C17 1_555 1_555
F6 C17 1_555 1_555
O1 C5 1_555 1_555
N1 C1 1_555 1_555
N2 C1 1_555 1_555
C1 C4 1_555 1_555
C2 N2 1_555 1_555
C3 N1 1_555 1_555
C4 C5 1_555 1_555
C5 C6 1_555 1_555
C6 C7 1_555 1_555
C7 C8 1_555 1_555
C8 C9 1_555 1_555
C9 C4 1_555 1_555
C10 N2 1_555 1_555
C11 C10 1_555 1_555
C12 C11 1_555 1_555
C13 C12 1_555 1_555
C14 C13 1_555 1_555
C15 C10 1_555 1_555
C16 C14 1_555 1_555
C17 C12 1_555 1_555
C18 C2 1_555 1_555
C19 C18 1_555 1_555
C20 C19 1_555 1_555
C21 C20 1_555 1_555
C22 C21 1_555 1_555
C23 C18 1_555 1_555
C24 C3 1_555 1_555
C25 C24 1_555 1_555
C26 C25 1_555 1_555
C27 C26 1_555 1_555
C28 C27 1_555 1_555
C29 C24 1_555 1_555
H1 O1 1_555 1_555
H2 C6 1_555 1_555
H3 C7 1_555 1_555
H4 C8 1_555 1_555
H5 C9 1_555 1_555
H6 C11 1_555 1_555
H7 C13 1_555 1_555
H8 C15 1_555 1_555
H9 C19 1_555 1_555
H10 C20 1_555 1_555
H11 C21 1_555 1_555
H12 C22 1_555 1_555
H13 C23 1_555 1_555
H14 C25 1_555 1_555
H15 C26 1_555 1_555
H16 C27 1_555 1_555
H17 C28 1_555 1_555
H18 C29 1_555 1_555
C2 C3 1_555 1_555
C14 C15 1_555 1_555
C22 C23 1_555 1_555
C28 C29 1_555 1_555

#END
