
#######################################################################
#
#                 Cambridge Crystallographic Data Centre
#                                CCDC 
#
#######################################################################
#
# If this CIF has been generated from an entry in the Cambridge 
# Structural Database, then it will include bibliographic, chemical, 
# crystal, experimental, refinement or atomic coordinate data resulting 
# from the CCDC's data processing and validation procedures.
#
#######################################################################

data_LAXGUO
_chemical_formula_moiety         'C14 H16 F3 N1 O2 S1'
_chemical_name_systematic        
5-((Trifluoromethyl)sulfonyl)-5,5a,6,7,8,9,10,10a-octahydrocyclohepta[b]indole
_symmetry_cell_setting           monoclinic
_symmetry_space_group_name_H-M   'P 21'
_symmetry_Int_Tables_number      4
_space_group_name_Hall           'P 2yb'
loop_
_symmetry_equiv_pos_site_id
_symmetry_equiv_pos_as_xyz
1 x,y,z
2 -x,1/2+y,-z
_cell_length_a                   10.6457(19)
_cell_length_b                   8.5886(8)
_cell_length_c                   15.715(3)
_cell_angle_alpha                90
_cell_angle_beta                 95.27(2)
_cell_angle_gamma                90
_cell_volume                     1430.77
_exptl_crystal_colour            colorless
_exptl_crystal_description       needle
_cell_formula_units_Z            4
loop_
_atom_site_label
_atom_site_type_symbol
_atom_site_fract_x
_atom_site_fract_y
_atom_site_fract_z
S1 S 0.19906(9) 0.48097(11) 0.01669(6)
F1 F 0.1230(3) 0.2361(4) 0.09742(18)
F2 F -0.0262(2) 0.3730(3) 0.0321(2)
F3 F 0.0878(3) 0.2225(3) -0.03934(19)
O1 O 0.1922(3) 0.5693(4) 0.09370(19)
O2 O 0.1637(3) 0.5456(4) -0.06538(19)
N1 N 0.3341(3) 0.3932(4) 0.0158(2)
C1 C 0.4058(3) 0.3998(5) -0.0644(2)
H1 H 0.4099 0.5102 -0.0842
C2 C 0.3460(4) 0.2993(5) -0.1374(3)
H2 H 0.2561 0.3285 -0.1495
H3 H 0.3496 0.1886 -0.1199
C3 C 0.4146(5) 0.3198(7) -0.2196(3)
H4 H 0.3831 0.2368 -0.2598
H5 H 0.3858 0.4201 -0.2457
C4 C 0.5539(6) 0.3180(8) -0.2167(3)
H6 H 0.5757 0.3208 -0.2766
H7 H 0.5824 0.2159 -0.1930
C5 C 0.6314(5) 0.4385(7) -0.1694(3)
H8 H 0.5956 0.5413 -0.1868
H9 H 0.7170 0.4338 -0.1890
C6 C 0.6460(4) 0.4336(5) -0.0705(3)
H10 H 0.7280 0.3847 -0.0513
H11 H 0.6480 0.5418 -0.0486
C7 C 0.5408(3) 0.3444(5) -0.0309(2)
H12 H 0.5483 0.2323 -0.0467
C8 C 0.5429(3) 0.3530(4) 0.0649(2)
C9 C 0.6453(4) 0.3340(5) 0.1266(3)
H13 H 0.7281 0.3193 0.1102
C10 C 0.6235(4) 0.3371(5) 0.2123(3)
H14 H 0.6924 0.3256 0.2547
C11 C 0.5021(4) 0.3567(5) 0.2372(3)
H15 H 0.4892 0.3554 0.2962
C12 C 0.3985(4) 0.3783(5) 0.1762(3)
H16 H 0.3156 0.3928 0.1927
C13 C 0.4224(4) 0.3777(4) 0.0907(2)
C14 C 0.0894(4) 0.3182(5) 0.0274(3)
S2 S 0.30289(9) 0.73927(11) 0.49137(6)
F4 F 0.3814(3) 0.4906(4) 0.4158(2)
F5 F 0.5292(2) 0.6278(4) 0.4832(2)
F6 F 0.4086(3) 0.4826(4) 0.55368(19)
O3 O 0.3181(3) 0.8263(4) 0.41562(19)
O4 O 0.3312(3) 0.8061(3) 0.57459(18)
N2 N 0.1667(3) 0.6527(4) 0.4873(2)
C15 C 0.0880(3) 0.6566(4) 0.5633(2)
H17 H 0.0808 0.7668 0.5828
C16 C 0.1416(4) 0.5572(5) 0.6386(3)
H18 H 0.2319 0.5826 0.6521
H19 H 0.1355 0.4459 0.6223
C17 C 0.0716(4) 0.5835(6) 0.7185(3)
H20 H 0.1052 0.5084 0.7626
H21 H 0.0931 0.6891 0.7405
C18 C -0.0725(4) 0.5687(6) 0.7092(3)
H22 H -0.0952 0.4685 0.6805
H23 H -0.1021 0.5642 0.7671
C19 C -0.1438(4) 0.6992(6) 0.6593(3)
H24 H -0.1024 0.7991 0.6761
H25 H -0.2305 0.7032 0.6773
C20 C -0.1535(4) 0.6877(5) 0.5610(3)
H26 H -0.1578 0.7943 0.5369
H27 H -0.2333 0.6342 0.5413
C21 C -0.0429(3) 0.6001(4) 0.5250(2)
H28 H -0.0506 0.4877 0.5402
C22 C -0.0384(4) 0.6095(4) 0.4296(3)
C23 C -0.1340(4) 0.5891(5) 0.3644(3)
H29 H -0.2182 0.5717 0.3775
C24 C -0.1056(4) 0.5943(5) 0.2791(3)
H30 H -0.1707 0.5803 0.2342
C25 C 0.0178(4) 0.6199(5) 0.2600(3)
H31 H 0.0357 0.6242 0.2020
C26 C 0.1166(4) 0.6396(5) 0.3249(3)
H32 H 0.2011 0.6548 0.3118
C27 C 0.0855(4) 0.6359(4) 0.4089(2)
C28 C 0.4124(4) 0.5750(6) 0.4859(3)
loop_
_geom_bond_atom_site_label_1
_geom_bond_atom_site_label_2
_geom_bond_site_symmetry_1
_geom_bond_site_symmetry_2
S1 O1 1_555 1_555
F1 C14 1_555 1_555
F2 C14 1_555 1_555
F3 C14 1_555 1_555
O2 S1 1_555 1_555
N1 S1 1_555 1_555
C1 N1 1_555 1_555
H1 C1 1_555 1_555
C2 C1 1_555 1_555
H2 C2 1_555 1_555
H3 C2 1_555 1_555
C3 C2 1_555 1_555
H4 C3 1_555 1_555
H5 C3 1_555 1_555
C4 C3 1_555 1_555
H6 C4 1_555 1_555
H7 C4 1_555 1_555
C5 C4 1_555 1_555
H8 C5 1_555 1_555
H9 C5 1_555 1_555
C6 C5 1_555 1_555
H10 C6 1_555 1_555
H11 C6 1_555 1_555
C7 C1 1_555 1_555
H12 C7 1_555 1_555
C8 C7 1_555 1_555
C9 C8 1_555 1_555
H13 C9 1_555 1_555
C10 C9 1_555 1_555
H14 C10 1_555 1_555
C11 C10 1_555 1_555
H15 C11 1_555 1_555
C12 C11 1_555 1_555
H16 C12 1_555 1_555
C13 N1 1_555 1_555
C14 S1 1_555 1_555
S2 O3 1_555 1_555
F4 C28 1_555 1_555
F5 C28 1_555 1_555
F6 C28 1_555 1_555
O4 S2 1_555 1_555
N2 S2 1_555 1_555
C15 N2 1_555 1_555
H17 C15 1_555 1_555
C16 C15 1_555 1_555
H18 C16 1_555 1_555
H19 C16 1_555 1_555
C17 C16 1_555 1_555
H20 C17 1_555 1_555
H21 C17 1_555 1_555
C18 C17 1_555 1_555
H22 C18 1_555 1_555
H23 C18 1_555 1_555
C19 C18 1_555 1_555
H24 C19 1_555 1_555
H25 C19 1_555 1_555
C20 C19 1_555 1_555
H26 C20 1_555 1_555
H27 C20 1_555 1_555
C21 C15 1_555 1_555
H28 C21 1_555 1_555
C22 C21 1_555 1_555
C23 C22 1_555 1_555
H29 C23 1_555 1_555
C24 C23 1_555 1_555
H30 C24 1_555 1_555
C25 C24 1_555 1_555
H31 C25 1_555 1_555
C26 C25 1_555 1_555
H32 C26 1_555 1_555
C27 N2 1_555 1_555
C28 S2 1_555 1_555
C6 C7 1_555 1_555
C8 C13 1_555 1_555
C12 C13 1_555 1_555
C20 C21 1_555 1_555
C22 C27 1_555 1_555
C26 C27 1_555 1_555

#END
