
#######################################################################
#
#                 Cambridge Crystallographic Data Centre
#                                CCDC 
#
#######################################################################
#
# If this CIF has been generated from an entry in the Cambridge 
# Structural Database, then it will include bibliographic, chemical, 
# crystal, experimental, refinement or atomic coordinate data resulting 
# from the CCDC's data processing and validation procedures.
#
#######################################################################

data_LAXJOK02
_chemical_formula_moiety         'C15 H22 N4 O3'
_chemical_name_systematic        
4,6-Dioxo-5,5-bis(prop-2-enyl)-1H,5H-pyrimidine-2-isobutylurea
_symmetry_cell_setting           triclinic
_symmetry_space_group_name_H-M   'P -1'
_symmetry_Int_Tables_number      2
_space_group_name_Hall           '-P 1'
loop_
_symmetry_equiv_pos_site_id
_symmetry_equiv_pos_as_xyz
1 x,y,z
2 -x,-y,-z
_cell_length_a                   13.6097(5)
_cell_length_b                   14.2030(5)
_cell_length_c                   17.5902(6)
_cell_angle_alpha                91.320(2)
_cell_angle_beta                 95.043(2)
_cell_angle_gamma                98.854(2)
_cell_volume                     3344.33
_exptl_crystal_colour            colorless
_exptl_crystal_description       Block
_cell_formula_units_Z            8
loop_
_atom_site_label
_atom_site_type_symbol
_atom_site_fract_x
_atom_site_fract_y
_atom_site_fract_z
N1 N 0.65308(16) 0.23335(15) 0.23558(13)
N2 N 0.56843(17) 0.35152(17) 0.28645(14)
H1 H 0.574(2) 0.406(2) 0.3117(19)
N3 N 0.74192(18) 0.36790(16) 0.29490(14)
H2 H 0.791(2) 0.342(2) 0.2857(18)
N4 N 0.85482(19) 0.50206(17) 0.33354(15)
H3 H 0.897(2) 0.472(2) 0.3245(18)
O1 O 0.56259(15) 0.10746(14) 0.16885(14)
O2 O 0.40080(15) 0.34136(15) 0.27837(14)
O3 O 0.68978(14) 0.50568(13) 0.33689(12)
C1 C 0.4867(5) 0.0625(6) 0.3833(4)
H13 H 0.4831 0.0010 0.3599
H14 H 0.5152 0.0748 0.4346
C2 C 0.4551(4) 0.1254(3) 0.3479(3)
H15 H 0.4625 0.1837 0.3770
C3 C 0.4079(2) 0.1320(2) 0.2706(2)
H16 H 0.3390 0.1450 0.2743
H17 H 0.4030 0.0694 0.2434
C4 C 0.4630(2) 0.20980(19) 0.22195(18)
C5 C 0.3994(2) 0.2138(2) 0.1449(2)
H18 H 0.3911 0.1505 0.1183
H19 H 0.3322 0.2261 0.1556
C6 C 0.4414(3) 0.2875(2) 0.0922(2)
H20 H 0.4478 0.3526 0.1085
C7 C 0.4695(3) 0.2686(3) 0.0258(2)
H21 H 0.4640 0.2042 0.0078
H22 H 0.4956 0.3190 -0.0048
C8 C 0.5635(2) 0.1810(2) 0.20705(18)
C9 C 0.4731(2) 0.3059(2) 0.26447(18)
C10 C 0.65225(19) 0.31592(18) 0.27165(15)
C11 C 0.7592(2) 0.46445(18) 0.32383(15)
C12 C 0.8859(2) 0.60171(19) 0.35834(18)
H23 H 0.9443 0.6061 0.3968
H24 H 0.8311 0.6241 0.3835
C13 C 0.9134(3) 0.6675(2) 0.2939(2)
H25 H 0.862(2) 0.6567(18) 0.2574(16)
C14 C 0.9320(3) 0.7714(2) 0.3227(3)
H26 H 0.8725 0.7866 0.3449
H27 H 0.9466 0.8129 0.2800
H28 H 0.9890 0.7814 0.3617
C15 C 1.0034(3) 0.6425(3) 0.2575(2)
H29 H 1.0612 0.6505 0.2958
H30 H 1.0179 0.6848 0.2153
H31 H 0.9893 0.5762 0.2380
N5 N 0.91672(15) 0.27148(14) 0.25692(13)
N6 N 0.99651(16) 0.14736(17) 0.20942(14)
H4 H 0.982(2) 0.090(2) 0.1884(19)
N7 N 0.82476(17) 0.12844(16) 0.21536(13)
H5 H 0.778(2) 0.1578(18) 0.2212(15)
N8 N 0.71285(19) -0.00828(17) 0.18430(16)
H6 H 0.673(2) 0.031(2) 0.1757(17)
O4 O 1.01245(14) 0.40818(13) 0.30247(13)
O5 O 1.16152(15) 0.16067(14) 0.19798(14)
O6 O 0.87757(15) -0.01732(13) 0.20054(12)
C16 C 1.0835(3) 0.4496(3) 0.1087(2)
H32 H 1.0832 0.5034 0.1417
H33 H 1.0555 0.4489 0.0573
C17 C 1.1225(2) 0.3767(2) 0.13411(19)
H34 H 1.1213 0.3244 0.0992
C18 C 1.1685(2) 0.3685(2) 0.21271(17)
H35 H 1.1768 0.4314 0.2399
H36 H 1.2358 0.3510 0.2100
C19 C 1.1654(2) 0.2858(2) 0.33840(18)
H37 H 1.2301 0.2656 0.3298
H38 H 1.1799 0.3499 0.3640
C20 C 1.1130(3) 0.2181(2) 0.3906(2)
H39 H 1.1013 0.1521 0.3763
C21 C 1.0826(4) 0.2440(3) 0.4543(2)
H40 H 1.0932 0.3094 0.4702
H41 H 1.0496 0.1975 0.4853
C22 C 1.1064(2) 0.29343(19) 0.25946(16)
C23 C 1.0082(2) 0.32760(19) 0.27322(16)
C24 C 1.0928(2) 0.19633(19) 0.21911(17)
C25 C 0.91506(18) 0.18428(17) 0.22806(15)
C26 C 0.8084(2) 0.02817(19) 0.19911(16)
C27 C 0.6824(3) -0.1102(2) 0.1668(2)
H42 H 0.7429 -0.1409 0.1668
H43 H 0.6475 -0.1188 0.1147
C28 C 0.6152(3) -0.1597(2) 0.2216(2)
C30 C 0.5065(5) -0.1326(5) 0.1985(5)
H47 H 0.4594 -0.1626 0.2331
H48 H 0.4839 -0.1555 0.1459
H49 H 0.5099 -0.0632 0.2022
C31 C 0.6054(3) -0.2676(2) 0.2098(2)
H50 H 0.5695 -0.2869 0.1597
H51 H 0.5683 -0.2991 0.2499
H52 H 0.6720 -0.2861 0.2120
H63 H 0.648(3) -0.140(3) 0.264(3)
N9 N 0.21136(17) 0.79851(15) 0.16228(12)
N10 N 0.12609(19) 0.92953(17) 0.18281(14)
H7 H 0.120(2) 0.969(2) 0.2164(17)
N11 N 0.21799(19) 0.86775(17) 0.28158(13)
H8 H 0.253(2) 0.825(2) 0.2957(17)
N12 N 0.2403(2) 0.91997(19) 0.40717(14)
H9 H 0.283(3) 0.871(3) 0.414(2)
O7 O 0.20254(19) 0.73485(15) 0.04322(12)
O8 O 0.03459(15) 0.99454(13) 0.09184(11)
O9 O 0.14033(19) 0.99108(16) 0.32406(12)
C32 C 0.3667(3) 0.9674(3) 0.0266(2)
H53 H 0.3769 0.9159 -0.0057
H54 H 0.4223 1.0067 0.0535
C33 C 0.2764(2) 0.9842(2) 0.03398(19)
H55 H 0.2693 1.0364 0.0668
C34 C 0.1831(2) 0.92755(19) -0.00534(16)
H56 H 0.2015 0.8841 -0.0446
H57 H 0.1428 0.9716 -0.0317
C35 C 0.1182(2) 0.86774(18) 0.05062(15)
C36 C 0.0230(2) 0.81386(19) 0.00466(16)
H58 H -0.0151 0.8610 -0.0197
H59 H 0.0430 0.7742 -0.0365
C37 C -0.0431(3) 0.7518(2) 0.05219(18)
H60 H -0.0185 0.6980 0.0733
C38 C -0.1314(3) 0.7651(3) 0.0671(3)
H61 H -0.1586 0.8181 0.0471
H62 H -0.1690 0.7220 0.0981
C39 C 0.1802(2) 0.79588(19) 0.08581(16)
C40 C 0.0880(2) 0.93533(18) 0.10829(16)
C41 C 0.1849(2) 0.86471(18) 0.20678(15)
C42 C 0.1953(2) 0.9319(2) 0.33880(16)
C43 C 0.2282(3) 0.9788(2) 0.47423(18)
H64 H 0.2030 1.0372 0.4568
H65 H 0.2945 0.9987 0.5027
C44 C 0.1586(3) 0.9296(3) 0.5272(2)
H66 H 0.092(3) 0.908(3) 0.494(2)
C45 C 0.1948(4) 0.8422(3) 0.5607(2)
H67 H 0.2022 0.7972 0.5193
H68 H 0.1461 0.8116 0.5940
H69 H 0.2594 0.8613 0.5906
C46 C 0.1384(4) 0.9982(3) 0.5900(2)
H70 H 0.2009 1.0224 0.6210
H71 H 0.0906 0.9645 0.6225
H72 H 0.1105 1.0516 0.5669
N13 N 0.40086(18) 0.56627(17) 0.30376(14)
H10 H 0.409(2) 0.523(2) 0.2696(18)
N14 N 0.33594(17) 0.71095(15) 0.31991(12)
N15 N 0.32187(18) 0.63604(16) 0.20240(13)
H11 H 0.291(2) 0.6822(19) 0.1876(16)
N16 N 0.31203(18) 0.58706(16) 0.07491(13)
H12 H 0.275(2) 0.633(2) 0.0682(19)
O10 O 0.48913(16) 0.50066(15) 0.39656(11)
O11 O 0.36483(19) 0.78689(15) 0.43555(12)
O12 O 0.38920(15) 0.50514(13) 0.16346(11)
C47 C 0.1559(3) 0.5542(3) 0.4594(3)
H73 H 0.1474 0.5995 0.4979
H74 H 0.0992 0.5198 0.4301
C48 C 0.2461(3) 0.5391(2) 0.4468(2)
H75 H 0.2507 0.4931 0.4077
C49 C 0.3411(2) 0.5867(2) 0.48755(17)
H76 H 0.3723 0.5388 0.5170
H77 H 0.3261 0.6350 0.5245
C50 C 0.4180(2) 0.63663(19) 0.43443(16)
C51 C 0.5144(2) 0.6786(2) 0.48442(18)
H78 H 0.4956 0.7090 0.5311
H79 H 0.5500 0.6257 0.5005
C53 C 0.6054(7) 0.7044(7) 0.4344(5)
H81 H 0.5785 0.6882 0.3833
C55 C 0.6702(8) 0.7269(7) 0.4312(6)
H84 H 0.7126 0.7477 0.4762
H85 H 0.6964 0.7299 0.3829
C56 C 0.4406(2) 0.56241(19) 0.37844(16)
C57 C 0.3718(2) 0.7165(2) 0.39543(17)
C58 C 0.35290(19) 0.63857(18) 0.27765(15)
C59 C 0.3437(2) 0.57094(18) 0.14613(15)
C60 C 0.3286(2) 0.5217(2) 0.01335(16)
H86 H 0.2917 0.4575 0.0214
H87 H 0.4006 0.5167 0.0160
C61 C 0.2957(2) 0.5526(2) -0.06592(16)
H88 H 0.322(2) 0.620(2) -0.0682(15)
C62 C 0.3350(3) 0.4899(2) -0.12427(18)
H89 H 0.3084 0.4228 -0.1173
H90 H 0.4082 0.4990 -0.1169
H91 H 0.3138 0.5075 -0.1760
C63 C 0.1827(2) 0.5457(2) -0.07922(19)
H92 H 0.1516 0.4788 -0.0779
H93 H 0.1651 0.5707 -0.1292
H94 H 0.1588 0.5830 -0.0392
C29? C 0.5304(8) -0.1243(7) 0.2429(9)
H44? H 0.5046 -0.1597 0.2860
H45? H 0.4790 -0.1320 0.1996
H46? H 0.5485 -0.0566 0.2579
C52? C 0.5823(5) 0.7480(6) 0.4480(4)
H80? H 0.5364 0.7617 0.4075
C54? C 0.6451(8) 0.7946(8) 0.4333(6)
H82? H 0.7070 0.7988 0.4637
H83? H 0.6398 0.8324 0.3897
loop_
_geom_bond_atom_site_label_1
_geom_bond_atom_site_label_2
_geom_bond_site_symmetry_1
_geom_bond_site_symmetry_2
N1 C8 1_555 1_555
N2 H1 1_555 1_555
N3 H2 1_555 1_555
N4 H3 1_555 1_555
N5 C23 1_555 1_555
N6 H4 1_555 1_555
N7 H5 1_555 1_555
N8 H6 1_555 1_555
N9 C39 1_555 1_555
N10 H7 1_555 1_555
N11 H8 1_555 1_555
N12 H9 1_555 1_555
N13 H10 1_555 1_555
N14 C57 1_555 1_555
N15 H11 1_555 1_555
N16 H12 1_555 1_555
O1 C8 1_555 1_555
O2 C9 1_555 1_555
O3 C11 1_555 1_555
O4 C23 1_555 1_555
O5 C24 1_555 1_555
O6 C26 1_555 1_555
O7 C39 1_555 1_555
O8 C40 1_555 1_555
O9 C42 1_555 1_555
O10 C56 1_555 1_555
O11 C57 1_555 1_555
O12 C59 1_555 1_555
C1 H13 1_555 1_555
H14 C1 1_555 1_555
C2 C1 1_555 1_555
H15 C2 1_555 1_555
C3 C2 1_555 1_555
H16 C3 1_555 1_555
H17 C3 1_555 1_555
C4 C3 1_555 1_555
C5 C4 1_555 1_555
H18 C5 1_555 1_555
H19 C5 1_555 1_555
C6 C5 1_555 1_555
H20 C6 1_555 1_555
C7 C6 1_555 1_555
H21 C7 1_555 1_555
H22 C7 1_555 1_555
C8 C4 1_555 1_555
C9 N2 1_555 1_555
C10 N1 1_555 1_555
C11 N3 1_555 1_555
C12 N4 1_555 1_555
H23 C12 1_555 1_555
H24 C12 1_555 1_555
C13 C12 1_555 1_555
H25 C13 1_555 1_555
C14 C13 1_555 1_555
H26 C14 1_555 1_555
H27 C14 1_555 1_555
H28 C14 1_555 1_555
C15 C13 1_555 1_555
H29 C15 1_555 1_555
H30 C15 1_555 1_555
H31 C15 1_555 1_555
C16 H32 1_555 1_555
H33 C16 1_555 1_555
C17 C16 1_555 1_555
H34 C17 1_555 1_555
C18 C17 1_555 1_555
H35 C18 1_555 1_555
H36 C18 1_555 1_555
C19 H37 1_555 1_555
H38 C19 1_555 1_555
C20 C19 1_555 1_555
H39 C20 1_555 1_555
C21 C20 1_555 1_555
H40 C21 1_555 1_555
H41 C21 1_555 1_555
C22 C18 1_555 1_555
C23 C22 1_555 1_555
C24 N6 1_555 1_555
C25 N5 1_555 1_555
C26 N7 1_555 1_555
C27 N8 1_555 1_555
H42 C27 1_555 1_555
H43 C27 1_555 1_555
C28 C27 1_555 1_555
C30 C28 1_555 1_555
H47 C30 1_555 1_555
H48 C30 1_555 1_555
H49 C30 1_555 1_555
C31 C28 1_555 1_555
H50 C31 1_555 1_555
H51 C31 1_555 1_555
H52 C31 1_555 1_555
C32 H53 1_555 1_555
H54 C32 1_555 1_555
C33 C32 1_555 1_555
H55 C33 1_555 1_555
C34 C33 1_555 1_555
H56 C34 1_555 1_555
H57 C34 1_555 1_555
C35 C34 1_555 1_555
C36 C35 1_555 1_555
H58 C36 1_555 1_555
H59 C36 1_555 1_555
C37 C36 1_555 1_555
H60 C37 1_555 1_555
C38 C37 1_555 1_555
H61 C38 1_555 1_555
H62 C38 1_555 1_555
C39 C35 1_555 1_555
H63 C28 1_555 1_555
C40 N10 1_555 1_555
C41 N9 1_555 1_555
C42 N11 1_555 1_555
C43 N12 1_555 1_555
H64 C43 1_555 1_555
H65 C43 1_555 1_555
C44 C43 1_555 1_555
H66 C44 1_555 1_555
C45 C44 1_555 1_555
H67 C45 1_555 1_555
H68 C45 1_555 1_555
H69 C45 1_555 1_555
C46 C44 1_555 1_555
H70 C46 1_555 1_555
H71 C46 1_555 1_555
H72 C46 1_555 1_555
C47 H73 1_555 1_555
H74 C47 1_555 1_555
C48 C47 1_555 1_555
H75 C48 1_555 1_555
C49 C48 1_555 1_555
H76 C49 1_555 1_555
H77 C49 1_555 1_555
C50 C49 1_555 1_555
C51 C50 1_555 1_555
H78 C51 1_555 1_555
H79 C51 1_555 1_555
C53 C51 1_555 1_555
H81 C53 1_555 1_555
C55 C53 1_555 1_555
H84 C55 1_555 1_555
H85 C55 1_555 1_555
C56 N13 1_555 1_555
C57 C50 1_555 1_555
C58 N13 1_555 1_555
C59 N15 1_555 1_555
C60 N16 1_555 1_555
H86 C60 1_555 1_555
H87 C60 1_555 1_555
C61 C60 1_555 1_555
H88 C61 1_555 1_555
C62 C61 1_555 1_555
H89 C62 1_555 1_555
H90 C62 1_555 1_555
H91 C62 1_555 1_555
C63 C61 1_555 1_555
H92 C63 1_555 1_555
H93 C63 1_555 1_555
H94 C63 1_555 1_555
N2 C10 1_555 1_555
N3 C10 1_555 1_555
N4 C11 1_555 1_555
N6 C25 1_555 1_555
N7 C25 1_555 1_555
N8 C26 1_555 1_555
N10 C41 1_555 1_555
N11 C41 1_555 1_555
N12 C42 1_555 1_555
N14 C58 1_555 1_555
N15 C58 1_555 1_555
N16 C59 1_555 1_555
C4 C9 1_555 1_555
C19 C22 1_555 1_555
C22 C24 1_555 1_555
C35 C40 1_555 1_555
C50 C56 1_555 1_555

#END
