
#######################################################################
#
#                 Cambridge Crystallographic Data Centre
#                                CCDC 
#
#######################################################################
#
# If this CIF has been generated from an entry in the Cambridge 
# Structural Database, then it will include bibliographic, chemical, 
# crystal, experimental, refinement or atomic coordinate data resulting 
# from the CCDC's data processing and validation procedures.
#
#######################################################################

data_LAXKEC
_chemical_formula_moiety         'C26 H32 N2 O2'
_chemical_name_systematic        
'Methyl 3-(1,3-dimesityl-1,3-dihydro-2H-imidazol-2-ylidene)-2-methylpropanoate'
_symmetry_cell_setting           monoclinic
_symmetry_space_group_name_H-M   'C 2/c'
_symmetry_Int_Tables_number      15
_space_group_name_Hall           '-C 2yn'
loop_
_symmetry_equiv_pos_site_id
_symmetry_equiv_pos_as_xyz
1 x,y,z
2 -x,y,1/2-z
3 1/2+x,1/2+y,z
4 1/2-x,1/2+y,1/2-z
5 -x,-y,-z
6 x,-y,1/2+z
7 1/2-x,1/2-y,-z
8 1/2+x,1/2-y,1/2+z
_cell_length_a                   40.091(5)
_cell_length_b                   7.8348(9)
_cell_length_c                   16.111(2)
_cell_angle_alpha                90
_cell_angle_beta                 113.260(8)
_cell_angle_gamma                90
_cell_volume                     4649.24
_exptl_crystal_colour            colorless
_exptl_crystal_description       block
_cell_formula_units_Z            8
loop_
_atom_site_label
_atom_site_type_symbol
_atom_site_fract_x
_atom_site_fract_y
_atom_site_fract_z
O1 O 0.09317(4) 0.73787(18) 0.59073(7)
O2 O 0.06963(3) 0.57474(16) 0.46762(7)
N1 N 0.12343(3) 0.55055(14) 0.32806(7)
N2 N 0.17442(3) 0.48007(15) 0.44036(7)
C1 C 0.14523(3) 0.59239(16) 0.41738(8)
C2 C 0.13949(4) 0.4170(2) 0.29926(10)
C3 C 0.17008(5) 0.3762(2) 0.36659(10)
C4 C 0.14073(4) 0.71323(17) 0.47206(9)
C5 C 0.10604(4) 0.80505(18) 0.45990(9)
C6 C 0.08921(4) 0.7078(2) 0.51411(9)
C7 C 0.11269(7) 0.9898(2) 0.49042(15)
C8 C 0.05473(7) 0.4632(4) 0.51521(18)
C9 C 0.09224(3) 0.64249(16) 0.26995(8)
C10 C 0.09618(4) 0.80769(18) 0.24270(8)
C11 C 0.06495(4) 0.8974(2) 0.19053(9)
C12 C 0.03076(4) 0.8266(2) 0.16532(9)
C13 C 0.02807(4) 0.6596(2) 0.18990(9)
C14 C 0.05826(4) 0.56448(17) 0.24195(8)
C15 C 0.13268(5) 0.8904(2) 0.27014(12)
C16 C -0.00306(6) 0.9293(4) 0.11414(18)
C17 C 0.05434(6) 0.3839(2) 0.26770(14)
C18 C 0.20295(3) 0.46134(16) 0.52780(8)
C19 C 0.23871(4) 0.49222(17) 0.53789(9)
C20 C 0.26622(4) 0.47022(18) 0.62298(10)
C21 C 0.25964(4) 0.41568(17) 0.69653(9)
C22 C 0.22400(4) 0.38503(18) 0.68387(9)
C23 C 0.19524(4) 0.40662(16) 0.60082(9)
C24 C 0.24787(6) 0.5444(3) 0.45947(12)
C25 C 0.29005(5) 0.3882(3) 0.78753(12)
C26 C 0.15724(4) 0.3687(2) 0.59217(13)
H1 H 0.1282(5) 0.377(2) 0.2397(12)
H2 H 0.1871(5) 0.294(2) 0.3717(12)
H3 H 0.1599(4) 0.7188(18) 0.5319(11)
H4 H 0.0884(4) 0.8049(17) 0.3980(10)
H5 H 0.1326(6) 0.998(3) 0.5550(15)
H6 H 0.0898(6) 1.043(3) 0.4882(13)
H7 H 0.1242(7) 1.054(3) 0.4540(16)
H8 H 0.0737(7) 0.419(3) 0.5670(17)
H9 H 0.0389(8) 0.386(4) 0.470(2)
H10 H 0.0396(8) 0.534(3) 0.5379(19)
H11 H 0.0680(4) 1.011(2) 0.1722(11)
H12 H 0.0048(5) 0.613(2) 0.1750(11)
H13 H 0.1414(5) 0.934(3) 0.3336(15)
H14 H 0.1521(6) 0.809(3) 0.2710(13)
H15 H 0.1329(6) 0.985(3) 0.2283(14)
H16 H 0.0023(6) 1.042(4) 0.1002(16)
H17 H -0.0157(8) 0.879(4) 0.055(2)
H18 H -0.0208(9) 0.935(4) 0.145(2)
H19 H 0.0623(7) 0.302(3) 0.2350(18)
H20 H 0.0689(7) 0.363(3) 0.3301(19)
H21 H 0.0292(8) 0.356(3) 0.2542(18)
H22 H 0.2910(5) 0.495(2) 0.6300(11)
H23 H 0.2185(4) 0.344(2) 0.7344(11)
H24 H 0.2489(6) 0.447(3) 0.4248(15)
H25 H 0.2719(6) 0.601(2) 0.4834(13)
H26 H 0.2296(6) 0.625(3) 0.4198(14)
H27 H 0.2931(7) 0.487(4) 0.8260(18)
H28 H 0.2846(7) 0.302(3) 0.8253(18)
H29 H 0.3120(8) 0.348(3) 0.7857(17)
H30 H 0.1408(6) 0.346(3) 0.5293(15)
H31 H 0.1588(5) 0.276(3) 0.6309(14)
H32 H 0.1480(6) 0.474(3) 0.6180(14)
loop_
_geom_bond_atom_site_label_1
_geom_bond_atom_site_label_2
_geom_bond_site_symmetry_1
_geom_bond_site_symmetry_2
O1 C6 1_555 1_555
O2 C6 1_555 1_555
N1 C1 1_555 1_555
N2 C1 1_555 1_555
C1 C4 1_555 1_555
C2 N1 1_555 1_555
C3 N2 1_555 1_555
C4 C5 1_555 1_555
C5 C6 1_555 1_555
C7 C5 1_555 1_555
C8 O2 1_555 1_555
C9 N1 1_555 1_555
C10 C9 1_555 1_555
C11 C10 1_555 1_555
C12 C11 1_555 1_555
C13 C12 1_555 1_555
C14 C9 1_555 1_555
C15 C10 1_555 1_555
C16 C12 1_555 1_555
C17 C14 1_555 1_555
C18 N2 1_555 1_555
C19 C18 1_555 1_555
C20 C19 1_555 1_555
C21 C20 1_555 1_555
C22 C21 1_555 1_555
C23 C18 1_555 1_555
C24 C19 1_555 1_555
C25 C21 1_555 1_555
C26 C23 1_555 1_555
H1 C2 1_555 1_555
H2 C3 1_555 1_555
H3 C4 1_555 1_555
H4 C5 1_555 1_555
H5 C7 1_555 1_555
H6 C7 1_555 1_555
H7 C7 1_555 1_555
H8 C8 1_555 1_555
H9 C8 1_555 1_555
H10 C8 1_555 1_555
H11 C11 1_555 1_555
H12 C13 1_555 1_555
H13 C15 1_555 1_555
H14 C15 1_555 1_555
H15 C15 1_555 1_555
H16 C16 1_555 1_555
H17 C16 1_555 1_555
H18 C16 1_555 1_555
H19 C17 1_555 1_555
H20 C17 1_555 1_555
H21 C17 1_555 1_555
H22 C20 1_555 1_555
H23 C22 1_555 1_555
H24 C24 1_555 1_555
H25 C24 1_555 1_555
H26 C24 1_555 1_555
H27 C25 1_555 1_555
H28 C25 1_555 1_555
H29 C25 1_555 1_555
H30 C26 1_555 1_555
H31 C26 1_555 1_555
H32 C26 1_555 1_555
C2 C3 1_555 1_555
C13 C14 1_555 1_555
C22 C23 1_555 1_555

#END
