
#######################################################################
#
#                 Cambridge Crystallographic Data Centre
#                                CCDC 
#
#######################################################################
#
# If this CIF has been generated from an entry in the Cambridge 
# Structural Database, then it will include bibliographic, chemical, 
# crystal, experimental, refinement or atomic coordinate data resulting 
# from the CCDC's data processing and validation procedures.
#
#######################################################################

data_LAXREH
_chemical_formula_moiety         'C18 H46 Li2 N6 S4'
_chemical_name_systematic        
(\m~2~-Tetrasulfido)-bis(N,N,N',N'',N'''-pentamethyldiethylenetriamine)-lithium
_symmetry_cell_setting           monoclinic
_symmetry_space_group_name_H-M   'P 21/c'
_symmetry_Int_Tables_number      14
_space_group_name_Hall           '-P 2ybc'
loop_
_symmetry_equiv_pos_site_id
_symmetry_equiv_pos_as_xyz
1 x,y,z
2 -x,1/2+y,1/2-z
3 -x,-y,-z
4 x,1/2-y,1/2+z
_cell_length_a                   14.04(1)
_cell_length_b                   14.23(1)
_cell_length_c                   16.007(7)
_cell_angle_alpha                90
_cell_angle_beta                 111.08(5)
_cell_angle_gamma                90
_cell_volume                     2984.01
_exptl_crystal_colour            orange
_chemical_melting_point          126-128deg.C
_cell_formula_units_Z            4
loop_
_atom_site_label
_atom_site_type_symbol
_atom_site_fract_x
_atom_site_fract_y
_atom_site_fract_z
S1 S 0.6605(1) 0.5536(1) 0.2517(2)
S2 S 0.7191(1) 0.4317(1) 0.3212(1)
S3 S 0.8520(1) 0.3975(1) 0.3021(1)
S4 S 0.8193(1) 0.3088(1) 0.1947(1)
N1 N 0.9264(4) 0.6492(4) 0.3792(3)
N2 N 0.8154(4) 0.7470(4) 0.2141(4)
N3 N 0.8859(4) 0.5868(3) 0.1457(3)
N4 N 0.5146(4) 0.3013(4) 0.1317(4)
N5 N 0.6179(4) 0.1276(4) 0.1313(4)
N6 N 0.6898(4) 0.1647(4) 0.3235(4)
C1 C 0.9068(8) 0.7506(6) 0.3744(6)
C2 C 0.8933(7) 0.7915(5) 0.2896(7)
C3 C 0.8420(6) 0.7538(5) 0.1343(6)
C4 C 0.9138(7) 0.6811(5) 0.1287(5)
C5 C 1.0336(6) 0.6283(6) 0.3963(5)
C6 C 0.8989(6) 0.6070(6) 0.4516(5)
C7 C 0.7134(6) 0.7866(6) 0.1952(6)
C8 C 0.7999(6) 0.5493(6) 0.0727(5)
C9 C 0.9743(6) 0.5247(5) 0.1610(5)
C10 C 0.4578(5) 0.2167(6) 0.0923(6)
C11 C 0.5177(7) 0.1489(6) 0.0628(5)
C12 C 0.6088(6) 0.0602(5) 0.1955(6)
C13 C 0.6902(6) 0.0722(5) 0.2841(6)
C14 C 0.4576(5) 0.3513(6) 0.1772(6)
C15 C 0.5294(5) 0.3649(6) 0.0667(5)
C16 C 0.6877(6) 0.0948(5) 0.0882(6)
C17 C 0.7873(6) 0.1825(6) 0.3931(5)
C18 C 0.6106(7) 0.1680(6) 0.3611(6)
Li1 Li 0.8285(7) 0.5997(7) 0.2533(6)
Li2 Li 0.6642(7) 0.2538(7) 0.2110(7)
H1 H 0.8442 0.7624 0.3848
H2 H 0.9605 0.7826 0.4197
H3 H 0.9586 0.7893 0.2808
H4 H 0.8779 0.8585 0.2904
H5 H 0.7827 0.7458 0.0812
H6 H 0.8711 0.8139 0.1313
H7 H 0.9823 0.6944 0.1765
H8 H 0.9259 0.6825 0.0742
H9 H 1.0442 0.5600 0.3961
H10 H 1.0549 0.6536 0.3505
H11 H 1.0780 0.6507 0.4528
H12 H 0.8308 0.6180 0.4447
H13 H 0.9091 0.5384 0.4526
H14 H 0.9430 0.6289 0.5096
H15 H 0.7120 0.8493 0.1753
H16 H 0.6656 0.7505 0.1456
H17 H 0.6946 0.7818 0.2445
H18 H 0.7419 0.5888 0.0597
H19 H 0.8156 0.5435 0.0168
H20 H 0.7826 0.4878 0.0871
H21 H 0.9551 0.4609 0.1722
H22 H 0.9956 0.5227 0.1123
H23 H 1.0295 0.5432 0.2141
H24 H 0.4372 0.1872 0.1377
H25 H 0.3960 0.2332 0.0435
H26 H 0.5227 0.1737 0.0093
H27 H 0.4748 0.0921 0.0451
H28 H 0.5427 0.0690 0.2044
H29 H 0.6068 -0.0035 0.1748
H30 H 0.7532 0.0612 0.2748
H31 H 0.6837 0.0226 0.3234
H32 H 0.4908 0.4101 0.2029
H33 H 0.3893 0.3689 0.1368
H34 H 0.4499 0.3152 0.2242
H35 H 0.5676 0.4211 0.0951
H36 H 0.5664 0.3376 0.0325
H37 H 0.4654 0.3886 0.0233
H38 H 0.6691 0.0359 0.0600
H39 H 0.6961 0.1395 0.0480
H40 H 0.7566 0.0860 0.1354
H41 H 0.8042 0.1382 0.4415
H42 H 0.8430 0.1818 0.3708
H43 H 0.7900 0.2447 0.4203
H44 H 0.6048 0.2285 0.3847
H45 H 0.5425 0.1567 0.3129
H46 H 0.6175 0.1216 0.4047
loop_
_geom_bond_atom_site_label_1
_geom_bond_atom_site_label_2
_geom_bond_site_symmetry_1
_geom_bond_site_symmetry_2
S1 S2 1_555 1_555
S2 S3 1_555 1_555
S3 S4 1_555 1_555
S4 Li2 1_555 1_555
N1 C1 1_555 1_555
N2 C2 1_555 1_555
N3 C4 1_555 1_555
N4 C10 1_555 1_555
N5 C11 1_555 1_555
N6 C13 1_555 1_555
C1 C2 1_555 1_555
C2 H3 1_555 1_555
C3 N2 1_555 1_555
C4 C3 1_555 1_555
C5 N1 1_555 1_555
C6 N1 1_555 1_555
C7 N2 1_555 1_555
C8 N3 1_555 1_555
C9 N3 1_555 1_555
C10 C11 1_555 1_555
C11 H26 1_555 1_555
C12 N5 1_555 1_555
C13 C12 1_555 1_555
C14 N4 1_555 1_555
C15 N4 1_555 1_555
C16 N5 1_555 1_555
C17 N6 1_555 1_555
C18 N6 1_555 1_555
Li1 S1 1_555 1_555
Li2 N4 1_555 1_555
H1 C1 1_555 1_555
H2 C1 1_555 1_555
H4 C2 1_555 1_555
H5 C3 1_555 1_555
H6 C3 1_555 1_555
H7 C4 1_555 1_555
H8 C4 1_555 1_555
H9 C5 1_555 1_555
H10 C5 1_555 1_555
H11 C5 1_555 1_555
H12 C6 1_555 1_555
H13 C6 1_555 1_555
H14 C6 1_555 1_555
H15 C7 1_555 1_555
H16 C7 1_555 1_555
H17 C7 1_555 1_555
H18 C8 1_555 1_555
H19 C8 1_555 1_555
H20 C8 1_555 1_555
H21 C9 1_555 1_555
H22 C9 1_555 1_555
H23 C9 1_555 1_555
H24 C10 1_555 1_555
H25 C10 1_555 1_555
H27 C11 1_555 1_555
H28 C12 1_555 1_555
H29 C12 1_555 1_555
H30 C13 1_555 1_555
H31 C13 1_555 1_555
H32 C14 1_555 1_555
H33 C14 1_555 1_555
H34 C14 1_555 1_555
H35 C15 1_555 1_555
H36 C15 1_555 1_555
H37 C15 1_555 1_555
H38 C16 1_555 1_555
H39 C16 1_555 1_555
H40 C16 1_555 1_555
H41 C17 1_555 1_555
H42 C17 1_555 1_555
H43 C17 1_555 1_555
H44 C18 1_555 1_555
H45 C18 1_555 1_555
H46 C18 1_555 1_555
N1 Li1 1_555 1_555
N2 Li1 1_555 1_555
N3 Li1 1_555 1_555
N5 Li2 1_555 1_555
N6 Li2 1_555 1_555

#END
