
#######################################################################
#
#                 Cambridge Crystallographic Data Centre
#                                CCDC 
#
#######################################################################
#
# If this CIF has been generated from an entry in the Cambridge 
# Structural Database, then it will include bibliographic, chemical, 
# crystal, experimental, refinement or atomic coordinate data resulting 
# from the CCDC's data processing and validation procedures.
#
#######################################################################

data_LAXRIL
_chemical_formula_moiety         'C18 H46 Li2 N6 Se5'
_chemical_name_systematic        
(\m~2~-Pentaselenido)-bis(N,N,N',N'',N'''-pentamethyldiethylenetriamine)-lithium
_symmetry_cell_setting           triclinic
_symmetry_space_group_name_H-M   'P -1'
_symmetry_Int_Tables_number      2
_space_group_name_Hall           '-P 1'
loop_
_symmetry_equiv_pos_site_id
_symmetry_equiv_pos_as_xyz
1 x,y,z
2 -x,-y,-z
_cell_length_a                   9.808(7)
_cell_length_b                   18.227(3)
_cell_length_c                   8.7930(6)
_cell_angle_alpha                98.092(9)
_cell_angle_beta                 90.13(2)
_cell_angle_gamma                90.72(4)
_cell_volume                     1556.14
_exptl_crystal_colour            brown
_cell_formula_units_Z            2
loop_
_atom_site_label
_atom_site_type_symbol
_atom_site_fract_x
_atom_site_fract_y
_atom_site_fract_z
Se1 Se 0.2646(1) 0.08108(5) 0.1968(1)
Se2 Se 0.13624(9) 0.18447(5) 0.2769(1)
Se3 Se 0.2865(1) 0.28189(5) 0.3752(1)
Se4 Se 0.26243(9) 0.38109(5) 0.2370(1)
Se5 Se 0.10914(8) 0.46514(5) 0.3629(1)
N1 N 0.3888(7) 0.1692(4) -0.1716(8)
N2 N 0.1113(7) 0.1187(5) -0.2128(8)
N3 N 0.2780(7) -0.0161(4) -0.2351(8)
N4 N -0.2619(7) 0.5130(4) 0.2215(7)
N5 N -0.2064(8) 0.3587(4) 0.1259(8)
N6 N -0.2303(7) 0.3450(4) 0.4465(8)
C1 C 0.398(1) 0.2293(7) -0.045(1)
C2 C 0.529(1) 0.1524(7) -0.231(2)
C3 C 0.311(1) 0.1891(6) -0.299(1)
C4 C 0.155(1) 0.1875(6) -0.262(1)
C5 C -0.019(1) 0.1283(7) -0.131(1)
C6 C 0.097(1) 0.0576(6) -0.342(1)
C7 C 0.136(1) -0.0166(7) -0.285(1)
C8 C 0.298(1) -0.0767(6) -0.140(1)
C9 C 0.367(1) -0.0295(8) -0.367(1)
C10 C -0.181(1) 0.5789(6) 0.216(1)
C11 C -0.390(1) 0.5332(6) 0.297(1)
C12 C -0.281(1) 0.4742(6) 0.059(1)
C13 C -0.309(1) 0.3993(7) 0.049(1)
C14 C -0.089(1) 0.3389(7) 0.034(1)
C15 C -0.269(2) 0.2960(8) 0.178(2)
C16 C -0.265(2) 0.2871(8) 0.326(2)
C17 C -0.126(1) 0.3204(7) 0.547(1)
C18 C -0.350(1) 0.3648(6) 0.535(1)
Li1 Li 0.277(1) 0.0875(8) -0.092(2)
Li2 Li -0.152(1) 0.4333(7) 0.331(1)
H1 H 0.4487 0.2132 0.0398
H2 H 0.4410 0.2712 -0.0731
H3 H 0.3083 0.2423 -0.0052
H4 H 0.5867 0.1374 -0.1542
H5 H 0.5251 0.1106 -0.3155
H6 H 0.5688 0.1930 -0.2710
H7 H 0.3402 0.2355 -0.3205
H8 H 0.3314 0.1523 -0.3883
H9 H 0.1064 0.1927 -0.3566
H10 H 0.1357 0.2270 -0.1879
H11 H -0.0103 0.1684 -0.0410
H12 H -0.0903 0.1469 -0.1935
H13 H -0.0510 0.0863 -0.0946
H14 H 0.0097 0.0541 -0.3826
H15 H 0.1628 0.0630 -0.4210
H16 H 0.1089 -0.0530 -0.3594
H17 H 0.0729 -0.0156 -0.1952
H18 H 0.2416 -0.0669 -0.0489
H19 H 0.2839 -0.1220 -0.1913
H20 H 0.3930 -0.0714 -0.0996
H21 H 0.3525 -0.0770 -0.4248
H22 H 0.3552 0.0075 -0.4326
H23 H 0.4624 -0.0266 -0.3341
H24 H -0.0982 0.5664 0.1679
H25 H -0.2297 0.6124 0.1628
H26 H -0.1644 0.6029 0.3196
H27 H -0.3720 0.5554 0.3972
H28 H -0.4365 0.5645 0.2398
H29 H -0.4404 0.4878 0.2973
H30 H -0.3513 0.4946 0.0058
H31 H -0.1961 0.4791 0.0008
H32 H -0.3081 0.3756 -0.0563
H33 H -0.3922 0.3913 0.0936
H34 H -0.0273 0.3149 0.0967
H35 H -0.1167 0.3033 -0.0507
H36 H -0.0493 0.3800 0.0033
H37 H -0.3689 0.3059 0.1742
H38 H -0.2506 0.2551 0.1094
H39 H -0.1657 0.2529 0.3207
H40 H -0.3209 0.2520 0.3543
H41 H -0.1563 0.2794 0.5881
H42 H -0.0438 0.3120 0.4925
H43 H -0.1092 0.3613 0.6307
H44 H -0.3317 0.4058 0.6125
H45 H -0.4183 0.3809 0.4661
H46 H -0.3855 0.3248 0.5780
loop_
_geom_bond_atom_site_label_1
_geom_bond_atom_site_label_2
_geom_bond_site_symmetry_1
_geom_bond_site_symmetry_2
Se1 Se2 1_555 1_555
Se2 Se3 1_555 1_555
Se3 Se4 1_555 1_555
Se4 Se5 1_555 1_555
Se5 Li2 1_555 1_555
N1 C1 1_555 1_555
N2 C4 1_555 1_555
N3 C7 1_555 1_555
N4 C10 1_555 1_555
N5 C13 1_555 1_555
N6 C16 1_555 1_555
C1 H1 1_555 1_555
C2 N1 1_555 1_555
C3 N1 1_555 1_555
C4 C3 1_555 1_555
C5 N2 1_555 1_555
C6 N2 1_555 1_555
C7 C6 1_555 1_555
C8 N3 1_555 1_555
C9 N3 1_555 1_555
C10 H24 1_555 1_555
C11 N4 1_555 1_555
C12 N4 1_555 1_555
C13 C12 1_555 1_555
C14 N5 1_555 1_555
C15 N5 1_555 1_555
C16 C15 1_555 1_555
C17 N6 1_555 1_555
C18 N6 1_555 1_555
Li1 Se1 1_555 1_555
Li2 N4 1_555 1_555
H2 C1 1_555 1_555
H3 C1 1_555 1_555
H4 C2 1_555 1_555
H5 C2 1_555 1_555
H6 C2 1_555 1_555
H7 C3 1_555 1_555
H8 C3 1_555 1_555
H9 C4 1_555 1_555
H10 C4 1_555 1_555
H11 C5 1_555 1_555
H12 C5 1_555 1_555
H13 C5 1_555 1_555
H14 C6 1_555 1_555
H15 C6 1_555 1_555
H16 C7 1_555 1_555
H17 C7 1_555 1_555
H18 C8 1_555 1_555
H19 C8 1_555 1_555
H20 C8 1_555 1_555
H21 C9 1_555 1_555
H22 C9 1_555 1_555
H23 C9 1_555 1_555
H25 C10 1_555 1_555
H26 C10 1_555 1_555
H27 C11 1_555 1_555
H28 C11 1_555 1_555
H29 C11 1_555 1_555
H30 C12 1_555 1_555
H31 C12 1_555 1_555
H32 C13 1_555 1_555
H33 C13 1_555 1_555
H34 C14 1_555 1_555
H35 C14 1_555 1_555
H36 C14 1_555 1_555
H37 C15 1_555 1_555
H38 C15 1_555 1_555
H39 C16 1_555 1_555
H40 C16 1_555 1_555
H41 C17 1_555 1_555
H42 C17 1_555 1_555
H43 C17 1_555 1_555
H44 C18 1_555 1_555
H45 C18 1_555 1_555
H46 C18 1_555 1_555
N1 Li1 1_555 1_555
N2 Li1 1_555 1_555
N3 Li1 1_555 1_555
N5 Li2 1_555 1_555
N6 Li2 1_555 1_555

#END
