
#######################################################################
#
#                 Cambridge Crystallographic Data Centre
#                                CCDC 
#
#######################################################################
#
# If this CIF has been generated from an entry in the Cambridge 
# Structural Database, then it will include bibliographic, chemical, 
# crystal, experimental, refinement or atomic coordinate data resulting 
# from the CCDC's data processing and validation procedures.
#
#######################################################################

data_LAXREJ
_chemical_formula_moiety         'C26 H29 N1 O7 S1'
_chemical_name_systematic        
'(5S,6S)-Ethyl 6-hydroxy-8-(4-methoxyphenyl)-7-((4-methylphenyl)sulfonyl)-1-oxo-7-azaspiro[4.5]dec-8-ene-9-carboxylate'
_symmetry_cell_setting           monoclinic
_symmetry_space_group_name_H-M   'P 21/c'
_symmetry_Int_Tables_number      14
_space_group_name_Hall           '-P 2ybc'
loop_
_symmetry_equiv_pos_site_id
_symmetry_equiv_pos_as_xyz
1 x,y,z
2 -x,1/2+y,1/2-z
3 -x,-y,-z
4 x,1/2-y,1/2+z
_cell_length_a                   12.106(9)
_cell_length_b                   11.288(8)
_cell_length_c                   17.959(13)
_cell_angle_alpha                90
_cell_angle_beta                 98.183(8)
_cell_angle_gamma                90
_cell_volume                     2429.16
_exptl_crystal_colour            colorless
_exptl_crystal_description       block
_cell_formula_units_Z            4
loop_
_atom_site_label
_atom_site_type_symbol
_atom_site_fract_x
_atom_site_fract_y
_atom_site_fract_z
C1 C 0.4656(3) 0.4300(3) 0.35684(19)
H1 H 0.4897 0.4324 0.4113
C2 C 0.5447(3) 0.5038(3) 0.31697(19)
C3 C 0.5073(3) 0.4966(3) 0.23272(19)
H2 H 0.5431 0.5593 0.2079
H3 H 0.5310 0.4214 0.2141
C4 C 0.3829(3) 0.5079(3) 0.21321(19)
C5 C 0.3122(3) 0.4993(3) 0.26289(19)
C6 C 0.6644(3) 0.4622(4) 0.3354(2)
C7 C 0.7409(3) 0.5631(4) 0.3498(3)
H4 H 0.7983 0.5599 0.3173
H5 H 0.7763 0.5634 0.4018
C8 C 0.6690(3) 0.6715(4) 0.3331(2)
H6 H 0.6703 0.6981 0.2819
H7 H 0.6947 0.7354 0.3673
C9 C 0.5524(3) 0.6326(3) 0.3440(2)
H8 H 0.4964 0.6811 0.3144
H9 H 0.5424 0.6378 0.3966
C10 C 0.1891(3) 0.5043(3) 0.24233(18)
C11 C 0.1355(3) 0.6082(3) 0.2199(2)
H10 H 0.1765 0.6779 0.2196
C12 C 0.0223(3) 0.6104(4) 0.1980(2)
H11 H -0.0134 0.6817 0.1843
C13 C -0.0382(3) 0.5078(4) 0.1962(2)
C14 C 0.0134(3) 0.4032(4) 0.2170(2)
H12 H -0.0274 0.3332 0.2154
C15 C 0.1267(3) 0.4028(3) 0.24039(19)
H13 H 0.1618 0.3316 0.2553
C16 C -0.2135(4) 0.4188(5) 0.1633(3)
H14 H -0.1852 0.3680 0.1276
H15 H -0.2895 0.4395 0.1451
H16 H -0.2103 0.3784 0.2106
C17 C 0.3397(3) 0.5234(3) 0.1324(2)
C18 C 0.3678(4) 0.6245(5) 0.0224(2)
H17 H 0.3082 0.6826 0.0177
H18 H 0.3398 0.5533 -0.0041
C19 C 0.4615(4) 0.6706(4) -0.0104(2)
H19 H 0.4855 0.7441 0.0135
H20 H 0.4395 0.6837 -0.0632
H21 H 0.5218 0.6146 -0.0032
C20 C 0.1904(3) 0.4242(3) 0.42535(18)
C21 C 0.0795(3) 0.4516(4) 0.4165(2)
H22 H 0.0541 0.5234 0.3950
C22 C 0.0056(4) 0.3715(5) 0.4398(3)
H23 H -0.0699 0.3905 0.4340
C23 C 0.0392(4) 0.2663(5) 0.4709(2)
C24 C 0.1496(4) 0.2387(4) 0.4764(2)
H24 H 0.1740 0.1654 0.4958
C25 C 0.2257(3) 0.3160(4) 0.4540(2)
H25 H 0.3007 0.2952 0.4583
C26 C -0.0428(5) 0.1814(5) 0.4978(3)
H26 H -0.1016 0.2253 0.5158
H27 H -0.0053 0.1335 0.5378
H28 H -0.0739 0.1313 0.4569
N1 N 0.3537(2) 0.4771(3) 0.33975(15)
O1 O 0.4593(2) 0.3115(2) 0.33205(15)
H29 H 0.5225 0.2845 0.3338
O2 O 0.6916(2) 0.3583(3) 0.33774(18)
O3 O 0.2608(3) 0.4765(3) 0.09821(15)
O4 O 0.4029(2) 0.5977(2) 0.10075(14)
O5 O -0.1497(2) 0.5203(3) 0.17293(17)
O6 O 0.3718(2) 0.5298(2) 0.47355(13)
O7 O 0.2349(2) 0.6351(2) 0.38396(13)
S1 S 0.28965(8) 0.52915(8) 0.40854(5)
loop_
_geom_bond_atom_site_label_1
_geom_bond_atom_site_label_2
_geom_bond_site_symmetry_1
_geom_bond_site_symmetry_2
C1 H1 1_555 1_555
C2 C1 1_555 1_555
C3 C2 1_555 1_555
H2 C3 1_555 1_555
H3 C3 1_555 1_555
C4 C3 1_555 1_555
C5 C4 1_555 1_555
C6 C2 1_555 1_555
C7 C6 1_555 1_555
H4 C7 1_555 1_555
H5 C7 1_555 1_555
C8 C7 1_555 1_555
H6 C8 1_555 1_555
H7 C8 1_555 1_555
C9 C2 1_555 1_555
H8 C9 1_555 1_555
H9 C9 1_555 1_555
C10 C5 1_555 1_555
C11 C10 1_555 1_555
H10 C11 1_555 1_555
C12 C11 1_555 1_555
H11 C12 1_555 1_555
C13 C12 1_555 1_555
C14 C13 1_555 1_555
H12 C14 1_555 1_555
C15 C10 1_555 1_555
H13 C15 1_555 1_555
C16 H14 1_555 1_555
H15 C16 1_555 1_555
H16 C16 1_555 1_555
C17 C4 1_555 1_555
C18 H17 1_555 1_555
H18 C18 1_555 1_555
C19 C18 1_555 1_555
H19 C19 1_555 1_555
H20 C19 1_555 1_555
H21 C19 1_555 1_555
C20 C21 1_555 1_555
C21 H22 1_555 1_555
C22 C21 1_555 1_555
H23 C22 1_555 1_555
C23 C22 1_555 1_555
C24 C23 1_555 1_555
H24 C24 1_555 1_555
C25 C20 1_555 1_555
H25 C25 1_555 1_555
C26 C23 1_555 1_555
H26 C26 1_555 1_555
H27 C26 1_555 1_555
H28 C26 1_555 1_555
N1 C1 1_555 1_555
O1 C1 1_555 1_555
H29 O1 1_555 1_555
O2 C6 1_555 1_555
O3 C17 1_555 1_555
O4 C17 1_555 1_555
O5 C13 1_555 1_555
O6 S1 1_555 1_555
O7 S1 1_555 1_555
S1 C20 1_555 1_555
C5 N1 1_555 1_555
C8 C9 1_555 1_555
C14 C15 1_555 1_555
C16 O5 1_555 1_555
C18 O4 1_555 1_555
C24 C25 1_555 1_555
N1 S1 1_555 1_555

#END
