
#######################################################################
#
#                 Cambridge Crystallographic Data Centre
#                                CCDC 
#
#######################################################################
#
# If this CIF has been generated from an entry in the Cambridge 
# Structural Database, then it will include bibliographic, chemical, 
# crystal, experimental, refinement or atomic coordinate data resulting 
# from the CCDC's data processing and validation procedures.
#
#######################################################################

data_LAXWEP
_chemical_formula_moiety         'C84 H90 N12 O6'
_chemical_name_systematic        
14,14':29,29':44,44'-bi(46,47,48-trihydroxy-3,10,18,25,33,40-hexaazaheptacyclo[40.3.1.1^12,16^.1^27,31^.0^4,9^.0^19,24^.0^34,39^]octatetraconta-1(46),2,10,12(48),13,15,17,25,27(47),28,30,32,40,42,44-pentadecaene)
_symmetry_cell_setting           rhombohedral
_symmetry_space_group_name_H-M   'R -3 c'
_symmetry_Int_Tables_number      167
_space_group_name_Hall           '-R 3 2"c'
loop_
_symmetry_equiv_pos_site_id
_symmetry_equiv_pos_as_xyz
1 x,y,z
2 -y,x-y,z
3 -x+y,-x,z
4 y,x,1/2-z
5 x-y,-y,1/2-z
6 -x,-x+y,1/2-z
7 2/3+x,1/3+y,1/3+z
8 2/3-y,1/3+x-y,1/3+z
9 2/3-x+y,1/3-x,1/3+z
10 2/3+y,1/3+x,5/6-z
11 2/3+x-y,1/3-y,5/6-z
12 2/3-x,1/3-x+y,5/6-z
13 1/3+x,2/3+y,2/3+z
14 1/3-y,2/3+x-y,2/3+z
15 1/3-x+y,2/3-x,2/3+z
16 1/3+y,2/3+x,1/6-z
17 1/3+x-y,2/3-y,1/6-z
18 1/3-x,2/3-x+y,1/6-z
19 -x,-y,-z
20 y,-x+y,-z
21 x-y,x,-z
22 -y,-x,1/2+z
23 -x+y,y,1/2+z
24 x,x-y,1/2+z
25 1/3-x,2/3-y,2/3-z
26 1/3+y,2/3-x+y,2/3-z
27 1/3+x-y,2/3+x,2/3-z
28 1/3-y,2/3-x,1/6+z
29 1/3-x+y,2/3+y,1/6+z
30 1/3+x,2/3+x-y,1/6+z
31 2/3-x,1/3-y,1/3-z
32 2/3+y,1/3-x+y,1/3-z
33 2/3+x-y,1/3+x,1/3-z
34 2/3-y,1/3-x,5/6+z
35 2/3-x+y,1/3+y,5/6+z
36 2/3+x,1/3+x-y,5/6+z
_cell_length_a                   24.5545(16)
_cell_length_b                   24.5545(16)
_cell_length_c                   25.436(3)
_cell_angle_alpha                90
_cell_angle_beta                 90
_cell_angle_gamma                120
_cell_volume                     13281.3
_exptl_crystal_colour            red
_exptl_crystal_description       block
_cell_formula_units_Z            6
loop_
_atom_site_label
_atom_site_type_symbol
_atom_site_fract_x
_atom_site_fract_y
_atom_site_fract_z
N1 N 0.29068(11) 0.83213(10) 0.07915(8)
O1 O 0.21942(12) 0.71704(10) 0.10429(7)
H1 H 0.2484 0.7533 0.1077
C1 C 0.16771(13) 0.64186(12) 0.03708(10)
C2 C 0.23219(13) 0.75195(12) 0.01534(10)
C3 C 0.20660(13) 0.70426(13) 0.05320(10)
N2 N 0.10771(12) 0.53424(11) 0.06707(8)
C4 C 0.15537(13) 0.62890(13) -0.01596(10)
H2 H 0.1291 0.5874 -0.0261
C5 C 0.18028(13) 0.67498(12) -0.05488(9)
C6 C 0.21867(13) 0.73645(12) -0.03751(10)
H3 H 0.2360 0.7685 -0.0623
C7 C 0.27487(14) 0.81682(13) 0.03113(11)
H4 H 0.2911 0.8480 0.0055
C8 C 0.14529(14) 0.59159(14) 0.07614(11)
H5 H 0.1599 0.6028 0.1104
C9 C 0.09342(13) 0.49075(12) 0.11101(10)
H6 H 0.1220 0.5133 0.1401
C10 C 0.33349(13) 0.89718(12) 0.09440(10)
H7 H 0.3392 0.9249 0.0646
C11 C 0.02609(15) 0.46590(15) 0.12935(12)
H8 H 0.0208 0.5009 0.1399
H9 H -0.0025 0.4445 0.1004
C12 C 0.34743(15) 0.98058(15) 0.16070(13)
H10 H 0.3522 1.0106 0.1338
H11 H 0.3285 0.9881 0.1913
C13 C 0.30385(15) 0.91356(13) 0.14035(12)
H12 H 0.2948 0.8838 0.1687
H13 H 0.2644 0.9098 0.1290
C14 C 0.00966(17) 0.42065(16) 0.17519(12)
H14 H 0.0358 0.4428 0.2052
H15 H -0.0339 0.4045 0.1851
N1A N 0.16787(10) 0.45855(15) 0.07915(8)
O1A O 0.28296(10) 0.50238(16) 0.10429(7)
H1A H 0.2467 0.4951 0.1077
C1A C 0.35814(12) 0.52585(18) 0.03708(10)
C2A C 0.24805(12) 0.48024(18) 0.01534(10)
C3A C 0.29574(13) 0.50234(18) 0.05320(10)
N2A N 0.46576(11) 0.57347(16) 0.06707(8)
C4A C 0.37110(13) 0.52647(18) -0.01596(10)
H2A H 0.4126 0.5417 -0.0261
C5A C 0.32502(12) 0.50530(18) -0.05488(9)
C6A C 0.26355(12) 0.48222(18) -0.03751(10)
H3A H 0.2315 0.4675 -0.0623
C7A C 0.18318(13) 0.45805(19) 0.03113(11)
H4A H 0.1520 0.4431 0.0055
C8A C 0.40841(14) 0.55370(20) 0.07614(11)
H5A H 0.3972 0.5571 0.1104
C9A C 0.50925(12) 0.60267(18) 0.11101(10)
H6A H 0.4867 0.6087 0.1401
C10A C 0.10282(12) 0.43631(18) 0.09440(10)
H7A H 0.0751 0.4143 0.0646
C11A C 0.53410(15) 0.56019(21) 0.12935(12)
H8A H 0.4991 0.5199 0.1399
H9A H 0.5555 0.5530 0.1004
C12A C 0.01942(15) 0.36685(21) 0.16070(13)
H10A H -0.0106 0.3416 0.1338
H11A H 0.0119 0.3404 0.1913
C13A C 0.08644(13) 0.39029(20) 0.14035(12)
H12A H 0.1162 0.4110 0.1687
H13A H 0.0902 0.3546 0.1290
C14A C 0.57935(16) 0.58901(23) 0.17519(12)
H14A H 0.5572 0.5930 0.2052
H15A H 0.5955 0.5616 0.1851
N1B N 0.54145(15) 0.70932(11) 0.07915(8)
O1B O 0.49762(16) 0.78058(12) 0.10429(7)
H1B H 0.5049 0.7516 0.1077
C1B C 0.47415(18) 0.83229(13) 0.03708(10)
C2B C 0.51976(18) 0.76781(13) 0.01534(10)
C3B C 0.49766(18) 0.79340(13) 0.05320(10)
N2B N 0.42653(16) 0.89229(12) 0.06707(8)
C4B C 0.47353(18) 0.84463(13) -0.01596(10)
H2B H 0.4583 0.8709 -0.0261
C5B C 0.49470(18) 0.81972(13) -0.05488(9)
C6B C 0.51778(18) 0.78133(13) -0.03751(10)
H3B H 0.5325 0.7640 -0.0623
C7B C 0.54195(19) 0.72513(14) 0.03113(11)
H4B H 0.5569 0.7089 0.0055
C8B C 0.44630(20) 0.85471(14) 0.07614(11)
H5B H 0.4429 0.8401 0.1104
C9B C 0.39733(18) 0.90658(13) 0.11101(10)
H6B H 0.3913 0.8780 0.1401
C10B C 0.56369(18) 0.66651(13) 0.09440(10)
H7B H 0.5857 0.6608 0.0646
C11B C 0.43981(21) 0.97391(15) 0.12935(12)
H8B H 0.4801 0.9792 0.1399
H9B H 0.4470 1.0025 0.1004
C12B C 0.63315(21) 0.65257(15) 0.16070(13)
H10B H 0.6584 0.6478 0.1338
H11B H 0.6596 0.6715 0.1913
C13B C 0.60971(20) 0.69615(15) 0.14035(12)
H12B H 0.5890 0.7052 0.1687
H13B H 0.6454 0.7356 0.1290
C14B C 0.41099(23) 0.99034(17) 0.17519(12)
H14B H 0.4070 0.9642 0.2052
H15B H 0.4384 1.0339 0.1851
N1I N 0.49880(10) 0.62401(11) -0.24582(8)
O1I O 0.38371(10) 0.55275(12) -0.27096(7)
H1I H 0.4200 0.5817 -0.2744
C1I C 0.30853(12) 0.50104(13) -0.20375(10)
C2I C 0.41862(12) 0.56552(13) -0.18201(10)
C3I C 0.37093(13) 0.53993(13) -0.21987(10)
N2I N 0.20091(11) 0.44104(12) -0.23374(8)
C4I C 0.29557(13) 0.48870(13) -0.15071(10)
H2I H 0.2541 0.4624 -0.1406
C5I C 0.34165(12) 0.51361(13) -0.11179(9)
C6I C 0.40312(12) 0.55200(13) -0.12916(10)
H3I H 0.4352 0.5693 -0.1044
C7I C 0.48349(13) 0.60820(14) -0.19780(11)
H4I H 0.5147 0.6244 -0.1722
C8I C 0.25826(14) 0.47862(14) -0.24281(11)
H5I H 0.2695 0.4932 -0.2771
C9I C 0.15742(12) 0.42675(13) -0.27768(10)
H6I H 0.1800 0.4553 -0.3068
C10I C 0.56385(12) 0.66682(13) -0.26107(10)
H7I H 0.5916 0.6725 -0.2313
C11I C 0.13257(15) 0.35942(15) -0.29602(12)
H8I H 0.1676 0.3541 -0.3066
H9I H 0.1112 0.3308 -0.2671
C12I C 0.64725(15) 0.68076(15) -0.32737(13)
H10I H 0.6773 0.6855 -0.3005
H11I H 0.6548 0.6618 -0.3580
C13I C 0.58023(13) 0.63718(15) -0.30702(12)
H12I H 0.5505 0.6281 -0.3354
H13I H 0.5765 0.5977 -0.2957
C14I C 0.08732(16) 0.34299(17) -0.34186(12)
H14I H 0.1095 0.3691 -0.3719
H15I H 0.0712 0.2994 -0.3518
N1J N 0.12522(15) 0.50120(10) -0.24582(8)
O1J O 0.16905(16) 0.61629(10) -0.27096(7)
H1J H 0.1618 0.5800 -0.2744
C1J C 0.19252(18) 0.69147(12) -0.20375(10)
C2J C 0.14691(18) 0.58138(12) -0.18201(10)
C3J C 0.16901(18) 0.62907(13) -0.21987(10)
N2J N 0.24014(16) 0.79909(11) -0.23374(8)
C4J C 0.19314(18) 0.70443(13) -0.15071(10)
H2J H 0.2084 0.7459 -0.1406
C5J C 0.17197(18) 0.65835(12) -0.11179(9)
C6J C 0.14889(18) 0.59688(12) -0.12916(10)
H3J H 0.1342 0.5648 -0.1044
C7J C 0.12472(19) 0.51651(13) -0.19780(11)
H4J H 0.1098 0.4853 -0.1722
C8J C 0.22037(20) 0.74174(14) -0.24281(11)
H5J H 0.2238 0.7305 -0.2771
C9J C 0.26934(18) 0.84258(12) -0.27768(10)
H6J H 0.2754 0.8200 -0.3068
C10J C 0.10298(18) 0.43615(12) -0.26107(10)
H7J H 0.0810 0.4084 -0.2313
C11J C 0.22686(21) 0.86743(15) -0.29602(12)
H8J H 0.1866 0.8324 -0.3066
H9J H 0.2197 0.8888 -0.2671
C12J C 0.03352(21) 0.35275(15) -0.32737(13)
H10J H 0.0083 0.3227 -0.3005
H11J H 0.0071 0.3452 -0.3580
C13J C 0.05696(20) 0.41977(13) -0.30702(12)
H12J H 0.0777 0.4495 -0.3354
H13J H 0.0213 0.4235 -0.2957
C14J C 0.25568(23) 0.91268(16) -0.34186(12)
H14J H 0.2597 0.8905 -0.3719
H15J H 0.2283 0.9288 -0.3518
N1K N 0.37599(11) 0.87478(15) -0.24582(8)
O1K O 0.44725(12) 0.83095(16) -0.27096(7)
H1K H 0.4183 0.8382 -0.2744
C1K C 0.49896(13) 0.80748(18) -0.20375(10)
C2K C 0.43448(13) 0.85309(18) -0.18201(10)
C3K C 0.46007(13) 0.83099(18) -0.21987(10)
N2K N 0.55896(12) 0.75986(16) -0.23374(8)
C4K C 0.51130(13) 0.80686(18) -0.15071(10)
H2K H 0.5376 0.7916 -0.1406
C5K C 0.48639(13) 0.82803(18) -0.11179(9)
C6K C 0.44800(13) 0.85111(18) -0.12916(10)
H3K H 0.4307 0.8658 -0.1044
C7K C 0.39180(14) 0.87528(19) -0.19780(11)
H4K H 0.3756 0.8902 -0.1722
C8K C 0.52138(14) 0.77963(20) -0.24281(11)
H5K H 0.5068 0.7762 -0.2771
C9K C 0.57325(13) 0.73066(18) -0.27768(10)
H6K H 0.5447 0.7246 -0.3068
C10K C 0.33318(13) 0.89702(18) -0.26107(10)
H7K H 0.3275 0.9190 -0.2313
C11K C 0.64058(15) 0.77314(21) -0.29602(12)
H8K H 0.6459 0.8134 -0.3066
H9K H 0.6692 0.7803 -0.2671
C12K C 0.31924(15) 0.96648(21) -0.32737(13)
H10K H 0.3145 0.9917 -0.3005
H11K H 0.3382 0.9929 -0.3580
C13K C 0.36282(15) 0.94304(20) -0.30702(12)
H12K H 0.3719 0.9223 -0.3354
H13K H 0.4023 0.9787 -0.2957
C14K C 0.65701(17) 0.74432(23) -0.34186(12)
H14K H 0.6309 0.7403 -0.3719
H15K H 0.7006 0.7717 -0.3518
loop_
_geom_bond_atom_site_label_1
_geom_bond_atom_site_label_2
_geom_bond_site_symmetry_1
_geom_bond_site_symmetry_2
N1 C7 1_555 1_555
O1 H1 1_555 1_555
C1 C3 1_555 1_555
C2 C3 1_555 1_555
C3 O1 1_555 1_555
N2 C8 1_555 1_555
C4 C1 1_555 1_555
H2 C4 1_555 1_555
C5 C4 1_555 1_555
C6 C2 1_555 1_555
H3 C6 1_555 1_555
C7 C2 1_555 1_555
H4 C7 1_555 1_555
C8 C1 1_555 1_555
H5 C8 1_555 1_555
C9 N2 1_555 1_555
H6 C9 1_555 1_555
C10 N1 1_555 1_555
H7 C10 1_555 1_555
C11 C9 1_555 1_555
H8 C11 1_555 1_555
H9 C11 1_555 1_555
C12 H10 1_555 1_555
H11 C12 1_555 1_555
C13 C10 1_555 1_555
H12 C13 1_555 1_555
H13 C13 1_555 1_555
C14 C11 1_555 1_555
H14 C14 1_555 1_555
H15 C14 1_555 1_555
N1A C7A 1_555 1_555
O1A H1A 1_555 1_555
C1A C3A 1_555 1_555
C2A C3A 1_555 1_555
C3A O1A 1_555 1_555
N2A C8A 1_555 1_555
C4A C1A 1_555 1_555
H2A C4A 1_555 1_555
C5A C4A 1_555 1_555
C6A C2A 1_555 1_555
H3A C6A 1_555 1_555
C7A C2A 1_555 1_555
H4A C7A 1_555 1_555
C8A C1A 1_555 1_555
H5A C8A 1_555 1_555
C9A N2A 1_555 1_555
H6A C9A 1_555 1_555
C10A C9 1_555 1_555
H7A C10A 1_555 1_555
C11A C9A 1_555 1_555
H8A C11A 1_555 1_555
H9A C11A 1_555 1_555
C12A C14 1_555 1_555
H10A C12A 1_555 1_555
H11A C12A 1_555 1_555
C13A C10A 1_555 1_555
H12A C13A 1_555 1_555
H13A C13A 1_555 1_555
C14A C11A 1_555 1_555
H14A C14A 1_555 1_555
H15A C14A 1_555 1_555
N1B C7B 1_555 1_555
O1B H1B 1_555 1_555
C1B C3B 1_555 1_555
C2B C3B 1_555 1_555
C3B O1B 1_555 1_555
N2B C8B 1_555 1_555
C4B C1B 1_555 1_555
H2B C4B 1_555 1_555
C5B C4B 1_555 1_555
C6B C2B 1_555 1_555
H3B C6B 1_555 1_555
C7B C2B 1_555 1_555
H4B C7B 1_555 1_555
C8B C1B 1_555 1_555
H5B C8B 1_555 1_555
C9B C10 1_555 1_555
H6B C9B 1_555 1_555
C10B C9A 1_555 1_555
H7B C10B 1_555 1_555
C11B C9B 1_555 1_555
H8B C11B 1_555 1_555
H9B C11B 1_555 1_555
C12B C14A 1_555 1_555
H10B C12B 1_555 1_555
H11B C12B 1_555 1_555
C13B C10B 1_555 1_555
H12B C13B 1_555 1_555
H13B C13B 1_555 1_555
C14B C12 1_555 1_555
H14B C14B 1_555 1_555
H15B C14B 1_555 1_555
N1I C7I 1_555 1_555
O1I H1I 1_555 1_555
C1I C3I 1_555 1_555
C2I C3I 1_555 1_555
C3I O1I 1_555 1_555
N2I C8I 1_555 1_555
C4I C1I 1_555 1_555
H2I C4I 1_555 1_555
C5I C5A 1_555 1_555
C6I C2I 1_555 1_555
H3I C6I 1_555 1_555
C7I C2I 1_555 1_555
H4I C7I 1_555 1_555
C8I C1I 1_555 1_555
H5I C8I 1_555 1_555
C9I N2I 1_555 1_555
H6I C9I 1_555 1_555
C10I N1I 1_555 1_555
H7I C10I 1_555 1_555
C11I C9I 1_555 1_555
H8I C11I 1_555 1_555
H9I C11I 1_555 1_555
C12I H10I 1_555 1_555
H11I C12I 1_555 1_555
C13I C10I 1_555 1_555
H12I C13I 1_555 1_555
H13I C13I 1_555 1_555
C14I C11I 1_555 1_555
H14I C14I 1_555 1_555
H15I C14I 1_555 1_555
N1J C7J 1_555 1_555
O1J H1J 1_555 1_555
C1J C3J 1_555 1_555
C2J C3J 1_555 1_555
C3J O1J 1_555 1_555
N2J C8J 1_555 1_555
C4J C1J 1_555 1_555
H2J C4J 1_555 1_555
C5J C5 1_555 1_555
C6J C2J 1_555 1_555
H3J C6J 1_555 1_555
C7J C2J 1_555 1_555
H4J C7J 1_555 1_555
C8J C1J 1_555 1_555
H5J C8J 1_555 1_555
C9J N2J 1_555 1_555
H6J C9J 1_555 1_555
C10J C9I 1_555 1_555
H7J C10J 1_555 1_555
C11J C9J 1_555 1_555
H8J C11J 1_555 1_555
H9J C11J 1_555 1_555
C12J C14I 1_555 1_555
H10J C12J 1_555 1_555
H11J C12J 1_555 1_555
C13J C10J 1_555 1_555
H12J C13J 1_555 1_555
H13J C13J 1_555 1_555
C14J C11J 1_555 1_555
H14J C14J 1_555 1_555
H15J C14J 1_555 1_555
N1K C7K 1_555 1_555
O1K H1K 1_555 1_555
C1K C3K 1_555 1_555
C2K C3K 1_555 1_555
C3K O1K 1_555 1_555
N2K C8K 1_555 1_555
C4K C1K 1_555 1_555
H2K C4K 1_555 1_555
C5K C5B 1_555 1_555
C6K C2K 1_555 1_555
H3K C6K 1_555 1_555
C7K C2K 1_555 1_555
H4K C7K 1_555 1_555
C8K C1K 1_555 1_555
H5K C8K 1_555 1_555
C9K C10I 1_555 1_555
H6K C9K 1_555 1_555
C10K C9J 1_555 1_555
H7K C10K 1_555 1_555
C11K C9K 1_555 1_555
H8K C11K 1_555 1_555
H9K C11K 1_555 1_555
C12K C14J 1_555 1_555
H10K C12K 1_555 1_555
H11K C12K 1_555 1_555
C13K C10K 1_555 1_555
H12K C13K 1_555 1_555
H13K C13K 1_555 1_555
C14K C12I 1_555 1_555
H14K C14K 1_555 1_555
H15K C14K 1_555 1_555
C5 C6 1_555 1_555
C12 C13 1_555 1_555
N1A C10A 1_555 1_555
C5A C6A 1_555 1_555
C12A C13A 1_555 1_555
N1B C10B 1_555 1_555
N2B C9B 1_555 1_555
C5B C6B 1_555 1_555
C11B C14B 1_555 1_555
C12B C13B 1_555 1_555
C4I C5I 1_555 1_555
C5I C6I 1_555 1_555
C12I C13I 1_555 1_555
N1J C10J 1_555 1_555
C4J C5J 1_555 1_555
C5J C6J 1_555 1_555
C12J C13J 1_555 1_555
N1K C10K 1_555 1_555
N2K C9K 1_555 1_555
C4K C5K 1_555 1_555
C5K C6K 1_555 1_555
C11K C14K 1_555 1_555
C12K C13K 1_555 1_555

#END
