
#######################################################################
#
#                 Cambridge Crystallographic Data Centre
#                                CCDC 
#
#######################################################################
#
# If this CIF has been generated from an entry in the Cambridge 
# Structural Database, then it will include bibliographic, chemical, 
# crystal, experimental, refinement or atomic coordinate data resulting 
# from the CCDC's data processing and validation procedures.
#
#######################################################################

data_LAXWIT
_chemical_formula_moiety         'C84 H90 N12 O6,1.5(H1 O1 1-),1.5(Na1 1+)'
_chemical_name_systematic        
"14,14':29,29':44,44'-bi(46,47,48-trihydroxy-3,10,18,25,33,40-hexaazaheptacyclo[40.3.1.1^12,16^.1^27,31^.0^4,9^.0^19,24^.0^34,39^]octatetraconta-1(46),2,10,12(48),13,15,17,25,27(47),28,30,32,40,42,44-pentadecaene) sesqui-sodium sesqui-hydroxide"
_symmetry_cell_setting           tetragonal
_symmetry_space_group_name_H-M   'P 43 21 2'
_symmetry_Int_Tables_number      96
_space_group_name_Hall           'P 4nw 2abw'
loop_
_symmetry_equiv_pos_site_id
_symmetry_equiv_pos_as_xyz
1 x,y,z
2 -x,-y,1/2+z
3 1/2-y,1/2+x,3/4+z
4 1/2+y,1/2-x,1/4+z
5 1/2-x,1/2+y,3/4-z
6 1/2+x,1/2-y,1/4-z
7 y,x,-z
8 -y,-x,1/2-z
_cell_length_a                   27.6316(2)
_cell_length_b                   27.6316(2)
_cell_length_c                   38.9168(5)
_cell_angle_alpha                90
_cell_angle_beta                 90
_cell_angle_gamma                90
_cell_volume                     29713.2
_exptl_crystal_colour            red
_exptl_crystal_description       block
_cell_formula_units_Z            8
loop_
_atom_site_label
_atom_site_type_symbol
_atom_site_fract_x
_atom_site_fract_y
_atom_site_fract_z
Na1 Na 0.15407(15) 0.15407(15) 0.0000
Na2 Na 0.02257(19) 0.02257(19) 0.0000
Na3 Na -0.14580(15) 0.14580(15) 0.2500
C1 C 0.1675(2) 0.2710(2) 0.11631(15)
C2 C 0.1646(2) 0.2339(2) 0.09144(14)
C3 C 0.1239(2) 0.2316(2) 0.07044(15)
H1 H 0.1230 0.2076 0.0530
C4 C 0.0841(2) 0.2627(2) 0.07368(15)
C5 C 0.0893(2) 0.2988(2) 0.09895(16)
H2 H 0.0637 0.3214 0.1018
C6 C 0.1286(2) 0.3035(2) 0.11952(14)
C7 C 0.2022(2) 0.1980(2) 0.08895(14)
H3 H 0.2263 0.1979 0.1063
C8 C 0.2454(2) 0.1309(2) 0.06860(13)
H4 H 0.2604 0.1344 0.0919
C9 C 0.2252(2) 0.0802(2) 0.06505(14)
H5 H 0.2086 0.0770 0.0423
C10 C 0.2656(2) 0.0422(2) 0.06761(15)
H6 H 0.2518 0.0095 0.0643
H7 H 0.2804 0.0435 0.0907
C11 C 0.3046(2) 0.0519(2) 0.04010(17)
H8 H 0.3317 0.0289 0.0430
H9 H 0.2907 0.0471 0.0169
C12 C 0.3235(2) 0.1040(3) 0.04356(16)
H10 H 0.3401 0.1076 0.0659
H11 H 0.3474 0.1103 0.0252
C13 C 0.2843(2) 0.1400(2) 0.04127(15)
H12 H 0.2693 0.1384 0.0182
H13 H 0.2979 0.1728 0.0444
C14 C 0.1451(2) 0.0668(2) 0.08570(15)
H14 H 0.1344 0.0701 0.0626
C15 C 0.1097(2) 0.0578(2) 0.11253(16)
C16 C 0.1232(2) 0.0534(2) 0.14675(18)
C17 C 0.0878(3) 0.0474(3) 0.17226(16)
C18 C 0.0392(2) 0.0461(2) 0.16206(17)
H15 H 0.0150 0.0417 0.1791
C19 C 0.0249(2) 0.0510(2) 0.12782(18)
C20 C 0.0597(2) 0.0566(2) 0.10344(17)
H16 H 0.0506 0.0598 0.0800
C21 C 0.1021(2) 0.0470(3) 0.20864(19)
H17 H 0.1355 0.0485 0.2143
C22 C 0.0919(3) 0.0449(3) 0.26795(17)
H18 H 0.1262 0.0565 0.2679
C23 C 0.0595(2) 0.0790(3) 0.29046(16)
H19 H 0.0253 0.0673 0.2902
C24 C 0.0790(3) 0.0796(3) 0.32810(17)
H20 H 0.0575 0.0991 0.3430
H21 H 0.1119 0.0938 0.3288
C25 C 0.0804(3) 0.0256(3) 0.34100(18)
H22 H 0.0940 0.0249 0.3645
H23 H 0.0468 0.0131 0.3422
C26 C 0.1092(4) -0.0067(3) 0.31887(19)
H24 H 0.1081 -0.0401 0.3280
H25 H 0.1434 0.0041 0.3188
C27 C 0.0891(3) -0.0060(3) 0.2817(2)
H26 H 0.1084 -0.0280 0.2669
H27 H 0.0551 -0.0173 0.2815
C28 C 0.0253(3) 0.1474(3) 0.26416(17)
H28 H -0.0040 0.1294 0.2635
C29 C 0.0249(2) 0.1955(3) 0.24966(17)
C30 C 0.0673(3) 0.2244(3) 0.25172(16)
C31 C 0.0663(3) 0.2688(3) 0.23526(16)
C32 C 0.0262(2) 0.2845(2) 0.21848(14)
H29 H 0.0265 0.3158 0.2084
C33 C -0.0164(2) 0.2557(3) 0.21547(17)
C34 C -0.0149(2) 0.2130(3) 0.23212(17)
H30 H -0.0433 0.1935 0.2318
C35 C 0.1113(3) 0.2977(3) 0.23572(16)
H31 H 0.1401 0.2825 0.2436
C36 C 0.1599(3) 0.3638(3) 0.22493(17)
H32 H 0.1855 0.3388 0.2291
C37 C 0.1675(2) 0.3850(2) 0.19099(18)
H33 H 0.1404 0.4078 0.1859
C38 C 0.2174(3) 0.4131(3) 0.18715(19)
H34 H 0.2448 0.3904 0.1902
H35 H 0.2198 0.4276 0.1639
C39 C 0.2195(4) 0.4526(3) 0.2143(2)
H36 H 0.1941 0.4769 0.2097
H37 H 0.2513 0.4691 0.2132
C40 C 0.2122(4) 0.4312(3) 0.2508(2)
H38 H 0.2390 0.4086 0.2561
H39 H 0.2129 0.4577 0.2680
C41 C 0.1653(3) 0.4052(3) 0.25302(19)
H40 H 0.1386 0.4288 0.2501
H41 H 0.1622 0.3907 0.2762
C42 C 0.1306(3) 0.3420(2) 0.14412(16)
H42 H 0.1043 0.3641 0.1457
C43 C -0.0453(2) 0.2456(3) 0.01387(16)
C44 C -0.0107(2) 0.2085(2) 0.01454(15)
C45 C 0.0317(2) 0.2160(2) 0.03395(15)
H43 H 0.0553 0.1910 0.0343
C46 C 0.0407(2) 0.2570(2) 0.05214(16)
C47 C 0.0048(2) 0.2954(2) 0.05093(15)
H44 H 0.0099 0.3250 0.0628
C48 C -0.0384(2) 0.2877(3) 0.03152(16)
C49 C -0.0181(3) 0.1665(3) -0.00446(15)
H45 H 0.0071 0.1431 -0.0039
C50 C -0.0609(2) 0.1089(3) -0.03967(15)
H46 H -0.0288 0.0923 -0.0401
C51 C -0.0943(2) 0.0779(3) -0.02145(17)
H47 H -0.1259 0.0952 -0.0188
C52 C -0.1030(3) 0.0292(3) -0.0424(2)
H48 H -0.0724 0.0108 -0.0440
H49 H -0.1270 0.0088 -0.0302
C53 C -0.1210(3) 0.0409(4) -0.0772(2)
H50 H -0.1529 0.0569 -0.0754
H51 H -0.1252 0.0106 -0.0904
C54 C -0.0857(3) 0.0743(3) -0.09630(19)
H52 H -0.0550 0.0568 -0.1004
H53 H -0.0996 0.0830 -0.1189
C55 C -0.0753(3) 0.1194(3) -0.07674(16)
H54 H -0.1044 0.1403 -0.0769
H55 H -0.0488 0.1372 -0.0882
C56 C -0.1037(2) 0.0737(3) 0.03831(18)
H56 H -0.1354 0.0853 0.0338
C57 C -0.0889(2) 0.0650(2) 0.07450(15)
C58 C -0.1241(2) 0.0720(2) 0.10016(17)
C59 C -0.1107(2) 0.0687(2) 0.13410(17)
C60 C -0.0634(3) 0.0604(2) 0.14283(16)
H57 H -0.0548 0.0589 0.1664
C61 C -0.0281(2) 0.0542(2) 0.11843(17)
C62 C -0.0424(2) 0.0575(2) 0.08373(16)
H58 H -0.0186 0.0543 0.0663
C63 C -0.1462(2) 0.0802(2) 0.16178(17)
H59 H -0.1364 0.0780 0.1851
C64 C -0.2216(2) 0.1043(2) 0.18411(15)
H60 H -0.2056 0.0955 0.2063
C65 C -0.2321(2) 0.1581(2) 0.18325(14)
H61 H -0.2467 0.1670 0.1606
C66 C -0.2685(2) 0.1708(2) 0.21332(17)
H62 H -0.2534 0.1635 0.2358
H63 H -0.2765 0.2057 0.2127
C67 C -0.3155(3) 0.1401(3) 0.2087(2)
H64 H -0.3383 0.1472 0.2277
H65 H -0.3315 0.1489 0.1868
C68 C -0.3041(2) 0.0886(3) 0.20856(19)
H66 H -0.3342 0.0697 0.2052
H67 H -0.2901 0.0794 0.2310
C69 C -0.2683(2) 0.0764(2) 0.18007(16)
H68 H -0.2613 0.0412 0.1805
H69 H -0.2830 0.0841 0.1575
C70 C -0.1806(2) 0.2225(2) 0.16916(15)
H70 H -0.2041 0.2296 0.1521
C71 C -0.1396(2) 0.2529(2) 0.17124(16)
C72 C -0.1349(3) 0.2932(2) 0.14982(15)
C73 C -0.0919(3) 0.3229(2) 0.15010(17)
C74 C -0.0547(2) 0.3087(2) 0.17308(18)
H71 H -0.0258 0.3273 0.1733
C75 C -0.0574(2) 0.2707(2) 0.19462(16)
C76 C -0.1007(2) 0.2425(2) 0.19376(15)
H72 H -0.1034 0.2156 0.2089
C77 C -0.0873(3) 0.3631(3) 0.12813(19)
H73 H -0.0580 0.3811 0.1285
C78 C -0.1145(3) 0.4185(2) 0.08491(18)
H74 H -0.0829 0.4336 0.0913
C79 C -0.1102(3) 0.4005(2) 0.04750(17)
H75 H -0.1403 0.3826 0.0410
C80 C -0.1017(3) 0.4425(3) 0.02184(19)
H76 H -0.0988 0.4298 -0.0019
H77 H -0.0716 0.4601 0.0277
C81 C -0.1461(4) 0.4767(3) 0.0247(3)
H78 H -0.1764 0.4587 0.0200
H79 H -0.1433 0.5035 0.0080
C82 C -0.1463(4) 0.4985(3) 0.0654(3)
H80 H -0.1157 0.5157 0.0703
H81 H -0.1735 0.5213 0.0686
C83 C -0.1520(3) 0.4548(3) 0.0894(2)
H82 H -0.1513 0.4663 0.1135
H83 H -0.1839 0.4397 0.0853
C84 C -0.0743(3) 0.3272(3) 0.03320(15)
H84 H -0.1054 0.3205 0.0239
N1 N 0.20572(16) 0.16635(17) 0.06533(11)
N2 N 0.19073(19) 0.07038(16) 0.09251(11)
N3 N 0.07196(19) 0.0449(2) 0.23222(15)
N4 N 0.0618(2) 0.1279(2) 0.27759(13)
N5 N 0.1139(2) 0.3409(2) 0.22637(14)
N6 N 0.1684(2) 0.34736(17) 0.16473(13)
N7 N -0.05447(19) 0.15618(19) -0.02218(12)
N8 N -0.07520(18) 0.06595(18) 0.01299(15)
N9 N -0.18913(17) 0.09286(18) 0.15480(12)
N10 N -0.18825(17) 0.18593(18) 0.18881(11)
N11 N -0.1216(2) 0.3767(2) 0.10723(16)
N12 N -0.0682(2) 0.3676(2) 0.04525(14)
O1 O 0.20659(14) 0.27377(16) 0.13611(10)
H85 H 0.2017 0.2939 0.1519
O2 O 0.17016(14) 0.0553(2) 0.15595(11)
H86 H 0.1872 0.0609 0.1385
O3 O 0.10600(18) 0.20921(18) 0.26848(12)
H87 H 0.0991 0.1775 0.2773
O4 O -0.08592(16) 0.24142(16) -0.00510(11)
H88 H -0.0796 0.2206 -0.0243
O5 O -0.17059(16) 0.08257(19) 0.09078(10)
H89 H -0.1822 0.1087 0.1048
O6 O -0.17160(14) 0.30464(15) 0.12841(10)
H90 H -0.1708 0.3395 0.1239
O7 O 0.0779(3) 0.0943(3) 0.01770(19)
H91 H 0.0694 0.1022 0.0381
O8 O -0.0791(3) 0.0791(3) 0.2500
H92? H -0.0750 0.0677 0.2271
loop_
_geom_bond_atom_site_label_1
_geom_bond_atom_site_label_2
_geom_bond_site_symmetry_1
_geom_bond_site_symmetry_2
C1 C2 1_555 1_555
C2 C3 1_555 1_555
C3 H1 1_555 1_555
C4 C3 1_555 1_555
C5 C4 1_555 1_555
H2 C5 1_555 1_555
C6 C1 1_555 1_555
C7 C2 1_555 1_555
H3 C7 1_555 1_555
C8 H4 1_555 1_555
C9 C8 1_555 1_555
H5 C9 1_555 1_555
C10 C9 1_555 1_555
H6 C10 1_555 1_555
H7 C10 1_555 1_555
C11 C10 1_555 1_555
H8 C11 1_555 1_555
H9 C11 1_555 1_555
C12 C11 1_555 1_555
H10 C12 1_555 1_555
H11 C12 1_555 1_555
C13 C8 1_555 1_555
H12 C13 1_555 1_555
H13 C13 1_555 1_555
C14 H14 1_555 1_555
C15 C14 1_555 1_555
C16 C15 1_555 1_555
C17 C16 1_555 1_555
C18 C17 1_555 1_555
H15 C18 1_555 1_555
C19 C18 1_555 1_555
C20 C15 1_555 1_555
H16 C20 1_555 1_555
C21 C17 1_555 1_555
H17 C21 1_555 1_555
C22 H18 1_555 1_555
C23 C22 1_555 1_555
H19 C23 1_555 1_555
C24 C23 1_555 1_555
H20 C24 1_555 1_555
H21 C24 1_555 1_555
C25 C24 1_555 1_555
H22 C25 1_555 1_555
H23 C25 1_555 1_555
C26 C25 1_555 1_555
H24 C26 1_555 1_555
H25 C26 1_555 1_555
C27 C22 1_555 1_555
H26 C27 1_555 1_555
H27 C27 1_555 1_555
C28 H28 1_555 1_555
C29 C28 1_555 1_555
C30 C29 1_555 1_555
C31 C30 1_555 1_555
C32 C31 1_555 1_555
H29 C32 1_555 1_555
C33 C32 1_555 1_555
C34 C29 1_555 1_555
H30 C34 1_555 1_555
C35 C31 1_555 1_555
H31 C35 1_555 1_555
C36 H32 1_555 1_555
C37 C36 1_555 1_555
H33 C37 1_555 1_555
C38 C37 1_555 1_555
H34 C38 1_555 1_555
H35 C38 1_555 1_555
C39 C38 1_555 1_555
H36 C39 1_555 1_555
H37 C39 1_555 1_555
C40 C39 1_555 1_555
H38 C40 1_555 1_555
H39 C40 1_555 1_555
C41 C36 1_555 1_555
H40 C41 1_555 1_555
H41 C41 1_555 1_555
C42 C6 1_555 1_555
H42 C42 1_555 1_555
C43 C44 1_555 1_555
C44 C45 1_555 1_555
C45 H43 1_555 1_555
C46 C4 1_555 1_555
C47 C46 1_555 1_555
H44 C47 1_555 1_555
C48 C43 1_555 1_555
C49 C44 1_555 1_555
H45 C49 1_555 1_555
C50 H46 1_555 1_555
C51 C50 1_555 1_555
H47 C51 1_555 1_555
C52 C51 1_555 1_555
H48 C52 1_555 1_555
H49 C52 1_555 1_555
C53 C52 1_555 1_555
H50 C53 1_555 1_555
H51 C53 1_555 1_555
C54 C53 1_555 1_555
H52 C54 1_555 1_555
H53 C54 1_555 1_555
C55 C50 1_555 1_555
H54 C55 1_555 1_555
H55 C55 1_555 1_555
C56 H56 1_555 1_555
C57 C56 1_555 1_555
C58 C57 1_555 1_555
C59 C58 1_555 1_555
C60 C59 1_555 1_555
H57 C60 1_555 1_555
C61 C19 1_555 1_555
C62 C57 1_555 1_555
H58 C62 1_555 1_555
C63 C59 1_555 1_555
H59 C63 1_555 1_555
C64 H60 1_555 1_555
C65 C64 1_555 1_555
H61 C65 1_555 1_555
C66 C65 1_555 1_555
H62 C66 1_555 1_555
H63 C66 1_555 1_555
C67 C66 1_555 1_555
H64 C67 1_555 1_555
H65 C67 1_555 1_555
C68 C67 1_555 1_555
H66 C68 1_555 1_555
H67 C68 1_555 1_555
C69 C64 1_555 1_555
H68 C69 1_555 1_555
H69 C69 1_555 1_555
C70 H70 1_555 1_555
C71 C70 1_555 1_555
C72 C71 1_555 1_555
C73 C72 1_555 1_555
C74 C73 1_555 1_555
H71 C74 1_555 1_555
C75 C33 1_555 1_555
C76 C71 1_555 1_555
H72 C76 1_555 1_555
C77 C73 1_555 1_555
H73 C77 1_555 1_555
C78 H74 1_555 1_555
C79 C78 1_555 1_555
H75 C79 1_555 1_555
C80 C79 1_555 1_555
H76 C80 1_555 1_555
H77 C80 1_555 1_555
C81 C80 1_555 1_555
H78 C81 1_555 1_555
H79 C81 1_555 1_555
C82 C81 1_555 1_555
H80 C82 1_555 1_555
H81 C82 1_555 1_555
C83 C78 1_555 1_555
H82 C83 1_555 1_555
H83 C83 1_555 1_555
C84 C48 1_555 1_555
H84 C84 1_555 1_555
N1 C7 1_555 1_555
N2 C9 1_555 1_555
N3 C21 1_555 1_555
N4 C23 1_555 1_555
N5 C35 1_555 1_555
N6 C37 1_555 1_555
N7 C49 1_555 1_555
N8 C51 1_555 1_555
N9 C63 1_555 1_555
N10 C65 1_555 1_555
N11 C77 1_555 1_555
N12 C79 1_555 1_555
O1 C1 1_555 1_555
H85 O1 1_555 1_555
O2 C16 1_555 1_555
H86 O2 1_555 1_555
O3 C30 1_555 1_555
H87 O3 1_555 1_555
O4 C43 1_555 1_555
H88 O4 1_555 1_555
O5 C58 1_555 1_555
H89 O5 1_555 1_555
O6 C72 1_555 1_555
H90 O6 1_555 1_555
O7 H91 1_555 1_555
C5 C6 1_555 1_555
C8 N1 1_555 1_555
C12 C13 1_555 1_555
C14 N2 1_555 1_555
C19 C20 1_555 1_555
C22 N3 1_555 1_555
C26 C27 1_555 1_555
C28 N4 1_555 1_555
C33 C34 1_555 1_555
C36 N5 1_555 1_555
C40 C41 1_555 1_555
C42 N6 1_555 1_555
C45 C46 1_555 1_555
C47 C48 1_555 1_555
C50 N7 1_555 1_555
C54 C55 1_555 1_555
C56 N8 1_555 1_555
C60 C61 1_555 1_555
C61 C62 1_555 1_555
C64 N9 1_555 1_555
C68 C69 1_555 1_555
C70 N10 1_555 1_555
C74 C75 1_555 1_555
C75 C76 1_555 1_555
C78 N11 1_555 1_555
C82 C83 1_555 1_555
C84 N12 1_555 1_555

#END
