
#######################################################################
#
#                 Cambridge Crystallographic Data Centre
#                                CCDC 
#
#######################################################################
#
# If this CIF has been generated from an entry in the Cambridge 
# Structural Database, then it will include bibliographic, chemical, 
# crystal, experimental, refinement or atomic coordinate data resulting 
# from the CCDC's data processing and validation procedures.
#
#######################################################################

data_LAXYER
_chemical_formula_moiety         'C22 H31 F17 P1 1+,C2 N3 1-'
_chemical_name_systematic        
'tributyl(3,3,4,4,5,5,6,6,7,7,8,8,9,9,10,10,10-heptadecafluorodecyl)phosphonium dicyanamide'
_symmetry_cell_setting           triclinic
_symmetry_space_group_name_H-M   'P -1'
_symmetry_Int_Tables_number      2
_space_group_name_Hall           '-P 1'
loop_
_symmetry_equiv_pos_site_id
_symmetry_equiv_pos_as_xyz
1 x,y,z
2 -x,-y,-z
_cell_length_a                   10.1936(7)
_cell_length_b                   12.6081(10)
_cell_length_c                   25.0746(17)
_cell_angle_alpha                102.184(4)
_cell_angle_beta                 97.398(4)
_cell_angle_gamma                94.832(5)
_cell_volume                     3103.12
_exptl_crystal_colour            colorless
_exptl_crystal_description       plate
_cell_formula_units_Z            4
_exptl_crystal_recrystallization_method 'dichlormethane, heptane'
loop_
_atom_site_label
_atom_site_type_symbol
_atom_site_fract_x
_atom_site_fract_y
_atom_site_fract_z
P1 P 1.23322(7) 0.33554(6) 0.80514(3)
C1 C 1.2200(3) 0.3939(3) 0.74530(13)
H1 H 1.2912 0.4556 0.7515
H2 H 1.2358 0.3381 0.7133
C2 C 1.0858(3) 0.4352(3) 0.73085(12)
H3 H 1.0127 0.3761 0.7274
H4 H 1.0731 0.4971 0.7607
C3 C 1.0817(3) 0.4718(2) 0.67707(12)
C4 C 0.9489(3) 0.5125(2) 0.65761(12)
C5 C 0.9513(3) 0.5692(2) 0.60821(12)
C6 C 0.8123(3) 0.5673(2) 0.57436(12)
C7 C 0.8086(3) 0.6492(2) 0.53582(12)
C8 C 0.6855(3) 0.6254(2) 0.48980(12)
C9 C 0.6615(3) 0.7212(3) 0.46142(13)
C10 C 0.5595(3) 0.6928(3) 0.40830(14)
F1 F 1.10147(18) 0.38698(15) 0.63659(7)
F2 F 1.18059(17) 0.55281(15) 0.68071(8)
F3 F 0.85450(17) 0.42627(15) 0.64400(8)
F4 F 0.91625(18) 0.58439(15) 0.70033(7)
F5 F 1.02908(18) 0.52007(16) 0.57417(7)
F6 F 1.00393(18) 0.67338(14) 0.62817(8)
F7 F 0.77563(18) 0.46664(14) 0.54306(8)
F8 F 0.72446(17) 0.59067(15) 0.60921(7)
F9 F 0.91891(16) 0.64710(15) 0.51199(7)
F10 F 0.80855(18) 0.75014(14) 0.56698(7)
F11 F 0.70239(18) 0.53858(15) 0.45126(7)
F12 F 0.57644(16) 0.60208(15) 0.51182(7)
F13 F 0.77703(17) 0.76064(16) 0.44863(8)
F14 F 0.61727(19) 0.80108(15) 0.49656(8)
F15 F 0.6042(2) 0.6273(2) 0.36802(8)
F16 F 0.5380(2) 0.7846(2) 0.39180(10)
F17 F 0.44619(19) 0.6470(2) 0.41647(9)
C11 C 1.2085(3) 0.4366(3) 0.86414(13)
H5 H 1.2590 0.5068 0.8636
H6 H 1.1129 0.4472 0.8610
C12 C 1.2513(4) 0.4078(3) 0.91958(13)
H7 H 1.2112 0.3331 0.9187
H8 H 1.3494 0.4089 0.9259
C13 C 1.2086(5) 0.4878(3) 0.96664(15)
H9 H 1.1102 0.4817 0.9617
H10 H 1.2417 0.5630 0.9650
C14 C 1.2600(6) 0.4686(4) 1.02326(17)
H11 H 1.2312 0.3932 1.0246
H12 H 1.2244 0.5190 1.0517
H13 H 1.3575 0.4812 1.0299
C15 C 1.1071(3) 0.2213(2) 0.79466(13)
H14 H 1.1066 0.1980 0.8300
H15 H 1.0193 0.2460 0.7850
C16 C 1.1232(3) 0.1219(3) 0.74985(13)
H16 H 1.1210 0.1434 0.7140
H17 H 1.2107 0.0962 0.7589
C17 C 1.0135(3) 0.0297(3) 0.74491(15)
H18 H 1.0097 0.0144 0.7818
H19 H 0.9271 0.0537 0.7324
C18 C 1.0322(4) -0.0748(3) 0.70522(17)
H20 H 1.0368 -0.0603 0.6686
H21 H 0.9570 -0.1301 0.7030
H22 H 1.1151 -0.1015 0.7185
C19 C 1.3964(3) 0.2915(3) 0.81593(13)
H23 H 1.4555 0.3511 0.8425
H24 H 1.3895 0.2280 0.8333
C20 C 1.4629(3) 0.2596(3) 0.76445(13)
H25 H 1.4042 0.2011 0.7370
H26 H 1.4753 0.3235 0.7477
C21 C 1.5976(3) 0.2198(3) 0.77840(16)
H27 H 1.6523 0.2750 0.8089
H28 H 1.5839 0.1513 0.7913
C22 C 1.6721(4) 0.1994(4) 0.72936(18)
H29 H 1.6176 0.1458 0.6988
H30 H 1.7561 0.1712 0.7397
H31 H 1.6907 0.2680 0.7178
P2 P 0.7371(2) 0.8875(2) 0.88127(10)
C23 C 0.6125(4) 0.7746(4) 0.78211(17)
H32 H 0.5266 0.7617 0.7955
H33 H 0.6702 0.7207 0.7927
C24 C 0.5872(3) 0.7544(3) 0.71965(17)
C25 C 0.6765(5) 0.8866(4) 0.81043(16)
H34 H 0.6109 0.9399 0.8088
H35 H 0.7512 0.9076 0.7918
C26 C 0.4899(4) 0.8279(3) 0.69646(15)
C27 C 0.4352(3) 0.7882(3) 0.63409(15)
C28 C 0.3765(3) 0.8745(3) 0.60602(14)
C29 C 0.2843(3) 0.8254(3) 0.55043(14)
C30 C 0.2592(3) 0.9041(3) 0.51213(14)
C31 C 0.1414(4) 0.8629(3) 0.46551(17)
C32 C 0.1368(5) 0.9188(4) 0.41712(18)
F18 F 0.5554(3) 0.92838(18) 0.70429(9)
F19 F 0.3855(2) 0.8317(3) 0.72364(10)
F20 F 0.5379(3) 0.6504(2) 0.69826(11)
F21 F 0.7033(2) 0.7705(2) 0.70131(9)
F22 F 0.5333(2) 0.7505(2) 0.60800(8)
F23 F 0.3403(2) 0.70482(19) 0.62824(10)
F24 F 0.4784(2) 0.93932(18) 0.59639(9)
F25 F 0.3088(2) 0.9361(2) 0.64017(9)
F26 F 0.3380(2) 0.74067(16) 0.52345(8)
F27 F 0.16658(19) 0.7888(2) 0.56242(10)
F28 F 0.3695(2) 0.9207(2) 0.48984(9)
F29 F 0.2373(2) 1.00003(16) 0.54218(9)
F30 F 0.1353(3) 0.75582(19) 0.44690(11)
F31 F 0.0282(2) 0.8805(2) 0.48812(12)
F32 F 0.0224(3) 0.8885(3) 0.38473(14)
F33 F 0.1507(3) 1.0243(2) 0.43407(12)
F34 F 0.2298(4) 0.8896(4) 0.38810(12)
C33 C 0.7631(5) 1.0308(4) 0.9119(2)
H36 H 0.6751 1.0585 0.9124
H37 H 0.8053 1.0410 0.9508
C34 C 0.8492(5) 1.1005(4) 0.8834(2)
H38 H 0.9389 1.0757 0.8840
H39 H 0.8087 1.0906 0.8443
C35 C 0.8620(6) 1.2219(5) 0.9121(2)
H40 H 0.9086 1.2650 0.8899
H41 H 0.7717 1.2449 0.9129
C36 C 0.9368(10) 1.2487(8) 0.9708(3)
H42 H 0.9410 1.3272 0.9864
H43 H 0.8902 1.2080 0.9933
H44 H 1.0273 1.2281 0.9703
C37 C 0.6303(6) 0.8163(5) 0.9195(3)
H45 H 0.6073 0.7396 0.8988
H46 H 0.6826 0.8153 0.9555
C38 C 0.5070(6) 0.8622(5) 0.9299(3)
H47 H 0.4561 0.8690 0.8946
H48 H 0.5280 0.9361 0.9543
C39 C 0.4215(6) 0.7875(6) 0.9576(3)
H49 H 0.3356 0.8175 0.9611
H50 H 0.4017 0.7144 0.9323
C40 C 0.4799(7) 0.7728(6) 1.0134(3)
H51 H 0.4171 0.7244 1.0263
H52 H 0.5636 0.7404 1.0106
H53 H 0.4972 0.8439 1.0395
C41 C 0.8868(4) 0.8227(3) 0.88844(15)
H54 H 0.9405 0.8607 0.9242
H55 H 0.8605 0.7470 0.8914
C42 C 0.9786(4) 0.8163(3) 0.84462(15)
H56 H 0.9259 0.7853 0.8078
H57 H 1.0183 0.8909 0.8448
C43 C 1.0886(4) 0.7463(4) 0.8548(2)
H58 H 1.0483 0.6708 0.8523
H59 H 1.1364 0.7745 0.8928
C44 C 1.1884(4) 0.7435(4) 0.8146(2)
H60 H 1.1435 0.7094 0.7772
H61 H 1.2600 0.7011 0.8249
H62 H 1.2262 0.8182 0.8157
N1 N 0.2244(3) 0.0745(3) 0.88518(15)
N2 N 0.4210(4) 0.0284(3) 0.84240(16)
N3 N 0.1584(4) 0.0172(4) 0.96600(16)
C53 C 0.3311(4) 0.0467(3) 0.86432(16)
C54 C 0.1962(4) 0.0425(3) 0.92857(16)
N4 N 0.7307(3) 0.5654(3) 0.83113(19)
N5 N 0.4913(3) 0.5464(3) 0.83364(17)
N6 N 0.8833(3) 0.4260(3) 0.82294(15)
C55 C 0.6031(4) 0.5481(3) 0.83193(17)
C56 C 0.8070(3) 0.4871(3) 0.82604(15)
P3? P 0.7766(5) 0.9249(4) 0.8833(2)
C45? C 0.8767(12) 1.0558(10) 0.9032(5)
H63? H 0.9239 1.0636 0.9412
H64? H 0.9451 1.0558 0.8786
C46? C 0.8043(14) 1.1542(12) 0.9020(6)
H65? H 0.7701 1.1550 0.8633
H66? H 0.7272 1.1505 0.9221
C47? C 0.8949(17) 1.2568(14) 0.9280(7)
H67? H 0.8435 1.3197 0.9268
H68? H 0.9665 1.2626 0.9052
C48? C 0.454(2) 0.7237(17) 0.9878(11)
H69? H 0.3784 0.7329 1.0079
H70? H 0.4281 0.6670 0.9538
H71? H 0.5279 0.7021 1.0109
C49? C 0.6497(13) 0.9226(11) 0.9244(6)
H72? H 0.6777 0.9832 0.9573
H73? H 0.5704 0.9431 0.9035
C50? C 0.5983(15) 0.8204(13) 0.9470(7)
H74? H 0.5766 0.7575 0.9149
H75? H 0.6747 0.8036 0.9713
C51? C 0.4956(16) 0.8226(13) 0.9745(7)
H76? H 0.4196 0.8445 0.9521
H77? H 0.5192 0.8795 1.0091
C52? C 0.959(3) 1.266(3) 0.9868(10)
H78? H 1.0157 1.3358 0.9999
H79? H 0.8891 1.2631 1.0102
H80? H 1.0124 1.2058 0.9885
loop_
_geom_bond_atom_site_label_1
_geom_bond_atom_site_label_2
_geom_bond_site_symmetry_1
_geom_bond_site_symmetry_2
P1 C1 1_555 1_555
C1 H1 1_555 1_555
H2 C1 1_555 1_555
C2 C1 1_555 1_555
H3 C2 1_555 1_555
H4 C2 1_555 1_555
C3 C2 1_555 1_555
C4 C3 1_555 1_555
C5 C4 1_555 1_555
C6 C5 1_555 1_555
C7 C6 1_555 1_555
C8 C7 1_555 1_555
C9 C8 1_555 1_555
C10 C9 1_555 1_555
F1 C3 1_555 1_555
F2 C3 1_555 1_555
F3 C4 1_555 1_555
F4 C4 1_555 1_555
F5 C5 1_555 1_555
F6 C5 1_555 1_555
F7 C6 1_555 1_555
F8 C6 1_555 1_555
F9 C7 1_555 1_555
F10 C7 1_555 1_555
F11 C8 1_555 1_555
F12 C8 1_555 1_555
F13 C9 1_555 1_555
F14 C9 1_555 1_555
F15 C10 1_555 1_555
F16 C10 1_555 1_555
F17 C10 1_555 1_555
C11 P1 1_555 1_555
H5 C11 1_555 1_555
H6 C11 1_555 1_555
C12 C11 1_555 1_555
H7 C12 1_555 1_555
H8 C12 1_555 1_555
C13 C12 1_555 1_555
H9 C13 1_555 1_555
H10 C13 1_555 1_555
C14 C13 1_555 1_555
H11 C14 1_555 1_555
H12 C14 1_555 1_555
H13 C14 1_555 1_555
C15 P1 1_555 1_555
H14 C15 1_555 1_555
H15 C15 1_555 1_555
C16 C15 1_555 1_555
H16 C16 1_555 1_555
H17 C16 1_555 1_555
C17 C16 1_555 1_555
H18 C17 1_555 1_555
H19 C17 1_555 1_555
C18 C17 1_555 1_555
H20 C18 1_555 1_555
H21 C18 1_555 1_555
H22 C18 1_555 1_555
C19 P1 1_555 1_555
H23 C19 1_555 1_555
H24 C19 1_555 1_555
C20 C19 1_555 1_555
H25 C20 1_555 1_555
H26 C20 1_555 1_555
C21 C20 1_555 1_555
H27 C21 1_555 1_555
H28 C21 1_555 1_555
C22 C21 1_555 1_555
H29 C22 1_555 1_555
H30 C22 1_555 1_555
H31 C22 1_555 1_555
P2 C25 1_555 1_555
C23 H32 1_555 1_555
H33 C23 1_555 1_555
C24 C23 1_555 1_555
C25 C23 1_555 1_555
H34 C25 1_555 1_555
H35 C25 1_555 1_555
C26 C24 1_555 1_555
C27 C26 1_555 1_555
C28 C27 1_555 1_555
C29 C28 1_555 1_555
C30 C29 1_555 1_555
C31 C30 1_555 1_555
C32 C31 1_555 1_555
F18 C26 1_555 1_555
F19 C26 1_555 1_555
F20 C24 1_555 1_555
F21 C24 1_555 1_555
F22 C27 1_555 1_555
F23 C27 1_555 1_555
F24 C28 1_555 1_555
F25 C28 1_555 1_555
F26 C29 1_555 1_555
F27 C29 1_555 1_555
F28 C30 1_555 1_555
F29 C30 1_555 1_555
F30 C31 1_555 1_555
F31 C31 1_555 1_555
F32 C32 1_555 1_555
F33 C32 1_555 1_555
F34 C32 1_555 1_555
C33 P2 1_555 1_555
H36 C33 1_555 1_555
H37 C33 1_555 1_555
C34 C33 1_555 1_555
H38 C34 1_555 1_555
H39 C34 1_555 1_555
C35 C34 1_555 1_555
H40 C35 1_555 1_555
H41 C35 1_555 1_555
C36 C35 1_555 1_555
H42 C36 1_555 1_555
H43 C36 1_555 1_555
H44 C36 1_555 1_555
C37 P2 1_555 1_555
H45 C37 1_555 1_555
H46 C37 1_555 1_555
C38 C37 1_555 1_555
H47 C38 1_555 1_555
H48 C38 1_555 1_555
C39 C38 1_555 1_555
H49 C39 1_555 1_555
H50 C39 1_555 1_555
C40 C39 1_555 1_555
H51 C40 1_555 1_555
H52 C40 1_555 1_555
H53 C40 1_555 1_555
C41 P2 1_555 1_555
H54 C41 1_555 1_555
H55 C41 1_555 1_555
C42 C41 1_555 1_555
H56 C42 1_555 1_555
H57 C42 1_555 1_555
C43 C42 1_555 1_555
H58 C43 1_555 1_555
H59 C43 1_555 1_555
C44 C43 1_555 1_555
H60 C44 1_555 1_555
H61 C44 1_555 1_555
H62 C44 1_555 1_555
N1 C53 1_555 1_555
N2 C53 1_555 1_555
N3 C54 1_555 1_555
C54 N1 1_555 1_555
N4 C55 1_555 1_555
N5 C55 1_555 1_555
N6 C56 1_555 1_555
C56 N4 1_555 1_555

#END
