
#######################################################################
#
#                 Cambridge Crystallographic Data Centre
#                                CCDC 
#
#######################################################################
#
# If this CIF has been generated from an entry in the Cambridge 
# Structural Database, then it will include bibliographic, chemical, 
# crystal, experimental, refinement or atomic coordinate data resulting 
# from the CCDC's data processing and validation procedures.
#
#######################################################################

data_LAYBOD
_chemical_formula_moiety         'C43 H33 N3 O4,C1 H4 O1'
_chemical_name_systematic        
'25-Hydroxy-26,27,28-tris(2-pyridyloxy)calix(4)arene methanol solvate'
_symmetry_cell_setting           tetragonal
_symmetry_space_group_name_H-M   'P -4 21 c'
_symmetry_Int_Tables_number      114
_space_group_name_Hall           'P -4 2n'
loop_
_symmetry_equiv_pos_site_id
_symmetry_equiv_pos_as_xyz
1 x,y,z
2 -x,-y,z
3 y,-x,-z
4 -y,x,-z
5 1/2-x,1/2+y,1/2-z
6 1/2+x,1/2-y,1/2-z
7 1/2-y,1/2-x,1/2+z
8 1/2+y,1/2+x,1/2+z
_cell_length_a                   26.240(3)
_cell_length_b                   26.240(3)
_cell_length_c                   10.3749(16)
_cell_angle_alpha                90
_cell_angle_beta                 90
_cell_angle_gamma                90
_cell_volume                     7143.51
_exptl_crystal_colour            colorless
_exptl_crystal_description       prism
_chemical_melting_point          'decomposes from 162 deg.C'
_cell_formula_units_Z            8
_exptl_crystal_recrystallization_method dichloromethane/methanol
loop_
_atom_site_label
_atom_site_type_symbol
_atom_site_fract_x
_atom_site_fract_y
_atom_site_fract_z
O1 O 0.87163(17) 1.01026(16) 0.7000(5)
H1 H 0.8772 0.9790 0.7112
O2 O 0.73600(16) 1.11833(13) 0.7198(4)
O3 O 0.69353(14) 1.00880(14) 0.7635(4)
O4 O 0.75276(15) 0.94024(13) 0.9662(3)
C1 C 0.8509(2) 1.0015(2) 0.9240(6)
C2 C 0.8550(2) 1.0314(2) 0.8127(6)
C3 C 0.8436(2) 1.0833(2) 0.8138(6)
C4 C 0.8304(2) 1.1060(2) 0.9285(6)
H2 H 0.8221 1.1413 0.9305
C5 C 0.8290(2) 1.0776(2) 1.0417(6)
H3 H 0.8223 1.0939 1.1216
C6 C 0.8375(2) 1.0255(2) 1.0378(6)
H4 H 0.8340 1.0059 1.1144
C7 C 0.8436(2) 1.1139(2) 0.6885(6)
H5 H 0.8344 1.1497 0.7076
H6 H 0.8784 1.1137 0.6515
C8 C 0.8066(2) 1.0926(2) 0.5903(6)
C9 C 0.7546(2) 1.0940(2) 0.6075(6)
C10 C 0.7199(3) 1.0708(2) 0.5270(6)
C11 C 0.7382(3) 1.0472(2) 0.4179(6)
H7 H 0.7151 1.0316 0.3594
C12 C 0.7890(3) 1.0460(2) 0.3934(6)
H8 H 0.8011 1.0298 0.3175
C13 C 0.8236(3) 1.0682(2) 0.4784(7)
H9 H 0.8591 1.0669 0.4601
C14 C 0.6627(3) 1.0689(2) 0.5567(6)
H10 H 0.6557 1.0875 0.6377
H11 H 0.6434 1.0856 0.4864
C15 C 0.7235(2) 1.1692(2) 0.7066(6)
C16 C 0.6940(2) 1.1909(2) 0.8035(6)
H12 H 0.6826 1.1713 0.8750
C17 C 0.6820(2) 1.2416(2) 0.7920(6)
H13 H 0.6623 1.2580 0.8566
C18 C 0.6988(2) 1.2685(2) 0.6860(6)
H14 H 0.6903 1.3034 0.6755
C19 C 0.7280(2) 1.2436(2) 0.5961(6)
H15 H 0.7399 1.2624 0.5239
N1 N 0.7407(2) 1.19389(17) 0.6048(5)
C20 C 0.6457(2) 1.0148(2) 0.5698(6)
C21 C 0.6625(2) 0.9853(2) 0.6736(5)
C22 C 0.6529(2) 0.9333(2) 0.6848(6)
C23 C 0.6221(2) 0.9106(2) 0.5899(6)
H16 H 0.6142 0.8753 0.5958
C24 C 0.6033(3) 0.9388(2) 0.4888(6)
H17 H 0.5815 0.9231 0.4274
C25 C 0.6162(3) 0.9906(2) 0.4754(6)
H18 H 0.6048 1.0092 0.4022
C26 C 0.6773(2) 0.9023(2) 0.7900(6)
H19 H 0.6618 0.8679 0.7924
H20 H 0.6712 0.9188 0.8744
C27 C 0.6722(2) 1.0241(2) 0.8791(6)
C28 C 0.6256(2) 1.0116(2) 0.9075(6)
H21 H 0.6051 0.9926 0.8493
C29 C 0.6079(3) 1.0264(3) 1.0210(8)
H22 H 0.5738 1.0178 1.0427
C30 C 0.6361(3) 1.0536(3) 1.1094(7)
H23 H 0.6223 1.0625 1.1911
C31 C 0.6836(3) 1.0672(2) 1.0765(6)
H24 H 0.7033 1.0871 1.1344
N2 N 0.7044(3) 1.0526(2) 0.9591(6)
C32 C 0.7342(2) 0.89794(19) 0.7656(5)
C33 C 0.7697(2) 0.91699(19) 0.8524(5)
C34 C 0.8219(2) 0.9184(2) 0.8269(5)
C35 C 0.8385(2) 0.8963(2) 0.7114(6)
H25 H 0.8739 0.8958 0.6920
C36 C 0.8045(2) 0.8754(2) 0.6256(6)
H26 H 0.8164 0.8599 0.5486
C37 C 0.7524(2) 0.8769(2) 0.6518(5)
H27 H 0.7290 0.8634 0.5909
C38 C 0.8591(2) 0.9449(2) 0.9184(6)
H28 H 0.8551 0.9305 1.0060
H29 H 0.8944 0.9380 0.8897
C39 C 0.7470(2) 0.9112(2) 1.0746(5)
C40 C 0.7337(2) 0.9380(2) 1.1852(6)
H30 H 0.7285 0.9738 1.1832
C41 C 0.7284(2) 0.9109(2) 1.2970(6)
H31 H 0.7203 0.9277 1.3754
C42 C 0.7348(2) 0.8590(2) 1.2940(5)
H32 H 0.7307 0.8394 1.3702
C43 C 0.7470(2) 0.8359(2) 1.1799(6)
H33 H 0.7514 0.8000 1.1792
N3 N 0.75335(17) 0.86174(16) 1.0677(4)
O6 O 0.4388(5) 0.4693(5) 0.176(2)
C45 C 0.4193(7) 0.5180(7) 0.1512(17)
H37 H 0.4196 0.5381 0.2308
H38 H 0.3843 0.5150 0.1195
H39 H 0.4404 0.5348 0.0860
O5? O 0.5000 1.0000 0.7628(14)
C44? C 0.4631(8) 0.9756(8) 0.742(2)
H34? H 0.4427 0.9924 0.6754
H35? H 0.4429 0.9728 0.8215
H36? H 0.4729 0.9415 0.7129
loop_
_geom_bond_atom_site_label_1
_geom_bond_atom_site_label_2
_geom_bond_site_symmetry_1
_geom_bond_site_symmetry_2
O1 H1 1_555 1_555
O2 C9 1_555 1_555
O3 C21 1_555 1_555
O4 C33 1_555 1_555
C1 C2 1_555 1_555
C2 O1 1_555 1_555
C3 C2 1_555 1_555
C4 C3 1_555 1_555
H2 C4 1_555 1_555
C5 C4 1_555 1_555
H3 C5 1_555 1_555
C6 C1 1_555 1_555
H4 C6 1_555 1_555
C7 C3 1_555 1_555
H5 C7 1_555 1_555
H6 C7 1_555 1_555
C8 C7 1_555 1_555
C9 C8 1_555 1_555
C10 C9 1_555 1_555
C11 C10 1_555 1_555
H7 C11 1_555 1_555
C12 C11 1_555 1_555
H8 C12 1_555 1_555
C13 C8 1_555 1_555
H9 C13 1_555 1_555
C14 C10 1_555 1_555
H10 C14 1_555 1_555
H11 C14 1_555 1_555
C15 O2 1_555 1_555
C16 C15 1_555 1_555
H12 C16 1_555 1_555
C17 C16 1_555 1_555
H13 C17 1_555 1_555
C18 C17 1_555 1_555
H14 C18 1_555 1_555
C19 C18 1_555 1_555
H15 C19 1_555 1_555
N1 C15 1_555 1_555
C20 C14 1_555 1_555
C21 C20 1_555 1_555
C22 C21 1_555 1_555
C23 C22 1_555 1_555
H16 C23 1_555 1_555
C24 C23 1_555 1_555
H17 C24 1_555 1_555
C25 C20 1_555 1_555
H18 C25 1_555 1_555
C26 C22 1_555 1_555
H19 C26 1_555 1_555
H20 C26 1_555 1_555
C27 O3 1_555 1_555
C28 C27 1_555 1_555
H21 C28 1_555 1_555
C29 C28 1_555 1_555
H22 C29 1_555 1_555
C30 C29 1_555 1_555
H23 C30 1_555 1_555
C31 C30 1_555 1_555
H24 C31 1_555 1_555
N2 C27 1_555 1_555
C32 C26 1_555 1_555
C33 C32 1_555 1_555
C34 C33 1_555 1_555
C35 C34 1_555 1_555
H25 C35 1_555 1_555
C36 C35 1_555 1_555
H26 C36 1_555 1_555
C37 C32 1_555 1_555
H27 C37 1_555 1_555
C38 C1 1_555 1_555
H28 C38 1_555 1_555
H29 C38 1_555 1_555
C39 O4 1_555 1_555
C40 C39 1_555 1_555
H30 C40 1_555 1_555
C41 C40 1_555 1_555
H31 C41 1_555 1_555
C42 C41 1_555 1_555
H32 C42 1_555 1_555
C43 C42 1_555 1_555
H33 C43 1_555 1_555
N3 C39 1_555 1_555
O6 C45 1_555 1_555
C45 H37 1_555 1_555
H38 C45 1_555 1_555
H39 C45 1_555 1_555
C5 C6 1_555 1_555
C12 C13 1_555 1_555
C19 N1 1_555 1_555
C24 C25 1_555 1_555
C31 N2 1_555 1_555
C34 C38 1_555 1_555
C36 C37 1_555 1_555
C43 N3 1_555 1_555

#END
