
#######################################################################
#
#                 Cambridge Crystallographic Data Centre
#                                CCDC 
#
#######################################################################
#
# If this CIF has been generated from an entry in the Cambridge 
# Structural Database, then it will include bibliographic, chemical, 
# crystal, experimental, refinement or atomic coordinate data resulting 
# from the CCDC's data processing and validation procedures.
#
#######################################################################

data_LAYBIX
_chemical_formula_moiety         'C43 H33 N3 O4,0.5(C4 H8 O2)'
_chemical_name_systematic        
'25-Hydroxy-26,27,28-tris(2-pyridyloxy)calix(4)arene ethyl acetate clathrate'
_symmetry_cell_setting           monoclinic
_symmetry_space_group_name_H-M   'P 21/n'
_symmetry_Int_Tables_number      14
_space_group_name_Hall           '-P 2yn'
loop_
_symmetry_equiv_pos_site_id
_symmetry_equiv_pos_as_xyz
1 x,y,z
2 1/2-x,1/2+y,1/2-z
3 -x,-y,-z
4 1/2+x,1/2-y,1/2+z
_cell_length_a                   12.4118(18)
_cell_length_b                   11.8887(18)
_cell_length_c                   24.054(3)
_cell_angle_alpha                90
_cell_angle_beta                 96.628(11)
_cell_angle_gamma                90
_cell_volume                     3525.69
_exptl_crystal_colour            colorless
_exptl_crystal_description       prism
_chemical_melting_point          'decomposes at 174 deg.C'
_cell_formula_units_Z            4
loop_
_atom_site_label
_atom_site_type_symbol
_atom_site_fract_x
_atom_site_fract_y
_atom_site_fract_z
O1 O 0.43173(12) 0.21325(13) 0.15076(6)
H1 H 0.3731 0.1943 0.1321
O2 O 0.25241(11) 0.10092(12) 0.09830(6)
O3 O 0.37955(12) -0.04416(12) 0.17887(6)
O4 O 0.52932(12) 0.09853(13) 0.26203(6)
C1 C 0.59100(18) 0.31528(18) 0.14448(9)
C2 C 0.49101(17) 0.27767(17) 0.11820(9)
C3 C 0.45473(18) 0.30565(17) 0.06281(9)
C4 C 0.52221(19) 0.37177(18) 0.03399(10)
H2 H 0.4996 0.3912 -0.0039
C5 C 0.6216(2) 0.41010(18) 0.05907(11)
H3 H 0.6664 0.4551 0.0385
C6 C 0.65507(19) 0.38234(18) 0.11415(10)
H4 H 0.7227 0.4094 0.1315
C7 C 0.34572(18) 0.26725(18) 0.03395(9)
H5 H 0.3275 0.3129 -0.0003
H6 H 0.2895 0.2818 0.0591
C8 C 0.34195(17) 0.14318(18) 0.01782(9)
C9 C 0.29786(16) 0.06226(18) 0.05050(9)
C10 C 0.30160(17) -0.05260(19) 0.03992(9)
C11 C 0.34540(17) -0.08541(19) -0.00818(9)
H7 H 0.3481 -0.1631 -0.0171
C12 C 0.38547(18) -0.0066(2) -0.04359(9)
H8 H 0.4131 -0.0305 -0.0769
C13 C 0.38479(17) 0.10665(19) -0.02997(9)
H9 H 0.4140 0.1600 -0.0536
C14 C 0.26331(18) -0.13963(19) 0.07915(10)
H10 H 0.2186 -0.1965 0.0570
H11 H 0.2171 -0.1027 0.1047
C15 C 0.14467(17) 0.13393(19) 0.09007(9)
C16 C 0.1106(2) 0.2130(2) 0.12675(11)
H12 H 0.1590 0.2428 0.1566
C17 C 0.0039(2) 0.2467(2) 0.11813(11)
H13 H -0.0227 0.3014 0.1419
C18 C -0.06437(19) 0.2005(2) 0.07474(11)
H14 H -0.1383 0.2227 0.0681
C19 C -0.02288(19) 0.1220(2) 0.04161(11)
H15 H -0.0701 0.0889 0.0122
N1 N 0.08235(15) 0.08899(17) 0.04860(9)
C20 C 0.35764(17) -0.19808(18) 0.11358(10)
C21 C 0.41140(18) -0.14985(17) 0.16136(9)
C22 C 0.50251(18) -0.19841(18) 0.19177(9)
C23 C 0.53832(19) -0.30177(19) 0.17311(10)
H16 H 0.6003 -0.3369 0.1926
C24 C 0.48414(19) -0.35306(19) 0.12647(10)
H17 H 0.5083 -0.4239 0.1145
C25 C 0.39482(19) -0.30200(19) 0.09697(10)
H18 H 0.3584 -0.3383 0.0650
C26 C 0.56316(19) -0.13633(19) 0.24067(10)
H19 H 0.6101 -0.1897 0.2639
H20 H 0.5107 -0.1037 0.2642
C27 C 0.29707(17) -0.04056(19) 0.21268(9)
C28 C 0.2735(2) 0.06509(19) 0.23271(10)
H21 H 0.3135 0.1295 0.2240
C29 C 0.1903(2) 0.0734(2) 0.26559(12)
H22 H 0.1708 0.1443 0.2798
C30 C 0.1351(2) -0.0237(2) 0.27766(12)
H23 H 0.0773 -0.0207 0.3003
C31 C 0.1660(2) -0.1237(2) 0.25619(11)
H24 H 0.1279 -0.1897 0.2647
N2 N 0.24705(16) -0.13437(16) 0.22372(9)
C32 C 0.63233(17) -0.04302(19) 0.22008(9)
C33 C 0.61166(17) 0.06928(19) 0.22887(9)
C34 C 0.66461(17) 0.15513(19) 0.20340(9)
C35 C 0.75001(18) 0.1242(2) 0.17353(9)
H25 H 0.7902 0.1811 0.1574
C36 C 0.77742(18) 0.0128(2) 0.16692(10)
H26 H 0.8373 -0.0066 0.1476
C37 C 0.71656(18) -0.0702(2) 0.18885(9)
H27 H 0.7325 -0.1470 0.1825
C38 C 0.62941(18) 0.27761(19) 0.20344(9)
H28 H 0.5700 0.2866 0.2273
H29 H 0.6911 0.3250 0.2192
C39 C 0.56303(18) 0.14237(18) 0.31397(9)
C40 C 0.48549(19) 0.1979(2) 0.34115(10)
H30 H 0.4121 0.2025 0.3249
C41 C 0.5182(2) 0.2458(3) 0.39196(11)
H31 H 0.4678 0.2857 0.4114
C42 C 0.6252(2) 0.2358(2) 0.41487(10)
H32 H 0.6500 0.2690 0.4500
C43 C 0.69386(19) 0.1769(2) 0.38550(10)
H33 H 0.7669 0.1684 0.4017
N3 N 0.66502(15) 0.12980(17) 0.33492(8)
O5? O 0.0248(5) 0.4825(5) 0.0218(2)
C44? C 0.0285(6) 0.4891(6) 0.0408(4)
C45? C 0.1318(4) 0.5311(4) 0.0412(2)
O6? O 0.1657(4) 0.5971(4) 0.0168(2)
C46? C 0.1777(6) 0.4986(6) 0.1052(3)
loop_
_geom_bond_atom_site_label_1
_geom_bond_atom_site_label_2
_geom_bond_site_symmetry_1
_geom_bond_site_symmetry_2
O1 H1 1_555 1_555
O2 C9 1_555 1_555
O3 C21 1_555 1_555
O4 C33 1_555 1_555
C1 C2 1_555 1_555
C2 O1 1_555 1_555
C3 C2 1_555 1_555
C4 C3 1_555 1_555
H2 C4 1_555 1_555
C5 C4 1_555 1_555
H3 C5 1_555 1_555
C6 C1 1_555 1_555
H4 C6 1_555 1_555
C7 C3 1_555 1_555
H5 C7 1_555 1_555
H6 C7 1_555 1_555
C8 C7 1_555 1_555
C9 C8 1_555 1_555
C10 C9 1_555 1_555
C11 C10 1_555 1_555
H7 C11 1_555 1_555
C12 C11 1_555 1_555
H8 C12 1_555 1_555
C13 C8 1_555 1_555
H9 C13 1_555 1_555
C14 C10 1_555 1_555
H10 C14 1_555 1_555
H11 C14 1_555 1_555
C15 O2 1_555 1_555
C16 C15 1_555 1_555
H12 C16 1_555 1_555
C17 C16 1_555 1_555
H13 C17 1_555 1_555
C18 C17 1_555 1_555
H14 C18 1_555 1_555
C19 C18 1_555 1_555
H15 C19 1_555 1_555
N1 C15 1_555 1_555
C20 C14 1_555 1_555
C21 C20 1_555 1_555
C22 C21 1_555 1_555
C23 C22 1_555 1_555
H16 C23 1_555 1_555
C24 C23 1_555 1_555
H17 C24 1_555 1_555
C25 C20 1_555 1_555
H18 C25 1_555 1_555
C26 C22 1_555 1_555
H19 C26 1_555 1_555
H20 C26 1_555 1_555
C27 O3 1_555 1_555
C28 C27 1_555 1_555
H21 C28 1_555 1_555
C29 C28 1_555 1_555
H22 C29 1_555 1_555
C30 C29 1_555 1_555
H23 C30 1_555 1_555
C31 C30 1_555 1_555
H24 C31 1_555 1_555
N2 C27 1_555 1_555
C32 C26 1_555 1_555
C33 C32 1_555 1_555
C34 C33 1_555 1_555
C35 C34 1_555 1_555
H25 C35 1_555 1_555
C36 C35 1_555 1_555
H26 C36 1_555 1_555
C37 C32 1_555 1_555
H27 C37 1_555 1_555
C38 C1 1_555 1_555
H28 C38 1_555 1_555
H29 C38 1_555 1_555
C39 O4 1_555 1_555
C40 C39 1_555 1_555
H30 C40 1_555 1_555
C41 C40 1_555 1_555
H31 C41 1_555 1_555
C42 C41 1_555 1_555
H32 C42 1_555 1_555
C43 C42 1_555 1_555
H33 C43 1_555 1_555
N3 C39 1_555 1_555
C5 C6 1_555 1_555
C12 C13 1_555 1_555
C19 N1 1_555 1_555
C24 C25 1_555 1_555
C31 N2 1_555 1_555
C34 C38 1_555 1_555
C36 C37 1_555 1_555
C43 N3 1_555 1_555

#END
