
#######################################################################
#
#                 Cambridge Crystallographic Data Centre
#                                CCDC 
#
#######################################################################
#
# If this CIF has been generated from an entry in the Cambridge 
# Structural Database, then it will include bibliographic, chemical, 
# crystal, experimental, refinement or atomic coordinate data resulting 
# from the CCDC's data processing and validation procedures.
#
#######################################################################

data_LAYJEB
_chemical_formula_moiety         'C22 H43 N3 O3'
_chemical_name_systematic        
'N-(3-((3-(N,N-Dimethylcarbamoyl)propyl)carbamoyl)propyl) dodecanamide'
_symmetry_cell_setting           monoclinic
_symmetry_space_group_name_H-M   'C c'
_symmetry_Int_Tables_number      9
_space_group_name_Hall           'C -2yc'
loop_
_symmetry_equiv_pos_site_id
_symmetry_equiv_pos_as_xyz
1 x,y,z
2 x,-y,1/2+z
3 1/2+x,1/2+y,z
4 1/2+x,1/2-y,1/2+z
_cell_length_a                   8.4672(3)
_cell_length_b                   5.2325(3)
_cell_length_c                   53.240(2)
_cell_angle_alpha                90.00
_cell_angle_beta                 92.685(3)
_cell_angle_gamma                90.00
_cell_volume                     2356.19
_exptl_crystal_colour            colorless
_exptl_crystal_description       irregular
_chemical_melting_point          '93-95 deg.C'
_cell_formula_units_Z            4
loop_
_atom_site_label
_atom_site_type_symbol
_atom_site_fract_x
_atom_site_fract_y
_atom_site_fract_z
C1 C 0.3766(6) 0.4821(9) 0.38925(9)
H1 H 0.2768 0.5769 0.3877
H2 H 0.4169 0.4540 0.3725
H3 H 0.4540 0.5807 0.3995
C2 C 0.3489(6) 0.2276(8) 0.40167(8)
H4 H 0.4497 0.1315 0.4028
H5 H 0.2726 0.1277 0.3910
C3 C 0.2864(5) 0.2516(8) 0.42768(8)
H6 H 0.1849 0.3455 0.4264
H7 H 0.3619 0.3546 0.4382
C4 C 0.2606(5) -0.0021(8) 0.44069(8)
H8 H 0.3625 -0.0947 0.4422
H9 H 0.1865 -0.1063 0.4300
C5 C 0.1950(5) 0.0217(8) 0.46678(8)
H10 H 0.2691 0.1253 0.4775
H11 H 0.0931 0.1144 0.4653
C6 C 0.1690(5) -0.2336(8) 0.47968(8)
H12 H 0.0955 -0.3377 0.4689
H13 H 0.2711 -0.3258 0.4813
C7 C 0.1029(5) -0.2096(8) 0.50549(7)
H14 H 0.0012 -0.1165 0.5039
H15 H 0.1767 -0.1059 0.5163
C8 C 0.0759(5) -0.4653(8) 0.51851(8)
H16 H 0.0017 -0.5684 0.5077
H17 H 0.1776 -0.5586 0.5199
C9 C 0.0113(5) -0.4446(7) 0.54419(7)
H18 H -0.0891 -0.3474 0.5429
H19 H 0.0869 -0.3466 0.5552
C10 C -0.0191(4) -0.7016(7) 0.55645(7)
H20 H 0.0816 -0.7979 0.5579
H21 H -0.0936 -0.8006 0.5453
C11 C -0.0866(4) -0.6812(8) 0.58236(7)
H22 H -0.1832 -0.5745 0.5812
H23 H -0.1169 -0.8536 0.5881
C12 C 0.0304(4) -0.5653(7) 0.60154(7)
C13 C 0.0789(4) -0.2345(8) 0.63362(8)
H24 H 0.1522 -0.1186 0.6252
H25 H 0.1431 -0.3611 0.6434
C14 C -0.0182(4) -0.0826(8) 0.65113(8)
H26 H -0.0864 -0.2008 0.6603
H27 H -0.0879 0.0346 0.6411
C15 C 0.0804(4) 0.0718(8) 0.67001(8)
H28 H 0.1579 -0.0434 0.6787
H29 H 0.1406 0.2013 0.6609
C16 C -0.0121(5) 0.2040(8) 0.68923(8)
C17 C -0.0126(9) 0.5418(10) 0.72138(9)
H30 H 0.0189 0.7236 0.7205
H31 H -0.1293 0.5340 0.7192
C18 C 0.0350(6) 0.4421(11) 0.74610(9)
H32 H 0.1519 0.4337 0.7474
H33 H -0.0051 0.2650 0.7473
C19 C -0.0195(6) 0.5892(10) 0.76800(9)
H34 H 0.0471 0.7444 0.7697
H35 H -0.1287 0.6471 0.7637
O1 O -0.0645(9) 0.2450(15) 0.79299(13)
C20 C -0.0198(15) 0.471(2) 0.7924(2)
C21 C 0.0463(13) 0.878(2) 0.8136(2)
H36 H 0.1129 0.9167 0.8286
H37 H -0.0480 0.9868 0.8132
H38 H 0.1059 0.9098 0.7985
C22 C -0.019(2) 0.491(4) 0.8373(3)
H39 H -0.0719 0.3253 0.8355
H40 H -0.0823 0.6053 0.8474
H41 H 0.0858 0.4685 0.8455
N1 N -0.0200(3) -0.3674(6) 0.61462(6)
H48 H -0.1176 -0.3140 0.6117
N2 N 0.0560(5) 0.4038(7) 0.70072(7)
H49 H 0.1478 0.4559 0.6956
N3 N -0.0039(5) 0.5962(9) 0.81410(8)
O3 O 0.1652(3) -0.6539(5) 0.60456(5)
O4 O -0.1473(3) 0.1331(7) 0.69449(6)
O2? O 0.1985(9) 0.476(2) 0.79345(14)
C23? C 0.0615(17) 0.545(3) 0.7933(3)
C24? C -0.1756(12) 0.681(2) 0.8158(2)
H42? H -0.1957 0.8289 0.8049
H43? H -0.1953 0.7268 0.8332
H44? H -0.2459 0.5402 0.8104
C25? C 0.076(2) 0.565(3) 0.8390(3)
H45? H 0.1694 0.4564 0.8375
H46? H 0.0032 0.4846 0.8504
H47? H 0.1082 0.7326 0.8456
loop_
_geom_bond_atom_site_label_1
_geom_bond_atom_site_label_2
_geom_bond_site_symmetry_1
_geom_bond_site_symmetry_2
C1 H1 1_555 1_555
H2 C1 1_555 1_555
H3 C1 1_555 1_555
C2 C1 1_555 1_555
H4 C2 1_555 1_555
H5 C2 1_555 1_555
C3 C2 1_555 1_555
H6 C3 1_555 1_555
H7 C3 1_555 1_555
C4 C3 1_555 1_555
H8 C4 1_555 1_555
H9 C4 1_555 1_555
C5 C4 1_555 1_555
H10 C5 1_555 1_555
H11 C5 1_555 1_555
C6 C5 1_555 1_555
H12 C6 1_555 1_555
H13 C6 1_555 1_555
C7 C6 1_555 1_555
H14 C7 1_555 1_555
H15 C7 1_555 1_555
C8 C7 1_555 1_555
H16 C8 1_555 1_555
H17 C8 1_555 1_555
C9 C8 1_555 1_555
H18 C9 1_555 1_555
H19 C9 1_555 1_555
C10 C9 1_555 1_555
H20 C10 1_555 1_555
H21 C10 1_555 1_555
C11 C10 1_555 1_555
H22 C11 1_555 1_555
H23 C11 1_555 1_555
C12 C11 1_555 1_555
C13 H24 1_555 1_555
H25 C13 1_555 1_555
C14 C13 1_555 1_555
H26 C14 1_555 1_555
H27 C14 1_555 1_555
C15 C14 1_555 1_555
H28 C15 1_555 1_555
H29 C15 1_555 1_555
C16 C15 1_555 1_555
C17 H30 1_555 1_555
H31 C17 1_555 1_555
C18 C17 1_555 1_555
H32 C18 1_555 1_555
H33 C18 1_555 1_555
C19 C18 1_555 1_555
H34 C19 1_555 1_555
H35 C19 1_555 1_555
O1 C20 1_555 1_555
C20 C19 1_555 1_555
C21 H36 1_555 1_555
H37 C21 1_555 1_555
H38 C21 1_555 1_555
C22 H39 1_555 1_555
H40 C22 1_555 1_555
H41 C22 1_555 1_555
N1 C12 1_555 1_555
H48 N1 1_555 1_555
N2 C16 1_555 1_555
H49 N2 1_555 1_555
N3 C20 1_555 1_555
O3 C12 1_555 1_555
O4 C16 1_555 1_555
C13 N1 1_555 1_555
C17 N2 1_555 1_555
C21 N3 1_555 1_555
C22 N3 1_555 1_555

#END
