
#######################################################################
#
#                 Cambridge Crystallographic Data Centre
#                                CCDC 
#
#######################################################################
#
# If this CIF has been generated from an entry in the Cambridge 
# Structural Database, then it will include bibliographic, chemical, 
# crystal, experimental, refinement or atomic coordinate data resulting 
# from the CCDC's data processing and validation procedures.
#
#######################################################################

data_LAYPOS
_chemical_formula_moiety         'C38 H25 N5 O4,2(C3 H7 N1 O1)'
_chemical_name_systematic        
"N,N'-bis(4-(2-cyano-2-phenylvinyl)phenyl)-5-nitroisophthalamide N,N-dimethylformamide solvate"
_symmetry_cell_setting           triclinic
_symmetry_space_group_name_H-M   'P -1'
_symmetry_Int_Tables_number      2
_space_group_name_Hall           '-P 1'
loop_
_symmetry_equiv_pos_site_id
_symmetry_equiv_pos_as_xyz
1 x,y,z
2 -x,-y,-z
_cell_length_a                   9.0684(18)
_cell_length_b                   14.326(3)
_cell_length_c                   15.214(3)
_cell_angle_alpha                83.83(3)
_cell_angle_beta                 89.85(3)
_cell_angle_gamma                89.66(3)
_cell_volume                     1965.02
_cell_formula_units_Z            2
loop_
_atom_site_label
_atom_site_type_symbol
_atom_site_fract_x
_atom_site_fract_y
_atom_site_fract_z
H1 H 1.426(4) 0.121(3) 0.952(2)
H2 H -0.377(3) 0.096(2) 0.544(2)
H3 H 0.172(4) -0.156(3) 0.670(2)
H4 H 0.774(3) 0.000(2) 0.821(2)
O1 O 0.3918(3) -0.41864(17) 0.7549(2)
O2 O 0.9214(2) -0.17870(15) 0.84427(17)
O3 O 0.3769(2) 0.01686(16) 0.6490(2)
N1 N 1.1536(3) 0.3725(2) 0.9799(3)
N2 N -0.1285(4) 0.3470(2) 0.5616(3)
N3 N 0.8357(3) -0.02990(19) 0.83486(19)
N4 N 0.1953(3) -0.09192(19) 0.66289(17)
N5 N 0.5112(3) -0.3886(2) 0.7741(2)
C1 C 1.5051(3) 0.2825(2) 0.9962(2)
C2 C 1.6139(3) 0.2240(3) 1.0339(3)
H5 H 1.5939 0.1607 1.0492
C3 C 1.7522(4) 0.2581(3) 1.0492(3)
H6 H 1.8247 0.2176 1.0742
C4 C 1.7837(4) 0.3504(3) 1.0281(3)
H7 H 1.8770 0.3730 1.0391
C5 C 1.6777(4) 0.4095(3) 0.9905(3)
H8 H 1.6993 0.4725 0.9749
C6 C 1.5388(3) 0.3764(2) 0.9756(3)
H9 H 1.4666 0.4177 0.9513
C7 C 1.3562(3) 0.2467(2) 0.9754(2)
C8 C 1.2404(4) 0.3152(2) 0.9760(3)
C9 C 1.3336(3) 0.1603(2) 0.9537(2)
C10 C 1.1999(3) 0.1140(2) 0.9262(2)
C11 C 1.2183(3) 0.0288(2) 0.8922(2)
H10 H 1.3129 0.0039 0.8895
C12 C 1.1021(3) -0.0206(2) 0.8622(2)
H11 H 1.1189 -0.0776 0.8397
C13 C 0.9395(3) 0.0990(2) 0.9005(3)
H12 H 0.8447 0.1234 0.9042
C14 C 1.0567(3) 0.1478(2) 0.9299(3)
H13 H 1.0394 0.2046 0.9526
C15 C 0.9594(3) 0.0154(2) 0.8660(2)
C16 C 0.8240(3) -0.1221(2) 0.8242(2)
C17 C 0.6820(3) -0.1550(2) 0.7868(2)
C18 C 0.6618(3) -0.2516(2) 0.7947(2)
H14 H 0.7333 -0.2921 0.8212
C19 C 0.5744(3) -0.0969(2) 0.7457(2)
H15 H 0.5879 -0.0322 0.7397
C20 C 0.4246(3) -0.2299(2) 0.7222(2)
H16 H 0.3389 -0.2554 0.7016
C21 C 0.5325(3) -0.2865(2) 0.7622(2)
C22 C 0.4460(3) -0.1339(2) 0.7131(2)
C23 C 0.3360(3) -0.0630(2) 0.6713(2)
C24 C 0.0742(3) -0.0323(2) 0.6363(2)
C25 C 0.0727(4) 0.0625(2) 0.6457(2)
H17 H 0.1549 0.0901 0.6684
C26 C -0.0494(3) 0.1162(2) 0.6218(2)
H18 H -0.0489 0.1796 0.6298
C27 C -0.1749(3) 0.0784(2) 0.5855(2)
C28 C -0.1722(3) -0.0176(2) 0.5810(2)
H19 H -0.2557 -0.0461 0.5610
C29 C -0.0505(3) -0.0726(2) 0.6050(2)
H20 H -0.0524 -0.1367 0.6002
C30 C -0.3052(3) 0.1318(2) 0.5554(2)
C31 C -0.3289(3) 0.2245(2) 0.5393(2)
C32 C -0.2139(4) 0.2907(2) 0.5519(2)
C33 C -0.4721(3) 0.2687(2) 0.5082(2)
C34 C -0.6025(3) 0.2208(2) 0.5209(3)
H21 H -0.6016 0.1592 0.5475
C35 C -0.7352(4) 0.2629(3) 0.4946(3)
H22 H -0.8224 0.2292 0.5030
C36 C -0.7385(5) 0.3539(3) 0.4563(3)
H23 H -0.8277 0.3825 0.4391
C37 C -0.6089(4) 0.4025(3) 0.4434(3)
H24 H -0.6101 0.4641 0.4168
C38 C -0.4762(4) 0.3601(2) 0.4700(3)
H25 H -0.3890 0.3939 0.4620
O5 O 0.594(2) -0.4401(17) 0.8087(18)
O4 O 0.8990(3) 0.28688(18) 0.3347(2)
N6 N 0.9634(3) 0.4321(2) 0.2745(2)
C39 C 1.0215(6) 0.4908(4) 0.1987(4)
H26 H 1.0531 0.4520 0.1545
H27 H 1.1037 0.5260 0.2168
H28 H 0.9460 0.5333 0.1746
C40 C 0.9050(5) 0.4791(3) 0.3475(4)
H29 H 0.8115 0.5074 0.3309
H30 H 0.9726 0.5267 0.3613
H31 H 0.8923 0.4340 0.3983
C41 C 0.9526(4) 0.3406(3) 0.2747(3)
H32 H 0.9884 0.3144 0.2255
O6 O 0.3837(3) 0.8813(2) 0.2024(2)
N7 N 0.4620(4) 0.7340(2) 0.2438(2)
C42 C 0.4729(5) 0.8244(3) 0.2308(3)
H33 H 0.5633 0.8485 0.2458
C43 C 0.3164(7) 0.6930(4) 0.2245(4)
H34 H 0.2416 0.7408 0.2230
H35 H 0.2931 0.6433 0.2697
H36 H 0.3207 0.6685 0.1682
C44 C 0.5752(9) 0.6698(5) 0.2715(4)
H37 H 0.6632 0.7036 0.2825
H38 H 0.5941 0.6296 0.2261
H39 H 0.5455 0.6326 0.3247
O7? O 0.632(3) -0.4357(17) 0.795(2)
loop_
_geom_bond_atom_site_label_1
_geom_bond_atom_site_label_2
_geom_bond_site_symmetry_1
_geom_bond_site_symmetry_2
H1 C9 1_555 1_555
H2 C30 1_555 1_555
H3 N4 1_555 1_555
H4 N3 1_555 1_555
O1 N5 1_555 1_555
O2 C16 1_555 1_555
O3 C23 1_555 1_555
N1 C8 1_555 1_555
N2 C32 1_555 1_555
N3 C15 1_555 1_555
N4 C23 1_555 1_555
N5 C21 1_555 1_555
C1 C2 1_555 1_555
C2 H5 1_555 1_555
C3 C2 1_555 1_555
H6 C3 1_555 1_555
C4 C3 1_555 1_555
H7 C4 1_555 1_555
C5 C4 1_555 1_555
H8 C5 1_555 1_555
C6 C1 1_555 1_555
H9 C6 1_555 1_555
C7 C1 1_555 1_555
C8 C7 1_555 1_555
C9 C7 1_555 1_555
C10 C9 1_555 1_555
C11 C10 1_555 1_555
H10 C11 1_555 1_555
C12 C11 1_555 1_555
H11 C12 1_555 1_555
C13 H12 1_555 1_555
C14 C10 1_555 1_555
H13 C14 1_555 1_555
C15 C12 1_555 1_555
C16 N3 1_555 1_555
C17 C16 1_555 1_555
C18 C17 1_555 1_555
H14 C18 1_555 1_555
C19 C17 1_555 1_555
H15 C19 1_555 1_555
C20 H16 1_555 1_555
C21 C18 1_555 1_555
C22 C19 1_555 1_555
C23 C22 1_555 1_555
C24 N4 1_555 1_555
C25 C24 1_555 1_555
H17 C25 1_555 1_555
C26 C25 1_555 1_555
H18 C26 1_555 1_555
C27 C26 1_555 1_555
C28 C27 1_555 1_555
H19 C28 1_555 1_555
C29 C24 1_555 1_555
H20 C29 1_555 1_555
C30 C27 1_555 1_555
C31 C30 1_555 1_555
C32 C31 1_555 1_555
C33 C31 1_555 1_555
C34 C33 1_555 1_555
H21 C34 1_555 1_555
C35 C34 1_555 1_555
H22 C35 1_555 1_555
C36 C35 1_555 1_555
H23 C36 1_555 1_555
C37 C36 1_555 1_555
H24 C37 1_555 1_555
C38 C33 1_555 1_555
H25 C38 1_555 1_555
O4 C41 1_555 1_555
N6 C39 1_555 1_555
C39 H26 1_555 1_555
H27 C39 1_555 1_555
H28 C39 1_555 1_555
C40 N6 1_555 1_555
H29 C40 1_555 1_555
H30 C40 1_555 1_555
H31 C40 1_555 1_555
C41 N6 1_555 1_555
H32 C41 1_555 1_555
O5 N5 1_555 1_555
O6 C42 1_555 1_555
N7 C42 1_555 1_555
C42 H33 1_555 1_555
C43 N7 1_555 1_555
H34 C43 1_555 1_555
H35 C43 1_555 1_555
H36 C43 1_555 1_555
C44 N7 1_555 1_555
H37 C44 1_555 1_555
H38 C44 1_555 1_555
H39 C44 1_555 1_555
C5 C6 1_555 1_555
C13 C14 1_555 1_555
C13 C15 1_555 1_555
C20 C21 1_555 1_555
C20 C22 1_555 1_555
C28 C29 1_555 1_555
C37 C38 1_555 1_555

#END
