
#######################################################################
#
#                 Cambridge Crystallographic Data Centre
#                                CCDC 
#
#######################################################################
#
# If this CIF has been generated from an entry in the Cambridge 
# Structural Database, then it will include bibliographic, chemical, 
# crystal, experimental, refinement or atomic coordinate data resulting 
# from the CCDC's data processing and validation procedures.
#
#######################################################################

data_LAYYUH
_chemical_formula_moiety         'C4 H4 N5 O6 1-,C4 H11 N4 1+'
_chemical_name_systematic        
'Isopropylideneaminoguanidinium 2-(dinitromethyl)-3-nitro-1,3-diazacyclopent-1-ene'
_symmetry_cell_setting           monoclinic
_symmetry_space_group_name_H-M   'P 21/n'
_symmetry_Int_Tables_number      14
_space_group_name_Hall           '-P 2yn'
loop_
_symmetry_equiv_pos_site_id
_symmetry_equiv_pos_as_xyz
1 x,y,z
2 1/2-x,1/2+y,1/2-z
3 -x,-y,-z
4 1/2+x,1/2-y,1/2+z
_cell_length_a                   6.6423(17)
_cell_length_b                   13.531(3)
_cell_length_c                   16.723(4)
_cell_angle_alpha                90
_cell_angle_beta                 97.699(3)
_cell_angle_gamma                90
_cell_volume                     1489.46
_exptl_crystal_colour            yellow
_exptl_crystal_description       block
_cell_formula_units_Z            4
loop_
_atom_site_label
_atom_site_type_symbol
_atom_site_fract_x
_atom_site_fract_y
_atom_site_fract_z
O1 O 0.4623(2) 0.63134(11) 0.27176(7)
O2 O 0.6979(2) 0.69526(12) 0.35886(8)
O3 O 0.72618(19) 0.61887(8) 0.57650(7)
O4 O 0.87878(17) 0.75887(8) 0.60664(7)
O5 O 0.77962(18) 0.89781(9) 0.49986(7)
O6 O 0.48815(18) 0.87423(9) 0.42482(8)
N1 N 0.4049(2) 0.65022(12) 0.39632(8)
N2 N 0.2768(2) 0.67644(11) 0.51066(9)
N3 N 0.5287(2) 0.66113(11) 0.33964(9)
N4 N 0.74395(19) 0.70927(9) 0.56615(7)
N5 N 0.6275(2) 0.84448(10) 0.47805(8)
C1 C 0.2009(2) 0.61008(12) 0.37663(9)
H1 H 0.2029 0.5421 0.3549
H2 H 0.1145 0.6526 0.3379
C2 C 0.1332(3) 0.61200(14) 0.45998(11)
H3 H -0.0067 0.6384 0.4568
H4 H 0.1355 0.5445 0.4829
C3 C 0.4258(2) 0.69453(11) 0.47382(9)
C4 C 0.6027(2) 0.75227(11) 0.50765(9)
N6 N -0.03054(18) 0.75342(9) 0.21238(7)
N7 N -0.1960(2) 0.70741(9) 0.16904(7)
N8 N 0.0124(2) 0.57634(11) 0.14976(9)
N9 N -0.3234(2) 0.57609(11) 0.09252(9)
C5 C 0.1212(3) 0.88838(14) 0.28661(12)
H5 H 0.2407 0.8459 0.2867
H6 H 0.0928 0.8979 0.3421
H7 H 0.1474 0.9526 0.2629
C6 C -0.0583(2) 0.84061(12) 0.23771(9)
C7 C -0.2540(3) 0.89680(13) 0.22405(11)
H8 H -0.3032 0.8989 0.1661
H9 H -0.2319 0.9643 0.2446
H10 H -0.3552 0.8639 0.2525
C8 C -0.1681(2) 0.61973(10) 0.13638(8)
H11 H -0.308(3) 0.7374(14) 0.1579(11)
H12 H -0.300(3) 0.5244(16) 0.0659(12)
H13 H -0.443(3) 0.6082(15) 0.0829(12)
H14 H 0.116(3) 0.6070(14) 0.1785(12)
H15 H 0.030(3) 0.5218(16) 0.1261(12)
loop_
_geom_bond_atom_site_label_1
_geom_bond_atom_site_label_2
_geom_bond_site_symmetry_1
_geom_bond_site_symmetry_2
O1 N3 1_555 1_555
O2 N3 1_555 1_555
O3 N4 1_555 1_555
O4 N4 1_555 1_555
O5 N5 1_555 1_555
O6 N5 1_555 1_555
N1 N3 1_555 1_555
N2 C2 1_555 1_555
N4 C4 1_555 1_555
N5 C4 1_555 1_555
N6 N7 1_555 1_555
N7 C8 1_555 1_555
N8 C8 1_555 1_555
N9 C8 1_555 1_555
C1 N1 1_555 1_555
H1 C1 1_555 1_555
H2 C1 1_555 1_555
C2 C1 1_555 1_555
H3 C2 1_555 1_555
H4 C2 1_555 1_555
C3 N1 1_555 1_555
C4 C3 1_555 1_555
C5 H5 1_555 1_555
H6 C5 1_555 1_555
H7 C5 1_555 1_555
C6 N6 1_555 1_555
C7 C6 1_555 1_555
H8 C7 1_555 1_555
H9 C7 1_555 1_555
H10 C7 1_555 1_555
H11 N7 1_555 1_555
H12 N9 1_555 1_555
H13 N9 1_555 1_555
H14 N8 1_555 1_555
H15 N8 1_555 1_555
N2 C3 1_555 1_555
C5 C6 1_555 1_555

#END
