
#######################################################################
#
#                 Cambridge Crystallographic Data Centre
#                                CCDC 
#
#######################################################################
#
# If this CIF has been generated from an entry in the Cambridge 
# Structural Database, then it will include bibliographic, chemical, 
# crystal, experimental, refinement or atomic coordinate data resulting 
# from the CCDC's data processing and validation procedures.
#
#######################################################################

data_LAYYOB
_chemical_formula_moiety         'C4 H4 N5 O6 1-,H4 N1 1+'
_chemical_name_systematic        
'Ammonium 2-(dinitromethyl)-3-nitro-1,3-diazacyclopent-1-ene'
_symmetry_cell_setting           monoclinic
_symmetry_space_group_name_H-M   'P 21/n'
_symmetry_Int_Tables_number      14
_space_group_name_Hall           '-P 2yn'
loop_
_symmetry_equiv_pos_site_id
_symmetry_equiv_pos_as_xyz
1 x,y,z
2 1/2-x,1/2+y,1/2-z
3 -x,-y,-z
4 1/2+x,1/2-y,1/2+z
_cell_length_a                   10.999(4)
_cell_length_b                   7.314(2)
_cell_length_c                   11.822(4)
_cell_angle_alpha                90
_cell_angle_beta                 111.197(3)
_cell_angle_gamma                90
_cell_volume                     886.696
_exptl_crystal_colour            colorless
_exptl_crystal_description       chunk
_chemical_melting_point          '431 K'
_cell_formula_units_Z            4
loop_
_atom_site_label
_atom_site_type_symbol
_atom_site_fract_x
_atom_site_fract_y
_atom_site_fract_z
N1 N 0.64352(10) 0.11880(14) 0.48538(9)
O1 O 0.57672(10) 0.25904(13) 0.47619(10)
O2 O 0.40115(9) 0.09276(13) 0.29609(10)
N2 N 0.48452(11) -0.03044(15) 0.31211(10)
O3 O 0.46148(11) -0.16563(14) 0.24202(9)
O4 O 0.75263(9) 0.10179(14) 0.56775(9)
N4 N 0.67618(12) -0.33894(16) 0.45690(11)
N5 N 0.85816(12) -0.01928(16) 0.36096(10)
O5 O 0.78986(11) 0.11667(15) 0.32865(10)
N6 N 0.81419(11) -0.16316(16) 0.40523(11)
O6 O 0.96721(11) -0.03724(16) 0.35584(11)
C1 C 0.69394(12) -0.18004(17) 0.42324(11)
C2 C 0.60330(12) -0.02630(17) 0.40537(11)
C3 C 0.89030(13) -0.33080(19) 0.44296(13)
H1 H 0.9664 -0.3131 0.5189
H2 H 0.9201 -0.3780 0.3789
C4 C 0.78742(14) -0.45592(18) 0.46214(12)
H3 H 0.7592 -0.5505 0.3980
H4 H 0.8238 -0.5176 0.5419
N3 N 0.88153(11) 0.00989(16) 0.81861(10)
H5 H 0.8013(10) -0.004(3) 0.7740(16)
H6 H 0.906(2) 0.1211(16) 0.834(2)
H7 H 0.929(2) -0.040(3) 0.785(2)
H8 H 0.895(3) -0.048(3) 0.8849(15)
loop_
_geom_bond_atom_site_label_1
_geom_bond_atom_site_label_2
_geom_bond_site_symmetry_1
_geom_bond_site_symmetry_2
N1 O1 1_555 1_555
O2 N2 1_555 1_555
N2 O3 1_555 1_555
O4 N1 1_555 1_555
N3 H5 1_555 1_555
N4 C1 1_555 1_555
N5 O5 1_555 1_555
N6 N5 1_555 1_555
O6 N5 1_555 1_555
C1 N6 1_555 1_555
C2 N1 1_555 1_555
C3 N6 1_555 1_555
H1 C3 1_555 1_555
H2 C3 1_555 1_555
C4 N4 1_555 1_555
H3 C4 1_555 1_555
H4 C4 1_555 1_555
H6 N3 1_555 1_555
H7 N3 1_555 1_555
H8 N3 1_555 1_555
N2 C2 1_555 1_555
C1 C2 1_555 1_555
C3 C4 1_555 1_555

#END
