
#######################################################################
#
#                 Cambridge Crystallographic Data Centre
#                                CCDC 
#
#######################################################################
#
# If this CIF has been generated from an entry in the Cambridge 
# Structural Database, then it will include bibliographic, chemical, 
# crystal, experimental, refinement or atomic coordinate data resulting 
# from the CCDC's data processing and validation procedures.
#
#######################################################################

data_LAZBUJ
_chemical_formula_moiety         'C32 H26 N4'
_chemical_name_systematic        
1,4-bis(2-(2,2'-Bipyrid-5-yl)ethynyl)bicyclo(2.2.2)octane
_symmetry_cell_setting           monoclinic
_symmetry_space_group_name_H-M   'P 21/c'
_symmetry_Int_Tables_number      14
_space_group_name_Hall           '-P 2ybc'
loop_
_symmetry_equiv_pos_site_id
_symmetry_equiv_pos_as_xyz
1 x,y,z
2 -x,1/2+y,1/2-z
3 -x,-y,-z
4 x,1/2-y,1/2+z
_cell_length_a                   6.269(1)
_cell_length_b                   15.959(2)
_cell_length_c                   12.628(3)
_cell_angle_alpha                90
_cell_angle_beta                 99.49(1)
_cell_angle_gamma                90
_cell_volume                     1246.1
_exptl_crystal_colour            colorless
_chemical_melting_point          290-293deg.C
_cell_formula_units_Z            2
loop_
_atom_site_label
_atom_site_type_symbol
_atom_site_fract_x
_atom_site_fract_y
_atom_site_fract_z
N1 N 0.2122(2) 0.3712(1) 0.3599(1)
C1 C 0.2672(3) 0.2918(1) 0.3417(2)
C2 C 0.4630(3) 0.2694(1) 0.3151(1)
C3 C 0.6082(3) 0.3320(1) 0.3057(1)
C4 C 0.5587(3) 0.4137(1) 0.3240(1)
C5 C 0.3598(3) 0.4313(1) 0.3516(1)
C6 C 0.2982(2) 0.5184(1) 0.3735(1)
N2 N 0.4506(2) 0.5788(1) 0.3782(1)
C7 C 0.3946(3) 0.6567(1) 0.4004(1)
C8 C 0.1877(3) 0.6795(1) 0.4172(1)
C9 C 0.0351(3) 0.6161(1) 0.4103(1)
C10 C 0.0900(2) 0.5356(1) 0.3891(1)
C11 C 0.1393(3) 0.7643(1) 0.4416(1)
C12 C 0.0973(3) 0.8345(1) 0.4622(1)
C13 C 0.0462(3) 0.9220(1) 0.4837(1)
C14 C 0.2639(6) 0.9763(2) 0.5198(4)
C15 C -0.0746(7) 0.9315(2) 0.5828(3)
C16 C -0.0778(7) 0.9629(2) 0.3905(3)
H1 H 0.1635 0.2485 0.3480
H2 H 0.4959 0.2117 0.3030
H3 H 0.7457 0.3182 0.2863
H4 H 0.6595 0.4580 0.3173
H5 H 0.5028 0.6997 0.4055
H6 H -0.1097 0.6290 0.4207
H7 H -0.0151 0.4914 0.3853
H8 H 0.3591 0.9703 0.4680
H9 H 0.3369 0.9549 0.5872
H10 H 0.0121 0.9069 0.6448
H11 H -0.2091 0.9015 0.5686
H12 H -0.2055 0.9303 0.3667
H13 H 0.0069 0.9631 0.3338
C17? C -0.2131(6) 0.9308(2) 0.4653(3)
C18? C 0.1182(6) 0.9767(2) 0.3946(3)
C19? C 0.1396(7) 0.9461(2) 0.5892(3)
H14? H -0.2715 0.8979 0.5175
H15? H -0.2747 0.9113 0.3950
H16? H 0.0392 0.9606 0.3259
H17? H 0.2695 0.9683 0.3938
H18? H 0.2941 0.9425 0.5955
H19? H 0.0941 0.9090 0.6411
loop_
_geom_bond_atom_site_label_1
_geom_bond_atom_site_label_2
_geom_bond_site_symmetry_1
_geom_bond_site_symmetry_2
N1 C1 1_555 1_555
C1 C2 1_555 1_555
C2 C3 1_555 1_555
C3 C4 1_555 1_555
C4 C5 1_555 1_555
C5 N1 1_555 1_555
C6 C5 1_555 1_555
N2 C6 1_555 1_555
C7 N2 1_555 1_555
C8 C7 1_555 1_555
C9 C8 1_555 1_555
C10 C6 1_555 1_555
C11 C8 1_555 1_555
C12 C11 1_555 1_555
C13 C12 1_555 1_555
C14 C13 1_555 1_555
C15 C13 1_555 1_555
C16 C13 1_555 1_555
H1 C1 1_555 1_555
H2 C2 1_555 1_555
H3 C3 1_555 1_555
H4 C4 1_555 1_555
H5 C7 1_555 1_555
H6 C9 1_555 1_555
H7 C10 1_555 1_555
H8 C14 1_555 1_555
H9 C14 1_555 1_555
H10 C15 1_555 1_555
H11 C15 1_555 1_555
H12 C16 1_555 1_555
H13 C16 1_555 1_555
C9 C10 1_555 1_555

#END
