
#######################################################################
#
#                 Cambridge Crystallographic Data Centre
#                                CCDC 
#
#######################################################################
#
# If this CIF has been generated from an entry in the Cambridge 
# Structural Database, then it will include bibliographic, chemical, 
# crystal, experimental, refinement or atomic coordinate data resulting 
# from the CCDC's data processing and validation procedures.
#
#######################################################################

data_LAZDAT
_chemical_formula_moiety         'C18 H16 F2'
_chemical_name_systematic        
1,1'-(Cyclopentylidenemethylene)bis(4-fluorobenzene)
_symmetry_cell_setting           monoclinic
_symmetry_space_group_name_H-M   'P 21/c'
_symmetry_Int_Tables_number      14
_space_group_name_Hall           '-P 2ybc'
loop_
_symmetry_equiv_pos_site_id
_symmetry_equiv_pos_as_xyz
1 x,y,z
2 -x,1/2+y,1/2-z
3 -x,-y,-z
4 x,1/2-y,1/2+z
_cell_length_a                   10.0173(6)
_cell_length_b                   15.1902(9)
_cell_length_c                   8.7807(6)
_cell_angle_alpha                90
_cell_angle_beta                 91.605(2)
_cell_angle_gamma                90
_cell_volume                     1335.59
_exptl_crystal_colour            colorless
_cell_formula_units_Z            4
loop_
_atom_site_label
_atom_site_type_symbol
_atom_site_fract_x
_atom_site_fract_y
_atom_site_fract_z
F1 F 0.90097(9) 0.63804(7) 0.44769(11)
F2 F 0.10328(9) 0.35822(6) 0.06217(11)
C1 C 0.77060(14) 0.64507(10) 0.40102(18)
C2 C 0.74037(14) 0.69457(10) 0.27362(18)
H1 H 0.8086 0.7230 0.2190
C3 C 0.60743(14) 0.70179(9) 0.22719(17)
H2 H 0.5848 0.7355 0.1391
C4 C 0.50589(14) 0.66067(9) 0.30701(16)
C5 C 0.36271(14) 0.66933(9) 0.25419(16)
C6 C 0.29427(14) 0.58626(9) 0.20684(16)
C7 C 0.15689(14) 0.57462(10) 0.22448(16)
H3 H 0.1068 0.6198 0.2710
C8 C 0.09252(15) 0.49859(10) 0.17556(18)
H4 H -0.0011 0.4920 0.1863
C9 C 0.16670(15) 0.43284(10) 0.11117(17)
C10 C 0.30512(14) 0.74917(10) 0.24749(16)
C11 C 0.16974(14) 0.77368(10) 0.17738(17)
H5 H 0.0977 0.7638 0.2503
H6 H 0.1502 0.7391 0.0838
C12 C 0.18454(15) 0.87172(10) 0.14082(17)
H7 H 0.2334 0.8806 0.0456
H8 H 0.0964 0.9010 0.1314
C13 C 0.26485(15) 0.90577(10) 0.27897(17)
H9 H 0.2077 0.9122 0.3685
H10 H 0.3069 0.9632 0.2570
C14 C 0.37084(14) 0.83382(9) 0.30568(17)
H11 H 0.4523 0.8470 0.2485
H12 H 0.3954 0.8288 0.4153
C15 C 0.36597(14) 0.51638(9) 0.14441(16)
H13 H 0.4599 0.5217 0.1351
C16 C 0.30267(15) 0.43955(10) 0.09582(16)
H14 H 0.3521 0.3927 0.0530
C17 C 0.54248(14) 0.61022(9) 0.43449(16)
H15 H 0.4753 0.5807 0.4892
C18 C 0.67533(15) 0.60231(10) 0.48285(17)
H16 H 0.6995 0.5683 0.5701
loop_
_geom_bond_atom_site_label_1
_geom_bond_atom_site_label_2
_geom_bond_site_symmetry_1
_geom_bond_site_symmetry_2
F1 C1 1_555 1_555
F2 C9 1_555 1_555
C1 C2 1_555 1_555
C2 H1 1_555 1_555
C3 C2 1_555 1_555
H2 C3 1_555 1_555
C4 C3 1_555 1_555
C5 C4 1_555 1_555
C6 C5 1_555 1_555
C7 C6 1_555 1_555
H3 C7 1_555 1_555
C8 C7 1_555 1_555
H4 C8 1_555 1_555
C9 C8 1_555 1_555
C10 C5 1_555 1_555
C11 C10 1_555 1_555
H5 C11 1_555 1_555
H6 C11 1_555 1_555
C12 C11 1_555 1_555
H7 C12 1_555 1_555
H8 C12 1_555 1_555
C13 C12 1_555 1_555
H9 C13 1_555 1_555
H10 C13 1_555 1_555
C14 C10 1_555 1_555
H11 C14 1_555 1_555
H12 C14 1_555 1_555
C15 C6 1_555 1_555
H13 C15 1_555 1_555
C16 C9 1_555 1_555
H14 C16 1_555 1_555
C17 C4 1_555 1_555
H15 C17 1_555 1_555
C18 C1 1_555 1_555
H16 C18 1_555 1_555
C13 C14 1_555 1_555
C15 C16 1_555 1_555
C17 C18 1_555 1_555

#END
