
#######################################################################
#
#                 Cambridge Crystallographic Data Centre
#                                CCDC 
#
#######################################################################
#
# If this CIF has been generated from an entry in the Cambridge 
# Structural Database, then it will include bibliographic, chemical, 
# crystal, experimental, refinement or atomic coordinate data resulting 
# from the CCDC's data processing and validation procedures.
#
#######################################################################

data_LAZMEE
_chemical_formula_moiety         C70,6(S8)
_chemical_name_systematic        'C70Fullerene hexakis(octathiocane)'
_symmetry_cell_setting           orthorhombic
_symmetry_space_group_name_H-M   'A m m 2'
_symmetry_Int_Tables_number      38
_space_group_name_Hall           'A 2 -2'
loop_
_symmetry_equiv_pos_site_id
_symmetry_equiv_pos_as_xyz
1 x,y,z
2 x,1/2+y,1/2+z
3 -x,y,z
4 -x,1/2+y,1/2+z
5 x,-y,z
6 x,1/2-y,1/2+z
7 -x,-y,z
8 -x,1/2-y,1/2+z
_cell_length_a                   37.953
_cell_length_b                   20.241
_cell_length_c                   10.226
_cell_angle_alpha                90
_cell_angle_beta                 90
_cell_angle_gamma                90
_cell_volume                     7855.68
_exptl_crystal_colour            black
_cell_formula_units_Z            4
loop_
_atom_site_label
_atom_site_type_symbol
_atom_site_fract_x
_atom_site_fract_y
_atom_site_fract_z
S1 S 0.35492(4) 0.09392(9) -0.16679(22)
S2 S 0.30497(6) 0.09375(13) -0.24363(31)
S3 S 0.28683(5) 0.18970(13) -0.24092(27)
S4 S 0.29586(4) 0.23090(9) -0.41936(23)
S5 S 0.34251(4) 0.28228(8) -0.41122(24)
S6 S 0.38065(4) 0.22585(9) -0.49835(22)
S7 S 0.40886(4) 0.18284(9) -0.34906(23)
S8 S 0.38935(4) 0.08919(8) -0.32177(22)
S9 S 0.26081(6) 0.00000 0.08803(26)
S10 S 0.29218(5) 0.08200(10) 0.09866(26)
S11 S 0.29083(4) 0.11598(8) 0.28817(20)
S12 S 0.33491(4) 0.08202(8) 0.38109(19)
S13 S 0.32046(6) 0.00000 0.48647(25)
S10D S 0.29218(5) -0.08200(10) 0.09866(26)
S12D S 0.33491(4) -0.08202(8) 0.38109(19)
S11D S 0.29083(4) -0.11598(8) 0.28817(20)
S14 S 0.14506(4) 0.09592(9) 0.16108(23)
S15 S 0.19656(5) 0.10693(13) 0.21633(30)
S16 S 0.20901(6) 0.20512(12) 0.21762(26)
S17 S 0.20291(4) 0.23842(9) 0.40705(22)
S18 S 0.15514(5) 0.28518(8) 0.41167(22)
S19 S 0.12014(4) 0.22333(9) 0.50093(22)
S20 S 0.09188(4) 0.17879(9) 0.35394(23)
S21 S 0.11397(5) 0.08791(9) 0.32396(23)
S22 S 0.21390(6) 0.00000 -0.54876(25)
S23 S 0.23273(4) 0.08186(8) -0.45335(19)
S24 S 0.19386(5) 0.11375(9) -0.32900(21)
S25 S 0.20819(5) 0.08239(10) -0.14604(25)
S26 S 0.17917(6) 0.00000 -0.10357(27)
S23D S 0.23273(4) -0.08186(8) -0.45335(19)
S25D S 0.20819(5) -0.08239(10) -0.14604(25)
S24D S 0.19386(5) -0.11375(9) -0.32900(21)
C1 C 0.50000 0.19536(10) 0.05290(27)
C2 C 0.46905(6) 0.19536 0.13645(17)
C3 C 0.48086(4) 0.19536 0.27161(22)
C4 C 0.50000 0.15858(11) -0.06150(26)
C5 C 0.43973(6) 0.15858 0.10116(14)
C6 C 0.46275(4) 0.15858 0.36422(22)
C7 C 0.46936(4) 0.12024(7) -0.09744(21)
C8 C 0.44003(5) 0.12024 -0.01807(19)
C9 C 0.42111(5) 0.12024 0.19822(19)
C10 C 0.43230(5) 0.12024 0.32638(19)
C11 C 0.48185(4) 0.12024 0.46020(20)
C12 C 0.48121(4) 0.05923(8) -0.15694(22)
C13 C 0.42122(5) 0.05923 0.00558(19)
C14 C 0.40957(5) 0.05923 0.13811(18)
C15 C 0.43246(5) 0.05923 0.40039(19)
C16 C 0.46287(4) 0.05923 0.48234(21)
C17 C 0.46180(6) 0.00000 -0.14292(29)
C18 C 0.43067(6) 0.00000 -0.05867(26)
C19 C 0.40705(8) 0.00000 0.21094(25)
C20 C 0.41893(7) 0.00000 0.34698(26)
C21 C 0.48073(6) 0.00000 0.51370(30)
C2B C 0.53095(6) 0.19536 0.13645(17)
C3B C 0.51914(4) 0.19536 0.27161(22)
C7B C 0.53064(4) 0.12024(7) -0.09744(21)
C11B C 0.51815(4) 0.12024 0.46020(20)
C12B C 0.51879(4) 0.05923(8) -0.15694(22)
C12D C 0.48121(4) -0.05923(8) -0.15694(22)
C13D C 0.42122(5) -0.05923 0.00558(19)
C14D C 0.40957(5) -0.05923 0.13811(18)
C15D C 0.43246(5) -0.05923 0.40039(19)
C16D C 0.46287(4) -0.05923 0.48234(21)
C21B C 0.51927(6) 0.00000 0.51370(30)
C5B C 0.56027(6) 0.15858 0.10116(14)
C6B C 0.53725(4) 0.15858 0.36422(22)
C8B C 0.55997(5) 0.12024 -0.01807(19)
C16B C 0.53713(4) 0.05923 0.48234(21)
C17B C 0.53820(6) 0.00000 -0.14292(29)
C7D C 0.46936(4) -0.12024(7) -0.09744(21)
C12F C 0.51879(4) -0.05923(8) -0.15694(22)
C8D C 0.44003(5) -0.12024 -0.01807(19)
C9D C 0.42111(5) -0.12024 0.19822(19)
C10D C 0.43230(5) -0.12024 0.32638(19)
C11D C 0.48185(4) -0.12024 0.46020(20)
C16F C 0.53713(4) -0.05923 0.48234(21)
C9B C 0.57889(5) 0.12024 0.19822(19)
C10B C 0.56770(5) 0.12024 0.32638(19)
C13B C 0.57878(5) 0.05923 0.00558(19)
C15B C 0.56754(5) 0.05923 0.40039(19)
C18B C 0.56933(6) 0.00000 -0.05867(26)
C4D C 0.50000 -0.15858(11) -0.06150(26)
C7F C 0.53064(4) -0.12024(7) -0.09744(21)
C5D C 0.43973(6) -0.15858 0.10116(14)
C6D C 0.46275(4) -0.15858 0.36422(22)
C11F C 0.51815(4) -0.12024 0.46020(20)
C15F C 0.56754(5) -0.05923 0.40039(19)
C14B C 0.59043(5) 0.05923 0.13811(18)
C20B C 0.58107(7) 0.00000 0.34698(26)
C13F C 0.57878(5) -0.05923 0.00558(19)
C1D C 0.50000 -0.19536(10) 0.05290(27)
C8F C 0.55997(5) -0.12024 -0.01807(19)
C2D C 0.46905(6) -0.19536 0.13645(17)
C3D C 0.48086(4) -0.19536 0.27161(22)
C6F C 0.53725(4) -0.15858 0.36422(22)
C10F C 0.56770(5) -0.12024 0.32638(19)
C19B C 0.59295(8) 0.00000 0.21094(25)
C14F C 0.59043(5) -0.05923 0.13811(18)
C2F C 0.53095(6) -0.19536 0.13645(17)
C5F C 0.56027(6) -0.15858 0.10116(14)
C3F C 0.51914(4) -0.19536 0.27161(22)
C9F C 0.57889(5) -0.12024 0.19822(19)
S27? S 0.30344 0.10693 -0.21633
S28? S 0.29099 0.20512 -0.21762
S29? S 0.28610 0.00000 0.54876
S30? S 0.26727 -0.08186 0.45335
S31? S 0.30614 -0.11375 0.32900
S32? S 0.29181 -0.08239 0.14604
S33? S 0.32083 0.00000 0.10357
S34? S 0.19503 0.09375 0.24363
S35? S 0.21317 0.18970 0.24092
S36? S 0.23919 0.00000 -0.08803
S37? S 0.20782 -0.08200 -0.09866
S38? S 0.20917 -0.11598 -0.28817
S39? S 0.16509 -0.08202 -0.38109
S40? S 0.17954 0.00000 -0.48647
loop_
_geom_bond_atom_site_label_1
_geom_bond_atom_site_label_2
_geom_bond_site_symmetry_1
_geom_bond_site_symmetry_2
S1 S2 1_555 1_555
S2 S3 1_555 1_555
S3 S4 1_555 1_555
S4 S5 1_555 1_555
S5 S6 1_555 1_555
S6 S7 1_555 1_555
S7 S8 1_555 1_555
S8 S1 1_555 1_555
S9 S10 1_555 1_555
S10 S11 1_555 1_555
S11 S12 1_555 1_555
S12 S13 1_555 1_555
S13 S12D 1_555 1_555
S14 S15 1_555 1_555
S15 S16 1_555 1_555
S16 S17 1_555 1_555
S17 S18 1_555 1_555
S18 S19 1_555 1_555
S19 S20 1_555 1_555
S20 S21 1_555 1_555
S21 S14 1_555 1_555
S22 S23 1_555 1_555
S23 S24 1_555 1_555
S24 S25 1_555 1_555
S25 S26 1_555 1_555
S26 S25D 1_555 1_555
C1 C2 1_555 1_555
C2 C3 1_555 1_555
C3 C6 1_555 1_555
C4 C1 1_555 1_555
C5 C2 1_555 1_555
C6 C10 1_555 1_555
C7 C4 1_555 1_555
C8 C5 1_555 1_555
C9 C5 1_555 1_555
C10 C9 1_555 1_555
C11 C6 1_555 1_555
C12 C7 1_555 1_555
C13 C8 1_555 1_555
C14 C9 1_555 1_555
C15 C10 1_555 1_555
C16 C11 1_555 1_555
C17 C12 1_555 1_555
C18 C13 1_555 1_555
C19 C14 1_555 1_555
C20 C15 1_555 1_555
C21 C16 1_555 1_555
S10D S9 1_555 1_555
S12D S11D 1_555 1_555
S11D S10D 1_555 1_555
S23D S22 1_555 1_555
S25D S24D 1_555 1_555
S24D S23D 1_555 1_555
C2B C1 1_555 1_555
C3B C3 1_555 1_555
C7B C4 1_555 1_555
C11B C11 1_555 1_555
C12B C12 1_555 1_555
C12D C17 1_555 1_555
C13D C18 1_555 1_555
C14D C19 1_555 1_555
C15D C20 1_555 1_555
C16D C21 1_555 1_555
C21B C21 1_555 1_555
C5B C2B 1_555 1_555
C6B C3B 1_555 1_555
C8B C7B 1_555 1_555
C16B C11B 1_555 1_555
C17B C12B 1_555 1_555
C7D C12D 1_555 1_555
C12F C12D 1_555 1_555
C8D C13D 1_555 1_555
C9D C14D 1_555 1_555
C10D C15D 1_555 1_555
C11D C16D 1_555 1_555
C16F C21B 1_555 1_555
C9B C5B 1_555 1_555
C10B C6B 1_555 1_555
C13B C8B 1_555 1_555
C15B C16B 1_555 1_555
C18B C17B 1_555 1_555
C4D C7D 1_555 1_555
C7F C12F 1_555 1_555
C5D C8D 1_555 1_555
C6D C10D 1_555 1_555
C11F C11D 1_555 1_555
C15F C16F 1_555 1_555
C14B C9B 1_555 1_555
C20B C15B 1_555 1_555
C13F C18B 1_555 1_555
C1D C4D 1_555 1_555
C8F C7F 1_555 1_555
C2D C5D 1_555 1_555
C3D C6D 1_555 1_555
C6F C11F 1_555 1_555
C10F C15F 1_555 1_555
C19B C14B 1_555 1_555
C14F C13F 1_555 1_555
C2F C1D 1_555 1_555
C5F C8F 1_555 1_555
C3F C3D 1_555 1_555
C9F C10F 1_555 1_555
C7 C8 1_555 1_555
C13 C14 1_555 1_555
C15 C16 1_555 1_555
C17 C18 1_555 1_555
C19 C20 1_555 1_555
C2B C3B 1_555 1_555
C7B C12B 1_555 1_555
C11B C6B 1_555 1_555
C13D C14D 1_555 1_555
C15D C16D 1_555 1_555
C21B C16B 1_555 1_555
C5B C8B 1_555 1_555
C17B C12F 1_555 1_555
C7D C8D 1_555 1_555
C9D C10D 1_555 1_555
C9D C5D 1_555 1_555
C11D C6D 1_555 1_555
C16F C11F 1_555 1_555
C9B C10B 1_555 1_555
C10B C15B 1_555 1_555
C13B C18B 1_555 1_555
C13B C14B 1_555 1_555
C4D C7F 1_555 1_555
C15F C20B 1_555 1_555
C20B C19B 1_555 1_555
C13F C8F 1_555 1_555
C1D C2D 1_555 1_555
C2D C3D 1_555 1_555
C6F C10F 1_555 1_555
C6F C3F 1_555 1_555
C19B C14F 1_555 1_555
C14F C9F 1_555 1_555
C2F C5F 1_555 1_555
C2F C3F 1_555 1_555
C5F C9F 1_555 1_555

#END
