
#######################################################################
#
#                 Cambridge Crystallographic Data Centre
#                                CCDC 
#
#######################################################################
#
# If this CIF has been generated from an entry in the Cambridge 
# Structural Database, then it will include bibliographic, chemical, 
# crystal, experimental, refinement or atomic coordinate data resulting 
# from the CCDC's data processing and validation procedures.
#
#######################################################################

data_LAZPUY
_chemical_formula_moiety         'C15 H19 Cl1 N2'
_chemical_name_systematic        
N,N'-Di-isopropyl-3-(2-chlorophenyl)prop-2-ynamidine
_symmetry_cell_setting           orthorhombic
_symmetry_space_group_name_H-M   'P b c a'
_symmetry_Int_Tables_number      61
_space_group_name_Hall           '-P 2ac 2ab'
loop_
_symmetry_equiv_pos_site_id
_symmetry_equiv_pos_as_xyz
1 x,y,z
2 1/2-x,-y,1/2+z
3 -x,1/2+y,1/2-z
4 1/2+x,1/2-y,-z
5 -x,-y,-z
6 1/2+x,y,1/2-z
7 x,1/2-y,1/2+z
8 1/2-x,1/2+y,z
_cell_length_a                   17.097(2)
_cell_length_b                   9.3950(13)
_cell_length_c                   18.607(3)
_cell_angle_alpha                90
_cell_angle_beta                 90
_cell_angle_gamma                90
_cell_volume                     2988.77
_exptl_crystal_colour            colorless
_exptl_crystal_description       prism
_cell_formula_units_Z            8
loop_
_atom_site_label
_atom_site_type_symbol
_atom_site_fract_x
_atom_site_fract_y
_atom_site_fract_z
Cl1 Cl 0.45311(3) 0.12448(5) 0.45058(3)
N1 N 0.24085(9) 0.10106(17) 0.19371(8)
N2 N 0.33734(8) -0.06332(15) 0.22216(7)
C1 C 0.30281(9) 0.05609(18) 0.23335(8)
C2 C 0.32380(9) 0.15466(17) 0.29066(9)
C3 C 0.33803(9) 0.23068(17) 0.34007(9)
C4 C 0.35427(9) 0.32467(17) 0.39881(8)
C5 C 0.40564(9) 0.28703(17) 0.45380(8)
C6 C 0.42039(11) 0.3778(2) 0.51057(10)
H1 H 0.4546 0.3507 0.5469
C7 C 0.38432(12) 0.5080(2) 0.51305(10)
H2 H 0.3940 0.5693 0.5513
C8 C 0.33373(12) 0.54843(19) 0.45893(10)
H3 H 0.3097 0.6372 0.4605
C9 C 0.31889(10) 0.45759(18) 0.40275(9)
H4 H 0.2845 0.4855 0.3667
C10 C 0.21075(11) 0.02472(18) 0.13139(9)
C11 C 0.19262(11) 0.1307(2) 0.07199(10)
H5 H 0.1538 0.1969 0.0885
H6 H 0.1732 0.0808 0.0307
H7 H 0.2394 0.1813 0.0593
C12 C 0.14006(12) -0.0638(2) 0.15061(10)
H8 H 0.1524 -0.1241 0.1907
H9 H 0.1255 -0.1215 0.1102
H10 H 0.0974 -0.0022 0.1631
C13 C 0.40901(10) -0.0934(2) 0.26324(10)
C14 C 0.47068(13) -0.1408(3) 0.21150(12)
H11 H 0.4514 -0.2195 0.1838
H12 H 0.5164 -0.1697 0.2376
H13 H 0.4838 -0.0635 0.1799
C15 C 0.39262(14) -0.2029(3) 0.32022(14)
H14 H 0.3520 -0.1689 0.3514
H15 H 0.4393 -0.2198 0.3477
H16 H 0.3761 -0.2901 0.2979
H17 H 0.2234(9) 0.1814(18) 0.2023(8)
H18 H 0.2509(10) -0.0365(17) 0.1174(8)
H19 H 0.4296(9) -0.0083(18) 0.2867(9)
loop_
_geom_bond_atom_site_label_1
_geom_bond_atom_site_label_2
_geom_bond_site_symmetry_1
_geom_bond_site_symmetry_2
Cl1 C5 1_555 1_555
N1 C1 1_555 1_555
N2 C1 1_555 1_555
C1 C2 1_555 1_555
C2 C3 1_555 1_555
C3 C4 1_555 1_555
C4 C5 1_555 1_555
C5 C6 1_555 1_555
C6 H1 1_555 1_555
C7 C6 1_555 1_555
H2 C7 1_555 1_555
C8 C7 1_555 1_555
H3 C8 1_555 1_555
C9 C4 1_555 1_555
H4 C9 1_555 1_555
C10 N1 1_555 1_555
C11 C10 1_555 1_555
H5 C11 1_555 1_555
H6 C11 1_555 1_555
H7 C11 1_555 1_555
C12 C10 1_555 1_555
H8 C12 1_555 1_555
H9 C12 1_555 1_555
H10 C12 1_555 1_555
C13 N2 1_555 1_555
C14 C13 1_555 1_555
H11 C14 1_555 1_555
H12 C14 1_555 1_555
H13 C14 1_555 1_555
C15 C13 1_555 1_555
H14 C15 1_555 1_555
H15 C15 1_555 1_555
H16 C15 1_555 1_555
H17 N1 1_555 1_555
H18 C10 1_555 1_555
H19 C13 1_555 1_555
C8 C9 1_555 1_555

#END
