
#######################################################################
#
#                 Cambridge Crystallographic Data Centre
#                                CCDC 
#
#######################################################################
#
# If this CIF has been generated from an entry in the Cambridge 
# Structural Database, then it will include bibliographic, chemical, 
# crystal, experimental, refinement or atomic coordinate data resulting 
# from the CCDC's data processing and validation procedures.
#
#######################################################################

data_LAZQOT
_chemical_formula_moiety         'C47 H56 N4 O4'
_chemical_name_systematic        
1-(4-Nitrophenyl)-2-(8-quinolyl)-N,N'-bis(3,5-di-t-butylsalicylidene)ethane-1,2-diamine
_symmetry_cell_setting           monoclinic
_symmetry_space_group_name_H-M   'P 21/c'
_symmetry_Int_Tables_number      14
_space_group_name_Hall           '-P 2ybc'
loop_
_symmetry_equiv_pos_site_id
_symmetry_equiv_pos_as_xyz
1 x,y,z
2 -x,1/2+y,1/2-z
3 -x,-y,-z
4 x,1/2-y,1/2+z
_cell_length_a                   14.1133(10)
_cell_length_b                   24.338(2)
_cell_length_c                   13.7730(6)
_cell_angle_alpha                90
_cell_angle_beta                 118.090(4)
_cell_angle_gamma                90
_cell_volume                     4173.63
_exptl_crystal_colour            colorless
_exptl_crystal_description       plate
_cell_formula_units_Z            4
_exptl_crystal_recrystallization_method dichloromethane/ethanol
loop_
_atom_site_label
_atom_site_type_symbol
_atom_site_fract_x
_atom_site_fract_y
_atom_site_fract_z
O1 O 0.3679(2) 0.55437(15) 0.6595(3)
H1 H 0.4264 0.5490 0.6589
O2 O 0.6193(3) 0.37051(15) 0.7426(3)
H2 H 0.6427 0.4012 0.7357
O3 O 0.8503(6) 0.7497(3) 0.5133(5)
O4 O 0.8353(4) 0.6961(3) 0.3852(5)
N1 N 0.6407(3) 0.47632(17) 0.7469(3)
N2 N 0.5145(3) 0.56350(18) 0.6007(4)
N3 N 0.8600(3) 0.5884(2) 0.8976(4)
N4 N 0.8235(4) 0.7067(3) 0.4655(5)
C1 C 0.6879(3) 0.5275(2) 0.7329(4)
H3 H 0.6845 0.5562 0.7830
C2 C 0.8036(4) 0.5172(2) 0.7622(4)
C3 C 0.8315(4) 0.4775(2) 0.7081(5)
H4 H 0.7763 0.4569 0.6508
C4 C 0.9382(4) 0.4670(2) 0.7352(5)
H5 H 0.9548 0.4401 0.6956
C5 C 1.0180(4) 0.4952(3) 0.8178(5)
H6 H 1.0905 0.4869 0.8370
C6 C 0.9966(4) 0.5362(2) 0.8754(4)
C7 C 1.0775(4) 0.5669(3) 0.9598(5)
H7 H 1.1510 0.5599 0.9816
C8 C 1.0488(4) 0.6068(3) 1.0098(5)
H8 H 1.1022 0.6280 1.0674
C9 C 0.9402(4) 0.6163(3) 0.9757(5)
H9 H 0.9225 0.6449 1.0113
C10 C 0.8863(4) 0.5482(2) 0.8462(4)
C11 C 0.6203(4) 0.5465(2) 0.6113(4)
H10 H 0.6072 0.5133 0.5639
C12 C 0.6752(4) 0.5887(2) 0.5739(4)
C13 C 0.7183(4) 0.6366(2) 0.6353(5)
H11 H 0.7143 0.6426 0.7014
C14 C 0.7670(4) 0.6753(3) 0.5991(5)
H12 H 0.7954 0.7083 0.6393
C15 C 0.7734(4) 0.6654(2) 0.5059(5)
C16 C 0.7334(4) 0.6181(3) 0.4430(5)
H13 H 0.7396 0.6122 0.3780
C17 C 0.6837(4) 0.5797(2) 0.4795(5)
H14 H 0.6554 0.5469 0.4386
C18 C 0.5797(4) 0.4784(2) 0.7907(4)
H15 H 0.5666 0.5132 0.8133
C19 C 0.5291(4) 0.4308(3) 0.8081(4)
C20 C 0.4569(4) 0.4387(3) 0.8519(5)
H16 H 0.4419 0.4749 0.8665
C21 C 0.4078(4) 0.3944(3) 0.8737(5)
C22 C 0.4298(4) 0.3428(3) 0.8463(5)
H17 H 0.3954 0.3123 0.8594
C23 C 0.4979(4) 0.3317(3) 0.8013(5)
C24 C 0.5492(4) 0.3777(3) 0.7833(4)
C25 C 0.3312(5) 0.4015(3) 0.9242(5)
C26 C 0.3812(7) 0.3740(4) 1.0340(7)
H18 H 0.3922 0.3349 1.0249
H19 H 0.3336 0.3776 1.0674
H20 H 0.4505 0.3912 1.0818
C27 C 0.2195(5) 0.3807(3) 0.8433(7)
H21 H 0.2236 0.3417 0.8276
H22 H 0.1919 0.4018 0.7748
H23 H 0.1711 0.3851 0.8756
C28 C 0.3161(5) 0.4622(3) 0.9431(5)
H24 H 0.3854 0.4781 0.9952
H25 H 0.2657 0.4653 0.9733
H26 H 0.2873 0.4820 0.8731
C29 C 0.5217(4) 0.2741(3) 0.7773(5)
C30 C 0.4523(5) 0.2305(3) 0.7982(6)
H27 H 0.4649 0.2334 0.8743
H28 H 0.4722 0.1936 0.7856
H29 H 0.3761 0.2370 0.7477
C31 C 0.6408(4) 0.2598(3) 0.8532(6)
H30 H 0.6566 0.2634 0.9302
H31 H 0.6866 0.2850 0.8383
H32 H 0.6547 0.2220 0.8390
C32 C 0.4993(5) 0.2679(3) 0.6560(5)
H33 H 0.5418 0.2950 0.6406
H34 H 0.4228 0.2740 0.6065
H35 H 0.5192 0.2308 0.6446
C33 C 0.4582(4) 0.6015(2) 0.5320(4)
H36 H 0.4856 0.6196 0.4893
C34 C 0.3518(4) 0.6171(2) 0.5194(4)
C35 C 0.3104(4) 0.5930(2) 0.5834(4)
C36 C 0.2083(4) 0.6085(2) 0.5695(4)
C37 C 0.1540(4) 0.6477(2) 0.4890(5)
H37 H 0.0849 0.6584 0.4782
C38 C 0.1914(4) 0.6729(2) 0.4227(4)
C39 C 0.2919(4) 0.6564(2) 0.4397(4)
H38 H 0.3210 0.6722 0.3963
C40 C 0.1596(4) 0.5818(2) 0.6358(5)
C41 C 0.2308(4) 0.5951(3) 0.7595(5)
H39 H 0.3037 0.5813 0.7835
H40 H 0.2006 0.5776 0.8028
H41 H 0.2333 0.6350 0.7703
C42 C 0.1505(4) 0.5192(2) 0.6176(5)
H42 H 0.1054 0.5114 0.5392
H43 H 0.1180 0.5028 0.6599
H44 H 0.2222 0.5037 0.6421
C43 C 0.0465(4) 0.6034(3) 0.6026(5)
H45 H -0.0007 0.5953 0.5248
H46 H 0.0494 0.6432 0.6143
H47 H 0.0184 0.5856 0.6476
C44 C 0.1237(4) 0.7151(2) 0.3369(5)
C45 C 0.1758(6) 0.7365(3) 0.2712(6)
H48 H 0.1942 0.7056 0.2377
H49 H 0.2412 0.7567 0.3198
H50 H 0.1259 0.7610 0.2134
C46 C 0.0940(6) 0.7637(3) 0.3894(6)
H51 H 0.1596 0.7827 0.4415
H52 H 0.0560 0.7498 0.4284
H53 H 0.0476 0.7893 0.3317
C47 C 0.0172(5) 0.6883(3) 0.2565(6)
H54 H 0.0312 0.6573 0.2197
H55 H -0.0281 0.7154 0.2014
H56 H -0.0198 0.6751 0.2970
loop_
_geom_bond_atom_site_label_1
_geom_bond_atom_site_label_2
_geom_bond_site_symmetry_1
_geom_bond_site_symmetry_2
O1 H1 1_555 1_555
O2 H2 1_555 1_555
O3 N4 1_555 1_555
O4 N4 1_555 1_555
N1 C1 1_555 1_555
N2 C11 1_555 1_555
N3 C9 1_555 1_555
N4 C15 1_555 1_555
C1 H3 1_555 1_555
C2 C1 1_555 1_555
C3 C2 1_555 1_555
H4 C3 1_555 1_555
C4 C3 1_555 1_555
H5 C4 1_555 1_555
C5 C4 1_555 1_555
H6 C5 1_555 1_555
C6 C5 1_555 1_555
C7 C6 1_555 1_555
H7 C7 1_555 1_555
C8 C7 1_555 1_555
H8 C8 1_555 1_555
C9 C8 1_555 1_555
H9 C9 1_555 1_555
C10 N3 1_555 1_555
C11 C1 1_555 1_555
H10 C11 1_555 1_555
C12 C11 1_555 1_555
C13 C12 1_555 1_555
H11 C13 1_555 1_555
C14 C13 1_555 1_555
H12 C14 1_555 1_555
C15 C14 1_555 1_555
C16 C15 1_555 1_555
H13 C16 1_555 1_555
C17 C12 1_555 1_555
H14 C17 1_555 1_555
C18 N1 1_555 1_555
H15 C18 1_555 1_555
C19 C18 1_555 1_555
C20 C19 1_555 1_555
H16 C20 1_555 1_555
C21 C20 1_555 1_555
C22 C21 1_555 1_555
H17 C22 1_555 1_555
C23 C22 1_555 1_555
C24 O2 1_555 1_555
C25 C21 1_555 1_555
C26 C25 1_555 1_555
H18 C26 1_555 1_555
H19 C26 1_555 1_555
H20 C26 1_555 1_555
C27 C25 1_555 1_555
H21 C27 1_555 1_555
H22 C27 1_555 1_555
H23 C27 1_555 1_555
C28 C25 1_555 1_555
H24 C28 1_555 1_555
H25 C28 1_555 1_555
H26 C28 1_555 1_555
C29 C23 1_555 1_555
C30 C29 1_555 1_555
H27 C30 1_555 1_555
H28 C30 1_555 1_555
H29 C30 1_555 1_555
C31 C29 1_555 1_555
H30 C31 1_555 1_555
H31 C31 1_555 1_555
H32 C31 1_555 1_555
C32 C29 1_555 1_555
H33 C32 1_555 1_555
H34 C32 1_555 1_555
H35 C32 1_555 1_555
C33 N2 1_555 1_555
H36 C33 1_555 1_555
C34 C33 1_555 1_555
C35 O1 1_555 1_555
C36 C35 1_555 1_555
C37 C36 1_555 1_555
H37 C37 1_555 1_555
C38 C37 1_555 1_555
C39 C34 1_555 1_555
H38 C39 1_555 1_555
C40 C36 1_555 1_555
C41 C40 1_555 1_555
H39 C41 1_555 1_555
H40 C41 1_555 1_555
H41 C41 1_555 1_555
C42 C40 1_555 1_555
H42 C42 1_555 1_555
H43 C42 1_555 1_555
H44 C42 1_555 1_555
C43 C40 1_555 1_555
H45 C43 1_555 1_555
H46 C43 1_555 1_555
H47 C43 1_555 1_555
C44 C38 1_555 1_555
C45 C44 1_555 1_555
H48 C45 1_555 1_555
H49 C45 1_555 1_555
H50 C45 1_555 1_555
C46 C44 1_555 1_555
H51 C46 1_555 1_555
H52 C46 1_555 1_555
H53 C46 1_555 1_555
C47 C44 1_555 1_555
H54 C47 1_555 1_555
H55 C47 1_555 1_555
H56 C47 1_555 1_555
C2 C10 1_555 1_555
C6 C10 1_555 1_555
C16 C17 1_555 1_555
C19 C24 1_555 1_555
C23 C24 1_555 1_555
C34 C35 1_555 1_555
C38 C39 1_555 1_555

#END
