
#######################################################################
#
#                 Cambridge Crystallographic Data Centre
#                                CCDC 
#
#######################################################################
#
# If this CIF has been generated from an entry in the Cambridge 
# Structural Database, then it will include bibliographic, chemical, 
# crystal, experimental, refinement or atomic coordinate data resulting 
# from the CCDC's data processing and validation procedures.
#
#######################################################################

data_LAZREK
_chemical_formula_moiety         'C9 H20 N1 1+,C2 F6 N1 O4 S2 1-'
_chemical_name_systematic        
'1-n-Butyl-1-methylpyrrolidinium bis(trifluoromethanesulfonyl)amide'
_symmetry_cell_setting           orthorhombic
_symmetry_space_group_name_H-M   'P 21 21 21'
_symmetry_Int_Tables_number      19
_space_group_name_Hall           'P 2ac 2ab'
loop_
_symmetry_equiv_pos_site_id
_symmetry_equiv_pos_as_xyz
1 x,y,z
2 1/2-x,-y,1/2+z
3 1/2+x,1/2-y,-z
4 -x,1/2+y,1/2-z
_cell_length_a                   8.3947(11)
_cell_length_b                   13.0106(16)
_cell_length_c                   16.582(2)
_cell_angle_alpha                90
_cell_angle_beta                 90
_cell_angle_gamma                90
_cell_volume                     1811.09
_exptl_crystal_colour            colorless
_exptl_crystal_description       rod
_chemical_melting_point          '262.2 K'
_cell_formula_units_Z            4
_exptl_crystal_recrystallization_method 'from the melt'
loop_
_atom_site_label
_atom_site_type_symbol
_atom_site_fract_x
_atom_site_fract_y
_atom_site_fract_z
S1 S 0.13235(9) 0.46634(9) 0.35642(5)
S2 S -0.10439(9) 0.52197(9) 0.24550(5)
F1 F 0.1261(3) 0.4653(3) 0.14692(14)
O1 O 0.1688(3) 0.3739(2) 0.39949(16)
F2 F 0.2372(3) 0.5697(3) 0.47901(15)
O2 O 0.2534(3) 0.5102(3) 0.30655(15)
F3 F -0.0095(3) 0.5284(2) 0.48912(13)
O3 O -0.2731(3) 0.5049(3) 0.24157(16)
F4 F -0.0937(4) 0.5066(2) 0.08952(13)
O4 O -0.0446(3) 0.6246(2) 0.24043(15)
F5 F -0.0729(4) 0.3621(3) 0.15123(15)
N1 N -0.0382(3) 0.4536(3) 0.31698(16)
F6 F 0.0599(4) 0.6511(3) 0.40988(15)
C1 C -0.0302(5) 0.4598(5) 0.1535(2)
C2 C 0.1019(5) 0.5600(4) 0.4383(2)
C3 C 1.1325(5) 0.7563(4) 0.6238(2)
H1 H 1.241 0.7534 0.6471
H2 H 1.1055 0.6867 0.6039
N2 N 0.9396(3) 0.7420(3) 0.83495(15)
C4 C 0.9226(4) 0.6533(4) 0.8932(2)
H3 H 1.0232 0.6419 0.923
H4 H 0.8942 0.5894 0.8642
C5 C 0.7662(4) 0.7731(4) 0.8213(2)
H5 H 0.759 0.8438 0.7997
H6 H 0.713 0.7254 0.7834
C6 C 0.7891(4) 0.6850(4) 0.95083(19)
H7 H 0.8337 0.7141 1.0012
H8 H 0.7216 0.6251 0.9647
C7 C 1.1317(5) 0.8312(5) 0.5532(2)
H9 H 1.0266 0.8307 0.5275
H10 H 1.2127 0.8106 0.5139
H11 H 1.1553 0.9006 0.5729
C8 C 1.0214(4) 0.7082(4) 0.7578(2)
H12 H 0.9714 0.6436 0.739
H13 H 1.1345 0.6931 0.77
C9 C 1.0146(4) 0.7866(4) 0.6898(2)
H14 H 1.0416 0.8556 0.7109
H15 H 0.9055 0.7893 0.6673
C10 C 0.6919(4) 0.7664(4) 0.9052(2)
H16 H 0.5787 0.7456 0.9016
H17 H 0.6981 0.8336 0.933
C11 C 1.0286(4) 0.8275(4) 0.8737(2)
H18 H 0.976 0.8466 0.9243
H19 H 1.0306 0.8869 0.8374
H20 H 1.1379 0.8054 0.885
loop_
_geom_bond_atom_site_label_1
_geom_bond_atom_site_label_2
_geom_bond_site_symmetry_1
_geom_bond_site_symmetry_2
S1 O1 1_555 1_555
S2 O3 1_555 1_555
F1 C1 1_555 1_555
F2 C2 1_555 1_555
O2 S1 1_555 1_555
F3 C2 1_555 1_555
F4 C1 1_555 1_555
O4 S2 1_555 1_555
F5 C1 1_555 1_555
N1 S1 1_555 1_555
F6 C2 1_555 1_555
C1 S2 1_555 1_555
C2 S1 1_555 1_555
C3 H1 1_555 1_555
H2 C3 1_555 1_555
N2 C4 1_555 1_555
C4 H3 1_555 1_555
H4 C4 1_555 1_555
C5 N2 1_555 1_555
H5 C5 1_555 1_555
H6 C5 1_555 1_555
C6 C4 1_555 1_555
H7 C6 1_555 1_555
H8 C6 1_555 1_555
C7 C3 1_555 1_555
H9 C7 1_555 1_555
H10 C7 1_555 1_555
H11 C7 1_555 1_555
C8 N2 1_555 1_555
H12 C8 1_555 1_555
H13 C8 1_555 1_555
C9 C3 1_555 1_555
H14 C9 1_555 1_555
H15 C9 1_555 1_555
C10 C5 1_555 1_555
H16 C10 1_555 1_555
H17 C10 1_555 1_555
C11 N2 1_555 1_555
H18 C11 1_555 1_555
H19 C11 1_555 1_555
H20 C11 1_555 1_555
S2 N1 1_555 1_555
C6 C10 1_555 1_555
C8 C9 1_555 1_555

#END
