
#######################################################################
#
#                 Cambridge Crystallographic Data Centre
#                                CCDC 
#
#######################################################################
#
# If this CIF has been generated from an entry in the Cambridge 
# Structural Database, then it will include bibliographic, chemical, 
# crystal, experimental, refinement or atomic coordinate data resulting 
# from the CCDC's data processing and validation procedures.
#
#######################################################################

data_LCYSTI13
_chemical_name_common            'DrugBank: DB00138'
_chemical_formula_moiety         'C6 H12 N2 O4 S2'
_chemical_name_systematic        L-Cystine
_symmetry_cell_setting           hexagonal
_symmetry_space_group_name_H-M   'P 61 2 2'
_symmetry_Int_Tables_number      178
_space_group_name_Hall           "P 61 2' (0,0,5)"
loop_
_symmetry_equiv_pos_site_id
_symmetry_equiv_pos_as_xyz
1 x,y,z
2 x-y,x,1/6+z
3 -y,-x,5/6-z
4 -y,x-y,1/3+z
5 x-y,-y,-z
6 -x,-y,1/2+z
7 x,x-y,1/6-z
8 -x+y,-x,2/3+z
9 y,x,1/3-z
10 y,-x+y,5/6+z
11 -x+y,y,1/2-z
12 -x,-x+y,2/3-z
_cell_length_a                   5.412(1)
_cell_length_b                   5.412(1)
_cell_length_c                   55.956(1)
_cell_angle_alpha                90
_cell_angle_beta                 90
_cell_angle_gamma                120
_cell_volume                     1419.36
_exptl_crystal_colour            colorless
_cell_formula_units_Z            6
loop_
_atom_site_label
_atom_site_type_symbol
_atom_site_fract_x
_atom_site_fract_y
_atom_site_fract_z
S1 S 0.0325(1) 0.8307(1) 0.079806(7)
O1 O 0.0740(2) 1.2249(2) 0.02275(2)
C1 C -0.1720(3) 1.0309(3) 0.02913(2)
O2 O -0.3831(3) 1.0609(3) 0.03236(3)
C2 C -0.2127(3) 0.7322(2) 0.03329(2)
C3 C -0.2655(3) 0.6395(3) 0.05937(2)
N1 N 0.0319(3) 0.7173(2) 0.02316(2)
S1F S 0.0325(1) 1.2018(1) 0.086861(7)
C3F C -0.2655(3) 1.0950(4) 0.10730(2)
C2F C -0.2127(3) 1.0551(4) 0.13338(2)
C1F C -0.1720(3) 0.7971(4) 0.13754(2)
O1F O 0.0740(2) 0.8491(3) 0.14392(2)
O2F O -0.3831(3) 0.5560(4) 0.13431(3)
N1F N 0.0319(3) 1.3146(4) 0.14351(2)
loop_
_geom_bond_atom_site_label_1
_geom_bond_atom_site_label_2
_geom_bond_site_symmetry_1
_geom_bond_site_symmetry_2
S1 C3 1_555 1_555
O1 C1 1_555 1_555
C1 O2 1_555 1_555
C2 C1 1_555 1_555
C3 C2 1_555 1_555
N1 C2 1_555 1_555
S1F S1 1_555 1_555
C3F S1F 1_555 1_555
C2F C3F 1_555 1_555
C1F C2F 1_555 1_555
O1F C1F 1_555 1_555
O2F C1F 1_555 1_555
N1F C2F 1_555 1_555

#END
