
#######################################################################
#
#                 Cambridge Crystallographic Data Centre
#                                CCDC 
#
#######################################################################
#
# If this CIF has been generated from an entry in the Cambridge 
# Structural Database, then it will include bibliographic, chemical, 
# crystal, experimental, refinement or atomic coordinate data resulting 
# from the CCDC's data processing and validation procedures.
#
#######################################################################

data_LDOPAS03
_chemical_name_common            L-Dopa
_chemical_formula_moiety         'C9 H11 N1 O4'
_chemical_name_systematic        (2S)-3-(3',4'-Dihydroxyphenyl)alanine
_chemical_properties_biological  "activity in treatment of Parkinson's disease"
_symmetry_cell_setting           monoclinic
_symmetry_space_group_name_H-M   'P 21'
_symmetry_Int_Tables_number      4
_space_group_name_Hall           'P 2yb'
loop_
_symmetry_equiv_pos_site_id
_symmetry_equiv_pos_as_xyz
1 x,y,z
2 -x,1/2+y,-z
_cell_length_a                   13.619(9)
_cell_length_b                   5.232(2)
_cell_length_c                   6.062(3)
_cell_angle_alpha                90
_cell_angle_beta                 97.56(4)
_cell_angle_gamma                90
_cell_volume                     428.191
_cell_formula_units_Z            2
loop_
_atom_site_label
_atom_site_type_symbol
_atom_site_fract_x
_atom_site_fract_y
_atom_site_fract_z
N1 N -0.41832(3) 0.18630 -0.73708(5)
O1 O -0.49248(2) 0.1747(1) -1.16904(5)
O2 O -0.34926(3) 0.2859(1) -1.28767(5)
O3 O -0.17759(3) -0.4571(1) -0.16225(6)
O4 O -0.03209(3) -0.1293(1) -0.05717(6)
C1 C -0.40121(2) 0.2247(1) -1.13910(5)
C2 C -0.34603(2) 0.2064(1) -0.90180(5)
C3 C -0.27628(3) -0.0241(1) -0.88425(5)
C4 C -0.21231(2) -0.0467(1) -0.66253(5)
C5 C -0.22802(3) -0.2421(1) -0.51378(5)
C6 C -0.16658(2) -0.2693(1) -0.31226(5)
C7 C -0.08953(3) -0.0941(1) -0.25686(5)
C8 C -0.07394(3) 0.1021(1) -0.40339(6)
C9 C -0.13491(3) 0.1255(1) -0.60576(6)
H1 H -0.38280 0.19737 -0.58017
H2 H -0.45585 0.01987 -0.75881
H3 H -0.47107 0.32186 -0.76835
H4 H -0.23423 -0.55679 -0.22696
H5 H 0.00439 0.02592 -0.01396
H6 H -0.30194 0.37332 -0.87437
H7 H -0.22776 -0.01035 -1.00692
H8 H -0.32211 -0.18725 -0.91728
H9 H -0.28664 -0.37984 -0.55499
H10 H -0.01240 0.22863 -0.35402
H11 H -0.12544 0.27192 -0.72676
loop_
_geom_bond_atom_site_label_1
_geom_bond_atom_site_label_2
_geom_bond_site_symmetry_1
_geom_bond_site_symmetry_2
N1 C2 1_555 1_555
O1 C1 1_555 1_555
O2 C1 1_555 1_555
O3 C6 1_555 1_555
O4 C7 1_555 1_555
C1 C2 1_555 1_555
C2 C3 1_555 1_555
C3 C4 1_555 1_555
C4 C5 1_555 1_555
C5 C6 1_555 1_555
C6 C7 1_555 1_555
C7 C8 1_555 1_555
C8 C9 1_555 1_555
C9 C4 1_555 1_555
H1 N1 1_555 1_555
H2 N1 1_555 1_555
H3 N1 1_555 1_555
H4 O3 1_555 1_555
H5 O4 1_555 1_555
H6 C2 1_555 1_555
H7 C3 1_555 1_555
H8 C3 1_555 1_555
H9 C5 1_555 1_555
H10 C8 1_555 1_555
H11 C9 1_555 1_555

#END
