
#######################################################################
#
#                 Cambridge Crystallographic Data Centre
#                                CCDC 
#
#######################################################################
#
# If this CIF has been generated from an entry in the Cambridge 
# Structural Database, then it will include bibliographic, chemical, 
# crystal, experimental, refinement or atomic coordinate data resulting 
# from the CCDC's data processing and validation procedures.
#
#######################################################################

data_LEBDAA
_chemical_formula_moiety         'C29 H39 N1 O1 Si1'
_chemical_name_systematic        
2,2,4a,6-tetramethyl-1-(4-methylphenyl)-3,3-bis(propan-2-yl)-2,4,4a,6-tetrahydrosilino[3,4-c]quinolin-5(3H)-one
_symmetry_cell_setting           triclinic
_symmetry_space_group_name_H-M   'P -1'
_symmetry_Int_Tables_number      2
_space_group_name_Hall           '-P 1'
loop_
_symmetry_equiv_pos_site_id
_symmetry_equiv_pos_as_xyz
1 x,y,z
2 -x,-y,-z
_cell_length_a                   10.342(12)
_cell_length_b                   10.946(6)
_cell_length_c                   13.488(7)
_cell_angle_alpha                112.290(6)
_cell_angle_beta                 104.243(8)
_cell_angle_gamma                97.077(9)
_cell_volume                     1328.86
_exptl_crystal_colour            colorless
_cell_formula_units_Z            2
loop_
_atom_site_label
_atom_site_type_symbol
_atom_site_fract_x
_atom_site_fract_y
_atom_site_fract_z
C1 C 0.52580(18) 0.04427(19) 0.23412(15)
C2 C 0.28823(19) -0.14937(18) 0.20712(16)
C3 C 0.47024(17) 0.24183(18) 0.36670(15)
C4 C 0.62194(19) 0.2860(2) 0.44478(17)
H1 H 0.6474 0.3829 0.4884
H2 H 0.6810 0.2604 0.3994
H3 H 0.6311 0.2420 0.4948
O1 O 0.43516(17) 0.41358(16) 0.29697(14)
N1 N 0.51486(18) 0.24151(18) 0.19410(14)
C5 C 0.21616(19) 0.0315(2) 0.35669(17)
Si1 Si 0.19886(5) 0.21315(6) 0.39055(5)
C6 C 0.5882(2) -0.0627(2) 0.23116(18)
H4 H 0.5650 -0.1151 0.2676
C7 C 0.3147(3) -0.2507(2) 0.2426(2)
H5 H 0.3553 -0.2268 0.3191
C8 C 0.1947(2) -0.3269(2) 0.01667(19)
H6 H 0.1550 -0.3511 -0.0600
C9 C 0.0855(2) 0.2303(2) 0.2653(2)
H7 H -0.0089 0.1869 0.2540
C10 C 0.1117(3) 0.1610(3) 0.1525(2)
H8 H 0.0441 0.1696 0.0940
H9 H 0.1056 0.0664 0.1346
H10 H 0.2017 0.2035 0.1581
C11 C 0.38242(19) 0.30420(19) 0.44037(16)
H11 H 0.3863 0.3962 0.4474
H12 H 0.4244 0.3106 0.5154
C12 C 0.0731(2) -0.0691(2) 0.2920(2)
H13 H 0.0407 -0.0732 0.2175
H14 H 0.0097 -0.0386 0.3319
H15 H 0.0802 -0.1579 0.2866
C13 C 0.6624(3) 0.0927(3) 0.1246(2)
H16 H 0.6877 0.1447 0.0886
C14 C 0.5677(2) 0.1254(2) 0.18324(16)
C15 C 0.6846(2) -0.0925(3) 0.1747(2)
H17 H 0.7257 -0.1636 0.1740
C16 C 0.46958(19) 0.3069(2) 0.28335(17)
C17 C 0.5309(3) 0.3102(3) 0.1216(2)
H18 H 0.4678 0.3677 0.1227
H19 H 0.5122 0.2434 0.0456
H20 H 0.6233 0.3644 0.1492
C18 C 0.2276(2) -0.1909(2) 0.09249(16)
H21 H 0.2085 -0.1263 0.0656
C19 C 0.0892(3) 0.3805(3) 0.2923(3)
H22 H 0.1805 0.4277 0.3048
H23 H 0.0635 0.4210 0.3590
H24 H 0.0261 0.3866 0.2299
C20 C 0.7182(3) -0.0166(3) 0.1203(2)
H25 H 0.7795 -0.0389 0.0800
C21 C 0.42748(17) 0.08731(18) 0.29766(14)
C22 C 0.31796(18) -0.00189(18) 0.28862(15)
C23 C 0.2817(3) -0.3859(2) 0.1664(2)
H26 H 0.3020 -0.4508 0.1927
C24 C 0.2192(3) -0.4268(2) 0.0521(2)
C25 C 0.1820(4) -0.5755(3) -0.0316(3)
H27 H 0.1059 -0.5911 -0.0961
H28 H 0.1569 -0.6318 0.0038
H29 H 0.2596 -0.5974 -0.0555
C26 C 0.2772(3) 0.0182(3) 0.4683(2)
H30 H 0.2153 0.0357 0.5119
H31 H 0.3642 0.0829 0.5110
H32 H 0.2897 -0.0721 0.4512
C27 C -0.0247(3) 0.2384(4) 0.4849(3)
H33 H -0.0685 0.2059 0.4050
H34 H -0.0593 0.3132 0.5248
H35 H -0.0439 0.1664 0.5072
C28 C 0.1259(3) 0.2842(3) 0.5121(2)
H36 H 0.1245 0.3720 0.5089
C29 C 0.2183(8) 0.3398(9) 0.6272(6)
H37 H 0.3111 0.3635 0.6280
H38 H 0.2101 0.2732 0.6569
H39 H 0.1946 0.4196 0.6730
H40? H 0.1558 0.2289 0.5518
C30? C 0.1914(9) 0.4165(10) 0.6028(7)
H41? H 0.2881 0.4358 0.6132
H42? H 0.1772 0.4186 0.6710
H43? H 0.1525 0.4837 0.5847
loop_
_geom_bond_atom_site_label_1
_geom_bond_atom_site_label_2
_geom_bond_site_symmetry_1
_geom_bond_site_symmetry_2
C1 C6 1_555 1_555
C2 C7 1_555 1_555
C3 C4 1_555 1_555
C4 H1 1_555 1_555
H2 C4 1_555 1_555
H3 C4 1_555 1_555
O1 C16 1_555 1_555
N1 C14 1_555 1_555
C5 Si1 1_555 1_555
Si1 C9 1_555 1_555
C6 H4 1_555 1_555
C7 H5 1_555 1_555
C8 H6 1_555 1_555
C9 H7 1_555 1_555
C10 C9 1_555 1_555
H8 C10 1_555 1_555
H9 C10 1_555 1_555
H10 C10 1_555 1_555
C11 C3 1_555 1_555
H11 C11 1_555 1_555
H12 C11 1_555 1_555
C12 C5 1_555 1_555
H13 C12 1_555 1_555
H14 C12 1_555 1_555
H15 C12 1_555 1_555
C13 H16 1_555 1_555
C14 C1 1_555 1_555
C15 C6 1_555 1_555
H17 C15 1_555 1_555
C16 C3 1_555 1_555
C17 N1 1_555 1_555
H18 C17 1_555 1_555
H19 C17 1_555 1_555
H20 C17 1_555 1_555
C18 C2 1_555 1_555
H21 C18 1_555 1_555
C19 C9 1_555 1_555
H22 C19 1_555 1_555
H23 C19 1_555 1_555
H24 C19 1_555 1_555
C20 C13 1_555 1_555
H25 C20 1_555 1_555
C21 C1 1_555 1_555
C22 C2 1_555 1_555
C23 C7 1_555 1_555
H26 C23 1_555 1_555
C24 C8 1_555 1_555
C25 C24 1_555 1_555
H27 C25 1_555 1_555
H28 C25 1_555 1_555
H29 C25 1_555 1_555
C26 C5 1_555 1_555
H30 C26 1_555 1_555
H31 C26 1_555 1_555
H32 C26 1_555 1_555
C27 H33 1_555 1_555
H34 C27 1_555 1_555
H35 C27 1_555 1_555
C28 Si1 1_555 1_555
H36 C28 1_555 1_555
C29 C28 1_555 1_555
H37 C29 1_555 1_555
H38 C29 1_555 1_555
H39 C29 1_555 1_555
C3 C21 1_555 1_555
N1 C16 1_555 1_555
C5 C22 1_555 1_555
Si1 C11 1_555 1_555
C8 C18 1_555 1_555
C13 C14 1_555 1_555
C15 C20 1_555 1_555
C21 C22 1_555 1_555
C23 C24 1_555 1_555
C27 C28 1_555 1_555

#END
