
#######################################################################
#
#                 Cambridge Crystallographic Data Centre
#                                CCDC 
#
#######################################################################
#
# If this CIF has been generated from an entry in the Cambridge 
# Structural Database, then it will include bibliographic, chemical, 
# crystal, experimental, refinement or atomic coordinate data resulting 
# from the CCDC's data processing and validation procedures.
#
#######################################################################

data_LEBSUJ
_chemical_formula_moiety         'C22 H19 F1 I1 N1 O2 S1'
_chemical_name_systematic        
N-benzyl-N-(1-fluoro-2-iodo-2-phenylethenyl)-4-methylbenzene-1-sulfonamide
_symmetry_cell_setting           monoclinic
_symmetry_space_group_name_H-M   'P 21'
_symmetry_Int_Tables_number      4
_space_group_name_Hall           'P 2yb'
loop_
_symmetry_equiv_pos_site_id
_symmetry_equiv_pos_as_xyz
1 x,y,z
2 -x,1/2+y,-z
_cell_length_a                   11.270(2)
_cell_length_b                   7.5710(15)
_cell_length_c                   13.366(3)
_cell_angle_alpha                90
_cell_angle_beta                 109.99(3)
_cell_angle_gamma                90
_cell_volume                     1071.75
_cell_formula_units_Z            2
loop_
_atom_site_label
_atom_site_type_symbol
_atom_site_fract_x
_atom_site_fract_y
_atom_site_fract_z
I1 I 0.60963(5) 0.67212(10) -0.00605(4)
S1 S 0.5265(2) 0.4893(3) 0.27757(18)
F1 F 0.8093(5) 0.5012(8) 0.3099(4)
O1 O 0.4037(6) 0.5656(11) 0.2482(6)
C1 C 0.5892(7) 0.4767(11) 0.4170(6)
C2 C 0.5327(11) 0.5734(15) 0.4785(9)
H1 H 0.4600 0.6393 0.4462
O2 O 0.5458(6) 0.3234(9) 0.2347(5)
N1 N 0.6153(6) 0.6306(9) 0.2410(5)
C3 C 0.5868(12) 0.5684(15) 0.5863(9)
H2 H 0.5486 0.6316 0.6268
C4 C 0.6961(9) 0.4737(12) 0.6395(8)
C5 C 0.7458(9) 0.3789(14) 0.5755(7)
H3 H 0.8179 0.3119 0.6078
C6 C 0.6947(8) 0.3779(12) 0.4672(7)
H4 H 0.7315 0.3104 0.4274
C7 C 0.7553(14) 0.469(2) 0.7581(9)
H5 H 0.8294 0.3964 0.7777
H6 H 0.6962 0.4221 0.7885
H7 H 0.7784 0.5872 0.7843
C8 C 0.6017(9) 0.8247(13) 0.2583(7)
H8 H 0.5434 0.8410 0.2967
H9 H 0.5663 0.8828 0.1898
C9 C 0.7264(9) 0.9097(12) 0.3200(9)
C10 C 0.7897(12) 1.0037(17) 0.2657(12)
H10 H 0.7553 1.0158 0.1921
C11 C 0.9088(15) 1.083(2) 0.3234(19)
H11 H 0.9531 1.1490 0.2894
C12 C 0.9536(16) 1.056(2) 0.429(2)
H12 H 1.0342 1.0984 0.4661
C13 C 0.8914(16) 0.973(2) 0.4869(15)
H13 H 0.9242 0.9691 0.5609
C14 C 0.7735(12) 0.8926(16) 0.4288(11)
H14 H 0.7291 0.8293 0.4641
C15 C 0.7196(7) 0.5690(12) 0.2208(7)
C16 C 0.7449(7) 0.5708(11) 0.1317(7)
C17 C 0.8668(8) 0.5144(12) 0.1249(7)
C18 C 0.8722(10) 0.3944(15) 0.0489(8)
H15 H 0.7977 0.3542 -0.0014
C19 C 0.9891(12) 0.3316(17) 0.0463(9)
H16 H 0.9929 0.2473 -0.0032
C20 C 1.0961(12) 0.399(2) 0.1189(11)
H17 H 1.1741 0.3630 0.1167
C21 C 1.0930(9) 0.5138(14) 0.1922(9)
H18 H 1.1680 0.5550 0.2416
C22 C 0.9785(9) 0.5730(15) 0.1959(8)
H19 H 0.9775 0.6544 0.2477
loop_
_geom_bond_atom_site_label_1
_geom_bond_atom_site_label_2
_geom_bond_site_symmetry_1
_geom_bond_site_symmetry_2
I1 C16 1_555 1_555
S1 O1 1_555 1_555
F1 C15 1_555 1_555
C1 S1 1_555 1_555
C2 C1 1_555 1_555
H1 C2 1_555 1_555
O2 S1 1_555 1_555
N1 S1 1_555 1_555
C3 C2 1_555 1_555
H2 C3 1_555 1_555
C4 C3 1_555 1_555
C5 C4 1_555 1_555
H3 C5 1_555 1_555
C6 C1 1_555 1_555
H4 C6 1_555 1_555
C7 C4 1_555 1_555
H5 C7 1_555 1_555
H6 C7 1_555 1_555
H7 C7 1_555 1_555
C8 N1 1_555 1_555
H8 C8 1_555 1_555
H9 C8 1_555 1_555
C9 C8 1_555 1_555
C10 C9 1_555 1_555
H10 C10 1_555 1_555
C11 C10 1_555 1_555
H11 C11 1_555 1_555
C12 C11 1_555 1_555
H12 C12 1_555 1_555
C13 C12 1_555 1_555
H13 C13 1_555 1_555
C14 C9 1_555 1_555
H14 C14 1_555 1_555
C15 N1 1_555 1_555
C16 C15 1_555 1_555
C17 C16 1_555 1_555
C18 C17 1_555 1_555
H15 C18 1_555 1_555
C19 C18 1_555 1_555
H16 C19 1_555 1_555
C20 C19 1_555 1_555
H17 C20 1_555 1_555
C21 C20 1_555 1_555
H18 C21 1_555 1_555
C22 C17 1_555 1_555
H19 C22 1_555 1_555
C5 C6 1_555 1_555
C13 C14 1_555 1_555
C21 C22 1_555 1_555

#END
