
#######################################################################
#
#                 Cambridge Crystallographic Data Centre
#                                CCDC 
#
#######################################################################
#
# If this CIF has been generated from an entry in the Cambridge 
# Structural Database, then it will include bibliographic, chemical, 
# crystal, experimental, refinement or atomic coordinate data resulting 
# from the CCDC's data processing and validation procedures.
#
#######################################################################

data_LEBVUK
_chemical_formula_moiety         'C38 H58 N2 O6 P2,2(C1 H4 O1)'
_chemical_name_systematic        
"(S)-2,2',6,6'-Tetramethoxy-4,4'-bis(dicyclohexylphosphinoyl)-3,3'-bipyridine methanol solvate"
_symmetry_cell_setting           orthorhombic
_symmetry_space_group_name_H-M   'P 21 21 21'
_symmetry_Int_Tables_number      19
_space_group_name_Hall           'P 2ac 2ab'
loop_
_symmetry_equiv_pos_site_id
_symmetry_equiv_pos_as_xyz
1 x,y,z
2 1/2-x,-y,1/2+z
3 -x,1/2+y,1/2-z
4 1/2+x,1/2-y,-z
_cell_length_a                   9.4071(16)
_cell_length_b                   20.330(3)
_cell_length_c                   23.655(4)
_cell_angle_alpha                90
_cell_angle_beta                 90
_cell_angle_gamma                90
_cell_volume                     4523.93
_exptl_crystal_colour            colorless
_exptl_crystal_description       needle
_chemical_melting_point          '326 deg.C(dec.)'
_cell_formula_units_Z            4
loop_
_atom_site_label
_atom_site_type_symbol
_atom_site_fract_x
_atom_site_fract_y
_atom_site_fract_z
P1 P 0.46094(7) 0.57490(2) 0.66596(2)
P2 P 0.47116(7) 0.71570(2) 0.81835(2)
O1 O 0.67690(16) 0.41965(5) 0.81042(5)
O2 O 0.83310(15) 0.63500(6) 0.81829(5)
O3 O 0.82896(16) 0.64899(6) 0.66227(6)
O4 O 0.70607(16) 0.86750(6) 0.67499(6)
O5 O 0.42232(14) 0.64494(5) 0.65848(5)
O6 O 0.42730(15) 0.64546(5) 0.82615(5)
N1 N 0.75608(16) 0.52841(6) 0.81610(6)
N2 N 0.76892(17) 0.75885(7) 0.66860(7)
C1 C 0.5785(2) 0.55969(8) 0.72553(7)
C2 C 0.5847(2) 0.49618(9) 0.74734(8)
H1 H 0.5296 0.4629 0.7317
C3 C 0.6735(2) 0.48293(9) 0.79240(8)
C4 C 0.7471(2) 0.58804(8) 0.79502(8)
C5 C 0.6626(2) 0.60862(8) 0.75111(8)
C6 C 0.6633(2) 0.68009(9) 0.73266(8)
C7 C 0.7534(2) 0.69715(9) 0.68811(8)
C8 C 0.6921(2) 0.80533(8) 0.69373(9)
C9 C 0.5999(2) 0.79412(8) 0.73736(8)
H2 H 0.5479 0.8285 0.7530
C10 C 0.5853(2) 0.72980(8) 0.75809(8)
C11 C 0.7545(3) 0.40845(10) 0.86053(8)
H3 H 0.7139 0.4338 0.8907
H4 H 0.8516 0.4214 0.8550
H5 H 0.7507 0.3626 0.8700
C12 C 0.9207(3) 0.61700(11) 0.86645(9)
H6 H 0.8622 0.5972 0.8950
H7 H 0.9654 0.6557 0.8815
H8 H 0.9922 0.5863 0.8546
C13 C 0.9167(3) 0.66764(11) 0.61576(9)
H9 H 0.8697 0.7011 0.5941
H10 H 0.9339 0.6300 0.5922
H11 H 1.0055 0.6843 0.6297
C14 C 0.8098(3) 0.87887(11) 0.63169(9)
H12 H 0.8851 0.8473 0.6352
H13 H 0.8479 0.9224 0.6356
H14 H 0.7658 0.8745 0.5953
C15 C 0.5582(3) 0.54567(9) 0.60547(7)
H15 H 0.6515 0.5654 0.6125
C16 C 0.5967(3) 0.47492(9) 0.60331(8)
H16 H 0.5101 0.4492 0.6002
H17 H 0.6423 0.4631 0.6387
C17 C 0.6965(3) 0.45597(12) 0.55408(8)
H18 H 0.7929 0.4692 0.5632
H19 H 0.6957 0.4086 0.5493
C18 C 0.6517(4) 0.48813(11) 0.50005(9)
H20 H 0.5694 0.4649 0.4856
H21 H 0.7277 0.4828 0.4727
C19 C 0.6154(3) 0.56021(11) 0.50379(9)
H22 H 0.5700 0.5734 0.4688
H23 H 0.7031 0.5850 0.5072
C20 C 0.5188(3) 0.57866(11) 0.55256(8)
H24 H 0.5227 0.6259 0.5582
H25 H 0.4217 0.5671 0.5430
C21 C 0.30947(19) 0.52194(9) 0.67776(7)
H26 H 0.3434 0.4764 0.6798
C22 C 0.2031(2) 0.52711(10) 0.62885(7)
H27 H 0.2486 0.5134 0.5940
H28 H 0.1731 0.5725 0.6245
C23 C 0.0727(2) 0.48350(11) 0.64018(8)
H29 H 0.0044 0.4899 0.6100
H30 H 0.1021 0.4378 0.6394
C24 C 0.0012(2) 0.49735(10) 0.69573(8)
H31 H -0.0738 0.4655 0.7021
H32 H -0.0414 0.5408 0.6948
C25 C 0.1103(2) 0.49367(11) 0.74439(8)
H33 H 0.0640 0.5058 0.7795
H34 H 0.1436 0.4487 0.7481
C26 C 0.2379(2) 0.53910(10) 0.73456(8)
H35 H 0.3058 0.5339 0.7651
H36 H 0.2065 0.5845 0.7341
C27 C 0.5809(2) 0.74505(8) 0.87780(7)
H37 H 0.6769 0.7303 0.8680
C28 C 0.5969(2) 0.81811(8) 0.88493(8)
H38 H 0.5043 0.8375 0.8918
H39 H 0.6346 0.8369 0.8503
C29 C 0.6954(3) 0.83461(11) 0.93373(8)
H40 H 0.7914 0.8212 0.9241
H41 H 0.6960 0.8819 0.9394
C30 C 0.6527(3) 0.80200(10) 0.98716(9)
H42 H 0.5575 0.8155 0.9977
H43 H 0.7172 0.8143 1.0174
C31 C 0.6571(3) 0.72782(10) 0.97797(8)
H44 H 0.6333 0.7052 1.0128
H45 H 0.7519 0.7145 0.9666
C32 C 0.5493(3) 0.70974(10) 0.93151(7)
H46 H 0.5523 0.6627 0.9249
H47 H 0.4542 0.7210 0.9441
C33 C 0.31952(19) 0.76828(8) 0.80858(7)
H48 H 0.3539 0.8137 0.8065
C34 C 0.23972(19) 0.75317(9) 0.75290(7)
H49 H 0.3027 0.7607 0.7211
H50 H 0.2115 0.7073 0.7525
C35 C 0.1095(2) 0.79609(9) 0.74698(8)
H51 H 0.0576 0.7834 0.7132
H52 H 0.1386 0.8416 0.7427
C36 C 0.0116(2) 0.79000(10) 0.79849(8)
H53 H -0.0688 0.8194 0.7939
H54 H -0.0247 0.7454 0.8008
C37 C 0.0883(2) 0.80653(11) 0.85247(8)
H55 H 0.0247 0.8004 0.8843
H56 H 0.1170 0.8524 0.8517
C38 C 0.2191(2) 0.76320(11) 0.85997(7)
H57 H 0.1895 0.7178 0.8648
H58 H 0.2697 0.7765 0.8938
O7 O 0.2954(3) 0.55761(10) 0.89992(9)
H59 H 0.3206 0.5957 0.8946
C39 C 0.4047(4) 0.51929(14) 0.93614(17)
H60 H 0.4506 0.5490 0.9619
H61 H 0.4746 0.4996 0.9119
H62 H 0.3567 0.4855 0.9571
O8 O 0.2859(3) 0.73691(11) 0.59293(10)
H63 H 0.3264 0.7134 0.6160
C40 C 0.4014(4) 0.76248(17) 0.55161(13)
H64 H 0.3695 0.8026 0.5343
H65 H 0.4185 0.7301 0.5229
H66 H 0.4878 0.7706 0.5721
loop_
_geom_bond_atom_site_label_1
_geom_bond_atom_site_label_2
_geom_bond_site_symmetry_1
_geom_bond_site_symmetry_2
P1 O5 1_555 1_555
P2 O6 1_555 1_555
O1 C3 1_555 1_555
O2 C4 1_555 1_555
O3 C7 1_555 1_555
O4 C8 1_555 1_555
N1 C3 1_555 1_555
N2 C7 1_555 1_555
C1 P1 1_555 1_555
C2 C1 1_555 1_555
H1 C2 1_555 1_555
C3 C2 1_555 1_555
C4 N1 1_555 1_555
C5 C1 1_555 1_555
C6 C5 1_555 1_555
C7 C6 1_555 1_555
C8 N2 1_555 1_555
C9 C8 1_555 1_555
H2 C9 1_555 1_555
C10 P2 1_555 1_555
C11 O1 1_555 1_555
H3 C11 1_555 1_555
H4 C11 1_555 1_555
H5 C11 1_555 1_555
C12 O2 1_555 1_555
H6 C12 1_555 1_555
H7 C12 1_555 1_555
H8 C12 1_555 1_555
C13 O3 1_555 1_555
H9 C13 1_555 1_555
H10 C13 1_555 1_555
H11 C13 1_555 1_555
C14 O4 1_555 1_555
H12 C14 1_555 1_555
H13 C14 1_555 1_555
H14 C14 1_555 1_555
C15 P1 1_555 1_555
H15 C15 1_555 1_555
C16 C15 1_555 1_555
H16 C16 1_555 1_555
H17 C16 1_555 1_555
C17 C16 1_555 1_555
H18 C17 1_555 1_555
H19 C17 1_555 1_555
C18 C17 1_555 1_555
H20 C18 1_555 1_555
H21 C18 1_555 1_555
C19 C18 1_555 1_555
H22 C19 1_555 1_555
H23 C19 1_555 1_555
C20 C15 1_555 1_555
H24 C20 1_555 1_555
H25 C20 1_555 1_555
C21 P1 1_555 1_555
H26 C21 1_555 1_555
C22 C21 1_555 1_555
H27 C22 1_555 1_555
H28 C22 1_555 1_555
C23 C22 1_555 1_555
H29 C23 1_555 1_555
H30 C23 1_555 1_555
C24 C23 1_555 1_555
H31 C24 1_555 1_555
H32 C24 1_555 1_555
C25 C24 1_555 1_555
H33 C25 1_555 1_555
H34 C25 1_555 1_555
C26 C21 1_555 1_555
H35 C26 1_555 1_555
H36 C26 1_555 1_555
C27 P2 1_555 1_555
H37 C27 1_555 1_555
C28 C27 1_555 1_555
H38 C28 1_555 1_555
H39 C28 1_555 1_555
C29 C28 1_555 1_555
H40 C29 1_555 1_555
H41 C29 1_555 1_555
C30 C29 1_555 1_555
H42 C30 1_555 1_555
H43 C30 1_555 1_555
C31 C30 1_555 1_555
H44 C31 1_555 1_555
H45 C31 1_555 1_555
C32 C27 1_555 1_555
H46 C32 1_555 1_555
H47 C32 1_555 1_555
C33 P2 1_555 1_555
H48 C33 1_555 1_555
C34 C33 1_555 1_555
H49 C34 1_555 1_555
H50 C34 1_555 1_555
C35 C34 1_555 1_555
H51 C35 1_555 1_555
H52 C35 1_555 1_555
C36 C35 1_555 1_555
H53 C36 1_555 1_555
H54 C36 1_555 1_555
C37 C36 1_555 1_555
H55 C37 1_555 1_555
H56 C37 1_555 1_555
C38 C33 1_555 1_555
H57 C38 1_555 1_555
H58 C38 1_555 1_555
O7 H59 1_555 1_555
C39 O7 1_555 1_555
H60 C39 1_555 1_555
H61 C39 1_555 1_555
H62 C39 1_555 1_555
O8 H63 1_555 1_555
C40 O8 1_555 1_555
H64 C40 1_555 1_555
H65 C40 1_555 1_555
H66 C40 1_555 1_555
C4 C5 1_555 1_555
C6 C10 1_555 1_555
C9 C10 1_555 1_555
C19 C20 1_555 1_555
C25 C26 1_555 1_555
C31 C32 1_555 1_555
C37 C38 1_555 1_555

#END
