
#######################################################################
#
#                 Cambridge Crystallographic Data Centre
#                                CCDC 
#
#######################################################################
#
# If this CIF has been generated from an entry in the Cambridge 
# Structural Database, then it will include bibliographic, chemical, 
# crystal, experimental, refinement or atomic coordinate data resulting 
# from the CCDC's data processing and validation procedures.
#
#######################################################################

data_LEBXOG
_chemical_compound_source        'Aloe vera'
_chemical_formula_moiety         'C22 H18 O7'
_chemical_name_systematic        
7-Hydroxy-4-(4-hydroxyphenyl)-6-(4-methoxy-2-oxo-2H-pyran-6-yl)-5-methyl-3,4-dihydrocoumarin
_chemical_properties_biological  
'immunomodulatory activity in relation to increasing phagocytic activity; antioxidant activity against superoxide and hydroxyl radicals'
_symmetry_cell_setting           orthorhombic
_symmetry_space_group_name_H-M   'P b c a'
_symmetry_Int_Tables_number      61
_space_group_name_Hall           '-P 2ac 2ab'
loop_
_symmetry_equiv_pos_site_id
_symmetry_equiv_pos_as_xyz
1 x,y,z
2 1/2-x,-y,1/2+z
3 -x,1/2+y,1/2-z
4 1/2+x,1/2-y,-z
5 -x,-y,-z
6 1/2+x,y,1/2-z
7 x,1/2-y,1/2+z
8 1/2-x,1/2+y,z
_cell_length_a                   15.022(3)
_cell_length_b                   12.766(3)
_cell_length_c                   19.209(4)
_cell_angle_alpha                90
_cell_angle_beta                 90
_cell_angle_gamma                90
_cell_volume                     3683.73
_exptl_crystal_colour            colorless
_cell_formula_units_Z            8
_exptl_crystal_recrystallization_method methanol
loop_
_atom_site_label
_atom_site_type_symbol
_atom_site_fract_x
_atom_site_fract_y
_atom_site_fract_z
O1 O 0.14860(7) 0.26691(8) 0.05079(5)
O2 O 0.13630(8) 0.40437(8) -0.01875(5)
O3 O -0.07492(7) 0.12936(8) -0.02760(5)
O4 O 0.24009(8) 0.03672(8) 0.02734(5)
O5 O 0.38607(7) -0.00201(8) 0.24452(5)
O6 O 0.45010(8) -0.04246(9) 0.34367(5)
O7 O 0.45871(8) 0.49199(10) 0.37881(6)
C1 C -0.11924(11) 0.17385(12) -0.08732(8)
H1 H -0.1389 0.2435 -0.0764
H2 H -0.1697 0.1314 -0.0994
H3 H -0.0787 0.1763 -0.1259
C2 C -0.00223(10) 0.17925(11) -0.00510(7)
C3 C 0.02894(10) 0.27158(11) -0.03119(7)
H4 H 0.0001 0.3034 -0.0685
C4 C 0.10441(11) 0.31847(11) -0.00182(7)
C5 C 0.11818(10) 0.17142(11) 0.07584(7)
C6 C 0.04404(10) 0.12898(11) 0.05074(7)
H5 H 0.0223 0.0668 0.0694
C7 C 0.18244(10) 0.12463(11) 0.12537(7)
C8 C 0.24650(11) 0.05709(11) 0.09706(6)
C9 C 0.31304(11) 0.01495(11) 0.13786(7)
H6 H 0.3566 -0.0281 0.1187
C10 C 0.31310(10) 0.03855(11) 0.20804(7)
C11 C 0.24980(10) 0.10166(11) 0.23892(6)
C12 C 0.18337(10) 0.14617(11) 0.19704(7)
C13 C 0.11377(11) 0.21675(13) 0.22828(8)
H7 H 0.0793 0.2482 0.1917
H8 H 0.1423 0.2706 0.2551
H9 H 0.0754 0.1765 0.2579
C14 C 0.25883(10) 0.12359(12) 0.31640(6)
H10 H 0.1990 0.1327 0.3359
C15 C 0.30128(11) 0.02650(11) 0.35048(7)
H11 H 0.3137 0.0420 0.3990
H12 H 0.2589 -0.0308 0.3492
C16 C 0.38484(11) -0.00742(11) 0.31608(7)
C17 C 0.31237(10) 0.22262(11) 0.33134(7)
C18 C 0.36000(10) 0.27652(12) 0.28121(8)
H13 H 0.3593 0.2520 0.2356
C19 C 0.40888(11) 0.36616(12) 0.29664(8)
H14 H 0.4394 0.4016 0.2617
C20 C 0.41149(10) 0.40183(13) 0.36442(8)
C21 C 0.36577(11) 0.34826(12) 0.41578(8)
H15 H 0.3682 0.3716 0.4616
C22 C 0.31653(11) 0.26024(12) 0.39946(7)
H16 H 0.2856 0.2255 0.4345
H17 H 0.2839(15) -0.0130(17) 0.0138(10)
H18 H 0.4340(16) 0.5206(16) 0.4143(10)
loop_
_geom_bond_atom_site_label_1
_geom_bond_atom_site_label_2
_geom_bond_site_symmetry_1
_geom_bond_site_symmetry_2
O1 C4 1_555 1_555
O2 C4 1_555 1_555
O3 C1 1_555 1_555
O4 C8 1_555 1_555
O5 C10 1_555 1_555
O6 C16 1_555 1_555
O7 C20 1_555 1_555
C1 H1 1_555 1_555
H2 C1 1_555 1_555
H3 C1 1_555 1_555
C2 O3 1_555 1_555
C3 C2 1_555 1_555
H4 C3 1_555 1_555
C4 C3 1_555 1_555
C5 O1 1_555 1_555
C6 C2 1_555 1_555
H5 C6 1_555 1_555
C7 C5 1_555 1_555
C8 C7 1_555 1_555
C9 C8 1_555 1_555
H6 C9 1_555 1_555
C10 C9 1_555 1_555
C11 C10 1_555 1_555
C12 C7 1_555 1_555
C13 C12 1_555 1_555
H7 C13 1_555 1_555
H8 C13 1_555 1_555
H9 C13 1_555 1_555
C14 C11 1_555 1_555
H10 C14 1_555 1_555
C15 C14 1_555 1_555
H11 C15 1_555 1_555
H12 C15 1_555 1_555
C16 O5 1_555 1_555
C17 C14 1_555 1_555
C18 C17 1_555 1_555
H13 C18 1_555 1_555
C19 C18 1_555 1_555
H14 C19 1_555 1_555
C20 C19 1_555 1_555
C21 C20 1_555 1_555
H15 C21 1_555 1_555
C22 C17 1_555 1_555
H16 C22 1_555 1_555
H17 O4 1_555 1_555
H18 O7 1_555 1_555
C5 C6 1_555 1_555
C11 C12 1_555 1_555
C15 C16 1_555 1_555
C21 C22 1_555 1_555

#END
