
#######################################################################
#
#                 Cambridge Crystallographic Data Centre
#                                CCDC 
#
#######################################################################
#
# If this CIF has been generated from an entry in the Cambridge 
# Structural Database, then it will include bibliographic, chemical, 
# crystal, experimental, refinement or atomic coordinate data resulting 
# from the CCDC's data processing and validation procedures.
#
#######################################################################

data_LEBYID
_chemical_formula_moiety         'C64 H68 Br4 O8,C3 H6 O1'
_chemical_name_systematic        
"5,11,17,23-tetrakis(2-bromoethynyl)-2,8,14,20-tetrkis(n-hexyl)-6,10:12,16:18,22:24,4-O,O'-tetrakis(methylene)calix(4)resorcinarene acetone solvate"
_symmetry_cell_setting           monoclinic
_symmetry_space_group_name_H-M   'P 21/n'
_symmetry_Int_Tables_number      14
_space_group_name_Hall           '-P 2yn'
loop_
_symmetry_equiv_pos_site_id
_symmetry_equiv_pos_as_xyz
1 x,y,z
2 1/2-x,1/2+y,1/2-z
3 -x,-y,-z
4 1/2+x,1/2-y,1/2+z
_cell_length_a                   14.1022(10)
_cell_length_b                   24.4684(11)
_cell_length_c                   18.3507(13)
_cell_angle_alpha                90
_cell_angle_beta                 98.970(7)
_cell_angle_gamma                90
_cell_volume                     6254.62
_exptl_crystal_colour            colorless
_exptl_crystal_description       plate
_cell_formula_units_Z            4
loop_
_atom_site_label
_atom_site_type_symbol
_atom_site_fract_x
_atom_site_fract_y
_atom_site_fract_z
Br1 Br 0.03384(7) 0.07072(4) 0.35616(7)
Br2 Br 0.36668(11) -0.01622(5) 0.01774(8)
Br3 Br 0.80211(9) -0.14977(4) 0.33900(9)
Br4 Br 0.47522(8) -0.08013(4) 0.64199(6)
C1 C 0.4315(6) 0.2146(3) 0.4513(5)
C2 C 0.4596(6) 0.2358(3) 0.3886(5)
H1 H 0.5175 0.2562 0.3932
C3 C 0.4070(6) 0.2287(3) 0.3190(5)
C4 C 0.3236(6) 0.1976(3) 0.3128(5)
C5 C 0.2925(6) 0.1743(3) 0.3747(6)
C6 C 0.3490(6) 0.1837(4) 0.4433(5)
C7 C 0.2088(7) 0.1413(4) 0.3684(6)
C8 C 0.1394(7) 0.1130(4) 0.3631(6)
C9 C 0.4387(6) 0.2497(3) 0.2482(5)
H2 H 0.3795 0.2541 0.2108
C10 C 0.2933(7) 0.1482(3) 0.2003(5)
H3 H 0.2353 0.1317 0.1712
H4 H 0.3265 0.1192 0.2322
C11 C 0.4995(6) 0.2062(3) 0.2198(4)
C12 C 0.5971(6) 0.2032(3) 0.2372(4)
H5 H 0.6294 0.2309 0.2676
C13 C 0.6519(6) 0.1616(3) 0.2126(4)
C14 C 0.6032(6) 0.1207(3) 0.1684(4)
C15 C 0.5034(6) 0.1213(3) 0.1503(4)
C16 C 0.4533(6) 0.1642(3) 0.1756(5)
C17 C 0.4555(7) 0.0775(3) 0.1064(5)
C18 C 0.4198(8) 0.0399(4) 0.0737(6)
C19 C 0.7600(6) 0.1573(3) 0.2343(4)
H6 H 0.7839 0.1369 0.1936
C20 C 0.6808(6) 0.0345(3) 0.1869(5)
H7 H 0.6772 0.0006 0.1572
H8 H 0.6357 0.0308 0.2229
C21 C 0.7804(5) 0.1216(3) 0.3021(4)
C22 C 0.7904(6) 0.1427(3) 0.3724(5)
H9 H 0.7850 0.1811 0.3783
C23 C 0.8083(6) 0.1096(3) 0.4360(5)
C24 C 0.8139(6) 0.0538(3) 0.4265(5)
C25 C 0.8012(6) 0.0301(3) 0.3567(5)
C26 C 0.7839(6) 0.0650(3) 0.2944(4)
C27 C 0.8031(6) -0.0279(3) 0.3477(5)
C28 C 0.8041(7) -0.0755(4) 0.3425(5)
C29 C 0.8174(7) 0.1328(4) 0.5140(5)
H10 H 0.8591 0.1072 0.5474
C30 C 0.7574(7) 0.0039(4) 0.5218(5)
H11 H 0.6978 0.0041 0.4852
H12 H 0.7676 -0.0339 0.5408
C31 C 0.7183(6) 0.1306(4) 0.5356(4)
C32 C 0.6545(7) 0.1744(4) 0.5253(4)
H13 H 0.6759 0.2074 0.5060
C33 C 0.5610(7) 0.1728(4) 0.5416(5)
C34 C 0.5313(7) 0.1238(4) 0.5682(5)
C35 C 0.5906(7) 0.0780(4) 0.5790(5)
C36 C 0.6853(7) 0.0827(4) 0.5648(5)
C37 C 0.5544(7) 0.0267(4) 0.6027(5)
C38 C 0.5237(7) -0.0153(4) 0.6179(5)
C39 C 0.4936(7) 0.2203(4) 0.5283(5)
H14 H 0.4484 0.2166 0.5650
C40 C 0.3613(7) 0.1120(4) 0.5326(6)
H15 H 0.3832 0.0919 0.4915
H16 H 0.3129 0.0890 0.5518
C41 C 0.4889(7) 0.3061(3) 0.2572(5)
H17 H 0.5486 0.3027 0.2932
H18 H 0.5070 0.3171 0.2093
C42 C 0.4257(7) 0.3507(4) 0.2832(7)
H19 H 0.4147 0.3412 0.3336
H20 H 0.4626 0.3853 0.2869
C43 C 0.3367(11) 0.3607(5) 0.2407(7)
H21 H 0.2971 0.3274 0.2417
H22 H 0.3469 0.3662 0.1890
C44 C 0.2759(11) 0.4116(5) 0.2634(9)
H23 H 0.2152 0.4150 0.2284
H24 H 0.2599 0.4059 0.3135
C45 C 0.3334(11) 0.4618(4) 0.2618(8)
H25 H 0.3518 0.4667 0.2123
H26 H 0.3927 0.4592 0.2984
C46 C 0.2699(11) 0.5123(6) 0.2809(11)
H27 H 0.2102 0.5137 0.2455
H28 H 0.3058 0.5463 0.2781
H29 H 0.2547 0.5079 0.3309
C47 C 0.8142(6) 0.2125(3) 0.2416(5)
H30 H 0.7991 0.2327 0.1944
H31 H 0.7908 0.2346 0.2803
C48 C 0.9216(6) 0.2063(4) 0.2605(5)
H32 H 0.9417 0.1752 0.2320
H33 H 0.9375 0.1968 0.3135
C49 C 0.9806(9) 0.2563(4) 0.2459(6)
H34 H 1.0493 0.2473 0.2609
H35 H 0.9704 0.2629 0.1920
C50 C 0.9600(10) 0.3086(4) 0.2836(8)
H36 H 0.9623 0.3017 0.3370
H37 H 0.8945 0.3214 0.2634
C51 C 1.0328(11) 0.3535(5) 0.2727(8)
H38 H 1.0960 0.3446 0.3020
H39 H 1.0406 0.3552 0.2201
C52 C 0.9982(12) 0.4086(6) 0.2970(11)
H40 H 0.9308 0.4139 0.2754
H41 H 1.0373 0.4378 0.2804
H42 H 1.0043 0.4095 0.3509
C53 C 0.8651(7) 0.1893(4) 0.5225(5)
H43 H 0.8263 0.2152 0.4887
H44 H 0.8649 0.2024 0.5735
C54 C 0.9664(7) 0.1900(4) 0.5067(6)
H45 H 0.9665 0.1764 0.4559
H46 H 1.0052 0.1643 0.5409
C55 C 1.0148(9) 0.2459(5) 0.5140(6)
H47 H 0.9698 0.2728 0.4873
H48 H 1.0247 0.2562 0.5668
C56 C 1.1067(9) 0.2511(5) 0.4873(7)
H49 H 1.1008 0.2364 0.4365
H50 H 1.1562 0.2295 0.5191
C57 C 1.1374(15) 0.3107(7) 0.4877(14)
H51 H 1.0848 0.3323 0.4595
H52 H 1.1471 0.3241 0.5392
C58 C 1.2282(13) 0.3206(7) 0.4555(13)
H53 H 1.2167 0.3122 0.4026
H54 H 1.2796 0.2971 0.4803
H55 H 1.2473 0.3590 0.4626
C59 C 0.5419(8) 0.2765(4) 0.5428(6)
H56 H 0.5853 0.2756 0.5908
H57 H 0.5814 0.2842 0.5039
C60 C 0.4711(8) 0.3210(4) 0.5440(7)
H58 H 0.4224 0.3093 0.5742
H59 H 0.4378 0.3273 0.4931
C61 C 0.5147(10) 0.3740(5) 0.5744(9)
H60 H 0.5656 0.3850 0.5458
H61 H 0.5451 0.3684 0.6262
C62 C 0.4378(11) 0.4220(5) 0.5714(9)
H62 H 0.4062 0.4272 0.5198
H63 H 0.3879 0.4116 0.6012
C63 C 0.4829(13) 0.4730(6) 0.5994(10)
H64 H 0.5337 0.4832 0.5703
H65 H 0.5131 0.4682 0.6514
C64 C 0.4094(12) 0.5177(7) 0.5944(11)
H66 H 0.3642 0.5139 0.5484
H67 H 0.4415 0.5533 0.5950
H68 H 0.3746 0.5153 0.6365
O1 O 0.2647(4) 0.1893(2) 0.2453(4)
O2 O 0.3176(5) 0.1607(3) 0.5052(4)
O3 O 0.6527(4) 0.0793(2) 0.1401(3)
O4 O 0.3546(4) 0.1662(2) 0.1512(3)
O5 O 0.8352(4) 0.0189(2) 0.4863(3)
O6 O 0.7758(4) 0.0408(2) 0.2257(3)
O7 O 0.4410(5) 0.1197(3) 0.5897(3)
O8 O 0.7455(4) 0.0386(3) 0.5802(3)
C67 C 0.7714(13) 0.3458(7) 0.4865(9)
H76 H 0.7637 0.3148 0.5189
H77 H 0.7329 0.3767 0.4992
H78 H 0.8392 0.3564 0.4927
C68 C 0.7398(8) 0.3301(4) 0.4108(5)
C69 C 0.7484(16) 0.3724(8) 0.3577(12)
H79 H 0.7372 0.3568 0.3079
H80 H 0.8131 0.3881 0.3675
H81 H 0.7009 0.4011 0.3617
O9 O 0.7107(6) 0.2867(3) 0.3926(4)
H69? H 1.0905 0.2649 0.4362
H70? H 1.1297 0.2132 0.4830
C65? C 1.1941(15) 0.2831(9) 0.5208(17)
H71? H 1.2050 0.2826 0.5754
H72? H 1.2532 0.2721 0.5016
C66? C 1.152(3) 0.3363(13) 0.4889(19)
H73? H 1.1536 0.3368 0.4356
H74? H 1.1906 0.3668 0.5123
H75? H 1.0861 0.3397 0.4979
loop_
_geom_bond_atom_site_label_1
_geom_bond_atom_site_label_2
_geom_bond_site_symmetry_1
_geom_bond_site_symmetry_2
Br1 C8 1_555 1_555
Br2 C18 1_555 1_555
Br3 C28 1_555 1_555
Br4 C38 1_555 1_555
C1 C2 1_555 1_555
C2 H1 1_555 1_555
C3 C2 1_555 1_555
C4 C3 1_555 1_555
C5 C4 1_555 1_555
C6 C1 1_555 1_555
C7 C5 1_555 1_555
C8 C7 1_555 1_555
C9 C3 1_555 1_555
H2 C9 1_555 1_555
C10 H3 1_555 1_555
H4 C10 1_555 1_555
C11 C9 1_555 1_555
C12 C11 1_555 1_555
H5 C12 1_555 1_555
C13 C12 1_555 1_555
C14 C13 1_555 1_555
C15 C14 1_555 1_555
C16 C11 1_555 1_555
C17 C15 1_555 1_555
C18 C17 1_555 1_555
C19 C13 1_555 1_555
H6 C19 1_555 1_555
C20 H7 1_555 1_555
H8 C20 1_555 1_555
C21 C19 1_555 1_555
C22 C21 1_555 1_555
H9 C22 1_555 1_555
C23 C22 1_555 1_555
C24 C23 1_555 1_555
C25 C24 1_555 1_555
C26 C21 1_555 1_555
C27 C25 1_555 1_555
C28 C27 1_555 1_555
C29 C23 1_555 1_555
H10 C29 1_555 1_555
C30 H11 1_555 1_555
H12 C30 1_555 1_555
C31 C29 1_555 1_555
C32 C31 1_555 1_555
H13 C32 1_555 1_555
C33 C32 1_555 1_555
C34 C33 1_555 1_555
C35 C34 1_555 1_555
C36 C31 1_555 1_555
C37 C35 1_555 1_555
C38 C37 1_555 1_555
C39 C1 1_555 1_555
H14 C39 1_555 1_555
C40 H15 1_555 1_555
H16 C40 1_555 1_555
C41 C9 1_555 1_555
H17 C41 1_555 1_555
H18 C41 1_555 1_555
C42 C41 1_555 1_555
H19 C42 1_555 1_555
H20 C42 1_555 1_555
C43 C42 1_555 1_555
H21 C43 1_555 1_555
H22 C43 1_555 1_555
C44 C43 1_555 1_555
H23 C44 1_555 1_555
H24 C44 1_555 1_555
C45 C44 1_555 1_555
H25 C45 1_555 1_555
H26 C45 1_555 1_555
C46 C45 1_555 1_555
H27 C46 1_555 1_555
H28 C46 1_555 1_555
H29 C46 1_555 1_555
C47 C19 1_555 1_555
H30 C47 1_555 1_555
H31 C47 1_555 1_555
C48 C47 1_555 1_555
H32 C48 1_555 1_555
H33 C48 1_555 1_555
C49 C48 1_555 1_555
H34 C49 1_555 1_555
H35 C49 1_555 1_555
C50 C49 1_555 1_555
H36 C50 1_555 1_555
H37 C50 1_555 1_555
C51 C50 1_555 1_555
H38 C51 1_555 1_555
H39 C51 1_555 1_555
C52 C51 1_555 1_555
H40 C52 1_555 1_555
H41 C52 1_555 1_555
H42 C52 1_555 1_555
C53 C29 1_555 1_555
H43 C53 1_555 1_555
H44 C53 1_555 1_555
C54 C53 1_555 1_555
H45 C54 1_555 1_555
H46 C54 1_555 1_555
C55 C54 1_555 1_555
H47 C55 1_555 1_555
H48 C55 1_555 1_555
C56 C55 1_555 1_555
H49 C56 1_555 1_555
H50 C56 1_555 1_555
C57 C56 1_555 1_555
H51 C57 1_555 1_555
H52 C57 1_555 1_555
C58 C57 1_555 1_555
H53 C58 1_555 1_555
H54 C58 1_555 1_555
H55 C58 1_555 1_555
C59 C39 1_555 1_555
H56 C59 1_555 1_555
H57 C59 1_555 1_555
C60 C59 1_555 1_555
H58 C60 1_555 1_555
H59 C60 1_555 1_555
C61 C60 1_555 1_555
H60 C61 1_555 1_555
H61 C61 1_555 1_555
C62 C61 1_555 1_555
H62 C62 1_555 1_555
H63 C62 1_555 1_555
C63 C62 1_555 1_555
H64 C63 1_555 1_555
H65 C63 1_555 1_555
C64 C63 1_555 1_555
H66 C64 1_555 1_555
H67 C64 1_555 1_555
H68 C64 1_555 1_555
O1 C4 1_555 1_555
O2 C6 1_555 1_555
O3 C14 1_555 1_555
O4 C10 1_555 1_555
O5 C24 1_555 1_555
O6 C20 1_555 1_555
O7 C34 1_555 1_555
O8 C30 1_555 1_555
C67 H76 1_555 1_555
H77 C67 1_555 1_555
H78 C67 1_555 1_555
C68 C67 1_555 1_555
C69 C68 1_555 1_555
H79 C69 1_555 1_555
H80 C69 1_555 1_555
H81 C69 1_555 1_555
O9 C68 1_555 1_555
C5 C6 1_555 1_555
C10 O1 1_555 1_555
C15 C16 1_555 1_555
C16 O4 1_555 1_555
C20 O3 1_555 1_555
C25 C26 1_555 1_555
C26 O6 1_555 1_555
C30 O5 1_555 1_555
C33 C39 1_555 1_555
C35 C36 1_555 1_555
C36 O8 1_555 1_555
C40 O2 1_555 1_555
C40 O7 1_555 1_555

#END
