
#######################################################################
#
#                 Cambridge Crystallographic Data Centre
#                                CCDC 
#
#######################################################################
#
# If this CIF has been generated from an entry in the Cambridge 
# Structural Database, then it will include bibliographic, chemical, 
# crystal, experimental, refinement or atomic coordinate data resulting 
# from the CCDC's data processing and validation procedures.
#
#######################################################################

data_LEBYUP
_chemical_formula_moiety         'C64 H68 I4 O8,3(C3 H7 N1 O1)'
_chemical_name_systematic        
"5,11,17,23-tetrakis(2-iodoethynyl)-2,8,14,20-tetrkis(n-hexyl)-6,10:12,16:18,22:24,4-O,O'-tetrakis(methylene)calix(4)resorcinarene dimethylformamide solvate"
_symmetry_cell_setting           monoclinic
_symmetry_space_group_name_H-M   'C 2/m'
_symmetry_Int_Tables_number      12
_space_group_name_Hall           '-C 2y'
loop_
_symmetry_equiv_pos_site_id
_symmetry_equiv_pos_as_xyz
1 x,y,z
2 -x,y,-z
3 1/2+x,1/2+y,z
4 1/2-x,1/2+y,-z
5 -x,-y,-z
6 x,-y,z
7 1/2-x,1/2-y,-z
8 1/2+x,1/2-y,z
_cell_length_a                   22.1144(11)
_cell_length_b                   22.3258(17)
_cell_length_c                   17.2116(6)
_cell_angle_alpha                90
_cell_angle_beta                 101.036(4)
_cell_angle_gamma                90
_cell_volume                     8340.59
_exptl_crystal_colour            colorless
_exptl_crystal_description       prism
_cell_formula_units_Z            4
loop_
_atom_site_label
_atom_site_type_symbol
_atom_site_fract_x
_atom_site_fract_y
_atom_site_fract_z
C1 C 0.4105(7) 0.5000 0.0753(7)
H1 H 0.3667 0.5000 0.0670
C2 C 0.4407(5) 0.5542(6) 0.0811(6)
C3 C 0.5055(5) 0.5539(6) 0.0960(5)
C4 C 0.5367(7) 0.5000 0.1058(7)
C5 C 0.4066(5) 0.6140(7) 0.0752(6)
H2 H 0.4331 0.6435 0.0535
C6 C 0.4042(6) 0.6347(6) 0.1592(7)
C7 C 0.3555(6) 0.6181(6) 0.1965(7)
H3 H 0.3224 0.5952 0.1677
C8 C 0.3540(6) 0.6340(6) 0.2740(7)
C9 C 0.4042(6) 0.6649(6) 0.3151(7)
C10 C 0.4547(6) 0.6805(6) 0.2818(7)
C11 C 0.4537(6) 0.6663(6) 0.2039(6)
C12 C 0.3027(7) 0.6151(8) 0.3167(9)
H4 H 0.3001 0.6457 0.3583
C13 C 0.3220(7) 0.5562(8) 0.3581(9)
C14 C 0.3044(9) 0.5000 0.3226(12)
H5 H 0.2790 0.5000 0.2714
C15 C 0.3815(10) 0.5000 0.4700(10)
C16 C 0.3598(7) 0.5551(9) 0.4318(7)
C17 C 0.5479(6) 0.6393(7) 0.1684(6)
H6 H 0.5484 0.6117 0.2135
H7 H 0.5886 0.6590 0.1754
C18 C 0.4247(7) 0.6411(6) 0.4528(7)
H8 H 0.4464 0.6618 0.5011
H9 H 0.4545 0.6138 0.4349
C19 C 0.6029(7) 0.5000 0.1284(9)
C20 C 0.6577(7) 0.5000 0.1511(9)
C21 C 0.5067(6) 0.7134(6) 0.3267(7)
C22 C 0.5494(7) 0.7407(7) 0.3633(8)
C23 C 0.4245(11) 0.5000 0.5438(11)
C24 C 0.4609(10) 0.5000 0.6045(11)
C25 C 0.3445(6) 0.6130(8) 0.0174(8)
H10 H 0.3505 0.5971 -0.0343
H11 H 0.3159 0.5859 0.0380
C26 C 0.3164(8) 0.6747(8) 0.0057(10)
H12 H 0.3477 0.7024 -0.0080
H13 H 0.3069 0.6882 0.0568
C27 C 0.2587(8) 0.6805(11) -0.0567(11)
H14 H 0.2699 0.6713 -0.1085
H15 H 0.2460 0.7230 -0.0584
C28 C 0.2025(9) 0.6429(16) -0.0505(16)
H16 H 0.1847 0.6586 -0.0060
H17 H 0.2164 0.6015 -0.0368
C29 C 0.1508(12) 0.6403(13) -0.124(2)
H18 H 0.1127 0.6260 -0.1078
H19 H 0.1622 0.6102 -0.1612
C30 C 0.136(2) 0.7001(16) -0.170(2)
H20 H 0.1028 0.6938 -0.2152
H21 H 0.1235 0.7300 -0.1343
H22 H 0.1730 0.7142 -0.1878
C31 C 0.2414(7) 0.6104(8) 0.2653(10)
H23 H 0.2128 0.5923 0.2963
H24 H 0.2444 0.5826 0.2213
C32 C 0.2139(13) 0.6689(9) 0.2302(18)
H25 H 0.2455 0.6900 0.2069
H26 H 0.2050 0.6941 0.2740
C33 C 0.1551(13) 0.6650(13) 0.1670(17)
H27 H 0.1674 0.6585 0.1153
H28 H 0.1323 0.6288 0.1782
C34 C 0.1107(13) 0.7170(13) 0.1579(18)
H29 H 0.1324 0.7554 0.1543
H30 H 0.0887 0.7190 0.2027
C35 C 0.0665(14) 0.7031(16) 0.0807(17)
H31 H 0.0860 0.6779 0.0450
H32 H 0.0497 0.7399 0.0526
C36 C 0.0173(13) 0.6686(16) 0.1146(18)
H33 H 0.0373 0.6381 0.1518
H34 H -0.0112 0.6492 0.0714
H35 H -0.0055 0.6965 0.1422
I1 I 0.74988(6) 0.5000 0.18427(10)
I2 I 0.61996(5) 0.78769(6) 0.42070(6)
I3 I 0.52257(7) 0.5000 0.70202(6)
O1 O 0.5381(4) 0.6054(4) 0.0967(4)
O2 O 0.5025(5) 0.6831(4) 0.1694(4)
O3 O 0.4052(5) 0.6838(4) 0.3936(5)
O4 O 0.3761(5) 0.6072(5) 0.4718(5)
C2E C 0.4407(5) 0.4458(6) 0.0811(6)
C3E C 0.5055(5) 0.4461(6) 0.0960(5)
C5E C 0.4066(5) 0.3860(7) 0.0752(6)
H2E H 0.4331 0.3565 0.0535
C6E C 0.4042(6) 0.3653(6) 0.1592(7)
C7E C 0.3555(6) 0.3819(6) 0.1965(7)
H3E H 0.3224 0.4048 0.1677
C8E C 0.3540(6) 0.3660(6) 0.2740(7)
C9E C 0.4042(6) 0.3351(6) 0.3151(7)
C10E C 0.4547(6) 0.3195(6) 0.2818(7)
C11E C 0.4537(6) 0.3337(6) 0.2039(6)
C12E C 0.3027(7) 0.3849(8) 0.3167(9)
H4E H 0.3001 0.3543 0.3583
C13E C 0.3220(7) 0.4438(8) 0.3581(9)
C16E C 0.3598(7) 0.4449(9) 0.4318(7)
C17E C 0.5479(6) 0.3607(7) 0.1684(6)
H6E H 0.5484 0.3883 0.2135
H7E H 0.5886 0.3410 0.1754
C18E C 0.4247(7) 0.3589(6) 0.4528(7)
H8E H 0.4464 0.3382 0.5011
H9E H 0.4545 0.3862 0.4349
C21E C 0.5067(6) 0.2866(6) 0.3267(7)
C22E C 0.5494(7) 0.2593(7) 0.3633(8)
C25E C 0.3445(6) 0.3870(8) 0.0174(8)
H10E H 0.3505 0.4029 -0.0343
H11E H 0.3159 0.4141 0.0380
C26E C 0.3164(8) 0.3253(8) 0.0057(10)
H12E H 0.3477 0.2976 -0.0080
H13E H 0.3069 0.3118 0.0568
C27E C 0.2587(8) 0.3195(11) -0.0567(11)
H14E H 0.2699 0.3287 -0.1085
H15E H 0.2460 0.2770 -0.0584
C28E C 0.2025(9) 0.3571(16) -0.0505(16)
H16E H 0.1847 0.3414 -0.0060
H17E H 0.2164 0.3985 -0.0368
C29E C 0.1508(12) 0.3597(13) -0.124(2)
H18E H 0.1127 0.3740 -0.1078
H19E H 0.1622 0.3898 -0.1612
C30E C 0.136(2) 0.2999(16) -0.170(2)
H20E H 0.1028 0.3062 -0.2152
H21E H 0.1235 0.2700 -0.1343
H22E H 0.1730 0.2858 -0.1878
C31E C 0.2414(7) 0.3896(8) 0.2653(10)
H23E H 0.2128 0.4077 0.2963
H24E H 0.2444 0.4174 0.2213
C32E C 0.2139(13) 0.3311(9) 0.2302(18)
H25E H 0.2455 0.3100 0.2069
H26E H 0.2050 0.3059 0.2740
C33E C 0.1551(13) 0.3350(13) 0.1670(17)
H27E H 0.1674 0.3415 0.1153
H28E H 0.1323 0.3712 0.1782
C34E C 0.1107(13) 0.2830(13) 0.1579(18)
H29E H 0.1324 0.2446 0.1543
H30E H 0.0887 0.2810 0.2027
C35E C 0.0665(14) 0.2969(16) 0.0807(17)
H31E H 0.0860 0.3221 0.0450
H32E H 0.0497 0.2601 0.0526
C36E C 0.0173(13) 0.3314(16) 0.1146(18)
H33E H 0.0373 0.3619 0.1518
H34E H -0.0112 0.3508 0.0714
H35E H -0.0055 0.3035 0.1422
I2E I 0.61996(5) 0.21231(6) 0.42070(6)
O1E O 0.5381(4) 0.3946(4) 0.0967(4)
O2E O 0.5025(5) 0.3169(4) 0.1694(4)
O3E O 0.4052(5) 0.3162(4) 0.3936(5)
O4E O 0.3761(5) 0.3928(5) 0.4718(5)
C37 C 0.2561(11) 0.6379(13) -0.4530(15)
H36 H 0.2935 0.6335 -0.4719
C38 C 0.3140(19) 0.646(2) -0.3049(18)
H37 H 0.3411 0.6115 -0.3060
H38 H 0.3383 0.6830 -0.3010
H39 H 0.2938 0.6429 -0.2591
C39 C 0.228(2) 0.696(2) -0.362(3)
H40 H 0.2451 0.7151 -0.3116
H41 H 0.2254 0.7259 -0.4049
H42 H 0.1868 0.6807 -0.3612
N1 N 0.2677(15) 0.647(2) -0.377(2)
O5 O 0.2123(8) 0.6330(12) -0.5074(12)
C40 C 0.2021(8) 0.5000 0.0503(12)
H43 H 0.2160 0.5000 0.0014
C41 C 0.116(3) 0.5000 0.115(2)
H44 H 0.0706 0.5000 0.0999
H45 H 0.1292 0.4642 0.1462
C42 C 0.096(2) 0.5000 -0.028(2)
H46 H 0.0551 0.5000 -0.0151
H47 H 0.1015 0.5358 -0.0591
N2 N 0.1421(8) 0.5000 0.0440(17)
O6 O 0.2431(7) 0.5000 0.1090(9)
H45E H 0.1292 0.5358 0.1462
H47E H 0.1015 0.4642 -0.0591
H48? H 0.2450 0.7227 -0.0565
H49? H 0.2265 0.6558 -0.0394
C43? C 0.2592(18) 0.664(2) -0.1418(11)
H50? H 0.2577 0.6197 -0.1470
H51? H 0.2984 0.6777 -0.1555
C44? C 0.2059(18) 0.691(2) -0.201(3)
H52? H 0.1993 0.7330 -0.1871
H53? H 0.1675 0.6680 -0.1999
C45? C 0.224(4) 0.686(4) -0.282(4)
H54? H 0.2200 0.6436 -0.2954
H55? H 0.2673 0.6983 -0.2766
H56? H 0.1990 0.7096 -0.3251
N3? N 0.2839(14) 0.5947(14) -0.4114(17)
C46? C 0.2639(18) 0.5326(13) -0.417(2)
H57? H 0.2287 0.5281 -0.4607
H58? H 0.2978 0.5070 -0.4262
H59? H 0.2516 0.5207 -0.3673
H60? H 0.2710 0.6772 -0.4400
C47? C 0.3282(13) 0.6211(19) -0.3481(19)
H61? H 0.3385 0.6616 -0.3634
H62? H 0.3105 0.6233 -0.3001
H63? H 0.3655 0.5965 -0.3378
C48? C 0.385(3) 0.939(3) 0.297(3)
H64? H 0.3520 0.9362 0.3237
C49? C 0.434(3) 0.857(3) 0.382(4)
H65? H 0.3910 0.8436 0.3781
H66? H 0.4501 0.8701 0.4362
H67? H 0.4586 0.8235 0.3685
C50? C 0.493(3) 0.892(5) 0.304(6)
H68? H 0.4800 0.8735 0.2513
H69? H 0.5130 0.9302 0.2982
H70? H 0.5227 0.8649 0.3368
N4? N 0.436(3) 0.905(3) 0.328(4)
O7? O 0.3762(16) 0.973(2) 0.239(3)
loop_
_geom_bond_atom_site_label_1
_geom_bond_atom_site_label_2
_geom_bond_site_symmetry_1
_geom_bond_site_symmetry_2
C1 H1 1_555 1_555
C2 C1 1_555 1_555
C3 C2 1_555 1_555
C4 C3 1_555 1_555
C5 C2 1_555 1_555
H2 C5 1_555 1_555
C6 C5 1_555 1_555
C7 C6 1_555 1_555
H3 C7 1_555 1_555
C8 C7 1_555 1_555
C9 C8 1_555 1_555
C10 C9 1_555 1_555
C11 C6 1_555 1_555
C12 C8 1_555 1_555
H4 C12 1_555 1_555
C13 C12 1_555 1_555
C14 C13 1_555 1_555
H5 C14 1_555 1_555
C15 C16 1_555 1_555
C16 C13 1_555 1_555
C17 H6 1_555 1_555
H7 C17 1_555 1_555
C18 H8 1_555 1_555
H9 C18 1_555 1_555
C19 C4 1_555 1_555
C20 C19 1_555 1_555
C21 C10 1_555 1_555
C22 C21 1_555 1_555
C23 C15 1_555 1_555
C24 C23 1_555 1_555
C25 C5 1_555 1_555
H10 C25 1_555 1_555
H11 C25 1_555 1_555
C26 C25 1_555 1_555
H12 C26 1_555 1_555
H13 C26 1_555 1_555
C27 C26 1_555 1_555
H14 C27 1_555 1_555
H15 C27 1_555 1_555
C28 C27 1_555 1_555
H16 C28 1_555 1_555
H17 C28 1_555 1_555
C29 C28 1_555 1_555
H18 C29 1_555 1_555
H19 C29 1_555 1_555
C30 C29 1_555 1_555
H20 C30 1_555 1_555
H21 C30 1_555 1_555
H22 C30 1_555 1_555
C31 C12 1_555 1_555
H23 C31 1_555 1_555
H24 C31 1_555 1_555
C32 C31 1_555 1_555
H25 C32 1_555 1_555
H26 C32 1_555 1_555
C33 C32 1_555 1_555
H27 C33 1_555 1_555
H28 C33 1_555 1_555
C34 C33 1_555 1_555
H29 C34 1_555 1_555
H30 C34 1_555 1_555
C35 C34 1_555 1_555
H31 C35 1_555 1_555
H32 C35 1_555 1_555
C36 C35 1_555 1_555
H33 C36 1_555 1_555
H34 C36 1_555 1_555
H35 C36 1_555 1_555
I1 C20 1_555 1_555
I2 C22 1_555 1_555
I3 C24 1_555 1_555
O1 C3 1_555 1_555
O2 C11 1_555 1_555
O3 C9 1_555 1_555
O4 C16 1_555 1_555
C37 H36 1_555 1_555
C38 H37 1_555 1_555
H38 C38 1_555 1_555
H39 C38 1_555 1_555
C39 H40 1_555 1_555
H41 C39 1_555 1_555
H42 C39 1_555 1_555
N1 C37 1_555 1_555
O5 C37 1_555 1_555
C40 H43 1_555 1_555
C41 H44 1_555 1_555
H45 C41 1_555 1_555
C42 H46 1_555 1_555
H47 C42 1_555 1_555
N2 C40 1_555 1_555
O6 C40 1_555 1_555
C2E C1 1_555 1_555
C3E C4 1_555 1_555
C5E C2E 1_555 1_555
H2E C5E 1_555 1_555
C6E C5E 1_555 1_555
C7E C6E 1_555 1_555
H3E C7E 1_555 1_555
C8E C7E 1_555 1_555
C9E C8E 1_555 1_555
C10E C9E 1_555 1_555
C11E C6E 1_555 1_555
C12E C8E 1_555 1_555
H4E C12E 1_555 1_555
C13E C14 1_555 1_555
C16E C15 1_555 1_555
C17E H6E 1_555 1_555
H7E C17E 1_555 1_555
C18E H8E 1_555 1_555
H9E C18E 1_555 1_555
C21E C10E 1_555 1_555
C22E C21E 1_555 1_555
C25E C5E 1_555 1_555
H10E C25E 1_555 1_555
H11E C25E 1_555 1_555
C26E C25E 1_555 1_555
H12E C26E 1_555 1_555
H13E C26E 1_555 1_555
C27E C26E 1_555 1_555
H14E C27E 1_555 1_555
H15E C27E 1_555 1_555
C28E C27E 1_555 1_555
H16E C28E 1_555 1_555
H17E C28E 1_555 1_555
C29E C28E 1_555 1_555
H18E C29E 1_555 1_555
H19E C29E 1_555 1_555
C30E C29E 1_555 1_555
H20E C30E 1_555 1_555
H21E C30E 1_555 1_555
H22E C30E 1_555 1_555
C31E C12E 1_555 1_555
H23E C31E 1_555 1_555
H24E C31E 1_555 1_555
C32E C31E 1_555 1_555
H25E C32E 1_555 1_555
H26E C32E 1_555 1_555
C33E C32E 1_555 1_555
H27E C33E 1_555 1_555
H28E C33E 1_555 1_555
C34E C33E 1_555 1_555
H29E C34E 1_555 1_555
H30E C34E 1_555 1_555
C35E C34E 1_555 1_555
H31E C35E 1_555 1_555
H32E C35E 1_555 1_555
C36E C35E 1_555 1_555
H33E C36E 1_555 1_555
H34E C36E 1_555 1_555
H35E C36E 1_555 1_555
I2E C22E 1_555 1_555
O1E C3E 1_555 1_555
O2E C11E 1_555 1_555
O3E C9E 1_555 1_555
O4E C16E 1_555 1_555
H45E C41 1_555 1_555
H47E C42 1_555 1_555
C10 C11 1_555 1_555
C17 O1 1_555 1_555
C17 O2 1_555 1_555
C18 O3 1_555 1_555
C18 O4 1_555 1_555
C38 N1 1_555 1_555
C39 N1 1_555 1_555
C41 N2 1_555 1_555
C42 N2 1_555 1_555
C2E C3E 1_555 1_555
C10E C11E 1_555 1_555
C12E C13E 1_555 1_555
C13E C16E 1_555 1_555
C17E O1E 1_555 1_555
C17E O2E 1_555 1_555
C18E O3E 1_555 1_555
C18E O4E 1_555 1_555

#END
