
#######################################################################
#
#                 Cambridge Crystallographic Data Centre
#                                CCDC 
#
#######################################################################
#
# If this CIF has been generated from an entry in the Cambridge 
# Structural Database, then it will include bibliographic, chemical, 
# crystal, experimental, refinement or atomic coordinate data resulting 
# from the CCDC's data processing and validation procedures.
#
#######################################################################

data_LEBYOJ
_chemical_formula_moiety         'C64 H68 I4 O8,C2 H3 N1'
_chemical_name_systematic        
"5,11,17,23-tetrakis(2-iodoethynyl)-2,8,14,20-tetrkis(n-hexyl)-6,10:12,16:18,22:24,4-O,O'-tetrakis(methylene)calix(4)resorcinarene acetonitrile solvate"
_symmetry_cell_setting           monoclinic
_symmetry_space_group_name_H-M   'P 21/n'
_symmetry_Int_Tables_number      14
_space_group_name_Hall           '-P 2yn'
loop_
_symmetry_equiv_pos_site_id
_symmetry_equiv_pos_as_xyz
1 x,y,z
2 1/2-x,1/2+y,1/2-z
3 -x,-y,-z
4 1/2+x,1/2-y,1/2+z
_cell_length_a                   14.2220(2)
_cell_length_b                   24.9361(3)
_cell_length_c                   18.1166(3)
_cell_angle_alpha                90
_cell_angle_beta                 98.6494(16)
_cell_angle_gamma                90
_cell_volume                     6351.82
_exptl_crystal_colour            colorless
_exptl_crystal_description       block
_cell_formula_units_Z            4
loop_
_atom_site_label
_atom_site_type_symbol
_atom_site_fract_x
_atom_site_fract_y
_atom_site_fract_z
C1 C 0.3588(4) 0.3325(2) 0.7880(3)
C2 C 0.4060(4) 0.3723(2) 0.8330(3)
C3 C 0.5036(5) 0.3724(2) 0.8509(3)
C4 C 0.5565(4) 0.3309(2) 0.8253(3)
C5 C 0.5120(4) 0.2899(2) 0.7803(3)
C6 C 0.4134(4) 0.2922(2) 0.7616(3)
H1 H 0.3821 0.2654 0.7296
C7 C 0.5515(5) 0.4171(3) 0.8923(4)
C8 C 0.5862(5) 0.4561(3) 0.9217(4)
C9 C 0.7136(4) 0.3490(3) 0.7988(4)
H2 H 0.6792 0.3773 0.7673
H3 H 0.7711 0.3655 0.8276
C10 C 0.5726(4) 0.2474(2) 0.7494(3)
H4 H 0.6314 0.2427 0.7867
C11 C 0.6034(4) 0.2697(2) 0.6788(3)
C12 C 0.6838(4) 0.3013(2) 0.6845(4)
C13 C 0.7124(4) 0.3251(2) 0.6212(4)
C14 C 0.6585(4) 0.3165(2) 0.5516(3)
C15 C 0.5765(4) 0.2848(2) 0.5434(3)
C16 C 0.5495(4) 0.2628(2) 0.6073(3)
H5 H 0.4925 0.2424 0.6029
C17 C 0.7951(4) 0.3595(2) 0.6292(4)
C18 C 0.8612(5) 0.3887(3) 0.6345(4)
C19 C 0.6448(4) 0.3880(2) 0.4637(4)
H6 H 0.6213 0.4063 0.5058
H7 H 0.6918 0.4118 0.4452
C20 C 0.5184(4) 0.2783(2) 0.4659(3)
H8 H 0.5638 0.2827 0.4292
C21 C 0.4488(4) 0.3251(2) 0.4531(3)
C22 C 0.4787(4) 0.3744(2) 0.4271(3)
C23 C 0.4186(5) 0.4187(2) 0.4174(3)
C24 C 0.3252(5) 0.4130(2) 0.4326(3)
C25 C 0.2931(4) 0.3655(2) 0.4596(3)
C26 C 0.3562(4) 0.3221(2) 0.4696(3)
H9 H 0.3352 0.2893 0.4883
C27 C 0.4513(4) 0.4701(2) 0.3960(3)
C28 C 0.4785(4) 0.5137(3) 0.3804(4)
C29 C 0.2534(4) 0.4908(2) 0.4765(3)
H10 H 0.2417 0.5277 0.4572
H11 H 0.3129 0.4911 0.5127
C30 C 0.1945(4) 0.3630(2) 0.4827(3)
H12 H 0.1533 0.3886 0.4498
C31 C 0.2039(4) 0.3852(2) 0.5618(3)
C32 C 0.1993(4) 0.4402(2) 0.5732(3)
C33 C 0.2108(4) 0.4620(2) 0.6453(3)
C34 C 0.2272(4) 0.4274(2) 0.7064(3)
C35 C 0.2308(4) 0.3724(2) 0.6973(3)
C36 C 0.2211(4) 0.3521(2) 0.6249(3)
H13 H 0.2263 0.3145 0.6181
C37 C 0.2045(4) 0.5192(3) 0.6563(4)
C38 C 0.2003(5) 0.5656(2) 0.6667(4)
C39 C 0.3263(4) 0.4570(2) 0.8155(3)
H14 H 0.3286 0.4901 0.8460
H15 H 0.3711 0.4615 0.7791
C40 C 0.2510(4) 0.3361(2) 0.7661(3)
H16 H 0.2265 0.3555 0.8077
C41 C 0.5248(5) 0.1921(2) 0.7385(4)
H17 H 0.5084 0.1799 0.7869
H18 H 0.4647 0.1959 0.7034
C42 C 0.5860(5) 0.1489(3) 0.7085(4)
H19 H 0.5493 0.1150 0.7027
H20 H 0.5985 0.1598 0.6584
C43 C 0.6798(5) 0.1384(3) 0.7573(4)
H21 H 0.6682 0.1326 0.8092
H22 H 0.7204 0.1706 0.7570
C44 C 0.7336(6) 0.0896(3) 0.7325(5)
H23 H 0.7465 0.0956 0.6809
H24 H 0.7956 0.0863 0.7654
C45 C 0.6784(6) 0.0378(3) 0.7352(5)
H25 H 0.6222 0.0387 0.6956
H26 H 0.6551 0.0355 0.7839
C46 C 0.7371(7) -0.0126(3) 0.7246(6)
H27 H 0.7522 -0.0134 0.6736
H28 H 0.7004 -0.0446 0.7333
H29 H 0.7963 -0.0120 0.7602
C47 C 0.4706(5) 0.2235(2) 0.4502(4)
H30 H 0.4286 0.2165 0.4880
H31 H 0.4303 0.2245 0.4006
C48 C 0.5415(5) 0.1780(3) 0.4515(4)
H32 H 0.5749 0.1736 0.5032
H33 H 0.5896 0.1878 0.4197
C49 C 0.4973(5) 0.1247(3) 0.4248(5)
H34 H 0.4661 0.1288 0.3725
H35 H 0.4473 0.1157 0.4553
C50 C 0.5672(5) 0.0784(3) 0.4289(5)
H36 H 0.5956 0.0727 0.4816
H37 H 0.6192 0.0881 0.4006
C51 C 0.5217(6) 0.0264(3) 0.3977(5)
H38 H 0.4936 0.0321 0.3449
H39 H 0.4695 0.0169 0.4258
C52 C 0.5916(7) -0.0199(3) 0.4022(6)
H40 H 0.6305 -0.0165 0.3621
H41 H 0.5566 -0.0539 0.3967
H42 H 0.6329 -0.0192 0.4506
C53 C 0.1462(4) 0.3076(2) 0.4730(3)
H43 H 0.1445 0.2956 0.4207
H44 H 0.1845 0.2814 0.5058
C54 C 0.0454(5) 0.3085(3) 0.4916(4)
H45 H 0.0071 0.3345 0.4583
H46 H 0.0472 0.3212 0.5436
C55 C -0.0034(5) 0.2539(3) 0.4835(4)
H47 H -0.0160 0.2445 0.4298
H48 H 0.0409 0.2267 0.5089
C56 C -0.0957(6) 0.2507(4) 0.5148(5)
H49 H -0.1432 0.2745 0.4859
H50 H -0.0854 0.2632 0.5673
C57 C -0.1362(7) 0.1903(4) 0.5116(5)
H51 H -0.1598 0.1806 0.4591
H52 H -0.0840 0.1653 0.5306
C58 C -0.2136(7) 0.1845(4) 0.5564(8)
H53 H -0.2628 0.2113 0.5406
H54 H -0.1885 0.1897 0.6093
H55 H -0.2412 0.1485 0.5491
C59 C 0.1980(4) 0.2820(2) 0.7570(3)
H56 H 0.2213 0.2613 0.7168
H57 H 0.2136 0.2613 0.8039
C60 C 0.0914(5) 0.2873(3) 0.7388(4)
H58 H 0.0752 0.2997 0.6865
H59 H 0.0701 0.3153 0.7713
C61 C 0.0361(6) 0.2359(3) 0.7482(4)
H60 H 0.0496 0.2246 0.8011
H61 H -0.0328 0.2439 0.7369
C62 C 0.0572(6) 0.1901(3) 0.7006(5)
H62 H 0.1262 0.1821 0.7107
H63 H 0.0414 0.2004 0.6474
C63 C 0.0007(8) 0.1389(4) 0.7148(6)
H64 H 0.0043 0.1336 0.7693
H65 H -0.0670 0.1441 0.6935
C64 C 0.0378(11) 0.0893(5) 0.6808(10)
H66 H 0.0446 0.0965 0.6287
H67 H -0.0070 0.0597 0.6828
H68 H 0.0998 0.0796 0.7089
I1 I 0.63940(4) 0.52115(2) 0.97751(3)
I2 I 0.97647(3) 0.43534(2) 0.64310(3)
I3 I 0.52099(3) 0.58713(2) 0.35828(2)
I4 I 0.19497(4) 0.64471(2) 0.68196(3)
O1 O 0.6541(3) 0.32959(17) 0.8495(2)
O2 O 0.7416(3) 0.30835(17) 0.7523(2)
O3 O 0.6904(3) 0.33959(17) 0.4898(2)
O4 O 0.5681(3) 0.37952(17) 0.4060(2)
O5 O 0.2647(3) 0.45628(17) 0.4167(2)
O6 O 0.1770(3) 0.47494(16) 0.5137(2)
O7 O 0.2331(3) 0.45009(16) 0.7766(2)
O8 O 0.3555(3) 0.41255(16) 0.8629(2)
C65 C 0.2659(6) 0.1770(4) 0.5773(5)
C66 C 0.2158(11) 0.1326(5) 0.5357(8)
H69 H 0.1864 0.1453 0.4864
H70 H 0.1664 0.1190 0.5631
H71 H 0.2610 0.1038 0.5298
N1 N 0.3039(6) 0.2119(3) 0.6060(4)
loop_
_geom_bond_atom_site_label_1
_geom_bond_atom_site_label_2
_geom_bond_site_symmetry_1
_geom_bond_site_symmetry_2
C1 C2 1_555 1_555
C2 C3 1_555 1_555
C3 C4 1_555 1_555
C4 C5 1_555 1_555
C5 C6 1_555 1_555
C6 C1 1_555 1_555
H1 C6 1_555 1_555
C7 C3 1_555 1_555
C8 C7 1_555 1_555
C9 H2 1_555 1_555
H3 C9 1_555 1_555
C10 C5 1_555 1_555
H4 C10 1_555 1_555
C11 C10 1_555 1_555
C12 C11 1_555 1_555
C13 C12 1_555 1_555
C14 C13 1_555 1_555
C15 C14 1_555 1_555
C16 C11 1_555 1_555
H5 C16 1_555 1_555
C17 C13 1_555 1_555
C18 C17 1_555 1_555
C19 H6 1_555 1_555
H7 C19 1_555 1_555
C20 C15 1_555 1_555
H8 C20 1_555 1_555
C21 C20 1_555 1_555
C22 C21 1_555 1_555
C23 C22 1_555 1_555
C24 C23 1_555 1_555
C25 C24 1_555 1_555
C26 C21 1_555 1_555
H9 C26 1_555 1_555
C27 C23 1_555 1_555
C28 C27 1_555 1_555
C29 H10 1_555 1_555
H11 C29 1_555 1_555
C30 C25 1_555 1_555
H12 C30 1_555 1_555
C31 C30 1_555 1_555
C32 C31 1_555 1_555
C33 C32 1_555 1_555
C34 C33 1_555 1_555
C35 C34 1_555 1_555
C36 C31 1_555 1_555
H13 C36 1_555 1_555
C37 C33 1_555 1_555
C38 C37 1_555 1_555
C39 H14 1_555 1_555
H15 C39 1_555 1_555
C40 C1 1_555 1_555
H16 C40 1_555 1_555
C41 C10 1_555 1_555
H17 C41 1_555 1_555
H18 C41 1_555 1_555
C42 C41 1_555 1_555
H19 C42 1_555 1_555
H20 C42 1_555 1_555
C43 C42 1_555 1_555
H21 C43 1_555 1_555
H22 C43 1_555 1_555
C44 C43 1_555 1_555
H23 C44 1_555 1_555
H24 C44 1_555 1_555
C45 C44 1_555 1_555
H25 C45 1_555 1_555
H26 C45 1_555 1_555
C46 C45 1_555 1_555
H27 C46 1_555 1_555
H28 C46 1_555 1_555
H29 C46 1_555 1_555
C47 C20 1_555 1_555
H30 C47 1_555 1_555
H31 C47 1_555 1_555
C48 C47 1_555 1_555
H32 C48 1_555 1_555
H33 C48 1_555 1_555
C49 C48 1_555 1_555
H34 C49 1_555 1_555
H35 C49 1_555 1_555
C50 C49 1_555 1_555
H36 C50 1_555 1_555
H37 C50 1_555 1_555
C51 C50 1_555 1_555
H38 C51 1_555 1_555
H39 C51 1_555 1_555
C52 C51 1_555 1_555
H40 C52 1_555 1_555
H41 C52 1_555 1_555
H42 C52 1_555 1_555
C53 C30 1_555 1_555
H43 C53 1_555 1_555
H44 C53 1_555 1_555
C54 C53 1_555 1_555
H45 C54 1_555 1_555
H46 C54 1_555 1_555
C55 C54 1_555 1_555
H47 C55 1_555 1_555
H48 C55 1_555 1_555
C56 C55 1_555 1_555
H49 C56 1_555 1_555
H50 C56 1_555 1_555
C57 C56 1_555 1_555
H51 C57 1_555 1_555
H52 C57 1_555 1_555
C58 C57 1_555 1_555
H53 C58 1_555 1_555
H54 C58 1_555 1_555
H55 C58 1_555 1_555
C59 C40 1_555 1_555
H56 C59 1_555 1_555
H57 C59 1_555 1_555
C60 C59 1_555 1_555
H58 C60 1_555 1_555
H59 C60 1_555 1_555
C61 C60 1_555 1_555
H60 C61 1_555 1_555
H61 C61 1_555 1_555
C62 C61 1_555 1_555
H62 C62 1_555 1_555
H63 C62 1_555 1_555
C63 C62 1_555 1_555
H64 C63 1_555 1_555
H65 C63 1_555 1_555
C64 C63 1_555 1_555
H66 C64 1_555 1_555
H67 C64 1_555 1_555
H68 C64 1_555 1_555
I1 C8 1_555 1_555
I2 C18 1_555 1_555
I3 C28 1_555 1_555
I4 C38 1_555 1_555
O1 C4 1_555 1_555
O2 C9 1_555 1_555
O3 C14 1_555 1_555
O4 C19 1_555 1_555
O5 C24 1_555 1_555
O6 C29 1_555 1_555
O7 C34 1_555 1_555
O8 C2 1_555 1_555
C65 C66 1_555 1_555
C66 H69 1_555 1_555
H70 C66 1_555 1_555
H71 C66 1_555 1_555
N1 C65 1_555 1_555
C9 O1 1_555 1_555
C12 O2 1_555 1_555
C15 C16 1_555 1_555
C19 O3 1_555 1_555
C22 O4 1_555 1_555
C25 C26 1_555 1_555
C29 O5 1_555 1_555
C32 O6 1_555 1_555
C35 C36 1_555 1_555
C35 C40 1_555 1_555
C39 O7 1_555 1_555
C39 O8 1_555 1_555

#END
