
#######################################################################
#
#                 Cambridge Crystallographic Data Centre
#                                CCDC 
#
#######################################################################
#
# If this CIF has been generated from an entry in the Cambridge 
# Structural Database, then it will include bibliographic, chemical, 
# crystal, experimental, refinement or atomic coordinate data resulting 
# from the CCDC's data processing and validation procedures.
#
#######################################################################

data_LEBZAW
_chemical_formula_moiety         'C68 H76 I4 O8,4(C2 H6 O1 S1)'
_chemical_name_systematic        
"5,11,17,23-tetrakis(2-iodoethynyl)-2,8,14,20-tetrkis(n-hexyl)-6,10:12,16:18,22:24,4-O,O'-tetrakis(methylene)calix(4)resorcinarene dimethyl sulfoxide solvate"
_symmetry_cell_setting           triclinic
_symmetry_space_group_name_H-M   'P -1'
_symmetry_Int_Tables_number      2
_space_group_name_Hall           '-P 1'
loop_
_symmetry_equiv_pos_site_id
_symmetry_equiv_pos_as_xyz
1 x,y,z
2 -x,-y,-z
_cell_length_a                   12.8712(5)
_cell_length_b                   16.8782(7)
_cell_length_c                   20.3485(12)
_cell_angle_alpha                111.180(5)
_cell_angle_beta                 95.315(4)
_cell_angle_gamma                99.321(3)
_cell_volume                     4012.27
_cell_formula_units_Z            2
loop_
_atom_site_label
_atom_site_type_symbol
_atom_site_fract_x
_atom_site_fract_y
_atom_site_fract_z
I1 I 0.58992(7) 0.58632(6) 1.09936(5)
I2 I 0.70883(8) 0.86539(5) 0.75606(5)
I3 I 0.28918(8) 0.23629(10) 0.46488(8)
I4 I 0.43349(8) -0.06520(6) 0.84650(7)
O1 O 0.8918(6) 0.6192(5) 0.9509(4)
O2 O 0.9380(6) 0.7042(4) 0.8560(4)
O3 O 0.8048(6) 0.5619(5) 0.6039(4)
O4 O 0.6821(6) 0.3867(5) 0.5369(4)
O5 O 0.6015(6) 0.1089(5) 0.5557(5)
O6 O 0.6459(6) 0.0122(5) 0.6434(5)
O7 O 0.7539(6) 0.1582(5) 0.8975(4)
O8 O 0.7912(6) 0.3419(5) 0.9692(4)
C1 C 0.9228(8) 0.3617(6) 0.8970(6)
C2 C 0.8498(8) 0.3939(6) 0.9395(6)
C3 C 0.8373(8) 0.4808(7) 0.9569(6)
C4 C 0.8988(8) 0.5322(6) 0.9299(6)
C5 C 0.9733(8) 0.5019(6) 0.8859(5)
C6 C 0.9829(8) 0.4175(6) 0.8704(6)
H1 H 1.0323 0.3955 0.8402
C7 C 0.7592(8) 0.5122(7) 1.0003(6)
C8 C 0.6927(10) 0.5388(8) 1.0347(8)
C9 C 1.0378(7) 0.5637(6) 0.8591(5)
H2 H 1.0460 0.6233 0.8965
C10 C 1.1496(8) 0.5493(7) 0.8499(6)
H3 H 1.1451 0.4938 0.8092
H4 H 1.1838 0.5441 0.8934
C11 C 1.2193(8) 0.6224(7) 0.8367(8)
H5 H 1.2002 0.6147 0.7862
H6 H 1.2038 0.6786 0.8670
C12 C 1.3380(10) 0.6259(8) 0.8525(9)
H7 H 1.3567 0.6307 0.9023
H8 H 1.3545 0.5712 0.8203
C13 C 1.4051(12) 0.7020(9) 0.8426(10)
H9 H 1.3794 0.7551 0.8688
H10 H 1.3929 0.6921 0.7912
C14 C 1.5244(11) 0.7187(10) 0.8673(11)
H11 H 1.5605 0.7655 0.8536
H12 H 1.5504 0.6655 0.8419
C15 C 1.5567(14) 0.7450(13) 0.9488(13)
H13 H 1.6346 0.7623 0.9615
H14 H 1.5310 0.6956 0.9617
H15 H 1.5249 0.7939 0.9746
C16 C 0.8072(9) 0.6338(7) 0.9089(7)
H16 H 0.7464 0.6429 0.9352
H17 H 0.7822 0.5826 0.8636
C17 C 0.8482(10) 0.7131(7) 0.8935(7)
H18 H 0.7899 0.7237 0.8645
H19 H 0.8696 0.7643 0.9392
C18 C 0.9752(8) 0.5633(6) 0.7918(5)
C19 C 0.9237(8) 0.6317(6) 0.7936(6)
C20 C 0.8637(8) 0.6301(6) 0.7308(6)
C21 C 0.8569(7) 0.5598(6) 0.6657(5)
C22 C 0.9056(7) 0.4907(6) 0.6625(6)
C23 C 0.9640(8) 0.4937(6) 0.7260(6)
H20 H 0.9969 0.4467 0.7241
C24 C 0.8169(9) 0.7020(7) 0.7340(6)
C25 C 0.7788(10) 0.7632(7) 0.7401(7)
C26 C 0.9017(7) 0.4168(6) 0.5904(5)
H21 H 0.8719 0.4356 0.5526
C27 C 1.0126(7) 0.4013(6) 0.5761(6)
H22 H 1.0581 0.4571 0.5811
H23 H 1.0443 0.3833 0.6133
C28 C 1.0163(8) 0.3342(6) 0.5040(6)
H24 H 0.9879 0.2759 0.5037
H25 H 1.0918 0.3369 0.4972
C29 C 0.9543(8) 0.3438(6) 0.4411(6)
H26 H 0.9810 0.4024 0.4416
H27 H 0.8781 0.3388 0.4465
C30 C 0.9634(9) 0.2755(7) 0.3691(6)
H28 H 1.0382 0.2856 0.3610
H29 H 0.9461 0.2172 0.3712
C31 C 0.8908(10) 0.2765(8) 0.3066(6)
H30 H 0.9127 0.3326 0.3013
H31 H 0.8167 0.2720 0.3166
C32 C 0.8938(11) 0.2027(8) 0.2372(7)
H32 H 0.8460 0.2060 0.1983
H33 H 0.8705 0.1470 0.2419
H34 H 0.9668 0.2075 0.2267
C33 C 0.6894(8) 0.5408(7) 0.5949(6)
H35 H 0.6594 0.5447 0.5498
H36 H 0.6655 0.5845 0.6347
C34 C 0.6458(9) 0.4520(7) 0.5931(7)
H37 H 0.6698 0.4493 0.6398
H38 H 0.5669 0.4405 0.5848
C35 C 0.8226(7) 0.3346(6) 0.5850(5)
C36 C 0.7150(8) 0.3239(7) 0.5584(7)
C37 C 0.6408(7) 0.2498(6) 0.5499(6)
C38 C 0.6745(8) 0.1850(6) 0.5685(7)
C39 C 0.7826(7) 0.1936(6) 0.5954(5)
C40 C 0.8531(8) 0.2687(6) 0.6030(5)
H39 H 0.9260 0.2755 0.6214
C41 C 0.5282(8) 0.2408(7) 0.5231(6)
C42 C 0.4424(11) 0.2364(9) 0.5037(8)
C43 C 0.8155(7) 0.1215(6) 0.6136(6)
H40 H 0.7671 0.0661 0.5801
C44 C 0.9285(8) 0.1124(6) 0.6028(6)
H41 H 0.9782 0.1656 0.6371
H42 H 0.9368 0.1094 0.5541
C45 C 0.9621(8) 0.0333(6) 0.6118(6)
H43 H 0.9524 0.0349 0.6600
H44 H 0.9148 -0.0203 0.5762
C46 C 1.0762(9) 0.0300(7) 0.6028(7)
H45 H 1.1228 0.0837 0.6387
H46 H 1.0855 0.0298 0.5550
C47 C 1.1137(9) -0.0478(7) 0.6101(7)
H47 H 1.1051 -0.0479 0.6579
H48 H 1.0678 -0.1018 0.5740
C48 C 1.2288(9) -0.0481(7) 0.6006(8)
H49 H 1.2742 0.0075 0.6347
H50 H 1.2364 -0.0516 0.5517
C49 C 1.2692(10) -0.1225(8) 0.6121(8)
H51 H 1.2272 -0.1779 0.5769
H52 H 1.2619 -0.1197 0.6604
H53 H 1.3444 -0.1180 0.6064
C50 C 0.5432(9) 0.1086(7) 0.6120(7)
H54 H 0.4696 0.1151 0.5998
H55 H 0.5778 0.1582 0.6567
C51 C 0.5399(8) 0.0240(7) 0.6230(7)
H56 H 0.4967 0.0234 0.6607
H57 H 0.5045 -0.0252 0.5782
C52 C 0.7975(8) 0.1315(6) 0.6891(6)
C53 C 0.7108(8) 0.0783(6) 0.7006(6)
C54 C 0.6933(8) 0.0899(6) 0.7702(6)
C55 C 0.7656(9) 0.1512(6) 0.8289(6)
C56 C 0.8540(8) 0.2045(6) 0.8184(6)
C57 C 0.8662(8) 0.1929(6) 0.7487(6)
H58 H 0.9249 0.2291 0.7414
C58 C 0.6099(8) 0.0349(7) 0.7842(7)
C59 C 0.5400(11) -0.0083(8) 0.8029(8)
C60 C 0.9371(9) 0.2689(6) 0.8820(6)
H59 H 0.9211 0.2559 0.9246
C61 C 1.0509(8) 0.2557(7) 0.8727(7)
H60 H 1.1029 0.3032 0.9112
H61 H 1.0658 0.2572 0.8263
C62 C 1.0626(10) 0.1675(8) 0.8756(9)
H62 H 1.0242 0.1200 0.8307
H63 H 1.0300 0.1600 0.9157
C63 C 1.1833(17) 0.1620(15) 0.8858(14)
H64 H 1.2220 0.2126 0.9286
H65 H 1.1884 0.1089 0.8949
C64 C 1.2344(19) 0.1604(15) 0.8267(14)
H66 H 1.2297 0.2129 0.8164
H67 H 1.1991 0.1085 0.7837
C65 C 1.3534(18) 0.1576(16) 0.8455(15)
H68 H 1.3892 0.2108 0.8870
H69 H 1.3577 0.1068 0.8583
C66 C 1.408(2) 0.1512(18) 0.7831(15)
H70 H 1.3583 0.1151 0.7389
H71 H 1.4699 0.1249 0.7860
H72 H 1.4317 0.2095 0.7833
C67 C 0.6751(9) 0.2023(7) 0.9286(7)
H73 H 0.6778 0.2057 0.9783
H74 H 0.6037 0.1686 0.9016
C68 C 0.6902(8) 0.2933(6) 0.9287(6)
H75 H 0.6863 0.2907 0.8791
H76 H 0.6330 0.3216 0.9500
S1 S 0.4210(3) 0.6278(3) 1.2605(2)
O9 O 0.4729(9) 0.6635(8) 1.2109(8)
C69 C 0.4187(13) 0.5165(11) 1.2215(10)
H77 H 0.3857 0.4872 1.2505
H78 H 0.3771 0.4924 1.1732
H79 H 0.4918 0.5076 1.2190
C70 C 0.2847(11) 0.6256(9) 1.2424(7)
H80 H 0.2466 0.6028 1.2734
H81 H 0.2744 0.6847 1.2513
H82 H 0.2568 0.5882 1.1923
O10 O 0.1078(9) 0.3080(8) 0.7077(7)
S3 S 0.1913(5) 0.3037(4) 0.6591(4)
C71 C 0.2747(14) 0.4060(12) 0.6890(12)
C72 C 0.2865(19) 0.2490(14) 0.6737(15)
H89 H 0.3379 0.2484 0.6409
H90 H 0.3238 0.2782 0.7231
H91 H 0.2524 0.1892 0.6653
S5 S 0.4204(3) 0.5757(3) 0.6060(2)
O11 O 0.4606(9) 0.5526(8) 0.6669(6)
C73 C 0.2784(11) 0.5470(10) 0.5938(9)
H101 H 0.2549 0.5657 0.6404
H102 H 0.2548 0.4838 0.5692
H103 H 0.2475 0.5757 0.5650
C74 C 0.4315(16) 0.6904(10) 0.6407(9)
H104 H 0.5070 0.7194 0.6510
H105 H 0.4007 0.7080 0.6847
H106 H 0.3931 0.7068 0.6054
S6 S 0.2158(4) -0.0591(2) 0.9487(2)
O12 O 0.2947(9) -0.1175(7) 0.9286(7)
C75 C 0.1069(13) -0.1188(12) 0.9712(9)
H107 H 0.1328 -0.1334 1.0113
H108 H 0.0749 -0.1724 0.9299
H109 H 0.0532 -0.0834 0.9848
C76 C 0.268(2) 0.0206(12) 1.0345(11)
H110 H 0.2969 -0.0067 1.0651
H111 H 0.2108 0.0484 1.0551
H112 H 0.3246 0.0644 1.0310
I5? I 0.4027(8) -0.0911(6) 0.7945(6)
S2? S 0.3766(12) 0.5829(9) 1.1947(10)
H83? H 0.3605 0.4665 1.2120
H84? H 0.4769 0.4969 1.1964
H85? H 0.4450 0.5444 1.2730
H86? H 0.2594 0.6671 1.2246
H87? H 0.2244 0.5790 1.2373
H88? H 0.3169 0.6556 1.2928
S4? S 0.2155(9) 0.3324(7) 0.7255(7)
H92? H 0.3295 0.4050 0.6585
H93? H 0.2327 0.4488 0.6871
H94? H 0.3091 0.4219 0.7384
H95? H 0.3523 0.4206 0.7042
H96? H 0.2583 0.3791 0.6368
H97? H 0.2464 0.4591 0.7059
H98? H 0.3637 0.2706 0.6891
H99? H 0.2647 0.1954 0.6820
H100? H 0.2686 0.2370 0.6227
loop_
_geom_bond_atom_site_label_1
_geom_bond_atom_site_label_2
_geom_bond_site_symmetry_1
_geom_bond_site_symmetry_2
I1 C8 1_555 1_555
I2 C25 1_555 1_555
I3 C42 1_555 1_555
I4 C59 1_555 1_555
O1 C4 1_555 1_555
O2 C17 1_555 1_555
O3 C21 1_555 1_555
O4 C34 1_555 1_555
O5 C38 1_555 1_555
O6 C51 1_555 1_555
O7 C55 1_555 1_555
O8 C2 1_555 1_555
C1 C2 1_555 1_555
C2 C3 1_555 1_555
C3 C4 1_555 1_555
C4 C5 1_555 1_555
C5 C6 1_555 1_555
C6 C1 1_555 1_555
H1 C6 1_555 1_555
C7 C3 1_555 1_555
C8 C7 1_555 1_555
C9 C5 1_555 1_555
H2 C9 1_555 1_555
C10 C9 1_555 1_555
H3 C10 1_555 1_555
H4 C10 1_555 1_555
C11 C10 1_555 1_555
H5 C11 1_555 1_555
H6 C11 1_555 1_555
C12 C11 1_555 1_555
H7 C12 1_555 1_555
H8 C12 1_555 1_555
C13 C12 1_555 1_555
H9 C13 1_555 1_555
H10 C13 1_555 1_555
C14 C13 1_555 1_555
H11 C14 1_555 1_555
H12 C14 1_555 1_555
C15 C14 1_555 1_555
H13 C15 1_555 1_555
H14 C15 1_555 1_555
H15 C15 1_555 1_555
C16 O1 1_555 1_555
H16 C16 1_555 1_555
H17 C16 1_555 1_555
C17 C16 1_555 1_555
H18 C17 1_555 1_555
H19 C17 1_555 1_555
C18 C9 1_555 1_555
C19 O2 1_555 1_555
C20 C19 1_555 1_555
C21 C20 1_555 1_555
C22 C21 1_555 1_555
C23 C18 1_555 1_555
H20 C23 1_555 1_555
C24 C20 1_555 1_555
C25 C24 1_555 1_555
C26 C22 1_555 1_555
H21 C26 1_555 1_555
C27 C26 1_555 1_555
H22 C27 1_555 1_555
H23 C27 1_555 1_555
C28 C27 1_555 1_555
H24 C28 1_555 1_555
H25 C28 1_555 1_555
C29 C28 1_555 1_555
H26 C29 1_555 1_555
H27 C29 1_555 1_555
C30 C29 1_555 1_555
H28 C30 1_555 1_555
H29 C30 1_555 1_555
C31 C30 1_555 1_555
H30 C31 1_555 1_555
H31 C31 1_555 1_555
C32 C31 1_555 1_555
H32 C32 1_555 1_555
H33 C32 1_555 1_555
H34 C32 1_555 1_555
C33 O3 1_555 1_555
H35 C33 1_555 1_555
H36 C33 1_555 1_555
C34 C33 1_555 1_555
H37 C34 1_555 1_555
H38 C34 1_555 1_555
C35 C26 1_555 1_555
C36 O4 1_555 1_555
C37 C36 1_555 1_555
C38 C37 1_555 1_555
C39 C38 1_555 1_555
C40 C35 1_555 1_555
H39 C40 1_555 1_555
C41 C37 1_555 1_555
C42 C41 1_555 1_555
C43 C39 1_555 1_555
H40 C43 1_555 1_555
C44 C43 1_555 1_555
H41 C44 1_555 1_555
H42 C44 1_555 1_555
C45 C44 1_555 1_555
H43 C45 1_555 1_555
H44 C45 1_555 1_555
C46 C45 1_555 1_555
H45 C46 1_555 1_555
H46 C46 1_555 1_555
C47 C46 1_555 1_555
H47 C47 1_555 1_555
H48 C47 1_555 1_555
C48 C47 1_555 1_555
H49 C48 1_555 1_555
H50 C48 1_555 1_555
C49 C48 1_555 1_555
H51 C49 1_555 1_555
H52 C49 1_555 1_555
H53 C49 1_555 1_555
C50 O5 1_555 1_555
H54 C50 1_555 1_555
H55 C50 1_555 1_555
C51 C50 1_555 1_555
H56 C51 1_555 1_555
H57 C51 1_555 1_555
C52 C43 1_555 1_555
C53 O6 1_555 1_555
C54 C53 1_555 1_555
C55 C54 1_555 1_555
C56 C55 1_555 1_555
C57 C52 1_555 1_555
H58 C57 1_555 1_555
C58 C54 1_555 1_555
C59 C58 1_555 1_555
C60 C1 1_555 1_555
H59 C60 1_555 1_555
C61 C60 1_555 1_555
H60 C61 1_555 1_555
H61 C61 1_555 1_555
C62 C61 1_555 1_555
H62 C62 1_555 1_555
H63 C62 1_555 1_555
C63 C62 1_555 1_555
H64 C63 1_555 1_555
H65 C63 1_555 1_555
C64 C63 1_555 1_555
H66 C64 1_555 1_555
H67 C64 1_555 1_555
C65 C64 1_555 1_555
H68 C65 1_555 1_555
H69 C65 1_555 1_555
C66 C65 1_555 1_555
H70 C66 1_555 1_555
H71 C66 1_555 1_555
H72 C66 1_555 1_555
C67 O7 1_555 1_555
H73 C67 1_555 1_555
H74 C67 1_555 1_555
C68 O8 1_555 1_555
H75 C68 1_555 1_555
H76 C68 1_555 1_555
S1 O9 1_555 1_555
C69 S1 1_555 1_555
H77 C69 1_555 1_555
H78 C69 1_555 1_555
H79 C69 1_555 1_555
C70 S1 1_555 1_555
H80 C70 1_555 1_555
H81 C70 1_555 1_555
H82 C70 1_555 1_555
O10 S3 1_555 1_555
S3 C71 1_555 1_555
C72 S3 1_555 1_555
H89 C72 1_555 1_555
H90 C72 1_555 1_555
H91 C72 1_555 1_555
S5 O11 1_555 1_555
C73 S5 1_555 1_555
H101 C73 1_555 1_555
H102 C73 1_555 1_555
H103 C73 1_555 1_555
C74 S5 1_555 1_555
H104 C74 1_555 1_555
H105 C74 1_555 1_555
H106 C74 1_555 1_555
S6 O12 1_555 1_555
C75 S6 1_555 1_555
H107 C75 1_555 1_555
H108 C75 1_555 1_555
H109 C75 1_555 1_555
C76 S6 1_555 1_555
H110 C76 1_555 1_555
H111 C76 1_555 1_555
H112 C76 1_555 1_555
C18 C19 1_555 1_555
C22 C23 1_555 1_555
C35 C36 1_555 1_555
C39 C40 1_555 1_555
C52 C53 1_555 1_555
C56 C57 1_555 1_555
C56 C60 1_555 1_555
C67 C68 1_555 1_555

#END
