
#######################################################################
#
#                 Cambridge Crystallographic Data Centre
#                                CCDC 
#
#######################################################################
#
# If this CIF has been generated from an entry in the Cambridge 
# Structural Database, then it will include bibliographic, chemical, 
# crystal, experimental, refinement or atomic coordinate data resulting 
# from the CCDC's data processing and validation procedures.
#
#######################################################################

data_LECDEF
_chemical_formula_moiety         'C74 H82 F4 S4 Si4'
_chemical_name_systematic        
(ethane-1,2-diyl)bis{[(2,8-difluoro-11-{[tris(2-methylpropyl)silyl]ethynyl}anthra[2,3-b:7,6-b']bisthiophen-5-yl)ethynyl](dimethyl)silane}
_symmetry_cell_setting           triclinic
_symmetry_space_group_name_H-M   'P -1'
_symmetry_Int_Tables_number      2
_space_group_name_Hall           '-P 1'
loop_
_symmetry_equiv_pos_site_id
_symmetry_equiv_pos_as_xyz
1 x,y,z
2 -x,-y,-z
_cell_length_a                   10.7947(3)
_cell_length_b                   15.8356(5)
_cell_length_c                   22.4364(7)
_cell_angle_alpha                101.870(2)
_cell_angle_beta                 102.989(2)
_cell_angle_gamma                102.613(2)
_cell_volume                     3513.63
_exptl_crystal_colour            red
_exptl_crystal_description       lath
_cell_formula_units_Z            2
loop_
_atom_site_label
_atom_site_type_symbol
_atom_site_fract_x
_atom_site_fract_y
_atom_site_fract_z
Si1 Si 0.60015(6) 0.17486(4) 0.54517(3)
Si2 Si 1.16198(6) 0.93860(4) 0.74218(3)
Si3 Si 0.93721(5) 1.04749(4) 0.87589(3)
Si4 Si 0.29071(5) 0.33700(4) 0.86122(3)
C1 C 0.78326(19) 0.47176(13) 0.61668(9)
C2 C 0.71870(19) 0.53029(13) 0.64579(9)
C3 C 0.59437(19) 0.49655(14) 0.65680(9)
H1 H 0.5525 0.4338 0.6445
C4 C 0.53630(19) 0.55568(14) 0.68530(9)
S1 S 0.38750(7) 0.52812(5) 0.70560(4)
C5 C 0.4066(2) 0.64260(19) 0.73499(14)
F1 F 0.31199(14) 0.66585(13) 0.75906(8)
C6 C 0.5155(5) 0.6977(3) 0.7316(4)
H2 H 0.5376 0.7613 0.7463
C7 C 0.59528(19) 0.65064(14) 0.70328(9)
C8 C 0.71570(19) 0.68417(14) 0.69403(9)
H3 H 0.7556 0.7472 0.7065
C9 C 0.78096(19) 0.62495(13) 0.66585(9)
C10 C 0.90715(19) 0.65851(13) 0.65787(9)
C11 C 0.97156(19) 0.60008(14) 0.62866(9)
C12 C 1.09616(19) 0.63392(14) 0.61870(9)
H4 H 1.1392 0.6965 0.6333
C13 C 1.15463(19) 0.57666(15) 0.58816(9)
C14 C 1.2768(10) 0.5986(6) 0.5724(6)
H5 H 1.3326 0.6578 0.5816
C15 C 1.3020(3) 0.5245(2) 0.54280(16)
F2 F 1.40597(19) 0.51971(17) 0.52077(10)
S2 S 1.1854(1) 0.42281(6) 0.53214(6)
C16 C 1.0915(2) 0.48214(15) 0.56830(9)
C17 C 0.9727(2) 0.44700(14) 0.57801(10)
H6 H 0.9334 0.3839 0.5650
C18 C 0.90840(19) 0.50539(14) 0.60768(9)
C19 C 0.7212(2) 0.37719(15) 0.5947(1)
C20 C 0.6716(2) 0.29747(15) 0.57476(11)
C21 C 0.7352(18) 0.1186(14) 0.5420(9)
H7 H 0.7692 0.1105 0.5847
H8 H 0.6946 0.0579 0.5124
C22 C 0.8540(5) 0.1636(3) 0.5223(2)
H9 H 0.9025 0.2215 0.5553
C23 C 0.8158(9) 0.1847(6) 0.4600(4)
H10 H 0.7524 0.1315 0.4286
H11 H 0.8947 0.2019 0.4457
H12 H 0.7750 0.2343 0.4648
C24 C 0.9477(7) 0.1043(5) 0.5206(4)
H13 H 0.9054 0.0494 0.4858
H14 H 0.9684 0.0884 0.5609
H15 H 1.0295 0.1368 0.5139
C25 C 0.4807(3) 0.14262(18) 0.46316(13)
H16 H 0.5243 0.1762 0.4373
H17 H 0.4688 0.0781 0.4443
C26 C 0.3454(3) 0.1565(2) 0.45503(18)
H18 H 0.3053 0.1300 0.4854
C27 C 0.2552(4) 0.1093(3) 0.3883(2)
H19 H 0.2907 0.1358 0.3577
H20 H 0.1664 0.1166 0.3856
H21 H 0.2504 0.0453 0.3786
C28 C 0.3513(4) 0.2549(3) 0.4701(2)
H22 H 0.3913 0.2823 0.5158
H23 H 0.2616 0.2614 0.4579
H24 H 0.4050 0.2848 0.4466
C29 C 0.5100(3) 0.13437(18) 0.60045(13)
H25 H 0.4475 0.1706 0.6062
H26 H 0.4564 0.0716 0.5792
C30 C 0.5898(3) 0.1365(2) 0.66540(15)
H27 H 0.6624 0.1089 0.6589
C31 C 0.5125(4) 0.0810(3) 0.6985(2)
H28 H 0.5721 0.0785 0.7377
H29 H 0.4709 0.0200 0.6706
H30 H 0.4440 0.1082 0.7087
C32 C 0.6547(6) 0.2283(3) 0.70740(19)
H31 H 0.5871 0.2580 0.7154
H32 H 0.7108 0.2627 0.6869
H33 H 0.7092 0.2251 0.7477
C33 C 0.97532(19) 0.75177(14) 0.68228(10)
C34 C 1.0414(2) 0.82857(15) 0.70382(11)
C35 C 1.1493(3) 1.01055(17) 0.68636(13)
H34 H 1.1711 0.9832 0.6481
H35 H 1.2113 1.0703 0.7069
H36 H 1.0589 1.0160 0.6746
C36 C 1.3271(2) 0.91674(18) 0.76208(13)
H37 H 1.3277 0.8768 0.7902
H38 H 1.3955 0.9737 0.7836
H39 H 1.3449 0.8883 0.7230
C37 C 1.1204(2) 0.98817(16) 0.81594(11)
H40 H 1.1040 0.9415 0.8388
H41 H 1.1981 1.0373 0.8439
C38 C 0.9996(2) 1.02540(15) 0.80461(11)
H42 H 0.9277 0.9819 0.7688
H43 H 1.0238 1.0820 0.7923
C39 C 1.0744(2) 1.10853(16) 0.94887(11)
H44 H 1.0401 1.1127 0.9860
H45 H 1.1135 1.1691 0.9461
H46 H 1.1421 1.0760 0.9531
C40 C 0.8121(3) 1.11107(18) 0.86405(14)
H47 H 0.7353 1.0747 0.8285
H48 H 0.8508 1.1671 0.8547
H49 H 0.7842 1.1250 0.9027
C41 C 0.85275(19) 0.93677(15) 0.88229(10)
C42 C 0.78984(19) 0.86429(14) 0.88287(10)
C43 C 0.71201(18) 0.77850(13) 0.88253(9)
C44 C 0.75243(18) 0.70075(13) 0.86351(9)
C45 C 0.87052(18) 0.70608(14) 0.84453(9)
H50 H 0.9261 0.7630 0.8470
C46 C 0.90439(19) 0.62927(14) 0.82263(10)
C47 C 1.0147(4) 0.6194(3) 0.7987(3)
H51 H 1.0811 0.6682 0.7966
C48 C 1.0125(3) 0.53461(18) 0.78008(14)
F3 F 1.09963(16) 0.50215(13) 0.75480(9)
S3 S 0.87989(8) 0.45554(4) 0.78759(5)
C49 C 0.8204(2) 0.54381(14) 0.81894(10)
C50 C 0.7069(2) 0.53609(14) 0.83739(10)
H52 H 0.6535 0.4786 0.8351
C51 C 0.66970(18) 0.61422(13) 0.85987(9)
C52 C 0.55029(18) 0.60827(13) 0.87724(9)
C53 C 0.50953(18) 0.68606(13) 0.89590(9)
C54 C 0.38687(18) 0.68012(14) 0.91077(9)
H53 H 0.3331 0.6238 0.9104
C55 C 0.34727(18) 0.75615(14) 0.92555(9)
S4 S 0.20298(10) 0.76353(7) 0.94652(5)
C56 C 0.2500(3) 0.8788(2) 0.95499(19)
F4 F 0.16803(19) 0.92525(15) 0.97235(10)
C57 C 0.3656(11) 0.9121(6) 0.9449(7)
H54 H 0.4029 0.9738 0.9488
C58 C 0.42674(19) 0.84226(14) 0.92721(9)
C59 C 0.54648(19) 0.84997(14) 0.91429(9)
H55 H 0.5997 0.9072 0.9159
C60 C 0.59068(18) 0.77250(13) 0.89856(9)
C61 C 0.46806(19) 0.52179(14) 0.87342(9)
C62 C 0.3991(2) 0.44892(14) 0.86965(10)
C63 C 0.3789(2) 0.26999(16) 0.90656(11)
H56 H 0.4341 0.3108 0.9483
H57 H 0.3114 0.2240 0.9148
C64 C 0.4677(2) 0.22211(16) 0.87627(12)
H58 H 0.4201 0.1945 0.8302
C65 C 0.4943(2) 0.14777(17) 0.90546(13)
H59 H 0.5416 0.1139 0.8815
H60 H 0.4102 0.1074 0.9041
H61 H 0.5484 0.1737 0.9497
C66 C 0.5974(3) 0.2892(2) 0.88107(18)
H62 H 0.6443 0.3191 0.9258
H63 H 0.5783 0.3342 0.8589
H64 H 0.6527 0.2574 0.8615
C67 C 0.2494(3) 0.27478(17) 0.77473(12)
H65 H 0.3336 0.2712 0.7652
H66 H 0.1974 0.2125 0.7694
C68 C 0.1734(3) 0.3111(2) 0.72418(15)
H67 H 0.2022 0.3782 0.7391
C69 C 0.2043(4) 0.2830(3) 0.66138(16)
H68 H 0.2997 0.3052 0.6675
H69 H 0.1565 0.3083 0.6302
H70 H 0.1767 0.2173 0.6459
C70 C 0.0246(3) 0.2797(3) 0.71486(16)
H71 H -0.0212 0.3069 0.6844
H72 H 0.0057 0.2979 0.7556
H73 H -0.0063 0.2142 0.6987
C71 C 0.1449(2) 0.34919(16) 0.89091(11)
H74 H 0.1060 0.3910 0.8707
H75 H 0.0779 0.2900 0.8755
C72 C 0.1669(2) 0.38228(17) 0.96260(12)
H76 H 0.2188 0.3460 0.9836
C73 C 0.0365(3) 0.3683(2) 0.97959(17)
H77 H 0.0537 0.3937 1.0253
H78 H -0.0080 0.3038 0.9682
H79 H -0.0202 0.3982 0.9562
C74 C 0.2459(3) 0.48066(19) 0.98927(13)
H80 H 0.1999 0.5175 0.9674
H81 H 0.3340 0.4883 0.9827
H82 H 0.2547 0.4996 1.0348
C75? C 0.411(2) 0.5373(11) 0.6982(19)
H83? H 0.3524 0.4789 0.6886
F5? F 0.2857(13) 0.6217(11) 0.7490(8)
C76? C 0.387(2) 0.6123(10) 0.7255(18)
S5? S 0.5010(14) 0.7141(7) 0.7327(10)
S6? S 1.2978(11) 0.6019(7) 0.5659(7)
F6? F 1.3675(9) 0.4676(8) 0.5063(5)
C77? C 1.2736(13) 0.4873(8) 0.5325(9)
C78? C 1.167(2) 0.4322(11) 0.5382(14)
H84? H 1.1443 0.3685 0.5243
C79? C 0.740(3) 0.122(2) 0.5444(15)
H85? H 0.8113 0.1553 0.5839
H86? H 0.7079 0.0604 0.5477
C80? C 0.8036(8) 0.1159(6) 0.4902(4)
H87? H 0.7317 0.0855 0.4497
C81? C 0.8756(14) 0.2038(9) 0.4843(8)
H88? H 0.9136 0.1938 0.4485
H89? H 0.8141 0.2403 0.4769
H90? H 0.9468 0.2352 0.5235
C82? C 0.8987(10) 0.0563(8) 0.4977(5)
H91? H 0.8514 -0.0017 0.5017
H92? H 0.9321 0.0466 0.4604
H93? H 0.9732 0.0862 0.5359
S7? S 1.0433(16) 0.6203(11) 0.7993(14)
F7? F 1.056(2) 0.4556(14) 0.7551(12)
C83? C 0.984(3) 0.5034(11) 0.782(2)
C84? C 0.875(4) 0.4724(11) 0.796(4)
H94? H 0.8367 0.4108 0.7924
C85? C 0.2215(14) 0.7611(10) 0.9366(10)
H95? H 0.1522 0.7110 0.9347
F8? F 0.1181(7) 0.8770(5) 0.9639(4)
C86? C 0.2172(10) 0.8457(6) 0.9499(8)
S8? S 0.3507(8) 0.9258(5) 0.9448(6)
C87? C 0.1822(18) 0.2822(12) 0.7777(7)
H96? H 0.1753 0.2172 0.7685
H97? H 0.0924 0.2885 0.7762
C88? C 0.2231(15) 0.3161(14) 0.7241(8)
H98? H 0.2349 0.3824 0.7351
C89? C 0.3552(15) 0.3016(13) 0.7182(9)
H99? H 0.4222 0.3282 0.7593
H100? H 0.3459 0.2370 0.7048
H101? H 0.3823 0.3301 0.6866
C90? C 0.1171(19) 0.2755(18) 0.6610(8)
H102? H 0.0330 0.2855 0.6658
H103? H 0.1431 0.3039 0.6291
H104? H 0.1067 0.2108 0.6474
loop_
_geom_bond_atom_site_label_1
_geom_bond_atom_site_label_2
_geom_bond_site_symmetry_1
_geom_bond_site_symmetry_2
Si1 C20 1_555 1_555
Si2 C34 1_555 1_555
Si3 C38 1_555 1_555
Si4 C62 1_555 1_555
C1 C2 1_555 1_555
C2 C3 1_555 1_555
C3 H1 1_555 1_555
C4 C3 1_555 1_555
S1 C4 1_555 1_555
C5 S1 1_555 1_555
F1 C5 1_555 1_555
C6 C5 1_555 1_555
H2 C6 1_555 1_555
C7 C4 1_555 1_555
C8 C7 1_555 1_555
H3 C8 1_555 1_555
C9 C2 1_555 1_555
C10 C9 1_555 1_555
C11 C10 1_555 1_555
C12 C11 1_555 1_555
H4 C12 1_555 1_555
C13 C12 1_555 1_555
C14 C13 1_555 1_555
H5 C14 1_555 1_555
C15 C14 1_555 1_555
F2 C15 1_555 1_555
S2 C15 1_555 1_555
C16 C13 1_555 1_555
C17 C16 1_555 1_555
H6 C17 1_555 1_555
C18 C1 1_555 1_555
C19 C1 1_555 1_555
C20 C19 1_555 1_555
C21 Si1 1_555 1_555
H7 C21 1_555 1_555
H8 C21 1_555 1_555
C22 C21 1_555 1_555
H9 C22 1_555 1_555
C23 C22 1_555 1_555
H10 C23 1_555 1_555
H11 C23 1_555 1_555
H12 C23 1_555 1_555
C24 C22 1_555 1_555
H13 C24 1_555 1_555
H14 C24 1_555 1_555
H15 C24 1_555 1_555
C25 Si1 1_555 1_555
H16 C25 1_555 1_555
H17 C25 1_555 1_555
C26 C25 1_555 1_555
H18 C26 1_555 1_555
C27 C26 1_555 1_555
H19 C27 1_555 1_555
H20 C27 1_555 1_555
H21 C27 1_555 1_555
C28 C26 1_555 1_555
H22 C28 1_555 1_555
H23 C28 1_555 1_555
H24 C28 1_555 1_555
C29 Si1 1_555 1_555
H25 C29 1_555 1_555
H26 C29 1_555 1_555
C30 C29 1_555 1_555
H27 C30 1_555 1_555
C31 C30 1_555 1_555
H28 C31 1_555 1_555
H29 C31 1_555 1_555
H30 C31 1_555 1_555
C32 C30 1_555 1_555
H31 C32 1_555 1_555
H32 C32 1_555 1_555
H33 C32 1_555 1_555
C33 C10 1_555 1_555
C34 C33 1_555 1_555
C35 Si2 1_555 1_555
H34 C35 1_555 1_555
H35 C35 1_555 1_555
H36 C35 1_555 1_555
C36 Si2 1_555 1_555
H37 C36 1_555 1_555
H38 C36 1_555 1_555
H39 C36 1_555 1_555
C37 Si2 1_555 1_555
H40 C37 1_555 1_555
H41 C37 1_555 1_555
C38 C37 1_555 1_555
H42 C38 1_555 1_555
H43 C38 1_555 1_555
C39 Si3 1_555 1_555
H44 C39 1_555 1_555
H45 C39 1_555 1_555
H46 C39 1_555 1_555
C40 Si3 1_555 1_555
H47 C40 1_555 1_555
H48 C40 1_555 1_555
H49 C40 1_555 1_555
C41 Si3 1_555 1_555
C42 C41 1_555 1_555
C43 C42 1_555 1_555
C44 C43 1_555 1_555
C45 C44 1_555 1_555
H50 C45 1_555 1_555
C46 C45 1_555 1_555
C47 C46 1_555 1_555
H51 C47 1_555 1_555
C48 C47 1_555 1_555
F3 C48 1_555 1_555
S3 C48 1_555 1_555
C49 C46 1_555 1_555
C50 C49 1_555 1_555
H52 C50 1_555 1_555
C51 C44 1_555 1_555
C52 C51 1_555 1_555
C53 C52 1_555 1_555
C54 C53 1_555 1_555
H53 C54 1_555 1_555
C55 C54 1_555 1_555
S4 C55 1_555 1_555
C56 S4 1_555 1_555
F4 C56 1_555 1_555
C57 C56 1_555 1_555
H54 C57 1_555 1_555
C58 C55 1_555 1_555
C59 C58 1_555 1_555
H55 C59 1_555 1_555
C60 C43 1_555 1_555
C61 C52 1_555 1_555
C62 C61 1_555 1_555
C63 Si4 1_555 1_555
H56 C63 1_555 1_555
H57 C63 1_555 1_555
C64 C63 1_555 1_555
H58 C64 1_555 1_555
C65 C64 1_555 1_555
H59 C65 1_555 1_555
H60 C65 1_555 1_555
H61 C65 1_555 1_555
C66 C64 1_555 1_555
H62 C66 1_555 1_555
H63 C66 1_555 1_555
H64 C66 1_555 1_555
C67 Si4 1_555 1_555
H65 C67 1_555 1_555
H66 C67 1_555 1_555
C68 C67 1_555 1_555
H67 C68 1_555 1_555
C69 C68 1_555 1_555
H68 C69 1_555 1_555
H69 C69 1_555 1_555
H70 C69 1_555 1_555
C70 C68 1_555 1_555
H71 C70 1_555 1_555
H72 C70 1_555 1_555
H73 C70 1_555 1_555
C71 Si4 1_555 1_555
H74 C71 1_555 1_555
H75 C71 1_555 1_555
C72 C71 1_555 1_555
H76 C72 1_555 1_555
C73 C72 1_555 1_555
H77 C73 1_555 1_555
H78 C73 1_555 1_555
H79 C73 1_555 1_555
C74 C72 1_555 1_555
H80 C74 1_555 1_555
H81 C74 1_555 1_555
H82 C74 1_555 1_555
C6 C7 1_555 1_555
C8 C9 1_555 1_555
C11 C18 1_555 1_555
S2 C16 1_555 1_555
C17 C18 1_555 1_555
S3 C49 1_555 1_555
C50 C51 1_555 1_555
C53 C60 1_555 1_555
C57 C58 1_555 1_555
C59 C60 1_555 1_555

#END
