
#######################################################################
#
#                 Cambridge Crystallographic Data Centre
#                                CCDC 
#
#######################################################################
#
# If this CIF has been generated from an entry in the Cambridge 
# Structural Database, then it will include bibliographic, chemical, 
# crystal, experimental, refinement or atomic coordinate data resulting 
# from the CCDC's data processing and validation procedures.
#
#######################################################################

data_LECDIJ
_chemical_formula_moiety         'C46 H60 F2 S2 Si2'
_chemical_name_systematic        
"[(2,8-difluoroanthra[2,3-b:6,7-b']bisthiene-5,11-diyl)bis(ethyne-2,1-diyl)]bis[tris(2-methylpropyl)silane]"
_symmetry_cell_setting           triclinic
_symmetry_space_group_name_H-M   'P -1'
_symmetry_Int_Tables_number      2
_space_group_name_Hall           '-P 1'
loop_
_symmetry_equiv_pos_site_id
_symmetry_equiv_pos_as_xyz
1 x,y,z
2 -x,-y,-z
_cell_length_a                   15.8557(4)
_cell_length_b                   17.5077(6)
_cell_length_c                   17.5421(6)
_cell_angle_alpha                84.941(2)
_cell_angle_beta                 72.851(2)
_cell_angle_gamma                71.326(2)
_cell_volume                     4408.07
_exptl_crystal_colour            orange
_exptl_crystal_description       needle
_cell_formula_units_Z            4
loop_
_atom_site_label
_atom_site_type_symbol
_atom_site_fract_x
_atom_site_fract_y
_atom_site_fract_z
Si1 Si 0.14558(15) 0.29716(15) -0.19417(13)
Si2 Si 0.29236(15) -0.19803(14) 0.28976(13)
C1 C 0.1915(5) 0.1214(4) 0.0032(4)
C2 C 0.2757(5) 0.1052(4) 0.0233(4)
C3 C 0.3431(5) 0.1431(5) -0.0145(5)
H1 H 0.3325 0.1809 -0.0557
C4 C 0.4231(5) 0.1270(5) 0.0064(5)
S1 S 0.5102(3) 0.1689(3) -0.0376(3)
C5 C 0.5676(13) 0.1144(18) 0.0309(16)
F1 F 0.6501(10) 0.1238(13) 0.0269(12)
C6 C 0.5285(16) 0.0677(16) 0.0801(14)
H2 H 0.5555 0.0345 0.1179
C7 C 0.4386(5) 0.0716(5) 0.0711(4)
C8 C 0.3757(5) 0.0328(5) 0.1075(4)
H3 H 0.3871 -0.0044 0.1489
C9 C 0.2926(5) 0.0470(4) 0.0845(4)
C10 C 0.2284(5) 0.0051(5) 0.1210(4)
C11 C 0.1422(5) 0.0257(4) 0.1031(4)
C12 C 0.0750(5) -0.0129(5) 0.1406(4)
H4 H 0.0886 -0.0554 0.1770
C13 C -0.0094(5) 0.0101(5) 0.1254(4)
S2 S -0.0968(4) -0.0332(3) 0.1707(3)
C14 C -0.1641(13) 0.036(2) 0.1160(18)
F2 F -0.2500(9) 0.0321(13) 0.1246(9)
C15 C -0.1249(16) 0.0846(17) 0.0691(18)
H5 H -0.1557 0.1247 0.0378
C16 C -0.0304(5) 0.0717(5) 0.0690(4)
C17 C 0.0350(5) 0.1088(5) 0.0285(5)
H6 H 0.0212 0.1499 -0.0091
C18 C 0.1238(5) 0.0848(4) 0.0440(4)
C19 C 0.1756(5) 0.1766(5) -0.0607(4)
C20 C 0.1631(5) 0.2230(5) -0.1153(5)
C21 C 0.0240(7) 0.3694(6) -0.1600(6)
H7 H 0.0097 0.3786 -0.1020
H8 H 0.0244 0.4215 -0.1867
C22 C -0.0548(6) 0.3470(6) -0.1734(7)
H9 H -0.0396 0.3362 -0.2318
C23 C -0.1453(6) 0.4137(7) -0.1501(7)
H10 H -0.1949 0.3955 -0.1571
H11 H -0.1406 0.4607 -0.1839
H12 H -0.1594 0.4286 -0.0942
C24 C -0.0647(7) 0.2688(7) -0.1284(8)
H13 H -0.0785 0.2773 -0.0710
H14 H -0.0065 0.2248 -0.1467
H15 H -0.1152 0.2547 -0.1390
C25 C 0.1578(7) 0.2466(7) -0.2875(6)
H16 H 0.1162 0.2127 -0.2735
H17 H 0.1336 0.2893 -0.3235
C26 C 0.2533(7) 0.1938(7) -0.3359(6)
H18 H 0.2979 0.2249 -0.3421
C27 C 0.2555(9) 0.1742(9) -0.4178(6)
H19 H 0.2235 0.1339 -0.4144
H20 H 0.3201 0.1526 -0.4501
H21 H 0.2243 0.2231 -0.4427
C28 C 0.2883(8) 0.1158(7) -0.2931(7)
H22 H 0.2888 0.1284 -0.2399
H23 H 0.3514 0.0860 -0.3238
H24 H 0.2474 0.0828 -0.2880
C29 C 0.2358(8) 0.3493(7) -0.2108(7)
H25 H 0.2936 0.3145 -0.2468
H26 H 0.2155 0.3995 -0.2403
C30 C 0.2611(8) 0.3721(7) -0.1406(7)
H27 H 0.2871 0.3212 -0.1133
C31 C 0.3374(12) 0.4128(13) -0.1714(9)
H28 H 0.3307 0.4417 -0.2209
H29 H 0.3984 0.3717 -0.1819
H30 H 0.3316 0.4511 -0.1312
C32 C 0.1796(10) 0.4235(10) -0.0814(8)
H31 H 0.1774 0.4801 -0.0902
H32 H 0.1845 0.4078 -0.0275
H33 H 0.1228 0.4168 -0.0874
C33 C 0.2499(5) -0.0579(5) 0.1753(4)
C34 C 0.2704(5) -0.1145(5) 0.2196(5)
C35 C 0.1775(6) -0.2176(5) 0.3329(5)
H34 H 0.1680 -0.2471 0.2921
H35 H 0.1827 -0.2544 0.3787
C36 C 0.0902(6) -0.1464(6) 0.3613(5)
H36 H 0.0872 -0.1067 0.3167
C37 C 0.0059(8) -0.1756(8) 0.3794(9)
H37 H -0.0017 -0.2028 0.4311
H38 H 0.0146 -0.2133 0.3376
H39 H -0.0495 -0.1294 0.3812
C38 C 0.0878(8) -0.1040(8) 0.4328(7)
H40 H 0.1112 -0.1439 0.4704
H41 H 0.0238 -0.0718 0.4586
H42 H 0.1267 -0.0685 0.4160
C39 C 0.3363(6) -0.1658(6) 0.3665(5)
H43 H 0.2987 -0.1094 0.3819
H44 H 0.3237 -0.1992 0.4146
C40 C 0.4381(7) -0.1702(7) 0.3451(6)
H45 H 0.4748 -0.2286 0.3368
C41 C 0.4705(8) -0.1290(8) 0.2700(6)
H46 H 0.4386 -0.0709 0.2762
H47 H 0.4568 -0.1498 0.2265
H48 H 0.5376 -0.1391 0.2576
C42 C 0.4592(7) -0.1418(8) 0.4140(6)
H49 H 0.5265 -0.1539 0.4028
H50 H 0.4357 -0.1696 0.4627
H51 H 0.4292 -0.0836 0.4213
C43 C 0.3804(6) -0.2916(5) 0.2381(5)
H52 H 0.4335 -0.2760 0.2026
H53 H 0.4036 -0.3275 0.2793
C44 C 0.3527(6) -0.3409(5) 0.1890(6)
H54 H 0.2967 -0.3543 0.2234
C45 C 0.3288(7) -0.2962(6) 0.1157(6)
H55 H 0.2748 -0.2482 0.1327
H56 H 0.3144 -0.3318 0.0846
H57 H 0.3818 -0.2799 0.0827
C46 C 0.4295(7) -0.4199(6) 0.1594(7)
H58 H 0.4866 -0.4082 0.1291
H59 H 0.4104 -0.4484 0.1250
H60 H 0.4407 -0.4538 0.2052
Si3 Si 0.52769(14) 0.69785(13) 0.79512(12)
Si4 Si 0.97004(16) 0.19475(17) 0.30825(15)
C51 C 0.6929(5) 0.4939(4) 0.6227(4)
C52 C 0.7907(5) 0.4726(4) 0.6046(4)
C53 C 0.8341(5) 0.5110(5) 0.6430(4)
H63 H 0.7965 0.5523 0.6813
C54 C 0.9275(5) 0.4902(5) 0.6266(4)
S5 S 0.9877(3) 0.5337(3) 0.6694(3)
C55 C 1.0901(10) 0.4650(16) 0.6116(15)
F5 F 1.1700(7) 0.4720(13) 0.6192(12)
C56 C 1.0818(14) 0.4172(19) 0.5639(17)
H64 H 1.1333 0.3795 0.5294
C57 C 0.9856(5) 0.4269(5) 0.5686(4)
C58 C 0.9470(5) 0.3903(4) 0.5292(4)
H65 H 0.9858 0.3501 0.4902
C59 C 0.8486(5) 0.4118(4) 0.5458(4)
C60 C 0.8063(5) 0.3750(4) 0.5054(4)
C61 C 0.7097(5) 0.3929(4) 0.5263(4)
C62 C 0.6667(6) 0.3542(4) 0.4874(4)
H66 H 0.7043 0.3154 0.4467
C63 C 0.5792(17) 0.371(3) 0.506(2)
S6 S 0.5137(4) 0.3297(4) 0.4651(3)
C64 C 0.4122(12) 0.3871(16) 0.530(2)
F6 F 0.3322(9) 0.3758(14) 0.5289(12)
C65 C 0.4220(14) 0.4311(18) 0.5834(16)
H67 H 0.3718 0.4642 0.6230
C66 C 0.516(2) 0.423(2) 0.573(3)
C67 C 0.5541(5) 0.4684(5) 0.6086(4)
H68 H 0.5149 0.5093 0.6469
C68 C 0.6515(5) 0.4524(4) 0.5858(4)
C69 C 0.6359(5) 0.5578(5) 0.6770(4)
C70 C 0.5900(5) 0.6137(5) 0.7225(5)
C71 C 0.4306(6) 0.6707(5) 0.8715(5)
H69 H 0.4544 0.6135 0.8860
H70 H 0.4138 0.7035 0.9200
C72 C 0.3425(6) 0.6818(6) 0.8479(5)
H71 H 0.3188 0.7397 0.8335
C73 C 0.2684(7) 0.6644(9) 0.9181(6)
H72 H 0.2111 0.6745 0.9029
H73 H 0.2566 0.6996 0.9631
H74 H 0.2896 0.6079 0.9337
C74 C 0.3590(6) 0.6319(7) 0.7766(5)
H75 H 0.3974 0.6515 0.7294
H76 H 0.2993 0.6362 0.7678
H77 H 0.3909 0.5754 0.7859
C75 C 0.4747(6) 0.7933(5) 0.7465(5)
H78 H 0.4412 0.7800 0.7126
H79 H 0.4275 0.8300 0.7892
C76 C 0.5373(6) 0.8409(6) 0.6950(5)
H80 H 0.5752 0.8500 0.7278
C77 C 0.4804(10) 0.9208(7) 0.6754(9)
H81 H 0.5196 0.9559 0.6563
H82 H 0.4307 0.9448 0.7232
H83 H 0.4532 0.9148 0.6338
C78 C 0.6033(7) 0.7934(7) 0.6225(6)
H84 H 0.5683 0.7783 0.5919
H85 H 0.6452 0.7446 0.6389
H86 H 0.6397 0.8263 0.5891
C79 C 0.6186(6) 0.7110(5) 0.8353(5)
H87 H 0.6579 0.7363 0.7931
H88 H 0.5870 0.7500 0.8802
C80 C 0.6833(5) 0.6367(6) 0.8649(5)
H89 H 0.7041 0.5924 0.8249
C81 C 0.7683(7) 0.6540(7) 0.8712(7)
H90 H 0.7498 0.6965 0.9111
H91 H 0.8002 0.6719 0.8193
H92 H 0.8102 0.6050 0.8872
C82 C 0.6336(7) 0.6075(7) 0.9449(6)
H93 H 0.6771 0.5607 0.9624
H94 H 0.5815 0.5923 0.9390
H95 H 0.6103 0.6509 0.9847
C83 C 0.8631(5) 0.3177(5) 0.4436(5)
C84 C 0.9098(6) 0.2691(5) 0.3901(5)
C85 C 0.9150(9) 0.1046(9) 0.3429(8)
H96 H 0.9288 0.0716 0.2951
H97 H 0.9479 0.0700 0.3795
C86 C 0.8119(10) 0.1260(9) 0.3836(10)
H98 H 0.7981 0.1593 0.4318
C87 C 0.7522(11) 0.1760(10) 0.3305(9)
H99 H 0.6863 0.1880 0.3598
H100 H 0.7669 0.2265 0.3159
H101 H 0.7652 0.1452 0.2821
C88 C 0.7829(14) 0.0512(11) 0.4115(11)
H102 H 0.7159 0.0671 0.4375
H103 H 0.7978 0.0164 0.3655
H104 H 0.8162 0.0219 0.4495
C89 C 1.0778(10) 0.1241(10) 0.3306(10)
H105 H 1.0600 0.1087 0.3874
H106 H 1.0968 0.0745 0.2986
C90 C 1.1623(9) 0.1510(9) 0.3168(10)
H107 H 1.1805 0.1662 0.2593
C91 C 1.2445(13) 0.0860(14) 0.332(2)
H108 H 1.2970 0.1072 0.3220
H109 H 1.2284 0.0685 0.3876
H110 H 1.2616 0.0401 0.2963
C92 C 1.137(3) 0.2289(15) 0.368(3)
H111 H 1.0837 0.2701 0.3567
H112 H 1.1222 0.2155 0.4246
H113 H 1.1904 0.2497 0.3539
C93 C 0.9535(11) 0.2341(10) 0.2146(9)
H114 H 0.9914 0.1929 0.1726
H115 H 0.8875 0.2453 0.2169
C94 C 0.9806(12) 0.3132(10) 0.1914(11)
H116 H 1.0310 0.3115 0.2155
C95 C 0.898(2) 0.3845(15) 0.2256(19)
H117 H 0.8755 0.3778 0.2833
H118 H 0.9168 0.4337 0.2151
H119 H 0.8493 0.3888 0.2008
C96 C 1.015(2) 0.3250(19) 0.1030(12)
H120 H 1.0683 0.2788 0.0797
H121 H 0.9649 0.3294 0.0786
H122 H 1.0324 0.3744 0.0930
C47? C 0.505(2) 0.156(2) -0.019(2)
H61? H 0.5117 0.1942 -0.0605
F3? F 0.6463(17) 0.142(2) 0.008(2)
C48? C 0.566(2) 0.125(3) 0.019(2)
S3? S 0.5422(6) 0.0578(6) 0.0970(4)
C49? C -0.0925(19) -0.0136(18) 0.1579(18)
H62? H -0.0967 -0.0544 0.1970
F4? F -0.2472(11) 0.0174(16) 0.1511(11)
C50? C -0.1613(15) 0.026(2) 0.129(2)
S4? S -0.1430(4) 0.1009(4) 0.0589(4)
C97? C 0.991(2) 0.514(2) 0.659(2)
H123? H 0.9703 0.5516 0.7014
F7? F 1.1518(12) 0.490(2) 0.6385(18)
C98? C 1.0780(13) 0.477(2) 0.624(2)
S7? S 1.1047(5) 0.4042(6) 0.5510(6)
C99? C 0.565(2) 0.373(4) 0.510(3)
C100? C 0.508(2) 0.342(2) 0.4836(19)
H124? H 0.5302 0.3044 0.4407
F8? F 0.3478(12) 0.3555(19) 0.5090(17)
C101? C 0.4202(14) 0.370(2) 0.525(3)
S8? S 0.3933(4) 0.4419(5) 0.5971(4)
C102? C 0.512(2) 0.437(3) 0.570(5)
C103? C 0.8800(13) 0.1642(11) 0.2890(11)
H125? H 0.8389 0.2111 0.2680
H126? H 0.9090 0.1220 0.2470
C104? C 0.8214(13) 0.1321(13) 0.3611(14)
H127? H 0.8045 0.1694 0.4070
C105? C 0.7307(15) 0.128(2) 0.3484(16)
H128? H 0.6954 0.1073 0.3966
H129? H 0.6936 0.1826 0.3376
H130? H 0.7454 0.0928 0.3031
C106? C 0.875(2) 0.0490(15) 0.3838(19)
H131? H 0.8350 0.0299 0.4304
H132? H 0.8936 0.0116 0.3390
H133? H 0.9299 0.0516 0.3964
C107? C 1.0960(16) 0.1536(16) 0.2948(14)
H134? H 1.1168 0.0987 0.2721
H135? H 1.1260 0.1867 0.2538
C108? C 1.1342(15) 0.1479(14) 0.3649(14)
H136? H 1.0871 0.1399 0.4146
C109? C 1.223(2) 0.079(2) 0.356(4)
H137? H 1.2457 0.0778 0.4027
H138? H 1.2120 0.0283 0.3515
H139? H 1.2702 0.0873 0.3078
C110? C 1.154(4) 0.229(2) 0.373(5)
H140? H 1.1794 0.2261 0.4181
H141? H 1.1998 0.2381 0.3236
H142? H 1.0967 0.2744 0.3808
C111? C 1.0191(16) 0.2570(15) 0.2085(13)
H143? H 1.0489 0.2924 0.2243
H144? H 1.0682 0.2173 0.1694
C112? C 0.9480(17) 0.3095(15) 0.1654(15)
H145? H 0.9101 0.2765 0.1575
C113? C 0.885(4) 0.380(2) 0.218(3)
H146? H 0.8553 0.3610 0.2697
H147? H 0.9204 0.4142 0.2246
H148? H 0.8365 0.4117 0.1927
C114? C 0.993(3) 0.338(3) 0.0857(19)
H149? H 1.0343 0.2918 0.0518
H150? H 0.9450 0.3698 0.0606
H151? H 1.0288 0.3722 0.0925
loop_
_geom_bond_atom_site_label_1
_geom_bond_atom_site_label_2
_geom_bond_site_symmetry_1
_geom_bond_site_symmetry_2
Si1 C20 1_555 1_555
Si2 C34 1_555 1_555
C1 C2 1_555 1_555
C2 C3 1_555 1_555
C3 H1 1_555 1_555
C4 C3 1_555 1_555
S1 C4 1_555 1_555
C5 S1 1_555 1_555
F1 C5 1_555 1_555
C6 C5 1_555 1_555
H2 C6 1_555 1_555
C7 C4 1_555 1_555
C8 C7 1_555 1_555
H3 C8 1_555 1_555
C9 C2 1_555 1_555
C10 C9 1_555 1_555
C11 C10 1_555 1_555
C12 C11 1_555 1_555
H4 C12 1_555 1_555
C13 C12 1_555 1_555
S2 C13 1_555 1_555
C14 S2 1_555 1_555
F2 C14 1_555 1_555
C15 C14 1_555 1_555
H5 C15 1_555 1_555
C16 C13 1_555 1_555
C17 C16 1_555 1_555
H6 C17 1_555 1_555
C18 C1 1_555 1_555
C19 C1 1_555 1_555
C20 C19 1_555 1_555
C21 Si1 1_555 1_555
H7 C21 1_555 1_555
H8 C21 1_555 1_555
C22 C21 1_555 1_555
H9 C22 1_555 1_555
C23 C22 1_555 1_555
H10 C23 1_555 1_555
H11 C23 1_555 1_555
H12 C23 1_555 1_555
C24 C22 1_555 1_555
H13 C24 1_555 1_555
H14 C24 1_555 1_555
H15 C24 1_555 1_555
C25 Si1 1_555 1_555
H16 C25 1_555 1_555
H17 C25 1_555 1_555
C26 C25 1_555 1_555
H18 C26 1_555 1_555
C27 C26 1_555 1_555
H19 C27 1_555 1_555
H20 C27 1_555 1_555
H21 C27 1_555 1_555
C28 C26 1_555 1_555
H22 C28 1_555 1_555
H23 C28 1_555 1_555
H24 C28 1_555 1_555
C29 Si1 1_555 1_555
H25 C29 1_555 1_555
H26 C29 1_555 1_555
C30 C29 1_555 1_555
H27 C30 1_555 1_555
C31 C30 1_555 1_555
H28 C31 1_555 1_555
H29 C31 1_555 1_555
H30 C31 1_555 1_555
C32 C30 1_555 1_555
H31 C32 1_555 1_555
H32 C32 1_555 1_555
H33 C32 1_555 1_555
C33 C10 1_555 1_555
C34 C33 1_555 1_555
C35 Si2 1_555 1_555
H34 C35 1_555 1_555
H35 C35 1_555 1_555
C36 C35 1_555 1_555
H36 C36 1_555 1_555
C37 C36 1_555 1_555
H37 C37 1_555 1_555
H38 C37 1_555 1_555
H39 C37 1_555 1_555
C38 C36 1_555 1_555
H40 C38 1_555 1_555
H41 C38 1_555 1_555
H42 C38 1_555 1_555
C39 Si2 1_555 1_555
H43 C39 1_555 1_555
H44 C39 1_555 1_555
C40 C39 1_555 1_555
H45 C40 1_555 1_555
C41 C40 1_555 1_555
H46 C41 1_555 1_555
H47 C41 1_555 1_555
H48 C41 1_555 1_555
C42 C40 1_555 1_555
H49 C42 1_555 1_555
H50 C42 1_555 1_555
H51 C42 1_555 1_555
C43 Si2 1_555 1_555
H52 C43 1_555 1_555
H53 C43 1_555 1_555
C44 C43 1_555 1_555
H54 C44 1_555 1_555
C45 C44 1_555 1_555
H55 C45 1_555 1_555
H56 C45 1_555 1_555
H57 C45 1_555 1_555
C46 C44 1_555 1_555
H58 C46 1_555 1_555
H59 C46 1_555 1_555
H60 C46 1_555 1_555
Si3 C70 1_555 1_555
Si4 C84 1_555 1_555
C51 C52 1_555 1_555
C52 C53 1_555 1_555
C53 H63 1_555 1_555
C54 C53 1_555 1_555
S5 C54 1_555 1_555
C55 S5 1_555 1_555
F5 C55 1_555 1_555
C56 C55 1_555 1_555
H64 C56 1_555 1_555
C57 C54 1_555 1_555
C58 C57 1_555 1_555
H65 C58 1_555 1_555
C59 C52 1_555 1_555
C60 C59 1_555 1_555
C61 C60 1_555 1_555
C62 C61 1_555 1_555
H66 C62 1_555 1_555
C63 C62 1_555 1_555
S6 C63 1_555 1_555
C64 S6 1_555 1_555
F6 C64 1_555 1_555
C65 C64 1_555 1_555
H67 C65 1_555 1_555
C66 C63 1_555 1_555
C67 C66 1_555 1_555
H68 C67 1_555 1_555
C68 C51 1_555 1_555
C69 C51 1_555 1_555
C70 C69 1_555 1_555
C71 Si3 1_555 1_555
H69 C71 1_555 1_555
H70 C71 1_555 1_555
C72 C71 1_555 1_555
H71 C72 1_555 1_555
C73 C72 1_555 1_555
H72 C73 1_555 1_555
H73 C73 1_555 1_555
H74 C73 1_555 1_555
C74 C72 1_555 1_555
H75 C74 1_555 1_555
H76 C74 1_555 1_555
H77 C74 1_555 1_555
C75 Si3 1_555 1_555
H78 C75 1_555 1_555
H79 C75 1_555 1_555
C76 C75 1_555 1_555
H80 C76 1_555 1_555
C77 C76 1_555 1_555
H81 C77 1_555 1_555
H82 C77 1_555 1_555
H83 C77 1_555 1_555
C78 C76 1_555 1_555
H84 C78 1_555 1_555
H85 C78 1_555 1_555
H86 C78 1_555 1_555
C79 Si3 1_555 1_555
H87 C79 1_555 1_555
H88 C79 1_555 1_555
C80 C79 1_555 1_555
H89 C80 1_555 1_555
C81 C80 1_555 1_555
H90 C81 1_555 1_555
H91 C81 1_555 1_555
H92 C81 1_555 1_555
C82 C80 1_555 1_555
H93 C82 1_555 1_555
H94 C82 1_555 1_555
H95 C82 1_555 1_555
C83 C60 1_555 1_555
C84 C83 1_555 1_555
C85 Si4 1_555 1_555
H96 C85 1_555 1_555
H97 C85 1_555 1_555
C86 C85 1_555 1_555
H98 C86 1_555 1_555
C87 C86 1_555 1_555
H99 C87 1_555 1_555
H100 C87 1_555 1_555
H101 C87 1_555 1_555
C88 C86 1_555 1_555
H102 C88 1_555 1_555
H103 C88 1_555 1_555
H104 C88 1_555 1_555
C89 Si4 1_555 1_555
H105 C89 1_555 1_555
H106 C89 1_555 1_555
C90 C89 1_555 1_555
H107 C90 1_555 1_555
C91 C90 1_555 1_555
H108 C91 1_555 1_555
H109 C91 1_555 1_555
H110 C91 1_555 1_555
C92 C90 1_555 1_555
H111 C92 1_555 1_555
H112 C92 1_555 1_555
H113 C92 1_555 1_555
C93 Si4 1_555 1_555
H114 C93 1_555 1_555
H115 C93 1_555 1_555
C94 C93 1_555 1_555
H116 C94 1_555 1_555
C95 C94 1_555 1_555
H117 C95 1_555 1_555
H118 C95 1_555 1_555
H119 C95 1_555 1_555
C96 C94 1_555 1_555
H120 C96 1_555 1_555
H121 C96 1_555 1_555
H122 C96 1_555 1_555
C6 C7 1_555 1_555
C8 C9 1_555 1_555
C11 C18 1_555 1_555
C15 C16 1_555 1_555
C17 C18 1_555 1_555
C56 C57 1_555 1_555
C58 C59 1_555 1_555
C61 C68 1_555 1_555
C65 C66 1_555 1_555
C67 C68 1_555 1_555

#END
