
#######################################################################
#
#                 Cambridge Crystallographic Data Centre
#                                CCDC 
#
#######################################################################
#
# If this CIF has been generated from an entry in the Cambridge 
# Structural Database, then it will include bibliographic, chemical, 
# crystal, experimental, refinement or atomic coordinate data resulting 
# from the CCDC's data processing and validation procedures.
#
#######################################################################

data_LECDOP
_chemical_formula_moiety         '2(C8 H6 O5),C5 H6 N2'
_chemical_name_systematic        
'bis(4-hydroxybenzene-1,3-dicarboxylic acid) 2-methylpyrazine'
_symmetry_cell_setting           triclinic
_symmetry_space_group_name_H-M   'P -1'
_symmetry_Int_Tables_number      2
_space_group_name_Hall           '-P 1'
loop_
_symmetry_equiv_pos_site_id
_symmetry_equiv_pos_as_xyz
1 x,y,z
2 -x,-y,-z
_cell_length_a                   9.4322(4)
_cell_length_b                   9.4527(3)
_cell_length_c                   12.5049(5)
_cell_angle_alpha                85.826(3)
_cell_angle_beta                 77.098(4)
_cell_angle_gamma                64.640(4)
_cell_volume                     981.727
_exptl_crystal_colour            colorless
_exptl_crystal_description       BLOCK
_cell_formula_units_Z            2
loop_
_atom_site_label
_atom_site_type_symbol
_atom_site_fract_x
_atom_site_fract_y
_atom_site_fract_z
O1 O 0.44301(13) 0.39494(11) 0.31296(8)
O2 O 0.14274(13) 0.74704(11) 0.77735(8)
O3 O 0.51447(14) 0.14434(11) 0.36020(9)
H1 H 0.5437 0.1302 0.2935
O4 O 0.17759(14) 0.80347(11) 0.59886(8)
H2 H 0.1395 0.8931 0.6239
O5 O 0.21428(14) 0.45826(12) 0.83160(8)
H3 H 0.1783 0.5532 0.8414
C1 C 0.25620(17) 0.53896(16) 0.64400(12)
C2 C 0.31531(17) 0.49471(16) 0.53403(12)
H4 H 0.3100 0.5708 0.4816
C3 C 0.44835(18) 0.29574(16) 0.38384(12)
C4 C 0.18677(18) 0.70558(16) 0.67970(12)
C5 C 0.38253(17) 0.33789(16) 0.50104(12)
C6 C 0.26615(18) 0.42336(16) 0.72372(12)
C7 C 0.33256(18) 0.26586(16) 0.69035(12)
H5 H 0.3383 0.1892 0.7424
C8 C 0.38919(18) 0.22424(16) 0.58106(12)
H6 H 0.4326 0.1193 0.5596
O6 O 0.53957(14) 0.33404(11) 1.10165(9)
H7 H 0.5136 0.3480 1.1685
O7 O 0.61019(13) 0.08362(11) 1.14837(8)
O8 O 0.80898(14) -0.31602(11) 0.85391(8)
H8 H 0.8418 -0.4038 0.8269
O9 O 0.74822(14) 0.03901(12) 0.62792(8)
H9 H 0.7846 -0.0557 0.6168
O10 O 0.83915(13) -0.25201(12) 0.67723(9)
C9 C 0.69465(17) -0.00964(16) 0.92510(12)
H10 H 0.7089 -0.0877 0.9768
C10 C 0.79953(18) -0.21458(16) 0.77557(12)
C11 C 0.63356(18) 0.14605(16) 0.95965(12)
C12 C 0.60926(18) 0.26333(16) 0.88118(12)
H11 H 0.5665 0.3676 0.9040
C13 C 0.64774(18) 0.22617(17) 0.77121(12)
H12 H 0.6313 0.3051 0.7201
C14 C 0.59335(18) 0.18409(16) 1.07794(12)
C15 C 0.71180(18) 0.06938(17) 0.73571(12)
C16 C 0.73447(17) -0.04936(16) 0.81403(12)
N1 N 0.92516(15) 0.39556(14) 0.76851(10)
N2 N 1.05500(15) 0.09825(14) 0.67494(11)
C17 C 0.94339(18) 0.37429(17) 0.66107(12)
H13 H 0.9131 0.4611 0.6168
C18 C 1.00663(19) 0.22539(17) 0.61402(13)
H14 H 1.0154 0.2140 0.5393
C19 C 0.97171(18) 0.26936(16) 0.83088(12)
C20 C 1.03798(19) 0.11958(17) 0.78178(13)
H15 H 1.0711 0.0324 0.8254
C21 C 0.9503(2) 0.29370(18) 0.95082(12)
H16 H 1.0205 0.3376 0.9627
H17 H 0.9756 0.1951 0.9865
H18 H 0.8409 0.3641 0.9805
loop_
_geom_bond_atom_site_label_1
_geom_bond_atom_site_label_2
_geom_bond_site_symmetry_1
_geom_bond_site_symmetry_2
O1 C3 1_555 1_555
O2 C4 1_555 1_555
O3 H1 1_555 1_555
O4 H2 1_555 1_555
O5 H3 1_555 1_555
C1 C2 1_555 1_555
C2 H4 1_555 1_555
C3 O3 1_555 1_555
C4 O4 1_555 1_555
C5 C2 1_555 1_555
C6 O5 1_555 1_555
C7 C6 1_555 1_555
H5 C7 1_555 1_555
C8 C5 1_555 1_555
H6 C8 1_555 1_555
O6 H7 1_555 1_555
O7 C14 1_555 1_555
O8 H8 1_555 1_555
O9 H9 1_555 1_555
O10 C10 1_555 1_555
C9 H10 1_555 1_555
C10 O8 1_555 1_555
C11 C9 1_555 1_555
C12 C11 1_555 1_555
H11 C12 1_555 1_555
C13 C12 1_555 1_555
H12 C13 1_555 1_555
C14 O6 1_555 1_555
C15 O9 1_555 1_555
C16 C9 1_555 1_555
N1 C17 1_555 1_555
N2 C18 1_555 1_555
C17 H13 1_555 1_555
C18 C17 1_555 1_555
H14 C18 1_555 1_555
C19 N1 1_555 1_555
C20 N2 1_555 1_555
H15 C20 1_555 1_555
C21 C19 1_555 1_555
H16 C21 1_555 1_555
H17 C21 1_555 1_555
H18 C21 1_555 1_555
C1 C4 1_555 1_555
C1 C6 1_555 1_555
C3 C5 1_555 1_555
C7 C8 1_555 1_555
C10 C16 1_555 1_555
C11 C14 1_555 1_555
C13 C15 1_555 1_555
C15 C16 1_555 1_555
C19 C20 1_555 1_555

#END
