
#######################################################################
#
#                 Cambridge Crystallographic Data Centre
#                                CCDC 
#
#######################################################################
#
# If this CIF has been generated from an entry in the Cambridge 
# Structural Database, then it will include bibliographic, chemical, 
# crystal, experimental, refinement or atomic coordinate data resulting 
# from the CCDC's data processing and validation procedures.
#
#######################################################################

data_LECFIJ
_chemical_formula_moiety         'C10 H10 N2 2+,C10 H4 O8 2-,1.8(H2 O1)'
_chemical_name_systematic        
"4,4'-Bipyridinium 2,5-dicarboxybenzene-1,4-dicarboxylate hydrate"
_symmetry_cell_setting           triclinic
_symmetry_space_group_name_H-M   'P -1'
_symmetry_Int_Tables_number      2
_space_group_name_Hall           '-P 1'
loop_
_symmetry_equiv_pos_site_id
_symmetry_equiv_pos_as_xyz
1 x,y,z
2 -x,-y,-z
_cell_length_a                   3.7747(2)
_cell_length_b                   10.8587(5)
_cell_length_c                   11.9519(6)
_cell_angle_alpha                99.626(3)
_cell_angle_beta                 97.726(3)
_cell_angle_gamma                95.515(3)
_cell_volume                     475.068
_exptl_crystal_colour            brown
_exptl_crystal_description       needle
_cell_formula_units_Z            1
loop_
_atom_site_label
_atom_site_type_symbol
_atom_site_fract_x
_atom_site_fract_y
_atom_site_fract_z
C1 C 0.6150(4) 0.56456(12) 0.11500(10)
C2 C 0.4123(4) 0.44446(12) 0.09413(10)
C3 C 0.6949(4) 0.61527(12) 0.02023(11)
H1 H 0.8515(9) 0.7068(3) 0.0368(3)
C9 C 0.7726(4) 0.65000(13) 0.22911(11)
O1 O 0.6906(6) 0.62246(19) 0.32496(14)
C10 C 0.2856(4) 0.37137(13) 0.18184(11)
H7 H 0.5257(12) 0.5354(4) 0.3114(3)
O2 O 0.9730(6) 0.74461(18) 0.22906(15)
O3 O 0.3310(8) 0.4185(2) 0.28615(15)
O4 O 0.1278(6) 0.26288(17) 0.14552(15)
C1A C 0.3850(4) 0.43544(12) -0.11500(10)
C2A C 0.5877(4) 0.55554(12) -0.09413(10)
C3A C 0.3051(4) 0.38473(12) -0.02023(11)
H1A H 0.1485(9) 0.2932(3) -0.0368(3)
C9A C 0.2274(4) 0.35000(13) -0.22911(11)
O1A O 0.3094(6) 0.37754(19) -0.32496(14)
C10A C 0.7144(4) 0.62863(13) -0.18184(11)
H7A H 0.4743(12) 0.4646(4) -0.3114(3)
O2A O 0.0270(6) 0.25539(18) -0.22906(15)
O3A O 0.6690(8) 0.5815(2) -0.28615(15)
O4A O 0.8722(6) 0.73712(17) -0.14552(15)
N1 N -0.1426(3) 0.15994(10) 0.30205(8)
H2 H -0.0268(9) 0.2080(3) 0.2387(3)
C4 C -0.2754(5) 0.03881(14) 0.26964(12)
H3 H -0.2596(14) -0.0042(4) 0.1823(3)
C5 C -0.4220(4) -0.02656(13) 0.34601(11)
H4 H -0.5322(13) -0.1237(3) 0.3151(3)
C6 C -0.4253(3) 0.03444(12) 0.45802(10)
C7 C -0.2813(4) 0.16114(13) 0.48921(12)
H5 H -0.2679(13) 0.2139(3) 0.5753(3)
C8 C -0.1410(4) 0.22175(14) 0.40874(13)
H6 H -0.0234(13) 0.3190(3) 0.4269(3)
N1A N -0.8574(3) -0.15994(10) 0.69795(8)
H2A H -0.9732(9) -0.2080(3) 0.7613(3)
C4A C -0.7246(5) -0.03881(14) 0.73036(12)
H3A H -0.7404(14) 0.0042(4) 0.8177(3)
C5A C -0.5780(4) 0.02656(13) 0.65399(11)
H4A H -0.4678(13) 0.1237(3) 0.6849(3)
C6A C -0.5747(3) -0.03444(12) 0.54198(10)
C7A C -0.7187(4) -0.16114(13) 0.51079(12)
H5A H -0.7321(13) -0.2139(3) 0.4247(3)
C8A C -0.8590(4) -0.22175(14) 0.59126(13)
H6A H -0.9766(13) -0.3190(3) 0.5731(3)
O5 O -0.362(6) 0.0709(18) -0.0183(17)
H8 H -0.291(8) 0.1570(19) 0.023(2)
H9 H -0.625(8) 0.054(4) -0.024(4)
O6? O -0.134(7) 0.0404(14) -0.0196(15)
H10? H -0.077(7) 0.1259(14) 0.0232(15)
H11? H 0.067(11) -0.008(3) -0.008(3)
O7? O 0.102(7) 0.0326(12) -0.0046(16)
H12? H 0.128(6) 0.1195(11) 0.0375(13)
H13? H -0.150(8) -0.002(3) -0.011(3)
O8? O -0.538(9) 0.0807(18) -0.0133(18)
H14? H -0.629(7) 0.1429(19) 0.040(2)
H15? H -0.598(8) -0.0024(18) 0.007(3)
O9? O -0.674(11) 0.057(3) -0.008(3)
H16? H -0.437(13) 0.062(5) -0.033(4)
H17? H -0.713(15) -0.027(4) 0.013(4)
loop_
_geom_bond_atom_site_label_1
_geom_bond_atom_site_label_2
_geom_bond_site_symmetry_1
_geom_bond_site_symmetry_2
C1 C2 1_555 1_555
C2 C10 1_555 1_555
C3 C1 1_555 1_555
H1 C3 1_555 1_555
N1 H2 1_555 1_555
C4 N1 1_555 1_555
H3 C4 1_555 1_555
C5 C4 1_555 1_555
H4 C5 1_555 1_555
C6 C5 1_555 1_555
C7 C6 1_555 1_555
H5 C7 1_555 1_555
C8 N1 1_555 1_555
H6 C8 1_555 1_555
C9 C1 1_555 1_555
O1 C9 1_555 1_555
C10 O3 1_555 1_555
H7 O1 1_555 1_555
O2 C9 1_555 1_555
O4 C10 1_555 1_555
O5 H8 1_555 1_555
H9 O5 1_555 1_555
C1A C2A 1_555 1_555
C2A C3 1_555 1_555
C3A C2 1_555 1_555
H1A C3A 1_555 1_555
N1A H2A 1_555 1_555
C4A N1A 1_555 1_555
H3A C4A 1_555 1_555
C5A C4A 1_555 1_555
H4A C5A 1_555 1_555
C6A C6 1_555 1_555
C7A C6A 1_555 1_555
H5A C7A 1_555 1_555
C8A N1A 1_555 1_555
H6A C8A 1_555 1_555
C9A C1A 1_555 1_555
O1A C9A 1_555 1_555
C10A C2A 1_555 1_555
H7A O1A 1_555 1_555
O2A C9A 1_555 1_555
O3A C10A 1_555 1_555
O4A C10A 1_555 1_555
C7 C8 1_555 1_555
C1A C3A 1_555 1_555
C5A C6A 1_555 1_555
C7A C8A 1_555 1_555

#END
