
#######################################################################
#
#                 Cambridge Crystallographic Data Centre
#                                CCDC 
#
#######################################################################
#
# If this CIF has been generated from an entry in the Cambridge 
# Structural Database, then it will include bibliographic, chemical, 
# crystal, experimental, refinement or atomic coordinate data resulting 
# from the CCDC's data processing and validation procedures.
#
#######################################################################

data_LECFUU
_chemical_formula_moiety         
'C20 H40 I1 Mg1 O5,C18 H41 I3 Mg3 N3 O1 Si1,C7 H8'
_chemical_name_systematic        
'Iodo-pentakis(tetrahydrofuran)-magnesium tris(\m~3~-t-butylimido)-(\m~2~-methylene)-methyl-tris(iodo-magnesium)-silicon toluene solvate'
_symmetry_cell_setting           triclinic
_symmetry_space_group_name_H-M   'P -1'
_symmetry_Int_Tables_number      2
_space_group_name_Hall           '-P 1'
loop_
_symmetry_equiv_pos_site_id
_symmetry_equiv_pos_as_xyz
1 x,y,z
2 -x,-y,-z
_cell_length_a                   12.37(2)
_cell_length_b                   14.64(2)
_cell_length_c                   17.37(3)
_cell_angle_alpha                95.5(1)
_cell_angle_beta                 90.3(1)
_cell_angle_gamma                93.5(1)
_cell_volume                     3125.13
_chemical_melting_point          120deg.C(dec.)
_cell_formula_units_Z            2
loop_
_atom_site_label
_atom_site_type_symbol
_atom_site_fract_x
_atom_site_fract_y
_atom_site_fract_z
I2 I 1.1059(1) 0.0356(1) 0.2269(1)
I3 I 0.5804(1) -0.1668(1) 0.4231(1)
I4 I 0.6473(2) 0.3088(1) 0.1997(2)
Mg2 Mg 0.8884(4) 0.0342(4) 0.2234(3)
Mg3 Mg 0.7059(5) 0.1406(4) 0.2222(4)
Mg4 Mg 0.6800(5) -0.0438(4) 0.3325(4)
Si1 Si 0.6905(4) -0.0410(4) 0.1752(3)
N1 N 0.6109(10) 0.0183(9) 0.2444(7)
N2 N 0.7697(10) 0.0463(10) 0.1384(8)
N3 N 0.7809(10) -0.0825(9) 0.2418(8)
O6 O 0.7495(10) 0.0365(9) 0.4244(7)
C21 C 0.6873(17) 0.0985(17) 0.4748(12)
C22 C 0.7385(22) 0.0992(19) 0.5541(14)
C23 C 0.8537(23) 0.0786(21) 0.5364(16)
C24 C 0.8483(18) 0.0134(18) 0.4642(14)
C25 C 0.6147(17) -0.1302(15) 0.1020(13)
C26 C 0.4885(13) 0.0295(15) 0.2393(13)
C27 C 0.4562(14) 0.0706(15) 0.1641(13)
C28 C 0.4605(15) 0.0961(16) 0.3121(13)
C29 C 0.4257(15) -0.0658(16) 0.2429(15)
C30 C 0.7944(17) 0.0658(18) 0.0559(11)
C31 C 0.8421(22) -0.0190(20) 0.0097(14)
C32 C 0.8790(19) 0.1489(18) 0.0606(13)
C33 C 0.6873(19) 0.0877(21) 0.0161(13)
C34 C 0.8296(17) -0.1742(14) 0.2333(13)
C35 C 0.7411(19) -0.2550(14) 0.2326(16)
C36 C 0.8983(17) -0.1857(14) 0.1579(13)
C37 C 0.9069(17) -0.1760(14) 0.3055(13)
C38 C 0.8598(24) 0.1659(22) 0.2295(18)
I1 I 0.1961(2) 0.6137(1) 0.4497(1)
Mg1 Mg 0.2150(4) 0.4835(4) 0.3166(3)
O1 O 0.2317(9) 0.3881(8) 0.2159(7)
C1 C 0.3380(17) 0.3573(16) 0.1891(12)
C2 C 0.3084(25) 0.2921(20) 0.1185(17)
C3 C 0.1933(23) 0.2760(19) 0.1103(16)
C4 C 0.1422(15) 0.3432(15) 0.1684(12)
O2 O 0.2010(10) 0.3682(9) 0.3838(8)
C5 C 0.1891(24) 0.3703(17) 0.4686(14)
C6 C 0.1707(24) 0.2170(21) 0.4173(19)
C7 C 0.1335(23) 0.2801(21) 0.4810(17)
C8 C 0.2016(26) 0.2727(16) 0.3515(15)
O3 O 0.2278(11) 0.5921(9) 0.2396(8)
C9 C 0.2450(26) 0.5764(18) 0.1583(15)
C10 C 0.2552(23) 0.6778(31) 0.1353(24)
C11 C 0.2154(29) 0.7347(26) 0.1936(24)
C12 C 0.2232(29) 0.6957(20) 0.2625(16)
O4 O 0.0471(9) 0.4721(9) 0.2986(8)
C13 C -0.0288(24) 0.4285(20) 0.3542(17)
C14 C -0.1344(25) 0.4707(21) 0.3413(18)
C15 C -0.1246(31) 0.5221(27) 0.2815(23)
C16 C -0.0174(48) 0.5001(55) 0.2401(44)
O5 O 0.3855(10) 0.4940(10) 0.3284(8)
C17 C 0.4437(23) 0.4410(19) 0.3821(16)
C18 C 0.4523(18) 0.5763(20) 0.3128(19)
C19 C 0.5659(31) 0.5550(25) 0.3351(22)
C20 C 0.5536(17) 0.5006(29) 0.3929(16)
I5? I 0.8677(20) 0.1838(18) 0.3162(15)
C39? C -0.0093(24) 0.5634(40) 0.2758(29)
C40? C 0.9641(36) 0.5766(29) 0.0216(24)
C41? C 1.0271(41) 0.5950(31) -0.0051(27)
C42? C 0.8911(39) 0.4362(35) 0.0435(27)
C43? C 0.9407(36) 0.4916(38) 0.0261(26)
C44? C 0.8786(42) 0.5480(36) 0.0502(29)
C45? C 0.4538(30) 0.5607(26) 0.9675(24)
C46? C 0.5463(36) 0.6039(33) 1.0781(27)
C47? C 0.4914(51) 0.4512(37) 0.9837(38)
C48? C 0.4376(36) 0.4842(34) 0.9299(27)
loop_
_geom_bond_atom_site_label_1
_geom_bond_atom_site_label_2
_geom_bond_site_symmetry_1
_geom_bond_site_symmetry_2
I1 Mg1 1_555 1_555
Mg1 O1 1_555 1_555
O1 C1 1_555 1_555
C1 C2 1_555 1_555
C2 C3 1_555 1_555
C3 C4 1_555 1_555
C4 O1 1_555 1_555
O2 Mg1 1_555 1_555
C5 O2 1_555 1_555
C6 C7 1_555 1_555
C7 C5 1_555 1_555
C8 O2 1_555 1_555
O3 Mg1 1_555 1_555
C9 O3 1_555 1_555
C10 C9 1_555 1_555
C11 C10 1_555 1_555
C12 O3 1_555 1_555
O4 Mg1 1_555 1_555
C13 O4 1_555 1_555
C14 C13 1_555 1_555
C15 C14 1_555 1_555
C16 O4 1_555 1_555
O5 Mg1 1_555 1_555
C17 O5 1_555 1_555
C18 O5 1_555 1_555
C19 C18 1_555 1_555
C20 C17 1_555 1_555
I2 Mg2 1_555 1_555
I3 Mg4 1_555 1_555
I4 Mg3 1_555 1_555
Mg2 N2 1_555 1_555
Mg3 N1 1_555 1_555
Mg4 N1 1_555 1_555
Si1 N1 1_555 1_555
N1 C26 1_555 1_555
N2 Mg3 1_555 1_555
N3 Mg2 1_555 1_555
O6 Mg4 1_555 1_555
C21 O6 1_555 1_555
C22 C21 1_555 1_555
C23 C22 1_555 1_555
C24 O6 1_555 1_555
C25 Si1 1_555 1_555
C26 C27 1_555 1_555
C28 C26 1_555 1_555
C29 C26 1_555 1_555
C30 N2 1_555 1_555
C31 C30 1_555 1_555
C32 C30 1_555 1_555
C33 C30 1_555 1_555
C34 N3 1_555 1_555
C35 C34 1_555 1_555
C36 C34 1_555 1_555
C37 C34 1_555 1_555
C38 Mg2 1_555 1_555
C6 C8 1_555 1_555
C11 C12 1_555 1_555
C15 C16 1_555 1_555
C19 C20 1_555 1_555
Mg3 C38 1_555 1_555
Mg4 N3 1_555 1_555
Si1 N2 1_555 1_555
Si1 N3 1_555 1_555
C23 C24 1_555 1_555

#END
