
#######################################################################
#
#                 Cambridge Crystallographic Data Centre
#                                CCDC 
#
#######################################################################
#
# If this CIF has been generated from an entry in the Cambridge 
# Structural Database, then it will include bibliographic, chemical, 
# crystal, experimental, refinement or atomic coordinate data resulting 
# from the CCDC's data processing and validation procedures.
#
#######################################################################

data_LECGUV01
_chemical_formula_moiety         'C26 H60 Li6 N6 Si2'
_chemical_name_systematic        
bis(tris(\m~4~-t-Butylimido)-methyl-tri-lithium-silicon)
_symmetry_cell_setting           monoclinic
_symmetry_space_group_name_H-M   'C 2/c'
_symmetry_Int_Tables_number      15
_space_group_name_Hall           '-C 2yn'
loop_
_symmetry_equiv_pos_site_id
_symmetry_equiv_pos_as_xyz
1 x,y,z
2 1/2+x,1/2+y,z
3 -x,y,1/2-z
4 1/2-x,1/2+y,1/2-z
5 -x,-y,-z
6 1/2-x,1/2-y,-z
7 x,-y,1/2+z
8 1/2+x,1/2-y,1/2+z
_cell_length_a                   18.133(9)
_cell_length_b                   17.067(9)
_cell_length_c                   11.631(6)
_cell_angle_alpha                90
_cell_angle_beta                 94.87(4)
_cell_angle_gamma                90
_cell_volume                     3586.52
_cell_formula_units_Z            4
loop_
_atom_site_label
_atom_site_type_symbol
_atom_site_fract_x
_atom_site_fract_y
_atom_site_fract_z
Si1 Si 0.1852(1) 0.2583(1) 0.1464(1)
N1 N 0.2808(1) 0.2606(1) 0.1812(2)
N2 N 0.1695(1) 0.3338(1) 0.0468(2)
N3 N 0.1698(1) 0.1727(1) 0.0669(2)
C1 C 0.1282(2) 0.2660(2) 0.2749(3)
C2 C 0.3223(1) 0.2628(2) 0.2948(2)
C3 C 0.1188(2) 0.4013(2) 0.0481(3)
C4 C 0.1173(2) 0.1084(2) 0.0822(2)
Li1 Li 0.2784(2) 0.1548(2) 0.1050(4)
Li2 Li 0.3593(2) 0.2531(3) 0.0628(3)
Li3 Li 0.2777(3) 0.3556(2) 0.0817(4)
C5 C 0.3063(3) 0.3366(3) 0.3621(4)
C6 C 0.4046(2) 0.2632(4) 0.2762(3)
C7 C 0.3073(3) 0.1917(3) 0.3679(3)
C8 C 0.0385(3) 0.3756(3) 0.0432(7)
C9 C 0.1287(4) 0.4510(3) -0.0577(5)
C10 C 0.1358(4) 0.4538(3) 0.1513(5)
C11 C 0.0373(2) 0.1357(3) 0.0699(6)
C12 C 0.1323(2) 0.0674(3) 0.1997(4)
C13 C 0.1273(3) 0.0467(3) -0.0094(5)
Li1E Li 0.2216(2) 0.3452(2) -0.1050(4)
Li2E Li 0.1407(2) 0.2469(3) -0.0628(3)
Li3E Li 0.2223(3) 0.1444(2) -0.0817(4)
N2E N 0.3305(1) 0.1662(1) -0.0468(2)
N3E N 0.3302(1) 0.3273(1) -0.0669(2)
N1E N 0.2192(1) 0.2394(1) -0.1812(2)
Si1E Si 0.3148(1) 0.2417(1) -0.1464(1)
C3E C 0.3812(2) 0.0987(2) -0.0481(3)
C4E C 0.3827(2) 0.3916(2) -0.0822(2)
C2E C 0.1777(1) 0.2372(2) -0.2948(2)
C1E C 0.3718(2) 0.2340(2) -0.2749(3)
C8E C 0.4615(3) 0.1244(3) -0.0432(7)
C9E C 0.3713(4) 0.0490(3) 0.0577(5)
C10E C 0.3642(4) 0.0462(3) -0.1513(5)
C11E C 0.4627(2) 0.3643(3) -0.0699(6)
C12E C 0.3677(2) 0.4326(3) -0.1997(4)
C13E C 0.3727(3) 0.4533(3) 0.0094(5)
C5E C 0.1937(3) 0.1634(3) -0.3621(4)
C6E C 0.0954(2) 0.2368(4) -0.2762(3)
C7E C 0.1927(3) 0.3083(3) -0.3679(3)
loop_
_geom_bond_atom_site_label_1
_geom_bond_atom_site_label_2
_geom_bond_site_symmetry_1
_geom_bond_site_symmetry_2
Si1 N1 1_555 1_555
N1 C2 1_555 1_555
N2 Si1 1_555 1_555
N3 Si1 1_555 1_555
C1 Si1 1_555 1_555
C2 C5 1_555 1_555
C3 N2 1_555 1_555
C4 N3 1_555 1_555
Li1 N1 1_555 1_555
Li2 N1 1_555 1_555
Li3 N1 1_555 1_555
C6 C2 1_555 1_555
C7 C2 1_555 1_555
C8 C3 1_555 1_555
C9 C3 1_555 1_555
C10 C3 1_555 1_555
C11 C4 1_555 1_555
C12 C4 1_555 1_555
C13 C4 1_555 1_555
Li1E N2 1_555 1_555
Li2E N2 1_555 1_555
Li3E N3 1_555 1_555
N2E Li1 1_555 1_555
N3E Li2 1_555 1_555
N1E Li1E 1_555 1_555
Si1E N2E 1_555 1_555
C3E N2E 1_555 1_555
C4E N3E 1_555 1_555
C2E N1E 1_555 1_555
C1E Si1E 1_555 1_555
C8E C3E 1_555 1_555
C9E C3E 1_555 1_555
C10E C3E 1_555 1_555
C11E C4E 1_555 1_555
C12E C4E 1_555 1_555
C13E C4E 1_555 1_555
C5E C2E 1_555 1_555
C6E C2E 1_555 1_555
C7E C2E 1_555 1_555
N2 Li3 1_555 1_555
N3 Li1 1_555 1_555
N3 Li2E 1_555 1_555
Li2 N2E 1_555 1_555
Li3 N3E 1_555 1_555
Li1E N3E 1_555 1_555
Li2E N1E 1_555 1_555
Li3E N2E 1_555 1_555
Li3E N1E 1_555 1_555
N3E Si1E 1_555 1_555
N1E Si1E 1_555 1_555

#END
