
#######################################################################
#
#                 Cambridge Crystallographic Data Centre
#                                CCDC 
#
#######################################################################
#
# If this CIF has been generated from an entry in the Cambridge 
# Structural Database, then it will include bibliographic, chemical, 
# crystal, experimental, refinement or atomic coordinate data resulting 
# from the CCDC's data processing and validation procedures.
#
#######################################################################

data_LECLOU01
_chemical_formula_moiety         'C9 H9 N3 S2'
_chemical_name_systematic        5-(Benzylsulfanyl)-2-amino-1,3,4-thiadiazole
_symmetry_cell_setting           monoclinic
_symmetry_space_group_name_H-M   'C 2/c'
_symmetry_Int_Tables_number      15
_space_group_name_Hall           '-C 2yn'
loop_
_symmetry_equiv_pos_site_id
_symmetry_equiv_pos_as_xyz
1 x,y,z
2 1/2+x,1/2+y,z
3 -x,y,1/2-z
4 1/2-x,1/2+y,1/2-z
5 -x,-y,-z
6 1/2-x,1/2-y,-z
7 x,-y,1/2+z
8 1/2+x,1/2-y,1/2+z
_cell_length_a                   25.282(5)
_cell_length_b                   5.9083(12)
_cell_length_c                   15.390(3)
_cell_angle_alpha                90
_cell_angle_beta                 113.88(3)
_cell_angle_gamma                90
_cell_volume                     2102.07
_exptl_crystal_colour            colorless
_exptl_crystal_description       Prismatic
_cell_formula_units_Z            8
loop_
_atom_site_label
_atom_site_type_symbol
_atom_site_fract_x
_atom_site_fract_y
_atom_site_fract_z
S1 S 0.41867(5) 0.60171(17) 0.16036(8)
S2 S 0.37467(6) 0.15209(19) 0.20585(9)
N1 N 0.44450(13) 0.2123(5) 0.1159(2)
N2 N 0.46944(14) 0.3665(5) 0.0760(2)
N3 N 0.48238(17) 0.7585(7) 0.0677(3)
C1 C 0.35174(19) 0.0054(8) 0.3900(3)
H1 H 0.3853 -0.0672 0.3938
C2 C 0.3172(2) -0.0953(8) 0.4288(3)
H2 H 0.3275 -0.2349 0.4588
C3 C 0.2674(2) 0.0100(9) 0.4232(3)
H3 H 0.2439 -0.0586 0.4490
C4 C 0.2526(2) 0.2149(9) 0.3798(3)
H4 H 0.2192 0.2867 0.3771
C5 C 0.28650(18) 0.3186(7) 0.3395(3)
H5 H 0.2754 0.4573 0.3089
C6 C 0.33707(16) 0.2142(7) 0.3451(2)
C7 C 0.37486(19) 0.3280(7) 0.3024(3)
H6 H 0.4140 0.3448 0.3502
H7 H 0.3598 0.4772 0.2788
C8 C 0.41680(16) 0.3080(6) 0.1617(3)
C9 C 0.46061(16) 0.5762(6) 0.0948(2)
H8 H 0.5025(17) 0.732(7) 0.034(3)
H9 H 0.4738(19) 0.899(8) 0.073(3)
loop_
_geom_bond_atom_site_label_1
_geom_bond_atom_site_label_2
_geom_bond_site_symmetry_1
_geom_bond_site_symmetry_2
S1 C8 1_555 1_555
S2 C7 1_555 1_555
N1 N2 1_555 1_555
N2 C9 1_555 1_555
N3 C9 1_555 1_555
C1 H1 1_555 1_555
C2 C1 1_555 1_555
H2 C2 1_555 1_555
C3 C2 1_555 1_555
H3 C3 1_555 1_555
C4 C3 1_555 1_555
H4 C4 1_555 1_555
C5 C4 1_555 1_555
H5 C5 1_555 1_555
C6 C1 1_555 1_555
C7 C6 1_555 1_555
H6 C7 1_555 1_555
H7 C7 1_555 1_555
C8 S2 1_555 1_555
C9 S1 1_555 1_555
H8 N3 1_555 1_555
H9 N3 1_555 1_555
N1 C8 1_555 1_555
C5 C6 1_555 1_555

#END
