
#######################################################################
#
#                 Cambridge Crystallographic Data Centre
#                                CCDC 
#
#######################################################################
#
# If this CIF has been generated from an entry in the Cambridge 
# Structural Database, then it will include bibliographic, chemical, 
# crystal, experimental, refinement or atomic coordinate data resulting 
# from the CCDC's data processing and validation procedures.
#
#######################################################################

data_LECMOY
_chemical_formula_moiety         'C14 H23 N1 O2'
_chemical_name_systematic        
5-hydroxy-2,2,5-trimethyldecahydro-8H-cyclobuta[f]pyrrolo[1,2-a]azepin-8-one
_symmetry_cell_setting           orthorhombic
_symmetry_space_group_name_H-M   'P 21 21 21'
_symmetry_Int_Tables_number      19
_space_group_name_Hall           'P 2ac 2ab'
loop_
_symmetry_equiv_pos_site_id
_symmetry_equiv_pos_as_xyz
1 x,y,z
2 1/2-x,-y,1/2+z
3 -x,1/2+y,1/2-z
4 1/2+x,1/2-y,-z
_cell_length_a                   8.1257(8)
_cell_length_b                   10.3350(10)
_cell_length_c                   16.0543(15)
_cell_angle_alpha                90
_cell_angle_beta                 90
_cell_angle_gamma                90
_cell_volume                     1348.23
_exptl_crystal_colour            'light colorless'
_exptl_crystal_description       block
_cell_formula_units_Z            4
_exptl_crystal_recrystallization_method methanol/water
loop_
_atom_site_label
_atom_site_type_symbol
_atom_site_fract_x
_atom_site_fract_y
_atom_site_fract_z
O1 O 1.0704(2) 0.15557(17) 0.35198(15)
H1 H 1.165018 0.180634 0.344659
O2 O 0.3868(2) 0.2549(2) 0.32555(16)
N1 N 0.6504(2) 0.28233(18) 0.36772(12)
C1 C 1.0352(3) 0.3751(2) 0.3954(2)
H2 H 1.051136 0.344844 0.452036
H3 H 1.143432 0.392397 0.372522
C2 C 0.9372(4) 0.2988(3) 0.25437(17)
H4 H 1.042805 0.314270 0.229526
H5 H 0.871181 0.375570 0.250316
H6 H 0.883344 0.229094 0.225703
C3 C 0.9429(3) 0.5035(2) 0.39978(19)
H7 H 1.001645 0.562673 0.436022
H8 H 0.937768 0.541797 0.344691
C4 C 0.9595(3) 0.2631(2) 0.34515(15)
C5 C 0.5709(3) 0.0704(3) 0.34732(19)
H9 H 0.536933 0.026534 0.296741
H10 H 0.521369 0.027152 0.394722
C6 C 0.6560(4) 0.7073(3) 0.3909(2)
H11 H 0.753337 0.756434 0.403215
H12 H 0.560890 0.761509 0.397154
H13 H 0.661615 0.675878 0.334726
C7 C 0.6370(5) 0.6389(3) 0.54017(19)
H14 H 0.626707 0.565635 0.576529
H15 H 0.543941 0.694995 0.547453
H16 H 0.736125 0.685226 0.553268
C8 C 0.7558(3) 0.0719(3) 0.3548(2)
H17 H 0.806714 0.054454 0.301345
H18 H 0.792534 0.007136 0.394454
C9 C 0.7709(3) 0.4835(2) 0.43250(13)
H19 H 0.778471 0.429071 0.482349
C10 C 0.6438(3) 0.5931(2) 0.45078(16)
C11 C 0.5222(3) 0.2110(3) 0.34497(16)
C12 C 0.6444(3) 0.4226(2) 0.37452(14)
H20 H 0.654971 0.460841 0.318926
C13 C 0.8004(3) 0.2091(2) 0.38548(14)
H21 H 0.815991 0.206103 0.445976
C14 C 0.5096(3) 0.4942(2) 0.42307(19)
H22 H 0.462744 0.444525 0.468518
H23 H 0.424214 0.531123 0.388182
loop_
_geom_bond_atom_site_label_1
_geom_bond_atom_site_label_2
_geom_bond_site_symmetry_1
_geom_bond_site_symmetry_2
O1 H1 1_555 1_555
O2 C11 1_555 1_555
N1 C11 1_555 1_555
C1 H2 1_555 1_555
H3 C1 1_555 1_555
C2 H4 1_555 1_555
H5 C2 1_555 1_555
H6 C2 1_555 1_555
C3 C1 1_555 1_555
H7 C3 1_555 1_555
H8 C3 1_555 1_555
C4 O1 1_555 1_555
C5 H9 1_555 1_555
H10 C5 1_555 1_555
C6 H11 1_555 1_555
H12 C6 1_555 1_555
H13 C6 1_555 1_555
C7 H14 1_555 1_555
H15 C7 1_555 1_555
H16 C7 1_555 1_555
C8 C5 1_555 1_555
H17 C8 1_555 1_555
H18 C8 1_555 1_555
C9 C3 1_555 1_555
H19 C9 1_555 1_555
C10 C6 1_555 1_555
C11 C5 1_555 1_555
C12 N1 1_555 1_555
H20 C12 1_555 1_555
C13 N1 1_555 1_555
H21 C13 1_555 1_555
C14 C10 1_555 1_555
H22 C14 1_555 1_555
H23 C14 1_555 1_555
C1 C4 1_555 1_555
C2 C4 1_555 1_555
C4 C13 1_555 1_555
C7 C10 1_555 1_555
C8 C13 1_555 1_555
C9 C10 1_555 1_555
C9 C12 1_555 1_555
C12 C14 1_555 1_555

#END
