
#######################################################################
#
#                 Cambridge Crystallographic Data Centre
#                                CCDC 
#
#######################################################################
#
# If this CIF has been generated from an entry in the Cambridge 
# Structural Database, then it will include bibliographic, chemical, 
# crystal, experimental, refinement or atomic coordinate data resulting 
# from the CCDC's data processing and validation procedures.
#
#######################################################################

data_LECRAP
_chemical_formula_moiety         'C30 H44 B1 N4 Na1'
_chemical_name_systematic        
(1,4,7,10-tetramethyl-1,4,7,10-tetra-azacyclododecane)-(hydrido(triphenyl)borate)-sodium
_symmetry_cell_setting           monoclinic
_symmetry_space_group_name_H-M   'C c'
_symmetry_Int_Tables_number      9
_space_group_name_Hall           'C -2yc'
loop_
_symmetry_equiv_pos_site_id
_symmetry_equiv_pos_as_xyz
1 x,y,z
2 x,-y,1/2+z
3 1/2+x,1/2+y,z
4 1/2+x,1/2-y,1/2+z
_cell_length_a                   12.459(3)
_cell_length_b                   15.012(3)
_cell_length_c                   15.595(3)
_cell_angle_alpha                90
_cell_angle_beta                 98.193(5)
_cell_angle_gamma                90
_cell_volume                     2887.03
_exptl_crystal_colour            colorless
_exptl_crystal_description       rod
_cell_formula_units_Z            4
_chemical_properties_physical    
Air-sensitive,Moisture-sensitive,Oxygen-sensitive
_exptl_crystal_recrystallization_method 'tetrahydrofuran / pentane'
loop_
_atom_site_label
_atom_site_type_symbol
_atom_site_fract_x
_atom_site_fract_y
_atom_site_fract_z
Na1 Na 1.01987(17) 0.20754(15) 0.28306(14)
N1 N 0.9763(5) 0.3721(4) 0.2472(4)
N2 N 1.1937(5) 0.2808(4) 0.2644(5)
N3 N 1.1000(5) 0.1197(5) 0.1671(4)
N4 N 0.8816(5) 0.2039(4) 0.1551(4)
B1 B 0.9027(6) 0.1706(5) 0.4372(5)
H1 H 0.906(6) 0.217(5) 0.382(5)
C1 C 1.0851(8) 0.4176(5) 0.2524(8)
H2 H 1.0752 0.4741 0.2194
H3 H 1.1100 0.4332 0.3137
C2 C 1.1723(7) 0.3654(6) 0.2196(7)
H4 H 1.1510 0.3539 0.1570
H5 H 1.2397 0.4012 0.2266
C3 C 1.2497(6) 0.2196(7) 0.2064(6)
H6 H 1.3051 0.2542 0.1812
H7 H 1.2875 0.1716 0.2424
C4 C 1.1735(7) 0.1786(7) 0.1348(6)
H8 H 1.1324 0.2262 0.1006
H9 H 1.2155 0.1455 0.0959
C5 C 1.0030(7) 0.0988(7) 0.0982(5)
H10 H 1.0298 0.0818 0.0437
H11 H 0.9631 0.0473 0.1175
C6 C 0.9284(6) 0.1740(6) 0.0810(5)
H12 H 0.9678 0.2243 0.0589
H13 H 0.8691 0.1567 0.0349
C7 C 0.8373(7) 0.2959(6) 0.1461(7)
H14 H 0.7957 0.3026 0.0874
H15 H 0.7862 0.3044 0.1885
C8 C 0.9205(7) 0.3668(6) 0.1592(5)
H16 H 0.9746 0.3560 0.1196
H17 H 0.8854 0.4248 0.1434
C9 C 0.9138(6) 0.4198(5) 0.3050(5)
H18 H 0.9001 0.4808 0.2838
H19 H 0.9549 0.4214 0.3634
H20 H 0.8446 0.3893 0.3065
C10 C 1.2585(7) 0.2891(6) 0.3518(6)
H21 H 1.3275 0.3187 0.3468
H22 H 1.2728 0.2296 0.3768
H23 H 1.2180 0.3243 0.3893
C11 C 1.1507(7) 0.0338(6) 0.1890(6)
H24 H 1.1766 0.0086 0.1377
H25 H 1.0976 -0.0067 0.2088
H26 H 1.2120 0.0416 0.2352
C12 C 0.7943(6) 0.1434(6) 0.1749(6)
H27 H 0.7307 0.1502 0.1305
H28 H 0.7745 0.1585 0.2318
H29 H 0.8199 0.0817 0.1754
C13 C 0.9866(5) 0.0910(4) 0.4214(4)
C14 C 1.0986(5) 0.0983(5) 0.4468(4)
H30 H 1.1262 0.1517 0.4743
C15 C 1.1715(6) 0.0307(5) 0.4336(5)
H31 H 1.2470 0.0393 0.4514
C16 C 1.1352(6) -0.0478(5) 0.3953(6)
H32 H 1.1841 -0.0950 0.3883
C17 C 1.0248(7) -0.0567(5) 0.3668(6)
H33 H 0.9979 -0.1102 0.3391
C18 C 0.9532(5) 0.0119(4) 0.3786(5)
H34 H 0.8786 0.0046 0.3565
C19 C 0.7800(5) 0.1367(4) 0.4447(4)
C20 C 0.6897(5) 0.1863(5) 0.4085(4)
H35 H 0.7009 0.2384 0.3763
C21 C 0.5834(5) 0.1620(5) 0.4180(4)
H36 H 0.5243 0.1981 0.3932
C22 C 0.5644(6) 0.0855(5) 0.4633(4)
H37 H 0.4925 0.0686 0.4698
C23 C 0.6516(6) 0.0343(5) 0.4989(5)
H38 H 0.6398 -0.0186 0.5297
C24 C 0.7561(5) 0.0598(4) 0.4900(4)
H39 H 0.8146 0.0236 0.5156
C25 C 0.9463(5) 0.2279(4) 0.5259(4)
C26 C 0.9324(5) 0.3185(4) 0.5310(4)
H40 H 0.8971 0.3489 0.4814
C27 C 0.9677(5) 0.3681(4) 0.6056(4)
H41 H 0.9568 0.4308 0.6057
C28 C 1.0183(5) 0.3262(5) 0.6788(4)
H42 H 1.0430 0.3595 0.7296
C29 C 1.0326(5) 0.2347(5) 0.6775(4)
H43 H 1.0670 0.2050 0.7278
C30 C 0.9969(5) 0.1864(4) 0.6031(4)
H44 H 1.0066 0.1236 0.6037
loop_
_geom_bond_atom_site_label_1
_geom_bond_atom_site_label_2
_geom_bond_site_symmetry_1
_geom_bond_site_symmetry_2
Na1 N1 1_555 1_555
N1 C1 1_555 1_555
N2 Na1 1_555 1_555
N3 Na1 1_555 1_555
N4 Na1 1_555 1_555
B1 H1 1_555 1_555
H1 Na1 1_555 1_555
C1 H2 1_555 1_555
H3 C1 1_555 1_555
C2 N2 1_555 1_555
H4 C2 1_555 1_555
H5 C2 1_555 1_555
C3 N2 1_555 1_555
H6 C3 1_555 1_555
H7 C3 1_555 1_555
C4 N3 1_555 1_555
H8 C4 1_555 1_555
H9 C4 1_555 1_555
C5 N3 1_555 1_555
H10 C5 1_555 1_555
H11 C5 1_555 1_555
C6 N4 1_555 1_555
H12 C6 1_555 1_555
H13 C6 1_555 1_555
C7 N4 1_555 1_555
H14 C7 1_555 1_555
H15 C7 1_555 1_555
C8 N1 1_555 1_555
H16 C8 1_555 1_555
H17 C8 1_555 1_555
C9 N1 1_555 1_555
H18 C9 1_555 1_555
H19 C9 1_555 1_555
H20 C9 1_555 1_555
C10 N2 1_555 1_555
H21 C10 1_555 1_555
H22 C10 1_555 1_555
H23 C10 1_555 1_555
C11 N3 1_555 1_555
H24 C11 1_555 1_555
H25 C11 1_555 1_555
H26 C11 1_555 1_555
C12 N4 1_555 1_555
H27 C12 1_555 1_555
H28 C12 1_555 1_555
H29 C12 1_555 1_555
C13 Na1 1_555 1_555
C14 Na1 1_555 1_555
H30 C14 1_555 1_555
C15 C14 1_555 1_555
H31 C15 1_555 1_555
C16 C15 1_555 1_555
H32 C16 1_555 1_555
C17 C16 1_555 1_555
H33 C17 1_555 1_555
C18 Na1 1_555 1_555
H34 C18 1_555 1_555
C19 B1 1_555 1_555
C20 C19 1_555 1_555
H35 C20 1_555 1_555
C21 C20 1_555 1_555
H36 C21 1_555 1_555
C22 C21 1_555 1_555
H37 C22 1_555 1_555
C23 C22 1_555 1_555
H38 C23 1_555 1_555
C24 C19 1_555 1_555
H39 C24 1_555 1_555
C25 B1 1_555 1_555
C26 C25 1_555 1_555
H40 C26 1_555 1_555
C27 C26 1_555 1_555
H41 C27 1_555 1_555
C28 C27 1_555 1_555
H42 C28 1_555 1_555
C29 C28 1_555 1_555
H43 C29 1_555 1_555
C30 C25 1_555 1_555
H44 C30 1_555 1_555
B1 C13 1_555 1_555
C1 C2 1_555 1_555
C3 C4 1_555 1_555
C5 C6 1_555 1_555
C7 C8 1_555 1_555
C13 C14 1_555 1_555
C13 C18 1_555 1_555
C17 C18 1_555 1_555
C23 C24 1_555 1_555
C29 C30 1_555 1_555

#END
