
#######################################################################
#
#                 Cambridge Crystallographic Data Centre
#                                CCDC 
#
#######################################################################
#
# If this CIF has been generated from an entry in the Cambridge 
# Structural Database, then it will include bibliographic, chemical, 
# crystal, experimental, refinement or atomic coordinate data resulting 
# from the CCDC's data processing and validation procedures.
#
#######################################################################

data_LECWIC
_chemical_formula_moiety         'C20 H19 O2 S1 1+,C1 F3 O3 S1 1-'
_chemical_name_systematic        
'bis(4-methoxyphenyl)(phenyl)sulfonium trifluoromethanesulfonate'
_symmetry_cell_setting           monoclinic
_symmetry_space_group_name_H-M   'P 21/n'
_symmetry_Int_Tables_number      14
_space_group_name_Hall           '-P 2yn'
loop_
_symmetry_equiv_pos_site_id
_symmetry_equiv_pos_as_xyz
1 x,y,z
2 1/2-x,1/2+y,1/2-z
3 -x,-y,-z
4 1/2+x,1/2-y,1/2+z
_cell_length_a                   8.9672(3)
_cell_length_b                   22.0738(6)
_cell_length_c                   11.2978(3)
_cell_angle_alpha                90
_cell_angle_beta                 99.418(2)
_cell_angle_gamma                90
_cell_volume                     2206.15
_exptl_crystal_colour            colorless
_exptl_crystal_description       block
_cell_formula_units_Z            4
loop_
_atom_site_label
_atom_site_type_symbol
_atom_site_fract_x
_atom_site_fract_y
_atom_site_fract_z
S1 S 0.94937(13) 0.22731(5) 0.72934(9)
O1 O 1.2229(4) 0.38368(14) 0.4022(3)
C1 C 1.0887(5) 0.17077(17) 0.7663(3)
C2 C 1.0195(5) 0.27521(17) 0.6259(4)
C3 C 1.1119(5) 0.14957(17) 0.8822(3)
H1 H 1.0570 0.1658 0.9377
O2 O 1.3911(3) 0.03440(14) 0.8726(3)
C4 C 1.1573(5) 0.34959(19) 0.4810(4)
C5 C 1.2151(5) 0.10479(18) 0.9166(4)
H2 H 1.2320 0.0912 0.9956
C6 C 1.2954(4) 0.07940(18) 0.8324(4)
C7 C 1.2750(5) 0.1030(2) 0.7163(4)
H3 H 1.3307 0.0873 0.6608
C8 C 1.0973(6) 0.3254(2) 0.6729(4)
H4 H 1.1037 0.3342 0.7540
C9 C 1.0042(6) 0.26257(18) 0.5034(3)
H5 H 0.9478 0.2295 0.4704
C10 C 1.0747(6) 0.30007(19) 0.4329(4)
H6 H 1.0666 0.2920 0.3513
C11 C 1.1747(5) 0.1486(2) 0.6832(3)
H7 H 1.1636 0.1648 0.6063
C12 C 0.7913(5) 0.1885(2) 0.6424(4)
C13 C 1.1657(6) 0.3628(2) 0.6011(4)
H8 H 1.2178 0.3970 0.6333
C14 C 0.6613(7) 0.2223(3) 0.6111(5)
H9 H 0.6553 0.2626 0.6341
C15 C 0.6711(9) 0.1022(4) 0.5435(6)
H10 H 0.6755 0.0617 0.5215
C16 C 0.7979(6) 0.1297(3) 0.6116(5)
H11 H 0.8859 0.1075 0.6354
C17 C 1.3019(7) 0.4365(2) 0.4462(5)
H12 H 1.3414 0.4561 0.3821
H13 H 1.3836 0.4257 0.5086
H14 H 1.2342 0.4635 0.4777
C18 C 1.4679(6) 0.0045(2) 0.7892(6)
H15 H 1.5321 -0.0264 0.8297
H16 H 1.5280 0.0333 0.7542
H17 H 1.3954 -0.0135 0.7273
C19 C 0.5367(7) 0.1919(4) 0.5411(6)
H18 H 0.4473 0.2130 0.5163
C20 C 0.5459(8) 0.1333(4) 0.5105(6)
H19 H 0.4626 0.1145 0.4654
S2 S 1.6541(2) 0.38748(8) 0.78209(15)
O3 O 1.6914(6) 0.3440(2) 0.8675(4)
F1 F 1.4085(6) 0.4048(4) 0.8561(6)
C21 C 1.5313(11) 0.4372(4) 0.8395(6)
O4 O 1.5731(7) 0.3712(3) 0.6664(4)
F2 F 1.4850(8) 0.4813(3) 0.7742(6)
F3 F 1.5915(10) 0.4565(3) 0.9484(5)
O5 O 1.7767(8) 0.4288(5) 0.7732(11)
loop_
_geom_bond_atom_site_label_1
_geom_bond_atom_site_label_2
_geom_bond_site_symmetry_1
_geom_bond_site_symmetry_2
S1 C1 1_555 1_555
O1 C4 1_555 1_555
C1 C3 1_555 1_555
C2 S1 1_555 1_555
C3 H1 1_555 1_555
O2 C6 1_555 1_555
C4 C10 1_555 1_555
C5 C3 1_555 1_555
H2 C5 1_555 1_555
C6 C5 1_555 1_555
C7 C6 1_555 1_555
H3 C7 1_555 1_555
C8 C2 1_555 1_555
H4 C8 1_555 1_555
C9 C2 1_555 1_555
H5 C9 1_555 1_555
C10 C9 1_555 1_555
H6 C10 1_555 1_555
C11 C1 1_555 1_555
H7 C11 1_555 1_555
C12 S1 1_555 1_555
C13 C4 1_555 1_555
H8 C13 1_555 1_555
C14 C12 1_555 1_555
H9 C14 1_555 1_555
C15 H10 1_555 1_555
C16 C12 1_555 1_555
H11 C16 1_555 1_555
C17 O1 1_555 1_555
H12 C17 1_555 1_555
H13 C17 1_555 1_555
H14 C17 1_555 1_555
C18 O2 1_555 1_555
H15 C18 1_555 1_555
H16 C18 1_555 1_555
H17 C18 1_555 1_555
C19 C14 1_555 1_555
H18 C19 1_555 1_555
C20 C15 1_555 1_555
H19 C20 1_555 1_555
S2 O3 1_555 1_555
F1 C21 1_555 1_555
C21 S2 1_555 1_555
O4 S2 1_555 1_555
F2 C21 1_555 1_555
F3 C21 1_555 1_555
O5 S2 1_555 1_555
C7 C11 1_555 1_555
C8 C13 1_555 1_555
C15 C16 1_555 1_555
C19 C20 1_555 1_555

#END
