
#######################################################################
#
#                 Cambridge Crystallographic Data Centre
#                                CCDC 
#
#######################################################################
#
# If this CIF has been generated from an entry in the Cambridge 
# Structural Database, then it will include bibliographic, chemical, 
# crystal, experimental, refinement or atomic coordinate data resulting 
# from the CCDC's data processing and validation procedures.
#
#######################################################################

data_LECYUQ
_chemical_formula_moiety         'C28 H22 Cl2 N2 O2'
_chemical_name_systematic        
2,2'-[(1,2-diphenylethane-1,2-diyl)bis(azanylylidenemethylylidene)]bis(6-chlorophenol)
_symmetry_cell_setting           monoclinic
_symmetry_space_group_name_H-M   'I 2/a'
_symmetry_Int_Tables_number      15
_space_group_name_Hall           '-I 2ya'
loop_
_symmetry_equiv_pos_site_id
_symmetry_equiv_pos_as_xyz
1 x,y,z
2 1/2-x,y,-z
3 1/2+x,1/2+y,1/2+z
4 -x,1/2+y,1/2-z
5 -x,-y,-z
6 1/2+x,-y,z
7 1/2-x,1/2-y,1/2-z
8 x,1/2-y,1/2+z
_cell_length_a                   10.4917(2)
_cell_length_b                   25.8936(5)
_cell_length_c                   18.0444(3)
_cell_angle_alpha                90
_cell_angle_beta                 92.0418(17)
_cell_angle_gamma                90
_cell_volume                     4898.97
_exptl_crystal_colour            colorless
_exptl_crystal_description       plate
_cell_formula_units_Z            8
loop_
_atom_site_label
_atom_site_type_symbol
_atom_site_fract_x
_atom_site_fract_y
_atom_site_fract_z
Cl1 Cl 0.81933(5) 0.49222(2) 0.28427(3)
O1 O 0.77734(15) 0.39237(6) 0.35357(9)
H1 H 0.7715 0.3638 0.3727
N1 N 0.83501(16) 0.31672(6) 0.44361(9)
C1 C 0.81527(18) 0.22270(7) 0.42637(11)
C2 C 0.88231(19) 0.41612(8) 0.38078(10)
C3 C 0.93074(19) 0.34333(8) 0.46689(11)
H2 H 0.9832 0.3300 0.5049
C4 C 0.81552(18) 0.26736(7) 0.48074(10)
H3 H 0.8840 0.2621 0.5184
C5 C 0.7504(2) 0.22597(8) 0.35769(12)
H4 H 0.7106 0.2567 0.3435
C6 C 0.87228(19) 0.17622(8) 0.44697(12)
H5 H 0.9151 0.1735 0.4928
C7 C 0.9611(2) 0.39381(8) 0.43619(12)
C8 C 0.9161(2) 0.46448(8) 0.35311(11)
C9 C 0.8660(2) 0.13363(8) 0.39975(14)
H6 H 0.9040 0.1026 0.4143
C10 C 0.7449(2) 0.18368(9) 0.31050(12)
H7 H 0.7019 0.1863 0.2647
C11 C 0.8031(2) 0.13748(9) 0.33108(13)
H8 H 0.8000 0.1093 0.2991
C12 C 1.0247(3) 0.48964(10) 0.37823(16)
H9 H 1.0456 0.5216 0.3587
C13 C 1.0697(3) 0.42004(12) 0.46187(16)
H10 H 1.1211 0.4055 0.4994
C14 C 1.1026(3) 0.46734(13) 0.43246(19)
H11 H 1.1767 0.4840 0.4492
Cl1A Cl 0.68067(5) 0.49222(2) 0.71573(3)
O1A O 0.72266(15) 0.39237(6) 0.64643(9)
H1A H 0.7285 0.3638 0.6273
N1A N 0.66499(16) 0.31672(6) 0.55639(9)
C1A C 0.68473(18) 0.22270(7) 0.57363(11)
C2A C 0.61769(19) 0.41612(8) 0.61922(10)
C3A C 0.56926(19) 0.34333(8) 0.53311(11)
H2A H 0.5168 0.3300 0.4951
C4A C 0.68448(18) 0.26736(7) 0.51926(10)
H3A H 0.6160 0.2621 0.4816
C5A C 0.7496(2) 0.22597(8) 0.64231(12)
H4A H 0.7894 0.2567 0.6565
C6A C 0.62772(19) 0.17622(8) 0.55303(12)
H5A H 0.5849 0.1735 0.5072
C7A C 0.5389(2) 0.39381(8) 0.56381(12)
C8A C 0.5839(2) 0.46448(8) 0.64689(11)
C9A C 0.6340(2) 0.13363(8) 0.60025(14)
H6A H 0.5960 0.1026 0.5857
C10A C 0.7551(2) 0.18368(9) 0.68950(12)
H7A H 0.7981 0.1863 0.7353
C11A C 0.6969(2) 0.13748(9) 0.66892(13)
H8A H 0.7000 0.1093 0.7009
C12A C 0.4753(3) 0.48964(10) 0.62177(16)
H9A H 0.4544 0.5216 0.6413
C13A C 0.4303(3) 0.42004(12) 0.53813(16)
H10A H 0.3789 0.4055 0.5006
C14A C 0.3974(3) 0.46734(13) 0.56754(19)
H11A H 0.3233 0.4840 0.5508
Cl2 Cl 0.48562(6) 0.36345(2) 0.32464(4)
O2 O 0.41911(14) 0.26543(6) 0.39279(9)
H12 H 0.3967 0.2378 0.4101
N2 N 0.26466(15) 0.19118(6) 0.42481(9)
C15 C 0.19971(19) 0.26350(7) 0.34945(10)
C16 C 0.29654(18) 0.09759(7) 0.41970(10)
C17 C 0.23035(18) 0.14178(7) 0.45785(10)
H13 H 0.1378 0.1370 0.4523
C18 C 0.17818(18) 0.21390(7) 0.38525(10)
H14 H 0.0987 0.1983 0.3791
C19 C 0.32020(19) 0.28723(7) 0.35495(11)
C20 C 0.4191(2) 0.10349(8) 0.39390(11)
H15 H 0.4603 0.1352 0.3989
C21 C 0.2371(2) 0.04980(8) 0.41251(11)
H16 H 0.1546 0.0455 0.4288
C22 C 0.3358(2) 0.33463(8) 0.31947(12)
C23 C 0.4802(2) 0.06236(9) 0.36075(12)
H17 H 0.5613 0.0669 0.3426
C24 C 0.2996(2) 0.00853(8) 0.38136(13)
H18 H 0.2600 -0.0236 0.3784
C25 C 0.0994(2) 0.28760(9) 0.30988(12)
H19 H 0.0201 0.2716 0.3059
C26 C 0.4209(2) 0.01469(9) 0.35458(13)
H20 H 0.4620 -0.0129 0.3327
C27 C 0.2360(2) 0.35840(8) 0.28141(12)
H21 H 0.2482 0.3902 0.2589
C28 C 0.1168(2) 0.33483(9) 0.27667(13)
H22 H 0.0492 0.3509 0.2512
Cl2A Cl 0.01438(6) 0.36345(2) 0.67536(4)
O2A O 0.08089(14) 0.26543(6) 0.60721(9)
H12A H 0.1033 0.2378 0.5899
N2A N 0.23534(15) 0.19118(6) 0.57519(9)
C15A C 0.30029(19) 0.26350(7) 0.65055(10)
C16A C 0.20346(18) 0.09759(7) 0.58030(10)
C17A C 0.26965(18) 0.14178(7) 0.54215(10)
H13A H 0.3622 0.1370 0.5477
C18A C 0.32182(18) 0.21390(7) 0.61475(10)
H14A H 0.4013 0.1983 0.6209
C19A C 0.17980(19) 0.28723(7) 0.64505(11)
C20A C 0.0809(2) 0.10349(8) 0.60610(11)
H15A H 0.0397 0.1352 0.6011
C21A C 0.2629(2) 0.04980(8) 0.58749(11)
H16A H 0.3454 0.0455 0.5712
C22A C 0.1642(2) 0.33463(8) 0.68053(12)
C23A C 0.0198(2) 0.06236(9) 0.63925(12)
H17A H -0.0613 0.0669 0.6574
C24A C 0.2004(2) 0.00853(8) 0.61864(13)
H18A H 0.2400 -0.0236 0.6216
C25A C 0.4006(2) 0.28760(9) 0.69012(12)
H19A H 0.4799 0.2716 0.6941
C26A C 0.0791(2) 0.01469(9) 0.64542(13)
H20A H 0.0380 -0.0129 0.6673
C27A C 0.2640(2) 0.35840(8) 0.71859(12)
H21A H 0.2518 0.3902 0.7411
C28A C 0.3832(2) 0.33483(9) 0.72333(13)
H22A H 0.4508 0.3509 0.7488
loop_
_geom_bond_atom_site_label_1
_geom_bond_atom_site_label_2
_geom_bond_site_symmetry_1
_geom_bond_site_symmetry_2
Cl1 C8 1_555 1_555
O1 H1 1_555 1_555
N1 C3 1_555 1_555
C1 C4 1_555 1_555
C2 O1 1_555 1_555
C3 H2 1_555 1_555
C4 N1 1_555 1_555
H3 C4 1_555 1_555
C5 C1 1_555 1_555
H4 C5 1_555 1_555
C6 C1 1_555 1_555
H5 C6 1_555 1_555
C7 C2 1_555 1_555
C8 C2 1_555 1_555
C9 C6 1_555 1_555
H6 C9 1_555 1_555
C10 C5 1_555 1_555
H7 C10 1_555 1_555
C11 C9 1_555 1_555
H8 C11 1_555 1_555
C12 C8 1_555 1_555
H9 C12 1_555 1_555
C13 C7 1_555 1_555
H10 C13 1_555 1_555
C14 C12 1_555 1_555
H11 C14 1_555 1_555
Cl2 C22 1_555 1_555
O2 H12 1_555 1_555
N2 C17 1_555 1_555
C15 C18 1_555 1_555
C16 C17 1_555 1_555
C17 H13 1_555 1_555
C18 N2 1_555 1_555
H14 C18 1_555 1_555
C19 O2 1_555 1_555
C20 C16 1_555 1_555
H15 C20 1_555 1_555
C21 C16 1_555 1_555
H16 C21 1_555 1_555
C22 C19 1_555 1_555
C23 C20 1_555 1_555
H17 C23 1_555 1_555
C24 C21 1_555 1_555
H18 C24 1_555 1_555
C25 C15 1_555 1_555
H19 C25 1_555 1_555
C26 C23 1_555 1_555
H20 C26 1_555 1_555
C27 C22 1_555 1_555
H21 C27 1_555 1_555
C28 C25 1_555 1_555
H22 C28 1_555 1_555
Cl1A C8A 1_555 1_555
O1A H1A 1_555 1_555
N1A C3A 1_555 1_555
C1A C4A 1_555 1_555
C2A O1A 1_555 1_555
C3A H2A 1_555 1_555
C4A C4 1_555 1_555
H3A C4A 1_555 1_555
C5A C1A 1_555 1_555
H4A C5A 1_555 1_555
C6A C1A 1_555 1_555
H5A C6A 1_555 1_555
C7A C2A 1_555 1_555
C8A C2A 1_555 1_555
C9A C6A 1_555 1_555
H6A C9A 1_555 1_555
C10A C5A 1_555 1_555
H7A C10A 1_555 1_555
C11A C9A 1_555 1_555
H8A C11A 1_555 1_555
C12A C8A 1_555 1_555
H9A C12A 1_555 1_555
C13A C7A 1_555 1_555
H10A C13A 1_555 1_555
C14A C12A 1_555 1_555
H11A C14A 1_555 1_555
Cl2A C22A 1_555 1_555
O2A H12A 1_555 1_555
N2A C17A 1_555 1_555
C15A C18A 1_555 1_555
C16A C17A 1_555 1_555
C17A C17 1_555 1_555
H13A C17A 1_555 1_555
C18A N2A 1_555 1_555
H14A C18A 1_555 1_555
C19A O2A 1_555 1_555
C20A C16A 1_555 1_555
H15A C20A 1_555 1_555
C21A C16A 1_555 1_555
H16A C21A 1_555 1_555
C22A C19A 1_555 1_555
C23A C20A 1_555 1_555
H17A C23A 1_555 1_555
C24A C21A 1_555 1_555
H18A C24A 1_555 1_555
C25A C15A 1_555 1_555
H19A C25A 1_555 1_555
C26A C23A 1_555 1_555
H20A C26A 1_555 1_555
C27A C22A 1_555 1_555
H21A C27A 1_555 1_555
C28A C25A 1_555 1_555
H22A C28A 1_555 1_555
C3 C7 1_555 1_555
C10 C11 1_555 1_555
C13 C14 1_555 1_555
C15 C19 1_555 1_555
C24 C26 1_555 1_555
C27 C28 1_555 1_555
N1A C4A 1_555 1_555
C3A C7A 1_555 1_555
C10A C11A 1_555 1_555
C13A C14A 1_555 1_555
C15A C19A 1_555 1_555
C24A C26A 1_555 1_555
C27A C28A 1_555 1_555

#END
