
#######################################################################
#
#                 Cambridge Crystallographic Data Centre
#                                CCDC 
#
#######################################################################
#
# If this CIF has been generated from an entry in the Cambridge 
# Structural Database, then it will include bibliographic, chemical, 
# crystal, experimental, refinement or atomic coordinate data resulting 
# from the CCDC's data processing and validation procedures.
#
#######################################################################

data_LECZAX
_chemical_formula_moiety         'C28 H22 F2 N2 O2'
_chemical_name_systematic        
2,2'-[(1,2-diphenylethane-1,2-diyl)bis(azanylylidenemethylylidene)]bis(6-fluorophenol)
_symmetry_cell_setting           monoclinic
_symmetry_space_group_name_H-M   'C 2/c'
_symmetry_Int_Tables_number      15
_space_group_name_Hall           '-C 2yn'
loop_
_symmetry_equiv_pos_site_id
_symmetry_equiv_pos_as_xyz
1 x,y,z
2 -x,y,1/2-z
3 1/2+x,1/2+y,z
4 1/2-x,1/2+y,1/2-z
5 -x,-y,-z
6 x,-y,1/2+z
7 1/2-x,1/2-y,-z
8 1/2+x,1/2-y,1/2+z
_cell_length_a                   10.4508(8)
_cell_length_b                   24.9276(18)
_cell_length_c                   9.8093(8)
_cell_angle_alpha                90
_cell_angle_beta                 107.630(9)
_cell_angle_gamma                90
_cell_volume                     2435.43
_exptl_crystal_description       block
_cell_formula_units_Z            4
loop_
_atom_site_label
_atom_site_type_symbol
_atom_site_fract_x
_atom_site_fract_y
_atom_site_fract_z
N1 N 0.38587(15) 0.30595(6) 0.28939(17)
F1 F 0.1136(2) 0.13456(8) 0.16477(18)
O1 O 0.2188(2) 0.23192(8) 0.15429(18)
H1 H 0.2518 0.2620 0.1671
C1 C 0.35989(18) 0.22245(8) 0.39676(19)
C2 C 0.45664(18) 0.35708(7) 0.3017(2)
H2 H 0.5158 0.3611 0.4000
C3 C 0.41927(18) 0.27500(8) 0.39724(19)
H3 H 0.4843 0.2865 0.4797
C4 C 0.35794(19) 0.40339(8) 0.2676(2)
C5 C 0.3997(2) 0.19015(9) 0.5182(2)
H4 H 0.4648 0.2026 0.5994
C6 C 0.2625(2) 0.20354(9) 0.2753(2)
C7 C 0.2478(3) 0.12138(9) 0.4004(3)
H5 H 0.2100 0.0876 0.4009
C8 C 0.3447(3) 0.14021(10) 0.5202(3)
H6 H 0.3726 0.1191 0.6022
C9 C 0.2452(2) 0.40157(11) 0.1476(3)
H7 H 0.2306 0.3723 0.0861
C10 C 0.2086(3) 0.15267(10) 0.2822(3)
C11 C 0.3784(3) 0.44801(10) 0.3551(3)
H8 H 0.4542 0.4496 0.4347
C12 C 0.1543(3) 0.44418(15) 0.1205(4)
H9 H 0.0777 0.4428 0.0417
C13 C 0.2889(3) 0.49014(12) 0.3267(4)
H10 H 0.3043 0.5198 0.3869
C14 C 0.1771(3) 0.48815(14) 0.2094(5)
H11 H 0.1165 0.5165 0.1899
N1A N 0.61413(15) 0.30595(6) 0.21061(17)
F1A F 0.8864(2) 0.13456(8) 0.33523(18)
O1A O 0.7812(2) 0.23192(8) 0.34571(18)
H1A H 0.7482 0.2620 0.3329
C1A C 0.64011(18) 0.22245(8) 0.10324(19)
C2A C 0.54336(18) 0.35708(7) 0.1983(2)
H2A H 0.4842 0.3611 0.1000
C3A C 0.58073(18) 0.27500(8) 0.10276(19)
H3A H 0.5157 0.2865 0.0203
C4A C 0.64206(19) 0.40339(8) 0.2324(2)
C5A C 0.6003(2) 0.19015(9) -0.0182(2)
H4A H 0.5352 0.2026 -0.0994
C6A C 0.7375(2) 0.20354(9) 0.2247(2)
C7A C 0.7522(3) 0.12138(9) 0.0996(3)
H5A H 0.7900 0.0876 0.0991
C8A C 0.6553(3) 0.14021(10) -0.0202(3)
H6A H 0.6274 0.1191 -0.1022
C9A C 0.7548(2) 0.40157(11) 0.3524(3)
H7A H 0.7694 0.3723 0.4139
C10A C 0.7914(3) 0.15267(10) 0.2178(3)
C11A C 0.6216(3) 0.44801(10) 0.1449(3)
H8A H 0.5458 0.4496 0.0653
C12A C 0.8457(3) 0.44418(15) 0.3795(4)
H9A H 0.9223 0.4428 0.4583
C13A C 0.7111(3) 0.49014(12) 0.1733(4)
H10A H 0.6957 0.5198 0.1131
C14A C 0.8229(3) 0.48815(14) 0.2906(5)
H11A H 0.8835 0.5165 0.3101
loop_
_geom_bond_atom_site_label_1
_geom_bond_atom_site_label_2
_geom_bond_site_symmetry_1
_geom_bond_site_symmetry_2
N1 C2 1_555 1_555
F1 C10 1_555 1_555
O1 H1 1_555 1_555
C1 C3 1_555 1_555
C2 H2 1_555 1_555
C3 N1 1_555 1_555
H3 C3 1_555 1_555
C4 C2 1_555 1_555
C5 C1 1_555 1_555
H4 C5 1_555 1_555
C6 O1 1_555 1_555
C7 H5 1_555 1_555
C8 C5 1_555 1_555
H6 C8 1_555 1_555
C9 C4 1_555 1_555
H7 C9 1_555 1_555
C10 C6 1_555 1_555
C11 C4 1_555 1_555
H8 C11 1_555 1_555
C12 C9 1_555 1_555
H9 C12 1_555 1_555
C13 C11 1_555 1_555
H10 C13 1_555 1_555
C14 C12 1_555 1_555
H11 C14 1_555 1_555
N1A C2A 1_555 1_555
F1A C10A 1_555 1_555
O1A H1A 1_555 1_555
C1A C3A 1_555 1_555
C2A C2 1_555 1_555
H2A C2A 1_555 1_555
C3A N1A 1_555 1_555
H3A C3A 1_555 1_555
C4A C2A 1_555 1_555
C5A C1A 1_555 1_555
H4A C5A 1_555 1_555
C6A O1A 1_555 1_555
C7A H5A 1_555 1_555
C8A C5A 1_555 1_555
H6A C8A 1_555 1_555
C9A C4A 1_555 1_555
H7A C9A 1_555 1_555
C10A C6A 1_555 1_555
C11A C4A 1_555 1_555
H8A C11A 1_555 1_555
C12A C9A 1_555 1_555
H9A C12A 1_555 1_555
C13A C11A 1_555 1_555
H10A C13A 1_555 1_555
C14A C12A 1_555 1_555
H11A C14A 1_555 1_555
C1 C6 1_555 1_555
C7 C8 1_555 1_555
C7 C10 1_555 1_555
C13 C14 1_555 1_555
C1A C6A 1_555 1_555
C7A C8A 1_555 1_555
C7A C10A 1_555 1_555
C13A C14A 1_555 1_555

#END
