
#######################################################################
#
#                 Cambridge Crystallographic Data Centre
#                                CCDC 
#
#######################################################################
#
# If this CIF has been generated from an entry in the Cambridge 
# Structural Database, then it will include bibliographic, chemical, 
# crystal, experimental, refinement or atomic coordinate data resulting 
# from the CCDC's data processing and validation procedures.
#
#######################################################################

data_LEDBAA
_chemical_formula_moiety         
'C116 H96 O12,C20 H12,0.25(C1 H2 Cl2),0.168(C1 H4 O1),0.30(H2 O1)'
_chemical_name_systematic        
'15,16,17,18-tetrakis(1^4^,3^4^-dimethoxy[1^1^,2^1^:2^3^,3^1^-terphenyl]-2^5^-yl)-2,13-bis(4-methoxyphenyl)-6,7,8,9-tetrahydrotribenzo[g,i,k][1,6]dioxacyclododecine perylene dichloromethane methanol solvate hydrate'
_symmetry_cell_setting           triclinic
_symmetry_space_group_name_H-M   'P -1'
_symmetry_Int_Tables_number      2
_space_group_name_Hall           '-P 1'
loop_
_symmetry_equiv_pos_site_id
_symmetry_equiv_pos_as_xyz
1 x,y,z
2 -x,-y,-z
_cell_length_a                   14.8941(3)
_cell_length_b                   24.3151(4)
_cell_length_c                   29.3308(5)
_cell_angle_alpha                89.9950(10)
_cell_angle_beta                 77.086(2)
_cell_angle_gamma                83.3180(10)
_cell_volume                     10279.5
_exptl_crystal_colour            colorless
_exptl_crystal_description       plate
_cell_formula_units_Z            4
loop_
_atom_site_label
_atom_site_type_symbol
_atom_site_fract_x
_atom_site_fract_y
_atom_site_fract_z
O13 O 0.37139(14) 0.81720(9) 0.15811(7)
O14 O -0.37083(14) 0.95968(9) 0.14809(8)
O15 O 0.17095(18) 0.91072(8) 0.20747(7)
O16 O 0.34994(15) 0.91520(10) 0.50847(7)
O17 O 0.62584(16) 0.82304(12) 0.44011(8)
O18 O -0.1724(2) 0.93374(11) 0.53621(8)
O19 O 0.64386(17) 0.52704(10) 0.36539(9)
O20 O 0.57854(17) 0.55106(10) -0.04109(8)
O21 O -0.22543(18) 0.69808(12) 0.01864(9)
O22 O 0.3336(2) 0.38809(10) 0.32178(12)
C117 C 0.18457(15) 0.81455(9) 0.25678(8)
C118 C 0.09750(16) 0.74462(10) 0.23382(8)
C119 C -0.09402(16) 0.87929(9) 0.34314(8)
C120 C 0.00625(16) 0.72512(9) 0.23277(9)
C121 C 0.18863(15) 0.86996(9) 0.27776(8)
C122 C 0.01034(15) 0.83183(9) 0.27525(8)
C123 C -0.05214(16) 0.84994(9) 0.24781(9)
H97 H -0.0379 0.8404 0.2161
C124 C 0.26824(16) 0.78091(10) 0.23868(8)
C125 C -0.01141(16) 0.84625(10) 0.32247(8)
H98 H 0.0298 0.8337 0.3409
C126 C -0.20064(15) 0.90254(10) 0.23744(9)
C127 C -0.13579(16) 0.88219(10) 0.26745(9)
C128 C 0.18152(16) 0.71052(10) 0.21637(8)
C129 C 0.20303(16) 0.87423(10) 0.32258(9)
H99 H 0.2041 0.8425 0.3403
C130 C 0.18153(16) 0.65312(10) 0.19797(9)
C131 C 0.21606(16) 0.92417(10) 0.34245(9)
C132 C -0.15561(16) 0.89662(10) 0.31493(9)
H100 H -0.2110 0.9183 0.3281
C133 C 0.09949(15) 0.79630(9) 0.25463(8)
C134 C 0.35507(16) 0.69065(10) 0.20432(9)
C135 C 0.35855(16) 0.80240(10) 0.23815(9)
C136 C 0.18490(17) 0.91758(10) 0.25122(9)
C137 C 0.24336(17) 0.92535(11) 0.38801(9)
C138 C 0.39465(16) 0.80369(10) 0.27779(9)
H101 H 0.3633 0.7886 0.3050
C139 C -0.02354(17) 0.72388(10) 0.19098(9)
H102 H 0.0153 0.7333 0.1634
C140 C -0.24768(17) 0.95585(11) 0.24375(9)
H103 H -0.2404 0.9783 0.2680
C141 C -0.11398(17) 0.89532(10) 0.39348(9)
C142 C -0.31710(17) 0.94311(12) 0.17892(10)
C143 C 0.26639(16) 0.72846(10) 0.21942(8)
C144 C 0.19355(18) 0.96839(10) 0.27096(9)
H104 H 0.1886 1.0005 0.2541
C145 C 0.50068(18) 0.61544(11) 0.09540(10)
C146 C -0.21452(16) 0.86933(11) 0.20132(9)
H105 H -0.1851 0.8332 0.1968
C147 C 0.38847(17) 0.67349(10) 0.15788(9)
H106 H 0.3566 0.6868 0.1355
C148 C -0.05307(17) 0.71156(10) 0.27398(9)
H107 H -0.0338 0.7124 0.3020
C149 C 0.20949(17) 0.97116(10) 0.31550(9)
H108 H 0.2160 1.0053 0.3279
C150 C -0.27156(17) 0.88939(11) 0.17211(10)
H109 H -0.2794 0.8670 0.1480
C151 C 0.16368(17) 0.64298(11) 0.15458(10)
H110 H 0.1503 0.6726 0.1362
C152 C 0.48412(17) 0.63299(11) 0.22550(10)
C153 C 0.16545(17) 0.58868(11) 0.13803(10)
C154 C 0.46944(17) 0.63651(11) 0.14440(10)
C155 C 0.40785(18) 0.82296(12) 0.19659(10)
C156 C -0.11038(18) 0.70871(10) 0.18985(10)
C157 C 0.20446(18) 0.60887(11) 0.22452(10)
H111 H 0.2160 0.6156 0.2538
C158 C 0.51284(18) 0.82716(11) 0.32142(10)
C159 C 0.18814(18) 0.54492(11) 0.16556(10)
H112 H 0.1883 0.5088 0.1552
C160 C 0.40318(17) 0.67073(11) 0.23757(10)
H113 H 0.3812 0.6827 0.2686
C161 C -0.30525(17) 0.97645(11) 0.21488(10)
H114 H -0.3356 1.0123 0.2197
C162 C -0.14108(18) 0.69675(11) 0.27398(10)
C163 C -0.16796(18) 0.69551(11) 0.23162(10)
H115 H -0.2262 0.6855 0.2312
C164 C -0.20404(19) 0.90200(11) 0.42115(9)
H116 H -0.2534 0.8974 0.4075
C165 C 0.31433(19) 0.92253(13) 0.46922(9)
C166 C 0.6659(2) 0.56523(12) 0.28730(11)
H117 H 0.7297 0.5552 0.2809
C167 C 0.47599(18) 0.82664(11) 0.27861(10)
C168 C 0.51616(17) 0.61712(11) 0.17868(10)
H118 H 0.5704 0.5928 0.1698
C169 C 0.33780(19) 0.96199(12) 0.43600(9)
H119 H 0.3769 0.9877 0.4405
C170 C 0.21744(19) 0.88789(12) 0.42301(9)
H120 H 0.1759 0.8634 0.4194
C171 C -0.04208(19) 0.90342(11) 0.41533(10)
H121 H 0.0186 0.8996 0.3977
C172 C -0.13896(19) 0.70716(11) 0.14422(10)
C173 C 0.21055(18) 0.55411(11) 0.20822(10)
C174 C 0.52933(18) 0.60753(11) 0.26205(10)
C175 C 0.1464(2) 0.57927(12) 0.09134(10)
O23 O 0.0843(3) 0.55405(14) -0.03835(11)
C176 C -0.0757(2) 0.68809(12) 0.10357(11)
H122 H -0.0144 0.6774 0.1049
C177 C 0.62445(19) 0.59194(11) 0.25383(10)
H123 H 0.6616 0.5995 0.2251
C178 C 0.30256(18) 0.96293(12) 0.39608(9)
H124 H 0.3189 0.9895 0.3739
C179 C 0.24513(19) 0.50902(11) 0.23618(11)
C180 C 0.60815(18) 0.82768(12) 0.31903(10)
H125 H 0.6485 0.8291 0.2900
C181 C 0.6115(2) 0.55382(12) 0.32999(11)
C182 C 0.43619(19) 0.60259(12) 0.06998(10)
H126 H 0.3732 0.6086 0.0838
C183 C 0.49037(19) 0.82431(13) 0.40611(10)
H127 H 0.4505 0.8232 0.4353
C184 C 0.59424(19) 0.60615(12) 0.07341(11)
H128 H 0.6384 0.6146 0.0894
C185 C 0.45599(18) 0.82593(12) 0.36590(10)
H129 H 0.3925 0.8262 0.3688
C186 C -0.1484(2) 0.92256(12) 0.48941(10)
C187 C 0.4764(2) 0.59638(12) 0.30604(11)
H130 H 0.4127 0.6069 0.3129
C188 C 0.5849(2) 0.82443(13) 0.40239(11)
C189 C 0.5210(2) 0.84875(14) 0.23726(11)
H131 H 0.5742 0.8654 0.2368
C190 C 0.2521(2) 0.88632(13) 0.46305(10)
H132 H 0.2337 0.8609 0.4859
C191 C 0.5581(2) 0.57203(12) 0.00361(10)
C192 C -0.0587(2) 0.91696(12) 0.46267(10)
H133 H -0.0096 0.9222 0.4763
C193 C 0.64317(19) 0.82608(13) 0.35882(11)
H134 H 0.7065 0.8261 0.3562
C194 C 0.2083(2) 0.45842(11) 0.24242(12)
H135 H 0.1624 0.4513 0.2271
O24 O -0.3907(3) 0.66009(16) 0.44444(12)
C195 C -0.2044(2) 0.68422(12) 0.31838(11)
C196 C 0.4644(2) 0.58125(13) 0.02498(11)
H136 H 0.4205 0.5729 0.0088
C197 C -0.2305(2) 0.72375(13) 0.14093(12)
H137 H -0.2744 0.7372 0.1675
C198 C 0.3995(2) 0.84920(13) 0.11801(10)
H138 H 0.4175 0.8258 0.0899
H139 H 0.4513 0.8687 0.1209
C199 C -0.2213(2) 0.91523(13) 0.46794(10)
H140 H -0.2820 0.9194 0.4856
C200 C -0.1923(2) 0.70057(13) 0.05878(12)
C201 C 0.1993(2) 0.95140(12) 0.17329(10)
H141 H 0.1648 0.9512 0.1489
H142 H 0.1877 0.9881 0.1879
C202 C 0.4884(2) 0.84653(15) 0.19681(11)
H143 H 0.5208 0.8609 0.1695
C203 C 0.6231(2) 0.58438(13) 0.02785(11)
H144 H 0.6860 0.5782 0.0138
C204 C 0.5164(2) 0.57008(13) 0.33965(12)
H145 H 0.4798 0.5633 0.3687
C205 C 0.0957(2) 0.53748(14) 0.08260(12)
H146 H 0.0742 0.5140 0.1065
C206 C -0.1008(2) 0.68433(13) 0.06088(11)
H147 H -0.0570 0.6712 0.0342
C207 C 0.1783(2) 0.61277(13) 0.05432(11)
H148 H 0.2127 0.6409 0.0591
C208 C 0.3164(2) 0.51711(12) 0.25799(13)
H149 H 0.3430 0.5500 0.2535
C209 C 0.3093(2) 0.42870(13) 0.29311(14)
C210 C -0.2565(2) 0.72038(15) 0.09867(13)
H150 H -0.3176 0.7315 0.0971
C211 C 0.3491(2) 0.47746(13) 0.28627(14)
H151 H 0.3971 0.4836 0.3004
C212 C -0.3004(2) 0.69398(14) 0.32407(13)
H152 H -0.3251 0.7069 0.2990
C213 C -0.1713(3) 0.66313(15) 0.35645(12)
H153 H -0.1077 0.6548 0.3533
C214 C 0.2389(2) 0.41896(13) 0.27094(14)
H154 H 0.2127 0.3859 0.2754
C215 C -0.4030(2) 1.01752(14) 0.14834(14)
H155 H -0.4368 1.0245 0.1242
H156 H -0.3509 1.0384 0.1428
H157 H -0.4429 1.0284 0.1782
C216 C 0.7399(3) 0.50881(16) 0.35685(14)
H158 H 0.7568 0.4832 0.3306
H159 H 0.7539 0.4908 0.3840
H160 H 0.7742 0.5400 0.3502
C217 C 0.5726(3) 0.8087(2) 0.48373(13)
H161 H 0.5503 0.7737 0.4805
H162 H 0.5208 0.8367 0.4939
H163 H 0.6104 0.8059 0.5064
C218 C -0.1653(3) 0.67121(18) -0.02159(13)
H164 H -0.1973 0.6712 -0.0466
H165 H -0.1461 0.6337 -0.0145
H166 H -0.1117 0.6906 -0.0309
C219 C 0.1605(3) 0.60562(15) 0.01052(13)
H167 H 0.1833 0.6284 -0.0138
C220 C 0.4166(3) 0.95061(16) 0.51429(12)
H168 H 0.4682 0.9461 0.4878
H169 H 0.4379 0.9412 0.5422
H170 H 0.3886 0.9884 0.5169
C221 C -0.3255(3) 0.66557(18) 0.40387(15)
C222 C 0.0766(3) 0.53007(17) 0.03916(14)
H171 H 0.0422 0.5019 0.0343
C223 C -0.2304(3) 0.65394(18) 0.39931(14)
H172 H -0.2064 0.6403 0.4243
C224 C -0.3599(3) 0.68486(17) 0.36626(16)
H173 H -0.4237 0.6918 0.3692
C225 C 0.1081(3) 0.56406(16) 0.00315(13)
C226 C -0.1015(3) 0.94777(17) 0.55789(12)
H174 H -0.0769 0.9800 0.5437
H175 H -0.0528 0.9174 0.5539
H176 H -0.1268 0.9553 0.5907
C227 C 0.6730(3) 0.5385(2) -0.06315(15)
H177 H 0.6784 0.5212 -0.0932
H178 H 0.7031 0.5137 -0.0442
H179 H 0.7020 0.5720 -0.0670
C228 C 0.4055(4) 0.39745(18) 0.3447(2)
H180 H 0.4592 0.4053 0.3218
H181 H 0.4211 0.3650 0.3612
H182 H 0.3846 0.4283 0.3663
C229 C 0.1082(5) 0.5916(2) -0.07531(16)
H183 H 0.0815 0.5826 -0.1009
H184 H 0.1744 0.5887 -0.0857
H185 H 0.0846 0.6288 -0.0642
C230 C 0.2956(4) 0.9377(2) 0.15392(18)
H186 H 0.3268 0.9267 0.1788
H187 H 0.3211 0.9701 0.1396
C231 C 0.3145(4) 0.8899(3) 0.11663(19)
H188 H 0.2606 0.8699 0.1213
H189 H 0.3226 0.9057 0.0858
C232 C -0.3566(5) 0.6394(3) 0.4840(2)
H190 H -0.3302 0.6014 0.4778
H191 H -0.4068 0.6417 0.5112
H192 H -0.3099 0.6611 0.4894
C233 C 1.0793(2) 0.77281(12) 0.52618(10)
C234 C 0.9979(2) 0.77340(12) 0.50839(11)
C235 C 1.1695(2) 0.75176(13) 0.49601(12)
C236 C 1.0029(3) 0.75761(13) 0.46081(12)
C237 C 1.0699(3) 0.79221(13) 0.57185(11)
H193 H 1.1227 0.7933 0.5837
C238 C 0.9097(2) 0.79078(14) 0.53805(13)
C239 C 1.0946(3) 0.74238(13) 0.42920(12)
C240 C 1.1753(3) 0.73868(13) 0.44793(12)
C241 C 0.9825(3) 0.81016(15) 0.60042(12)
H194 H 0.9781 0.8231 0.6308
C242 C 0.9041(3) 0.80881(16) 0.58419(14)
H195 H 0.8465 0.8199 0.6038
C243 C 1.2495(2) 0.74408(16) 0.51297(15)
H196 H 1.2455 0.7515 0.5445
C244 C 1.2650(3) 0.72138(16) 0.41854(15)
C245 C 0.9229(3) 0.75732(17) 0.44551(18)
H197 H 0.9266 0.7463 0.4147
C246 C 1.1070(4) 0.73093(16) 0.38177(15)
H198 H 1.0557 0.7336 0.3684
C247 C 0.8291(3) 0.78929(18) 0.5193(2)
H199 H 0.7707 0.7998 0.5383
C248 C 1.1966(5) 0.71516(19) 0.35326(15)
H200 H 1.2034 0.7078 0.3215
C249 C 0.8362(4) 0.77295(19) 0.4744(2)
H201 H 0.7830 0.7722 0.4629
C250 C 1.2719(5) 0.71068(19) 0.37175(17)
H202 H 1.3300 0.7001 0.3525
C251 C 1.3441(3) 0.71497(19) 0.4386(2)
H203 H 1.4024 0.7033 0.4199
C252 C 1.3348(3) 0.7258(2) 0.4847(2)
H204 H 1.3867 0.7208 0.4975
C253 C 0.9933(2) 0.79489(13) 0.98062(13)
C254 C 1.1191(3) 0.78002(14) 1.02749(13)
C255 C 1.0606(3) 0.76719(15) 0.94301(14)
C256 C 1.0227(3) 0.80308(15) 1.02530(14)
C257 C 1.1774(3) 0.75342(16) 0.98853(15)
C258 C 1.2321(3) 0.76631(17) 1.07516(18)
H205 H 1.2500 0.7698 1.1033
C259 C 0.9360(4) 0.78172(19) 0.89784(19)
H206 H 0.9157 0.7781 0.8703
C260 C 0.9062(3) 0.81267(18) 0.9737(2)
H207 H 0.8632 0.8307 0.9988
C261 C 1.1503(3) 0.74612(18) 0.94641(16)
C262 C 1.0867(4) 0.81731(19) 1.10808(16)
H208 H 1.1058 0.8219 1.1358
C263 C 1.1464(3) 0.78800(17) 1.07070(16)
C264 C 1.2965(3) 0.73701(17) 1.03431(18)
H209 H 1.3556 0.7223 1.0369
C265 C 1.0286(4) 0.76041(19) 0.89906(16)
C266 C 0.8788(4) 0.8062(2) 0.9345(2)
H210 H 0.8183 0.8192 0.9330
C267 C 1.2712(4) 0.73112(19) 0.9933(2)
H211 H 1.3131 0.7129 0.9680
C268 C 0.9687(3) 0.83154(19) 1.06265(18)
H212 H 0.9091 0.8466 1.0613
C269 C 1.0005(4) 0.8394(2) 1.10466(16)
H213 H 0.9617 0.8598 1.1298
C270 C 1.0882(5) 0.7323(3) 0.8619(2)
H214 H 1.0683 0.7271 0.8346
C271 C 1.2090(4) 0.7192(2) 0.90630(18)
H215 H 1.2698 0.7060 0.9070
C272 C 1.1768(4) 0.7117(3) 0.86424(18)
H216 H 1.2162 0.6928 0.8385
C273 C 0.9011(16) 0.5769(7) 0.8691(9)
O25 O 0.8332(11) 0.6188(8) 0.8635(5)
O1 O 0.46628(13) 0.97335(8) 0.62589(7)
O2 O 1.01122(14) 0.93943(7) 0.68981(6)
O3 O 1.14427(15) 0.97508(9) 0.99988(7)
O4 O 1.13681(17) 0.42162(8) 0.83549(8)
O5 O 0.53351(16) 0.70828(10) 0.98495(7)
O6 O 1.41490(16) 0.84562(11) 0.94535(8)
C1 C 0.69812(15) 0.90983(9) 0.75072(9)
C2 C 0.84657(15) 0.86514(9) 0.76122(8)
C3 C 0.83819(16) 0.75388(9) 0.73596(9)
C4 C 1.02162(16) 0.84670(10) 0.74185(8)
C5 C 1.02580(15) 0.90294(10) 0.76168(9)
C6 C 0.78597(15) 0.88127(9) 0.73243(8)
H1 H 0.8042 0.8729 0.7005
C7 C 0.93575(15) 0.82898(9) 0.74219(8)
C8 C 0.63453(15) 0.92684(10) 0.71937(8)
C9 C 0.81995(16) 0.87911(10) 0.80857(9)
H2 H 0.8608 0.8693 0.8278
C10 C 1.03637(16) 0.90930(10) 0.80687(9)
H3 H 1.0398 0.8781 0.8250
C11 C 0.67265(16) 0.92241(10) 0.79856(9)
H4 H 0.6142 0.9410 0.8112
O7 O 1.4709(2) 0.57877(10) 0.85897(12)
C12 C 0.79877(16) 0.74248(10) 0.78194(9)
H5 H 0.8331 0.7445 0.8046
C13 C 0.93084(16) 0.77504(10) 0.72671(8)
C14 C 1.10390(15) 0.81153(10) 0.72418(8)
O8 O 1.21324(17) 0.85937(16) 0.64804(9)
C15 C 0.73292(16) 0.90766(10) 0.82790(9)
C16 C 1.04209(16) 0.96100(10) 0.82636(9)
C17 C 0.62885(17) 0.89259(10) 0.68216(9)
H6 H 0.6642 0.8581 0.6775
C18 C 0.51900(15) 0.96017(11) 0.65843(9)
C19 C 1.09951(16) 0.75845(10) 0.70750(8)
C20 C 1.01978(17) 0.94968(10) 0.73400(9)
C21 C 0.69698(17) 0.73617(10) 0.71360(9)
C22 C 0.78687(17) 0.75074(10) 0.70214(9)
H7 H 0.8130 0.7585 0.6713
C23 C 1.19439(16) 0.83149(10) 0.72597(9)
C24 C 0.70497(18) 0.91969(11) 0.87908(9)
C25 C 1.01273(16) 0.73978(10) 0.70884(9)
C26 C 1.06148(16) 0.96580(11) 0.87340(9)
C27 C 0.66654(16) 0.72131(11) 0.84490(9)
C28 C 0.57175(17) 0.90887(11) 0.65216(9)
H8 H 0.5688 0.8853 0.6277
C29 C 0.70907(17) 0.72818(10) 0.79481(9)
C30 C 1.00828(16) 0.68113(10) 0.69552(9)
C31 C 1.22641(16) 0.82681(10) 0.76692(9)
H9 H 1.1921 0.8094 0.7920
C32 C 0.65911(17) 0.72433(10) 0.76007(9)
H10 H 0.5997 0.7137 0.7680
C33 C 0.52186(16) 0.99473(11) 0.69556(9)
H11 H 0.4855 1.0289 0.7004
O9 O 0.4895(2) 0.75244(17) 0.57354(9)
C34 C 0.57947(16) 0.97789(11) 0.72553(9)
H12 H 0.5813 1.0013 0.7503
C35 C 1.02186(17) 1.00189(10) 0.75319(9)
H13 H 1.0154 1.0333 0.7355
C36 C 1.18488(16) 0.71805(10) 0.69093(10)
C37 C 1.03352(17) 1.00708(10) 0.79847(9)
H14 H 1.0357 1.0421 0.8106
C38 C 1.03302(17) 0.63885(10) 0.72410(9)
H15 H 1.0488 0.6479 0.7519
C39 C 0.98160(19) 0.66768(11) 0.65510(9)
H16 H 0.9636 0.6958 0.6363
C40 C 1.02888(18) 0.93111(11) 0.90967(9)
H17 H 0.9898 0.9055 0.9049
C41 C 1.33444(17) 0.84404(11) 0.81804(10)
C42 C 1.05286(19) 0.93353(12) 0.95270(10)
H18 H 1.0289 0.9104 0.9765
C43 C 1.30751(17) 0.84688(11) 0.77227(10)
C44 C 1.06479(18) 0.54019(11) 0.74292(10)
C45 C 1.11300(19) 0.97075(12) 0.95999(9)
C46 C 0.64109(18) 0.73761(11) 0.67741(9)
C47 C 0.67847(17) 0.75879(11) 0.87828(9)
H19 H 0.7157 0.7867 0.8688
C48 C 1.03074(19) 0.48838(11) 0.74723(10)
H20 H 0.9905 0.4798 0.7289
C49 C 1.03459(18) 0.58336(11) 0.71194(10)
C50 C 0.63628(18) 0.75570(12) 0.92544(10)
H21 H 0.6458 0.7810 0.9471
C51 C 1.14574(19) 1.00628(12) 0.92459(10)
H22 H 1.1853 1.0315 0.9294
C52 C 1.11972(18) 1.00420(11) 0.88234(9)
H23 H 1.1412 1.0287 0.8592
C53 C 1.0560(2) 0.44998(11) 0.77820(11)
H24 H 1.0324 0.4161 0.7806
C54 C 1.20675(18) 0.69460(11) 0.64609(11)
H25 H 1.1733 0.7082 0.6244
C55 C 0.61074(19) 0.67960(12) 0.86038(10)
H26 H 0.6023 0.6537 0.8389
C56 C 1.1163(2) 0.46178(11) 0.80571(10)
C57 C 1.0314(2) 0.97993(11) 0.65446(10)
H27 H 1.0647 1.0076 0.6650
H28 H 0.9742 0.9984 0.6482
C58 C 1.26864(18) 0.85704(12) 0.85927(10)
H29 H 1.2068 0.8656 0.8579
C59 C 1.23676(18) 0.69851(11) 0.72261(12)
H30 H 1.2235 0.7147 0.7525
C60 C 0.57994(19) 0.71457(13) 0.93980(10)
C61 C 0.9813(2) 0.61260(12) 0.64214(10)
C62 C 1.35801(18) 0.87204(13) 0.73385(11)
H31 H 1.4133 0.8851 0.7358
C63 C 0.5449(2) 0.75076(12) 0.68946(10)
H32 H 0.5154 0.7568 0.7208
C64 C 0.6167(2) 0.91396(13) 0.90438(10)
H33 H 0.5729 0.9038 0.8889
C65 C 0.4922(2) 0.75506(14) 0.65594(11)
H34 H 0.4280 0.7633 0.6649
C66 C 1.29175(19) 0.85771(13) 0.90233(11)
H35 H 1.2462 0.8671 0.9294
C67 C 1.3838(2) 0.84424(13) 0.90477(11)
C68 C 0.4181(2) 1.02820(14) 0.62953(11)
H36 H 0.3862 1.0336 0.6045
H37 H 0.4617 1.0547 0.6275
H38 H 0.3739 1.0331 0.6590
C69 C 0.5680(2) 0.67617(13) 0.90696(11)
H39 H 0.5311 0.6481 0.9165
C70 C 1.1533(2) 0.51204(12) 0.80148(11)
H40 H 1.1947 0.5200 0.8194
O10 O 0.6409(3) 0.94734(16) 1.02355(9)
C71 C 1.1271(2) 0.55031(11) 0.76992(11)
H41 H 1.1523 0.5837 0.7669
C72 C 1.24610(19) 0.85720(14) 0.68821(11)
C73 C 1.42679(19) 0.82942(13) 0.82153(11)
H42 H 1.4725 0.8199 0.7946
C74 C 0.6826(2) 0.72810(14) 0.63023(10)
H43 H 0.7464 0.7182 0.6212
C75 C 0.7686(2) 0.93598(13) 0.90359(10)
H44 H 0.8283 0.9405 0.8872
C76 C 1.0086(2) 0.57095(11) 0.67072(10)
H45 H 1.0094 0.5341 0.6620
C77 C 1.30876(19) 0.65500(12) 0.71060(13)
C78 C 1.3275(2) 0.87793(16) 0.69296(12)
H46 H 1.3614 0.8959 0.6681
C79 C 1.1105(2) 0.94044(14) 1.03753(11)
H47 H 1.1300 0.9023 1.0280
H48 H 1.0440 0.9467 1.0459
H49 H 1.1349 0.9489 1.0640
C80 C 1.2780(2) 0.65103(13) 0.63276(13)
C81 C 1.4505(2) 0.82899(14) 0.86445(12)
H50 H 1.5116 0.8184 0.8662
C82 C 1.1848(2) 0.43556(14) 0.86980(12)
H51 H 1.2446 0.4454 0.8546
H52 H 1.1924 0.4044 0.8892
H53 H 1.1498 0.4664 0.8887
C83 C 0.5349(2) 0.74718(17) 0.60954(11)
C84 C 1.3278(2) 0.63184(13) 0.66587(14)
H54 H 1.3751 0.6027 0.6576
C85 C 0.5919(3) 0.92314(16) 0.95272(11)
H55 H 0.5323 0.9188 0.9693
C86 C 0.5468(2) 0.74537(16) 1.01933(11)
H56 H 0.5243 0.7824 1.0127
H57 H 0.6117 0.7432 1.0190
H58 H 0.5134 0.7356 1.0496
C87 C 1.3575(2) 0.63363(13) 0.74712(15)
C88 C 0.6305(3) 0.73309(17) 0.59660(11)
H59 H 0.6595 0.7270 0.5652
C89 C 1.3773(2) 0.57723(13) 0.75340(15)
H60 H 1.3640 0.5522 0.7325
C90 C 0.7451(3) 0.94547(16) 0.95127(11)
H61 H 0.7885 0.9563 0.9668
C91 C 1.3508(3) 0.87015(18) 0.98559(12)
H62 H 1.3275 0.9070 0.9787
H63 H 1.3815 0.8717 1.0110
H64 H 1.3002 0.8483 0.9942
C92 C 0.9535(3) 0.60007(14) 0.59795(12)
O11 O 0.8916(4) 0.56846(15) 0.46982(13)
C93 C 1.3792(2) 0.66953(13) 0.77850(17)
H65 H 1.3675 0.7075 0.7749
C94 C 1.4158(3) 0.55708(13) 0.78948(16)
H66 H 1.4284 0.5191 0.7927
C95 C 1.4358(3) 0.59351(14) 0.82089(17)
C96 C 0.6570(3) 0.93886(16) 0.97584(11)
C97 C 1.4176(3) 0.65033(14) 0.81488(18)
H67 H 1.4316 0.6753 0.8355
C98 C 1.0888(4) 0.95103(15) 0.61140(12)
H68 H 1.0619 0.9166 0.6113
H69 H 1.0684 0.9724 0.5868
C99 C 1.4860(4) 0.52131(16) 0.86778(19)
H70 H 1.5323 0.5033 0.8424
H71 H 1.4292 0.5053 0.8705
H72 H 1.5069 0.5166 0.8964
C100 C 0.9752(4) 0.63457(16) 0.55885(14)
H73 H 1.0064 0.6650 0.5612
C101 C 0.9100(5) 0.5763(2) 0.51275(17)
C102 C 0.5570(4) 0.9322(3) 1.04972(15)
H74 H 0.5062 0.9557 1.0422
H75 H 0.5552 0.9363 1.0825
H76 H 0.5522 0.8944 1.0424
C103 C 0.9509(5) 0.62372(18) 0.51802(17)
H77 H 0.9618 0.6481 0.4935
C104 C 0.3973(3) 0.7822(3) 0.58578(17)
H78 H 0.3797 0.7958 0.5579
H79 H 0.3966 0.8127 0.6066
H80 H 0.3543 0.7577 0.6009
C105 C 1.2284(5) 0.9236(4) 0.6285(3)
H81 H 1.2094 0.9504 0.6544
H82 H 1.2934 0.9255 0.6144
C106 C 0.9054(6) 0.5583(2) 0.5934(2)
H83 H 0.8857 0.5370 0.6192
C107 C 0.8836(8) 0.5457(3) 0.5511(2)
H84 H 0.8505 0.5160 0.5492
C108 C 1.1722(5) 0.9366(3) 0.5936(3)
H85 H 1.1970 0.9660 0.5742
H86 H 1.1774 0.9041 0.5735
C109 C 0.8611(8) 0.5184(3) 0.4611(3)
H87 H 0.8665 0.5134 0.4281
H88 H 0.7974 0.5186 0.4772
H89 H 0.8983 0.4885 0.4721
C110 C 1.2277(4) 0.6012(4) 0.5136(3)
H90 H 1.1772 0.5976 0.5006
C111 C 1.2135(4) 0.6206(5) 0.5597(3)
H91 H 1.1535 0.6298 0.5774
C112 C 1.2893(5) 0.6260(4) 0.57930(18)
C113 C 1.3792(4) 0.6121(3) 0.5527(2)
H92 H 1.4298 0.6157 0.5657
C114 C 1.3934(4) 0.5929(3) 0.50655(19)
H93 H 1.4535 0.5836 0.4888
C115 C 1.3176(5) 0.5874(3) 0.48692(18)
O12 O 1.3368(7) 0.5680(4) 0.4414(2)
C116 C 1.2760(8) 0.5631(6) 0.4225(3)
H94 H 1.2973 0.5364 0.3972
H95 H 1.2565 0.5982 0.4105
H96 H 1.2247 0.5508 0.4444
H217? H 1.0831 0.9722 0.5839
H218? H 1.0705 0.9146 0.6078
C274? C 1.2011(5) 0.9462(3) 0.6195(3)
H219? H 1.2349 0.9723 0.5997
H220? H 1.1995 0.9559 0.6518
O26? O 1.3619(5) 0.5398(3) 0.4624(3)
C275? C 1.4455(11) 0.5008(6) 0.4508(4)
H221? H 1.4488 0.4823 0.4215
H222? H 1.4445 0.4739 0.4749
H223? H 1.4988 0.5203 0.4485
C276? C 1.0036(14) 0.5478(8) 0.5684(7)
C277? C 0.9785(19) 0.5376(9) 0.5259(8)
C278? C 1.2577(4) 0.5928(3) 0.5228(2)
H224? H 1.2119 0.5908 0.5061
C279? C 1.2366(4) 0.6213(4) 0.5658(2)
H225? H 1.1767 0.6382 0.5779
C280? C 1.3054(5) 0.6244(4) 0.59074(19)
C281? C 1.3952(4) 0.5990(3) 0.5727(2)
H226? H 1.4411 0.6012 0.5894
C282? C 1.4163(3) 0.5704(3) 0.5298(2)
H227? H 1.4762 0.5533 0.5178
C283? C 1.3475(5) 0.5672(2) 0.50481(19)
C284? C 1.2522(4) 0.8871(2) 0.60779(19)
H228? H 1.2391 0.8715 0.5799
H229? H 1.3187 0.8865 0.6038
Cl1? Cl 1.2241(3) 0.57323(17) 0.39785(17)
Cl2? Cl 1.0850(3) 0.58496(16) 0.34066(12)
C285? C 1.1070(3) 0.5925(4) 0.39667(12)
H230? H 1.0686 0.5700 0.4183
H231? H 1.0896 0.6309 0.4073
H232? H 0.3774 0.8343 0.0924
H233? H 0.4667 0.8446 0.1092
H234? H 0.2324 0.9773 0.1864
H235? H 0.1448 0.9721 0.1660
C286? C 0.2648(5) 0.9236(3) 0.1261(2)
H236? H 0.2409 0.8896 0.1199
H237? H 0.2580 0.9482 0.1008
C287? C 0.3663(6) 0.9100(3) 0.1236(3)
H238? H 0.3801 0.9240 0.1519
H239? H 0.4004 0.9289 0.0974
C288? C 0.8915(12) 0.8321(7) 1.0488(6)
C289? C 0.8235(16) 0.8415(9) 1.0260(8)
H240? H 0.7669 0.8586 1.0430
C290? C 0.8277(14) 0.8298(8) 0.9843(7)
O27? O 0.9692(16) 0.6719(10) 0.8515(6)
O28? O 0.8978(15) 0.6260(7) 0.8425(6)
loop_
_geom_bond_atom_site_label_1
_geom_bond_atom_site_label_2
_geom_bond_site_symmetry_1
_geom_bond_site_symmetry_2
O1 C18 1_555 1_555
O2 C20 1_555 1_555
O3 C45 1_555 1_555
O4 C56 1_555 1_555
O5 C60 1_555 1_555
O6 C67 1_555 1_555
C1 C6 1_555 1_555
C2 C6 1_555 1_555
C3 C12 1_555 1_555
C4 C5 1_555 1_555
C5 C10 1_555 1_555
C6 H1 1_555 1_555
C7 C2 1_555 1_555
C8 C1 1_555 1_555
C9 C2 1_555 1_555
H2 C9 1_555 1_555
C10 H3 1_555 1_555
C11 C1 1_555 1_555
H4 C11 1_555 1_555
O7 C95 1_555 1_555
C12 H5 1_555 1_555
C13 C3 1_555 1_555
C14 C4 1_555 1_555
O8 C72 1_555 1_555
C15 C9 1_555 1_555
C16 C10 1_555 1_555
C17 C8 1_555 1_555
H6 C17 1_555 1_555
C18 C28 1_555 1_555
C19 C14 1_555 1_555
C20 C5 1_555 1_555
C21 C22 1_555 1_555
C22 C3 1_555 1_555
H7 C22 1_555 1_555
C23 C14 1_555 1_555
C24 C15 1_555 1_555
C25 C13 1_555 1_555
C26 C16 1_555 1_555
C27 C29 1_555 1_555
C28 C17 1_555 1_555
H8 C28 1_555 1_555
C29 C12 1_555 1_555
C30 C25 1_555 1_555
C31 C23 1_555 1_555
H9 C31 1_555 1_555
C32 C21 1_555 1_555
H10 C32 1_555 1_555
C33 C18 1_555 1_555
H11 C33 1_555 1_555
O9 C83 1_555 1_555
C34 C8 1_555 1_555
H12 C34 1_555 1_555
C35 C20 1_555 1_555
H13 C35 1_555 1_555
C36 C19 1_555 1_555
C37 C16 1_555 1_555
H14 C37 1_555 1_555
C38 C30 1_555 1_555
H15 C38 1_555 1_555
C39 C30 1_555 1_555
H16 C39 1_555 1_555
C40 C26 1_555 1_555
H17 C40 1_555 1_555
C41 C43 1_555 1_555
C42 C40 1_555 1_555
H18 C42 1_555 1_555
C43 C31 1_555 1_555
C44 C48 1_555 1_555
C45 C42 1_555 1_555
C46 C21 1_555 1_555
C47 C27 1_555 1_555
H19 C47 1_555 1_555
C48 H20 1_555 1_555
C49 C38 1_555 1_555
C50 C47 1_555 1_555
H21 C50 1_555 1_555
C51 C45 1_555 1_555
H22 C51 1_555 1_555
C52 C26 1_555 1_555
H23 C52 1_555 1_555
C53 C48 1_555 1_555
H24 C53 1_555 1_555
C54 C36 1_555 1_555
H25 C54 1_555 1_555
C55 C27 1_555 1_555
H26 C55 1_555 1_555
C56 C53 1_555 1_555
C57 O2 1_555 1_555
H27 C57 1_555 1_555
H28 C57 1_555 1_555
C58 C41 1_555 1_555
H29 C58 1_555 1_555
C59 C36 1_555 1_555
H30 C59 1_555 1_555
C60 C50 1_555 1_555
C61 C39 1_555 1_555
C62 C43 1_555 1_555
H31 C62 1_555 1_555
C63 C46 1_555 1_555
H32 C63 1_555 1_555
C64 C24 1_555 1_555
H33 C64 1_555 1_555
C65 C63 1_555 1_555
H34 C65 1_555 1_555
C66 C58 1_555 1_555
H35 C66 1_555 1_555
C67 C66 1_555 1_555
C68 O1 1_555 1_555
H36 C68 1_555 1_555
H37 C68 1_555 1_555
H38 C68 1_555 1_555
C69 C55 1_555 1_555
H39 C69 1_555 1_555
C70 C56 1_555 1_555
H40 C70 1_555 1_555
O10 C96 1_555 1_555
C71 C44 1_555 1_555
H41 C71 1_555 1_555
C72 C23 1_555 1_555
C73 C41 1_555 1_555
H42 C73 1_555 1_555
C74 C46 1_555 1_555
H43 C74 1_555 1_555
C75 C24 1_555 1_555
H44 C75 1_555 1_555
C76 C49 1_555 1_555
H45 C76 1_555 1_555
C77 C59 1_555 1_555
C78 C62 1_555 1_555
H46 C78 1_555 1_555
C79 O3 1_555 1_555
H47 C79 1_555 1_555
H48 C79 1_555 1_555
H49 C79 1_555 1_555
C80 C54 1_555 1_555
C81 C67 1_555 1_555
H50 C81 1_555 1_555
C82 O4 1_555 1_555
H51 C82 1_555 1_555
H52 C82 1_555 1_555
H53 C82 1_555 1_555
C83 C65 1_555 1_555
C84 C77 1_555 1_555
H54 C84 1_555 1_555
C85 C64 1_555 1_555
H55 C85 1_555 1_555
C86 O5 1_555 1_555
H56 C86 1_555 1_555
H57 C86 1_555 1_555
H58 C86 1_555 1_555
C87 C77 1_555 1_555
C88 C74 1_555 1_555
H59 C88 1_555 1_555
C89 C87 1_555 1_555
H60 C89 1_555 1_555
C90 C75 1_555 1_555
H61 C90 1_555 1_555
C91 O6 1_555 1_555
H62 C91 1_555 1_555
H63 C91 1_555 1_555
H64 C91 1_555 1_555
C92 C61 1_555 1_555
O11 C101 1_555 1_555
C93 C87 1_555 1_555
H65 C93 1_555 1_555
C94 C89 1_555 1_555
H66 C94 1_555 1_555
C95 C94 1_555 1_555
C96 C85 1_555 1_555
C97 C93 1_555 1_555
H67 C97 1_555 1_555
C98 C57 1_555 1_555
H68 C98 1_555 1_555
H69 C98 1_555 1_555
C99 O7 1_555 1_555
H70 C99 1_555 1_555
H71 C99 1_555 1_555
H72 C99 1_555 1_555
C100 C92 1_555 1_555
H73 C100 1_555 1_555
C101 C103 1_555 1_555
C102 O10 1_555 1_555
H74 C102 1_555 1_555
H75 C102 1_555 1_555
H76 C102 1_555 1_555
C103 C100 1_555 1_555
H77 C103 1_555 1_555
C104 O9 1_555 1_555
H78 C104 1_555 1_555
H79 C104 1_555 1_555
H80 C104 1_555 1_555
C105 O8 1_555 1_555
H81 C105 1_555 1_555
H82 C105 1_555 1_555
C106 C92 1_555 1_555
H83 C106 1_555 1_555
C107 C101 1_555 1_555
H84 C107 1_555 1_555
C108 C98 1_555 1_555
H85 C108 1_555 1_555
H86 C108 1_555 1_555
C109 O11 1_555 1_555
H87 C109 1_555 1_555
H88 C109 1_555 1_555
H89 C109 1_555 1_555
C110 H90 1_555 1_555
C111 C110 1_555 1_555
H91 C111 1_555 1_555
C112 C80 1_555 1_555
C113 C112 1_555 1_555
H92 C113 1_555 1_555
C114 C113 1_555 1_555
H93 C114 1_555 1_555
C115 C110 1_555 1_555
O12 C115 1_555 1_555
C116 O12 1_555 1_555
H94 C116 1_555 1_555
H95 C116 1_555 1_555
H96 C116 1_555 1_555
O13 C155 1_555 1_555
O14 C142 1_555 1_555
O15 C136 1_555 1_555
O16 C165 1_555 1_555
O17 C188 1_555 1_555
O18 C186 1_555 1_555
O19 C181 1_555 1_555
O20 C191 1_555 1_555
O21 C200 1_555 1_555
O22 C209 1_555 1_555
C117 C121 1_555 1_555
C118 C120 1_555 1_555
C119 C125 1_555 1_555
C120 C139 1_555 1_555
C121 C129 1_555 1_555
C122 C123 1_555 1_555
C123 H97 1_555 1_555
C124 C117 1_555 1_555
C125 C122 1_555 1_555
H98 C125 1_555 1_555
C126 C127 1_555 1_555
C127 C123 1_555 1_555
C128 C118 1_555 1_555
C129 H99 1_555 1_555
C130 C128 1_555 1_555
C131 C129 1_555 1_555
C132 C119 1_555 1_555
H100 C132 1_555 1_555
C133 C117 1_555 1_555
C134 C143 1_555 1_555
C135 C124 1_555 1_555
C136 C121 1_555 1_555
C137 C131 1_555 1_555
C138 C135 1_555 1_555
H101 C138 1_555 1_555
C139 H102 1_555 1_555
C140 C126 1_555 1_555
H103 C140 1_555 1_555
C141 C119 1_555 1_555
C142 C150 1_555 1_555
C143 C124 1_555 1_555
C144 C136 1_555 1_555
H104 C144 1_555 1_555
C145 C154 1_555 1_555
C146 C126 1_555 1_555
H105 C146 1_555 1_555
C147 C134 1_555 1_555
H106 C147 1_555 1_555
C148 C120 1_555 1_555
H107 C148 1_555 1_555
C149 C131 1_555 1_555
H108 C149 1_555 1_555
C150 C146 1_555 1_555
H109 C150 1_555 1_555
C151 C130 1_555 1_555
H110 C151 1_555 1_555
C152 C160 1_555 1_555
C153 C151 1_555 1_555
C154 C147 1_555 1_555
C155 C135 1_555 1_555
C156 C139 1_555 1_555
C157 C130 1_555 1_555
H111 C157 1_555 1_555
C158 C167 1_555 1_555
C159 C153 1_555 1_555
H112 C159 1_555 1_555
C160 C134 1_555 1_555
H113 C160 1_555 1_555
C161 C140 1_555 1_555
H114 C161 1_555 1_555
C162 C148 1_555 1_555
C163 C156 1_555 1_555
H115 C163 1_555 1_555
C164 C141 1_555 1_555
H116 C164 1_555 1_555
C165 C169 1_555 1_555
C166 H117 1_555 1_555
C167 C138 1_555 1_555
C168 C152 1_555 1_555
H118 C168 1_555 1_555
C169 H119 1_555 1_555
C170 C137 1_555 1_555
H120 C170 1_555 1_555
C171 C141 1_555 1_555
H121 C171 1_555 1_555
C172 C156 1_555 1_555
C173 C157 1_555 1_555
C174 C152 1_555 1_555
C175 C153 1_555 1_555
O23 C225 1_555 1_555
C176 C172 1_555 1_555
H122 C176 1_555 1_555
C177 C166 1_555 1_555
H123 C177 1_555 1_555
C178 C137 1_555 1_555
H124 C178 1_555 1_555
C179 C173 1_555 1_555
C180 C158 1_555 1_555
H125 C180 1_555 1_555
C181 C166 1_555 1_555
C182 C145 1_555 1_555
H126 C182 1_555 1_555
C183 H127 1_555 1_555
C184 C145 1_555 1_555
H128 C184 1_555 1_555
C185 C158 1_555 1_555
H129 C185 1_555 1_555
C186 C192 1_555 1_555
C187 C174 1_555 1_555
H130 C187 1_555 1_555
C188 C183 1_555 1_555
C189 C167 1_555 1_555
H131 C189 1_555 1_555
C190 C165 1_555 1_555
H132 C190 1_555 1_555
C191 C196 1_555 1_555
C192 C171 1_555 1_555
H133 C192 1_555 1_555
C193 C180 1_555 1_555
H134 C193 1_555 1_555
C194 C179 1_555 1_555
H135 C194 1_555 1_555
O24 C221 1_555 1_555
C195 C162 1_555 1_555
C196 C182 1_555 1_555
H136 C196 1_555 1_555
C197 C172 1_555 1_555
H137 C197 1_555 1_555
C198 O13 1_555 1_555
H138 C198 1_555 1_555
H139 C198 1_555 1_555
C199 C164 1_555 1_555
H140 C199 1_555 1_555
C200 C206 1_555 1_555
C201 O15 1_555 1_555
H141 C201 1_555 1_555
H142 C201 1_555 1_555
C202 C155 1_555 1_555
H143 C202 1_555 1_555
C203 C184 1_555 1_555
H144 C203 1_555 1_555
C204 C181 1_555 1_555
H145 C204 1_555 1_555
C205 C175 1_555 1_555
H146 C205 1_555 1_555
C206 C176 1_555 1_555
H147 C206 1_555 1_555
C207 C175 1_555 1_555
H148 C207 1_555 1_555
C208 C179 1_555 1_555
H149 C208 1_555 1_555
C209 C211 1_555 1_555
C210 C197 1_555 1_555
H150 C210 1_555 1_555
C211 C208 1_555 1_555
H151 C211 1_555 1_555
C212 C195 1_555 1_555
H152 C212 1_555 1_555
C213 C195 1_555 1_555
H153 C213 1_555 1_555
C214 C194 1_555 1_555
H154 C214 1_555 1_555
C215 O14 1_555 1_555
H155 C215 1_555 1_555
H156 C215 1_555 1_555
H157 C215 1_555 1_555
C216 O19 1_555 1_555
H158 C216 1_555 1_555
H159 C216 1_555 1_555
H160 C216 1_555 1_555
C217 O17 1_555 1_555
H161 C217 1_555 1_555
H162 C217 1_555 1_555
H163 C217 1_555 1_555
C218 O21 1_555 1_555
H164 C218 1_555 1_555
H165 C218 1_555 1_555
H166 C218 1_555 1_555
C219 C207 1_555 1_555
H167 C219 1_555 1_555
C220 O16 1_555 1_555
H168 C220 1_555 1_555
H169 C220 1_555 1_555
H170 C220 1_555 1_555
C221 C223 1_555 1_555
C222 C205 1_555 1_555
H171 C222 1_555 1_555
C223 C213 1_555 1_555
H172 C223 1_555 1_555
C224 C212 1_555 1_555
H173 C224 1_555 1_555
C225 C219 1_555 1_555
C226 O18 1_555 1_555
H174 C226 1_555 1_555
H175 C226 1_555 1_555
H176 C226 1_555 1_555
C227 O20 1_555 1_555
H177 C227 1_555 1_555
H178 C227 1_555 1_555
H179 C227 1_555 1_555
C228 O22 1_555 1_555
H180 C228 1_555 1_555
H181 C228 1_555 1_555
H182 C228 1_555 1_555
C229 O23 1_555 1_555
H183 C229 1_555 1_555
H184 C229 1_555 1_555
H185 C229 1_555 1_555
C230 C201 1_555 1_555
H186 C230 1_555 1_555
H187 C230 1_555 1_555
C231 C198 1_555 1_555
H188 C231 1_555 1_555
H189 C231 1_555 1_555
C232 O24 1_555 1_555
H190 C232 1_555 1_555
H191 C232 1_555 1_555
H192 C232 1_555 1_555
C233 C234 1_555 1_555
C234 C236 1_555 1_555
C235 C233 1_555 1_555
C236 C239 1_555 1_555
C237 C233 1_555 1_555
H193 C237 1_555 1_555
C238 C234 1_555 1_555
C239 C240 1_555 1_555
C240 C235 1_555 1_555
C241 C237 1_555 1_555
H194 C241 1_555 1_555
C242 C238 1_555 1_555
H195 C242 1_555 1_555
C243 C235 1_555 1_555
H196 C243 1_555 1_555
C244 C240 1_555 1_555
C245 C236 1_555 1_555
H197 C245 1_555 1_555
C246 C239 1_555 1_555
H198 C246 1_555 1_555
C247 C238 1_555 1_555
H199 C247 1_555 1_555
C248 C246 1_555 1_555
H200 C248 1_555 1_555
C249 C245 1_555 1_555
H201 C249 1_555 1_555
C250 C244 1_555 1_555
H202 C250 1_555 1_555
C251 C244 1_555 1_555
H203 C251 1_555 1_555
C252 C243 1_555 1_555
H204 C252 1_555 1_555
C253 C255 1_555 1_555
C254 C256 1_555 1_555
C255 C261 1_555 1_555
C256 C253 1_555 1_555
C257 C254 1_555 1_555
C258 H205 1_555 1_555
C259 H206 1_555 1_555
C260 C253 1_555 1_555
H207 C260 1_555 1_555
C261 C257 1_555 1_555
C262 H208 1_555 1_555
C263 C254 1_555 1_555
C264 C258 1_555 1_555
H209 C264 1_555 1_555
C265 C255 1_555 1_555
C266 C259 1_555 1_555
H210 C266 1_555 1_555
C267 C257 1_555 1_555
H211 C267 1_555 1_555
C268 C256 1_555 1_555
H212 C268 1_555 1_555
C269 C262 1_555 1_555
H213 C269 1_555 1_555
C270 C265 1_555 1_555
H214 C270 1_555 1_555
C271 C261 1_555 1_555
H215 C271 1_555 1_555
C272 C270 1_555 1_555
H216 C272 1_555 1_555
C273 O25 1_555 1_555
C4 C7 1_555 1_555
C7 C13 1_555 1_555
C11 C15 1_555 1_555
C19 C25 1_555 1_555
C29 C32 1_555 1_555
C33 C34 1_555 1_555
C35 C37 1_555 1_555
C44 C49 1_555 1_555
C51 C52 1_555 1_555
C60 C69 1_555 1_555
C61 C76 1_555 1_555
C70 C71 1_555 1_555
C72 C78 1_555 1_555
C73 C81 1_555 1_555
C80 C84 1_555 1_555
C83 C88 1_555 1_555
C90 C96 1_555 1_555
C95 C97 1_555 1_555
C105 C108 1_555 1_555
C106 C107 1_555 1_555
C111 C112 1_555 1_555
C114 C115 1_555 1_555
C118 C133 1_555 1_555
C122 C133 1_555 1_555
C127 C132 1_555 1_555
C128 C143 1_555 1_555
C142 C161 1_555 1_555
C144 C149 1_555 1_555
C154 C168 1_555 1_555
C159 C173 1_555 1_555
C162 C163 1_555 1_555
C169 C178 1_555 1_555
C170 C190 1_555 1_555
C174 C177 1_555 1_555
C183 C185 1_555 1_555
C186 C199 1_555 1_555
C187 C204 1_555 1_555
C188 C193 1_555 1_555
C189 C202 1_555 1_555
C191 C203 1_555 1_555
C200 C210 1_555 1_555
C209 C214 1_555 1_555
C221 C224 1_555 1_555
C222 C225 1_555 1_555
C230 C231 1_555 1_555
C241 C242 1_555 1_555
C247 C249 1_555 1_555
C248 C250 1_555 1_555
C251 C252 1_555 1_555
C258 C263 1_555 1_555
C259 C265 1_555 1_555
C260 C266 1_555 1_555
C262 C263 1_555 1_555
C264 C267 1_555 1_555
C268 C269 1_555 1_555
C271 C272 1_555 1_555

#END
