
#######################################################################
#
#                 Cambridge Crystallographic Data Centre
#                                CCDC 
#
#######################################################################
#
# If this CIF has been generated from an entry in the Cambridge 
# Structural Database, then it will include bibliographic, chemical, 
# crystal, experimental, refinement or atomic coordinate data resulting 
# from the CCDC's data processing and validation procedures.
#
#######################################################################

data_LEDFAC
_chemical_formula_moiety         'C18 H23 N1 O4'
_chemical_name_systematic        15,16-Dimethoxy-1-hydroxy-8-oxoerythrinan
_symmetry_cell_setting           orthorhombic
_symmetry_space_group_name_H-M   'P 21 21 21'
_symmetry_Int_Tables_number      19
_space_group_name_Hall           'P 2ac 2ab'
loop_
_symmetry_equiv_pos_site_id
_symmetry_equiv_pos_as_xyz
1 x,y,z
2 1/2-x,-y,1/2+z
3 -x,1/2+y,1/2-z
4 1/2+x,1/2-y,-z
_cell_length_a                   8.3987(9)
_cell_length_b                   8.4569(9)
_cell_length_c                   23.440(3)
_cell_angle_alpha                90
_cell_angle_beta                 90
_cell_angle_gamma                90
_cell_volume                     1664.87
_exptl_crystal_colour            colorless
_exptl_crystal_description       block
_cell_formula_units_Z            4
loop_
_atom_site_label
_atom_site_type_symbol
_atom_site_fract_x
_atom_site_fract_y
_atom_site_fract_z
O1 O 0.61202(15) -0.03377(15) 0.83330(6)
H1 H 0.6591 -0.1126 0.8195
C1 C 0.4442(2) -0.0609(2) 0.83276(8)
H2 H 0.4121 -0.0897 0.7930
C2 C 0.3940(2) -0.1939(2) 0.87229(8)
H3 H 0.4228 -0.1675 0.9121
H4 H 0.4493 -0.2929 0.8616
C3 C 0.2139(2) -0.2161(2) 0.86734(8)
H5 H 0.1856 -0.2426 0.8275
H6 H 0.1796 -0.3047 0.8921
C4 C 0.1286(2) -0.0652(2) 0.88522(7)
H7 H 0.1454 -0.0493 0.9266
H8 H 0.0130 -0.0797 0.8790
C5 C 0.1820(2) 0.0850(2) 0.85368(7)
C6 C 0.3664(2) 0.0980(2) 0.84788(7)
H9 H 0.4148 0.1443 0.8831
C7 C 0.3851(2) 0.2099(2) 0.79691(7)
H10 H 0.3849 0.3218 0.8093
H11 H 0.4848 0.1879 0.7758
O2 O 0.21737(15) 0.21569(16) 0.71138(5)
C8 C 0.2407(2) 0.17292(19) 0.76082(7)
N1 N 0.13670(16) 0.08681(17) 0.79241(6)
C9 C -0.0331(2) 0.0900(2) 0.77900(7)
H12 H -0.0872 -0.0009 0.7972
H13 H -0.0487 0.0823 0.7372
C10 C -0.1038(2) 0.2450(2) 0.80116(7)
H14 H -0.0891 0.3281 0.7719
H15 H -0.2197 0.2308 0.8070
C11 C -0.0295(2) 0.3002(2) 0.85667(7)
C12 C 0.10282(19) 0.22885(19) 0.88161(7)
C13 C 0.1568(2) 0.2830(2) 0.93504(7)
H16 H 0.2465 0.2340 0.9523
O3 O 0.12160(17) 0.46426(15) 1.01520(5)
C14 C 0.0817(2) 0.4061(2) 0.96280(7)
O4 O -0.11714(17) 0.60053(16) 0.96790(5)
C15 C -0.0502(2) 0.4806(2) 0.93696(7)
C16 C -0.1023(2) 0.4289(2) 0.88440(7)
H17 H -0.1892 0.4811 0.8665
C17 C -0.2595(3) 0.6689(3) 0.94529(10)
H18 H -0.2963 0.7535 0.9707
H19 H -0.3421 0.5875 0.9423
H20 H -0.2378 0.7127 0.9074
C18 C 0.2488(3) 0.3879(4) 1.04371(10)
H21 H 0.2685 0.4404 1.0803
H22 H 0.3450 0.3935 1.0201
H23 H 0.2211 0.2769 1.0504
loop_
_geom_bond_atom_site_label_1
_geom_bond_atom_site_label_2
_geom_bond_site_symmetry_1
_geom_bond_site_symmetry_2
O1 H1 1_555 1_555
C1 O1 1_555 1_555
H2 C1 1_555 1_555
C2 C1 1_555 1_555
H3 C2 1_555 1_555
H4 C2 1_555 1_555
C3 C2 1_555 1_555
H5 C3 1_555 1_555
H6 C3 1_555 1_555
C4 C3 1_555 1_555
H7 C4 1_555 1_555
H8 C4 1_555 1_555
C5 C4 1_555 1_555
C6 C1 1_555 1_555
H9 C6 1_555 1_555
C7 C6 1_555 1_555
H10 C7 1_555 1_555
H11 C7 1_555 1_555
O2 C8 1_555 1_555
C8 C7 1_555 1_555
N1 C5 1_555 1_555
C9 N1 1_555 1_555
H12 C9 1_555 1_555
H13 C9 1_555 1_555
C10 C9 1_555 1_555
H14 C10 1_555 1_555
H15 C10 1_555 1_555
C11 C10 1_555 1_555
C12 C5 1_555 1_555
C13 C12 1_555 1_555
H16 C13 1_555 1_555
O3 C14 1_555 1_555
C14 C13 1_555 1_555
O4 C15 1_555 1_555
C15 C14 1_555 1_555
C16 C11 1_555 1_555
H17 C16 1_555 1_555
C17 O4 1_555 1_555
H18 C17 1_555 1_555
H19 C17 1_555 1_555
H20 C17 1_555 1_555
C18 O3 1_555 1_555
H21 C18 1_555 1_555
H22 C18 1_555 1_555
H23 C18 1_555 1_555
C5 C6 1_555 1_555
C8 N1 1_555 1_555
C11 C12 1_555 1_555
C15 C16 1_555 1_555

#END
