
#######################################################################
#
#                 Cambridge Crystallographic Data Centre
#                                CCDC 
#
#######################################################################
#
# If this CIF has been generated from an entry in the Cambridge 
# Structural Database, then it will include bibliographic, chemical, 
# crystal, experimental, refinement or atomic coordinate data resulting 
# from the CCDC's data processing and validation procedures.
#
#######################################################################

data_LEDFAE
_chemical_formula_moiety         'C21 H23 Cl1 O11'
_chemical_name_systematic        
'3,4,5-tris(acetyloxy)-6-[(acetyloxy)methyl]oxan-2-yl 4-chlorobenzoate'
_chemical_properties_biological  'potent acaricidal activity'
_symmetry_cell_setting           monoclinic
_symmetry_space_group_name_H-M   'I 2'
_symmetry_Int_Tables_number      5
_space_group_name_Hall           'I 2y'
loop_
_symmetry_equiv_pos_site_id
_symmetry_equiv_pos_as_xyz
1 x,y,z
2 -x,y,-z
3 1/2+x,1/2+y,1/2+z
4 1/2-x,1/2+y,1/2-z
_cell_length_a                   12.0425(6)
_cell_length_b                   14.1741(6)
_cell_length_c                   13.9853(7)
_cell_angle_alpha                90
_cell_angle_beta                 99.356(5)
_cell_angle_gamma                90
_cell_volume                     2355.42
_exptl_crystal_colour            colorless
_exptl_crystal_description       block
_cell_formula_units_Z            4
loop_
_atom_site_label
_atom_site_type_symbol
_atom_site_fract_x
_atom_site_fract_y
_atom_site_fract_z
Cl1 Cl -1.25457(14) -0.15654(11) -0.38716(11)
O1 O -0.8783(3) -0.49330(19) -0.3870(2)
O2 O -0.7545(3) -0.3734(2) -0.3590(3)
O3 O -0.8317(2) -0.6609(2) -0.27798(19)
O4 O -1.0200(3) -0.6565(4) -0.2926(3)
O5 O -0.8331(3) -0.8180(2) -0.4070(2)
O6 O -0.6779(3) -0.9056(2) -0.3624(3)
O7 O -0.6706(3) -0.7807(2) -0.5454(2)
O8 O -0.8042(5) -0.8768(4) -0.6209(4)
O9 O -0.6644(3) -0.5009(2) -0.6456(3)
O10 O -0.4939(3) -0.5544(3) -0.6596(4)
O11 O -0.7881(3) -0.5514(2) -0.5027(2)
C1 C -0.7937(4) -0.5579(3) -0.4037(3)
H1 H -0.7211 -0.5440 -0.3634
C2 C -0.8376(3) -0.6539(3) -0.3815(3)
H2 H -0.9161 -0.6601 -0.4130
C3 C -0.7681(4) -0.7328(3) -0.4155(3)
H3 H -0.6946 -0.7369 -0.3738
C4 C -0.7537(4) -0.7168(3) -0.5198(3)
H4 H -0.8256 -0.7263 -0.5628
C5 C -0.7103(4) -0.6174(3) -0.5324(3)
H5 H -0.6361 -0.6094 -0.4926
C6 C -0.7038(5) -0.5957(3) -0.6362(4)
H6 H -0.6530 -0.6398 -0.6599
H7 H -0.7777 -0.6030 -0.6752
C7 C -0.9302(4) -0.6576(4) -0.2423(4)
C8 C -0.9075(5) -0.6541(4) -0.1349(3)
H8 H -0.8496 -0.6987 -0.1111
H9 H -0.9749 -0.6695 -0.1099
H10 H -0.8833 -0.5918 -0.1142
C9 C -0.7776(5) -0.8992(3) -0.3805(4)
C10 C -0.8607(6) -0.9774(3) -0.3804(5)
H11 H -0.9298 -0.9526 -0.3650
H12 H -0.8310 -1.0237 -0.3328
H13 H -0.8746 -1.0064 -0.4433
C11 C -0.7062(7) -0.8563(4) -0.6007(4)
C12 C -0.6092(6) -0.9125(4) -0.6238(5)
H14 H -0.5477 -0.8710 -0.6296
H15 H -0.6314 -0.9455 -0.6839
H16 H -0.5862 -0.9572 -0.5729
C13 C -0.5563(4) -0.4898(4) -0.6552(4)
C14 C -0.5267(5) -0.3880(4) -0.6596(5)
H17 H -0.5576 -0.3632 -0.7222
H18 H -0.4463 -0.3812 -0.6492
H19 H -0.5572 -0.3541 -0.6104
C15 C -0.8497(4) -0.4020(3) -0.3696(3)
C16 C -0.9509(4) -0.3432(3) -0.3684(3)
C17 C -1.1510(4) -0.3247(4) -0.3902(4)
H20 H -1.2229 -0.3506 -0.4020
C18 C -1.0576(4) -0.3815(3) -0.3849(3)
H21 H -1.0665 -0.4464 -0.3924
C19 C -1.1365(4) -0.2295(4) -0.3777(3)
C20 C -1.0318(5) -0.1899(3) -0.3595(4)
H22 H -1.0235 -0.1252 -0.3498
C21 C -0.9387(4) -0.2470(3) -0.3555(4)
H23 H -0.8671 -0.2205 -0.3440
loop_
_geom_bond_atom_site_label_1
_geom_bond_atom_site_label_2
_geom_bond_site_symmetry_1
_geom_bond_site_symmetry_2
Cl1 C19 1_555 1_555
O1 C1 1_555 1_555
O2 C15 1_555 1_555
O3 C2 1_555 1_555
O4 C7 1_555 1_555
O5 C3 1_555 1_555
O6 C9 1_555 1_555
O7 C4 1_555 1_555
O8 C11 1_555 1_555
O9 C6 1_555 1_555
O10 C13 1_555 1_555
O11 C1 1_555 1_555
C1 H1 1_555 1_555
C2 C1 1_555 1_555
H2 C2 1_555 1_555
C3 C2 1_555 1_555
H3 C3 1_555 1_555
C4 C3 1_555 1_555
H4 C4 1_555 1_555
C5 O11 1_555 1_555
H5 C5 1_555 1_555
C6 C5 1_555 1_555
H6 C6 1_555 1_555
H7 C6 1_555 1_555
C7 O3 1_555 1_555
C8 C7 1_555 1_555
H8 C8 1_555 1_555
H9 C8 1_555 1_555
H10 C8 1_555 1_555
C9 O5 1_555 1_555
C10 C9 1_555 1_555
H11 C10 1_555 1_555
H12 C10 1_555 1_555
H13 C10 1_555 1_555
C11 O7 1_555 1_555
C12 C11 1_555 1_555
H14 C12 1_555 1_555
H15 C12 1_555 1_555
H16 C12 1_555 1_555
C13 O9 1_555 1_555
C14 C13 1_555 1_555
H17 C14 1_555 1_555
H18 C14 1_555 1_555
H19 C14 1_555 1_555
C15 O1 1_555 1_555
C16 C15 1_555 1_555
C17 H20 1_555 1_555
C18 C16 1_555 1_555
H21 C18 1_555 1_555
C19 C17 1_555 1_555
C20 C19 1_555 1_555
H22 C20 1_555 1_555
C21 C16 1_555 1_555
H23 C21 1_555 1_555
C4 C5 1_555 1_555
C17 C18 1_555 1_555
C20 C21 1_555 1_555

#END
