
#######################################################################
#
#                 Cambridge Crystallographic Data Centre
#                                CCDC 
#
#######################################################################
#
# If this CIF has been generated from an entry in the Cambridge 
# Structural Database, then it will include bibliographic, chemical, 
# crystal, experimental, refinement or atomic coordinate data resulting 
# from the CCDC's data processing and validation procedures.
#
#######################################################################

data_LEDLUE
_chemical_formula_moiety         'C23 H22 N4 O5 S1,C2 H6 O1 S1'
_chemical_name_systematic        
'1-[(4-methoxyphenyl)methyl]-6-{[(4-methoxyphenyl)methyl]amino}-4-(methylsulfanyl)-5-nitro-2-oxo-1,2-dihydropyridine-3-carbonitrile dimethyl sulfoxide solvate'
_symmetry_cell_setting           triclinic
_symmetry_space_group_name_H-M   'P -1'
_symmetry_Int_Tables_number      2
_space_group_name_Hall           '-P 1'
loop_
_symmetry_equiv_pos_site_id
_symmetry_equiv_pos_as_xyz
1 x,y,z
2 -x,-y,-z
_cell_length_a                   10.2637(11)
_cell_length_b                   12.3231(14)
_cell_length_c                   12.7383(14)
_cell_angle_alpha                97.1560(10)
_cell_angle_beta                 107.7330(10)
_cell_angle_gamma                112.9910(10)
_cell_volume                     1357.11
_exptl_crystal_colour            yellow
_exptl_crystal_description       block
_cell_formula_units_Z            2
loop_
_atom_site_label
_atom_site_type_symbol
_atom_site_fract_x
_atom_site_fract_y
_atom_site_fract_z
N1 N 0.7810(2) 0.74041(19) 0.24417(19)
N2 N 0.9286(3) 1.0744(2) 0.2884(2)
N3 N 0.6439(3) 0.8492(2) 0.1876(2)
H1 H 0.5767 0.7842 0.1328
N4 N 1.2624(3) 0.8141(3) 0.5200(3)
O1 O 0.9011(2) 0.62711(19) 0.3115(2)
O2 O 0.8903(3) 1.0789(2) 0.1881(2)
O3 O 0.9797(3) 1.1628(2) 0.3698(2)
O4 O 0.1577(3) 0.4611(3) 0.3284(2)
O5 O -0.0428(2) 0.7568(2) 0.0811(2)
S1 S 1.21885(9) 1.09372(8) 0.45331(8)
C1 C 1.0491(3) 0.9545(3) 0.3781(2)
C2 C 1.0440(3) 0.8422(3) 0.3821(2)
C3 C 0.9091(3) 0.7287(3) 0.3118(3)
C4 C 0.7781(3) 0.8509(2) 0.2454(2)
C5 C 0.9160(3) 0.9584(2) 0.3099(2)
C6 C 1.1665(4) 0.8274(3) 0.4582(3)
C7 C 0.6431(3) 0.6246(2) 0.1727(2)
H2 H 0.6738 0.5601 0.1635
H3 H 0.6005 0.6340 0.0971
C8 C 0.5199(3) 0.5851(2) 0.2199(3)
C9 C 0.3669(4) 0.5196(3) 0.1439(3)
H4 H 0.3434 0.5028 0.0653
C10 C 0.2508(4) 0.4795(3) 0.1828(3)
H5 H 0.1497 0.4351 0.1306
C11 C 0.2827(4) 0.5045(3) 0.2984(3)
C12 C 0.4331(4) 0.5705(3) 0.3764(3)
H6 H 0.4555 0.5882 0.4548
C13 C 0.5513(3) 0.6103(3) 0.3353(3)
H7 H 0.6527 0.6545 0.3872
C14 C 0.1776(5) 0.4886(4) 0.4439(3)
H8 H 0.2514 0.4649 0.4872
H9 H 0.0814 0.4446 0.4506
H10 H 0.2137 0.5752 0.4729
C15 C 0.6011(3) 0.9472(3) 0.2089(3)
H11 H 0.6336 1.0042 0.1653
H12 H 0.6532 0.9918 0.2897
C16 C 0.4303(3) 0.8960(3) 0.1753(2)
C17 C 0.3476(4) 0.8035(3) 0.2148(3)
H13 H 0.3989 0.7705 0.2640
C18 C 0.1915(4) 0.7591(3) 0.1830(3)
H14 H 0.1385 0.6961 0.2097
C19 C 0.1128(3) 0.8086(3) 0.1108(3)
C20 C 0.1931(4) 0.9016(3) 0.0720(3)
H15 H 0.1422 0.9360 0.0243
C21 C 0.3492(4) 0.9439(3) 0.1038(3)
H16 H 0.4018 1.0065 0.0765
C22 C -0.1252(4) 0.8083(4) 0.0099(3)
H17 H -0.0914 0.8918 0.0497
H18 H -0.2330 0.7618 -0.0084
H19 H -0.1066 0.8058 -0.0596
C23 C 1.3634(4) 1.0685(4) 0.4217(5)
H20 H 1.4002 1.0259 0.4721
H21 H 1.4469 1.1459 0.4322
H22 H 1.3214 1.0200 0.3436
O6 O 0.5467(3) 0.3156(2) 0.04222(19)
S2 S 0.63140(12) 0.26205(8) 0.11568(8)
C24 C 0.6432(8) 0.3150(5) 0.2559(4)
H23 H 0.6928 0.4031 0.2793
H24 H 0.7015 0.2855 0.3082
H25 H 0.5418 0.2851 0.2560
C25 C 0.8255(5) 0.3494(4) 0.1395(5)
H26 H 0.8410 0.3310 0.0701
H27 H 0.8885 0.3298 0.1990
H28 H 0.8528 0.4351 0.1624
loop_
_geom_bond_atom_site_label_1
_geom_bond_atom_site_label_2
_geom_bond_site_symmetry_1
_geom_bond_site_symmetry_2
N1 C3 1_555 1_555
N2 O2 1_555 1_555
N3 H1 1_555 1_555
N4 C6 1_555 1_555
O1 C3 1_555 1_555
O3 N2 1_555 1_555
O4 C11 1_555 1_555
O5 C19 1_555 1_555
S1 C1 1_555 1_555
C1 C2 1_555 1_555
C2 C3 1_555 1_555
C4 N1 1_555 1_555
C5 N2 1_555 1_555
C6 C2 1_555 1_555
C7 N1 1_555 1_555
H2 C7 1_555 1_555
H3 C7 1_555 1_555
C8 C7 1_555 1_555
C9 C8 1_555 1_555
H4 C9 1_555 1_555
C10 C9 1_555 1_555
H5 C10 1_555 1_555
C11 C10 1_555 1_555
C12 C11 1_555 1_555
H6 C12 1_555 1_555
C13 C8 1_555 1_555
H7 C13 1_555 1_555
C14 O4 1_555 1_555
H8 C14 1_555 1_555
H9 C14 1_555 1_555
H10 C14 1_555 1_555
C15 N3 1_555 1_555
H11 C15 1_555 1_555
H12 C15 1_555 1_555
C16 C15 1_555 1_555
C17 C16 1_555 1_555
H13 C17 1_555 1_555
C18 C17 1_555 1_555
H14 C18 1_555 1_555
C19 C18 1_555 1_555
C20 C19 1_555 1_555
H15 C20 1_555 1_555
C21 C16 1_555 1_555
H16 C21 1_555 1_555
C22 O5 1_555 1_555
H17 C22 1_555 1_555
H18 C22 1_555 1_555
H19 C22 1_555 1_555
C23 S1 1_555 1_555
H20 C23 1_555 1_555
H21 C23 1_555 1_555
H22 C23 1_555 1_555
O6 S2 1_555 1_555
S2 C24 1_555 1_555
C24 H23 1_555 1_555
H24 C24 1_555 1_555
H25 C24 1_555 1_555
C25 S2 1_555 1_555
H26 C25 1_555 1_555
H27 C25 1_555 1_555
H28 C25 1_555 1_555
N3 C4 1_555 1_555
C1 C5 1_555 1_555
C4 C5 1_555 1_555
C12 C13 1_555 1_555
C20 C21 1_555 1_555

#END
