
#######################################################################
#
#                 Cambridge Crystallographic Data Centre
#                                CCDC 
#
#######################################################################
#
# If this CIF has been generated from an entry in the Cambridge 
# Structural Database, then it will include bibliographic, chemical, 
# crystal, experimental, refinement or atomic coordinate data resulting 
# from the CCDC's data processing and validation procedures.
#
#######################################################################

data_LEDSIW
_chemical_formula_moiety         'C20 H24 O9'
_chemical_name_systematic        'C-(\b-D-Glucopyranosyl)benzene tetra-acetate'
_symmetry_cell_setting           orthorhombic
_symmetry_space_group_name_H-M   'P 21 21 21'
_symmetry_Int_Tables_number      19
_space_group_name_Hall           'P 2ac 2ab'
loop_
_symmetry_equiv_pos_site_id
_symmetry_equiv_pos_as_xyz
1 x,y,z
2 1/2+x,1/2-y,-z
3 -x,1/2+y,1/2-z
4 1/2-x,-y,1/2+z
_cell_length_a                   26.135(5)
_cell_length_b                   13.881(4)
_cell_length_c                   5.755(3)
_cell_angle_alpha                90
_cell_angle_beta                 90
_cell_angle_gamma                90
_cell_volume                     2087.8
_cell_formula_units_Z            4
loop_
_atom_site_label
_atom_site_type_symbol
_atom_site_fract_x
_atom_site_fract_y
_atom_site_fract_z
C1 C 0.3464(2) 0.4122(4) -0.6777(10)
C2 C 0.4034(2) 0.4135(4) -0.7208(10)
C3 C 0.4198(2) 0.3231(5) -0.8430(9)
C4 C 0.4011(2) 0.2331(4) -0.7155(11)
C5 C 0.3453(2) 0.2416(4) -0.6425(12)
C6 C 0.3314(3) 0.1629(5) -0.4706(14)
C7 C 0.3250(2) 0.5017(4) -0.5719(9)
C8 C 0.3419(2) 0.5349(5) -0.3551(10)
C9 C 0.3219(2) 0.6187(5) -0.2619(12)
C10 C 0.2849(2) 0.6699(5) -0.3796(13)
C11 C 0.2680(2) 0.6387(5) -0.5931(13)
C12 C 0.2876(2) 0.5535(4) -0.6857(11)
C13 C 0.4427(2) 0.5684(4) -0.7945(11)
C14 C 0.4515(2) 0.6403(4) -0.9819(12)
C15 C 0.4969(2) 0.3186(4) -1.0729(10)
C16 C 0.5533(2) 0.3162(4) -1.0517(12)
C17 C 0.4249(2) 0.0698(4) -0.8135(12)
C18 C 0.4303(3) 0.0020(5) -1.0123(13)
C19 C 0.2576(3) 0.1077(6) -0.2789(18)
C20 C 0.2009(3) 0.1110(6) -0.2804(20)
O1 O 0.4161(1) 0.4917(2) -0.8765(6)
O2 O 0.4749(1) 0.3187(3) -0.8581(6)
O3 O 0.4064(1) 0.1555(3) -0.8822(7)
O4 O 0.3357(1) 0.3315(2) -0.5327(6)
O5 O 0.2762(2) 0.1644(3) -0.4489(9)
O6 O 0.4563(2) 0.5749(3) -0.5969(7)
O7 O 0.4727(2) 0.3204(5) -1.2496(7)
O8 O 0.4349(2) 0.0521(3) -0.6118(8)
O9 O 0.2838(3) 0.0585(6) -0.1640(15)
H1 H 0.326 0.400 -0.838
H2 H 0.422 0.421 -0.586
H3 H 0.406 0.316 -0.978
H4 H 0.426 0.217 -0.574
H5 H 0.327 0.235 -0.772
H6 H 0.344 0.092 -0.530
H7 H 0.346 0.177 -0.328
H8 H 0.370 0.495 -0.292
H9 H 0.337 0.651 -0.104
H10 H 0.271 0.737 -0.310
H11 H 0.240 0.680 -0.680
H12 H 0.273 0.532 -0.823
H13 H 0.479 0.689 -0.936
H14 H 0.417 0.665 -1.030
H15 H 0.475 0.608 -1.089
H16 H 0.565 0.257 -0.990
H17 H 0.568 0.361 -0.944
H18 H 0.571 0.326 -1.207
H19 H 0.424 0.018 -1.134
H20 H 0.461 -0.035 -0.988
H21 H 0.400 -0.036 -1.010
H22 H 0.191 0.050 -0.276
H23 H 0.184 0.103 -0.088
H24 H 0.187 0.172 -0.294
loop_
_geom_bond_atom_site_label_1
_geom_bond_atom_site_label_2
_geom_bond_site_symmetry_1
_geom_bond_site_symmetry_2
C1 C2 1_555 1_555
C2 C3 1_555 1_555
C3 C4 1_555 1_555
C4 C5 1_555 1_555
C5 C6 1_555 1_555
C6 O5 1_555 1_555
C7 C1 1_555 1_555
C8 C7 1_555 1_555
C9 C8 1_555 1_555
C10 C9 1_555 1_555
C11 C10 1_555 1_555
C12 C7 1_555 1_555
C13 C14 1_555 1_555
C14 H13 1_555 1_555
C15 C16 1_555 1_555
C16 H16 1_555 1_555
C17 C18 1_555 1_555
C18 H19 1_555 1_555
C19 C20 1_555 1_555
C20 H22 1_555 1_555
O1 C2 1_555 1_555
O2 C3 1_555 1_555
O3 C4 1_555 1_555
O4 C1 1_555 1_555
O5 C19 1_555 1_555
O6 C13 1_555 1_555
O7 C15 1_555 1_555
O8 C17 1_555 1_555
O9 C19 1_555 1_555
H1 C1 1_555 1_555
H2 C2 1_555 1_555
H3 C3 1_555 1_555
H4 C4 1_555 1_555
H5 C5 1_555 1_555
H6 C6 1_555 1_555
H7 C6 1_555 1_555
H8 C8 1_555 1_555
H9 C9 1_555 1_555
H10 C10 1_555 1_555
H11 C11 1_555 1_555
H12 C12 1_555 1_555
H14 C14 1_555 1_555
H15 C14 1_555 1_555
H17 C16 1_555 1_555
H18 C16 1_555 1_555
H20 C18 1_555 1_555
H21 C18 1_555 1_555
H23 C20 1_555 1_555
H24 C20 1_555 1_555
C5 O4 1_555 1_555
C11 C12 1_555 1_555
C13 O1 1_555 1_555
C15 O2 1_555 1_555
C17 O3 1_555 1_555

#END
