
#######################################################################
#
#                 Cambridge Crystallographic Data Centre
#                                CCDC 
#
#######################################################################
#
# If this CIF has been generated from an entry in the Cambridge 
# Structural Database, then it will include bibliographic, chemical, 
# crystal, experimental, refinement or atomic coordinate data resulting 
# from the CCDC's data processing and validation procedures.
#
#######################################################################

data_LEDTIZ01
_chemical_formula_moiety         'C24 H19 N3 O1'
_chemical_name_systematic        
3,5-diphenyl-1-(quinolin-2-yl)-4,5-dihydro-1H-pyrazol-5-ol
_symmetry_cell_setting           monoclinic
_symmetry_space_group_name_H-M   'C 2/c'
_symmetry_Int_Tables_number      15
_space_group_name_Hall           '-C 2yn'
loop_
_symmetry_equiv_pos_site_id
_symmetry_equiv_pos_as_xyz
1 x,y,z
2 -x,y,1/2-z
3 1/2+x,1/2+y,z
4 1/2-x,1/2+y,1/2-z
5 -x,-y,-z
6 x,-y,1/2+z
7 1/2-x,1/2-y,-z
8 1/2+x,1/2-y,1/2+z
_cell_length_a                   30.452(3)
_cell_length_b                   7.9201(9)
_cell_length_c                   16.5073(17)
_cell_angle_alpha                90
_cell_angle_beta                 113.549(2)
_cell_angle_gamma                90
_cell_volume                     3649.71
_exptl_crystal_colour            yellow
_exptl_crystal_description       rod
_cell_formula_units_Z            8
loop_
_atom_site_label
_atom_site_type_symbol
_atom_site_fract_x
_atom_site_fract_y
_atom_site_fract_z
C1 C 0.09611(6) 0.4004(2) 0.50642(11)
C2 C 0.11460(6) 0.4286(2) 0.60709(10)
H1 H 0.1159 0.5504 0.6214
H2 H 0.0940 0.3704 0.6320
C3 C 0.16387(6) 0.3527(2) 0.64147(11)
C4 C 0.19698(6) 0.3417(2) 0.73450(10)
C5 C 0.18606(6) 0.4193(2) 0.80023(11)
H3 H 0.1562 0.4752 0.7851
C6 C 0.21890(6) 0.4149(2) 0.88774(11)
H4 H 0.2115 0.4693 0.9320
C7 C 0.26210(6) 0.3323(2) 0.91091(11)
H5 H 0.2845 0.3312 0.9707
C8 C 0.27261(6) 0.2509(2) 0.84632(11)
H6 H 0.3020 0.1919 0.8622
C9 C 0.24048(6) 0.2553(2) 0.75911(11)
H7 H 0.2480 0.1992 0.7154
C10 C 0.07810(6) 0.5608(2) 0.45261(10)
C11 C 0.10968(6) 0.6701(2) 0.43787(11)
H8 H 0.1428 0.6425 0.4597
C12 C 0.09343(7) 0.8201(2) 0.39134(11)
H9 H 0.1153 0.8933 0.3808
C13 C 0.04558(7) 0.8619(2) 0.36063(11)
H10 H 0.0344 0.9642 0.3291
C14 C 0.01395(7) 0.7547(2) 0.37584(12)
H11 H -0.0190 0.7841 0.3552
C15 C 0.02996(6) 0.6040(2) 0.42121(11)
H12 H 0.0079 0.5303 0.4308
C16 C 0.13959(6) 0.2583(2) 0.42313(10)
C17 C 0.18190(6) 0.1792(2) 0.42396(11)
H13 H 0.2102 0.1733 0.4767
C18 C 0.18056(6) 0.1129(2) 0.34729(11)
H14 H 0.2081 0.0589 0.3460
C19 C 0.13806(6) 0.12374(19) 0.26871(11)
C20 C 0.13403(7) 0.0578(2) 0.18650(11)
H15 H 0.1608 0.0038 0.1819
C21 C 0.09188(6) 0.0711(2) 0.11347(11)
H16 H 0.0896 0.0261 0.0586
C22 C 0.05203(6) 0.1507(2) 0.11926(11)
H17 H 0.0230 0.1597 0.0682
C23 C 0.05480(6) 0.2159(2) 0.19842(11)
H18 H 0.0277 0.2698 0.2016
C24 C 0.09771(6) 0.20334(19) 0.27487(10)
N1 N 0.17656(5) 0.30014(17) 0.57980(9)
N2 N 0.13972(5) 0.33472(18) 0.49878(9)
N3 N 0.09873(5) 0.26781(17) 0.35283(9)
O1 O 0.06032(4) 0.27403(15) 0.48267(8)
H19 H 0.0524 0.2477 0.4294
loop_
_geom_bond_atom_site_label_1
_geom_bond_atom_site_label_2
_geom_bond_site_symmetry_1
_geom_bond_site_symmetry_2
C1 C2 1_555 1_555
C2 H1 1_555 1_555
H2 C2 1_555 1_555
C3 C2 1_555 1_555
C4 C3 1_555 1_555
C5 C4 1_555 1_555
H3 C5 1_555 1_555
C6 C5 1_555 1_555
H4 C6 1_555 1_555
C7 C6 1_555 1_555
H5 C7 1_555 1_555
C8 C7 1_555 1_555
H6 C8 1_555 1_555
C9 C4 1_555 1_555
H7 C9 1_555 1_555
C10 C1 1_555 1_555
C11 C10 1_555 1_555
H8 C11 1_555 1_555
C12 C11 1_555 1_555
H9 C12 1_555 1_555
C13 C12 1_555 1_555
H10 C13 1_555 1_555
C14 C13 1_555 1_555
H11 C14 1_555 1_555
C15 C10 1_555 1_555
H12 C15 1_555 1_555
C16 C17 1_555 1_555
C17 H13 1_555 1_555
C18 C17 1_555 1_555
H14 C18 1_555 1_555
C19 C18 1_555 1_555
C20 C19 1_555 1_555
H15 C20 1_555 1_555
C21 C20 1_555 1_555
H16 C21 1_555 1_555
C22 C21 1_555 1_555
H17 C22 1_555 1_555
C23 C22 1_555 1_555
H18 C23 1_555 1_555
C24 C19 1_555 1_555
N1 C3 1_555 1_555
N2 C1 1_555 1_555
N3 C16 1_555 1_555
O1 C1 1_555 1_555
H19 O1 1_555 1_555
C8 C9 1_555 1_555
C14 C15 1_555 1_555
C16 N2 1_555 1_555
C23 C24 1_555 1_555
C24 N3 1_555 1_555
N1 N2 1_555 1_555

#END
