
#######################################################################
#
#                 Cambridge Crystallographic Data Centre
#                                CCDC 
#
#######################################################################
#
# If this CIF has been generated from an entry in the Cambridge 
# Structural Database, then it will include bibliographic, chemical, 
# crystal, experimental, refinement or atomic coordinate data resulting 
# from the CCDC's data processing and validation procedures.
#
#######################################################################

data_LEDTAR
_chemical_formula_moiety         'C14 H22 N3 1+,Br1 1-'
_chemical_name_systematic        
'1-Benzyl-2-(dimethylamino)-3-methyl-3,4,5,6-tetrahydropyrimidin-1-ium bromide'
_symmetry_cell_setting           monoclinic
_symmetry_space_group_name_H-M   'P 21/n'
_symmetry_Int_Tables_number      14
_space_group_name_Hall           '-P 2yn'
loop_
_symmetry_equiv_pos_site_id
_symmetry_equiv_pos_as_xyz
1 x,y,z
2 1/2-x,1/2+y,1/2-z
3 -x,-y,-z
4 1/2+x,1/2-y,1/2+z
_cell_length_a                   10.7814(7)
_cell_length_b                   11.8538(8)
_cell_length_c                   11.4782(8)
_cell_angle_alpha                90
_cell_angle_beta                 93.332(8)
_cell_angle_gamma                90
_cell_volume                     1464.44
_exptl_crystal_colour            colorless
_exptl_crystal_description       block
_chemical_melting_point          '402 K'
_cell_formula_units_Z            4
loop_
_atom_site_label
_atom_site_type_symbol
_atom_site_fract_x
_atom_site_fract_y
_atom_site_fract_z
Br1 Br 0.19725(3) 0.75077(3) 0.59957(2)
N1 N 0.1492(2) 0.20807(19) 0.58797(18)
N2 N 0.3599(2) 0.2078(2) 0.5530(2)
N3 N 0.2549(2) 0.37602(18) 0.57696(19)
C1 C 0.2552(3) 0.2632(2) 0.5746(2)
C2 C 0.3930(4) 0.1018(3) 0.6102(3)
H1 H 0.3435 0.0914 0.6762
H2 H 0.4794 0.1030 0.6359
H3 H 0.3781 0.0407 0.5562
C3 C 0.4411(3) 0.2456(3) 0.4638(3)
H4 H 0.4046 0.3098 0.4239
H5 H 0.4517 0.1858 0.4090
H6 H 0.5205 0.2663 0.4998
C4 C 0.3625(3) 0.4382(3) 0.6263(3)
H7 H 0.4187 0.3869 0.6668
H8 H 0.3356 0.4941 0.6799
H9 H 0.4039 0.4745 0.5647
C5 C 0.1329(3) 0.4295(2) 0.5823(3)
H10 H 0.0836 0.4167 0.5101
H11 H 0.1424 0.5102 0.5937
C6 C 0.0696(3) 0.3774(3) 0.6841(3)
H12 H 0.1211 0.3866 0.7556
H13 H -0.0096 0.4141 0.6938
C7 C 0.0500(3) 0.2536(3) 0.6579(2)
H14 H 0.0485 0.2120 0.7306
H15 H -0.0297 0.2433 0.6156
C8 C 0.1207(3) 0.0990(2) 0.5305(3)
H16 H 0.0320 0.0857 0.5304
H17 H 0.1620 0.0393 0.5757
C9 C 0.1602(3) 0.0927(2) 0.4063(2)
C10 C 0.2077(3) -0.0062(2) 0.3643(3)
H18 H 0.2187 -0.0681 0.4136
C11 C 0.2395(4) -0.0142(3) 0.2485(3)
H19 H 0.2696 -0.0818 0.2203
C12 C 0.2262(3) 0.0771(3) 0.1770(3)
H20 H 0.2500 0.0725 0.1005
C13 C 0.1780(3) 0.1759(3) 0.2172(2)
H21 H 0.1687 0.2378 0.1677
C14 C 0.1432(3) 0.1838(3) 0.3311(2)
H22 H 0.1084 0.2502 0.3573
loop_
_geom_bond_atom_site_label_1
_geom_bond_atom_site_label_2
_geom_bond_site_symmetry_1
_geom_bond_site_symmetry_2
N1 C1 1_555 1_555
N2 C1 1_555 1_555
N3 C1 1_555 1_555
C2 N2 1_555 1_555
H1 C2 1_555 1_555
H2 C2 1_555 1_555
H3 C2 1_555 1_555
C3 N2 1_555 1_555
H4 C3 1_555 1_555
H5 C3 1_555 1_555
H6 C3 1_555 1_555
C4 N3 1_555 1_555
H7 C4 1_555 1_555
H8 C4 1_555 1_555
H9 C4 1_555 1_555
C5 N3 1_555 1_555
H10 C5 1_555 1_555
H11 C5 1_555 1_555
C6 C5 1_555 1_555
H12 C6 1_555 1_555
H13 C6 1_555 1_555
C7 N1 1_555 1_555
H14 C7 1_555 1_555
H15 C7 1_555 1_555
C8 N1 1_555 1_555
H16 C8 1_555 1_555
H17 C8 1_555 1_555
C9 C8 1_555 1_555
C10 C9 1_555 1_555
H18 C10 1_555 1_555
C11 C10 1_555 1_555
H19 C11 1_555 1_555
C12 C11 1_555 1_555
H20 C12 1_555 1_555
C13 C12 1_555 1_555
H21 C13 1_555 1_555
C14 C9 1_555 1_555
H22 C14 1_555 1_555
C6 C7 1_555 1_555
C13 C14 1_555 1_555

#END
