
#######################################################################
#
#                 Cambridge Crystallographic Data Centre
#                                CCDC 
#
#######################################################################
#
# If this CIF has been generated from an entry in the Cambridge 
# Structural Database, then it will include bibliographic, chemical, 
# crystal, experimental, refinement or atomic coordinate data resulting 
# from the CCDC's data processing and validation procedures.
#
#######################################################################

data_LEDWUO
_chemical_formula_moiety         '2(C8 H9 N2 O4 1-),C2 H10 N2 2+,H2 O1'
_chemical_name_systematic        
'Ethane-1,2-diaminium bis(4-carboxy-2-propyl-1H-imidazole-5-carboxyate) monohydrate'
_symmetry_cell_setting           monoclinic
_symmetry_space_group_name_H-M   'C 2/c'
_symmetry_Int_Tables_number      15
_space_group_name_Hall           '-C 2yn'
loop_
_symmetry_equiv_pos_site_id
_symmetry_equiv_pos_as_xyz
1 x,y,z
2 -x,y,1/2-z
3 1/2+x,1/2+y,z
4 1/2-x,1/2+y,1/2-z
5 -x,-y,-z
6 x,-y,1/2+z
7 1/2-x,1/2-y,-z
8 1/2+x,1/2-y,1/2+z
_cell_length_a                   15.234(4)
_cell_length_b                   16.859(4)
_cell_length_c                   9.699(3)
_cell_angle_alpha                90
_cell_angle_beta                 112.991(5)
_cell_angle_gamma                90
_cell_volume                     2293.13
_exptl_crystal_colour            colorless
_exptl_crystal_description       block
_cell_formula_units_Z            4
loop_
_atom_site_label
_atom_site_type_symbol
_atom_site_fract_x
_atom_site_fract_y
_atom_site_fract_z
N1 N 0.21377(15) 0.37000(13) 0.0929(2)
N2 N 0.35960(14) 0.32244(13) 0.1911(2)
H1 H 0.4125 0.3057 0.2578
O1 O 0.10537(13) 0.39974(12) -0.2035(2)
O2 O 0.21678(14) 0.35742(13) -0.2760(2)
H5 H 0.2714 0.3404 -0.2372
O3 O 0.37886(14) 0.30257(13) -0.1635(2)
O4 O 0.48440(12) 0.27422(11) 0.0614(2)
C1 C 0.18526(18) 0.37268(15) -0.1732(3)
C2 C 0.24741(17) 0.35651(13) -0.0175(3)
C3 C 0.33827(17) 0.32705(13) 0.0420(3)
C4 C 0.40669(18) 0.29940(14) -0.0224(3)
C5 C 0.28372(19) 0.34863(17) 0.2174(3)
C6 C 0.2826(3) 0.3534(2) 0.3692(4)
H7 H 0.2221 0.3324 0.3638
H8 H 0.3321 0.3185 0.4343
C7 C 0.2958(4) 0.4296(3) 0.4395(5)
H9 H 0.2500 0.4671 0.3743
H10 H 0.2863 0.4261 0.5325
C8 C 0.3826(5) 0.4534(3) 0.4659(8)
H11 H 0.3969 0.4436 0.3794
H12 H 0.4268 0.4248 0.5500
H13 H 0.3879 0.5091 0.4877
N3 N 0.00885(15) 0.38982(11) 0.0087(2)
H2 H 0.0712 0.3859 0.0313
H3 H -0.0229 0.3808 -0.0887
H4 H -0.0083 0.3542 0.0613
C9 C -0.0132(2) 0.46962(15) 0.0454(3)
H14 H 0.0219 0.4798 0.1513
H15 H -0.0807 0.4735 0.0245
N3D N -0.00885(15) 0.61018(11) -0.0087(2)
H2D H -0.0712 0.6141 -0.0313
H3D H 0.0229 0.6192 0.0887
H4D H 0.0083 0.6458 -0.0613
C9D C 0.0132(2) 0.53038(15) -0.0454(3)
H14D H -0.0219 0.5202 -0.1513
H15D H 0.0807 0.5265 -0.0245
O5 O 0.5000 0.20888(16) -0.2500
H6 H 0.460(2) 0.2394(18) -0.236(4)
H6A H 0.540(2) 0.2394(18) -0.264(4)
C10? C 0.3712(10) 0.4585(7) 0.5926(14)
H16? H 0.2345 0.4451 0.4399
H17? H 0.3065 0.4642 0.3676
H18? H 0.4097 0.4994 0.5756
H19? H 0.4110 0.4147 0.6435
H20? H 0.3393 0.4791 0.6529
loop_
_geom_bond_atom_site_label_1
_geom_bond_atom_site_label_2
_geom_bond_site_symmetry_1
_geom_bond_site_symmetry_2
N1 C2 1_555 1_555
N2 H1 1_555 1_555
N3 H2 1_555 1_555
H3 N3 1_555 1_555
H4 N3 1_555 1_555
O1 C1 1_555 1_555
O2 H5 1_555 1_555
O3 C4 1_555 1_555
O4 C4 1_555 1_555
O5 H6 1_555 1_555
C1 O2 1_555 1_555
C2 C1 1_555 1_555
C3 N2 1_555 1_555
C4 C3 1_555 1_555
C5 N1 1_555 1_555
C6 C5 1_555 1_555
H7 C6 1_555 1_555
H8 C6 1_555 1_555
C7 C6 1_555 1_555
H9 C7 1_555 1_555
H10 C7 1_555 1_555
C8 C7 1_555 1_555
H11 C8 1_555 1_555
H12 C8 1_555 1_555
H13 C8 1_555 1_555
C9 N3 1_555 1_555
H14 C9 1_555 1_555
H15 C9 1_555 1_555
N3D H2D 1_555 1_555
H3D N3D 1_555 1_555
H4D N3D 1_555 1_555
H6A O5 1_555 1_555
C9D C9 1_555 1_555
H14D C9D 1_555 1_555
H15D C9D 1_555 1_555
N2 C5 1_555 1_555
C2 C3 1_555 1_555
N3D C9D 1_555 1_555

#END
