
#######################################################################
#
#                 Cambridge Crystallographic Data Centre
#                                CCDC 
#
#######################################################################
#
# If this CIF has been generated from an entry in the Cambridge 
# Structural Database, then it will include bibliographic, chemical, 
# crystal, experimental, refinement or atomic coordinate data resulting 
# from the CCDC's data processing and validation procedures.
#
#######################################################################

data_LEDYEB
_chemical_formula_moiety         'C30 H57 B11 Cl1 N3'
_chemical_name_systematic        
1-(chloro(1-(2,6-di-isopropylphenylimino)-2,2-dimethylpropyl)(1,3-di-isopropyl-4,5-dimethylimidazol-2-ylidene)boryl)-1,2-dicarba-closo-dodecaborane
_symmetry_cell_setting           monoclinic
_symmetry_space_group_name_H-M   'P 21/n'
_symmetry_Int_Tables_number      14
_space_group_name_Hall           '-P 2yn'
loop_
_symmetry_equiv_pos_site_id
_symmetry_equiv_pos_as_xyz
1 x,y,z
2 1/2-x,1/2+y,1/2-z
3 -x,-y,-z
4 1/2+x,1/2-y,1/2+z
_cell_length_a                   12.0476(6)
_cell_length_b                   19.0779(10)
_cell_length_c                   16.4719(8)
_cell_angle_alpha                90
_cell_angle_beta                 98.909(3)
_cell_angle_gamma                90
_cell_volume                     3740.27
_exptl_crystal_colour            colorless
_exptl_crystal_description       block
_cell_formula_units_Z            4
loop_
_atom_site_label
_atom_site_type_symbol
_atom_site_fract_x
_atom_site_fract_y
_atom_site_fract_z
Cl1 Cl -0.00944(6) 0.24983(4) 0.52387(4)
N1 N 0.24944(17) 0.29869(11) 0.63229(12)
N2 N -0.07082(19) 0.13111(12) 0.66026(14)
N3 N 0.08514(19) 0.13591(11) 0.74555(14)
C1 C 0.0933(2) 0.38873(13) 0.69706(17)
H1 H 0.1705 0.3945 0.6697
C2 C 0.0236(2) 0.31238(13) 0.68642(15)
C3 C 0.1963(2) 0.24068(13) 0.61646(14)
C4 C 0.2432(2) 0.17834(15) 0.56864(17)
C5 C 0.1710(3) 0.11149(16) 0.5655(2)
H2 H 0.1663 0.0963 0.6204
H3 H 0.0970 0.1212 0.5370
H4 H 0.2049 0.0752 0.5371
C6 C 0.3639(3) 0.15900(17) 0.6074(2)
H5 H 0.3648 0.1454 0.6636
H6 H 0.3900 0.1207 0.5776
H7 H 0.4121 0.1988 0.6052
C7 C 0.2471(3) 0.19952(18) 0.47915(18)
H8 H 0.2915 0.2412 0.4782
H9 H 0.2801 0.1623 0.4517
H10 H 0.1722 0.2083 0.4516
C8 C 0.3543(2) 0.32168(14) 0.61233(15)
C9 C 0.4514(2) 0.31592(15) 0.67142(16)
C10 C 0.5517(2) 0.34184(16) 0.65257(18)
H11 H 0.6169 0.3368 0.6905
C11 C 0.5570(2) 0.37472(18) 0.57925(19)
H12 H 0.6256 0.3899 0.5665
C12 C 0.4590(3) 0.38508(17) 0.52433(18)
H13 H 0.4623 0.4097 0.4760
C13 C 0.3561(2) 0.35978(15) 0.53950(16)
C14 C 0.4447(2) 0.28639(16) 0.75635(17)
H14 H 0.3752 0.2591 0.7524
C15 C 0.5422(3) 0.23768(19) 0.7889(2)
H15 H 0.5460 0.2003 0.7504
H16 H 0.6112 0.2636 0.7960
H17 H 0.5304 0.2185 0.8408
C16 C 0.4367(3) 0.34618(19) 0.81627(19)
H18 H 0.4325 0.3274 0.8698
H19 H 0.5019 0.3755 0.8190
H20 H 0.3706 0.3734 0.7978
C17 C 0.2492(2) 0.37858(16) 0.48205(17)
H21 H 0.1915 0.3442 0.4903
C18 C 0.2621(3) 0.3774(2) 0.39089(19)
H22 H 0.1919 0.3897 0.3581
H23 H 0.3187 0.4105 0.3813
H24 H 0.2839 0.3312 0.3762
C19 C 0.2078(3) 0.45111(19) 0.5039(2)
H25 H 0.1402 0.4626 0.4673
H26 H 0.1927 0.4507 0.5594
H27 H 0.2644 0.4855 0.4986
C20 C 0.0231(2) 0.17076(13) 0.68157(16)
C21 C -0.1714(2) 0.15108(17) 0.60141(19)
H28 H -0.1567 0.1981 0.5817
C22 C -0.1892(4) 0.1038(2) 0.5256(2)
H29 H -0.2551 0.1186 0.4893
H30 H -0.1251 0.1069 0.4978
H31 H -0.1986 0.0562 0.5422
C23 C -0.2752(3) 0.1577(2) 0.6445(3)
H32 H -0.3391 0.1707 0.6050
H33 H -0.2895 0.1136 0.6689
H34 H -0.2620 0.1930 0.6864
C24 C -0.0649(3) 0.07120(15) 0.7088(2)
C25 C -0.1495(3) 0.01329(19) 0.7010(3)
H35 H -0.2103 0.0243 0.6580
H36 H -0.1146 -0.0296 0.6880
H37 H -0.1780 0.0080 0.7520
C26 C 0.0306(3) 0.07422(14) 0.76199(19)
C27 C 0.0744(3) 0.02147(18) 0.8265(2)
H38 H 0.1451 0.0372 0.8558
H39 H 0.0216 0.0161 0.8641
H40 H 0.0845 -0.0228 0.8008
C28 C 0.1909(2) 0.16136(15) 0.79531(18)
H41 H 0.2142 0.2032 0.7679
C29 C 0.2868(3) 0.10861(19) 0.8004(2)
H42 H 0.3526 0.1278 0.8332
H43 H 0.2657 0.0661 0.8252
H44 H 0.3024 0.0988 0.7462
C30 C 0.1741(3) 0.18332(18) 0.88165(19)
H45 H 0.2442 0.1994 0.9116
H46 H 0.1198 0.2205 0.8781
H47 H 0.1477 0.1440 0.9096
B1 B 0.0992(3) 0.33600(17) 0.7801(2)
H48 H 0.1742 0.3070 0.8083
B2 B 0.0895(3) 0.42868(18) 0.7885(2)
H49 H 0.1580 0.4599 0.8228
B3 B 0.0098(3) 0.45995(17) 0.6964(2)
H50 H 0.0265 0.5115 0.6709
B4 B -0.0300(3) 0.38691(16) 0.6314(2)
H51 H -0.0385 0.3908 0.5641
B5 B -0.0387(3) 0.30149(18) 0.77369(19)
H52 H -0.0551 0.2498 0.7989
B6 B 0.0026(3) 0.37391(19) 0.8387(2)
H53 H 0.0137 0.3694 0.9061
B7 B -0.0530(3) 0.45104(19) 0.7862(2)
H54 H -0.0785 0.4968 0.8194
B8 B -0.1276(3) 0.42497(17) 0.6885(2)
H55 H -0.2017 0.4538 0.6583
B9 B -0.1167(3) 0.33250(16) 0.68158(19)
H56 H -0.1837 0.3007 0.6463
B10 B -0.1325(3) 0.37193(18) 0.7767(2)
H57 H -0.2100 0.3664 0.8038
B11 B 0.0651(2) 0.24232(15) 0.63635(17)
loop_
_geom_bond_atom_site_label_1
_geom_bond_atom_site_label_2
_geom_bond_site_symmetry_1
_geom_bond_site_symmetry_2
Cl1 B11 1_555 1_555
N1 C3 1_555 1_555
N2 C20 1_555 1_555
N3 C20 1_555 1_555
C1 H1 1_555 1_555
C2 C1 1_555 1_555
C3 C4 1_555 1_555
C4 C5 1_555 1_555
C5 H2 1_555 1_555
H3 C5 1_555 1_555
H4 C5 1_555 1_555
C6 C4 1_555 1_555
H5 C6 1_555 1_555
H6 C6 1_555 1_555
H7 C6 1_555 1_555
C7 C4 1_555 1_555
H8 C7 1_555 1_555
H9 C7 1_555 1_555
H10 C7 1_555 1_555
C8 N1 1_555 1_555
C9 C8 1_555 1_555
C10 C9 1_555 1_555
H11 C10 1_555 1_555
C11 C10 1_555 1_555
H12 C11 1_555 1_555
C12 C11 1_555 1_555
H13 C12 1_555 1_555
C13 C8 1_555 1_555
C14 C9 1_555 1_555
H14 C14 1_555 1_555
C15 C14 1_555 1_555
H15 C15 1_555 1_555
H16 C15 1_555 1_555
H17 C15 1_555 1_555
C16 C14 1_555 1_555
H18 C16 1_555 1_555
H19 C16 1_555 1_555
H20 C16 1_555 1_555
C17 C13 1_555 1_555
H21 C17 1_555 1_555
C18 C17 1_555 1_555
H22 C18 1_555 1_555
H23 C18 1_555 1_555
H24 C18 1_555 1_555
C19 C17 1_555 1_555
H25 C19 1_555 1_555
H26 C19 1_555 1_555
H27 C19 1_555 1_555
C20 B11 1_555 1_555
C21 N2 1_555 1_555
H28 C21 1_555 1_555
C22 C21 1_555 1_555
H29 C22 1_555 1_555
H30 C22 1_555 1_555
H31 C22 1_555 1_555
C23 C21 1_555 1_555
H32 C23 1_555 1_555
H33 C23 1_555 1_555
H34 C23 1_555 1_555
C24 N2 1_555 1_555
C25 C24 1_555 1_555
H35 C25 1_555 1_555
H36 C25 1_555 1_555
H37 C25 1_555 1_555
C26 N3 1_555 1_555
C27 C26 1_555 1_555
H38 C27 1_555 1_555
H39 C27 1_555 1_555
H40 C27 1_555 1_555
C28 N3 1_555 1_555
H41 C28 1_555 1_555
C29 C28 1_555 1_555
H42 C29 1_555 1_555
H43 C29 1_555 1_555
H44 C29 1_555 1_555
C30 C28 1_555 1_555
H45 C30 1_555 1_555
H46 C30 1_555 1_555
H47 C30 1_555 1_555
B1 C1 1_555 1_555
H48 B1 1_555 1_555
B2 C1 1_555 1_555
H49 B2 1_555 1_555
B3 C1 1_555 1_555
H50 B3 1_555 1_555
B4 C1 1_555 1_555
H51 B4 1_555 1_555
B5 C2 1_555 1_555
H52 B5 1_555 1_555
B6 B1 1_555 1_555
H53 B6 1_555 1_555
B7 B2 1_555 1_555
H54 B7 1_555 1_555
B8 B3 1_555 1_555
H55 B8 1_555 1_555
B9 C2 1_555 1_555
H56 B9 1_555 1_555
B10 B5 1_555 1_555
H57 B10 1_555 1_555
B11 C2 1_555 1_555
C2 B1 1_555 1_555
C2 B4 1_555 1_555
C3 B11 1_555 1_555
C12 C13 1_555 1_555
C24 C26 1_555 1_555
B1 B2 1_555 1_555
B1 B5 1_555 1_555
B2 B3 1_555 1_555
B2 B6 1_555 1_555
B3 B4 1_555 1_555
B3 B7 1_555 1_555
B4 B8 1_555 1_555
B4 B9 1_555 1_555
B5 B6 1_555 1_555
B5 B9 1_555 1_555
B6 B7 1_555 1_555
B6 B10 1_555 1_555
B7 B8 1_555 1_555
B7 B10 1_555 1_555
B8 B9 1_555 1_555
B8 B10 1_555 1_555
B9 B10 1_555 1_555

#END
