
#######################################################################
#
#                 Cambridge Crystallographic Data Centre
#                                CCDC 
#
#######################################################################
#
# If this CIF has been generated from an entry in the Cambridge 
# Structural Database, then it will include bibliographic, chemical, 
# crystal, experimental, refinement or atomic coordinate data resulting 
# from the CCDC's data processing and validation procedures.
#
#######################################################################

data_LEFBUV02
_chemical_name_common            Diosgenin
_chemical_formula_moiety         'C27 H42 O3,0.5(H2 O1)'
_chemical_name_systematic        'spirost-5-en-3-ol hemihydrate'
_symmetry_cell_setting           monoclinic
_symmetry_space_group_name_H-M   'P 21'
_symmetry_Int_Tables_number      4
_space_group_name_Hall           'P 2yb'
loop_
_symmetry_equiv_pos_site_id
_symmetry_equiv_pos_as_xyz
1 x,y,z
2 -x,1/2+y,-z
_cell_length_a                   18.691(3)
_cell_length_b                   7.3308(10)
_cell_length_c                   20.092(3)
_cell_angle_alpha                90
_cell_angle_beta                 116.619(2)
_cell_angle_gamma                90
_cell_volume                     2461.2
_exptl_crystal_colour            colorless
_exptl_crystal_description       needle
_cell_formula_units_Z            4
loop_
_atom_site_label
_atom_site_type_symbol
_atom_site_fract_x
_atom_site_fract_y
_atom_site_fract_z
C1 C 0.47407(13) 0.5600(3) 0.13320(11)
H1 H 0.4194 0.6027 0.1019
C2 C 0.50954(12) 0.6705(3) 0.20263(12)
H2 H 0.5071 0.7987 0.1898
H3 H 0.5654 0.6376 0.2312
C3 C 0.46567(12) 0.6409(3) 0.25047(11)
C4 C 0.44073(13) 0.7801(3) 0.27673(11)
H4 H 0.4500 0.8960 0.2634
C5 C 0.39919(13) 0.7711(3) 0.32555(12)
H5 H 0.3438 0.8078 0.2971
H6 H 0.4245 0.8556 0.3667
C6 C 0.40235(11) 0.5782(3) 0.35614(10)
H7 H 0.4558 0.5580 0.3970
C7 C 0.34175(12) 0.5575(3) 0.38598(10)
H8 H 0.2896 0.5805 0.3436
C8 C 0.34459(13) 0.6825(4) 0.44973(12)
H9 H 0.3976 0.6838 0.4915
H10 H 0.3290 0.8065 0.4324
C9 C 0.28481(13) 0.5941(4) 0.47046(11)
H11 H 0.2343 0.6622 0.4494
C10 C 0.31700(14) 0.3720(5) 0.64114(12)
H12 H 0.3727 0.3495 0.6536
H13 H 0.2944 0.2597 0.6490
C11 C 0.31186(15) 0.5201(5) 0.69221(13)
H14 H 0.3355 0.4749 0.7430
H15 H 0.3427 0.6252 0.6908
C12 C 0.22606(15) 0.5790(5) 0.67006(13)
H16 H 0.1973 0.4760 0.6779
C13 C 0.2188(2) 0.7406(6) 0.71303(14)
H17 H 0.1632 0.7679 0.6970
H18 H 0.2448 0.8442 0.7042
H19 H 0.2437 0.7125 0.7652
C14 C 0.18783(14) 0.6227(4) 0.58602(12)
H20 H 0.1319 0.6530 0.5693
H21 H 0.2141 0.7289 0.5781
C15 C 0.27351(12) 0.4257(4) 0.56201(12)
C16 C 0.27047(14) 0.2827(4) 0.50444(12)
H22 H 0.3204 0.2126 0.5267
C17 C 0.20026(18) 0.1470(5) 0.47979(17)
H23 H 0.2029 0.0630 0.4443
H24 H 0.1506 0.2126 0.4574
H25 H 0.2036 0.0809 0.5223
C18 C 0.27130(12) 0.3978(3) 0.44168(11)
H26 H 0.2183 0.3904 0.3989
C19 C 0.33578(12) 0.3662(3) 0.41358(11)
C20 C 0.41522(14) 0.3082(4) 0.48018(14)
H27 H 0.4282 0.3928 0.5204
H28 H 0.4573 0.3076 0.4652
H29 H 0.4094 0.1881 0.4962
C21 C 0.31221(13) 0.2353(3) 0.34624(12)
H30 H 0.3081 0.1114 0.3612
H31 H 0.2606 0.2703 0.3067
C22 C 0.37462(15) 0.2445(3) 0.31866(13)
H32 H 0.3593 0.1627 0.2765
H33 H 0.4250 0.2010 0.3577
C23 C 0.38782(12) 0.4372(3) 0.29476(11)
H34 H 0.3373 0.4717 0.2523
C24 C 0.45270(12) 0.4436(3) 0.26665(12)
C25 C 0.53287(13) 0.3660(4) 0.32495(13)
H35 H 0.5717 0.3715 0.3060
H36 H 0.5256 0.2414 0.3354
H37 H 0.5513 0.4365 0.3699
C26 C 0.42261(14) 0.3331(4) 0.19397(13)
H38 H 0.4235 0.2045 0.2058
H39 H 0.3675 0.3665 0.1622
C27 C 0.47157(14) 0.3613(4) 0.15073(12)
H40 H 0.5256 0.3169 0.1801
H41 H 0.4478 0.2918 0.1048
O1 O 0.52072(9) 0.5800(3) 0.09273(8)
H42 H 0.5639 0.5284 0.1154
O2 O 0.31482(9) 0.5764(3) 0.54849(8)
O3 O 0.19329(8) 0.4773(3) 0.54277(8)
O4 O 0.54683(11) 0.9430(3) 0.06251(10)
H43 H 0.5389 0.8338 0.0718
H44 H 0.5344 0.9632 0.0170
C28 C 0.66226(12) 0.3323(4) 1.05647(12)
H45 H 0.6187 0.3276 1.0057
C29 C 0.72383(13) 0.1879(4) 1.06469(13)
H46 H 0.6988 0.0685 1.0552
H47 H 0.7663 0.1890 1.1153
C30 C 0.75890(13) 0.2223(4) 1.01077(12)
C31 C 0.75509(13) 0.0905(4) 0.96519(13)
H48 H 0.7329 -0.0203 0.9689
C32 C 0.78505(15) 0.1095(4) 0.90640(15)
H49 H 0.8128 -0.0014 0.9054
H50 H 0.7395 0.1237 0.8579
C33 C 0.84063(12) 0.2696(3) 0.92053(11)
H51 H 0.8925 0.2391 0.9621
C34 C 0.85333(12) 0.3102(3) 0.85315(11)
H52 H 0.8005 0.3454 0.8143
C35 C 0.88299(14) 0.1639(4) 0.81730(14)
H53 H 0.9312 0.1055 0.8539
H54 H 0.8423 0.0718 0.7927
C36 C 0.89920(13) 0.2692(4) 0.76325(13)
H55 H 0.8551 0.2526 0.7133
C37 C 1.08549(13) 0.3491(4) 0.75272(13)
H56 H 1.1060 0.4617 0.7425
H57 H 1.1169 0.3206 0.8051
C38 C 1.09514(14) 0.1979(4) 0.70650(14)
H58 H 1.1503 0.1937 0.7145
H59 H 1.0827 0.0819 0.7221
C39 C 1.04111(15) 0.2273(5) 0.62559(13)
H60 H 1.0578 0.3395 0.6100
C40 C 1.0455(2) 0.0685(6) 0.57659(18)
H61 H 1.0995 0.0557 0.5835
H62 H 1.0109 0.0942 0.5252
H63 H 1.0289 -0.0428 0.5907
C41 C 0.95641(16) 0.2525(5) 0.61434(13)
H64 H 0.9219 0.2780 0.5623
H65 H 0.9380 0.1406 0.6274
C42 C 0.99927(13) 0.3765(4) 0.73693(12)
C43 C 0.98070(14) 0.5381(4) 0.77480(13)
H66 H 1.0254 0.5508 0.8246
C44 C 0.97005(17) 0.7207(4) 0.73531(15)
H67 H 0.9591 0.8138 0.7631
H68 H 0.9262 0.7128 0.6863
H69 H 1.0181 0.7508 0.7316
C45 C 0.90705(12) 0.4737(4) 0.78436(11)
H70 H 0.8595 0.5388 0.7487
C46 C 0.90786(12) 0.4750(3) 0.86085(11)
C47 C 0.99209(14) 0.4447(5) 0.92295(13)
H71 H 1.0248 0.5485 0.9263
H72 H 1.0147 0.3376 0.9123
H73 H 0.9898 0.4287 0.9694
C48 C 0.87055(16) 0.6385(4) 0.87909(15)
H74 H 0.8195 0.6649 0.8369
H75 H 0.9050 0.7436 0.8870
C49 C 0.85738(16) 0.6097(4) 0.94787(14)
H76 H 0.8310 0.7164 0.9551
H77 H 0.9090 0.5980 0.9911
C50 C 0.80665(12) 0.4395(3) 0.94241(11)
H78 H 0.7537 0.4619 0.9011
C51 C 0.79338(12) 0.4101(3) 1.01219(11)
C52 C 0.87249(14) 0.4251(5) 1.08536(13)
H79 H 0.9096 0.3344 1.0855
H80 H 0.8616 0.4059 1.1272
H81 H 0.8952 0.5442 1.0886
C53 C 0.73411(14) 0.5544(4) 1.01294(14)
H82 H 0.6894 0.5608 0.9636
H83 H 0.7605 0.6723 1.0235
C54 C 0.70113(15) 0.5194(4) 1.06984(15)
H84 H 0.7444 0.5258 1.1200
H85 H 0.6621 0.6123 1.0648
O5 O 0.62999(10) 0.2947(3) 1.10829(9)
H86 H 0.6230 0.1846 1.1095
O6 O 0.97400(9) 0.2209(2) 0.76260(8)
O7 O 0.95114(9) 0.3993(3) 0.65911(8)
loop_
_geom_bond_atom_site_label_1
_geom_bond_atom_site_label_2
_geom_bond_site_symmetry_1
_geom_bond_site_symmetry_2
C1 H1 1_555 1_555
C2 C1 1_555 1_555
H2 C2 1_555 1_555
H3 C2 1_555 1_555
C3 C2 1_555 1_555
C4 C3 1_555 1_555
H4 C4 1_555 1_555
C5 C4 1_555 1_555
H5 C5 1_555 1_555
H6 C5 1_555 1_555
C6 C5 1_555 1_555
H7 C6 1_555 1_555
C7 C6 1_555 1_555
H8 C7 1_555 1_555
C8 C7 1_555 1_555
H9 C8 1_555 1_555
H10 C8 1_555 1_555
C9 C8 1_555 1_555
H11 C9 1_555 1_555
C10 H12 1_555 1_555
H13 C10 1_555 1_555
C11 C10 1_555 1_555
H14 C11 1_555 1_555
H15 C11 1_555 1_555
C12 C11 1_555 1_555
H16 C12 1_555 1_555
C13 C12 1_555 1_555
H17 C13 1_555 1_555
H18 C13 1_555 1_555
H19 C13 1_555 1_555
C14 C12 1_555 1_555
H20 C14 1_555 1_555
H21 C14 1_555 1_555
C15 C10 1_555 1_555
C16 C15 1_555 1_555
H22 C16 1_555 1_555
C17 C16 1_555 1_555
H23 C17 1_555 1_555
H24 C17 1_555 1_555
H25 C17 1_555 1_555
C18 C9 1_555 1_555
H26 C18 1_555 1_555
C19 C7 1_555 1_555
C20 C19 1_555 1_555
H27 C20 1_555 1_555
H28 C20 1_555 1_555
H29 C20 1_555 1_555
C21 C19 1_555 1_555
H30 C21 1_555 1_555
H31 C21 1_555 1_555
C22 C21 1_555 1_555
H32 C22 1_555 1_555
H33 C22 1_555 1_555
C23 C6 1_555 1_555
H34 C23 1_555 1_555
C24 C3 1_555 1_555
C25 C24 1_555 1_555
H35 C25 1_555 1_555
H36 C25 1_555 1_555
H37 C25 1_555 1_555
C26 C24 1_555 1_555
H38 C26 1_555 1_555
H39 C26 1_555 1_555
C27 C1 1_555 1_555
H40 C27 1_555 1_555
H41 C27 1_555 1_555
O1 C1 1_555 1_555
H42 O1 1_555 1_555
O2 C9 1_555 1_555
O3 C14 1_555 1_555
O4 H43 1_555 1_555
H44 O4 1_555 1_555
C28 H45 1_555 1_555
C29 C28 1_555 1_555
H46 C29 1_555 1_555
H47 C29 1_555 1_555
C30 C29 1_555 1_555
C31 C30 1_555 1_555
H48 C31 1_555 1_555
C32 C31 1_555 1_555
H49 C32 1_555 1_555
H50 C32 1_555 1_555
C33 C32 1_555 1_555
H51 C33 1_555 1_555
C34 C33 1_555 1_555
H52 C34 1_555 1_555
C35 C34 1_555 1_555
H53 C35 1_555 1_555
H54 C35 1_555 1_555
C36 C35 1_555 1_555
H55 C36 1_555 1_555
C37 H56 1_555 1_555
H57 C37 1_555 1_555
C38 C37 1_555 1_555
H58 C38 1_555 1_555
H59 C38 1_555 1_555
C39 C38 1_555 1_555
H60 C39 1_555 1_555
C40 C39 1_555 1_555
H61 C40 1_555 1_555
H62 C40 1_555 1_555
H63 C40 1_555 1_555
C41 C39 1_555 1_555
H64 C41 1_555 1_555
H65 C41 1_555 1_555
C42 C37 1_555 1_555
C43 C42 1_555 1_555
H66 C43 1_555 1_555
C44 C43 1_555 1_555
H67 C44 1_555 1_555
H68 C44 1_555 1_555
H69 C44 1_555 1_555
C45 C36 1_555 1_555
H70 C45 1_555 1_555
C46 C34 1_555 1_555
C47 C46 1_555 1_555
H71 C47 1_555 1_555
H72 C47 1_555 1_555
H73 C47 1_555 1_555
C48 C46 1_555 1_555
H74 C48 1_555 1_555
H75 C48 1_555 1_555
C49 C48 1_555 1_555
H76 C49 1_555 1_555
H77 C49 1_555 1_555
C50 C33 1_555 1_555
H78 C50 1_555 1_555
C51 C30 1_555 1_555
C52 C51 1_555 1_555
H79 C52 1_555 1_555
H80 C52 1_555 1_555
H81 C52 1_555 1_555
C53 C51 1_555 1_555
H82 C53 1_555 1_555
H83 C53 1_555 1_555
C54 C28 1_555 1_555
H84 C54 1_555 1_555
H85 C54 1_555 1_555
O5 C28 1_555 1_555
H86 O5 1_555 1_555
O6 C36 1_555 1_555
O7 C41 1_555 1_555
C15 O2 1_555 1_555
C15 O3 1_555 1_555
C16 C18 1_555 1_555
C18 C19 1_555 1_555
C22 C23 1_555 1_555
C23 C24 1_555 1_555
C26 C27 1_555 1_555
C42 O6 1_555 1_555
C42 O7 1_555 1_555
C43 C45 1_555 1_555
C45 C46 1_555 1_555
C49 C50 1_555 1_555
C50 C51 1_555 1_555
C53 C54 1_555 1_555

#END
