
#######################################################################
#
#                 Cambridge Crystallographic Data Centre
#                                CCDC 
#
#######################################################################
#
# If this CIF has been generated from an entry in the Cambridge 
# Structural Database, then it will include bibliographic, chemical, 
# crystal, experimental, refinement or atomic coordinate data resulting 
# from the CCDC's data processing and validation procedures.
#
#######################################################################

data_LEFBUV01
_chemical_name_common            Diosgenin
_chemical_formula_moiety         'C27 H42 O3,0.5(H2 O1)'
_chemical_name_systematic        'spirost-5-en-3-ol hemihydrate'
_symmetry_cell_setting           monoclinic
_symmetry_space_group_name_H-M   'P 21'
_symmetry_Int_Tables_number      4
_space_group_name_Hall           'P 2yb'
loop_
_symmetry_equiv_pos_site_id
_symmetry_equiv_pos_as_xyz
1 x,y,z
2 -x,1/2+y,-z
_cell_length_a                   11.1604(10)
_cell_length_b                   7.4293(5)
_cell_length_c                   29.892(3)
_cell_angle_alpha                90
_cell_angle_beta                 98.341(2)
_cell_angle_gamma                90
_cell_volume                     2452.25
_exptl_crystal_colour            colorless
_exptl_crystal_description       stick
_cell_formula_units_Z            4
loop_
_atom_site_label
_atom_site_type_symbol
_atom_site_fract_x
_atom_site_fract_y
_atom_site_fract_z
C1 C 0.6385(6) 0.4616(8) 0.72122(18)
H1 H 0.5652 0.4490 0.7355
C2 C 0.6335(5) 0.3257(8) 0.68328(17)
H2 H 0.7094 0.3286 0.6711
H3 H 0.6241 0.2061 0.6953
C3 C 0.5306(5) 0.3617(7) 0.64558(17)
C4 C 0.4481(5) 0.2378(8) 0.63299(18)
H4 H 0.4548 0.1286 0.6484
C5 C 0.3444(5) 0.2606(7) 0.59573(17)
H5 H 0.2708 0.2823 0.6086
H6 H 0.3335 0.1505 0.5782
C6 C 0.3658(5) 0.4168(7) 0.56476(17)
H7 H 0.4308 0.3839 0.5475
C7 C 0.2529(5) 0.4615(7) 0.53191(16)
H8 H 0.1909 0.4972 0.5503
C8 C 0.1961(5) 0.3118(7) 0.49983(17)
H9 H 0.2568 0.2522 0.4849
H10 H 0.1549 0.2230 0.5159
C9 C 0.1062(5) 0.4183(8) 0.46598(17)
H11 H 0.0232 0.4001 0.4722
C10 C 0.1144(5) 0.5025(8) 0.34765(17)
H12 H 0.2016 0.4872 0.3512
H13 H 0.0940 0.6110 0.3301
C11 C 0.0527(5) 0.3398(8) 0.32220(17)
H14 H 0.0748 0.3342 0.2920
H15 H 0.0797 0.2297 0.3380
C12 C -0.0849(6) 0.3573(9) 0.31922(19)
H16 H -0.1120 0.4631 0.3009
C13 C -0.1473(6) 0.1894(9) 0.2969(2)
H17 H -0.2335 0.2027 0.2947
H18 H -0.1218 0.0853 0.3148
H19 H -0.1255 0.1751 0.2672
C14 C -0.1139(5) 0.3837(8) 0.36621(19)
H20 H -0.2007 0.3990 0.3648
H21 H -0.0908 0.2763 0.3838
C15 C 0.0749(5) 0.5223(8) 0.39359(17)
C16 C 0.1274(5) 0.6878(7) 0.42082(17)
H22 H 0.2088 0.7097 0.4133
C17 C 0.0552(6) 0.8610(8) 0.41212(18)
H23 H 0.0526 0.8957 0.3811
H24 H 0.0931 0.9545 0.4313
H25 H -0.0258 0.8421 0.4185
C18 C 0.1413(4) 0.6202(7) 0.47070(16)
H26 H 0.0833 0.6835 0.4867
C19 C 0.2673(4) 0.6204(7) 0.50008(16)
C20 C 0.3687(4) 0.5859(8) 0.47119(16)
H27 H 0.3753 0.6875 0.4519
H28 H 0.3498 0.4802 0.4531
H29 H 0.4441 0.5684 0.4907
C21 C 0.2951(5) 0.7842(7) 0.52993(17)
H30 H 0.2270 0.8091 0.5458
H31 H 0.3068 0.8879 0.5113
C22 C 0.4098(5) 0.7540(7) 0.56452(17)
H32 H 0.4214 0.8572 0.5846
H33 H 0.4793 0.7466 0.5485
C23 C 0.4048(5) 0.5814(7) 0.59335(16)
H34 H 0.3424 0.6018 0.6127
C24 C 0.5270(5) 0.5503(7) 0.62570(16)
C25 C 0.6386(4) 0.5753(8) 0.60049(16)
H35 H 0.7116 0.5570 0.6213
H36 H 0.6382 0.6949 0.5883
H37 H 0.6348 0.4893 0.5763
C26 C 0.5366(5) 0.6854(7) 0.66526(17)
H38 H 0.5452 0.8057 0.6535
H39 H 0.4617 0.6823 0.6782
C27 C 0.6428(5) 0.6489(8) 0.70300(18)
H40 H 0.7185 0.6662 0.6912
H41 H 0.6402 0.7345 0.7273
O1 O 0.7421(4) 0.4330(6) 0.75484(13)
H42 H 0.7441 0.3275 0.7629
O2 O 0.1158(3) 0.3709(5) 0.42021(12)
O3 O -0.0537(3) 0.5364(5) 0.38891(11)
C28 C -0.0747(5) 0.6629(8) -0.15840(19)
H43 H -0.1352 0.6975 -0.1393
C29 C 0.0380(5) 0.7716(8) -0.14470(17)
H44 H 0.0180 0.8986 -0.1472
H45 H 0.0955 0.7463 -0.1653
C30 C 0.0968(5) 0.7317(8) -0.09679(17)
C31 C 0.1295(5) 0.8660(8) -0.06872(17)
H46 H 0.1121 0.9826 -0.0790
C32 C 0.1931(6) 0.8422(7) -0.02118(17)
H47 H 0.1370 0.8698 -0.0002
H48 H 0.2595 0.9273 -0.0158
C33 C 0.2421(5) 0.6537(7) -0.01177(17)
H49 H 0.3142 0.6391 -0.0266
C34 C 0.2773(5) 0.6192(7) 0.03835(16)
H50 H 0.2031 0.6366 0.0518
C35 C 0.3730(6) 0.7388(9) 0.06567(17)
H51 H 0.3425 0.8598 0.0688
H52 H 0.4461 0.7447 0.0517
C36 C 0.3960(5) 0.6425(7) 0.11146(17)
H53 H 0.3509 0.7009 0.1333
C37 C 0.6695(5) 0.4287(9) 0.16717(19)
H54 H 0.7039 0.4188 0.1393
H55 H 0.6793 0.3135 0.1825
C38 C 0.7377(5) 0.5728(10) 0.1970(2)
H56 H 0.8205 0.5336 0.2064
H57 H 0.7401 0.6831 0.1798
C39 C 0.6789(6) 0.6094(9) 0.23818(19)
H58 H 0.6885 0.5034 0.2579
C40 C 0.7366(6) 0.7711(10) 0.2644(2)
H59 H 0.8213 0.7483 0.2736
H60 H 0.6980 0.7906 0.2907
H61 H 0.7269 0.8760 0.2455
C41 C 0.5439(5) 0.6450(9) 0.22411(18)
H62 H 0.5054 0.6604 0.2509
H63 H 0.5336 0.7559 0.2068
C42 C 0.5358(5) 0.4718(8) 0.15617(18)
C43 C 0.4579(5) 0.3313(8) 0.12909(18)
H64 H 0.5052 0.2825 0.1067
C44 C 0.4177(6) 0.1706(8) 0.15602(19)
H65 H 0.4879 0.1070 0.1703
H66 H 0.3683 0.0909 0.1358
H67 H 0.3720 0.2138 0.1787
C45 C 0.3529(5) 0.4425(7) 0.10300(16)
H68 H 0.2796 0.4231 0.1169
C46 C 0.3201(5) 0.4281(7) 0.05124(16)
C47 C 0.4319(5) 0.3772(9) 0.02906(18)
H69 H 0.4093 0.3703 -0.0031
H70 H 0.4623 0.2625 0.0404
H71 H 0.4935 0.4670 0.0362
C48 C 0.2149(5) 0.3011(7) 0.03473(17)
H72 H 0.1469 0.3281 0.0505
H73 H 0.2395 0.1778 0.0415
C49 C 0.1756(6) 0.3221(8) -0.01692(18)
H74 H 0.2400 0.2771 -0.0325
H75 H 0.1046 0.2480 -0.0259
C50 C 0.1463(5) 0.5173(7) -0.03224(16)
H76 H 0.0714 0.5494 -0.0206
C51 C 0.1184(6) 0.5358(8) -0.08470(18)
C52 C 0.2232(6) 0.4657(9) -0.10759(17)
H77 H 0.2950 0.5337 -0.0972
H78 H 0.2032 0.4782 -0.1398
H79 H 0.2372 0.3410 -0.1001
C53 C 0.0028(6) 0.4278(8) -0.10215(18)
H80 H -0.0589 0.4566 -0.0835
H81 H 0.0207 0.3004 -0.0985
C54 C -0.0486(6) 0.4643(8) -0.15217(18)
H82 H 0.0095 0.4270 -0.1715
H83 H -0.1225 0.3958 -0.1605
O4 O -0.1200(4) 0.7087(6) -0.20473(12)
H84 H -0.1605 0.6249 -0.2167
O5 O 0.5219(3) 0.6308(5) 0.12920(12)
O6 O 0.4857(3) 0.4996(5) 0.19726(11)
O7 O 0.2403(4) 0.5642(6) 0.21508(13)
H85 H 0.2065 0.4623 0.2098
H86 H 0.3124 0.5450 0.2102
loop_
_geom_bond_atom_site_label_1
_geom_bond_atom_site_label_2
_geom_bond_site_symmetry_1
_geom_bond_site_symmetry_2
C1 H1 1_555 1_555
C2 C1 1_555 1_555
H2 C2 1_555 1_555
H3 C2 1_555 1_555
C3 C2 1_555 1_555
C4 C3 1_555 1_555
H4 C4 1_555 1_555
C5 C4 1_555 1_555
H5 C5 1_555 1_555
H6 C5 1_555 1_555
C6 C5 1_555 1_555
H7 C6 1_555 1_555
C7 C6 1_555 1_555
H8 C7 1_555 1_555
C8 C7 1_555 1_555
H9 C8 1_555 1_555
H10 C8 1_555 1_555
C9 C8 1_555 1_555
H11 C9 1_555 1_555
C10 H12 1_555 1_555
H13 C10 1_555 1_555
C11 C10 1_555 1_555
H14 C11 1_555 1_555
H15 C11 1_555 1_555
C12 C11 1_555 1_555
H16 C12 1_555 1_555
C13 C12 1_555 1_555
H17 C13 1_555 1_555
H18 C13 1_555 1_555
H19 C13 1_555 1_555
C14 C12 1_555 1_555
H20 C14 1_555 1_555
H21 C14 1_555 1_555
C15 C10 1_555 1_555
C16 C15 1_555 1_555
H22 C16 1_555 1_555
C17 C16 1_555 1_555
H23 C17 1_555 1_555
H24 C17 1_555 1_555
H25 C17 1_555 1_555
C18 C9 1_555 1_555
H26 C18 1_555 1_555
C19 C7 1_555 1_555
C20 C19 1_555 1_555
H27 C20 1_555 1_555
H28 C20 1_555 1_555
H29 C20 1_555 1_555
C21 C19 1_555 1_555
H30 C21 1_555 1_555
H31 C21 1_555 1_555
C22 C21 1_555 1_555
H32 C22 1_555 1_555
H33 C22 1_555 1_555
C23 C6 1_555 1_555
H34 C23 1_555 1_555
C24 C3 1_555 1_555
C25 C24 1_555 1_555
H35 C25 1_555 1_555
H36 C25 1_555 1_555
H37 C25 1_555 1_555
C26 C24 1_555 1_555
H38 C26 1_555 1_555
H39 C26 1_555 1_555
C27 C1 1_555 1_555
H40 C27 1_555 1_555
H41 C27 1_555 1_555
O1 C1 1_555 1_555
H42 O1 1_555 1_555
O2 C9 1_555 1_555
O3 C14 1_555 1_555
C28 H43 1_555 1_555
C29 C28 1_555 1_555
H44 C29 1_555 1_555
H45 C29 1_555 1_555
C30 C29 1_555 1_555
C31 C30 1_555 1_555
H46 C31 1_555 1_555
C32 C31 1_555 1_555
H47 C32 1_555 1_555
H48 C32 1_555 1_555
C33 C32 1_555 1_555
H49 C33 1_555 1_555
C34 C33 1_555 1_555
H50 C34 1_555 1_555
C35 C34 1_555 1_555
H51 C35 1_555 1_555
H52 C35 1_555 1_555
C36 C35 1_555 1_555
H53 C36 1_555 1_555
C37 H54 1_555 1_555
H55 C37 1_555 1_555
C38 C37 1_555 1_555
H56 C38 1_555 1_555
H57 C38 1_555 1_555
C39 C38 1_555 1_555
H58 C39 1_555 1_555
C40 C39 1_555 1_555
H59 C40 1_555 1_555
H60 C40 1_555 1_555
H61 C40 1_555 1_555
C41 C39 1_555 1_555
H62 C41 1_555 1_555
H63 C41 1_555 1_555
C42 C37 1_555 1_555
C43 C42 1_555 1_555
H64 C43 1_555 1_555
C44 C43 1_555 1_555
H65 C44 1_555 1_555
H66 C44 1_555 1_555
H67 C44 1_555 1_555
C45 C36 1_555 1_555
H68 C45 1_555 1_555
C46 C34 1_555 1_555
C47 C46 1_555 1_555
H69 C47 1_555 1_555
H70 C47 1_555 1_555
H71 C47 1_555 1_555
C48 C46 1_555 1_555
H72 C48 1_555 1_555
H73 C48 1_555 1_555
C49 C48 1_555 1_555
H74 C49 1_555 1_555
H75 C49 1_555 1_555
C50 C33 1_555 1_555
H76 C50 1_555 1_555
C51 C30 1_555 1_555
C52 C51 1_555 1_555
H77 C52 1_555 1_555
H78 C52 1_555 1_555
H79 C52 1_555 1_555
C53 C51 1_555 1_555
H80 C53 1_555 1_555
H81 C53 1_555 1_555
C54 C28 1_555 1_555
H82 C54 1_555 1_555
H83 C54 1_555 1_555
O4 C28 1_555 1_555
H84 O4 1_555 1_555
O5 C36 1_555 1_555
O6 C41 1_555 1_555
O7 H85 1_555 1_555
H86 O7 1_555 1_555
C15 O2 1_555 1_555
C15 O3 1_555 1_555
C16 C18 1_555 1_555
C18 C19 1_555 1_555
C22 C23 1_555 1_555
C23 C24 1_555 1_555
C26 C27 1_555 1_555
C42 O5 1_555 1_555
C42 O6 1_555 1_555
C43 C45 1_555 1_555
C45 C46 1_555 1_555
C49 C50 1_555 1_555
C50 C51 1_555 1_555
C53 C54 1_555 1_555

#END
