
#######################################################################
#
#                 Cambridge Crystallographic Data Centre
#                                CCDC 
#
#######################################################################
#
# If this CIF has been generated from an entry in the Cambridge 
# Structural Database, then it will include bibliographic, chemical, 
# crystal, experimental, refinement or atomic coordinate data resulting 
# from the CCDC's data processing and validation procedures.
#
#######################################################################

data_LEFCAB
_chemical_formula_moiety         'C18 H12 Cl2 O2'
_chemical_name_systematic        2,3-bis(2-chlorobenzylidene)succinaldehyde
_symmetry_cell_setting           triclinic
_symmetry_space_group_name_H-M   'P -1'
_symmetry_Int_Tables_number      2
_space_group_name_Hall           '-P 1'
loop_
_symmetry_equiv_pos_site_id
_symmetry_equiv_pos_as_xyz
1 x,y,z
2 -x,-y,-z
_cell_length_a                   8.640(3)
_cell_length_b                   10.522(4)
_cell_length_c                   10.623(4)
_cell_angle_alpha                89.24(6)
_cell_angle_beta                 67.252(13)
_cell_angle_gamma                65.98(4)
_cell_volume                     801.495
_exptl_crystal_colour            'pale yellow'
_exptl_crystal_description       block
_cell_formula_units_Z            2
_exptl_crystal_recrystallization_method acetone/hexane
loop_
_atom_site_label
_atom_site_type_symbol
_atom_site_fract_x
_atom_site_fract_y
_atom_site_fract_z
O1 O -0.1234(6) 0.5672(3) 0.8458(5)
O2 O -0.2019(6) 0.9476(4) 0.6400(4)
Cl1 Cl -0.39376(19) 1.19276(13) 1.05044(14)
Cl2 Cl 0.3421(2) 0.32123(14) 0.43278(15)
C1 C -0.1385(7) 0.6744(5) 0.8992(6)
H1 H -0.1979 0.6972 0.9953
C2 C -0.0686(6) 0.7730(4) 0.8220(5)
C3 C -0.1139(6) 0.8928(4) 0.9010(5)
H2 H -0.1893 0.9053 0.9947
C4 C -0.0571(6) 1.0061(4) 0.8554(4)
C5 C -0.1736(6) 1.1475(4) 0.9182(4)
C6 C -0.1212(8) 1.2543(4) 0.8767(5)
H3 H -0.2024 1.3475 0.9194
C7 C 0.0523(8) 1.2223(5) 0.7714(5)
H4 H 0.0872 1.2941 0.7419
C8 C 0.1732(8) 1.0839(5) 0.7104(5)
H5 H 0.2916 1.0617 0.6419
C9 C 0.1184(7) 0.9777(4) 0.7511(5)
H6 H 0.2006 0.8848 0.7078
C10 C -0.0614(9) 0.8390(5) 0.5892(6)
H7 H -0.0029 0.8161 0.4931
C11 C 0.0252(6) 0.7390(4) 0.6686(5)
C12 C 0.1734(7) 0.6181(4) 0.5928(5)
H8 H 0.2039 0.6061 0.4983
C13 C 0.2924(6) 0.5035(4) 0.6395(4)
C14 C 0.3822(6) 0.3618(4) 0.5707(5)
C15 C 0.4987(7) 0.2544(4) 0.6141(5)
H9 H 0.5568 0.1622 0.567
C16 C 0.5291(7) 0.2825(5) 0.7259(5)
H10 H 0.604 0.2095 0.7564
C17 C 0.4479(7) 0.4195(5) 0.7923(5)
H11 H 0.4717 0.4397 0.866
C18 C 0.3308(7) 0.5279(5) 0.7501(5)
H12 H 0.2762 0.6197 0.7972
loop_
_geom_bond_atom_site_label_1
_geom_bond_atom_site_label_2
_geom_bond_site_symmetry_1
_geom_bond_site_symmetry_2
O1 C1 1_555 1_555
O2 C10 1_555 1_555
Cl1 C5 1_555 1_555
Cl2 C14 1_555 1_555
C1 H1 1_555 1_555
C2 C1 1_555 1_555
C3 C2 1_555 1_555
H2 C3 1_555 1_555
C4 C3 1_555 1_555
C5 C4 1_555 1_555
C6 C5 1_555 1_555
H3 C6 1_555 1_555
C7 C6 1_555 1_555
H4 C7 1_555 1_555
C8 C7 1_555 1_555
H5 C8 1_555 1_555
C9 C4 1_555 1_555
H6 C9 1_555 1_555
C10 H7 1_555 1_555
C11 C2 1_555 1_555
C12 C11 1_555 1_555
H8 C12 1_555 1_555
C13 C12 1_555 1_555
C14 C13 1_555 1_555
C15 C14 1_555 1_555
H9 C15 1_555 1_555
C16 C15 1_555 1_555
H10 C16 1_555 1_555
C17 C16 1_555 1_555
H11 C17 1_555 1_555
C18 C13 1_555 1_555
H12 C18 1_555 1_555
C8 C9 1_555 1_555
C10 C11 1_555 1_555
C17 C18 1_555 1_555

#END
