
#######################################################################
#
#                 Cambridge Crystallographic Data Centre
#                                CCDC 
#
#######################################################################
#
# If this CIF has been generated from an entry in the Cambridge 
# Structural Database, then it will include bibliographic, chemical, 
# crystal, experimental, refinement or atomic coordinate data resulting 
# from the CCDC's data processing and validation procedures.
#
#######################################################################

data_LEFCIJ
_chemical_formula_moiety         'C20 H18 O6'
_chemical_name_systematic        
2,3-bis(4-hydroxy-3-methoxybenzylidene)succinaldehyde
_symmetry_cell_setting           monoclinic
_symmetry_space_group_name_H-M   'C 2/c'
_symmetry_Int_Tables_number      15
_space_group_name_Hall           '-C 2yn'
loop_
_symmetry_equiv_pos_site_id
_symmetry_equiv_pos_as_xyz
1 x,y,z
2 1/2+x,1/2+y,z
3 -x,y,1/2-z
4 1/2-x,1/2+y,1/2-z
5 -x,-y,-z
6 1/2-x,1/2-y,-z
7 x,-y,1/2+z
8 1/2+x,1/2-y,1/2+z
_cell_length_a                   15.751(3)
_cell_length_b                   8.1131(16)
_cell_length_c                   13.247(3)
_cell_angle_alpha                90
_cell_angle_beta                 90.78(3)
_cell_angle_gamma                90
_cell_volume                     1692.67
_exptl_crystal_colour            yellow
_exptl_crystal_description       block
_cell_formula_units_Z            4
_exptl_crystal_recrystallization_method acetone/hexane
loop_
_atom_site_label
_atom_site_type_symbol
_atom_site_fract_x
_atom_site_fract_y
_atom_site_fract_z
C1 C 0.15212(12) 0.1603(2) 0.21211(14)
C2 C 0.23775(11) 0.1932(3) 0.19568(14)
H1 H 0.2676 0.2614 0.24
C3 C 0.27837(12) 0.1248(2) 0.11396(14)
C4 C 0.23532(13) 0.0168(2) 0.04980(15)
C5 C 0.15199(13) -0.0222(3) 0.06876(16)
H2 H 0.1235 -0.0977 0.0278
C6 C 0.11057(13) 0.0505(3) 0.14845(15)
H3 H 0.0539 0.0254 0.1595
C7 C 0.10920(12) 0.2455(2) 0.29474(13)
H4 H 0.141 0.2635 0.3534
C8 C 0.02878(11) 0.3003(2) 0.29454(12)
C9 C 0.00005(14) 0.3889(3) 0.38421(15)
H5 H 0.0334 0.3815 0.4425
O1 O -0.06420(10) 0.47130(19) 0.38781(10)
O2 O 0.36067(8) 0.15217(18) 0.08824(10)
C10 C 0.40811(13) 0.2649(3) 0.14841(18)
H6 H 0.4647 0.2735 0.1229
H7 H 0.4104 0.2263 0.2169
H8 H 0.3813 0.3712 0.1461
O3 O 0.27377(11) -0.0525(2) -0.03134(12)
H9 H 0.3240(18) -0.006(3) -0.038(2)
C1B C -0.15212(12) 0.1603(2) 0.28789(14)
C2B C -0.23775(11) 0.1932(3) 0.30432(14)
H1B H -0.2676 0.2614 0.26
C3B C -0.27837(12) 0.1248(2) 0.38604(14)
C4B C -0.23532(13) 0.0168(2) 0.45020(15)
C5B C -0.15199(13) -0.0222(3) 0.43124(16)
H2B H -0.1235 -0.0977 0.4722
C6B C -0.11057(13) 0.0505(3) 0.35155(15)
H3B H -0.0539 0.0254 0.3405
C7B C -0.10920(12) 0.2455(2) 0.20526(13)
H4B H -0.141 0.2635 0.1466
C8B C -0.02878(11) 0.3003(2) 0.20546(12)
C9B C -0.00005(14) 0.3889(3) 0.11579(15)
H5B H -0.0334 0.3815 0.0575
O1B O 0.06420(10) 0.47130(19) 0.11219(10)
O2B O -0.36067(8) 0.15217(18) 0.41176(10)
C10B C -0.40811(13) 0.2649(3) 0.35159(18)
H6B H -0.4647 0.2735 0.3771
H7B H -0.4104 0.2263 0.2831
H8B H -0.3813 0.3712 0.3539
O3B O -0.27377(11) -0.0525(2) 0.53134(12)
H9B H -0.3240(18) -0.006(3) 0.538(2)
loop_
_geom_bond_atom_site_label_1
_geom_bond_atom_site_label_2
_geom_bond_site_symmetry_1
_geom_bond_site_symmetry_2
C1 C2 1_555 1_555
C2 H1 1_555 1_555
C3 C2 1_555 1_555
C4 C3 1_555 1_555
C5 C4 1_555 1_555
H2 C5 1_555 1_555
C6 C1 1_555 1_555
H3 C6 1_555 1_555
C7 C1 1_555 1_555
H4 C7 1_555 1_555
C8 C7 1_555 1_555
C9 C8 1_555 1_555
H5 C9 1_555 1_555
O1 C9 1_555 1_555
O2 C3 1_555 1_555
C10 O2 1_555 1_555
H6 C10 1_555 1_555
H7 C10 1_555 1_555
H8 C10 1_555 1_555
O3 C4 1_555 1_555
H9 O3 1_555 1_555
C1B C2B 1_555 1_555
C2B H1B 1_555 1_555
C3B C2B 1_555 1_555
C4B C3B 1_555 1_555
C5B C4B 1_555 1_555
H2B C5B 1_555 1_555
C6B C1B 1_555 1_555
H3B C6B 1_555 1_555
C7B C1B 1_555 1_555
H4B C7B 1_555 1_555
C8B C8 1_555 1_555
C9B C8B 1_555 1_555
H5B C9B 1_555 1_555
O1B C9B 1_555 1_555
O2B C3B 1_555 1_555
C10B O2B 1_555 1_555
H6B C10B 1_555 1_555
H7B C10B 1_555 1_555
H8B C10B 1_555 1_555
O3B C4B 1_555 1_555
H9B O3B 1_555 1_555
C5 C6 1_555 1_555
C5B C6B 1_555 1_555
C7B C8B 1_555 1_555

#END
