
#######################################################################
#
#                 Cambridge Crystallographic Data Centre
#                                CCDC 
#
#######################################################################
#
# If this CIF has been generated from an entry in the Cambridge 
# Structural Database, then it will include bibliographic, chemical, 
# crystal, experimental, refinement or atomic coordinate data resulting 
# from the CCDC's data processing and validation procedures.
#
#######################################################################

data_LEFDOR01
_chemical_formula_moiety         'C20 H22 O5'
_chemical_name_systematic        
4a-Hydroxy-9-(4-methoxyphenyl)-3,4,4a,5,6,7,9,9a-octahydro-1H-xanthene-1,8(2H)-dione
_symmetry_cell_setting           orthorhombic
_symmetry_space_group_name_H-M   'P b c n'
_symmetry_Int_Tables_number      60
_space_group_name_Hall           '-P 2n 2ab'
loop_
_symmetry_equiv_pos_site_id
_symmetry_equiv_pos_as_xyz
1 x,y,z
2 1/2-x,1/2-y,1/2+z
3 -x,y,1/2-z
4 1/2+x,1/2-y,-z
5 -x,-y,-z
6 1/2+x,1/2+y,1/2-z
7 x,-y,1/2+z
8 1/2-x,1/2+y,z
_cell_length_a                   15.8888(19)
_cell_length_b                   18.228(2)
_cell_length_c                   11.6926(13)
_cell_angle_alpha                90
_cell_angle_beta                 90
_cell_angle_gamma                90
_cell_volume                     3386.42
_exptl_crystal_colour            colorless
_exptl_crystal_description       piece
_cell_formula_units_Z            8
loop_
_atom_site_label
_atom_site_type_symbol
_atom_site_fract_x
_atom_site_fract_y
_atom_site_fract_z
C1 C 0.65673(13) 0.57749(13) 0.17703(18)
C2 C 0.62025(16) 0.51274(15) 0.1153(2)
H1 H 0.5632 0.5044 0.1419
H2 H 0.6532 0.4694 0.1329
C3 C 0.61931(14) 0.52455(14) -0.0141(2)
H3 H 0.6029 0.4793 -0.0516
H4 H 0.5778 0.5616 -0.0330
C4 C 0.70522(13) 0.54866(11) -0.05897(17)
H5 H 0.7454 0.5090 -0.0497
H6 H 0.7011 0.5598 -0.1399
C5 C 0.73589(11) 0.61573(10) 0.00509(15)
C6 C 0.74200(11) 0.60247(10) 0.13330(15)
H7 H 0.7812 0.5616 0.1446
C7 C 0.77812(11) 0.66842(10) 0.19755(14)
H8 H 0.7321 0.7026 0.2138
C8 C 0.84288(11) 0.70766(10) 0.12470(14)
C9 C 0.87887(12) 0.77618(11) 0.16614(16)
C10 C 0.94341(15) 0.81417(12) 0.09347(19)
H9 H 0.9155 0.8506 0.0464
H10 H 0.9828 0.8396 0.1429
C11 C 0.99119(15) 0.76288(15) 0.0177(2)
H11 H 1.0264 0.7312 0.0641
H12 H 1.0275 0.7908 -0.0328
C12 C 0.93146(12) 0.71655(12) -0.05281(17)
H13 H 0.9079 0.7464 -0.1136
H14 H 0.9626 0.6766 -0.0878
C13 C 0.86185(11) 0.68576(10) 0.01728(15)
C14 C 0.81547(10) 0.64327(10) 0.31058(15)
C15 C 0.77846(12) 0.66087(11) 0.41367(16)
H15 H 0.7304 0.6900 0.4138
C16 C 0.81059(12) 0.63646(11) 0.51692(16)
H16 H 0.7848 0.6497 0.5852
C17 C 0.88136(12) 0.59222(11) 0.51788(15)
C18 C 0.91990(12) 0.57381(11) 0.41561(16)
H17 H 0.9676 0.5442 0.4155
C19 C 0.88724(11) 0.59955(11) 0.31359(15)
H18 H 0.9139 0.5874 0.2454
C20 C 0.88479(17) 0.58867(15) 0.72028(17)
H19 H 0.9150 0.5659 0.7819
H20 H 0.8264 0.5755 0.7250
H21 H 0.8904 0.6410 0.7257
O1 O 0.62188(11) 0.60757(12) 0.25558(16)
O2 O 0.85467(11) 0.80480(8) 0.25497(12)
O3 O 0.81926(8) 0.63218(7) -0.03860(11)
O4 O 0.68407(9) 0.67635(7) -0.00951(11)
H22 H 0.6733 0.6814 -0.0776
O5 O 0.91800(10) 0.56453(8) 0.61482(11)
loop_
_geom_bond_atom_site_label_1
_geom_bond_atom_site_label_2
_geom_bond_site_symmetry_1
_geom_bond_site_symmetry_2
C1 C2 1_555 1_555
C2 H1 1_555 1_555
H2 C2 1_555 1_555
C3 C2 1_555 1_555
H3 C3 1_555 1_555
H4 C3 1_555 1_555
C4 C3 1_555 1_555
H5 C4 1_555 1_555
H6 C4 1_555 1_555
C5 C4 1_555 1_555
C6 C1 1_555 1_555
H7 C6 1_555 1_555
C7 C6 1_555 1_555
H8 C7 1_555 1_555
C8 C7 1_555 1_555
C9 C8 1_555 1_555
C10 C9 1_555 1_555
H9 C10 1_555 1_555
H10 C10 1_555 1_555
C11 C10 1_555 1_555
H11 C11 1_555 1_555
H12 C11 1_555 1_555
C12 C11 1_555 1_555
H13 C12 1_555 1_555
H14 C12 1_555 1_555
C13 C8 1_555 1_555
C14 C7 1_555 1_555
C15 C14 1_555 1_555
H15 C15 1_555 1_555
C16 C15 1_555 1_555
H16 C16 1_555 1_555
C17 C16 1_555 1_555
C18 C17 1_555 1_555
H17 C18 1_555 1_555
C19 C14 1_555 1_555
H18 C19 1_555 1_555
C20 H19 1_555 1_555
H20 C20 1_555 1_555
H21 C20 1_555 1_555
O1 C1 1_555 1_555
O2 C9 1_555 1_555
O3 C5 1_555 1_555
O4 C5 1_555 1_555
H22 O4 1_555 1_555
O5 C17 1_555 1_555
C5 C6 1_555 1_555
C12 C13 1_555 1_555
C13 O3 1_555 1_555
C18 C19 1_555 1_555
C20 O5 1_555 1_555

#END
