
#######################################################################
#
#                 Cambridge Crystallographic Data Centre
#                                CCDC 
#
#######################################################################
#
# If this CIF has been generated from an entry in the Cambridge 
# Structural Database, then it will include bibliographic, chemical, 
# crystal, experimental, refinement or atomic coordinate data resulting 
# from the CCDC's data processing and validation procedures.
#
#######################################################################

data_LEFGEL
_chemical_formula_moiety         'C64 H128 Ca4 I6 Li2 O10 Si4'
_chemical_name_systematic        
'hexakis(\m-iodo)-bis(\m-2,3-dimethyl-1,4-bis(trimethylsilyl)buta-1,3-dien-1,4-diido)-decakis(tetrahydrofuran)-tetra-calcium-di-lithium unknown solvate'
_symmetry_cell_setting           monoclinic
_symmetry_space_group_name_H-M   'P 21/c'
_symmetry_Int_Tables_number      14
_space_group_name_Hall           '-P 2ybc'
loop_
_symmetry_equiv_pos_site_id
_symmetry_equiv_pos_as_xyz
1 x,y,z
2 -x,1/2+y,1/2-z
3 -x,-y,-z
4 x,1/2-y,1/2+z
_cell_length_a                   15.2978(8)
_cell_length_b                   15.5245(7)
_cell_length_c                   20.9932(12)
_cell_angle_alpha                90
_cell_angle_beta                 101.900(5)
_cell_angle_gamma                90
_cell_volume                     4878.54
_exptl_crystal_colour            orange
_exptl_crystal_description       block
_cell_formula_units_Z            2
_chemical_properties_physical    
', Air-sensitive,Moisture-sensitive,Heat-sensitive,Oxygen-sensitive'
_exptl_crystal_recrystallization_method tetrahydrofuran
loop_
_atom_site_label
_atom_site_type_symbol
_atom_site_fract_x
_atom_site_fract_y
_atom_site_fract_z
I1 I 0.04173(5) 0.63060(4) 0.47771(4)
I2 I 0.09264(5) 0.52635(5) 0.68926(4)
I3 I 0.34602(6) 0.63757(6) 0.79259(5)
Ca1 Ca 0.14354(13) 0.46994(12) 0.55447(9)
Ca2 Ca 0.30050(13) 0.47366(13) 0.69973(10)
Si1 Si 0.3385(3) 0.6411(2) 0.5711(2)
Si2 Si 0.2123(2) 0.24635(19) 0.63860(15)
O1 O 0.1633(6) 0.4259(5) 0.4504(4)
O2 O 0.4577(5) 0.4380(6) 0.7240(4)
O3 O 0.2996(6) 0.3964(6) 0.7975(4)
O4 O 0.1318(7) 0.6227(7) 0.8597(5)
O5 O 0.1136(8) 0.7601(6) 0.7469(5)
C1 C 0.3004(6) 0.5282(6) 0.5851(5)
C2 C 0.3384(8) 0.4580(9) 0.5655(7)
C3 C 0.3093(8) 0.3673(7) 0.5799(6)
C4 C 0.2477(7) 0.3546(6) 0.6170(5)
C5 C 0.2674(11) 0.7222(8) 0.5992(8)
H1 H 0.2049 0.7121 0.5782
H2 H 0.2854 0.7799 0.5879
H3 H 0.2741 0.7178 0.6465
C6 C 0.4564(11) 0.6654(13) 0.6159(11)
H4 H 0.4694 0.7266 0.6109
H5 H 0.4987 0.6304 0.5977
H6 H 0.4623 0.6519 0.6621
C7 C 0.3316(13) 0.6663(11) 0.4807(9)
H7 H 0.2689 0.6731 0.4588
H8 H 0.3583 0.6190 0.4604
H9 H 0.3640 0.7198 0.4766
C8 C 0.4131(12) 0.4607(11) 0.5261(10)
H10 H 0.4244 0.5206 0.5155
H11 H 0.3945 0.4276 0.4858
H12 H 0.4678 0.4355 0.5521
C9 C 0.3506(10) 0.2942(9) 0.5467(8)
H13 H 0.4126 0.2850 0.5695
H14 H 0.3494 0.3097 0.5013
H15 H 0.3163 0.2412 0.5481
C10 C 0.1617(11) 0.1746(8) 0.5690(7)
H16 H 0.1055 0.1998 0.5456
H17 H 0.1501 0.1177 0.5858
H18 H 0.2031 0.1688 0.5394
C11 C 0.3051(11) 0.1839(10) 0.6916(9)
H19 H 0.3547 0.1773 0.6690
H20 H 0.2831 0.1269 0.7008
H21 H 0.3258 0.2150 0.7325
C12 C 0.1240(9) 0.2602(8) 0.6876(6)
H22 H 0.1490 0.2913 0.7279
H23 H 0.1027 0.2036 0.6982
H24 H 0.0740 0.2932 0.6623
C13 C 0.1918(12) 0.4784(10) 0.4031(8)
H25 H 0.2384 0.5191 0.4246
H26 H 0.1408 0.5121 0.3787
C14 C 0.2288(14) 0.4204(13) 0.3570(10)
H27 H 0.2319 0.4501 0.3157
H28 H 0.2884 0.3975 0.3771
C15 C 0.1594(12) 0.3525(12) 0.3473(7)
H29 H 0.1048 0.3691 0.3155
H30 H 0.1817 0.2962 0.3354
C16 C 0.1478(10) 0.3555(9) 0.4139(6)
H31 H 0.0853 0.3384 0.4131
H32 H 0.1861 0.3096 0.4377
C17 C 0.5285(11) 0.4951(12) 0.7547(11)
H33 H 0.5206 0.5113 0.7988
H34 H 0.5284 0.5482 0.7286
C18 C 0.6158(15) 0.4460(17) 0.7588(12)
H35 H 0.6313 0.4125 0.7997
H36 H 0.6656 0.4856 0.7560
C19 C 0.5948(13) 0.3868(16) 0.6996(12)
H37 H 0.6349 0.3361 0.7041
H38 H 0.5966 0.4175 0.6586
C20 C 0.4990(11) 0.3626(10) 0.7051(10)
H39 H 0.4651 0.3413 0.6627
H40 H 0.5003 0.3166 0.7379
C21 C 0.3816(11) 0.3612(14) 0.8363(9)
H41 H 0.4270 0.4068 0.8493
H42 H 0.4066 0.3158 0.8121
C22 C 0.3518(12) 0.3242(14) 0.8948(9)
H43 H 0.4027 0.3220 0.9325
H44 H 0.3287 0.2650 0.8853
C23 C 0.2778(12) 0.3833(13) 0.9100(6)
H45 H 0.2323 0.3529 0.9289
H46 H 0.3004 0.4350 0.9358
C24 C 0.2503(7) 0.3996(7) 0.8391(4)
H47 H 0.2005 0.3592 0.8232
H48 H 0.2237 0.4580 0.8350
C25 C 0.0530(12) 0.5812(13) 0.8700(10)
H49 H 0.0385 0.5314 0.8403
H50 H 0.0020 0.6218 0.8614
C26 C 0.0693(18) 0.5528(17) 0.9369(12)
H51 H 0.0147 0.5606 0.9546
H52 H 0.0848 0.4908 0.9392
C27 C 0.141(2) 0.602(2) 0.9746(14)
H53 H 0.1872 0.5632 1.0000
H54 H 0.1192 0.6410 1.0049
C28 C 0.1800(15) 0.6535(15) 0.9233(9)
H55 H 0.1703 0.7161 0.9279
H56 H 0.2449 0.6428 0.9285
C29 C 0.1333(15) 0.8365(11) 0.7832(9)
H57 H 0.1954 0.8353 0.8087
H58 H 0.0921 0.8438 0.8135
C30 C 0.121(2) 0.9086(17) 0.7339(12)
H59 H 0.1797 0.9353 0.7328
H60 H 0.0815 0.9535 0.7457
C31 C 0.080(3) 0.8705(18) 0.6673(15)
H61 H 0.1235 0.8702 0.6381
H62 H 0.0259 0.9023 0.6461
C32 C 0.0577(15) 0.7781(15) 0.6860(10)
H63 H -0.0059 0.7742 0.6891
H64 H 0.0687 0.7365 0.6528
Li1 Li 0.1592(17) 0.6523(16) 0.7777(12)
I1B I -0.04173(5) 0.36940(4) 0.52229(4)
I2B I -0.09264(5) 0.47365(5) 0.31074(4)
I3B I -0.34602(6) 0.36243(6) 0.20741(5)
Ca1B Ca -0.14354(13) 0.53006(12) 0.44553(9)
Ca2B Ca -0.30050(13) 0.52634(13) 0.30027(10)
Si1B Si -0.3385(3) 0.3589(2) 0.4289(2)
Si2B Si -0.2123(2) 0.75365(19) 0.36140(15)
O1B O -0.1633(6) 0.5741(5) 0.5496(4)
O2B O -0.4577(5) 0.5620(6) 0.2760(4)
O3B O -0.2996(6) 0.6036(6) 0.2025(4)
O4B O -0.1318(7) 0.3773(7) 0.1403(5)
O5B O -0.1136(8) 0.2399(6) 0.2531(5)
C1B C -0.3004(6) 0.4718(6) 0.4149(5)
C2B C -0.3384(8) 0.5420(9) 0.4345(7)
C3B C -0.3093(8) 0.6327(7) 0.4201(6)
C4B C -0.2477(7) 0.6454(6) 0.3830(5)
C5B C -0.2674(11) 0.2778(8) 0.4008(8)
H1B H -0.2049 0.2879 0.4218
H2B H -0.2854 0.2201 0.4121
H3B H -0.2741 0.2822 0.3535
C6B C -0.4564(11) 0.3346(13) 0.3841(11)
H4B H -0.4694 0.2734 0.3891
H5B H -0.4987 0.3696 0.4023
H6B H -0.4623 0.3481 0.3379
C7B C -0.3316(13) 0.3337(11) 0.5193(9)
H7B H -0.2689 0.3269 0.5412
H8B H -0.3583 0.3810 0.5396
H9B H -0.3640 0.2802 0.5234
C8B C -0.4131(12) 0.5393(11) 0.4739(10)
H10B H -0.4244 0.4794 0.4845
H11B H -0.3945 0.5724 0.5142
H12B H -0.4678 0.5645 0.4479
C9B C -0.3506(10) 0.7058(9) 0.4533(8)
H13B H -0.4126 0.7150 0.4305
H14B H -0.3494 0.6903 0.4987
H15B H -0.3163 0.7588 0.4519
C10B C -0.1617(11) 0.8254(8) 0.4310(7)
H16B H -0.1055 0.8002 0.4544
H17B H -0.1501 0.8823 0.4142
H18B H -0.2031 0.8312 0.4606
C11B C -0.3051(11) 0.8161(10) 0.3084(9)
H19B H -0.3547 0.8227 0.3310
H20B H -0.2831 0.8731 0.2992
H21B H -0.3258 0.7850 0.2675
C12B C -0.1240(9) 0.7398(8) 0.3124(6)
H22B H -0.1490 0.7087 0.2721
H23B H -0.1027 0.7964 0.3018
H24B H -0.0740 0.7068 0.3377
C13B C -0.1918(12) 0.5216(10) 0.5969(8)
H25B H -0.2384 0.4809 0.5754
H26B H -0.1408 0.4879 0.6213
C14B C -0.2288(14) 0.5796(13) 0.6430(10)
H27B H -0.2319 0.5499 0.6843
H28B H -0.2884 0.6025 0.6229
C15B C -0.1594(12) 0.6475(12) 0.6527(7)
H29B H -0.1048 0.6309 0.6845
H30B H -0.1817 0.7038 0.6646
C16B C -0.1478(10) 0.6445(9) 0.5861(6)
H31B H -0.0853 0.6616 0.5869
H32B H -0.1861 0.6904 0.5623
C17B C -0.5285(11) 0.5049(12) 0.2453(11)
H33B H -0.5206 0.4887 0.2012
H34B H -0.5284 0.4518 0.2714
C18B C -0.6158(15) 0.5540(17) 0.2412(12)
H35B H -0.6313 0.5875 0.2003
H36B H -0.6656 0.5144 0.2440
C19B C -0.5948(13) 0.6132(16) 0.3004(12)
H37B H -0.6349 0.6639 0.2959
H38B H -0.5966 0.5825 0.3414
C20B C -0.4990(11) 0.6374(10) 0.2949(10)
H39B H -0.4651 0.6587 0.3373
H40B H -0.5003 0.6834 0.2621
C21B C -0.3816(11) 0.6388(14) 0.1637(9)
H41B H -0.4270 0.5932 0.1507
H42B H -0.4066 0.6842 0.1879
C22B C -0.3518(12) 0.6758(14) 0.1052(9)
H43B H -0.4027 0.6780 0.0675
H44B H -0.3287 0.7350 0.1147
C23B C -0.2778(12) 0.6167(13) 0.0900(6)
H45B H -0.2323 0.6471 0.0711
H46B H -0.3004 0.5650 0.0642
C24B C -0.2503(7) 0.6004(7) 0.1609(4)
H47B H -0.2005 0.6408 0.1768
H48B H -0.2237 0.5420 0.1650
C25B C -0.0530(12) 0.4188(13) 0.1300(10)
H49B H -0.0385 0.4686 0.1597
H50B H -0.0020 0.3782 0.1386
C26B C -0.0693(18) 0.4472(17) 0.0631(12)
H51B H -0.0147 0.4394 0.0454
H52B H -0.0848 0.5092 0.0608
C27B C -0.141(2) 0.398(2) 0.0254(14)
H53B H -0.1872 0.4368 0.0000
H54B H -0.1192 0.3590 -0.0049
C28B C -0.1800(15) 0.3465(15) 0.0767(9)
H55B H -0.1703 0.2839 0.0721
H56B H -0.2449 0.3572 0.0715
C29B C -0.1333(15) 0.1635(11) 0.2168(9)
H57B H -0.1954 0.1647 0.1913
H58B H -0.0921 0.1562 0.1865
C30B C -0.121(2) 0.0914(17) 0.2661(12)
H59B H -0.1797 0.0647 0.2672
H60B H -0.0815 0.0465 0.2543
C31B C -0.080(3) 0.1295(18) 0.3327(15)
H61B H -0.1235 0.1298 0.3619
H62B H -0.0259 0.0977 0.3539
C32B C -0.0577(15) 0.2219(15) 0.3140(10)
H63B H 0.0059 0.2258 0.3109
H64B H -0.0687 0.2635 0.3472
Li1B Li -0.1592(17) 0.3477(16) 0.2223(12)
loop_
_geom_bond_atom_site_label_1
_geom_bond_atom_site_label_2
_geom_bond_site_symmetry_1
_geom_bond_site_symmetry_2
I1 Ca1 1_555 1_555
I2 Ca1 1_555 1_555
I3 Ca2 1_555 1_555
Ca1 O1 1_555 1_555
Ca2 I2 1_555 1_555
Si1 C1 1_555 1_555
Si2 C4 1_555 1_555
O1 C13 1_555 1_555
O2 Ca2 1_555 1_555
O3 Ca2 1_555 1_555
O4 C25 1_555 1_555
O5 C29 1_555 1_555
C1 Ca1 1_555 1_555
C2 C1 1_555 1_555
C3 C2 1_555 1_555
C4 Ca1 1_555 1_555
C5 Si1 1_555 1_555
H1 C5 1_555 1_555
H2 C5 1_555 1_555
H3 C5 1_555 1_555
C6 Si1 1_555 1_555
H4 C6 1_555 1_555
H5 C6 1_555 1_555
H6 C6 1_555 1_555
C7 Si1 1_555 1_555
H7 C7 1_555 1_555
H8 C7 1_555 1_555
H9 C7 1_555 1_555
C8 C2 1_555 1_555
H10 C8 1_555 1_555
H11 C8 1_555 1_555
H12 C8 1_555 1_555
C9 C3 1_555 1_555
H13 C9 1_555 1_555
H14 C9 1_555 1_555
H15 C9 1_555 1_555
C10 Si2 1_555 1_555
H16 C10 1_555 1_555
H17 C10 1_555 1_555
H18 C10 1_555 1_555
C11 Si2 1_555 1_555
H19 C11 1_555 1_555
H20 C11 1_555 1_555
H21 C11 1_555 1_555
C12 Si2 1_555 1_555
H22 C12 1_555 1_555
H23 C12 1_555 1_555
H24 C12 1_555 1_555
C13 H25 1_555 1_555
H26 C13 1_555 1_555
C14 C13 1_555 1_555
H27 C14 1_555 1_555
H28 C14 1_555 1_555
C15 C14 1_555 1_555
H29 C15 1_555 1_555
H30 C15 1_555 1_555
C16 O1 1_555 1_555
H31 C16 1_555 1_555
H32 C16 1_555 1_555
C17 O2 1_555 1_555
H33 C17 1_555 1_555
H34 C17 1_555 1_555
C18 C17 1_555 1_555
H35 C18 1_555 1_555
H36 C18 1_555 1_555
C19 C18 1_555 1_555
H37 C19 1_555 1_555
H38 C19 1_555 1_555
C20 O2 1_555 1_555
H39 C20 1_555 1_555
H40 C20 1_555 1_555
C21 O3 1_555 1_555
H41 C21 1_555 1_555
H42 C21 1_555 1_555
C22 C21 1_555 1_555
H43 C22 1_555 1_555
H44 C22 1_555 1_555
C23 C22 1_555 1_555
H45 C23 1_555 1_555
H46 C23 1_555 1_555
C24 O3 1_555 1_555
H47 C24 1_555 1_555
H48 C24 1_555 1_555
C25 H49 1_555 1_555
H50 C25 1_555 1_555
C26 C25 1_555 1_555
H51 C26 1_555 1_555
H52 C26 1_555 1_555
C27 C26 1_555 1_555
H53 C27 1_555 1_555
H54 C27 1_555 1_555
C28 O4 1_555 1_555
H55 C28 1_555 1_555
H56 C28 1_555 1_555
C29 H57 1_555 1_555
H58 C29 1_555 1_555
C30 C29 1_555 1_555
H59 C30 1_555 1_555
H60 C30 1_555 1_555
C31 C30 1_555 1_555
H61 C31 1_555 1_555
H62 C31 1_555 1_555
C32 O5 1_555 1_555
H63 C32 1_555 1_555
H64 C32 1_555 1_555
Li1 I2 1_555 1_555
I1B Ca1 1_555 1_555
I2B Ca1B 1_555 1_555
I3B Ca2B 1_555 1_555
Ca1B I1 1_555 1_555
Ca2B I2B 1_555 1_555
Si1B C1B 1_555 1_555
Si2B C4B 1_555 1_555
O1B Ca1B 1_555 1_555
O2B Ca2B 1_555 1_555
O3B Ca2B 1_555 1_555
O4B C25B 1_555 1_555
O5B C29B 1_555 1_555
C1B Ca1B 1_555 1_555
C2B C1B 1_555 1_555
C3B C2B 1_555 1_555
C4B Ca1B 1_555 1_555
C5B Si1B 1_555 1_555
H1B C5B 1_555 1_555
H2B C5B 1_555 1_555
H3B C5B 1_555 1_555
C6B Si1B 1_555 1_555
H4B C6B 1_555 1_555
H5B C6B 1_555 1_555
H6B C6B 1_555 1_555
C7B Si1B 1_555 1_555
H7B C7B 1_555 1_555
H8B C7B 1_555 1_555
H9B C7B 1_555 1_555
C8B C2B 1_555 1_555
H10B C8B 1_555 1_555
H11B C8B 1_555 1_555
H12B C8B 1_555 1_555
C9B C3B 1_555 1_555
H13B C9B 1_555 1_555
H14B C9B 1_555 1_555
H15B C9B 1_555 1_555
C10B Si2B 1_555 1_555
H16B C10B 1_555 1_555
H17B C10B 1_555 1_555
H18B C10B 1_555 1_555
C11B Si2B 1_555 1_555
H19B C11B 1_555 1_555
H20B C11B 1_555 1_555
H21B C11B 1_555 1_555
C12B Si2B 1_555 1_555
H22B C12B 1_555 1_555
H23B C12B 1_555 1_555
H24B C12B 1_555 1_555
C13B O1B 1_555 1_555
H25B C13B 1_555 1_555
H26B C13B 1_555 1_555
C14B C13B 1_555 1_555
H27B C14B 1_555 1_555
H28B C14B 1_555 1_555
C15B C14B 1_555 1_555
H29B C15B 1_555 1_555
H30B C15B 1_555 1_555
C16B O1B 1_555 1_555
H31B C16B 1_555 1_555
H32B C16B 1_555 1_555
C17B O2B 1_555 1_555
H33B C17B 1_555 1_555
H34B C17B 1_555 1_555
C18B C17B 1_555 1_555
H35B C18B 1_555 1_555
H36B C18B 1_555 1_555
C19B C18B 1_555 1_555
H37B C19B 1_555 1_555
H38B C19B 1_555 1_555
C20B O2B 1_555 1_555
H39B C20B 1_555 1_555
H40B C20B 1_555 1_555
C21B O3B 1_555 1_555
H41B C21B 1_555 1_555
H42B C21B 1_555 1_555
C22B C21B 1_555 1_555
H43B C22B 1_555 1_555
H44B C22B 1_555 1_555
C23B C22B 1_555 1_555
H45B C23B 1_555 1_555
H46B C23B 1_555 1_555
C24B O3B 1_555 1_555
H47B C24B 1_555 1_555
H48B C24B 1_555 1_555
C25B H49B 1_555 1_555
H50B C25B 1_555 1_555
C26B C25B 1_555 1_555
H51B C26B 1_555 1_555
H52B C26B 1_555 1_555
C27B C26B 1_555 1_555
H53B C27B 1_555 1_555
H54B C27B 1_555 1_555
C28B O4B 1_555 1_555
H55B C28B 1_555 1_555
H56B C28B 1_555 1_555
C29B H57B 1_555 1_555
H58B C29B 1_555 1_555
C30B C29B 1_555 1_555
H59B C30B 1_555 1_555
H60B C30B 1_555 1_555
C31B C30B 1_555 1_555
H61B C31B 1_555 1_555
H62B C31B 1_555 1_555
C32B O5B 1_555 1_555
H63B C32B 1_555 1_555
H64B C32B 1_555 1_555
Li1B I2B 1_555 1_555
I3 Li1 1_555 1_555
Ca2 C1 1_555 1_555
Ca2 C4 1_555 1_555
O4 Li1 1_555 1_555
O5 Li1 1_555 1_555
C3 C4 1_555 1_555
C15 C16 1_555 1_555
C19 C20 1_555 1_555
C23 C24 1_555 1_555
C27 C28 1_555 1_555
C31 C32 1_555 1_555
I1B Ca1B 1_555 1_555
I3B Li1B 1_555 1_555
Ca2B C1B 1_555 1_555
Ca2B C4B 1_555 1_555
O4B Li1B 1_555 1_555
O5B Li1B 1_555 1_555
C3B C4B 1_555 1_555
C15B C16B 1_555 1_555
C19B C20B 1_555 1_555
C23B C24B 1_555 1_555
C27B C28B 1_555 1_555
C31B C32B 1_555 1_555

#END
