
#######################################################################
#
#                 Cambridge Crystallographic Data Centre
#                                CCDC 
#
#######################################################################
#
# If this CIF has been generated from an entry in the Cambridge 
# Structural Database, then it will include bibliographic, chemical, 
# crystal, experimental, refinement or atomic coordinate data resulting 
# from the CCDC's data processing and validation procedures.
#
#######################################################################

data_LEFHAI
_chemical_formula_moiety         'C22 H25 N1 O6'
_chemical_name_systematic        
"7-methyl-4-methylidene-3,4,4a,5,6,8a-hexahydrospiro[1-benzopyran-2,2'-oxan]-6-yl 4-nitrobenzoate"
_symmetry_cell_setting           triclinic
_symmetry_space_group_name_H-M   'P -1'
_symmetry_Int_Tables_number      2
_space_group_name_Hall           '-P 1'
loop_
_symmetry_equiv_pos_site_id
_symmetry_equiv_pos_as_xyz
1 x,y,z
2 -x,-y,-z
_cell_length_a                   5.7736(3)
_cell_length_b                   8.0291(4)
_cell_length_c                   23.5381(10)
_cell_angle_alpha                91.398(4)
_cell_angle_beta                 96.262(4)
_cell_angle_gamma                109.522(4)
_cell_volume                     1020.13
_exptl_crystal_colour            colorless
_exptl_crystal_description       needle
_cell_formula_units_Z            2
loop_
_atom_site_label
_atom_site_type_symbol
_atom_site_fract_x
_atom_site_fract_y
_atom_site_fract_z
O1 O 0.41008(14) 0.52541(10) 0.38570(3)
O2 O 0.79185(14) 0.57408(10) 0.35140(3)
O3 O 0.80849(14) 0.23097(11) 0.18144(3)
O4 O 1.00733(18) 0.03270(13) 0.18582(4)
O5 O -0.03356(18) -0.25818(13) -0.03854(4)
O6 O 0.17893(18) -0.43248(12) -0.04502(4)
N1 N 0.13946(19) -0.30752(13) -0.02186(4)
C1 C 0.6779(2) 0.50031(14) 0.29441(5)
H1 H 0.5204 0.5262 0.2859
C2 C 0.8555(2) 0.59600(14) 0.25447(5)
H2 H 0.8762 0.7171 0.2497
C3 C 0.9863(2) 0.52357(15) 0.22520(5)
C4 C 0.9698(2) 0.33383(15) 0.23240(5)
H3 H 1.1384 0.3242 0.2332
C5 C 0.8593(2) 0.26027(15) 0.28562(5)
H4 H 0.9787 0.3149 0.3200
H5 H 0.8247 0.1308 0.2845
C6 C 0.6189(2) 0.29913(14) 0.28922(5)
H6 H 0.5073 0.2515 0.2527
C7 C 0.4849(2) 0.21270(15) 0.33790(5)
C8 C 0.5923(2) 0.30385(15) 0.39609(5)
H7 H 0.7481 0.2816 0.4085
H8 H 0.4748 0.2538 0.4240
C9 C 0.6446(2) 0.50301(15) 0.39566(5)
C10 C 0.7909(2) 0.60144(16) 0.45119(5)
H9 H 0.9604 0.5957 0.4543
H10 H 0.7112 0.5423 0.4839
C11 C 0.8065(3) 0.79490(17) 0.45458(5)
H11 H 0.8774 0.8485 0.4937
H12 H 0.9175 0.8609 0.4274
C12 C 0.5507(3) 0.80987(17) 0.44022(6)
H13 H 0.4482 0.7621 0.4711
H14 H 0.5664 0.9360 0.4376
C13 C 0.4257(2) 0.70798(15) 0.38387(5)
H15 H 0.2572 0.7144 0.3758
H16 H 0.5210 0.7624 0.3526
C14 C 0.2876(2) 0.06689(16) 0.32937(6)
H17 H 0.2070 0.0150 0.3609
H18 H 0.2268 0.0142 0.2917
C15 C 1.1573(2) 0.62197(18) 0.18430(5)
H19 H 1.3256 0.6236 0.1968
H20 H 1.1565 0.7437 0.1835
H21 H 1.1017 0.5629 0.1459
C16 C 0.8420(2) 0.08116(15) 0.16519(5)
C17 C 0.6488(2) -0.02095(15) 0.11773(5)
C18 C 0.4542(2) 0.03504(15) 0.09689(5)
H22 H 0.4383 0.1390 0.1136
C19 C 0.2834(2) -0.06101(16) 0.05170(5)
H23 H 0.1495 -0.0242 0.0371
C20 C 0.3121(2) -0.21121(15) 0.02841(5)
C21 C 0.4992(2) -0.27274(16) 0.04927(5)
H24 H 0.5116 -0.3784 0.0330
C22 C 0.6683(2) -0.17623(16) 0.09452(5)
H25 H 0.7983 -0.2161 0.1098
loop_
_geom_bond_atom_site_label_1
_geom_bond_atom_site_label_2
_geom_bond_site_symmetry_1
_geom_bond_site_symmetry_2
O1 C9 1_555 1_555
O2 C1 1_555 1_555
O3 C4 1_555 1_555
O4 C16 1_555 1_555
O5 N1 1_555 1_555
O6 N1 1_555 1_555
N1 C20 1_555 1_555
C1 H1 1_555 1_555
C2 C1 1_555 1_555
H2 C2 1_555 1_555
C3 C2 1_555 1_555
C4 C3 1_555 1_555
H3 C4 1_555 1_555
C5 C4 1_555 1_555
H4 C5 1_555 1_555
H5 C5 1_555 1_555
C6 C1 1_555 1_555
H6 C6 1_555 1_555
C7 C6 1_555 1_555
C8 C7 1_555 1_555
H7 C8 1_555 1_555
H8 C8 1_555 1_555
C9 O2 1_555 1_555
C10 C9 1_555 1_555
H9 C10 1_555 1_555
H10 C10 1_555 1_555
C11 C10 1_555 1_555
H11 C11 1_555 1_555
H12 C11 1_555 1_555
C12 C11 1_555 1_555
H13 C12 1_555 1_555
H14 C12 1_555 1_555
C13 O1 1_555 1_555
H15 C13 1_555 1_555
H16 C13 1_555 1_555
C14 C7 1_555 1_555
H17 C14 1_555 1_555
H18 C14 1_555 1_555
C15 C3 1_555 1_555
H19 C15 1_555 1_555
H20 C15 1_555 1_555
H21 C15 1_555 1_555
C16 O3 1_555 1_555
C17 C16 1_555 1_555
C18 C17 1_555 1_555
H22 C18 1_555 1_555
C19 C18 1_555 1_555
H23 C19 1_555 1_555
C20 C19 1_555 1_555
C21 C20 1_555 1_555
H24 C21 1_555 1_555
C22 C17 1_555 1_555
H25 C22 1_555 1_555
C5 C6 1_555 1_555
C8 C9 1_555 1_555
C12 C13 1_555 1_555
C21 C22 1_555 1_555

#END
