
#######################################################################
#
#                 Cambridge Crystallographic Data Centre
#                                CCDC 
#
#######################################################################
#
# If this CIF has been generated from an entry in the Cambridge 
# Structural Database, then it will include bibliographic, chemical, 
# crystal, experimental, refinement or atomic coordinate data resulting 
# from the CCDC's data processing and validation procedures.
#
#######################################################################

data_LEFHIQ
_chemical_formula_moiety         'C22 H23 N1 O7'
_chemical_name_systematic        
"(7-methyl-6-oxo-4a,5,6,8a-tetrahydrospiro[1-benzopyran-2,2'-oxan]-4-yl)methyl 4-nitrobenzoate"
_symmetry_cell_setting           triclinic
_symmetry_space_group_name_H-M   'P -1'
_symmetry_Int_Tables_number      2
_space_group_name_Hall           '-P 1'
loop_
_symmetry_equiv_pos_site_id
_symmetry_equiv_pos_as_xyz
1 x,y,z
2 -x,-y,-z
_cell_length_a                   10.1269(8)
_cell_length_b                   11.0806(8)
_cell_length_c                   11.2922(6)
_cell_angle_alpha                119.368(7)
_cell_angle_beta                 90.308(5)
_cell_angle_gamma                113.493(7)
_cell_volume                     980.239
_exptl_crystal_colour            colorless
_exptl_crystal_description       plate
_cell_formula_units_Z            2
loop_
_atom_site_label
_atom_site_type_symbol
_atom_site_fract_x
_atom_site_fract_y
_atom_site_fract_z
O1 O 0.31964(14) 0.16046(14) 0.10516(13)
O2 O 0.57477(13) 0.30343(14) 0.21513(12)
O3 O 0.31455(14) 0.18244(14) 0.54467(13)
O4 O 0.25889(17) 0.01172(18) 0.61187(17)
O5 O -0.1566(5) 0.4466(5) 0.8942(4)
O6 O -0.29535(19) 0.2130(2) 0.85423(19)
O7 O 0.99764(15) 0.33572(16) 0.45653(15)
N1 N -0.1800(14) 0.3141(15) 0.8510(13)
C1 C 0.5975(2) 0.1759(2) 0.19699(18)
H1 H 0.5135 0.0756 0.1208
C2 C 0.60117(19) 0.17699(19) 0.33252(18)
H2 H 0.5923 0.0747 0.3108
C3 C 0.7504(2) 0.3076(2) 0.44125(18)
H3 H 0.7565 0.4102 0.4707
H4 H 0.7544 0.3008 0.5253
C4 C 0.8821(2) 0.2967(2) 0.3832(2)
C5 C 0.8675(2) 0.2439(2) 0.2325(2)
C6 C 0.7387(2) 0.1941(2) 0.15090(19)
H5 H 0.7362 0.1684 0.0571
C7 C 0.46838(19) 0.19248(19) 0.38491(18)
C8 C 0.39017(19) 0.23904(19) 0.33792(18)
H6 H 0.3057 0.2437 0.3720
C9 C 0.43053(19) 0.28487(19) 0.23241(18)
C10 C 0.4346(2) 0.4404(2) 0.27815(18)
H7 H 0.5177 0.5247 0.3625
H8 H 0.3407 0.4389 0.3033
C11 C 0.4548(2) 0.4735(2) 0.16074(19)
H9 H 0.4463 0.5693 0.1885
H10 H 0.5548 0.4901 0.1445
C12 C 0.3354(2) 0.3350(2) 0.02596(19)
H11 H 0.2362 0.3269 0.0387
H12 H 0.3536 0.3515 -0.0523
C13 C 0.3384(2) 0.1856(2) -0.00950(19)
H13 H 0.2579 0.0964 -0.0943
H14 H 0.4344 0.1904 -0.0309
C14 C 1.0047(2) 0.2531(3) 0.1797(2)
H15 H 1.0807 0.3624 0.2283
H16 H 0.9803 0.2096 0.0785
H17 H 1.0426 0.1935 0.1978
C15 C 0.4286(2) 0.1430(2) 0.48746(19)
H18 H 0.3924 0.0291 0.4395
H19 H 0.5178 0.1962 0.5642
C16 C 0.23891(19) 0.1091(2) 0.60620(18)
C17 C 0.12835(18) 0.1634(2) 0.66744(17)
C18 C 0.1307(2) 0.2968(2) 0.68298(19)
H20 H 0.2023 0.3544 0.6524
C19 C 0.0284(2) 0.3455(2) 0.7431(2)
H21 H 0.0295 0.4372 0.7559
C20 C -0.0752(2) 0.2571(2) 0.78406(19)
C21 C -0.0804(2) 0.1234(2) 0.76981(19)
H22 H -0.1534 0.0651 0.7990
C22 C 0.0242(2) 0.0778(2) 0.71166(18)
H23 H 0.0248 -0.0121 0.7020
O8? O -0.2020(11) 0.4002(12) 0.8319(10)
N2? N -0.205(3) 0.288(3) 0.828(2)
loop_
_geom_bond_atom_site_label_1
_geom_bond_atom_site_label_2
_geom_bond_site_symmetry_1
_geom_bond_site_symmetry_2
O1 C9 1_555 1_555
O2 C1 1_555 1_555
O3 C15 1_555 1_555
O4 C16 1_555 1_555
O5 N1 1_555 1_555
O6 N1 1_555 1_555
O7 C4 1_555 1_555
N1 C20 1_555 1_555
C1 H1 1_555 1_555
C2 C1 1_555 1_555
H2 C2 1_555 1_555
C3 C2 1_555 1_555
H3 C3 1_555 1_555
H4 C3 1_555 1_555
C4 C3 1_555 1_555
C5 C4 1_555 1_555
C6 C1 1_555 1_555
H5 C6 1_555 1_555
C7 C2 1_555 1_555
C8 C7 1_555 1_555
H6 C8 1_555 1_555
C9 O2 1_555 1_555
C10 C9 1_555 1_555
H7 C10 1_555 1_555
H8 C10 1_555 1_555
C11 C10 1_555 1_555
H9 C11 1_555 1_555
H10 C11 1_555 1_555
C12 C11 1_555 1_555
H11 C12 1_555 1_555
H12 C12 1_555 1_555
C13 O1 1_555 1_555
H13 C13 1_555 1_555
H14 C13 1_555 1_555
C14 C5 1_555 1_555
H15 C14 1_555 1_555
H16 C14 1_555 1_555
H17 C14 1_555 1_555
C15 C7 1_555 1_555
H18 C15 1_555 1_555
H19 C15 1_555 1_555
C16 O3 1_555 1_555
C17 C16 1_555 1_555
C18 C17 1_555 1_555
H20 C18 1_555 1_555
C19 C18 1_555 1_555
H21 C19 1_555 1_555
C20 C19 1_555 1_555
C21 C20 1_555 1_555
H22 C21 1_555 1_555
C22 C17 1_555 1_555
H23 C22 1_555 1_555
C5 C6 1_555 1_555
C8 C9 1_555 1_555
C12 C13 1_555 1_555
C21 C22 1_555 1_555

#END
