
#######################################################################
#
#                 Cambridge Crystallographic Data Centre
#                                CCDC 
#
#######################################################################
#
# If this CIF has been generated from an entry in the Cambridge 
# Structural Database, then it will include bibliographic, chemical, 
# crystal, experimental, refinement or atomic coordinate data resulting 
# from the CCDC's data processing and validation procedures.
#
#######################################################################

data_LEFJEO
_chemical_formula_moiety         'C21 H17 N2 O1 1+,I1 1-'
_chemical_name_systematic        
'4-{2-[4-(1,3-benzoxazol-2-yl)phenyl]ethenyl}-1-methylpyridin-1-ium iodide'
_symmetry_cell_setting           triclinic
_symmetry_space_group_name_H-M   'P -1'
_symmetry_Int_Tables_number      2
_space_group_name_Hall           '-P 1'
loop_
_symmetry_equiv_pos_site_id
_symmetry_equiv_pos_as_xyz
1 x,y,z
2 -x,-y,-z
_cell_length_a                   6.816(3)
_cell_length_b                   7.561(3)
_cell_length_c                   18.334(8)
_cell_angle_alpha                86.775(5)
_cell_angle_beta                 83.601(5)
_cell_angle_gamma                83.460(5)
_cell_volume                     931.952
_cell_formula_units_Z            2
loop_
_atom_site_label
_atom_site_type_symbol
_atom_site_fract_x
_atom_site_fract_y
_atom_site_fract_z
O1 O 1.2896(4) 0.1612(4) 0.54575(16)
N1 N 0.9894(4) 0.1405(4) 0.60895(19)
N2 N 0.3521(6) 0.7452(5) 0.0785(2)
C1 C 1.3211(6) 0.0836(5) 0.6143(2)
C2 C 1.0870(6) 0.1909(5) 0.5481(2)
C3 C 1.0008(6) 0.2716(5) 0.4828(2)
C4 C 1.1358(6) 0.0691(5) 0.6539(2)
C5 C 0.7957(6) 0.3145(6) 0.4846(3)
H1 H 0.7135 0.2938 0.5275
C6 C 1.1214(7) 0.3050(6) 0.4175(2)
H2 H 1.2584 0.2786 0.4159
C7 C 1.4985(6) 0.0282(6) 0.6429(3)
H3 H 1.6208 0.0417 0.6164
C8 C 1.1203(7) -0.0075(6) 0.7244(2)
H4 H 0.9977 -0.0199 0.7508
C9 C 1.4826(7) -0.0491(6) 0.7137(3)
H5 H 1.5977 -0.0913 0.7349
C10 C 1.2983(7) -0.0651(6) 0.7537(3)
H6 H 1.2940 -0.1156 0.8013
C11 C 0.5064(7) 0.6231(6) 0.2081(3)
C12 C 1.0397(7) 0.3760(7) 0.3560(3)
H7 H 1.1221 0.3946 0.3130
C13 C 0.2400(7) 0.7649(6) 0.1436(3)
H8 H 0.1109 0.8207 0.1445
C14 C 0.7601(8) 0.4916(6) 0.2873(3)
H9 H 0.8506 0.4890 0.2454
C15 C 0.7151(7) 0.3884(6) 0.4220(3)
H10 H 0.5784 0.4169 0.4236
C16 C 0.8350(7) 0.4210(5) 0.3567(2)
C17 C 0.5754(7) 0.5585(6) 0.2794(3)
H11 H 0.4840 0.5653 0.3211
C18 C 0.3122(7) 0.7044(6) 0.2082(3)
H12 H 0.2315 0.7177 0.2524
C19 C 0.6187(7) 0.6047(7) 0.1406(3)
H13 H 0.7486 0.5506 0.1383
C20 C 0.5385(8) 0.6666(7) 0.0763(3)
H14 H 0.6151 0.6533 0.0313
C21 C 0.2654(10) 0.8059(9) 0.0095(3)
H15 H 0.1795 0.7218 -0.0022
H16 H 0.3701 0.8148 -0.0297
H17 H 0.1904 0.9205 0.0158
I1 I 0.16311(4) 0.27871(4) 0.11453(2)
loop_
_geom_bond_atom_site_label_1
_geom_bond_atom_site_label_2
_geom_bond_site_symmetry_1
_geom_bond_site_symmetry_2
O1 C1 1_555 1_555
N1 C2 1_555 1_555
N2 C13 1_555 1_555
C1 C4 1_555 1_555
C2 O1 1_555 1_555
C3 C2 1_555 1_555
C4 N1 1_555 1_555
C5 C3 1_555 1_555
H1 C5 1_555 1_555
C6 C3 1_555 1_555
H2 C6 1_555 1_555
C7 C1 1_555 1_555
H3 C7 1_555 1_555
C8 C4 1_555 1_555
H4 C8 1_555 1_555
C9 C7 1_555 1_555
H5 C9 1_555 1_555
C10 C8 1_555 1_555
H6 C10 1_555 1_555
C11 C17 1_555 1_555
C12 C6 1_555 1_555
H7 C12 1_555 1_555
C13 H8 1_555 1_555
C14 H9 1_555 1_555
C15 C5 1_555 1_555
H10 C15 1_555 1_555
C16 C12 1_555 1_555
C17 C14 1_555 1_555
H11 C17 1_555 1_555
C18 C11 1_555 1_555
H12 C18 1_555 1_555
C19 C11 1_555 1_555
H13 C19 1_555 1_555
C20 N2 1_555 1_555
H14 C20 1_555 1_555
C21 N2 1_555 1_555
H15 C21 1_555 1_555
H16 C21 1_555 1_555
H17 C21 1_555 1_555
C9 C10 1_555 1_555
C13 C18 1_555 1_555
C14 C16 1_555 1_555
C15 C16 1_555 1_555
C19 C20 1_555 1_555

#END
