
#######################################################################
#
#                 Cambridge Crystallographic Data Centre
#                                CCDC 
#
#######################################################################
#
# If this CIF has been generated from an entry in the Cambridge 
# Structural Database, then it will include bibliographic, chemical, 
# crystal, experimental, refinement or atomic coordinate data resulting 
# from the CCDC's data processing and validation procedures.
#
#######################################################################

data_LEFLOZ
_chemical_formula_moiety         'C15 H14 F1 N1'
_chemical_name_systematic        
N-[(E)-4-Fluorobenzylidene]-3,4-dimethylaniline
_symmetry_cell_setting           orthorhombic
_symmetry_space_group_name_H-M   'P 21 21 21'
_symmetry_Int_Tables_number      19
_space_group_name_Hall           'P 2ac 2ab'
loop_
_symmetry_equiv_pos_site_id
_symmetry_equiv_pos_as_xyz
1 x,y,z
2 1/2-x,-y,1/2+z
3 1/2+x,1/2-y,-z
4 -x,1/2+y,1/2-z
_cell_length_a                   7.7487(3)
_cell_length_b                   11.3404(3)
_cell_length_c                   14.2969(4)
_cell_angle_alpha                90
_cell_angle_beta                 90
_cell_angle_gamma                90
_cell_volume                     1256.32
_exptl_crystal_colour            yellow
_exptl_crystal_description       block
_cell_formula_units_Z            4
loop_
_atom_site_label
_atom_site_type_symbol
_atom_site_fract_x
_atom_site_fract_y
_atom_site_fract_z
N1 N 0.5157(2) 0.33118(14) 0.66820(10)
F1 F 0.3419(2) 0.37162(14) 1.10226(9)
C1 C 0.5091(2) 0.27263(16) 0.50536(13)
H1 H 0.4576 0.2024 0.5241
C2 C 0.5509(2) 0.35665(15) 0.57238(12)
C3 C 0.4210(2) 0.39849(16) 0.81944(13)
C4 C 0.6225(2) 0.39542(17) 0.38272(12)
C5 C 0.4505(3) 0.28949(19) 0.96341(15)
H2 H 0.4877 0.2234 0.9962
C6 C 0.4517(2) 0.41157(16) 0.71858(13)
H3 H 0.4225 0.4827 0.6904
C7 C 0.5424(2) 0.29105(16) 0.41079(12)
C8 C 0.3412(3) 0.48874(18) 0.86852(14)
H4 H 0.3062 0.5563 0.8368
C9 C 0.6304(2) 0.46021(16) 0.54411(13)
H5 H 0.6600 0.5173 0.5880
C10 C 0.3125(3) 0.4801(2) 0.96400(16)
H6 H 0.2571 0.5401 0.9967
C11 C 0.6641(3) 0.4191(2) 0.28139(13)
H7 H 0.7189 0.4948 0.2758
H8 H 0.5596 0.4187 0.2454
H9 H 0.7405 0.3591 0.2585
C12 C 0.3683(3) 0.3808(2) 1.00840(13)
C13 C 0.4761(3) 0.29881(17) 0.86783(13)
H10 H 0.5306 0.2380 0.8357
C14 C 0.6656(2) 0.47809(16) 0.45035(13)
H11 H 0.7197 0.5476 0.4321
C15 C 0.4925(3) 0.19754(19) 0.34034(14)
H12 H 0.4392 0.1325 0.3721
H13 H 0.5939 0.1705 0.3082
H14 H 0.4129 0.2303 0.2959
loop_
_geom_bond_atom_site_label_1
_geom_bond_atom_site_label_2
_geom_bond_site_symmetry_1
_geom_bond_site_symmetry_2
N1 C2 1_555 1_555
F1 C12 1_555 1_555
C1 H1 1_555 1_555
C2 C1 1_555 1_555
C3 C6 1_555 1_555
C4 C7 1_555 1_555
C5 H2 1_555 1_555
C6 N1 1_555 1_555
H3 C6 1_555 1_555
C7 C1 1_555 1_555
C8 C3 1_555 1_555
H4 C8 1_555 1_555
C9 C2 1_555 1_555
H5 C9 1_555 1_555
C10 C8 1_555 1_555
H6 C10 1_555 1_555
C11 C4 1_555 1_555
H7 C11 1_555 1_555
H8 C11 1_555 1_555
H9 C11 1_555 1_555
C12 C5 1_555 1_555
C13 C3 1_555 1_555
H10 C13 1_555 1_555
C14 C4 1_555 1_555
H11 C14 1_555 1_555
C15 C7 1_555 1_555
H12 C15 1_555 1_555
H13 C15 1_555 1_555
H14 C15 1_555 1_555
C5 C13 1_555 1_555
C9 C14 1_555 1_555
C10 C12 1_555 1_555

#END
