
#######################################################################
#
#                 Cambridge Crystallographic Data Centre
#                                CCDC 
#
#######################################################################
#
# If this CIF has been generated from an entry in the Cambridge 
# Structural Database, then it will include bibliographic, chemical, 
# crystal, experimental, refinement or atomic coordinate data resulting 
# from the CCDC's data processing and validation procedures.
#
#######################################################################

data_LEFNUI
_chemical_formula_moiety         'C20 H17 F2 N1 O3'
_chemical_name_systematic        
"ethyl 3-(difluoromethyl)-2'-oxo-1'-phenyl-1',2'-dihydrospiro[cyclopropane-1,3'-indole]-2-carboxylate"
_symmetry_cell_setting           monoclinic
_symmetry_space_group_name_H-M   'P 21/c'
_symmetry_Int_Tables_number      14
_space_group_name_Hall           '-P 2ybc'
loop_
_symmetry_equiv_pos_site_id
_symmetry_equiv_pos_as_xyz
1 x,y,z
2 -x,1/2+y,1/2-z
3 -x,-y,-z
4 x,1/2-y,1/2+z
_cell_length_a                   9.2489(9)
_cell_length_b                   22.4009(15)
_cell_length_c                   8.8753(7)
_cell_angle_alpha                90
_cell_angle_beta                 112.627(10)
_cell_angle_gamma                90
_cell_volume                     1697.28
_exptl_crystal_colour            colorless
_exptl_crystal_description       block
_cell_formula_units_Z            4
loop_
_atom_site_label
_atom_site_type_symbol
_atom_site_fract_x
_atom_site_fract_y
_atom_site_fract_z
F1 F 0.8756(2) 0.48300(7) 0.5609(2)
F2 F 0.9255(2) 0.54692(9) 0.7594(2)
O1 O 0.4435(2) 0.60009(8) 0.0993(2)
O2 O 0.9120(2) 0.67287(9) 0.5206(2)
N1 N 0.7159(2) 0.72882(9) 0.5538(3)
C1 C 0.5681(3) 0.71593(11) 0.5589(3)
C2 C 0.5321(3) 0.65538(11) 0.5279(3)
C3 C 0.6938(3) 0.83137(12) 0.4589(3)
H1 H 0.592993 0.823092 0.384598
C4 C 0.4700(3) 0.75434(12) 0.5967(3)
H2 H 0.494457 0.794576 0.617229
C5 C 0.7811(3) 0.78731(11) 0.5635(3)
C6 C 0.6431(3) 0.58698(11) 0.3501(3)
H3 H 0.719993 0.592242 0.300064
C7 C 0.3965(3) 0.63262(13) 0.5374(3)
H4 H 0.372802 0.592252 0.519232
C8 C 0.7837(3) 0.67713(12) 0.5259(3)
C9 C 0.6630(3) 0.62806(11) 0.4962(3)
C10 C 0.7566(3) 0.88790(12) 0.4650(3)
H5 H 0.698197 0.917813 0.395521
C11 C 0.7050(3) 0.56262(11) 0.5196(3)
H6 H 0.631455 0.537590 0.546617
C12 C 0.3331(3) 0.73056(13) 0.6027(3)
H7 H 0.264574 0.755638 0.626457
C13 C 0.4826(3) 0.57012(11) 0.2374(3)
C14 C 0.2966(3) 0.67077(14) 0.5745(3)
H8 H 0.204899 0.656033 0.580252
C15 C 0.9321(3) 0.79864(13) 0.6745(3)
H9 H 0.990500 0.768852 0.744493
C16 C 0.9080(4) 0.89951(13) 0.5760(3)
H10 H 0.951057 0.937328 0.580678
C17 C 0.8706(4) 0.54301(13) 0.5924(3)
H11 H 0.935965 0.566136 0.549087
C18 C 0.9942(4) 0.85531(14) 0.6788(4)
H12 H 1.095381 0.863480 0.752285
C19 C 0.2899(4) 0.58741(14) -0.0298(4)
H13 H 0.247751 0.623283 -0.092558
H14 H 0.217357 0.574001 0.018100
C20 C 0.3102(4) 0.53993(15) -0.1384(4)
H15 H 0.210924 0.531457 -0.224223
H16 H 0.350217 0.504379 -0.075765
H17 H 0.382543 0.553460 -0.184816
O3 O 0.3987(3) 0.53460(10) 0.2676(2)
loop_
_geom_bond_atom_site_label_1
_geom_bond_atom_site_label_2
_geom_bond_site_symmetry_1
_geom_bond_site_symmetry_2
F1 C17 1_555 1_555
F2 C17 1_555 1_555
O1 C13 1_555 1_555
O2 C8 1_555 1_555
N1 C1 1_555 1_555
C1 C2 1_555 1_555
C2 C7 1_555 1_555
C3 H1 1_555 1_555
C4 C1 1_555 1_555
H2 C4 1_555 1_555
C5 N1 1_555 1_555
C6 H3 1_555 1_555
C7 H4 1_555 1_555
C8 N1 1_555 1_555
C9 C2 1_555 1_555
C10 C3 1_555 1_555
H5 C10 1_555 1_555
C11 C6 1_555 1_555
H6 C11 1_555 1_555
C12 C4 1_555 1_555
H7 C12 1_555 1_555
C13 C6 1_555 1_555
C14 C7 1_555 1_555
H8 C14 1_555 1_555
C15 C5 1_555 1_555
H9 C15 1_555 1_555
C16 C10 1_555 1_555
H10 C16 1_555 1_555
C17 C11 1_555 1_555
H11 C17 1_555 1_555
C18 C15 1_555 1_555
H12 C18 1_555 1_555
C19 O1 1_555 1_555
H13 C19 1_555 1_555
H14 C19 1_555 1_555
C20 C19 1_555 1_555
H15 C20 1_555 1_555
H16 C20 1_555 1_555
H17 C20 1_555 1_555
O3 C13 1_555 1_555
C3 C5 1_555 1_555
C6 C9 1_555 1_555
C8 C9 1_555 1_555
C9 C11 1_555 1_555
C12 C14 1_555 1_555
C16 C18 1_555 1_555

#END
