
#######################################################################
#
#                 Cambridge Crystallographic Data Centre
#                                CCDC 
#
#######################################################################
#
# If this CIF has been generated from an entry in the Cambridge 
# Structural Database, then it will include bibliographic, chemical, 
# crystal, experimental, refinement or atomic coordinate data resulting 
# from the CCDC's data processing and validation procedures.
#
#######################################################################

data_LEFRAS
_chemical_formula_moiety         'C24 H20 F3 N1 O3 S1'
_chemical_name_systematic        
{1-[(4-methylphenyl)sulfonyl]-3-(2,2,2-trifluoroethyl)-2,3-dihydro-1H-indol-2-yl}(phenyl)methanone
_symmetry_cell_setting           monoclinic
_symmetry_space_group_name_H-M   'P 21/c'
_symmetry_Int_Tables_number      14
_space_group_name_Hall           '-P 2ybc'
loop_
_symmetry_equiv_pos_site_id
_symmetry_equiv_pos_as_xyz
1 x,y,z
2 -x,1/2+y,1/2-z
3 -x,-y,-z
4 x,1/2-y,1/2+z
_cell_length_a                   20.444(3)
_cell_length_b                   22.721(3)
_cell_length_c                   9.7817(14)
_cell_angle_alpha                90
_cell_angle_beta                 95.901(2)
_cell_angle_gamma                90
_cell_volume                     4519.6
_exptl_crystal_colour            colorless
_exptl_crystal_description       block
_cell_formula_units_Z            8
loop_
_atom_site_label
_atom_site_type_symbol
_atom_site_fract_x
_atom_site_fract_y
_atom_site_fract_z
C1 C 0.3480(2) 0.51239(19) 0.4002(4)
H1 H 0.3465 0.4705 0.3873
H2 H 0.3839 0.5284 0.3560
H3 H 0.3074 0.5295 0.3607
C2 C 0.35772(16) 0.52605(14) 0.5507(3)
C3 C 0.41001(16) 0.50313(13) 0.6350(3)
H4 H 0.4395 0.4781 0.5976
C4 C 0.41939(14) 0.51651(12) 0.7729(3)
H5 H 0.4546 0.5003 0.8282
C5 C 0.37602(12) 0.55421(11) 0.8286(3)
C6 C 0.32266(13) 0.57668(13) 0.7471(3)
H6 H 0.2927 0.6011 0.7846
C7 C 0.31441(14) 0.56250(15) 0.6098(3)
H7 H 0.2786 0.5779 0.5550
C8 C 0.49364(11) 0.64531(11) 0.9287(3)
H8 H 0.5031 0.6072 0.8882
C9 C 0.48841(12) 0.69439(11) 0.8170(3)
H9 H 0.5279 0.7191 0.8270
C10 C 0.42982(12) 0.72900(11) 0.8542(2)
C11 C 0.39412(11) 0.69703(11) 0.9407(2)
C12 C 0.33623(13) 0.71768(13) 0.9825(3)
H10 H 0.3124 0.6957 1.0405
C13 C 0.31485(15) 0.77236(14) 0.9349(3)
H11 H 0.2756 0.7872 0.9609
C14 C 0.34974(15) 0.80509(13) 0.8507(3)
H12 H 0.3343 0.8419 0.8211
C15 C 0.40777(14) 0.78385(12) 0.8092(3)
H13 H 0.4317 0.8061 0.7518
C16 C 0.54777(13) 0.66181(12) 1.0420(3)
C17 C 0.6169(3) 0.6458(5) 1.0324(14)
C18 C 0.6645(4) 0.6805(4) 1.1021(16)
H14 H 0.6529 0.7107 1.1592
C19 C 0.7297(4) 0.6700(4) 1.0860(18)
H15 H 0.7623 0.6941 1.1292
C20 C 0.7461(3) 0.6241(4) 1.0065(18)
H16 H 0.7898 0.6194 0.9898
C21 C 0.7005(4) 0.5851(4) 0.9511(16)
H17 H 0.7127 0.5515 0.9059
C22 C 0.6353(4) 0.5975(5) 0.9645(16)
H18 H 0.6030 0.5719 0.9258
C23 C 0.47475(15) 0.67302(13) 0.6679(3)
H19 H 0.4391 0.6447 0.6636
H20 H 0.4596 0.7063 0.6111
C24 C 0.53054(19) 0.64583(16) 0.6077(3)
F1 F 0.5416(4) 0.5905(2) 0.6613(8)
F2 F 0.5263(5) 0.6401(5) 0.4730(5)
F3 F 0.5900(3) 0.6741(3) 0.6424(11)
N1 N 0.42897(9) 0.64423(9) 0.9832(2)
O1 O 0.33305(9) 0.59081(9) 1.0551(2)
O2 O 0.44199(9) 0.54309(8) 1.0670(2)
O3 O 0.53452(11) 0.68985(12) 1.1400(2)
S1 S 0.39311(3) 0.57994(3) 0.99750(7)
C31 C 1.1612(2) 0.52346(17) -0.0256(4)
H26 H 1.1598 0.4818 -0.0419
H27 H 1.2039 0.5383 -0.0399
H28 H 1.1285 0.5425 -0.0880
C32 C 1.14751(15) 0.53565(13) 0.1200(3)
C33 C 1.09734(18) 0.50668(15) 0.1778(4)
H29 H 1.0725 0.4788 0.1256
C34 C 1.08318(16) 0.51790(14) 0.3102(4)
H30 H 1.0494 0.4977 0.3466
C35 C 1.11951(13) 0.55932(12) 0.3880(3)
C36 C 1.17034(13) 0.58862(13) 0.3326(3)
H31 H 1.1953 0.6164 0.3846
C37 C 1.18358(13) 0.57630(13) 0.2005(3)
H32 H 1.2179 0.5960 0.1646
C38 C 0.99257(12) 0.63911(13) 0.4598(3)
H33 H 0.9832 0.6013 0.4137
C39 C 0.99617(13) 0.69010(13) 0.3534(3)
H34 H 0.9559 0.7137 0.3487
C40 C 1.05335(13) 0.72561(13) 0.4187(3)
C41 C 1.08895(12) 0.69402(12) 0.5202(3)
C42 C 1.14440(13) 0.71682(15) 0.5957(3)
H35 H 1.1677 0.6953 0.6655
C43 C 1.16327(16) 0.77276(16) 0.5622(4)
H36 H 1.2004 0.7892 0.6107
C44 C 1.12940(18) 0.80478(16) 0.4606(4)
H37 H 1.1437 0.8423 0.4404
C45 C 1.07383(17) 0.78173(14) 0.3873(3)
H38 H 1.0506 0.8035 0.3180
C46 C 0.93953(14) 0.65477(15) 0.5535(3)
C47 C 0.8698(2) 0.6368(4) 0.5270(11)
C48 C 0.8500(4) 0.5944(4) 0.4340(13)
H39 H 0.8811 0.5740 0.3893
C49 C 0.7840(4) 0.5813(4) 0.4052(14)
H40 H 0.7703 0.5517 0.3431
C50 C 0.7394(3) 0.6126(4) 0.4694(15)
H41 H 0.6947 0.6064 0.4453
C51 C 0.7588(3) 0.6527(4) 0.5682(15)
H42 H 0.7279 0.6715 0.6165
C52 C 0.8249(3) 0.6655(4) 0.5961(14)
H43 H 0.8387 0.6936 0.6619
C53 C 1.00962(14) 0.67143(14) 0.2084(3)
H44 H 1.0239 0.7058 0.1607
H45 H 1.0458 0.6436 0.2164
C54 C 0.95400(19) 0.64448(18) 0.1227(4)
N2 N 1.05777(10) 0.63872(10) 0.5405(2)
F7 F 0.9630(4) 0.6384(4) -0.0093(4)
F8 F 0.8968(2) 0.6736(3) 0.1280(8)
F9 F 0.9423(4) 0.5887(2) 0.1678(5)
O4 O 1.05553(11) 0.53388(10) 0.5947(2)
O5 O 1.15911(10) 0.58980(10) 0.6383(2)
O6 O 0.95443(12) 0.68387(15) 0.6559(3)
S2 S 1.09988(3) 0.57712(4) 0.55372(8)
C25? C 0.6160(3) 0.6489(6) 1.0028(18)
C26? C 0.6657(4) 0.6899(5) 1.0341(18)
H21? H 0.6565 0.7253 1.0760
C27? C 0.7292(4) 0.6781(5) 1.003(2)
H22? H 0.7624 0.7056 1.0237
C28? C 0.7430(4) 0.6253(5) 0.9402(17)
H23? H 0.7855 0.6174 0.9192
C29? C 0.6933(5) 0.5842(5) 0.9088(15)
H24? H 0.7025 0.5489 0.8669
C30? C 0.6298(5) 0.5960(6) 0.9401(18)
H25? H 0.5966 0.5686 0.9192
F4? F 0.5632(7) 0.6028(6) 0.6741(11)
F5? F 0.5027(5) 0.6201(5) 0.4830(8)
F6? F 0.5712(7) 0.6857(4) 0.5691(16)
C55? C 0.8706(3) 0.6418(7) 0.4866(15)
C56? C 0.8564(5) 0.5933(6) 0.4022(16)
H46? H 0.8904 0.5697 0.3768
C57? C 0.7916(6) 0.5800(6) 0.3556(16)
H47? H 0.7821 0.5476 0.2991
C58? C 0.7409(4) 0.6153(6) 0.394(2)
H48? H 0.6975 0.6064 0.3624
C59? C 0.7551(4) 0.6638(6) 0.478(2)
H49? H 0.7212 0.6874 0.5034
C60? C 0.8199(5) 0.6770(6) 0.5246(19)
H50? H 0.8294 0.7095 0.5811
F10? F 0.9795(7) 0.6165(7) 0.0128(13)
F11? F 0.9158(8) 0.6062(7) 0.1752(15)
F12? F 0.9158(9) 0.6881(5) 0.0624(19)
loop_
_geom_bond_atom_site_label_1
_geom_bond_atom_site_label_2
_geom_bond_site_symmetry_1
_geom_bond_site_symmetry_2
C1 H1 1_555 1_555
H2 C1 1_555 1_555
H3 C1 1_555 1_555
C2 C1 1_555 1_555
C3 C2 1_555 1_555
H4 C3 1_555 1_555
C4 C3 1_555 1_555
H5 C4 1_555 1_555
C5 C4 1_555 1_555
C6 C5 1_555 1_555
H6 C6 1_555 1_555
C7 C2 1_555 1_555
H7 C7 1_555 1_555
C8 H8 1_555 1_555
C9 C8 1_555 1_555
H9 C9 1_555 1_555
C10 C9 1_555 1_555
C11 C10 1_555 1_555
C12 C11 1_555 1_555
H10 C12 1_555 1_555
C13 C12 1_555 1_555
H11 C13 1_555 1_555
C14 C13 1_555 1_555
H12 C14 1_555 1_555
C15 C10 1_555 1_555
H13 C15 1_555 1_555
C16 C8 1_555 1_555
C17 C16 1_555 1_555
C18 C17 1_555 1_555
H14 C18 1_555 1_555
C19 C18 1_555 1_555
H15 C19 1_555 1_555
C20 C19 1_555 1_555
H16 C20 1_555 1_555
C21 C20 1_555 1_555
H17 C21 1_555 1_555
C22 C17 1_555 1_555
H18 C22 1_555 1_555
C23 C9 1_555 1_555
H19 C23 1_555 1_555
H20 C23 1_555 1_555
C24 C23 1_555 1_555
F1 C24 1_555 1_555
F2 C24 1_555 1_555
F3 C24 1_555 1_555
N1 C8 1_555 1_555
O1 S1 1_555 1_555
O2 S1 1_555 1_555
O3 C16 1_555 1_555
S1 C5 1_555 1_555
C31 H26 1_555 1_555
H27 C31 1_555 1_555
H28 C31 1_555 1_555
C32 C31 1_555 1_555
C33 C32 1_555 1_555
H29 C33 1_555 1_555
C34 C33 1_555 1_555
H30 C34 1_555 1_555
C35 C34 1_555 1_555
C36 C35 1_555 1_555
H31 C36 1_555 1_555
C37 C32 1_555 1_555
H32 C37 1_555 1_555
C38 H33 1_555 1_555
C39 C38 1_555 1_555
H34 C39 1_555 1_555
C40 C39 1_555 1_555
C41 C40 1_555 1_555
C42 C41 1_555 1_555
H35 C42 1_555 1_555
C43 C42 1_555 1_555
H36 C43 1_555 1_555
C44 C43 1_555 1_555
H37 C44 1_555 1_555
C45 C40 1_555 1_555
H38 C45 1_555 1_555
C46 C38 1_555 1_555
C47 C46 1_555 1_555
C48 C47 1_555 1_555
H39 C48 1_555 1_555
C49 C48 1_555 1_555
H40 C49 1_555 1_555
C50 C49 1_555 1_555
H41 C50 1_555 1_555
C51 C50 1_555 1_555
H42 C51 1_555 1_555
C52 C47 1_555 1_555
H43 C52 1_555 1_555
C53 C39 1_555 1_555
H44 C53 1_555 1_555
H45 C53 1_555 1_555
C54 C53 1_555 1_555
N2 C38 1_555 1_555
F7 C54 1_555 1_555
F8 C54 1_555 1_555
F9 C54 1_555 1_555
O4 S2 1_555 1_555
O5 S2 1_555 1_555
O6 C46 1_555 1_555
S2 C35 1_555 1_555
C6 C7 1_555 1_555
C11 N1 1_555 1_555
C14 C15 1_555 1_555
C21 C22 1_555 1_555
N1 S1 1_555 1_555
C36 C37 1_555 1_555
C41 N2 1_555 1_555
C44 C45 1_555 1_555
C51 C52 1_555 1_555
N2 S2 1_555 1_555

#END
