
#######################################################################
#
#                 Cambridge Crystallographic Data Centre
#                                CCDC 
#
#######################################################################
#
# If this CIF has been generated from an entry in the Cambridge 
# Structural Database, then it will include bibliographic, chemical, 
# crystal, experimental, refinement or atomic coordinate data resulting 
# from the CCDC's data processing and validation procedures.
#
#######################################################################

data_LEGCUY
_chemical_formula_moiety         'C39 H24 N4 O4,C1 H2 Cl2'
_chemical_name_systematic        
"5,14-diphenyl-4H,8H,13H,17H-9,18-methanobenzo[de]benzo[4',5']isoquinolino[6',7':6,7][1,5]diazocino[2,3-g]isoquinoline-4,6,13,15(5H,14H)-tetrone dichloromethane solvate"
_symmetry_cell_setting           triclinic
_symmetry_space_group_name_H-M   'P -1'
_symmetry_Int_Tables_number      2
_space_group_name_Hall           '-P 1'
loop_
_symmetry_equiv_pos_site_id
_symmetry_equiv_pos_as_xyz
1 x,y,z
2 -x,-y,-z
_cell_length_a                   10.406(2)
_cell_length_b                   11.383(3)
_cell_length_c                   13.621(3)
_cell_angle_alpha                83.448(9)
_cell_angle_beta                 87.0820(10)
_cell_angle_gamma                78.674(10)
_cell_volume                     1571
_exptl_crystal_colour            yellow
_exptl_crystal_description       block
_cell_formula_units_Z            2
loop_
_atom_site_label
_atom_site_type_symbol
_atom_site_fract_x
_atom_site_fract_y
_atom_site_fract_z
Cl1 Cl 0.03431(8) 0.83640(7) 0.02512(7)
Cl2 Cl -0.16088(8) 0.76871(8) -0.09290(8)
C1 C -0.0885(3) 0.8875(3) -0.0627(3)
H1 H -0.0497 0.9248 -0.1234
H2 H -0.1570 0.9500 -0.0360
O1 O 1.08275(18) 0.87501(18) 0.55285(14)
N1 N 1.1536(2) 0.76938(19) 0.42147(15)
C2 C 1.2471(3) 0.9169(2) 0.31068(19)
H3 H 1.1744 0.9248 0.2693
O2 O 1.24227(16) 0.64087(16) 0.30854(13)
N2 N 0.67756(19) 0.48779(18) 0.38564(15)
C3 C 1.3447(3) 0.9840(2) 0.2849(2)
H4 H 1.3390 1.0374 0.2257
N3 N 0.74053(19) 0.40553(18) 0.22940(15)
O3 O 0.33022(17) 0.88058(16) 0.06399(13)
C4 C 1.4501(3) 0.9723(2) 0.3458(2)
H5 H 1.5159 1.0189 0.3289
O4 O 0.50701(16) 0.75590(16) -0.22875(12)
N4 N 0.41843(19) 0.81864(17) -0.08251(14)
C5 C 1.4600(3) 0.8935(3) 0.4308(2)
H6 H 1.5333 0.8850 0.4715
C6 C 1.3628(3) 0.8258(3) 0.4575(2)
H7 H 1.3695 0.7718 0.5163
C7 C 1.2564(2) 0.8384(2) 0.39710(18)
C8 C 1.0636(2) 0.8019(2) 0.49955(19)
C9 C 0.9475(2) 0.7437(2) 0.51109(18)
C10 C 0.8527(2) 0.7759(2) 0.58270(18)
H8 H 0.8630 0.8339 0.6251
C11 C 0.7221(2) 0.6422(2) 0.52981(18)
H9 H 0.6456 0.6079 0.5375
C12 C 0.8159(2) 0.6095(2) 0.45320(17)
C13 C 0.7986(2) 0.5299(2) 0.38285(17)
C14 C 0.8975(2) 0.4949(2) 0.31405(17)
C15 C 1.0151(2) 0.5390(2) 0.31303(17)
H10 H 1.0840 0.5120 0.2676
C16 C 1.0323(2) 0.6201(2) 0.37628(17)
C17 C 1.1516(2) 0.6735(2) 0.36487(17)
C18 C 0.9321(2) 0.6575(2) 0.44680(17)
C19 C 0.7409(2) 0.7231(2) 0.59306(18)
H11 H 0.6777 0.7434 0.6442
C20 C 0.8794(2) 0.4156(2) 0.23542(18)
H12 H 0.9103 0.4500 0.1705
H13 H 0.9334 0.3343 0.2509
C21 C 0.5687(2) 0.5810(2) 0.34204(17)
H14 H 0.5733 0.6598 0.3643
H15 H 0.4839 0.5601 0.3662
C22 C 0.5746(2) 0.5917(2) 0.22966(17)
C23 C 0.4919(2) 0.6894(2) 0.17649(17)
H16 H 0.4322 0.7452 0.2116
C24 C 0.4967(2) 0.7047(2) 0.07472(17)
C25 C 0.5840(2) 0.6208(2) 0.02131(17)
C26 C 0.5866(2) 0.6333(2) -0.08362(17)
C27 C 0.6665(2) 0.5483(2) -0.13507(18)
H17 H 0.6676 0.5571 -0.2053
C28 C 0.7465(2) 0.4484(2) -0.08388(18)
H18 H 0.8002 0.3894 -0.1197
C29 C 0.7474(2) 0.4357(2) 0.01770(18)
H19 H 0.8028 0.3684 0.0514
C30 C 0.6665(2) 0.5216(2) 0.07278(17)
C31 C 0.6606(2) 0.5092(2) 0.17875(17)
C32 C 0.4083(2) 0.8074(2) 0.02191(18)
C33 C 0.5037(2) 0.7377(2) -0.13863(18)
C34 C 0.3347(2) 0.9205(2) -0.13642(17)
C35 C 0.2432(2) 0.8994(2) -0.19952(18)
H20 H 0.2332 0.8194 -0.2056
C36 C 0.1659(3) 0.9966(3) -0.2539(2)
H21 H 0.1048 0.9831 -0.2989
C37 C 0.1787(3) 1.1137(2) -0.2418(2)
H22 H 0.1253 1.1802 -0.2780
C38 C 0.2685(3) 1.1335(2) -0.1774(2)
H23 H 0.2757 1.2135 -0.1686
C39 C 0.3486(2) 1.0368(2) -0.1255(2)
H24 H 0.4123 1.0503 -0.0827
C40 C 0.6901(2) 0.3821(2) 0.33085(18)
H25 H 0.7501 0.3135 0.3658
H26 H 0.6032 0.3594 0.3290
loop_
_geom_bond_atom_site_label_1
_geom_bond_atom_site_label_2
_geom_bond_site_symmetry_1
_geom_bond_site_symmetry_2
Cl1 C1 1_555 1_555
Cl2 C1 1_555 1_555
C1 H1 1_555 1_555
H2 C1 1_555 1_555
O1 C8 1_555 1_555
N1 C7 1_555 1_555
C2 H3 1_555 1_555
O2 C17 1_555 1_555
N2 C13 1_555 1_555
C3 C2 1_555 1_555
H4 C3 1_555 1_555
N3 C20 1_555 1_555
O3 C32 1_555 1_555
C4 C3 1_555 1_555
H5 C4 1_555 1_555
O4 C33 1_555 1_555
N4 C32 1_555 1_555
C5 C4 1_555 1_555
H6 C5 1_555 1_555
C6 C5 1_555 1_555
H7 C6 1_555 1_555
C7 C2 1_555 1_555
C8 N1 1_555 1_555
C9 C8 1_555 1_555
C10 C9 1_555 1_555
H8 C10 1_555 1_555
C11 H9 1_555 1_555
C12 C11 1_555 1_555
C13 C12 1_555 1_555
C14 C13 1_555 1_555
C15 C14 1_555 1_555
H10 C15 1_555 1_555
C16 C15 1_555 1_555
C17 N1 1_555 1_555
C18 C9 1_555 1_555
C19 C10 1_555 1_555
H11 C19 1_555 1_555
C20 C14 1_555 1_555
H12 C20 1_555 1_555
H13 C20 1_555 1_555
C21 N2 1_555 1_555
H14 C21 1_555 1_555
H15 C21 1_555 1_555
C22 C21 1_555 1_555
C23 C22 1_555 1_555
H16 C23 1_555 1_555
C24 C23 1_555 1_555
C25 C24 1_555 1_555
C26 C25 1_555 1_555
C27 C26 1_555 1_555
H17 C27 1_555 1_555
C28 C27 1_555 1_555
H18 C28 1_555 1_555
C29 C28 1_555 1_555
H19 C29 1_555 1_555
C30 C25 1_555 1_555
C31 N3 1_555 1_555
C32 C24 1_555 1_555
C33 N4 1_555 1_555
C34 N4 1_555 1_555
C35 C34 1_555 1_555
H20 C35 1_555 1_555
C36 C35 1_555 1_555
H21 C36 1_555 1_555
C37 C36 1_555 1_555
H22 C37 1_555 1_555
C38 C37 1_555 1_555
H23 C38 1_555 1_555
C39 C34 1_555 1_555
H24 C39 1_555 1_555
C40 N2 1_555 1_555
H25 C40 1_555 1_555
H26 C40 1_555 1_555
N3 C40 1_555 1_555
C6 C7 1_555 1_555
C11 C19 1_555 1_555
C12 C18 1_555 1_555
C16 C17 1_555 1_555
C16 C18 1_555 1_555
C22 C31 1_555 1_555
C26 C33 1_555 1_555
C29 C30 1_555 1_555
C30 C31 1_555 1_555
C38 C39 1_555 1_555

#END
