
#######################################################################
#
#                 Cambridge Crystallographic Data Centre
#                                CCDC 
#
#######################################################################
#
# If this CIF has been generated from an entry in the Cambridge 
# Structural Database, then it will include bibliographic, chemical, 
# crystal, experimental, refinement or atomic coordinate data resulting 
# from the CCDC's data processing and validation procedures.
#
#######################################################################

data_LEGJAL
_chemical_formula_moiety         'C32 H30 B2 N2'
_chemical_name_systematic        
1,2-bis(anthracen-9-yl)-N^1^,N^1^,N^2^,N^2^-tetramethyldiborane-1,2-diamine
_symmetry_cell_setting           monoclinic
_symmetry_space_group_name_H-M   'P 21/n'
_symmetry_Int_Tables_number      14
_space_group_name_Hall           '-P 2yn'
loop_
_symmetry_equiv_pos_site_id
_symmetry_equiv_pos_as_xyz
1 x,y,z
2 1/2-x,1/2+y,1/2-z
3 -x,-y,-z
4 1/2+x,1/2-y,1/2+z
_cell_length_a                   10.433(7)
_cell_length_b                   17.633(9)
_cell_length_c                   14.497(7)
_cell_angle_alpha                90
_cell_angle_beta                 108.570(19)
_cell_angle_gamma                90
_cell_volume                     2528.09
_exptl_crystal_colour            colorless
_exptl_crystal_description       block
_cell_formula_units_Z            4
_chemical_properties_physical    ', Moisture-sensitive'
loop_
_atom_site_label
_atom_site_type_symbol
_atom_site_fract_x
_atom_site_fract_y
_atom_site_fract_z
B1 B 0.6019(2) 0.24556(13) 0.40366(19)
B2 B 0.4816(3) 0.28424(14) 0.44692(19)
N1 N 0.69830(18) 0.19341(10) 0.45585(13)
C1 C 0.7987(2) 0.15687(13) 0.42050(17)
H1 H 0.8892 0.1663 0.4662
H2 H 0.7928 0.1776 0.3565
H3 H 0.7817 0.1021 0.4149
C2 C 0.7137(2) 0.16862(13) 0.55534(17)
H4 H 0.8045 0.1816 0.5981
H5 H 0.7006 0.1136 0.5560
H6 H 0.6462 0.1941 0.5784
N2 N 0.51214(18) 0.33212(10) 0.52756(13)
C3 C 0.6494(2) 0.35223(13) 0.58762(17)
H7 H 0.6620 0.3391 0.6556
H8 H 0.6633 0.4068 0.5825
H9 H 0.7149 0.3243 0.5650
C4 C 0.4122(2) 0.37307(13) 0.55999(18)
H10 H 0.4334 0.3670 0.6305
H11 H 0.3219 0.3526 0.5268
H12 H 0.4144 0.4270 0.5444
C5 C 0.6023(2) 0.26884(12) 0.29704(16)
C6 C 0.5638(2) 0.21883(12) 0.21701(16)
C7 C 0.5134(2) 0.14421(12) 0.22418(17)
H13 H 0.5011 0.1286 0.2835
C8 C 0.4829(2) 0.09530(13) 0.14777(17)
H14 H 0.4507 0.0460 0.1549
C9 C 0.4982(2) 0.11650(13) 0.05803(18)
H15 H 0.4770 0.0815 0.0056
C10 C 0.5429(2) 0.18673(13) 0.04679(17)
H16 H 0.5527 0.2007 -0.0139
C11 C 0.5756(2) 0.24008(12) 0.12444(16)
C12 C 0.6189(2) 0.31311(12) 0.11246(17)
H17 H 0.6278 0.3272 0.0515
C13 C 0.6492(2) 0.36572(12) 0.18757(17)
C14 C 0.6892(2) 0.44122(12) 0.17503(17)
H18 H 0.6899 0.4572 0.1126
C15 C 0.7265(2) 0.49077(13) 0.25067(18)
H19 H 0.7527 0.5410 0.2409
C16 C 0.7264(2) 0.46756(13) 0.34387(18)
H20 H 0.7544 0.5020 0.3969
C17 C 0.6867(2) 0.39661(12) 0.35830(17)
H21 H 0.6871 0.3824 0.4216
C18 C 0.6444(2) 0.34266(12) 0.28148(16)
C19 C 0.3268(2) 0.26866(12) 0.38844(16)
C20 C 0.2686(2) 0.19695(12) 0.39296(16)
C21 C 0.3459(2) 0.13596(12) 0.44825(17)
H22 H 0.4385 0.1441 0.4839
C22 C 0.2910(2) 0.06674(13) 0.45129(17)
H23 H 0.3459 0.0270 0.4875
C23 C 0.1527(2) 0.05310(13) 0.40095(17)
H24 H 0.1149 0.0045 0.4037
C24 C 0.0743(2) 0.10937(13) 0.34884(17)
H25 H -0.0186 0.0997 0.3155
C25 C 0.1280(2) 0.18283(12) 0.34290(16)
C26 C 0.0490(2) 0.24104(13) 0.28899(16)
H26 H -0.0447 0.2325 0.2575
C27 C 0.1039(2) 0.31156(13) 0.28012(16)
C28 C 0.0236(2) 0.37061(13) 0.22310(17)
H27 H -0.0700 0.3621 0.1910
C29 C 0.0782(2) 0.43843(13) 0.21383(17)
H28 H 0.0229 0.4771 0.1755
C30 C 0.2174(2) 0.45230(13) 0.26095(17)
H29 H 0.2552 0.5000 0.2535
C31 C 0.2971(2) 0.39780(13) 0.31663(17)
H30 H 0.3902 0.4083 0.3480
C32 C 0.2449(2) 0.32526(12) 0.32927(16)
loop_
_geom_bond_atom_site_label_1
_geom_bond_atom_site_label_2
_geom_bond_site_symmetry_1
_geom_bond_site_symmetry_2
B1 B2 1_555 1_555
B2 N2 1_555 1_555
N1 B1 1_555 1_555
C1 N1 1_555 1_555
H1 C1 1_555 1_555
H2 C1 1_555 1_555
H3 C1 1_555 1_555
C2 N1 1_555 1_555
H4 C2 1_555 1_555
H5 C2 1_555 1_555
H6 C2 1_555 1_555
N2 C3 1_555 1_555
C3 H7 1_555 1_555
H8 C3 1_555 1_555
H9 C3 1_555 1_555
C4 N2 1_555 1_555
H10 C4 1_555 1_555
H11 C4 1_555 1_555
H12 C4 1_555 1_555
C5 B1 1_555 1_555
C6 C5 1_555 1_555
C7 C6 1_555 1_555
H13 C7 1_555 1_555
C8 C7 1_555 1_555
H14 C8 1_555 1_555
C9 C8 1_555 1_555
H15 C9 1_555 1_555
C10 C9 1_555 1_555
H16 C10 1_555 1_555
C11 C6 1_555 1_555
C12 C11 1_555 1_555
H17 C12 1_555 1_555
C13 C12 1_555 1_555
C14 C13 1_555 1_555
H18 C14 1_555 1_555
C15 C14 1_555 1_555
H19 C15 1_555 1_555
C16 C15 1_555 1_555
H20 C16 1_555 1_555
C17 C16 1_555 1_555
H21 C17 1_555 1_555
C18 C5 1_555 1_555
C19 B2 1_555 1_555
C20 C19 1_555 1_555
C21 C20 1_555 1_555
H22 C21 1_555 1_555
C22 C21 1_555 1_555
H23 C22 1_555 1_555
C23 C22 1_555 1_555
H24 C23 1_555 1_555
C24 C23 1_555 1_555
H25 C24 1_555 1_555
C25 C20 1_555 1_555
C26 C25 1_555 1_555
H26 C26 1_555 1_555
C27 C26 1_555 1_555
C28 C27 1_555 1_555
H27 C28 1_555 1_555
C29 C28 1_555 1_555
H28 C29 1_555 1_555
C30 C29 1_555 1_555
H29 C30 1_555 1_555
C31 C30 1_555 1_555
H30 C31 1_555 1_555
C32 C19 1_555 1_555
C10 C11 1_555 1_555
C13 C18 1_555 1_555
C17 C18 1_555 1_555
C24 C25 1_555 1_555
C27 C32 1_555 1_555
C31 C32 1_555 1_555

#END
