
#######################################################################
#
#                 Cambridge Crystallographic Data Centre
#                                CCDC 
#
#######################################################################
#
# If this CIF has been generated from an entry in the Cambridge 
# Structural Database, then it will include bibliographic, chemical, 
# crystal, experimental, refinement or atomic coordinate data resulting 
# from the CCDC's data processing and validation procedures.
#
#######################################################################

data_LEGJAK
_chemical_formula_moiety         '2(C10 H18 N1 1+),1.5(C4 H4 O4),H1 O4 P1 2-'
_chemical_name_systematic        
'bis(adamantan-1-aminium) hydrogen phosphate fumaric acid solvate'
_symmetry_cell_setting           monoclinic
_symmetry_space_group_name_H-M   'P 21/n'
_symmetry_Int_Tables_number      14
_space_group_name_Hall           '-P 2yn'
loop_
_symmetry_equiv_pos_site_id
_symmetry_equiv_pos_as_xyz
1 x,y,z
2 1/2-x,1/2+y,1/2-z
3 -x,-y,-z
4 1/2+x,1/2-y,1/2+z
_cell_length_a                   12.7555(16)
_cell_length_b                   11.1850(14)
_cell_length_c                   20.251(2)
_cell_angle_alpha                90
_cell_angle_beta                 105.795(2)
_cell_angle_gamma                90
_cell_volume                     2780.12
_exptl_crystal_colour            colorless
_exptl_crystal_description       block
_cell_formula_units_Z            4
loop_
_atom_site_label
_atom_site_type_symbol
_atom_site_fract_x
_atom_site_fract_y
_atom_site_fract_z
C1 C 0.41137(10) 0.15548(10) 0.52298(6)
C2 C 0.39579(10) 0.02404(10) 0.52724(6)
H1 H 0.4500 -0.0216 0.5586
C3 C 0.30842(10) -0.03144(10) 0.48851(6)
H2 H 0.2547 0.0141 0.4567
C4 C 0.29194(10) -0.16227(10) 0.49331(6)
O1 O 0.34561(7) 0.20545(7) 0.46935(4)
H3 H 0.3451(13) 0.2959(15) 0.4725(8)
O2 O 0.48114(8) 0.20734(7) 0.56762(5)
O3 O 0.35313(8) -0.22223(8) 0.53892(5)
O4 O 0.21020(8) -0.20382(8) 0.44631(5)
H4 H 0.2001(15) -0.2987(16) 0.4495(9)
C5 C 0.01715(10) 0.16473(10) 0.47501(6)
C6 C -0.02584(10) 0.04172(10) 0.47816(6)
H5 H -0.0940 0.0217 0.4472
O5 O -0.03696(8) 0.23937(8) 0.43612(5)
O6 O 0.11474(7) 0.18302(8) 0.51613(5)
H6 H 0.1367(14) 0.2640(16) 0.5132(9)
C5B C -0.01715(10) -0.16473(10) 0.52499(6)
C6B C 0.02584(10) -0.04172(10) 0.52184(6)
H5B H 0.0940 -0.0217 0.5528
O5B O 0.03696(8) -0.23937(8) 0.56388(5)
O6B O -0.11474(7) -0.18302(8) 0.48387(5)
H6B H -0.1367(14) -0.2640(16) 0.4868(9)
N1 N 0.46741(8) 0.54933(8) 0.40323(5)
H7 H 0.4775 0.6270 0.4168
H8 H 0.5325 0.5103 0.4153
H9 H 0.4205 0.5138 0.4239
C7 C 0.42108(8) 0.54404(9) 0.32689(5)
C8 C 0.40449(9) 0.41239(10) 0.30542(6)
H10 H 0.3540 0.3740 0.3285
H11 H 0.4750 0.3695 0.3192
C9 C 0.35690(9) 0.40584(10) 0.22711(6)
H12 H 0.3457 0.3203 0.2124
C10 C 0.24735(9) 0.47186(11) 0.20731(6)
H13 H 0.1966 0.4340 0.2303
H14 H 0.2148 0.4665 0.1571
C11 C 0.26430(9) 0.60354(10) 0.22878(6)
H15 H 0.1928 0.6463 0.2153
C12 C 0.31220(9) 0.61047(10) 0.30720(6)
H16 H 0.3233 0.6951 0.3218
H17 H 0.2612 0.5736 0.3304
C13 C 0.34354(10) 0.66261(10) 0.19371(6)
H18 H 0.3543 0.7475 0.2078
H19 H 0.3128 0.6597 0.1433
C14 C 0.45331(9) 0.59670(10) 0.21408(6)
H20 H 0.5049 0.6351 0.1911
C15 C 0.43597(9) 0.46543(10) 0.19196(6)
H21 H 0.5066 0.4228 0.2047
H22 H 0.4059 0.4607 0.1415
C16 C 0.50088(9) 0.60313(10) 0.29247(6)
H23 H 0.5719 0.5613 0.3061
H24 H 0.5127 0.6876 0.3072
N2 N 0.03808(8) 0.50606(8) 0.59162(5)
H25 H -0.0303 0.4753 0.5764
H26 H 0.0825 0.4704 0.5691
H27 H 0.0360 0.5862 0.5836
C17 C 0.08106(9) 0.48352(9) 0.66724(5)
C18 C 0.19608(9) 0.53554(10) 0.69246(6)
H28 H 0.1943 0.6226 0.6834
H29 H 0.2444 0.4976 0.6677
C19 C 0.23979(9) 0.51206(10) 0.76999(6)
H30 H 0.3151 0.5455 0.7869
C20 C 0.16533(10) 0.57196(10) 0.80815(6)
H31 H 0.1640 0.6594 0.8004
H32 H 0.1936 0.5572 0.8580
C21 C 0.04941(9) 0.52090(10) 0.78197(6)
H33 H 0.0006 0.5598 0.8068
C22 C 0.00607(9) 0.54468(10) 0.70445(6)
H34 H -0.0689 0.5129 0.6873
H35 H 0.0040 0.6318 0.6956
C23 C 0.05222(10) 0.38520(10) 0.79445(6)
H36 H 0.0788 0.3688 0.8443
H37 H -0.0222 0.3520 0.7776
C24 C 0.12762(9) 0.32495(10) 0.75694(6)
H38 H 0.1296 0.2369 0.7657
C25 C 0.24281(9) 0.37652(10) 0.78298(6)
H39 H 0.2916 0.3377 0.7589
H40 H 0.2717 0.3605 0.8327
C26 C 0.08390(9) 0.34840(9) 0.67946(6)
H41 H 0.1317 0.3096 0.6546
H42 H 0.0097 0.3146 0.6622
O7 O 0.31637(7) 0.55891(7) 0.56349(4)
H43 H 0.3252(13) 0.6363(14) 0.5537(8)
O8 O 0.33124(7) 0.42767(7) 0.46675(4)
O9 O 0.17816(6) 0.57897(7) 0.44840(4)
O10 O 0.17691(7) 0.39954(7) 0.52248(4)
P1 P 0.24805(2) 0.48755(2) 0.497620(14)
loop_
_geom_bond_atom_site_label_1
_geom_bond_atom_site_label_2
_geom_bond_site_symmetry_1
_geom_bond_site_symmetry_2
C1 C2 1_555 1_555
C2 H1 1_555 1_555
C3 C2 1_555 1_555
H2 C3 1_555 1_555
C4 C3 1_555 1_555
O1 C1 1_555 1_555
H3 O1 1_555 1_555
O2 C1 1_555 1_555
O3 C4 1_555 1_555
O4 C4 1_555 1_555
H4 O4 1_555 1_555
C5 C6 1_555 1_555
C6 H5 1_555 1_555
O5 C5 1_555 1_555
O6 C5 1_555 1_555
H6 O6 1_555 1_555
N1 H7 1_555 1_555
H8 N1 1_555 1_555
H9 N1 1_555 1_555
C7 N1 1_555 1_555
C8 C7 1_555 1_555
H10 C8 1_555 1_555
H11 C8 1_555 1_555
C9 C8 1_555 1_555
H12 C9 1_555 1_555
C10 C9 1_555 1_555
H13 C10 1_555 1_555
H14 C10 1_555 1_555
C11 C10 1_555 1_555
H15 C11 1_555 1_555
C12 C7 1_555 1_555
H16 C12 1_555 1_555
H17 C12 1_555 1_555
C13 C11 1_555 1_555
H18 C13 1_555 1_555
H19 C13 1_555 1_555
C14 C13 1_555 1_555
H20 C14 1_555 1_555
C15 C9 1_555 1_555
H21 C15 1_555 1_555
H22 C15 1_555 1_555
C16 C7 1_555 1_555
H23 C16 1_555 1_555
H24 C16 1_555 1_555
N2 H25 1_555 1_555
H26 N2 1_555 1_555
H27 N2 1_555 1_555
C17 N2 1_555 1_555
C18 C17 1_555 1_555
H28 C18 1_555 1_555
H29 C18 1_555 1_555
C19 C18 1_555 1_555
H30 C19 1_555 1_555
C20 C19 1_555 1_555
H31 C20 1_555 1_555
H32 C20 1_555 1_555
C21 C20 1_555 1_555
H33 C21 1_555 1_555
C22 C17 1_555 1_555
H34 C22 1_555 1_555
H35 C22 1_555 1_555
C23 C21 1_555 1_555
H36 C23 1_555 1_555
H37 C23 1_555 1_555
C24 C23 1_555 1_555
H38 C24 1_555 1_555
C25 C19 1_555 1_555
H39 C25 1_555 1_555
H40 C25 1_555 1_555
C26 C17 1_555 1_555
H41 C26 1_555 1_555
H42 C26 1_555 1_555
O7 H43 1_555 1_555
O8 P1 1_555 1_555
O9 P1 1_555 1_555
O10 P1 1_555 1_555
P1 O7 1_555 1_555
C5B C6B 1_555 1_555
C6B C6 1_555 1_555
H5B C6B 1_555 1_555
O5B C5B 1_555 1_555
O6B C5B 1_555 1_555
H6B O6B 1_555 1_555
C11 C12 1_555 1_555
C14 C15 1_555 1_555
C14 C16 1_555 1_555
C21 C22 1_555 1_555
C24 C25 1_555 1_555
C24 C26 1_555 1_555

#END
