
#######################################################################
#
#                 Cambridge Crystallographic Data Centre
#                                CCDC 
#
#######################################################################
#
# If this CIF has been generated from an entry in the Cambridge 
# Structural Database, then it will include bibliographic, chemical, 
# crystal, experimental, refinement or atomic coordinate data resulting 
# from the CCDC's data processing and validation procedures.
#
#######################################################################

data_LEGJIS
_chemical_formula_moiety         'C12 H13 Cl1 F3 N1 O1'
_chemical_name_systematic        
N-(4-Chloro-3-(trifluoromethyl)phenyl)-2,2-dimethylpropanamide
_symmetry_cell_setting           monoclinic
_symmetry_space_group_name_H-M   'P 21/c'
_symmetry_Int_Tables_number      14
_space_group_name_Hall           '-P 2ybc'
loop_
_symmetry_equiv_pos_site_id
_symmetry_equiv_pos_as_xyz
1 x,y,z
2 -x,1/2+y,1/2-z
3 -x,-y,-z
4 x,1/2-y,1/2+z
_cell_length_a                   5.8850(12)
_cell_length_b                   21.955(4)
_cell_length_c                   10.307(2)
_cell_angle_alpha                90
_cell_angle_beta                 104.50(3)
_cell_angle_gamma                90
_cell_volume                     1289.3
_exptl_crystal_colour            colorless
_exptl_crystal_description       block
_cell_formula_units_Z            4
loop_
_atom_site_label
_atom_site_type_symbol
_atom_site_fract_x
_atom_site_fract_y
_atom_site_fract_z
Cl1 Cl 0.8303(2) 0.49337(6) 0.12942(14)
O1 O 0.1944(5) 0.25926(12) 0.2729(2)
N1 N 0.2134(5) 0.27644(13) 0.0605(3)
H1 H 0.1632 0.2645 -0.0211
F1 F 0.7046(6) 0.47123(13) 0.3967(3)
C1 C 0.4957(8) 0.46500(17) 0.3095(4)
F2 F 0.3471(6) 0.44832(12) 0.3808(3)
C2 C 0.5006(6) 0.42126(16) 0.1992(3)
F3 F 0.4298(5) 0.52091(10) 0.2663(3)
C3 C 0.3567(6) 0.37039(15) 0.1826(3)
H2 H 0.2576 0.3643 0.2389
C4 C 0.3598(6) 0.32856(15) 0.0826(3)
C5 C 0.5033(7) 0.33915(17) -0.0024(3)
H3 H 0.5024 0.3120 -0.0718
C6 C 0.6482(7) 0.38958(19) 0.0147(4)
H4 H 0.7468 0.3957 -0.0420
C7 C 0.6471(6) 0.43065(17) 0.1149(4)
C8 C 0.1439(6) 0.24321(15) 0.1556(3)
C9 C 0.0085(6) 0.18476(15) 0.1083(3)
C10 C 0.1853(9) 0.1369(2) 0.0953(7)
H5 H 0.2984 0.1321 0.1798
H6 H 0.2638 0.1493 0.0284
H7 H 0.1063 0.0989 0.0694
C11 C -0.1150(11) 0.1652(3) 0.2130(5)
H8 H -0.0022 0.1605 0.2976
H9 H -0.1931 0.1270 0.1872
H10 H -0.2283 0.1955 0.2210
C12 C -0.1714(9) 0.1921(2) -0.0249(5)
H11 H -0.0938 0.2042 -0.0923
H12 H -0.2838 0.2226 -0.0166
H13 H -0.2504 0.1540 -0.0500
loop_
_geom_bond_atom_site_label_1
_geom_bond_atom_site_label_2
_geom_bond_site_symmetry_1
_geom_bond_site_symmetry_2
Cl1 C7 1_555 1_555
O1 C8 1_555 1_555
N1 H1 1_555 1_555
F1 C1 1_555 1_555
C1 F2 1_555 1_555
C2 C1 1_555 1_555
F3 C1 1_555 1_555
C3 C2 1_555 1_555
H2 C3 1_555 1_555
C4 N1 1_555 1_555
C5 C4 1_555 1_555
H3 C5 1_555 1_555
C6 C5 1_555 1_555
H4 C6 1_555 1_555
C7 C2 1_555 1_555
C8 N1 1_555 1_555
C9 C8 1_555 1_555
C10 C9 1_555 1_555
H5 C10 1_555 1_555
H6 C10 1_555 1_555
H7 C10 1_555 1_555
C11 C9 1_555 1_555
H8 C11 1_555 1_555
H9 C11 1_555 1_555
H10 C11 1_555 1_555
C12 C9 1_555 1_555
H11 C12 1_555 1_555
H12 C12 1_555 1_555
H13 C12 1_555 1_555
C3 C4 1_555 1_555
C6 C7 1_555 1_555

#END
