
#######################################################################
#
#                 Cambridge Crystallographic Data Centre
#                                CCDC 
#
#######################################################################
#
# If this CIF has been generated from an entry in the Cambridge 
# Structural Database, then it will include bibliographic, chemical, 
# crystal, experimental, refinement or atomic coordinate data resulting 
# from the CCDC's data processing and validation procedures.
#
#######################################################################

data_LEGLUH
_chemical_formula_moiety         'C17 H12 F3 N1 O1'
_chemical_name_systematic        
phenyl[3-(2,2,2-trifluoroethyl)-1H-indol-2-yl]methanone
_symmetry_cell_setting           monoclinic
_symmetry_space_group_name_H-M   'P 21/c'
_symmetry_Int_Tables_number      14
_space_group_name_Hall           '-P 2ybc'
loop_
_symmetry_equiv_pos_site_id
_symmetry_equiv_pos_as_xyz
1 x,y,z
2 -x,1/2+y,1/2-z
3 -x,-y,-z
4 x,1/2-y,1/2+z
_cell_length_a                   8.495(5)
_cell_length_b                   14.294(8)
_cell_length_c                   11.815(6)
_cell_angle_alpha                90
_cell_angle_beta                 93.569(9)
_cell_angle_gamma                90
_cell_volume                     1431.88
_exptl_crystal_colour            colorless
_exptl_crystal_description       block
_cell_formula_units_Z            4
loop_
_atom_site_label
_atom_site_type_symbol
_atom_site_fract_x
_atom_site_fract_y
_atom_site_fract_z
F1 F 0.51493(15) 0.26918(8) 0.40502(11)
F2 F 0.43344(14) 0.40781(8) 0.43212(12)
F3 F 0.26972(16) 0.30056(10) 0.37960(11)
O1 O -0.03533(16) 0.11597(9) 0.46660(12)
N1 N 0.23443(19) 0.05032(11) 0.58797(13)
H1 H 0.166(2) 0.0086(15) 0.5685(17)
C1 C 0.3897(2) 0.03833(12) 0.62225(14)
C2 C 0.4725(3) -0.04309(14) 0.65189(16)
H2 H 0.4230 -0.1011 0.6521
C3 C 0.6314(3) -0.03341(17) 0.68087(17)
H3 H 0.6905 -0.0863 0.7008
C4 C 0.7056(2) 0.05328(17) 0.68109(17)
H4 H 0.8132 0.0567 0.7007
C5 C 0.6245(2) 0.13389(15) 0.65317(16)
H5 H 0.6755 0.1915 0.6542
C6 C 0.4621(2) 0.12694(12) 0.62294(14)
C7 C 0.2050(2) 0.14376(12) 0.56773(14)
C8 C 0.3432(2) 0.19366(12) 0.58835(14)
C9 C 0.0466(2) 0.17146(12) 0.52360(15)
C10 C -0.01600(19) 0.26484(12) 0.55190(15)
C11 C -0.1107(2) 0.31425(15) 0.47251(17)
H6 H -0.1318 0.2897 0.4003
C12 C -0.1730(3) 0.39917(17) 0.5005(2)
H7 H -0.2334 0.4329 0.4463
C13 C -0.1465(3) 0.43464(17) 0.6083(2)
H8 H -0.1906 0.4917 0.6273
C14 C -0.0553(2) 0.38586(16) 0.68762(19)
H9 H -0.0379 0.4097 0.7605
C15 C 0.0105(2) 0.30175(14) 0.65993(16)
H10 H 0.0732 0.2693 0.7140
C16 C 0.3748(2) 0.29551(12) 0.56741(16)
H11 H 0.2870 0.3321 0.5919
H12 H 0.4684 0.3142 0.6132
C17 C 0.3981(2) 0.31753(13) 0.44684(18)
loop_
_geom_bond_atom_site_label_1
_geom_bond_atom_site_label_2
_geom_bond_site_symmetry_1
_geom_bond_site_symmetry_2
F1 C17 1_555 1_555
F2 C17 1_555 1_555
F3 C17 1_555 1_555
O1 C9 1_555 1_555
N1 H1 1_555 1_555
C1 N1 1_555 1_555
C2 C1 1_555 1_555
H2 C2 1_555 1_555
C3 C2 1_555 1_555
H3 C3 1_555 1_555
C4 C3 1_555 1_555
H4 C4 1_555 1_555
C5 C4 1_555 1_555
H5 C5 1_555 1_555
C6 C1 1_555 1_555
C7 N1 1_555 1_555
C8 C6 1_555 1_555
C9 C7 1_555 1_555
C10 C9 1_555 1_555
C11 C10 1_555 1_555
H6 C11 1_555 1_555
C12 C11 1_555 1_555
H7 C12 1_555 1_555
C13 C12 1_555 1_555
H8 C13 1_555 1_555
C14 C13 1_555 1_555
H9 C14 1_555 1_555
C15 C10 1_555 1_555
H10 C15 1_555 1_555
C16 C8 1_555 1_555
H11 C16 1_555 1_555
H12 C16 1_555 1_555
C17 C16 1_555 1_555
C5 C6 1_555 1_555
C7 C8 1_555 1_555
C14 C15 1_555 1_555

#END
