
#######################################################################
#
#                 Cambridge Crystallographic Data Centre
#                                CCDC 
#
#######################################################################
#
# If this CIF has been generated from an entry in the Cambridge 
# Structural Database, then it will include bibliographic, chemical, 
# crystal, experimental, refinement or atomic coordinate data resulting 
# from the CCDC's data processing and validation procedures.
#
#######################################################################

data_LEGLIU
_chemical_formula_moiety         'C12 H17 N5 O1'
_chemical_name_systematic        
7'-Amino-1'H-spiro[cycloheptane-1,2'-pyrimido[4,5-d]pyrimidin]-4'(3'H)-one
_symmetry_cell_setting           monoclinic
_symmetry_space_group_name_H-M   'P 21/n'
_symmetry_Int_Tables_number      14
_space_group_name_Hall           '-P 2yn'
loop_
_symmetry_equiv_pos_site_id
_symmetry_equiv_pos_as_xyz
1 x,y,z
2 1/2-x,1/2+y,1/2-z
3 -x,-y,-z
4 1/2+x,1/2-y,1/2+z
_cell_length_a                   10.798(3)
_cell_length_b                   10.365(3)
_cell_length_c                   11.341(3)
_cell_angle_alpha                90
_cell_angle_beta                 110.287(4)
_cell_angle_gamma                90
_cell_volume                     1190.56
_exptl_crystal_colour            colorless
_exptl_crystal_description       block
_cell_formula_units_Z            4
loop_
_atom_site_label
_atom_site_type_symbol
_atom_site_fract_x
_atom_site_fract_y
_atom_site_fract_z
O1 O 0.50270(10) 0.09029(10) 0.36576(9)
N1 N 0.59501(11) 0.15243(11) 0.56975(10)
N2 N 0.76803(11) 0.30528(12) 0.63161(10)
N3 N 0.83812(11) 0.40875(11) 0.48490(10)
N4 N 0.71560(11) 0.38221(12) 0.26293(10)
N5 N 0.90263(12) 0.50418(13) 0.33343(12)
C1 C 0.55839(13) 0.36082(13) 0.65798(12)
H1 H 0.6087 0.4380 0.6996
H2 H 0.5115 0.3832 0.5687
C2 C 0.45569(14) 0.33082(16) 0.71849(13)
H3 H 0.4361 0.2372 0.7106
H4 H 0.3730 0.3774 0.6723
C3 C 0.50040(16) 0.36863(18) 0.85753(14)
H5 H 0.5270 0.4605 0.8652
H6 H 0.4239 0.3608 0.8861
C4 C 0.61375(15) 0.29004(18) 0.94541(13)
H7 H 0.5803 0.2028 0.9536
H8 H 0.6421 0.3307 1.0296
C5 C 0.73471(14) 0.27534(16) 0.90615(12)
H9 H 0.8085 0.2403 0.9779
H10 H 0.7615 0.3617 0.8862
C6 C 0.71173(14) 0.18714(14) 0.79249(12)
H11 H 0.6495 0.1182 0.7958
H12 H 0.7966 0.1452 0.8002
C7 C 0.65745(12) 0.25199(13) 0.66346(11)
C8 C 0.57409(12) 0.16677(13) 0.44658(12)
C9 C 0.64680(12) 0.27115(13) 0.41465(12)
C10 C 0.75182(12) 0.33111(13) 0.51061(12)
C11 C 0.81680(12) 0.42899(13) 0.36179(12)
C12 C 0.63510(13) 0.30267(13) 0.29228(12)
H13 H 0.5650 0.2648 0.2256
H14 H 0.8326(19) 0.3443(19) 0.6896(18)
H15 H 0.9754(19) 0.5290(18) 0.3921(18)
H16 H 0.893(2) 0.514(2) 0.257(2)
H17 H 0.557(2) 0.087(2) 0.593(2)
loop_
_geom_bond_atom_site_label_1
_geom_bond_atom_site_label_2
_geom_bond_site_symmetry_1
_geom_bond_site_symmetry_2
O1 C8 1_555 1_555
N1 C7 1_555 1_555
N2 C7 1_555 1_555
N3 C10 1_555 1_555
N4 C11 1_555 1_555
N5 C11 1_555 1_555
C1 H1 1_555 1_555
H2 C1 1_555 1_555
C2 C1 1_555 1_555
H3 C2 1_555 1_555
H4 C2 1_555 1_555
C3 C2 1_555 1_555
H5 C3 1_555 1_555
H6 C3 1_555 1_555
C4 C3 1_555 1_555
H7 C4 1_555 1_555
H8 C4 1_555 1_555
C5 C4 1_555 1_555
H9 C5 1_555 1_555
H10 C5 1_555 1_555
C6 C5 1_555 1_555
H11 C6 1_555 1_555
H12 C6 1_555 1_555
C7 C1 1_555 1_555
C8 N1 1_555 1_555
C9 C8 1_555 1_555
C10 N2 1_555 1_555
C11 N3 1_555 1_555
C12 N4 1_555 1_555
H13 C12 1_555 1_555
H14 N2 1_555 1_555
H15 N5 1_555 1_555
H16 N5 1_555 1_555
H17 N1 1_555 1_555
C6 C7 1_555 1_555
C9 C10 1_555 1_555
C9 C12 1_555 1_555

#END
