
#######################################################################
#
#                 Cambridge Crystallographic Data Centre
#                                CCDC 
#
#######################################################################
#
# If this CIF has been generated from an entry in the Cambridge 
# Structural Database, then it will include bibliographic, chemical, 
# crystal, experimental, refinement or atomic coordinate data resulting 
# from the CCDC's data processing and validation procedures.
#
#######################################################################

data_LEGMUH
_chemical_formula_moiety         'C6 H9 B1 N1 O2 1+,C7 H4 N1 O4 1-'
_chemical_name_systematic        
'3-(Dihydroxyboryl)anilinium 6-carboxypyridine-2-carboxylate'
_symmetry_cell_setting           monoclinic
_symmetry_space_group_name_H-M   'P 21/n'
_symmetry_Int_Tables_number      14
_space_group_name_Hall           '-P 2yn'
loop_
_symmetry_equiv_pos_site_id
_symmetry_equiv_pos_as_xyz
1 x,y,z
2 1/2-x,1/2+y,1/2-z
3 -x,-y,-z
4 1/2+x,1/2-y,1/2+z
_cell_length_a                   7.7065(6)
_cell_length_b                   14.0473(10)
_cell_length_c                   13.0852(10)
_cell_angle_alpha                90
_cell_angle_beta                 106.9630(10)
_cell_angle_gamma                90
_cell_volume                     1354.92
_exptl_crystal_colour            colorless
_exptl_crystal_description       block
_cell_formula_units_Z            4
loop_
_atom_site_label
_atom_site_type_symbol
_atom_site_fract_x
_atom_site_fract_y
_atom_site_fract_z
O1 O 0.99515(15) 0.89532(8) 0.27933(8)
C1 C 1.19186(19) 0.93213(10) 0.45205(11)
C2 C 1.1728(2) 1.02978(11) 0.43673(12)
H1 H 1.0986 1.0544 0.3729
C3 C 1.2659(2) 1.08965(11) 0.51780(14)
H2 H 1.2534 1.1553 0.5101
C4 C 1.3776(2) 1.05063(11) 0.61038(13)
H3 H 1.4459 1.0894 0.6650
C5 C 1.38602(19) 0.95208(10) 0.62036(12)
C6 C 1.5061(2) 0.90725(10) 0.72088(12)
C7 C 1.09722(19) 0.86419(10) 0.36402(11)
H8 H 1.070(4) 0.7337(19) 0.329(2)
N1 N 1.29358(16) 0.89300(8) 0.54318(9)
O2 O 1.13249(15) 0.77632(8) 0.38493(8)
O3 O 1.46409(15) 0.82127(8) 0.73569(9)
O4 O 1.63185(16) 0.95337(9) 0.77863(10)
B1 B 0.1026(2) 0.91402(12) -0.06619(13)
C8 C 0.57150(19) 0.81556(10) 0.09336(11)
C9 C 0.5358(2) 0.76762(10) 0.17760(12)
H4 H 0.6274 0.7350 0.2274
C10 C 0.3611(2) 0.76933(11) 0.18593(12)
H5 H 0.3345 0.7388 0.2426
C11 C 0.2256(2) 0.81672(11) 0.10949(12)
H6 H 0.1085 0.8168 0.1157
C12 C 0.2593(2) 0.86417(10) 0.02364(12)
C13 C 0.43773(19) 0.86366(10) 0.01759(11)
H7 H 0.4662 0.8958 -0.0376
N2 N 0.75722(16) 0.81145(8) 0.08587(10)
H9 H 0.7832 0.7520 0.0719
H10 H 0.8341 0.8302 0.1475
H11 H 0.7673 0.8497 0.0337
O5 O 0.15502(15) 0.96244(9) -0.14174(9)
H12 H 0.0661 0.9872 -0.1837
O6 O -0.07164(14) 0.90249(8) -0.06323(8)
H13 H -0.1416 0.9245 -0.1178
loop_
_geom_bond_atom_site_label_1
_geom_bond_atom_site_label_2
_geom_bond_site_symmetry_1
_geom_bond_site_symmetry_2
O1 C7 1_555 1_555
B1 C12 1_555 1_555
C1 C2 1_555 1_555
C2 H1 1_555 1_555
C3 C2 1_555 1_555
H2 C3 1_555 1_555
C4 C3 1_555 1_555
H3 C4 1_555 1_555
C5 C4 1_555 1_555
C6 C5 1_555 1_555
C7 C1 1_555 1_555
C8 C9 1_555 1_555
C9 H4 1_555 1_555
C10 C9 1_555 1_555
H5 C10 1_555 1_555
C11 C10 1_555 1_555
H6 C11 1_555 1_555
C12 C11 1_555 1_555
C13 C8 1_555 1_555
H7 C13 1_555 1_555
H8 O2 1_555 1_555
N1 C1 1_555 1_555
N2 C8 1_555 1_555
H9 N2 1_555 1_555
H10 N2 1_555 1_555
H11 N2 1_555 1_555
O2 C7 1_555 1_555
O3 C6 1_555 1_555
O4 C6 1_555 1_555
O5 B1 1_555 1_555
H12 O5 1_555 1_555
O6 B1 1_555 1_555
H13 O6 1_555 1_555
C5 N1 1_555 1_555
C12 C13 1_555 1_555

#END
