
#######################################################################
#
#                 Cambridge Crystallographic Data Centre
#                                CCDC 
#
#######################################################################
#
# If this CIF has been generated from an entry in the Cambridge 
# Structural Database, then it will include bibliographic, chemical, 
# crystal, experimental, refinement or atomic coordinate data resulting 
# from the CCDC's data processing and validation procedures.
#
#######################################################################

data_LEGSEY
_chemical_formula_moiety         'C29 H16 F6 N2 S2'
_chemical_name_systematic        
3,3'-[(3,3,4,4,5,5-hexafluorocyclopent-1-ene-1,2-diyl)bis(5-methylthiene-4,2-diyl)]dibenzonitrile
_symmetry_cell_setting           monoclinic
_symmetry_space_group_name_H-M   'C 2/c'
_symmetry_Int_Tables_number      15
_space_group_name_Hall           '-C 2yn'
loop_
_symmetry_equiv_pos_site_id
_symmetry_equiv_pos_as_xyz
1 x,y,z
2 -x,y,1/2-z
3 1/2+x,1/2+y,z
4 1/2-x,1/2+y,1/2-z
5 -x,-y,-z
6 x,-y,1/2+z
7 1/2-x,1/2-y,-z
8 1/2+x,1/2-y,1/2+z
_cell_length_a                   18.910(3)
_cell_length_b                   8.5720(14)
_cell_length_c                   16.757(3)
_cell_angle_alpha                90
_cell_angle_beta                 100.474(2)
_cell_angle_gamma                90
_cell_volume                     2670.99
_exptl_crystal_colour            colorless
_exptl_crystal_description       BLOCK
_cell_formula_units_Z            4
loop_
_atom_site_label
_atom_site_type_symbol
_atom_site_fract_x
_atom_site_fract_y
_atom_site_fract_z
S1 S 0.48786(5) 0.67983(10) 0.07755(5)
N1 N 0.2781(3) 1.1298(5) -0.1342(3)
C1 C 0.5000 0.0243(7) 0.2500
C2 C 0.4785(2) 0.1298(4) 0.1778(2)
C3 C 0.48826(16) 0.2934(3) 0.20951(19)
C4 C 0.47489(16) 0.4263(4) 0.15310(18)
C5 C 0.41170(17) 0.4411(4) 0.09288(17)
H1 H 0.3753 0.3668 0.0849
C6 C 0.40953(17) 0.5741(4) 0.04802(18)
C7 C 0.52227(17) 0.5476(4) 0.15188(18)
C8 C 0.59361(17) 0.5767(4) 0.2036(2)
H2 H 0.5871 0.6247 0.2535
H3 H 0.6212 0.6446 0.1756
H4 H 0.6186 0.4795 0.2151
C9 C 0.35279(17) 0.6287(4) -0.01729(18)
C10 C 0.30496(19) 0.5242(4) -0.0612(2)
H5 H 0.3086 0.4188 -0.0479
C11 C 0.34578(19) 0.7862(4) -0.0380(2)
H6 H 0.3772 0.8585 -0.0093
C12 C 0.2522(2) 0.5727(5) -0.1242(2)
H7 H 0.2207 0.5006 -0.1529
C13 C 0.2464(2) 0.7291(6) -0.1443(2)
H8 H 0.2114 0.7624 -0.1873
C14 C 0.2928(2) 0.8359(5) -0.1006(2)
C15 C 0.2850(2) 0.9997(6) -0.1198(3)
F1 F 0.5776(6) -0.0184(16) 0.2315(4)
F2 F 0.4050(10) 0.103(2) 0.1576(11)
F3 F 0.5311(7) 0.0952(15) 0.1335(8)
S1A S 0.51214(5) 0.67983(10) 0.42245(5)
N1A N 0.7219(3) 1.1298(5) 0.6342(3)
C2A C 0.5215(2) 0.1298(4) 0.3222(2)
C3A C 0.51174(16) 0.2934(3) 0.29049(19)
C4A C 0.52511(16) 0.4263(4) 0.34690(18)
C5A C 0.58830(17) 0.4411(4) 0.40712(17)
H1A H 0.6247 0.3668 0.4151
C6A C 0.59047(17) 0.5741(4) 0.45198(18)
C7A C 0.47773(17) 0.5476(4) 0.34812(18)
C8A C 0.40639(17) 0.5767(4) 0.2964(2)
H2A H 0.4129 0.6247 0.2465
H3A H 0.3788 0.6446 0.3244
H4A H 0.3814 0.4795 0.2849
C9A C 0.64721(17) 0.6287(4) 0.51729(18)
C10A C 0.69504(19) 0.5242(4) 0.5612(2)
H5A H 0.6914 0.4188 0.5479
C11A C 0.65422(19) 0.7862(4) 0.5380(2)
H6A H 0.6228 0.8585 0.5093
C12A C 0.7478(2) 0.5727(5) 0.6242(2)
H7A H 0.7793 0.5006 0.6529
C13A C 0.7536(2) 0.7291(6) 0.6443(2)
H8A H 0.7886 0.7624 0.6873
C14A C 0.7072(2) 0.8359(5) 0.6006(2)
C15A C 0.7150(2) 0.9997(6) 0.6198(3)
F1A F 0.4224(6) -0.0184(16) 0.2685(4)
F2A F 0.5950(10) 0.103(2) 0.3424(11)
F3A F 0.4689(7) 0.0952(15) 0.3665(8)
F4? F 0.5248(7) -0.1031(9) 0.2482(7)
F5? F 0.4183(11) 0.096(2) 0.1278(9)
F6? F 0.4998(9) 0.1060(16) 0.1083(7)
loop_
_geom_bond_atom_site_label_1
_geom_bond_atom_site_label_2
_geom_bond_site_symmetry_1
_geom_bond_site_symmetry_2
S1 C6 1_555 1_555
N1 C15 1_555 1_555
C1 C2 1_555 1_555
C2 C3 1_555 1_555
C3 C4 1_555 1_555
C4 C5 1_555 1_555
C5 H1 1_555 1_555
C6 C5 1_555 1_555
C7 S1 1_555 1_555
C8 C7 1_555 1_555
H2 C8 1_555 1_555
H3 C8 1_555 1_555
H4 C8 1_555 1_555
C9 C6 1_555 1_555
C10 C9 1_555 1_555
H5 C10 1_555 1_555
C11 C9 1_555 1_555
H6 C11 1_555 1_555
C12 C10 1_555 1_555
H7 C12 1_555 1_555
C13 C12 1_555 1_555
H8 C13 1_555 1_555
C14 C11 1_555 1_555
C15 C14 1_555 1_555
F1 C1 1_555 1_555
F2 C2 1_555 1_555
F3 C2 1_555 1_555
S1A C6A 1_555 1_555
N1A C15A 1_555 1_555
C2A C1 1_555 1_555
C3A C3 1_555 1_555
C4A C3A 1_555 1_555
C5A C4A 1_555 1_555
H1A C5A 1_555 1_555
C6A C5A 1_555 1_555
C7A S1A 1_555 1_555
C8A C7A 1_555 1_555
H2A C8A 1_555 1_555
H3A C8A 1_555 1_555
H4A C8A 1_555 1_555
C9A C6A 1_555 1_555
C10A C9A 1_555 1_555
H5A C10A 1_555 1_555
C11A C9A 1_555 1_555
H6A C11A 1_555 1_555
C12A C10A 1_555 1_555
H7A C12A 1_555 1_555
C13A C12A 1_555 1_555
H8A C13A 1_555 1_555
C14A C11A 1_555 1_555
C15A C14A 1_555 1_555
F1A C1 1_555 1_555
F2A C2A 1_555 1_555
F3A C2A 1_555 1_555
C4 C7 1_555 1_555
C13 C14 1_555 1_555
C2A C3A 1_555 1_555
C4A C7A 1_555 1_555
C13A C14A 1_555 1_555

#END
