
#######################################################################
#
#                 Cambridge Crystallographic Data Centre
#                                CCDC 
#
#######################################################################
#
# If this CIF has been generated from an entry in the Cambridge 
# Structural Database, then it will include bibliographic, chemical, 
# crystal, experimental, refinement or atomic coordinate data resulting 
# from the CCDC's data processing and validation procedures.
#
#######################################################################

data_LEGSIC
_chemical_formula_moiety         'C23 H21 N3 O2'
_chemical_name_systematic        
4,5-dimethyl-7-(pyrimidin-2-yl)-4,4a,5,6,7,11c-hexahydro-1H-4,6-(epoxymethano)benzo[c]carbazol-1-one
_symmetry_cell_setting           triclinic
_symmetry_space_group_name_H-M   'P -1'
_symmetry_Int_Tables_number      2
_space_group_name_Hall           '-P 1'
loop_
_symmetry_equiv_pos_site_id
_symmetry_equiv_pos_as_xyz
1 x,y,z
2 -x,-y,-z
_cell_length_a                   7.701(6)
_cell_length_b                   15.767(12)
_cell_length_c                   16.789(13)
_cell_angle_alpha                113.857(15)
_cell_angle_beta                 100.267(14)
_cell_angle_gamma                92.695(15)
_cell_volume                     1818.38
_exptl_crystal_colour            colorless
_exptl_crystal_description       block
_cell_formula_units_Z            4
loop_
_atom_site_label
_atom_site_type_symbol
_atom_site_fract_x
_atom_site_fract_y
_atom_site_fract_z
O1 O 0.8834(4) 0.7735(3) 0.0057(3)
O2 O 0.7747(6) 0.9061(3) 0.3150(3)
N1 N 0.7259(5) 0.5652(3) 0.0465(3)
N2 N 0.6731(6) 0.4846(3) -0.1073(4)
N3 N 0.8265(6) 0.4204(3) -0.0133(3)
C1 C 0.7747(6) 0.5760(4) 0.1360(4)
C2 C 0.8308(7) 0.5137(4) 0.1712(4)
H1 H 0.846573 0.453328 0.134312
C3 C 0.8625(7) 0.5438(4) 0.2622(5)
H2 H 0.901251 0.503113 0.287119
C4 C 0.8379(7) 0.6337(5) 0.3179(4)
H3 H 0.858609 0.652253 0.379208
C5 C 0.7826(6) 0.6956(4) 0.2822(4)
H4 H 0.766188 0.755779 0.319280
C6 C 0.7517(6) 0.6671(4) 0.1905(4)
C7 C 0.6925(6) 0.7133(4) 0.1348(4)
C8 C 0.6731(6) 0.6510(4) 0.0488(4)
C9 C 0.6076(7) 0.6733(4) -0.0281(4)
H5 H 0.527872 0.619445 -0.075412
C10 C 0.7617(7) 0.6984(4) -0.0647(4)
H6 H 0.822682 0.644273 -0.089231
H7 H 0.715717 0.716965 -0.112075
C11 C 0.8136(8) 0.8569(4) 0.0561(4)
C12 C 0.9626(8) 0.9028(4) 0.1373(5)
H8 H 1.069331 0.925021 0.129455
C13 C 0.9539(9) 0.9139(4) 0.2183(5)
H9 H 1.052469 0.945104 0.264425
C14 C 0.7964(10) 0.8794(4) 0.2391(5)
C15 C 0.6562(7) 0.8121(4) 0.1610(4)
H10 H 0.542491 0.816781 0.179976
C16 C 0.6351(7) 0.8377(4) 0.0815(4)
H11 H 0.577916 0.894803 0.096723
C17 C 0.5040(7) 0.7574(4) 0.0040(4)
H12 H 0.412211 0.739986 0.030233
C18 C 0.4055(8) 0.7809(4) -0.0714(4)
H13 H 0.489388 0.793391 -0.102514
H14 H 0.347196 0.835148 -0.046273
H15 H 0.318404 0.728923 -0.112201
C19 C 0.7969(8) 0.9201(4) 0.0066(4)
H16 H 0.907310 0.928401 -0.010055
H17 H 0.769466 0.979849 0.044777
H18 H 0.703467 0.891720 -0.046043
C20 C 0.7422(7) 0.4857(4) -0.0290(5)
C21 C 0.8428(7) 0.3471(4) -0.0871(5)
H19 H 0.901391 0.299474 -0.080212
C22 C 0.7795(8) 0.3384(5) -0.1706(5)
H20 H 0.794385 0.286874 -0.220381
C23 C 0.6926(8) 0.4087(5) -0.1783(4)
H21 H 0.644777 0.404109 -0.235044
O3 O 0.1965(4) 0.7378(2) 0.5182(2)
O4 O 0.5868(5) 0.9860(3) 0.7970(3)
N4 N 0.6600(5) 0.6572(3) 0.5289(3)
N5 N 0.5153(6) 0.5521(3) 0.3854(4)
N6 N 0.7363(6) 0.5077(3) 0.4739(3)
C24 C 0.7656(7) 0.6848(4) 0.6151(4)
C25 C 0.8838(8) 0.6361(4) 0.6491(5)
H22 H 0.902245 0.575592 0.614198
C26 C 0.9706(8) 0.6833(5) 0.7373(5)
H23 H 1.051750 0.653351 0.761125
C27 C 0.9444(7) 0.7723(5) 0.7923(4)
H24 H 1.004588 0.800574 0.851726
C28 C 0.8265(7) 0.8190(4) 0.7572(4)
H25 H 0.808071 0.879331 0.792671
C29 C 0.7360(7) 0.7739(4) 0.6682(4)
C30 C 0.6094(7) 0.8027(4) 0.6133(4)
C31 C 0.5692(6) 0.7345(4) 0.5295(4)
C32 C 0.4504(6) 0.7438(3) 0.4523(4)
H26 H 0.495880 0.713523 0.397919
C33 C 0.2606(6) 0.6998(3) 0.4380(4)
H27 H 0.183821 0.711129 0.391820
H28 H 0.257445 0.632727 0.418186
C34 C 0.2072(6) 0.8377(4) 0.5616(4)
C35 C 0.1869(8) 0.8512(4) 0.6532(5)
H29 H 0.077661 0.827763 0.657740
C36 C 0.3094(8) 0.8932(4) 0.7283(4)
H30 H 0.281600 0.899239 0.781854
C37 C 0.4881(8) 0.9304(4) 0.7285(4)
C38 C 0.5384(6) 0.8968(3) 0.6398(4)
H31 H 0.635119 0.942648 0.644840
C39 C 0.3855(6) 0.8910(3) 0.5635(4)
H32 H 0.364832 0.955056 0.573561
C40 C 0.4491(7) 0.8470(3) 0.4749(4)
H33 H 0.574158 0.873477 0.488722
C41 C 0.3567(7) 0.8692(4) 0.3990(4)
H34 H 0.237941 0.836350 0.376098
H35 H 0.421983 0.849975 0.352282
H36 H 0.351925 0.935305 0.420608
C42 C 0.0440(6) 0.8694(4) 0.5180(4)
H37 H 0.050217 0.856927 0.457794
H38 H 0.043507 0.935188 0.551294
H39 H -0.063170 0.835604 0.517965
C43 C 0.6357(8) 0.5680(4) 0.4592(5)
C44 C 0.7045(9) 0.4212(5) 0.4076(5)
H40 H 0.768714 0.375524 0.415188
C45 C 0.5837(9) 0.3969(4) 0.3300(5)
H41 H 0.564221 0.336487 0.285016
C46 C 0.4923(8) 0.4659(4) 0.3214(4)
H42 H 0.410343 0.451912 0.268512
loop_
_geom_bond_atom_site_label_1
_geom_bond_atom_site_label_2
_geom_bond_site_symmetry_1
_geom_bond_site_symmetry_2
O1 C10 1_555 1_555
O2 C14 1_555 1_555
N1 C1 1_555 1_555
N2 C20 1_555 1_555
N3 C20 1_555 1_555
C1 C2 1_555 1_555
C2 H1 1_555 1_555
C3 C2 1_555 1_555
H2 C3 1_555 1_555
C4 C3 1_555 1_555
H3 C4 1_555 1_555
C5 C4 1_555 1_555
H4 C5 1_555 1_555
C6 C1 1_555 1_555
C7 C6 1_555 1_555
C8 N1 1_555 1_555
C9 C8 1_555 1_555
H5 C9 1_555 1_555
C10 C9 1_555 1_555
H6 C10 1_555 1_555
H7 C10 1_555 1_555
C11 O1 1_555 1_555
C12 C11 1_555 1_555
H8 C12 1_555 1_555
C13 C12 1_555 1_555
H9 C13 1_555 1_555
C14 C13 1_555 1_555
C15 C7 1_555 1_555
H10 C15 1_555 1_555
C16 C11 1_555 1_555
H11 C16 1_555 1_555
C17 C9 1_555 1_555
H12 C17 1_555 1_555
C18 C17 1_555 1_555
H13 C18 1_555 1_555
H14 C18 1_555 1_555
H15 C18 1_555 1_555
C19 C11 1_555 1_555
H16 C19 1_555 1_555
H17 C19 1_555 1_555
H18 C19 1_555 1_555
C20 N1 1_555 1_555
C21 N3 1_555 1_555
H19 C21 1_555 1_555
C22 C21 1_555 1_555
H20 C22 1_555 1_555
C23 N2 1_555 1_555
H21 C23 1_555 1_555
O3 C33 1_555 1_555
O4 C37 1_555 1_555
N4 C24 1_555 1_555
N5 C43 1_555 1_555
N6 C43 1_555 1_555
C24 C25 1_555 1_555
C25 H22 1_555 1_555
C26 C25 1_555 1_555
H23 C26 1_555 1_555
C27 C26 1_555 1_555
H24 C27 1_555 1_555
C28 C27 1_555 1_555
H25 C28 1_555 1_555
C29 C24 1_555 1_555
C30 C29 1_555 1_555
C31 N4 1_555 1_555
C32 C31 1_555 1_555
H26 C32 1_555 1_555
C33 C32 1_555 1_555
H27 C33 1_555 1_555
H28 C33 1_555 1_555
C34 O3 1_555 1_555
C35 C34 1_555 1_555
H29 C35 1_555 1_555
C36 C35 1_555 1_555
H30 C36 1_555 1_555
C37 C36 1_555 1_555
C38 C30 1_555 1_555
H31 C38 1_555 1_555
C39 C34 1_555 1_555
H32 C39 1_555 1_555
C40 C32 1_555 1_555
H33 C40 1_555 1_555
C41 C40 1_555 1_555
H34 C41 1_555 1_555
H35 C41 1_555 1_555
H36 C41 1_555 1_555
C42 C34 1_555 1_555
H37 C42 1_555 1_555
H38 C42 1_555 1_555
H39 C42 1_555 1_555
C43 N4 1_555 1_555
C44 N6 1_555 1_555
H40 C44 1_555 1_555
C45 C44 1_555 1_555
H41 C45 1_555 1_555
C46 N5 1_555 1_555
H42 C46 1_555 1_555
C5 C6 1_555 1_555
C7 C8 1_555 1_555
C14 C15 1_555 1_555
C15 C16 1_555 1_555
C16 C17 1_555 1_555
C22 C23 1_555 1_555
C28 C29 1_555 1_555
C30 C31 1_555 1_555
C37 C38 1_555 1_555
C38 C39 1_555 1_555
C39 C40 1_555 1_555
C45 C46 1_555 1_555

#END
