
#######################################################################
#
#                 Cambridge Crystallographic Data Centre
#                                CCDC 
#
#######################################################################
#
# If this CIF has been generated from an entry in the Cambridge 
# Structural Database, then it will include bibliographic, chemical, 
# crystal, experimental, refinement or atomic coordinate data resulting 
# from the CCDC's data processing and validation procedures.
#
#######################################################################

data_LEGVIE
_chemical_formula_moiety         'C10 H6 N3 O5 1-,C2 H8 N1 1+'
_chemical_name_systematic        
'Dimethylammonium 5-carboxy-2-(1-oxidopyridin-2-yl)-1H-imidazole-4-carboxylate'
_symmetry_cell_setting           monoclinic
_symmetry_space_group_name_H-M   'C c'
_symmetry_Int_Tables_number      9
_space_group_name_Hall           'C -2yc'
loop_
_symmetry_equiv_pos_site_id
_symmetry_equiv_pos_as_xyz
1 x,y,z
2 x,-y,1/2+z
3 1/2+x,1/2+y,z
4 1/2+x,1/2-y,1/2+z
_cell_length_a                   10.9690(18)
_cell_length_b                   17.305(3)
_cell_length_c                   8.0160(13)
_cell_angle_alpha                90
_cell_angle_beta                 120.901(2)
_cell_angle_gamma                90
_cell_volume                     1305.61
_exptl_crystal_colour            colorless
_exptl_crystal_description       block
_cell_formula_units_Z            4
loop_
_atom_site_label
_atom_site_type_symbol
_atom_site_fract_x
_atom_site_fract_y
_atom_site_fract_z
C1 C 0.8048(3) 0.88560(14) 0.6235(4)
C2 C 0.6875(3) 0.92371(14) 0.4485(4)
C3 C 0.6630(3) 1.00178(15) 0.4067(4)
C4 C 0.7352(3) 1.07430(16) 0.5114(4)
C5 C 0.4999(3) 0.93154(13) 0.1662(4)
C6 C 0.3776(3) 0.90945(15) -0.0207(4)
C7 C 0.3453(3) 0.83297(16) -0.0743(4)
H1 H 0.4041 0.7945 0.0095
C8 C 0.2281(4) 0.81248(17) -0.2486(5)
H2 H 0.2074 0.7607 -0.2825
C9 C 0.1414(3) 0.86974(19) -0.3729(4)
H3 H 0.0610 0.8570 -0.4910
C10 C 0.1752(4) 0.94533(19) -0.3202(5)
H4 H 0.1173 0.9838 -0.4047
N1 N 0.5853(3) 0.88073(11) 0.2989(4)
N2 N 0.5433(2) 1.00487(12) 0.2268(3)
H11 H 0.5024 1.0462 0.1629
N3 N 0.2913(2) 0.96589(13) -0.1477(3)
O1 O 0.8070(2) 0.81390(9) 0.6329(3)
O2 O 0.8994(2) 0.92884(11) 0.7573(3)
O3 O 0.8499(2) 1.06669(12) 0.6792(3)
H14 H 0.8722 1.0209 0.6990
O4 O 0.6859(3) 1.13664(11) 0.4385(4)
O5 O 0.3198(3) 1.03909(11) -0.1066(3)
C11 C 0.1058(4) 0.83037(18) 0.1270(5)
H5 H 0.0357 0.8668 0.1150
H6 H 0.1698 0.8554 0.0960
H7 H 0.1580 0.8113 0.2580
C12 C -0.0512(4) 0.71875(19) 0.0443(6)
H8 H 0.0075 0.6984 0.1731
H9 H -0.0929 0.6769 -0.0464
H10 H -0.1250 0.7501 0.0399
N4 N 0.0354(3) 0.76580(12) -0.0071(4)
H12 H -0.0202 0.7846 -0.1280
H13 H 0.1019 0.7356 -0.0080
loop_
_geom_bond_atom_site_label_1
_geom_bond_atom_site_label_2
_geom_bond_site_symmetry_1
_geom_bond_site_symmetry_2
C1 C2 1_555 1_555
C2 C3 1_555 1_555
C3 C4 1_555 1_555
C4 O3 1_555 1_555
C5 C6 1_555 1_555
C6 C7 1_555 1_555
C7 H1 1_555 1_555
C8 C7 1_555 1_555
H2 C8 1_555 1_555
C9 C8 1_555 1_555
H3 C9 1_555 1_555
C10 C9 1_555 1_555
H4 C10 1_555 1_555
C11 H5 1_555 1_555
H6 C11 1_555 1_555
H7 C11 1_555 1_555
C12 H8 1_555 1_555
H9 C12 1_555 1_555
H10 C12 1_555 1_555
N1 C2 1_555 1_555
N2 C3 1_555 1_555
H11 N2 1_555 1_555
N3 C6 1_555 1_555
N4 C11 1_555 1_555
H12 N4 1_555 1_555
H13 N4 1_555 1_555
O1 C1 1_555 1_555
O2 C1 1_555 1_555
O3 H14 1_555 1_555
O4 C4 1_555 1_555
O5 N3 1_555 1_555
C5 N1 1_555 1_555
C5 N2 1_555 1_555
C10 N3 1_555 1_555
C12 N4 1_555 1_555

#END
