
#######################################################################
#
#                 Cambridge Crystallographic Data Centre
#                                CCDC 
#
#######################################################################
#
# If this CIF has been generated from an entry in the Cambridge 
# Structural Database, then it will include bibliographic, chemical, 
# crystal, experimental, refinement or atomic coordinate data resulting 
# from the CCDC's data processing and validation procedures.
#
#######################################################################

data_LEGWAX
_chemical_formula_moiety         'C30 H41 N1 O6'
_chemical_name_systematic        
'Ethyl 15-(((2-nitrobenzyl)oxy)methyl)-16-oxobeyeran-18-oate'
_symmetry_cell_setting           orthorhombic
_symmetry_space_group_name_H-M   'P 21 21 21'
_symmetry_Int_Tables_number      19
_space_group_name_Hall           'P 2ac 2ab'
loop_
_symmetry_equiv_pos_site_id
_symmetry_equiv_pos_as_xyz
1 x,y,z
2 1/2-x,-y,1/2+z
3 -x,1/2+y,1/2-z
4 1/2+x,1/2-y,-z
_cell_length_a                   8.3711(17)
_cell_length_b                   11.419(2)
_cell_length_c                   28.685(6)
_cell_angle_alpha                90
_cell_angle_beta                 90
_cell_angle_gamma                90
_cell_volume                     2741.99
_exptl_crystal_colour            colorless
_exptl_crystal_description       prismatic
_cell_formula_units_Z            4
loop_
_atom_site_label
_atom_site_type_symbol
_atom_site_fract_x
_atom_site_fract_y
_atom_site_fract_z
O1 O 0.1611(7) 0.3605(5) 0.97148(15)
O2 O 0.6339(6) 0.2134(3) 1.23213(12)
O3 O 0.7511(5) 0.2638(3) 1.16532(11)
O4 O 0.5036(5) 0.4970(3) 0.96537(11)
O5 O 0.9724(5) 0.6750(4) 0.86124(15)
O6 O 0.8962(6) 0.4991(4) 0.87463(16)
C1 C 0.2466(7) 0.4154(5) 1.19284(16)
H1 H 0.2225 0.4977 1.1973
H2 H 0.1464 0.3747 1.1878
C2 C 0.3243(8) 0.3678(5) 1.23739(17)
H3 H 0.2549 0.3828 1.2638
H4 H 0.3382 0.2837 1.2347
C3 C 0.4854(9) 0.4252(5) 1.24562(16)
H5 H 0.5335 0.3911 1.2732
H6 H 0.4690 0.5079 1.2517
C4 C 0.6014(7) 0.4119(4) 1.20465(15)
C5 C 0.5184(7) 0.4587(4) 1.15953(14)
H7 H 0.4927 0.5403 1.1670
C6 C 0.6193(6) 0.4677(4) 1.11497(15)
H8 H 0.7240 0.4988 1.1226
H9 H 0.6337 0.3902 1.1017
C7 C 0.5394(6) 0.5462(4) 1.07967(15)
H10 H 0.6065 0.5510 1.0522
H11 H 0.5309 0.6244 1.0927
C8 C 0.3731(6) 0.5052(4) 1.06500(15)
C9 C 0.2718(6) 0.4759(5) 1.10952(15)
H12 H 0.2510 0.5521 1.1240
C10 C 0.3516(6) 0.4019(4) 1.14892(15)
C11 C 0.1045(7) 0.4302(6) 1.09511(18)
H13 H 0.1147 0.3510 1.0832
H14 H 0.0363 0.4274 1.1224
C12 C 0.0253(7) 0.5071(8) 1.0579(2)
H15 H -0.0139 0.5782 1.0724
H16 H -0.0658 0.4658 1.0450
C13 C 0.1400(7) 0.5402(6) 1.01787(18)
C14 C 0.2821(7) 0.6015(5) 1.03878(16)
H17 H 0.2482 0.6628 1.0600
H18 H 0.3483 0.6358 1.0146
C15 C 0.3684(7) 0.4026(5) 1.02853(16)
H19 H 0.3588 0.3280 1.0452
C16 C 0.2121(8) 0.4254(6) 1.00117(17)
C17 C 0.0516(9) 0.6066(9) 0.9796(2)
H20 H -0.0371 0.5606 0.9689
H21 H 0.1230 0.6213 0.9541
H22 H 0.0133 0.6797 0.9918
C18 C 0.3684(7) 0.2712(4) 1.13629(18)
H23 H 0.2648 0.2389 1.1300
H24 H 0.4165 0.2300 1.1619
H25 H 0.4345 0.2634 1.1091
C19 C 0.7519(9) 0.4865(6) 1.2151(2)
H26 H 0.8030 0.4577 1.2428
H27 H 0.7212 0.5667 1.2196
H28 H 0.8247 0.4813 1.1893
C20 C 0.6598(7) 0.2851(5) 1.20244(16)
C21 C 0.8085(9) 0.1435(5) 1.15962(19)
H29 H 0.8388 0.1311 1.1274
H30 H 0.7227 0.0895 1.1669
C22 C 0.9494(9) 0.1178(6) 1.1906(2)
H31 H 0.9824 0.0380 1.1862
H32 H 0.9198 0.1297 1.2225
H33 H 1.0360 0.1692 1.1827
C23 C 0.5060(8) 0.3940(5) 0.99388(17)
H34 H 0.6069 0.3885 1.0104
H35 H 0.4939 0.3247 0.9747
C24 C 0.6239(7) 0.4964(5) 0.93124(18)
H36 H 0.6267 0.4210 0.9157
H37 H 0.7272 0.5100 0.9456
C25 C 0.5875(7) 0.5928(5) 0.89623(15)
C26 C 0.4326(8) 0.6335(6) 0.89139(19)
H38 H 0.3529 0.6038 0.9106
C27 C 0.3939(8) 0.7177(6) 0.8584(2)
H39 H 0.2893 0.7444 0.8561
C28 C 0.5086(9) 0.7620(6) 0.82890(19)
H40 H 0.4812 0.8167 0.8063
C29 C 0.6655(8) 0.7244(5) 0.83320(17)
H41 H 0.7453 0.7552 0.8143
C30 C 0.7004(7) 0.6404(4) 0.86617(16)
N1 N 0.8701(6) 0.6027(4) 0.86772(14)
loop_
_geom_bond_atom_site_label_1
_geom_bond_atom_site_label_2
_geom_bond_site_symmetry_1
_geom_bond_site_symmetry_2
O1 C16 1_555 1_555
O2 C20 1_555 1_555
O3 C20 1_555 1_555
O4 C23 1_555 1_555
O5 N1 1_555 1_555
O6 N1 1_555 1_555
C1 H1 1_555 1_555
H2 C1 1_555 1_555
C2 C1 1_555 1_555
H3 C2 1_555 1_555
H4 C2 1_555 1_555
C3 C2 1_555 1_555
H5 C3 1_555 1_555
H6 C3 1_555 1_555
C4 C3 1_555 1_555
C5 C4 1_555 1_555
H7 C5 1_555 1_555
C6 C5 1_555 1_555
H8 C6 1_555 1_555
H9 C6 1_555 1_555
C7 C6 1_555 1_555
H10 C7 1_555 1_555
H11 C7 1_555 1_555
C8 C7 1_555 1_555
C9 C8 1_555 1_555
H12 C9 1_555 1_555
C10 C1 1_555 1_555
C11 C9 1_555 1_555
H13 C11 1_555 1_555
H14 C11 1_555 1_555
C12 C11 1_555 1_555
H15 C12 1_555 1_555
H16 C12 1_555 1_555
C13 C12 1_555 1_555
C14 C8 1_555 1_555
H17 C14 1_555 1_555
H18 C14 1_555 1_555
C15 C8 1_555 1_555
H19 C15 1_555 1_555
C16 C13 1_555 1_555
C17 C13 1_555 1_555
H20 C17 1_555 1_555
H21 C17 1_555 1_555
H22 C17 1_555 1_555
C18 C10 1_555 1_555
H23 C18 1_555 1_555
H24 C18 1_555 1_555
H25 C18 1_555 1_555
C19 C4 1_555 1_555
H26 C19 1_555 1_555
H27 C19 1_555 1_555
H28 C19 1_555 1_555
C20 C4 1_555 1_555
C21 O3 1_555 1_555
H29 C21 1_555 1_555
H30 C21 1_555 1_555
C22 C21 1_555 1_555
H31 C22 1_555 1_555
H32 C22 1_555 1_555
H33 C22 1_555 1_555
C23 C15 1_555 1_555
H34 C23 1_555 1_555
H35 C23 1_555 1_555
C24 O4 1_555 1_555
H36 C24 1_555 1_555
H37 C24 1_555 1_555
C25 C24 1_555 1_555
C26 C25 1_555 1_555
H38 C26 1_555 1_555
C27 C26 1_555 1_555
H39 C27 1_555 1_555
C28 C27 1_555 1_555
H40 C28 1_555 1_555
C29 C28 1_555 1_555
H41 C29 1_555 1_555
C30 C25 1_555 1_555
N1 C30 1_555 1_555
C5 C10 1_555 1_555
C9 C10 1_555 1_555
C13 C14 1_555 1_555
C15 C16 1_555 1_555
C29 C30 1_555 1_555

#END
