
#######################################################################
#
#                 Cambridge Crystallographic Data Centre
#                                CCDC 
#
#######################################################################
#
# If this CIF has been generated from an entry in the Cambridge 
# Structural Database, then it will include bibliographic, chemical, 
# crystal, experimental, refinement or atomic coordinate data resulting 
# from the CCDC's data processing and validation procedures.
#
#######################################################################

data_LEGYEE
_chemical_name_common            
"ammonium 2,3,5,6-tetranitro-4H,9H-dipyrazolo[1,5-a:5',1'-d][1,3,5]triazinate monohydrate"
_chemical_formula_moiety         'H4 N1 1+,H2 O1,C7 H2 N9 O8 1-'
_chemical_name_systematic        
"ammonium 2,3,5,6-tetranitro-9H-dipyrazolo[1,5-a:5',1'-d][1,3,5]triazin-4-ide monohydrate"
_symmetry_cell_setting           monoclinic
_symmetry_space_group_name_H-M   'P 21/n'
_symmetry_Int_Tables_number      14
_space_group_name_Hall           '-P 2yn'
loop_
_symmetry_equiv_pos_site_id
_symmetry_equiv_pos_as_xyz
1 x,y,z
2 1/2-x,1/2+y,1/2-z
3 -x,-y,-z
4 1/2+x,1/2-y,1/2+z
_cell_length_a                   8.4047(3)
_cell_length_b                   9.9890(4)
_cell_length_c                   16.5961(6)
_cell_angle_alpha                90
_cell_angle_beta                 102.712(2)
_cell_angle_gamma                90
_cell_volume                     1359.17
_exptl_crystal_colour            orange
_exptl_crystal_description       needle
_cell_formula_units_Z            4
loop_
_atom_site_label
_atom_site_type_symbol
_atom_site_fract_x
_atom_site_fract_y
_atom_site_fract_z
O1 O 0.39764(19) 1.01102(15) 0.36092(9)
O2 O 0.18691(17) 1.01304(14) 0.41725(10)
N1 N 0.3152(2) 0.96564(15) 0.40684(10)
C1 C 0.3799(2) 0.84836(17) 0.45574(11)
C2 C 0.3037(2) 0.75820(18) 0.50043(11)
N2 N 0.13648(19) 0.73723(17) 0.49887(10)
O3 O 0.03283(16) 0.78222(15) 0.44070(9)
O4 O 0.10215(19) 0.6695(2) 0.55402(11)
C3 C 0.4308(2) 0.67510(17) 0.54270(11)
N3 N 0.42954(18) 0.56924(15) 0.59286(9)
C4 C 0.5784(2) 0.51532(17) 0.62001(10)
C5 C 0.6304(2) 0.40687(17) 0.67430(11)
N4 N 0.53193(19) 0.33313(15) 0.71683(10)
O5 O 0.38209(16) 0.34386(14) 0.69315(10)
O6 O 0.59724(18) 0.26172(15) 0.77497(9)
C6 C 0.8011(2) 0.40060(17) 0.68134(11)
N5 N 0.91943(19) 0.30280(15) 0.72261(9)
O7 O 0.87266(18) 0.18727(13) 0.72613(9)
O8 O 1.05912(16) 0.34130(14) 0.74866(9)
N6 N 0.85512(18) 0.49135(15) 0.63687(9)
N7 N 0.71834(17) 0.56063(14) 0.60040(9)
C7 C 0.7312(2) 0.66833(17) 0.54290(11)
H1 H 0.8090 0.7377 0.5699
H2 H 0.7677 0.6334 0.4941
N8 N 0.56652(18) 0.72256(15) 0.51912(9)
N9 N 0.53807(19) 0.82865(15) 0.46680(10)
N10 N 0.21455(19) 0.59720(16) 0.71519(10)
H3 H 0.282(2) 0.574(2) 0.6816(11)
H4 H 0.1114(14) 0.572(2) 0.6912(14)
H5 H 0.248(3) 0.559(2) 0.7660(8)
H6 H 0.219(3) 0.6870(11) 0.7234(15)
O9 O 0.2905(2) 0.50731(18) 0.88323(10)
H7 H 0.344(3) 0.460(3) 0.8565(17)
H8 H 0.364(3) 0.551(3) 0.9129(17)
loop_
_geom_bond_atom_site_label_1
_geom_bond_atom_site_label_2
_geom_bond_site_symmetry_1
_geom_bond_site_symmetry_2
O1 N1 1_555 1_555
O2 N1 1_555 1_555
N1 C1 1_555 1_555
C1 C2 1_555 1_555
C2 N2 1_555 1_555
N2 O3 1_555 1_555
O4 N2 1_555 1_555
C3 C2 1_555 1_555
N3 C3 1_555 1_555
C4 N3 1_555 1_555
C5 C4 1_555 1_555
N4 C5 1_555 1_555
O5 N4 1_555 1_555
O6 N4 1_555 1_555
C6 C5 1_555 1_555
N5 C6 1_555 1_555
O7 N5 1_555 1_555
O8 N5 1_555 1_555
N6 C6 1_555 1_555
N7 C4 1_555 1_555
C7 N7 1_555 1_555
H1 C7 1_555 1_555
H2 C7 1_555 1_555
N8 C3 1_555 1_555
N9 C1 1_555 1_555
N10 H3 1_555 1_555
H4 N10 1_555 1_555
H5 N10 1_555 1_555
H6 N10 1_555 1_555
O9 H7 1_555 1_555
H8 O9 1_555 1_555
N6 N7 1_555 1_555
C7 N8 1_555 1_555
N8 N9 1_555 1_555

#END
