
#######################################################################
#
#                 Cambridge Crystallographic Data Centre
#                                CCDC 
#
#######################################################################
#
# If this CIF has been generated from an entry in the Cambridge 
# Structural Database, then it will include bibliographic, chemical, 
# crystal, experimental, refinement or atomic coordinate data resulting 
# from the CCDC's data processing and validation procedures.
#
#######################################################################

data_LEGYUT
_chemical_formula_moiety         'C18 H11 F1 N2 O4'
_chemical_name_systematic        
'Ethyl 9-fluoro-5,12-dioxo-5,12-dihydroindolizino[2,3-g]quinoline-6-carboxylate'
_symmetry_cell_setting           monoclinic
_symmetry_space_group_name_H-M   'P 21/c'
_symmetry_Int_Tables_number      14
_space_group_name_Hall           '-P 2ybc'
loop_
_symmetry_equiv_pos_site_id
_symmetry_equiv_pos_as_xyz
1 x,y,z
2 -x,1/2+y,1/2-z
3 -x,-y,-z
4 x,1/2-y,1/2+z
_cell_length_a                   6.85562(10)
_cell_length_b                   12.12898(16)
_cell_length_c                   17.0304(2)
_cell_angle_alpha                90
_cell_angle_beta                 94.2306(13)
_cell_angle_gamma                90
_cell_volume                     1412.25
_exptl_crystal_colour            orange
_exptl_crystal_description       needle
_cell_formula_units_Z            4
loop_
_atom_site_label
_atom_site_type_symbol
_atom_site_fract_x
_atom_site_fract_y
_atom_site_fract_z
F1 F 0.02823(18) 0.90196(9) 0.34624(7)
O1 O 0.28727(18) 0.79052(10) 0.60332(7)
O2 O 0.1029(2) 0.36760(11) 0.33751(7)
O3 O 0.3911(2) 0.34756(10) 0.58977(7)
N1 N 0.4460(2) 0.68373(12) 0.73454(9)
O4 O 0.2439(2) 0.28907(10) 0.44611(8)
C1 C 0.4124(2) 0.51043(14) 0.66509(10)
N2 N 0.1785(2) 0.66666(11) 0.45980(8)
C2 C 0.2564(2) 0.62440(14) 0.53105(10)
C3 C 0.2735(2) 0.51065(14) 0.52314(10)
C4 C 0.1782(2) 0.37539(14) 0.40402(10)
C5 C 0.3084(2) 0.68974(14) 0.60029(10)
C6 C 0.2028(2) 0.48181(14) 0.44537(10)
C7 C 0.3582(2) 0.44629(14) 0.59152(10)
C8 C 0.3912(2) 0.62469(14) 0.66995(10)
C9 C 0.1396(3) 0.77509(15) 0.44053(11)
C10 C 0.5239(3) 0.62799(15) 0.79713(11)
C11 C 0.0304(3) 0.71363(16) 0.30895(11)
C12 C 0.4925(2) 0.45453(15) 0.73164(10)
C13 C 0.2975(3) 0.09848(17) 0.46821(13)
C14 C 0.1448(2) 0.58082(14) 0.40663(10)
C15 C 0.5502(3) 0.51463(15) 0.79815(11)
C16 C 0.0689(2) 0.60677(15) 0.32938(11)
C17 C 0.2236(3) 0.18208(15) 0.40799(12)
C18 C 0.0667(3) 0.79580(15) 0.36591(11)
H1 H 0.568(3) 0.6713(18) 0.8436(12)
H2 H 0.302(3) 0.1835(16) 0.3619(12)
H3 H 0.607(3) 0.4777(17) 0.8449(12)
H4 H 0.043(3) 0.5454(19) 0.2945(13)
H5 H 0.513(3) 0.3732(18) 0.7311(12)
H6 H 0.167(3) 0.8305(18) 0.4819(13)
H7 H -0.018(3) 0.7362(18) 0.2575(13)
H8 H 0.079(3) 0.1699(18) 0.3898(12)
H9 H 0.439(4) 0.117(2) 0.4875(15)
H10 H 0.217(4) 0.099(2) 0.5139(15)
H11 H 0.291(3) 0.022(2) 0.4457(13)
loop_
_geom_bond_atom_site_label_1
_geom_bond_atom_site_label_2
_geom_bond_site_symmetry_1
_geom_bond_site_symmetry_2
F1 C18 1_555 1_555
O1 C5 1_555 1_555
O2 C4 1_555 1_555
O3 C7 1_555 1_555
N1 C8 1_555 1_555
O4 C4 1_555 1_555
C1 C7 1_555 1_555
N2 C2 1_555 1_555
C2 C3 1_555 1_555
C3 C6 1_555 1_555
C4 C6 1_555 1_555
C5 C2 1_555 1_555
C6 C14 1_555 1_555
C7 C3 1_555 1_555
C8 C1 1_555 1_555
C9 N2 1_555 1_555
C10 N1 1_555 1_555
C11 C16 1_555 1_555
C12 C1 1_555 1_555
C13 C17 1_555 1_555
C14 N2 1_555 1_555
C15 C10 1_555 1_555
C16 C14 1_555 1_555
C17 O4 1_555 1_555
C18 C9 1_555 1_555
H1 C10 1_555 1_555
H2 C17 1_555 1_555
H3 C15 1_555 1_555
H4 C16 1_555 1_555
H5 C12 1_555 1_555
H6 C9 1_555 1_555
H7 C11 1_555 1_555
H8 C17 1_555 1_555
H9 C13 1_555 1_555
H10 C13 1_555 1_555
H11 C13 1_555 1_555
C5 C8 1_555 1_555
C11 C18 1_555 1_555
C12 C15 1_555 1_555

#END
