
#######################################################################
#
#                 Cambridge Crystallographic Data Centre
#                                CCDC 
#
#######################################################################
#
# If this CIF has been generated from an entry in the Cambridge 
# Structural Database, then it will include bibliographic, chemical, 
# crystal, experimental, refinement or atomic coordinate data resulting 
# from the CCDC's data processing and validation procedures.
#
#######################################################################

data_LEGYOO
_chemical_formula_moiety         'C7 H3 N11 O10'
_chemical_name_systematic        
N-(2,3,5,6-tetranitro-4H,9H-dipyrazolo[1,5-a:5',1'-d][1,3,5]triazin-4-yl)nitramide
_symmetry_cell_setting           orthorhombic
_symmetry_space_group_name_H-M   'P n m a'
_symmetry_Int_Tables_number      62
_space_group_name_Hall           '-P 2ac 2n'
loop_
_symmetry_equiv_pos_site_id
_symmetry_equiv_pos_as_xyz
1 x,y,z
2 1/2-x,-y,1/2+z
3 -x,1/2+y,-z
4 1/2+x,1/2-y,1/2-z
5 -x,-y,-z
6 1/2+x,y,1/2-z
7 x,1/2-y,z
8 1/2-x,1/2+y,1/2+z
_cell_length_a                   16.154(2)
_cell_length_b                   13.9103(18)
_cell_length_c                   5.9597(7)
_cell_angle_alpha                90
_cell_angle_beta                 90
_cell_angle_gamma                90
_cell_volume                     1339.19
_exptl_crystal_colour            colorless
_exptl_crystal_description       plate
_cell_formula_units_Z            4
loop_
_atom_site_label
_atom_site_type_symbol
_atom_site_fract_x
_atom_site_fract_y
_atom_site_fract_z
O1 O 0.22981(9) 0.2500 0.0363(3)
O2 O 0.11323(10) 0.2500 0.2214(3)
N1 N 0.18817(10) 0.2500 0.2060(3)
N2 N 0.23070(10) 0.2500 0.4165(3)
H1 H 0.2046 0.2500 0.5462
N3 N 0.31664(9) 0.2500 0.3999(3)
C1 C 0.35389(8) 0.33439(9) 0.3217(2)
C2 C 0.35384(7) 0.42810(9) 0.4004(2)
N4 N 0.31808(7) 0.46318(9) 0.6026(2)
O3 O 0.32520(7) 0.54904(8) 0.64243(19)
O4 O 0.28401(8) 0.40496(8) 0.7272(2)
C3 C 0.40620(8) 0.47672(10) 0.2509(2)
N5 N 0.43060(7) 0.57792(9) 0.2549(2)
O5 O 0.39605(7) 0.63105(9) 0.1251(2)
O6 O 0.48540(8) 0.60091(9) 0.3840(2)
N6 N 0.43744(8) 0.42080(9) 0.0946(2)
N7 N 0.40421(7) 0.33311(8) 0.1423(2)
C4 C 0.42158(13) 0.2500 0.0012(3)
H2 H 0.3856 0.2500 -0.1333
H3 H 0.4801 0.2500 -0.0478
C1F C 0.35389(8) 0.16561(9) 0.3217(2)
C2F C 0.35384(7) 0.07190(9) 0.4004(2)
N4F N 0.31808(7) 0.03682(9) 0.6026(2)
O3F O 0.32520(7) -0.04904(8) 0.64243(19)
O4F O 0.28401(8) 0.09504(8) 0.7272(2)
C3F C 0.40620(8) 0.02328(10) 0.2509(2)
N5F N 0.43060(7) -0.07792(9) 0.2549(2)
O5F O 0.39605(7) -0.13105(9) 0.1251(2)
O6F O 0.48540(8) -0.10091(9) 0.3840(2)
N6F N 0.43744(8) 0.07920(9) 0.0946(2)
N7F N 0.40421(7) 0.16689(8) 0.1423(2)
loop_
_geom_bond_atom_site_label_1
_geom_bond_atom_site_label_2
_geom_bond_site_symmetry_1
_geom_bond_site_symmetry_2
O1 N1 1_555 1_555
O2 N1 1_555 1_555
N1 N2 1_555 1_555
N2 H1 1_555 1_555
N3 N2 1_555 1_555
C1 N3 1_555 1_555
C2 C1 1_555 1_555
N4 C2 1_555 1_555
O3 N4 1_555 1_555
O4 N4 1_555 1_555
C3 C2 1_555 1_555
N5 C3 1_555 1_555
O5 N5 1_555 1_555
O6 N5 1_555 1_555
N6 C3 1_555 1_555
N7 C1 1_555 1_555
C4 N7 1_555 1_555
H2 C4 1_555 1_555
H3 C4 1_555 1_555
C1F N3 1_555 1_555
C2F C1F 1_555 1_555
N4F C2F 1_555 1_555
O3F N4F 1_555 1_555
O4F N4F 1_555 1_555
C3F C2F 1_555 1_555
N5F C3F 1_555 1_555
O5F N5F 1_555 1_555
O6F N5F 1_555 1_555
N6F C3F 1_555 1_555
N7F C4 1_555 1_555
N6 N7 1_555 1_555
C1F N7F 1_555 1_555
N6F N7F 1_555 1_555

#END
