
#######################################################################
#
#                 Cambridge Crystallographic Data Centre
#                                CCDC 
#
#######################################################################
#
# If this CIF has been generated from an entry in the Cambridge 
# Structural Database, then it will include bibliographic, chemical, 
# crystal, experimental, refinement or atomic coordinate data resulting 
# from the CCDC's data processing and validation procedures.
#
#######################################################################

data_LEGYII
_chemical_formula_moiety         'C7 H3 N9 O8'
_chemical_name_systematic        
2,3,5,6-tetranitro-4H,9H-dipyrazolo[1,5-a:5',1'-d][1,3,5]triazine
_symmetry_cell_setting           orthorhombic
_symmetry_space_group_name_H-M   'P n a 21'
_symmetry_Int_Tables_number      33
_space_group_name_Hall           'P 2c -2n'
loop_
_symmetry_equiv_pos_site_id
_symmetry_equiv_pos_as_xyz
1 x,y,z
2 -x,-y,1/2+z
3 1/2+x,1/2-y,z
4 1/2-x,1/2+y,1/2+z
_cell_length_a                   10.477(2)
_cell_length_b                   13.150(3)
_cell_length_c                   8.4919(19)
_cell_angle_alpha                90
_cell_angle_beta                 90
_cell_angle_gamma                90
_cell_volume                     1169.95
_exptl_crystal_colour            colorless
_exptl_crystal_description       plate
_cell_formula_units_Z            4
loop_
_atom_site_label
_atom_site_type_symbol
_atom_site_fract_x
_atom_site_fract_y
_atom_site_fract_z
O1 O 0.7665(3) 0.8414(2) 0.6467(4)
O2 O 0.6128(3) 0.8600(2) 0.4788(4)
N1 N 0.6858(3) 0.8079(2) 0.5572(3)
C1 C 0.6793(3) 0.6980(2) 0.5391(4)
C2 C 0.5934(3) 0.6342(3) 0.4551(4)
N2 N 0.4763(3) 0.6512(2) 0.3726(4)
O3 O 0.4294(3) 0.7353(2) 0.3644(4)
O4 O 0.4267(3) 0.5737(2) 0.3136(3)
C3 C 0.6422(3) 0.5372(2) 0.4781(4)
N3 N 0.6054(3) 0.4441(2) 0.4267(3)
H1 H 0.5437 0.4374 0.3572
C4 C 0.6667(3) 0.3618(3) 0.4858(4)
C5 C 0.6414(3) 0.2584(2) 0.4769(4)
N4 N 0.5434(3) 0.2131(2) 0.3872(4)
O5 O 0.4704(2) 0.2718(2) 0.3168(3)
O6 O 0.5359(2) 0.11992(17) 0.3827(3)
C6 C 0.7387(3) 0.2139(3) 0.5685(4)
N5 N 0.7530(3) 0.1080(2) 0.6166(4)
O7 O 0.6629(3) 0.0690(2) 0.6854(4)
O8 O 0.8567(3) 0.0688(2) 0.5938(4)
N6 N 0.8183(3) 0.2808(2) 0.6282(4)
N7 N 0.7729(3) 0.3718(2) 0.5745(3)
C7 C 0.8315(3) 0.4670(3) 0.6264(4)
H2 H 0.8384 0.4690 0.7426
H3 H 0.9179 0.4747 0.5806
N8 N 0.7468(2) 0.5474(2) 0.5699(3)
N9 N 0.7709(3) 0.6458(2) 0.6093(3)
loop_
_geom_bond_atom_site_label_1
_geom_bond_atom_site_label_2
_geom_bond_site_symmetry_1
_geom_bond_site_symmetry_2
O1 N1 1_555 1_555
O2 N1 1_555 1_555
N1 C1 1_555 1_555
C1 C2 1_555 1_555
C2 N2 1_555 1_555
N2 O3 1_555 1_555
O4 N2 1_555 1_555
C3 C2 1_555 1_555
N3 C3 1_555 1_555
H1 N3 1_555 1_555
C4 N3 1_555 1_555
C5 C4 1_555 1_555
N4 C5 1_555 1_555
O5 N4 1_555 1_555
O6 N4 1_555 1_555
C6 C5 1_555 1_555
N5 C6 1_555 1_555
O7 N5 1_555 1_555
O8 N5 1_555 1_555
N6 C6 1_555 1_555
N7 C4 1_555 1_555
C7 N7 1_555 1_555
H2 C7 1_555 1_555
H3 C7 1_555 1_555
N8 C3 1_555 1_555
N9 C1 1_555 1_555
N6 N7 1_555 1_555
C7 N8 1_555 1_555
N8 N9 1_555 1_555

#END
