
#######################################################################
#
#                 Cambridge Crystallographic Data Centre
#                                CCDC 
#
#######################################################################
#
# If this CIF has been generated from an entry in the Cambridge 
# Structural Database, then it will include bibliographic, chemical, 
# crystal, experimental, refinement or atomic coordinate data resulting 
# from the CCDC's data processing and validation procedures.
#
#######################################################################

data_LEGZII
_chemical_formula_moiety         'C3 H4 N4 O2,H2 O1'
_chemical_name_systematic        '2-(1H-Tetrazol-1-yl)acetic acid monohydrate'
_symmetry_cell_setting           orthorhombic
_symmetry_space_group_name_H-M   'P n a 21'
_symmetry_Int_Tables_number      33
_space_group_name_Hall           'P 2c -2n'
loop_
_symmetry_equiv_pos_site_id
_symmetry_equiv_pos_as_xyz
1 x,y,z
2 -x,-y,1/2+z
3 1/2+x,1/2-y,z
4 1/2-x,1/2+y,1/2+z
_cell_length_a                   12.618(3)
_cell_length_b                   5.1871(10)
_cell_length_c                   9.874(2)
_cell_angle_alpha                90
_cell_angle_beta                 90
_cell_angle_gamma                90
_cell_volume                     646.261
_exptl_crystal_colour            'pale yellow'
_exptl_crystal_description       needle
_cell_formula_units_Z            4
loop_
_atom_site_label
_atom_site_type_symbol
_atom_site_fract_x
_atom_site_fract_y
_atom_site_fract_z
O1 O 0.38513(14) 0.5364(3) 1.01953(17)
O2 O 0.30421(14) 0.8326(3) 0.89450(17)
N1 N 0.37640(16) 0.8301(4) 0.4743(2)
C1 C 0.36860(19) 0.6540(4) 0.5678(2)
H1 H 0.3281 0.5047 0.5614
N2 N 0.47431(18) 0.9471(4) 0.6448(2)
C2 C 0.37025(18) 0.6679(4) 0.9087(2)
N3 N 0.44272(18) 1.0105(4) 0.5252(2)
N4 N 0.42748(14) 0.7205(3) 0.67377(18)
C3 C 0.44751(19) 0.5888(4) 0.8003(2)
H2 H 0.5190 0.6270 0.8302
H3 H 0.4424 0.4042 0.7860
H4 H 0.344(3) 0.595(6) 1.086(4)
O3 O 0.27445(17) 0.7053(4) 0.22354(17)
H5 H 0.246(2) 0.600(6) 0.263(4)
H6 H 0.310(3) 0.789(6) 0.279(4)
loop_
_geom_bond_atom_site_label_1
_geom_bond_atom_site_label_2
_geom_bond_site_symmetry_1
_geom_bond_site_symmetry_2
O1 C2 1_555 1_555
O2 C2 1_555 1_555
N1 C1 1_555 1_555
C1 H1 1_555 1_555
N2 N3 1_555 1_555
C2 C3 1_555 1_555
N3 N1 1_555 1_555
N4 C1 1_555 1_555
C3 N4 1_555 1_555
H2 C3 1_555 1_555
H3 C3 1_555 1_555
O3 H5 1_555 1_555
H4 O1 1_555 1_555
H6 O3 1_555 1_555
N2 N4 1_555 1_555

#END
