
#######################################################################
#
#                 Cambridge Crystallographic Data Centre
#                                CCDC 
#
#######################################################################
#
# If this CIF has been generated from an entry in the Cambridge 
# Structural Database, then it will include bibliographic, chemical, 
# crystal, experimental, refinement or atomic coordinate data resulting 
# from the CCDC's data processing and validation procedures.
#
#######################################################################

data_LEHDEK
_chemical_formula_moiety         'C17 H26 B10'
_chemical_name_systematic        
1,2-bis(phenyl)-4-isopropyl-1,2-dicarba-closo-dodecaborane(9)
_symmetry_cell_setting           orthorhombic
_symmetry_space_group_name_H-M   'P n a 21'
_symmetry_Int_Tables_number      33
_space_group_name_Hall           'P 2c -2n'
loop_
_symmetry_equiv_pos_site_id
_symmetry_equiv_pos_as_xyz
1 x,y,z
2 -x,-y,1/2+z
3 1/2+x,1/2-y,z
4 1/2-x,1/2+y,1/2+z
_cell_length_a                   19.3310(18)
_cell_length_b                   9.4234(9)
_cell_length_c                   22.751(2)
_cell_angle_alpha                90
_cell_angle_beta                 90
_cell_angle_gamma                90
_cell_volume                     4144.41
_exptl_crystal_colour            colorless
_exptl_crystal_description       block
_cell_formula_units_Z            8
loop_
_atom_site_label
_atom_site_type_symbol
_atom_site_fract_x
_atom_site_fract_y
_atom_site_fract_z
C1 C 0.9649(2) 1.0134(4) 0.03207(17)
C2 C 0.9569(2) 0.8329(4) 0.04554(16)
C3 C 1.0324(2) 1.0697(4) 0.01139(19)
C4 C 1.0392(3) 1.1225(4) -0.0448(2)
H1 H 1.0016 1.1220 -0.0702
C5 C 1.1028(3) 1.1767(5) -0.0636(3)
H2 H 1.1075 1.2097 -0.1019
C6 C 1.1569(3) 1.1817(6) -0.0271(3)
H3 H 1.1985 1.2212 -0.0396
C7 C 1.1511(3) 1.1297(6) 0.0275(3)
H4 H 1.1894 1.1318 0.0523
C8 C 1.0911(2) 1.0745(5) 0.0476(2)
H5 H 1.0887 1.0392 0.0857
C9 C 1.0166(2) 0.7360(4) 0.03760(17)
C10 C 1.0250(2) 0.6591(5) -0.01330(19)
H6 H 0.9938 0.6702 -0.0441
C11 C 1.0800(3) 0.5651(5) -0.0190(2)
H7 H 1.0857 0.5150 -0.0539
C12 C 1.1254(2) 0.5455(5) 0.0259(3)
H8 H 1.1622 0.4824 0.0221
C13 C 1.1163(2) 0.6195(6) 0.0764(2)
H9 H 1.1466 0.6051 0.1075
C14 C 1.0641(2) 0.7135(5) 0.08253(18)
H10 H 1.0599 0.7641 0.1174
C15 C 0.9360(3) 1.2584(5) 0.1024(2)
H11 H 0.9864 1.2530 0.1067
C16 C 0.9212(6) 1.3776(8) 0.0616(3)
H12 H 0.9379 1.4646 0.0783
H13 H 0.8722 1.3845 0.0554
H14 H 0.9439 1.3609 0.0247
C17 C 0.9071(4) 1.2960(7) 0.1615(3)
H15 H 0.9249 1.3865 0.1736
H16 H 0.9203 1.2249 0.1896
H17 H 0.8576 1.3005 0.1592
B1 B 0.9562(3) 0.9537(6) 0.1026(2)
H18 H 0.9984 0.9610 0.1348
B2 B 0.9108(3) 1.1087(6) 0.0787(2)
B3 B 0.8880(3) 1.0745(6) 0.0046(2)
H19 H 0.8847 1.1623 -0.0272
B4 B 0.9192(3) 0.9042(5) -0.0164(2)
H20 H 0.9374 0.8805 -0.0611
B5 B 0.8981(2) 0.8065(6) 0.1008(2)
H21 H 0.9014 0.7188 0.1326
B6 B 0.8692(3) 0.9766(6) 0.1210(3)
H22 H 0.8535 1.0002 0.1665
B7 B 0.8257(3) 1.0500(6) 0.0598(3)
H23 H 0.7807 1.1205 0.0644
B8 B 0.8314(3) 0.9275(7) 0.0015(3)
H24 H 0.7906 0.9195 -0.0320
B9 B 0.8752(2) 0.7774(6) 0.0265(2)
H25 H 0.8634 0.6710 0.0092
B10 B 0.8198(3) 0.8668(7) 0.0741(3)
H26 H 0.7710 0.8183 0.0888
C18 C 0.1795(2) 0.4943(4) 0.31796(16)
C19 C 0.1657(2) 0.6713(4) 0.30006(16)
C20 C 0.2505(2) 0.4478(4) 0.33509(17)
C21 C 0.2618(3) 0.3942(5) 0.39095(19)
H27 H 0.2255 0.3913 0.4178
C22 C 0.3266(3) 0.3448(5) 0.4074(2)
H28 H 0.3336 0.3088 0.4450
C23 C 0.3795(3) 0.3490(6) 0.3685(3)
H29 H 0.4227 0.3142 0.3794
C24 C 0.3703(3) 0.4034(6) 0.3141(3)
H30 H 0.4075 0.4076 0.2882
C25 C 0.3060(3) 0.4528(6) 0.2966(2)
H31 H 0.3001 0.4894 0.2590
C26 C 0.2257(2) 0.7764(4) 0.30104(18)
C27 C 0.2367(2) 0.8609(5) 0.34924(19)
H32 H 0.2102 0.8477 0.3829
C28 C 0.2857(3) 0.9631(6) 0.3484(2)
H33 H 0.2910 1.0219 0.3809
C29 C 0.3279(3) 0.9818(6) 0.3005(3)
H34 H 0.3635 1.0481 0.3011
C30 C 0.3160(3) 0.8995(6) 0.2512(3)
H35 H 0.3430 0.9120 0.2178
C31 C 0.2641(2) 0.7986(5) 0.2517(2)
H36 H 0.2553 0.7455 0.2181
C32 C 0.1499(3) 0.2338(5) 0.2566(2)
H37 H 0.1889 0.2097 0.2823
C33 C 0.0977(4) 0.1229(6) 0.2665(4)
H38 H 0.0818 0.1276 0.3064
H39 H 0.1178 0.0315 0.2593
H40 H 0.0594 0.1374 0.2403
C34 C 0.1779(4) 0.2259(6) 0.1945(3)
H41 H 0.1911 0.1300 0.1859
H42 H 0.2175 0.2868 0.1910
H43 H 0.1428 0.2560 0.1674
B11 B 0.1636(3) 0.5433(5) 0.2462(2)
H44 H 0.2029 0.5357 0.2114
B12 B 0.1261(3) 0.3852(6) 0.2758(2)
B13 B 0.1090(3) 0.4295(6) 0.3516(2)
H45 H 0.1115 0.3466 0.3856
B14 B 0.1366(3) 0.6029(6) 0.3655(2)
H46 H 0.1582 0.6337 0.4084
B15 B 0.1048(3) 0.6835(6) 0.2486(2)
H47 H 0.1046 0.7665 0.2146
B16 B 0.0759(3) 0.5088(6) 0.2337(3)
H48 H 0.0561 0.4783 0.1901
B17 B 0.0403(3) 0.4394(7) 0.2997(3)
H49 H -0.0029 0.3635 0.2997
B18 B 0.0481(3) 0.5694(6) 0.3552(3)
H50 H 0.0105 0.5776 0.3913
B19 B 0.0869(3) 0.7223(6) 0.3236(2)
H51 H 0.0749 0.8301 0.3391
B20 B 0.0263(3) 0.6196(7) 0.2820(3)
H52 H -0.0252 0.6603 0.2702
loop_
_geom_bond_atom_site_label_1
_geom_bond_atom_site_label_2
_geom_bond_site_symmetry_1
_geom_bond_site_symmetry_2
C1 C2 1_555 1_555
C2 C9 1_555 1_555
C3 C1 1_555 1_555
C4 C3 1_555 1_555
H1 C4 1_555 1_555
C5 C4 1_555 1_555
H2 C5 1_555 1_555
C6 C5 1_555 1_555
H3 C6 1_555 1_555
C7 C6 1_555 1_555
H4 C7 1_555 1_555
C8 C3 1_555 1_555
H5 C8 1_555 1_555
C9 C10 1_555 1_555
C10 H6 1_555 1_555
C11 C10 1_555 1_555
H7 C11 1_555 1_555
C12 C11 1_555 1_555
H8 C12 1_555 1_555
C13 C12 1_555 1_555
H9 C13 1_555 1_555
C14 C9 1_555 1_555
H10 C14 1_555 1_555
C15 H11 1_555 1_555
C16 C15 1_555 1_555
H12 C16 1_555 1_555
H13 C16 1_555 1_555
H14 C16 1_555 1_555
C17 C15 1_555 1_555
H15 C17 1_555 1_555
H16 C17 1_555 1_555
H17 C17 1_555 1_555
B1 C1 1_555 1_555
H18 B1 1_555 1_555
B2 C1 1_555 1_555
B3 C1 1_555 1_555
H19 B3 1_555 1_555
B4 C1 1_555 1_555
H20 B4 1_555 1_555
B5 C2 1_555 1_555
H21 B5 1_555 1_555
B6 B1 1_555 1_555
H22 B6 1_555 1_555
B7 B2 1_555 1_555
H23 B7 1_555 1_555
B8 B3 1_555 1_555
H24 B8 1_555 1_555
B9 C2 1_555 1_555
H25 B9 1_555 1_555
B10 B5 1_555 1_555
H26 B10 1_555 1_555
C18 C19 1_555 1_555
C19 C26 1_555 1_555
C20 C18 1_555 1_555
C21 C20 1_555 1_555
H27 C21 1_555 1_555
C22 C21 1_555 1_555
H28 C22 1_555 1_555
C23 C22 1_555 1_555
H29 C23 1_555 1_555
C24 C23 1_555 1_555
H30 C24 1_555 1_555
C25 C20 1_555 1_555
H31 C25 1_555 1_555
C26 C27 1_555 1_555
C27 H32 1_555 1_555
C28 C27 1_555 1_555
H33 C28 1_555 1_555
C29 C28 1_555 1_555
H34 C29 1_555 1_555
C30 C29 1_555 1_555
H35 C30 1_555 1_555
C31 C26 1_555 1_555
H36 C31 1_555 1_555
C32 H37 1_555 1_555
C33 C32 1_555 1_555
H38 C33 1_555 1_555
H39 C33 1_555 1_555
H40 C33 1_555 1_555
C34 C32 1_555 1_555
H41 C34 1_555 1_555
H42 C34 1_555 1_555
H43 C34 1_555 1_555
B11 C18 1_555 1_555
H44 B11 1_555 1_555
B12 C18 1_555 1_555
B13 C18 1_555 1_555
H45 B13 1_555 1_555
B14 C18 1_555 1_555
H46 B14 1_555 1_555
B15 C19 1_555 1_555
H47 B15 1_555 1_555
B16 B11 1_555 1_555
H48 B16 1_555 1_555
B17 B12 1_555 1_555
H49 B17 1_555 1_555
B18 B13 1_555 1_555
H50 B18 1_555 1_555
B19 C19 1_555 1_555
H51 B19 1_555 1_555
B20 B15 1_555 1_555
H52 B20 1_555 1_555
C2 B1 1_555 1_555
C2 B4 1_555 1_555
C7 C8 1_555 1_555
C13 C14 1_555 1_555
C15 B2 1_555 1_555
B1 B2 1_555 1_555
B1 B5 1_555 1_555
B2 B3 1_555 1_555
B2 B6 1_555 1_555
B3 B4 1_555 1_555
B3 B7 1_555 1_555
B4 B8 1_555 1_555
B4 B9 1_555 1_555
B5 B6 1_555 1_555
B5 B9 1_555 1_555
B6 B7 1_555 1_555
B6 B10 1_555 1_555
B7 B8 1_555 1_555
B7 B10 1_555 1_555
B8 B9 1_555 1_555
B8 B10 1_555 1_555
B9 B10 1_555 1_555
C19 B11 1_555 1_555
C19 B14 1_555 1_555
C24 C25 1_555 1_555
C30 C31 1_555 1_555
C32 B12 1_555 1_555
B11 B12 1_555 1_555
B11 B15 1_555 1_555
B12 B13 1_555 1_555
B12 B16 1_555 1_555
B13 B14 1_555 1_555
B13 B17 1_555 1_555
B14 B18 1_555 1_555
B14 B19 1_555 1_555
B15 B16 1_555 1_555
B15 B19 1_555 1_555
B16 B17 1_555 1_555
B16 B20 1_555 1_555
B17 B18 1_555 1_555
B17 B20 1_555 1_555
B18 B19 1_555 1_555
B18 B20 1_555 1_555
B19 B20 1_555 1_555

#END
