
#######################################################################
#
#                 Cambridge Crystallographic Data Centre
#                                CCDC 
#
#######################################################################
#
# If this CIF has been generated from an entry in the Cambridge 
# Structural Database, then it will include bibliographic, chemical, 
# crystal, experimental, refinement or atomic coordinate data resulting 
# from the CCDC's data processing and validation procedures.
#
#######################################################################

data_LEHHIS
_chemical_formula_moiety         'C15 H24 O3'
_chemical_name_systematic        
6-(methoxymethoxy)-5,5-dimethyloctahydrocyclopenta[1,4]cyclobuta[1,2]benzen-3(3aH)-one
_symmetry_cell_setting           monoclinic
_symmetry_space_group_name_H-M   'P 21/c'
_symmetry_Int_Tables_number      14
_space_group_name_Hall           '-P 2ybc'
loop_
_symmetry_equiv_pos_site_id
_symmetry_equiv_pos_as_xyz
1 x,y,z
2 -x,1/2+y,1/2-z
3 -x,-y,-z
4 x,1/2-y,1/2+z
_cell_length_a                   13.7016(10)
_cell_length_b                   7.0622(6)
_cell_length_c                   14.5752(14)
_cell_angle_alpha                90
_cell_angle_beta                 101.728(9)
_cell_angle_gamma                90
_cell_volume                     1380.9
_exptl_crystal_colour            colorless
_exptl_crystal_description       block
_cell_formula_units_Z            4
loop_
_atom_site_label
_atom_site_type_symbol
_atom_site_fract_x
_atom_site_fract_y
_atom_site_fract_z
O1 O 0.40000(7) 0.58841(16) 0.38346(8)
O2 O 0.01554(10) 0.76267(18) 0.55963(9)
O3 O 0.55153(8) 0.6126(2) 0.33414(8)
C1 C 0.20445(11) 0.8122(2) 0.38643(11)
H1 H 0.1589 0.9207 0.3770
C2 C 0.13980(11) 0.6277(2) 0.37358(11)
C3 C 0.33025(11) 0.6583(2) 0.30196(11)
H2 H 0.3669 0.6838 0.2521
C4 C 0.28317(11) 0.8446(2) 0.32655(11)
C5 C 0.14022(11) 0.6366(2) 0.47997(11)
H3 H 0.1528 0.5152 0.5127
C6 C 0.04269(12) 0.7288(2) 0.48686(12)
C7 C 0.23146(12) 0.9352(2) 0.23348(12)
H4 H 0.1771 0.8563 0.2037
H5 H 0.2785 0.9481 0.1932
H6 H 0.2065 1.0578 0.2454
C8 C 0.25292(12) 0.5058(2) 0.26811(12)
H7 H 0.2859 0.3927 0.2520
H8 H 0.2074 0.5495 0.2122
C9 C 0.19430(11) 0.4581(2) 0.34367(12)
H9 H 0.1461 0.3600 0.3203
H10 H 0.2398 0.4080 0.3980
C10 C -0.01716(12) 0.7691(2) 0.38955(12)
H11 H -0.0147 0.9028 0.3751
H12 H -0.0862 0.7324 0.3848
C11 C 0.23180(12) 0.7708(3) 0.49305(12)
H13 H 0.2268 0.8802 0.5321
H14 H 0.2953 0.7070 0.5129
C12 C 0.03100(11) 0.6514(2) 0.32247(11)
H15 H 0.0271 0.7169 0.2633
H16 H -0.0015 0.5293 0.3105
C13 C 0.36295(12) 0.9814(2) 0.37647(13)
H17 H 0.3323 1.0993 0.3874
H18 H 0.4111 1.0031 0.3381
H19 H 0.3955 0.9277 0.4353
C14 C 0.48148(13) 0.4912(3) 0.36090(15)
C15 C 0.60427(13) 0.7222(3) 0.40974(14)
H20 H 0.6581 0.7875 0.3903
H21 H 0.6305 0.6404 0.4615
H22 H 0.5599 0.8127 0.4286
H23 H 0.5121(12) 0.421(2) 0.4211(13)
H24 H 0.4591(13) 0.403(3) 0.3068(14)
loop_
_geom_bond_atom_site_label_1
_geom_bond_atom_site_label_2
_geom_bond_site_symmetry_1
_geom_bond_site_symmetry_2
O1 C3 1_555 1_555
O2 C6 1_555 1_555
O3 C14 1_555 1_555
C1 H1 1_555 1_555
C2 C1 1_555 1_555
C3 H2 1_555 1_555
C4 C1 1_555 1_555
C5 C2 1_555 1_555
H3 C5 1_555 1_555
C6 C5 1_555 1_555
C7 C4 1_555 1_555
H4 C7 1_555 1_555
H5 C7 1_555 1_555
H6 C7 1_555 1_555
C8 C3 1_555 1_555
H7 C8 1_555 1_555
H8 C8 1_555 1_555
C9 C2 1_555 1_555
H9 C9 1_555 1_555
H10 C9 1_555 1_555
C10 C6 1_555 1_555
H11 C10 1_555 1_555
H12 C10 1_555 1_555
C11 C1 1_555 1_555
H13 C11 1_555 1_555
H14 C11 1_555 1_555
C12 C2 1_555 1_555
H15 C12 1_555 1_555
H16 C12 1_555 1_555
C13 C4 1_555 1_555
H17 C13 1_555 1_555
H18 C13 1_555 1_555
H19 C13 1_555 1_555
C14 O1 1_555 1_555
C15 O3 1_555 1_555
H20 C15 1_555 1_555
H21 C15 1_555 1_555
H22 C15 1_555 1_555
H23 C14 1_555 1_555
H24 C14 1_555 1_555
C3 C4 1_555 1_555
C5 C11 1_555 1_555
C8 C9 1_555 1_555
C10 C12 1_555 1_555

#END
