
#######################################################################
#
#                 Cambridge Crystallographic Data Centre
#                                CCDC 
#
#######################################################################
#
# If this CIF has been generated from an entry in the Cambridge 
# Structural Database, then it will include bibliographic, chemical, 
# crystal, experimental, refinement or atomic coordinate data resulting 
# from the CCDC's data processing and validation procedures.
#
#######################################################################

data_LEHPEU
_chemical_formula_moiety         'C9 H10 N2 S2'
_chemical_name_systematic        'Methyl \b-N-phenylmethylenedithiocarbazate'
_symmetry_cell_setting           triclinic
_symmetry_space_group_name_H-M   'P -1'
_symmetry_Int_Tables_number      2
_space_group_name_Hall           '-P 1'
loop_
_symmetry_equiv_pos_site_id
_symmetry_equiv_pos_as_xyz
1 x,y,z
2 -x,-y,-z
_cell_length_a                   5.909(2)
_cell_length_b                   9.411(4)
_cell_length_c                   10.2423(18)
_cell_angle_alpha                69.929(11)
_cell_angle_beta                 80.34(2)
_cell_angle_gamma                78.829(15)
_cell_volume                     521.661
_exptl_crystal_colour            colorless
_exptl_crystal_description       prism
_cell_formula_units_Z            2
_exptl_crystal_recrystallization_method ethanol
loop_
_atom_site_label
_atom_site_type_symbol
_atom_site_fract_x
_atom_site_fract_y
_atom_site_fract_z
S1 S 0.73857(9) 0.00447(5) 0.64444(5)
S2 S 0.88497(8) 0.31891(5) 0.51795(5)
N1 N 0.5623(2) 0.36816(15) 0.33482(14)
N2 N 0.5797(3) 0.22227(16) 0.42864(15)
H1 H 0.4965 0.1590 0.4240
C1 C 0.3636(3) 0.55485(18) 0.15179(16)
C2 C 0.5127(3) 0.6610(2) 0.1241(2)
H2 H 0.6380 0.6388 0.1755
C3 C 0.4753(4) 0.7995(2) 0.0204(3)
H3 H 0.5778 0.8695 0.0009
C4 C 0.2905(4) 0.8351(2) -0.0539(2)
H4 H 0.2659 0.9296 -0.1229
C5 C 0.1409(4) 0.7322(3) -0.0273(2)
H5 H 0.0145 0.7565 -0.0782
C6 C 0.1775(3) 0.5919(2) 0.0754(2)
H6 H 0.0756 0.5219 0.0930
C7 C 0.4007(3) 0.40418(18) 0.25759(17)
H7 H 0.3034 0.3334 0.2683
C8 C 0.7242(3) 0.17826(18) 0.52654(17)
C9 C 1.0641(4) 0.2215(2) 0.6564(2)
H8 H 0.9678 0.1922 0.7439
H9 H 1.1654 0.2882 0.6598
H10 H 1.1550 0.1318 0.6398
loop_
_geom_bond_atom_site_label_1
_geom_bond_atom_site_label_2
_geom_bond_site_symmetry_1
_geom_bond_site_symmetry_2
S1 C8 1_555 1_555
S2 C8 1_555 1_555
N1 N2 1_555 1_555
N2 H1 1_555 1_555
C1 C2 1_555 1_555
C2 H2 1_555 1_555
C3 C2 1_555 1_555
H3 C3 1_555 1_555
C4 C3 1_555 1_555
H4 C4 1_555 1_555
C5 C4 1_555 1_555
H5 C5 1_555 1_555
C6 C1 1_555 1_555
H6 C6 1_555 1_555
C7 N1 1_555 1_555
H7 C7 1_555 1_555
C8 N2 1_555 1_555
C9 S2 1_555 1_555
H8 C9 1_555 1_555
H9 C9 1_555 1_555
H10 C9 1_555 1_555
C1 C7 1_555 1_555
C5 C6 1_555 1_555

#END
