
#######################################################################
#
#                 Cambridge Crystallographic Data Centre
#                                CCDC 
#
#######################################################################
#
# If this CIF has been generated from an entry in the Cambridge 
# Structural Database, then it will include bibliographic, chemical, 
# crystal, experimental, refinement or atomic coordinate data resulting 
# from the CCDC's data processing and validation procedures.
#
#######################################################################

data_LEHQOH
_chemical_formula_moiety         'C22 H28 N2 O6'
_chemical_name_systematic        
3a,7a-dimethyl-2-[3-(3a-methyl-1,3-dioxooctahydro-2H-4,7-epoxyisoindol-2-yl)propyl]hexahydro-1H-4,7-epoxyisoindole-1,3(2H)-dione
_symmetry_cell_setting           orthorhombic
_symmetry_space_group_name_H-M   'P 21 21 21'
_symmetry_Int_Tables_number      19
_space_group_name_Hall           'P 2ac 2ab'
loop_
_symmetry_equiv_pos_site_id
_symmetry_equiv_pos_as_xyz
1 x,y,z
2 1/2-x,-y,1/2+z
3 -x,1/2+y,1/2-z
4 1/2+x,1/2-y,-z
_cell_length_a                   7.012
_cell_length_b                   15.58520(10)
_cell_length_c                   18.35240(10)
_cell_angle_alpha                90
_cell_angle_beta                 90
_cell_angle_gamma                90
_cell_volume                     2005.61
_exptl_crystal_colour            colorless
_exptl_crystal_description       block
_cell_formula_units_Z            4
loop_
_atom_site_label
_atom_site_type_symbol
_atom_site_fract_x
_atom_site_fract_y
_atom_site_fract_z
O1 O 1.03492(17) 1.12027(8) 0.35743(7)
O2 O 0.55687(18) 0.60958(8) 0.25591(6)
O3 O 0.90928(18) 0.70338(8) 0.38609(7)
O4 O 1.4694(2) 0.90785(8) 0.39367(7)
N1 N 0.74493(19) 0.78533(8) 0.30377(7)
O5 O 0.51745(18) 0.84024(8) 0.22679(6)
N2 N 1.23272(19) 1.00332(8) 0.36397(7)
O6 O 1.19406(18) 1.01900(7) 0.53210(7)
C1 C 0.4351(2) 0.72820(10) 0.31411(8)
H1 H 0.324766 0.754686 0.337927
C2 C 0.5617(2) 0.79240(10) 0.27604(8)
C3 C 0.9059(2) 0.83609(11) 0.27775(9)
H2 H 0.866838 0.868797 0.235336
H3 H 1.007995 0.797842 0.263003
C4 C 1.1705(2) 1.08368(10) 0.38432(9)
C5 C 0.7611(2) 0.72182(10) 0.35605(9)
C6 C 1.1430(2) 0.95246(10) 0.30651(9)
H4 H 1.237825 0.915536 0.284235
H5 H 1.093965 0.990574 0.269148
C7 C 0.3798(3) 0.65612(11) 0.26086(9)
H6 H 0.332726 0.677009 0.213818
C8 C 1.3995(3) 1.01239(11) 0.53291(9)
H7 H 1.446086 0.954214 0.542578
C9 C 0.3857(3) 0.54190(11) 0.34732(10)
H8 H 0.348674 0.545808 0.398135
H9 H 0.394866 0.481990 0.333421
C10 C 1.2968(2) 1.11744(10) 0.44533(9)
C11 C 1.4502(2) 1.04583(9) 0.45609(8)
C12 C 1.2998(3) 1.14700(12) 0.58219(10)
H10 H 1.221827 1.152543 0.625594
H11 H 1.354590 1.202356 0.570116
C13 C 0.2463(3) 0.59122(12) 0.29772(11)
H12 H 0.187020 0.553504 0.262309
H13 H 0.147989 0.619806 0.325867
C14 C 0.5138(3) 0.68545(11) 0.44848(9)
H14 H 0.598977 0.650107 0.476330
H15 H 0.385315 0.665491 0.454829
H16 H 0.523203 0.743779 0.464898
C15 C 1.4556(3) 1.07767(12) 0.59172(9)
H17 H 1.581904 1.100895 0.582985
H18 H 1.451398 1.052399 0.639993
C16 C 0.5676(2) 0.68063(10) 0.36794(9)
C17 C 1.3636(3) 1.20761(10) 0.42610(10)
H19 H 1.424708 1.206855 0.379288
H20 H 1.452420 1.227232 0.462265
H21 H 1.255901 1.245581 0.424627
C18 C 0.9804(2) 0.89764(11) 0.33613(9)
H22 H 0.877440 0.934569 0.352358
H23 H 1.025079 0.864996 0.377768
C19 C 1.6590(2) 1.06854(12) 0.44431(10)
H24 H 1.737548 1.021182 0.459043
H25 H 1.690710 1.118196 0.472791
H26 H 1.680348 1.080585 0.393665
C20 C 1.3915(2) 0.97647(10) 0.40214(8)
C21 C 1.1855(2) 1.10983(11) 0.51819(9)
H27 H 1.054967 1.132038 0.515300
C22 C 0.5717(3) 0.58953(10) 0.33282(9)
H28 H 0.685711 0.556278 0.345292
loop_
_geom_bond_atom_site_label_1
_geom_bond_atom_site_label_2
_geom_bond_site_symmetry_1
_geom_bond_site_symmetry_2
O1 C4 1_555 1_555
O2 C7 1_555 1_555
O3 C5 1_555 1_555
O4 C20 1_555 1_555
N1 C2 1_555 1_555
O5 C2 1_555 1_555
N2 C4 1_555 1_555
O6 C8 1_555 1_555
C1 H1 1_555 1_555
C2 C1 1_555 1_555
C3 N1 1_555 1_555
H2 C3 1_555 1_555
H3 C3 1_555 1_555
C4 C10 1_555 1_555
C5 N1 1_555 1_555
C6 N2 1_555 1_555
H4 C6 1_555 1_555
H5 C6 1_555 1_555
C7 C1 1_555 1_555
H6 C7 1_555 1_555
C8 H7 1_555 1_555
C9 H8 1_555 1_555
H9 C9 1_555 1_555
C10 C11 1_555 1_555
C11 C8 1_555 1_555
C12 H10 1_555 1_555
H11 C12 1_555 1_555
C13 C7 1_555 1_555
H12 C13 1_555 1_555
H13 C13 1_555 1_555
C14 H14 1_555 1_555
H15 C14 1_555 1_555
H16 C14 1_555 1_555
C15 C8 1_555 1_555
H17 C15 1_555 1_555
H18 C15 1_555 1_555
C16 C1 1_555 1_555
C17 C10 1_555 1_555
H19 C17 1_555 1_555
H20 C17 1_555 1_555
H21 C17 1_555 1_555
C18 C3 1_555 1_555
H22 C18 1_555 1_555
H23 C18 1_555 1_555
C19 C11 1_555 1_555
H24 C19 1_555 1_555
H25 C19 1_555 1_555
H26 C19 1_555 1_555
C20 N2 1_555 1_555
C21 O6 1_555 1_555
H27 C21 1_555 1_555
C22 O2 1_555 1_555
H28 C22 1_555 1_555
C5 C16 1_555 1_555
C6 C18 1_555 1_555
C9 C13 1_555 1_555
C9 C22 1_555 1_555
C10 C21 1_555 1_555
C11 C20 1_555 1_555
C12 C15 1_555 1_555
C12 C21 1_555 1_555
C14 C16 1_555 1_555
C16 C22 1_555 1_555

#END
