
#######################################################################
#
#                 Cambridge Crystallographic Data Centre
#                                CCDC 
#
#######################################################################
#
# If this CIF has been generated from an entry in the Cambridge 
# Structural Database, then it will include bibliographic, chemical, 
# crystal, experimental, refinement or atomic coordinate data resulting 
# from the CCDC's data processing and validation procedures.
#
#######################################################################

data_LEHVEC
_chemical_formula_moiety         'C39 H31 F1 N2 O4 S1'
_chemical_name_systematic        
1'-benzyl-5'-fluoro-6-[(4-methylphenyl)sulfonyl]-3,5-diphenyl-7H-spiro[6-azabicyclo[3.2.0]heptane-2,3'-indole]-2',7(1'H)-dione
_symmetry_cell_setting           orthorhombic
_symmetry_space_group_name_H-M   'P 21 21 21'
_symmetry_Int_Tables_number      19
_space_group_name_Hall           'P 2ac 2ab'
loop_
_symmetry_equiv_pos_site_id
_symmetry_equiv_pos_as_xyz
1 x,y,z
2 1/2-x,-y,1/2+z
3 1/2+x,1/2-y,-z
4 -x,1/2+y,1/2-z
_cell_length_a                   10.52240(10)
_cell_length_b                   15.7375(2)
_cell_length_c                   18.7585(2)
_cell_angle_alpha                90
_cell_angle_beta                 90
_cell_angle_gamma                90
_cell_volume                     3106.34
_exptl_crystal_colour            colorless
_exptl_crystal_description       prism
_cell_formula_units_Z            4
loop_
_atom_site_label
_atom_site_type_symbol
_atom_site_fract_x
_atom_site_fract_y
_atom_site_fract_z
S1 S 0.45803(4) 0.95029(3) 0.15010(3)
F1 F 0.46927(13) 0.77951(9) 0.48975(7)
O1 O 0.32283(13) 0.94334(9) 0.15257(8)
O2 O 0.52178(15) 0.98337(10) 0.08886(8)
O3 O 0.39660(13) 0.79253(9) 0.25676(8)
O4 O 0.88279(13) 0.68529(9) 0.19765(7)
N1 N 0.51302(14) 0.85156(10) 0.16099(8)
N2 N 0.83019(15) 0.64709(10) 0.31187(8)
C1 C 0.48480(17) 0.79504(12) 0.21692(10)
C2 C 0.60846(17) 0.74505(11) 0.20521(10)
H1 H 0.596686 0.684380 0.190821
C3 C 0.71176(17) 0.76031(12) 0.26286(9)
C4 C 0.75498(17) 0.85322(12) 0.24717(10)
H2 H 0.685333 0.891363 0.264244
C5 C 0.75499(17) 0.85836(12) 0.16498(9)
H3 H 0.749253 0.918125 0.148841
H4 H 0.833205 0.832666 0.145087
C6 C 0.63745(16) 0.80817(12) 0.14202(10)
C7 C 0.81949(17) 0.69469(12) 0.25148(10)
C8 C 0.74264(17) 0.67377(12) 0.36438(10)
C9 C 0.7240(2) 0.64020(13) 0.43166(11)
H5 H 0.773527 0.593927 0.448547
C10 C 0.6295(2) 0.67694(14) 0.47384(11)
H6 H 0.612605 0.655311 0.520166
C11 C 0.56108(19) 0.74447(14) 0.44797(11)
C12 C 0.57966(19) 0.77937(13) 0.38093(11)
H7 H 0.531692 0.826802 0.364896
C13 C 0.67144(17) 0.74182(12) 0.33845(9)
C14 C 0.50860(18) 1.00507(12) 0.22689(11)
C15 C 0.44332(19) 0.99287(12) 0.29061(11)
H8 H 0.369262 0.958393 0.292120
C16 C 0.4885(2) 1.03212(12) 0.35208(12)
H9 H 0.445241 1.023711 0.395959
C17 C 0.59626(19) 1.08354(12) 0.35027(12)
C18 C 0.65902(19) 1.09511(13) 0.28538(12)
H10 H 0.732140 1.130453 0.283596
C19 C 0.61684(19) 1.05614(12) 0.22362(11)
H11 H 0.660720 1.063997 0.179858
C20 C 0.6420(2) 1.12836(15) 0.41654(13)
H12 H 0.581586 1.118638 0.455437
H13 H 0.648668 1.189456 0.407142
H14 H 0.725597 1.106111 0.430098
C21 C 0.87552(17) 0.88185(11) 0.28414(10)
C22 C 0.86657(19) 0.92818(13) 0.34734(11)
H15 H 0.785151 0.940271 0.366722
C23 C 0.9747(2) 0.95700(15) 0.38251(11)
H16 H 0.966983 0.988686 0.425397
C24 C 1.0940(2) 0.93924(14) 0.35466(12)
H17 H 1.168053 0.959417 0.378130
C25 C 1.10489(19) 0.89201(13) 0.29253(12)
H18 H 1.186535 0.878764 0.273993
C26 C 0.99626(19) 0.86406(13) 0.25739(10)
H19 H 1.004454 0.832378 0.214523
C27 C 0.63698(18) 0.76952(13) 0.06800(10)
C28 C 0.71231(19) 0.69767(14) 0.05615(11)
H20 H 0.764018 0.675947 0.093454
C29 C 0.7117(2) 0.65778(15) -0.01032(12)
H21 H 0.762854 0.608896 -0.018072
C30 C 0.6369(2) 0.68921(15) -0.06496(11)
H22 H 0.636598 0.661910 -0.110132
C31 C 0.5626(2) 0.76052(15) -0.05368(11)
H23 H 0.511530 0.782308 -0.091243
C32 C 0.56242(19) 0.80046(14) 0.01270(11)
H24 H 0.510890 0.849221 0.020143
C33 C 0.91895(18) 0.57664(12) 0.31914(11)
H25 H 0.949146 0.559945 0.271159
H26 H 0.873496 0.527400 0.339843
C34 C 1.03293(18) 0.59694(12) 0.36541(10)
C35 C 1.10581(19) 0.66918(12) 0.35253(11)
H27 H 1.082587 0.706659 0.315030
C36 C 1.2118(2) 0.68707(13) 0.39371(12)
H28 H 1.260577 0.736632 0.384398
C37 C 1.2468(2) 0.63259(15) 0.44866(12)
H29 H 1.319148 0.644877 0.477139
C38 C 1.1753(2) 0.56026(14) 0.46158(12)
H30 H 1.199466 0.522483 0.498693
C39 C 1.0683(2) 0.54264(13) 0.42043(11)
H31 H 1.019258 0.493268 0.430006
loop_
_geom_bond_atom_site_label_1
_geom_bond_atom_site_label_2
_geom_bond_site_symmetry_1
_geom_bond_site_symmetry_2
S1 O1 1_555 1_555
F1 C11 1_555 1_555
O2 S1 1_555 1_555
O3 C1 1_555 1_555
O4 C7 1_555 1_555
N1 S1 1_555 1_555
N2 C7 1_555 1_555
C1 N1 1_555 1_555
C2 C1 1_555 1_555
H1 C2 1_555 1_555
C3 C2 1_555 1_555
C4 C3 1_555 1_555
H2 C4 1_555 1_555
C5 C4 1_555 1_555
H3 C5 1_555 1_555
H4 C5 1_555 1_555
C6 N1 1_555 1_555
C7 C3 1_555 1_555
C8 N2 1_555 1_555
C9 C8 1_555 1_555
H5 C9 1_555 1_555
C10 C9 1_555 1_555
H6 C10 1_555 1_555
C11 C10 1_555 1_555
C12 C11 1_555 1_555
H7 C12 1_555 1_555
C13 C3 1_555 1_555
C14 S1 1_555 1_555
C15 C14 1_555 1_555
H8 C15 1_555 1_555
C16 C15 1_555 1_555
H9 C16 1_555 1_555
C17 C16 1_555 1_555
C18 C17 1_555 1_555
H10 C18 1_555 1_555
C19 C14 1_555 1_555
H11 C19 1_555 1_555
C20 C17 1_555 1_555
H12 C20 1_555 1_555
H13 C20 1_555 1_555
H14 C20 1_555 1_555
C21 C4 1_555 1_555
C22 C21 1_555 1_555
H15 C22 1_555 1_555
C23 C22 1_555 1_555
H16 C23 1_555 1_555
C24 C23 1_555 1_555
H17 C24 1_555 1_555
C25 C24 1_555 1_555
H18 C25 1_555 1_555
C26 C21 1_555 1_555
H19 C26 1_555 1_555
C27 C6 1_555 1_555
C28 C27 1_555 1_555
H20 C28 1_555 1_555
C29 C28 1_555 1_555
H21 C29 1_555 1_555
C30 C29 1_555 1_555
H22 C30 1_555 1_555
C31 C30 1_555 1_555
H23 C31 1_555 1_555
C32 C27 1_555 1_555
H24 C32 1_555 1_555
C33 N2 1_555 1_555
H25 C33 1_555 1_555
H26 C33 1_555 1_555
C34 C33 1_555 1_555
C35 C34 1_555 1_555
H27 C35 1_555 1_555
C36 C35 1_555 1_555
H28 C36 1_555 1_555
C37 C36 1_555 1_555
H29 C37 1_555 1_555
C38 C37 1_555 1_555
H30 C38 1_555 1_555
C39 C34 1_555 1_555
H31 C39 1_555 1_555
C2 C6 1_555 1_555
C5 C6 1_555 1_555
C8 C13 1_555 1_555
C12 C13 1_555 1_555
C18 C19 1_555 1_555
C25 C26 1_555 1_555
C31 C32 1_555 1_555
C38 C39 1_555 1_555

#END
