
#######################################################################
#
#                 Cambridge Crystallographic Data Centre
#                                CCDC 
#
#######################################################################
#
# If this CIF has been generated from an entry in the Cambridge 
# Structural Database, then it will include bibliographic, chemical, 
# crystal, experimental, refinement or atomic coordinate data resulting 
# from the CCDC's data processing and validation procedures.
#
#######################################################################

data_LEHWAX01
_chemical_name_common            
N-(bis(morpholin-4-yl)phosphoryl)-4-fluorobenzamide
_chemical_formula_moiety         'C15 H21 F1 N3 O4 P1'
_chemical_name_systematic        
N-[bis(morpholin-4-yl)phosphinoyl]-4-fluorobenzamide
_symmetry_cell_setting           monoclinic
_symmetry_space_group_name_H-M   'P 21/n'
_symmetry_Int_Tables_number      14
_space_group_name_Hall           '-P 2yn'
loop_
_symmetry_equiv_pos_site_id
_symmetry_equiv_pos_as_xyz
1 x,y,z
2 1/2-x,1/2+y,1/2-z
3 -x,-y,-z
4 1/2+x,1/2-y,1/2+z
_cell_length_a                   15.6093(6)
_cell_length_b                   10.7114(4)
_cell_length_c                   21.0045(9)
_cell_angle_alpha                90
_cell_angle_beta                 106.896(2)
_cell_angle_gamma                90
_cell_volume                     3360.3
_exptl_crystal_colour            colorless
_exptl_crystal_description       block
_cell_formula_units_Z            8
loop_
_atom_site_label
_atom_site_type_symbol
_atom_site_fract_x
_atom_site_fract_y
_atom_site_fract_z
P1 P 0.47360(4) 0.87432(6) 0.15573(3)
F1 F 0.07031(11) 0.82774(16) 0.31748(9)
O1 O 0.30622(14) 0.71437(19) 0.12959(10)
O2 O 0.54401(12) 0.95376(17) 0.19942(9)
O3 O 0.26441(14) 1.08121(18) 0.01350(10)
O4 O 0.59087(13) 0.54123(18) 0.08540(10)
N1 N 0.40849(14) 0.8319(2) 0.20362(11)
H1 H 0.417(2) 0.872(3) 0.2410(11)
N2 N 0.41816(15) 0.9499(2) 0.08931(11)
N3 N 0.50455(15) 0.7452(2) 0.12658(11)
C1 C 0.27337(18) 0.8749(3) 0.27251(14)
H3 H 0.3255 0.9257 0.2849
C2 C 0.20861(18) 0.8881(3) 0.30509(14)
H4 H 0.2152 0.9479 0.3396
C3 C 0.13450(17) 0.8125(2) 0.28632(14)
C4 C 0.12203(18) 0.7231(3) 0.23765(14)
H5 H 0.0707 0.6706 0.2269
C5 C 0.18645(17) 0.7119(2) 0.20477(14)
H6 H 0.1788 0.6520 0.1702
C6 C 0.26243(17) 0.7873(2) 0.22151(13)
C7 C 0.32636(18) 0.7737(2) 0.18122(13)
C8 C 0.35807(18) 0.8961(3) 0.02858(14)
H7 H 0.3567 0.8041 0.0330
H8 H 0.3805 0.9159 -0.0098
C9 C 0.2642(2) 0.9483(3) 0.01647(15)
H9 H 0.2249 0.9147 -0.0259
H10 H 0.2397 0.9213 0.0528
C10 C 0.3181(2) 1.1302(3) 0.07509(15)
H11 H 0.2939 1.1023 0.1114
H12 H 0.3160 1.2225 0.0735
C11 C 0.4140(2) 1.0871(2) 0.08929(15)
H13 H 0.4398 1.1206 0.0550
H14 H 0.4498 1.1193 0.1331
C12 C 0.56485(19) 0.7619(3) 0.08400(15)
H15 H 0.6268 0.7770 0.1122
H16 H 0.5454 0.8351 0.0546
C13 C 0.5620(2) 0.6472(3) 0.04299(15)
H17 H 0.5002 0.6333 0.0141
H18 H 0.6015 0.6582 0.0141
C14 C 0.53270(19) 0.5219(3) 0.12520(15)
H19 H 0.5529 0.4478 0.1538
H20 H 0.4715 0.5049 0.0960
C15 C 0.53018(19) 0.6333(2) 0.16835(14)
H21 H 0.4864 0.6186 0.1935
H22 H 0.5898 0.6459 0.2007
P2 P 0.93848(4) 0.36293(6) 0.12376(3)
F2 F 0.58872(11) 0.32224(15) 0.33946(9)
O5 O 0.76002(14) 0.22559(19) 0.10808(10)
O6 O 1.01711(12) 0.43300(18) 0.16535(10)
O7 O 0.74106(13) 0.59113(17) -0.00982(10)
O8 O 1.08127(14) 0.03799(19) 0.09330(11)
N4 N 0.87238(15) 0.3430(2) 0.17412(11)
H2 H 0.8948(19) 0.374(3) 0.2123(10)
N5 N 0.88937(14) 0.4404(2) 0.05651(11)
N6 N 0.95166(15) 0.2234(2) 0.09645(11)
C16 C 0.75142(17) 0.3982(2) 0.25373(14)
H23 H 0.7956 0.4597 0.2545
C17 C 0.70067(17) 0.4068(2) 0.29795(14)
H24 H 0.7088 0.4741 0.3286
C18 C 0.63820(17) 0.3150(2) 0.29609(13)
C19 C 0.62334(16) 0.2167(2) 0.25214(14)
H25 H 0.5800 0.1546 0.2524
C20 C 0.67331(16) 0.2109(2) 0.20749(13)
H26 H 0.6630 0.1450 0.1759
C21 C 0.73824(17) 0.3000(2) 0.20819(13)
C22 C 0.78981(17) 0.2861(2) 0.15893(14)
C23 C 0.81724(17) 0.3917(2) 0.00028(13)
H27 H 0.8097 0.3012 0.0065
H28 H 0.8334 0.4033 -0.0415
C24 C 0.73018(18) 0.4588(2) -0.00470(15)
H29 H 0.6832 0.4286 -0.0443
H30 H 0.7108 0.4401 0.0352
C25 C 0.8061(2) 0.6370(3) 0.04805(16)
H31 H 0.7871 0.6179 0.0880
H32 H 0.8112 0.7288 0.0449
C26 C 0.89630(19) 0.5771(2) 0.05444(16)
H33 H 0.9174 0.6018 0.0161
H34 H 0.9406 0.6070 0.0956
C27 C 0.98143(19) 0.2023(3) 0.03698(15)
H35 H 0.9799 0.2821 0.0129
H36 H 0.9401 0.1432 0.0068
C28 C 1.0750(2) 0.1502(3) 0.05604(18)
H37 H 1.0927 0.1334 0.0153
H38 H 1.1169 0.2127 0.0828
C29 C 1.0563(2) 0.0604(3) 0.15248(16)
H39 H 1.0983 0.1214 0.1806
H40 H 1.0610 -0.0184 0.1779
C30 C 0.9619(2) 0.1102(3) 0.13704(15)
H41 H 0.9191 0.0459 0.1129
H42 H 0.9479 0.1291 0.1791
loop_
_geom_bond_atom_site_label_1
_geom_bond_atom_site_label_2
_geom_bond_site_symmetry_1
_geom_bond_site_symmetry_2
P1 O2 1_555 1_555
P2 O6 1_555 1_555
F1 C3 1_555 1_555
F2 C18 1_555 1_555
O1 C7 1_555 1_555
O3 C9 1_555 1_555
O4 C13 1_555 1_555
O5 C22 1_555 1_555
O7 C24 1_555 1_555
O8 C28 1_555 1_555
N1 P1 1_555 1_555
H1 N1 1_555 1_555
N2 P1 1_555 1_555
N3 P1 1_555 1_555
N4 P2 1_555 1_555
H2 N4 1_555 1_555
N5 P2 1_555 1_555
N6 P2 1_555 1_555
C1 H3 1_555 1_555
C2 C1 1_555 1_555
H4 C2 1_555 1_555
C3 C2 1_555 1_555
C4 C3 1_555 1_555
H5 C4 1_555 1_555
C5 C4 1_555 1_555
H6 C5 1_555 1_555
C6 C1 1_555 1_555
C7 N1 1_555 1_555
C8 N2 1_555 1_555
H7 C8 1_555 1_555
H8 C8 1_555 1_555
C9 C8 1_555 1_555
H9 C9 1_555 1_555
H10 C9 1_555 1_555
C10 O3 1_555 1_555
H11 C10 1_555 1_555
H12 C10 1_555 1_555
C11 N2 1_555 1_555
H13 C11 1_555 1_555
H14 C11 1_555 1_555
C12 N3 1_555 1_555
H15 C12 1_555 1_555
H16 C12 1_555 1_555
C13 C12 1_555 1_555
H17 C13 1_555 1_555
H18 C13 1_555 1_555
C14 O4 1_555 1_555
H19 C14 1_555 1_555
H20 C14 1_555 1_555
C15 N3 1_555 1_555
H21 C15 1_555 1_555
H22 C15 1_555 1_555
C16 H23 1_555 1_555
C17 C16 1_555 1_555
H24 C17 1_555 1_555
C18 C17 1_555 1_555
C19 C18 1_555 1_555
H25 C19 1_555 1_555
C20 C19 1_555 1_555
H26 C20 1_555 1_555
C21 C16 1_555 1_555
C22 N4 1_555 1_555
C23 N5 1_555 1_555
H27 C23 1_555 1_555
H28 C23 1_555 1_555
C24 C23 1_555 1_555
H29 C24 1_555 1_555
H30 C24 1_555 1_555
C25 O7 1_555 1_555
H31 C25 1_555 1_555
H32 C25 1_555 1_555
C26 N5 1_555 1_555
H33 C26 1_555 1_555
H34 C26 1_555 1_555
C27 N6 1_555 1_555
H35 C27 1_555 1_555
H36 C27 1_555 1_555
C28 C27 1_555 1_555
H37 C28 1_555 1_555
H38 C28 1_555 1_555
C29 O8 1_555 1_555
H39 C29 1_555 1_555
H40 C29 1_555 1_555
C30 N6 1_555 1_555
H41 C30 1_555 1_555
H42 C30 1_555 1_555
C5 C6 1_555 1_555
C6 C7 1_555 1_555
C10 C11 1_555 1_555
C14 C15 1_555 1_555
C20 C21 1_555 1_555
C21 C22 1_555 1_555
C25 C26 1_555 1_555
C29 C30 1_555 1_555

#END
