
#######################################################################
#
#                 Cambridge Crystallographic Data Centre
#                                CCDC 
#
#######################################################################
#
# If this CIF has been generated from an entry in the Cambridge 
# Structural Database, then it will include bibliographic, chemical, 
# crystal, experimental, refinement or atomic coordinate data resulting 
# from the CCDC's data processing and validation procedures.
#
#######################################################################

data_LEHYAZ
_chemical_formula_moiety         'C11 H18 N2 O1'
_chemical_name_systematic        N-(1-Adamantyl)urea
_symmetry_cell_setting           monoclinic
_symmetry_space_group_name_H-M   'P 21/c'
_symmetry_Int_Tables_number      14
_space_group_name_Hall           '-P 2ybc'
loop_
_symmetry_equiv_pos_site_id
_symmetry_equiv_pos_as_xyz
1 x,y,z
2 -x,1/2+y,1/2-z
3 -x,-y,-z
4 x,1/2-y,1/2+z
_cell_length_a                   13.070(2)
_cell_length_b                   8.9422(11)
_cell_length_c                   9.3904(11)
_cell_angle_alpha                90
_cell_angle_beta                 109.819(8)
_cell_angle_gamma                90
_cell_volume                     1032.49
_exptl_crystal_colour            colorless
_exptl_crystal_description       block
_cell_formula_units_Z            4
loop_
_atom_site_label
_atom_site_type_symbol
_atom_site_fract_x
_atom_site_fract_y
_atom_site_fract_z
O1 O 0.42486(12) 0.82284(17) 0.39858(15)
C1 C 0.42973(16) 0.7892(2) 0.5290(2)
N1 N 0.36578(12) 0.68524(18) 0.56081(17)
H1 H 0.3740 0.6719 0.6548
N2 N 0.50217(13) 0.8566(2) 0.65016(17)
H2 H 0.5455 0.9235 0.6374
H3 H 0.5050 0.8326 0.7401
C2 C 0.28353(15) 0.5928(2) 0.4508(2)
C3 C 0.22849(16) 0.4962(2) 0.5394(2)
H4 H 0.2827 0.4350 0.6123
H5 H 0.1948 0.5602 0.5943
C4 C 0.14234(17) 0.3959(2) 0.4311(2)
H6 H 0.1080 0.3347 0.4889
C5 C 0.05628(16) 0.4918(3) 0.3181(3)
H7 H 0.0209 0.5552 0.3713
H8 H 0.0015 0.4282 0.2492
C6 C 0.11012(17) 0.5885(2) 0.2291(2)
H9 H 0.0549 0.6507 0.1567
C7 C 0.16396(18) 0.4872(2) 0.1438(2)
H10 H 0.1094 0.4250 0.0728
H11 H 0.1984 0.5477 0.0872
C8 C 0.24861(17) 0.3891(2) 0.2560(2)
H12 H 0.2827 0.3237 0.2012
C9 C 0.33550(15) 0.4883(2) 0.3657(2)
H13 H 0.3897 0.4261 0.4375
H14 H 0.3716 0.5470 0.3098
C10 C 0.19608(15) 0.6887(2) 0.3383(2)
H15 H 0.1621 0.7529 0.3927
H16 H 0.2291 0.7518 0.2819
C11 C 0.19509(17) 0.2941(2) 0.3459(2)
H17 H 0.1405 0.2297 0.2778
H18 H 0.2493 0.2314 0.4170
loop_
_geom_bond_atom_site_label_1
_geom_bond_atom_site_label_2
_geom_bond_site_symmetry_1
_geom_bond_site_symmetry_2
O1 C1 1_555 1_555
C1 N1 1_555 1_555
N1 H1 1_555 1_555
N2 C1 1_555 1_555
H2 N2 1_555 1_555
H3 N2 1_555 1_555
C2 N1 1_555 1_555
C3 C2 1_555 1_555
H4 C3 1_555 1_555
H5 C3 1_555 1_555
C4 C3 1_555 1_555
H6 C4 1_555 1_555
C5 C4 1_555 1_555
H7 C5 1_555 1_555
H8 C5 1_555 1_555
C6 C5 1_555 1_555
H9 C6 1_555 1_555
C7 C6 1_555 1_555
H10 C7 1_555 1_555
H11 C7 1_555 1_555
C8 C7 1_555 1_555
H12 C8 1_555 1_555
C9 C2 1_555 1_555
H13 C9 1_555 1_555
H14 C9 1_555 1_555
C10 C2 1_555 1_555
H15 C10 1_555 1_555
H16 C10 1_555 1_555
C11 C4 1_555 1_555
H17 C11 1_555 1_555
H18 C11 1_555 1_555
C6 C10 1_555 1_555
C8 C9 1_555 1_555
C8 C11 1_555 1_555

#END
