
#######################################################################
#
#                 Cambridge Crystallographic Data Centre
#                                CCDC 
#
#######################################################################
#
# If this CIF has been generated from an entry in the Cambridge 
# Structural Database, then it will include bibliographic, chemical, 
# crystal, experimental, refinement or atomic coordinate data resulting 
# from the CCDC's data processing and validation procedures.
#
#######################################################################

data_LEHYUT
_chemical_formula_moiety         'C31 H26'
_chemical_name_systematic        8-t-Butyl-13-phenyl-7H-dibenzo(b,g)fluorene
_symmetry_cell_setting           monoclinic
_symmetry_space_group_name_H-M   'P 21'
_symmetry_Int_Tables_number      4
_space_group_name_Hall           'P 2yb'
loop_
_symmetry_equiv_pos_site_id
_symmetry_equiv_pos_as_xyz
1 x,y,z
2 -x,1/2+y,-z
_cell_length_a                   6.3082(4)
_cell_length_b                   18.0830(13)
_cell_length_c                   18.9418(13)
_cell_angle_alpha                90
_cell_angle_beta                 95.9130(10)
_cell_angle_gamma                90
_cell_volume                     2149.22
_cell_formula_units_Z            4
loop_
_atom_site_label
_atom_site_type_symbol
_atom_site_fract_x
_atom_site_fract_y
_atom_site_fract_z
C1 C 0.9386(5) 0.2395(2) 0.38309(17)
H1 H 1.0537 0.2417 0.4212
H2 H 0.9094 0.1881 0.3710
C2 C 0.9934(4) 0.28135(19) 0.32054(16)
C3 C 1.1689(5) 0.2665(2) 0.28226(19)
H3 H 1.2694 0.2311 0.2983
C4 C 1.1888(5) 0.3046(2) 0.22172(19)
H4 H 1.3078 0.2967 0.1975
C5 C 1.0324(4) 0.35604(18) 0.19458(17)
C6 C 1.0464(5) 0.3908(2) 0.12933(18)
H5 H 1.1683 0.3841 0.1063
C7 C 0.8884(6) 0.4334(2) 0.09909(19)
H6 H 0.9021 0.4563 0.0558
C8 C 0.7026(5) 0.4436(2) 0.13274(17)
H7 H 0.5906 0.4714 0.1108
C9 C 0.6859(5) 0.41263(19) 0.19761(16)
H8 H 0.5612 0.4197 0.2190
C10 C 0.8516(4) 0.37027(18) 0.23330(16)
C11 C 0.8459(4) 0.33539(17) 0.30060(15)
C12 C 0.6987(4) 0.33932(16) 0.35840(15)
C13 C 0.5567(4) 0.39324(17) 0.37373(15)
C14 C 0.4336(4) 0.38072(18) 0.43162(15)
C15 C 0.2802(5) 0.43315(19) 0.44876(17)
H9 H 0.2670 0.4771 0.4232
C16 C 0.1521(6) 0.4220(2) 0.50079(19)
H10 H 0.0480 0.4565 0.5090
C17 C 0.1782(6) 0.3586(2) 0.5416(2)
H11 H 0.0922 0.3508 0.5779
C18 C 0.3263(6) 0.3080(2) 0.52930(18)
H12 H 0.3421 0.2668 0.5587
C19 C 0.4606(5) 0.31448(18) 0.47338(16)
C20 C 0.6233(5) 0.26180(18) 0.46036(17)
C21 C 0.7408(4) 0.27748(18) 0.40451(16)
C22 C 0.5390(4) 0.46637(16) 0.33700(15)
C23 C 0.7140(5) 0.51188(18) 0.33866(18)
H13 H 0.8409 0.4972 0.3642
C24 C 0.7062(6) 0.5783(2) 0.3037(2)
H14 H 0.8268 0.6081 0.3053
C25 C 0.5199(8) 0.6005(2) 0.2665(2)
H15 H 0.5147 0.6452 0.2421
C26 C 0.3401(6) 0.5572(2) 0.26481(19)
H16 H 0.2129 0.5730 0.2402
C27 C 0.3503(5) 0.49042(19) 0.29988(16)
H17 H 0.2291 0.4610 0.2987
C28 C 0.6556(5) 0.1927(2) 0.5086(2)
C29 C 0.8238(7) 0.1375(3) 0.4885(3)
H18 H 0.8312 0.0965 0.5209
H19 H 0.9602 0.1614 0.4910
H20 H 0.7854 0.1199 0.4411
C30 C 0.7249(8) 0.2163(3) 0.5858(2)
H21 H 0.6205 0.2493 0.6018
H22 H 0.8601 0.2410 0.5880
H23 H 0.7373 0.1733 0.6157
C31 C 0.4500(6) 0.1457(2) 0.5034(2)
H24 H 0.3389 0.1730 0.5228
H25 H 0.4766 0.1007 0.5298
H26 H 0.4069 0.1342 0.4546
C32 C -0.2312(4) 0.0471(2) 0.02201(16)
H27 H -0.3396 0.0852 0.0213
H28 H -0.2262 0.0285 -0.0258
C33 C -0.2752(4) -0.01347(19) 0.07111(16)
C34 C -0.4587(5) -0.0570(2) 0.06545(19)
H29 H -0.5678 -0.0480 0.0296
C35 C -0.4772(5) -0.1124(2) 0.1125(2)
H30 H -0.6029 -0.1395 0.1105
C36 C -0.3075(5) -0.12942(19) 0.16436(18)
C37 C -0.3253(7) -0.1887(2) 0.2113(2)
H31 H -0.4542 -0.2137 0.2108
C38 C -0.1575(7) -0.2100(2) 0.2575(2)
H32 H -0.1733 -0.2479 0.2897
C39 C 0.0375(7) -0.1749(2) 0.2562(2)
H33 H 0.1558 -0.1924 0.2847
C40 C 0.0579(5) -0.11442(19) 0.21331(17)
H34 H 0.1896 -0.0912 0.2141
C41 C -0.1140(5) -0.08717(17) 0.16867(16)
C42 C -0.1100(4) -0.02346(17) 0.12345(16)
C43 C 0.0457(4) 0.03763(17) 0.11743(14)
C44 C 0.2115(4) 0.06349(16) 0.16372(15)
C45 C 0.3395(4) 0.12231(16) 0.14011(15)
C46 C 0.5206(4) 0.14758(18) 0.18480(17)
H35 H 0.5495 0.1271 0.2298
C47 C 0.6525(5) 0.2008(2) 0.1634(2)
H36 H 0.7732 0.2149 0.1926
C48 C 0.6056(5) 0.2336(2) 0.09807(19)
H37 H 0.6938 0.2707 0.0837
C49 C 0.4333(5) 0.21256(19) 0.05465(18)
H38 H 0.4059 0.2361 0.0110
C50 C 0.2909(4) 0.15574(17) 0.07259(16)
C51 C 0.1024(4) 0.13370(17) 0.02744(15)
C52 C -0.0154(4) 0.07697(17) 0.05179(15)
C53 C 0.2530(4) 0.03703(17) 0.23841(15)
C54 C 0.4446(5) 0.00266(19) 0.26419(18)
H39 H 0.5535 -0.0022 0.2349
C55 C 0.4724(6) -0.0238(2) 0.3323(2)
H40 H 0.5992 -0.0472 0.3488
C56 C 0.3133(8) -0.0159(2) 0.3763(2)
H41 H 0.3328 -0.0341 0.4224
C57 C 0.1261(6) 0.0186(2) 0.35220(18)
H42 H 0.0193 0.0243 0.3822
C58 C 0.0963(5) 0.04501(19) 0.28363(16)
H43 H -0.0309 0.0685 0.2676
C59 C 0.0503(5) 0.1733(2) -0.04549(18)
C60 C 0.0162(6) 0.2573(2) -0.0351(2)
H44 H 0.0155 0.2821 -0.0800
H45 H 0.1295 0.2766 -0.0026
H46 H -0.1177 0.2653 -0.0164
C61 C 0.2294(5) 0.1571(2) -0.09286(18)
H47 H 0.2427 0.1046 -0.0987
H48 H 0.3615 0.1767 -0.0710
H49 H 0.1955 0.1798 -0.1384
C62 C -0.1520(6) 0.1472(3) -0.0904(2)
H50 H -0.1716 0.1756 -0.1334
H51 H -0.2729 0.1540 -0.0641
H52 H -0.1384 0.0959 -0.1018
loop_
_geom_bond_atom_site_label_1
_geom_bond_atom_site_label_2
_geom_bond_site_symmetry_1
_geom_bond_site_symmetry_2
C1 H1 1_555 1_555
H2 C1 1_555 1_555
C2 C1 1_555 1_555
C3 C2 1_555 1_555
H3 C3 1_555 1_555
C4 C3 1_555 1_555
H4 C4 1_555 1_555
C5 C4 1_555 1_555
C6 C5 1_555 1_555
H5 C6 1_555 1_555
C7 C6 1_555 1_555
H6 C7 1_555 1_555
C8 C7 1_555 1_555
H7 C8 1_555 1_555
C9 C8 1_555 1_555
H8 C9 1_555 1_555
C10 C5 1_555 1_555
C11 C2 1_555 1_555
C12 C11 1_555 1_555
C13 C12 1_555 1_555
C14 C13 1_555 1_555
C15 C14 1_555 1_555
H9 C15 1_555 1_555
C16 C15 1_555 1_555
H10 C16 1_555 1_555
C17 C16 1_555 1_555
H11 C17 1_555 1_555
C18 C17 1_555 1_555
H12 C18 1_555 1_555
C19 C14 1_555 1_555
C20 C19 1_555 1_555
C21 C1 1_555 1_555
C22 C13 1_555 1_555
C23 C22 1_555 1_555
H13 C23 1_555 1_555
C24 C23 1_555 1_555
H14 C24 1_555 1_555
C25 C24 1_555 1_555
H15 C25 1_555 1_555
C26 C25 1_555 1_555
H16 C26 1_555 1_555
C27 C22 1_555 1_555
H17 C27 1_555 1_555
C28 C20 1_555 1_555
C29 C28 1_555 1_555
H18 C29 1_555 1_555
H19 C29 1_555 1_555
H20 C29 1_555 1_555
C30 C28 1_555 1_555
H21 C30 1_555 1_555
H22 C30 1_555 1_555
H23 C30 1_555 1_555
C31 C28 1_555 1_555
H24 C31 1_555 1_555
H25 C31 1_555 1_555
H26 C31 1_555 1_555
C32 H27 1_555 1_555
H28 C32 1_555 1_555
C33 C32 1_555 1_555
C34 C33 1_555 1_555
H29 C34 1_555 1_555
C35 C34 1_555 1_555
H30 C35 1_555 1_555
C36 C35 1_555 1_555
C37 C36 1_555 1_555
H31 C37 1_555 1_555
C38 C37 1_555 1_555
H32 C38 1_555 1_555
C39 C38 1_555 1_555
H33 C39 1_555 1_555
C40 C39 1_555 1_555
H34 C40 1_555 1_555
C41 C36 1_555 1_555
C42 C33 1_555 1_555
C43 C42 1_555 1_555
C44 C43 1_555 1_555
C45 C44 1_555 1_555
C46 C45 1_555 1_555
H35 C46 1_555 1_555
C47 C46 1_555 1_555
H36 C47 1_555 1_555
C48 C47 1_555 1_555
H37 C48 1_555 1_555
C49 C48 1_555 1_555
H38 C49 1_555 1_555
C50 C45 1_555 1_555
C51 C50 1_555 1_555
C52 C32 1_555 1_555
C53 C44 1_555 1_555
C54 C53 1_555 1_555
H39 C54 1_555 1_555
C55 C54 1_555 1_555
H40 C55 1_555 1_555
C56 C55 1_555 1_555
H41 C56 1_555 1_555
C57 C56 1_555 1_555
H42 C57 1_555 1_555
C58 C53 1_555 1_555
H43 C58 1_555 1_555
C59 C51 1_555 1_555
C60 C59 1_555 1_555
H44 C60 1_555 1_555
H45 C60 1_555 1_555
H46 C60 1_555 1_555
C61 C59 1_555 1_555
H47 C61 1_555 1_555
H48 C61 1_555 1_555
H49 C61 1_555 1_555
C62 C59 1_555 1_555
H50 C62 1_555 1_555
H51 C62 1_555 1_555
H52 C62 1_555 1_555
C9 C10 1_555 1_555
C10 C11 1_555 1_555
C12 C21 1_555 1_555
C18 C19 1_555 1_555
C20 C21 1_555 1_555
C26 C27 1_555 1_555
C40 C41 1_555 1_555
C41 C42 1_555 1_555
C43 C52 1_555 1_555
C49 C50 1_555 1_555
C51 C52 1_555 1_555
C57 C58 1_555 1_555

#END
