
#######################################################################
#
#                 Cambridge Crystallographic Data Centre
#                                CCDC 
#
#######################################################################
#
# If this CIF has been generated from an entry in the Cambridge 
# Structural Database, then it will include bibliographic, chemical, 
# crystal, experimental, refinement or atomic coordinate data resulting 
# from the CCDC's data processing and validation procedures.
#
#######################################################################

data_LEJCOT
_chemical_formula_moiety         'C33 H42 N2 S1'
_chemical_name_systematic        
4-(2-Isopropyl-6-((phenylthio)methyl)phenylimino)-2-(2,6-di-isopropylphenylamino)pent-2-ene
_symmetry_cell_setting           triclinic
_symmetry_space_group_name_H-M   'P -1'
_symmetry_Int_Tables_number      2
_space_group_name_Hall           '-P 1'
loop_
_symmetry_equiv_pos_site_id
_symmetry_equiv_pos_as_xyz
1 x,y,z
2 -x,-y,-z
_cell_length_a                   8.7592(10)
_cell_length_b                   11.9627(14)
_cell_length_c                   15.3124(18)
_cell_angle_alpha                103.245(2)
_cell_angle_beta                 99.236(2)
_cell_angle_gamma                105.793(2)
_cell_volume                     1459.69
_exptl_crystal_colour            colorless
_exptl_crystal_description       block
_cell_formula_units_Z            2
_exptl_crystal_recrystallization_method ethanol
loop_
_atom_site_label
_atom_site_type_symbol
_atom_site_fract_x
_atom_site_fract_y
_atom_site_fract_z
S1 S 0.85469(9) 0.24088(6) 0.44684(5)
N1 N 0.4193(2) 0.14064(17) 0.27255(13)
N2 N 0.3882(2) 0.27249(17) 0.15767(13)
H2 H 0.3815 0.2594 0.2173
C1 C 0.5493(4) -0.0163(3) 0.23353(19)
H3 H 0.6032 0.0071 0.2992
H4 H 0.6283 -0.0271 0.1964
H5 H 0.4591 -0.0925 0.2179
C2 C 0.4836(3) 0.0817(2) 0.21362(16)
C3 C 0.4947(3) 0.1095(2) 0.12928(16)
H6 H 0.5376 0.0618 0.0876
C4 C 0.4481(3) 0.2008(2) 0.10285(15)
C5 C 0.4642(4) 0.2203(3) 0.01062(18)
H7 H 0.3558 0.2066 -0.0274
H8 H 0.5139 0.1634 -0.0206
H9 H 0.5334 0.3037 0.0198
C6 C 0.4113(3) 0.1228(2) 0.36058(15)
C7 C 0.2756(3) 0.0377(2) 0.37212(16)
C8 C 0.2655(3) 0.0342(2) 0.46115(18)
H10 H 0.1747 -0.0235 0.4697
C9 C 0.3839(3) 0.1125(2) 0.53726(18)
H11 H 0.3732 0.1097 0.5975
C10 C 0.5181(3) 0.1951(2) 0.52584(17)
H12 H 0.6008 0.2477 0.5784
C11 C 0.5336(3) 0.2021(2) 0.43841(16)
C12 C 0.1424(3) -0.0498(2) 0.29017(18)
H13 H 0.1690 -0.0311 0.2329
C13 C -0.0243(4) -0.0369(3) 0.2949(3)
H14 H -0.0533 -0.0553 0.3504
H15 H -0.1062 -0.0933 0.2400
H16 H -0.0207 0.0464 0.2973
C14 C 0.1351(4) -0.1812(2) 0.2824(2)
H17 H 0.2416 -0.1900 0.2776
H18 H 0.0517 -0.2355 0.2273
H19 H 0.1072 -0.2021 0.3374
C15 C 0.6799(3) 0.2934(2) 0.42673(17)
H20 H 0.7015 0.3735 0.4713
H21 H 0.6591 0.3019 0.3635
C16 C 1.0061(3) 0.3395(2) 0.41148(17)
C17 C 0.9816(3) 0.4292(2) 0.37226(18)
H22 H 0.8795 0.4436 0.3664
C18 C 1.1044(3) 0.4972(2) 0.34188(18)
H23 H 1.0857 0.5574 0.3144
C19 C 1.2525(4) 0.4794(2) 0.35079(19)
H24 H 1.3359 0.5259 0.3287
C20 C 1.2808(3) 0.3937(3) 0.3919(2)
H25 H 1.3849 0.3825 0.3992
C21 C 1.1595(3) 0.3239(2) 0.4226(2)
H26 H 1.1804 0.2653 0.4512
C22 C 0.3328(3) 0.3673(2) 0.13615(15)
C23 C 0.1656(3) 0.3411(2) 0.09903(16)
C24 C 0.1110(3) 0.4371(3) 0.08792(18)
H27 H -0.0018 0.4219 0.0633
C25 C 0.2172(4) 0.5533(2) 0.11186(18)
H28 H 0.1769 0.6178 0.1050
C26 C 0.3825(3) 0.5771(2) 0.14593(17)
H29 H 0.4552 0.6576 0.1607
C27 C 0.4438(3) 0.4847(2) 0.15887(16)
C28 C 0.0478(3) 0.2129(3) 0.07412(19)
H30 H 0.1157 0.1577 0.0705
C29 C -0.0697(5) 0.1740(3) -0.0194(3)
H31 H -0.1429 0.2231 -0.0182
H32 H -0.1341 0.0882 -0.0341
H33 H -0.0081 0.1856 -0.0665
C30 C -0.0414(5) 0.1939(4) 0.1484(3)
H34 H -0.1104 0.2461 0.1542
H35 H 0.0379 0.2144 0.2073
H36 H -0.1098 0.1089 0.1321
C31 C 0.6259(3) 0.5132(2) 0.19722(19)
H37 H 0.6460 0.4351 0.1982
C32 C 0.7261(4) 0.5685(3) 0.1349(2)
H38 H 0.7238 0.6514 0.1410
H39 H 0.6791 0.5193 0.0704
H40 H 0.8393 0.5702 0.1534
C33 C 0.6833(3) 0.5962(3) 0.2956(2)
H41 H 0.6620 0.6728 0.2969
H42 H 0.8007 0.6124 0.3178
H43 H 0.6242 0.5571 0.3354
H1? H 0.3901 0.2085 0.2575
loop_
_geom_bond_atom_site_label_1
_geom_bond_atom_site_label_2
_geom_bond_site_symmetry_1
_geom_bond_site_symmetry_2
S1 C15 1_555 1_555
N1 C2 1_555 1_555
N2 H2 1_555 1_555
C1 H3 1_555 1_555
H4 C1 1_555 1_555
H5 C1 1_555 1_555
C2 C1 1_555 1_555
C3 C2 1_555 1_555
H6 C3 1_555 1_555
C4 N2 1_555 1_555
C5 C4 1_555 1_555
H7 C5 1_555 1_555
H8 C5 1_555 1_555
H9 C5 1_555 1_555
C6 N1 1_555 1_555
C7 C6 1_555 1_555
C8 C7 1_555 1_555
H10 C8 1_555 1_555
C9 C8 1_555 1_555
H11 C9 1_555 1_555
C10 C9 1_555 1_555
H12 C10 1_555 1_555
C11 C6 1_555 1_555
C12 C7 1_555 1_555
H13 C12 1_555 1_555
C13 C12 1_555 1_555
H14 C13 1_555 1_555
H15 C13 1_555 1_555
H16 C13 1_555 1_555
C14 C12 1_555 1_555
H17 C14 1_555 1_555
H18 C14 1_555 1_555
H19 C14 1_555 1_555
C15 C11 1_555 1_555
H20 C15 1_555 1_555
H21 C15 1_555 1_555
C16 S1 1_555 1_555
C17 C16 1_555 1_555
H22 C17 1_555 1_555
C18 C17 1_555 1_555
H23 C18 1_555 1_555
C19 C18 1_555 1_555
H24 C19 1_555 1_555
C20 C19 1_555 1_555
H25 C20 1_555 1_555
C21 C16 1_555 1_555
H26 C21 1_555 1_555
C22 N2 1_555 1_555
C23 C22 1_555 1_555
C24 C23 1_555 1_555
H27 C24 1_555 1_555
C25 C24 1_555 1_555
H28 C25 1_555 1_555
C26 C25 1_555 1_555
H29 C26 1_555 1_555
C27 C22 1_555 1_555
C28 C23 1_555 1_555
H30 C28 1_555 1_555
C29 C28 1_555 1_555
H31 C29 1_555 1_555
H32 C29 1_555 1_555
H33 C29 1_555 1_555
C30 C28 1_555 1_555
H34 C30 1_555 1_555
H35 C30 1_555 1_555
H36 C30 1_555 1_555
C31 C27 1_555 1_555
H37 C31 1_555 1_555
C32 C31 1_555 1_555
H38 C32 1_555 1_555
H39 C32 1_555 1_555
H40 C32 1_555 1_555
C33 C31 1_555 1_555
H41 C33 1_555 1_555
H42 C33 1_555 1_555
H43 C33 1_555 1_555
C3 C4 1_555 1_555
C10 C11 1_555 1_555
C20 C21 1_555 1_555
C26 C27 1_555 1_555

#END
