
#######################################################################
#
#                 Cambridge Crystallographic Data Centre
#                                CCDC 
#
#######################################################################
#
# If this CIF has been generated from an entry in the Cambridge 
# Structural Database, then it will include bibliographic, chemical, 
# crystal, experimental, refinement or atomic coordinate data resulting 
# from the CCDC's data processing and validation procedures.
#
#######################################################################

data_LEJFIS
_chemical_formula_moiety         'C126 H102,C60,C8 H10'
_chemical_name_systematic        
'hexakis(3,5-bis(4-methylphenyl)phenyl)benzene C60fullerene 1,2-xylene solvate'
_symmetry_cell_setting           monoclinic
_symmetry_space_group_name_H-M   'P 21/c'
_symmetry_Int_Tables_number      14
_space_group_name_Hall           '-P 2ybc'
loop_
_symmetry_equiv_pos_site_id
_symmetry_equiv_pos_as_xyz
1 x,y,z
2 -x,1/2+y,1/2-z
3 -x,-y,-z
4 x,1/2-y,1/2+z
_cell_length_a                   14.0826(2)
_cell_length_b                   31.5924(5)
_cell_length_c                   28.8742(5)
_cell_angle_alpha                90
_cell_angle_beta                 101.862(2)
_cell_angle_gamma                90
_cell_volume                     12571.9
_exptl_crystal_colour            'dark red'
_exptl_crystal_description       prism
_cell_formula_units_Z            4
loop_
_atom_site_label
_atom_site_type_symbol
_atom_site_fract_x
_atom_site_fract_y
_atom_site_fract_z
C1 C 0.7091(7) 0.3408(3) 0.2900(3)
C2 C 0.7064(6) 0.2962(3) 0.2851(3)
C3 C 0.7224(6) 0.2710(3) 0.3261(3)
C4 C 0.7408(6) 0.2895(3) 0.3707(3)
C5 C 0.7414(6) 0.3344(3) 0.3759(3)
C6 C 0.7264(6) 0.3595(3) 0.3350(3)
C7 C 0.6949(7) 0.3694(3) 0.2478(3)
C8 C 0.6161(7) 0.3971(3) 0.2396(4)
H1 H 0.5723 0.3972 0.2606
C9 C 0.6005(8) 0.4249(3) 0.2008(4)
C10 C 0.6662(7) 0.4254(3) 0.1716(4)
H2 H 0.6571 0.4448 0.1459
C11 C 0.7463(7) 0.3980(3) 0.1787(4)
C12 C 0.7582(7) 0.3701(3) 0.2171(3)
H3 H 0.8116 0.3510 0.2222
C13 C 0.5101(8) 0.4510(4) 0.1935(4)
C14 C 0.4807(9) 0.4707(4) 0.2304(4)
H4 H 0.5218 0.4706 0.2609
C15 C 0.3894(9) 0.4912(4) 0.2234(5)
H5 H 0.3699 0.5049 0.2492
C16 C 0.3294(9) 0.4913(4) 0.1801(5)
C17 C 0.3592(9) 0.4736(4) 0.1436(5)
H6 H 0.3180 0.4750 0.1131
C18 C 0.4491(9) 0.4531(4) 0.1485(4)
H7 H 0.4683 0.4408 0.1218
C19 C 0.8203(7) 0.3996(3) 0.1496(4)
C20 C 0.8773(14) 0.4365(6) 0.1457(7)
H8 H 0.8606 0.4621 0.1593
C21 C 0.9560(13) 0.4368(6) 0.1232(6)
H9 H 0.9857 0.4630 0.1183
C22 C 0.9916(14) 0.3995(6) 0.1078(7)
C23 C 0.9423(14) 0.3619(8) 0.1141(8)
H10 H 0.9625 0.3361 0.1022
C24 C 0.8650(18) 0.3614(11) 0.1369(12)
H11 H 0.8404 0.3349 0.1446
C25 C 1.0782(13) 0.3992(6) 0.0861(6)
H12 H 1.1056 0.4278 0.0871
H13 H 1.0595 0.3898 0.0531
H14 H 1.1268 0.3797 0.1036
C26 C 0.2273(10) 0.5101(4) 0.1740(5)
H15 H 0.1932 0.5071 0.1410
H16 H 0.2320 0.5402 0.1825
H17 H 0.1913 0.4951 0.1947
C27 C 0.6966(6) 0.2777(3) 0.2373(3)
C28 C 0.6187(6) 0.2884(3) 0.2003(3)
H18 H 0.5652 0.3037 0.2072
C29 C 0.6185(6) 0.2771(3) 0.1534(3)
C30 C 0.6962(6) 0.2537(3) 0.1439(3)
H19 H 0.6982 0.2467 0.1122
C31 C 0.7721(6) 0.2405(3) 0.1811(3)
C32 C 0.7705(6) 0.2528(3) 0.2267(3)
H20 H 0.8216 0.2440 0.2517
C33 C 0.5377(7) 0.2913(3) 0.1148(3)
C34 C 0.4820(7) 0.3267(3) 0.1205(3)
H21 H 0.4952 0.3418 0.1495
C35 C 0.4068(7) 0.3401(3) 0.0838(3)
H22 H 0.3688 0.3639 0.0886
C36 C 0.3869(7) 0.3193(3) 0.0405(4)
C37 C 0.4428(7) 0.2838(3) 0.0352(3)
H23 H 0.4305 0.2689 0.0061
C38 C 0.5162(7) 0.2700(3) 0.0719(3)
H24 H 0.5523 0.2454 0.0675
C39 C 0.8546(6) 0.2149(3) 0.1721(3)
C40 C 0.9029(6) 0.2239(3) 0.1358(3)
H25 H 0.8792 0.2459 0.1140
C41 C 0.9848(6) 0.2015(3) 0.1308(3)
H26 H 1.0164 0.2083 0.1057
C42 C 1.0213(6) 0.1690(3) 0.1622(3)
C43 C 0.9717(6) 0.1586(3) 0.1971(3)
H27 H 0.9933 0.1355 0.2176
C44 C 0.8907(6) 0.1815(3) 0.2027(3)
H28 H 0.8591 0.1743 0.2277
C45 C 0.3074(7) 0.3343(3) 0.0010(4)
H29 H 0.2764 0.3594 0.0113
H30 H 0.2591 0.3118 -0.0076
H31 H 0.3349 0.3415 -0.0266
C46 C 1.1136(7) 0.1461(3) 0.1584(3)
H32 H 1.1281 0.1245 0.1832
H33 H 1.1672 0.1664 0.1622
H34 H 1.1052 0.1326 0.1273
C47 C 0.7271(6) 0.2236(3) 0.3228(3)
C48 C 0.6447(7) 0.1995(3) 0.3082(3)
H35 H 0.5840 0.2132 0.2976
C49 C 0.6491(7) 0.1550(3) 0.3086(3)
C50 C 0.7401(7) 0.1358(3) 0.3222(3)
H36 H 0.7446 0.1058 0.3217
C51 C 0.8242(7) 0.1596(3) 0.3365(3)
C52 C 0.8158(7) 0.2036(3) 0.3371(3)
H37 H 0.8723 0.2202 0.3476
C53 C 0.5594(7) 0.1292(3) 0.2982(4)
C54 C 0.4800(7) 0.1413(3) 0.2623(4)
H38 H 0.4841 0.1661 0.2443
C55 C 0.3964(7) 0.1171(3) 0.2534(4)
H39 H 0.3437 0.1257 0.2291
C56 C 0.3871(8) 0.0803(3) 0.2790(4)
C57 C 0.4653(7) 0.0692(3) 0.3149(4)
H40 H 0.4606 0.0448 0.3335
C58 C 0.5495(7) 0.0928(3) 0.3239(4)
H41 H 0.6020 0.0840 0.3482
C59 C 0.9219(7) 0.1401(3) 0.3496(3)
C60 C 0.9533(7) 0.1095(3) 0.3220(4)
H42 H 0.9098 0.0994 0.2946
C61 C 1.0467(7) 0.0931(3) 0.3330(4)
H43 H 1.0664 0.0723 0.3131
C62 C 1.1121(7) 0.1072(3) 0.3737(4)
C63 C 1.0805(7) 0.1367(3) 0.4022(4)
H44 H 1.1234 0.1457 0.4302
C64 C 0.9872(7) 0.1536(3) 0.3910(4)
H45 H 0.9675 0.1741 0.4111
C65 C 0.2964(8) 0.0538(3) 0.2678(4)
H46 H 0.2501 0.0667 0.2417
H47 H 0.2674 0.0521 0.2958
H48 H 0.3128 0.0253 0.2586
C66 C 1.2150(7) 0.0908(3) 0.3844(4)
H49 H 1.2504 0.1035 0.4139
H50 H 1.2470 0.0984 0.3584
H51 H 1.2143 0.0600 0.3877
C67 C 0.7683(6) 0.2627(3) 0.4145(3)
C68 C 0.7061(6) 0.2333(3) 0.4273(3)
H52 H 0.6420 0.2308 0.4090
C69 C 0.7354(7) 0.2069(3) 0.4666(3)
C70 C 0.8295(6) 0.2118(3) 0.4932(3)
H53 H 0.8505 0.1942 0.5201
C71 C 0.8930(6) 0.2415(3) 0.4815(3)
C72 C 0.8615(6) 0.2664(3) 0.4414(3)
H54 H 0.9048 0.2863 0.4323
C73 C 0.6690(7) 0.1740(3) 0.4783(3)
C74 C 0.6019(7) 0.1539(3) 0.4418(4)
H55 H 0.5975 0.1624 0.4099
C75 C 0.5423(7) 0.1219(3) 0.4523(4)
H56 H 0.4974 0.1089 0.4272
C76 C 0.5467(7) 0.1084(3) 0.4983(4)
C77 C 0.6124(7) 0.1287(3) 0.5344(4)
H57 H 0.6162 0.1203 0.5664
C78 C 0.6722(7) 0.1609(3) 0.5242(4)
H58 H 0.7161 0.1742 0.5493
C79 C 0.9936(7) 0.2476(3) 0.5102(3)
C80 C 1.0462(7) 0.2144(3) 0.5343(3)
H59 H 1.0189 0.1867 0.5321
C81 C 1.1385(7) 0.2210(3) 0.5616(3)
H60 H 1.1724 0.1979 0.5783
C82 C 1.1823(7) 0.2604(3) 0.5650(3)
C83 C 1.1306(7) 0.2933(3) 0.5394(3)
H61 H 1.1599 0.3205 0.5400
C84 C 1.0373(7) 0.2875(3) 0.5131(3)
H62 H 1.0029 0.3108 0.4968
C85 C 0.4821(8) 0.0733(3) 0.5085(4)
H63 H 0.4946 0.0679 0.5426
H64 H 0.4954 0.0476 0.4919
H65 H 0.4140 0.0815 0.4975
C86 C 1.2807(7) 0.2683(3) 0.5957(4)
H66 H 1.3066 0.2417 0.6107
H67 H 1.2749 0.2890 0.6202
H68 H 1.3245 0.2792 0.5762
C87 C 0.7655(7) 0.3537(3) 0.4237(3)
C88 C 0.7084(7) 0.3472(3) 0.4571(3)
H69 H 0.6500 0.3315 0.4484
C89 C 0.7349(7) 0.3633(3) 0.5031(3)
C90 C 0.8219(7) 0.3859(3) 0.5148(3)
H70 H 0.8417 0.3967 0.5460
C91 C 0.8799(7) 0.3929(3) 0.4823(3)
C92 C 0.8505(7) 0.3772(3) 0.4366(3)
H71 H 0.8890 0.3826 0.4138
C93 C 0.6717(7) 0.3579(3) 0.5373(3)
C94 C 0.5708(7) 0.3611(3) 0.5230(4)
H72 H 0.5429 0.3659 0.4906
C95 C 0.5110(7) 0.3575(3) 0.5549(4)
H73 H 0.4428 0.3599 0.5440
C96 C 0.5480(7) 0.3505(3) 0.6027(4)
C97 C 0.6488(7) 0.3473(3) 0.6168(4)
H74 H 0.6766 0.3426 0.6493
C98 C 0.7086(7) 0.3507(3) 0.5850(3)
H75 H 0.7767 0.3480 0.5959
C99 C 0.9748(7) 0.4150(3) 0.4943(4)
C100 C 1.0417(7) 0.4044(3) 0.5355(4)
H76 H 1.0237 0.3853 0.5576
C101 C 1.1344(8) 0.4216(3) 0.5443(4)
H77 H 1.1797 0.4132 0.5719
C102 C 1.1618(8) 0.4504(4) 0.5140(4)
C103 C 1.0932(8) 0.4623(3) 0.4734(4)
H78 H 1.1100 0.4826 0.4521
C104 C 1.0015(8) 0.4446(3) 0.4644(4)
H79 H 0.9559 0.4530 0.4369
C105 C 0.4844(8) 0.3467(4) 0.6384(4)
H80 H 0.4163 0.3494 0.6224
H81 H 0.5009 0.3691 0.6621
H82 H 0.4947 0.3190 0.6540
C106 C 1.2629(8) 0.4684(4) 0.5228(4)
H83 H 1.3010 0.4568 0.5523
H84 H 1.2597 0.4993 0.5253
H85 H 1.2938 0.4609 0.4964
C107 C 0.7299(7) 0.4066(3) 0.3404(3)
C108 C 0.6606(7) 0.4269(3) 0.3592(3)
H86 H 0.6122 0.4105 0.3695
C109 C 0.6587(7) 0.4710(3) 0.3640(4)
C110 C 0.7339(7) 0.4941(3) 0.3511(3)
H87 H 0.7350 0.5240 0.3545
C111 C 0.8070(7) 0.4742(3) 0.3336(4)
C112 C 0.8025(7) 0.4302(3) 0.3266(3)
H88 H 0.8493 0.4166 0.3123
C113 C 0.5765(7) 0.4904(3) 0.3809(4)
C114 C 0.5445(7) 0.4732(3) 0.4195(4)
H89 H 0.5795 0.4503 0.4364
C115 C 0.4632(7) 0.4886(3) 0.4338(4)
H90 H 0.4440 0.4767 0.4607
C116 C 0.4093(8) 0.5212(3) 0.4090(4)
C117 C 0.4424(8) 0.5391(3) 0.3721(4)
H91 H 0.4082 0.5624 0.3557
C118 C 0.5252(7) 0.5239(3) 0.3581(4)
H92 H 0.5463 0.5369 0.3324
C119 C 0.8919(7) 0.4971(3) 0.3226(4)
C120 C 0.9472(7) 0.5239(3) 0.3563(4)
H93 H 0.9268 0.5296 0.3851
C121 C 1.0318(8) 0.5422(3) 0.3479(4)
H94 H 1.0677 0.5605 0.3712
C122 C 1.0643(8) 0.5351(3) 0.3085(4)
C123 C 1.0086(8) 0.5099(3) 0.2732(4)
H95 H 1.0286 0.5058 0.2440
C124 C 0.9235(7) 0.4907(3) 0.2808(4)
H96 H 0.8871 0.4730 0.2570
C125 C 0.3189(8) 0.5360(4) 0.4237(4)
H97 H 0.2893 0.5589 0.4027
H98 H 0.3351 0.5463 0.4564
H99 H 0.2731 0.5123 0.4216
C126 C 1.1604(8) 0.5526(4) 0.3006(4)
H100 H 1.1911 0.5694 0.3282
H101 H 1.1488 0.5706 0.2723
H102 H 1.2033 0.5292 0.2962
C133 C 0.113(2) 0.2423(9) 0.3757(11)
C134 C 0.4138(10) 0.3810(5) 0.3898(5)
C135 C 0.3457(11) 0.3326(6) 0.4391(5)
C136 C 0.4156(12) 0.3059(5) 0.4215(6)
C137 C 0.2514(13) 0.2716(6) 0.4319(5)
C138 C 0.3737(11) 0.2498(5) 0.2665(6)
C139 C 0.0893(10) 0.3882(5) 0.3751(5)
C140 C 0.3451(12) 0.3745(6) 0.4225(6)
C141 C 0.0447(12) 0.3316(6) 0.2196(6)
C142 C 0.2953(13) 0.3041(6) 0.2093(6)
C143 C 0.1165(12) 0.3055(6) 0.2000(5)
C144 C 0.4694(10) 0.3477(6) 0.3162(6)
C145 C 0.1685(11) 0.3351(6) 0.4304(5)
C146 C 0.0455(11) 0.2578(5) 0.2513(6)
C147 C 0.3733(12) 0.3360(6) 0.2339(6)
C148 C 0.0278(12) 0.3578(6) 0.3605(7)
C149 C 0.2119(13) 0.3693(6) 0.2088(5)
C150 C 0.1726(12) 0.3772(6) 0.4145(5)
C151 C 0.3293(17) 0.2208(6) 0.2966(9)
C152 C 0.1918(16) 0.2174(6) 0.3614(8)
C153 C 0.2610(14) 0.3127(6) 0.4442(6)
C154 C 0.2903(13) 0.2615(6) 0.2256(6)
C155 C 0.4188(13) 0.3876(6) 0.3057(7)
C156 C 0.2564(12) 0.3979(6) 0.4085(6)
C157 C 0.4623(10) 0.3381(7) 0.3887(6)
C158 C -0.0088(11) 0.2913(7) 0.3235(8)
C159 C 0.1799(15) 0.4217(5) 0.2729(7)
C160 C 0.4356(12) 0.2799(6) 0.2807(7)
C161 C 0.1301(15) 0.4164(6) 0.3442(7)
C162 C 0.2700(16) 0.4229(6) 0.2823(8)
C163 C 0.0925(14) 0.3042(7) 0.4069(7)
C164 C 0.2038(14) 0.3274(6) 0.1961(5)
C165 C 0.4269(13) 0.2493(6) 0.3593(7)
C166 C 0.1156(12) 0.2621(6) 0.2196(6)
C167 C 0.4706(11) 0.2802(6) 0.3415(7)
C168 C 0.1539(19) 0.2606(8) 0.4090(9)
C169 C 0.2064(14) 0.2392(6) 0.2330(7)
C170 C 0.0348(13) 0.3879(6) 0.2808(7)
C171 C -0.0066(11) 0.3588(6) 0.2994(7)
C172 C 0.134(2) 0.3893(8) 0.2271(9)
C173 C 0.2452(14) 0.4219(5) 0.3683(7)
C174 C 0.4366(14) 0.3185(7) 0.2677(8)
C175 C 0.2126(17) 0.2157(6) 0.2734(8)
C176 C 0.1494(18) 0.2133(7) 0.3072(9)
C177 C -0.0219(18) 0.3168(10) 0.2912(11)
C178 C -0.0009(11) 0.3018(7) 0.2506(7)
C179 C 0.2814(15) 0.2168(6) 0.3688(8)
C180 C 0.3127(18) 0.3790(7) 0.2340(7)
C181 C 0.0422(15) 0.2525(7) 0.3359(9)
C182 C 0.329(2) 0.2497(8) 0.4123(9)
C183 C 0.3880(18) 0.4053(7) 0.3508(9)
C184 C 0.3086(19) 0.4245(7) 0.3389(9)
C185 C 0.1141(19) 0.4174(7) 0.3012(10)
C186 C 0.070(2) 0.2345(8) 0.2934(11)
C187 C 0.350(2) 0.2205(9) 0.3386(11)
C188 C 0.397(2) 0.2651(10) 0.4060(10)
C189 C 0.0279(17) 0.3192(9) 0.3724(9)
C190 C 0.066(2) 0.3734(9) 0.2329(9)
C191 C 0.4843(17) 0.3215(9) 0.3489(10)
C192 C 0.349(2) 0.3993(10) 0.2697(13)
C193 C 0.2301(19) 0.4561(8) 0.0264(10)
C194 C 0.1944(12) 0.5033(4) 0.0288(6)
C195 C 0.2148(12) 0.5332(5) -0.0030(5)
C196 C 0.1860(13) 0.5750(4) 0.0000(5)
C197 C 0.1367(13) 0.5869(4) 0.0350(6)
C198 C 0.1163(12) 0.5570(5) 0.0669(5)
C199 C 0.1451(12) 0.5152(4) 0.0638(5)
C200 C 0.2715(19) 0.5187(9) -0.0402(10)
C127? C 0.8367(19) 0.4380(8) 0.1284(9)
H103? H 0.8007 0.4627 0.1325
C128? C 0.9061(18) 0.4389(8) 0.1016(9)
H104? H 0.9237 0.4654 0.0902
C129? C 0.9513(19) 0.4027(8) 0.0907(9)
C130? C 0.9206(19) 0.3648(10) 0.1077(11)
H105? H 0.9492 0.3390 0.1005
C131? C 0.853(2) 0.3633(16) 0.1337(17)
H106? H 0.8278 0.3369 0.1410
C132? C 1.0285(17) 0.4040(8) 0.0626(9)
H107? H 1.0325 0.4325 0.0500
H108? H 1.0131 0.3837 0.0364
H109? H 1.0908 0.3964 0.0830
C201? C 0.020(3) 0.5430(12) 0.0568(14)
C202? C 0.0867(16) 0.5229(8) 0.0328(9)
C203? C 0.1715(19) 0.5455(6) 0.0332(9)
C204? C 0.2435(15) 0.5284(8) 0.0123(10)
C205? C 0.2305(16) 0.4888(8) -0.0090(9)
C206? C 0.1456(19) 0.4662(6) -0.0094(9)
C207? C 0.0737(15) 0.4833(8) 0.0115(9)
C208? C 0.185(3) 0.5888(13) 0.0555(15)
loop_
_geom_bond_atom_site_label_1
_geom_bond_atom_site_label_2
_geom_bond_site_symmetry_1
_geom_bond_site_symmetry_2
C1 C2 1_555 1_555
C2 C3 1_555 1_555
C3 C4 1_555 1_555
C4 C5 1_555 1_555
C5 C6 1_555 1_555
C6 C1 1_555 1_555
C7 C1 1_555 1_555
C8 C7 1_555 1_555
H1 C8 1_555 1_555
C9 C8 1_555 1_555
C10 C9 1_555 1_555
H2 C10 1_555 1_555
C11 C10 1_555 1_555
C12 C7 1_555 1_555
H3 C12 1_555 1_555
C13 C9 1_555 1_555
C14 C13 1_555 1_555
H4 C14 1_555 1_555
C15 C14 1_555 1_555
H5 C15 1_555 1_555
C16 C15 1_555 1_555
C17 C16 1_555 1_555
H6 C17 1_555 1_555
C18 C13 1_555 1_555
H7 C18 1_555 1_555
C19 C11 1_555 1_555
C20 C19 1_555 1_555
H8 C20 1_555 1_555
C21 C20 1_555 1_555
H9 C21 1_555 1_555
C22 C21 1_555 1_555
C23 C22 1_555 1_555
H10 C23 1_555 1_555
C24 C19 1_555 1_555
H11 C24 1_555 1_555
C25 C22 1_555 1_555
H12 C25 1_555 1_555
H13 C25 1_555 1_555
H14 C25 1_555 1_555
C26 C16 1_555 1_555
H15 C26 1_555 1_555
H16 C26 1_555 1_555
H17 C26 1_555 1_555
C27 C2 1_555 1_555
C28 C27 1_555 1_555
H18 C28 1_555 1_555
C29 C28 1_555 1_555
C30 C29 1_555 1_555
H19 C30 1_555 1_555
C31 C30 1_555 1_555
C32 C27 1_555 1_555
H20 C32 1_555 1_555
C33 C29 1_555 1_555
C34 C33 1_555 1_555
H21 C34 1_555 1_555
C35 C34 1_555 1_555
H22 C35 1_555 1_555
C36 C35 1_555 1_555
C37 C36 1_555 1_555
H23 C37 1_555 1_555
C38 C33 1_555 1_555
H24 C38 1_555 1_555
C39 C31 1_555 1_555
C40 C39 1_555 1_555
H25 C40 1_555 1_555
C41 C40 1_555 1_555
H26 C41 1_555 1_555
C42 C41 1_555 1_555
C43 C42 1_555 1_555
H27 C43 1_555 1_555
C44 C39 1_555 1_555
H28 C44 1_555 1_555
C45 C36 1_555 1_555
H29 C45 1_555 1_555
H30 C45 1_555 1_555
H31 C45 1_555 1_555
C46 C42 1_555 1_555
H32 C46 1_555 1_555
H33 C46 1_555 1_555
H34 C46 1_555 1_555
C47 C3 1_555 1_555
C48 C47 1_555 1_555
H35 C48 1_555 1_555
C49 C48 1_555 1_555
C50 C49 1_555 1_555
H36 C50 1_555 1_555
C51 C50 1_555 1_555
C52 C47 1_555 1_555
H37 C52 1_555 1_555
C53 C49 1_555 1_555
C54 C53 1_555 1_555
H38 C54 1_555 1_555
C55 C54 1_555 1_555
H39 C55 1_555 1_555
C56 C55 1_555 1_555
C57 C56 1_555 1_555
H40 C57 1_555 1_555
C58 C53 1_555 1_555
H41 C58 1_555 1_555
C59 C51 1_555 1_555
C60 C59 1_555 1_555
H42 C60 1_555 1_555
C61 C60 1_555 1_555
H43 C61 1_555 1_555
C62 C61 1_555 1_555
C63 C62 1_555 1_555
H44 C63 1_555 1_555
C64 C59 1_555 1_555
H45 C64 1_555 1_555
C65 C56 1_555 1_555
H46 C65 1_555 1_555
H47 C65 1_555 1_555
H48 C65 1_555 1_555
C66 C62 1_555 1_555
H49 C66 1_555 1_555
H50 C66 1_555 1_555
H51 C66 1_555 1_555
C67 C4 1_555 1_555
C68 C67 1_555 1_555
H52 C68 1_555 1_555
C69 C68 1_555 1_555
C70 C69 1_555 1_555
H53 C70 1_555 1_555
C71 C70 1_555 1_555
C72 C67 1_555 1_555
H54 C72 1_555 1_555
C73 C69 1_555 1_555
C74 C73 1_555 1_555
H55 C74 1_555 1_555
C75 C74 1_555 1_555
H56 C75 1_555 1_555
C76 C75 1_555 1_555
C77 C76 1_555 1_555
H57 C77 1_555 1_555
C78 C73 1_555 1_555
H58 C78 1_555 1_555
C79 C71 1_555 1_555
C80 C79 1_555 1_555
H59 C80 1_555 1_555
C81 C80 1_555 1_555
H60 C81 1_555 1_555
C82 C81 1_555 1_555
C83 C82 1_555 1_555
H61 C83 1_555 1_555
C84 C79 1_555 1_555
H62 C84 1_555 1_555
C85 C76 1_555 1_555
H63 C85 1_555 1_555
H64 C85 1_555 1_555
H65 C85 1_555 1_555
C86 C82 1_555 1_555
H66 C86 1_555 1_555
H67 C86 1_555 1_555
H68 C86 1_555 1_555
C87 C5 1_555 1_555
C88 C87 1_555 1_555
H69 C88 1_555 1_555
C89 C88 1_555 1_555
C90 C89 1_555 1_555
H70 C90 1_555 1_555
C91 C90 1_555 1_555
C92 C87 1_555 1_555
H71 C92 1_555 1_555
C93 C89 1_555 1_555
C94 C93 1_555 1_555
H72 C94 1_555 1_555
C95 C94 1_555 1_555
H73 C95 1_555 1_555
C96 C95 1_555 1_555
C97 C96 1_555 1_555
H74 C97 1_555 1_555
C98 C93 1_555 1_555
H75 C98 1_555 1_555
C99 C91 1_555 1_555
C100 C99 1_555 1_555
H76 C100 1_555 1_555
C101 C100 1_555 1_555
H77 C101 1_555 1_555
C102 C101 1_555 1_555
C103 C102 1_555 1_555
H78 C103 1_555 1_555
C104 C99 1_555 1_555
H79 C104 1_555 1_555
C105 C96 1_555 1_555
H80 C105 1_555 1_555
H81 C105 1_555 1_555
H82 C105 1_555 1_555
C106 C102 1_555 1_555
H83 C106 1_555 1_555
H84 C106 1_555 1_555
H85 C106 1_555 1_555
C107 C6 1_555 1_555
C108 C107 1_555 1_555
H86 C108 1_555 1_555
C109 C108 1_555 1_555
C110 C109 1_555 1_555
H87 C110 1_555 1_555
C111 C110 1_555 1_555
C112 C107 1_555 1_555
H88 C112 1_555 1_555
C113 C109 1_555 1_555
C114 C113 1_555 1_555
H89 C114 1_555 1_555
C115 C114 1_555 1_555
H90 C115 1_555 1_555
C116 C115 1_555 1_555
C117 C116 1_555 1_555
H91 C117 1_555 1_555
C118 C113 1_555 1_555
H92 C118 1_555 1_555
C119 C111 1_555 1_555
C120 C119 1_555 1_555
H93 C120 1_555 1_555
C121 C120 1_555 1_555
H94 C121 1_555 1_555
C122 C121 1_555 1_555
C123 C122 1_555 1_555
H95 C123 1_555 1_555
C124 C119 1_555 1_555
H96 C124 1_555 1_555
C125 C116 1_555 1_555
H97 C125 1_555 1_555
H98 C125 1_555 1_555
H99 C125 1_555 1_555
C126 C122 1_555 1_555
H100 C126 1_555 1_555
H101 C126 1_555 1_555
H102 C126 1_555 1_555
C133 C152 1_555 1_555
C134 C140 1_555 1_555
C135 C136 1_555 1_555
C136 C157 1_555 1_555
C137 C153 1_555 1_555
C138 C151 1_555 1_555
C139 C148 1_555 1_555
C140 C135 1_555 1_555
C141 C143 1_555 1_555
C142 C147 1_555 1_555
C143 C164 1_555 1_555
C144 C155 1_555 1_555
C145 C150 1_555 1_555
C146 C166 1_555 1_555
C147 C174 1_555 1_555
C148 C171 1_555 1_555
C149 C164 1_555 1_555
C150 C139 1_555 1_555
C151 C175 1_555 1_555
C152 C176 1_555 1_555
C153 C135 1_555 1_555
C154 C138 1_555 1_555
C155 C183 1_555 1_555
C156 C140 1_555 1_555
C157 C134 1_555 1_555
C158 C177 1_555 1_555
C159 C162 1_555 1_555
C160 C138 1_555 1_555
C161 C139 1_555 1_555
C162 C184 1_555 1_555
C163 C145 1_555 1_555
C164 C142 1_555 1_555
C165 C167 1_555 1_555
C166 C143 1_555 1_555
C167 C160 1_555 1_555
C168 C133 1_555 1_555
C169 C154 1_555 1_555
C170 C171 1_555 1_555
C171 C177 1_555 1_555
C172 C149 1_555 1_555
C173 C156 1_555 1_555
C174 C144 1_555 1_555
C175 C169 1_555 1_555
C176 C175 1_555 1_555
C177 C178 1_555 1_555
C178 C141 1_555 1_555
C179 C152 1_555 1_555
C180 C147 1_555 1_555
C181 C133 1_555 1_555
C182 C137 1_555 1_555
C183 C134 1_555 1_555
C184 C173 1_555 1_555
C185 C159 1_555 1_555
C186 C146 1_555 1_555
C187 C151 1_555 1_555
C188 C136 1_555 1_555
C189 C148 1_555 1_555
C190 C141 1_555 1_555
C191 C144 1_555 1_555
C192 C155 1_555 1_555
C193 C194 1_555 1_555
C194 C195 1_555 1_555
C195 C196 1_555 1_555
C196 C197 1_555 1_555
C197 C198 1_555 1_555
C198 C199 1_555 1_555
C199 C194 1_555 1_555
C200 C195 1_555 1_555
C11 C12 1_555 1_555
C17 C18 1_555 1_555
C23 C24 1_555 1_555
C31 C32 1_555 1_555
C37 C38 1_555 1_555
C43 C44 1_555 1_555
C51 C52 1_555 1_555
C57 C58 1_555 1_555
C63 C64 1_555 1_555
C71 C72 1_555 1_555
C77 C78 1_555 1_555
C83 C84 1_555 1_555
C91 C92 1_555 1_555
C97 C98 1_555 1_555
C103 C104 1_555 1_555
C111 C112 1_555 1_555
C117 C118 1_555 1_555
C123 C124 1_555 1_555
C137 C168 1_555 1_555
C142 C154 1_555 1_555
C145 C153 1_555 1_555
C146 C178 1_555 1_555
C149 C180 1_555 1_555
C150 C156 1_555 1_555
C157 C191 1_555 1_555
C158 C181 1_555 1_555
C158 C189 1_555 1_555
C159 C172 1_555 1_555
C160 C174 1_555 1_555
C161 C173 1_555 1_555
C161 C185 1_555 1_555
C162 C192 1_555 1_555
C163 C168 1_555 1_555
C163 C189 1_555 1_555
C165 C187 1_555 1_555
C165 C188 1_555 1_555
C166 C169 1_555 1_555
C167 C191 1_555 1_555
C170 C185 1_555 1_555
C170 C190 1_555 1_555
C172 C190 1_555 1_555
C176 C186 1_555 1_555
C179 C182 1_555 1_555
C179 C187 1_555 1_555
C180 C192 1_555 1_555
C181 C186 1_555 1_555
C182 C188 1_555 1_555
C183 C184 1_555 1_555

#END
