
#######################################################################
#
#                 Cambridge Crystallographic Data Centre
#                                CCDC 
#
#######################################################################
#
# If this CIF has been generated from an entry in the Cambridge 
# Structural Database, then it will include bibliographic, chemical, 
# crystal, experimental, refinement or atomic coordinate data resulting 
# from the CCDC's data processing and validation procedures.
#
#######################################################################

data_LEJLIV
_chemical_formula_moiety         'C19 H22 Br1 N5 O1 S1'
_chemical_name_systematic        
3-(4-(5-Bromo-3-methylpyrid-2-yl)butylamino)-4-(benzylamino)-1,2,5-thiadiazole-1-oxide
_chemical_properties_biological  'specific histamine H1 antagonist activity'
_symmetry_cell_setting           monoclinic
_symmetry_space_group_name_H-M   'P 21/c'
_symmetry_Int_Tables_number      14
_space_group_name_Hall           '-P 2ybc'
loop_
_symmetry_equiv_pos_site_id
_symmetry_equiv_pos_as_xyz
1 x,y,z
2 -x,1/2+y,1/2-z
3 -x,-y,-z
4 x,1/2-y,1/2+z
_cell_length_a                   36.293(7)
_cell_length_b                   4.826(2)
_cell_length_c                   11.528(3)
_cell_angle_alpha                90
_cell_angle_beta                 96.91(2)
_cell_angle_gamma                90
_cell_volume                     2004.46
_cell_formula_units_Z            4
loop_
_atom_site_label
_atom_site_type_symbol
_atom_site_fract_x
_atom_site_fract_y
_atom_site_fract_z
N1 N 0.1355(3) 0.149(1) 0.1324(6)
C1 C 0.1047(3) 0.258(2) 0.1660(7)
C2 C 0.0698(3) 0.181(1) 0.1155(5)
Br1 Br 0.02784(5) 0.3423(3) 0.1701(1)
C3 C 0.0665(3) -0.016(1) 0.0276(5)
C4 C 0.0985(3) -0.128(1) -0.0066(6)
C5 C 0.0965(5) -0.347(3) -0.100(1)
C6 C 0.1327(3) -0.042(1) 0.0473(5)
C7 C 0.1702(4) -0.147(3) 0.021(1)
C8 C 0.1836(4) -0.015(3) -0.086(1)
C9 C 0.2194(4) -0.138(3) -0.114(1)
C10 C 0.2333(4) -0.012(3) -0.219(1)
N2 N 0.2690(2) -0.139(2) -0.2383(7)
C11 C 0.2881(3) -0.051(2) -0.3188(8)
N3 N 0.2777(3) 0.131(2) -0.3987(7)
S1 S 0.31260(9) 0.2037(6) -0.4749(2)
O1 O 0.3028(2) 0.103(2) -0.5957(5)
N4 N 0.3443(3) -0.029(2) -0.4087(7)
C12 C 0.3278(3) -0.142(2) -0.3254(8)
N5 N 0.3442(3) -0.329(2) -0.2525(7)
C13 C 0.3840(3) -0.409(2) -0.2541(9)
C14 C 0.4100(2) -0.1946(9) -0.2036(6)
C15 C 0.4086(2) -0.097(1) -0.0907(6)
C16 C 0.4347(2) 0.093(1) -0.0418(5)
C17 C 0.4636(2) 0.2003(9) -0.0972(8)
C18 C 0.4637(1) 0.096(1) -0.2095(8)
C19 C 0.4384(2) -0.093(1) -0.2629(5)
H1 H 0.1075(2) 0.402(1) 0.2290(7)
H2 H 0.0412(3) -0.072(1) -0.0092(5)
H3 H 0.1221(4) -0.405(3) -0.114(1)
H4 H 0.0827(4) -0.511(3) -0.074(1)
H5 H 0.0831(4) -0.270(3) -0.174(1)
H6 H 0.1890(4) -0.102(3) 0.089(1)
H7 H 0.1692(4) -0.353(3) 0.009(1)
H8 H 0.1879(4) 0.187(3) -0.071(1)
H9 H 0.1635(4) -0.040(3) -0.152(1)
H10 H 0.2391(4) -0.117(3) -0.046(1)
H11 H 0.2147(4) -0.340(3) -0.130(1)
H12 H 0.2360(4) 0.192(3) -0.207(1)
H13 H 0.2150(4) -0.049(3) -0.290(1)
H14 H 0.2789(2) -0.286(2) -0.1879(7)
H15 H 0.3297(2) -0.421(2) -0.1998(7)
H16 H 0.3884(3) -0.440(2) -0.3371(9)
H17 H 0.3894(3) -0.583(2) -0.2083(9)
H18 H 0.3879(2) -0.161(1) -0.0474(5)
H19 H 0.4329(2) 0.166(1) 0.0384(5)
H20 H 0.4836(2) 0.3212(9) -0.0575(8)
H21 H 0.4824(1) 0.176(1) -0.2573(8)
H22 H 0.4405(2) -0.162(1) -0.3437(5)
loop_
_geom_bond_atom_site_label_1
_geom_bond_atom_site_label_2
_geom_bond_site_symmetry_1
_geom_bond_site_symmetry_2
N1 C1 1_555 1_555
C1 C2 1_555 1_555
C2 Br1 1_555 1_555
C3 C2 1_555 1_555
C4 C3 1_555 1_555
C5 C4 1_555 1_555
C6 N1 1_555 1_555
C7 C6 1_555 1_555
C8 C7 1_555 1_555
C9 C8 1_555 1_555
C10 C9 1_555 1_555
N2 C10 1_555 1_555
C11 N2 1_555 1_555
N3 C11 1_555 1_555
S1 N3 1_555 1_555
O1 S1 1_555 1_555
N4 S1 1_555 1_555
C12 C11 1_555 1_555
N5 C12 1_555 1_555
C13 N5 1_555 1_555
C14 C13 1_555 1_555
C15 C14 1_555 1_555
C16 C15 1_555 1_555
C17 C16 1_555 1_555
C18 C17 1_555 1_555
C19 C14 1_555 1_555
H1 C1 1_555 1_555
H2 C3 1_555 1_555
H3 C5 1_555 1_555
H4 C5 1_555 1_555
H5 C5 1_555 1_555
H6 C7 1_555 1_555
H7 C7 1_555 1_555
H8 C8 1_555 1_555
H9 C8 1_555 1_555
H10 C9 1_555 1_555
H11 C9 1_555 1_555
H12 C10 1_555 1_555
H13 C10 1_555 1_555
H14 N2 1_555 1_555
H15 N5 1_555 1_555
H16 C13 1_555 1_555
H17 C13 1_555 1_555
H18 C15 1_555 1_555
H19 C16 1_555 1_555
H20 C17 1_555 1_555
H21 C18 1_555 1_555
H22 C19 1_555 1_555
C4 C6 1_555 1_555
N4 C12 1_555 1_555
C18 C19 1_555 1_555

#END
