
#######################################################################
#
#                 Cambridge Crystallographic Data Centre
#                                CCDC 
#
#######################################################################
#
# If this CIF has been generated from an entry in the Cambridge 
# Structural Database, then it will include bibliographic, chemical, 
# crystal, experimental, refinement or atomic coordinate data resulting 
# from the CCDC's data processing and validation procedures.
#
#######################################################################

data_LEJMOC
_chemical_formula_moiety         'C21 H25 N5 O2'
_chemical_name_systematic        
2-(4-(3-Ethoxy-2-pyridyl)butylamino)-5-(3-pyridylmethyl)-4-pyrimidone
_chemical_properties_biological  
'specific histamine H1 and H2 antagonist activity'
_symmetry_cell_setting           monoclinic
_symmetry_space_group_name_H-M   'P 21/c'
_symmetry_Int_Tables_number      14
_space_group_name_Hall           '-P 2ybc'
loop_
_symmetry_equiv_pos_site_id
_symmetry_equiv_pos_as_xyz
1 x,y,z
2 -x,1/2+y,1/2-z
3 -x,-y,-z
4 x,1/2-y,1/2+z
_cell_length_a                   8.451(2)
_cell_length_b                   19.522(4)
_cell_length_c                   12.564(5)
_cell_angle_alpha                90
_cell_angle_beta                 106.78(3)
_cell_angle_gamma                90
_cell_volume                     1984.55
_exptl_crystal_colour            colorless
_cell_formula_units_Z            4
loop_
_atom_site_label
_atom_site_type_symbol
_atom_site_fract_x
_atom_site_fract_y
_atom_site_fract_z
C1 C 1.1558(8) 0.4214(3) 0.5276(4)
C2 C 1.1569(6) 0.3816(3) 0.4264(3)
O1 O 1.0416(3) 0.4132(1) 0.3324(2)
C3 C 1.0362(4) 0.3883(2) 0.2295(3)
C4 C 1.1279(5) 0.3342(2) 0.2111(3)
C5 C 1.1140(5) 0.3152(2) 0.1027(3)
C6 C 1.0108(5) 0.3515(2) 0.0181(3)
N1 N 0.9197(4) 0.4047(2) 0.0347(2)
C7 C 0.9301(4) 0.4235(2) 0.1387(3)
C8 C 0.8197(5) 0.4798(2) 0.1546(3)
C9 C 0.6556(5) 0.4521(2) 0.1651(3)
C10 C 0.5372(5) 0.5073(2) 0.1746(3)
C11 C 0.3735(5) 0.4805(2) 0.1825(3)
N2 N 0.2570(4) 0.5343(2) 0.1862(2)
C12 C 0.2556(4) 0.5722(2) 0.2742(3)
N3 N 0.3533(3) 0.5528(2) 0.3776(2)
C13 C 0.3577(4) 0.5888(2) 0.4734(3)
O2 O 0.4484(3) 0.5678(1) 0.5644(2)
C14 C 0.2554(4) 0.6475(2) 0.4581(3)
C15 C 0.1614(5) 0.6614(2) 0.3527(3)
N4 N 0.1566(4) 0.6253(2) 0.2609(2)
C16 C 0.2523(5) 0.6900(2) 0.5573(2)
C17 C 0.3992(5) 0.7350(2) 0.6026(3)
C18 C 0.4461(6) 0.7537(2) 0.7148(2)
N5 N 0.5721(5) 0.7950(2) 0.7616(2)
C19 C 0.6580(6) 0.8201(2) 0.6978(4)
C20 C 0.6221(6) 0.8051(2) 0.5870(4)
C21 C 0.4921(6) 0.7620(2) 0.5414(4)
H1 H 1.1839(53) 0.4719(19) 0.5188(35)
H2 H 1.2297(58) 0.3946(26) 0.5886(38)
H3 H 1.0450(47) 0.4256(25) 0.5348(38)
H4 H 1.2696(39) 0.3800(19) 0.4123(28)
H5 H 1.1237(58) 0.3306(20) 0.4263(40)
H6 H 1.2073(45) 0.3067(19) 0.2671(30)
H7 H 1.1816(51) 0.2751(20) 0.0895(35)
H8 H 0.9870(49) 0.3393(21) -0.0625(27)
H9 H 0.7991(49) 0.5108(20) 0.0888(30)
H10 H 0.6823(43) 0.4238(17) 0.2302(27)
H11 H 0.6040(50) 0.4231(21) 0.1005(31)
H12 H 0.5914(43) 0.5345(18) 0.2384(28)
H13 H 0.5194(44) 0.5381(18) 0.1093(28)
H14 H 0.3254(40) 0.4521(17) 0.1133(25)
H15 H 0.3890(43) 0.4484(18) 0.2473(27)
H16 H 0.1970(43) 0.5546(19) 0.1218(27)
H17 H 0.4242(40) 0.5120(16) 0.3882(27)
H18 H 0.0900(39) 0.7046(16) 0.3408(28)
H19 H 0.1528(37) 0.7180(17) 0.5351(26)
H20 H 0.2313(57) 0.6622(24) 0.6171(34)
H21 H 0.3761(50) 0.7307(22) 0.7577(34)
H22 H 0.7553(43) 0.8500(19) 0.7299(32)
H23 H 0.4742(53) 0.7495(22) 0.4689(29)
H24? H 0.8446(42) 0.5057(19) 0.2212(27)
H25? H 0.6872(58) 0.8307(26) 0.5641(40)
loop_
_geom_bond_atom_site_label_1
_geom_bond_atom_site_label_2
_geom_bond_site_symmetry_1
_geom_bond_site_symmetry_2
C1 C2 1_555 1_555
C2 O1 1_555 1_555
O1 C3 1_555 1_555
C3 C4 1_555 1_555
C4 C5 1_555 1_555
C5 C6 1_555 1_555
C6 N1 1_555 1_555
N1 C7 1_555 1_555
C7 C3 1_555 1_555
C8 C7 1_555 1_555
C9 C8 1_555 1_555
C10 C9 1_555 1_555
C11 C10 1_555 1_555
N2 C11 1_555 1_555
C12 N2 1_555 1_555
N3 C12 1_555 1_555
C13 N3 1_555 1_555
O2 C13 1_555 1_555
C14 C13 1_555 1_555
C15 C14 1_555 1_555
N4 C12 1_555 1_555
C16 C14 1_555 1_555
C17 C16 1_555 1_555
C18 C17 1_555 1_555
N5 C18 1_555 1_555
C19 N5 1_555 1_555
C20 C19 1_555 1_555
C21 C17 1_555 1_555
H1 C1 1_555 1_555
H2 C1 1_555 1_555
H3 C1 1_555 1_555
H4 C2 1_555 1_555
H5 C2 1_555 1_555
H6 C4 1_555 1_555
H7 C5 1_555 1_555
H8 C6 1_555 1_555
H9 C8 1_555 1_555
H10 C9 1_555 1_555
H11 C9 1_555 1_555
H12 C10 1_555 1_555
H13 C10 1_555 1_555
H14 C11 1_555 1_555
H15 C11 1_555 1_555
H16 N2 1_555 1_555
H17 N3 1_555 1_555
H18 C15 1_555 1_555
H19 C16 1_555 1_555
H20 C16 1_555 1_555
H21 C18 1_555 1_555
H22 C19 1_555 1_555
H23 C21 1_555 1_555
C15 N4 1_555 1_555
C20 C21 1_555 1_555

#END
