
#######################################################################
#
#                 Cambridge Crystallographic Data Centre
#                                CCDC 
#
#######################################################################
#
# If this CIF has been generated from an entry in the Cambridge 
# Structural Database, then it will include bibliographic, chemical, 
# crystal, experimental, refinement or atomic coordinate data resulting 
# from the CCDC's data processing and validation procedures.
#
#######################################################################

data_LEJMIW
_chemical_formula_moiety         'C18 H19 N5 O1 S1,C18 H19 N5 O1 S1'
_chemical_name_systematic        
2-(2-(3-Pyridylmethylthio)ethylamino)-5-(3-pyridylmethyl)-4-pyrimidone
_chemical_properties_biological  
'specific histamine H1 and H2 antagonist activity'
_symmetry_cell_setting           triclinic
_symmetry_space_group_name_H-M   'P 1'
_symmetry_Int_Tables_number      1
_space_group_name_Hall           'P 1'
loop_
_symmetry_equiv_pos_site_id
_symmetry_equiv_pos_as_xyz
1 x,y,z
_cell_length_a                   8.577(3)
_cell_length_b                   9.197(2)
_cell_length_c                   11.830(2)
_cell_angle_alpha                86.57(2)
_cell_angle_beta                 81.88(2)
_cell_angle_gamma                69.83(2)
_cell_volume                     867.109
_cell_formula_units_Z            1
loop_
_atom_site_label
_atom_site_type_symbol
_atom_site_fract_x
_atom_site_fract_y
_atom_site_fract_z
C1 C 0.330(1) -0.955(1) 0.1215(9)
C2 C 0.428(1) -1.069(1) 0.1865(9)
C3 C 0.400(1) -1.056(1) 0.3019(8)
N1 N 0.281(1) -0.940(1) 0.3571(7)
C4 C 0.190(1) -0.830(1) 0.2902(7)
C5 C 0.210(1) -0.828(1) 0.1736(7)
C6 C 0.100(1) -0.694(1) 0.106(1)
S1 S 0.2214(5) -0.5985(4) 0.0092(3)
C7 C 0.335(41) -0.538(1) 0.0896(8)
C8 C 0.253(2) -0.418(2) 0.1739(8)
N2 N 0.156(1) -0.2693(8) 0.1212(6)
C9 C 0.031(1) -0.1594(8) 0.1797(6)
N3 N -0.0551(9) -0.0365(7) 0.1186(5)
C10 C -0.186(1) 0.0779(8) 0.1746(6)
O1 O -0.2661(8) 0.1918(7) 0.1194(5)
C11 C -0.227(1) 0.0654(8) 0.2959(6)
C12 C -0.134(1) -0.0604(9) 0.3509(7)
N4 N -0.0032(9) -0.1741(8) 0.2926(5)
C13 C -0.367(1) 0.1953(9) 0.3576(8)
C14 C -0.3161(9) 0.3257(8) 0.3899(6)
C15 C -0.339(1) 0.4565(9) 0.3222(7)
C16 C -0.294(1) 0.5753(9) 0.3464(7)
C17 C -0.232(1) 0.5683(9) 0.4436(8)
N5 N -0.197(1) 0.4394(9) 0.5141(6)
C18 C -0.243(1) 0.3207(9) 0.4874(6)
H1 H 0.3448 -0.9631 0.0408
H2 H 0.5134 -1.1557 0.1514
H3 H 0.4712 -1.1342 0.3457
H4 H 0.1041 -0.7443 0.3274
H5 H 0.0392 -0.7331 0.0619
H6 H 0.0247 -0.6196 0.1580
H7 H 0.3981 -0.6264 0.1294
H8 H 0.4086 -0.5009 0.0379
H9 H 0.1786 -0.4518 0.2276
H10 H 0.3354 -0.4015 0.2120
H11 H 0.1838 -0.2520 0.0422
H12 H -0.1586 -0.0704 0.4312
H13 H 0.0618 -0.2622 0.3321
H14 H -0.4108 0.1539 0.4254
H15 H -0.4525 0.2357 0.3094
H16 H -0.3896 0.4628 0.2548
H17 H -0.3053 0.6613 0.2956
H18 H -0.2117 0.6568 0.4661
H19 H -0.2245 0.2323 0.5364
C19 C 0.655(1) 0.961(1) 0.8739(9)
C20 C 0.563(1) 1.071(1) 0.803(1)
C21 C 0.604(1) 1.055(1) 0.6891(8)
N6 N 0.729(1) 0.938(1) 0.6416(7)
C22 C 0.817(1) 0.836(1) 0.7120(7)
C23 C 0.785(1) 0.840(1) 0.8276(7)
C24 C 0.883(1) 0.714(1) 0.903(1)
S2 S 0.7619(5) 0.5940(4) 0.9694(4)
C25 C 0.747(2) 0.514(1) 0.841(1)
C26 C 0.718(2) 0.384(1) 0.8373(9)
N7 N 0.835(1) 0.2483(8) 0.8906(6)
C27 C 0.965(1) 0.1492(8) 0.8287(6)
N8 N 1.0551(9) 0.0204(7) 0.8841(5)
C28 C 1.187(1) -0.0976(8) 0.8318(6)
O2 O 1.2597(8) -0.2130(7) 0.8868(5)
C29 C 1.233(1) -0.0707(9) 0.7124(6)
C30 C 1.140(1) 0.0626(9) 0.6650(7)
N9 N 1.007(1) 0.1762(8) 0.7194(5)
C31 C 1.374(1) -0.1925(9) 0.6437(7)
C32 C 1.3128(9) -0.3147(8) 0.6054(6)
C33 C 1.318(1) -0.4515(9) 0.6623(7)
C34 C 1.262(1) -0.5531(9) 0.6193(7)
C35 C 1.192(1) -0.517(1) 0.5228(8)
N10 N 1.177(1) -0.3816(9) 0.4620(6)
C36 C 1.237(1) -0.2857(9) 0.5081(6)
H20 H 0.6272 0.9688 0.9545
H21 H 0.4717 1.1577 0.8342
H22 H 0.5396 1.1313 0.6407
H23 H 0.9108 0.7531 0.6790
H24 H 0.9140 0.7605 0.9618
H25 H 0.9805 0.6497 0.8586
H26 H 0.8500 0.5005 0.7938
H27 H 0.6587 0.5904 0.8077
H28 H 0.6087 0.3993 0.8749
H29 H 0.7238 0.3612 0.7593
H30 H 0.8165 0.2315 0.9706
H31 H 1.0245 0.0116 0.9639
H32 H 1.1691 0.0785 0.5859
H33 H 1.4612 -0.2398 0.6894
H34 H 1.4156 -0.1450 0.5785
H35 H 1.3625 -0.4740 0.7331
H36 H 1.2724 -0.6496 0.6568
H37 H 1.2269 -0.1895 0.4701
S3? S 0.070(3) -0.518(3) 0.175(2)
S4? S 0.942(2) 0.516(2) 0.829(1)
loop_
_geom_bond_atom_site_label_1
_geom_bond_atom_site_label_2
_geom_bond_site_symmetry_1
_geom_bond_site_symmetry_2
C1 C2 1_555 1_555
C2 C3 1_555 1_555
C3 N1 1_555 1_555
N1 C4 1_555 1_555
C4 C5 1_555 1_555
C5 C1 1_555 1_555
C6 C5 1_555 1_555
S1 C6 1_555 1_555
C7 S1 1_555 1_555
C8 C7 1_555 1_555
N2 C8 1_555 1_555
C9 N2 1_555 1_555
N3 C9 1_555 1_555
C10 N3 1_555 1_555
O1 C10 1_555 1_555
C11 C10 1_555 1_555
C12 C11 1_555 1_555
N4 C9 1_555 1_555
C13 C11 1_555 1_555
C14 C13 1_555 1_555
C15 C14 1_555 1_555
C16 C15 1_555 1_555
C17 C16 1_555 1_555
N5 C17 1_555 1_555
C18 C14 1_555 1_555
H1 C1 1_555 1_555
H2 C2 1_555 1_555
H3 C3 1_555 1_555
H4 C4 1_555 1_555
H5 C6 1_555 1_555
H6 C6 1_555 1_555
H7 C7 1_555 1_555
H8 C7 1_555 1_555
H9 C8 1_555 1_555
H10 C8 1_555 1_555
H11 N2 1_555 1_555
H12 C12 1_555 1_555
H13 N4 1_555 1_555
H14 C13 1_555 1_555
H15 C13 1_555 1_555
H16 C15 1_555 1_555
H17 C16 1_555 1_555
H18 C17 1_555 1_555
H19 C18 1_555 1_555
C19 C20 1_555 1_555
C20 C21 1_555 1_555
C21 N6 1_555 1_555
N6 C22 1_555 1_555
C22 C23 1_555 1_555
C23 C19 1_555 1_555
C24 C23 1_555 1_555
S2 C24 1_555 1_555
C25 S2 1_555 1_555
C26 C25 1_555 1_555
N7 C26 1_555 1_555
C27 N7 1_555 1_555
N8 C27 1_555 1_555
C28 N8 1_555 1_555
O2 C28 1_555 1_555
C29 C28 1_555 1_555
C30 C29 1_555 1_555
N9 C27 1_555 1_555
C31 C29 1_555 1_555
C32 C31 1_555 1_555
C33 C32 1_555 1_555
C34 C33 1_555 1_555
C35 C34 1_555 1_555
N10 C35 1_555 1_555
C36 C32 1_555 1_555
H20 C19 1_555 1_555
H21 C20 1_555 1_555
H22 C21 1_555 1_555
H23 C22 1_555 1_555
H24 C24 1_555 1_555
H25 C24 1_555 1_555
H26 C25 1_555 1_555
H27 C25 1_555 1_555
H28 C26 1_555 1_555
H29 C26 1_555 1_555
H30 N7 1_555 1_555
H31 N8 1_555 1_555
H32 C30 1_555 1_555
H33 C31 1_555 1_555
H34 C31 1_555 1_555
H35 C33 1_555 1_555
H36 C34 1_555 1_555
H37 C36 1_555 1_555
C12 N4 1_555 1_555
N5 C18 1_555 1_555
C30 N9 1_555 1_555
N10 C36 1_555 1_555

#END
