
#######################################################################
#
#                 Cambridge Crystallographic Data Centre
#                                CCDC 
#
#######################################################################
#
# If this CIF has been generated from an entry in the Cambridge 
# Structural Database, then it will include bibliographic, chemical, 
# crystal, experimental, refinement or atomic coordinate data resulting 
# from the CCDC's data processing and validation procedures.
#
#######################################################################

data_LEJNEW
_chemical_formula_moiety         'C15 H15 F2 N1 O3'
_chemical_name_systematic        
"ethyl 3-(difluoromethyl)-1'-methyl-2'-oxo-1',2'-dihydrospiro[cyclopropane-1,3'-indole]-2-carboxylate"
_symmetry_cell_setting           monoclinic
_symmetry_space_group_name_H-M   'P 21/c'
_symmetry_Int_Tables_number      14
_space_group_name_Hall           '-P 2ybc'
loop_
_symmetry_equiv_pos_site_id
_symmetry_equiv_pos_as_xyz
1 x,y,z
2 -x,1/2+y,1/2-z
3 -x,-y,-z
4 x,1/2-y,1/2+z
_cell_length_a                   12.2952(2)
_cell_length_b                   9.50870(10)
_cell_length_c                   13.0112(2)
_cell_angle_alpha                90
_cell_angle_beta                 112.169(2)
_cell_angle_gamma                90
_cell_volume                     1408.71
_exptl_crystal_description       block
_cell_formula_units_Z            4
loop_
_atom_site_label
_atom_site_type_symbol
_atom_site_fract_x
_atom_site_fract_y
_atom_site_fract_z
O1 O 0.09021(9) 0.06342(10) 0.43471(8)
F1 F 0.19511(12) 0.39743(13) 0.76286(9)
O2 O 0.26574(10) 0.04547(12) 0.57361(10)
O3 O 0.13834(12) 0.57006(12) 0.44548(10)
N1 N 0.28149(12) 0.51703(13) 0.37825(10)
F2 F 0.31197(16) 0.54445(15) 0.73362(14)
C1 C 0.26734(13) 0.36580(14) 0.51088(11)
C2 C 0.36566(12) 0.31988(15) 0.47899(12)
C3 C 0.36971(13) 0.41454(15) 0.39829(12)
C4 C 0.17373(13) 0.27012(15) 0.52604(12)
H1 H 0.0937 0.3080 0.4995
C5 C 0.18363(13) 0.11495(15) 0.51580(12)
C6 C 0.21923(14) 0.49749(15) 0.44394(12)
C7 C 0.09398(14) -0.08723(15) 0.41526(14)
H2 H 0.0878 -0.1397 0.4768
H3 H 0.1676 -0.1118 0.4086
C8 C 0.26178(15) 0.34325(16) 0.62345(12)
H4 H 0.3235 0.2821 0.6730
C9 C 0.44632(14) 0.21235(17) 0.51398(14)
H5 H 0.4456 0.1503 0.5690
C10 C 0.45238(16) 0.4032(2) 0.35068(14)
H6 H 0.4550 0.4670 0.2975
C11 C 0.26038(18) 0.63217(17) 0.29964(14)
H7 H 0.3201 0.7024 0.3295
H8 H 0.1848 0.6728 0.2864
H9 H 0.2623 0.5973 0.2311
C12 C -0.00612(15) -0.1220(2) 0.31088(16)
H10 H 0.0026 -0.0727 0.2501
H11 H -0.0783 -0.0942 0.3174
H12 H -0.0073 -0.2214 0.2978
C13 C 0.52901(15) 0.1984(2) 0.46538(17)
H13 H 0.5830 0.1251 0.4869
C14 C 0.53171(16) 0.2922(2) 0.38561(17)
H14 H 0.5879 0.2811 0.3544
C15 C 0.2221(2) 0.45565(19) 0.68078(15)
H15 H 0.1547 0.5067 0.6284
loop_
_geom_bond_atom_site_label_1
_geom_bond_atom_site_label_2
_geom_bond_site_symmetry_1
_geom_bond_site_symmetry_2
O1 C5 1_555 1_555
F1 C15 1_555 1_555
O2 C5 1_555 1_555
O3 C6 1_555 1_555
N1 C3 1_555 1_555
F2 C15 1_555 1_555
C1 C2 1_555 1_555
C2 C3 1_555 1_555
C3 C10 1_555 1_555
C4 C1 1_555 1_555
H1 C4 1_555 1_555
C5 C4 1_555 1_555
C6 N1 1_555 1_555
C7 O1 1_555 1_555
H2 C7 1_555 1_555
H3 C7 1_555 1_555
C8 C1 1_555 1_555
H4 C8 1_555 1_555
C9 C2 1_555 1_555
H5 C9 1_555 1_555
C10 H6 1_555 1_555
C11 N1 1_555 1_555
H7 C11 1_555 1_555
H8 C11 1_555 1_555
H9 C11 1_555 1_555
C12 C7 1_555 1_555
H10 C12 1_555 1_555
H11 C12 1_555 1_555
H12 C12 1_555 1_555
C13 C9 1_555 1_555
H13 C13 1_555 1_555
C14 C10 1_555 1_555
H14 C14 1_555 1_555
C15 C8 1_555 1_555
H15 C15 1_555 1_555
C1 C6 1_555 1_555
C4 C8 1_555 1_555
C13 C14 1_555 1_555

#END
