
#######################################################################
#
#                 Cambridge Crystallographic Data Centre
#                                CCDC 
#
#######################################################################
#
# If this CIF has been generated from an entry in the Cambridge 
# Structural Database, then it will include bibliographic, chemical, 
# crystal, experimental, refinement or atomic coordinate data resulting 
# from the CCDC's data processing and validation procedures.
#
#######################################################################

data_LEJNEU
_chemical_formula_moiety         'C16 H18 N4,2(H2 O1)'
_chemical_name_systematic        
"1,1'-(2,5-Dimethyl-1,4-phenylenemethylene)di-1H-imidazole dihydrate"
_symmetry_cell_setting           monoclinic
_symmetry_space_group_name_H-M   'P 21/n'
_symmetry_Int_Tables_number      14
_space_group_name_Hall           '-P 2yn'
loop_
_symmetry_equiv_pos_site_id
_symmetry_equiv_pos_as_xyz
1 x,y,z
2 1/2-x,1/2+y,1/2-z
3 -x,-y,-z
4 1/2+x,1/2-y,1/2+z
_cell_length_a                   8.692(9)
_cell_length_b                   5.083(2)
_cell_length_c                   19.068(3)
_cell_angle_alpha                90
_cell_angle_beta                 98.4080(18)
_cell_angle_gamma                90
_cell_volume                     833.397
_exptl_crystal_colour            colorless
_exptl_crystal_description       plane
_cell_formula_units_Z            2
_exptl_crystal_recrystallization_method ethanol
loop_
_atom_site_label
_atom_site_type_symbol
_atom_site_fract_x
_atom_site_fract_y
_atom_site_fract_z
N1 N 0.2725(3) 0.6822(5) 0.12824(13)
N2 N 0.0432(3) 0.6860(7) 0.16526(15)
C1 C 0.1343(4) 0.5617(7) 0.12820(18)
H3 H 0.1070 0.4057 0.1041
C2 C 0.1275(5) 0.8999(8) 0.19201(19)
H4 H 0.0927 1.0265 0.2212
C3 C 0.2688(5) 0.9016(7) 0.16998(17)
H5 H 0.3471 1.0259 0.1809
C4 C 0.4000(4) 0.5964(7) 0.09165(18)
H6 H 0.3683 0.4398 0.0642
H7 H 0.4887 0.5505 0.1265
C5 C 0.4481(3) 0.8055(6) 0.04286(15)
C6 C 0.5930(3) 0.9226(7) 0.06006(16)
H8 H 0.6563 0.8694 0.1012
C7 C 0.3526(3) 0.8843(6) -0.01836(16)
C8 C 0.1936(3) 0.7672(8) -0.04143(19)
H9 H 0.1212 0.8390 -0.0130
H10 H 0.1599 0.8086 -0.0904
H11 H 0.1986 0.5797 -0.0355
N1B N 0.7275(3) 1.3178(5) -0.12824(13)
N2B N 0.9568(3) 1.3140(7) -0.16526(15)
C1B C 0.8657(4) 1.4383(7) -0.12820(18)
H3B H 0.8930 1.5943 -0.1041
C2B C 0.8725(5) 1.1001(8) -0.19201(19)
H4B H 0.9073 0.9735 -0.2212
C3B C 0.7312(5) 1.0984(7) -0.16998(17)
H5B H 0.6529 0.9741 -0.1809
C4B C 0.6000(4) 1.4036(7) -0.09165(18)
H6B H 0.6317 1.5602 -0.0642
H7B H 0.5113 1.4495 -0.1265
C5B C 0.5519(3) 1.1945(6) -0.04286(15)
C6B C 0.4070(3) 1.0774(7) -0.06006(16)
H8B H 0.3437 1.1306 -0.1012
C7B C 0.6474(3) 1.1157(6) 0.01836(16)
C8B C 0.8064(3) 1.2328(8) 0.04143(19)
H9B H 0.8788 1.1610 0.0130
H10B H 0.8401 1.1914 0.0904
H11B H 0.8014 1.4203 0.0355
O1 O 0.7633(3) 0.5631(6) 0.21953(16)
H1 H 0.8534 0.5928 0.2422
H2 H 0.7199 0.7131 0.2188
loop_
_geom_bond_atom_site_label_1
_geom_bond_atom_site_label_2
_geom_bond_site_symmetry_1
_geom_bond_site_symmetry_2
N1 C1 1_555 1_555
N2 C1 1_555 1_555
O1 H1 1_555 1_555
H2 O1 1_555 1_555
C1 H3 1_555 1_555
C2 N2 1_555 1_555
H4 C2 1_555 1_555
C3 N1 1_555 1_555
H5 C3 1_555 1_555
C4 N1 1_555 1_555
H6 C4 1_555 1_555
H7 C4 1_555 1_555
C5 C4 1_555 1_555
C6 C5 1_555 1_555
H8 C6 1_555 1_555
C7 C5 1_555 1_555
C8 C7 1_555 1_555
H9 C8 1_555 1_555
H10 C8 1_555 1_555
H11 C8 1_555 1_555
N1B C1B 1_555 1_555
N2B C1B 1_555 1_555
C1B H3B 1_555 1_555
C2B N2B 1_555 1_555
H4B C2B 1_555 1_555
C3B N1B 1_555 1_555
H5B C3B 1_555 1_555
C4B N1B 1_555 1_555
H6B C4B 1_555 1_555
H7B C4B 1_555 1_555
C5B C4B 1_555 1_555
C6B C7 1_555 1_555
H8B C6B 1_555 1_555
C7B C6 1_555 1_555
C8B C7B 1_555 1_555
H9B C8B 1_555 1_555
H10B C8B 1_555 1_555
H11B C8B 1_555 1_555
C2 C3 1_555 1_555
C2B C3B 1_555 1_555
C5B C6B 1_555 1_555
C5B C7B 1_555 1_555

#END
