
#######################################################################
#
#                 Cambridge Crystallographic Data Centre
#                                CCDC 
#
#######################################################################
#
# If this CIF has been generated from an entry in the Cambridge 
# Structural Database, then it will include bibliographic, chemical, 
# crystal, experimental, refinement or atomic coordinate data resulting 
# from the CCDC's data processing and validation procedures.
#
#######################################################################

data_LEJPAT
_chemical_formula_moiety         
'C48 H48 N12,0.6(C66 H72 N12),0.4(C72 H84 N12),1.5(N2)'
_chemical_name_systematic        
'3,6,10,13,17,20,24,27,30,33,36,39-Dodeca-aza-1,8,15,22(1,3,5)-tetrabenzenatricyclo[13.13.6.6^8,22^]tetracontaphane-2,6,9,13,16,20,24,27,29,33,35,39-dodecaene (((R)-3,5,9,11,15,17,21,23,26,28,31,33-dodeca-aza-1,7,13,19(1,3,5)-tetrabenzena-4,10,16,22,27,32(1,2)-hexacyclopentanatricyclo[11.11.5.5^7,19^]tetratriacontaphane-2,5,8,11,14,17 20,23,25,28,30,33-dodecaene) ((R)-3,5,9,11,15,17,21,23,26,28,31,33-dodeca-aza-1,7,13,19(1,3,5)-tetrabenzena-4,10,16,22,27,32(1,2)-hexacyclohexanatricyclo[11.11.5.5^7,19^]tetratriacontaphane-2,5,8,11,14,17 20,23,25,28,30,33-dodecaene)) dinitrogen'
_symmetry_cell_setting           cubic
_symmetry_space_group_name_H-M   'F 2 3'
_symmetry_Int_Tables_number      196
_space_group_name_Hall           'F 2 2 3'
loop_
_symmetry_equiv_pos_site_id
_symmetry_equiv_pos_as_xyz
1 x,y,z
2 -x,-y,z
3 -x,y,-z
4 x,-y,-z
5 z,x,y
6 z,-x,-y
7 -z,-x,y
8 -z,x,-y
9 y,z,x
10 -y,z,-x
11 y,-z,-x
12 -y,-z,x
13 x,1/2+y,1/2+z
14 -x,1/2-y,1/2+z
15 -x,1/2+y,1/2-z
16 x,1/2-y,1/2-z
17 z,1/2+x,1/2+y
18 z,1/2-x,1/2-y
19 -z,1/2-x,1/2+y
20 -z,1/2+x,1/2-y
21 y,1/2+z,1/2+x
22 -y,1/2+z,1/2-x
23 y,1/2-z,1/2-x
24 -y,1/2-z,1/2+x
25 1/2+x,y,1/2+z
26 1/2-x,-y,1/2+z
27 1/2-x,y,1/2-z
28 1/2+x,-y,1/2-z
29 1/2+z,x,1/2+y
30 1/2+z,-x,1/2-y
31 1/2-z,-x,1/2+y
32 1/2-z,x,1/2-y
33 1/2+y,z,1/2+x
34 1/2-y,z,1/2-x
35 1/2+y,-z,1/2-x
36 1/2-y,-z,1/2+x
37 1/2+x,1/2+y,z
38 1/2-x,1/2-y,z
39 1/2-x,1/2+y,-z
40 1/2+x,1/2-y,-z
41 1/2+z,1/2+x,y
42 1/2+z,1/2-x,-y
43 1/2-z,1/2-x,y
44 1/2-z,1/2+x,-y
45 1/2+y,1/2+z,x
46 1/2-y,1/2+z,-x
47 1/2+y,1/2-z,-x
48 1/2-y,1/2-z,x
_cell_length_a                   23.8776(6)
_cell_length_b                   23.8776(6)
_cell_length_c                   23.8776(6)
_cell_angle_alpha                90
_cell_angle_beta                 90
_cell_angle_gamma                90
_cell_volume                     13613.6
_exptl_crystal_colour            colorless
_exptl_crystal_description       'truncated tetrahedron'
_cell_formula_units_Z            4
loop_
_atom_site_label
_atom_site_type_symbol
_atom_site_fract_x
_atom_site_fract_y
_atom_site_fract_z
N2 N 0.55000(6) 0.23314(6) 0.03547(6)
C9 C 0.51361(9) 0.28203(6) 0.02905(9)
H11 H 0.5359 0.3167 0.0340
H12 H 0.4841 0.2814 0.0582
C10 C 0.53747(8) 0.19974(7) 0.07506(7)
H13 H 0.5053 0.2076 0.0971
C11 C 0.57052(7) 0.14941(7) 0.08822(7)
C12 C 0.61724(7) 0.13414(7) 0.05610(7)
H14 H 0.6269 0.1556 0.0240
N2B N 0.45000(6) 0.23314(6) -0.03547(6)
N2FA N 0.73314(6) 0.03547(6) 0.05000(6)
N2NA N 0.53547(6) 0.05000(6) 0.23314(6)
N2GA N 0.26686(6) 0.03547(6) -0.05000(6)
N2HA N 0.73314(6) -0.03547(6) -0.05000(6)
N2IA N 0.26686(6) -0.03547(6) 0.05000(6)
N2OA N 0.53547(6) -0.05000(6) -0.23314(6)
N2PA N 0.46453(6) -0.05000(6) 0.23314(6)
N2QA N 0.46453(6) 0.05000(6) -0.23314(6)
N2A N 0.45000(6) -0.23314(6) 0.03547(6)
N2C N 0.55000(6) -0.23314(6) -0.03547(6)
C9B C 0.48639(9) 0.28203(6) -0.02905(9)
C9FA C 0.78203(6) 0.02905(9) 0.01361(9)
C9NA C 0.52905(9) 0.01361(9) 0.28203(6)
C9GA C 0.21797(6) 0.02905(9) -0.01361(9)
C9HA C 0.78203(6) -0.02905(9) -0.01361(9)
C9IA C 0.21797(6) -0.02905(9) 0.01361(9)
C9OA C 0.52905(9) -0.01361(9) -0.28203(6)
C9PA C 0.47095(9) -0.01361(9) 0.28203(6)
C9QA C 0.47095(9) 0.01361(9) -0.28203(6)
C9A C 0.48639(9) -0.28203(6) 0.02905(9)
C9C C 0.51361(9) -0.28203(6) -0.02905(9)
H11B H 0.4641 0.3167 -0.0340
H11FA H 0.8167 0.0340 0.0359
H11NA H 0.5340 0.0359 0.3167
H11GA H 0.1833 0.0340 -0.0359
H11HA H 0.8167 -0.0340 -0.0359
H11IA H 0.1833 -0.0340 0.0359
H11OA H 0.5340 -0.0359 -0.3167
H11PA H 0.4660 -0.0359 0.3167
H11QA H 0.4660 0.0359 -0.3167
H11A H 0.4641 -0.3167 0.0340
H11C H 0.5359 -0.3167 -0.0340
H12B H 0.5159 0.2814 -0.0582
H12FA H 0.7814 0.0582 -0.0159
H12NA H 0.5582 -0.0159 0.2814
H12GA H 0.2186 0.0582 0.0159
H12HA H 0.7814 -0.0582 0.0159
H12IA H 0.2186 -0.0582 -0.0159
H12OA H 0.5582 0.0159 -0.2814
H12PA H 0.4418 0.0159 0.2814
H12QA H 0.4418 -0.0159 -0.2814
H12A H 0.5159 -0.2814 0.0582
H12C H 0.4841 -0.2814 -0.0582
C10B C 0.46253(8) 0.19974(7) -0.07506(7)
C10FA C 0.69974(7) 0.07506(7) 0.03747(8)
C10NA C 0.57506(7) 0.03747(8) 0.19974(7)
C10GA C 0.30026(7) 0.07506(7) -0.03747(8)
C10HA C 0.69974(7) -0.07506(7) -0.03747(8)
C10IA C 0.30026(7) -0.07506(7) 0.03747(8)
C10OA C 0.57506(7) -0.03747(8) -0.19974(7)
C10PA C 0.42494(7) -0.03747(8) 0.19974(7)
C10QA C 0.42494(7) 0.03747(8) -0.19974(7)
C10A C 0.46253(8) -0.19974(7) 0.07506(7)
C10C C 0.53747(8) -0.19974(7) -0.07506(7)
H13B H 0.4947 0.2076 -0.0971
H13FA H 0.7076 0.0971 0.0053
H13NA H 0.5971 0.0053 0.2076
H13GA H 0.2924 0.0971 -0.0053
H13HA H 0.7076 -0.0971 -0.0053
H13IA H 0.2924 -0.0971 0.0053
H13OA H 0.5971 -0.0053 -0.2076
H13PA H 0.4029 -0.0053 0.2076
H13QA H 0.4029 0.0053 -0.2076
H13A H 0.4947 -0.2076 0.0971
H13C H 0.5053 -0.2076 -0.0971
C11B C 0.42948(7) 0.14941(7) -0.08822(7)
C11FA C 0.64941(7) 0.08822(7) 0.07052(7)
C11NA C 0.58822(7) 0.07052(7) 0.14941(7)
C11GA C 0.35059(7) 0.08822(7) -0.07052(7)
C11HA C 0.64941(7) -0.08822(7) -0.07052(7)
C11IA C 0.35059(7) -0.08822(7) 0.07052(7)
C11OA C 0.58822(7) -0.07052(7) -0.14941(7)
C11PA C 0.41178(7) -0.07052(7) 0.14941(7)
C11QA C 0.41178(7) 0.07052(7) -0.14941(7)
C11A C 0.42948(7) -0.14941(7) 0.08822(7)
C11C C 0.57052(7) -0.14941(7) -0.08822(7)
C12B C 0.38276(7) 0.13414(7) -0.05610(7)
C12FA C 0.63414(7) 0.05610(7) 0.11724(7)
C12NA C 0.55610(7) 0.11724(7) 0.13414(7)
C12GA C 0.36586(7) 0.05610(7) -0.11724(7)
C12HA C 0.63414(7) -0.05610(7) -0.11724(7)
C12IA C 0.36586(7) -0.05610(7) 0.11724(7)
C12OA C 0.55610(7) -0.11724(7) -0.13414(7)
C12PA C 0.44390(7) -0.11724(7) 0.13414(7)
C12QA C 0.44390(7) 0.11724(7) -0.13414(7)
C12A C 0.38276(7) -0.13414(7) 0.05610(7)
C12C C 0.61724(7) -0.13414(7) -0.05610(7)
H14B H 0.3731 0.1556 -0.0240
H14FA H 0.6556 0.0240 0.1269
H14NA H 0.5240 0.1269 0.1556
H14GA H 0.3444 0.0240 -0.1269
H14HA H 0.6556 -0.0240 -0.1269
H14IA H 0.3444 -0.0240 0.1269
H14OA H 0.5240 -0.1269 -0.1556
H14PA H 0.4760 -0.1269 0.1556
H14QA H 0.4760 0.1269 -0.1556
H14A H 0.3731 -0.1556 0.0240
H14C H 0.6269 -0.1556 -0.0240
N3 N 0.2500 0.2500 0.2500
N4 N 0.5000 0.0000 0.0000
N5 N 0.3722(11) 0.1278(11) 0.1278(11)
N1 N 0.01595(5) 0.21093(6) 0.20077(6)
C1 C -0.03058(6) 0.22028(8) 0.23876(8)
H1 H -0.0277 0.1935 0.2708
C2 C -0.08875(9) 0.21524(14) 0.21230(13)
H2 H -0.1005 0.1755 0.2108
H3 H -0.0883 0.2303 0.1737
C5 C -0.13033(13) 0.2500 0.2500
H8 H -0.1543 0.2749 0.2271
C6 C 0.05009(7) 0.17273(7) 0.21316(7)
H9 H 0.0436 0.1513 0.2460
C7 C 0.09953(8) 0.15984(7) 0.17905(8)
C8 C 0.13244(8) 0.11371(8) 0.19235(8)
H10 H 0.1231 0.0915 0.2240
N1D N 0.20077(6) 0.01595(5) 0.21093(6)
N1H N 0.21093(6) 0.20077(6) 0.01595(5)
N1O N 0.01595(5) 0.28907(6) 0.29923(6)
N1Q N 0.20077(6) 0.48405(5) 0.28907(6)
N1V N 0.21093(6) 0.29923(6) 0.48405(5)
N1EA N 0.29923(6) 0.01595(5) 0.28907(6)
N1GA N 0.28907(6) 0.20077(6) 0.48405(5)
N1PA N 0.29923(6) 0.48405(5) 0.21093(6)
N1UA N 0.28907(6) 0.29923(6) 0.01595(5)
N1Z N 0.48405(5) 0.21093(6) 0.29923(6)
N1KA N 0.48405(5) 0.28907(6) 0.20077(6)
C1D C 0.23876(8) -0.03058(6) 0.22028(8)
C1H C 0.22028(8) 0.23876(8) -0.03058(6)
C1O C -0.03058(6) 0.27972(8) 0.26124(8)
C1Q C 0.23876(8) 0.53058(6) 0.27972(8)
C1V C 0.22028(8) 0.26124(8) 0.53058(6)
C1EA C 0.26124(8) -0.03058(6) 0.27972(8)
C1GA C 0.27972(8) 0.23876(8) 0.53058(6)
C1PA C 0.26124(8) 0.53058(6) 0.22028(8)
C1UA C 0.27972(8) 0.26124(8) -0.03058(6)
C1Z C 0.53058(6) 0.22028(8) 0.26124(8)
C1KA C 0.53058(6) 0.27972(8) 0.23876(8)
H1D H 0.2708 -0.0277 0.1935
H1H H 0.1935 0.2708 -0.0277
H1O H -0.0277 0.3065 0.2292
H1Q H 0.2708 0.5277 0.3065
H1V H 0.1935 0.2292 0.5277
H1EA H 0.2292 -0.0277 0.3065
H1GA H 0.3065 0.2708 0.5277
H1PA H 0.2292 0.5277 0.1935
H1UA H 0.3065 0.2292 -0.0277
H1Z H 0.5277 0.1935 0.2292
H1KA H 0.5277 0.3065 0.2708
C2D C 0.21230(13) -0.08875(9) 0.21524(14)
C2H C 0.21524(14) 0.21230(13) -0.08875(9)
C2O C -0.08875(9) 0.28476(14) 0.28770(13)
C2Q C 0.21230(13) 0.58875(9) 0.28476(14)
C2V C 0.21524(14) 0.28770(13) 0.58875(9)
C2EA C 0.28770(13) -0.08875(9) 0.28476(14)
C2GA C 0.28476(14) 0.21230(13) 0.58875(9)
C2PA C 0.28770(13) 0.58875(9) 0.21524(14)
C2UA C 0.28476(14) 0.28770(13) -0.08875(9)
C2Z C 0.58875(9) 0.21524(14) 0.28770(13)
C2KA C 0.58875(9) 0.28476(14) 0.21230(13)
H2D H 0.2108 -0.1005 0.1755
H2H H 0.1755 0.2108 -0.1005
H2O H -0.1005 0.3245 0.2892
H2Q H 0.2108 0.6005 0.3245
H2V H 0.1755 0.2892 0.6005
H2EA H 0.2892 -0.1005 0.3245
H2GA H 0.3245 0.2108 0.6005
H2PA H 0.2892 0.6005 0.1755
H2UA H 0.3245 0.2892 -0.1005
H2Z H 0.6005 0.1755 0.2892
H2KA H 0.6005 0.3245 0.2108
H3D H 0.1737 -0.0883 0.2303
H3H H 0.2303 0.1737 -0.0883
H3O H -0.0883 0.2697 0.3263
H3Q H 0.1737 0.5883 0.2697
H3V H 0.2303 0.3263 0.5883
H3EA H 0.3263 -0.0883 0.2697
H3GA H 0.2697 0.1737 0.5883
H3PA H 0.3263 0.5883 0.2303
H3UA H 0.2697 0.3263 -0.0883
H3Z H 0.5883 0.2303 0.3263
H3KA H 0.5883 0.2697 0.1737
C5D C 0.2500 -0.13033(13) 0.2500
C5H C 0.2500 0.2500 -0.13033(13)
C5Q C 0.2500 0.63033(13) 0.2500
C5V C 0.2500 0.2500 0.63033(13)
C5Z C 0.63033(13) 0.2500 0.2500
H8D H 0.2271 -0.1543 0.2749
H8H H 0.2749 0.2271 -0.1543
H8O H -0.1543 0.2251 0.2729
H8Q H 0.2271 0.6543 0.2251
H8V H 0.2749 0.2729 0.6543
H8EA H 0.2729 -0.1543 0.2251
H8GA H 0.2251 0.2271 0.6543
H8PA H 0.2729 0.6543 0.2749
H8UA H 0.2251 0.2729 -0.1543
H8Z H 0.6543 0.2749 0.2729
H8KA H 0.6543 0.2251 0.2271
C6D C 0.21316(7) 0.05009(7) 0.17273(7)
C6H C 0.17273(7) 0.21316(7) 0.05009(7)
C6O C 0.05009(7) 0.32727(7) 0.28684(7)
C6Q C 0.21316(7) 0.44991(7) 0.32727(7)
C6V C 0.17273(7) 0.28684(7) 0.44991(7)
C6EA C 0.28684(7) 0.05009(7) 0.32727(7)
C6GA C 0.32727(7) 0.21316(7) 0.44991(7)
C6PA C 0.28684(7) 0.44991(7) 0.17273(7)
C6UA C 0.32727(7) 0.28684(7) 0.05009(7)
C6Z C 0.44991(7) 0.17273(7) 0.28684(7)
C6KA C 0.44991(7) 0.32727(7) 0.21316(7)
H9D H 0.2460 0.0436 0.1513
H9H H 0.1513 0.2460 0.0436
H9O H 0.0436 0.3487 0.2540
H9Q H 0.2460 0.4564 0.3487
H9V H 0.1513 0.2540 0.4564
H9EA H 0.2540 0.0436 0.3487
H9GA H 0.3487 0.2460 0.4564
H9PA H 0.2540 0.4564 0.1513
H9UA H 0.3487 0.2540 0.0436
H9Z H 0.4564 0.1513 0.2540
H9KA H 0.4564 0.3487 0.2460
C7D C 0.17905(8) 0.09953(8) 0.15984(7)
C7H C 0.15984(7) 0.17905(8) 0.09953(8)
C7O C 0.09953(8) 0.34016(7) 0.32095(8)
C7Q C 0.17905(8) 0.40047(8) 0.34016(7)
C7V C 0.15984(7) 0.32095(8) 0.40047(8)
C7EA C 0.32095(8) 0.09953(8) 0.34016(7)
C7GA C 0.34016(7) 0.17905(8) 0.40047(8)
C7PA C 0.32095(8) 0.40047(8) 0.15984(7)
C7UA C 0.34016(7) 0.32095(8) 0.09953(8)
C7Z C 0.40047(8) 0.15984(7) 0.32095(8)
C7KA C 0.40047(8) 0.34016(7) 0.17905(8)
C8D C 0.19235(8) 0.13244(8) 0.11371(8)
C8H C 0.11371(8) 0.19235(8) 0.13244(8)
C8O C 0.13244(8) 0.38629(8) 0.30765(8)
C8Q C 0.19235(8) 0.36756(8) 0.38629(8)
C8V C 0.11371(8) 0.30765(8) 0.36756(8)
C8EA C 0.30765(8) 0.13244(8) 0.38629(8)
C8GA C 0.38629(8) 0.19235(8) 0.36756(8)
C8PA C 0.30765(8) 0.36756(8) 0.11371(8)
C8UA C 0.38629(8) 0.30765(8) 0.13244(8)
C8Z C 0.36756(8) 0.11371(8) 0.30765(8)
C8KA C 0.36756(8) 0.38629(8) 0.19235(8)
H10D H 0.2240 0.1231 0.0915
H10H H 0.0915 0.2240 0.1231
H10O H 0.1231 0.4085 0.2760
H10Q H 0.2240 0.3769 0.4085
H10V H 0.0915 0.2760 0.3769
H10EA H 0.2760 0.1231 0.4085
H10GA H 0.4085 0.2240 0.3769
H10PA H 0.2760 0.3769 0.0915
H10UA H 0.4085 0.2760 0.1231
H10Z H 0.3769 0.0915 0.2760
H10KA H 0.3769 0.4085 0.2240
C3? C -0.0789(5) 0.3024(5) 0.3037(5)
H4? H -0.0781 0.2816 0.3396
H5? H -0.0740 0.3429 0.3115
C4? C -0.1336(4) 0.2915(4) 0.2720(4)
H6? H -0.1655 0.2909 0.2985
H7? H -0.1402 0.3216 0.2443
loop_
_geom_bond_atom_site_label_1
_geom_bond_atom_site_label_2
_geom_bond_site_symmetry_1
_geom_bond_site_symmetry_2
N1 C1 1_555 1_555
C1 H1 1_555 1_555
C2 C1 1_555 1_555
H2 C2 1_555 1_555
H3 C2 1_555 1_555
C5 C2 1_555 1_555
H8 C5 1_555 1_555
C6 N1 1_555 1_555
H9 C6 1_555 1_555
C7 C6 1_555 1_555
C8 C7 1_555 1_555
H10 C8 1_555 1_555
N2 C9 1_555 1_555
C9 H11 1_555 1_555
H12 C9 1_555 1_555
C10 N2 1_555 1_555
H13 C10 1_555 1_555
C11 C10 1_555 1_555
C12 C11 1_555 1_555
H14 C12 1_555 1_555
N1D C1D 1_555 1_555
N1H C1H 1_555 1_555
N1O C1O 1_555 1_555
N1Q C1Q 1_555 1_555
N1V C1V 1_555 1_555
N1EA C1EA 1_555 1_555
N1GA C1GA 1_555 1_555
N1PA C1PA 1_555 1_555
N1UA C1UA 1_555 1_555
N1Z C1Z 1_555 1_555
N1KA C1KA 1_555 1_555
C1D C1EA 1_555 1_555
C1H C1UA 1_555 1_555
C1O C1 1_555 1_555
C1Q C1PA 1_555 1_555
C1V C1GA 1_555 1_555
C1EA H1EA 1_555 1_555
C1GA H1GA 1_555 1_555
C1PA H1PA 1_555 1_555
C1UA H1UA 1_555 1_555
C1Z C1KA 1_555 1_555
C1KA H1KA 1_555 1_555
H1D C1D 1_555 1_555
H1H C1H 1_555 1_555
H1O C1O 1_555 1_555
H1Q C1Q 1_555 1_555
H1V C1V 1_555 1_555
H1Z C1Z 1_555 1_555
C2D C1D 1_555 1_555
C2H C1H 1_555 1_555
C2O C5 1_555 1_555
C2Q C1Q 1_555 1_555
C2V C1V 1_555 1_555
C2EA C1EA 1_555 1_555
C2GA C1GA 1_555 1_555
C2PA C1PA 1_555 1_555
C2UA C1UA 1_555 1_555
C2Z C1Z 1_555 1_555
C2KA C1KA 1_555 1_555
H2D C2D 1_555 1_555
H2H C2H 1_555 1_555
H2O C2O 1_555 1_555
H2Q C2Q 1_555 1_555
H2V C2V 1_555 1_555
H2EA C2EA 1_555 1_555
H2GA C2GA 1_555 1_555
H2PA C2PA 1_555 1_555
H2UA C2UA 1_555 1_555
H2Z C2Z 1_555 1_555
H2KA C2KA 1_555 1_555
H3D C2D 1_555 1_555
H3H C2H 1_555 1_555
H3O C2O 1_555 1_555
H3Q C2Q 1_555 1_555
H3V C2V 1_555 1_555
H3EA C2EA 1_555 1_555
H3GA C2GA 1_555 1_555
H3PA C2PA 1_555 1_555
H3UA C2UA 1_555 1_555
H3Z C2Z 1_555 1_555
H3KA C2KA 1_555 1_555
C5D C2D 1_555 1_555
C5H C2H 1_555 1_555
C5Q C2Q 1_555 1_555
C5V C2V 1_555 1_555
C5Z C2Z 1_555 1_555
H8D C5D 1_555 1_555
H8H C5H 1_555 1_555
H8O C5 1_555 1_555
H8Q C5Q 1_555 1_555
H8V C5V 1_555 1_555
H8EA C5D 1_555 1_555
H8GA C5V 1_555 1_555
H8PA C5Q 1_555 1_555
H8UA C5H 1_555 1_555
H8Z C5Z 1_555 1_555
H8KA C5Z 1_555 1_555
C6D N1D 1_555 1_555
C6H N1H 1_555 1_555
C6O N1O 1_555 1_555
C6Q N1Q 1_555 1_555
C6V N1V 1_555 1_555
C6EA N1EA 1_555 1_555
C6GA N1GA 1_555 1_555
C6PA N1PA 1_555 1_555
C6UA N1UA 1_555 1_555
C6Z N1Z 1_555 1_555
C6KA N1KA 1_555 1_555
H9D C6D 1_555 1_555
H9H C6H 1_555 1_555
H9O C6O 1_555 1_555
H9Q C6Q 1_555 1_555
H9V C6V 1_555 1_555
H9EA C6EA 1_555 1_555
H9GA C6GA 1_555 1_555
H9PA C6PA 1_555 1_555
H9UA C6UA 1_555 1_555
H9Z C6Z 1_555 1_555
H9KA C6KA 1_555 1_555
C7D C8 1_555 1_555
C7H C6H 1_555 1_555
C7O C6O 1_555 1_555
C7Q C6Q 1_555 1_555
C7V C6V 1_555 1_555
C7EA C6EA 1_555 1_555
C7GA C6GA 1_555 1_555
C7PA C6PA 1_555 1_555
C7UA C6UA 1_555 1_555
C7Z C6Z 1_555 1_555
C7KA C6KA 1_555 1_555
C8D C7D 1_555 1_555
C8H C7 1_555 1_555
C8O C7O 1_555 1_555
C8Q C7Q 1_555 1_555
C8V C7O 1_555 1_555
C8EA C7EA 1_555 1_555
C8GA C7GA 1_555 1_555
C8PA C7PA 1_555 1_555
C8UA C7UA 1_555 1_555
C8Z C7EA 1_555 1_555
C8KA C7PA 1_555 1_555
H10D C8D 1_555 1_555
H10H C8H 1_555 1_555
H10O C8O 1_555 1_555
H10Q C8Q 1_555 1_555
H10V C8V 1_555 1_555
H10EA C8EA 1_555 1_555
H10GA C8GA 1_555 1_555
H10PA C8PA 1_555 1_555
H10UA C8UA 1_555 1_555
H10Z C8Z 1_555 1_555
H10KA C8KA 1_555 1_555
N2B C9B 1_555 1_555
N2FA C9FA 1_555 1_555
N2NA C9NA 1_555 1_555
N2GA C9GA 1_555 1_555
N2HA C9HA 1_555 1_555
N2IA C9IA 1_555 1_555
N2OA C9OA 1_555 1_555
N2PA C9PA 1_555 1_555
N2QA C9QA 1_555 1_555
N2A C9A 1_555 1_555
N2C C9C 1_555 1_555
C9B C9 1_555 1_555
C9FA C9HA 1_555 1_555
C9NA C9PA 1_555 1_555
C9GA C9IA 1_555 1_555
C9HA H11HA 1_555 1_555
C9IA H11IA 1_555 1_555
C9OA C9QA 1_555 1_555
C9PA H11PA 1_555 1_555
C9QA H11QA 1_555 1_555
C9A C9C 1_555 1_555
C9C H11C 1_555 1_555
H11B C9B 1_555 1_555
H11FA C9FA 1_555 1_555
H11NA C9NA 1_555 1_555
H11GA C9GA 1_555 1_555
H11OA C9OA 1_555 1_555
H11A C9A 1_555 1_555
H12B C9B 1_555 1_555
H12FA C9FA 1_555 1_555
H12NA C9NA 1_555 1_555
H12GA C9GA 1_555 1_555
H12HA C9HA 1_555 1_555
H12IA C9IA 1_555 1_555
H12OA C9OA 1_555 1_555
H12PA C9PA 1_555 1_555
H12QA C9QA 1_555 1_555
H12A C9A 1_555 1_555
H12C C9C 1_555 1_555
C10B N2B 1_555 1_555
C10FA N2FA 1_555 1_555
C10NA N2NA 1_555 1_555
C10GA N2GA 1_555 1_555
C10HA N2HA 1_555 1_555
C10IA N2IA 1_555 1_555
C10OA N2OA 1_555 1_555
C10PA N2PA 1_555 1_555
C10QA N2QA 1_555 1_555
C10A N2A 1_555 1_555
C10C N2C 1_555 1_555
H13B C10B 1_555 1_555
H13FA C10FA 1_555 1_555
H13NA C10NA 1_555 1_555
H13GA C10GA 1_555 1_555
H13HA C10HA 1_555 1_555
H13IA C10IA 1_555 1_555
H13OA C10OA 1_555 1_555
H13PA C10PA 1_555 1_555
H13QA C10QA 1_555 1_555
H13A C10A 1_555 1_555
H13C C10C 1_555 1_555
C11B C10B 1_555 1_555
C11FA C12 1_555 1_555
C11NA C10NA 1_555 1_555
C11GA C10GA 1_555 1_555
C11HA C10HA 1_555 1_555
C11IA C10IA 1_555 1_555
C11OA C10OA 1_555 1_555
C11PA C10PA 1_555 1_555
C11QA C10QA 1_555 1_555
C11A C10A 1_555 1_555
C11C C10C 1_555 1_555
C12B C11B 1_555 1_555
C12FA C11FA 1_555 1_555
C12NA C11 1_555 1_555
C12GA C11GA 1_555 1_555
C12HA C11HA 1_555 1_555
C12IA C11IA 1_555 1_555
C12OA C11OA 1_555 1_555
C12PA C11PA 1_555 1_555
C12QA C11B 1_555 1_555
C12A C11IA 1_555 1_555
C12C C11HA 1_555 1_555
H14B C12B 1_555 1_555
H14FA C12FA 1_555 1_555
H14NA C12NA 1_555 1_555
H14GA C12GA 1_555 1_555
H14HA C12HA 1_555 1_555
H14IA C12IA 1_555 1_555
H14OA C12OA 1_555 1_555
H14PA C12PA 1_555 1_555
H14QA C12QA 1_555 1_555
H14A C12A 1_555 1_555
H14C C12C 1_555 1_555
C1O C2O 1_555 1_555
C2EA C5D 1_555 1_555
C2GA C5V 1_555 1_555
C2PA C5Q 1_555 1_555
C2UA C5H 1_555 1_555
C2KA C5Z 1_555 1_555
C6D C7D 1_555 1_555
C7H C8D 1_555 1_555
C7H C8H 1_555 1_555
C7Q C8O 1_555 1_555
C7V C8Q 1_555 1_555
C7V C8V 1_555 1_555
C7GA C8EA 1_555 1_555
C7UA C8PA 1_555 1_555
C7Z C8GA 1_555 1_555
C7Z C8Z 1_555 1_555
C7KA C8UA 1_555 1_555
C7KA C8KA 1_555 1_555
C10FA C11FA 1_555 1_555
C11NA C12FA 1_555 1_555
C11NA C12NA 1_555 1_555
C11GA C12B 1_555 1_555
C11OA C12HA 1_555 1_555
C11PA C12IA 1_555 1_555
C11QA C12GA 1_555 1_555
C11QA C12QA 1_555 1_555
C11A C12PA 1_555 1_555
C11A C12A 1_555 1_555
C11C C12OA 1_555 1_555
C11C C12C 1_555 1_555

#END
