
#######################################################################
#
#                 Cambridge Crystallographic Data Centre
#                                CCDC 
#
#######################################################################
#
# If this CIF has been generated from an entry in the Cambridge 
# Structural Database, then it will include bibliographic, chemical, 
# crystal, experimental, refinement or atomic coordinate data resulting 
# from the CCDC's data processing and validation procedures.
#
#######################################################################

data_LEJPAT01
_chemical_formula_moiety         
'C48 H48 N12,0.8(C66 H72 N12),0.2(C72 H84 N12),1.5(N2)'
_chemical_name_systematic        
'3,6,10,13,17,20,24,27,30,33,36,39-Dodeca-aza-1,8,15,22(1,3,5)-tetrabenzenatricyclo[13.13.6.6^8,22^]tetracontaphane-2,6,9,13,16,20,24,27,29,33,35,39-dodecaene (((R)-3,5,9,11,15,17,21,23,26,28,31,33-dodeca-aza-1,7,13,19(1,3,5)-tetrabenzena-4,10,16,22,27,32(1,2)-hexacyclopentanatricyclo[11.11.5.5^7,19^]tetratriacontaphane-2,5,8,11,14,17 20,23,25,28,30,33-dodecaene) ((R)-3,5,9,11,15,17,21,23,26,28,31,33-dodeca-aza-1,7,13,19(1,3,5)-tetrabenzena-4,10,16,22,27,32(1,2)-hexacyclohexanatricyclo[11.11.5.5^7,19^]tetratriacontaphane-2,5,8,11,14,17 20,23,25,28,30,33-dodecaene)) dinitrogen'
_symmetry_cell_setting           cubic
_symmetry_space_group_name_H-M   'F 2 3'
_symmetry_Int_Tables_number      196
_space_group_name_Hall           'F 2 2 3'
loop_
_symmetry_equiv_pos_site_id
_symmetry_equiv_pos_as_xyz
1 x,y,z
2 -x,-y,z
3 -x,y,-z
4 x,-y,-z
5 z,x,y
6 z,-x,-y
7 -z,-x,y
8 -z,x,-y
9 y,z,x
10 -y,z,-x
11 y,-z,-x
12 -y,-z,x
13 x,1/2+y,1/2+z
14 -x,1/2-y,1/2+z
15 -x,1/2+y,1/2-z
16 x,1/2-y,1/2-z
17 z,1/2+x,1/2+y
18 z,1/2-x,1/2-y
19 -z,1/2-x,1/2+y
20 -z,1/2+x,1/2-y
21 y,1/2+z,1/2+x
22 -y,1/2+z,1/2-x
23 y,1/2-z,1/2-x
24 -y,1/2-z,1/2+x
25 1/2+x,y,1/2+z
26 1/2-x,-y,1/2+z
27 1/2-x,y,1/2-z
28 1/2+x,-y,1/2-z
29 1/2+z,x,1/2+y
30 1/2+z,-x,1/2-y
31 1/2-z,-x,1/2+y
32 1/2-z,x,1/2-y
33 1/2+y,z,1/2+x
34 1/2-y,z,1/2-x
35 1/2+y,-z,1/2-x
36 1/2-y,-z,1/2+x
37 1/2+x,1/2+y,z
38 1/2-x,1/2-y,z
39 1/2-x,1/2+y,-z
40 1/2+x,1/2-y,-z
41 1/2+z,1/2+x,y
42 1/2+z,1/2-x,-y
43 1/2-z,1/2-x,y
44 1/2-z,1/2+x,-y
45 1/2+y,1/2+z,x
46 1/2-y,1/2+z,-x
47 1/2+y,1/2-z,-x
48 1/2-y,1/2-z,x
_cell_length_a                   23.7603(7)
_cell_length_b                   23.7603(7)
_cell_length_c                   23.7603(7)
_cell_angle_alpha                90
_cell_angle_beta                 90
_cell_angle_gamma                90
_cell_volume                     13413.9
_exptl_crystal_colour            colorless
_exptl_crystal_description       tetrahedron
_cell_formula_units_Z            4
loop_
_atom_site_label
_atom_site_type_symbol
_atom_site_fract_x
_atom_site_fract_y
_atom_site_fract_z
N2 N 0.55033(6) 0.23401(6) 0.03519(7)
C8 C 0.51415(9) 0.28338(7) 0.02894(9)
H9 H 0.5369 0.3180 0.0333
H10 H 0.4850 0.2832 0.0587
C9 C 0.53732(8) 0.20049(7) 0.07489(8)
H11 H 0.5051 0.2087 0.0971
C10 C 0.57020(8) 0.14955(7) 0.08781(7)
C11 C 0.61726(7) 0.13414(7) 0.05560(8)
H12 H 0.6271 0.1557 0.0234
N2B N 0.44967(6) 0.23401(6) -0.03519(7)
N2FA N 0.73401(6) 0.03519(7) 0.05033(6)
N2NA N 0.53519(7) 0.05033(6) 0.23401(6)
N2GA N 0.26599(6) 0.03519(7) -0.05033(6)
N2HA N 0.73401(6) -0.03519(7) -0.05033(6)
N2IA N 0.26599(6) -0.03519(7) 0.05033(6)
N2OA N 0.53519(7) -0.05033(6) -0.23401(6)
N2PA N 0.46481(7) -0.05033(6) 0.23401(6)
N2QA N 0.46481(7) 0.05033(6) -0.23401(6)
N2A N 0.44967(6) -0.23401(6) 0.03519(7)
N2C N 0.55033(6) -0.23401(6) -0.03519(7)
C8B C 0.48585(9) 0.28338(7) -0.02894(9)
C8FA C 0.78338(7) 0.02894(9) 0.01415(9)
C8NA C 0.52894(9) 0.01415(9) 0.28338(7)
C8GA C 0.21662(7) 0.02894(9) -0.01415(9)
C8HA C 0.78338(7) -0.02894(9) -0.01415(9)
C8IA C 0.21662(7) -0.02894(9) 0.01415(9)
C8OA C 0.52894(9) -0.01415(9) -0.28338(7)
C8PA C 0.47106(9) -0.01415(9) 0.28338(7)
C8QA C 0.47106(9) 0.01415(9) -0.28338(7)
C8A C 0.48585(9) -0.28338(7) 0.02894(9)
C8C C 0.51415(9) -0.28338(7) -0.02894(9)
H9B H 0.4631 0.3180 -0.0333
H9FA H 0.8180 0.0333 0.0369
H9NA H 0.5333 0.0369 0.3180
H9GA H 0.1820 0.0333 -0.0369
H9HA H 0.8180 -0.0333 -0.0369
H9IA H 0.1820 -0.0333 0.0369
H9OA H 0.5333 -0.0369 -0.3180
H9PA H 0.4667 -0.0369 0.3180
H9QA H 0.4667 0.0369 -0.3180
H9A H 0.4631 -0.3180 0.0333
H9C H 0.5369 -0.3180 -0.0333
H10B H 0.5150 0.2832 -0.0587
H10FA H 0.7832 0.0587 -0.0150
H10NA H 0.5587 -0.0150 0.2832
H10GA H 0.2168 0.0587 0.0150
H10HA H 0.7832 -0.0587 0.0150
H10IA H 0.2168 -0.0587 -0.0150
H10OA H 0.5587 0.0150 -0.2832
H10PA H 0.4413 0.0150 0.2832
H10QA H 0.4413 -0.0150 -0.2832
H10A H 0.5150 -0.2832 0.0587
H10C H 0.4850 -0.2832 -0.0587
C9B C 0.46268(8) 0.20049(7) -0.07489(8)
C9FA C 0.70049(7) 0.07489(8) 0.03732(8)
C9NA C 0.57489(8) 0.03732(8) 0.20049(7)
C9GA C 0.29951(7) 0.07489(8) -0.03732(8)
C9HA C 0.70049(7) -0.07489(8) -0.03732(8)
C9IA C 0.29951(7) -0.07489(8) 0.03732(8)
C9OA C 0.57489(8) -0.03732(8) -0.20049(7)
C9PA C 0.42511(8) -0.03732(8) 0.20049(7)
C9QA C 0.42511(8) 0.03732(8) -0.20049(7)
C9A C 0.46268(8) -0.20049(7) 0.07489(8)
C9C C 0.53732(8) -0.20049(7) -0.07489(8)
H11B H 0.4949 0.2087 -0.0971
H11FA H 0.7087 0.0971 0.0051
H11NA H 0.5971 0.0051 0.2087
H11GA H 0.2913 0.0971 -0.0051
H11HA H 0.7087 -0.0971 -0.0051
H11IA H 0.2913 -0.0971 0.0051
H11OA H 0.5971 -0.0051 -0.2087
H11PA H 0.4029 -0.0051 0.2087
H11QA H 0.4029 0.0051 -0.2087
H11A H 0.4949 -0.2087 0.0971
H11C H 0.5051 -0.2087 -0.0971
C10B C 0.42980(8) 0.14955(7) -0.08781(7)
C10FA C 0.64955(7) 0.08781(7) 0.07020(8)
C10NA C 0.58781(7) 0.07020(8) 0.14955(7)
C10GA C 0.35045(7) 0.08781(7) -0.07020(8)
C10HA C 0.64955(7) -0.08781(7) -0.07020(8)
C10IA C 0.35045(7) -0.08781(7) 0.07020(8)
C10OA C 0.58781(7) -0.07020(8) -0.14955(7)
C10PA C 0.41219(7) -0.07020(8) 0.14955(7)
C10QA C 0.41219(7) 0.07020(8) -0.14955(7)
C10A C 0.42980(8) -0.14955(7) 0.08781(7)
C10C C 0.57020(8) -0.14955(7) -0.08781(7)
C11B C 0.38274(7) 0.13414(7) -0.05560(8)
C11FA C 0.63414(7) 0.05560(8) 0.11726(7)
C11NA C 0.55560(8) 0.11726(7) 0.13414(7)
C11GA C 0.36586(7) 0.05560(8) -0.11726(7)
C11HA C 0.63414(7) -0.05560(8) -0.11726(7)
C11IA C 0.36586(7) -0.05560(8) 0.11726(7)
C11OA C 0.55560(8) -0.11726(7) -0.13414(7)
C11PA C 0.44440(8) -0.11726(7) 0.13414(7)
C11QA C 0.44440(8) 0.11726(7) -0.13414(7)
C11A C 0.38274(7) -0.13414(7) 0.05560(8)
C11C C 0.61726(7) -0.13414(7) -0.05560(8)
H12B H 0.3729 0.1557 -0.0234
H12FA H 0.6557 0.0234 0.1271
H12NA H 0.5234 0.1271 0.1557
H12GA H 0.3443 0.0234 -0.1271
H12HA H 0.6557 -0.0234 -0.1271
H12IA H 0.3443 -0.0234 0.1271
H12OA H 0.5234 -0.1271 -0.1557
H12PA H 0.4766 -0.1271 0.1557
H12QA H 0.4766 0.1271 -0.1557
H12A H 0.3729 -0.1557 0.0234
H12C H 0.6271 -0.1557 -0.0234
N3 N 0.2500 0.2500 0.2500
N4 N 0.5000 0.0000 0.0000
N5 N 0.3713(13) 0.1287(13) 0.1287(13)
N1 N 0.01437(5) 0.21093(5) 0.20015(5)
C1 C -0.03224(6) 0.22011(7) 0.23860(7)
H1 H -0.0293 0.1930 0.2707
C2 C -0.08967(7) 0.21343(8) 0.21039(8)
H2 H -0.1016 0.1735 0.2096
H3 H -0.0892 0.2283 0.1715
C4 C -0.12948(16) 0.2500 0.2500
H6 H -0.1538 0.2251 0.2729
C5 C 0.04909(6) 0.17285(7) 0.21296(7)
H7 H 0.0427 0.1517 0.2463
C6 C 0.09897(7) 0.15962(7) 0.17871(7)
C7 C 0.13191(7) 0.11344(7) 0.19229(7)
H8 H 0.1226 0.0913 0.2242
N1D N 0.20015(5) 0.01437(5) 0.21093(5)
N1H N 0.21093(5) 0.20015(5) 0.01437(5)
N1O N 0.01437(5) 0.28907(5) 0.29985(5)
N1Q N 0.20015(5) 0.48563(5) 0.28907(5)
N1V N 0.21093(5) 0.29985(5) 0.48563(5)
N1EA N 0.29985(5) 0.01437(5) 0.28907(5)
N1GA N 0.28907(5) 0.20015(5) 0.48563(5)
N1PA N 0.29985(5) 0.48563(5) 0.21093(5)
N1UA N 0.28907(5) 0.29985(5) 0.01437(5)
N1Z N 0.48563(5) 0.21093(5) 0.29985(5)
N1KA N 0.48563(5) 0.28907(5) 0.20015(5)
C1D C 0.23860(7) -0.03224(6) 0.22011(7)
C1H C 0.22011(7) 0.23860(7) -0.03224(6)
C1O C -0.03224(6) 0.27989(7) 0.26140(7)
C1Q C 0.23860(7) 0.53224(6) 0.27989(7)
C1V C 0.22011(7) 0.26140(7) 0.53224(6)
C1EA C 0.26140(7) -0.03224(6) 0.27989(7)
C1GA C 0.27989(7) 0.23860(7) 0.53224(6)
C1PA C 0.26140(7) 0.53224(6) 0.22011(7)
C1UA C 0.27989(7) 0.26140(7) -0.03224(6)
C1Z C 0.53224(6) 0.22011(7) 0.26140(7)
C1KA C 0.53224(6) 0.27989(7) 0.23860(7)
H1D H 0.2707 -0.0293 0.1930
H1H H 0.1930 0.2707 -0.0293
H1O H -0.0293 0.3070 0.2293
H1Q H 0.2707 0.5293 0.3070
H1V H 0.1930 0.2293 0.5293
H1EA H 0.2293 -0.0293 0.3070
H1GA H 0.3070 0.2707 0.5293
H1PA H 0.2293 0.5293 0.1930
H1UA H 0.3070 0.2293 -0.0293
H1Z H 0.5293 0.1930 0.2293
H1KA H 0.5293 0.3070 0.2707
C2D C 0.21039(8) -0.08967(7) 0.21343(8)
C2H C 0.21343(8) 0.21039(8) -0.08967(7)
C2O C -0.08967(7) 0.28657(8) 0.28961(8)
C2Q C 0.21039(8) 0.58967(7) 0.28657(8)
C2V C 0.21343(8) 0.28961(8) 0.58967(7)
C2EA C 0.28961(8) -0.08967(7) 0.28657(8)
C2GA C 0.28657(8) 0.21039(8) 0.58967(7)
C2PA C 0.28961(8) 0.58967(7) 0.21343(8)
C2UA C 0.28657(8) 0.28961(8) -0.08967(7)
C2Z C 0.58967(7) 0.21343(8) 0.28961(8)
C2KA C 0.58967(7) 0.28657(8) 0.21039(8)
H2D H 0.2096 -0.1016 0.1735
H2H H 0.1735 0.2096 -0.1016
H2O H -0.1016 0.3265 0.2904
H2Q H 0.2096 0.6016 0.3265
H2V H 0.1735 0.2904 0.6016
H2EA H 0.2904 -0.1016 0.3265
H2GA H 0.3265 0.2096 0.6016
H2PA H 0.2904 0.6016 0.1735
H2UA H 0.3265 0.2904 -0.1016
H2Z H 0.6016 0.1735 0.2904
H2KA H 0.6016 0.3265 0.2096
H3D H 0.1715 -0.0892 0.2283
H3H H 0.2283 0.1715 -0.0892
H3O H -0.0892 0.2717 0.3285
H3Q H 0.1715 0.5892 0.2717
H3V H 0.2283 0.3285 0.5892
H3EA H 0.3285 -0.0892 0.2717
H3GA H 0.2717 0.1715 0.5892
H3PA H 0.3285 0.5892 0.2283
H3UA H 0.2717 0.3285 -0.0892
H3Z H 0.5892 0.2283 0.3285
H3KA H 0.5892 0.2717 0.1715
C4D C 0.2500 -0.12948(16) 0.2500
C4H C 0.2500 0.2500 -0.12948(16)
C4Q C 0.2500 0.62948(16) 0.2500
C4V C 0.2500 0.2500 0.62948(16)
C4Z C 0.62948(16) 0.2500 0.2500
H6D H 0.2729 -0.1538 0.2251
H6H H 0.2251 0.2729 -0.1538
H6O H -0.1538 0.2749 0.2271
H6Q H 0.2729 0.6538 0.2749
H6V H 0.2251 0.2271 0.6538
H6EA H 0.2271 -0.1538 0.2749
H6GA H 0.2749 0.2729 0.6538
H6PA H 0.2271 0.6538 0.2251
H6UA H 0.2749 0.2271 -0.1538
H6Z H 0.6538 0.2251 0.2271
H6KA H 0.6538 0.2749 0.2729
C5D C 0.21296(7) 0.04909(6) 0.17285(7)
C5H C 0.17285(7) 0.21296(7) 0.04909(6)
C5O C 0.04909(6) 0.32715(7) 0.28704(7)
C5Q C 0.21296(7) 0.45091(6) 0.32715(7)
C5V C 0.17285(7) 0.28704(7) 0.45091(6)
C5EA C 0.28704(7) 0.04909(6) 0.32715(7)
C5GA C 0.32715(7) 0.21296(7) 0.45091(6)
C5PA C 0.28704(7) 0.45091(6) 0.17285(7)
C5UA C 0.32715(7) 0.28704(7) 0.04909(6)
C5Z C 0.45091(6) 0.17285(7) 0.28704(7)
C5KA C 0.45091(6) 0.32715(7) 0.21296(7)
H7D H 0.2463 0.0427 0.1517
H7H H 0.1517 0.2463 0.0427
H7O H 0.0427 0.3483 0.2537
H7Q H 0.2463 0.4573 0.3483
H7V H 0.1517 0.2537 0.4573
H7EA H 0.2537 0.0427 0.3483
H7GA H 0.3483 0.2463 0.4573
H7PA H 0.2537 0.4573 0.1517
H7UA H 0.3483 0.2537 0.0427
H7Z H 0.4573 0.1517 0.2537
H7KA H 0.4573 0.3483 0.2463
C6D C 0.17871(7) 0.09897(7) 0.15962(7)
C6H C 0.15962(7) 0.17871(7) 0.09897(7)
C6O C 0.09897(7) 0.34038(7) 0.32129(7)
C6Q C 0.17871(7) 0.40103(7) 0.34038(7)
C6V C 0.15962(7) 0.32129(7) 0.40103(7)
C6EA C 0.32129(7) 0.09897(7) 0.34038(7)
C6GA C 0.34038(7) 0.17871(7) 0.40103(7)
C6PA C 0.32129(7) 0.40103(7) 0.15962(7)
C6UA C 0.34038(7) 0.32129(7) 0.09897(7)
C6Z C 0.40103(7) 0.15962(7) 0.32129(7)
C6KA C 0.40103(7) 0.34038(7) 0.17871(7)
C7D C 0.19229(7) 0.13191(7) 0.11344(7)
C7H C 0.11344(7) 0.19229(7) 0.13191(7)
C7O C 0.13191(7) 0.38656(7) 0.30771(7)
C7Q C 0.19229(7) 0.36809(7) 0.38656(7)
C7V C 0.11344(7) 0.30771(7) 0.36809(7)
C7EA C 0.30771(7) 0.13191(7) 0.38656(7)
C7GA C 0.38656(7) 0.19229(7) 0.36809(7)
C7PA C 0.30771(7) 0.36809(7) 0.11344(7)
C7UA C 0.38656(7) 0.30771(7) 0.13191(7)
C7Z C 0.36809(7) 0.11344(7) 0.30771(7)
C7KA C 0.36809(7) 0.38656(7) 0.19229(7)
H8D H 0.2242 0.1226 0.0913
H8H H 0.0913 0.2242 0.1226
H8O H 0.1226 0.4087 0.2758
H8Q H 0.2242 0.3774 0.4087
H8V H 0.0913 0.2758 0.3774
H8EA H 0.2758 0.1226 0.4087
H8GA H 0.4087 0.2242 0.3774
H8PA H 0.2758 0.3774 0.0913
H8UA H 0.4087 0.2758 0.1226
H8Z H 0.3774 0.0913 0.2758
H8KA H 0.3774 0.4087 0.2242
C3? C -0.1366(4) 0.2805(4) 0.2608(4)
H4? H -0.1378 0.3073 0.2289
H5? H -0.1697 0.2873 0.2852
loop_
_geom_bond_atom_site_label_1
_geom_bond_atom_site_label_2
_geom_bond_site_symmetry_1
_geom_bond_site_symmetry_2
N1 C1 1_555 1_555
C1 H1 1_555 1_555
C2 C1 1_555 1_555
H2 C2 1_555 1_555
H3 C2 1_555 1_555
C4 C2 1_555 1_555
H6 C4 1_555 1_555
C5 N1 1_555 1_555
H7 C5 1_555 1_555
C6 C5 1_555 1_555
C7 C6 1_555 1_555
H8 C7 1_555 1_555
N2 C8 1_555 1_555
C8 H9 1_555 1_555
H10 C8 1_555 1_555
C9 N2 1_555 1_555
H11 C9 1_555 1_555
C10 C9 1_555 1_555
C11 C10 1_555 1_555
H12 C11 1_555 1_555
N1D C1D 1_555 1_555
N1H C1H 1_555 1_555
N1O C1O 1_555 1_555
N1Q C1Q 1_555 1_555
N1V C1V 1_555 1_555
N1EA C1EA 1_555 1_555
N1GA C1GA 1_555 1_555
N1PA C1PA 1_555 1_555
N1UA C1UA 1_555 1_555
N1Z C1Z 1_555 1_555
N1KA C1KA 1_555 1_555
C1D C1EA 1_555 1_555
C1H C1UA 1_555 1_555
C1O C1 1_555 1_555
C1Q C1PA 1_555 1_555
C1V C1GA 1_555 1_555
C1EA H1EA 1_555 1_555
C1GA H1GA 1_555 1_555
C1PA H1PA 1_555 1_555
C1UA H1UA 1_555 1_555
C1Z C1KA 1_555 1_555
C1KA H1KA 1_555 1_555
H1D C1D 1_555 1_555
H1H C1H 1_555 1_555
H1O C1O 1_555 1_555
H1Q C1Q 1_555 1_555
H1V C1V 1_555 1_555
H1Z C1Z 1_555 1_555
C2D C1D 1_555 1_555
C2H C1H 1_555 1_555
C2O C4 1_555 1_555
C2Q C1Q 1_555 1_555
C2V C1V 1_555 1_555
C2EA C1EA 1_555 1_555
C2GA C1GA 1_555 1_555
C2PA C1PA 1_555 1_555
C2UA C1UA 1_555 1_555
C2Z C1Z 1_555 1_555
C2KA C1KA 1_555 1_555
H2D C2D 1_555 1_555
H2H C2H 1_555 1_555
H2O C2O 1_555 1_555
H2Q C2Q 1_555 1_555
H2V C2V 1_555 1_555
H2EA C2EA 1_555 1_555
H2GA C2GA 1_555 1_555
H2PA C2PA 1_555 1_555
H2UA C2UA 1_555 1_555
H2Z C2Z 1_555 1_555
H2KA C2KA 1_555 1_555
H3D C2D 1_555 1_555
H3H C2H 1_555 1_555
H3O C2O 1_555 1_555
H3Q C2Q 1_555 1_555
H3V C2V 1_555 1_555
H3EA C2EA 1_555 1_555
H3GA C2GA 1_555 1_555
H3PA C2PA 1_555 1_555
H3UA C2UA 1_555 1_555
H3Z C2Z 1_555 1_555
H3KA C2KA 1_555 1_555
C4D C2D 1_555 1_555
C4H C2H 1_555 1_555
C4Q C2Q 1_555 1_555
C4V C2V 1_555 1_555
C4Z C2Z 1_555 1_555
H6D C4D 1_555 1_555
H6H C4H 1_555 1_555
H6O C4 1_555 1_555
H6Q C4Q 1_555 1_555
H6V C4V 1_555 1_555
H6EA C4D 1_555 1_555
H6GA C4V 1_555 1_555
H6PA C4Q 1_555 1_555
H6UA C4H 1_555 1_555
H6Z C4Z 1_555 1_555
H6KA C4Z 1_555 1_555
C5D N1D 1_555 1_555
C5H N1H 1_555 1_555
C5O N1O 1_555 1_555
C5Q N1Q 1_555 1_555
C5V N1V 1_555 1_555
C5EA N1EA 1_555 1_555
C5GA N1GA 1_555 1_555
C5PA N1PA 1_555 1_555
C5UA N1UA 1_555 1_555
C5Z N1Z 1_555 1_555
C5KA N1KA 1_555 1_555
H7D C5D 1_555 1_555
H7H C5H 1_555 1_555
H7O C5O 1_555 1_555
H7Q C5Q 1_555 1_555
H7V C5V 1_555 1_555
H7EA C5EA 1_555 1_555
H7GA C5GA 1_555 1_555
H7PA C5PA 1_555 1_555
H7UA C5UA 1_555 1_555
H7Z C5Z 1_555 1_555
H7KA C5KA 1_555 1_555
C6D C7 1_555 1_555
C6H C5H 1_555 1_555
C6O C5O 1_555 1_555
C6Q C5Q 1_555 1_555
C6V C5V 1_555 1_555
C6EA C5EA 1_555 1_555
C6GA C5GA 1_555 1_555
C6PA C5PA 1_555 1_555
C6UA C5UA 1_555 1_555
C6Z C5Z 1_555 1_555
C6KA C5KA 1_555 1_555
C7D C6D 1_555 1_555
C7H C6 1_555 1_555
C7O C6O 1_555 1_555
C7Q C6Q 1_555 1_555
C7V C6O 1_555 1_555
C7EA C6EA 1_555 1_555
C7GA C6GA 1_555 1_555
C7PA C6PA 1_555 1_555
C7UA C6UA 1_555 1_555
C7Z C6EA 1_555 1_555
C7KA C6PA 1_555 1_555
H8D C7D 1_555 1_555
H8H C7H 1_555 1_555
H8O C7O 1_555 1_555
H8Q C7Q 1_555 1_555
H8V C7V 1_555 1_555
H8EA C7EA 1_555 1_555
H8GA C7GA 1_555 1_555
H8PA C7PA 1_555 1_555
H8UA C7UA 1_555 1_555
H8Z C7Z 1_555 1_555
H8KA C7KA 1_555 1_555
N2B C8B 1_555 1_555
N2FA C8FA 1_555 1_555
N2NA C8NA 1_555 1_555
N2GA C8GA 1_555 1_555
N2HA C8HA 1_555 1_555
N2IA C8IA 1_555 1_555
N2OA C8OA 1_555 1_555
N2PA C8PA 1_555 1_555
N2QA C8QA 1_555 1_555
N2A C8A 1_555 1_555
N2C C8C 1_555 1_555
C8B C8 1_555 1_555
C8FA C8HA 1_555 1_555
C8NA C8PA 1_555 1_555
C8GA C8IA 1_555 1_555
C8HA H9HA 1_555 1_555
C8IA H9IA 1_555 1_555
C8OA C8QA 1_555 1_555
C8PA H9PA 1_555 1_555
C8QA H9QA 1_555 1_555
C8A C8C 1_555 1_555
C8C H9C 1_555 1_555
H9B C8B 1_555 1_555
H9FA C8FA 1_555 1_555
H9NA C8NA 1_555 1_555
H9GA C8GA 1_555 1_555
H9OA C8OA 1_555 1_555
H9A C8A 1_555 1_555
H10B C8B 1_555 1_555
H10FA C8FA 1_555 1_555
H10NA C8NA 1_555 1_555
H10GA C8GA 1_555 1_555
H10HA C8HA 1_555 1_555
H10IA C8IA 1_555 1_555
H10OA C8OA 1_555 1_555
H10PA C8PA 1_555 1_555
H10QA C8QA 1_555 1_555
H10A C8A 1_555 1_555
H10C C8C 1_555 1_555
C9B N2B 1_555 1_555
C9FA N2FA 1_555 1_555
C9NA N2NA 1_555 1_555
C9GA N2GA 1_555 1_555
C9HA N2HA 1_555 1_555
C9IA N2IA 1_555 1_555
C9OA N2OA 1_555 1_555
C9PA N2PA 1_555 1_555
C9QA N2QA 1_555 1_555
C9A N2A 1_555 1_555
C9C N2C 1_555 1_555
H11B C9B 1_555 1_555
H11FA C9FA 1_555 1_555
H11NA C9NA 1_555 1_555
H11GA C9GA 1_555 1_555
H11HA C9HA 1_555 1_555
H11IA C9IA 1_555 1_555
H11OA C9OA 1_555 1_555
H11PA C9PA 1_555 1_555
H11QA C9QA 1_555 1_555
H11A C9A 1_555 1_555
H11C C9C 1_555 1_555
C10B C9B 1_555 1_555
C10FA C11 1_555 1_555
C10NA C9NA 1_555 1_555
C10GA C9GA 1_555 1_555
C10HA C9HA 1_555 1_555
C10IA C9IA 1_555 1_555
C10OA C9OA 1_555 1_555
C10PA C9PA 1_555 1_555
C10QA C9QA 1_555 1_555
C10A C9A 1_555 1_555
C10C C9C 1_555 1_555
C11B C10B 1_555 1_555
C11FA C10FA 1_555 1_555
C11NA C10 1_555 1_555
C11GA C10GA 1_555 1_555
C11HA C10HA 1_555 1_555
C11IA C10IA 1_555 1_555
C11OA C10OA 1_555 1_555
C11PA C10PA 1_555 1_555
C11QA C10B 1_555 1_555
C11A C10IA 1_555 1_555
C11C C10HA 1_555 1_555
H12B C11B 1_555 1_555
H12FA C11FA 1_555 1_555
H12NA C11NA 1_555 1_555
H12GA C11GA 1_555 1_555
H12HA C11HA 1_555 1_555
H12IA C11IA 1_555 1_555
H12OA C11OA 1_555 1_555
H12PA C11PA 1_555 1_555
H12QA C11QA 1_555 1_555
H12A C11A 1_555 1_555
H12C C11C 1_555 1_555
C1O C2O 1_555 1_555
C2EA C4D 1_555 1_555
C2GA C4V 1_555 1_555
C2PA C4Q 1_555 1_555
C2UA C4H 1_555 1_555
C2KA C4Z 1_555 1_555
C5D C6D 1_555 1_555
C6H C7D 1_555 1_555
C6H C7H 1_555 1_555
C6Q C7O 1_555 1_555
C6V C7Q 1_555 1_555
C6V C7V 1_555 1_555
C6GA C7EA 1_555 1_555
C6UA C7PA 1_555 1_555
C6Z C7GA 1_555 1_555
C6Z C7Z 1_555 1_555
C6KA C7UA 1_555 1_555
C6KA C7KA 1_555 1_555
C9FA C10FA 1_555 1_555
C10NA C11FA 1_555 1_555
C10NA C11NA 1_555 1_555
C10GA C11B 1_555 1_555
C10OA C11HA 1_555 1_555
C10PA C11IA 1_555 1_555
C10QA C11GA 1_555 1_555
C10QA C11QA 1_555 1_555
C10A C11PA 1_555 1_555
C10A C11A 1_555 1_555
C10C C11OA 1_555 1_555
C10C C11C 1_555 1_555

#END
