
#######################################################################
#
#                 Cambridge Crystallographic Data Centre
#                                CCDC 
#
#######################################################################
#
# If this CIF has been generated from an entry in the Cambridge 
# Structural Database, then it will include bibliographic, chemical, 
# crystal, experimental, refinement or atomic coordinate data resulting 
# from the CCDC's data processing and validation procedures.
#
#######################################################################

data_LEJQEZ
_chemical_formula_moiety         'C15 H18 Cl1 N3'
_chemical_name_systematic        
1-((1-(4-chlorophenyl)-3-methylcyclopentyl)methyl)-1H-1,2,4-triazole
_symmetry_cell_setting           orthorhombic
_symmetry_space_group_name_H-M   'P 21 21 21'
_symmetry_Int_Tables_number      19
_space_group_name_Hall           'P 2ac 2ab'
loop_
_symmetry_equiv_pos_site_id
_symmetry_equiv_pos_as_xyz
1 x,y,z
2 1/2-x,-y,1/2+z
3 -x,1/2+y,1/2-z
4 1/2+x,1/2-y,-z
_cell_length_a                   6.6838(13)
_cell_length_b                   7.3124(15)
_cell_length_c                   28.857(6)
_cell_angle_alpha                90
_cell_angle_beta                 90
_cell_angle_gamma                90
_cell_volume                     1410.37
_cell_formula_units_Z            4
loop_
_atom_site_label
_atom_site_type_symbol
_atom_site_fract_x
_atom_site_fract_y
_atom_site_fract_z
Cl1 Cl 0.14668(17) 0.99802(15) 0.81017(4)
N1 N 0.3481(5) 0.7387(5) 0.58946(12)
N2 N 0.2647(6) 0.7641(5) 0.54670(13)
N3 N 0.0520(6) 0.6125(5) 0.59453(14)
C1 C 0.5482(6) 0.8074(6) 0.60033(15)
H1 H 0.6279 0.8105 0.5714
H2 H 0.6140 0.7204 0.6218
C2 C 0.5518(6) 0.9986(6) 0.62238(14)
C3 C 0.7759(7) 1.0510(6) 0.62702(16)
H3 H 0.7946 1.1416 0.6521
H4 H 0.8577 0.9416 0.6341
C4 C 0.8364(7) 1.1329(7) 0.58025(17)
H5 H 0.9190 1.0447 0.5626
H6 H 0.9153 1.2460 0.5850
C5 C 0.6418(7) 1.1760(6) 0.55359(15)
H7 H 0.6256 1.0851 0.5280
C6 C 0.4742(6) 1.1466(6) 0.58932(16)
H8 H 0.4463 1.2612 0.6064
H9 H 0.3497 1.1058 0.5739
C7 C 0.6375(8) 1.3694(6) 0.53296(17)
H10 H 0.6675 1.4588 0.5573
H11 H 0.5044 1.3941 0.5201
H12 H 0.7377 1.3788 0.5083
C8 C 0.4457(6) 0.9938(6) 0.66895(15)
C9 C 0.2563(7) 1.0699(6) 0.67531(15)
H13 H 0.1895 1.1238 0.6497
C10 C 0.1635(7) 1.0687(6) 0.71829(16)
H14 H 0.0351 1.1223 0.7219
C11 C 0.2576(7) 0.9898(7) 0.75562(14)
C12 C 0.4447(7) 0.9109(6) 0.75054(17)
H15 H 0.5094 0.8554 0.7763
C13 C 0.5366(7) 0.9138(6) 0.70725(16)
H16 H 0.6649 0.8597 0.7038
C14 C 0.0870(6) 0.6859(6) 0.55194(16)
H17 H -0.0090 0.6815 0.5277
C15 C 0.2209(7) 0.6506(6) 0.61661(16)
H18 H 0.2473 0.6186 0.6479
loop_
_geom_bond_atom_site_label_1
_geom_bond_atom_site_label_2
_geom_bond_site_symmetry_1
_geom_bond_site_symmetry_2
Cl1 C11 1_555 1_555
N1 N2 1_555 1_555
N2 C14 1_555 1_555
N3 C14 1_555 1_555
C1 N1 1_555 1_555
H1 C1 1_555 1_555
H2 C1 1_555 1_555
C2 C1 1_555 1_555
C3 C2 1_555 1_555
H3 C3 1_555 1_555
H4 C3 1_555 1_555
C4 C3 1_555 1_555
H5 C4 1_555 1_555
H6 C4 1_555 1_555
C5 C4 1_555 1_555
H7 C5 1_555 1_555
C6 C2 1_555 1_555
H8 C6 1_555 1_555
H9 C6 1_555 1_555
C7 C5 1_555 1_555
H10 C7 1_555 1_555
H11 C7 1_555 1_555
H12 C7 1_555 1_555
C8 C2 1_555 1_555
C9 C8 1_555 1_555
H13 C9 1_555 1_555
C10 C9 1_555 1_555
H14 C10 1_555 1_555
C11 C10 1_555 1_555
C12 C11 1_555 1_555
H15 C12 1_555 1_555
C13 C8 1_555 1_555
H16 C13 1_555 1_555
C14 H17 1_555 1_555
C15 N1 1_555 1_555
H18 C15 1_555 1_555
N3 C15 1_555 1_555
C5 C6 1_555 1_555
C12 C13 1_555 1_555

#END
