
#######################################################################
#
#                 Cambridge Crystallographic Data Centre
#                                CCDC 
#
#######################################################################
#
# If this CIF has been generated from an entry in the Cambridge 
# Structural Database, then it will include bibliographic, chemical, 
# crystal, experimental, refinement or atomic coordinate data resulting 
# from the CCDC's data processing and validation procedures.
#
#######################################################################

data_LEJQOI
_chemical_formula_moiety         
'C46 H52 O12,C36 H32 N4 4+,4(F6 P1 1-),6(C2 H3 N1)'
_chemical_name_systematic        
'[2]-(1,5-bis((12-(5-Hydroxynaphth-1-yl)-3,6,9,12-tetraoxadodecanyl)oxy)napthalene)-(1,6(1,4),2,7(4,1)-tetrapyridina-4,9(1,4)-dibenzenacyclodecaphane)-pseudorotaxane tetrakis(hexafluorophosphate) acetonitrile solvate'
_symmetry_cell_setting           triclinic
_symmetry_space_group_name_H-M   'P -1'
_symmetry_Int_Tables_number      2
_space_group_name_Hall           '-P 1'
loop_
_symmetry_equiv_pos_site_id
_symmetry_equiv_pos_as_xyz
1 x,y,z
2 -x,-y,-z
_cell_length_a                   10.777(5)
_cell_length_b                   13.649(7)
_cell_length_c                   16.950(8)
_cell_angle_alpha                78.745(19)
_cell_angle_beta                 89.035(16)
_cell_angle_gamma                80.865(11)
_cell_volume                     2414.04
_exptl_crystal_colour            red
_exptl_crystal_description       plate
_cell_formula_units_Z            1
loop_
_atom_site_label
_atom_site_type_symbol
_atom_site_fract_x
_atom_site_fract_y
_atom_site_fract_z
N1 N 0.99699(17) -0.23413(13) -0.16041(10)
N2 N 1.07422(18) 0.27395(13) -0.21791(11)
C1 C 0.8982(2) -0.16196(17) -0.18616(13)
H1 H 0.8181 -0.1806 -0.1922
C2 C 0.9116(2) -0.06200(17) -0.20374(13)
H2 H 0.8411 -0.0119 -0.2223
C3 C 1.0282(2) -0.03326(16) -0.19454(12)
C4 C 1.1286(2) -0.11047(16) -0.16867(13)
H3 H 1.2100 -0.0942 -0.1629
C5 C 1.1109(2) -0.20953(16) -0.15150(13)
H4 H 1.1798 -0.2612 -0.1331
C6 C 1.0437(2) 0.07448(16) -0.20793(12)
C7 C 0.9408(2) 0.15215(17) -0.21706(13)
H5 H 0.8583 0.1367 -0.2198
C8 C 0.9578(2) 0.25030(17) -0.22205(13)
H6 H 0.8869 0.3025 -0.2285
C9 C 1.1752(2) 0.20158(17) -0.21266(13)
H7 H 1.2568 0.2194 -0.2120
C10 C 1.1628(2) 0.10208(17) -0.20824(13)
H8 H 1.2356 0.0520 -0.2054
C11 C 1.0884(2) 0.37897(16) -0.20900(14)
H9 H 1.0239 0.4294 -0.2420
H10 H 1.1725 0.3938 -0.2271
C12 C 1.0724(2) 0.38370(15) -0.12099(13)
C13 C 0.9527(2) 0.40193(15) -0.08915(14)
H11 H 0.8814 0.4215 -0.1242
C14 C 0.9367(2) 0.39178(15) -0.00686(14)
H12 H 0.8547 0.4041 0.0141
C15 C 1.0402(2) 0.36367(15) 0.04525(13)
C16 C 1.1603(2) 0.35010(16) 0.01337(14)
H13 H 1.2317 0.3340 0.0484
C17 C 1.1767(2) 0.35992(16) -0.06903(14)
H14 H 1.2591 0.3504 -0.0901
C18 C 0.9792(2) -0.34221(16) -0.13492(14)
H15 H 0.9052 -0.3546 -0.1631
H16 H 1.0541 -0.3874 -0.1488
N1A N 1.00301(17) 0.23413(13) 0.16041(10)
N2A N 0.92578(18) -0.27395(13) 0.21791(11)
C1A C 1.1018(2) 0.16196(17) 0.18616(13)
H1A H 1.1819 0.1806 0.1922
C2A C 1.0884(2) 0.06200(17) 0.20374(13)
H2A H 1.1589 0.0119 0.2223
C3A C 0.9718(2) 0.03326(16) 0.19454(12)
C4A C 0.8714(2) 0.11047(16) 0.16867(13)
H3A H 0.7900 0.0942 0.1629
C5A C 0.8891(2) 0.20953(16) 0.15150(13)
H4A H 0.8202 0.2612 0.1331
C6A C 0.9563(2) -0.07448(16) 0.20793(12)
C7A C 1.0592(2) -0.15215(17) 0.21706(13)
H5A H 1.1417 -0.1367 0.2198
C8A C 1.0422(2) -0.25030(17) 0.22205(13)
H6A H 1.1131 -0.3025 0.2285
C9A C 0.8248(2) -0.20158(17) 0.21266(13)
H7A H 0.7432 -0.2194 0.2120
C10A C 0.8372(2) -0.10208(17) 0.20824(13)
H8A H 0.7644 -0.0520 0.2054
C11A C 0.9116(2) -0.37897(16) 0.20900(14)
H9A H 0.9761 -0.4294 0.2420
H10A H 0.8275 -0.3938 0.2271
C12A C 0.9276(2) -0.38370(15) 0.12099(13)
C13A C 1.0473(2) -0.40193(15) 0.08915(14)
H11A H 1.1186 -0.4215 0.1242
C14A C 1.0633(2) -0.39178(15) 0.00686(14)
H12A H 1.1453 -0.4041 -0.0141
C15A C 0.9598(2) -0.36367(15) -0.04525(13)
C16A C 0.8397(2) -0.35010(16) -0.01337(14)
H13A H 0.7683 -0.3340 -0.0484
C17A C 0.8233(2) -0.35992(16) 0.06903(14)
H14A H 0.7409 -0.3504 0.0901
C18A C 1.0208(2) 0.34221(16) 0.13492(14)
H15A H 1.0948 0.3546 0.1631
H16A H 0.9459 0.3874 0.1488
O1 O 1.0205(2) -0.27687(15) 0.42134(12)
H17 H 0.958(3) -0.332(3) 0.419(2)
O2 O 0.97962(17) 0.17171(13) 0.38205(11)
O3 O 0.87835(18) 0.38118(14) 0.30566(11)
O4 O 0.70838(15) 0.41291(12) 0.17205(10)
O5 O 0.64003(15) 0.33045(12) 0.03490(10)
O6 O 0.81257(14) 0.18925(11) -0.03958(9)
C19 C 0.9569(3) -0.1811(2) 0.41329(14)
C20 C 0.8273(3) -0.1571(2) 0.40852(16)
H18 H 0.7777 -0.2095 0.4127
C21 C 0.7691(3) -0.0568(2) 0.39758(15)
H19 H 0.6800 -0.0417 0.3936
C22 C 0.8373(3) 0.0203(2) 0.39249(15)
H20 H 0.7960 0.0884 0.3850
C23 C 0.9705(3) -0.0020(2) 0.39844(13)
C24 C 1.0452(3) 0.07666(19) 0.39289(14)
C25 C 1.1739(2) 0.0533(2) 0.39694(15)
H21 H 1.2234 0.1058 0.3925
C26 C 1.2328(3) -0.0483(2) 0.40765(16)
H22 H 1.3219 -0.0635 0.4106
C27 C 1.1645(3) -0.1251(2) 0.41381(15)
H23 H 1.2057 -0.1932 0.4212
C28 C 1.0313(3) -0.1029(2) 0.40913(14)
C29 C 1.0478(3) 0.25426(19) 0.37648(15)
H24 H 1.0972 0.2610 0.3265
H25 H 1.1067 0.2420 0.4228
C30 C 0.9563(3) 0.3492(2) 0.37610(15)
H26 H 0.9019 0.3384 0.4237
H27 H 1.0037 0.4041 0.3814
C31 C 0.7725(3) 0.3342(2) 0.30809(16)
H28 H 0.7415 0.3217 0.3639
H29 H 0.7955 0.2680 0.2917
C32 C 0.6705(2) 0.3975(2) 0.25381(15)
H30 H 0.5951 0.3638 0.2593
H31 H 0.6477 0.4638 0.2701
C33 C 0.6044(2) 0.45300(18) 0.11756(15)
H32 H 0.6322 0.4999 0.0709
H33 H 0.5377 0.4921 0.1450
C34 C 0.5512(2) 0.37105(18) 0.08817(15)
H34 H 0.5364 0.3173 0.1342
H35 H 0.4701 0.3992 0.0596
C35 C 0.5998(2) 0.25254(18) 0.00130(15)
H36 H 0.5123 0.2742 -0.0191
H37 H 0.6026 0.1904 0.0430
C36 C 0.6857(2) 0.23173(17) -0.06636(14)
H38 H 0.6518 0.1843 -0.0944
H39 H 0.6869 0.2957 -0.1055
C37 C 0.8458(2) 0.08611(16) -0.02133(12)
C38 C 0.9776(2) 0.05294(16) -0.00914(12)
C39 C 1.0643(2) 0.12167(16) -0.01456(12)
H40 H 1.0351 0.1925 -0.0261
C40 C 1.1896(2) 0.08648(16) -0.00317(13)
H41 H 1.2467 0.1335 -0.0071
C41 C 0.7636(2) 0.01809(16) -0.01437(13)
H42 H 0.6758 0.0411 -0.0213
O1A O 0.9795(2) 0.27687(15) -0.42134(12)
H17A H 1.042(3) 0.332(3) -0.419(2)
O2A O 1.02038(17) -0.17171(13) -0.38205(11)
O3A O 1.12165(18) -0.38118(14) -0.30566(11)
O4A O 1.29162(15) -0.41291(12) -0.17205(10)
O5A O 1.35997(15) -0.33045(12) -0.03490(10)
O6A O 1.18743(14) -0.18925(11) 0.03958(9)
C19A C 1.0431(3) 0.1811(2) -0.41329(14)
C20A C 1.1727(3) 0.1571(2) -0.40852(16)
H18A H 1.2223 0.2095 -0.4127
C21A C 1.2309(3) 0.0568(2) -0.39758(15)
H19A H 1.3200 0.0417 -0.3936
C22A C 1.1627(3) -0.0203(2) -0.39249(15)
H20A H 1.2040 -0.0884 -0.3850
C23A C 1.0295(3) 0.0020(2) -0.39844(13)
C24A C 0.9548(3) -0.07666(19) -0.39289(14)
C25A C 0.8261(2) -0.0533(2) -0.39694(15)
H21A H 0.7766 -0.1058 -0.3925
C26A C 0.7672(3) 0.0483(2) -0.40765(16)
H22A H 0.6781 0.0635 -0.4106
C27A C 0.8355(3) 0.1251(2) -0.41381(15)
H23A H 0.7943 0.1932 -0.4212
C28A C 0.9687(3) 0.1029(2) -0.40913(14)
C29A C 0.9522(3) -0.25426(19) -0.37648(15)
H24A H 0.9028 -0.2610 -0.3265
H25A H 0.8933 -0.2420 -0.4228
C30A C 1.0437(3) -0.3492(2) -0.37610(15)
H26A H 1.0981 -0.3384 -0.4237
H27A H 0.9963 -0.4041 -0.3814
C31A C 1.2275(3) -0.3342(2) -0.30809(16)
H28A H 1.2585 -0.3217 -0.3639
H29A H 1.2045 -0.2680 -0.2917
C32A C 1.3295(2) -0.3975(2) -0.25381(15)
H30A H 1.4049 -0.3638 -0.2593
H31A H 1.3523 -0.4638 -0.2701
C33A C 1.3956(2) -0.45300(18) -0.11756(15)
H32A H 1.3678 -0.4999 -0.0709
H33A H 1.4623 -0.4921 -0.1450
C34A C 1.4488(2) -0.37105(18) -0.08817(15)
H34A H 1.4636 -0.3173 -0.1342
H35A H 1.5299 -0.3992 -0.0596
C35A C 1.4002(2) -0.25254(18) -0.00130(15)
H36A H 1.4877 -0.2742 0.0191
H37A H 1.3974 -0.1904 -0.0430
C36A C 1.3143(2) -0.23173(17) 0.06636(14)
H38A H 1.3482 -0.1843 0.0944
H39A H 1.3131 -0.2957 0.1055
C37A C 1.1542(2) -0.08611(16) 0.02133(12)
C38A C 1.0224(2) -0.05294(16) 0.00914(12)
C39A C 0.9357(2) -0.12167(16) 0.01456(12)
H40A H 0.9649 -0.1925 0.0261
C40A C 0.8104(2) -0.08648(16) 0.00317(13)
H41A H 0.7533 -0.1335 0.0071
C41A C 1.2364(2) -0.01809(16) 0.01437(13)
H42A H 1.3242 -0.0411 0.0213
P1 P 0.46975(6) 0.02298(5) 0.19580(4)
F1 F 0.36602(13) -0.04789(12) 0.18912(9)
F2 F 0.57393(14) 0.09239(14) 0.20307(11)
F3 F 0.38538(16) 0.07197(15) 0.26055(11)
F4 F 0.54041(16) -0.06147(14) 0.26538(11)
F5 F 0.39793(16) 0.10811(16) 0.12686(12)
F6 F 0.55250(17) -0.02530(19) 0.13068(12)
P2 P 0.28461(6) 0.46176(4) 0.29685(4)
F7 F 0.41047(14) 0.48039(11) 0.33549(9)
F8 F 0.15753(14) 0.44432(11) 0.25727(9)
F9 F 0.30098(15) 0.54805(12) 0.21966(9)
F10 F 0.20412(14) 0.54619(11) 0.33865(10)
F11 F 0.36295(16) 0.37852(13) 0.25345(11)
F12 F 0.26656(14) 0.37757(11) 0.37371(9)
N3 N 0.5430(3) 0.2766(2) 0.49167(19)
C42 C 0.5168(3) 0.2298(2) 0.4480(2)
C43 C 0.4870(4) 0.1717(3) 0.3903(3)
H43 H 0.4133 0.2083 0.3582
H44 H 0.4688 0.1059 0.4188
H45 H 0.5586 0.1614 0.3548
N4 N 0.8433(3) -0.4059(2) 0.4096(2)
C44 C 0.7646(3) -0.4488(2) 0.4376(2)
C45 C 0.6666(4) -0.5020(3) 0.4732(2)
H46 H 0.7040 -0.5656 0.5081
H47 H 0.6161 -0.5167 0.4307
H48 H 0.6129 -0.4602 0.5052
N5 N 0.5760(2) 0.67667(18) 0.20647(17)
C46 C 0.5030(2) 0.69712(19) 0.25254(16)
C47 C 0.4096(3) 0.7262(2) 0.30974(17)
H49 H 0.3797 0.7991 0.2955
H50 H 0.4471 0.7096 0.3639
H51 H 0.3387 0.6895 0.3085
loop_
_geom_bond_atom_site_label_1
_geom_bond_atom_site_label_2
_geom_bond_site_symmetry_1
_geom_bond_site_symmetry_2
N1 C1 1_555 1_555
N2 C8 1_555 1_555
C1 H1 1_555 1_555
C2 C1 1_555 1_555
H2 C2 1_555 1_555
C3 C2 1_555 1_555
C4 C3 1_555 1_555
H3 C4 1_555 1_555
C5 N1 1_555 1_555
H4 C5 1_555 1_555
C6 C3 1_555 1_555
C7 C6 1_555 1_555
H5 C7 1_555 1_555
C8 C7 1_555 1_555
H6 C8 1_555 1_555
C9 N2 1_555 1_555
H7 C9 1_555 1_555
C10 C6 1_555 1_555
H8 C10 1_555 1_555
C11 N2 1_555 1_555
H9 C11 1_555 1_555
H10 C11 1_555 1_555
C12 C11 1_555 1_555
C13 C12 1_555 1_555
H11 C13 1_555 1_555
C14 C13 1_555 1_555
H12 C14 1_555 1_555
C15 C14 1_555 1_555
C16 C15 1_555 1_555
H13 C16 1_555 1_555
C17 C12 1_555 1_555
H14 C17 1_555 1_555
C18 N1 1_555 1_555
H15 C18 1_555 1_555
H16 C18 1_555 1_555
O1 H17 1_555 1_555
O2 C24 1_555 1_555
O3 C30 1_555 1_555
O4 C32 1_555 1_555
O5 C34 1_555 1_555
O6 C36 1_555 1_555
C19 O1 1_555 1_555
C20 C19 1_555 1_555
H18 C20 1_555 1_555
C21 C20 1_555 1_555
H19 C21 1_555 1_555
C22 C21 1_555 1_555
H20 C22 1_555 1_555
C23 C22 1_555 1_555
C24 C23 1_555 1_555
C25 C24 1_555 1_555
H21 C25 1_555 1_555
C26 C25 1_555 1_555
H22 C26 1_555 1_555
C27 C26 1_555 1_555
H23 C27 1_555 1_555
C28 C19 1_555 1_555
C29 O2 1_555 1_555
H24 C29 1_555 1_555
H25 C29 1_555 1_555
C30 C29 1_555 1_555
H26 C30 1_555 1_555
H27 C30 1_555 1_555
C31 O3 1_555 1_555
H28 C31 1_555 1_555
H29 C31 1_555 1_555
C32 C31 1_555 1_555
H30 C32 1_555 1_555
H31 C32 1_555 1_555
C33 O4 1_555 1_555
H32 C33 1_555 1_555
H33 C33 1_555 1_555
C34 C33 1_555 1_555
H34 C34 1_555 1_555
H35 C34 1_555 1_555
C35 O5 1_555 1_555
H36 C35 1_555 1_555
H37 C35 1_555 1_555
C36 C35 1_555 1_555
H38 C36 1_555 1_555
H39 C36 1_555 1_555
C37 O6 1_555 1_555
C38 C37 1_555 1_555
C39 C38 1_555 1_555
H40 C39 1_555 1_555
C40 C39 1_555 1_555
H41 C40 1_555 1_555
C41 C37 1_555 1_555
H42 C41 1_555 1_555
P1 F1 1_555 1_555
F2 P1 1_555 1_555
F3 P1 1_555 1_555
F4 P1 1_555 1_555
F5 P1 1_555 1_555
F6 P1 1_555 1_555
P2 F7 1_555 1_555
F8 P2 1_555 1_555
F9 P2 1_555 1_555
F10 P2 1_555 1_555
F11 P2 1_555 1_555
F12 P2 1_555 1_555
N3 C42 1_555 1_555
C42 C43 1_555 1_555
C43 H43 1_555 1_555
H44 C43 1_555 1_555
H45 C43 1_555 1_555
N4 C44 1_555 1_555
C44 C45 1_555 1_555
C45 H46 1_555 1_555
H47 C45 1_555 1_555
H48 C45 1_555 1_555
N5 C46 1_555 1_555
C46 C47 1_555 1_555
C47 H49 1_555 1_555
H50 C47 1_555 1_555
H51 C47 1_555 1_555
N1A C1A 1_555 1_555
N2A C8A 1_555 1_555
C1A H1A 1_555 1_555
C2A C1A 1_555 1_555
H2A C2A 1_555 1_555
C3A C2A 1_555 1_555
C4A C3A 1_555 1_555
H3A C4A 1_555 1_555
C5A N1A 1_555 1_555
H4A C5A 1_555 1_555
C6A C3A 1_555 1_555
C7A C6A 1_555 1_555
H5A C7A 1_555 1_555
C8A C7A 1_555 1_555
H6A C8A 1_555 1_555
C9A N2A 1_555 1_555
H7A C9A 1_555 1_555
C10A C6A 1_555 1_555
H8A C10A 1_555 1_555
C11A N2A 1_555 1_555
H9A C11A 1_555 1_555
H10A C11A 1_555 1_555
C12A C11A 1_555 1_555
C13A C12A 1_555 1_555
H11A C13A 1_555 1_555
C14A C13A 1_555 1_555
H12A C14A 1_555 1_555
C15A C18 1_555 1_555
C16A C15A 1_555 1_555
H13A C16A 1_555 1_555
C17A C12A 1_555 1_555
H14A C17A 1_555 1_555
C18A C15 1_555 1_555
H15A C18A 1_555 1_555
H16A C18A 1_555 1_555
O1A H17A 1_555 1_555
O2A C24A 1_555 1_555
O3A C30A 1_555 1_555
O4A C32A 1_555 1_555
O5A C34A 1_555 1_555
O6A C36A 1_555 1_555
C19A O1A 1_555 1_555
C20A C19A 1_555 1_555
H18A C20A 1_555 1_555
C21A C20A 1_555 1_555
H19A C21A 1_555 1_555
C22A C21A 1_555 1_555
H20A C22A 1_555 1_555
C23A C22A 1_555 1_555
C24A C23A 1_555 1_555
C25A C24A 1_555 1_555
H21A C25A 1_555 1_555
C26A C25A 1_555 1_555
H22A C26A 1_555 1_555
C27A C26A 1_555 1_555
H23A C27A 1_555 1_555
C28A C19A 1_555 1_555
C29A O2A 1_555 1_555
H24A C29A 1_555 1_555
H25A C29A 1_555 1_555
C30A C29A 1_555 1_555
H26A C30A 1_555 1_555
H27A C30A 1_555 1_555
C31A O3A 1_555 1_555
H28A C31A 1_555 1_555
H29A C31A 1_555 1_555
C32A C31A 1_555 1_555
H30A C32A 1_555 1_555
H31A C32A 1_555 1_555
C33A O4A 1_555 1_555
H32A C33A 1_555 1_555
H33A C33A 1_555 1_555
C34A C33A 1_555 1_555
H34A C34A 1_555 1_555
H35A C34A 1_555 1_555
C35A O5A 1_555 1_555
H36A C35A 1_555 1_555
H37A C35A 1_555 1_555
C36A C35A 1_555 1_555
H38A C36A 1_555 1_555
H39A C36A 1_555 1_555
C37A O6A 1_555 1_555
C38A C38 1_555 1_555
C39A C38A 1_555 1_555
H40A C39A 1_555 1_555
C40A C41 1_555 1_555
H41A C40A 1_555 1_555
C41A C40 1_555 1_555
H42A C41A 1_555 1_555
C4 C5 1_555 1_555
C9 C10 1_555 1_555
C16 C17 1_555 1_555
C23 C28 1_555 1_555
C27 C28 1_555 1_555
N1A C18A 1_555 1_555
C4A C5A 1_555 1_555
C9A C10A 1_555 1_555
C14A C15A 1_555 1_555
C16A C17A 1_555 1_555
C23A C28A 1_555 1_555
C27A C28A 1_555 1_555
C37A C38A 1_555 1_555
C37A C41A 1_555 1_555
C39A C40A 1_555 1_555

#END
