
#######################################################################
#
#                 Cambridge Crystallographic Data Centre
#                                CCDC 
#
#######################################################################
#
# If this CIF has been generated from an entry in the Cambridge 
# Structural Database, then it will include bibliographic, chemical, 
# crystal, experimental, refinement or atomic coordinate data resulting 
# from the CCDC's data processing and validation procedures.
#
#######################################################################

data_LEJQUO
_chemical_formula_moiety         
'C82 H94 O22 2-,2.5(C36 H32 N4 4+),8(F6 P1 1-),5(C2 H3 N1)'
_chemical_name_systematic        
'[4]-(1,59-Dioxido-3,6,9,12,15,17,20,23,26,29,31,34,37,40,43,45,48,51,54,57-icosaoxa-2,16,30,44,58(1,5)-pentanaphthalenanonapentacontaphane)-tris(1,6(1,4),2,7(4,1)-tetrapyridina-4,9(1,4)-dibenzenacyclodecaphane)-pseudorotaxane [3]-(1,59-dioxido-3,6,9,12,15,17,20,23,26,29,31,34,37,40,43,45,48,51,54,57-icosaoxa-2,16,30,44,58(1,5)-pentanaphthalenanonapentacontaphane)-bis(1,6(1,4),2,7(4,1)-tetrapyridina-4,9(1,4)-dibenzenacyclodecaphane)-pseudorotaxane hexadecakis(hexafluorophosphate) acetonitrile solvate'
_symmetry_cell_setting           monoclinic
_symmetry_space_group_name_H-M   'P 21/c'
_symmetry_Int_Tables_number      14
_space_group_name_Hall           '-P 2ybc'
loop_
_symmetry_equiv_pos_site_id
_symmetry_equiv_pos_as_xyz
1 x,y,z
2 -x,1/2+y,1/2-z
3 -x,-y,-z
4 x,1/2-y,1/2+z
_cell_length_a                   14.0020(5)
_cell_length_b                   13.7439(4)
_cell_length_c                   21.1562(7)
_cell_angle_alpha                90
_cell_angle_beta                 97.422(2)
_cell_angle_gamma                90
_cell_volume                     4037.23
_exptl_crystal_colour            violet
_exptl_crystal_description       plate
_cell_formula_units_Z            1
loop_
_atom_site_label
_atom_site_type_symbol
_atom_site_fract_x
_atom_site_fract_y
_atom_site_fract_z
P2 P 0.4450(2) 0.8274(2) 0.84641(15)
F7 F 0.4227(7) 0.8418(7) 0.7726(4)
F8 F 0.4701(5) 0.8120(5) 0.9216(3)
F9 F 0.4663(15) 0.9369(7) 0.8548(5)
F10 F 0.5483(9) 0.8063(12) 0.8370(5)
F11 F 0.4321(13) 0.7152(8) 0.8414(4)
F12 F 0.3426(8) 0.8420(15) 0.8594(6)
O1 O -0.2103(7) 0.5292(5) 0.5023(5)
O2 O -0.3614(7) 0.6277(7) 0.5516(6)
O3 O -0.3799(13) 0.7754(12) 0.6396(8)
O4 O -0.2871(5) 0.9495(7) 0.6698(4)
O5 O -0.1302(4) 1.0164(4) 0.5995(3)
C1 C -0.1319(11) 0.5292(7) 0.4071(6)
H1 H -0.1902 0.5419 0.3801
C2 C -0.0470(13) 0.5178(7) 0.3832(6)
H2 H -0.0485 0.5225 0.3383
C3 C 0.0401(10) 0.5001(6) 0.4181(6)
H3 H 0.0967 0.4912 0.3984
C4 C -0.0421(7) 0.5047(5) 0.5129(5)
C5 C -0.1292(8) 0.5213(6) 0.4745(6)
C6 C -0.2973(10) 0.5495(9) 0.4672(8)
H4 H -0.3118 0.4995 0.4336
H5 H -0.2937 0.6134 0.4460
C7 C -0.3705(12) 0.5514(10) 0.5054(10)
H6 H -0.3716 0.4882 0.5278
H7 H -0.4329 0.5587 0.4779
C8 C -0.4441(12) 0.6519(12) 0.5804(11)
H8 H -0.4818 0.7004 0.5530
H9 H -0.4844 0.5927 0.5809
C9 C -0.4301(13) 0.6850(14) 0.6356(10)
H10 H -0.3925 0.6370 0.6635
H11 H -0.4929 0.6938 0.6515
C10 C -0.3694(16) 0.8169(14) 0.7008(9)
H12 H -0.4281 0.8547 0.7057
H13 H -0.3644 0.7638 0.7327
C11 C -0.2893(13) 0.8780(13) 0.7144(8)
H14 H -0.2907 0.9081 0.7568
H15 H -0.2298 0.8386 0.7163
C12 C -0.2175(11) 1.0231(13) 0.6877(6)
H16 H -0.2432 1.0856 0.6695
H17 H -0.2102 1.0297 0.7347
C13 C -0.1282(11) 1.0091(12) 0.6698(6)
H18 H -0.1039 0.9441 0.6842
H19 H -0.0833 1.0585 0.6907
C14 C -0.0429(6) 1.0027(5) 0.5800(4)
C15 C 0.0393(7) 0.9819(6) 0.6185(4)
H20 H 0.0385 0.9776 0.6632
C16 C 0.1259(6) 0.9667(6) 0.5929(4)
H21 H 0.1833 0.9533 0.6207
C17 C 0.1287(5) 0.9709(5) 0.5287(4)
H22 H 0.1874 0.9601 0.5118
C18 C -0.0443(5) 1.0089(4) 0.5116(4)
O1B O 0.2103(7) 0.4708(5) 0.4977(5)
O1_2 O -0.2103(7) -0.4708(5) 0.5023(5)
O1B_2 O 0.2103(7) 1.4708(5) 0.4977(5)
O1_3 O -0.2103(7) 1.5292(5) 0.5023(5)
O1B_3 O 0.2103(7) -0.5292(5) 0.4977(5)
O2B O 0.3614(7) 0.3723(7) 0.4484(6)
O2_2 O -0.3614(7) -0.3723(7) 0.5516(6)
O2B_2 O 0.3614(7) 1.3723(7) 0.4484(6)
O3B O 0.3799(13) 0.2246(12) 0.3604(8)
O3_2 O -0.3799(13) -0.2246(12) 0.6396(8)
O3B_2 O 0.3799(13) 1.2246(12) 0.3604(8)
O4B O 0.2871(5) 0.0505(7) 0.3302(4)
O4_2 O -0.2871(5) -0.0505(7) 0.6698(4)
O4B_2 O 0.2871(5) 1.0505(7) 0.3302(4)
O5B O 0.1302(4) -0.0164(4) 0.4005(3)
O5_2 O -0.1302(4) 0.0164(4) 0.5995(3)
O5B_2 O 0.1302(4) 0.9836(4) 0.4005(3)
C1B C 0.1319(11) 0.4708(7) 0.5929(6)
C1B_2 C 0.1319(11) 1.4708(7) 0.5929(6)
C1_2 C -0.1319(11) 1.5292(7) 0.4071(6)
C1_3 C -0.1319(11) -0.4708(7) 0.4071(6)
C1B_3 C 0.1319(11) -0.5292(7) 0.5929(6)
H1B H 0.1902 0.4581 0.6199
H1B_2 H 0.1902 1.4581 0.6199
H1_2 H -0.1902 1.5419 0.3801
H1_3 H -0.1902 -0.4581 0.3801
H1B_3 H 0.1902 -0.5419 0.6199
C2B C 0.0470(13) 0.4822(7) 0.6168(6)
C2B_2 C 0.0470(13) 1.4822(7) 0.6168(6)
C2_2 C -0.0470(13) 1.5178(7) 0.3832(6)
C2_3 C -0.0470(13) -0.4822(7) 0.3832(6)
C2B_3 C 0.0470(13) -0.5178(7) 0.6168(6)
H2B H 0.0485 0.4775 0.6617
H2B_2 H 0.0485 1.4775 0.6617
H2_2 H -0.0485 1.5225 0.3383
H2_3 H -0.0485 -0.4775 0.3383
H2B_3 H 0.0485 -0.5225 0.6617
C3B C -0.0401(10) 0.4999(6) 0.5819(6)
C3_2 C 0.0401(10) 1.5001(6) 0.4181(6)
C3B_2 C -0.0401(10) 1.4999(6) 0.5819(6)
C3B_3 C -0.0401(10) -0.5001(6) 0.5819(6)
C3_3 C 0.0401(10) -0.4999(6) 0.4181(6)
H3B H -0.0967 0.5088 0.6016
H3_2 H 0.0967 1.4912 0.3984
H3B_2 H -0.0967 1.5088 0.6016
H3B_3 H -0.0967 -0.4912 0.6016
H3_3 H 0.0967 -0.5088 0.3984
C4B C 0.0421(7) 0.4953(5) 0.4871(5)
C4B_2 C 0.0421(7) 1.4953(5) 0.4871(5)
C4_2 C -0.0421(7) 1.5047(5) 0.5129(5)
C4_3 C -0.0421(7) -0.4953(5) 0.5129(5)
C4B_3 C 0.0421(7) -0.5047(5) 0.4871(5)
C5B C 0.1292(8) 0.4787(6) 0.5255(6)
C5_2 C -0.1292(8) -0.4787(6) 0.4745(6)
C5B_2 C 0.1292(8) 1.4787(6) 0.5255(6)
C5_3 C -0.1292(8) 1.5213(6) 0.4745(6)
C5B_3 C 0.1292(8) -0.5213(6) 0.5255(6)
C6B C 0.2973(10) 0.4505(9) 0.5328(8)
C6_2 C -0.2973(10) -0.4505(9) 0.4672(8)
C6B_2 C 0.2973(10) 1.4505(9) 0.5328(8)
H4B H 0.3118 0.5005 0.5664
H4_2 H -0.3118 -0.5005 0.4336
H4B_2 H 0.3118 1.5005 0.5664
H5B H 0.2937 0.3866 0.5540
H5_2 H -0.2937 -0.3866 0.4460
H5B_2 H 0.2937 1.3866 0.5540
C7B C 0.3705(12) 0.4486(10) 0.4946(10)
C7_2 C -0.3705(12) -0.4486(10) 0.5054(10)
C7B_2 C 0.3705(12) 1.4486(10) 0.4946(10)
H6_2 H -0.3716 -0.5118 0.5278
H6B H 0.3716 0.5118 0.4722
H6B_2 H 0.3716 1.5118 0.4722
H7_2 H -0.4329 -0.4413 0.4779
H7B H 0.4329 0.4413 0.5221
H7B_2 H 0.4329 1.4413 0.5221
C8B C 0.4441(12) 0.3481(12) 0.4196(11)
C8_2 C -0.4441(12) -0.3481(12) 0.5804(11)
C8B_2 C 0.4441(12) 1.3481(12) 0.4196(11)
H8B H 0.4818 0.2996 0.4470
H8_2 H -0.4818 -0.2996 0.5530
H8B_2 H 0.4818 1.2996 0.4470
H9B H 0.4844 0.4073 0.4191
H9_2 H -0.4844 -0.4073 0.5809
H9B_2 H 0.4844 1.4073 0.4191
C9B C 0.4301(13) 0.3150(14) 0.3644(10)
C9_2 C -0.4301(13) -0.3150(14) 0.6356(10)
C9B_2 C 0.4301(13) 1.3150(14) 0.3644(10)
H10_2 H -0.3925 -0.3630 0.6635
H10B H 0.3925 0.3630 0.3365
H10B_2 H 0.3925 1.3630 0.3365
H11_2 H -0.4929 -0.3062 0.6515
H11B H 0.4929 0.3062 0.3485
H11B_2 H 0.4929 1.3062 0.3485
C10B C 0.3694(16) 0.1831(14) 0.2992(9)
C10_2 C -0.3694(16) -0.1831(14) 0.7008(9)
C10B_2 C 0.3694(16) 1.1831(14) 0.2992(9)
H12B H 0.4281 0.1453 0.2943
H12_2 H -0.4281 -0.1453 0.7057
H12B_2 H 0.4281 1.1453 0.2943
H13B H 0.3644 0.2362 0.2673
H13_2 H -0.3644 -0.2362 0.7327
H13B_2 H 0.3644 1.2362 0.2673
C11B C 0.2893(13) 0.1220(13) 0.2856(8)
C11_2 C -0.2893(13) -0.1220(13) 0.7144(8)
C11B_2 C 0.2893(13) 1.1220(13) 0.2856(8)
H14_2 H -0.2907 -0.0919 0.7568
H14B H 0.2907 0.0919 0.2432
H14B_2 H 0.2907 1.0919 0.2432
H15_2 H -0.2298 -0.1614 0.7163
H15B H 0.2298 0.1614 0.2837
H15B_2 H 0.2298 1.1614 0.2837
C12B C 0.2175(11) -0.0231(13) 0.3123(6)
C12_2 C -0.2175(11) 0.0231(13) 0.6877(6)
C12B_2 C 0.2175(11) 0.9769(13) 0.3123(6)
H16B H 0.2432 -0.0856 0.3305
H16_2 H -0.2432 0.0856 0.6695
H16B_2 H 0.2432 0.9144 0.3305
H17B H 0.2102 -0.0297 0.2653
H17_2 H -0.2102 0.0297 0.7347
H17B_2 H 0.2102 0.9703 0.2653
C13B C 0.1282(11) -0.0091(12) 0.3302(6)
C13_2 C -0.1282(11) 0.0091(12) 0.6698(6)
C13B_2 C 0.1282(11) 0.9909(12) 0.3302(6)
H18_2 H -0.1039 -0.0559 0.6842
H18B H 0.1039 0.0559 0.3158
H18B_2 H 0.1039 1.0559 0.3158
H19_2 H -0.0833 0.0585 0.6907
H19B H 0.0833 -0.0585 0.3093
H19B_2 H 0.0833 0.9415 0.3093
C14B C 0.0429(6) -0.0027(5) 0.4200(4)
C14_2 C -0.0429(6) 0.0027(5) 0.5800(4)
C14B_2 C 0.0429(6) 0.9973(5) 0.4200(4)
C15B C -0.0393(7) 0.0181(6) 0.3815(4)
C15_2 C 0.0393(7) -0.0181(6) 0.6185(4)
C15B_2 C -0.0393(7) 1.0181(6) 0.3815(4)
H20B H -0.0385 0.0224 0.3368
H20_2 H 0.0385 -0.0224 0.6632
H20B_2 H -0.0385 1.0224 0.3368
C16B C -0.1259(6) 0.0333(6) 0.4071(4)
C16_2 C 0.1259(6) -0.0333(6) 0.5929(4)
C16B_2 C -0.1259(6) 1.0333(6) 0.4071(4)
H21B H -0.1833 0.0467 0.3793
H21_2 H 0.1833 -0.0467 0.6207
H21B_2 H -0.1833 1.0467 0.3793
C17B C -0.1287(5) 0.0291(5) 0.4713(4)
C17_2 C 0.1287(5) -0.0291(5) 0.5287(4)
C17B_2 C -0.1287(5) 1.0291(5) 0.4713(4)
H22B H -0.1874 0.0399 0.4882
H22_2 H 0.1874 -0.0399 0.5118
H22B_2 H -0.1874 1.0399 0.4882
C18_2 C -0.0443(5) 0.0089(4) 0.5116(4)
C18B C 0.0443(5) -0.0089(4) 0.4884(4)
C18B_2 C 0.0443(5) 0.9911(4) 0.4884(4)
N1 N -0.2937(4) 0.8293(4) 0.4732(3)
N2 N 0.1989(5) 0.7182(4) 0.5115(3)
C19 C -0.3916(6) 0.8727(7) 0.4662(5)
H23 H -0.4271 0.8489 0.5007
H24 H -0.4277 0.8532 0.4248
C20 C -0.2460(6) 0.8122(6) 0.5320(4)
H25 H -0.2787 0.8206 0.5682
C21 C -0.1513(6) 0.7828(5) 0.5404(4)
H26 H -0.1192 0.7711 0.5821
C22 C -0.1025(5) 0.7702(4) 0.4871(3)
C23 C -0.1573(6) 0.7848(5) 0.4278(4)
H27 H -0.1286 0.7734 0.3902
C24 C -0.2493(6) 0.8144(6) 0.4225(4)
H28 H -0.2834 0.8249 0.3813
C25 C 0.0001(6) 0.7464(4) 0.4958(3)
C26 C 0.0538(5) 0.7306(4) 0.5554(3)
H29 H 0.0216 0.7292 0.5922
C27 C 0.1495(6) 0.7172(5) 0.5620(3)
H30 H 0.1833 0.7069 0.6033
C28 C 0.1498(6) 0.7306(5) 0.4519(4)
H31 H 0.1840 0.7299 0.4159
C29 C 0.0537(6) 0.7438(5) 0.4433(4)
H32 H 0.0212 0.7515 0.4014
C30 C 0.3035(7) 0.7156(6) 0.5206(5)
H33 H 0.3270 0.6814 0.4845
H34 H 0.3267 0.6798 0.5603
C31 C 0.3424(5) 0.8201(6) 0.5250(4)
C32 C 0.3594(5) 0.8671(6) 0.5841(4)
H35 H 0.3571 0.8312 0.6222
C33 C 0.3790(5) 0.9631(6) 0.5873(4)
H36 H 0.3903 0.9941 0.6277
C34 C -0.3830(5) 0.9809(6) 0.4695(5)
C35 C -0.3734(5) 1.0298(7) 0.5260(5)
H37 H -0.3811 0.9956 0.5640
C36 C 0.3527(5) 0.8718(7) 0.4709(5)
H38 H 0.3454 0.8397 0.4308
N1B N 0.2937(4) 1.1707(4) 0.5268(3)
N2B N -0.1989(5) 1.2818(4) 0.4885(3)
C19B C 0.3916(6) 1.1273(7) 0.5338(5)
H23B H 0.4271 1.1511 0.4993
H24B H 0.4277 1.1468 0.5752
C20B C 0.2460(6) 1.1878(6) 0.4680(4)
H25B H 0.2787 1.1794 0.4318
C21B C 0.1513(6) 1.2172(5) 0.4596(4)
H26B H 0.1192 1.2289 0.4179
C22B C 0.1025(5) 1.2298(4) 0.5129(3)
C23B C 0.1573(6) 1.2152(5) 0.5722(4)
H27B H 0.1286 1.2266 0.6098
C24B C 0.2493(6) 1.1856(6) 0.5775(4)
H28B H 0.2834 1.1751 0.6187
C25B C -0.0001(6) 1.2536(4) 0.5042(3)
C26B C -0.0538(5) 1.2694(4) 0.4446(3)
H29B H -0.0216 1.2708 0.4078
C27B C -0.1495(6) 1.2828(5) 0.4380(3)
H30B H -0.1833 1.2931 0.3967
C28B C -0.1498(6) 1.2694(5) 0.5481(4)
H31B H -0.1840 1.2701 0.5841
C29B C -0.0537(6) 1.2562(5) 0.5567(4)
H32B H -0.0212 1.2485 0.5986
C30B C -0.3035(7) 1.2844(6) 0.4794(5)
H33B H -0.3270 1.3186 0.5155
H34B H -0.3267 1.3202 0.4397
C31B C -0.3424(5) 1.1799(6) 0.4750(4)
C32B C -0.3594(5) 1.1329(6) 0.4159(4)
H35B H -0.3571 1.1688 0.3778
C33B C -0.3790(5) 1.0369(6) 0.4127(4)
H36B H -0.3903 1.0059 0.3723
C34B C 0.3830(5) 1.0191(6) 0.5305(5)
C35B C 0.3734(5) 0.9702(7) 0.4740(5)
H37B H 0.3811 1.0044 0.4360
C36B C -0.3527(5) 1.1282(7) 0.5291(5)
H38B H -0.3454 1.1603 0.5692
N3 N 0.3302(7) 0.6243(9) 0.6691(5)
C37 C 0.3822(11) 0.5949(11) 0.7078(7)
C38 C 0.4602(10) 0.5626(13) 0.7603(6)
H39 H 0.4305 0.5302 0.7941
H40 H 0.4965 0.6195 0.7780
H41 H 0.5039 0.5172 0.7428
N4 N -0.2978(8) 0.5855(7) 0.7847(5)
C39 C -0.2540(9) 0.5577(9) 0.7491(6)
C40 C -0.1986(11) 0.5198(14) 0.7018(8)
H42 H -0.1392 0.5578 0.7022
H43 H -0.2364 0.5242 0.6596
H44 H -0.1823 0.4516 0.7115
P1 P 0.0305(3) 0.7493(2) 0.74640(13)
F1 F 0.1149(6) 0.7387(6) 0.8038(3)
F2 F -0.0491(5) 0.7629(6) 0.6880(3)
F3 F 0.1089(7) 0.7865(9) 0.7027(4)
F4 F 0.0208(7) 0.8578(6) 0.7662(4)
F5 F -0.0443(5) 0.7159(8) 0.7904(3)
F6 F 0.0522(8) 0.6516(7) 0.7207(4)
loop_
_geom_bond_atom_site_label_1
_geom_bond_atom_site_label_2
_geom_bond_site_symmetry_1
_geom_bond_site_symmetry_2
P1 F1 1_555 1_555
P2 F7 1_555 1_555
F2 P1 1_555 1_555
F3 P1 1_555 1_555
F4 P1 1_555 1_555
F5 P1 1_555 1_555
F6 P1 1_555 1_555
F8 P2 1_555 1_555
F9 P2 1_555 1_555
F10 P2 1_555 1_555
F11 P2 1_555 1_555
F12 P2 1_555 1_555
O1 C5 1_555 1_555
O2 C7 1_555 1_555
O3 C9 1_555 1_555
O4 C11 1_555 1_555
O5 C13 1_555 1_555
N1 C19 1_555 1_555
N2 C27 1_555 1_555
N3 C37 1_555 1_555
N4 C39 1_555 1_555
C1 H1 1_555 1_555
C2 C1 1_555 1_555
H2 C2 1_555 1_555
C3 C2 1_555 1_555
H3 C3 1_555 1_555
C4 C5 1_555 1_555
C5 C1 1_555 1_555
C6 O1 1_555 1_555
H4 C6 1_555 1_555
H5 C6 1_555 1_555
C7 C6 1_555 1_555
H6 C7 1_555 1_555
H7 C7 1_555 1_555
C8 O2 1_555 1_555
H8 C8 1_555 1_555
H9 C8 1_555 1_555
C9 C8 1_555 1_555
H10 C9 1_555 1_555
H11 C9 1_555 1_555
C10 O3 1_555 1_555
H12 C10 1_555 1_555
H13 C10 1_555 1_555
C11 C10 1_555 1_555
H14 C11 1_555 1_555
H15 C11 1_555 1_555
C12 O4 1_555 1_555
H16 C12 1_555 1_555
H17 C12 1_555 1_555
C13 C12 1_555 1_555
H18 C13 1_555 1_555
H19 C13 1_555 1_555
C14 O5 1_555 1_555
C15 C14 1_555 1_555
H20 C15 1_555 1_555
C16 C15 1_555 1_555
H21 C16 1_555 1_555
C17 C16 1_555 1_555
H22 C17 1_555 1_555
C18 C14 1_555 1_555
C19 H23 1_555 1_555
H24 C19 1_555 1_555
C20 N1 1_555 1_555
H25 C20 1_555 1_555
C21 C20 1_555 1_555
H26 C21 1_555 1_555
C22 C21 1_555 1_555
C23 C22 1_555 1_555
H27 C23 1_555 1_555
C24 N1 1_555 1_555
H28 C24 1_555 1_555
C25 C22 1_555 1_555
C26 C25 1_555 1_555
H29 C26 1_555 1_555
C27 C26 1_555 1_555
H30 C27 1_555 1_555
C28 N2 1_555 1_555
H31 C28 1_555 1_555
C29 C25 1_555 1_555
H32 C29 1_555 1_555
C30 N2 1_555 1_555
H33 C30 1_555 1_555
H34 C30 1_555 1_555
C31 C30 1_555 1_555
C32 C31 1_555 1_555
H35 C32 1_555 1_555
C33 C32 1_555 1_555
H36 C33 1_555 1_555
C34 C19 1_555 1_555
C35 C34 1_555 1_555
H37 C35 1_555 1_555
C36 C31 1_555 1_555
H38 C36 1_555 1_555
C37 C38 1_555 1_555
C38 H39 1_555 1_555
H40 C38 1_555 1_555
H41 C38 1_555 1_555
C39 C40 1_555 1_555
C40 H42 1_555 1_555
H43 C40 1_555 1_555
H44 C40 1_555 1_555
O1B C5B 1_555 1_555
O1_2 C5_2 1_555 1_555
O1B_2 C5B_2 1_555 1_555
O1_3 C5_3 1_555 1_555
O1B_3 C5B_3 1_555 1_555
O2B C7B 1_555 1_555
O2_2 C7_2 1_555 1_555
O2B_2 C7B_2 1_555 1_555
O3B C9B 1_555 1_555
O3_2 C9_2 1_555 1_555
O3B_2 C9B_2 1_555 1_555
O4B C11B 1_555 1_555
O4_2 C11_2 1_555 1_555
O4B_2 C11B_2 1_555 1_555
O5B C13B 1_555 1_555
O5_2 C13_2 1_555 1_555
O5B_2 C13B_2 1_555 1_555
N1B C19B 1_555 1_555
N2B C27B 1_555 1_555
C1B H1B 1_555 1_555
C1B_2 H1B_2 1_555 1_555
C1_2 H1_2 1_555 1_555
C1_3 H1_3 1_555 1_555
C1B_3 H1B_3 1_555 1_555
C2B C1B 1_555 1_555
C2B_2 C1B_2 1_555 1_555
C2_2 C1_2 1_555 1_555
C2_3 C1_3 1_555 1_555
C2B_3 C1B_3 1_555 1_555
H2B C2B 1_555 1_555
H2B_2 C2B_2 1_555 1_555
H2_2 C2_2 1_555 1_555
H2_3 C2_3 1_555 1_555
H2B_3 C2B_3 1_555 1_555
C3B C4 1_555 1_555
C3_2 C2_2 1_555 1_555
C3B_2 C2B_2 1_555 1_555
C3B_3 C2B_3 1_555 1_555
C3_3 C2_3 1_555 1_555
H3B C3B 1_555 1_555
H3_2 C3_2 1_555 1_555
H3B_2 C3B_2 1_555 1_555
H3B_3 C3B_3 1_555 1_555
H3_3 C3_3 1_555 1_555
C4B C3 1_555 1_555
C4B_2 C3_2 1_555 1_555
C4_2 C3B_2 1_555 1_555
C4_3 C3B_3 1_555 1_555
C4B_3 C3_3 1_555 1_555
C5B C1B 1_555 1_555
C5_2 C1_3 1_555 1_555
C5B_2 C1B_2 1_555 1_555
C5_3 C1_2 1_555 1_555
C5B_3 C1B_3 1_555 1_555
C6B O1B 1_555 1_555
C6_2 O1_2 1_555 1_555
C6B_2 O1B_2 1_555 1_555
H4B C6B 1_555 1_555
H4_2 C6_2 1_555 1_555
H4B_2 C6B_2 1_555 1_555
H5B C6B 1_555 1_555
H5_2 C6_2 1_555 1_555
H5B_2 C6B_2 1_555 1_555
C7B C6B 1_555 1_555
C7_2 C6_2 1_555 1_555
C7B_2 C6B_2 1_555 1_555
H6_2 C7_2 1_555 1_555
H6B C7B 1_555 1_555
H6B_2 C7B_2 1_555 1_555
H7_2 C7_2 1_555 1_555
H7B C7B 1_555 1_555
H7B_2 C7B_2 1_555 1_555
C8B O2B 1_555 1_555
C8_2 O2_2 1_555 1_555
C8B_2 O2B_2 1_555 1_555
H8B C8B 1_555 1_555
H8_2 C8_2 1_555 1_555
H8B_2 C8B_2 1_555 1_555
H9B C8B 1_555 1_555
H9_2 C8_2 1_555 1_555
H9B_2 C8B_2 1_555 1_555
C9B C8B 1_555 1_555
C9_2 C8_2 1_555 1_555
C9B_2 C8B_2 1_555 1_555
H10_2 C9_2 1_555 1_555
H10B C9B 1_555 1_555
H10B_2 C9B_2 1_555 1_555
H11_2 C9_2 1_555 1_555
H11B C9B 1_555 1_555
H11B_2 C9B_2 1_555 1_555
C10B O3B 1_555 1_555
C10_2 O3_2 1_555 1_555
C10B_2 O3B_2 1_555 1_555
H12B C10B 1_555 1_555
H12_2 C10_2 1_555 1_555
H12B_2 C10B_2 1_555 1_555
H13B C10B 1_555 1_555
H13_2 C10_2 1_555 1_555
H13B_2 C10B_2 1_555 1_555
C11B C10B 1_555 1_555
C11_2 C10_2 1_555 1_555
C11B_2 C10B_2 1_555 1_555
H14_2 C11_2 1_555 1_555
H14B C11B 1_555 1_555
H14B_2 C11B_2 1_555 1_555
H15_2 C11_2 1_555 1_555
H15B C11B 1_555 1_555
H15B_2 C11B_2 1_555 1_555
C12B O4B 1_555 1_555
C12_2 O4_2 1_555 1_555
C12B_2 O4B_2 1_555 1_555
H16B C12B 1_555 1_555
H16_2 C12_2 1_555 1_555
H16B_2 C12B_2 1_555 1_555
H17B C12B 1_555 1_555
H17_2 C12_2 1_555 1_555
H17B_2 C12B_2 1_555 1_555
C13B C12B 1_555 1_555
C13_2 C12_2 1_555 1_555
C13B_2 C12B_2 1_555 1_555
H18_2 C13_2 1_555 1_555
H18B C13B 1_555 1_555
H18B_2 C13B_2 1_555 1_555
H19_2 C13_2 1_555 1_555
H19B C13B 1_555 1_555
H19B_2 C13B_2 1_555 1_555
C14B O5B 1_555 1_555
C14_2 O5_2 1_555 1_555
C14B_2 O5B_2 1_555 1_555
C15B C14B 1_555 1_555
C15_2 C14_2 1_555 1_555
C15B_2 C14B_2 1_555 1_555
H20B C15B 1_555 1_555
H20_2 C15_2 1_555 1_555
H20B_2 C15B_2 1_555 1_555
C16B C15B 1_555 1_555
C16_2 C15_2 1_555 1_555
C16B_2 C15B_2 1_555 1_555
H21B C16B 1_555 1_555
H21_2 C16_2 1_555 1_555
H21B_2 C16B_2 1_555 1_555
C17B C16B 1_555 1_555
C17_2 C16_2 1_555 1_555
C17B_2 C18 1_555 1_555
H22B C17B 1_555 1_555
H22_2 C17_2 1_555 1_555
H22B_2 C17B_2 1_555 1_555
C18_2 C14_2 1_555 1_555
C18B C14B 1_555 1_555
C18B_2 C17 1_555 1_555
C19B H23B 1_555 1_555
H24B C19B 1_555 1_555
C20B N1B 1_555 1_555
H25B C20B 1_555 1_555
C21B C20B 1_555 1_555
H26B C21B 1_555 1_555
C22B C21B 1_555 1_555
C23B C22B 1_555 1_555
H27B C23B 1_555 1_555
C24B N1B 1_555 1_555
H28B C24B 1_555 1_555
C25B C22B 1_555 1_555
C26B C25B 1_555 1_555
H29B C26B 1_555 1_555
C27B C26B 1_555 1_555
H30B C27B 1_555 1_555
C28B N2B 1_555 1_555
H31B C28B 1_555 1_555
C29B C25B 1_555 1_555
H32B C29B 1_555 1_555
C30B N2B 1_555 1_555
H33B C30B 1_555 1_555
H34B C30B 1_555 1_555
C31B C30B 1_555 1_555
C32B C31B 1_555 1_555
H35B C32B 1_555 1_555
C33B C34 1_555 1_555
H36B C33B 1_555 1_555
C34B C33 1_555 1_555
C35B C36 1_555 1_555
H37B C35B 1_555 1_555
C36B C35 1_555 1_555
H38B C36B 1_555 1_555
C4 C4B 1_555 1_555
C18 C18B_2 1_555 1_555
C23 C24 1_555 1_555
C28 C29 1_555 1_555
C2B C3B 1_555 1_555
C4B C5B 1_555 1_555
C4B_2 C4_2 1_555 1_555
C4B_2 C5B_2 1_555 1_555
C4_2 C5_3 1_555 1_555
C4_3 C4B_3 1_555 1_555
C4_3 C5_2 1_555 1_555
C4B_3 C5B_3 1_555 1_555
C14B_2 C18B_2 1_555 1_555
C16B_2 C17B_2 1_555 1_555
C17B C18_2 1_555 1_555
C17_2 C18B 1_555 1_555
C18_2 C18B 1_555 1_555
C19B C34B 1_555 1_555
C23B C24B 1_555 1_555
C28B C29B 1_555 1_555
C31B C36B 1_555 1_555
C32B C33B 1_555 1_555
C34B C35B 1_555 1_555

#END
