
#######################################################################
#
#                 Cambridge Crystallographic Data Centre
#                                CCDC 
#
#######################################################################
#
# If this CIF has been generated from an entry in the Cambridge 
# Structural Database, then it will include bibliographic, chemical, 
# crystal, experimental, refinement or atomic coordinate data resulting 
# from the CCDC's data processing and validation procedures.
#
#######################################################################

data_LEJQIC
_chemical_formula_moiety         
'C98 H128 O30,3(C36 H32 N4 4+),12(F6 P1 1-),12(C2 H3 N1)'
_chemical_name_systematic        
'[4]-(1,4,7,10,13,15,18,21,24,27,29,32,35,38,41,43,46,49,52,55,57,60,63,66,69,71,74,77,80,83-Tricontaoxa-14,28,42,56,70(1,5)-pentanaphthalena-trioctacontaphane)-tris(1,6(1,4),2,7(4,1)-tetrapyridina-4,9(1,4)-dibenzenacyclodecaphane)-pseudorotaxane dodecakis(hexafluorophosphate) acetonitrile solvate'
_symmetry_cell_setting           monoclinic
_symmetry_space_group_name_H-M   'P 21/c'
_symmetry_Int_Tables_number      14
_space_group_name_Hall           '-P 2ybc'
loop_
_symmetry_equiv_pos_site_id
_symmetry_equiv_pos_as_xyz
1 x,y,z
2 -x,1/2+y,1/2-z
3 -x,-y,-z
4 x,1/2-y,1/2+z
_cell_length_a                   14.0613(6)
_cell_length_b                   13.9204(5)
_cell_length_c                   21.2119(8)
_cell_angle_alpha                90
_cell_angle_beta                 97.593(3)
_cell_angle_gamma                90
_cell_volume                     4115.59
_exptl_crystal_colour            red
_exptl_crystal_description       tabular
_cell_formula_units_Z            1
loop_
_atom_site_label
_atom_site_type_symbol
_atom_site_fract_x
_atom_site_fract_y
_atom_site_fract_z
P2 P 0.44271(18) 0.82866(16) 0.84854(11)
F7 F 0.4205(4) 0.8435(4) 0.7751(2)
F8 F 0.4679(3) 0.8122(3) 0.9230(2)
F9 F 0.443(5) 0.9372(17) 0.8547(17)
F10 F 0.5558(19) 0.828(3) 0.8428(14)
F11 F 0.450(3) 0.7157(13) 0.8452(9)
F12 F 0.3334(16) 0.816(4) 0.8589(12)
O1 O -0.2081(5) 0.5277(4) 0.5030(3)
O2 O -0.3600(5) 0.6275(4) 0.5523(3)
O3 O -0.3729(5) 0.7718(5) 0.6400(3)
O4 O -0.2910(4) 0.9522(4) 0.6680(2)
O5 O -0.1305(4) 1.0135(3) 0.5986(2)
C1 C -0.1291(8) 0.5283(6) 0.4072(5)
H1 H -0.1871 0.5411 0.3801
C2 C -0.0459(10) 0.5163(6) 0.3840(5)
H2 H -0.0469 0.5208 0.3392
C3 C 0.0392(9) 0.4982(6) 0.4191(5)
H3 H 0.0955 0.4882 0.3997
C4 C -0.0420(7) 0.5053(5) 0.5149(5)
C5 C -0.1268(8) 0.5211(6) 0.4734(5)
C6 C -0.2974(7) 0.5529(6) 0.4656(5)
H4 H -0.3132 0.5057 0.4308
H5 H -0.2923 0.6172 0.4464
C7 C -0.3740(7) 0.5534(7) 0.5078(5)
H6 H -0.4373 0.5613 0.4817
H7 H -0.3740 0.4910 0.5303
C8 C -0.4450(8) 0.6522(8) 0.5778(7)
H8 H -0.4845 0.6938 0.5468
H9 H -0.4820 0.5926 0.5823
C9 C -0.4332(8) 0.6969(9) 0.6339(6)
H10 H -0.4101 0.6492 0.6670
H11 H -0.4968 0.7196 0.6428
C10 C -0.3710(8) 0.8153(7) 0.6996(5)
H12 H -0.3686 0.7651 0.7329
H13 H -0.4304 0.8532 0.7006
C11 C -0.2876(7) 0.8782(7) 0.7129(4)
H14 H -0.2860 0.9061 0.7559
H15 H -0.2283 0.8402 0.7120
C12 C -0.2216(7) 1.0271(7) 0.6847(4)
H16 H -0.2458 1.0872 0.6635
H17 H -0.2161 1.0379 0.7312
C13 C -0.1296(6) 1.0081(6) 0.6685(4)
H18 H -0.1087 0.9433 0.6837
H19 H -0.0834 1.0555 0.6895
C14 C -0.0425(5) 1.0000(4) 0.5788(3)
C15 C 0.0391(6) 0.9798(5) 0.6179(3)
H20 H 0.0384 0.9753 0.6625
C16 C 0.1251(5) 0.9656(4) 0.5921(4)
H21 H 0.1825 0.9518 0.6195
C17 C 0.1267(5) 0.9712(4) 0.5285(4)
H22 H 0.1851 0.9603 0.5116
C18 C -0.0440(5) 1.0073(4) 0.5119(3)
O1B O 0.2081(5) 0.4723(4) 0.4970(3)
O1_2 O -0.2081(5) -0.4723(4) 0.5030(3)
O1B_2 O 0.2081(5) 1.4723(4) 0.4970(3)
O1_3 O -0.2081(5) 1.5277(4) 0.5030(3)
O1B_3 O 0.2081(5) -0.5277(4) 0.4970(3)
O2B O 0.3600(5) 0.3725(4) 0.4477(3)
O2_2 O -0.3600(5) -0.3725(4) 0.5523(3)
O2B_2 O 0.3600(5) 1.3725(4) 0.4477(3)
O2_3 O -0.3600(5) 1.6275(4) 0.5523(3)
O2B_3 O 0.3600(5) -0.6275(4) 0.4477(3)
O3B O 0.3729(5) 0.2282(5) 0.3600(3)
O3_2 O -0.3729(5) -0.2282(5) 0.6400(3)
O3B_2 O 0.3729(5) 1.2282(5) 0.3600(3)
O3_3 O -0.3729(5) 1.7718(5) 0.6400(3)
O3B_3 O 0.3729(5) -0.7718(5) 0.3600(3)
O4B O 0.2910(4) 0.0478(4) 0.3320(2)
O4_2 O -0.2910(4) -0.0478(4) 0.6680(2)
O4B_2 O 0.2910(4) 1.0478(4) 0.3320(2)
O4_3 O -0.2910(4) 1.9522(4) 0.6680(2)
O4B_3 O 0.2910(4) -0.9522(4) 0.3320(2)
O5B O 0.1305(4) -0.0135(3) 0.4014(2)
O5_2 O -0.1305(4) 0.0135(3) 0.5986(2)
O5B_2 O 0.1305(4) 0.9865(3) 0.4014(2)
O5_3 O -0.1305(4) 2.0135(3) 0.5986(2)
O5B_3 O 0.1305(4) -1.0135(3) 0.4014(2)
C1B C 0.1291(8) 0.4717(6) 0.5928(5)
C1B_2 C 0.1291(8) 1.4717(6) 0.5928(5)
C1_2 C -0.1291(8) 1.5283(6) 0.4072(5)
C1_3 C -0.1291(8) -0.4717(6) 0.4072(5)
C1B_3 C 0.1291(8) -0.5283(6) 0.5928(5)
H1B H 0.1871 0.4589 0.6199
H1B_2 H 0.1871 1.4589 0.6199
H1_2 H -0.1871 -0.4589 0.3801
H1B_3 H 0.1871 -0.5411 0.6199
C2B C 0.0459(10) 0.4837(6) 0.6160(5)
C2B_2 C 0.0459(10) 1.4837(6) 0.6160(5)
C2_2 C -0.0459(10) 1.5163(6) 0.3840(5)
C2_3 C -0.0459(10) -0.4837(6) 0.3840(5)
C2B_3 C 0.0459(10) -0.5163(6) 0.6160(5)
H2B H 0.0469 0.4792 0.6608
H2B_2 H 0.0469 1.4792 0.6608
H2_2 H -0.0469 1.5208 0.3392
H2_3 H -0.0469 -0.4792 0.3392
H2B_3 H 0.0469 -0.5208 0.6608
C3B C -0.0392(9) 0.5018(6) 0.5809(5)
C3_2 C 0.0392(9) 1.4982(6) 0.4191(5)
C3B_2 C -0.0392(9) 1.5018(6) 0.5809(5)
C3B_3 C -0.0392(9) -0.4982(6) 0.5809(5)
C3_3 C 0.0392(9) -0.5018(6) 0.4191(5)
H3B H -0.0955 0.5118 0.6003
H3_2 H 0.0955 1.4882 0.3997
H3B_2 H -0.0955 1.5118 0.6003
H3_3 H 0.0955 -0.5118 0.3997
H3B_3 H -0.0955 -0.4882 0.6003
C4B C 0.0420(7) 0.4947(5) 0.4851(5)
C4B_2 C 0.0420(7) 1.4947(5) 0.4851(5)
C4_2 C -0.0420(7) 1.5053(5) 0.5149(5)
C4_3 C -0.0420(7) -0.4947(5) 0.5149(5)
C4B_3 C 0.0420(7) -0.5053(5) 0.4851(5)
C5B C 0.1268(8) 0.4789(6) 0.5266(5)
C5_2 C -0.1268(8) -0.4789(6) 0.4734(5)
C5B_2 C 0.1268(8) 1.4789(6) 0.5266(5)
C5_3 C -0.1268(8) 1.5211(6) 0.4734(5)
C5B_3 C 0.1268(8) -0.5211(6) 0.5266(5)
C6B C 0.2974(7) 0.4471(6) 0.5344(5)
C6_2 C -0.2974(7) -0.4471(6) 0.4656(5)
C6B_2 C 0.2974(7) 1.4471(6) 0.5344(5)
C6_3 C -0.2974(7) 1.5529(6) 0.4656(5)
C6B_3 C 0.2974(7) -0.5529(6) 0.5344(5)
H4B H 0.3132 0.4943 0.5692
H4_2 H -0.3132 -0.4943 0.4308
H4B_2 H 0.3132 1.4943 0.5692
H4_3 H -0.3132 1.5057 0.4308
H4B_3 H 0.3132 -0.5057 0.5692
H5B H 0.2923 0.3828 0.5536
H5_2 H -0.2923 -0.3828 0.4464
H5B_2 H 0.2923 1.3828 0.5536
H5_3 H -0.2923 1.6172 0.4464
H5B_3 H 0.2923 -0.6172 0.5536
C7B C 0.3740(7) 0.4466(7) 0.4922(5)
C7_2 C -0.3740(7) -0.4466(7) 0.5078(5)
C7B_2 C 0.3740(7) 1.4466(7) 0.4922(5)
C7_3 C -0.3740(7) 1.5534(7) 0.5078(5)
C7B_3 C 0.3740(7) -0.5534(7) 0.4922(5)
H6_2 H -0.4373 -0.4387 0.4817
H6B H 0.4373 0.4387 0.5183
H6B_2 H 0.4373 1.4387 0.5183
H6_3 H -0.4373 1.5613 0.4817
H6B_3 H 0.4373 -0.5613 0.5183
H7_2 H -0.3740 -0.5090 0.5303
H7B H 0.3740 0.5090 0.4697
H7B_2 H 0.3740 1.5090 0.4697
H7_3 H -0.3740 1.4910 0.5303
H7B_3 H 0.3740 -0.4910 0.4697
C8B C 0.4450(8) 0.3478(8) 0.4222(7)
C8_2 C -0.4450(8) -0.3478(8) 0.5778(7)
C8B_2 C 0.4450(8) 1.3478(8) 0.4222(7)
C8_3 C -0.4450(8) 1.6522(8) 0.5778(7)
C8B_3 C 0.4450(8) -0.6522(8) 0.4222(7)
H8B H 0.4845 0.3062 0.4532
H8_2 H -0.4845 -0.3062 0.5468
H8B_2 H 0.4845 1.3062 0.4532
H8_3 H -0.4845 1.6938 0.5468
H8B_3 H 0.4845 -0.6938 0.4532
H9B H 0.4820 0.4074 0.4177
H9_2 H -0.4820 -0.4074 0.5823
H9B_2 H 0.4820 1.4074 0.4177
H9_3 H -0.4820 1.5926 0.5823
H9B_3 H 0.4820 -0.5926 0.4177
C9B C 0.4332(8) 0.3031(9) 0.3661(6)
C9_2 C -0.4332(8) -0.3031(9) 0.6339(6)
C9B_2 C 0.4332(8) 1.3031(9) 0.3661(6)
C9_3 C -0.4332(8) 1.6969(9) 0.6339(6)
C9B_3 C 0.4332(8) -0.6969(9) 0.3661(6)
H10_2 H -0.4101 -0.3508 0.6670
H10B H 0.4101 0.3508 0.3330
H10B_2 H 0.4101 1.3508 0.3330
H10_3 H -0.4101 1.6492 0.6670
H10B_3 H 0.4101 -0.6492 0.3330
H11_2 H -0.4968 -0.2804 0.6428
H11B H 0.4968 0.2804 0.3572
H11B_2 H 0.4968 1.2804 0.3572
H11_3 H -0.4968 1.7196 0.6428
H11B_3 H 0.4968 -0.7196 0.3572
C10B C 0.3710(8) 0.1847(7) 0.3004(5)
C10_2 C -0.3710(8) -0.1847(7) 0.6996(5)
C10B_2 C 0.3710(8) 1.1847(7) 0.3004(5)
C10_3 C -0.3710(8) 1.8153(7) 0.6996(5)
C10B_3 C 0.3710(8) -0.8153(7) 0.3004(5)
H12B H 0.3686 0.2349 0.2671
H12_2 H -0.3686 -0.2349 0.7329
H12B_2 H 0.3686 1.2349 0.2671
H12_3 H -0.3686 1.7651 0.7329
H12B_3 H 0.3686 -0.7651 0.2671
H13B H 0.4304 0.1468 0.2994
H13_2 H -0.4304 -0.1468 0.7006
H13B_2 H 0.4304 1.1468 0.2994
H13_3 H -0.4304 1.8532 0.7006
H13B_3 H 0.4304 -0.8532 0.2994
C11B C 0.2876(7) 0.1218(7) 0.2871(4)
C11_2 C -0.2876(7) -0.1218(7) 0.7129(4)
C11B_2 C 0.2876(7) 1.1218(7) 0.2871(4)
C11_3 C -0.2876(7) 1.8782(7) 0.7129(4)
C11B_3 C 0.2876(7) -0.8782(7) 0.2871(4)
H14_2 H -0.2860 -0.0939 0.7559
H14B H 0.2860 0.0939 0.2441
H14B_2 H 0.2860 1.0939 0.2441
H14_3 H -0.2860 1.9061 0.7559
H14B_3 H 0.2860 -0.9061 0.2441
H15_2 H -0.2283 -0.1598 0.7120
H15B H 0.2283 0.1598 0.2880
H15B_2 H 0.2283 1.1598 0.2880
H15_3 H -0.2283 1.8402 0.7120
H15B_3 H 0.2283 -0.8402 0.2880
C12B C 0.2216(7) -0.0271(7) 0.3153(4)
C12_2 C -0.2216(7) 0.0271(7) 0.6847(4)
C12B_2 C 0.2216(7) 0.9729(7) 0.3153(4)
C12_3 C -0.2216(7) 2.0271(7) 0.6847(4)
C12B_3 C 0.2216(7) -1.0271(7) 0.3153(4)
H16B H 0.2458 -0.0872 0.3365
H16_2 H -0.2458 0.0872 0.6635
H16B_2 H 0.2458 0.9128 0.3365
H16_3 H -0.2458 2.0872 0.6635
H16B_3 H 0.2458 -1.0872 0.3365
H17B H 0.2161 -0.0379 0.2688
H17_2 H -0.2161 0.0379 0.7312
H17B_2 H 0.2161 0.9621 0.2688
H17_3 H -0.2161 2.0379 0.7312
H17B_3 H 0.2161 -1.0379 0.2688
C13B C 0.1296(6) -0.0081(6) 0.3315(4)
C13_2 C -0.1296(6) 0.0081(6) 0.6685(4)
C13B_2 C 0.1296(6) 0.9919(6) 0.3315(4)
C13_3 C -0.1296(6) 2.0081(6) 0.6685(4)
C13B_3 C 0.1296(6) -1.0081(6) 0.3315(4)
H18_2 H -0.1087 -0.0567 0.6837
H18B H 0.1087 0.0567 0.3163
H18B_2 H 0.1087 1.0567 0.3163
H18_3 H -0.1087 1.9433 0.6837
H18B_3 H 0.1087 -0.9433 0.3163
H19_2 H -0.0834 0.0555 0.6895
H19B H 0.0834 -0.0555 0.3105
H19B_2 H 0.0834 0.9445 0.3105
H19_3 H -0.0834 2.0555 0.6895
H19B_3 H 0.0834 -1.0555 0.3105
C14B C 0.0425(5) 0.0000(4) 0.4212(3)
C14_2 C -0.0425(5) 0.0000(4) 0.5788(3)
C14B_2 C 0.0425(5) 1.0000(4) 0.4212(3)
C15B C -0.0391(6) 0.0202(5) 0.3821(3)
C15_2 C 0.0391(6) -0.0202(5) 0.6179(3)
C15B_2 C -0.0391(6) 1.0202(5) 0.3821(3)
H20B H -0.0384 0.0247 0.3375
H20_2 H 0.0384 -0.0247 0.6625
H20B_2 H -0.0384 1.0247 0.3375
C16B C -0.1251(5) 0.0344(4) 0.4079(4)
C16_2 C 0.1251(5) -0.0344(4) 0.5921(4)
C16B_2 C -0.1251(5) 1.0344(4) 0.4079(4)
H21B H -0.1825 0.0482 0.3805
H21_2 H 0.1825 -0.0482 0.6195
H21B_2 H -0.1825 1.0482 0.3805
C17B C -0.1267(5) 0.0288(4) 0.4715(4)
C17_2 C 0.1267(5) -0.0288(4) 0.5285(4)
C17B_2 C -0.1267(5) 1.0288(4) 0.4715(4)
H22B H -0.1851 0.0397 0.4884
H22_2 H 0.1851 -0.0397 0.5116
H22B_2 H -0.1851 1.0397 0.4884
C18_2 C -0.0440(5) 0.0073(4) 0.5119(3)
C18B C 0.0440(5) -0.0073(4) 0.4881(3)
C18B_2 C 0.0440(5) 0.9927(4) 0.4881(3)
N1 N -0.2937(4) 0.8318(4) 0.4721(3)
N2 N 0.1968(4) 0.7220(3) 0.5108(3)
C19 C -0.3915(5) 0.8755(5) 0.4642(4)
H23 H -0.4273 0.8531 0.4986
H24 H -0.4274 0.8556 0.4230
C20 C -0.2470(5) 0.8154(5) 0.5297(4)
H25 H -0.2791 0.8242 0.5659
C21 C -0.1530(5) 0.7858(4) 0.5376(3)
H26 H -0.1211 0.7743 0.5793
C22 C -0.1041(5) 0.7725(4) 0.4856(3)
C23 C -0.1563(5) 0.7868(4) 0.4264(3)
H27 H -0.1271 0.7759 0.3891
C24 C -0.2498(5) 0.8164(5) 0.4212(3)
H28 H -0.2844 0.8263 0.3801
C25 C 0.0000(5) 0.7487(4) 0.4946(3)
C26 C 0.0501(5) 0.7322(4) 0.5535(3)
H29 H 0.0168 0.7299 0.5896
C27 C 0.1474(6) 0.7191(4) 0.5610(3)
H30 H 0.1806 0.7077 0.6023
C28 C 0.1485(6) 0.7338(4) 0.4526(3)
H31 H 0.1824 0.7325 0.4167
C29 C 0.0527(5) 0.7476(4) 0.4436(3)
H32 H 0.0207 0.7567 0.4017
C30 C 0.3039(5) 0.7202(5) 0.5210(3)
H33 H 0.3282 0.6878 0.4848
H34 H 0.3269 0.6841 0.5603
C31 C 0.3401(4) 0.8216(5) 0.5265(4)
C32 C 0.3556(5) 0.8661(5) 0.5844(4)
H35 H 0.3518 0.8301 0.6220
C33 C 0.3765(5) 0.9632(6) 0.5886(4)
H36 H 0.3869 0.9936 0.6290
C34 C -0.3825(4) 0.9834(5) 0.4665(4)
C35 C -0.3733(5) 1.0310(6) 0.5243(4)
H37 H -0.3811 0.9968 0.5621
C36 C 0.3527(5) 0.8712(5) 0.4726(4)
H38 H 0.3474 0.8387 0.4329
N1B N 0.2937(4) 1.1682(4) 0.5279(3)
N2B N -0.1968(4) 1.2780(3) 0.4892(3)
C19B C 0.3915(5) 1.1245(5) 0.5358(4)
H23B H 0.4273 1.1469 0.5014
H24B H 0.4274 1.1444 0.5770
C20B C 0.2470(5) 1.1846(5) 0.4703(4)
H25B H 0.2791 1.1758 0.4341
C21B C 0.1530(5) 1.2142(4) 0.4624(3)
H26B H 0.1211 1.2257 0.4207
C22B C 0.1041(5) 1.2275(4) 0.5144(3)
C23B C 0.1563(5) 1.2132(4) 0.5736(3)
H27B H 0.1271 1.2241 0.6109
C24B C 0.2498(5) 1.1836(5) 0.5788(3)
H28B H 0.2844 1.1737 0.6199
C25B C 0.0000(5) 1.2513(4) 0.5054(3)
C26B C -0.0501(5) 1.2678(4) 0.4465(3)
H29B H -0.0168 1.2701 0.4104
C27B C -0.1474(6) 1.2809(4) 0.4390(3)
H30B H -0.1806 1.2923 0.3977
C28B C -0.1485(6) 1.2662(4) 0.5474(3)
H31B H -0.1824 1.2675 0.5833
C29B C -0.0527(5) 1.2524(4) 0.5564(3)
H32B H -0.0207 1.2433 0.5983
C30B C -0.3039(5) 1.2798(5) 0.4790(3)
H33B H -0.3282 1.3122 0.5152
H34B H -0.3269 1.3159 0.4397
C31B C -0.3401(4) 1.1784(5) 0.4735(4)
C32B C -0.3556(5) 1.1339(5) 0.4156(4)
H35B H -0.3518 1.1699 0.3780
C33B C -0.3765(5) 1.0368(6) 0.4114(4)
H36B H -0.3869 1.0064 0.3710
C34B C 0.3825(4) 1.0166(5) 0.5335(4)
C35B C 0.3733(5) 0.9690(6) 0.4757(4)
H37B H 0.3811 1.0032 0.4379
C36B C -0.3527(5) 1.1288(5) 0.5274(4)
H38B H -0.3474 1.1613 0.5671
N3 N 0.3272(6) 0.6206(6) 0.6683(4)
C37 C 0.3843(7) 0.5961(6) 0.7063(4)
C38 C 0.4586(7) 0.5625(6) 0.7571(4)
H39 H 0.4279 0.5325 0.7910
H40 H 0.4973 0.6173 0.7744
H41 H 0.4999 0.5155 0.7396
N4 N -0.2939(6) 0.5886(5) 0.7826(3)
C39 C -0.2505(7) 0.5614(7) 0.7459(4)
C40 C -0.1947(7) 0.5311(9) 0.6970(5)
H42 H -0.1286 0.5542 0.7073
H43 H -0.2228 0.5577 0.6560
H44 H -0.1947 0.4608 0.6946
P1 P 0.02945(17) 0.75389(15) 0.74536(9)
F1 F 0.1114(3) 0.7382(3) 0.80311(18)
F2 F -0.0526(3) 0.7703(3) 0.68695(17)
F3 F 0.1079(4) 0.7896(4) 0.7018(2)
F4 F 0.0200(4) 0.8612(3) 0.7669(2)
F5 F -0.0463(4) 0.7195(5) 0.7877(2)
F6 F 0.0442(5) 0.6501(3) 0.7203(2)
F13? F 0.5328(19) 0.774(3) 0.8363(11)
F14? F 0.387(3) 0.7295(14) 0.8375(8)
F15? F 0.3475(19) 0.874(3) 0.8615(13)
F16? F 0.494(3) 0.926(2) 0.8585(13)
loop_
_geom_bond_atom_site_label_1
_geom_bond_atom_site_label_2
_geom_bond_site_symmetry_1
_geom_bond_site_symmetry_2
P1 F1 1_555 1_555
P2 F7 1_555 1_555
F2 P1 1_555 1_555
F3 P1 1_555 1_555
F4 P1 1_555 1_555
F5 P1 1_555 1_555
F6 P1 1_555 1_555
F8 P2 1_555 1_555
F9 P2 1_555 1_555
F10 P2 1_555 1_555
F11 P2 1_555 1_555
F12 P2 1_555 1_555
O1 C5 1_555 1_555
O2 C7 1_555 1_555
O3 C9 1_555 1_555
O4 C11 1_555 1_555
O5 C13 1_555 1_555
N1 C19 1_555 1_555
N2 C27 1_555 1_555
N3 C37 1_555 1_555
N4 C39 1_555 1_555
C1 H1 1_555 1_555
C2 C1 1_555 1_555
H2 C2 1_555 1_555
C3 C2 1_555 1_555
H3 C3 1_555 1_555
C4 C5 1_555 1_555
C5 C1 1_555 1_555
C6 O1 1_555 1_555
H4 C6 1_555 1_555
H5 C6 1_555 1_555
C7 C6 1_555 1_555
H6 C7 1_555 1_555
H7 C7 1_555 1_555
C8 O2 1_555 1_555
H8 C8 1_555 1_555
H9 C8 1_555 1_555
C9 C8 1_555 1_555
H10 C9 1_555 1_555
H11 C9 1_555 1_555
C10 O3 1_555 1_555
H12 C10 1_555 1_555
H13 C10 1_555 1_555
C11 C10 1_555 1_555
H14 C11 1_555 1_555
H15 C11 1_555 1_555
C12 O4 1_555 1_555
H16 C12 1_555 1_555
H17 C12 1_555 1_555
C13 C12 1_555 1_555
H18 C13 1_555 1_555
H19 C13 1_555 1_555
C14 O5 1_555 1_555
C15 C14 1_555 1_555
H20 C15 1_555 1_555
C16 C15 1_555 1_555
H21 C16 1_555 1_555
C17 C16 1_555 1_555
H22 C17 1_555 1_555
C18 C14 1_555 1_555
C19 H23 1_555 1_555
H24 C19 1_555 1_555
C20 N1 1_555 1_555
H25 C20 1_555 1_555
C21 C20 1_555 1_555
H26 C21 1_555 1_555
C22 C21 1_555 1_555
C23 C22 1_555 1_555
H27 C23 1_555 1_555
C24 N1 1_555 1_555
H28 C24 1_555 1_555
C25 C22 1_555 1_555
C26 C25 1_555 1_555
H29 C26 1_555 1_555
C27 C26 1_555 1_555
H30 C27 1_555 1_555
C28 N2 1_555 1_555
H31 C28 1_555 1_555
C29 C25 1_555 1_555
H32 C29 1_555 1_555
C30 N2 1_555 1_555
H33 C30 1_555 1_555
H34 C30 1_555 1_555
C31 C30 1_555 1_555
C32 C31 1_555 1_555
H35 C32 1_555 1_555
C33 C32 1_555 1_555
H36 C33 1_555 1_555
C34 C19 1_555 1_555
C35 C34 1_555 1_555
H37 C35 1_555 1_555
C36 C31 1_555 1_555
H38 C36 1_555 1_555
C37 C38 1_555 1_555
C38 H39 1_555 1_555
H40 C38 1_555 1_555
H41 C38 1_555 1_555
C39 C40 1_555 1_555
C40 H42 1_555 1_555
H43 C40 1_555 1_555
H44 C40 1_555 1_555
O1B C5B 1_555 1_555
O1_2 C5_2 1_555 1_555
O1B_2 C5B_2 1_555 1_555
O1_3 C5_3 1_555 1_555
O1B_3 C5B_3 1_555 1_555
O2B C7B 1_555 1_555
O2_2 C7_2 1_555 1_555
O2B_2 C7B_2 1_555 1_555
O2_3 C7_3 1_555 1_555
O2B_3 C7B_3 1_555 1_555
O3B C9B 1_555 1_555
O3_2 C9_2 1_555 1_555
O3B_2 C9B_2 1_555 1_555
O3_3 C9_3 1_555 1_555
O3B_3 C9B_3 1_555 1_555
O4B C11B 1_555 1_555
O4_2 C11_2 1_555 1_555
O4B_2 C11B_2 1_555 1_555
O4_3 C11_3 1_555 1_555
O4B_3 C11B_3 1_555 1_555
O5B C13B 1_555 1_555
O5_2 C13_2 1_555 1_555
O5B_2 C13B_2 1_555 1_555
O5_3 C13_3 1_555 1_555
O5B_3 C13B_3 1_555 1_555
N1B C19B 1_555 1_555
N2B C27B 1_555 1_555
C1B H1B 1_555 1_555
C1B_2 H1B_2 1_555 1_555
C1_2 C2_2 1_555 1_555
C1_3 H1_2 1_555 1_555
C1B_3 H1B_3 1_555 1_555
C2B C1B 1_555 1_555
C2B_2 C1B_2 1_555 1_555
C2_2 H2_2 1_555 1_555
C2_3 C1_3 1_555 1_555
C2B_3 C1B_3 1_555 1_555
H2B C2B 1_555 1_555
H2B_2 C2B_2 1_555 1_555
H2_3 C2_3 1_555 1_555
H2B_3 C2B_3 1_555 1_555
C3B C4 1_555 1_555
C3_2 C2_2 1_555 1_555
C3B_2 C2B_2 1_555 1_555
C3B_3 C2B_3 1_555 1_555
C3_3 C2_3 1_555 1_555
H3B C3B 1_555 1_555
H3_2 C3_2 1_555 1_555
H3B_2 C3B_2 1_555 1_555
H3_3 C3_3 1_555 1_555
H3B_3 C3B_3 1_555 1_555
C4B C3 1_555 1_555
C4B_2 C3_2 1_555 1_555
C4_2 C3B_2 1_555 1_555
C4_3 C3B_3 1_555 1_555
C4B_3 C3_3 1_555 1_555
C5B C1B 1_555 1_555
C5_2 C1_3 1_555 1_555
C5B_2 C1B_2 1_555 1_555
C5_3 C1_2 1_555 1_555
C5B_3 C1B_3 1_555 1_555
C6B O1B 1_555 1_555
C6_2 O1_2 1_555 1_555
C6B_2 O1B_2 1_555 1_555
C6_3 O1_3 1_555 1_555
C6B_3 O1B_3 1_555 1_555
H4B C6B 1_555 1_555
H4_2 C6_2 1_555 1_555
H4B_2 C6B_2 1_555 1_555
H4_3 C6_3 1_555 1_555
H4B_3 C6B_3 1_555 1_555
H5B C6B 1_555 1_555
H5_2 C6_2 1_555 1_555
H5B_2 C6B_2 1_555 1_555
H5_3 C6_3 1_555 1_555
H5B_3 C6B_3 1_555 1_555
C7B C6B 1_555 1_555
C7_2 C6_2 1_555 1_555
C7B_2 C6B_2 1_555 1_555
C7_3 C6_3 1_555 1_555
C7B_3 C6B_3 1_555 1_555
H6_2 C7_2 1_555 1_555
H6B C7B 1_555 1_555
H6B_2 C7B_2 1_555 1_555
H6_3 C7_3 1_555 1_555
H6B_3 C7B_3 1_555 1_555
H7_2 C7_2 1_555 1_555
H7B C7B 1_555 1_555
H7B_2 C7B_2 1_555 1_555
H7_3 C7_3 1_555 1_555
H7B_3 C7B_3 1_555 1_555
C8B O2B 1_555 1_555
C8_2 O2_2 1_555 1_555
C8B_2 O2B_2 1_555 1_555
C8_3 O2_3 1_555 1_555
C8B_3 O2B_3 1_555 1_555
H8B C8B 1_555 1_555
H8_2 C8_2 1_555 1_555
H8B_2 C8B_2 1_555 1_555
H8_3 C8_3 1_555 1_555
H8B_3 C8B_3 1_555 1_555
H9B C8B 1_555 1_555
H9_2 C8_2 1_555 1_555
H9B_2 C8B_2 1_555 1_555
H9_3 C8_3 1_555 1_555
H9B_3 C8B_3 1_555 1_555
C9B C8B 1_555 1_555
C9_2 C8_2 1_555 1_555
C9B_2 C8B_2 1_555 1_555
C9_3 C8_3 1_555 1_555
C9B_3 C8B_3 1_555 1_555
H10_2 C9_2 1_555 1_555
H10B C9B 1_555 1_555
H10B_2 C9B_2 1_555 1_555
H10_3 C9_3 1_555 1_555
H10B_3 C9B_3 1_555 1_555
H11_2 C9_2 1_555 1_555
H11B C9B 1_555 1_555
H11B_2 C9B_2 1_555 1_555
H11_3 C9_3 1_555 1_555
H11B_3 C9B_3 1_555 1_555
C10B O3B 1_555 1_555
C10_2 O3_2 1_555 1_555
C10B_2 O3B_2 1_555 1_555
C10_3 O3_3 1_555 1_555
C10B_3 O3B_3 1_555 1_555
H12B C10B 1_555 1_555
H12_2 C10_2 1_555 1_555
H12B_2 C10B_2 1_555 1_555
H12_3 C10_3 1_555 1_555
H12B_3 C10B_3 1_555 1_555
H13B C10B 1_555 1_555
H13_2 C10_2 1_555 1_555
H13B_2 C10B_2 1_555 1_555
H13_3 C10_3 1_555 1_555
H13B_3 C10B_3 1_555 1_555
C11B C10B 1_555 1_555
C11_2 C10_2 1_555 1_555
C11B_2 C10B_2 1_555 1_555
C11_3 C10_3 1_555 1_555
C11B_3 C10B_3 1_555 1_555
H14_2 C11_2 1_555 1_555
H14B C11B 1_555 1_555
H14B_2 C11B_2 1_555 1_555
H14_3 C11_3 1_555 1_555
H14B_3 C11B_3 1_555 1_555
H15_2 C11_2 1_555 1_555
H15B C11B 1_555 1_555
H15B_2 C11B_2 1_555 1_555
H15_3 C11_3 1_555 1_555
H15B_3 C11B_3 1_555 1_555
C12B O4B 1_555 1_555
C12_2 O4_2 1_555 1_555
C12B_2 O4B_2 1_555 1_555
C12_3 O4_3 1_555 1_555
C12B_3 O4B_3 1_555 1_555
H16B C12B 1_555 1_555
H16_2 C12_2 1_555 1_555
H16B_2 C12B_2 1_555 1_555
H16_3 C12_3 1_555 1_555
H16B_3 C12B_3 1_555 1_555
H17B C12B 1_555 1_555
H17_2 C12_2 1_555 1_555
H17B_2 C12B_2 1_555 1_555
H17_3 C12_3 1_555 1_555
H17B_3 C12B_3 1_555 1_555
C13B C12B 1_555 1_555
C13_2 C12_2 1_555 1_555
C13B_2 C12B_2 1_555 1_555
C13_3 C12_3 1_555 1_555
C13B_3 C12B_3 1_555 1_555
H18_2 C13_2 1_555 1_555
H18B C13B 1_555 1_555
H18B_2 C13B_2 1_555 1_555
H18_3 C13_3 1_555 1_555
H18B_3 C13B_3 1_555 1_555
H19_2 C13_2 1_555 1_555
H19B C13B 1_555 1_555
H19B_2 C13B_2 1_555 1_555
H19_3 C13_3 1_555 1_555
H19B_3 C13B_3 1_555 1_555
C14B O5B 1_555 1_555
C14_2 O5_2 1_555 1_555
C14B_2 O5B_2 1_555 1_555
C15B C14B 1_555 1_555
C15_2 C14_2 1_555 1_555
C15B_2 C14B_2 1_555 1_555
H20B C15B 1_555 1_555
H20_2 C15_2 1_555 1_555
H20B_2 C15B_2 1_555 1_555
C16B C15B 1_555 1_555
C16_2 C15_2 1_555 1_555
C16B_2 C15B_2 1_555 1_555
H21B C16B 1_555 1_555
H21_2 C16_2 1_555 1_555
H21B_2 C16B_2 1_555 1_555
C17B C16B 1_555 1_555
C17_2 C16_2 1_555 1_555
C17B_2 C18 1_555 1_555
H22B C17B 1_555 1_555
H22_2 C17_2 1_555 1_555
H22B_2 C17B_2 1_555 1_555
C18_2 C14_2 1_555 1_555
C18B C14B 1_555 1_555
C18B_2 C17 1_555 1_555
C19B H23B 1_555 1_555
H24B C19B 1_555 1_555
C20B N1B 1_555 1_555
H25B C20B 1_555 1_555
C21B C20B 1_555 1_555
H26B C21B 1_555 1_555
C22B C21B 1_555 1_555
C23B C22B 1_555 1_555
H27B C23B 1_555 1_555
C24B N1B 1_555 1_555
H28B C24B 1_555 1_555
C25B C22B 1_555 1_555
C26B C25B 1_555 1_555
H29B C26B 1_555 1_555
C27B C26B 1_555 1_555
H30B C27B 1_555 1_555
C28B N2B 1_555 1_555
H31B C28B 1_555 1_555
C29B C25B 1_555 1_555
H32B C29B 1_555 1_555
C30B N2B 1_555 1_555
H33B C30B 1_555 1_555
H34B C30B 1_555 1_555
C31B C30B 1_555 1_555
C32B C31B 1_555 1_555
H35B C32B 1_555 1_555
C33B C34 1_555 1_555
H36B C33B 1_555 1_555
C34B C33 1_555 1_555
C35B C36 1_555 1_555
H37B C35B 1_555 1_555
C36B C35 1_555 1_555
H38B C36B 1_555 1_555
C4 C4B 1_555 1_555
C18 C18B_2 1_555 1_555
C23 C24 1_555 1_555
C28 C29 1_555 1_555
C2B C3B 1_555 1_555
C4B C5B 1_555 1_555
C4B_2 C4_2 1_555 1_555
C4B_2 C5B_2 1_555 1_555
C4_2 C5_3 1_555 1_555
C4_3 C4B_3 1_555 1_555
C4_3 C5_2 1_555 1_555
C4B_3 C5B_3 1_555 1_555
C14B_2 C18B_2 1_555 1_555
C16B_2 C17B_2 1_555 1_555
C17B C18_2 1_555 1_555
C17_2 C18B 1_555 1_555
C18_2 C18B 1_555 1_555
C19B C34B 1_555 1_555
C23B C24B 1_555 1_555
C28B C29B 1_555 1_555
C31B C36B 1_555 1_555
C32B C33B 1_555 1_555
C34B C35B 1_555 1_555

#END
