
#######################################################################
#
#                 Cambridge Crystallographic Data Centre
#                                CCDC 
#
#######################################################################
#
# If this CIF has been generated from an entry in the Cambridge 
# Structural Database, then it will include bibliographic, chemical, 
# crystal, experimental, refinement or atomic coordinate data resulting 
# from the CCDC's data processing and validation procedures.
#
#######################################################################

data_LEJRAV
_chemical_formula_moiety         
'C84 H78 N10 10+,2.5(C36 H44 O10),10(F6 P1 1-),20(C2 H3 N1)'
_chemical_name_systematic        
'[4]-(2,7,12,17,22(1,4),3,8,13,18,23(4,1)-Decapyridina-5,10,15,20(1,4)-tetrabenzenatetracosaphane)-tris(2,5,8,11,14,16,19,22,25,28-decaoxa-1,15(1,5)-dinaphthalenacyclooctacosaphane)-pseudorotaxane [3]-(2,7,12,17,22(1,4),3,8,13,18,23(4,1)-decapyridina-5,10,15,20(1,4)-tetrabenzenatetracosaphane)-bis(2,5,8,11,14,16,19,22,25,28-decaoxa-1,15(1,5)-dinaphthalenacyclooctacosaphane)-pseudorotaxane icosakis(hexafluorophosphate) acetonitrile solvate'
_symmetry_cell_setting           triclinic
_symmetry_space_group_name_H-M   'P -1'
_symmetry_Int_Tables_number      2
_space_group_name_Hall           '-P 1'
loop_
_symmetry_equiv_pos_site_id
_symmetry_equiv_pos_as_xyz
1 x,y,z
2 -x,-y,-z
_cell_length_a                   13.4967(2)
_cell_length_b                   13.5574(2)
_cell_length_c                   14.5137(3)
_cell_angle_alpha                75.524(1)
_cell_angle_beta                 72.374(1)
_cell_angle_gamma                75.190(1)
_cell_volume                     2403.65
_exptl_crystal_colour            red
_exptl_crystal_description       block
_cell_formula_units_Z            1
loop_
_atom_site_label
_atom_site_type_symbol
_atom_site_fract_x
_atom_site_fract_y
_atom_site_fract_z
N1 N 1.0634(3) 0.4907(3) 0.2476(3)
N2 N 0.5864(3) 0.5113(3) 0.2465(3)
C19 C 1.0353(4) 0.5835(4) 0.2777(3)
H23 H 1.0320 0.6458 0.2300
C20 C 1.0120(3) 0.5893(3) 0.3741(3)
H24 H 0.9940 0.6553 0.3925
C21 C 1.0142(3) 0.4982(3) 0.4476(3)
C22 C 1.0454(3) 0.4044(3) 0.4134(3)
H25 H 1.0497 0.3407 0.4594
C23 C 1.0696(3) 0.4023(3) 0.3159(3)
H26 H 1.0914 0.3372 0.2951
C24 C 1.0754(4) 0.4854(4) 0.1435(4)
H27 H 1.1239 0.4201 0.1277
H28 H 1.1066 0.5443 0.0992
C25 C 0.9670(4) 0.4898(4) 0.1272(4)
C26 C 0.9037(5) 0.5850(4) 0.1033(4)
H29 H 0.9313 0.6467 0.0879
C27 C 0.7992(5) 0.5913(5) 0.1015(4)
H30 H 0.7559 0.6569 0.0848
C28 C 0.7596(5) 0.5021(5) 0.1240(4)
C29 C 0.8254(5) 0.4065(4) 0.1416(4)
H31 H 0.7992 0.3448 0.1524
C30 C 0.9268(4) 0.3996(4) 0.1436(4)
H32 H 0.9707 0.3333 0.1563
C31 C 0.6389(5) 0.5124(6) 0.1397(5)
H33 H 0.6103 0.5782 0.0999
H34 H 0.6251 0.4541 0.1190
C32 C 0.5593(4) 0.5993(4) 0.2824(4)
H35 H 0.5645 0.6638 0.2384
C33 C 0.5246(3) 0.5972(3) 0.3807(3)
H36 H 0.5054 0.6602 0.4051
C34 C 0.5171(3) 0.5030(3) 0.4463(3)
C35 C 0.5439(3) 0.4131(3) 0.4064(4)
H37 H 0.5385 0.3476 0.4486
C36 C 0.5777(4) 0.4195(4) 0.3077(4)
H38 H 0.5955 0.3580 0.2810
N1A N 0.9366(3) 0.5093(3) 0.7524(3)
N1_2 N 2.0634(3) 0.4907(3) 0.2476(3)
N1A_2 N 1.9366(3) 0.5093(3) 0.7524(3)
N1A_3 N -0.0634(3) 0.5093(3) 0.7524(3)
N1_3 N 0.0634(3) 0.4907(3) 0.2476(3)
N2A N 1.4136(3) 0.4887(3) 0.7535(3)
N2_2 N 1.5864(3) 0.5113(3) 0.2465(3)
N2A_2 N 0.4136(3) 0.4887(3) 0.7535(3)
C19A C 0.9647(4) 0.4165(4) 0.7223(3)
C19_2 C 2.0353(4) 0.5835(4) 0.2777(3)
C19A_2 C 1.9647(4) 0.4165(4) 0.7223(3)
C19A_3 C -0.0353(4) 0.4165(4) 0.7223(3)
C19_3 C 0.0353(4) 0.5835(4) 0.2777(3)
H23A H 0.9680 0.3542 0.7700
H23_2 H 2.0320 0.6458 0.2300
H23A_2 H 1.9680 0.3542 0.7700
H23A_3 H -0.0320 0.3542 0.7700
H23_3 H 0.0320 0.6458 0.2300
C20A C 0.9880(3) 0.4107(3) 0.6259(3)
C20_2 C 2.0120(3) 0.5893(3) 0.3741(3)
C20A_2 C 1.9880(3) 0.4107(3) 0.6259(3)
C20A_3 C -0.0120(3) 0.4107(3) 0.6259(3)
C20_3 C 0.0120(3) 0.5893(3) 0.3741(3)
H24A H 1.0060 0.3447 0.6075
H24_2 H 1.9940 0.6553 0.3925
H24A_2 H 2.0060 0.3447 0.6075
H24A_3 H 0.0060 0.3447 0.6075
H24_3 H -0.0060 0.6553 0.3925
C21A C 0.9858(3) 0.5018(3) 0.5524(3)
C21_2 C 2.0142(3) 0.4982(3) 0.4476(3)
C21A_2 C 1.9858(3) 0.5018(3) 0.5524(3)
C21A_3 C -0.0142(3) 0.5018(3) 0.5524(3)
C21_3 C 0.0142(3) 0.4982(3) 0.4476(3)
C22A C 0.9546(3) 0.5956(3) 0.5866(3)
C22_2 C 2.0454(3) 0.4044(3) 0.4134(3)
C22A_2 C 1.9546(3) 0.5956(3) 0.5866(3)
C22A_3 C -0.0454(3) 0.5956(3) 0.5866(3)
C22_3 C 0.0454(3) 0.4044(3) 0.4134(3)
H25A H 0.9503 0.6593 0.5406
H25_2 H 2.0497 0.3407 0.4594
H25A_2 H 1.9503 0.6593 0.5406
H25A_3 H -0.0497 0.6593 0.5406
H25_3 H 0.0497 0.3407 0.4594
C23A C 0.9304(3) 0.5977(3) 0.6841(3)
C23_2 C 2.0696(3) 0.4023(3) 0.3159(3)
C23A_2 C 1.9304(3) 0.5977(3) 0.6841(3)
C23A_3 C -0.0696(3) 0.5977(3) 0.6841(3)
C23_3 C 0.0696(3) 0.4023(3) 0.3159(3)
H26A H 0.9086 0.6628 0.7049
H26_2 H 2.0914 0.3372 0.2951
H26A_2 H 1.9086 0.6628 0.7049
H26A_3 H -0.0914 0.6628 0.7049
H26_3 H 0.0914 0.3372 0.2951
C24A C 0.9246(4) 0.5146(4) 0.8565(4)
C24_2 C 2.0754(4) 0.4854(4) 0.1435(4)
C24A_2 C 1.9246(4) 0.5146(4) 0.8565(4)
C24A_3 C -0.0754(4) 0.5146(4) 0.8565(4)
C24_3 C 0.0754(4) 0.4854(4) 0.1435(4)
H27A H 0.8761 0.5799 0.8723
H27_2 H 2.1239 0.4201 0.1277
H27A_2 H -0.1239 0.5799 0.8723
H28A H 0.8934 0.4557 0.9008
H28_2 H 2.1066 0.5443 0.0992
H28A_2 H -0.1066 0.4557 0.9008
C25A C 1.0330(4) 0.5102(4) 0.8728(4)
C25_2 C 1.9670(4) 0.4898(4) 0.1272(4)
C25A_2 C 0.0330(4) 0.5102(4) 0.8728(4)
C26A C 1.0963(5) 0.4150(4) 0.8967(4)
C26_2 C 1.9037(5) 0.5850(4) 0.1033(4)
C26A_2 C 0.0963(5) 0.4150(4) 0.8967(4)
H29A H 1.0687 0.3533 0.9121
H29_2 H 1.9313 0.6467 0.0879
H29A_2 H 0.0687 0.3533 0.9121
C27A C 1.2008(5) 0.4087(5) 0.8985(4)
C27_2 C 1.7992(5) 0.5913(5) 0.1015(4)
C27A_2 C 0.2008(5) 0.4087(5) 0.8985(4)
H30A H 1.2441 0.3431 0.9152
H30_2 H 1.7559 0.6569 0.0848
H30A_2 H 0.2441 0.3431 0.9152
C28A C 1.2404(5) 0.4979(5) 0.8760(4)
C28_2 C 1.7596(5) 0.5021(5) 0.1240(4)
C28A_2 C 0.2404(5) 0.4979(5) 0.8760(4)
C29A C 1.1746(5) 0.5935(4) 0.8584(4)
C29_2 C 1.8254(5) 0.4065(4) 0.1416(4)
C29A_2 C 0.1746(5) 0.5935(4) 0.8584(4)
H31A H 1.2008 0.6552 0.8476
H31_2 H 1.7992 0.3448 0.1524
H31A_2 H 0.2008 0.6552 0.8476
C30A C 1.0732(4) 0.6004(4) 0.8564(4)
C30_2 C 1.9268(4) 0.3996(4) 0.1436(4)
C30A_2 C 0.0732(4) 0.6004(4) 0.8564(4)
H32A H 1.0293 0.6667 0.8437
H32_2 H 1.9707 0.3333 0.1563
H32A_2 H 0.0293 0.6667 0.8437
C31A C 1.3611(5) 0.4876(6) 0.8603(5)
C31_2 C 1.6389(5) 0.5124(6) 0.1397(5)
C31A_2 C 0.3611(5) 0.4876(6) 0.8603(5)
H33_2 H 1.6103 0.5782 0.0999
H33A H 1.3897 0.4218 0.9001
H33A_2 H 0.3897 0.4218 0.9001
H34_2 H 1.6251 0.4541 0.1190
H34A H 1.3749 0.5459 0.8810
H34A_2 H 0.3749 0.5459 0.8810
C32A C 1.4407(4) 0.4007(4) 0.7176(4)
C32_2 C 1.5593(4) 0.5993(4) 0.2824(4)
C32A_2 C 0.4407(4) 0.4007(4) 0.7176(4)
H35A H 1.4355 0.3362 0.7616
H35_2 H 1.5645 0.6638 0.2384
H35A_2 H 0.4355 0.3362 0.7616
C33A C 1.4754(3) 0.4028(3) 0.6193(3)
C33_2 C 1.5246(3) 0.5972(3) 0.3807(3)
C33A_2 C 0.4754(3) 0.4028(3) 0.6193(3)
H36A H 1.4946 0.3398 0.5949
H36_2 H 1.5054 0.6602 0.4051
H36A_2 H 0.4946 0.3398 0.5949
C34A C 1.4829(3) 0.4970(3) 0.5537(3)
C34_2 C 1.5171(3) 0.5030(3) 0.4463(3)
C34A_2 C 0.4829(3) 0.4970(3) 0.5537(3)
C35_2 C 1.5439(3) 0.4131(3) 0.4064(4)
C35A C 1.4561(3) 0.5869(3) 0.5936(4)
C35A_2 C 0.4561(3) 0.5869(3) 0.5936(4)
H37_2 H 1.5385 0.3476 0.4486
H37A H 1.4615 0.6524 0.5514
H37A_2 H 0.4615 0.6524 0.5514
C36_2 C 1.5777(4) 0.4195(4) 0.3077(4)
C36A C 1.4223(4) 0.5805(4) 0.6923(4)
C36A_2 C 0.4223(4) 0.5805(4) 0.6923(4)
H38_2 H 1.5955 0.3580 0.2810
H38A H 1.4045 0.6420 0.7190
H38A_2 H 0.4045 0.6420 0.7190
P1 P 0.20530(13) 1.13572(11) 0.20192(13)
F1 F 0.2416(3) 1.1948(3) 0.2648(3)
F2 F 0.1981(3) 1.0382(2) 0.2896(3)
F3 F 0.1688(4) 1.0777(3) 0.1389(4)
F4 F 0.2105(3) 1.2345(3) 0.1159(4)
F5 F 0.3258(3) 1.0866(3) 0.1581(3)
F6 F 0.0830(3) 1.1845(3) 0.2483(3)
P2 P 0.32366(13) 0.86958(11) 0.72367(11)
F7 F 0.3978(4) 0.9262(4) 0.7520(4)
F8 F 0.3515(4) 0.7686(3) 0.8030(3)
F9 F 0.2536(4) 0.8129(3) 0.6954(4)
F10 F 0.2986(5) 0.9706(3) 0.6494(3)
F11 F 0.4235(4) 0.8217(4) 0.6450(4)
F12 F 0.2309(4) 0.9143(3) 0.8070(4)
N3 N 0.5786(4) 0.8086(4) 0.0979(4)
C37 C 0.5918(6) 0.8913(5) 0.0808(5)
C38 C 0.6106(8) 0.9957(5) 0.0562(7)
H39 H 0.5715 1.0317 0.1111
H40 H 0.5865 1.0327 -0.0027
H41 H 0.6866 0.9938 0.0435
N4 N 0.5341(5) 0.1570(4) 0.6101(7)
C39 C 0.5696(5) 0.0737(4) 0.6004(5)
C40 C 0.6179(5) -0.0304(4) 0.5848(5)
H42 H 0.6949 -0.0403 0.5733
H43 H 0.6014 -0.0419 0.5274
H44 H 0.5902 -0.0801 0.6431
N5 N 0.3332(8) 0.4629(7) 0.1110(7)
C41 C 0.3936(10) 0.3872(9) 0.1043(10)
C42 C 0.4519(16) 0.2796(10) 0.1092(11)
H45 H 0.5279 0.2790 0.0820
H46 H 0.4278 0.2445 0.0710
H47 H 0.4390 0.2433 0.1779
N6 N 0.9542(4) 0.8339(3) 0.4361(4)
C43 C 0.9404(9) 0.9196(6) 0.4372(10)
C44 C 0.9283(9) 1.0281(7) 0.4359(10)
H48 H 0.9243 1.0677 0.3702
H49 H 0.9892 1.0398 0.4522
H50 H 0.8631 1.0508 0.4844
O1 O 0.7241(2) 0.3194(2) 0.6749(2)
O2 O 0.7481(4) 0.1860(3) 0.8657(4)
O3 O 0.8991(4) 0.2618(3) 0.9380(3)
O4 O 1.1005(3) 0.1906(3) 0.8189(3)
O5 O 0.7664(2) 0.6831(2) 0.3482(3)
C1 C 0.7493(3) 0.3635(3) 0.5786(3)
C2 C 0.7843(3) 0.3109(3) 0.5027(4)
H1 H 0.7947 0.2373 0.5156
C3 C 0.8049(3) 0.3655(3) 0.4051(4)
H2 H 0.8285 0.3280 0.3527
C4 C 0.7919(3) 0.4721(3) 0.3836(3)
H3 H 0.8059 0.5080 0.3172
C5 C 0.7572(3) 0.5271(3) 0.4621(3)
C6 C 0.7355(3) 0.4745(3) 0.5603(3)
C7 C 0.7009(3) 0.5302(3) 0.6389(3)
H4 H 0.6873 0.4941 0.7052
C8 C 0.6874(3) 0.6355(4) 0.6185(4)
H5 H 0.6632 0.6724 0.6713
C9 C 0.7081(3) 0.6905(3) 0.5224(4)
H6 H 0.6986 0.7641 0.5106
C10 C 0.7427(3) 0.6388(3) 0.4433(4)
C11 C 0.7362(4) 0.2074(4) 0.7009(4)
H7 H 0.7015 0.1830 0.6620
H8 H 0.8124 0.1750 0.6852
C12 C 0.6890(6) 0.1770(5) 0.8048(5)
H9 H 0.6175 0.2207 0.8219
H10 H 0.6804 0.1040 0.8180
C13 C 0.7365(6) 0.2824(5) 0.8806(5)
H11 H 0.6603 0.3149 0.8958
H12 H 0.7731 0.3248 0.8198
C14 C 0.7822(5) 0.2814(6) 0.9656(5)
H13 H 0.7547 0.3491 0.9874
H14 H 0.7578 0.2269 1.0218
C15 C 0.9422(6) 0.1566(5) 0.9484(5)
H15 H 0.9205 0.1252 0.9047
H16 H 0.9167 0.1214 1.0172
C16 C 1.0619(7) 0.1437(5) 0.9211(6)
H17 H 1.0828 0.1769 0.9640
H18 H 1.0944 0.0689 0.9317
C17 C 1.2110(5) 0.1721(4) 0.7863(5)
H19 H 1.2397 0.0973 0.8058
H20 H 1.2394 0.2116 0.8180
C18 C 0.7529(4) 0.7957(3) 0.3255(4)
H21 H 0.6776 0.8278 0.3498
H22 H 0.7960 0.8187 0.3575
O1A O 1.2759(2) 0.6806(2) 0.3251(2)
O2A O 1.2519(4) 0.8140(3) 0.1343(4)
O3A O 1.1009(4) 0.7382(3) 0.0620(3)
O4A O 0.8995(3) 0.8094(3) 0.1811(3)
O5A O 1.2336(2) 0.3169(2) 0.6518(3)
C1A C 1.2507(3) 0.6365(3) 0.4214(3)
C2A C 1.2157(3) 0.6891(3) 0.4973(4)
H1A H 1.2053 0.7627 0.4844
C3A C 1.1951(3) 0.6345(3) 0.5949(4)
H2A H 1.1715 0.6720 0.6473
C4A C 1.2081(3) 0.5279(3) 0.6164(3)
H3A H 1.1941 0.4920 0.6828
C5A C 1.2428(3) 0.4729(3) 0.5379(3)
C6A C 1.2645(3) 0.5255(3) 0.4397(3)
C7A C 1.2991(3) 0.4698(3) 0.3611(3)
H4A H 1.3127 0.5059 0.2948
C8A C 1.3126(3) 0.3645(4) 0.3815(4)
H5A H 1.3368 0.3276 0.3287
C9A C 1.2919(3) 0.3095(3) 0.4776(4)
H6A H 1.3014 0.2359 0.4894
C10A C 1.2573(3) 0.3612(3) 0.5567(4)
C11A C 1.2638(4) 0.7926(4) 0.2991(4)
H7A H 1.2985 0.8170 0.3380
H8A H 1.1876 0.8250 0.3148
C12A C 1.3110(6) 0.8230(5) 0.1952(5)
H9A H 1.3825 0.7793 0.1781
H10A H 1.3196 0.8960 0.1820
C13A C 1.2635(6) 0.7176(5) 0.1194(5)
H11A H 1.3397 0.6851 0.1042
H12A H 1.2269 0.6752 0.1802
C14A C 1.2178(5) 0.7186(6) 0.0344(5)
H13A H 1.2453 0.6509 0.0126
H14A H 1.2422 0.7731 -0.0218
C15A C 1.0578(6) 0.8434(5) 0.0516(5)
H15A H 1.0795 0.8748 0.0953
H16A H 1.0833 0.8786 -0.0172
C16A C 0.9381(7) 0.8563(5) 0.0789(6)
H17A H 0.9172 0.8231 0.0360
H18A H 0.9056 0.9311 0.0683
C17A C 0.7890(5) 0.8279(4) 0.2137(5)
H19A H 0.7603 0.9027 0.1942
H20A H 0.7606 0.7884 0.1820
C18A C 1.2471(4) 0.2043(3) 0.6745(4)
H21A H 1.3224 0.1722 0.6502
H22A H 1.2040 0.1813 0.6425
C45? C 0.4355(17) 0.3629(12) 0.1010(16)
C46? C 0.4147(16) 0.4705(11) 0.0965(13)
C47? C 0.9618(11) 0.8994(9) 0.3682(10)
C48? C 0.9712(11) 0.9810(9) 0.2807(10)
H51? H 0.4731 0.5002 0.0483
H52? H 0.4078 0.4847 0.1614
H53? H 0.3485 0.5019 0.0767
H54? H 1.0344 0.9586 0.2299
H55? H 0.9776 1.0445 0.2974
H56? H 0.9082 0.9949 0.2558
N7? N 0.463(2) 0.2790(12) 0.0825(13)
N8? N 0.9542(4) 0.8339(3) 0.4361(4)
loop_
_geom_bond_atom_site_label_1
_geom_bond_atom_site_label_2
_geom_bond_site_symmetry_1
_geom_bond_site_symmetry_2
O1 C1 1_555 1_555
O2 C12 1_555 1_555
O3 C14 1_555 1_555
O4 C16 1_555 1_555
O5 C10 1_555 1_555
C1 C2 1_555 1_555
C2 H1 1_555 1_555
C3 C2 1_555 1_555
H2 C3 1_555 1_555
C4 C3 1_555 1_555
H3 C4 1_555 1_555
C5 C4 1_555 1_555
C6 C1 1_555 1_555
C7 C6 1_555 1_555
H4 C7 1_555 1_555
C8 C7 1_555 1_555
H5 C8 1_555 1_555
C9 C8 1_555 1_555
H6 C9 1_555 1_555
C10 C5 1_555 1_555
C11 O1 1_555 1_555
H7 C11 1_555 1_555
H8 C11 1_555 1_555
C12 C11 1_555 1_555
H9 C12 1_555 1_555
H10 C12 1_555 1_555
C13 O2 1_555 1_555
H11 C13 1_555 1_555
H12 C13 1_555 1_555
C14 C13 1_555 1_555
H13 C14 1_555 1_555
H14 C14 1_555 1_555
C15 O3 1_555 1_555
H15 C15 1_555 1_555
H16 C15 1_555 1_555
C16 C15 1_555 1_555
H17 C16 1_555 1_555
H18 C16 1_555 1_555
C17 O4 1_555 1_555
H19 C17 1_555 1_555
H20 C17 1_555 1_555
C18 O5 1_555 1_555
H21 C18 1_555 1_555
H22 C18 1_555 1_555
N1 C19 1_555 1_555
N2 C31 1_555 1_555
C19 H23 1_555 1_555
C20 C19 1_555 1_555
H24 C20 1_555 1_555
C21 C20 1_555 1_555
C22 C21 1_555 1_555
H25 C22 1_555 1_555
C23 N1 1_555 1_555
H26 C23 1_555 1_555
C24 N1 1_555 1_555
H27 C24 1_555 1_555
H28 C24 1_555 1_555
C25 C24 1_555 1_555
C26 C25 1_555 1_555
H29 C26 1_555 1_555
C27 C26 1_555 1_555
H30 C27 1_555 1_555
C28 C27 1_555 1_555
C29 C28 1_555 1_555
H31 C29 1_555 1_555
C30 C25 1_555 1_555
H32 C30 1_555 1_555
C31 C28 1_555 1_555
H33 C31 1_555 1_555
H34 C31 1_555 1_555
C32 N2 1_555 1_555
H35 C32 1_555 1_555
C33 C32 1_555 1_555
H36 C33 1_555 1_555
C34 C33 1_555 1_555
C35 C34 1_555 1_555
H37 C35 1_555 1_555
C36 N2 1_555 1_555
H38 C36 1_555 1_555
P1 F1 1_555 1_555
F2 P1 1_555 1_555
F3 P1 1_555 1_555
F4 P1 1_555 1_555
F5 P1 1_555 1_555
F6 P1 1_555 1_555
P2 F7 1_555 1_555
F8 P2 1_555 1_555
F9 P2 1_555 1_555
F10 P2 1_555 1_555
F11 P2 1_555 1_555
F12 P2 1_555 1_555
N3 C37 1_555 1_555
C37 C38 1_555 1_555
C38 H39 1_555 1_555
H40 C38 1_555 1_555
H41 C38 1_555 1_555
N4 C39 1_555 1_555
C39 C40 1_555 1_555
C40 H42 1_555 1_555
H43 C40 1_555 1_555
H44 C40 1_555 1_555
N5 C41 1_555 1_555
C41 C42 1_555 1_555
C42 H45 1_555 1_555
H46 C42 1_555 1_555
H47 C42 1_555 1_555
N6 C43 1_555 1_555
C43 C44 1_555 1_555
C44 H48 1_555 1_555
H49 C44 1_555 1_555
H50 C44 1_555 1_555
O1A C1A 1_555 1_555
O2A C12A 1_555 1_555
O3A C14A 1_555 1_555
O4A C16A 1_555 1_555
O5A C10A 1_555 1_555
C1A C2A 1_555 1_555
C2A H1A 1_555 1_555
C3A C2A 1_555 1_555
H2A C3A 1_555 1_555
C4A C3A 1_555 1_555
H3A C4A 1_555 1_555
C5A C4A 1_555 1_555
C6A C1A 1_555 1_555
C7A C6A 1_555 1_555
H4A C7A 1_555 1_555
C8A C7A 1_555 1_555
H5A C8A 1_555 1_555
C9A C8A 1_555 1_555
H6A C9A 1_555 1_555
C10A C5A 1_555 1_555
C11A O1A 1_555 1_555
H7A C11A 1_555 1_555
H8A C11A 1_555 1_555
C12A C11A 1_555 1_555
H9A C12A 1_555 1_555
H10A C12A 1_555 1_555
C13A O2A 1_555 1_555
H11A C13A 1_555 1_555
H12A C13A 1_555 1_555
C14A C13A 1_555 1_555
H13A C14A 1_555 1_555
H14A C14A 1_555 1_555
C15A O3A 1_555 1_555
H15A C15A 1_555 1_555
H16A C15A 1_555 1_555
C16A C15A 1_555 1_555
H17A C16A 1_555 1_555
H18A C16A 1_555 1_555
C17A C18 1_555 1_555
H19A C17A 1_555 1_555
H20A C17A 1_555 1_555
C18A C17 1_555 1_555
H21A C18A 1_555 1_555
H22A C18A 1_555 1_555
N1A C19A 1_555 1_555
N1_2 C19_2 1_555 1_555
N1A_2 C19A_2 1_555 1_555
N1A_3 C19A_3 1_555 1_555
N1_3 C19_3 1_555 1_555
N2A C31A 1_555 1_555
N2_2 C31_2 1_555 1_555
N2A_2 C31A_2 1_555 1_555
C19A H23A 1_555 1_555
C19_2 H23_2 1_555 1_555
C19A_2 H23A_2 1_555 1_555
C19A_3 H23A_3 1_555 1_555
C19_3 H23_3 1_555 1_555
C20A C19A 1_555 1_555
C20_2 C19_2 1_555 1_555
C20A_2 C19A_2 1_555 1_555
C20A_3 C19A_3 1_555 1_555
C20_3 C19_3 1_555 1_555
H24A C20A 1_555 1_555
H24_2 C20_2 1_555 1_555
H24A_2 C20A_2 1_555 1_555
H24A_3 C20A_3 1_555 1_555
H24_3 C20_3 1_555 1_555
C21A C21 1_555 1_555
C21_2 C20_2 1_555 1_555
C21A_2 C20A_2 1_555 1_555
C21A_3 C20A_3 1_555 1_555
C21_3 C20_3 1_555 1_555
C22A C21A 1_555 1_555
C22_2 C21_2 1_555 1_555
C22A_2 C21A_2 1_555 1_555
C22A_3 C21A_3 1_555 1_555
C22_3 C21_3 1_555 1_555
H25A C22A 1_555 1_555
H25_2 C22_2 1_555 1_555
H25A_2 C22A_2 1_555 1_555
H25A_3 C22A_3 1_555 1_555
H25_3 C22_3 1_555 1_555
C23A N1A 1_555 1_555
C23_2 N1_2 1_555 1_555
C23A_2 N1A_2 1_555 1_555
C23A_3 N1A_3 1_555 1_555
C23_3 N1_3 1_555 1_555
H26A C23A 1_555 1_555
H26_2 C23_2 1_555 1_555
H26A_2 C23A_2 1_555 1_555
H26A_3 C23A_3 1_555 1_555
H26_3 C23_3 1_555 1_555
C24A N1A 1_555 1_555
C24_2 N1_2 1_555 1_555
C24A_2 N1A_2 1_555 1_555
C24A_3 N1A_3 1_555 1_555
C24_3 N1_3 1_555 1_555
H27A C24A 1_555 1_555
H27_2 C24_2 1_555 1_555
H27A_2 C24A_3 1_555 1_555
H28A C24A 1_555 1_555
H28_2 C24_2 1_555 1_555
H28A_2 C24A_3 1_555 1_555
C25A C24A 1_555 1_555
C25_2 C24_2 1_555 1_555
C25A_2 C24A_3 1_555 1_555
C26A C25A 1_555 1_555
C26_2 C25_2 1_555 1_555
C26A_2 C25A_2 1_555 1_555
H29A C26A 1_555 1_555
H29_2 C26_2 1_555 1_555
H29A_2 C26A_2 1_555 1_555
C27A C26A 1_555 1_555
C27_2 C26_2 1_555 1_555
C27A_2 C26A_2 1_555 1_555
H30A C27A 1_555 1_555
H30_2 C27_2 1_555 1_555
H30A_2 C27A_2 1_555 1_555
C28A C27A 1_555 1_555
C28_2 C27_2 1_555 1_555
C28A_2 C27A_2 1_555 1_555
C29A C28A 1_555 1_555
C29_2 C28_2 1_555 1_555
C29A_2 C28A_2 1_555 1_555
H31A C29A 1_555 1_555
H31_2 C29_2 1_555 1_555
H31A_2 C29A_2 1_555 1_555
C30A C25A 1_555 1_555
C30_2 C25_2 1_555 1_555
C30A_2 C25A_2 1_555 1_555
H32A C30A 1_555 1_555
H32_2 C30_2 1_555 1_555
H32A_2 C30A_2 1_555 1_555
C31A C28A 1_555 1_555
C31_2 C28_2 1_555 1_555
C31A_2 C28A_2 1_555 1_555
H33_2 C31_2 1_555 1_555
H33A C31A 1_555 1_555
H33A_2 C31A_2 1_555 1_555
H34_2 C31_2 1_555 1_555
H34A C31A 1_555 1_555
H34A_2 C31A_2 1_555 1_555
C32A N2A 1_555 1_555
C32_2 N2_2 1_555 1_555
C32A_2 N2A_2 1_555 1_555
H35A C32A 1_555 1_555
H35_2 C32_2 1_555 1_555
H35A_2 C32A_2 1_555 1_555
C33A C32A 1_555 1_555
C33_2 C32_2 1_555 1_555
C33A_2 C32A_2 1_555 1_555
H36A C33A 1_555 1_555
H36_2 C33_2 1_555 1_555
H36A_2 C33A_2 1_555 1_555
C34A C33A 1_555 1_555
C34_2 C33_2 1_555 1_555
C34A_2 C34 1_555 1_555
C35_2 C34_2 1_555 1_555
C35A C34A 1_555 1_555
C35A_2 C34A_2 1_555 1_555
H37_2 C35_2 1_555 1_555
H37A C35A 1_555 1_555
H37A_2 C35A_2 1_555 1_555
C36_2 N2_2 1_555 1_555
C36A N2A 1_555 1_555
C36A_2 N2A_2 1_555 1_555
H38_2 C36_2 1_555 1_555
H38A C36A 1_555 1_555
H38A_2 C36A_2 1_555 1_555
C5 C6 1_555 1_555
C9 C10 1_555 1_555
C22 C23 1_555 1_555
C29 C30 1_555 1_555
C35 C36 1_555 1_555
O4A C17A 1_555 1_555
O5A C18A 1_555 1_555
C5A C6A 1_555 1_555
C9A C10A 1_555 1_555
C20A C21A 1_555 1_555
C21_2 C21A_2 1_555 1_555
C21A_3 C21_3 1_555 1_555
C22A C23A 1_555 1_555
C22_2 C23_2 1_555 1_555
C22A_2 C23A_2 1_555 1_555
C22A_3 C23A_3 1_555 1_555
C22_3 C23_3 1_555 1_555
C29A C30A 1_555 1_555
C29_2 C30_2 1_555 1_555
C29A_2 C30A_2 1_555 1_555
C33A_2 C34A_2 1_555 1_555
C34A C34_2 1_555 1_555
C35_2 C36_2 1_555 1_555
C35A C36A 1_555 1_555
C35A_2 C36A_2 1_555 1_555

#END
