
#######################################################################
#
#                 Cambridge Crystallographic Data Centre
#                                CCDC 
#
#######################################################################
#
# If this CIF has been generated from an entry in the Cambridge 
# Structural Database, then it will include bibliographic, chemical, 
# crystal, experimental, refinement or atomic coordinate data resulting 
# from the CCDC's data processing and validation procedures.
#
#######################################################################

data_LEJREY
_chemical_formula_moiety         'C19 H14 N2 O2'
_chemical_name_systematic        2-(Dibenzoylamino)pyridine
_chemical_properties_biological  
'active against nematode (Meloidogyne incognita) infestation in plants'
_symmetry_cell_setting           orthorhombic
_symmetry_space_group_name_H-M   'P 21 21 21'
_symmetry_Int_Tables_number      19
_space_group_name_Hall           'P 2ac 2ab'
loop_
_symmetry_equiv_pos_site_id
_symmetry_equiv_pos_as_xyz
1 x,y,z
2 1/2-x,-y,1/2+z
3 -x,1/2+y,1/2-z
4 1/2+x,1/2-y,-z
_cell_length_a                   9.0343(18)
_cell_length_b                   9.2051(18)
_cell_length_c                   19.152(4)
_cell_angle_alpha                90
_cell_angle_beta                 90
_cell_angle_gamma                90
_cell_volume                     1592.71
_exptl_crystal_colour            colorless
_exptl_crystal_description       block
_chemical_melting_point          '441.2 K'
_cell_formula_units_Z            4
_exptl_crystal_recrystallization_method acetone
loop_
_atom_site_label
_atom_site_type_symbol
_atom_site_fract_x
_atom_site_fract_y
_atom_site_fract_z
N1 N 0.90112(13) 0.36070(15) 0.15715(7)
N2 N 1.05416(16) 0.32738(19) 0.06057(8)
O1 O 0.66920(13) 0.39447(15) 0.11274(7)
O2 O 0.91932(16) 0.13646(14) 0.20693(8)
C1 C 0.7699(2) 0.6391(3) 0.03357(11)
H1 H 0.7036 0.5814 0.0089
C2 C 0.7997(3) 0.7791(3) 0.01122(13)
H2 H 0.7555 0.8147 -0.0291
C3 C 0.8947(3) 0.8651(3) 0.04876(16)
H3 H 0.9133 0.9596 0.0341
C4 C 0.9617(3) 0.8135(2) 0.10702(14)
H4 H 1.0249 0.8731 0.1325
C5 C 0.9364(2) 0.6727(2) 0.12864(10)
H5 H 0.9854 0.6367 0.1677
C6 C 0.83897(17) 0.58521(19) 0.09279(8)
C7 C 0.79446(16) 0.44097(19) 0.11944(8)
C8 C 0.85407(18) 0.25127(17) 0.20353(9)
C9 C 0.73006(18) 0.28778(18) 0.25128(9)
C10 C 0.6357(2) 0.1779(2) 0.27210(12)
H6 H 0.6462 0.0851 0.2536
C11 C 0.5262(3) 0.2056(3) 0.32020(16)
H7 H 0.4619 0.1317 0.3335
C12 C 0.5115(3) 0.3398(3) 0.34832(13)
H8 H 0.4376 0.3576 0.3810
C13 C 0.6051(3) 0.4493(2) 0.32869(12)
H9 H 0.5945 0.5411 0.3483
C14 C 0.7148(2) 0.4246(2) 0.28011(11)
H10 H 0.7781 0.4994 0.2669
C15 C 1.04790(16) 0.34642(17) 0.12835(9)
C16 C 1.16893(19) 0.3532(2) 0.17189(10)
H11 H 1.1580 0.3675 0.2197
C17 C 1.30753(19) 0.3381(2) 0.14188(11)
H12 H 1.3924 0.3415 0.1693
C18 C 1.3179(2) 0.3182(2) 0.07186(12)
H13 H 1.4096 0.3073 0.0505
C19 C 1.1902(2) 0.3145(2) 0.03327(11)
H14 H 1.1985 0.3024 -0.0148
loop_
_geom_bond_atom_site_label_1
_geom_bond_atom_site_label_2
_geom_bond_site_symmetry_1
_geom_bond_site_symmetry_2
N1 C7 1_555 1_555
N2 C15 1_555 1_555
O1 C7 1_555 1_555
O2 C8 1_555 1_555
C1 H1 1_555 1_555
C2 C1 1_555 1_555
H2 C2 1_555 1_555
C3 C2 1_555 1_555
H3 C3 1_555 1_555
C4 C3 1_555 1_555
H4 C4 1_555 1_555
C5 C4 1_555 1_555
H5 C5 1_555 1_555
C6 C1 1_555 1_555
C7 C6 1_555 1_555
C8 N1 1_555 1_555
C9 C8 1_555 1_555
C10 C9 1_555 1_555
H6 C10 1_555 1_555
C11 C10 1_555 1_555
H7 C11 1_555 1_555
C12 C11 1_555 1_555
H8 C12 1_555 1_555
C13 C12 1_555 1_555
H9 C13 1_555 1_555
C14 C9 1_555 1_555
H10 C14 1_555 1_555
C15 N1 1_555 1_555
C16 C15 1_555 1_555
H11 C16 1_555 1_555
C17 C16 1_555 1_555
H12 C17 1_555 1_555
C18 C17 1_555 1_555
H13 C18 1_555 1_555
C19 N2 1_555 1_555
H14 C19 1_555 1_555
C5 C6 1_555 1_555
C13 C14 1_555 1_555
C18 C19 1_555 1_555

#END
