
#######################################################################
#
#                 Cambridge Crystallographic Data Centre
#                                CCDC 
#
#######################################################################
#
# If this CIF has been generated from an entry in the Cambridge 
# Structural Database, then it will include bibliographic, chemical, 
# crystal, experimental, refinement or atomic coordinate data resulting 
# from the CCDC's data processing and validation procedures.
#
#######################################################################

data_LEJTAX
_chemical_name_common            
5-Methyl-15-phenyl-4,8,12-trioxa-15-azapentacyclo[7.6.6.0$2,7!.0$10,14!.0$16,21!]henicosa-2(7),5,10(14),16,18,20-hexaene-3,11-dione
_chemical_formula_moiety         'C24 H17 N1 O5'
_chemical_name_systematic        
3-Methyl-17-phenyl-11,15-dihydro-1H-11,6-([3,4]furanoimino)benzo[e]pyrano[4,3-b]oxepine-1,13(6H)-dione
_symmetry_cell_setting           monoclinic
_symmetry_space_group_name_H-M   'C 2/c'
_symmetry_Int_Tables_number      15
_space_group_name_Hall           '-C 2yn'
loop_
_symmetry_equiv_pos_site_id
_symmetry_equiv_pos_as_xyz
1 x,y,z
2 -x,y,1/2-z
3 1/2+x,1/2+y,z
4 1/2-x,1/2+y,1/2-z
5 -x,-y,-z
6 x,-y,1/2+z
7 1/2-x,1/2-y,-z
8 1/2+x,1/2-y,1/2+z
_cell_length_a                   25.1124(19)
_cell_length_b                   10.5344(5)
_cell_length_c                   15.6780(12)
_cell_angle_alpha                90
_cell_angle_beta                 115.860(2)
_cell_angle_gamma                90
_cell_volume                     3732.2
_exptl_crystal_colour            white
_exptl_crystal_description       block
_chemical_melting_point          '291-292 deg.C'
_cell_formula_units_Z            8
loop_
_atom_site_label
_atom_site_type_symbol
_atom_site_fract_x
_atom_site_fract_y
_atom_site_fract_z
N1 N 0.61721(8) 0.38000(17) 0.42210(13)
O1 O 0.70211(7) 0.41242(15) 0.74352(12)
O2 O 0.64483(8) 0.54130(16) 0.63018(12)
O3 O 0.64995(7) 0.09369(14) 0.57905(12)
O4 O 0.71195(8) 0.18735(17) 0.35475(13)
O5 O 0.71095(9) -0.00707(18) 0.41311(15)
C1 C 0.66064(11) 0.4314(3) 0.65098(18)
C2 C 0.63962(10) 0.3228(2) 0.58900(17)
C3 C 0.66201(10) 0.2062(2) 0.62583(18)
C4 C 0.70243(11) 0.1912(2) 0.72289(18)
H1 H 0.7154 0.1107 0.7476
C5 C 0.72149(11) 0.2933(2) 0.77809(18)
C6 C 0.76505(12) 0.2979(3) 0.87908(19)
H2 H 0.7744 0.2131 0.9035
H3 H 0.7486 0.3441 0.9147
H4 H 0.8004 0.3395 0.8845
C7 C 0.61954(10) 0.0914(2) 0.47464(17)
H5 H 0.6191 0.0025 0.4558
C8 C 0.55593(11) 0.1306(2) 0.44032(17)
C9 C 0.51014(12) 0.0440(3) 0.39884(19)
H6 H 0.5186 -0.0394 0.3894
C10 C 0.45183(13) 0.0805(3) 0.3712(2)
H7 H 0.4214 0.0220 0.3427
C11 C 0.43915(12) 0.2026(3) 0.3860(2)
H8 H 0.4002 0.2266 0.3690
C12 C 0.48445(11) 0.2909(3) 0.42646(18)
H9 H 0.4755 0.3735 0.4366
C13 C 0.54292(11) 0.2572(2) 0.45184(16)
C14 C 0.59207(10) 0.3537(2) 0.49131(16)
H10 H 0.5737 0.4330 0.4976
C15 C 0.69337(12) 0.1018(3) 0.40211(19)
C16 C 0.65240(10) 0.1634(2) 0.43069(17)
C17 C 0.64711(10) 0.2866(2) 0.40329(17)
C18 C 0.68578(11) 0.3089(2) 0.35370(19)
H11 H 0.6625 0.3377 0.2892
H12 H 0.7160 0.3717 0.3871
C19 C 0.60490(11) 0.4984(2) 0.37094(18)
C20 C 0.62645(14) 0.6096(2) 0.4184(2)
H13 H 0.6488 0.6093 0.4839
C21 C 0.61491(16) 0.7225(3) 0.3688(3)
H14 H 0.6301 0.7981 0.4007
C22 C 0.58123(15) 0.7235(3) 0.2729(3)
H15 H 0.5732 0.8000 0.2400
C23 C 0.55926(12) 0.6130(3) 0.2250(2)
H16 H 0.5364 0.6138 0.1597
C24 C 0.57127(11) 0.4996(3) 0.27462(19)
H17 H 0.5565 0.4239 0.2425
loop_
_geom_bond_atom_site_label_1
_geom_bond_atom_site_label_2
_geom_bond_site_symmetry_1
_geom_bond_site_symmetry_2
N1 C14 1_555 1_555
O1 C1 1_555 1_555
O2 C1 1_555 1_555
O3 C3 1_555 1_555
O4 C15 1_555 1_555
O5 C15 1_555 1_555
C1 C2 1_555 1_555
C2 C3 1_555 1_555
C3 C4 1_555 1_555
C4 H1 1_555 1_555
C5 O1 1_555 1_555
C6 C5 1_555 1_555
H2 C6 1_555 1_555
H3 C6 1_555 1_555
H4 C6 1_555 1_555
C7 O3 1_555 1_555
H5 C7 1_555 1_555
C8 C7 1_555 1_555
C9 C8 1_555 1_555
H6 C9 1_555 1_555
C10 C9 1_555 1_555
H7 C10 1_555 1_555
C11 C10 1_555 1_555
H8 C11 1_555 1_555
C12 C11 1_555 1_555
H9 C12 1_555 1_555
C13 C8 1_555 1_555
C14 C2 1_555 1_555
H10 C14 1_555 1_555
C15 C16 1_555 1_555
C16 C7 1_555 1_555
C17 N1 1_555 1_555
C18 O4 1_555 1_555
H11 C18 1_555 1_555
H12 C18 1_555 1_555
C19 N1 1_555 1_555
C20 C19 1_555 1_555
H13 C20 1_555 1_555
C21 C20 1_555 1_555
H14 C21 1_555 1_555
C22 C21 1_555 1_555
H15 C22 1_555 1_555
C23 C22 1_555 1_555
H16 C23 1_555 1_555
C24 C19 1_555 1_555
H17 C24 1_555 1_555
C4 C5 1_555 1_555
C12 C13 1_555 1_555
C13 C14 1_555 1_555
C16 C17 1_555 1_555
C17 C18 1_555 1_555
C23 C24 1_555 1_555

#END
