
#######################################################################
#
#                 Cambridge Crystallographic Data Centre
#                                CCDC 
#
#######################################################################
#
# If this CIF has been generated from an entry in the Cambridge 
# Structural Database, then it will include bibliographic, chemical, 
# crystal, experimental, refinement or atomic coordinate data resulting 
# from the CCDC's data processing and validation procedures.
#
#######################################################################

data_LEJTIG
_chemical_formula_moiety         'C16 H14 Br1 N1 O5'
_chemical_name_systematic        
1-(4-bromophenyl)-3-(2-ethoxy-4-oxo-4,5-dihydrofuran-3-yl)pyrrolidine-2,5-dione
_symmetry_cell_setting           monoclinic
_symmetry_space_group_name_H-M   'P 21'
_symmetry_Int_Tables_number      4
_space_group_name_Hall           'P 2yb'
loop_
_symmetry_equiv_pos_site_id
_symmetry_equiv_pos_as_xyz
1 x,y,z
2 -x,1/2+y,-z
_cell_length_a                   5.4013(8)
_cell_length_b                   8.2636(13)
_cell_length_c                   17.057(3)
_cell_angle_alpha                90
_cell_angle_beta                 98.759(2)
_cell_angle_gamma                90
_cell_volume                     752.446
_exptl_crystal_colour            colorless
_exptl_crystal_description       plate
_cell_formula_units_Z            2
loop_
_atom_site_label
_atom_site_type_symbol
_atom_site_fract_x
_atom_site_fract_y
_atom_site_fract_z
Br1 Br 0.38206(8) 0.24617(10) 1.06471(3)
C1 C 0.5067(10) 0.2841(7) 0.9095(4)
H1 H 0.6482 0.2192 0.9287
C2 C 0.0856(10) 0.4743(7) 0.8548(3)
H2 H -0.0572 0.5380 0.8356
O1 O 0.5800(7) 0.6695(5) 0.7510(3)
O2 O 0.6381(8) 0.9151(5) 0.5343(3)
C3 C 0.0686(14) 0.9883(9) 0.8325(4)
H3 H 0.0692 0.8749 0.8494
H4 H -0.0031 1.0557 0.8707
H5 H 0.2406 1.0232 0.8301
C4 C -0.0858(11) 1.0051(7) 0.7523(4)
H6 H -0.2624 0.9771 0.7550
H7 H -0.0798 1.1183 0.7336
O3 O 0.0152(8) 0.8958(5) 0.6971(3)
C5 C 0.3157(11) 0.8473(7) 0.6133(4)
C6 C 0.3169(11) 0.6666(7) 0.6196(4)
H8 H 0.4373 0.6217 0.5862
C7 C 0.4014(9) 0.6182(6) 0.7053(3)
N1 N 0.2331(8) 0.5020(6) 0.7270(3)
C8 C 0.2616(9) 0.4364(6) 0.8055(3)
C9 C 0.4724(10) 0.3414(7) 0.8318(3)
H9 H 0.5897 0.3166 0.7974
C10 C 0.3324(10) 0.3224(7) 0.9586(3)
C11 C 0.0243(9) 0.4799(6) 0.6687(3)
O4 O -0.1514(7) 0.3937(5) 0.6764(3)
C12 C 0.1777(10) 0.9476(7) 0.6529(3)
O5 O 0.2171(8) 1.1064(5) 0.6467(2)
C13 C 0.4079(10) 1.1229(7) 0.5946(3)
H10 H 0.5567 1.1810 0.6220
H11 H 0.3404 1.1828 0.5458
C14 C 0.4753(10) 0.9505(6) 0.5750(3)
C15 C 0.1233(8) 0.4170(8) 0.9323(3)
H12 H 0.0071 0.4424 0.9670
C16 C 0.0605(9) 0.5823(6) 0.5969(3)
H13 H -0.0751 0.6633 0.5855
H14 H 0.0607 0.5132 0.5495
loop_
_geom_bond_atom_site_label_1
_geom_bond_atom_site_label_2
_geom_bond_site_symmetry_1
_geom_bond_site_symmetry_2
Br1 C10 1_555 1_555
C1 H1 1_555 1_555
C2 H2 1_555 1_555
O1 C7 1_555 1_555
O2 C14 1_555 1_555
C3 H3 1_555 1_555
H4 C3 1_555 1_555
H5 C3 1_555 1_555
C4 C3 1_555 1_555
H6 C4 1_555 1_555
H7 C4 1_555 1_555
O3 C4 1_555 1_555
C5 C6 1_555 1_555
C6 H8 1_555 1_555
C7 C6 1_555 1_555
N1 C7 1_555 1_555
C8 C2 1_555 1_555
C9 C1 1_555 1_555
H9 C9 1_555 1_555
C10 C1 1_555 1_555
C11 N1 1_555 1_555
O4 C11 1_555 1_555
C12 O3 1_555 1_555
O5 C12 1_555 1_555
C13 O5 1_555 1_555
H10 C13 1_555 1_555
H11 C13 1_555 1_555
C14 C5 1_555 1_555
C15 C2 1_555 1_555
H12 C15 1_555 1_555
C16 C6 1_555 1_555
H13 C16 1_555 1_555
H14 C16 1_555 1_555
C5 C12 1_555 1_555
N1 C8 1_555 1_555
C8 C9 1_555 1_555
C10 C15 1_555 1_555
C11 C16 1_555 1_555
C13 C14 1_555 1_555

#END
