
#######################################################################
#
#                 Cambridge Crystallographic Data Centre
#                                CCDC 
#
#######################################################################
#
# If this CIF has been generated from an entry in the Cambridge 
# Structural Database, then it will include bibliographic, chemical, 
# crystal, experimental, refinement or atomic coordinate data resulting 
# from the CCDC's data processing and validation procedures.
#
#######################################################################

data_LEJVUT
_chemical_formula_moiety         'C44 H64 B4 O12 P4'
_chemical_name_systematic        
3,7,11,15-Tetra-t-butyl-1,5,9,13-tetrakis(4-methylphenyl)-1,5,9,13-tetrabora-2,4,6,8,10,12,14,16,17,18,19,20-dodecaoxa-3,7,11,15-tetraphosphapentacyclo[9.5.1.1^3,9^.1^5,15^.1^7,13^]icosane
_symmetry_cell_setting           orthorhombic
_symmetry_space_group_name_H-M   'P c c n'
_symmetry_Int_Tables_number      56
_space_group_name_Hall           '-P 2ab 2ac'
loop_
_symmetry_equiv_pos_site_id
_symmetry_equiv_pos_as_xyz
1 x,y,z
2 1/2-x,1/2-y,z
3 -x,1/2+y,1/2-z
4 1/2+x,-y,1/2-z
5 -x,-y,-z
6 1/2+x,1/2+y,-z
7 x,1/2-y,1/2+z
8 1/2-x,y,1/2+z
_cell_length_a                   12.2050(16)
_cell_length_b                   18.512(5)
_cell_length_c                   22.243(3)
_cell_angle_alpha                90
_cell_angle_beta                 90
_cell_angle_gamma                90
_cell_volume                     5025.56
_exptl_crystal_colour            colorless
_exptl_crystal_description       prismatic
_cell_formula_units_Z            4
loop_
_atom_site_label
_atom_site_type_symbol
_atom_site_fract_x
_atom_site_fract_y
_atom_site_fract_z
P1 P 0.40152(4) 0.21341(3) 0.07123(2)
P2 P 0.30899(4) 0.34945(3) 0.19640(2)
O1 O 0.43372(11) 0.18909(7) 0.13493(6)
O2 O 0.39959(11) 0.29204(7) 0.20024(6)
O3 O 0.30293(11) 0.38127(7) 0.13264(6)
O4 O 0.40008(11) 0.29645(7) 0.06610(6)
O5 O 0.29256(11) 0.18095(7) 0.05154(6)
O6 O 0.19797(11) 0.31987(7) 0.21729(6)
B1 B 0.40914(18) 0.21106(12) 0.19797(9)
B2 B 0.31248(18) 0.35402(11) 0.06943(9)
C1 C 0.50381(16) 0.17854(11) 0.02019(9)
C2 C 0.46178(19) 0.18987(15) -0.04447(9)
H1 H 0.4498 0.2415 -0.0516
H2 H 0.3926 0.1638 -0.0499
H3 H 0.5162 0.1716 -0.0731
C3 C 0.5186(2) 0.09715(12) 0.03305(12)
H4 H 0.5722 0.0769 0.0049
H5 H 0.4483 0.0724 0.0281
H6 H 0.5448 0.0906 0.0743
C4 C 0.61291(16) 0.21863(12) 0.02908(9)
H7 H 0.6356 0.2148 0.0712
H8 H 0.6036 0.2696 0.0184
H9 H 0.6691 0.1970 0.0033
C5 C 0.50678(16) 0.18616(10) 0.24141(8)
C6 C 0.61428(17) 0.18070(11) 0.22023(9)
H10 H 0.6277 0.1870 0.1785
C7 C 0.70237(17) 0.16637(11) 0.25823(9)
H11 H 0.7743 0.1633 0.2421
C8 C 0.68618(17) 0.15651(10) 0.31964(9)
C9 C 0.57947(18) 0.15978(12) 0.34135(9)
H12 H 0.5661 0.1517 0.3829
C10 C 0.49150(17) 0.17471(11) 0.30314(9)
H13 H 0.4196 0.1772 0.3194
C11 C 0.78339(18) 0.14517(12) 0.36109(10)
H14 H 0.8447 0.1249 0.3381
H15 H 0.7630 0.1117 0.3933
H16 H 0.8053 0.1916 0.3786
C12 C 0.34335(16) 0.42138(10) 0.24776(8)
C13 C 0.35805(18) 0.38803(12) 0.31096(8)
H17 H 0.4194 0.3539 0.3103
H18 H 0.2909 0.3626 0.3225
H19 H 0.3731 0.4265 0.3401
C14 C 0.24768(19) 0.47574(11) 0.24769(9)
H20 H 0.2641 0.5154 0.2754
H21 H 0.1804 0.4513 0.2606
H22 H 0.2377 0.4951 0.2070
C15 C 0.45042(18) 0.45856(12) 0.22840(10)
H23 H 0.4422 0.4776 0.1876
H24 H 0.5105 0.4234 0.2292
H25 H 0.4668 0.4983 0.2561
C16 C 0.33706(15) 0.41911(10) 0.02422(8)
C17 C 0.34579(17) 0.49116(11) 0.04246(9)
H26 H 0.3448 0.5021 0.0842
C18 C 0.35591(18) 0.54732(11) 0.00111(9)
H27 H 0.3616 0.5956 0.0152
C19 C 0.35790(16) 0.53399(11) -0.06049(8)
C20 C 0.35257(18) 0.46239(11) -0.07922(9)
H28 H 0.3562 0.4515 -0.1209
C21 C 0.34204(18) 0.40641(11) -0.03781(9)
H29 H 0.3381 0.3581 -0.0521
C22 C 0.36542(18) 0.59563(11) -0.10517(9)
H30 H 0.4397 0.6157 -0.1046
H31 H 0.3128 0.6334 -0.0942
H32 H 0.3487 0.5777 -0.1456
P1A P 0.09848(4) 0.28659(3) 0.07123(2)
P2A P 0.19101(4) 0.15055(3) 0.19640(2)
O1A O 0.06628(11) 0.31091(7) 0.13493(6)
O2A O 0.10041(11) 0.20796(7) 0.20024(6)
O3A O 0.19707(11) 0.11873(7) 0.13264(6)
O4A O 0.09992(11) 0.20355(7) 0.06610(6)
O5A O 0.20744(11) 0.31905(7) 0.05154(6)
O6A O 0.30203(11) 0.18013(7) 0.21729(6)
B1A B 0.09086(18) 0.28894(12) 0.19797(9)
B2A B 0.18752(18) 0.14598(11) 0.06943(9)
C1A C -0.00381(16) 0.32146(11) 0.02019(9)
C2A C 0.03822(19) 0.31013(15) -0.04447(9)
H1A H 0.0502 0.2585 -0.0516
H2A H 0.1074 0.3362 -0.0499
H3A H -0.0162 0.3284 -0.0731
C3A C -0.0186(2) 0.40285(12) 0.03305(12)
H4A H -0.0722 0.4231 0.0049
H5A H 0.0517 0.4276 0.0281
H6A H -0.0448 0.4094 0.0743
C4A C -0.11291(16) 0.28137(12) 0.02908(9)
H7A H -0.1356 0.2852 0.0712
H8A H -0.1036 0.2304 0.0184
H9A H -0.1691 0.3030 0.0033
C5A C -0.00678(16) 0.31384(10) 0.24141(8)
C6A C -0.11428(17) 0.31930(11) 0.22023(9)
H10A H -0.1277 0.3130 0.1785
C7A C -0.20237(17) 0.33363(11) 0.25823(9)
H11A H -0.2743 0.3367 0.2421
C8A C -0.18618(17) 0.34349(10) 0.31964(9)
C9A C -0.07947(18) 0.34022(12) 0.34135(9)
H12A H -0.0661 0.3483 0.3829
C10A C 0.00850(17) 0.32529(11) 0.30314(9)
H13A H 0.0804 0.3228 0.3194
C11A C -0.28339(18) 0.35483(12) 0.36109(10)
H14A H -0.3447 0.3751 0.3381
H15A H -0.2630 0.3883 0.3933
H16A H -0.3053 0.3084 0.3786
C12A C 0.15665(16) 0.07862(10) 0.24776(8)
C13A C 0.14195(18) 0.11197(12) 0.31096(8)
H17A H 0.0806 0.1461 0.3103
H18A H 0.2091 0.1374 0.3225
H19A H 0.1269 0.0735 0.3401
C14A C 0.25232(19) 0.02426(11) 0.24769(9)
H20A H 0.2359 -0.0154 0.2754
H21A H 0.3196 0.0487 0.2606
H22A H 0.2623 0.0049 0.2070
C15A C 0.04958(18) 0.04144(12) 0.22840(10)
H23A H 0.0578 0.0224 0.1876
H24A H -0.0105 0.0766 0.2292
H25A H 0.0332 0.0017 0.2561
C16A C 0.16294(15) 0.08089(10) 0.02422(8)
C17A C 0.15421(17) 0.00884(11) 0.04246(9)
H26A H 0.1552 -0.0021 0.0842
C18A C 0.14409(18) -0.04732(11) 0.00111(9)
H27A H 0.1384 -0.0956 0.0152
C19A C 0.14210(16) -0.03399(11) -0.06049(8)
C20A C 0.14743(18) 0.03761(11) -0.07922(9)
H28A H 0.1438 0.0485 -0.1209
C21A C 0.15796(18) 0.09359(11) -0.03781(9)
H29A H 0.1619 0.1419 -0.0521
C22A C 0.13458(18) -0.09563(11) -0.10517(9)
H30A H 0.0603 -0.1157 -0.1046
H31A H 0.1872 -0.1334 -0.0942
H32A H 0.1513 -0.0777 -0.1456
H33? H -0.2640 0.3395 0.4019
H34? H -0.3457 0.3262 0.3467
H35? H -0.3033 0.4061 0.3615
loop_
_geom_bond_atom_site_label_1
_geom_bond_atom_site_label_2
_geom_bond_site_symmetry_1
_geom_bond_site_symmetry_2
P1 O1 1_555 1_555
P2 O2 1_555 1_555
O1 B1 1_555 1_555
O2 B1 1_555 1_555
O3 P2 1_555 1_555
O4 P1 1_555 1_555
O5 P1 1_555 1_555
O6 P2 1_555 1_555
B1 C5 1_555 1_555
B2 O3 1_555 1_555
C1 P1 1_555 1_555
C2 C1 1_555 1_555
H1 C2 1_555 1_555
H2 C2 1_555 1_555
H3 C2 1_555 1_555
C3 C1 1_555 1_555
H4 C3 1_555 1_555
H5 C3 1_555 1_555
H6 C3 1_555 1_555
C4 C1 1_555 1_555
H7 C4 1_555 1_555
H8 C4 1_555 1_555
H9 C4 1_555 1_555
C5 C6 1_555 1_555
C6 H10 1_555 1_555
C7 C6 1_555 1_555
H11 C7 1_555 1_555
C8 C7 1_555 1_555
C9 C8 1_555 1_555
H12 C9 1_555 1_555
C10 C5 1_555 1_555
H13 C10 1_555 1_555
C11 C8 1_555 1_555
H14 C11 1_555 1_555
H15 C11 1_555 1_555
H16 C11 1_555 1_555
C12 P2 1_555 1_555
C13 C12 1_555 1_555
H17 C13 1_555 1_555
H18 C13 1_555 1_555
H19 C13 1_555 1_555
C14 C12 1_555 1_555
H20 C14 1_555 1_555
H21 C14 1_555 1_555
H22 C14 1_555 1_555
C15 C12 1_555 1_555
H23 C15 1_555 1_555
H24 C15 1_555 1_555
H25 C15 1_555 1_555
C16 B2 1_555 1_555
C17 C16 1_555 1_555
H26 C17 1_555 1_555
C18 C17 1_555 1_555
H27 C18 1_555 1_555
C19 C18 1_555 1_555
C20 C19 1_555 1_555
H28 C20 1_555 1_555
C21 C16 1_555 1_555
H29 C21 1_555 1_555
C22 C19 1_555 1_555
H30 C22 1_555 1_555
H31 C22 1_555 1_555
H32 C22 1_555 1_555
P1A O1A 1_555 1_555
P2A O2A 1_555 1_555
O1A B1A 1_555 1_555
O2A B1A 1_555 1_555
O3A P2A 1_555 1_555
O4A P1A 1_555 1_555
O5A B2 1_555 1_555
O6A B1 1_555 1_555
B1A O6 1_555 1_555
B2A O5 1_555 1_555
C1A P1A 1_555 1_555
C2A C1A 1_555 1_555
H1A C2A 1_555 1_555
H2A C2A 1_555 1_555
H3A C2A 1_555 1_555
C3A C1A 1_555 1_555
H4A C3A 1_555 1_555
H5A C3A 1_555 1_555
H6A C3A 1_555 1_555
C4A C1A 1_555 1_555
H7A C4A 1_555 1_555
H8A C4A 1_555 1_555
H9A C4A 1_555 1_555
C5A B1A 1_555 1_555
C6A C5A 1_555 1_555
H10A C6A 1_555 1_555
C7A C6A 1_555 1_555
H11A C7A 1_555 1_555
C8A C7A 1_555 1_555
C9A C8A 1_555 1_555
H12A C9A 1_555 1_555
C10A C5A 1_555 1_555
H13A C10A 1_555 1_555
C11A C8A 1_555 1_555
H14A C11A 1_555 1_555
H15A C11A 1_555 1_555
H16A C11A 1_555 1_555
C12A P2A 1_555 1_555
C13A C12A 1_555 1_555
H17A C13A 1_555 1_555
H18A C13A 1_555 1_555
H19A C13A 1_555 1_555
C14A C12A 1_555 1_555
H20A C14A 1_555 1_555
H21A C14A 1_555 1_555
H22A C14A 1_555 1_555
C15A C12A 1_555 1_555
H23A C15A 1_555 1_555
H24A C15A 1_555 1_555
H25A C15A 1_555 1_555
C16A B2A 1_555 1_555
C17A C16A 1_555 1_555
H26A C17A 1_555 1_555
C18A C17A 1_555 1_555
H27A C18A 1_555 1_555
C19A C18A 1_555 1_555
C20A C19A 1_555 1_555
H28A C20A 1_555 1_555
C21A C16A 1_555 1_555
H29A C21A 1_555 1_555
C22A C19A 1_555 1_555
H30A C22A 1_555 1_555
H31A C22A 1_555 1_555
H32A C22A 1_555 1_555
O4 B2 1_555 1_555
C9 C10 1_555 1_555
C20 C21 1_555 1_555
P1A O5A 1_555 1_555
P2A O6A 1_555 1_555
O3A B2A 1_555 1_555
O4A B2A 1_555 1_555
C9A C10A 1_555 1_555
C20A C21A 1_555 1_555

#END
