
#######################################################################
#
#                 Cambridge Crystallographic Data Centre
#                                CCDC 
#
#######################################################################
#
# If this CIF has been generated from an entry in the Cambridge 
# Structural Database, then it will include bibliographic, chemical, 
# crystal, experimental, refinement or atomic coordinate data resulting 
# from the CCDC's data processing and validation procedures.
#
#######################################################################

data_LEJWOP
_chemical_formula_moiety         'C15 H10 Cl1 N1 O1'
_chemical_name_systematic        2-(2-(4-chlorophenyl)vinyl)-1,3-benzoxazole
_symmetry_cell_setting           triclinic
_symmetry_space_group_name_H-M   'P -1'
_symmetry_Int_Tables_number      2
_space_group_name_Hall           '-P 1'
loop_
_symmetry_equiv_pos_site_id
_symmetry_equiv_pos_as_xyz
1 x,y,z
2 -x,-y,-z
_cell_length_a                   6.1231(4)
_cell_length_b                   7.6323(4)
_cell_length_c                   13.9494(8)
_cell_angle_alpha                77.391(5)
_cell_angle_beta                 79.147(5)
_cell_angle_gamma                73.064(5)
_cell_volume                     603.135
_exptl_crystal_colour            colorless
_exptl_crystal_description       rod-like
_cell_formula_units_Z            2
loop_
_atom_site_label
_atom_site_type_symbol
_atom_site_fract_x
_atom_site_fract_y
_atom_site_fract_z
Cl1 Cl 0.40989(9) 0.67443(7) 0.39275(3)
O1 O -0.02400(18) 0.73854(16) -0.17961(7)
N1 N -0.4024(2) 0.85735(19) -0.13708(9)
C1 C -0.1869(4) 0.7405(3) -0.41896(12)
H1 H -0.1303 0.7128 -0.4821
C2 C -0.0343(3) 0.7095(3) -0.35186(12)
H2 H 0.1236 0.6614 -0.3675
C3 C -0.1321(3) 0.7548(2) -0.26056(10)
C4 C -0.3634(3) 0.8263(2) -0.23467(10)
C5 C -0.5154(3) 0.8546(2) -0.30242(12)
H3 H -0.6734 0.9005 -0.2862
C6 C -0.4207(3) 0.8114(2) -0.39504(12)
H4 H -0.5173 0.8306 -0.4426
C7 C -0.1421(3) 0.8049(2) -0.01402(10)
H5 H -0.2586 0.8563 0.0329
C8 C 0.0686(3) 0.7360(2) 0.00989(10)
H6 H 0.1818 0.6891 -0.0394
C9 C 0.1450(3) 0.72452(19) 0.10489(10)
C10 C 0.3741(3) 0.6427(2) 0.11613(11)
H7 H 0.4750 0.5978 0.0630
C11 C 0.4578(3) 0.6258(2) 0.20432(12)
H8 H 0.6122 0.5695 0.2106
C12 C 0.3088(3) 0.6933(2) 0.28182(11)
C13 C 0.0794(3) 0.7764(2) 0.27352(11)
H9 H -0.0200 0.8217 0.3270
C14 C -0.0020(3) 0.7922(2) 0.18535(11)
H10 H -0.1568 0.8486 0.1797
C15 C -0.2006(3) 0.8043(2) -0.10954(10)
loop_
_geom_bond_atom_site_label_1
_geom_bond_atom_site_label_2
_geom_bond_site_symmetry_1
_geom_bond_site_symmetry_2
Cl1 C12 1_555 1_555
O1 C3 1_555 1_555
N1 C4 1_555 1_555
C1 H1 1_555 1_555
C2 C1 1_555 1_555
H2 C2 1_555 1_555
C3 C2 1_555 1_555
C4 C3 1_555 1_555
C5 C4 1_555 1_555
H3 C5 1_555 1_555
C6 C1 1_555 1_555
H4 C6 1_555 1_555
C7 H5 1_555 1_555
C8 C7 1_555 1_555
H6 C8 1_555 1_555
C9 C8 1_555 1_555
C10 C9 1_555 1_555
H7 C10 1_555 1_555
C11 C10 1_555 1_555
H8 C11 1_555 1_555
C12 C11 1_555 1_555
C13 C12 1_555 1_555
H9 C13 1_555 1_555
C14 C9 1_555 1_555
H10 C14 1_555 1_555
C15 O1 1_555 1_555
N1 C15 1_555 1_555
C5 C6 1_555 1_555
C7 C15 1_555 1_555
C13 C14 1_555 1_555

#END
