
#######################################################################
#
#                 Cambridge Crystallographic Data Centre
#                                CCDC 
#
#######################################################################
#
# If this CIF has been generated from an entry in the Cambridge 
# Structural Database, then it will include bibliographic, chemical, 
# crystal, experimental, refinement or atomic coordinate data resulting 
# from the CCDC's data processing and validation procedures.
#
#######################################################################

data_LEJXEG
_chemical_formula_moiety         'C114 H78,C60,C1 S2'
_chemical_name_systematic        
'1,2,3,4,5,6-hexakis((1^1^,2^1^:2^3^,3^1^-terphenyl)-2^5^-yl)benzene C60-fullerene carbon disulfide solvate'
_symmetry_cell_setting           triclinic
_symmetry_space_group_name_H-M   'P -1'
_symmetry_Int_Tables_number      2
_space_group_name_Hall           '-P 1'
loop_
_symmetry_equiv_pos_site_id
_symmetry_equiv_pos_as_xyz
1 x,y,z
2 -x,-y,-z
_cell_length_a                   16.2140(2)
_cell_length_b                   17.7635(2)
_cell_length_c                   18.7533(2)
_cell_angle_alpha                98.7070(10)
_cell_angle_beta                 92.1730(10)
_cell_angle_gamma                91.5330(10)
_cell_volume                     5332.3
_exptl_crystal_colour            red
_exptl_crystal_description       block
_cell_formula_units_Z            2
loop_
_atom_site_label
_atom_site_type_symbol
_atom_site_fract_x
_atom_site_fract_y
_atom_site_fract_z
S1 S 1.30464(8) 0.42802(9) 0.74348(9)
S2 S 1.35156(15) 0.52302(12) 0.89107(12)
C1 C 1.3274(3) 0.4766(3) 0.8179(3)
C2 C 1.04881(16) 0.52772(15) 0.94844(13)
C3 C 1.06266(16) 0.45489(15) 0.96700(14)
C4 C 1.09806(16) 0.55915(15) 0.89342(14)
C5 C 1.08851(16) 0.52553(15) 0.82129(14)
C6 C 0.96672(16) 0.64659(15) 0.95736(14)
C7 C 1.13342(16) 0.40746(15) 0.93892(14)
C8 C 0.98651(16) 0.57211(15) 0.98149(14)
C9 C 1.13084(16) 0.36401(15) 0.87035(14)
C10 C 1.12603(16) 0.55749(16) 0.76674(14)
C11 C 0.93832(16) 0.64592(15) 0.88636(14)
C12 C 1.14642(16) 0.62568(16) 0.91111(15)
C13 C 1.18419(17) 0.65977(16) 0.85750(15)
C14 C 1.11161(16) 0.52040(17) 0.69073(15)
C15 C 0.91562(18) 0.65710(16) 0.73193(15)
C16 C 1.19441(17) 0.31513(16) 0.84829(15)
C17 C 0.87915(17) 0.70611(16) 0.78643(15)
C18 C 1.17327(17) 0.62475(16) 0.78570(15)
C19 C 0.91265(17) 0.71236(16) 0.86200(15)
C20 C 1.20005(17) 0.40052(16) 0.98617(15)
C21 C 0.97026(17) 0.71536(16) 1.00463(15)
C22 C 1.18970(18) 0.26559(17) 0.77702(15)
C23 C 1.31531(18) 0.32961(17) 1.08766(16)
C24 C 1.33253(17) 0.34163(17) 1.01799(16)
C25 C 1.26141(17) 0.31072(17) 0.89627(15)
C26 C 1.26430(17) 0.35228(16) 0.96572(15)
C27 C 1.23189(19) 0.73332(17) 0.87631(16)
C28 C 1.10653(18) 0.5631(2) 0.63435(16)
C29 C 1.10003(18) 0.44138(18) 0.67416(16)
C30 C 0.9437(2) 0.78221(17) 0.98200(16)
C31 C 0.8798(2) 0.64284(18) 0.66285(16)
H1 H 0.9045 0.6100 0.6271
C32 C 0.9146(2) 0.78034(17) 0.91033(17)
C33 C 0.80776(19) 0.74311(17) 0.76921(17)
H2 H 0.7841 0.7776 0.8043
C34 C 1.11418(19) 0.24103(18) 0.74307(17)
H3 H 1.0657 0.2569 0.7647
C35 C 0.8071(2) 0.67730(19) 0.64684(17)
H4 H 0.7820 0.6662 0.6009
C36 C 1.3788(2) 0.31816(19) 1.13656(17)
C37 C 1.3042(2) 0.74738(19) 0.84104(18)
H5 H 1.3237 0.7097 0.8064
C38 C 0.7721(2) 0.72843(19) 0.69964(18)
H6 H 0.7244 0.7530 0.6885
C39 C 1.0824(2) 0.4066(2) 0.60366(18)
H7 H 1.0734 0.3540 0.5937
C40 C 1.0907(2) 0.5276(2) 0.56343(17)
H8 H 1.0886 0.5566 0.5261
C41 C 1.2606(2) 0.2399(2) 0.74256(17)
H9 H 1.3122 0.2564 0.7633
C42 C 1.2045(2) 0.79045(19) 0.92842(19)
C43 C 1.3469(2) 0.8170(2) 0.8574(2)
H10 H 1.3944 0.8258 0.8331
C44 C 1.1805(2) 0.1666(2) 0.64519(18)
H11 H 1.1772 0.1331 0.6019
C45 C 1.1099(2) 0.1931(2) 0.67733(19)
H12 H 1.0587 0.1787 0.6547
C46 C 1.0782(2) 0.4496(2) 0.54846(18)
H13 H 1.0670 0.4261 0.5012
C47 C 1.2555(2) 0.1901(2) 0.67751(18)
H14 H 1.3036 0.1726 0.6560
C48 C 1.3194(3) 0.8732(2) 0.9094(2)
H15 H 1.3482 0.9198 0.9203
C49 C 1.2487(3) 0.8596(2) 0.9450(2)
H16 H 1.2304 0.8970 0.9805
C50 C 0.9417(3) 0.8536(2) 1.0346(2)
C51 C 0.8549(4) 0.9572(3) 1.0933(4)
H17 H 0.8078 0.9860 1.0941
C52 C 0.8618(4) 0.8939(3) 1.0403(3)
H18 H 0.8172 0.8769 1.0088
C53 C 0.9898(5) 0.8674(3) 1.0951(3)
H19 H 1.0314 0.8339 1.1021
C54 C 0.9794(6) 0.9304(4) 1.1478(3)
H20 H 1.0173 0.9398 1.1868
C55 C 0.9181(5) 0.9770(6) 1.1447(4)
H21 H 0.9173 1.0226 1.1765
C56 C 1.4144(2) 0.3412(2) 0.99829(18)
C57 C 1.4774(2) 0.3295(3) 1.04733(19)
H22 H 1.5318 0.3292 1.0335
C58 C 1.4599(2) 0.3182(2) 1.11642(18)
H23 H 1.5023 0.3106 1.1491
H24 H 0.989(2) 0.7173(19) 1.0524(19)
H25 H 1.199(2) 0.4295(19) 1.0361(19)
H26 H 1.078(2) 0.3645(19) 0.8364(18)
H27 H 0.964(2) 0.630(2) 0.743(2)
H28 H 1.196(2) 0.646(2) 0.7498(19)
H29 H 1.052(2) 0.4821(19) 0.8094(18)
H30 H 1.258(2) 0.3293(19) 1.1050(18)
H31 H 0.9335(19) 0.5988(19) 0.8558(17)
H32 H 1.150(2) 0.649(2) 0.958(2)
H33 H 1.104(3) 0.411(2) 0.713(2)
H34 H 1.366(2) 0.309(2) 1.185(2)
H35 H 1.304(2) 0.277(2) 0.881(2)
H36 H 1.154(2) 0.784(2) 0.950(2)
H37 H 0.894(3) 0.825(2) 0.893(2)
H38 H 1.428(2) 0.351(2) 0.950(2)
H39 H 1.111(3) 0.619(3) 0.644(2)
C2A C 0.95119(16) 0.47228(15) 1.05156(13)
C3A C 0.93734(16) 0.54511(15) 1.03300(14)
C4A C 0.90194(16) 0.44085(15) 1.10658(14)
C5A C 0.91149(16) 0.47447(15) 1.17871(14)
C6A C 1.03328(16) 0.35341(15) 1.04264(14)
C7A C 0.86658(16) 0.59254(15) 1.06108(14)
C8A C 1.01349(16) 0.42789(15) 1.01851(14)
C9A C 0.86916(16) 0.63599(15) 1.12965(14)
C10A C 0.87397(16) 0.44251(16) 1.23326(14)
C11A C 1.06168(16) 0.35408(15) 1.11364(14)
C12A C 0.85358(16) 0.37432(16) 1.08889(15)
C13A C 0.81581(17) 0.34023(16) 1.14250(15)
C14A C 0.88839(16) 0.47960(17) 1.30927(15)
C15A C 1.08438(18) 0.34290(16) 1.26807(15)
C16A C 0.80559(17) 0.68487(16) 1.15171(15)
C17A C 1.12085(17) 0.29389(16) 1.21357(15)
C18A C 0.82673(17) 0.37525(16) 1.21430(15)
C19A C 1.08735(17) 0.28764(16) 1.13800(15)
C20A C 0.79995(17) 0.59948(16) 1.01383(15)
C21A C 1.02974(17) 0.28464(16) 0.99537(15)
C22A C 0.81030(18) 0.73441(17) 1.22298(15)
C23A C 0.68469(18) 0.67039(17) 0.91234(16)
C24A C 0.66747(17) 0.65837(17) 0.98201(16)
C25A C 0.73859(17) 0.68928(17) 1.10373(15)
C26A C 0.73570(17) 0.64772(16) 1.03428(15)
C27A C 0.76811(19) 0.26668(17) 1.12369(16)
C28A C 0.89347(18) 0.4369(2) 1.36565(16)
C29A C 0.89997(18) 0.55862(18) 1.32584(16)
C30A C 1.0563(2) 0.21779(17) 1.01800(16)
C31A C 1.1202(2) 0.35716(18) 1.33715(16)
H1A H 1.0955 0.3900 1.3729
C32A C 1.0854(2) 0.21966(17) 1.08967(17)
C33A C 1.19224(19) 0.25689(17) 1.23079(17)
H2A H 1.2159 0.2224 1.1957
C34A C 0.88582(19) 0.75897(18) 1.25693(17)
H3A H 0.9343 0.7431 1.2353
C35A C 1.1929(2) 0.32270(19) 1.35316(17)
H4A H 1.2180 0.3338 1.3991
C36A C 0.6212(2) 0.68184(19) 0.86344(17)
C37A C 0.6958(2) 0.25262(19) 1.15896(18)
H5A H 0.6763 0.2903 1.1936
C38A C 1.2279(2) 0.27157(19) 1.30036(18)
H6A H 1.2756 0.2470 1.3115
C39A C 0.9176(2) 0.5934(2) 1.39634(18)
H7A H 0.9266 0.6460 1.4063
C40A C 0.9093(2) 0.4724(2) 1.43657(17)
H8A H 0.9114 0.4434 1.4739
C41A C 0.7394(2) 0.7601(2) 1.25744(17)
H9A H 0.6878 0.7436 1.2367
C42A C 0.7955(2) 0.20955(19) 1.07158(19)
C43A C 0.6531(2) 0.1830(2) 1.1426(2)
H10A H 0.6056 0.1742 1.1669
C44A C 0.8195(2) 0.8334(2) 1.35481(18)
H11A H 0.8228 0.8669 1.3981
C45A C 0.8901(2) 0.8069(2) 1.32267(19)
H12A H 0.9413 0.8213 1.3453
C46A C 0.9218(2) 0.5504(2) 1.45154(18)
H13A H 0.9330 0.5739 1.4988
C47A C 0.7445(2) 0.8099(2) 1.32249(18)
H14A H 0.6964 0.8274 1.3440
C48A C 0.6806(3) 0.1268(2) 1.0906(2)
H15A H 0.6518 0.0802 1.0797
C49A C 0.7513(3) 0.1404(2) 1.0550(2)
H16A H 0.7696 0.1030 1.0195
C50A C 1.0583(3) 0.1464(2) 0.9654(2)
C51A C 1.1451(4) 0.0428(3) 0.9067(4)
H17A H 1.1922 0.0140 0.9059
C52A C 1.1382(4) 0.1061(3) 0.9597(3)
H18A H 1.1828 0.1231 0.9912
C53A C 1.0102(5) 0.1326(3) 0.9049(3)
H19A H 0.9686 0.1661 0.8979
C54A C 1.0206(6) 0.0696(4) 0.8522(3)
H20A H 0.9827 0.0602 0.8132
C55A C 1.0819(5) 0.0230(6) 0.8553(4)
H21A H 1.0827 -0.0226 0.8235
C56A C 0.5856(2) 0.6588(2) 1.00171(18)
C57A C 0.5226(2) 0.6705(3) 0.95267(19)
H22A H 0.4682 0.6708 0.9665
C58A C 0.5401(2) 0.6818(2) 0.88358(18)
H23A H 0.4977 0.6894 0.8509
H24A H 1.011(2) 0.2827(19) 0.9476(19)
H25A H 0.801(2) 0.5705(19) 0.9639(19)
H26A H 0.922(2) 0.6355(19) 1.1636(18)
H27A H 1.036(2) 0.370(2) 1.257(2)
H28A H 0.804(2) 0.354(2) 1.2502(19)
H29A H 0.948(2) 0.5179(19) 1.1906(18)
H30A H 0.742(2) 0.6707(19) 0.8950(18)
H31A H 1.0665(19) 0.4012(19) 1.1442(17)
H32A H 0.850(2) 0.351(2) 1.042(2)
H33A H 0.896(3) 0.589(2) 1.287(2)
H34A H 0.634(2) 0.691(2) 0.815(2)
H35A H 0.696(2) 0.723(2) 1.119(2)
H36A H 0.846(2) 0.216(2) 1.050(2)
H37A H 1.106(3) 0.175(2) 1.107(2)
H38A H 0.572(2) 0.649(2) 1.050(2)
H39A H 0.889(3) 0.381(3) 1.356(2)
C59 C 0.48523(16) 0.04334(15) 0.44528(14)
C60 C 0.47001(16) 0.09013(15) 0.38632(14)
C61 C 0.42574(16) 0.03828(15) 0.49703(14)
C62 C 0.61886(17) 0.00960(15) 0.38859(15)
C63 C 0.35208(16) 0.08596(15) 0.49291(14)
C64 C 0.56239(17) 0.26742(16) 0.32913(14)
C65 C 0.32236(17) 0.29690(16) 0.50283(15)
C66 C 0.39812(17) 0.11063(16) 0.27537(15)
C67 C 0.51947(16) 0.15498(16) 0.38370(15)
C68 C 0.44894(17) 0.17484(16) 0.27329(15)
C69 C 0.56019(16) 0.00547(15) 0.44787(14)
C70 C 0.40878(17) 0.06914(15) 0.33265(15)
C71 C 0.30312(17) 0.21340(15) 0.49164(15)
C72 C 0.50957(17) 0.19805(16) 0.32796(15)
C73 C 0.36522(17) 0.16466(16) 0.50555(14)
C74 C 0.59543(18) -0.02598(16) 0.31891(16)
C75 C 0.69072(17) 0.05517(16) 0.39833(16)
C76 C 0.27505(17) 0.05575(16) 0.46707(15)
C77 C 0.73906(18) 0.06614(16) 0.34059(16)
C78 C 0.21168(17) 0.10339(16) 0.45158(15)
C79 C 0.33336(18) 0.08486(16) 0.21791(16)
C80 C 0.25634(19) 0.05891(17) 0.23625(17)
C81 C 0.22604(17) 0.18240(16) 0.46482(15)
C82 C 0.64417(18) 0.26933(18) 0.35572(16)
C83 C 0.64357(19) -0.01792(16) 0.26016(16)
C84 C 0.39215(18) 0.32461(17) 0.47220(16)
H40 H 0.4264 0.2908 0.4456
C85 C 0.13242(17) 0.06818(17) 0.41784(16)
C86 C 0.53186(19) 0.33318(17) 0.30586(16)
C87 C 0.71558(19) 0.02734(17) 0.27170(17)
C88 C 0.27192(19) 0.34802(17) 0.54279(17)
C89 C 0.81007(18) 0.12235(17) 0.35047(18)
C90 C 0.41060(19) 0.40270(17) 0.48140(17)
C91 C 0.09653(19) 0.00563(18) 0.44236(17)
C92 C 0.3603(2) 0.45307(17) 0.52112(17)
H41 H 0.3729 0.5051 0.5275
C93 C 0.09517(19) 0.09488(18) 0.35830(18)
H42 H 0.1178 0.1373 0.3417
C94 C 0.6941(2) 0.3338(2) 0.35899(17)
C95 C 0.85360(19) 0.14067(19) 0.41679(19)
C96 C 0.2907(2) 0.42580(18) 0.55162(18)
H43 H 0.2565 0.4598 0.5780
C97 C 0.8333(2) 0.16043(19) 0.2939(2)
C98 C 0.3484(2) 0.0844(2) 0.14523(18)
C99 C 0.6638(2) 0.39793(18) 0.33471(18)
C100 C 0.1956(2) 0.03302(19) 0.18298(19)
C101 C 0.5828(2) 0.39755(18) 0.30787(18)
C102 C 0.2116(2) 0.0324(2) 0.11106(19)
H44 H 0.1712 0.0149 0.0755
C103 C 0.0253(2) -0.0301(2) 0.4087(2)
H45 H 0.0014 -0.0714 0.4263
C104 C 0.8990(2) 0.2139(2) 0.3037(2)
H46 H 0.9141 0.2385 0.2656
C105 C 0.9189(2) 0.1943(2) 0.4262(2)
H47 H 0.9471 0.2058 0.4707
C106 C 0.0247(2) 0.0582(2) 0.3241(2)
C107 C -0.0104(2) -0.0046(2) 0.3490(2)
H48 H -0.0575 -0.0292 0.3258
C108 C 0.2876(2) 0.0577(2) 0.09218(19)
C109 C 0.9416(2) 0.2304(2) 0.3697(2)
H49 H 0.9855 0.2659 0.3759
C110 C 0.6147(2) -0.05371(18) 0.18606(17)
C111 C 0.5354(2) -0.0411(2) 0.16017(18)
C112 C 0.6655(3) -0.0997(2) 0.1410(2)
C113 C 0.6360(3) -0.1328(2) 0.0717(2)
H50 H 0.6700 -0.1638 0.0419
C114 C 0.5573(3) -0.1198(2) 0.0473(2)
H51 H 0.5380 -0.1425 0.0015
C115 C 0.5073(3) -0.0733(2) 0.0907(2)
H52 H 0.4547 -0.0633 0.0738
H53 H 0.267(2) 0.002(2) 0.456(2)
H54 H 0.378(2) 0.0250(19) 0.3351(17)
H55 H 0.708(2) 0.081(2) 0.444(2)
H56 H 0.440(2) 0.2055(19) 0.2314(18)
H57 H 0.476(2) 0.333(2) 0.2885(19)
H58 H 0.247(2) 0.059(2) 0.289(2)
H59 H 0.559(2) 0.1720(19) 0.4200(18)
H60 H 0.139(3) 0.016(3) 0.202(2)
H61 H 0.421(2) 0.186(2) 0.5223(19)
H62 H 0.544(2) -0.056(2) 0.311(2)
H63 H 0.461(2) 0.421(2) 0.460(2)
H64 H 0.844(2) 0.111(2) 0.459(2)
H65 H 0.719(2) -0.104(2) 0.1571(19)
H66 H 0.227(2) 0.328(2) 0.5676(18)
H67 H 0.125(2) -0.014(2) 0.485(2)
H68 H 0.744(2) 0.034(2) 0.229(2)
H69 H 0.178(2) 0.2133(19) 0.4543(18)
H70 H 0.400(3) 0.102(2) 0.130(2)
H71 H 0.303(3) 0.052(3) 0.042(3)
H72 H 0.802(3) 0.153(2) 0.250(2)
H73 H 0.698(3) 0.442(2) 0.337(2)
H74 H 0.000(2) 0.079(2) 0.283(2)
H75 H 0.495(3) -0.004(3) 0.193(2)
H76 H 0.668(3) 0.224(3) 0.366(2)
H77 H 0.558(3) 0.441(3) 0.291(2)
H78 H 0.752(3) 0.332(2) 0.381(2)
C59A C 0.51477(16) -0.04334(15) 0.55472(14)
C60A C 0.52999(16) -0.09013(15) 0.61368(14)
C61A C 0.57426(16) -0.03828(15) 0.50297(14)
C62A C 0.38114(17) -0.00960(15) 0.61141(15)
C63A C 0.64792(16) -0.08596(15) 0.50709(14)
C64A C 0.43761(17) -0.26742(16) 0.67087(14)
C65A C 0.67764(17) -0.29690(16) 0.49717(15)
C66A C 0.60188(17) -0.11063(16) 0.72463(15)
C67A C 0.48053(16) -0.15498(16) 0.61630(15)
C68A C 0.55106(17) -0.17484(16) 0.72671(15)
C69A C 0.43981(16) -0.00547(15) 0.55213(14)
C70A C 0.59122(17) -0.06914(15) 0.66735(15)
C71A C 0.69688(17) -0.21340(15) 0.50836(15)
C72A C 0.49043(17) -0.19805(16) 0.67204(15)
C73A C 0.63478(17) -0.16466(16) 0.49445(14)
C74A C 0.40457(18) 0.02598(16) 0.68109(16)
C75A C 0.30928(17) -0.05517(16) 0.60167(16)
C76A C 0.72495(17) -0.05575(16) 0.53293(15)
C77A C 0.26094(18) -0.06614(16) 0.65941(16)
C78A C 0.78832(17) -0.10339(16) 0.54842(15)
C79A C 0.66664(18) -0.08486(16) 0.78209(16)
C80A C 0.74366(19) -0.05891(17) 0.76375(17)
C81A C 0.77396(17) -0.18240(16) 0.53518(15)
C82A C 0.35583(18) -0.26933(18) 0.64428(16)
C83A C 0.35643(19) 0.01792(16) 0.73984(16)
C84A C 0.60785(18) -0.32461(17) 0.52780(16)
H40A H 0.5736 -0.2908 0.5544
C85A C 0.86758(17) -0.06818(17) 0.58216(16)
C86A C 0.46814(19) -0.33318(17) 0.69414(16)
C87A C 0.28442(19) -0.02734(17) 0.72830(17)
C88A C 0.72808(19) -0.34802(17) 0.45721(17)
C89A C 0.18993(18) -0.12235(17) 0.64953(18)
C90A C 0.58940(19) -0.40270(17) 0.51860(17)
C91A C 0.90347(19) -0.00563(18) 0.55764(17)
C92A C 0.6397(2) -0.45307(17) 0.47888(17)
H41A H 0.6271 -0.5051 0.4725
C93A C 0.90483(19) -0.09488(18) 0.64170(18)
H42A H 0.8822 -0.1373 0.6583
C94A C 0.3059(2) -0.3338(2) 0.64101(17)
C95A C 0.14640(19) -0.14067(19) 0.58321(19)
C96A C 0.7093(2) -0.42580(18) 0.44838(18)
H43A H 0.7435 -0.4598 0.4220
C97A C 0.1667(2) -0.16043(19) 0.7061(2)
C98A C 0.6516(2) -0.0844(2) 0.85477(18)
C99A C 0.3362(2) -0.39793(18) 0.66529(18)
C100A C 0.8044(2) -0.03302(19) 0.81702(19)
C101A C 0.4172(2) -0.39755(18) 0.69213(18)
C102A C 0.7884(2) -0.0324(2) 0.88894(19)
H44A H 0.8288 -0.0149 0.9245
C103A C 0.9747(2) 0.0301(2) 0.5913(2)
H45A H 0.9986 0.0714 0.5737
C104A C 0.1010(2) -0.2139(2) 0.6963(2)
H46A H 0.0859 -0.2385 0.7344
C105A C 0.0811(2) -0.1943(2) 0.5738(2)
H47A H 0.0529 -0.2058 0.5293
C106A C 0.9753(2) -0.0582(2) 0.6759(2)
C107A C 1.0104(2) 0.0046(2) 0.6510(2)
H48A H 1.0575 0.0292 0.6742
C108A C 0.7124(2) -0.0577(2) 0.90782(19)
C109A C 0.0584(2) -0.2304(2) 0.6303(2)
H49A H 0.0145 -0.2659 0.6241
C110A C 0.3853(2) 0.05371(18) 0.81394(17)
C111A C 0.4646(2) 0.0411(2) 0.83983(18)
C112A C 0.3345(3) 0.0997(2) 0.8590(2)
C113A C 0.3640(3) 0.1328(2) 0.9283(2)
H50A H 0.3300 0.1638 0.9581
C114A C 0.4427(3) 0.1198(2) 0.9527(2)
H51A H 0.4620 0.1425 0.9985
C115A C 0.4927(3) 0.0733(2) 0.9093(2)
H52A H 0.5453 0.0633 0.9262
H53A H 0.733(2) -0.002(2) 0.544(2)
H54A H 0.622(2) -0.0250(19) 0.6649(17)
H55A H 0.292(2) -0.081(2) 0.556(2)
H56A H 0.560(2) -0.2055(19) 0.7686(18)
H57A H 0.524(2) -0.333(2) 0.7115(19)
H58A H 0.753(2) -0.059(2) 0.711(2)
H59A H 0.441(2) -0.1720(19) 0.5800(18)
H60A H 0.861(3) -0.016(3) 0.798(2)
H61A H 0.579(2) -0.186(2) 0.4777(19)
H62A H 0.456(2) 0.056(2) 0.689(2)
H63A H 0.539(2) -0.421(2) 0.540(2)
H64A H 0.156(2) -0.111(2) 0.541(2)
H65A H 0.281(2) 0.104(2) 0.8429(19)
H66A H 0.773(2) -0.328(2) 0.4324(18)
H67A H 0.875(2) 0.014(2) 0.515(2)
H68A H 0.256(2) -0.034(2) 0.771(2)
H69A H 0.822(2) -0.2133(19) 0.5457(18)
H70A H 0.600(3) -0.102(2) 0.870(2)
H71A H 0.697(3) -0.052(3) 0.958(3)
H72A H 0.198(3) -0.153(2) 0.750(2)
H73A H 0.302(3) -0.442(2) 0.663(2)
H74A H 1.000(2) -0.079(2) 0.717(2)
H75A H 0.505(3) 0.004(3) 0.807(2)
H76A H 0.332(3) -0.224(3) 0.634(2)
H77A H 0.442(3) -0.441(3) 0.709(2)
H78A H 0.248(3) -0.332(2) 0.619(2)
C116 C 0.89978(18) 0.3113(2) 0.81744(19)
C117 C 0.7309(2) 0.47383(18) 0.63611(19)
C118 C 0.7981(2) 0.2683(2) 0.88979(17)
C119 C 0.8158(2) 0.4055(2) 0.88785(18)
C120 C 0.7521(2) 0.4137(2) 0.58503(18)
C121 C 0.8578(2) 0.4548(2) 0.7075(2)
C122 C 0.6874(3) 0.3591(2) 0.55273(17)
C123 C 0.8817(2) 0.2321(2) 0.79035(19)
C124 C 0.7172(2) 0.2781(2) 0.91061(17)
C125 C 0.8484(2) 0.3335(2) 0.87813(18)
C126 C 0.7316(2) 0.4155(2) 0.90998(17)
C127 C 0.8329(2) 0.4578(2) 0.83694(19)
C128 C 0.6834(2) 0.3532(2) 0.92085(17)
C129 C 0.6475(2) 0.48331(19) 0.6577(2)
C130 C 0.6073(2) 0.3684(2) 0.57321(18)
C131 C 0.7221(3) 0.2837(2) 0.54226(17)
C132 C 0.6958(2) 0.47371(19) 0.87243(18)
C133 C 0.91281(19) 0.3318(2) 0.6906(2)
C134 C 0.6528(2) 0.2233(2) 0.87794(19)
C135 C 0.91524(19) 0.3614(2) 0.7682(2)
C136 C 0.52320(19) 0.4048(2) 0.6724(2)
C137 C 0.6731(2) 0.2217(2) 0.55289(17)
C138 C 0.5052(2) 0.3253(2) 0.6455(2)
C139 C 0.8070(2) 0.2903(2) 0.56812(18)
C140 C 0.8813(2) 0.4365(2) 0.7785(2)
C141 C 0.5561(2) 0.3033(2) 0.58485(19)
C142 C 0.8179(2) 0.2047(2) 0.8357(2)
C143 C 0.5865(2) 0.4318(2) 0.6273(2)
C144 C 0.7581(2) 0.50005(18) 0.82756(19)
C145 C 0.7857(2) 0.49563(19) 0.6997(2)
C146 C 0.5907(2) 0.4856(2) 0.7769(2)
C147 C 0.5982(2) 0.3470(2) 0.89505(19)
C148 C 0.6500(2) 0.51100(18) 0.7352(2)
C149 C 0.7354(2) 0.51820(18) 0.7601(2)
C150 C 0.5467(2) 0.1829(2) 0.7560(2)
C151 C 0.6140(2) 0.4669(2) 0.8483(2)
C152 C 0.6736(2) 0.1628(2) 0.8267(2)
C153 C 0.5710(2) 0.1792(2) 0.6256(2)
C154 C 0.5891(2) 0.2312(2) 0.57485(19)
C155 C 0.7544(3) 0.12615(19) 0.7272(2)
C156 C 0.8790(2) 0.2049(2) 0.7169(2)
C157 C 0.7573(2) 0.1538(2) 0.8050(2)
C158 C 0.7908(3) 0.1705(2) 0.6141(2)
C159 C 0.8769(2) 0.3919(2) 0.6541(2)
C160 C 0.5649(2) 0.4025(2) 0.8598(2)
C161 C 0.6182(3) 0.1417(2) 0.7629(2)
C162 C 0.8400(3) 0.2344(2) 0.6032(2)
C163 C 0.8952(2) 0.2568(2) 0.6671(2)
C164 C 0.7092(3) 0.16317(19) 0.58982(19)
C165 C 0.8258(2) 0.3712(2) 0.5941(2)
C166 C 0.4889(2) 0.2757(2) 0.6946(2)
C167 C 0.5794(2) 0.2660(2) 0.8691(2)
C168 C 0.5272(2) 0.2457(2) 0.8092(2)
C169 C 0.5263(2) 0.4320(2) 0.7457(2)
C170 C 0.6458(3) 0.1368(2) 0.6350(2)
C171 C 0.49185(19) 0.3052(2) 0.7726(2)
C172 C 0.5099(2) 0.3802(2) 0.7961(2)
C173 C 0.8141(3) 0.1509(2) 0.6859(2)
C174 C 0.5230(2) 0.2011(2) 0.6846(2)
C175 C 0.6686(3) 0.11928(19) 0.7026(2)
C176? C 0.9553(7) 0.9992(5) 1.1201(5)
C177? C 0.9265(4) 0.8608(4) 1.0993(4)
H79? H 0.9171 0.8164 1.1188
C178? C 0.9222(6) 0.9295(6) 1.1456(5)
C179? C 0.9786(4) 0.9267(3) 1.0055(4)
C180? C 0.9765(5) 0.9958(4) 1.0528(4)
loop_
_geom_bond_atom_site_label_1
_geom_bond_atom_site_label_2
_geom_bond_site_symmetry_1
_geom_bond_site_symmetry_2
S1 C1 1_555 1_555
S2 C1 1_555 1_555
C2 C3 1_555 1_555
C3 C7 1_555 1_555
C4 C2 1_555 1_555
C5 C4 1_555 1_555
C6 C8 1_555 1_555
C7 C9 1_555 1_555
C8 C2 1_555 1_555
C9 C16 1_555 1_555
C10 C5 1_555 1_555
C11 C6 1_555 1_555
C12 C4 1_555 1_555
C13 C12 1_555 1_555
C14 C10 1_555 1_555
C15 C17 1_555 1_555
C16 C22 1_555 1_555
C17 C19 1_555 1_555
C18 C10 1_555 1_555
C19 C11 1_555 1_555
C20 C7 1_555 1_555
C21 C6 1_555 1_555
C22 C34 1_555 1_555
C23 C24 1_555 1_555
C24 C26 1_555 1_555
C25 C16 1_555 1_555
C26 C20 1_555 1_555
C27 C13 1_555 1_555
C28 C14 1_555 1_555
C29 C14 1_555 1_555
C30 C21 1_555 1_555
C31 C15 1_555 1_555
H1 C31 1_555 1_555
C32 C19 1_555 1_555
C33 C17 1_555 1_555
H2 C33 1_555 1_555
C34 H3 1_555 1_555
C35 C31 1_555 1_555
H4 C35 1_555 1_555
C36 C23 1_555 1_555
C37 C27 1_555 1_555
H5 C37 1_555 1_555
C38 C33 1_555 1_555
H6 C38 1_555 1_555
C39 C29 1_555 1_555
H7 C39 1_555 1_555
C40 C28 1_555 1_555
H8 C40 1_555 1_555
C41 C22 1_555 1_555
H9 C41 1_555 1_555
C42 C27 1_555 1_555
C43 C37 1_555 1_555
H10 C43 1_555 1_555
C44 H11 1_555 1_555
C45 C34 1_555 1_555
H12 C45 1_555 1_555
C46 C39 1_555 1_555
H13 C46 1_555 1_555
C47 C41 1_555 1_555
H14 C47 1_555 1_555
C48 C43 1_555 1_555
H15 C48 1_555 1_555
C49 C42 1_555 1_555
H16 C49 1_555 1_555
C50 C30 1_555 1_555
C51 H17 1_555 1_555
C52 C50 1_555 1_555
H18 C52 1_555 1_555
C53 C50 1_555 1_555
H19 C53 1_555 1_555
C54 C53 1_555 1_555
H20 C54 1_555 1_555
C55 C51 1_555 1_555
H21 C55 1_555 1_555
C56 C24 1_555 1_555
C57 C56 1_555 1_555
H22 C57 1_555 1_555
C58 C36 1_555 1_555
H23 C58 1_555 1_555
H24 C21 1_555 1_555
H25 C20 1_555 1_555
H26 C9 1_555 1_555
H27 C15 1_555 1_555
H28 C18 1_555 1_555
H29 C5 1_555 1_555
H30 C23 1_555 1_555
H31 C11 1_555 1_555
H32 C12 1_555 1_555
H33 C29 1_555 1_555
H34 C36 1_555 1_555
H35 C25 1_555 1_555
H36 C42 1_555 1_555
H37 C32 1_555 1_555
H38 C56 1_555 1_555
H39 C28 1_555 1_555
C59 C60 1_555 1_555
C60 C67 1_555 1_555
C61 C59 1_555 1_555
C62 C69 1_555 1_555
C63 C61 1_555 1_555
C64 C72 1_555 1_555
C65 C71 1_555 1_555
C66 C68 1_555 1_555
C67 C72 1_555 1_555
C68 C72 1_555 1_555
C69 C59 1_555 1_555
C70 C60 1_555 1_555
C71 C73 1_555 1_555
C73 C63 1_555 1_555
C74 C62 1_555 1_555
C75 C62 1_555 1_555
C76 C63 1_555 1_555
C77 C75 1_555 1_555
C78 C76 1_555 1_555
C79 C66 1_555 1_555
C80 C79 1_555 1_555
C81 C71 1_555 1_555
C82 C64 1_555 1_555
C83 C74 1_555 1_555
C84 C65 1_555 1_555
H40 C84 1_555 1_555
C85 C78 1_555 1_555
C86 C64 1_555 1_555
C87 C77 1_555 1_555
C88 C65 1_555 1_555
C89 C77 1_555 1_555
C90 C84 1_555 1_555
C91 C85 1_555 1_555
C92 C90 1_555 1_555
H41 C92 1_555 1_555
C93 C85 1_555 1_555
H42 C93 1_555 1_555
C94 C82 1_555 1_555
C95 C89 1_555 1_555
C96 C88 1_555 1_555
H43 C96 1_555 1_555
C97 C89 1_555 1_555
C98 C79 1_555 1_555
C99 C94 1_555 1_555
C100 C80 1_555 1_555
C101 C86 1_555 1_555
C102 C100 1_555 1_555
H44 C102 1_555 1_555
C103 C91 1_555 1_555
H45 C103 1_555 1_555
C104 C97 1_555 1_555
H46 C104 1_555 1_555
C105 C95 1_555 1_555
H47 C105 1_555 1_555
C106 C93 1_555 1_555
C107 C103 1_555 1_555
H48 C107 1_555 1_555
C108 C98 1_555 1_555
C109 C104 1_555 1_555
H49 C109 1_555 1_555
C110 C83 1_555 1_555
C111 C110 1_555 1_555
C112 C110 1_555 1_555
C113 C112 1_555 1_555
H50 C113 1_555 1_555
C114 C113 1_555 1_555
H51 C114 1_555 1_555
C115 C111 1_555 1_555
H52 C115 1_555 1_555
H53 C76 1_555 1_555
H54 C70 1_555 1_555
H55 C75 1_555 1_555
H56 C68 1_555 1_555
H57 C86 1_555 1_555
H58 C80 1_555 1_555
H59 C67 1_555 1_555
H60 C100 1_555 1_555
H61 C73 1_555 1_555
H62 C74 1_555 1_555
H63 C90 1_555 1_555
H64 C95 1_555 1_555
H65 C112 1_555 1_555
H66 C88 1_555 1_555
H67 C91 1_555 1_555
H68 C87 1_555 1_555
H69 C81 1_555 1_555
H70 C98 1_555 1_555
H71 C108 1_555 1_555
H72 C97 1_555 1_555
H73 C99 1_555 1_555
H74 C106 1_555 1_555
H75 C111 1_555 1_555
H76 C82 1_555 1_555
H77 C101 1_555 1_555
H78 C94 1_555 1_555
C116 C123 1_555 1_555
C117 C120 1_555 1_555
C118 C124 1_555 1_555
C119 C125 1_555 1_555
C120 C122 1_555 1_555
C121 C140 1_555 1_555
C122 C130 1_555 1_555
C123 C142 1_555 1_555
C124 C128 1_555 1_555
C125 C116 1_555 1_555
C126 C119 1_555 1_555
C127 C119 1_555 1_555
C128 C126 1_555 1_555
C129 C117 1_555 1_555
C130 C141 1_555 1_555
C131 C122 1_555 1_555
C132 C126 1_555 1_555
C133 C135 1_555 1_555
C134 C124 1_555 1_555
C135 C116 1_555 1_555
C136 C138 1_555 1_555
C137 C131 1_555 1_555
C138 C141 1_555 1_555
C139 C131 1_555 1_555
C140 C127 1_555 1_555
C141 C154 1_555 1_555
C142 C118 1_555 1_555
C143 C129 1_555 1_555
C144 C127 1_555 1_555
C145 C117 1_555 1_555
C146 C148 1_555 1_555
C147 C128 1_555 1_555
C148 C129 1_555 1_555
C149 C144 1_555 1_555
C150 C161 1_555 1_555
C151 C132 1_555 1_555
C152 C134 1_555 1_555
C153 C154 1_555 1_555
C154 C137 1_555 1_555
C155 C157 1_555 1_555
C156 C123 1_555 1_555
C157 C142 1_555 1_555
C158 C162 1_555 1_555
C159 C121 1_555 1_555
C160 C147 1_555 1_555
C161 C152 1_555 1_555
C162 C139 1_555 1_555
C163 C133 1_555 1_555
C164 C137 1_555 1_555
C165 C120 1_555 1_555
C166 C138 1_555 1_555
C167 C134 1_555 1_555
C168 C150 1_555 1_555
C169 C136 1_555 1_555
C170 C153 1_555 1_555
C171 C166 1_555 1_555
C172 C160 1_555 1_555
C173 C155 1_555 1_555
C174 C150 1_555 1_555
C175 C155 1_555 1_555
C2A C3A 1_555 1_555
C3A C8 1_555 1_555
C4A C2A 1_555 1_555
C5A C4A 1_555 1_555
C6A C8A 1_555 1_555
C7A C3A 1_555 1_555
C8A C3 1_555 1_555
C9A C7A 1_555 1_555
C10A C5A 1_555 1_555
C11A C6A 1_555 1_555
C12A C4A 1_555 1_555
C13A C12A 1_555 1_555
C14A C10A 1_555 1_555
C15A C17A 1_555 1_555
C16A C9A 1_555 1_555
C17A C19A 1_555 1_555
C18A C10A 1_555 1_555
C19A C11A 1_555 1_555
C20A C7A 1_555 1_555
C21A C6A 1_555 1_555
C22A C16A 1_555 1_555
C23A C24A 1_555 1_555
C24A C26A 1_555 1_555
C25A C16A 1_555 1_555
C26A C20A 1_555 1_555
C27A C13A 1_555 1_555
C28A C14A 1_555 1_555
C29A C14A 1_555 1_555
C30A C21A 1_555 1_555
C31A C15A 1_555 1_555
H1A C31A 1_555 1_555
C32A C19A 1_555 1_555
C33A C17A 1_555 1_555
H2A C33A 1_555 1_555
C34A C22A 1_555 1_555
H3A C34A 1_555 1_555
C35A C31A 1_555 1_555
H4A C35A 1_555 1_555
C36A C23A 1_555 1_555
C37A C27A 1_555 1_555
H5A C37A 1_555 1_555
C38A C33A 1_555 1_555
H6A C38A 1_555 1_555
C39A C29A 1_555 1_555
H7A C39A 1_555 1_555
C40A C28A 1_555 1_555
H8A C40A 1_555 1_555
C41A C22A 1_555 1_555
H9A C41A 1_555 1_555
C42A C27A 1_555 1_555
C43A C37A 1_555 1_555
H10A C43A 1_555 1_555
C44A H11A 1_555 1_555
C45A C34A 1_555 1_555
H12A C45A 1_555 1_555
C46A C39A 1_555 1_555
H13A C46A 1_555 1_555
C47A C41A 1_555 1_555
H14A C47A 1_555 1_555
C48A C43A 1_555 1_555
H15A C48A 1_555 1_555
C49A C42A 1_555 1_555
H16A C49A 1_555 1_555
C50A C30A 1_555 1_555
C51A H17A 1_555 1_555
C52A C50A 1_555 1_555
H18A C52A 1_555 1_555
C53A C50A 1_555 1_555
H19A C53A 1_555 1_555
C54A C53A 1_555 1_555
H20A C54A 1_555 1_555
C55A C51A 1_555 1_555
H21A C55A 1_555 1_555
C56A C24A 1_555 1_555
C57A C56A 1_555 1_555
H22A C57A 1_555 1_555
C58A C36A 1_555 1_555
H23A C58A 1_555 1_555
H24A C21A 1_555 1_555
H25A C20A 1_555 1_555
H26A C9A 1_555 1_555
H27A C15A 1_555 1_555
H28A C18A 1_555 1_555
H29A C5A 1_555 1_555
H30A C23A 1_555 1_555
H31A C11A 1_555 1_555
H32A C12A 1_555 1_555
H33A C29A 1_555 1_555
H34A C36A 1_555 1_555
H35A C25A 1_555 1_555
H36A C42A 1_555 1_555
H37A C32A 1_555 1_555
H38A C56A 1_555 1_555
H39A C28A 1_555 1_555
C59A C60A 1_555 1_555
C60A C67A 1_555 1_555
C61A C69 1_555 1_555
C62A C69A 1_555 1_555
C63A C61A 1_555 1_555
C64A C72A 1_555 1_555
C65A C71A 1_555 1_555
C66A C68A 1_555 1_555
C67A C72A 1_555 1_555
C68A C72A 1_555 1_555
C69A C61 1_555 1_555
C70A C60A 1_555 1_555
C71A C73A 1_555 1_555
C73A C63A 1_555 1_555
C74A C62A 1_555 1_555
C75A C62A 1_555 1_555
C76A C63A 1_555 1_555
C77A C75A 1_555 1_555
C78A C76A 1_555 1_555
C79A C66A 1_555 1_555
C80A C79A 1_555 1_555
C81A C71A 1_555 1_555
C82A C64A 1_555 1_555
C83A C74A 1_555 1_555
C84A C65A 1_555 1_555
H40A C84A 1_555 1_555
C85A C78A 1_555 1_555
C86A C64A 1_555 1_555
C87A C77A 1_555 1_555
C88A C65A 1_555 1_555
C89A C77A 1_555 1_555
C90A C84A 1_555 1_555
C91A C85A 1_555 1_555
C92A C90A 1_555 1_555
H41A C92A 1_555 1_555
C93A C85A 1_555 1_555
H42A C93A 1_555 1_555
C94A C82A 1_555 1_555
C95A C89A 1_555 1_555
C96A C88A 1_555 1_555
H43A C96A 1_555 1_555
C97A C89A 1_555 1_555
C98A C79A 1_555 1_555
C99A C94A 1_555 1_555
C100A C80A 1_555 1_555
C101A C86A 1_555 1_555
C102A C100A 1_555 1_555
H44A C102A 1_555 1_555
C103A C91A 1_555 1_555
H45A C103A 1_555 1_555
C104A C97A 1_555 1_555
H46A C104A 1_555 1_555
C105A C95A 1_555 1_555
H47A C105A 1_555 1_555
C106A C93A 1_555 1_555
C107A C103A 1_555 1_555
H48A C107A 1_555 1_555
C108A C98A 1_555 1_555
C109A C104A 1_555 1_555
H49A C109A 1_555 1_555
C110A C83A 1_555 1_555
C111A C110A 1_555 1_555
C112A C110A 1_555 1_555
C113A C112A 1_555 1_555
H50A C113A 1_555 1_555
C114A C113A 1_555 1_555
H51A C114A 1_555 1_555
C115A C111A 1_555 1_555
H52A C115A 1_555 1_555
H53A C76A 1_555 1_555
H54A C70A 1_555 1_555
H55A C75A 1_555 1_555
H56A C68A 1_555 1_555
H57A C86A 1_555 1_555
H58A C80A 1_555 1_555
H59A C67A 1_555 1_555
H60A C100A 1_555 1_555
H61A C73A 1_555 1_555
H62A C74A 1_555 1_555
H63A C90A 1_555 1_555
H64A C95A 1_555 1_555
H65A C112A 1_555 1_555
H66A C88A 1_555 1_555
H67A C91A 1_555 1_555
H68A C87A 1_555 1_555
H69A C81A 1_555 1_555
H70A C98A 1_555 1_555
H71A C108A 1_555 1_555
H72A C97A 1_555 1_555
H73A C99A 1_555 1_555
H74A C106A 1_555 1_555
H75A C111A 1_555 1_555
H76A C82A 1_555 1_555
H77A C101A 1_555 1_555
H78A C94A 1_555 1_555
C13 C18 1_555 1_555
C25 C26 1_555 1_555
C30 C32 1_555 1_555
C35 C38 1_555 1_555
C40 C46 1_555 1_555
C44 C45 1_555 1_555
C44 C47 1_555 1_555
C48 C49 1_555 1_555
C51 C52 1_555 1_555
C54 C55 1_555 1_555
C57 C58 1_555 1_555
C66 C70 1_555 1_555
C78 C81 1_555 1_555
C83 C87 1_555 1_555
C92 C96 1_555 1_555
C99 C101 1_555 1_555
C102 C108 1_555 1_555
C105 C109 1_555 1_555
C106 C107 1_555 1_555
C114 C115 1_555 1_555
C118 C125 1_555 1_555
C121 C145 1_555 1_555
C130 C143 1_555 1_555
C132 C144 1_555 1_555
C133 C159 1_555 1_555
C135 C140 1_555 1_555
C136 C143 1_555 1_555
C139 C165 1_555 1_555
C145 C149 1_555 1_555
C146 C151 1_555 1_555
C146 C169 1_555 1_555
C147 C167 1_555 1_555
C148 C149 1_555 1_555
C151 C160 1_555 1_555
C152 C157 1_555 1_555
C153 C174 1_555 1_555
C156 C163 1_555 1_555
C156 C173 1_555 1_555
C158 C164 1_555 1_555
C158 C173 1_555 1_555
C159 C165 1_555 1_555
C161 C175 1_555 1_555
C162 C163 1_555 1_555
C164 C170 1_555 1_555
C166 C174 1_555 1_555
C167 C168 1_555 1_555
C168 C171 1_555 1_555
C169 C172 1_555 1_555
C170 C175 1_555 1_555
C171 C172 1_555 1_555
C2A C8A 1_555 1_555
C13A C18A 1_555 1_555
C25A C26A 1_555 1_555
C30A C32A 1_555 1_555
C35A C38A 1_555 1_555
C40A C46A 1_555 1_555
C44A C45A 1_555 1_555
C44A C47A 1_555 1_555
C48A C49A 1_555 1_555
C51A C52A 1_555 1_555
C54A C55A 1_555 1_555
C57A C58A 1_555 1_555
C59A C61A 1_555 1_555
C59A C69A 1_555 1_555
C66A C70A 1_555 1_555
C78A C81A 1_555 1_555
C83A C87A 1_555 1_555
C92A C96A 1_555 1_555
C99A C101A 1_555 1_555
C102A C108A 1_555 1_555
C105A C109A 1_555 1_555
C106A C107A 1_555 1_555
C114A C115A 1_555 1_555

#END
