
#######################################################################
#
#                 Cambridge Crystallographic Data Centre
#                                CCDC 
#
#######################################################################
#
# If this CIF has been generated from an entry in the Cambridge 
# Structural Database, then it will include bibliographic, chemical, 
# crystal, experimental, refinement or atomic coordinate data resulting 
# from the CCDC's data processing and validation procedures.
#
#######################################################################

data_LEJXAZ
_chemical_formula_moiety         'C8 H6 Cl4 N7 P3 S2'
_chemical_name_systematic        
4,4,6,6-Tetrachloro-2,2-bis(2-pyrimidinylthio)-4,4,6,6-tetrachlorocyclotri(\l^5^-phosphazene)
_symmetry_cell_setting           monoclinic
_symmetry_space_group_name_H-M   'P 21/n'
_symmetry_Int_Tables_number      14
_space_group_name_Hall           '-P 2yn'
loop_
_symmetry_equiv_pos_site_id
_symmetry_equiv_pos_as_xyz
1 x,y,z
2 1/2-x,1/2+y,1/2-z
3 -x,-y,-z
4 1/2+x,1/2-y,1/2+z
_cell_length_a                   7.686(2)
_cell_length_b                   28.236(7)
_cell_length_c                   8.760(2)
_cell_angle_alpha                90
_cell_angle_beta                 99.87(2)
_cell_angle_gamma                90
_cell_volume                     1872.97
_exptl_crystal_colour            colorless
_chemical_melting_point          170deg.C(dec.)
_cell_formula_units_Z            4
_exptl_crystal_recrystallization_method chloroform/hexane
loop_
_atom_site_label
_atom_site_type_symbol
_atom_site_fract_x
_atom_site_fract_y
_atom_site_fract_z
S1 S 0.8561(3) 0.0694(1) 0.0658(2)
S2 S 0.9335(3) 0.1725(1) 0.1291(2)
P1 P 0.8115(2) 0.1179(1) 0.2335(2)
P2 P 0.5184(2) 0.1263(1) 0.3746(2)
P3 P 0.8371(2) 0.1033(1) 0.5476(2)
Cl1 Cl 0.3166(2) 0.0809(1) 0.3396(2)
Cl2 Cl 0.3909(3) 0.1869(1) 0.3913(3)
Cl3 Cl 0.8837(3) 0.0401(1) 0.6480(2)
Cl4 Cl 0.9731(3) 0.1449(1) 0.7106(2)
N1 N 0.6069(7) 0.1276(2) 0.2241(6)
N2 N 0.6363(7) 0.1150(2) 0.5365(6)
N3 N 0.9249(7) 0.1054(2) 0.3980(6)
N4 N 0.6812(7) 0.0196(2) 0.2537(6)
N5 N 0.7497(8) -0.0172(2) 0.0259(7)
N6 N 0.8319(9) 0.2146(2) 0.3734(7)
N7 N 1.0272(9) 0.2553(2) 0.2368(7)
C1 C 0.7506(9) 0.0186(3) 0.1235(7)
C2 C 0.6069(10) -0.0206(3) 0.2879(9)
C3 C 0.6003(11) -0.0598(3) 0.1974(9)
C4 C 0.6739(12) -0.0562(3) 0.0659(9)
C5 C 0.9281(10) 0.2195(3) 0.2630(8)
C6 C 0.8319(13) 0.2517(3) 0.4675(9)
C7 C 0.9277(14) 0.2914(3) 0.4509(10)
C8 C 1.0204(12) 0.2922(3) 0.3322(11)
loop_
_geom_bond_atom_site_label_1
_geom_bond_atom_site_label_2
_geom_bond_site_symmetry_1
_geom_bond_site_symmetry_2
S1 P1 1_555 1_555
S2 P1 1_555 1_555
P1 N1 1_555 1_555
P2 Cl1 1_555 1_555
P3 Cl3 1_555 1_555
Cl2 P2 1_555 1_555
Cl4 P3 1_555 1_555
N1 P2 1_555 1_555
N2 P2 1_555 1_555
N3 P1 1_555 1_555
N4 C1 1_555 1_555
N5 C1 1_555 1_555
N6 C5 1_555 1_555
N7 C5 1_555 1_555
C1 S1 1_555 1_555
C2 N4 1_555 1_555
C3 C2 1_555 1_555
C4 N5 1_555 1_555
C5 S2 1_555 1_555
C6 N6 1_555 1_555
C7 C6 1_555 1_555
C8 N7 1_555 1_555
P3 N2 1_555 1_555
P3 N3 1_555 1_555
C3 C4 1_555 1_555
C7 C8 1_555 1_555

#END
