
#######################################################################
#
#                 Cambridge Crystallographic Data Centre
#                                CCDC 
#
#######################################################################
#
# If this CIF has been generated from an entry in the Cambridge 
# Structural Database, then it will include bibliographic, chemical, 
# crystal, experimental, refinement or atomic coordinate data resulting 
# from the CCDC's data processing and validation procedures.
#
#######################################################################

data_LEJXED
_chemical_formula_moiety         'C12 H14 Cl4 N7 P3 S2'
_chemical_name_systematic        
4,4,6,6-Tetrachloro-2,2-bis(4,6-dimethyl-2-pyrimidinylthio)-4,4,6,6-tetrachlorocyclotri(\l^5^-phosphazene)
_symmetry_cell_setting           triclinic
_symmetry_space_group_name_H-M   'P -1'
_symmetry_Int_Tables_number      2
_space_group_name_Hall           '-P 1'
loop_
_symmetry_equiv_pos_site_id
_symmetry_equiv_pos_as_xyz
1 x,y,z
2 -x,-y,-z
_cell_length_a                   8.698(3)
_cell_length_b                   9.630(3)
_cell_length_c                   14.179(6)
_cell_angle_alpha                100.88(3)
_cell_angle_beta                 92.83(3)
_cell_angle_gamma                103.84(3)
_cell_volume                     1126.87
_exptl_crystal_colour            colorless
_chemical_melting_point          160deg.C(dec.)
_cell_formula_units_Z            2
_exptl_crystal_recrystallization_method toluene
loop_
_atom_site_label
_atom_site_type_symbol
_atom_site_fract_x
_atom_site_fract_y
_atom_site_fract_z
P1 P -0.1719(1) 0.7673(1) 0.2212(1)
P2 P -0.4731(1) 0.8091(1) 0.2424(1)
P3 P -0.3441(1) 0.6729(1) 0.3653(1)
N1 N -0.3174(3) 0.8277(3) 0.1899(2)
N2 N -0.4849(3) 0.7332(4) 0.3317(2)
N3 N -0.1934(3) 0.6861(3) 0.3092(2)
S1 S 0.0376(1) 0.9312(1) 0.2389(1)
S2 S -0.0952(1) 0.6410(1) 0.1071(1)
Cl1 Cl -0.5203(1) 1.0044(1) 0.2822(1)
Cl2 Cl -0.6604(1) 0.7071(2) 0.1484(1)
Cl3 Cl -0.4326(2) 0.4635(1) 0.3708(1)
Cl4 Cl -0.2822(2) 0.7585(2) 0.5049(1)
N4 N 0.0489(4) 1.2072(3) 0.2849(2)
N5 N -0.1210(4) 1.0568(4) 0.3734(2)
N6 N -0.1477(4) 0.3602(3) 0.0823(2)
N7 N -0.3719(4) 0.4548(4) 0.1195(3)
C1 C -0.0215(4) 1.0826(4) 0.3068(3)
C2 C 0.0137(5) 1.3267(4) 0.3365(3)
C3 C -0.0894(5) 1.3121(5) 0.4065(3)
C4 C -0.1543(5) 1.1767(5) 0.4240(3)
C5 C 0.0918(6) 1.4689(5) 0.3129(4)
C6 C -0.2615(7) 1.1520(6) 0.5031(4)
C7 C -0.2220(5) 0.4643(4) 0.1045(3)
C8 C -0.2390(6) 0.2223(4) 0.0733(3)
C9 C -0.3969(6) 0.2017(5) 0.0896(3)
C10 C -0.4618(5) 0.3161(5) 0.1114(3)
C11 C -0.1588(7) 0.1031(5) 0.0467(3)
C12 C -0.6346(6) 0.3023(6) 0.1257(5)
loop_
_geom_bond_atom_site_label_1
_geom_bond_atom_site_label_2
_geom_bond_site_symmetry_1
_geom_bond_site_symmetry_2
P1 N1 1_555 1_555
P2 N1 1_555 1_555
P3 N2 1_555 1_555
N2 P2 1_555 1_555
N3 P1 1_555 1_555
S1 P1 1_555 1_555
S2 P1 1_555 1_555
Cl1 P2 1_555 1_555
Cl2 P2 1_555 1_555
Cl3 P3 1_555 1_555
Cl4 P3 1_555 1_555
N4 C1 1_555 1_555
N5 C1 1_555 1_555
N6 C7 1_555 1_555
N7 C7 1_555 1_555
C1 S1 1_555 1_555
C2 N4 1_555 1_555
C3 C2 1_555 1_555
C4 N5 1_555 1_555
C5 C2 1_555 1_555
C6 C4 1_555 1_555
C7 S2 1_555 1_555
C8 N6 1_555 1_555
C9 C8 1_555 1_555
C10 N7 1_555 1_555
C11 C8 1_555 1_555
C12 C10 1_555 1_555
P3 N3 1_555 1_555
C3 C4 1_555 1_555
C9 C10 1_555 1_555

#END
