
#######################################################################
#
#                 Cambridge Crystallographic Data Centre
#                                CCDC 
#
#######################################################################
#
# If this CIF has been generated from an entry in the Cambridge 
# Structural Database, then it will include bibliographic, chemical, 
# crystal, experimental, refinement or atomic coordinate data resulting 
# from the CCDC's data processing and validation procedures.
#
#######################################################################

data_LEKCEM
_chemical_formula_moiety         'C9 H8 Br1 F2 N1 O2 S1'
_chemical_name_systematic        
4-bromo-N-cyclopropyl-2,5-difluorobenzenesulfonamide
_symmetry_cell_setting           triclinic
_symmetry_space_group_name_H-M   'P -1'
_symmetry_Int_Tables_number      2
_space_group_name_Hall           '-P 1'
loop_
_symmetry_equiv_pos_site_id
_symmetry_equiv_pos_as_xyz
1 x,y,z
2 -x,-y,-z
_cell_length_a                   7.5277(6)
_cell_length_b                   8.3730(7)
_cell_length_c                   9.8785(9)
_cell_angle_alpha                92.637(3)
_cell_angle_beta                 111.201(2)
_cell_angle_gamma                105.856(2)
_cell_volume                     551.08
_exptl_crystal_colour            colorless
_exptl_crystal_description       Block
_cell_formula_units_Z            2
loop_
_atom_site_label
_atom_site_type_symbol
_atom_site_fract_x
_atom_site_fract_y
_atom_site_fract_z
H1 H 0.657(5) 0.053(4) 0.430(3)
Br1 Br 0.05704(5) 0.39942(5) -0.18303(4)
C1 C 0.2215(4) 0.3637(4) 0.0009(4)
C2 C 0.3573(5) 0.4963(4) 0.1075(4)
C3 C 0.4746(5) 0.4730(4) 0.2439(3)
H2 H 0.5662 0.5647 0.3145
C4 C 0.4544(4) 0.3107(4) 0.2745(3)
C5 C 0.3187(4) 0.1787(4) 0.1658(4)
C6 C 0.2025(4) 0.2011(4) 0.0290(4)
H3 H 0.1136 0.1095 -0.0428
N1 N 0.7084(4) 0.1475(4) 0.4356(3)
C7 C 0.8632(5) 0.1845(4) 0.3784(4)
H4 H 0.9786 0.2844 0.4309
C8 C 0.9092(6) 0.0406(5) 0.3220(4)
H5 H 0.8276 -0.0718 0.3207
H6 H 1.0486 0.0525 0.3421
C9 C 0.8129(7) 0.1440(6) 0.2191(5)
H7 H 0.8935 0.2190 0.1765
H8 H 0.6726 0.0946 0.1550
O1 O 0.7408(3) 0.4390(3) 0.5240(2)
O2 O 0.4574(3) 0.1985(3) 0.5154(3)
F1 F 0.2979(3) 0.0193(2) 0.1936(2)
F2 F 0.3769(3) 0.6550(2) 0.0794(2)
S1 S 0.59626(11) 0.27917(9) 0.45233(8)
loop_
_geom_bond_atom_site_label_1
_geom_bond_atom_site_label_2
_geom_bond_site_symmetry_1
_geom_bond_site_symmetry_2
H1 N1 1_555 1_555
Br1 C1 1_555 1_555
C1 C2 1_555 1_555
C2 C3 1_555 1_555
C3 H2 1_555 1_555
C4 C3 1_555 1_555
C5 C4 1_555 1_555
C6 C1 1_555 1_555
H3 C6 1_555 1_555
N1 C7 1_555 1_555
C7 H4 1_555 1_555
C8 C7 1_555 1_555
H5 C8 1_555 1_555
H6 C8 1_555 1_555
C9 C7 1_555 1_555
H7 C9 1_555 1_555
H8 C9 1_555 1_555
O1 S1 1_555 1_555
O2 S1 1_555 1_555
F1 C5 1_555 1_555
F2 C2 1_555 1_555
S1 C4 1_555 1_555
C5 C6 1_555 1_555
N1 S1 1_555 1_555
C8 C9 1_555 1_555

#END
