
#######################################################################
#
#                 Cambridge Crystallographic Data Centre
#                                CCDC 
#
#######################################################################
#
# If this CIF has been generated from an entry in the Cambridge 
# Structural Database, then it will include bibliographic, chemical, 
# crystal, experimental, refinement or atomic coordinate data resulting 
# from the CCDC's data processing and validation procedures.
#
#######################################################################

data_LEKGUG
_chemical_formula_moiety         'C18 H36 B1 Na1 O5'
_chemical_name_systematic        
(15-crown-5)-((cyclooctane-1,5-diyl)(dihydrido)borate)-sodium
_symmetry_cell_setting           triclinic
_symmetry_space_group_name_H-M   'P -1'
_symmetry_Int_Tables_number      2
_space_group_name_Hall           '-P 1'
loop_
_symmetry_equiv_pos_site_id
_symmetry_equiv_pos_as_xyz
1 x,y,z
2 -x,-y,-z
_cell_length_a                   7.5751(5)
_cell_length_b                   10.0045(7)
_cell_length_c                   13.9038(9)
_cell_angle_alpha                93.500(6)
_cell_angle_beta                 90.410(5)
_cell_angle_gamma                104.176(6)
_cell_volume                     1019.44
_exptl_crystal_colour            colorless
_exptl_crystal_description       needle
_cell_formula_units_Z            2
_chemical_properties_physical    Air-sensitive,Moisture-sensitive
_exptl_crystal_recrystallization_method tetrahydrofuran
loop_
_atom_site_label
_atom_site_type_symbol
_atom_site_fract_x
_atom_site_fract_y
_atom_site_fract_z
Na1 Na 0.31264(7) 0.39439(5) 0.72837(4)
O1 O 0.63074(13) 0.38192(10) 0.73736(7)
O2 O 0.11640(12) 0.20654(10) 0.80079(7)
O3 O 0.42221(13) 0.35435(10) 0.57095(7)
O4 O 0.41096(13) 0.37298(10) 0.89417(7)
O5 O 0.05727(13) 0.27341(10) 0.61667(7)
C1 C 0.70681(19) 0.44211(15) 0.65149(10)
C2 C -0.02573(19) 0.14056(14) 0.64852(10)
H1 H 0.0535 0.0786 0.6371
H2 H -0.1402 0.1018 0.6139
C3 C 0.3363(2) 0.88092(15) 0.65633(10)
H3 H 0.2744 0.9364 0.6201
H4 H 0.4213 0.8504 0.6136
C4 C 0.69572(19) 0.46355(15) 0.82413(10)
C5 C 0.37159(19) 0.76350(15) 0.84686(10)
H5 H 0.4338 0.7130 0.8885
C6 C 0.2109(2) 0.79675(16) 0.90259(10)
H6 H 0.1413 0.7127 0.9288
H7 H 0.2593 0.8619 0.9565
C7 C 0.1082(2) 0.23844(15) 0.90186(10)
H8 H 0.0279 0.1622 0.9318
H9 H 0.0620 0.3201 0.9135
C8 C 0.03412(19) 0.78749(14) 0.74123(10)
H10 H -0.0175 0.8476 0.7035
H11 H -0.0591 0.7025 0.7464
C9 C 0.2983(2) 0.26348(15) 0.94286(10)
H12 H 0.2999 0.2885 1.0114
H13 H 0.3424 0.1805 0.9335
C10 C -0.05809(18) 0.15848(15) 0.75474(10)
H14 H -0.1307 0.2250 0.7667
H15 H -0.1220 0.0712 0.7790
C11 C 0.60156(19) 0.38501(15) 0.90608(10)
H16 H 0.6257 0.2941 0.9050
H17 H 0.6456 0.4340 0.9673
C12 C 0.19474(19) 0.75337(14) 0.68614(10)
H18 H 0.1458 0.6966 0.6275
C13 C 0.60940(19) 0.35025(15) 0.56808(10)
H19 H 0.6616 0.3828 0.5078
H20 H 0.6205 0.2564 0.5733
C14 C 0.08127(19) 0.85715(15) 0.84282(10)
H21 H -0.0309 0.8499 0.8776
H22 H 0.1362 0.9546 0.8371
C15 C 0.3051(2) 0.24965(15) 0.51025(10)
H23 H 0.3075 0.1590 0.5304
H24 H 0.3438 0.2562 0.4440
C16 C 0.5124(2) 0.89173(16) 0.81656(11)
H25 H 0.5521 0.9534 0.8733
H26 H 0.6178 0.8629 0.7921
C17 C 0.1160(2) 0.27183(16) 0.51894(10)
H27 H 0.1134 0.3589 0.4926
H28 H 0.0314 0.1988 0.4810
C18 C 0.4447(2) 0.97259(15) 0.73986(11)
H29 H 0.3685 1.0271 0.7704
H30 H 0.5488 1.0361 0.7140
B1 B 0.2924(2) 0.66297(16) 0.75199(12)
H31 H 0.664(2) 0.5547(17) 0.8226(11)
H32 H 0.831(2) 0.4803(18) 0.8298(12)
H33 H 0.837(3) 0.4471(19) 0.6484(13)
H34 H 0.689(2) 0.5364(19) 0.6497(12)
H35 H 0.410(2) 0.6265(18) 0.7102(12)
H36 H 0.184(2) 0.5622(18) 0.7767(12)
loop_
_geom_bond_atom_site_label_1
_geom_bond_atom_site_label_2
_geom_bond_site_symmetry_1
_geom_bond_site_symmetry_2
Na1 O1 1_555 1_555
O1 C1 1_555 1_555
O2 Na1 1_555 1_555
O3 Na1 1_555 1_555
O4 Na1 1_555 1_555
O5 Na1 1_555 1_555
C1 C13 1_555 1_555
C2 O5 1_555 1_555
H1 C2 1_555 1_555
H2 C2 1_555 1_555
C3 H3 1_555 1_555
H4 C3 1_555 1_555
C4 O1 1_555 1_555
C5 H5 1_555 1_555
C6 C5 1_555 1_555
H6 C6 1_555 1_555
H7 C6 1_555 1_555
C7 O2 1_555 1_555
H8 C7 1_555 1_555
H9 C7 1_555 1_555
C8 H10 1_555 1_555
H11 C8 1_555 1_555
C9 O4 1_555 1_555
H12 C9 1_555 1_555
H13 C9 1_555 1_555
C10 O2 1_555 1_555
H14 C10 1_555 1_555
H15 C10 1_555 1_555
C11 O4 1_555 1_555
H16 C11 1_555 1_555
H17 C11 1_555 1_555
C12 C3 1_555 1_555
H18 C12 1_555 1_555
C13 O3 1_555 1_555
H19 C13 1_555 1_555
H20 C13 1_555 1_555
C14 C6 1_555 1_555
H21 C14 1_555 1_555
H22 C14 1_555 1_555
C15 O3 1_555 1_555
H23 C15 1_555 1_555
H24 C15 1_555 1_555
C16 C5 1_555 1_555
H25 C16 1_555 1_555
H26 C16 1_555 1_555
C17 O5 1_555 1_555
H27 C17 1_555 1_555
H28 C17 1_555 1_555
C18 C3 1_555 1_555
H29 C18 1_555 1_555
H30 C18 1_555 1_555
B1 C5 1_555 1_555
H31 C4 1_555 1_555
H32 C4 1_555 1_555
H33 C1 1_555 1_555
H34 C1 1_555 1_555
H35 Na1 1_555 1_555
H36 Na1 1_555 1_555
C2 C10 1_555 1_555
C4 C11 1_555 1_555
C7 C9 1_555 1_555
C8 C12 1_555 1_555
C8 C14 1_555 1_555
C12 B1 1_555 1_555
C15 C17 1_555 1_555
C16 C18 1_555 1_555
B1 H35 1_555 1_555
B1 H36 1_555 1_555

#END
