
#######################################################################
#
#                 Cambridge Crystallographic Data Centre
#                                CCDC 
#
#######################################################################
#
# If this CIF has been generated from an entry in the Cambridge 
# Structural Database, then it will include bibliographic, chemical, 
# crystal, experimental, refinement or atomic coordinate data resulting 
# from the CCDC's data processing and validation procedures.
#
#######################################################################

data_LEKHIU
_chemical_formula_moiety         'C29 H50 Cl1 N1 Si5'
_chemical_name_systematic        
2-(4-Chlorophenyl)-1-phenyl-4,4,7,7-tetrakis(trimethylsilyl)-1-aza-3-silaspiro[2.4]heptane
_symmetry_cell_setting           triclinic
_symmetry_space_group_name_H-M   'P -1'
_symmetry_Int_Tables_number      2
_space_group_name_Hall           '-P 1'
loop_
_symmetry_equiv_pos_site_id
_symmetry_equiv_pos_as_xyz
1 x,y,z
2 -x,-y,-z
_cell_length_a                   13.1571(11)
_cell_length_b                   15.9991(13)
_cell_length_c                   17.0546(14)
_cell_angle_alpha                72.259(2)
_cell_angle_beta                 84.025(2)
_cell_angle_gamma                89.806(2)
_cell_volume                     3399.2
_exptl_crystal_colour            colorless
_exptl_crystal_description       block
_cell_formula_units_Z            4
loop_
_atom_site_label
_atom_site_type_symbol
_atom_site_fract_x
_atom_site_fract_y
_atom_site_fract_z
Si1 Si 0.28072(6) 0.03035(5) 0.29155(4)
Si2 Si 0.26148(7) 0.24337(5) 0.23700(5)
Si3 Si 0.45541(7) 0.15949(6) 0.17620(5)
Si4 Si 0.38010(7) -0.14232(5) 0.40372(5)
Si5 Si 0.22843(6) -0.03638(6) 0.48551(5)
Cl1 Cl -0.16414(8) 0.21642(7) 0.08521(6)
N1 N 0.25673(17) -0.01831(15) 0.21895(14)
C1 C 0.3292(2) -0.02815(18) 0.39388(16)
C2 C 0.4175(2) 0.03836(19) 0.39216(17)
H1 H 0.4301 0.0332 0.4485
H2 H 0.4797 0.0237 0.3640
C3 C 0.3910(2) 0.13302(19) 0.34803(17)
H3 H 0.4521 0.1704 0.3368
H4 H 0.3416 0.1533 0.3840
C4 C 0.3456(2) 0.14113(18) 0.26410(16)
C5 C 0.1575(2) -0.00766(18) 0.26504(16)
H5 H 0.1304 -0.0629 0.3053
C6 C 0.0776(2) 0.04388(18) 0.21787(16)
C7 C 0.0969(2) 0.0945(2) 0.13530(18)
H6 H 0.1610 0.0932 0.1071
C8 C 0.0234(2) 0.1465(2) 0.09441(19)
H7 H 0.0381 0.1802 0.0393
C9 C -0.0718(2) 0.1484(2) 0.13521(19)
C10 C -0.0954(3) 0.0960(3) 0.2155(2)
H8 H -0.1607 0.0952 0.2424
C11 C -0.0198(2) 0.0439(2) 0.25614(19)
H9 H -0.0356 0.0084 0.3105
C12 C 0.2735(2) -0.07700(18) 0.17328(16)
C13 C 0.3719(3) -0.0921(2) 0.1443(2)
H10 H 0.4270 -0.0628 0.1553
C14 C 0.3891(3) -0.1500(3) 0.0995(2)
H11 H 0.4556 -0.1601 0.0808
C15 C 0.3085(4) -0.1930(3) 0.0821(2)
H12 H 0.3201 -0.2320 0.0516
C16 C 0.2111(3) -0.1781(2) 0.1098(2)
H13 H 0.1565 -0.2069 0.0976
C17 C 0.1928(3) -0.1205(2) 0.15575(18)
H14 H 0.1261 -0.1113 0.1747
C18 C 0.5016(3) -0.1398(3) 0.3360(2)
H15 H 0.5529 -0.1059 0.3500
H16 H 0.4902 -0.1136 0.2791
H17 H 0.5243 -0.1986 0.3440
C19 C 0.2891(3) -0.2156(2) 0.3757(2)
H18 H 0.2831 -0.1942 0.3174
H19 H 0.2233 -0.2162 0.4060
H20 H 0.3143 -0.2742 0.3894
C20 C 0.4142(3) -0.1977(2) 0.5107(2)
H21 H 0.4465 -0.2520 0.5123
H22 H 0.3533 -0.2093 0.5491
H23 H 0.4603 -0.1602 0.5257
C21 C 0.1400(3) 0.0575(2) 0.4699(2)
H24 H 0.1034 0.0612 0.4232
H25 H 0.1788 0.1111 0.4600
H26 H 0.0923 0.0484 0.5186
C22 C 0.1410(3) -0.1347(2) 0.5116(2)
H27 H 0.1803 -0.1869 0.5240
H28 H 0.1038 -0.1318 0.4654
H29 H 0.0938 -0.1361 0.5589
C23 C 0.2913(3) -0.0371(3) 0.5791(2)
H30 H 0.2399 -0.0408 0.6244
H31 H 0.3319 0.0159 0.5673
H32 H 0.3344 -0.0869 0.5936
C24 C 0.3167(3) 0.3301(2) 0.2749(2)
H33 H 0.2768 0.3819 0.2598
H34 H 0.3859 0.3441 0.2502
H35 H 0.3155 0.3088 0.3341
C25 C 0.2494(3) 0.2924(2) 0.1241(2)
H36 H 0.2220 0.2489 0.1032
H37 H 0.3156 0.3125 0.0950
H38 H 0.2046 0.3410 0.1160
C26 C 0.1274(3) 0.2244(2) 0.2872(2)
H39 H 0.0870 0.2731 0.2612
H40 H 0.1265 0.2190 0.3449
H41 H 0.0996 0.1715 0.2815
C27 C 0.5164(3) 0.2718(3) 0.1513(3)
H42 H 0.5475 0.2763 0.1983
H43 H 0.4652 0.3153 0.1380
H44 H 0.5676 0.2811 0.1048
C28 C 0.4126(3) 0.1458(3) 0.0798(2)
H45 H 0.4665 0.1213 0.0522
H46 H 0.3959 0.2019 0.0439
H47 H 0.3534 0.1071 0.0939
C29 C 0.5649(3) 0.0852(3) 0.2040(3)
H48 H 0.6176 0.0989 0.1583
H49 H 0.5417 0.0253 0.2165
H50 H 0.5915 0.0934 0.2516
C30 C 0.1506(2) 0.48827(17) 0.74132(16)
C31 C 0.1072(2) 0.53436(18) 0.65625(17)
H51 H 0.0459 0.5650 0.6663
H52 H 0.1573 0.5775 0.6208
C32 C 0.0820(2) 0.46825(19) 0.61181(18)
H53 H 0.0710 0.4996 0.5551
H54 H 0.0192 0.4360 0.6390
C33 C 0.17022(19) 0.40208(17) 0.61211(16)
C34 C 0.3384(2) 0.33793(18) 0.74450(17)
H55 H 0.3671 0.3085 0.7048
C35 C 0.4170(2) 0.36032(18) 0.79190(18)
C36 C 0.5163(2) 0.3812(2) 0.7557(2)
H56 H 0.5342 0.3774 0.7027
C37 C 0.5904(3) 0.4076(3) 0.7965(2)
H57 H 0.6566 0.4222 0.7710
C38 C 0.5636(3) 0.4119(2) 0.8753(2)
C39 C 0.4671(3) 0.3897(2) 0.91354(19)
H58 H 0.4503 0.3921 0.9671
C40 C 0.3940(2) 0.3634(2) 0.87225(18)
H59 H 0.3285 0.3475 0.8989
C41 C 0.2229(2) 0.20993(18) 0.83600(17)
C42 C 0.3049(3) 0.1566(2) 0.8586(2)
H60 H 0.3716 0.1788 0.8418
C43 C 0.2864(4) 0.0694(2) 0.9067(2)
H61 H 0.3414 0.0339 0.9228
C44 C 0.1893(4) 0.0350(2) 0.9306(2)
H62 H 0.1787 -0.0237 0.9617
C45 C 0.1082(4) 0.0865(2) 0.9091(2)
H63 H 0.0419 0.0633 0.9254
C46 C 0.1247(3) 0.1748(2) 0.8621(2)
H64 H 0.0691 0.2103 0.8482
C47 C 0.3688(3) 0.5839(2) 0.7198(2)
H65 H 0.4088 0.6154 0.7461
H66 H 0.3710 0.6155 0.6619
H67 H 0.3961 0.5267 0.7264
C48 C 0.2434(3) 0.5506(3) 0.8814(2)
H68 H 0.2701 0.4934 0.9040
H69 H 0.1768 0.5533 0.9092
H70 H 0.2882 0.5941 0.8891
C49 C 0.1805(3) 0.6842(2) 0.7281(2)
H71 H 0.2210 0.7262 0.7423
H72 H 0.1113 0.6837 0.7525
H73 H 0.1818 0.7001 0.6690
C50 C -0.0710(3) 0.4003(3) 0.7968(3)
H74 H -0.0489 0.3485 0.7836
H75 H -0.0958 0.4410 0.7492
H76 H -0.1248 0.3848 0.8418
C51 C 0.0767(3) 0.3730(2) 0.9251(2)
H77 H 0.0173 0.3533 0.9642
H78 H 0.1243 0.4017 0.9482
H79 H 0.1083 0.3235 0.9129
C52 C -0.0215(3) 0.5479(3) 0.8535(3)
H80 H -0.0408 0.5896 0.8040
H81 H 0.0266 0.5753 0.8774
H82 H -0.0811 0.5281 0.8925
C53 C -0.0046(3) 0.2562(2) 0.6673(2)
H83 H -0.0256 0.2010 0.6619
H84 H -0.0558 0.2988 0.6494
H85 H 0.0039 0.2492 0.7241
C54 C 0.0870(3) 0.3086(2) 0.4942(2)
H86 H 0.1487 0.3209 0.4568
H87 H 0.0415 0.3564 0.4782
H88 H 0.0546 0.2556 0.4925
C55 C 0.2077(3) 0.2019(2) 0.6319(2)
H89 H 0.2143 0.1869 0.6901
H90 H 0.2736 0.2191 0.6011
H91 H 0.1811 0.1518 0.6199
C56 C 0.2120(3) 0.5111(3) 0.4261(2)
H92 H 0.2640 0.5303 0.3800
H93 H 0.1774 0.5611 0.4345
H94 H 0.1638 0.4725 0.4148
C57 C 0.3586(3) 0.3682(3) 0.4971(2)
H95 H 0.3197 0.3271 0.4805
H96 H 0.3908 0.3377 0.5453
H97 H 0.4101 0.3970 0.4529
C58 C 0.3603(3) 0.5342(3) 0.5366(2)
H98 H 0.4045 0.5598 0.4864
H99 H 0.4008 0.5063 0.5805
H100 H 0.3213 0.5794 0.5507
Cl2 Cl 0.65571(9) 0.44506(9) 0.92722(7)
N2 N 0.23918(17) 0.29790(14) 0.78883(14)
Si6 Si 0.21574(6) 0.39348(5) 0.71544(4)
Si7 Si 0.23413(8) 0.57229(5) 0.76818(5)
Si8 Si 0.03849(7) 0.45196(6) 0.82765(5)
Si9 Si 0.11872(6) 0.29458(5) 0.60213(5)
Si10 Si 0.27222(6) 0.45145(6) 0.52117(5)
loop_
_geom_bond_atom_site_label_1
_geom_bond_atom_site_label_2
_geom_bond_site_symmetry_1
_geom_bond_site_symmetry_2
Si1 N1 1_555 1_555
Si2 C4 1_555 1_555
Si3 C4 1_555 1_555
Si4 C1 1_555 1_555
Si5 C1 1_555 1_555
Cl1 C9 1_555 1_555
N1 C5 1_555 1_555
C1 Si1 1_555 1_555
C2 C1 1_555 1_555
H1 C2 1_555 1_555
H2 C2 1_555 1_555
C3 C2 1_555 1_555
H3 C3 1_555 1_555
H4 C3 1_555 1_555
C4 Si1 1_555 1_555
C5 Si1 1_555 1_555
H5 C5 1_555 1_555
C6 C5 1_555 1_555
C7 C6 1_555 1_555
H6 C7 1_555 1_555
C8 C7 1_555 1_555
H7 C8 1_555 1_555
C9 C8 1_555 1_555
C10 C9 1_555 1_555
H8 C10 1_555 1_555
C11 C6 1_555 1_555
H9 C11 1_555 1_555
C12 N1 1_555 1_555
C13 C12 1_555 1_555
H10 C13 1_555 1_555
C14 C13 1_555 1_555
H11 C14 1_555 1_555
C15 C14 1_555 1_555
H12 C15 1_555 1_555
C16 C15 1_555 1_555
H13 C16 1_555 1_555
C17 C12 1_555 1_555
H14 C17 1_555 1_555
C18 Si4 1_555 1_555
H15 C18 1_555 1_555
H16 C18 1_555 1_555
H17 C18 1_555 1_555
C19 Si4 1_555 1_555
H18 C19 1_555 1_555
H19 C19 1_555 1_555
H20 C19 1_555 1_555
C20 Si4 1_555 1_555
H21 C20 1_555 1_555
H22 C20 1_555 1_555
H23 C20 1_555 1_555
C21 Si5 1_555 1_555
H24 C21 1_555 1_555
H25 C21 1_555 1_555
H26 C21 1_555 1_555
C22 Si5 1_555 1_555
H27 C22 1_555 1_555
H28 C22 1_555 1_555
H29 C22 1_555 1_555
C23 Si5 1_555 1_555
H30 C23 1_555 1_555
H31 C23 1_555 1_555
H32 C23 1_555 1_555
C24 Si2 1_555 1_555
H33 C24 1_555 1_555
H34 C24 1_555 1_555
H35 C24 1_555 1_555
C25 Si2 1_555 1_555
H36 C25 1_555 1_555
H37 C25 1_555 1_555
H38 C25 1_555 1_555
C26 Si2 1_555 1_555
H39 C26 1_555 1_555
H40 C26 1_555 1_555
H41 C26 1_555 1_555
C27 Si3 1_555 1_555
H42 C27 1_555 1_555
H43 C27 1_555 1_555
H44 C27 1_555 1_555
C28 Si3 1_555 1_555
H45 C28 1_555 1_555
H46 C28 1_555 1_555
H47 C28 1_555 1_555
C29 Si3 1_555 1_555
H48 C29 1_555 1_555
H49 C29 1_555 1_555
H50 C29 1_555 1_555
C30 C31 1_555 1_555
C31 H51 1_555 1_555
H52 C31 1_555 1_555
C32 C31 1_555 1_555
H53 C32 1_555 1_555
H54 C32 1_555 1_555
C33 C32 1_555 1_555
C34 H55 1_555 1_555
C35 C34 1_555 1_555
C36 C35 1_555 1_555
H56 C36 1_555 1_555
C37 C36 1_555 1_555
H57 C37 1_555 1_555
C38 C37 1_555 1_555
C39 C38 1_555 1_555
H58 C39 1_555 1_555
C40 C35 1_555 1_555
H59 C40 1_555 1_555
C41 C42 1_555 1_555
C42 H60 1_555 1_555
C43 C42 1_555 1_555
H61 C43 1_555 1_555
C44 C43 1_555 1_555
H62 C44 1_555 1_555
C45 C44 1_555 1_555
H63 C45 1_555 1_555
C46 C41 1_555 1_555
H64 C46 1_555 1_555
C47 H65 1_555 1_555
H66 C47 1_555 1_555
H67 C47 1_555 1_555
C48 H68 1_555 1_555
H69 C48 1_555 1_555
H70 C48 1_555 1_555
C49 H71 1_555 1_555
H72 C49 1_555 1_555
H73 C49 1_555 1_555
C50 H74 1_555 1_555
H75 C50 1_555 1_555
H76 C50 1_555 1_555
C51 H77 1_555 1_555
H78 C51 1_555 1_555
H79 C51 1_555 1_555
C52 H80 1_555 1_555
H81 C52 1_555 1_555
H82 C52 1_555 1_555
C53 H83 1_555 1_555
H84 C53 1_555 1_555
H85 C53 1_555 1_555
C54 H86 1_555 1_555
H87 C54 1_555 1_555
H88 C54 1_555 1_555
C55 H89 1_555 1_555
H90 C55 1_555 1_555
H91 C55 1_555 1_555
C56 H92 1_555 1_555
H93 C56 1_555 1_555
H94 C56 1_555 1_555
C57 H95 1_555 1_555
H96 C57 1_555 1_555
H97 C57 1_555 1_555
C58 H98 1_555 1_555
H99 C58 1_555 1_555
H100 C58 1_555 1_555
Cl2 C38 1_555 1_555
N2 C34 1_555 1_555
Si6 C30 1_555 1_555
Si7 C30 1_555 1_555
Si8 C30 1_555 1_555
Si9 C33 1_555 1_555
Si10 C33 1_555 1_555
C3 C4 1_555 1_555
C10 C11 1_555 1_555
C16 C17 1_555 1_555
C33 Si6 1_555 1_555
C34 Si6 1_555 1_555
C39 C40 1_555 1_555
C41 N2 1_555 1_555
C45 C46 1_555 1_555
C47 Si7 1_555 1_555
C48 Si7 1_555 1_555
C49 Si7 1_555 1_555
C50 Si8 1_555 1_555
C51 Si8 1_555 1_555
C52 Si8 1_555 1_555
C53 Si9 1_555 1_555
C54 Si9 1_555 1_555
C55 Si9 1_555 1_555
C56 Si10 1_555 1_555
C57 Si10 1_555 1_555
C58 Si10 1_555 1_555
N2 Si6 1_555 1_555

#END
