
#######################################################################
#
#                 Cambridge Crystallographic Data Centre
#                                CCDC 
#
#######################################################################
#
# If this CIF has been generated from an entry in the Cambridge 
# Structural Database, then it will include bibliographic, chemical, 
# crystal, experimental, refinement or atomic coordinate data resulting 
# from the CCDC's data processing and validation procedures.
#
#######################################################################

data_LEKQIE
_chemical_formula_moiety         'C45 H51 N3'
_chemical_name_systematic        
9,9'-(pyridine-2,6-diyl)bis(3,6-di-t-butyl-9H-carbazole)
_symmetry_cell_setting           monoclinic
_symmetry_space_group_name_H-M   'C 2/c'
_symmetry_Int_Tables_number      15
_space_group_name_Hall           '-C 2yn'
loop_
_symmetry_equiv_pos_site_id
_symmetry_equiv_pos_as_xyz
1 x,y,z
2 -x,y,1/2-z
3 1/2+x,1/2+y,z
4 1/2-x,1/2+y,1/2-z
5 -x,-y,-z
6 x,-y,1/2+z
7 1/2-x,1/2-y,-z
8 1/2+x,1/2-y,1/2+z
_cell_length_a                   21.6357(8)
_cell_length_b                   10.5973(4)
_cell_length_c                   15.8223(6)
_cell_angle_alpha                90
_cell_angle_beta                 93.6060(10)
_cell_angle_gamma                90
_cell_volume                     3620.55
_exptl_crystal_colour            colorless
_exptl_crystal_description       plate
_cell_formula_units_Z            4
loop_
_atom_site_label
_atom_site_type_symbol
_atom_site_fract_x
_atom_site_fract_y
_atom_site_fract_z
N1 N 0.5000 0.30998(11) 0.2500
N2 N 0.40478(4) 0.31744(8) 0.31001(6)
C1 C 0.5000 0.04893(15) 0.2500
H1 H 0.5000 -0.0388 0.2500
C2 C 0.45291(5) 0.11359(10) 0.28590(9)
H2 H 0.4219 0.0711 0.3125
C3 C 0.45352(4) 0.24511(9) 0.28087(7)
C4 C 0.34254(4) 0.27951(9) 0.31219(6)
C5 C 0.31151(5) 0.17252(10) 0.28016(7)
H3 H 0.3317 0.1128 0.2488
C6 C 0.24966(5) 0.15796(10) 0.29658(7)
H4 H 0.2287 0.0870 0.2753
C7 C 0.21706(4) 0.24528(10) 0.34385(7)
C8 C 0.24766(4) 0.35555(9) 0.36958(7)
H5 H 0.2267 0.4179 0.3976
C9 C 0.30964(4) 0.37289(9) 0.35345(6)
C10 C 0.35285(4) 0.47324(9) 0.37634(6)
C11 C 0.41098(4) 0.43616(9) 0.34997(6)
C12 C 0.46290(5) 0.51101(10) 0.36842(8)
H6 H 0.5018 0.4868 0.3523
C13 C 0.45458(5) 0.62320(10) 0.41175(8)
H7 H 0.4891 0.6733 0.4251
C14 C 0.39680(5) 0.66495(9) 0.43643(7)
C15 C 0.34579(4) 0.58716(9) 0.41823(7)
H8 H 0.3069 0.6115 0.4342
C16 C 0.15046(4) 0.21832(10) 0.36607(7)
C17 C 0.14280(6) 0.07775(13) 0.38595(11)
H9 H 0.1706 0.0550 0.4332
H10 H 0.1009 0.0618 0.3996
H11 H 0.1521 0.0285 0.3374
C18 C 0.10617(6) 0.25244(16) 0.29117(10)
H12 H 0.1169 0.2056 0.2423
H13 H 0.0646 0.2322 0.3042
H14 H 0.1091 0.3411 0.2798
C19 C 0.13388(6) 0.29241(16) 0.44430(10)
H15 H 0.1620 0.2704 0.4913
H16 H 0.1369 0.3812 0.4332
H17 H 0.0923 0.2722 0.4576
C20 C 0.38852(5) 0.79153(10) 0.48090(8)
C21 C 0.36635(11) 0.77041(17) 0.56889(11)
H18 H 0.3291 0.7211 0.5649
H19 H 0.3977 0.7264 0.6029
H20 H 0.3583 0.8504 0.5945
C22 C 0.33898(8) 0.87077(14) 0.42920(12)
H21 H 0.3523 0.8850 0.3733
H22 H 0.3003 0.8259 0.4256
H23 H 0.3337 0.9503 0.4568
C23 C 0.44776(8) 0.86996(16) 0.48745(16)
H24 H 0.4619 0.8835 0.4318
H25 H 0.4396 0.9499 0.5131
H26 H 0.4791 0.8259 0.5215
N2A N 0.59522(4) 0.31744(8) 0.18999(6)
C2A C 0.54709(5) 0.11359(10) 0.21410(9)
H2A H 0.5781 0.0711 0.1875
C3A C 0.54648(4) 0.24511(9) 0.21913(7)
C4A C 0.65746(4) 0.27951(9) 0.18781(6)
C5A C 0.68849(5) 0.17252(10) 0.21984(7)
H3A H 0.6683 0.1128 0.2512
C6A C 0.75034(5) 0.15796(10) 0.20342(7)
H4A H 0.7713 0.0870 0.2247
C7A C 0.78294(4) 0.24528(10) 0.15615(7)
C8A C 0.75234(4) 0.35555(9) 0.13042(7)
H5A H 0.7733 0.4179 0.1024
C9A C 0.69036(4) 0.37289(9) 0.14655(6)
C10A C 0.64715(4) 0.47324(9) 0.12366(6)
C11A C 0.58902(4) 0.43616(9) 0.15003(6)
C12A C 0.53710(5) 0.51101(10) 0.13158(8)
H6A H 0.4982 0.4868 0.1477
C13A C 0.54542(5) 0.62320(10) 0.08825(8)
H7A H 0.5109 0.6733 0.0749
C14A C 0.60320(5) 0.66495(9) 0.06357(7)
C15A C 0.65421(4) 0.58716(9) 0.08177(7)
H8A H 0.6931 0.6115 0.0658
C16A C 0.84954(4) 0.21832(10) 0.13393(7)
C17A C 0.85720(6) 0.07775(13) 0.11405(11)
H9A H 0.8294 0.0550 0.0668
H10A H 0.8991 0.0618 0.1004
H11A H 0.8479 0.0285 0.1626
C18A C 0.89383(6) 0.25244(16) 0.20883(10)
H12A H 0.8831 0.2056 0.2577
H13A H 0.9354 0.2322 0.1958
H14A H 0.8909 0.3411 0.2202
C19A C 0.86612(6) 0.29241(16) 0.05570(10)
H15A H 0.8380 0.2704 0.0087
H16A H 0.8631 0.3812 0.0668
H17A H 0.9077 0.2722 0.0424
C20A C 0.61148(5) 0.79153(10) 0.01910(8)
C21A C 0.63365(11) 0.77041(17) -0.06889(11)
H18A H 0.6709 0.7211 -0.0649
H19A H 0.6023 0.7264 -0.1029
H20A H 0.6417 0.8504 -0.0945
C22A C 0.66102(8) 0.87077(14) 0.07080(12)
H21A H 0.6477 0.8850 0.1267
H22A H 0.6997 0.8259 0.0744
H23A H 0.6663 0.9503 0.0432
C23A C 0.55224(8) 0.86996(16) 0.01255(16)
H24A H 0.5381 0.8835 0.0682
H25A H 0.5604 0.9499 -0.0131
H26A H 0.5209 0.8259 -0.0215
C24? C 0.4340(7) 0.7829(14) 0.5640(7)
H27? H 0.4200 0.7177 0.6003
H28? H 0.4751 0.7637 0.5484
H29? H 0.4342 0.8622 0.5934
C25? C 0.4127(7) 0.8929(9) 0.4286(8)
H30? H 0.4534 0.8708 0.4127
H31? H 0.3858 0.9039 0.3786
H32? H 0.4147 0.9701 0.4604
C26? C 0.3256(5) 0.8130(12) 0.5102(10)
H33? H 0.3138 0.7424 0.5436
H34? H 0.3256 0.8883 0.5438
H35? H 0.2967 0.8221 0.4620
loop_
_geom_bond_atom_site_label_1
_geom_bond_atom_site_label_2
_geom_bond_site_symmetry_1
_geom_bond_site_symmetry_2
N1 C3 1_555 1_555
N2 C3 1_555 1_555
C1 H1 1_555 1_555
C2 C1 1_555 1_555
H2 C2 1_555 1_555
C3 C2 1_555 1_555
C4 N2 1_555 1_555
C5 C4 1_555 1_555
H3 C5 1_555 1_555
C6 C5 1_555 1_555
H4 C6 1_555 1_555
C7 C6 1_555 1_555
C8 C7 1_555 1_555
H5 C8 1_555 1_555
C9 C4 1_555 1_555
C10 C9 1_555 1_555
C11 N2 1_555 1_555
C12 C11 1_555 1_555
H6 C12 1_555 1_555
C13 C12 1_555 1_555
H7 C13 1_555 1_555
C14 C13 1_555 1_555
C15 C10 1_555 1_555
H8 C15 1_555 1_555
C16 C7 1_555 1_555
C17 C16 1_555 1_555
H9 C17 1_555 1_555
H10 C17 1_555 1_555
H11 C17 1_555 1_555
C18 C16 1_555 1_555
H12 C18 1_555 1_555
H13 C18 1_555 1_555
H14 C18 1_555 1_555
C19 C16 1_555 1_555
H15 C19 1_555 1_555
H16 C19 1_555 1_555
H17 C19 1_555 1_555
C20 C14 1_555 1_555
C21 C20 1_555 1_555
H18 C21 1_555 1_555
H19 C21 1_555 1_555
H20 C21 1_555 1_555
C22 C20 1_555 1_555
H21 C22 1_555 1_555
H22 C22 1_555 1_555
H23 C22 1_555 1_555
C23 C20 1_555 1_555
H24 C23 1_555 1_555
H25 C23 1_555 1_555
H26 C23 1_555 1_555
N2A C3A 1_555 1_555
C2A C1 1_555 1_555
H2A C2A 1_555 1_555
C3A N1 1_555 1_555
C4A N2A 1_555 1_555
C5A C4A 1_555 1_555
H3A C5A 1_555 1_555
C6A C5A 1_555 1_555
H4A C6A 1_555 1_555
C7A C6A 1_555 1_555
C8A C7A 1_555 1_555
H5A C8A 1_555 1_555
C9A C4A 1_555 1_555
C10A C9A 1_555 1_555
C11A N2A 1_555 1_555
C12A C11A 1_555 1_555
H6A C12A 1_555 1_555
C13A C12A 1_555 1_555
H7A C13A 1_555 1_555
C14A C13A 1_555 1_555
C15A C10A 1_555 1_555
H8A C15A 1_555 1_555
C16A C7A 1_555 1_555
C17A C16A 1_555 1_555
H9A C17A 1_555 1_555
H10A C17A 1_555 1_555
H11A C17A 1_555 1_555
C18A C16A 1_555 1_555
H12A C18A 1_555 1_555
H13A C18A 1_555 1_555
H14A C18A 1_555 1_555
C19A C16A 1_555 1_555
H15A C19A 1_555 1_555
H16A C19A 1_555 1_555
H17A C19A 1_555 1_555
C20A C14A 1_555 1_555
C21A C20A 1_555 1_555
H18A C21A 1_555 1_555
H19A C21A 1_555 1_555
H20A C21A 1_555 1_555
C22A C20A 1_555 1_555
H21A C22A 1_555 1_555
H22A C22A 1_555 1_555
H23A C22A 1_555 1_555
C23A C20A 1_555 1_555
H24A C23A 1_555 1_555
H25A C23A 1_555 1_555
H26A C23A 1_555 1_555
C8 C9 1_555 1_555
C10 C11 1_555 1_555
C14 C15 1_555 1_555
C2A C3A 1_555 1_555
C8A C9A 1_555 1_555
C10A C11A 1_555 1_555
C14A C15A 1_555 1_555

#END
