
#######################################################################
#
#                 Cambridge Crystallographic Data Centre
#                                CCDC 
#
#######################################################################
#
# If this CIF has been generated from an entry in the Cambridge 
# Structural Database, then it will include bibliographic, chemical, 
# crystal, experimental, refinement or atomic coordinate data resulting 
# from the CCDC's data processing and validation procedures.
#
#######################################################################

data_LEKREY
_chemical_formula_moiety         '2(C19 H16 O3 S3),C1 Cl4'
_chemical_name_systematic        
'bis(tris(5-Acetyl-3-thienyl)methane) carbon tetrachloride clathrate'
_symmetry_cell_setting           triclinic
_symmetry_space_group_name_H-M   'P -1'
_symmetry_Int_Tables_number      2
_space_group_name_Hall           '-P 1'
loop_
_symmetry_equiv_pos_site_id
_symmetry_equiv_pos_as_xyz
1 x,y,z
2 -x,-y,-z
_cell_length_a                   11.638(3)
_cell_length_b                   13.684(3)
_cell_length_c                   14.235(5)
_cell_angle_alpha                88.90(2)
_cell_angle_beta                 77.46(2)
_cell_angle_gamma                78.77(2)
_cell_volume                     2169.91
_exptl_crystal_colour            'pale yellow'
_cell_formula_units_Z            2
loop_
_atom_site_label
_atom_site_type_symbol
_atom_site_fract_x
_atom_site_fract_y
_atom_site_fract_z
S1 S -0.0533(2) 0.4386(2) 0.6826(2)
S2 S 0.1310(2) 0.0885(1) 0.3695(1)
S3 S 0.4920(2) 0.0824(2) 0.6499(2)
O1 O 0.0487(6) 0.6132(4) 0.6079(4)
O2 O 0.1645(5) -0.1227(3) 0.3094(3)
O3 O 0.3797(5) 0.0706(4) 0.9281(3)
C1 C 0.1415(6) 0.1601(5) 0.6417(4)
C2 C 0.0945(6) 0.2711(5) 0.6478(4)
C3 C -0.0206(6) 0.3123(5) 0.6895(5)
C4 C 0.0892(7) 0.4396(5) 0.6224(5)
C5 C 0.1603(7) 0.3455(5) 0.6087(4)
C6 C 0.1272(9) 0.5354(6) 0.5928(6)
C7 C 0.2536(10) 0.5356(6) 0.5502(7)
C8 C 0.1412(6) 0.1147(5) 0.5452(4)
C9 C 0.1235(7) 0.1658(5) 0.4650(5)
C10 C 0.1588(6) -0.0152(4) 0.4369(4)
C11 C 0.1626(6) 0.0101(4) 0.5279(4)
C12 C 0.1737(6) -0.1137(5) 0.3917(5)
C13 C 0.2016(8) -0.2021(5) 0.4536(6)
C14 C 0.2653(6) 0.1315(4) 0.6644(4)
C15 C 0.3714(7) 0.1161(6) 0.5991(5)
C16 C 0.4010(6) 0.0874(5) 0.7634(5)
C17 C 0.2818(6) 0.1147(4) 0.7615(5)
C18 C 0.4505(6) 0.0653(5) 0.8500(5)
C19 C 0.5825(7) 0.0367(6) 0.8409(6)
H1 H 0.081 0.127 0.696
H2 H -0.084 0.269 0.726
H3 H 0.254 0.330 0.573
H4 H 0.263 0.567 0.479
H5 H 0.292 0.578 0.595
H6 H 0.305 0.460 0.542
H7 H 0.106 0.246 0.462
H8 H 0.179 -0.044 0.582
H9 H 0.134 -0.247 0.461
H10 H 0.287 -0.248 0.421
H11 H 0.205 -0.178 0.525
H12 H 0.378 0.126 0.523
H13 H 0.210 0.123 0.825
H14 H 0.614 0.088 0.881
H15 H 0.606 -0.037 0.867
H16 H 0.628 0.037 0.766
S4 S 0.4792(2) 0.2187(2) 0.1441(2)
S5 S 0.1214(2) 0.3780(1) -0.1278(1)
S6 S -0.0841(2) 0.0962(1) 0.2117(1)
O4 O 0.3997(6) 0.2922(6) 0.4166(4)
O5 O 0.1878(3) 0.5681(3) -0.1994(3)
O6 O -0.0076(5) -0.1062(4) 0.1207(4)
C20 C 0.1257(4) 0.3007(4) 0.1485(4)
C21 C 0.2520(6) 0.2777(4) 0.1682(5)
C22 C 0.3522(6) 0.2404(6) 0.1001(5)
C23 C 0.3981(7) 0.2604(5) 0.2573(5)
C24 C 0.2749(6) 0.2921(5) 0.2630(5)
C25 C 0.4588(8) 0.2611(7) 0.3379(6)
C26 C 0.5912(9) 0.2241(9) 0.3229(7)
C27 C 0.1273(6) 0.3474(4) 0.0498(4)
C28 C 0.1059(6) 0.3038(5) -0.0292(5)
C29 C 0.1573(6) 0.4689(4) -0.0638(4)
C30 C 0.1568(6) 0.4425(4) 0.0292(4)
C31 C 0.1881(6) 0.5590(5) -0.1131(5)
C32 C 0.2194(7) 0.6363(5) -0.0570(6)
C33 C 0.0685(6) 0.2094(4) 0.1595(4)
C34 C -0.0417(6) 0.2088(5) 0.2159(5)
C35 C 0.0495(6) 0.0468(5) 0.1330(4)
C36 C 0.1211(6) 0.1158(4) 0.1122(4)
C37 C 0.0694(6) -0.0560(5) 0.0967(5)
C38 C 0.1862(7) -0.0965(5) 0.0311(6)
H17 H 0.072 0.356 0.201
H18 H 0.351 0.227 0.026
H19 H 0.210 0.323 0.327
H20 H 0.615 0.162 0.368
H21 H 0.636 0.282 0.338
H22 H 0.631 0.200 0.249
H23 H 0.082 0.231 -0.029
H24 H 0.177 0.489 0.081
H25 H 0.158 0.706 -0.058
H26 H 0.309 0.647 -0.088
H27 H 0.215 0.614 0.017
H28 H -0.096 0.272 0.260
H29 H 0.209 0.100 0.065
H30 H 0.175 -0.120 -0.038
H31 H 0.235 -0.159 0.062
H32 H 0.242 -0.041 0.019
C39 C 0.4522(8) 0.6037(7) 0.1936(7)
Cl1 Cl 0.3308(3) 0.6969(2) 0.2099(3)
Cl2 Cl 0.5344(5) 0.6194(4) 0.0806(4)
Cl3 Cl 0.5440(7) 0.6191(6) 0.2717(6)
Cl4 Cl 0.4143(7) 0.4949(4) 0.2037(6)
Cl5? Cl 0.5685(9) 0.6545(7) 0.1955(9)
Cl6? Cl 0.4192(15) 0.5362(9) 0.2969(9)
Cl7? Cl 0.4830(13) 0.5178(9) 0.1037(10)
loop_
_geom_bond_atom_site_label_1
_geom_bond_atom_site_label_2
_geom_bond_site_symmetry_1
_geom_bond_site_symmetry_2
S1 C3 1_555 1_555
S2 C9 1_555 1_555
S3 C15 1_555 1_555
O1 C6 1_555 1_555
O2 C12 1_555 1_555
O3 C18 1_555 1_555
C1 C2 1_555 1_555
C2 C3 1_555 1_555
C3 H2 1_555 1_555
C4 S1 1_555 1_555
C5 C2 1_555 1_555
C6 C4 1_555 1_555
C7 C6 1_555 1_555
C8 C1 1_555 1_555
C9 C8 1_555 1_555
C10 S2 1_555 1_555
C11 C8 1_555 1_555
C12 C10 1_555 1_555
C13 C12 1_555 1_555
C14 C1 1_555 1_555
C15 C14 1_555 1_555
C16 S3 1_555 1_555
C17 C14 1_555 1_555
C18 C16 1_555 1_555
C19 C18 1_555 1_555
H1 C1 1_555 1_555
H3 C5 1_555 1_555
H4 C7 1_555 1_555
H5 C7 1_555 1_555
H6 C7 1_555 1_555
H7 C9 1_555 1_555
H8 C11 1_555 1_555
H9 C13 1_555 1_555
H10 C13 1_555 1_555
H11 C13 1_555 1_555
H12 C15 1_555 1_555
H13 C17 1_555 1_555
H14 C19 1_555 1_555
H15 C19 1_555 1_555
H16 C19 1_555 1_555
S4 C22 1_555 1_555
S5 C28 1_555 1_555
S6 C34 1_555 1_555
O4 C25 1_555 1_555
O5 C31 1_555 1_555
O6 C37 1_555 1_555
C20 C21 1_555 1_555
C21 C22 1_555 1_555
C22 H18 1_555 1_555
C23 S4 1_555 1_555
C24 C21 1_555 1_555
C25 C23 1_555 1_555
C26 C25 1_555 1_555
C27 C20 1_555 1_555
C28 C27 1_555 1_555
C29 S5 1_555 1_555
C30 C27 1_555 1_555
C31 C29 1_555 1_555
C32 C31 1_555 1_555
C33 C20 1_555 1_555
C34 C33 1_555 1_555
C35 S6 1_555 1_555
C36 C33 1_555 1_555
C37 C35 1_555 1_555
C38 C37 1_555 1_555
H17 C20 1_555 1_555
H19 C24 1_555 1_555
H20 C26 1_555 1_555
H21 C26 1_555 1_555
H22 C26 1_555 1_555
H23 C28 1_555 1_555
H24 C30 1_555 1_555
H25 C32 1_555 1_555
H26 C32 1_555 1_555
H27 C32 1_555 1_555
H28 C34 1_555 1_555
H29 C36 1_555 1_555
H30 C38 1_555 1_555
H31 C38 1_555 1_555
H32 C38 1_555 1_555
C39 Cl1 1_555 1_555
Cl2 C39 1_555 1_555
Cl3 C39 1_555 1_555
Cl4 C39 1_555 1_555
C4 C5 1_555 1_555
C10 C11 1_555 1_555
C16 C17 1_555 1_555
C23 C24 1_555 1_555
C29 C30 1_555 1_555
C35 C36 1_555 1_555

#END
