
#######################################################################
#
#                 Cambridge Crystallographic Data Centre
#                                CCDC 
#
#######################################################################
#
# If this CIF has been generated from an entry in the Cambridge 
# Structural Database, then it will include bibliographic, chemical, 
# crystal, experimental, refinement or atomic coordinate data resulting 
# from the CCDC's data processing and validation procedures.
#
#######################################################################

data_LELBOW
_chemical_formula_moiety         'C12 H6 F4 O2 S1'
_chemical_name_systematic        
'methyl 3-(2,3,5,6-tetrafluorophenyl)thiophene-2-carboxylate'
_symmetry_cell_setting           monoclinic
_symmetry_space_group_name_H-M   'P 21/n'
_symmetry_Int_Tables_number      14
_space_group_name_Hall           '-P 2yn'
loop_
_symmetry_equiv_pos_site_id
_symmetry_equiv_pos_as_xyz
1 x,y,z
2 1/2-x,1/2+y,1/2-z
3 -x,-y,-z
4 1/2+x,1/2-y,1/2+z
_cell_length_a                   10.0283(5)
_cell_length_b                   7.9532(4)
_cell_length_c                   28.4561(13)
_cell_angle_alpha                90
_cell_angle_beta                 92.546(2)
_cell_angle_gamma                90
_cell_volume                     2267.33
_exptl_crystal_colour            'light colorless'
_exptl_crystal_description       block
_cell_formula_units_Z            8
loop_
_atom_site_label
_atom_site_type_symbol
_atom_site_fract_x
_atom_site_fract_y
_atom_site_fract_z
S1 S 0.69723(5) 0.65921(7) 0.35237(2)
F1 F 0.25287(12) 0.78968(16) 0.33847(4)
F2 F -0.00145(11) 0.73387(17) 0.35661(4)
F3 F 0.38775(12) 0.44787(17) 0.46766(4)
F4 F 0.13226(13) 0.40011(16) 0.48702(4)
O1 O 0.35510(15) 0.4863(2) 0.30231(5)
O2 O 0.56581(14) 0.4761(2) 0.27889(5)
C1 C 0.53097(19) 0.6054(3) 0.35025(7)
C2 C 0.47205(19) 0.6443(3) 0.39195(7)
C3 C 0.5651(2) 0.7156(3) 0.42520(8)
H1 H 0.5430 0.7484 0.4560
C4 C 0.6891(2) 0.7321(3) 0.40846(8)
H2 H 0.7629 0.7789 0.4260
C5 C 0.32957(19) 0.6166(3) 0.40168(7)
C6 C 0.2932(2) 0.5213(3) 0.43984(7)
C7 C 0.1610(2) 0.4966(3) 0.44966(7)
C8 C 0.0592(2) 0.5657(3) 0.42218(7)
H3 H -0.0317 0.5479 0.4289
C9 C 0.0944(2) 0.6618(3) 0.38463(7)
C10 C 0.22555(19) 0.6885(3) 0.37460(7)
C11 C 0.4718(2) 0.5183(3) 0.30873(7)
C12 C 0.5176(2) 0.3901(3) 0.23653(7)
H4 H 0.5933 0.3613 0.2174
H5 H 0.4561 0.4638 0.2184
H6 H 0.4708 0.2871 0.2451
S2 S 1.16004(5) 0.24873(7) 0.34036(2)
F5 F 0.45580(13) 0.03213(19) 0.30990(5)
F6 F 0.70365(12) 0.09222(17) 0.28533(4)
F7 F 0.81331(12) 0.28940(16) 0.43905(4)
F8 F 0.57058(13) 0.20564(19) 0.46477(5)
O3 O 0.95754(14) -0.00617(19) 0.42982(5)
O4 O 1.17257(14) 0.07528(19) 0.42671(5)
C13 C 1.02374(19) 0.1762(3) 0.36873(7)
C14 C 0.90533(19) 0.2274(3) 0.34609(7)
C15 C 0.9292(2) 0.3244(3) 0.30556(7)
H7 H 0.8601 0.3697 0.2854
C16 C 1.0612(2) 0.3461(3) 0.29846(7)
H8 H 1.0945 0.4084 0.2730
C17 C 0.76932(19) 0.1903(3) 0.36134(7)
C18 C 0.6721(2) 0.1257(3) 0.32988(7)
C19 C 0.5435(2) 0.0939(3) 0.34268(8)
C20 C 0.5057(2) 0.1209(3) 0.38768(8)
H9 H 0.4174 0.0976 0.3966
C21 C 0.6010(2) 0.1831(3) 0.41947(7)
C22 C 0.7280(2) 0.2201(3) 0.40663(7)
C23 C 1.0437(2) 0.0720(3) 0.41099(7)
C24 C 1.2023(2) -0.0120(3) 0.47064(7)
H10 H 1.1831 -0.1321 0.4666
H11 H 1.1471 0.0339 0.4951
H12 H 1.2969 0.0030 0.4799
loop_
_geom_bond_atom_site_label_1
_geom_bond_atom_site_label_2
_geom_bond_site_symmetry_1
_geom_bond_site_symmetry_2
S1 C1 1_555 1_555
F1 C10 1_555 1_555
F2 C9 1_555 1_555
F3 C6 1_555 1_555
F4 C7 1_555 1_555
O1 C11 1_555 1_555
O2 C11 1_555 1_555
C1 C2 1_555 1_555
C2 C3 1_555 1_555
C3 H1 1_555 1_555
C4 S1 1_555 1_555
H2 C4 1_555 1_555
C5 C2 1_555 1_555
C6 C5 1_555 1_555
C7 C6 1_555 1_555
C8 C7 1_555 1_555
H3 C8 1_555 1_555
C9 C8 1_555 1_555
C10 C5 1_555 1_555
C11 C1 1_555 1_555
C12 O2 1_555 1_555
H4 C12 1_555 1_555
H5 C12 1_555 1_555
H6 C12 1_555 1_555
S2 C13 1_555 1_555
F5 C19 1_555 1_555
F6 C18 1_555 1_555
F7 C22 1_555 1_555
F8 C21 1_555 1_555
O3 C23 1_555 1_555
O4 C23 1_555 1_555
C13 C14 1_555 1_555
C14 C15 1_555 1_555
C15 H7 1_555 1_555
C16 S2 1_555 1_555
H8 C16 1_555 1_555
C17 C14 1_555 1_555
C18 C17 1_555 1_555
C19 C18 1_555 1_555
C20 C19 1_555 1_555
H9 C20 1_555 1_555
C21 C20 1_555 1_555
C22 C17 1_555 1_555
C23 C13 1_555 1_555
C24 O4 1_555 1_555
H10 C24 1_555 1_555
H11 C24 1_555 1_555
H12 C24 1_555 1_555
C3 C4 1_555 1_555
C9 C10 1_555 1_555
C15 C16 1_555 1_555
C21 C22 1_555 1_555

#END
