
#######################################################################
#
#                 Cambridge Crystallographic Data Centre
#                                CCDC 
#
#######################################################################
#
# If this CIF has been generated from an entry in the Cambridge 
# Structural Database, then it will include bibliographic, chemical, 
# crystal, experimental, refinement or atomic coordinate data resulting 
# from the CCDC's data processing and validation procedures.
#
#######################################################################

data_LELHES
_chemical_formula_moiety         
'C16 H26 Ca2 Cl4 O12 2+,2(C8 H5 Cl2 O2 1-),2(H2 O1)'
_chemical_name_systematic        
'bis(\m-(2,4-dichlorophenyl)acetato)-octa-aqua-di-calcium(ii) bis((2,4-dichlorophenyl)acetate) dihydrate'
_symmetry_cell_setting           triclinic
_symmetry_space_group_name_H-M   'P -1'
_symmetry_Int_Tables_number      2
_space_group_name_Hall           '-P 1'
loop_
_symmetry_equiv_pos_site_id
_symmetry_equiv_pos_as_xyz
1 x,y,z
2 -x,-y,-z
_cell_length_a                   7.8566(3)
_cell_length_b                   9.5532(4)
_cell_length_c                   16.2239(7)
_cell_angle_alpha                106.9250(10)
_cell_angle_beta                 98.0570(10)
_cell_angle_gamma                94.4390(10)
_cell_volume                     1144.44
_exptl_crystal_colour            colorless
_exptl_crystal_description       block
_cell_formula_units_Z            1
loop_
_atom_site_label
_atom_site_type_symbol
_atom_site_fract_x
_atom_site_fract_y
_atom_site_fract_z
Ca1 Ca 0.83556(5) 0.64124(5) 0.52526(3)
Cl1 Cl 0.84758(10) 0.43621(10) 0.18437(7)
Cl2 Cl 0.19706(12) 0.40994(11) 0.02454(5)
O1 O 0.9277(3) 0.88049(19) 0.63176(15)
H1 H 0.861(3) 0.942(3) 0.651(2)
H2 H 1.022(2) 0.923(3) 0.627(2)
O2 O 0.8872(2) 0.40116(17) 0.42553(10)
O3 O 0.6397(2) 0.48056(18) 0.39512(11)
O4 O 0.5843(2) 0.7631(2) 0.52724(14)
H3 H 0.588(4) 0.8539(14) 0.5556(19)
H4 H 0.482(2) 0.728(3) 0.503(2)
O5 O 0.7123(2) 0.5141(2) 0.60931(13)
H5 H 0.612(2) 0.527(3) 0.620(2)
H6 H 0.738(4) 0.431(2) 0.612(2)
O6 O 0.9205(3) 0.7620(2) 0.42729(14)
H7 H 1.012(3) 0.757(3) 0.405(2)
H8 H 0.879(4) 0.841(2) 0.426(2)
C1 C 0.7441(3) 0.3886(2) 0.37593(14)
C2 C 0.6988(4) 0.2598(3) 0.29287(16)
H9 H 0.8042 0.2343 0.2706
H10 H 0.6476 0.1752 0.3064
C3 C 0.5746(3) 0.2917(2) 0.22290(15)
C4 C 0.3985(3) 0.2450(3) 0.20957(17)
H11 H 0.3577 0.1894 0.2428
C5 C 0.2821(4) 0.2788(3) 0.14820(18)
H12 H 0.1645 0.2463 0.1402
C6 C 0.3425(4) 0.3607(3) 0.09932(17)
C7 C 0.5150(4) 0.4066(3) 0.10858(17)
H13 H 0.5550 0.4598 0.0739
C8 C 0.6292(3) 0.3722(3) 0.17097(17)
Ca1A Ca 1.16444(5) 0.35876(5) 0.47474(3)
Cl1A Cl 1.15242(10) 0.56379(10) 0.81563(7)
Cl2A Cl 1.80294(12) 0.59006(11) 0.97546(5)
O1A O 1.0723(3) 0.11951(19) 0.36824(15)
H1A H 1.139(3) 0.058(3) 0.349(2)
H2A H 0.978(2) 0.077(3) 0.373(2)
O2A O 1.1128(2) 0.59884(17) 0.57447(10)
O3A O 1.3603(2) 0.51944(18) 0.60488(11)
O4A O 1.4157(2) 0.2369(2) 0.47276(14)
H3A H 1.412(4) 0.1461(14) 0.4444(19)
H4A H 1.518(2) 0.272(3) 0.497(2)
O5A O 1.2877(2) 0.4859(2) 0.39069(13)
H5A H 1.388(2) 0.473(3) 0.380(2)
H6A H 1.262(4) 0.569(2) 0.388(2)
O6A O 1.0795(3) 0.2380(2) 0.57271(14)
H7A H 0.988(3) 0.243(3) 0.595(2)
H8A H 1.121(4) 0.159(2) 0.574(2)
C1A C 1.2559(3) 0.6114(2) 0.62407(14)
C2A C 1.3012(4) 0.7402(3) 0.70713(16)
H9A H 1.1958 0.7657 0.7294
H10A H 1.3524 0.8248 0.6936
C3A C 1.4254(3) 0.7083(2) 0.77710(15)
C4A C 1.6015(3) 0.7550(3) 0.79043(17)
H11A H 1.6423 0.8106 0.7572
C5A C 1.7179(4) 0.7212(3) 0.85180(18)
H12A H 1.8355 0.7537 0.8598
C6A C 1.6575(4) 0.6393(3) 0.90068(17)
C7A C 1.4850(4) 0.5934(3) 0.89142(17)
H13A H 1.4450 0.5402 0.9261
C8A C 1.3708(3) 0.6278(3) 0.82903(17)
Cl3 Cl 0.20133(10) 0.83295(12) 0.12973(7)
Cl4 Cl 0.82000(10) 1.00841(9) 0.07030(5)
O7 O 0.2545(3) 0.7744(2) 0.39247(14)
O8 O 0.3931(3) 0.95860(19) 0.36283(13)
C9 C 0.3429(3) 0.8258(3) 0.34630(16)
C10 C 0.3961(4) 0.7147(3) 0.26930(19)
H14 H 0.4640 0.6484 0.2911
H15 H 0.2925 0.6563 0.2315
C11 C 0.4993(3) 0.7816(2) 0.21594(16)
C12 C 0.4242(3) 0.8399(3) 0.15279(17)
C13 C 0.5205(3) 0.9078(3) 0.10698(17)
H16 H 0.4664 0.9456 0.0648
C14 C 0.6972(3) 0.9182(3) 0.12513(16)
C15 C 0.7774(3) 0.8588(3) 0.18550(17)
H17 H 0.8975 0.8643 0.1965
C16 C 0.6772(4) 0.7908(3) 0.22970(17)
H18 H 0.7318 0.7499 0.2702
O9 O 0.7670(2) 1.0205(2) 0.43115(14)
H19 H 0.664(2) 0.999(4) 0.4028(17)
H20 H 0.768(4) 1.079(3) 0.4817(11)
loop_
_geom_bond_atom_site_label_1
_geom_bond_atom_site_label_2
_geom_bond_site_symmetry_1
_geom_bond_site_symmetry_2
Ca1 O1 1_555 1_555
Cl1 C8 1_555 1_555
Cl2 C6 1_555 1_555
O1 H1 1_555 1_555
H2 O1 1_555 1_555
O2 Ca1 1_555 1_555
O3 Ca1 1_555 1_555
O4 Ca1 1_555 1_555
H3 O4 1_555 1_555
H4 O4 1_555 1_555
O5 Ca1 1_555 1_555
H5 O5 1_555 1_555
H6 O5 1_555 1_555
O6 Ca1 1_555 1_555
H7 O6 1_555 1_555
H8 O6 1_555 1_555
C1 O2 1_555 1_555
C2 C1 1_555 1_555
H9 C2 1_555 1_555
H10 C2 1_555 1_555
C3 C2 1_555 1_555
C4 C3 1_555 1_555
H11 C4 1_555 1_555
C5 C4 1_555 1_555
H12 C5 1_555 1_555
C6 C5 1_555 1_555
C7 C6 1_555 1_555
H13 C7 1_555 1_555
C8 C3 1_555 1_555
Cl3 C12 1_555 1_555
Cl4 C14 1_555 1_555
O7 C9 1_555 1_555
O8 C9 1_555 1_555
C9 C10 1_555 1_555
C10 H14 1_555 1_555
H15 C10 1_555 1_555
C11 C10 1_555 1_555
C12 C11 1_555 1_555
C13 C12 1_555 1_555
H16 C13 1_555 1_555
C14 C13 1_555 1_555
C15 C14 1_555 1_555
H17 C15 1_555 1_555
C16 C11 1_555 1_555
H18 C16 1_555 1_555
O9 H19 1_555 1_555
H20 O9 1_555 1_555
Ca1A O2 1_555 1_555
Cl1A C8A 1_555 1_555
Cl2A C6A 1_555 1_555
O1A Ca1A 1_555 1_555
H1A O1A 1_555 1_555
H2A O1A 1_555 1_555
O2A Ca1 1_555 1_555
O3A Ca1A 1_555 1_555
O4A Ca1A 1_555 1_555
H3A O4A 1_555 1_555
H4A O4A 1_555 1_555
O5A Ca1A 1_555 1_555
H5A O5A 1_555 1_555
H6A O5A 1_555 1_555
O6A Ca1A 1_555 1_555
H7A O6A 1_555 1_555
H8A O6A 1_555 1_555
C1A O2A 1_555 1_555
C2A C1A 1_555 1_555
H9A C2A 1_555 1_555
H10A C2A 1_555 1_555
C3A C2A 1_555 1_555
C4A C3A 1_555 1_555
H11A C4A 1_555 1_555
C5A C4A 1_555 1_555
H12A C5A 1_555 1_555
C6A C5A 1_555 1_555
C7A C6A 1_555 1_555
H13A C7A 1_555 1_555
C8A C3A 1_555 1_555
O3 C1 1_555 1_555
C7 C8 1_555 1_555
C15 C16 1_555 1_555
Ca1A O2A 1_555 1_555
O3A C1A 1_555 1_555
C7A C8A 1_555 1_555

#END
