
#######################################################################
#
#                 Cambridge Crystallographic Data Centre
#                                CCDC 
#
#######################################################################
#
# If this CIF has been generated from an entry in the Cambridge 
# Structural Database, then it will include bibliographic, chemical, 
# crystal, experimental, refinement or atomic coordinate data resulting 
# from the CCDC's data processing and validation procedures.
#
#######################################################################

data_LELHAN
_chemical_formula_moiety         'C14 H13 Cl1 N2 O2'
_chemical_name_systematic        'Ethyl 2-amino-6-(4-chlorophenyl)nicotinate'
_symmetry_cell_setting           monoclinic
_symmetry_space_group_name_H-M   'P 21/c'
_symmetry_Int_Tables_number      14
_space_group_name_Hall           '-P 2ybc'
loop_
_symmetry_equiv_pos_site_id
_symmetry_equiv_pos_as_xyz
1 x,y,z
2 -x,1/2+y,1/2-z
3 -x,-y,-z
4 x,1/2-y,1/2+z
_cell_length_a                   15.501(3)
_cell_length_b                   15.080(3)
_cell_length_c                   11.907(3)
_cell_angle_alpha                90
_cell_angle_beta                 102.794(3)
_cell_angle_gamma                90
_cell_volume                     2714.22
_exptl_crystal_colour            'light blue'
_exptl_crystal_description       block
_cell_formula_units_Z            8
loop_
_atom_site_label
_atom_site_type_symbol
_atom_site_fract_x
_atom_site_fract_y
_atom_site_fract_z
Cl1 Cl 0.34414(4) 0.06827(5) 0.96429(6)
N2 N -0.07399(11) 0.07527(10) 0.65340(13)
C1 C 0.04996(13) 0.07000(12) 0.81536(15)
C4 C -0.04686(14) 0.06633(12) 0.76775(16)
C7 C -0.22526(14) 0.05923(13) 0.67258(17)
C9 C 0.08500(15) 0.10491(13) 0.92390(16)
H4 H 0.0470 0.1279 0.9670
C10 C -0.16120(14) 0.07210(12) 0.60567(16)
C11 C -0.32071(16) 0.05974(15) 0.6197(2)
N4 N -0.18379(12) 0.08259(12) 0.49041(13)
H7 H -0.1434 0.0907 0.4522
H8 H -0.2385 0.0812 0.4551
C15 C 0.23102(14) 0.07133(14) 0.90575(19)
C17 C 0.19849(15) 0.03771(14) 0.79675(19)
H10 H 0.2369 0.0157 0.7536
C19 C 0.17480(16) 0.10611(14) 0.96897(17)
H12 H 0.1972 0.1302 1.0415
C20 C -0.19417(15) 0.04887(14) 0.79015(18)
H13 H -0.2341 0.0392 0.8368
C21 C 0.10889(14) 0.03708(12) 0.75271(17)
H14 H 0.0870 0.0142 0.6794
O1 O -0.35280(11) 0.06783(13) 0.51840(14)
C23 C -0.10551(15) 0.05261(14) 0.83884(17)
H16 H -0.0850 0.0461 0.9179
O4 O -0.37022(11) 0.05101(12) 0.69790(14)
C26 C -0.46551(17) 0.0495(2) 0.6547(2)
H19 H -0.4816 0.0011 0.6004
H20 H -0.4848 0.1046 0.6149
C27 C -0.5084(2) 0.0381(3) 0.7507(3)
H21 H -0.5714 0.0366 0.7224
H22 H -0.4930 0.0867 0.8034
H23 H -0.4891 -0.0165 0.7897
Cl2 Cl -0.46669(5) 0.30728(6) 0.54837(7)
N1 N -0.04892(10) 0.33366(10) 0.84915(12)
C2 C -0.07540(13) 0.31069(12) 0.73734(15)
C3 C 0.10302(13) 0.32297(12) 0.83049(16)
C5 C 0.03816(13) 0.34032(12) 0.89524(16)
C6 C -0.17227(13) 0.30684(12) 0.69052(16)
N3 N 0.06078(11) 0.36434(11) 1.00688(13)
H1 H 0.0203 0.3744 1.0444
H2 H 0.1156 0.3696 1.0406
C8 C 0.07288(14) 0.29809(13) 0.71694(18)
H3 H 0.1135 0.2850 0.6723
C12 C -0.01595(14) 0.29244(13) 0.66890(17)
H5 H -0.0359 0.2767 0.5920
C13 C -0.35317(15) 0.30578(16) 0.6031(2)
C14 C -0.20814(15) 0.32519(15) 0.57472(17)
H6 H -0.1704 0.3378 0.5260
C16 C -0.32003(15) 0.28658(15) 0.7176(2)
H9 H -0.3581 0.2736 0.7657
C18 C -0.23026(14) 0.28677(13) 0.75985(17)
H11 H -0.2079 0.2731 0.8370
C22 C -0.29774(16) 0.32506(16) 0.53117(19)
H15 H -0.3206 0.3379 0.4539
O2 O 0.24800(10) 0.31089(11) 0.80817(14)
O3 O 0.22959(11) 0.34452(12) 0.98355(15)
C24 C 0.19817(15) 0.32799(14) 0.8837(2)
C25 C 0.34272(16) 0.30883(19) 0.8538(3)
H17 H 0.3574 0.2656 0.9154
H18 H 0.3635 0.3665 0.8843
C28 C 0.3844(2) 0.2845(3) 0.7585(3)
H24 H 0.4475 0.2827 0.7859
H25 H 0.3694 0.3276 0.6981
H26 H 0.3636 0.2272 0.7294
loop_
_geom_bond_atom_site_label_1
_geom_bond_atom_site_label_2
_geom_bond_site_symmetry_1
_geom_bond_site_symmetry_2
Cl1 C15 1_555 1_555
Cl2 C13 1_555 1_555
N1 C2 1_555 1_555
N2 C4 1_555 1_555
C1 C4 1_555 1_555
C2 C6 1_555 1_555
C3 C5 1_555 1_555
C4 C23 1_555 1_555
C5 N1 1_555 1_555
C6 C14 1_555 1_555
N3 C5 1_555 1_555
H1 N3 1_555 1_555
H2 N3 1_555 1_555
C7 C10 1_555 1_555
C8 C3 1_555 1_555
H3 C8 1_555 1_555
C9 C1 1_555 1_555
H4 C9 1_555 1_555
C10 N2 1_555 1_555
C11 C7 1_555 1_555
C12 C2 1_555 1_555
H5 C12 1_555 1_555
C13 C16 1_555 1_555
C14 H6 1_555 1_555
N4 C10 1_555 1_555
H7 N4 1_555 1_555
H8 N4 1_555 1_555
C15 C17 1_555 1_555
C16 H9 1_555 1_555
C17 H10 1_555 1_555
C18 C6 1_555 1_555
H11 C18 1_555 1_555
C19 C9 1_555 1_555
H12 C19 1_555 1_555
C20 C7 1_555 1_555
H13 C20 1_555 1_555
C21 C1 1_555 1_555
H14 C21 1_555 1_555
C22 C13 1_555 1_555
H15 C22 1_555 1_555
O1 C11 1_555 1_555
C23 C20 1_555 1_555
H16 C23 1_555 1_555
O2 C24 1_555 1_555
O3 C24 1_555 1_555
O4 C11 1_555 1_555
C24 C3 1_555 1_555
C25 O2 1_555 1_555
H17 C25 1_555 1_555
H18 C25 1_555 1_555
C26 O4 1_555 1_555
H19 C26 1_555 1_555
H20 C26 1_555 1_555
C27 C26 1_555 1_555
H21 C27 1_555 1_555
H22 C27 1_555 1_555
H23 C27 1_555 1_555
C28 C25 1_555 1_555
H24 C28 1_555 1_555
H25 C28 1_555 1_555
H26 C28 1_555 1_555
C8 C12 1_555 1_555
C14 C22 1_555 1_555
C15 C19 1_555 1_555
C16 C18 1_555 1_555
C17 C21 1_555 1_555

#END
