
#######################################################################
#
#                 Cambridge Crystallographic Data Centre
#                                CCDC 
#
#######################################################################
#
# If this CIF has been generated from an entry in the Cambridge 
# Structural Database, then it will include bibliographic, chemical, 
# crystal, experimental, refinement or atomic coordinate data resulting 
# from the CCDC's data processing and validation procedures.
#
#######################################################################

data_LELKAQ
_chemical_formula_moiety         'C26 H23 N3 O3'
_chemical_name_systematic        
2,5-Dimethyl-3-oxo-N,N',1-triphenyl-2,3-dihydro-1H-pyrrole-2,4-dicarboxamide
_symmetry_cell_setting           triclinic
_symmetry_space_group_name_H-M   'P -1'
_symmetry_Int_Tables_number      2
_space_group_name_Hall           '-P 1'
loop_
_symmetry_equiv_pos_site_id
_symmetry_equiv_pos_as_xyz
1 x,y,z
2 -x,-y,-z
_cell_length_a                   11.1712(11)
_cell_length_b                   12.0660(12)
_cell_length_c                   17.6929(18)
_cell_angle_alpha                70.489(2)
_cell_angle_beta                 83.942(2)
_cell_angle_gamma                86.093(2)
_cell_volume                     2233.98
_exptl_crystal_colour            green
_exptl_crystal_description       block
_cell_formula_units_Z            4
loop_
_atom_site_label
_atom_site_type_symbol
_atom_site_fract_x
_atom_site_fract_y
_atom_site_fract_z
N1 N 1.00110(19) 0.23388(18) 0.02644(14)
H1 H 1.0617 0.1971 0.0513
C1 C 1.2804(2) 0.3935(2) 0.18176(16)
N2 N 1.05840(17) 0.43412(17) 0.19946(13)
N3 N 1.28812(17) 0.49131(18) 0.11591(12)
H2 H 1.2250 0.5146 0.0901
C2 C 1.1532(2) 0.3412(2) 0.20531(15)
C3 C 1.0168(2) 0.3524(2) 0.10763(15)
C4 C 0.9834(2) 0.4356(2) 0.14469(15)
C5 C 0.9553(2) 0.3299(2) 0.04502(15)
C6 C 1.1214(2) 0.2881(2) 0.14233(15)
O1 O 1.18028(15) 0.20520(16) 0.12926(12)
O2 O 1.36340(16) 0.34582(16) 0.22080(12)
O4 O 0.87116(16) 0.39247(15) 0.01210(11)
C7 C 0.8782(2) 0.5209(2) 0.13102(18)
H3 H 0.8782 0.5678 0.1655
H4 H 0.8050 0.4787 0.1430
H5 H 0.8838 0.5711 0.0758
C9 C 1.1486(2) 0.2472(2) 0.28798(16)
H9 H 1.1684 0.2808 0.3270
H10 H 1.2054 0.1843 0.2868
H11 H 1.0689 0.2172 0.3023
C12 C 1.3932(2) 0.5584(2) 0.08634(15)
C14 C 1.4152(2) 0.6131(2) 0.00401(16)
H17 H 1.3625 0.6045 -0.0308
C15 C 1.0390(2) 0.4917(2) 0.25945(16)
C23 C 0.9589(2) 0.1882(2) -0.02993(17)
C24 C 1.4714(2) 0.5723(2) 0.13779(17)
H21 H 1.4567 0.5365 0.1931
C28 C 1.5156(3) 0.6802(2) -0.02613(18)
H23 H 1.5302 0.7169 -0.0814
C30 C 0.8390(3) 0.1925(3) -0.0421(2)
H24 H 0.7824 0.2290 -0.0149
C31 C 1.5717(3) 0.6396(3) 0.1066(2)
H25 H 1.6245 0.6487 0.1413
C32 C 0.9371(3) 0.5059(3) 0.3818(2)
H26 H 0.8777 0.4808 0.4242
C34 C 1.5941(2) 0.6934(3) 0.0248(2)
H28 H 1.6619 0.7382 0.0041
C35 C 0.9503(3) 0.4543(3) 0.32195(18)
H29 H 0.8998 0.3950 0.3239
C39 C 1.0426(3) 0.1326(3) -0.07032(19)
H33 H 1.1238 0.1297 -0.0622
C40 C 1.1136(3) 0.5798(3) 0.2567(2)
H34 H 1.1739 0.6045 0.2149
C42 C 0.8034(3) 0.1419(3) -0.0955(2)
H36 H 0.7225 0.1459 -0.1044
C43 C 0.8848(3) 0.0862(3) -0.1354(2)
H37 H 0.8592 0.0521 -0.1706
C46 C 1.0111(3) 0.5936(3) 0.3788(2)
H40 H 1.0021 0.6278 0.4192
C47 C 1.0045(3) 0.0814(3) -0.1229(2)
H41 H 1.0604 0.0437 -0.1498
C51 C 1.0986(3) 0.6310(3) 0.3161(2)
H45 H 1.1480 0.6912 0.3137
O3 O 0.69919(17) 0.29374(17) 0.36860(13)
O5 O 0.37897(16) 0.13781(17) 0.51362(12)
O6 O 0.88291(17) 0.1556(2) 0.26093(15)
C8 C 0.3892(2) 0.0105(2) 0.39470(17)
H6 H 0.3882 -0.0363 0.3603
H7 H 0.3172 0.0595 0.3908
H8 H 0.3933 -0.0402 0.4494
C10 C 0.6672(2) 0.2576(2) 0.20962(18)
H12 H 0.5874 0.2925 0.2035
H13 H 0.6890 0.2219 0.1688
H14 H 0.7232 0.3172 0.2044
N4 N 0.80602(18) 0.00559(19) 0.36746(13)
H15 H 0.7400 -0.0248 0.3931
N5 N 0.57501(17) 0.07909(18) 0.30805(13)
C11 C 0.4964(2) 0.0857(2) 0.36935(16)
N6 N 0.5200(2) 0.2759(2) 0.49225(15)
H16 H 0.5825 0.3055 0.4612
C13 C 0.9160(2) -0.0539(2) 0.39483(16)
C16 C 0.4520(2) 0.0610(2) 0.20669(18)
H18 H 0.3958 0.1144 0.2188
C17 C 0.5295(2) 0.1664(2) 0.40352(17)
C18 C 0.6375(2) 0.2193(2) 0.35889(17)
C19 C 1.0183(2) -0.0510(2) 0.34283(17)
H19 H 1.0167 -0.0110 0.2880
C20 C 1.1231(2) -0.1083(2) 0.37354(19)
H20 H 1.1920 -0.1064 0.3388
C21 C 0.6703(2) 0.1643(2) 0.29229(17)
C22 C 0.7975(2) 0.1061(2) 0.30432(17)
C25 C 0.5541(2) 0.0273(2) 0.24833(17)
C26 C 0.9188(3) -0.1158(3) 0.47595(18)
H22 H 0.8496 -0.1198 0.5108
C27 C 0.4679(2) 0.1911(2) 0.47379(17)
C29 C 0.4866(3) 0.3227(2) 0.55479(18)
C33 C 0.4343(3) 0.0150(3) 0.1472(2)
H27 H 0.3650 0.0362 0.1200
C36 C 0.6381(3) -0.0511(3) 0.2295(2)
H30 H 0.7067 -0.0739 0.2574
C37 C 1.1273(3) -0.1679(3) 0.4541(2)
H31 H 1.1986 -0.2051 0.4739
C38 C 1.0252(3) -0.1722(3) 0.5052(2)
H32 H 1.0272 -0.2131 0.5599
C41 C 0.5718(3) 0.3871(3) 0.5725(2)
H35 H 0.6486 0.3937 0.5457
C44 C 0.5192(3) -0.0628(3) 0.1278(2)
H38 H 0.5079 -0.0926 0.0870
C45 C 0.3728(3) 0.3122(3) 0.5958(2)
H39 H 0.3151 0.2690 0.5848
C48 C 0.6199(3) -0.0953(3) 0.1692(3)
H42 H 0.6767 -0.1479 0.1566
C49 C 0.3461(4) 0.3672(3) 0.6537(2)
H43 H 0.2702 0.3596 0.6817
C50 C 0.4294(4) 0.4323(3) 0.6701(2)
H44 H 0.4095 0.4699 0.7080
C52 C 0.5423(4) 0.4416(3) 0.6301(2)
H46 H 0.5994 0.4848 0.6417
loop_
_geom_bond_atom_site_label_1
_geom_bond_atom_site_label_2
_geom_bond_site_symmetry_1
_geom_bond_site_symmetry_2
N1 H1 1_555 1_555
C1 N3 1_555 1_555
N2 C2 1_555 1_555
N3 H2 1_555 1_555
C2 C1 1_555 1_555
C3 C4 1_555 1_555
C4 N2 1_555 1_555
C5 N1 1_555 1_555
C6 C2 1_555 1_555
O1 C6 1_555 1_555
O2 C1 1_555 1_555
O3 C18 1_555 1_555
O4 C5 1_555 1_555
O5 C27 1_555 1_555
O6 C22 1_555 1_555
C7 C4 1_555 1_555
H3 C7 1_555 1_555
H4 C7 1_555 1_555
H5 C7 1_555 1_555
C8 H6 1_555 1_555
H7 C8 1_555 1_555
H8 C8 1_555 1_555
C9 C2 1_555 1_555
H9 C9 1_555 1_555
H10 C9 1_555 1_555
H11 C9 1_555 1_555
C10 H12 1_555 1_555
H13 C10 1_555 1_555
H14 C10 1_555 1_555
N4 H15 1_555 1_555
N5 C11 1_555 1_555
C11 C8 1_555 1_555
N6 H16 1_555 1_555
C12 N3 1_555 1_555
C13 N4 1_555 1_555
C14 C12 1_555 1_555
H17 C14 1_555 1_555
C15 N2 1_555 1_555
C16 H18 1_555 1_555
C17 C11 1_555 1_555
C18 C17 1_555 1_555
C19 C13 1_555 1_555
H19 C19 1_555 1_555
C20 C19 1_555 1_555
H20 C20 1_555 1_555
C21 C10 1_555 1_555
C22 N4 1_555 1_555
C23 N1 1_555 1_555
C24 C12 1_555 1_555
H21 C24 1_555 1_555
C25 N5 1_555 1_555
C26 C13 1_555 1_555
H22 C26 1_555 1_555
C27 N6 1_555 1_555
C28 C14 1_555 1_555
H23 C28 1_555 1_555
C29 N6 1_555 1_555
C30 C23 1_555 1_555
H24 C30 1_555 1_555
C31 C24 1_555 1_555
H25 C31 1_555 1_555
C32 H26 1_555 1_555
C33 C16 1_555 1_555
H27 C33 1_555 1_555
C34 C28 1_555 1_555
H28 C34 1_555 1_555
C35 C15 1_555 1_555
H29 C35 1_555 1_555
C36 C25 1_555 1_555
H30 C36 1_555 1_555
C37 C20 1_555 1_555
H31 C37 1_555 1_555
C38 C26 1_555 1_555
H32 C38 1_555 1_555
C39 C23 1_555 1_555
H33 C39 1_555 1_555
C40 C15 1_555 1_555
H34 C40 1_555 1_555
C41 C29 1_555 1_555
H35 C41 1_555 1_555
C42 C30 1_555 1_555
H36 C42 1_555 1_555
C43 C42 1_555 1_555
H37 C43 1_555 1_555
C44 C33 1_555 1_555
H38 C44 1_555 1_555
C45 C29 1_555 1_555
H39 C45 1_555 1_555
C46 C32 1_555 1_555
H40 C46 1_555 1_555
C47 C39 1_555 1_555
H41 C47 1_555 1_555
C48 C36 1_555 1_555
H42 C48 1_555 1_555
C49 C45 1_555 1_555
H43 C49 1_555 1_555
C50 C49 1_555 1_555
H44 C50 1_555 1_555
C51 C40 1_555 1_555
H45 C51 1_555 1_555
C52 C41 1_555 1_555
H46 C52 1_555 1_555
C3 C5 1_555 1_555
C3 C6 1_555 1_555
N5 C21 1_555 1_555
C16 C25 1_555 1_555
C17 C27 1_555 1_555
C18 C21 1_555 1_555
C21 C22 1_555 1_555
C31 C34 1_555 1_555
C32 C35 1_555 1_555
C37 C38 1_555 1_555
C43 C47 1_555 1_555
C44 C48 1_555 1_555
C46 C51 1_555 1_555
C50 C52 1_555 1_555

#END
