
#######################################################################
#
#                 Cambridge Crystallographic Data Centre
#                                CCDC 
#
#######################################################################
#
# If this CIF has been generated from an entry in the Cambridge 
# Structural Database, then it will include bibliographic, chemical, 
# crystal, experimental, refinement or atomic coordinate data resulting 
# from the CCDC's data processing and validation procedures.
#
#######################################################################

data_LELPOJ
_chemical_name_common            4-p-tolyl-1,2,3,5-dithiadiazolyl
_chemical_formula_moiety         'C8 H7 N2 S2'
_chemical_name_systematic        4-(4-Methylphenyl)-3H-1,2,3,5-dithiadiazole
_symmetry_cell_setting           monoclinic
_symmetry_space_group_name_H-M   'C 2/c'
_symmetry_Int_Tables_number      15
_space_group_name_Hall           '-C 2yn'
loop_
_symmetry_equiv_pos_site_id
_symmetry_equiv_pos_as_xyz
1 x,y,z
2 -x,y,1/2-z
3 1/2+x,1/2+y,z
4 1/2-x,1/2+y,1/2-z
5 -x,-y,-z
6 x,-y,1/2+z
7 1/2-x,1/2-y,-z
8 1/2+x,1/2-y,1/2+z
_cell_length_a                   20.940(4)
_cell_length_b                   10.563(2)
_cell_length_c                   14.998(3)
_cell_angle_alpha                90
_cell_angle_beta                 91.14(3)
_cell_angle_gamma                90
_cell_volume                     3316.74
_exptl_crystal_colour            red
_exptl_crystal_description       block
_cell_formula_units_Z            16
loop_
_atom_site_label
_atom_site_type_symbol
_atom_site_fract_x
_atom_site_fract_y
_atom_site_fract_z
S1 S 0.43285(3) 0.06996(5) -0.13993(4)
S4 S 0.33348(3) 0.09017(5) -0.15046(4)
N1 N 0.33044(8) 0.20461(16) -0.07695(11)
C1 C 0.39040(9) 0.34410(18) 0.02279(13)
C3 C 0.33501(10) 0.39958(19) 0.05415(14)
H2 H 0.2945 0.3676 0.0358
C6 C 0.44912(10) 0.39062(19) 0.05209(14)
H5 H 0.4874 0.3522 0.0325
C9 C 0.45222(10) 0.49338(19) 0.11007(14)
H7 H 0.4928 0.5249 0.1290
C11 C 0.38711(9) 0.23844(18) -0.04249(13)
N4 N 0.44161(8) 0.18229(16) -0.06661(12)
C14 C 0.33881(10) 0.50163(19) 0.11226(14)
H11 H 0.3006 0.5388 0.1330
C15 C 0.39743(10) 0.55066(19) 0.14080(13)
C16 C 0.40126(12) 0.6633(2) 0.20229(15)
H12 H 0.3580 0.6908 0.2169
H13 H 0.4237 0.7325 0.1728
H14 H 0.4245 0.6398 0.2572
S2 S 0.41615(3) -0.13406(5) -0.00098(4)
S3 S 0.31655(3) -0.12641(5) -0.01419(4)
N2 N 0.41949(8) -0.03272(15) 0.08104(11)
N3 N 0.30762(8) -0.02597(16) 0.06734(11)
C2 C 0.41604(10) 0.15709(18) 0.21408(13)
H1 H 0.4561 0.1261 0.1950
C4 C 0.41385(10) 0.25151(19) 0.27834(13)
H3 H 0.4526 0.2841 0.3029
C5 C 0.30160(9) 0.15314(19) 0.20738(13)
H4 H 0.2628 0.1195 0.1836
C7 C 0.35604(9) 0.29923(18) 0.30743(13)
C8 C 0.30012(10) 0.2471(2) 0.27163(13)
H6 H 0.2601 0.2767 0.2917
C10 C 0.35982(9) 0.10776(18) 0.17764(13)
C12 C 0.36240(9) 0.01175(18) 0.10596(13)
C13 C 0.35424(11) 0.4070(2) 0.37306(15)
H8 H 0.3097 0.4279 0.3857
H9 H 0.3754 0.4812 0.3477
H10 H 0.3764 0.3821 0.4285
H15? H 0.4462 0.6846 0.2143
H16? H 0.3805 0.6429 0.2585
H17? H 0.3797 0.7357 0.1741
H18? H 0.3980 0.4328 0.3889
H19? H 0.3323 0.3796 0.4269
H20? H 0.3313 0.4787 0.3461
loop_
_geom_bond_atom_site_label_1
_geom_bond_atom_site_label_2
_geom_bond_site_symmetry_1
_geom_bond_site_symmetry_2
S1 S4 1_555 1_555
S2 S3 1_555 1_555
S3 N3 1_555 1_555
S4 N1 1_555 1_555
N1 C11 1_555 1_555
N2 S2 1_555 1_555
N3 C12 1_555 1_555
C1 C3 1_555 1_555
C2 H1 1_555 1_555
C3 H2 1_555 1_555
C4 C2 1_555 1_555
H3 C4 1_555 1_555
C5 H4 1_555 1_555
C6 C1 1_555 1_555
H5 C6 1_555 1_555
C7 C4 1_555 1_555
C8 C5 1_555 1_555
H6 C8 1_555 1_555
C9 C6 1_555 1_555
H7 C9 1_555 1_555
C10 C2 1_555 1_555
C11 C1 1_555 1_555
N4 S1 1_555 1_555
C12 N2 1_555 1_555
C13 C7 1_555 1_555
H8 C13 1_555 1_555
H9 C13 1_555 1_555
H10 C13 1_555 1_555
C14 C3 1_555 1_555
H11 C14 1_555 1_555
C15 C9 1_555 1_555
C16 C15 1_555 1_555
H12 C16 1_555 1_555
H13 C16 1_555 1_555
H14 C16 1_555 1_555
C5 C10 1_555 1_555
C7 C8 1_555 1_555
C10 C12 1_555 1_555
C11 N4 1_555 1_555
C14 C15 1_555 1_555

#END
