
#######################################################################
#
#                 Cambridge Crystallographic Data Centre
#                                CCDC 
#
#######################################################################
#
# If this CIF has been generated from an entry in the Cambridge 
# Structural Database, then it will include bibliographic, chemical, 
# crystal, experimental, refinement or atomic coordinate data resulting 
# from the CCDC's data processing and validation procedures.
#
#######################################################################

data_LELPIE
_chemical_formula_moiety         'C20 H44 B10 N4 Si1'
_chemical_name_systematic        
1,2-(2-isopropyl-1-(1,3-di-isopropyl-4,5-dimethylimidazol-2-ylidene)-3-(isopropylimino)-1-sila-2-azapropane-1,3-diyl)-1,2-dicarba-closo-dodecaborane
_symmetry_cell_setting           monoclinic
_symmetry_space_group_name_H-M   'P 21/n'
_symmetry_Int_Tables_number      14
_space_group_name_Hall           '-P 2yn'
loop_
_symmetry_equiv_pos_site_id
_symmetry_equiv_pos_as_xyz
1 x,y,z
2 1/2-x,1/2+y,1/2-z
3 -x,-y,-z
4 1/2+x,1/2-y,1/2+z
_cell_length_a                   11.5795(12)
_cell_length_b                   18.0348(18)
_cell_length_c                   13.6549(14)
_cell_angle_alpha                90
_cell_angle_beta                 98.231(2)
_cell_angle_gamma                90
_cell_volume                     2822.23
_exptl_crystal_colour            colorless
_exptl_crystal_description       block
_cell_formula_units_Z            4
loop_
_atom_site_label
_atom_site_type_symbol
_atom_site_fract_x
_atom_site_fract_y
_atom_site_fract_z
Si1 Si 0.88734(4) 0.88295(3) 0.69525(4)
N1 N 0.97329(15) 0.70847(9) 0.86842(12)
N2 N 0.92711(13) 0.79054(8) 0.73849(11)
N3 N 1.15022(12) 0.92500(8) 0.74433(11)
N4 N 1.03369(13) 1.01453(8) 0.69561(11)
B1 B 0.71420(18) 0.83608(12) 0.82257(16)
H1 H 0.6758 0.8029 0.7585
B2 B 0.73287(19) 0.79994(13) 0.94463(16)
H2 H 0.7063 0.7431 0.9601
B3 B 0.85967(19) 0.84090(13) 1.01183(16)
H3 H 0.9147 0.8106 1.0710
B4 B 0.92011(19) 0.90172(12) 0.93059(16)
H4 H 1.0147 0.9109 0.9363
B5 B 0.6912(2) 0.93288(13) 0.82889(19)
H5 H 0.6371 0.9631 0.7691
B6 B 0.6306(2) 0.87156(14) 0.90954(19)
H6 H 0.5360 0.8616 0.9028
B7 B 0.7202(2) 0.87475(13) 1.02647(18)
H7 H 0.6838 0.8671 1.0959
B8 B 0.8366(2) 0.93751(13) 1.01769(18)
H8 H 0.8764 0.9708 1.0812
B9 B 0.8182(2) 0.97265(12) 0.89479(17)
H9 H 0.8467 1.0287 0.8774
B10 B 0.6942(2) 0.95695(14) 0.9547(2)
H10 H 0.6413 1.0028 0.9776
C1 C 0.85112(15) 0.82169(10) 0.88770(12)
C2 C 0.82699(15) 0.89775(10) 0.82015(13)
C3 C 0.92322(15) 0.76784(10) 0.83569(13)
C4 C 0.9663(2) 0.67553(13) 0.96508(16)
H11 H 0.9030 0.6990 0.9944
C5 C 0.9394(3) 0.59321(15) 0.9476(2)
H12 H 0.9341 0.5694 1.0097
H13 H 0.8666 0.5879 0.9047
H14 H 1.0006 0.5706 0.9175
C6 C 1.0799(3) 0.6880(2) 1.0307(2)
H15 H 1.0763 0.6665 1.0945
H16 H 1.1419 0.6652 1.0018
H17 H 1.0943 0.7403 1.0378
C7 C 0.96184(17) 0.73210(10) 0.67198(14)
H18 H 1.0359 0.7106 0.7029
C8 C 0.8721(2) 0.67066(13) 0.65558(18)
H19 H 0.8973 0.6339 0.6124
H20 H 0.8635 0.6482 0.7179
H21 H 0.7986 0.6908 0.6261
C9 C 0.9797(2) 0.76486(13) 0.57288(16)
H22 H 1.0021 0.7263 0.5309
H23 H 0.9083 0.7872 0.5423
H24 H 1.0400 0.8018 0.5828
C10 C 1.03549(15) 0.94286(10) 0.72443(12)
C11 C 1.19320(17) 0.85054(11) 0.77739(16)
H25 H 1.1245 0.8185 0.7748
C12 C 1.2523(2) 0.85070(15) 0.88364(18)
H26 H 1.2788 0.8015 0.9021
H27 H 1.3178 0.8839 0.8902
H28 H 1.1979 0.8668 0.9261
C13 C 1.2700(2) 0.81732(15) 0.7063(2)
H29 H 1.2966 0.7692 0.7295
H30 H 1.2256 0.8129 0.6416
H31 H 1.3360 0.8490 0.7032
C14 C 1.21933(17) 0.98544(11) 0.72835(15)
C15 C 1.34914(19) 0.98767(15) 0.7470(2)
H32 H 1.3785 0.9397 0.7687
H33 H 1.3786 1.0009 0.6872
H34 H 1.3740 1.0238 0.7973
C16 C 1.14630(17) 1.04134(11) 0.69725(15)
C17 C 1.1771(2) 1.11765(14) 0.6675(2)
H35 H 1.1070 1.1457 0.6486
H36 H 1.2239 1.1416 0.7222
H37 H 1.2202 1.1147 0.6126
C18 C 0.92337(18) 1.05586(11) 0.66520(15)
H38 H 0.8604 1.0249 0.6837
C19 C 0.9190(2) 1.12855(12) 0.7210(2)
H39 H 0.8465 1.1532 0.6990
H40 H 0.9252 1.1187 0.7907
H41 H 0.9827 1.1596 0.7086
C20 C 0.9001(2) 1.06429(14) 0.55377(17)
H42 H 0.8286 1.0911 0.5356
H43 H 0.9632 1.0910 0.5316
H44 H 0.8937 1.0161 0.5235
loop_
_geom_bond_atom_site_label_1
_geom_bond_atom_site_label_2
_geom_bond_site_symmetry_1
_geom_bond_site_symmetry_2
Si1 N2 1_555 1_555
N1 C3 1_555 1_555
N2 C3 1_555 1_555
N3 C10 1_555 1_555
N4 C10 1_555 1_555
B1 H1 1_555 1_555
B2 B1 1_555 1_555
H2 B2 1_555 1_555
B3 B2 1_555 1_555
H3 B3 1_555 1_555
B4 B3 1_555 1_555
H4 B4 1_555 1_555
B5 B1 1_555 1_555
H5 B5 1_555 1_555
B6 B1 1_555 1_555
H6 B6 1_555 1_555
B7 B2 1_555 1_555
H7 B7 1_555 1_555
B8 B3 1_555 1_555
H8 B8 1_555 1_555
B9 B4 1_555 1_555
H9 B9 1_555 1_555
B10 B5 1_555 1_555
H10 B10 1_555 1_555
C1 B1 1_555 1_555
C2 Si1 1_555 1_555
C3 C1 1_555 1_555
C4 N1 1_555 1_555
H11 C4 1_555 1_555
C5 C4 1_555 1_555
H12 C5 1_555 1_555
H13 C5 1_555 1_555
H14 C5 1_555 1_555
C6 C4 1_555 1_555
H15 C6 1_555 1_555
H16 C6 1_555 1_555
H17 C6 1_555 1_555
C7 N2 1_555 1_555
H18 C7 1_555 1_555
C8 C7 1_555 1_555
H19 C8 1_555 1_555
H20 C8 1_555 1_555
H21 C8 1_555 1_555
C9 C7 1_555 1_555
H22 C9 1_555 1_555
H23 C9 1_555 1_555
H24 C9 1_555 1_555
C10 Si1 1_555 1_555
C11 N3 1_555 1_555
H25 C11 1_555 1_555
C12 C11 1_555 1_555
H26 C12 1_555 1_555
H27 C12 1_555 1_555
H28 C12 1_555 1_555
C13 C11 1_555 1_555
H29 C13 1_555 1_555
H30 C13 1_555 1_555
H31 C13 1_555 1_555
C14 N3 1_555 1_555
C15 C14 1_555 1_555
H32 C15 1_555 1_555
H33 C15 1_555 1_555
H34 C15 1_555 1_555
C16 N4 1_555 1_555
C17 C16 1_555 1_555
H35 C17 1_555 1_555
H36 C17 1_555 1_555
H37 C17 1_555 1_555
C18 N4 1_555 1_555
H38 C18 1_555 1_555
C19 C18 1_555 1_555
H39 C19 1_555 1_555
H40 C19 1_555 1_555
H41 C19 1_555 1_555
C20 C18 1_555 1_555
H42 C20 1_555 1_555
H43 C20 1_555 1_555
H44 C20 1_555 1_555
B1 C2 1_555 1_555
B2 B6 1_555 1_555
B2 C1 1_555 1_555
B3 B7 1_555 1_555
B3 C1 1_555 1_555
B4 B8 1_555 1_555
B4 C1 1_555 1_555
B4 C2 1_555 1_555
B5 B6 1_555 1_555
B5 B9 1_555 1_555
B5 C2 1_555 1_555
B6 B7 1_555 1_555
B6 B10 1_555 1_555
B7 B8 1_555 1_555
B7 B10 1_555 1_555
B8 B9 1_555 1_555
B8 B10 1_555 1_555
B9 B10 1_555 1_555
B9 C2 1_555 1_555
C1 C2 1_555 1_555
C14 C16 1_555 1_555

#END
