
#######################################################################
#
#                 Cambridge Crystallographic Data Centre
#                                CCDC 
#
#######################################################################
#
# If this CIF has been generated from an entry in the Cambridge 
# Structural Database, then it will include bibliographic, chemical, 
# crystal, experimental, refinement or atomic coordinate data resulting 
# from the CCDC's data processing and validation procedures.
#
#######################################################################

data_LELPOK
_chemical_formula_moiety         'C20 H47 B11 N4 Si1'
_chemical_name_systematic        
1,2-(1-(trihydridoborato)-2-isopropyl-1-(1,3-di-isopropyl-4,5-dimethylimidazol-2-ylidene)-3-(isopropylimino)-1-sila-2-azapropane-1,3-diyl)-1,2-dicarba-closo-dodecaborane
_symmetry_cell_setting           triclinic
_symmetry_space_group_name_H-M   'P -1'
_symmetry_Int_Tables_number      2
_space_group_name_Hall           '-P 1'
loop_
_symmetry_equiv_pos_site_id
_symmetry_equiv_pos_as_xyz
1 x,y,z
2 -x,-y,-z
_cell_length_a                   9.6637(6)
_cell_length_b                   12.6136(8)
_cell_length_c                   14.6221(9)
_cell_angle_alpha                108.6800(10)
_cell_angle_beta                 97.9070(10)
_cell_angle_gamma                110.4340(10)
_cell_volume                     1518.49
_exptl_crystal_colour            colorless
_exptl_crystal_description       block
_cell_formula_units_Z            2
loop_
_atom_site_label
_atom_site_type_symbol
_atom_site_fract_x
_atom_site_fract_y
_atom_site_fract_z
Si1 Si -0.12304(6) 0.58990(5) 0.29970(4)
N1 N 0.08521(17) 0.45485(14) 0.27235(12)
N2 N -0.15604(18) 0.33793(14) 0.19686(13)
N3 N 0.04043(18) 0.72833(14) 0.37395(11)
N4 N 0.2489(2) 0.89189(17) 0.37579(14)
C1 C 0.0097(2) 0.77965(16) 0.22910(14)
C2 C -0.1430(2) 0.64751(16) 0.19410(14)
C3 C 0.1146(2) 0.80790(17) 0.33048(15)
C4 C 0.3349(3) 0.9847(2) 0.3404(2)
H1 H 0.2677 0.9791 0.2808
C5 C 0.4685(4) 0.9584(4) 0.3137(4)
H2 H 0.4301 0.8787 0.2597
H3 H 0.5312 0.9598 0.3713
H4 H 0.5290 1.0201 0.2929
C6 C 0.3883(5) 1.1100(3) 0.4237(3)
H5 H 0.3006 1.1238 0.4379
H6 H 0.4483 1.1721 0.4032
H7 H 0.4501 1.1138 0.4830
C7 C 0.1094(2) 0.77053(19) 0.48407(15)
H8 H 0.2210 0.7980 0.4967
C8 C 0.0790(4) 0.8794(3) 0.54280(19)
H9 H 0.1180 0.9440 0.5195
H10 H 0.1295 0.9091 0.6130
H11 H -0.0297 0.8540 0.5330
C9 C 0.0496(3) 0.6670(2) 0.51991(18)
H12 H 0.0711 0.5995 0.4827
H13 H -0.0595 0.6397 0.5095
H14 H 0.0994 0.6964 0.5902
C10 C -0.0545(2) 0.45738(16) 0.24886(14)
C11 C 0.0698(2) 0.33404(18) 0.23601(15)
C12 C -0.0810(2) 0.26115(18) 0.18901(16)
C13 C 0.2348(2) 0.56615(19) 0.32344(16)
H15 H 0.2102 0.6376 0.3466
C14 C 0.3300(2) 0.5847(2) 0.25051(19)
H16 H 0.2696 0.5863 0.1935
H17 H 0.3606 0.5182 0.2284
H18 H 0.4199 0.6613 0.2837
C15 C 0.3244(3) 0.5635(3) 0.41660(18)
H19 H 0.2605 0.5525 0.4606
H20 H 0.4144 0.6399 0.4510
H21 H 0.3546 0.4966 0.3967
C16 C 0.1981(3) 0.2942(2) 0.2467(2)
H22 H 0.1573 0.2060 0.2150
H23 H 0.2473 0.3211 0.3168
H24 H 0.2718 0.3300 0.2153
C17 C -0.1548(3) 0.1237(2) 0.1370(2)
H25 H -0.0778 0.0925 0.1421
H26 H -0.2034 0.1002 0.0674
H27 H -0.2306 0.0902 0.1682
C18 C -0.3226(2) 0.29755(19) 0.15014(18)
H28 H -0.3395 0.3726 0.1634
C19 C -0.3654(3) 0.2313(2) 0.0361(2)
H29 H -0.2975 0.2818 0.0097
H30 H -0.4695 0.2157 0.0073
H31 H -0.3561 0.1545 0.0195
C20 C -0.4234(3) 0.2243(3) 0.1998(3)
H32 H -0.3910 0.2711 0.2711
H33 H -0.4139 0.1478 0.1861
H34 H -0.5288 0.2078 0.1733
B1 B -0.1649(3) 0.7836(2) 0.23995(18)
H35 H -0.1912 0.8183 0.3116
B2 B -0.0374(3) 0.8832(2) 0.19602(19)
H36 H 0.0196 0.9835 0.2394
B3 B 0.0586(3) 0.8027(2) 0.12644(18)
H37 H 0.1769 0.8510 0.1247
B4 B -0.0082(3) 0.6534(2) 0.12800(17)
H38 H 0.0666 0.6047 0.1279
B5 B -0.3044(3) 0.6538(2) 0.13433(19)
H39 H -0.4217 0.6045 0.1372
B6 B -0.2375(3) 0.8044(2) 0.1329(2)
H40 H -0.3117 0.8538 0.1344
B7 B -0.1009(3) 0.8159(2) 0.0625(2)
H41 H -0.0869 0.8727 0.0180
B8 B -0.0823(3) 0.6732(2) 0.02071(19)
H42 H -0.0562 0.6372 -0.0507
B9 B -0.2080(3) 0.5743(2) 0.06608(17)
H43 H -0.2634 0.4735 0.0251
B10 B -0.2659(3) 0.6742(2) 0.02418(19)
H44 H -0.3586 0.6389 -0.0451
B11 B -0.3064(3) 0.5414(3) 0.3488(2)
H45 H -0.302(3) 0.622(3) 0.401(2)
H46 H -0.417(3) 0.493(2) 0.283(2)
H47 H -0.300(3) 0.478(3) 0.388(2)
loop_
_geom_bond_atom_site_label_1
_geom_bond_atom_site_label_2
_geom_bond_site_symmetry_1
_geom_bond_site_symmetry_2
Si1 N3 1_555 1_555
N1 C10 1_555 1_555
N2 C10 1_555 1_555
N3 C3 1_555 1_555
N4 C3 1_555 1_555
C1 C2 1_555 1_555
C2 Si1 1_555 1_555
C3 C1 1_555 1_555
C4 N4 1_555 1_555
H1 C4 1_555 1_555
C5 C4 1_555 1_555
H2 C5 1_555 1_555
H3 C5 1_555 1_555
H4 C5 1_555 1_555
C6 C4 1_555 1_555
H5 C6 1_555 1_555
H6 C6 1_555 1_555
H7 C6 1_555 1_555
C7 N3 1_555 1_555
H8 C7 1_555 1_555
C8 C7 1_555 1_555
H9 C8 1_555 1_555
H10 C8 1_555 1_555
H11 C8 1_555 1_555
C9 C7 1_555 1_555
H12 C9 1_555 1_555
H13 C9 1_555 1_555
H14 C9 1_555 1_555
C10 Si1 1_555 1_555
C11 N1 1_555 1_555
C12 N2 1_555 1_555
C13 N1 1_555 1_555
H15 C13 1_555 1_555
C14 C13 1_555 1_555
H16 C14 1_555 1_555
H17 C14 1_555 1_555
H18 C14 1_555 1_555
C15 C13 1_555 1_555
H19 C15 1_555 1_555
H20 C15 1_555 1_555
H21 C15 1_555 1_555
C16 C11 1_555 1_555
H22 C16 1_555 1_555
H23 C16 1_555 1_555
H24 C16 1_555 1_555
C17 C12 1_555 1_555
H25 C17 1_555 1_555
H26 C17 1_555 1_555
H27 C17 1_555 1_555
C18 N2 1_555 1_555
H28 C18 1_555 1_555
C19 C18 1_555 1_555
H29 C19 1_555 1_555
H30 C19 1_555 1_555
H31 C19 1_555 1_555
C20 C18 1_555 1_555
H32 C20 1_555 1_555
H33 C20 1_555 1_555
H34 C20 1_555 1_555
B1 C1 1_555 1_555
H35 B1 1_555 1_555
B2 C1 1_555 1_555
H36 B2 1_555 1_555
B3 C1 1_555 1_555
H37 B3 1_555 1_555
B4 C1 1_555 1_555
H38 B4 1_555 1_555
B5 C2 1_555 1_555
H39 B5 1_555 1_555
B6 B1 1_555 1_555
H40 B6 1_555 1_555
B7 B2 1_555 1_555
H41 B7 1_555 1_555
B8 B3 1_555 1_555
H42 B8 1_555 1_555
B9 C2 1_555 1_555
H43 B9 1_555 1_555
B10 B5 1_555 1_555
H44 B10 1_555 1_555
B11 Si1 1_555 1_555
H45 B11 1_555 1_555
H46 B11 1_555 1_555
H47 B11 1_555 1_555
C2 B1 1_555 1_555
C2 B4 1_555 1_555
C11 C12 1_555 1_555
B1 B2 1_555 1_555
B1 B5 1_555 1_555
B2 B3 1_555 1_555
B2 B6 1_555 1_555
B3 B4 1_555 1_555
B3 B7 1_555 1_555
B4 B8 1_555 1_555
B4 B9 1_555 1_555
B5 B6 1_555 1_555
B5 B9 1_555 1_555
B6 B7 1_555 1_555
B6 B10 1_555 1_555
B7 B8 1_555 1_555
B7 B10 1_555 1_555
B8 B9 1_555 1_555
B8 B10 1_555 1_555
B9 B10 1_555 1_555

#END
