
#######################################################################
#
#                 Cambridge Crystallographic Data Centre
#                                CCDC 
#
#######################################################################
#
# If this CIF has been generated from an entry in the Cambridge 
# Structural Database, then it will include bibliographic, chemical, 
# crystal, experimental, refinement or atomic coordinate data resulting 
# from the CCDC's data processing and validation procedures.
#
#######################################################################

data_LELPAW
_chemical_formula_moiety         'C15 H43 B10 N3 Si3'
_chemical_name_systematic        
1,2-(1-hydrido-2-isopropyl-1-(bis(trimethylsilyl)amide)-3-(isopropylimino)-1-sila-2-azapropane-1,3-diyl)-1,2-dicarba-closo-dodecaborane
_symmetry_cell_setting           triclinic
_symmetry_space_group_name_H-M   'P -1'
_symmetry_Int_Tables_number      2
_space_group_name_Hall           '-P 1'
loop_
_symmetry_equiv_pos_site_id
_symmetry_equiv_pos_as_xyz
1 x,y,z
2 -x,-y,-z
_cell_length_a                   10.6876(10)
_cell_length_b                   11.0288(11)
_cell_length_c                   13.7644(13)
_cell_angle_alpha                92.855(2)
_cell_angle_beta                 95.797(2)
_cell_angle_gamma                111.682(2)
_cell_volume                     1493.25
_exptl_crystal_colour            colorless
_exptl_crystal_description       block
_cell_formula_units_Z            2
loop_
_atom_site_label
_atom_site_type_symbol
_atom_site_fract_x
_atom_site_fract_y
_atom_site_fract_z
Si1 Si 0.58183(7) 0.21590(7) 0.18115(5)
Si2 Si 0.72899(11) 0.41140(9) 0.36560(7)
Si3 Si 0.86886(9) 0.38763(9) 0.18381(7)
C1 C 0.3914(3) -0.0114(3) 0.24723(19)
C2 C 0.5481(2) 0.0445(2) 0.21724(18)
C3 C 0.3295(3) 0.0940(3) 0.2358(2)
C4 C 0.1063(4) -0.0233(4) 0.2865(3)
H1 H 0.1397 -0.0938 0.2977
C5 C -0.0142(4) -0.0714(5) 0.2060(5)
H2 H 0.0121 -0.1018 0.1478
H3 H -0.0433 -0.0007 0.1922
H4 H -0.0874 -0.1419 0.2273
C6 C 0.0712(6) 0.0232(8) 0.3824(5)
H5 H 0.1494 0.0500 0.4313
H6 H -0.0018 -0.0471 0.4041
H7 H 0.0441 0.0959 0.3724
C7 C 0.3570(3) 0.2979(3) 0.1581(2)
H8 H 0.3055 0.3173 0.2076
C8 C 0.2598(4) 0.2356(4) 0.0643(3)
H9 H 0.1903 0.1556 0.0774
H10 H 0.3091 0.2171 0.0148
H11 H 0.2189 0.2950 0.0417
C9 C 0.4681(4) 0.4266(4) 0.1388(3)
H12 H 0.5278 0.4653 0.1985
H13 H 0.4271 0.4858 0.1159
H14 H 0.5190 0.4092 0.0900
C10 C 0.5584(5) 0.3875(5) 0.4036(3)
H15 H 0.5099 0.4212 0.3567
H16 H 0.5701 0.4334 0.4670
H17 H 0.5078 0.2958 0.4064
C11 C 0.8203(5) 0.3444(4) 0.4591(3)
H18 H 0.9082 0.3560 0.4412
H19 H 0.7687 0.2528 0.4616
H20 H 0.8305 0.3903 0.5224
C12 C 0.8193(5) 0.5933(4) 0.3692(3)
H21 H 0.9085 0.6128 0.3509
H22 H 0.8266 0.6327 0.4344
H23 H 0.7692 0.6278 0.3243
C13 C 0.8757(4) 0.2500(5) 0.1017(3)
H24 H 0.7950 0.2157 0.0550
H25 H 0.8816 0.1818 0.1404
H26 H 0.9539 0.2819 0.0675
C14 C 1.0305(4) 0.4441(7) 0.2703(4)
H27 H 1.0338 0.5151 0.3151
H28 H 1.1065 0.4733 0.2338
H29 H 1.0340 0.3729 0.3063
C15 C 0.8643(6) 0.5197(5) 0.1062(4)
H30 H 0.8606 0.5914 0.1467
H31 H 0.7854 0.4862 0.0579
H32 H 0.9444 0.5495 0.0740
N1 N 0.2144(3) 0.0892(3) 0.2531(2)
N2 N 0.4186(2) 0.2051(2) 0.19664(17)
N3 N 0.7216(2) 0.3364(2) 0.24645(17)
B1 B 0.5256(3) 0.0273(3) 0.3399(2)
H33 H 0.5541 0.1093 0.3972
B2 B 0.3763(4) -0.1163(4) 0.3388(3)
H34 H 0.3087 -0.1277 0.3958
B3 B 0.3111(4) -0.1774(3) 0.2119(3)
H35 H 0.2017 -0.2278 0.1878
B4 B 0.4207(3) -0.0712(3) 0.1371(2)
H36 H 0.3822 -0.0517 0.0648
B5 B 0.6496(4) -0.0178(4) 0.2859(3)
H37 H 0.7590 0.0349 0.3088
B6 B 0.5410(4) -0.1236(4) 0.3625(3)
H38 H 0.5803 -0.1409 0.4352
B7 B 0.4075(4) -0.2501(4) 0.2838(3)
H39 H 0.3602 -0.3496 0.3063
B8 B 0.4344(4) -0.2224(3) 0.1592(3)
H40 H 0.4048 -0.3035 0.1010
B9 B 0.5841(4) -0.0786(3) 0.1611(3)
H41 H 0.6517 -0.0652 0.1039
B10 B 0.5767(4) -0.1894(4) 0.2518(3)
H42 H 0.6390 -0.2496 0.2534
H43 H 0.604(3) 0.217(3) 0.0835(17)
loop_
_geom_bond_atom_site_label_1
_geom_bond_atom_site_label_2
_geom_bond_site_symmetry_1
_geom_bond_site_symmetry_2
Si1 C2 1_555 1_555
Si2 C10 1_555 1_555
Si3 C13 1_555 1_555
C1 C2 1_555 1_555
C2 B1 1_555 1_555
C3 C1 1_555 1_555
C4 H1 1_555 1_555
C5 C4 1_555 1_555
H2 C5 1_555 1_555
H3 C5 1_555 1_555
H4 C5 1_555 1_555
C6 C4 1_555 1_555
H5 C6 1_555 1_555
H6 C6 1_555 1_555
H7 C6 1_555 1_555
C7 H8 1_555 1_555
C8 C7 1_555 1_555
H9 C8 1_555 1_555
H10 C8 1_555 1_555
H11 C8 1_555 1_555
C9 C7 1_555 1_555
H12 C9 1_555 1_555
H13 C9 1_555 1_555
H14 C9 1_555 1_555
C10 H15 1_555 1_555
H16 C10 1_555 1_555
H17 C10 1_555 1_555
C11 Si2 1_555 1_555
H18 C11 1_555 1_555
H19 C11 1_555 1_555
H20 C11 1_555 1_555
C12 Si2 1_555 1_555
H21 C12 1_555 1_555
H22 C12 1_555 1_555
H23 C12 1_555 1_555
C13 H24 1_555 1_555
H25 C13 1_555 1_555
H26 C13 1_555 1_555
C14 Si3 1_555 1_555
H27 C14 1_555 1_555
H28 C14 1_555 1_555
H29 C14 1_555 1_555
C15 Si3 1_555 1_555
H30 C15 1_555 1_555
H31 C15 1_555 1_555
H32 C15 1_555 1_555
N1 C3 1_555 1_555
N2 Si1 1_555 1_555
N3 Si1 1_555 1_555
B1 C1 1_555 1_555
H33 B1 1_555 1_555
B2 C1 1_555 1_555
H34 B2 1_555 1_555
B3 C1 1_555 1_555
H35 B3 1_555 1_555
B4 C1 1_555 1_555
H36 B4 1_555 1_555
B5 C2 1_555 1_555
H37 B5 1_555 1_555
B6 B1 1_555 1_555
H38 B6 1_555 1_555
B7 B2 1_555 1_555
H39 B7 1_555 1_555
B8 B3 1_555 1_555
H40 B8 1_555 1_555
B9 C2 1_555 1_555
H41 B9 1_555 1_555
B10 B5 1_555 1_555
H42 B10 1_555 1_555
H43 Si1 1_555 1_555
Si2 N3 1_555 1_555
Si3 N3 1_555 1_555
C2 B4 1_555 1_555
C3 N2 1_555 1_555
C4 N1 1_555 1_555
C7 N2 1_555 1_555
B1 B2 1_555 1_555
B1 B5 1_555 1_555
B2 B3 1_555 1_555
B2 B6 1_555 1_555
B3 B4 1_555 1_555
B3 B7 1_555 1_555
B4 B8 1_555 1_555
B4 B9 1_555 1_555
B5 B6 1_555 1_555
B5 B9 1_555 1_555
B6 B7 1_555 1_555
B6 B10 1_555 1_555
B7 B8 1_555 1_555
B7 B10 1_555 1_555
B8 B9 1_555 1_555
B8 B10 1_555 1_555
B9 B10 1_555 1_555

#END
