
#######################################################################
#
#                 Cambridge Crystallographic Data Centre
#                                CCDC 
#
#######################################################################
#
# If this CIF has been generated from an entry in the Cambridge 
# Structural Database, then it will include bibliographic, chemical, 
# crystal, experimental, refinement or atomic coordinate data resulting 
# from the CCDC's data processing and validation procedures.
#
#######################################################################

data_LELQAX
_chemical_formula_moiety         'C33 H54 B10 N4 O1 Si1'
_chemical_name_systematic        
7,8-(1-(2-(oxy(phenyl)methyl)phenyl)-2-isopropyl-3-(isopropylimino)-1-sila-2-azapropane-1,3-diyl)-\m-9,10,11-(1,3-di-isopropyl-4,5-dimethylimidazol-2-ylidene(hydrido)borato)-7,8-dicarba-nido-undecaborate
_symmetry_cell_setting           monoclinic
_symmetry_space_group_name_H-M   'P 21/n'
_symmetry_Int_Tables_number      14
_space_group_name_Hall           '-P 2yn'
loop_
_symmetry_equiv_pos_site_id
_symmetry_equiv_pos_as_xyz
1 x,y,z
2 1/2-x,1/2+y,1/2-z
3 -x,-y,-z
4 1/2+x,1/2-y,1/2+z
_cell_length_a                   13.1949(5)
_cell_length_b                   18.8976(7)
_cell_length_c                   16.1057(6)
_cell_angle_alpha                90
_cell_angle_beta                 91.510(2)
_cell_angle_gamma                90
_cell_volume                     4014.59
_exptl_crystal_colour            colorless
_exptl_crystal_description       block
_cell_formula_units_Z            4
loop_
_atom_site_label
_atom_site_type_symbol
_atom_site_fract_x
_atom_site_fract_y
_atom_site_fract_z
O1 O 0.01737(13) 0.18717(10) 0.33404(12)
Si1 Si 0.11679(6) 0.13837(4) 0.31356(5)
B1 B 0.2392(3) 0.26156(19) 0.2557(2)
H1 H 0.2070 0.2994 0.2997
B2 B 0.3709(3) 0.25357(18) 0.2390(2)
H2 H 0.4259 0.2868 0.2735
B3 B 0.3982(2) 0.16137(17) 0.2141(2)
H3 H 0.4668 0.1379 0.2431
B4 B 0.3158(2) 0.07658(18) 0.1837(2)
B5 B 0.1767(3) 0.23617(19) 0.1621(2)
H4 H 0.1015 0.2577 0.1452
B6 B 0.2889(3) 0.2873(2) 0.1590(2)
H5 H 0.2893 0.3431 0.1396
B7 B 0.3891(3) 0.22965(19) 0.1353(2)
H6 H 0.4557 0.2492 0.1028
B8 B 0.3416(3) 0.14409(19) 0.1144(2)
H7 H 0.3758 0.1146 0.0634
B9 B 0.2104(3) 0.14458(19) 0.1402(2)
H8 H 0.1489 0.1094 0.1184
B10 B 0.2670(3) 0.2185(2) 0.0867(2)
H9 H 0.2501 0.2301 0.0209
C1 C 0.30602(19) 0.18624(14) 0.27994(16)
C2 C 0.20111(19) 0.17703(14) 0.23693(16)
C3 C 0.3051(2) 0.16375(16) 0.37083(17)
C4 C 0.4765(2) 0.1938(2) 0.4154(2)
H10 H 0.4898 0.1975 0.3559
C5 C 0.4857(3) 0.2666(3) 0.4555(3)
H11 H 0.5529 0.2846 0.4482
H12 H 0.4372 0.2981 0.4298
H13 H 0.4729 0.2628 0.5137
C6 C 0.5492(3) 0.1423(3) 0.4552(3)
H14 H 0.6173 0.1589 0.4488
H15 H 0.5353 0.1381 0.5132
H16 H 0.5416 0.0969 0.4290
C7 C 0.1990(2) 0.1044(2) 0.47463(19)
H17 H 0.2385 0.1338 0.5138
C8 C 0.0893(3) 0.1061(2) 0.5009(2)
H18 H 0.0844 0.0858 0.5552
H19 H 0.0659 0.1542 0.5019
H20 H 0.0483 0.0793 0.4620
C9 C 0.2431(3) 0.0309(2) 0.4778(2)
H21 H 0.2360 0.0117 0.5325
H22 H 0.2077 0.0014 0.4381
H23 H 0.3136 0.0328 0.4648
C10 C 0.3598(2) 0.00419(16) 0.14782(19)
C11 C 0.3942(3) -0.0931(2) 0.0744(3)
C12 C 0.4565(3) -0.09319(19) 0.1406(3)
C13 C 0.2535(3) -0.0095(2) 0.0210(2)
H24 H 0.2317 0.0372 0.0398
C14 C 0.1618(3) -0.0578(3) 0.0258(3)
H25 H 0.1098 -0.0417 -0.0126
H26 H 0.1809 -0.1052 0.0117
H27 H 0.1366 -0.0570 0.0811
C15 C 0.2895(5) 0.0000(3) -0.0677(3)
H28 H 0.2336 0.0147 -0.1029
H29 H 0.3418 0.0353 -0.0683
H30 H 0.3157 -0.0441 -0.0875
C16 C 0.3856(4) -0.1484(2) 0.0067(3)
H31 H 0.3341 -0.1345 -0.0333
H32 H 0.4494 -0.1527 -0.0202
H33 H 0.3678 -0.1931 0.0305
C17 C 0.5355(3) -0.1476(2) 0.1627(4)
H34 H 0.5696 -0.1344 0.2138
H35 H 0.5037 -0.1929 0.1693
H36 H 0.5839 -0.1503 0.1193
C18 C 0.4762(2) -0.01404(19) 0.2695(2)
H37 H 0.4416 0.0297 0.2852
C19 C 0.4494(4) -0.0688(2) 0.3349(3)
H38 H 0.4777 -0.0547 0.3878
H39 H 0.3771 -0.0722 0.3382
H40 H 0.4766 -0.1140 0.3197
C20 C 0.5883(3) 0.0041(3) 0.2676(3)
H41 H 0.6123 0.0163 0.3225
H42 H 0.6254 -0.0361 0.2481
H43 H 0.5981 0.0434 0.2309
C21 C 0.0413(2) 0.05865(15) 0.28900(17)
C22 C 0.0636(2) -0.00994(16) 0.2641(2)
H44 H 0.1307 -0.0231 0.2564
C23 C -0.0126(3) -0.05836(18) 0.2507(2)
H45 H 0.0031 -0.1041 0.2339
C24 C -0.1118(3) -0.03975(19) 0.2620(2)
H46 H -0.1627 -0.0731 0.2528
C25 C -0.1371(2) 0.02748(18) 0.2866(2)
H47 H -0.2045 0.0400 0.2939
C26 C -0.0599(2) 0.07626(15) 0.30049(17)
C27 C -0.0788(2) 0.15122(16) 0.33016(19)
H48 H -0.1049 0.1488 0.3865
C28 C -0.1537(2) 0.19219(15) 0.2763(2)
C29 C -0.1348(2) 0.20633(19) 0.1946(2)
H49 H -0.0751 0.1902 0.1718
C30 C -0.2027(3) 0.2440(2) 0.1458(2)
H50 H -0.1879 0.2536 0.0908
C31 C -0.2914(3) 0.2673(2) 0.1774(3)
H51 H -0.3375 0.2925 0.1442
C32 C -0.3120(3) 0.2533(2) 0.2583(3)
H52 H -0.3729 0.2683 0.2801
C33 C -0.2425(2) 0.21673(19) 0.3084(2)
H53 H -0.2561 0.2088 0.3640
N1 N 0.37404(19) 0.16628(16) 0.42657(15)
N2 N 0.20898(16) 0.13556(13) 0.39052(13)
N3 N 0.3347(2) -0.03201(15) 0.07823(18)
N4 N 0.4343(2) -0.03349(13) 0.18683(19)
H54 H 0.2839(16) 0.0660(11) 0.2455(14)
loop_
_geom_bond_atom_site_label_1
_geom_bond_atom_site_label_2
_geom_bond_site_symmetry_1
_geom_bond_site_symmetry_2
O1 Si1 1_555 1_555
Si1 C2 1_555 1_555
B1 H1 1_555 1_555
B2 B1 1_555 1_555
H2 B2 1_555 1_555
B3 B2 1_555 1_555
H3 B3 1_555 1_555
B4 B3 1_555 1_555
B5 B1 1_555 1_555
H4 B5 1_555 1_555
B6 B1 1_555 1_555
H5 B6 1_555 1_555
B7 B2 1_555 1_555
H6 B7 1_555 1_555
B8 B3 1_555 1_555
H7 B8 1_555 1_555
B9 B4 1_555 1_555
H8 B9 1_555 1_555
B10 B5 1_555 1_555
H9 B10 1_555 1_555
C1 B1 1_555 1_555
C2 B1 1_555 1_555
C3 C1 1_555 1_555
C4 H10 1_555 1_555
C5 C4 1_555 1_555
H11 C5 1_555 1_555
H12 C5 1_555 1_555
H13 C5 1_555 1_555
C6 C4 1_555 1_555
H14 C6 1_555 1_555
H15 C6 1_555 1_555
H16 C6 1_555 1_555
C7 H17 1_555 1_555
C8 C7 1_555 1_555
H18 C8 1_555 1_555
H19 C8 1_555 1_555
H20 C8 1_555 1_555
C9 C7 1_555 1_555
H21 C9 1_555 1_555
H22 C9 1_555 1_555
H23 C9 1_555 1_555
C10 B4 1_555 1_555
C11 C12 1_555 1_555
C12 C17 1_555 1_555
C13 H24 1_555 1_555
C14 C13 1_555 1_555
H25 C14 1_555 1_555
H26 C14 1_555 1_555
H27 C14 1_555 1_555
C15 C13 1_555 1_555
H28 C15 1_555 1_555
H29 C15 1_555 1_555
H30 C15 1_555 1_555
C16 C11 1_555 1_555
H31 C16 1_555 1_555
H32 C16 1_555 1_555
H33 C16 1_555 1_555
C17 H34 1_555 1_555
H35 C17 1_555 1_555
H36 C17 1_555 1_555
C18 H37 1_555 1_555
C19 C18 1_555 1_555
H38 C19 1_555 1_555
H39 C19 1_555 1_555
H40 C19 1_555 1_555
C20 C18 1_555 1_555
H41 C20 1_555 1_555
H42 C20 1_555 1_555
H43 C20 1_555 1_555
C21 Si1 1_555 1_555
C22 C21 1_555 1_555
H44 C22 1_555 1_555
C23 C22 1_555 1_555
H45 C23 1_555 1_555
C24 C23 1_555 1_555
H46 C24 1_555 1_555
C25 C24 1_555 1_555
H47 C25 1_555 1_555
C26 C21 1_555 1_555
C27 O1 1_555 1_555
H48 C27 1_555 1_555
C28 C27 1_555 1_555
C29 C28 1_555 1_555
H49 C29 1_555 1_555
C30 C29 1_555 1_555
H50 C30 1_555 1_555
C31 C30 1_555 1_555
H51 C31 1_555 1_555
C32 C31 1_555 1_555
H52 C32 1_555 1_555
C33 C28 1_555 1_555
H53 C33 1_555 1_555
N1 C3 1_555 1_555
N2 Si1 1_555 1_555
N3 C10 1_555 1_555
N4 C10 1_555 1_555
H54 B4 1_555 1_555
B2 B6 1_555 1_555
B2 C1 1_555 1_555
B3 B7 1_555 1_555
B3 C1 1_555 1_555
B4 B8 1_555 1_555
B5 B6 1_555 1_555
B5 B9 1_555 1_555
B5 C2 1_555 1_555
B6 B7 1_555 1_555
B6 B10 1_555 1_555
B7 B8 1_555 1_555
B7 B10 1_555 1_555
B8 B9 1_555 1_555
B8 B10 1_555 1_555
B9 B10 1_555 1_555
B9 C2 1_555 1_555
C1 C2 1_555 1_555
C3 N2 1_555 1_555
C4 N1 1_555 1_555
C7 N2 1_555 1_555
C11 N3 1_555 1_555
C12 N4 1_555 1_555
C13 N3 1_555 1_555
C18 N4 1_555 1_555
C25 C26 1_555 1_555
C26 C27 1_555 1_555
C32 C33 1_555 1_555

#END
