
#######################################################################
#
#                 Cambridge Crystallographic Data Centre
#                                CCDC 
#
#######################################################################
#
# If this CIF has been generated from an entry in the Cambridge 
# Structural Database, then it will include bibliographic, chemical, 
# crystal, experimental, refinement or atomic coordinate data resulting 
# from the CCDC's data processing and validation procedures.
#
#######################################################################

data_LELQAW
_chemical_name_common            4-o-tolyl-1,2,3,5-dithiadiazolyl
_chemical_formula_moiety         'C8 H7 N2 S2'
_chemical_name_systematic        4-(2-Methylphenyl)-3H-1,2,3,5-dithiadiazole
_symmetry_cell_setting           monoclinic
_symmetry_space_group_name_H-M   'P 21/c'
_symmetry_Int_Tables_number      14
_space_group_name_Hall           '-P 2ybc'
loop_
_symmetry_equiv_pos_site_id
_symmetry_equiv_pos_as_xyz
1 x,y,z
2 -x,1/2+y,1/2-z
3 -x,-y,-z
4 x,1/2-y,1/2+z
_cell_length_a                   7.8589(16)
_cell_length_b                   14.917(3)
_cell_length_c                   55.362(11)
_cell_angle_alpha                90
_cell_angle_beta                 92.445(3)
_cell_angle_gamma                90
_cell_volume                     6484.25
_exptl_crystal_colour            black
_exptl_crystal_description       plate
_cell_formula_units_Z            32
loop_
_atom_site_label
_atom_site_type_symbol
_atom_site_fract_x
_atom_site_fract_y
_atom_site_fract_z
S1 S 0.03301(16) 0.09987(9) 0.02530(2)
S3 S -0.14515(16) 0.00361(9) 0.03417(3)
N7 N -0.0901(5) 0.1837(3) 0.03088(8)
N14 N -0.2930(5) 0.0761(3) 0.04020(8)
C9 C -0.2462(6) 0.1624(3) 0.03768(9)
C26 C -0.5429(6) 0.2111(3) 0.04081(9)
H14 H -0.5732 0.1499 0.0387
C28 C -0.3711(6) 0.2348(3) 0.04165(9)
C37 C -0.3237(6) 0.3249(3) 0.04517(9)
C47 C -0.6700(7) 0.2738(4) 0.04297(10)
H33 H -0.7864 0.2564 0.0421
C51 C -0.1420(6) 0.3585(3) 0.04648(10)
H38 H -0.1397 0.4206 0.0523
H39 H -0.0951 0.3559 0.0304
H40 H -0.0733 0.3209 0.0577
C53 C -0.6247(7) 0.3632(4) 0.04653(9)
H44 H -0.7101 0.4077 0.0481
C60 C -0.4543(7) 0.3868(4) 0.04780(9)
H51 H -0.4251 0.4478 0.0506
S2 S 1.02423(17) -0.18261(9) 0.18685(3)
S16 S 0.84323(17) -0.08694(9) 0.19566(3)
N4 N 0.7014(5) -0.1603(3) 0.20295(8)
N16 N 0.9025(5) -0.2669(3) 0.19308(8)
C6 C 0.7510(6) -0.2458(4) 0.20100(9)
C23 C 0.4580(6) -0.2978(4) 0.20651(10)
H10 H 0.4224 -0.2403 0.2008
C24 C 0.6316(6) -0.3180(3) 0.20807(9)
C42 C 0.5617(7) -0.4624(4) 0.22335(10)
H30 H 0.5962 -0.5194 0.2295
C43 C 0.6864(6) -0.4015(3) 0.21643(9)
C54 C 0.3909(7) -0.4422(4) 0.22156(10)
H45 H 0.3095 -0.4853 0.2262
C58 C 0.3374(7) -0.3592(4) 0.21298(10)
H49 H 0.2196 -0.3449 0.2116
C61 C 0.8705(7) -0.4302(4) 0.21915(10)
H52 H 0.9170 -0.4374 0.2031
H53 H 0.8780 -0.4874 0.2279
H54 H 0.9359 -0.3846 0.2283
S4 S 0.18394(16) 0.08795(9) 0.07830(2)
S6 S 0.00729(17) -0.01111(9) 0.08641(3)
N1 N -0.1345(6) 0.0594(3) 0.09587(8)
N5 N 0.0625(5) 0.1703(3) 0.08627(8)
C1 C -0.0879(6) 0.1452(3) 0.09446(9)
C4 C -0.2095(6) 0.2158(3) 0.10169(9)
C12 C -0.4567(7) 0.3388(4) 0.11331(10)
H2 H -0.5407 0.3820 0.1169
C17 C -0.3817(7) 0.1916(3) 0.10062(9)
H4 H -0.4140 0.1325 0.0959
C18 C -0.2859(7) 0.3613(3) 0.11503(9)
H5 H -0.2546 0.4198 0.1204
C20 C -0.1581(7) 0.3012(3) 0.10920(9)
C31 C 0.0239(7) 0.3323(3) 0.11191(9)
H18 H 0.0916 0.2875 0.1210
H19 H 0.0286 0.3896 0.1206
H20 H 0.0701 0.3402 0.0959
C39 C -0.5049(7) 0.2531(3) 0.10632(9)
H25 H -0.6218 0.2367 0.1055
S5 S 0.87935(17) -0.16282(9) 0.13208(3)
S14 S 0.70429(17) -0.07184(9) 0.14511(3)
N3 N 0.5567(5) -0.1468(3) 0.14919(8)
N12 N 0.7540(5) -0.2491(3) 0.13458(8)
C7 C 0.4797(6) -0.3043(3) 0.14642(9)
C11 C 0.3068(7) -0.2825(4) 0.14501(9)
H1 H 0.2739 -0.2221 0.1420
C21 C 0.4015(7) -0.4565(4) 0.15429(9)
H9 H 0.4321 -0.5168 0.1578
C22 C 0.6036(6) -0.2308(3) 0.14328(9)
C30 C 0.1831(7) -0.3463(4) 0.14789(10)
H17 H 0.0660 -0.3304 0.1466
C38 C 0.5304(6) -0.3939(3) 0.15086(9)
C40 C 0.7109(6) -0.4249(3) 0.15254(10)
H26 H 0.7589 -0.4223 0.1365
H27 H 0.7154 -0.4867 0.1585
H28 H 0.7770 -0.3860 0.1637
C41 C 0.2307(7) -0.4335(4) 0.15270(10)
H29 H 0.1463 -0.4780 0.1549
S7 S 0.49840(17) -0.06264(9) 0.08366(3)
S12 S 0.67540(16) -0.15200(9) 0.07004(3)
N2 N 0.3552(5) -0.1400(3) 0.08833(8)
N9 N 0.5535(5) -0.2391(3) 0.07234(8)
C2 C 0.4030(6) -0.2222(3) 0.08161(9)
C14 C 0.2060(7) -0.4507(4) 0.08956(9)
H3 H 0.2385 -0.5115 0.0919
C15 C 0.2816(6) -0.2968(3) 0.08460(9)
C33 C 0.3320(6) -0.3869(4) 0.08714(9)
C34 C -0.0160(7) -0.3410(4) 0.08625(10)
H22 H -0.1334 -0.3255 0.0860
C36 C 0.1073(7) -0.2759(4) 0.08427(10)
H24 H 0.0732 -0.2150 0.0826
C45 C 0.0355(7) -0.4295(4) 0.08867(9)
H32 H -0.0472 -0.4757 0.0897
C52 C 0.5171(6) -0.4153(3) 0.08878(10)
H41 H 0.5244 -0.4795 0.0925
H42 H 0.5776 -0.3813 0.1016
H43 H 0.5691 -0.4037 0.0733
S8 S 0.35149(17) -0.03448(9) 0.03167(3)
S10 S 0.53034(17) -0.12087(9) 0.01749(2)
N10 N 0.2029(5) -0.1114(3) 0.03255(8)
N15 N 0.4064(5) -0.2075(3) 0.01779(7)
C10 C 0.2507(7) -0.1929(3) 0.02512(9)
C27 C -0.0477(6) -0.2434(3) 0.02513(9)
H15 H -0.0788 -0.1820 0.0263
C48 C 0.3524(6) -0.3909(3) 0.02217(10)
H34 H 0.3537 -0.4566 0.0227
H35 H 0.4195 -0.3672 0.0361
H36 H 0.4017 -0.3705 0.0072
C49 C 0.0396(6) -0.4208(3) 0.02239(9)
H37 H 0.0681 -0.4826 0.0218
C50 C 0.1714(6) -0.3580(3) 0.02305(9)
C55 C -0.1301(7) -0.3973(4) 0.02251(10)
H46 H -0.2161 -0.4421 0.0217
C56 C -0.1726(7) -0.3084(4) 0.02382(10)
H47 H -0.2891 -0.2913 0.0238
C63 C 0.1245(6) -0.2671(3) 0.02481(9)
S9 S 0.38269(17) 0.07008(9) 0.14419(3)
S15 S 0.20593(17) -0.02826(9) 0.15271(3)
N6 N 0.2594(5) 0.1534(3) 0.15063(8)
N11 N 0.0606(5) 0.0434(3) 0.16022(8)
C3 C 0.1082(6) 0.1294(3) 0.15842(9)
C5 C -0.0144(6) 0.2007(4) 0.16484(10)
C16 C 0.0321(7) 0.2867(3) 0.17274(9)
C19 C 0.2141(7) 0.3194(3) 0.17472(10)
H6 H 0.2574 0.3265 0.1585
H7 H 0.2843 0.2756 0.1838
H8 H 0.2186 0.3772 0.1831
C29 C -0.1877(7) 0.1780(4) 0.16320(10)
H16 H -0.2197 0.1197 0.1578
C32 C -0.3142(7) 0.2382(4) 0.16928(10)
H21 H -0.4311 0.2218 0.1679
C44 C -0.2656(7) 0.3220(4) 0.17737(10)
H31 H -0.3495 0.3637 0.1820
C59 C -0.0945(7) 0.3460(4) 0.17886(9)
H50 H -0.0638 0.4045 0.1842
S11 S 0.34912(18) -0.04398(9) 0.20619(3)
S13 S 0.52867(17) 0.05470(9) 0.19919(3)
N8 N 0.2091(5) 0.0265(3) 0.21595(8)
N13 N 0.4098(5) 0.1373(3) 0.20826(8)
C8 C 0.1423(6) 0.1808(3) 0.22551(9)
C13 C 0.2598(7) 0.1117(4) 0.21644(10)
C25 C 0.3778(7) 0.2936(4) 0.23750(10)
H11 H 0.4482 0.2460 0.2449
H12 H 0.3844 0.3471 0.2478
H13 H 0.4191 0.3080 0.2215
C35 C -0.1000(7) 0.2983(4) 0.24249(10)
H23 H -0.1816 0.3386 0.2485
C46 C 0.1957(7) 0.2625(4) 0.23494(9)
C57 C -0.0314(7) 0.1580(4) 0.22450(9)
H48 H -0.0664 0.1016 0.2180
C62 C 0.0706(8) 0.3212(4) 0.24339(10)
H55 H 0.1045 0.3777 0.2499
C64 C -0.1519(7) 0.2168(4) 0.23282(10)
H56 H -0.2692 0.2012 0.2319
loop_
_geom_bond_atom_site_label_1
_geom_bond_atom_site_label_2
_geom_bond_site_symmetry_1
_geom_bond_site_symmetry_2
S1 S3 1_555 1_555
S2 S16 1_555 1_555
S3 N14 1_555 1_555
S4 S6 1_555 1_555
S5 S14 1_555 1_555
S6 N1 1_555 1_555
S7 S12 1_555 1_555
S8 S10 1_555 1_555
S9 S15 1_555 1_555
S10 N15 1_555 1_555
S11 S13 1_555 1_555
S12 N9 1_555 1_555
S13 N13 1_555 1_555
S14 N3 1_555 1_555
S15 N11 1_555 1_555
S16 N4 1_555 1_555
N1 C1 1_555 1_555
N2 S7 1_555 1_555
N3 C22 1_555 1_555
N4 C6 1_555 1_555
N5 S4 1_555 1_555
N6 S9 1_555 1_555
N7 S1 1_555 1_555
N8 S11 1_555 1_555
N9 C2 1_555 1_555
N10 S8 1_555 1_555
N11 C3 1_555 1_555
N12 S5 1_555 1_555
N13 C13 1_555 1_555
N14 C9 1_555 1_555
C1 N5 1_555 1_555
C2 N2 1_555 1_555
C3 N6 1_555 1_555
N15 C10 1_555 1_555
C4 C1 1_555 1_555
N16 S2 1_555 1_555
C5 C3 1_555 1_555
C6 N16 1_555 1_555
C7 C11 1_555 1_555
C8 C13 1_555 1_555
C9 N7 1_555 1_555
C10 N10 1_555 1_555
C11 H1 1_555 1_555
C12 H2 1_555 1_555
C13 N8 1_555 1_555
C14 H3 1_555 1_555
C15 C2 1_555 1_555
C16 C5 1_555 1_555
C17 C4 1_555 1_555
H4 C17 1_555 1_555
C18 C12 1_555 1_555
H5 C18 1_555 1_555
C19 C16 1_555 1_555
H6 C19 1_555 1_555
H7 C19 1_555 1_555
H8 C19 1_555 1_555
C20 C4 1_555 1_555
C21 H9 1_555 1_555
C22 N12 1_555 1_555
C23 H10 1_555 1_555
C24 C6 1_555 1_555
C25 H11 1_555 1_555
H12 C25 1_555 1_555
H13 C25 1_555 1_555
C26 H14 1_555 1_555
C27 H15 1_555 1_555
C28 C9 1_555 1_555
C29 C5 1_555 1_555
H16 C29 1_555 1_555
C30 C11 1_555 1_555
H17 C30 1_555 1_555
C31 C20 1_555 1_555
H18 C31 1_555 1_555
H19 C31 1_555 1_555
H20 C31 1_555 1_555
C32 C29 1_555 1_555
H21 C32 1_555 1_555
C33 C14 1_555 1_555
C34 H22 1_555 1_555
C35 H23 1_555 1_555
C36 C15 1_555 1_555
H24 C36 1_555 1_555
C37 C28 1_555 1_555
C38 C7 1_555 1_555
C39 C12 1_555 1_555
H25 C39 1_555 1_555
C40 C38 1_555 1_555
H26 C40 1_555 1_555
H27 C40 1_555 1_555
H28 C40 1_555 1_555
C41 C21 1_555 1_555
H29 C41 1_555 1_555
C42 H30 1_555 1_555
C43 C24 1_555 1_555
C44 C32 1_555 1_555
H31 C44 1_555 1_555
C45 C14 1_555 1_555
H32 C45 1_555 1_555
C46 C8 1_555 1_555
C47 C26 1_555 1_555
H33 C47 1_555 1_555
C48 H34 1_555 1_555
H35 C48 1_555 1_555
H36 C48 1_555 1_555
C49 H37 1_555 1_555
C50 C48 1_555 1_555
C51 C37 1_555 1_555
H38 C51 1_555 1_555
H39 C51 1_555 1_555
H40 C51 1_555 1_555
C52 C33 1_555 1_555
H41 C52 1_555 1_555
H42 C52 1_555 1_555
H43 C52 1_555 1_555
C53 C47 1_555 1_555
H44 C53 1_555 1_555
C54 C42 1_555 1_555
H45 C54 1_555 1_555
C55 C49 1_555 1_555
H46 C55 1_555 1_555
C56 C27 1_555 1_555
H47 C56 1_555 1_555
C57 C8 1_555 1_555
H48 C57 1_555 1_555
C58 C23 1_555 1_555
H49 C58 1_555 1_555
C59 C16 1_555 1_555
H50 C59 1_555 1_555
C60 C37 1_555 1_555
H51 C60 1_555 1_555
C61 C43 1_555 1_555
H52 C61 1_555 1_555
H53 C61 1_555 1_555
H54 C61 1_555 1_555
C62 C35 1_555 1_555
H55 C62 1_555 1_555
C63 C10 1_555 1_555
C64 C35 1_555 1_555
H56 C64 1_555 1_555
C7 C22 1_555 1_555
C15 C33 1_555 1_555
C17 C39 1_555 1_555
C18 C20 1_555 1_555
C21 C38 1_555 1_555
C23 C24 1_555 1_555
C25 C46 1_555 1_555
C26 C28 1_555 1_555
C27 C63 1_555 1_555
C30 C41 1_555 1_555
C34 C36 1_555 1_555
C34 C45 1_555 1_555
C42 C43 1_555 1_555
C44 C59 1_555 1_555
C46 C62 1_555 1_555
C49 C50 1_555 1_555
C50 C63 1_555 1_555
C53 C60 1_555 1_555
C54 C58 1_555 1_555
C55 C56 1_555 1_555
C57 C64 1_555 1_555

#END
