
#######################################################################
#
#                 Cambridge Crystallographic Data Centre
#                                CCDC 
#
#######################################################################
#
# If this CIF has been generated from an entry in the Cambridge 
# Structural Database, then it will include bibliographic, chemical, 
# crystal, experimental, refinement or atomic coordinate data resulting 
# from the CCDC's data processing and validation procedures.
#
#######################################################################

data_LELWEG01
_chemical_name_common            
'Sulfadiazinium chloride ethylene glycol solvate'
_chemical_formula_moiety         'C10 H11 N4 O2 S1 1+,Cl1 1-,0.5(C2 H6 O2)'
_chemical_name_systematic        
'((4-Aminophenyl)sulfonyl)(pyrimidin-2-yl)azanide chloride ethylene glycol solvate'
_chemical_properties_biological  'Sulfadiazine is a sulfonamide antibiotic.'
_symmetry_cell_setting           triclinic
_symmetry_space_group_name_H-M   'P -1'
_symmetry_Int_Tables_number      2
_space_group_name_Hall           '-P 1'
loop_
_symmetry_equiv_pos_site_id
_symmetry_equiv_pos_as_xyz
1 x,y,z
2 -x,-y,-z
_cell_length_a                   5.62460(10)
_cell_length_b                   11.3239(2)
_cell_length_c                   11.9912(2)
_cell_angle_alpha                63.8000(10)
_cell_angle_beta                 79.0910(10)
_cell_angle_gamma                76.8060(10)
_cell_volume                     663.759
_exptl_crystal_colour            'light yellow'
_exptl_crystal_description       block
_cell_formula_units_Z            2
loop_
_atom_site_label
_atom_site_type_symbol
_atom_site_fract_x
_atom_site_fract_y
_atom_site_fract_z
Cl1 Cl 0.75825(7) 0.87922(4) 0.14071(3)
S1 S 0.39973(7) 0.22406(3) 0.22676(3)
O1 O 0.65103(10) 0.18189(5) 0.18640(5)
O2 O 0.21359(11) 0.20742(5) 0.16974(5)
N1 N 0.17897(10) 0.05783(5) 0.56972(5)
N2 N -0.03178(11) 0.24052(6) 0.41160(5)
N3 N 0.38316(10) 0.14423(5) 0.37548(5)
N4 N 0.31690(11) 0.81229(5) 0.05471(5)
C1 C 0.17287(11) 0.15139(6) 0.44868(5)
C2 C -0.01419(12) 0.05183(6) 0.65653(6)
C3 C -0.22658(13) 0.14151(7) 0.62235(6)
C4 C -0.22380(13) 0.23444(7) 0.49712(7)
C5 C 0.36872(11) 0.39702(6) 0.18561(5)
C6 C 0.17312(12) 0.48206(6) 0.11962(6)
C7 C 0.15702(12) 0.61937(6) 0.07629(6)
C8 C 0.33455(11) 0.66790(6) 0.10330(5)
C9 C 0.52810(12) 0.58357(6) 0.17101(6)
C10 C 0.54765(12) 0.44622(6) 0.21119(6)
H1 H 0.340556 -0.006847 0.593606
H2 H 0.321105 0.84895 -0.041325
H3 H 0.460278 0.845841 0.069018
H4 H 0.142261 0.854957 0.077844
H5 H -0.002929 -0.022528 0.75157
H6 H -0.386921 0.140542 0.688505
H7 H -0.388811 0.306371 0.468044
H8 H 0.034454 0.441628 0.102088
H9 H 0.009101 0.68729 0.022588
H10 H 0.661416 0.623954 0.192662
H11 H 0.700004 0.378557 0.261789
O3 O -0.20201(15) 0.65354(7) 0.42093(7)
C11 C 0.00185(18) 0.54925(8) 0.43185(8)
H12 H -0.204533 0.71901 0.33398
H13 H -0.044655 0.502935 0.377965
H14 H 0.171019 0.589047 0.386419
O3A O 0.20201(15) 0.34646(7) 0.57907(7)
C11A C -0.00185(18) 0.45075(8) 0.56815(8)
H12A H 0.204533 0.28099 0.66602
H13A H 0.044655 0.497065 0.622035
H14A H -0.171019 0.410953 0.613581
loop_
_geom_bond_atom_site_label_1
_geom_bond_atom_site_label_2
_geom_bond_site_symmetry_1
_geom_bond_site_symmetry_2
S1 O1 1_555 1_555
O2 S1 1_555 1_555
N1 C1 1_555 1_555
N2 C1 1_555 1_555
N3 S1 1_555 1_555
N4 C8 1_555 1_555
C1 N3 1_555 1_555
C2 N1 1_555 1_555
C3 C2 1_555 1_555
C4 N2 1_555 1_555
C5 S1 1_555 1_555
C6 C5 1_555 1_555
C7 C6 1_555 1_555
C8 C7 1_555 1_555
C9 C8 1_555 1_555
C10 C5 1_555 1_555
H1 N1 1_555 1_555
H2 N4 1_555 1_555
H3 N4 1_555 1_555
H4 N4 1_555 1_555
H5 C2 1_555 1_555
H6 C3 1_555 1_555
H7 C4 1_555 1_555
H8 C6 1_555 1_555
H9 C7 1_555 1_555
H10 C9 1_555 1_555
H11 C10 1_555 1_555
O3 C11 1_555 1_555
C11 H13 1_555 1_555
H12 O3 1_555 1_555
H14 C11 1_555 1_555
O3A C11A 1_555 1_555
C11A C11 1_555 1_555
H12A O3A 1_555 1_555
H13A C11A 1_555 1_555
H14A C11A 1_555 1_555
C3 C4 1_555 1_555
C9 C10 1_555 1_555

#END
