
#######################################################################
#
#                 Cambridge Crystallographic Data Centre
#                                CCDC 
#
#######################################################################
#
# If this CIF has been generated from an entry in the Cambridge 
# Structural Database, then it will include bibliographic, chemical, 
# crystal, experimental, refinement or atomic coordinate data resulting 
# from the CCDC's data processing and validation procedures.
#
#######################################################################

data_LELZIO
_chemical_formula_moiety         'C45 H55 N2 O4 P1'
_chemical_name_systematic        
3-{2-[bis(3,5-di-t-butyl-4-methoxyphenyl)phosphanyl]phenyl}-2-(4-nitrophenyl)prop-2-enenitrile
_symmetry_cell_setting           monoclinic
_symmetry_space_group_name_H-M   'P 21/c'
_symmetry_Int_Tables_number      14
_space_group_name_Hall           '-P 2ybc'
loop_
_symmetry_equiv_pos_site_id
_symmetry_equiv_pos_as_xyz
1 x,y,z
2 -x,1/2+y,1/2-z
3 -x,-y,-z
4 x,1/2-y,1/2+z
_cell_length_a                   14.5581(3)
_cell_length_b                   15.8079(3)
_cell_length_c                   18.6350(4)
_cell_angle_alpha                90
_cell_angle_beta                 102.203(2)
_cell_angle_gamma                90
_cell_volume                     4191.63
_exptl_crystal_colour            orange
_exptl_crystal_description       block
_cell_formula_units_Z            4
loop_
_atom_site_label
_atom_site_type_symbol
_atom_site_fract_x
_atom_site_fract_y
_atom_site_fract_z
N1 N 0.8274(5) 0.0062(6) 1.2491(3)
N2 N 1.1664(4) 0.1142(6) 1.0297(5)
P1 P 0.60946(5) 0.20325(5) 1.00565(4)
C1 C 0.3825(7) 0.3394(8) 0.7634(3)
H1 H 0.4023 0.3974 0.7683
H2 H 0.3487 0.3293 0.7141
H3 H 0.4366 0.3032 0.7742
C2 C 0.2245(6) 0.3579(7) 0.8007(4)
H4 H 0.2286 0.4181 0.8074
H5 H 0.1895 0.3340 0.8340
H6 H 0.1932 0.3454 0.7511
C3 C 0.3000(7) 0.2266(6) 0.7979(5)
H7 H 0.2653 0.2209 0.7482
H8 H 0.2636 0.2040 0.8308
H9 H 0.3582 0.1962 0.8038
C4 C 0.8478(2) 0.3195(2) 1.12098(19)
C5 C 0.2648(5) 0.4018(6) 1.0841(5)
H10 H 0.2245 0.4130 1.0372
H11 H 0.2433 0.4332 1.1214
H12 H 0.2636 0.3424 1.0946
C6 C 0.4219(6) 0.4075(6) 1.1578(3)
H13 H 0.4867 0.4228 1.1621
H14 H 0.4174 0.3479 1.1660
H15 H 0.3964 0.4381 1.1936
C7 C 1.0780(4) 0.0606(5) 1.1193(4)
H16 H 1.1347 0.0475 1.1507
C8 C 0.8218(4) 0.0258(4) 1.1886(3)
C9 C 0.3711(6) 0.5242(4) 1.0680(5)
H17 H 0.4344 0.5407 1.0676
H18 H 0.3497 0.5544 1.1061
H19 H 0.3311 0.5372 1.0214
C10 C 1.0257(4) 0.3231(4) 1.1276(4)
H20 H 1.0751 0.3554 1.1139
H21 H 1.0236 0.2678 1.1061
H22 H 1.0375 0.3180 1.1801
C11 C 0.9943(4) 0.0444(4) 1.1396(3)
H23 H 0.9945 0.0202 1.1851
C12 C 1.0766(3) 0.0964(4) 1.0521(4)
C13 C 0.9962(4) 0.1176(4) 1.0055(3)
H24 H 0.9974 0.1418 0.9602
C14 C 0.9186(4) 0.3753(5) 1.0173(3)
H25 H 0.9710 0.4054 1.0059
H26 H 0.8615 0.4053 0.9977
H27 H 0.9155 0.3197 0.9962
C15 C 0.9375(4) 0.4568(3) 1.1336(4)
H28 H 0.9894 0.4865 1.1212
H29 H 0.9466 0.4524 1.1860
H30 H 0.8803 0.4870 1.1147
C16 C 0.9108(3) 0.1028(4) 1.0260(3)
H31 H 0.8550 0.1191 0.9948
C17 C 0.5261(4) -0.0251(3) 1.1321(3)
H32 H 0.5105 -0.0719 1.1574
C18 C 0.3340(6) 0.5191(5) 0.8925(6)
H33 H 0.2879 0.5628 0.8784
H34 H 0.3551 0.4994 0.8500
H35 H 0.3864 0.5412 0.9277
C19 C 0.6149(4) -0.0156(3) 1.1219(3)
H36 H 0.6602 -0.0555 1.1417
C20 C 0.3679(3) 0.4291(3) 1.0823(2)
C21 C 0.4583(3) 0.0350(3) 1.1047(2)
H37 H 0.3974 0.0284 1.1119
C22 C 0.7703(12) 0.3541(11) 1.3317(7)
H38 H 0.7530 0.3527 1.3786
H39 H 0.7474 0.4054 1.3065
H40 H 0.8375 0.3521 1.3386
C23 C 0.9080(3) 0.0643(3) 1.0921(2)
C24 C 0.8180(3) 0.0500(3) 1.1138(2)
C25 C 0.4780(2) 0.3235(2) 1.04072(17)
H41 H 0.5119 0.3218 1.0889
C26 C 0.6398(3) 0.0515(2) 1.08295(18)
C27 C 0.7306(3) 0.2835(3) 1.28926(18)
C28 C 0.3539(3) 0.3776(3) 0.9497(2)
C29 C 0.9311(3) 0.3680(3) 1.1001(2)
C30 C 0.3205(3) 0.3212(3) 0.8154(2)
C31 C 0.3755(2) 0.3256(2) 0.89595(17)
C32 C 0.8382(2) 0.3077(2) 1.19384(19)
C33 C 0.7547(2) 0.2790(2) 1.21162(17)
C34 C 0.7337(3) 0.0602(3) 1.0680(2)
H42 H 0.7358 0.0748 1.0200
C35 C 0.4005(2) 0.3758(2) 1.02383(19)
C36 C 0.4807(3) 0.1042(2) 1.06715(19)
H43 H 0.4351 0.1447 1.0496
C37 C 0.4560(2) 0.2751(2) 0.91703(16)
H44 H 0.4754 0.2418 0.8819
C38 C 0.5711(2) 0.1139(2) 1.05525(16)
C39 C 0.9697(4) 0.2561(6) 1.2789(4)
H45 H 1.0202 0.2739 1.3179
H46 H 0.9950 0.2308 1.2405
H47 H 0.9314 0.2155 1.2975
C40 C 0.6948(2) 0.2519(2) 1.08119(15)
C41 C 0.7741(2) 0.2892(2) 1.06552(17)
H48 H 0.7790 0.2944 1.0168
C42 C 0.6848(2) 0.2490(2) 1.15396(16)
H49 H 0.6301 0.2264 1.1644
C43 C 0.5073(2) 0.2734(2) 0.98857(16)
C44 C 0.6310(5) 0.2932(11) 1.2829(3)
H50 H 0.6172 0.2958 1.3310
H51 H 0.5988 0.2459 1.2567
H52 H 0.6104 0.3445 1.2568
C45 C 0.7324(10) 0.1960(8) 1.3192(8)
H53 H 0.7175 0.1976 1.3669
H54 H 0.7939 0.1723 1.3229
H55 H 0.6870 0.1618 1.2870
O1 O 1.2369(4) 0.0942(8) 1.0723(5)
O2 O 1.1653(5) 0.1411(5) 0.9709(5)
O3 O 0.2858(4) 0.4383(4) 0.9302(2)
O4 O 0.9131(2) 0.3284(2) 1.25033(15)
loop_
_geom_bond_atom_site_label_1
_geom_bond_atom_site_label_2
_geom_bond_site_symmetry_1
_geom_bond_site_symmetry_2
N1 C8 1_555 1_555
N2 C12 1_555 1_555
P1 C38 1_555 1_555
C1 H1 1_555 1_555
H2 C1 1_555 1_555
H3 C1 1_555 1_555
C2 H4 1_555 1_555
H5 C2 1_555 1_555
H6 C2 1_555 1_555
C3 H7 1_555 1_555
H8 C3 1_555 1_555
H9 C3 1_555 1_555
C4 C29 1_555 1_555
C5 H10 1_555 1_555
H11 C5 1_555 1_555
H12 C5 1_555 1_555
C6 H13 1_555 1_555
H14 C6 1_555 1_555
H15 C6 1_555 1_555
C7 H16 1_555 1_555
C8 C24 1_555 1_555
C9 H17 1_555 1_555
H18 C9 1_555 1_555
H19 C9 1_555 1_555
C10 H20 1_555 1_555
H21 C10 1_555 1_555
H22 C10 1_555 1_555
C11 C7 1_555 1_555
H23 C11 1_555 1_555
C12 C7 1_555 1_555
C13 C12 1_555 1_555
H24 C13 1_555 1_555
C14 H25 1_555 1_555
H26 C14 1_555 1_555
H27 C14 1_555 1_555
C15 H28 1_555 1_555
H29 C15 1_555 1_555
H30 C15 1_555 1_555
C16 C13 1_555 1_555
H31 C16 1_555 1_555
C17 H32 1_555 1_555
C18 H33 1_555 1_555
H34 C18 1_555 1_555
H35 C18 1_555 1_555
C19 C17 1_555 1_555
H36 C19 1_555 1_555
C20 C5 1_555 1_555
C21 C17 1_555 1_555
H37 C21 1_555 1_555
C22 H38 1_555 1_555
H39 C22 1_555 1_555
H40 C22 1_555 1_555
C23 C11 1_555 1_555
C24 C23 1_555 1_555
C25 H41 1_555 1_555
C26 C19 1_555 1_555
C27 C22 1_555 1_555
C28 C31 1_555 1_555
C29 C10 1_555 1_555
C30 C1 1_555 1_555
C31 C30 1_555 1_555
C32 C4 1_555 1_555
C33 C27 1_555 1_555
C34 C24 1_555 1_555
H42 C34 1_555 1_555
C35 C20 1_555 1_555
C36 C21 1_555 1_555
H43 C36 1_555 1_555
C37 C31 1_555 1_555
H44 C37 1_555 1_555
C38 C26 1_555 1_555
C39 H45 1_555 1_555
H46 C39 1_555 1_555
H47 C39 1_555 1_555
C40 P1 1_555 1_555
C41 C4 1_555 1_555
H48 C41 1_555 1_555
C42 C33 1_555 1_555
H49 C42 1_555 1_555
C43 P1 1_555 1_555
C44 C27 1_555 1_555
H50 C44 1_555 1_555
H51 C44 1_555 1_555
H52 C44 1_555 1_555
C45 C27 1_555 1_555
H53 C45 1_555 1_555
H54 C45 1_555 1_555
H55 C45 1_555 1_555
O1 N2 1_555 1_555
O2 N2 1_555 1_555
O3 C18 1_555 1_555
O4 C32 1_555 1_555
C2 C30 1_555 1_555
C3 C30 1_555 1_555
C6 C20 1_555 1_555
C9 C20 1_555 1_555
C14 C29 1_555 1_555
C15 C29 1_555 1_555
C16 C23 1_555 1_555
C25 C35 1_555 1_555
C25 C43 1_555 1_555
C26 C34 1_555 1_555
C28 C35 1_555 1_555
C28 O3 1_555 1_555
C32 C33 1_555 1_555
C36 C38 1_555 1_555
C37 C43 1_555 1_555
C39 O4 1_555 1_555
C40 C41 1_555 1_555
C40 C42 1_555 1_555

#END
