
#######################################################################
#
#                 Cambridge Crystallographic Data Centre
#                                CCDC 
#
#######################################################################
#
# If this CIF has been generated from an entry in the Cambridge 
# Structural Database, then it will include bibliographic, chemical, 
# crystal, experimental, refinement or atomic coordinate data resulting 
# from the CCDC's data processing and validation procedures.
#
#######################################################################

data_LEMBIR
_chemical_formula_moiety         
'C48 H26 N4 O8 4-,2(C8 H12 N4 2+),3(C5 H5 N1),H2 O1'
_chemical_name_systematic        
"bis(1,3-phenylene)bis(aminomethaniminium) 4,4',4'',4'''-(porphyrin-5,10,15,20-tetrayl)tetrabenzoate pyridine solvate monohydrate"
_symmetry_cell_setting           triclinic
_symmetry_space_group_name_H-M   'P -1'
_symmetry_Int_Tables_number      2
_space_group_name_Hall           '-P 1'
loop_
_symmetry_equiv_pos_site_id
_symmetry_equiv_pos_as_xyz
1 x,y,z
2 -x,-y,-z
_cell_length_a                   10.0854(2)
_cell_length_b                   20.0861(5)
_cell_length_c                   20.4927(5)
_cell_angle_alpha                109.178(2)
_cell_angle_beta                 103.485(2)
_cell_angle_gamma                103.585(2)
_cell_volume                     3586.88
_exptl_crystal_colour            purple
_exptl_crystal_description       block
_cell_formula_units_Z            2
loop_
_atom_site_label
_atom_site_type_symbol
_atom_site_fract_x
_atom_site_fract_y
_atom_site_fract_z
N1 N 0.2720(2) 0.19170(12) 0.22175(11)
N2 N 0.3437(2) 0.23486(12) 0.34710(11)
C1 C 0.3688(2) 0.23399(13) 0.28641(12)
N3 N 0.7591(2) 0.46670(11) 0.49117(11)
N4 N 0.8965(2) 0.52030(11) 0.43638(11)
C2 C 0.7928(2) 0.46393(12) 0.43230(12)
C3 C 0.5107(2) 0.28248(13) 0.29258(12)
C4 C 0.5818(2) 0.34960(12) 0.35395(12)
C5 C 0.7160(2) 0.39640(12) 0.36287(12)
C6 C 0.7779(3) 0.37739(14) 0.30813(13)
C7 C 0.7050(3) 0.31072(15) 0.24592(13)
C8 C 0.5729(3) 0.26300(14) 0.23834(13)
H1 H 0.5391 0.3631 0.3899
H2 H 0.8700 0.4095 0.3139
H3 H 0.7461 0.2979 0.2093
H4 H 0.5254 0.2178 0.1968
H5 H 0.289(2) 0.1975(14) 0.1841(10)
H6 H 0.186(2) 0.1630(14) 0.2178(11)
H7 H 0.938(3) 0.5589(11) 0.4783(10)
H8 H 0.799(3) 0.5087(10) 0.5302(10)
H9 H 0.412(2) 0.2625(14) 0.3886(10)
H10 H 0.2538(19) 0.2201(15) 0.3455(12)
H11 H 0.920(3) 0.5192(12) 0.3983(10)
H12 H 0.687(2) 0.4315(11) 0.4893(11)
N5 N 0.9935(3) 0.44326(15) 0.67104(14)
C9 C 0.8586(3) 0.39645(15) 0.64353(15)
C10 C 0.8011(3) 0.35171(16) 0.67553(17)
C11 C 0.8886(4) 0.3531(2) 0.7376(2)
C12 C 1.0293(5) 0.3994(3) 0.7663(2)
C13 C 1.0768(4) 0.4435(2) 0.7316(2)
H13 H 0.8000 0.3936 0.5990
H14 H 0.7028 0.3210 0.6544
H15 H 0.8526 0.3224 0.7598
H16 H 1.0944 0.4014 0.8080
H17 H 1.1748 0.4767 0.7518
O1 O 1.53553(17) 0.35378(9) 0.49928(9)
O2 O 1.42102(18) 0.43321(9) 0.53756(9)
C14 C 1.4368(2) 0.37058(12) 0.52197(11)
C15 C 1.3305(2) 0.31009(12) 0.53124(11)
C16 C 1.3405(2) 0.23891(12) 0.51469(12)
C17 C 1.2402(2) 0.18340(12) 0.52173(12)
C18 C 1.1280(2) 0.19787(12) 0.54610(11)
C19 C 1.1192(2) 0.26970(12) 0.56359(12)
C20 C 1.2194(2) 0.32492(12) 0.55634(12)
O3 O 0.4203(2) -0.25737(10) 0.02664(9)
O4 O 0.4372(2) -0.35126(9) 0.05962(9)
C21 C 0.4431(3) -0.28441(14) 0.07412(13)
C22 C 0.4804(2) -0.23332(13) 0.15390(12)
C23 C 0.4979(3) -0.26149(13) 0.20761(13)
C24 C 0.5374(3) -0.21451(13) 0.28115(12)
C25 C 0.5610(2) -0.13772(12) 0.30277(12)
C26 C 0.5397(2) -0.11034(12) 0.24829(12)
C27 C 0.5003(2) -0.15741(13) 0.17505(12)
O5 O -0.05718(18) -0.38041(9) 0.57772(9)
O6 O -0.09099(19) -0.28088(10) 0.65085(10)
C28 C -0.0261(2) -0.31062(13) 0.61084(12)
C29 C 0.0989(2) -0.25902(12) 0.60270(12)
C30 C 0.1412(2) -0.18193(13) 0.64138(12)
C31 C 0.2570(2) -0.13385(12) 0.63586(13)
C32 C 0.3322(2) -0.16065(12) 0.59011(12)
C33 C 0.2884(2) -0.23832(12) 0.55065(12)
C34 C 0.1743(2) -0.28608(12) 0.55744(12)
O7 O 1.27445(18) 0.23101(10) 1.10270(9)
O8 O 1.0823(2) 0.26465(11) 1.11316(9)
C35 C 1.1515(3) 0.23513(14) 1.07585(13)
C36 C 1.0853(3) 0.20235(14) 0.99327(12)
C37 C 1.1688(3) 0.18558(14) 0.94932(13)
C38 C 1.1077(3) 0.15467(14) 0.87340(13)
C39 C 0.9608(2) 0.13932(13) 0.83933(12)
C40 C 0.8782(3) 0.15765(15) 0.88391(13)
C41 C 0.9398(3) 0.18828(16) 0.95957(13)
N6 N 0.91592(19) 0.10403(10) 0.64099(9)
C42 C 0.9538(2) 0.13535(12) 0.71575(12)
C43 C 1.0703(3) 0.20718(13) 0.74664(12)
C44 C 1.1030(2) 0.21766(13) 0.68993(12)
C45 C 1.0075(2) 0.15246(12) 0.62392(12)
C46 C 1.0184(2) 0.13876(12) 0.55357(12)
N7 N 0.80931(19) 0.02166(10) 0.48297(10)
C47 C 0.9339(2) 0.07347(12) 0.49000(12)
C48 C 0.9558(2) 0.04903(13) 0.42064(12)
C49 C 0.8455(2) -0.01567(13) 0.37425(12)
C50 C 0.7480(2) -0.03190(12) 0.41226(11)
C51 C 0.6115(2) -0.08793(12) 0.38269(11)
N8 N 0.56457(19) -0.07473(10) 0.49808(10)
C52 C 0.5217(2) -0.10251(12) 0.42319(12)
C53 C 0.3747(2) -0.15440(12) 0.39077(12)
C54 C 0.3308(2) -0.15982(12) 0.44662(12)
C55 C 0.4515(2) -0.11169(12) 0.51357(12)
C56 C 0.4552(2) -0.10799(12) 0.58380(12)
N9 N 0.68308(19) -0.00012(10) 0.65688(10)
C57 C 0.5691(2) -0.05875(12) 0.64917(12)
C58 C 0.5897(3) -0.05984(13) 0.72022(12)
C59 C 0.7116(3) -0.00189(13) 0.76833(13)
C60 C 0.7705(2) 0.03748(13) 0.72899(12)
C61 C 0.8927(2) 0.10266(13) 0.75774(12)
H18 H 1.4165 0.2278 0.4986
H19 H 1.2486 0.1362 0.5099
H20 H 1.0444 0.2802 0.5803
H21 H 1.2126 0.3736 0.5685
H22 H 0.4836 -0.3128 0.1939
H23 H 0.5489 -0.2342 0.3163
H24 H 0.5517 -0.0588 0.2615
H25 H 0.4863 -0.1386 0.1385
H26 H 0.0917 -0.1623 0.6711
H27 H 0.2854 -0.0827 0.6636
H28 H 0.3384 -0.2580 0.5205
H29 H 0.1495 -0.3375 0.5315
H30 H 1.2655 0.1938 0.9693
H31 H 1.1664 0.1443 0.8449
H32 H 0.7810 0.1503 0.8625
H33 H 0.8839 0.1999 0.9884
H34 H 1.1127 0.2394 0.7958
H35 H 1.1745 0.2578 0.6919
H36 H 1.0335 0.0738 0.4093
H37 H 0.8355 -0.0447 0.3264
H38 H 0.3222 -0.1792 0.3408
H39 H 0.2395 -0.1878 0.4436
H40 H 0.5285 -0.0931 0.7322
H41 H 0.7495 0.0097 0.8180
H42 H 0.772(2) 0.0243(11) 0.5163(9)
H43 H 0.698(2) 0.0106(11) 0.6219(9)
N10 N 0.5942(2) 0.44683(12) 0.08142(11)
N11 N 0.4950(2) 0.33759(11) 0.08925(11)
C62 C 0.5270(2) 0.41022(13) 0.11374(12)
N12 N 0.1946(2) 0.34704(12) 0.26572(11)
N13 N 0.3357(2) 0.44025(11) 0.37823(10)
C63 C 0.2988(2) 0.41106(13) 0.30598(12)
C64 C 0.4892(2) 0.45159(13) 0.17777(12)
C65 C 0.4136(2) 0.41324(13) 0.21066(12)
C66 C 0.3787(2) 0.45229(13) 0.27064(12)
C67 C 0.4193(3) 0.52992(13) 0.29768(13)
C68 C 0.4951(3) 0.56808(14) 0.26533(14)
C69 C 0.5305(3) 0.52984(14) 0.20604(13)
H44 H 0.3866 0.3611 0.1928
H45 H 0.3946 0.5564 0.3376
H46 H 0.5216 0.6204 0.2834
H47 H 0.5845 0.5569 0.1856
H48 H 0.437(3) 0.3116(11) 0.1037(14)
H49 H 0.521(3) 0.3147(11) 0.0539(12)
H50 H 0.602(3) 0.4214(11) 0.0399(11)
H51 H 0.412(2) 0.4796(12) 0.4044(11)
H52 H 0.609(3) 0.4939(10) 0.0938(14)
H53 H 0.156(3) 0.3218(12) 0.2876(11)
H54 H 0.290(2) 0.4162(12) 0.3985(11)
H55 H 0.171(3) 0.3287(12) 0.2190(9)
N14 N 0.9876(3) 0.10528(14) 0.19872(14)
C70 C 0.8962(4) 0.13991(19) 0.17651(18)
C71 C 0.7513(4) 0.1125(2) 0.1621(2)
C72 C 0.6931(4) 0.0466(2) 0.1710(2)
C73 C 0.7839(4) 0.01287(18) 0.1926(2)
C74 C 0.9298(4) 0.04330(17) 0.20625(19)
H56 H 0.9347 0.1851 0.1714
H57 H 0.6908 0.1377 0.1460
H58 H 0.5908 0.0266 0.1608
H59 H 0.7481 -0.0325 0.1983
H60 H 0.9927 0.0183 0.2214
N15 N 0.1732(4) 0.4195(2) -0.0111(2)
C75 C 0.2128(5) 0.4791(3) 0.0478(3)
C76 C 0.1340(7) 0.4922(4) 0.0935(3)
C77 C 0.0040(8) 0.4404(4) 0.0753(4)
C78 C -0.0486(6) 0.3779(3) 0.0076(4)
C79 C 0.0438(5) 0.3724(3) -0.0304(3)
H61 H 0.3041 0.5156 0.0590
H62 H 0.1688 0.5366 0.1359
H63 H -0.0502 0.4462 0.1073
H64 H -0.1411 0.3420 -0.0090
H65 H 0.0150 0.3321 -0.0762
O9 O 0.6660(2) 0.60147(11) 0.10507(11)
H66 H 0.601(3) 0.619(2) 0.095(2)
H67 H 0.713(4) 0.598(2) 0.0773(17)
loop_
_geom_bond_atom_site_label_1
_geom_bond_atom_site_label_2
_geom_bond_site_symmetry_1
_geom_bond_site_symmetry_2
N1 C1 1_555 1_555
N2 C1 1_555 1_555
C1 C3 1_555 1_555
N3 C2 1_555 1_555
N4 C2 1_555 1_555
C2 C5 1_555 1_555
C3 C4 1_555 1_555
C4 C5 1_555 1_555
C5 C6 1_555 1_555
C6 C7 1_555 1_555
C7 C8 1_555 1_555
C8 C3 1_555 1_555
H1 C4 1_555 1_555
H2 C6 1_555 1_555
H3 C7 1_555 1_555
H4 C8 1_555 1_555
H5 N1 1_555 1_555
H6 N1 1_555 1_555
H7 N4 1_555 1_555
H8 N3 1_555 1_555
H9 N2 1_555 1_555
H10 N2 1_555 1_555
H11 N4 1_555 1_555
H12 N3 1_555 1_555
N5 C9 1_555 1_555
C9 C10 1_555 1_555
C10 C11 1_555 1_555
C11 C12 1_555 1_555
C12 C13 1_555 1_555
C13 N5 1_555 1_555
H13 C9 1_555 1_555
H14 C10 1_555 1_555
H15 C11 1_555 1_555
H16 C12 1_555 1_555
H17 C13 1_555 1_555
O1 C14 1_555 1_555
O2 C14 1_555 1_555
C14 C15 1_555 1_555
C15 C16 1_555 1_555
C16 C17 1_555 1_555
C17 C18 1_555 1_555
C18 C19 1_555 1_555
C19 C20 1_555 1_555
C20 C15 1_555 1_555
O3 C21 1_555 1_555
O4 C21 1_555 1_555
C21 C22 1_555 1_555
C22 C23 1_555 1_555
C23 C24 1_555 1_555
C24 C25 1_555 1_555
C25 C26 1_555 1_555
C26 C27 1_555 1_555
C27 C22 1_555 1_555
O5 C28 1_555 1_555
O6 C28 1_555 1_555
C28 C29 1_555 1_555
C29 C30 1_555 1_555
C30 C31 1_555 1_555
C31 C32 1_555 1_555
C32 C33 1_555 1_555
C33 C34 1_555 1_555
C34 C29 1_555 1_555
O7 C35 1_555 1_555
O8 C35 1_555 1_555
C35 C36 1_555 1_555
C36 C37 1_555 1_555
C37 C38 1_555 1_555
C38 C39 1_555 1_555
C39 C40 1_555 1_555
C40 C41 1_555 1_555
C41 C36 1_555 1_555
N6 C42 1_555 1_555
C42 C43 1_555 1_555
C43 C44 1_555 1_555
C44 C45 1_555 1_555
C45 N6 1_555 1_555
C46 C18 1_555 1_555
N7 C47 1_555 1_555
C47 C46 1_555 1_555
C48 C47 1_555 1_555
C49 C48 1_555 1_555
C50 N7 1_555 1_555
C51 C25 1_555 1_555
N8 C52 1_555 1_555
C52 C51 1_555 1_555
C53 C52 1_555 1_555
C54 C53 1_555 1_555
C55 N8 1_555 1_555
C56 C32 1_555 1_555
N9 C57 1_555 1_555
C57 C56 1_555 1_555
C58 C57 1_555 1_555
C59 C58 1_555 1_555
C60 N9 1_555 1_555
C61 C39 1_555 1_555
H18 C16 1_555 1_555
H19 C17 1_555 1_555
H20 C19 1_555 1_555
H21 C20 1_555 1_555
H22 C23 1_555 1_555
H23 C24 1_555 1_555
H24 C26 1_555 1_555
H25 C27 1_555 1_555
H26 C30 1_555 1_555
H27 C31 1_555 1_555
H28 C33 1_555 1_555
H29 C34 1_555 1_555
H30 C37 1_555 1_555
H31 C38 1_555 1_555
H32 C40 1_555 1_555
H33 C41 1_555 1_555
H34 C43 1_555 1_555
H35 C44 1_555 1_555
H36 C48 1_555 1_555
H37 C49 1_555 1_555
H38 C53 1_555 1_555
H39 C54 1_555 1_555
H40 C58 1_555 1_555
H41 C59 1_555 1_555
H42 N7 1_555 1_555
H43 N9 1_555 1_555
N10 C62 1_555 1_555
N11 C62 1_555 1_555
C62 C64 1_555 1_555
N12 C63 1_555 1_555
N13 C63 1_555 1_555
C63 C66 1_555 1_555
C64 C65 1_555 1_555
C65 C66 1_555 1_555
C66 C67 1_555 1_555
C67 C68 1_555 1_555
C68 C69 1_555 1_555
C69 C64 1_555 1_555
H44 C65 1_555 1_555
H45 C67 1_555 1_555
H46 C68 1_555 1_555
H47 C69 1_555 1_555
H48 N11 1_555 1_555
H49 N11 1_555 1_555
H50 N10 1_555 1_555
H51 N13 1_555 1_555
H52 N10 1_555 1_555
H53 N12 1_555 1_555
H54 N13 1_555 1_555
H55 N12 1_555 1_555
N14 C70 1_555 1_555
C70 C71 1_555 1_555
C71 C72 1_555 1_555
C72 C73 1_555 1_555
C73 C74 1_555 1_555
C74 N14 1_555 1_555
H56 C70 1_555 1_555
H57 C71 1_555 1_555
H58 C72 1_555 1_555
H59 C73 1_555 1_555
H60 C74 1_555 1_555
N15 C75 1_555 1_555
C75 C76 1_555 1_555
C76 C77 1_555 1_555
C77 C78 1_555 1_555
C78 C79 1_555 1_555
C79 N15 1_555 1_555
H61 C75 1_555 1_555
H62 C76 1_555 1_555
H63 C77 1_555 1_555
H64 C78 1_555 1_555
H65 C79 1_555 1_555
O9 H66 1_555 1_555
H67 O9 1_555 1_555
C42 C61 1_555 1_555
C45 C46 1_555 1_555
C49 C50 1_555 1_555
C50 C51 1_555 1_555
C54 C55 1_555 1_555
C55 C56 1_555 1_555
C59 C60 1_555 1_555
C60 C61 1_555 1_555

#END
