
#######################################################################
#
#                 Cambridge Crystallographic Data Centre
#                                CCDC 
#
#######################################################################
#
# If this CIF has been generated from an entry in the Cambridge 
# Structural Database, then it will include bibliographic, chemical, 
# crystal, experimental, refinement or atomic coordinate data resulting 
# from the CCDC's data processing and validation procedures.
#
#######################################################################

data_LEMBAJ
_chemical_formula_moiety         
'C48 H26 N4 O8 4-,2(C8 H12 N4 2+),x(C5 H5 N1),x(H2 O1)'
_chemical_name_systematic        
"bis[(1,4-phenylene)bis(aminomethaniminium)] 4,4',4'',4'''-(porphyrin-5,10,15,20-tetrayl)tetrabenzoate pyridine solvate hydrate"
_symmetry_cell_setting           triclinic
_symmetry_space_group_name_H-M   'P -1'
_symmetry_Int_Tables_number      2
_space_group_name_Hall           '-P 1'
loop_
_symmetry_equiv_pos_site_id
_symmetry_equiv_pos_as_xyz
1 x,y,z
2 -x,-y,-z
_cell_length_a                   15.6606(3)
_cell_length_b                   18.9312(3)
_cell_length_c                   20.4250(3)
_cell_angle_alpha                86.1854(13)
_cell_angle_beta                 79.7696(15)
_cell_angle_gamma                72.5303(15)
_cell_volume                     5683.78
_exptl_crystal_colour            purple
_exptl_crystal_description       block
_cell_formula_units_Z            3
loop_
_atom_site_label
_atom_site_type_symbol
_atom_site_fract_x
_atom_site_fract_y
_atom_site_fract_z
N3 N 0.4931(3) 0.2548(2) 0.5175(2)
N4 N 0.6313(2) 0.26612(18) 0.5283(2)
C25 C 0.5440(3) 0.2936(2) 0.5340(2)
N5 N 0.2984(2) 0.6292(2) 0.61210(16)
N6 N 0.4369(3) 0.63549(19) 0.6295(2)
C26 C 0.3854(2) 0.5978(2) 0.61327(16)
C27 C 0.5000(2) 0.37128(19) 0.5581(2)
C28 C 0.4294(2) 0.41758(19) 0.5283(2)
C29 C 0.3932(2) 0.49109(18) 0.54656(16)
C30 C 0.4248(2) 0.51953(18) 0.59568(15)
C31 C 0.4943(2) 0.4731(2) 0.62690(18)
C32 C 0.5310(2) 0.4000(2) 0.6086(2)
H14 H 0.4039 0.3986 0.4960
H15 H 0.3483 0.5230 0.5263
H16 H 0.5154 0.4924 0.6599
H17 H 0.5758 0.3686 0.6302
H18 H 0.5184(18) 0.2088(16) 0.501(3)
H19 H 0.444(2) 0.257(3) 0.5469(17)
H20 H 0.6662(17) 0.2933(15) 0.536(2)
H21 H 0.6566(17) 0.2194(13) 0.517(2)
H22 H 0.2781(18) 0.6771(11) 0.615(2)
H23 H 0.2653(18) 0.6048(16) 0.600(2)
H24 H 0.418(2) 0.6832(11) 0.630(3)
H25 H 0.4948(15) 0.6137(16) 0.628(2)
N7 N -0.05982(17) 0.21951(13) 0.60728(11)
N8 N -0.01561(18) 0.26490(14) 0.69269(12)
C33 C -0.02142(17) 0.26351(14) 0.62934(13)
N9 N 0.14357(16) 0.44715(12) 0.38592(11)
N10 N 0.17646(16) 0.49615(13) 0.47478(12)
C34 C 0.14162(17) 0.45110(14) 0.45036(13)
C35 C 0.01860(17) 0.31274(15) 0.58214(13)
C36 C 0.0619(2) 0.28767(16) 0.51855(15)
C37 C 0.1007(2) 0.33335(16) 0.47488(15)
C38 C 0.09751(17) 0.40298(14) 0.49593(13)
C39 C 0.05363(17) 0.42770(14) 0.55909(12)
C40 C 0.01316(17) 0.38280(14) 0.60218(12)
H26 H 0.0661 0.2399 0.5038
H27 H 0.1292 0.3171 0.4326
H28 H 0.0538 0.4756 0.5713
H29 H -0.0175 0.4001 0.6454
H30 H 0.198(2) 0.5267(16) 0.4476(11)
H31 H 0.017(2) 0.2909(18) 0.7047(12)
H32 H 0.176(2) 0.4974(17) 0.5168(9)
H33 H 0.1084(19) 0.4257(18) 0.3724(11)
H34 H -0.037(2) 0.2355(17) 0.7205(11)
H35 H 0.173(2) 0.4722(17) 0.3585(11)
H36 H -0.065(2) 0.2203(17) 0.5653(10)
H37 H -0.078(2) 0.1872(15) 0.6340(11)
N11 N 0.06964(16) 0.09579(13) 0.34647(10)
N12 N 0.15159(16) 0.11065(14) 0.42420(11)
C41 C 0.09144(17) 0.08391(13) 0.40652(12)
C42 C 0.04485(17) 0.03996(13) 0.45460(12)
C43 C 0.01849(18) -0.01683(14) 0.43266(12)
C44 C 0.02674(19) 0.05664(14) 0.52204(12)
H38 H 0.0325 -0.0282 0.3869
H39 H 0.0444 0.0956 0.5379
H40 H 0.0241(18) 0.0817(18) 0.3384(12)
H41 H 0.176(2) 0.1390(17) 0.3969(12)
H42 H 0.171(2) 0.0977(17) 0.4621(12)
H43 H 0.094(2) 0.1240(17) 0.3188(11)
N11A N -0.06964(16) -0.09579(13) 0.65353(10)
N12A N -0.15159(16) -0.11065(14) 0.57580(11)
C41A C -0.09144(17) -0.08391(13) 0.59348(12)
C42A C -0.04485(17) -0.03996(13) 0.54540(12)
C43A C -0.01849(18) 0.01683(14) 0.56734(12)
C44A C -0.02674(19) -0.05664(14) 0.47796(12)
H38A H -0.0325 0.0282 0.6131
H39A H -0.0444 -0.0956 0.4621
H40A H -0.0241(18) -0.0817(18) 0.6616(12)
H41A H -0.176(2) -0.1390(17) 0.6031(12)
H42A H -0.171(2) -0.0977(17) 0.5379(12)
H43A H -0.094(2) -0.1240(17) 0.6812(11)
N13 N -0.0562(3) 1.0260(3) 0.1796(2)
N14 N -0.0206(3) 1.1295(3) 0.1300(3)
C45 C -0.0311(3) 1.0634(3) 0.1273(2)
C46 C -0.0151(3) 1.0306(2) 0.0608(2)
C47 C 0.0254(3) 0.9540(3) 0.0553(2)
C48 C -0.0414(3) 1.0773(3) 0.0072(2)
H44 H 0.0422 0.9245 0.0920
H45 H -0.0693 1.1291 0.0147
H46 H -0.063(5) 1.045(2) 0.2190(11)
H47 H -0.065(5) 0.982(2) 0.1768(15)
H48 H -0.026(6) 1.150(2) 0.1684(12)
H49 H 0.028(3) 1.140(2) 0.109(3)
N13A N 0.0562(3) 0.9740(3) -0.1796(2)
N14A N 0.0206(3) 0.8705(3) -0.1300(3)
C45A C 0.0311(3) 0.9366(3) -0.1273(2)
C46A C 0.0151(3) 0.9694(2) -0.0608(2)
C47A C -0.0254(3) 1.0460(3) -0.0553(2)
C48A C 0.0414(3) 0.9227(3) -0.0072(2)
H44A H -0.0422 1.0755 -0.0920
H45A H 0.0693 0.8709 -0.0147
H46A H 0.063(5) 0.955(2) -0.2190(11)
H47A H 0.065(5) 1.018(2) -0.1768(15)
H48A H 0.026(6) 0.850(2) -0.1684(12)
H49A H -0.028(3) 0.860(2) -0.109(3)
N15 N 0.54980(14) 0.83159(12) 0.14257(10)
C49 C 0.58790(18) 0.85332(15) 0.19010(13)
C50 C 0.5577(2) 0.82562(18) 0.25566(14)
C51 C 0.5038(2) 0.78485(18) 0.24611(14)
C52 C 0.49816(18) 0.78920(14) 0.17560(13)
C53 C 0.45007(17) 0.75172(14) 0.14629(13)
N16 N 0.47491(15) 0.80131(12) 0.03120(10)
C54 C 0.44298(17) 0.75560(14) 0.07842(12)
C55 C 0.39514(19) 0.71886(15) 0.04558(13)
C56 C 0.39723(19) 0.74411(15) -0.01872(14)
C57 C 0.44492(17) 0.79858(14) -0.02771(12)
C58 C 0.45556(18) 0.84306(14) -0.08468(12)
N17 N 0.56011(14) 0.90206(12) -0.04936(10)
C59 C 0.50723(17) 0.89291(14) -0.09278(12)
C60 C 0.51448(18) 0.94028(14) -0.15184(12)
C61 C 0.57440(18) 0.97636(14) -0.14395(12)
C62 C 0.60378(17) 0.95108(14) -0.08005(12)
C63 C 0.66987(17) 0.97364(14) -0.05590(12)
N18 N 0.64356(15) 0.92755(12) 0.05954(10)
C64 C 0.68993(17) 0.95915(14) 0.00846(12)
C65 C 0.76167(19) 0.97387(16) 0.03430(13)
C66 C 0.75583(19) 0.95276(16) 0.09964(14)
C67 C 0.68041(18) 0.92329(14) 0.11633(12)
C68 C 0.65143(18) 0.89389(14) 0.17787(12)
O5 O 0.7862(2) 0.90844(15) 0.45692(11)
O6 O 0.79519(19) 1.01791(14) 0.41407(12)
C69 C 0.7815(2) 0.95649(18) 0.41094(15)
C70 C 0.7552(2) 0.93880(16) 0.34762(14)
C71 C 0.7640(2) 0.86618(16) 0.33211(14)
C72 C 0.7336(2) 0.85077(16) 0.27607(14)
C73 C 0.69141(18) 0.90832(15) 0.23536(12)
C74 C 0.6856(2) 0.98072(15) 0.25019(13)
C75 C 0.7179(2) 0.99544(16) 0.30538(14)
O7 O 0.90879(14) 1.17652(11) -0.21530(10)
O8 O 0.88819(16) 1.11910(12) -0.30007(10)
C76 C 0.87757(18) 1.13201(14) -0.23899(13)
C77 C 0.82393(17) 1.09086(14) -0.19117(12)
C78 C 0.78041(18) 1.12029(14) -0.12935(12)
C79 C 0.73006(18) 1.08254(14) -0.08560(12)
C80 C 0.72396(17) 1.01420(14) -0.10226(12)
C81 C 0.76952(19) 0.98425(14) -0.16400(13)
C82 C 0.81775(19) 1.02276(15) -0.20840(13)
O9 O 0.3167(4) 0.7770(2) -0.3482(2)
O10 O 0.1934(3) 0.7904(2) -0.2744(3)
C83 C 0.2745(3) 0.7904(2) -0.2903(2)
C84 C 0.3231(3) 0.80792(19) -0.2402(2)
C85 C 0.4160(3) 0.80061(18) -0.25304(18)
C86 C 0.4598(2) 0.81248(16) -0.20285(13)
C87 C 0.40971(18) 0.83356(15) -0.13972(13)
C88 C 0.3162(2) 0.84399(19) -0.12834(19)
C89 C 0.2733(3) 0.8299(2) -0.1777(2)
O11 O 0.26461(17) 0.50814(12) 0.29870(11)
O12 O 0.20681(14) 0.60003(11) 0.37030(9)
C90 C 0.25528(18) 0.57249(14) 0.31668(13)
C91 C 0.30402(17) 0.61962(14) 0.27188(12)
C92 C 0.36980(19) 0.58777(14) 0.21850(13)
C93 C 0.41731(18) 0.63053(15) 0.17791(13)
C94 C 0.39919(17) 0.70572(14) 0.18969(12)
C95 C 0.33204(17) 0.73738(14) 0.24290(13)
C96 C 0.28535(17) 0.69495(14) 0.28400(12)
H50 H 0.5754 0.8326 0.2961
H51 H 0.4744 0.7565 0.2799
H52 H 0.3682 0.6819 0.0650
H53 H 0.3740 0.7296 -0.0519
H54 H 0.4825 0.9440 -0.1884
H55 H 0.5977 1.0105 -0.1751
H56 H 0.8045 0.9967 0.0103
H57 H 0.7932 0.9553 0.1298
H58 H 0.7915 0.8276 0.3602
H59 H 0.7443 0.8003 0.2654
H60 H 0.6586 1.0184 0.2217
H61 H 0.7134 1.0454 0.3140
H62 H 0.7824 1.1660 -0.1166
H63 H 0.6992 1.1039 -0.0434
H64 H 0.7678 0.9364 -0.1756
H65 H 0.8484 1.0033 -0.2509
H66 H 0.4489 0.7889 -0.2949
H67 H 0.5239 0.8079 -0.2116
H68 H 0.2818 0.8614 -0.0852
H69 H 0.2108 0.8352 -0.1693
H70 H 0.3846 0.5352 0.2085
H71 H 0.4642 0.6086 0.1419
H72 H 0.3183 0.7885 0.2506
H73 H 0.2394 0.7180 0.3202
H74 H 0.5090(19) 0.8283(15) 0.0373(10)
H75 H 0.6000(18) 0.9091(17) 0.0556(10)
N1 N 0.40595(15) 0.44931(12) -0.01288(10)
C1 C 0.36806(19) 0.40728(14) 0.03351(12)
C2 C 0.2967(2) 0.38819(16) 0.00896(14)
C3 C 0.2932(2) 0.41833(17) -0.05268(14)
C4 C 0.36076(19) 0.45736(15) -0.06572(12)
C5 C 0.39309(18) 0.38545(14) 0.09637(12)
N2 N 0.51193(15) 0.44838(12) 0.09251(10)
C6 C 0.56907(18) 0.45484(15) 0.13428(12)
C7 C 0.5546(2) 0.40997(15) 0.19231(13)
C8 C 0.4896(2) 0.37936(15) 0.18491(12)
C9 C 0.46100(19) 0.40389(14) 0.12186(12)
C10 C 0.62704(19) 0.49956(15) 0.12355(12)
O1 O 0.1687(2) 0.17038(16) 0.25385(12)
O2 O 0.19422(19) 0.22379(14) 0.33785(10)
C11 C 0.2007(2) 0.21410(16) 0.27700(14)
C12 C 0.2488(2) 0.25863(15) 0.22901(13)
C13 C 0.2903(2) 0.23257(15) 0.16546(13)
C14 C 0.33718(19) 0.27336(14) 0.12253(12)
C15 C 0.34145(18) 0.34142(14) 0.14109(12)
C16 C 0.2965(2) 0.36861(15) 0.20410(13)
C17 C 0.2526(2) 0.32671(15) 0.24759(13)
O3 O 0.81411(17) 0.47808(16) 0.38618(14)
O4 O 0.7883(2) 0.59934(16) 0.36357(15)
C18 C 0.7894(2) 0.53502(18) 0.35230(17)
C19 C 0.7545(2) 0.5230(2) 0.28991(16)
C20 C 0.7778(2) 0.4556(2) 0.25754(16)
C21 C 0.7403(2) 0.4457(2) 0.20168(15)
C22 C 0.67508(18) 0.50542(16) 0.17897(13)
C23 C 0.6541(2) 0.5732(2) 0.21055(14)
C24 C 0.6927(2) 0.5827(2) 0.26430(15)
H1 H 0.2584 0.3614 0.0307
H2 H 0.2545 0.4112 -0.0814
H3 H 0.5874 0.4033 0.2288
H4 H 0.4696 0.3474 0.2141
H5 H 0.2851 0.1867 0.1536
H6 H 0.3674 0.2550 0.0788
H7 H 0.2942 0.4156 0.2173
H8 H 0.2263 0.3434 0.2911
H9 H 0.8201 0.4134 0.2702
H10 H 0.7555 0.3992 0.1815
H11 H 0.6120 0.6159 0.1938
H12 H 0.6798 0.6311 0.2843
H13 H 0.5038(18) 0.4729(15) 0.0566(12)
N1A N 0.59405(15) 0.55069(12) 0.01288(10)
C1A C 0.63194(19) 0.59272(14) -0.03351(12)
C2A C 0.7033(2) 0.61181(16) -0.00896(14)
C3A C 0.7068(2) 0.58167(17) 0.05268(14)
C4A C 0.63924(19) 0.54264(15) 0.06572(12)
C5A C 0.60691(18) 0.61455(14) -0.09637(12)
N2A N 0.48807(15) 0.55162(12) -0.09251(10)
C6A C 0.43093(18) 0.54516(15) -0.13428(12)
C7A C 0.4454(2) 0.59003(15) -0.19231(13)
C8A C 0.5104(2) 0.62064(15) -0.18491(12)
C9A C 0.53900(19) 0.59611(14) -0.12186(12)
C10A C 0.37296(19) 0.50044(15) -0.12355(12)
O1A O 0.8313(2) 0.82962(16) -0.25385(12)
O2A O 0.80578(19) 0.77621(14) -0.33785(10)
C11A C 0.7993(2) 0.78590(16) -0.27700(14)
C12A C 0.7512(2) 0.74137(15) -0.22901(13)
C13A C 0.7097(2) 0.76743(15) -0.16546(13)
C14A C 0.66282(19) 0.72664(14) -0.12253(12)
C15A C 0.65855(18) 0.65858(14) -0.14109(12)
C16A C 0.7035(2) 0.63139(15) -0.20410(13)
C17A C 0.7474(2) 0.67329(15) -0.24759(13)
O3A O 0.18589(17) 0.52192(16) -0.38618(14)
O4A O 0.2117(2) 0.40066(16) -0.36357(15)
C18A C 0.2106(2) 0.46498(18) -0.35230(17)
C19A C 0.2455(2) 0.4770(2) -0.28991(16)
C20A C 0.2222(2) 0.5444(2) -0.25754(16)
C21A C 0.2597(2) 0.5543(2) -0.20168(15)
C22A C 0.32492(18) 0.49458(16) -0.17897(13)
C23A C 0.3459(2) 0.4268(2) -0.21055(14)
C24A C 0.3073(2) 0.4173(2) -0.26430(15)
H1A H 0.7416 0.6386 -0.0307
H2A H 0.7455 0.5888 0.0814
H3A H 0.4126 0.5967 -0.2288
H4A H 0.5304 0.6526 -0.2141
H5A H 0.7149 0.8133 -0.1536
H6A H 0.6326 0.7450 -0.0788
H7A H 0.7058 0.5844 -0.2173
H8A H 0.7737 0.6566 -0.2911
H9A H 0.1799 0.5866 -0.2702
H10A H 0.2445 0.6008 -0.1815
H11A H 0.3880 0.3841 -0.1938
H12A H 0.3202 0.3689 -0.2843
H13A H 0.4962(18) 0.5271(15) -0.0566(12)
loop_
_geom_bond_atom_site_label_1
_geom_bond_atom_site_label_2
_geom_bond_site_symmetry_1
_geom_bond_site_symmetry_2
N1 C1 1_555 1_555
C1 C2 1_555 1_555
C2 C3 1_555 1_555
C3 C4 1_555 1_555
C4 N1 1_555 1_555
C5 C1 1_555 1_555
N2 C6 1_555 1_555
C6 C7 1_555 1_555
C7 C8 1_555 1_555
C8 C9 1_555 1_555
C9 C5 1_555 1_555
C10 C6 1_555 1_555
O1 C11 1_555 1_555
O2 C11 1_555 1_555
C11 C12 1_555 1_555
C12 C13 1_555 1_555
C13 C14 1_555 1_555
C14 C15 1_555 1_555
C15 C5 1_555 1_555
C16 C15 1_555 1_555
C17 C12 1_555 1_555
O3 C18 1_555 1_555
O4 C18 1_555 1_555
C18 C19 1_555 1_555
C19 C20 1_555 1_555
C20 C21 1_555 1_555
C21 C22 1_555 1_555
C22 C10 1_555 1_555
C23 C22 1_555 1_555
C24 C19 1_555 1_555
H1 C2 1_555 1_555
H2 C3 1_555 1_555
H3 C7 1_555 1_555
H4 C8 1_555 1_555
H5 C13 1_555 1_555
H6 C14 1_555 1_555
H7 C16 1_555 1_555
H8 C17 1_555 1_555
H9 C20 1_555 1_555
H10 C21 1_555 1_555
H11 C23 1_555 1_555
H12 C24 1_555 1_555
H13 N2 1_555 1_555
N3 C25 1_555 1_555
N4 C25 1_555 1_555
C25 C27 1_555 1_555
N5 C26 1_555 1_555
N6 C26 1_555 1_555
C26 C30 1_555 1_555
C27 C28 1_555 1_555
C28 C29 1_555 1_555
C29 C30 1_555 1_555
C30 C31 1_555 1_555
C31 C32 1_555 1_555
C32 C27 1_555 1_555
H14 C28 1_555 1_555
H15 C29 1_555 1_555
H16 C31 1_555 1_555
H17 C32 1_555 1_555
H18 N3 1_555 1_555
H19 N3 1_555 1_555
H20 N4 1_555 1_555
H21 N4 1_555 1_555
H22 N5 1_555 1_555
H23 N5 1_555 1_555
H24 N6 1_555 1_555
H25 N6 1_555 1_555
N7 C33 1_555 1_555
N8 C33 1_555 1_555
C33 C35 1_555 1_555
N9 C34 1_555 1_555
N10 C34 1_555 1_555
C34 C38 1_555 1_555
C35 C36 1_555 1_555
C36 C37 1_555 1_555
C37 C38 1_555 1_555
C38 C39 1_555 1_555
C39 C40 1_555 1_555
C40 C35 1_555 1_555
H26 C36 1_555 1_555
H27 C37 1_555 1_555
H28 C39 1_555 1_555
H29 C40 1_555 1_555
H30 N10 1_555 1_555
H31 N8 1_555 1_555
H32 N10 1_555 1_555
H33 N9 1_555 1_555
H34 N8 1_555 1_555
H35 N9 1_555 1_555
H36 N7 1_555 1_555
H37 N7 1_555 1_555
N11 C41 1_555 1_555
N12 C41 1_555 1_555
C41 C42 1_555 1_555
C42 C43 1_555 1_555
C43 H38 1_555 1_555
C44 C42 1_555 1_555
H39 C44 1_555 1_555
H40 N11 1_555 1_555
H41 N12 1_555 1_555
H42 N12 1_555 1_555
H43 N11 1_555 1_555
N13 C45 1_555 1_555
N14 C45 1_555 1_555
C45 C46 1_555 1_555
C46 C47 1_555 1_555
C47 H44 1_555 1_555
C48 C46 1_555 1_555
H45 C48 1_555 1_555
H46 N13 1_555 1_555
H47 N13 1_555 1_555
H48 N14 1_555 1_555
H49 N14 1_555 1_555
N15 C49 1_555 1_555
C49 C50 1_555 1_555
C50 C51 1_555 1_555
C51 C52 1_555 1_555
C52 N15 1_555 1_555
C53 C52 1_555 1_555
N16 C54 1_555 1_555
C54 C53 1_555 1_555
C55 C54 1_555 1_555
C56 C55 1_555 1_555
C57 N16 1_555 1_555
C58 C57 1_555 1_555
N17 C59 1_555 1_555
C59 C58 1_555 1_555
C60 C59 1_555 1_555
C61 C60 1_555 1_555
C62 N17 1_555 1_555
C63 C62 1_555 1_555
N18 C64 1_555 1_555
C64 C63 1_555 1_555
C65 C64 1_555 1_555
C66 C65 1_555 1_555
C67 N18 1_555 1_555
C68 C49 1_555 1_555
O5 C69 1_555 1_555
O6 C69 1_555 1_555
C69 C70 1_555 1_555
C70 C71 1_555 1_555
C71 C72 1_555 1_555
C72 C73 1_555 1_555
C73 C68 1_555 1_555
C74 C73 1_555 1_555
C75 C70 1_555 1_555
O7 C76 1_555 1_555
O8 C76 1_555 1_555
C76 C77 1_555 1_555
C77 C78 1_555 1_555
C78 C79 1_555 1_555
C79 C80 1_555 1_555
C80 C63 1_555 1_555
C81 C80 1_555 1_555
C82 C77 1_555 1_555
O9 C83 1_555 1_555
O10 C83 1_555 1_555
C83 C84 1_555 1_555
C84 C85 1_555 1_555
C85 C86 1_555 1_555
C86 C87 1_555 1_555
C87 C58 1_555 1_555
C88 C87 1_555 1_555
C89 C84 1_555 1_555
O11 C90 1_555 1_555
O12 C90 1_555 1_555
C90 C91 1_555 1_555
C91 C92 1_555 1_555
C92 C93 1_555 1_555
C93 C94 1_555 1_555
C94 C53 1_555 1_555
C95 C94 1_555 1_555
C96 C91 1_555 1_555
H50 C50 1_555 1_555
H51 C51 1_555 1_555
H52 C55 1_555 1_555
H53 C56 1_555 1_555
H54 C60 1_555 1_555
H55 C61 1_555 1_555
H56 C65 1_555 1_555
H57 C66 1_555 1_555
H58 C71 1_555 1_555
H59 C72 1_555 1_555
H60 C74 1_555 1_555
H61 C75 1_555 1_555
H62 C78 1_555 1_555
H63 C79 1_555 1_555
H64 C81 1_555 1_555
H65 C82 1_555 1_555
H66 C85 1_555 1_555
H67 C86 1_555 1_555
H68 C88 1_555 1_555
H69 C89 1_555 1_555
H70 C92 1_555 1_555
H71 C93 1_555 1_555
H72 C95 1_555 1_555
H73 C96 1_555 1_555
H74 N16 1_555 1_555
H75 N18 1_555 1_555
N1A C1A 1_555 1_555
C1A C2A 1_555 1_555
C2A C3A 1_555 1_555
C3A C4A 1_555 1_555
C4A C10 1_555 1_555
C5A C1A 1_555 1_555
N2A C6A 1_555 1_555
C6A C7A 1_555 1_555
C7A C8A 1_555 1_555
C8A C9A 1_555 1_555
C9A C5A 1_555 1_555
C10A C4 1_555 1_555
O1A C11A 1_555 1_555
O2A C11A 1_555 1_555
C11A C12A 1_555 1_555
C12A C13A 1_555 1_555
C13A C14A 1_555 1_555
C14A C15A 1_555 1_555
C15A C5A 1_555 1_555
C16A C15A 1_555 1_555
C17A C12A 1_555 1_555
O3A C18A 1_555 1_555
O4A C18A 1_555 1_555
C18A C19A 1_555 1_555
C19A C20A 1_555 1_555
C20A C21A 1_555 1_555
C21A C22A 1_555 1_555
C22A C10A 1_555 1_555
C23A C22A 1_555 1_555
C24A C19A 1_555 1_555
H1A C2A 1_555 1_555
H2A C3A 1_555 1_555
H3A C7A 1_555 1_555
H4A C8A 1_555 1_555
H5A C13A 1_555 1_555
H6A C14A 1_555 1_555
H7A C16A 1_555 1_555
H8A C17A 1_555 1_555
H9A C20A 1_555 1_555
H10A C21A 1_555 1_555
H11A C23A 1_555 1_555
H12A C24A 1_555 1_555
H13A N2A 1_555 1_555
N11A C41A 1_555 1_555
N12A C41A 1_555 1_555
C41A C42A 1_555 1_555
C42A C43A 1_555 1_555
C43A C44 1_555 1_555
C44A C43 1_555 1_555
H38A C43A 1_555 1_555
H39A C44A 1_555 1_555
H40A N11A 1_555 1_555
H41A N12A 1_555 1_555
H42A N12A 1_555 1_555
H43A N11A 1_555 1_555
N13A C45A 1_555 1_555
N14A C45A 1_555 1_555
C45A C46A 1_555 1_555
C46A C47A 1_555 1_555
C47A C48 1_555 1_555
C48A C47 1_555 1_555
H44A C47A 1_555 1_555
H45A C48A 1_555 1_555
H46A N13A 1_555 1_555
H47A N13A 1_555 1_555
H48A N14A 1_555 1_555
H49A N14A 1_555 1_555
N2 C9 1_555 1_555
C16 C17 1_555 1_555
C23 C24 1_555 1_555
C56 C57 1_555 1_555
C61 C62 1_555 1_555
C66 C67 1_555 1_555
C67 C68 1_555 1_555
C74 C75 1_555 1_555
C81 C82 1_555 1_555
C88 C89 1_555 1_555
C95 C96 1_555 1_555
N1A C4A 1_555 1_555
N2A C9A 1_555 1_555
C6A C10A 1_555 1_555
C16A C17A 1_555 1_555
C23A C24A 1_555 1_555
C42A C44A 1_555 1_555
C46A C48A 1_555 1_555

#END
