
#######################################################################
#
#                 Cambridge Crystallographic Data Centre
#                                CCDC 
#
#######################################################################
#
# If this CIF has been generated from an entry in the Cambridge 
# Structural Database, then it will include bibliographic, chemical, 
# crystal, experimental, refinement or atomic coordinate data resulting 
# from the CCDC's data processing and validation procedures.
#
#######################################################################

data_LEMDOX
_chemical_formula_moiety         'C22 H23 N1 O4 S1'
_chemical_name_systematic        
(+-)-2-benzyl-4-(toluene-4-sulfonyl)hexahydro-1H-cyclopenta[c]pyridine-1,3(2H)-dione
_symmetry_cell_setting           monoclinic
_symmetry_space_group_name_H-M   'P 21/c'
_symmetry_Int_Tables_number      14
_space_group_name_Hall           '-P 2ybc'
loop_
_symmetry_equiv_pos_site_id
_symmetry_equiv_pos_as_xyz
1 x,y,z
2 -x,1/2+y,1/2-z
3 -x,-y,-z
4 x,1/2-y,1/2+z
_cell_length_a                   19.552(2)
_cell_length_b                   7.7459(8)
_cell_length_c                   13.2549(14)
_cell_angle_alpha                90.00
_cell_angle_beta                 97.737(2)
_cell_angle_gamma                90.00
_cell_volume                     1989.15
_exptl_crystal_colour            colorless
_chemical_melting_point          '138-141 deg.C'
_cell_formula_units_Z            4
loop_
_atom_site_label
_atom_site_type_symbol
_atom_site_fract_x
_atom_site_fract_y
_atom_site_fract_z
S1 S 0.32016(3) 0.41063(7) 0.86503(5)
O1 O 0.29867(9) 0.4429(2) 0.75885(13)
O2 O 0.36987(8) 0.2767(2) 0.89402(15)
O3 O 0.26402(10) 0.7924(2) 0.95134(14)
O4 O 0.36047(11) 0.9117(3) 0.66907(14)
N1 N 0.31076(10) 0.8452(2) 0.80764(14)
C1 C 0.35661(12) 0.6082(3) 0.92198(17)
H1 H 0.3635 0.5927 0.9960
C2 C 0.30724(12) 0.7552(3) 0.89750(17)
C3 C 0.36327(13) 0.8267(3) 0.74710(17)
C4 C 0.42208(12) 0.7049(3) 0.77848(18)
H2 H 0.4183 0.6057 0.7321
C5 C 0.42649(12) 0.6398(3) 0.88838(17)
H3 H 0.4522 0.5309 0.8938
C6 C 0.47011(14) 0.7764(4) 0.9491(2)
H4 H 0.4429 0.8776 0.9601
H5 H 0.4909 0.7316 1.0145
C7 C 0.52464(19) 0.8178(6) 0.8812(2)
H6 H 0.5407 0.9357 0.8923
H7 H 0.5638 0.7408 0.8960
C8 C 0.49179(14) 0.7947(4) 0.7748(2)
H8 H 0.5209 0.7245 0.7374
H9 H 0.4848 0.9058 0.7412
C9 C 0.25534(14) 0.9708(3) 0.7788(2)
H10 H 0.2685 1.0459 0.7261
H11 H 0.2497 1.0418 0.8374
C10 C 0.18766(13) 0.8859(3) 0.7407(2)
C11 C 0.13199(18) 0.9000(4) 0.7950(3)
H12 H 0.1361 0.9641 0.8548
C12 C 0.07036(19) 0.8187(6) 0.7601(4)
H13 H 0.0333 0.8289 0.7969
C13 C 0.06307(18) 0.7238(5) 0.6726(4)
H14 H 0.0214 0.6693 0.6500
C14 C 0.11766(17) 0.7096(4) 0.6185(3)
H15 H 0.1130 0.6457 0.5586
C15 C 0.17933(14) 0.7892(4) 0.6521(2)
H16 H 0.2160 0.7780 0.6147
C16 C 0.24673(11) 0.3705(3) 0.92486(17)
C17 C 0.25288(12) 0.2762(3) 1.01356(18)
H17 H 0.2956 0.2338 1.0421
C18 C 0.19499(13) 0.2453(3) 1.0596(2)
H18 H 0.1989 0.1804 1.1191
C19 C 0.13139(13) 0.3089(3) 1.0191(2)
C20 C 0.12637(13) 0.4022(3) 0.9297(2)
H19 H 0.0836 0.4445 0.9013
C21 C 0.18303(12) 0.4340(3) 0.8816(2)
H20 H 0.1789 0.4967 0.8213
C22 C 0.06915(15) 0.2811(4) 1.0734(3)
H21 H 0.0293 0.3327 1.0347
H22 H 0.0771 0.3333 1.1396
H23 H 0.0614 0.1595 1.0804
loop_
_geom_bond_atom_site_label_1
_geom_bond_atom_site_label_2
_geom_bond_site_symmetry_1
_geom_bond_site_symmetry_2
S1 O1 1_555 1_555
O2 S1 1_555 1_555
O3 C2 1_555 1_555
O4 C3 1_555 1_555
N1 C2 1_555 1_555
C1 S1 1_555 1_555
H1 C1 1_555 1_555
C2 C1 1_555 1_555
C3 N1 1_555 1_555
C4 C3 1_555 1_555
H2 C4 1_555 1_555
C5 C1 1_555 1_555
H3 C5 1_555 1_555
C6 C5 1_555 1_555
H4 C6 1_555 1_555
H5 C6 1_555 1_555
C7 C6 1_555 1_555
H6 C7 1_555 1_555
H7 C7 1_555 1_555
C8 C4 1_555 1_555
H8 C8 1_555 1_555
H9 C8 1_555 1_555
C9 N1 1_555 1_555
H10 C9 1_555 1_555
H11 C9 1_555 1_555
C10 C9 1_555 1_555
C11 C10 1_555 1_555
H12 C11 1_555 1_555
C12 C11 1_555 1_555
H13 C12 1_555 1_555
C13 C12 1_555 1_555
H14 C13 1_555 1_555
C14 C13 1_555 1_555
H15 C14 1_555 1_555
C15 C10 1_555 1_555
H16 C15 1_555 1_555
C16 S1 1_555 1_555
C17 C16 1_555 1_555
H17 C17 1_555 1_555
C18 C17 1_555 1_555
H18 C18 1_555 1_555
C19 C18 1_555 1_555
C20 C19 1_555 1_555
H19 C20 1_555 1_555
C21 C16 1_555 1_555
H20 C21 1_555 1_555
C22 C19 1_555 1_555
H21 C22 1_555 1_555
H22 C22 1_555 1_555
H23 C22 1_555 1_555
C4 C5 1_555 1_555
C7 C8 1_555 1_555
C14 C15 1_555 1_555
C20 C21 1_555 1_555

#END
