
#######################################################################
#
#                 Cambridge Crystallographic Data Centre
#                                CCDC 
#
#######################################################################
#
# If this CIF has been generated from an entry in the Cambridge 
# Structural Database, then it will include bibliographic, chemical, 
# crystal, experimental, refinement or atomic coordinate data resulting 
# from the CCDC's data processing and validation procedures.
#
#######################################################################

data_LEMGUG
_chemical_name_common            
'N,N,N-trimethyl-3-(methoxy)-4-[8-(methoxy)-6-oxo-3-(trichloroacetyl)-2,3-dihydro-1H-indolo[3,2,1-de]-1,5-naphthyridin-3a(6H)-yl]anilinium iodide dichloromethane solvate'
_chemical_formula_moiety         'C27 H27 Cl3 N3 O4 1+,I1 1-,0.5(C1 H2 Cl2)'
_chemical_name_systematic        
'8-(methoxy)-6-oxo-3-(trichloroacetyl)-3a-(4-(trimethylammonio)-2-methoxyphenyl)-1,2,3,6-tetrahydroindolo[3,2,1-de]-1,5-naphthyridine iodide dichloromethane solvate'
_symmetry_cell_setting           monoclinic
_symmetry_space_group_name_H-M   'P 2/c'
_symmetry_Int_Tables_number      13
_space_group_name_Hall           '-P 2yc'
loop_
_symmetry_equiv_pos_site_id
_symmetry_equiv_pos_as_xyz
1 x,y,z
2 -x,y,1/2-z
3 -x,-y,-z
4 x,-y,1/2+z
_cell_length_a                   20.041(8)
_cell_length_b                   9.284(4)
_cell_length_c                   21.351(8)
_cell_angle_alpha                90
_cell_angle_beta                 104.917(7)
_cell_angle_gamma                90
_cell_volume                     3838.7
_exptl_crystal_colour            colorless
_exptl_crystal_description       plate
_cell_formula_units_Z            4
loop_
_atom_site_label
_atom_site_type_symbol
_atom_site_fract_x
_atom_site_fract_y
_atom_site_fract_z
Cl1 Cl 0.8087(3) 0.9518(5) 0.2750(2)
Cl2 Cl 0.6748(2) 0.9845(5) 0.1826(2)
Cl3 Cl 0.6889(3) 0.8241(5) 0.2994(3)
O1 O 0.8700(7) 0.1986(15) 0.1650(7)
O2 O 0.7310(6) 0.6119(13) 0.2289(6)
O3 O 0.9973(6) 0.2222(18) 0.1529(7)
O4 O 0.6400(5) 0.6698(12) 0.0628(5)
N1 N 0.8835(7) 0.4322(15) 0.1410(6)
N2 N 0.7671(6) 0.7277(14) 0.1512(6)
N3 N 0.6597(6) 0.6714(14) -0.1605(6)
C1 C 0.8451(10) 0.317(2) 0.1494(8)
C2 C 0.7710(9) 0.3364(19) 0.1424(7)
H1 H 0.7448 0.2552 0.1456
C3 C 0.7387(8) 0.4629(19) 0.1317(7)
H2 H 0.6928 0.4706 0.1331
C4 C 0.7769(8) 0.5938(17) 0.1174(7)
C5 C 0.8526(8) 0.5680(19) 0.1348(6)
C6 C 0.9005(8) 0.6714(17) 0.1485(7)
C7 C 0.8815(8) 0.8254(16) 0.1511(8)
H3 H 0.9025 0.8803 0.1226
H4 H 0.9000 0.8609 0.1949
C8 C 0.8041(7) 0.8497(16) 0.1315(7)
H5 H 0.7933 0.9374 0.1516
H6 H 0.7888 0.8618 0.0848
C9 C 0.9667(8) 0.602(2) 0.1626(7)
C10 C 0.9546(8) 0.453(2) 0.1578(7)
C11 C 1.0101(11) 0.364(2) 0.1660(8)
C12 C 1.0760(10) 0.418(3) 0.1833(8)
H7 H 1.1134 0.3555 0.1904
C13 C 1.0877(10) 0.568(3) 0.1905(8)
H8 H 1.1326 0.6031 0.2028
C14 C 1.0327(10) 0.660(2) 0.1792(8)
H9 H 1.0393 0.7596 0.1826
C15 C 0.7422(8) 0.718(2) 0.2044(8)
C16 C 0.7293(8) 0.8618(18) 0.2366(8)
C17 C 1.0522(13) 0.117(3) 0.1739(17)
H10 H 1.0961 0.1646 0.1816
H11 H 1.0488 0.0455 0.1408
H12 H 1.0480 0.0719 0.2131
C18 C 0.7448(8) 0.6184(16) 0.0436(7)
C19 C 0.6762(8) 0.6532(17) 0.0185(8)
C20 C 0.6483(8) 0.6682(15) -0.0475(7)
H13 H 0.6018 0.6899 -0.0640
C21 C 0.6916(9) 0.6500(16) -0.0891(7)
C22 C 0.7590(8) 0.6129(16) -0.0673(7)
H14 H 0.7868 0.5983 -0.0956
C23 C 0.7850(8) 0.5976(16) -0.0001(7)
H15 H 0.8311 0.5724 0.0161
C24 C 0.5661(8) 0.696(2) 0.0394(9)
H16 H 0.5585 0.7801 0.0121
H17 H 0.5468 0.7121 0.0756
H18 H 0.5442 0.6146 0.0151
C25 C 0.6194(8) 0.8136(16) -0.1748(7)
H19 H 0.5835 0.8147 -0.1524
H20 H 0.5993 0.8219 -0.2206
H21 H 0.6503 0.8929 -0.1603
C26 C 0.6084(8) 0.5468(17) -0.1867(8)
H22 H 0.6332 0.4574 -0.1827
H23 H 0.5858 0.5641 -0.2314
H24 H 0.5746 0.5419 -0.1621
C27 C 0.7117(8) 0.672(2) -0.2008(7)
H25 H 0.7475 0.7404 -0.1833
H26 H 0.6891 0.6973 -0.2447
H27 H 0.7317 0.5774 -0.2001
I1 I 0.55830(6) 0.28973(15) 0.13256(6)
Cl4 Cl 0.6392(18) 0.295(3) 0.9461(17)
Cl5 Cl 0.6696(17) 0.028(3) 1.0066(16)
C28 C 0.6022(17) 0.138(5) 0.968(3)
H28 H 0.5730 0.1610 0.9961
H29 H 0.5743 0.0910 0.9292
Cl6 Cl 0.156(2) 0.882(5) 0.029(3)
Cl7 Cl 0.046(3) 0.664(5) 0.010(3)
C29 C 0.072(2) 0.843(5) 0.028(3)
H30 H 0.0419 0.9051 -0.0029
H31 H 0.0658 0.8659 0.0707
loop_
_geom_bond_atom_site_label_1
_geom_bond_atom_site_label_2
_geom_bond_site_symmetry_1
_geom_bond_site_symmetry_2
Cl1 C16 1_555 1_555
Cl2 C16 1_555 1_555
Cl3 C16 1_555 1_555
O1 C1 1_555 1_555
O2 C15 1_555 1_555
O3 C11 1_555 1_555
O4 C19 1_555 1_555
N1 C1 1_555 1_555
N2 C4 1_555 1_555
N3 C21 1_555 1_555
C1 C2 1_555 1_555
C2 H1 1_555 1_555
C3 C2 1_555 1_555
H2 C3 1_555 1_555
C4 C3 1_555 1_555
C5 N1 1_555 1_555
C6 C5 1_555 1_555
C7 C6 1_555 1_555
H3 C7 1_555 1_555
H4 C7 1_555 1_555
C8 N2 1_555 1_555
H5 C8 1_555 1_555
H6 C8 1_555 1_555
C9 C6 1_555 1_555
C10 N1 1_555 1_555
C11 C10 1_555 1_555
C12 C11 1_555 1_555
H7 C12 1_555 1_555
C13 C12 1_555 1_555
H8 C13 1_555 1_555
C14 C9 1_555 1_555
H9 C14 1_555 1_555
C15 N2 1_555 1_555
C16 C15 1_555 1_555
C17 O3 1_555 1_555
H10 C17 1_555 1_555
H11 C17 1_555 1_555
H12 C17 1_555 1_555
C18 C4 1_555 1_555
C19 C18 1_555 1_555
C20 C19 1_555 1_555
H13 C20 1_555 1_555
C21 C20 1_555 1_555
C22 C21 1_555 1_555
H14 C22 1_555 1_555
C23 C18 1_555 1_555
H15 C23 1_555 1_555
C24 O4 1_555 1_555
H16 C24 1_555 1_555
H17 C24 1_555 1_555
H18 C24 1_555 1_555
C25 N3 1_555 1_555
H19 C25 1_555 1_555
H20 C25 1_555 1_555
H21 C25 1_555 1_555
C26 N3 1_555 1_555
H22 C26 1_555 1_555
H23 C26 1_555 1_555
H24 C26 1_555 1_555
C27 N3 1_555 1_555
H25 C27 1_555 1_555
H26 C27 1_555 1_555
H27 C27 1_555 1_555
Cl4 C28 1_555 1_555
Cl5 C28 1_555 1_555
C28 H28 1_555 1_555
H29 C28 1_555 1_555
Cl6 C29 1_555 1_555
Cl7 C29 1_555 1_555
C29 H30 1_555 1_555
H31 C29 1_555 1_555
C4 C5 1_555 1_555
C7 C8 1_555 1_555
C9 C10 1_555 1_555
C13 C14 1_555 1_555
C22 C23 1_555 1_555

#END
