
#######################################################################
#
#                 Cambridge Crystallographic Data Centre
#                                CCDC 
#
#######################################################################
#
# If this CIF has been generated from an entry in the Cambridge 
# Structural Database, then it will include bibliographic, chemical, 
# crystal, experimental, refinement or atomic coordinate data resulting 
# from the CCDC's data processing and validation procedures.
#
#######################################################################

data_LEMGOA
_chemical_formula_moiety         'C30 H37 N3 O7,C4 H8 O2'
_chemical_name_systematic        
't-butyl 11b-hydroxy-11c-[6-hydroxy-1-methyl-7-(methoxy)-2,3-dihydro-1H-indol-5-yl]-8-(methoxy)-6-oxo-1,2,3a,4,5,6,11b,11c-octahydro-3H-indolo[3,2,1-de]-1,5-naphthyridine-3-carboxylate ethyl acetate solvate'
_symmetry_cell_setting           monoclinic
_symmetry_space_group_name_H-M   'C 2/c'
_symmetry_Int_Tables_number      15
_space_group_name_Hall           '-C 2yn'
loop_
_symmetry_equiv_pos_site_id
_symmetry_equiv_pos_as_xyz
1 x,y,z
2 1/2+x,1/2+y,z
3 -x,y,1/2-z
4 1/2-x,1/2+y,1/2-z
5 -x,-y,-z
6 1/2-x,1/2-y,-z
7 x,-y,1/2+z
8 1/2+x,1/2-y,1/2+z
_cell_length_a                   31.189(5)
_cell_length_b                   16.501(3)
_cell_length_c                   14.102(2)
_cell_angle_alpha                90
_cell_angle_beta                 113.036(4)
_cell_angle_gamma                90
_cell_volume                     6678.86
_exptl_crystal_colour            colorless
_exptl_crystal_description       needle
_cell_formula_units_Z            8
loop_
_atom_site_label
_atom_site_type_symbol
_atom_site_fract_x
_atom_site_fract_y
_atom_site_fract_z
O1 O 0.27334(6) 0.50399(11) 0.40733(14)
O2 O 0.18077(6) 0.53297(10) 0.28168(14)
O3 O 0.22109(6) 0.28895(11) 0.06028(13)
H1 H 0.2311 0.2425 0.0710
O4 O 0.41520(7) 0.33624(12) 0.37937(15)
O5 O 0.38615(6) 0.23128(11) 0.43969(15)
O6 O 0.23495(6) 0.15389(10) 0.17844(15)
H2 H 0.2278 0.1068 0.1605
O7 O 0.15959(7) 0.06312(11) 0.16676(15)
N1 N 0.33811(8) 0.32422(13) 0.32873(17)
N2 N 0.24518(7) 0.40179(12) 0.29158(16)
N3 N 0.09020(8) 0.14123(14) 0.23731(18)
C1 C 0.29597(9) 0.28118(15) 0.3290(2)
H3 H 0.2972 0.2245 0.3095
C2 C 0.29467(9) 0.28359(15) 0.4356(2)
H4 H 0.3217 0.2555 0.4841
H5 H 0.2670 0.2558 0.4341
C3 C 0.29439(10) 0.37053(15) 0.4714(2)
H6 H 0.2795 0.3714 0.5203
H7 H 0.3264 0.3879 0.5077
C4 C 0.27025(10) 0.43092(18) 0.3879(2)
C5 C 0.22114(9) 0.45226(16) 0.2056(2)
C6 C 0.19154(9) 0.51707(16) 0.1984(2)
C7 C 0.17296(10) 0.55787(16) 0.1048(2)
H8 H 0.1545 0.6035 0.0984
C8 C 0.18177(10) 0.53101(17) 0.0204(2)
H9 H 0.1702 0.5604 -0.0408
C9 C 0.20742(9) 0.46147(16) 0.0261(2)
H10 H 0.2117 0.4418 -0.0314
C10 C 0.22630(9) 0.42240(16) 0.1192(2)
C11 C 0.24978(9) 0.34011(16) 0.1410(2)
C12 C 0.29872(9) 0.34261(16) 0.1422(2)
H11 H 0.3086 0.2881 0.1346
H12 H 0.2987 0.3747 0.0846
C13 C 0.33255(9) 0.37892(16) 0.2418(2)
H13 H 0.3625 0.3873 0.2375
H14 H 0.3210 0.4311 0.2532
C14 C 0.25045(9) 0.31958(15) 0.2525(2)
C15 C 0.37991(10) 0.29137(19) 0.3862(2)
C16 C 0.46273(10) 0.3031(2) 0.4129(2)
C17 C 0.48478(10) 0.2947(2) 0.5277(2)
H15 H 0.4811 0.3444 0.5592
H16 H 0.5173 0.2830 0.5486
H17 H 0.4700 0.2514 0.5490
C18 C 0.46174(11) 0.2250(2) 0.3575(3)
H18 H 0.4462 0.1842 0.3810
H19 H 0.4931 0.2079 0.3714
H20 H 0.4453 0.2329 0.2847
C19 C 0.48723(11) 0.3696(2) 0.3775(3)
H21 H 0.4721 0.3760 0.3041
H22 H 0.5192 0.3549 0.3954
H23 H 0.4857 0.4197 0.4106
C20 C 0.20861(9) 0.26742(16) 0.2456(2)
C21 C 0.20242(10) 0.18729(16) 0.2101(2)
C22 C 0.16390(10) 0.14159(16) 0.2049(2)
C23 C 0.13166(10) 0.17465(17) 0.2387(2)
C24 C 0.07496(10) 0.19424(18) 0.3017(2)
H24 H 0.0865 0.1746 0.3721
H25 H 0.0412 0.1968 0.2752
C25 C 0.09541(10) 0.27765(17) 0.2967(2)
H26 H 0.0735 0.3109 0.2426
H27 H 0.1048 0.3060 0.3620
C26 C 0.13703(10) 0.25483(17) 0.2726(2)
C27 C 0.17437(9) 0.29988(16) 0.27578(19)
H28 H 0.1771 0.3533 0.2985
C28 C 0.14293(10) 0.58748(18) 0.2659(2)
H29 H 0.1515 0.6410 0.2531
H30 H 0.1358 0.5882 0.3262
H31 H 0.1161 0.5698 0.2077
C29 C 0.12734(11) 0.05759(18) 0.0615(2)
H32 H 0.0985 0.0831 0.0540
H33 H 0.1218 0.0016 0.0420
H34 H 0.1401 0.0843 0.0180
C30 C 0.08772(11) 0.05559(18) 0.2593(3)
H35 H 0.0945 0.0237 0.2100
H36 H 0.0570 0.0429 0.2550
H37 H 0.1100 0.0437 0.3274
C31 C 0.39435(17) 0.2101(3) 0.0238(4)
H38 H 0.4213 0.2298 0.0802
H39 H 0.3708 0.1951 0.0485
H40 H 0.3825 0.2519 -0.0272
C32 C 0.4068(2) 0.1413(4) -0.0206(4)
H41 H 0.3793 0.1185 -0.0742
H42 H 0.4286 0.1570 -0.0512
C33 C 0.4443(2) 0.0103(6) 0.0299(6)
C34 C 0.4632(2) -0.0448(4) 0.1127(5)
H43 H 0.4921 -0.0238 0.1618
H44 H 0.4688 -0.0960 0.0871
H45 H 0.4417 -0.0522 0.1453
O8 O 0.42730(11) 0.0843(2) 0.0568(3)
O9 O 0.43836(15) 0.0202(5) -0.0689(4)
H46? H 0.4631 0.0121 -0.0749
loop_
_geom_bond_atom_site_label_1
_geom_bond_atom_site_label_2
_geom_bond_site_symmetry_1
_geom_bond_site_symmetry_2
O1 C4 1_555 1_555
O2 C6 1_555 1_555
O3 H1 1_555 1_555
O4 C15 1_555 1_555
O5 C15 1_555 1_555
O6 H2 1_555 1_555
O7 C22 1_555 1_555
N1 C1 1_555 1_555
N2 C4 1_555 1_555
N3 C23 1_555 1_555
C1 H3 1_555 1_555
C2 C1 1_555 1_555
H4 C2 1_555 1_555
H5 C2 1_555 1_555
C3 C2 1_555 1_555
H6 C3 1_555 1_555
H7 C3 1_555 1_555
C4 C3 1_555 1_555
C5 N2 1_555 1_555
C6 C5 1_555 1_555
C7 C6 1_555 1_555
H8 C7 1_555 1_555
C8 C7 1_555 1_555
H9 C8 1_555 1_555
C9 C8 1_555 1_555
H10 C9 1_555 1_555
C10 C5 1_555 1_555
C11 O3 1_555 1_555
C12 C11 1_555 1_555
H11 C12 1_555 1_555
H12 C12 1_555 1_555
C13 N1 1_555 1_555
H13 C13 1_555 1_555
H14 C13 1_555 1_555
C14 N2 1_555 1_555
C15 N1 1_555 1_555
C16 O4 1_555 1_555
C17 C16 1_555 1_555
H15 C17 1_555 1_555
H16 C17 1_555 1_555
H17 C17 1_555 1_555
C18 C16 1_555 1_555
H18 C18 1_555 1_555
H19 C18 1_555 1_555
H20 C18 1_555 1_555
C19 C16 1_555 1_555
H21 C19 1_555 1_555
H22 C19 1_555 1_555
H23 C19 1_555 1_555
C20 C14 1_555 1_555
C21 O6 1_555 1_555
C22 C21 1_555 1_555
C23 C22 1_555 1_555
C24 N3 1_555 1_555
H24 C24 1_555 1_555
H25 C24 1_555 1_555
C25 C24 1_555 1_555
H26 C25 1_555 1_555
H27 C25 1_555 1_555
C26 C23 1_555 1_555
C27 C20 1_555 1_555
H28 C27 1_555 1_555
C28 O2 1_555 1_555
H29 C28 1_555 1_555
H30 C28 1_555 1_555
H31 C28 1_555 1_555
C29 O7 1_555 1_555
H32 C29 1_555 1_555
H33 C29 1_555 1_555
H34 C29 1_555 1_555
C30 N3 1_555 1_555
H35 C30 1_555 1_555
H36 C30 1_555 1_555
H37 C30 1_555 1_555
C31 H38 1_555 1_555
H39 C31 1_555 1_555
H40 C31 1_555 1_555
C32 C31 1_555 1_555
H41 C32 1_555 1_555
H42 C32 1_555 1_555
C33 C34 1_555 1_555
C34 H43 1_555 1_555
H44 C34 1_555 1_555
H45 C34 1_555 1_555
O8 C32 1_555 1_555
O9 C33 1_555 1_555
C1 C14 1_555 1_555
C9 C10 1_555 1_555
C10 C11 1_555 1_555
C11 C14 1_555 1_555
C12 C13 1_555 1_555
C20 C21 1_555 1_555
C25 C26 1_555 1_555
C26 C27 1_555 1_555
C33 O8 1_555 1_555

#END
