
#######################################################################
#
#                 Cambridge Crystallographic Data Centre
#                                CCDC 
#
#######################################################################
#
# If this CIF has been generated from an entry in the Cambridge 
# Structural Database, then it will include bibliographic, chemical, 
# crystal, experimental, refinement or atomic coordinate data resulting 
# from the CCDC's data processing and validation procedures.
#
#######################################################################

data_LEMMOI
_chemical_formula_moiety         'C18 H14 Br1 F3 O2'
_chemical_name_systematic        
3-(4-bromophenyl)-4,4,4-trifluoro-2-(phenylethynyl)butane-1,3-diol
_symmetry_cell_setting           orthorhombic
_symmetry_space_group_name_H-M   'P 21 21 21'
_symmetry_Int_Tables_number      19
_space_group_name_Hall           'P 2ac 2ab'
loop_
_symmetry_equiv_pos_site_id
_symmetry_equiv_pos_as_xyz
1 x,y,z
2 1/2-x,-y,1/2+z
3 -x,1/2+y,1/2-z
4 1/2+x,1/2-y,-z
_cell_length_a                   5.8611(8)
_cell_length_b                   9.3952(12)
_cell_length_c                   30.011(4)
_cell_angle_alpha                90
_cell_angle_beta                 90
_cell_angle_gamma                90
_cell_volume                     1652.59
_exptl_crystal_colour            colorless
_exptl_crystal_description       prismatic
_cell_formula_units_Z            4
loop_
_atom_site_label
_atom_site_type_symbol
_atom_site_fract_x
_atom_site_fract_y
_atom_site_fract_z
Br1 Br 0.46162(10) -0.37970(5) 0.96078(2)
F1 F 1.1576(5) 0.3542(3) 0.92025(10)
F2 F 0.8446(5) 0.3265(3) 0.95594(9)
F3 F 1.1088(5) 0.1724(3) 0.96120(9)
O1 O 1.0861(5) 0.1391(3) 0.86481(10)
H1 H 1.1314 0.2102 0.8517
O2 O 0.4330(7) 0.2654(4) 0.81039(12)
C1 C 0.9032(7) 0.1761(4) 0.89297(13)
C2 C 1.0027(8) 0.2582(5) 0.93282(14)
C3 C 0.7257(7) 0.2693(4) 0.86790(13)
H2 H 0.6072 0.2977 0.8891
C4 C 0.6130(9) 0.1858(5) 0.83042(15)
H3 H 0.7262 0.1625 0.8080
H4 H 0.5524 0.0974 0.8422
C5 C 0.8309(7) 0.3987(4) 0.84980(13)
C6 C 0.9232(7) 0.4996(4) 0.83414(12)
C7 C 1.0380(7) 0.6237(4) 0.81749(11)
C8 C 0.9371(9) 0.7083(4) 0.78534(13)
H5 H 0.7973 0.6823 0.7732
C9 C 1.0430(11) 0.8307(5) 0.77136(15)
H6 H 0.9736 0.8878 0.7500
C10 C 1.2506(10) 0.8692(5) 0.78870(15)
H7 H 1.3214 0.9525 0.7792
C11 C 1.3522(9) 0.7860(5) 0.81965(17)
H8 H 1.4933 0.8123 0.8312
C12 C 1.2495(8) 0.6631(5) 0.83426(15)
H9 H 1.3216 0.6063 0.8554
C13 C 0.7959(7) 0.0395(4) 0.91003(13)
C14 C 0.8936(7) -0.0912(4) 0.90035(14)
H10 H 1.0263 -0.0954 0.8834
C15 C 0.7947(9) -0.2155(4) 0.91576(14)
H11 H 0.8610 -0.3031 0.9094
C16 C 0.6000(8) -0.2085(4) 0.94024(13)
C17 C 0.5007(7) -0.0809(4) 0.95087(14)
H12 H 0.3683 -0.0781 0.9679
C18 C 0.5998(7) 0.0427(4) 0.93595(15)
H13 H 0.5346 0.1298 0.9433
H14 H 0.511(12) 0.311(7) 0.7928(19)
loop_
_geom_bond_atom_site_label_1
_geom_bond_atom_site_label_2
_geom_bond_site_symmetry_1
_geom_bond_site_symmetry_2
Br1 C16 1_555 1_555
F1 C2 1_555 1_555
F2 C2 1_555 1_555
F3 C2 1_555 1_555
O1 H1 1_555 1_555
O2 C4 1_555 1_555
C1 O1 1_555 1_555
C2 C1 1_555 1_555
C3 C1 1_555 1_555
H2 C3 1_555 1_555
C4 C3 1_555 1_555
H3 C4 1_555 1_555
H4 C4 1_555 1_555
C5 C3 1_555 1_555
C6 C5 1_555 1_555
C7 C6 1_555 1_555
C8 C7 1_555 1_555
H5 C8 1_555 1_555
C9 C8 1_555 1_555
H6 C9 1_555 1_555
C10 C9 1_555 1_555
H7 C10 1_555 1_555
C11 C10 1_555 1_555
H8 C11 1_555 1_555
C12 C7 1_555 1_555
H9 C12 1_555 1_555
C13 C1 1_555 1_555
C14 C13 1_555 1_555
H10 C14 1_555 1_555
C15 C14 1_555 1_555
H11 C15 1_555 1_555
C16 C15 1_555 1_555
C17 C16 1_555 1_555
H12 C17 1_555 1_555
C18 C13 1_555 1_555
H13 C18 1_555 1_555
H14 O2 1_555 1_555
C11 C12 1_555 1_555
C17 C18 1_555 1_555

#END
