
#######################################################################
#
#                 Cambridge Crystallographic Data Centre
#                                CCDC 
#
#######################################################################
#
# If this CIF has been generated from an entry in the Cambridge 
# Structural Database, then it will include bibliographic, chemical, 
# crystal, experimental, refinement or atomic coordinate data resulting 
# from the CCDC's data processing and validation procedures.
#
#######################################################################

data_LEMNAT
_chemical_formula_moiety         'C17 H12 N2,0.5(C1 H1 Cl3)'
_chemical_name_systematic        '3-(9-anthryl)pyrazole chloroform solvate'
_symmetry_cell_setting           triclinic
_symmetry_space_group_name_H-M   'P -1'
_symmetry_Int_Tables_number      2
_space_group_name_Hall           '-P 1'
loop_
_symmetry_equiv_pos_site_id
_symmetry_equiv_pos_as_xyz
1 x,y,z
2 -x,-y,-z
_cell_length_a                   9.881(2)
_cell_length_b                   14.133(3)
_cell_length_c                   17.884(4)
_cell_angle_alpha                85.36(3)
_cell_angle_beta                 74.92(3)
_cell_angle_gamma                73.70(3)
_cell_volume                     2314.45
_exptl_crystal_colour            colorless
_exptl_crystal_description       block
_cell_formula_units_Z            6
_exptl_crystal_preparation       'blue-green luminescent'
loop_
_atom_site_label
_atom_site_type_symbol
_atom_site_fract_x
_atom_site_fract_y
_atom_site_fract_z
Cl1 Cl 0.4923(3) -0.0595(2) 0.35624(17)
Cl2 Cl 0.3134(3) 0.0965(2) 0.46062(18)
Cl3 Cl 0.6038(3) 0.0960(2) 0.3836(2)
C35 C 0.4517(10) 0.0607(7) 0.3785(6)
H25 H 0.4172 0.0983 0.3354
N1 N 0.7598(5) 0.0038(3) 0.1793(3)
N2 N 0.8228(5) -0.0799(4) 0.2121(3)
H1 H 0.8771 -0.0831 0.2433
C1 C 0.7907(6) -0.1590(4) 0.1900(3)
H3 H 0.8224 -0.2242 0.2054
C2 C 0.7037(6) -0.1245(4) 0.1414(3)
H4 H 0.6640 -0.1613 0.1165
C3 C 0.6849(6) -0.0223(4) 0.1358(3)
C4 C 0.6036(6) 0.0533(4) 0.0893(3)
C5 C 0.4509(6) 0.0635(4) 0.0997(3)
C6 C 0.3742(7) 0.0036(5) 0.1516(4)
H5 H 0.4223 -0.0430 0.1825
C7 C 0.2308(7) 0.0138(6) 0.1567(4)
H6 H 0.1833 -0.0275 0.1897
C8 C 0.1538(7) 0.0854(7) 0.1130(5)
H7 H 0.0560 0.0913 0.1174
C9 C 0.2209(7) 0.1456(6) 0.0650(4)
H8 H 0.1675 0.1931 0.0369
C10 C 0.3714(6) 0.1391(5) 0.0554(4)
C11 C 0.4439(7) 0.1979(5) 0.0052(4)
H9 H 0.3906 0.2482 -0.0210
C12 C 0.5915(6) 0.1862(4) -0.0084(4)
C13 C 0.6669(8) 0.2398(5) -0.0672(4)
H10 H 0.6149 0.2873 -0.0958
C14 C 0.8136(8) 0.2231(5) -0.0823(4)
H11 H 0.8617 0.2582 -0.1215
C15 C 0.8921(7) 0.1521(5) -0.0383(4)
H12 H 0.9923 0.1420 -0.0483
C16 C 0.8280(6) 0.0988(4) 0.0172(3)
H13 H 0.8839 0.0527 0.0449
C17 C 0.6748(6) 0.1116(4) 0.0347(3)
N3 N 0.8621(5) 0.1865(3) 0.2762(3)
N4 N 0.8070(5) 0.1856(4) 0.2147(3)
H2 H 0.7783 0.1376 0.2036
C18 C 0.8028(7) 0.2681(5) 0.1738(4)
H14 H 0.7683 0.2838 0.1294
C19 C 0.8587(8) 0.3265(5) 0.2087(4)
H15 H 0.8700 0.3888 0.1932
C20 C 0.8947(6) 0.2713(4) 0.2728(3)
C21 C 0.9498(6) 0.3010(4) 0.3343(3)
C22 C 1.0988(6) 0.2986(4) 0.3212(4)
C23 C 1.2025(7) 0.2632(5) 0.2519(4)
H16 H 1.1743 0.2387 0.2134
C24 C 1.3439(7) 0.2646(6) 0.2409(4)
H17 H 1.4110 0.2419 0.1946
C25 C 1.3894(7) 0.3005(5) 0.2993(4)
H18 H 1.4862 0.3006 0.2913
C26 C 1.2943(7) 0.3341(5) 0.3655(4)
H19 H 1.3263 0.3577 0.4030
C27 C 1.1438(6) 0.3350(4) 0.3810(3)
C28 C 1.0437(7) 0.3710(4) 0.4486(3)
H20 H 1.0742 0.3960 0.4859
C29 C 0.8995(6) 0.3713(4) 0.4628(3)
C30 C 0.7975(7) 0.4069(4) 0.5342(4)
H21 H 0.8294 0.4289 0.5725
C31 C 0.6558(7) 0.4091(5) 0.5470(4)
H22 H 0.5906 0.4330 0.5935
C32 C 0.6066(7) 0.3749(5) 0.4892(4)
H23 H 0.5088 0.3771 0.4981
C33 C 0.6992(6) 0.3392(4) 0.4215(4)
H24 H 0.6647 0.3163 0.3848
C34 C 0.8501(6) 0.3362(4) 0.4057(3)
N5 N 0.9942(5) -0.0726(3) 0.3149(3)
N6 N 0.9902(6) 0.0091(4) 0.3501(3)
H26 H 0.9442 0.0678 0.3394
C36 C 1.0671(9) -0.0125(5) 0.4039(4)
H27 H 1.0792 0.0326 0.4350
C37 C 1.1249(9) -0.1130(6) 0.4050(4)
H28 H 1.1820 -0.1499 0.4367
C38 C 1.0772(7) -0.1476(4) 0.3467(3)
C39 C 1.1081(7) -0.2488(4) 0.3195(3)
C40 C 1.2523(6) -0.3007(4) 0.2824(3)
C41 C 1.3720(7) -0.2579(5) 0.2719(4)
H29 H 1.3552 -0.1933 0.2869
C42 C 1.5082(8) -0.3114(6) 0.2403(5)
H30 H 1.5847 -0.2830 0.2342
C43 C 1.5383(7) -0.4084(6) 0.2164(5)
H31 H 1.6339 -0.4442 0.1959
C44 C 1.4277(7) -0.4504(5) 0.2230(4)
H32 H 1.4484 -0.5144 0.2057
C45 C 1.2802(7) -0.3980(4) 0.2563(4)
C46 C 1.1653(7) -0.4398(4) 0.2651(4)
H33 H 1.1844 -0.5028 0.2461
C47 C 1.0247(7) -0.3914(4) 0.3010(3)
C48 C 0.9078(7) -0.4362(5) 0.3139(4)
H34 H 0.9256 -0.4989 0.2946
C49 C 0.7730(7) -0.3898(5) 0.3533(4)
H35 H 0.6990 -0.4210 0.3612
C50 C 0.7421(7) -0.2950(5) 0.3827(4)
H36 H 0.6480 -0.2642 0.4101
C51 C 0.8471(7) -0.2481(4) 0.3717(4)
H37 H 0.8241 -0.1850 0.3913
C52 C 0.9949(6) -0.2941(4) 0.3298(3)
C53 C 0.173(3) 0.5394(11) 0.0611(9)
H38 H 0.2094 0.5745 0.0933
Cl4 Cl 0.1942(7) 0.4216(3) 0.0946(2)
Cl5 Cl 0.0023(8) 0.6000(4) 0.0650(6)
Cl6 Cl 0.2890(11) 0.5324(5) -0.0346(3)
loop_
_geom_bond_atom_site_label_1
_geom_bond_atom_site_label_2
_geom_bond_site_symmetry_1
_geom_bond_site_symmetry_2
Cl1 C35 1_555 1_555
Cl2 C35 1_555 1_555
Cl3 C35 1_555 1_555
N1 N2 1_555 1_555
N2 H1 1_555 1_555
N3 N4 1_555 1_555
N4 H2 1_555 1_555
C1 N2 1_555 1_555
H3 C1 1_555 1_555
C2 C1 1_555 1_555
H4 C2 1_555 1_555
C3 N1 1_555 1_555
C4 C3 1_555 1_555
C5 C4 1_555 1_555
C6 C5 1_555 1_555
H5 C6 1_555 1_555
C7 C6 1_555 1_555
H6 C7 1_555 1_555
C8 C7 1_555 1_555
H7 C8 1_555 1_555
C9 C8 1_555 1_555
H8 C9 1_555 1_555
C10 C5 1_555 1_555
C11 C10 1_555 1_555
H9 C11 1_555 1_555
C12 C11 1_555 1_555
C13 C12 1_555 1_555
H10 C13 1_555 1_555
C14 C13 1_555 1_555
H11 C14 1_555 1_555
C15 C14 1_555 1_555
H12 C15 1_555 1_555
C16 C15 1_555 1_555
H13 C16 1_555 1_555
C17 C4 1_555 1_555
C18 N4 1_555 1_555
H14 C18 1_555 1_555
C19 C18 1_555 1_555
H15 C19 1_555 1_555
C20 N3 1_555 1_555
C21 C20 1_555 1_555
C22 C21 1_555 1_555
C23 C22 1_555 1_555
H16 C23 1_555 1_555
C24 C23 1_555 1_555
H17 C24 1_555 1_555
C25 C24 1_555 1_555
H18 C25 1_555 1_555
C26 C25 1_555 1_555
H19 C26 1_555 1_555
C27 C22 1_555 1_555
C28 C27 1_555 1_555
H20 C28 1_555 1_555
C29 C28 1_555 1_555
C30 C29 1_555 1_555
H21 C30 1_555 1_555
C31 C30 1_555 1_555
H22 C31 1_555 1_555
C32 C31 1_555 1_555
H23 C32 1_555 1_555
C33 C32 1_555 1_555
H24 C33 1_555 1_555
C34 C21 1_555 1_555
C35 H25 1_555 1_555
N5 N6 1_555 1_555
N6 H26 1_555 1_555
C36 N6 1_555 1_555
H27 C36 1_555 1_555
C37 C36 1_555 1_555
H28 C37 1_555 1_555
C38 N5 1_555 1_555
C39 C38 1_555 1_555
C40 C39 1_555 1_555
C41 C40 1_555 1_555
H29 C41 1_555 1_555
C42 C41 1_555 1_555
H30 C42 1_555 1_555
C43 C42 1_555 1_555
H31 C43 1_555 1_555
C44 C43 1_555 1_555
H32 C44 1_555 1_555
C45 C40 1_555 1_555
C46 C45 1_555 1_555
H33 C46 1_555 1_555
C47 C46 1_555 1_555
C48 C47 1_555 1_555
H34 C48 1_555 1_555
C49 C48 1_555 1_555
H35 C49 1_555 1_555
C50 C49 1_555 1_555
H36 C50 1_555 1_555
C51 C50 1_555 1_555
H37 C51 1_555 1_555
C52 C39 1_555 1_555
C53 H38 1_555 1_555
Cl4 C53 1_555 1_555
Cl5 C53 1_555 1_555
Cl6 C53 1_555 1_555
C2 C3 1_555 1_555
C9 C10 1_555 1_555
C12 C17 1_555 1_555
C16 C17 1_555 1_555
C19 C20 1_555 1_555
C26 C27 1_555 1_555
C29 C34 1_555 1_555
C33 C34 1_555 1_555
C37 C38 1_555 1_555
C44 C45 1_555 1_555
C47 C52 1_555 1_555
C51 C52 1_555 1_555

#END
