
#######################################################################
#
#                 Cambridge Crystallographic Data Centre
#                                CCDC 
#
#######################################################################
#
# If this CIF has been generated from an entry in the Cambridge 
# Structural Database, then it will include bibliographic, chemical, 
# crystal, experimental, refinement or atomic coordinate data resulting 
# from the CCDC's data processing and validation procedures.
#
#######################################################################

data_LEMNID
_chemical_formula_moiety         'C16 H16 N4 2+,2(H2 O1),2(Br1 1-)'
_chemical_name_systematic        
"1,1'-(ethane-1,2-diyl)bis(1H-benzimidazol-3-ium) dibromide dihydrate"
_symmetry_cell_setting           monoclinic
_symmetry_space_group_name_H-M   'P 21/c'
_symmetry_Int_Tables_number      14
_space_group_name_Hall           '-P 2ybc'
loop_
_symmetry_equiv_pos_site_id
_symmetry_equiv_pos_as_xyz
1 x,y,z
2 -x,1/2+y,1/2-z
3 -x,-y,-z
4 x,1/2-y,1/2+z
_cell_length_a                   9.8932(13)
_cell_length_b                   6.7074(13)
_cell_length_c                   16.664(2)
_cell_angle_alpha                90
_cell_angle_beta                 123.124(2)
_cell_angle_gamma                90
_cell_volume                     926.083
_exptl_crystal_colour            colorless
_exptl_crystal_description       block
_cell_formula_units_Z            2
loop_
_atom_site_label
_atom_site_type_symbol
_atom_site_fract_x
_atom_site_fract_y
_atom_site_fract_z
Br1 Br 0.33219(7) 0.51189(11) 0.13065(4)
N1 N 0.0671(5) 0.6055(7) 0.4237(3)
N2 N 0.2244(5) 0.6015(7) 0.3710(3)
H1 H 0.3107 0.6017 0.3704
C1 C 0.0157(7) 0.6045(9) 0.4911(4)
H2 H -0.0819 0.6832 0.4651
H3 H 0.0989 0.6645 0.5511
C2 C 0.2212(7) 0.6050(9) 0.4484(4)
H4 H 0.3115 0.6067 0.5108
C3 C 0.0697(6) 0.5976(8) 0.2906(3)
C4 C -0.0331(7) 0.6013(9) 0.3237(4)
C5 C -0.1988(6) 0.5993(9) 0.2611(4)
H5 H -0.2675 0.5995 0.2830
C6 C -0.2571(7) 0.5973(10) 0.1656(4)
H6 H -0.3681 0.5972 0.1214
C7 C -0.1538(7) 0.5952(9) 0.1325(4)
H7 H -0.1982 0.5931 0.0669
C8 C 0.0108(7) 0.5961(9) 0.1942(4)
H8 H 0.0792 0.5958 0.1721
N1B N -0.0671(5) 0.3945(7) 0.5763(3)
N2B N -0.2244(5) 0.3985(7) 0.6290(3)
H1B H -0.3107 0.3983 0.6296
C1B C -0.0157(7) 0.3955(9) 0.5089(4)
H2B H 0.0819 0.3168 0.5349
H3B H -0.0989 0.3355 0.4489
C2B C -0.2212(7) 0.3950(9) 0.5516(4)
H4B H -0.3115 0.3933 0.4892
C3B C -0.0697(6) 0.4024(8) 0.7094(3)
C4B C 0.0331(7) 0.3987(9) 0.6763(4)
C5B C 0.1988(6) 0.4007(9) 0.7389(4)
H5B H 0.2675 0.4005 0.7170
C6B C 0.2571(7) 0.4027(10) 0.8344(4)
H6B H 0.3681 0.4028 0.8786
C7B C 0.1538(7) 0.4048(9) 0.8675(4)
H7B H 0.1982 0.4069 0.9331
C8B C -0.0108(7) 0.4039(9) 0.8058(4)
H8B H -0.0792 0.4042 0.8279
O1 O 0.4889(4) 0.5920(7) 0.3599(2)
H9 H 0.4439 0.5593 0.3014
H10 H 0.5390 0.7011 0.3687
loop_
_geom_bond_atom_site_label_1
_geom_bond_atom_site_label_2
_geom_bond_site_symmetry_1
_geom_bond_site_symmetry_2
N1 C1 1_555 1_555
N2 H1 1_555 1_555
C1 H2 1_555 1_555
H3 C1 1_555 1_555
C2 N1 1_555 1_555
H4 C2 1_555 1_555
C3 N2 1_555 1_555
C4 N1 1_555 1_555
C5 C4 1_555 1_555
H5 C5 1_555 1_555
C6 C5 1_555 1_555
H6 C6 1_555 1_555
C7 C6 1_555 1_555
H7 C7 1_555 1_555
C8 C3 1_555 1_555
H8 C8 1_555 1_555
O1 H9 1_555 1_555
H10 O1 1_555 1_555
N1B C1B 1_555 1_555
N2B H1B 1_555 1_555
C1B C1 1_555 1_555
H2B C1B 1_555 1_555
H3B C1B 1_555 1_555
C2B N1B 1_555 1_555
H4B C2B 1_555 1_555
C3B N2B 1_555 1_555
C4B N1B 1_555 1_555
C5B C4B 1_555 1_555
H5B C5B 1_555 1_555
C6B C5B 1_555 1_555
H6B C6B 1_555 1_555
C7B C6B 1_555 1_555
H7B C7B 1_555 1_555
C8B C3B 1_555 1_555
H8B C8B 1_555 1_555
N2 C2 1_555 1_555
C3 C4 1_555 1_555
C7 C8 1_555 1_555
N2B C2B 1_555 1_555
C3B C4B 1_555 1_555
C7B C8B 1_555 1_555

#END
