
#######################################################################
#
#                 Cambridge Crystallographic Data Centre
#                                CCDC 
#
#######################################################################
#
# If this CIF has been generated from an entry in the Cambridge 
# Structural Database, then it will include bibliographic, chemical, 
# crystal, experimental, refinement or atomic coordinate data resulting 
# from the CCDC's data processing and validation procedures.
#
#######################################################################

data_LEMPIF
_chemical_formula_moiety         'C10 H10 N6 2+,2(Cl1 O4 1-)'
_chemical_name_systematic        
"1,1'-(pyridazine-3,6-diyl)bis(1H-imidazol-3-ium) diperchlorate"
_symmetry_cell_setting           monoclinic
_symmetry_space_group_name_H-M   'P 21/c'
_symmetry_Int_Tables_number      14
_space_group_name_Hall           '-P 2ybc'
loop_
_symmetry_equiv_pos_site_id
_symmetry_equiv_pos_as_xyz
1 x,y,z
2 -x,1/2+y,1/2-z
3 -x,-y,-z
4 x,1/2-y,1/2+z
_cell_length_a                   11.5495(4)
_cell_length_b                   12.3070(5)
_cell_length_c                   11.4709(5)
_cell_angle_alpha                90
_cell_angle_beta                 97.8520(10)
_cell_angle_gamma                90
_cell_volume                     1615.18
_exptl_crystal_colour            colorless
_exptl_crystal_description       block
_cell_formula_units_Z            4
loop_
_atom_site_label
_atom_site_type_symbol
_atom_site_fract_x
_atom_site_fract_y
_atom_site_fract_z
Cl1 Cl 0.89544(7) 0.66831(6) 0.84681(7)
O1 O 0.9255(3) 0.6604(3) 0.7301(3)
O2 O 0.7719(2) 0.6674(2) 0.8426(3)
O3 O 0.9438(2) 0.57486(18) 0.9130(2)
O4 O 0.9412(3) 0.7645(2) 0.9011(3)
Cl2 Cl 0.44045(7) 0.67084(6) 0.83202(8)
O5 O 0.3189(2) 0.6644(2) 0.8413(3)
O6 O 0.4722(3) 0.7799(2) 0.8245(4)
O7 O 0.5030(3) 0.6238(4) 0.9337(4)
O8 O 0.4648(3) 0.6106(4) 0.7359(4)
N1 N 0.8352(3) 0.4469(2) 0.4565(3)
N2 N 0.8330(3) 0.4128(2) 0.5674(3)
N3 N 0.7742(2) 0.55120(19) 0.2953(2)
N4 N 0.8448(2) 0.5584(2) 0.1324(2)
H1 H 0.8908 0.5496 0.0801
N5 N 0.7654(2) 0.4120(2) 0.7448(2)
N6 N 0.7321(4) 0.3726(3) 0.9185(3)
H2 H 0.7008 0.3705 0.9823
C1 C 0.7625(2) 0.5224(2) 0.4138(3)
C2 C 0.6818(3) 0.5711(3) 0.4751(3)
H3 H 0.6319 0.6253 0.4413
C3 C 0.6785(3) 0.5363(3) 0.5874(3)
H4 H 0.6261 0.5649 0.6339
C4 C 0.7574(3) 0.4559(2) 0.6284(3)
C5 C 0.8630(3) 0.5199(3) 0.2399(3)
H5 H 0.9265 0.4781 0.2719
C6 C 0.7417(3) 0.6149(3) 0.1159(3)
H6 H 0.7089 0.6496 0.0471
C7 C 0.6970(3) 0.6107(3) 0.2173(3)
H7 H 0.6273 0.6418 0.2326
C8 C 0.6921(3) 0.4310(3) 0.8241(3)
H8 H 0.6266 0.4758 0.8147
C9 C 0.8303(4) 0.3161(3) 0.8997(3)
H9 H 0.8742 0.2700 0.9527
C10 C 0.8507(3) 0.3398(3) 0.7922(3)
H10 H 0.9114 0.3128 0.7551
loop_
_geom_bond_atom_site_label_1
_geom_bond_atom_site_label_2
_geom_bond_site_symmetry_1
_geom_bond_site_symmetry_2
Cl1 O1 1_555 1_555
O2 Cl1 1_555 1_555
O3 Cl1 1_555 1_555
O4 Cl1 1_555 1_555
Cl2 O5 1_555 1_555
O6 Cl2 1_555 1_555
O7 Cl2 1_555 1_555
O8 Cl2 1_555 1_555
N1 N2 1_555 1_555
N2 C4 1_555 1_555
N3 C1 1_555 1_555
N4 H1 1_555 1_555
N5 C4 1_555 1_555
N6 H2 1_555 1_555
C1 N1 1_555 1_555
C2 C1 1_555 1_555
H3 C2 1_555 1_555
C3 C2 1_555 1_555
H4 C3 1_555 1_555
C4 C3 1_555 1_555
C5 N3 1_555 1_555
H5 C5 1_555 1_555
C6 N4 1_555 1_555
H6 C6 1_555 1_555
C7 N3 1_555 1_555
H7 C7 1_555 1_555
C8 N5 1_555 1_555
H8 C8 1_555 1_555
C9 N6 1_555 1_555
H9 C9 1_555 1_555
C10 N5 1_555 1_555
H10 C10 1_555 1_555
N4 C5 1_555 1_555
N6 C8 1_555 1_555
C6 C7 1_555 1_555
C9 C10 1_555 1_555

#END
