
#######################################################################
#
#                 Cambridge Crystallographic Data Centre
#                                CCDC 
#
#######################################################################
#
# If this CIF has been generated from an entry in the Cambridge 
# Structural Database, then it will include bibliographic, chemical, 
# crystal, experimental, refinement or atomic coordinate data resulting 
# from the CCDC's data processing and validation procedures.
#
#######################################################################

data_LEMPAX
_chemical_formula_moiety         'C11 H11 N2 O1 1+,H2 O4 P1 1-'
_chemical_name_systematic        
'1-(2-oxo-2-phenylethyl)-1H-imidazol-3-ium dihydrogen phosphate'
_symmetry_cell_setting           triclinic
_symmetry_space_group_name_H-M   'P -1'
_symmetry_Int_Tables_number      2
_space_group_name_Hall           '-P 1'
loop_
_symmetry_equiv_pos_site_id
_symmetry_equiv_pos_as_xyz
1 x,y,z
2 -x,-y,-z
_cell_length_a                   5.5602(7)
_cell_length_b                   10.2151(11)
_cell_length_c                   11.5732(15)
_cell_angle_alpha                84.424(2)
_cell_angle_beta                 81.5500(10)
_cell_angle_gamma                76.5740(10)
_cell_volume                     631.07
_exptl_crystal_colour            colorless
_exptl_crystal_description       block
_cell_formula_units_Z            2
loop_
_atom_site_label
_atom_site_type_symbol
_atom_site_fract_x
_atom_site_fract_y
_atom_site_fract_z
N1 N 0.9201(3) 0.02547(19) 0.71919(16)
N2 N 0.8770(4) -0.1084(2) 0.59461(17)
H1 H 0.8176 -0.1419 0.5427
O1 O 0.4852(3) 0.0908(2) 0.86736(17)
C1 C 0.7751(4) 0.0072(2) 0.6426(2)
H2 H 0.6276 0.0658 0.6259
C2 C 1.0927(5) -0.1659(3) 0.6411(2)
H3 H 1.1999 -0.2475 0.6221
C3 C 1.1216(5) -0.0834(3) 0.7191(2)
H4 H 1.2517 -0.0969 0.7642
C4 C 0.8798(5) 0.1399(2) 0.7916(2)
H5 H 0.8677 0.2224 0.7414
H6 H 1.0221 0.1304 0.8336
C5 C 0.6441(4) 0.1510(2) 0.8791(2)
C6 C 0.6164(4) 0.2404(2) 0.9769(2)
C7 C 0.4145(5) 0.2435(3) 1.0654(2)
H7 H 0.3004 0.1907 1.0620
C8 C 0.3841(5) 0.3247(3) 1.1579(2)
H8 H 0.2495 0.3264 1.2163
C9 C 0.5535(5) 0.4032(3) 1.1636(2)
H9 H 0.5332 0.4570 1.2263
C10 C 0.7522(5) 0.4019(3) 1.0770(2)
H10 H 0.8643 0.4557 1.0809
C11 C 0.7861(5) 0.3208(3) 0.9838(2)
H11 H 0.9214 0.3197 0.9259
O2 O 0.2858(3) 0.42480(16) 0.44358(13)
O3 O 0.5613(3) 0.35025(17) 0.60502(15)
H12 H 0.5836 0.4272 0.6008
O4 O 0.1067(3) 0.44014(18) 0.65610(14)
H13 H -0.0350 0.4397 0.6444
O5 O 0.2731(3) 0.20987(16) 0.57446(15)
P1 P 0.30168(10) 0.35303(5) 0.56440(5)
loop_
_geom_bond_atom_site_label_1
_geom_bond_atom_site_label_2
_geom_bond_site_symmetry_1
_geom_bond_site_symmetry_2
N1 C1 1_555 1_555
N2 H1 1_555 1_555
O1 C5 1_555 1_555
C1 N2 1_555 1_555
H2 C1 1_555 1_555
C2 N2 1_555 1_555
H3 C2 1_555 1_555
C3 N1 1_555 1_555
H4 C3 1_555 1_555
C4 N1 1_555 1_555
H5 C4 1_555 1_555
H6 C4 1_555 1_555
C5 C4 1_555 1_555
C6 C5 1_555 1_555
C7 C6 1_555 1_555
H7 C7 1_555 1_555
C8 C7 1_555 1_555
H8 C8 1_555 1_555
C9 C8 1_555 1_555
H9 C9 1_555 1_555
C10 C9 1_555 1_555
H10 C10 1_555 1_555
C11 C6 1_555 1_555
H11 C11 1_555 1_555
O2 P1 1_555 1_555
O3 H12 1_555 1_555
O4 H13 1_555 1_555
O5 P1 1_555 1_555
P1 O3 1_555 1_555
C2 C3 1_555 1_555
C10 C11 1_555 1_555
O4 P1 1_555 1_555

#END
