
#######################################################################
#
#                 Cambridge Crystallographic Data Centre
#                                CCDC 
#
#######################################################################
#
# If this CIF has been generated from an entry in the Cambridge 
# Structural Database, then it will include bibliographic, chemical, 
# crystal, experimental, refinement or atomic coordinate data resulting 
# from the CCDC's data processing and validation procedures.
#
#######################################################################

data_LEMVAC
_chemical_formula_moiety         'C20 H17 N4 3+,3(N1 O3 1-),H2 O1'
_chemical_name_systematic        
"2,2'-[4-(pyridinium-4-yl)pyridine-2,6-diyl]dipyridinium trinitrate monohydrate"
_symmetry_cell_setting           triclinic
_symmetry_space_group_name_H-M   'P -1'
_symmetry_Int_Tables_number      2
_space_group_name_Hall           '-P 1'
loop_
_symmetry_equiv_pos_site_id
_symmetry_equiv_pos_as_xyz
1 x,y,z
2 -x,-y,-z
_cell_length_a                   7.1843(7)
_cell_length_b                   11.8503(12)
_cell_length_c                   13.9092(14)
_cell_angle_alpha                114.553(3)
_cell_angle_beta                 95.7160(10)
_cell_angle_gamma                91.176(2)
_cell_volume                     1069.23
_exptl_crystal_colour            colorless
_exptl_crystal_description       block
_cell_formula_units_Z            2
loop_
_atom_site_label
_atom_site_type_symbol
_atom_site_fract_x
_atom_site_fract_y
_atom_site_fract_z
N1 N 0.63363(15) 0.27202(10) 0.46715(9)
H1 H 0.5806 0.2199 0.4060
C1 C 0.65441(19) 0.23587(13) 0.54640(11)
H2 H 0.6157 0.1551 0.5340
C2 C 0.73305(19) 0.31791(13) 0.64650(11)
H3 H 0.7455 0.2941 0.7025
C3 C 0.79310(19) 0.43658(13) 0.66193(11)
H4 H 0.8466 0.4934 0.7289
C4 C 0.77362(19) 0.47091(12) 0.57759(11)
H5 H 0.8153 0.5503 0.5876
C5 C 0.69169(18) 0.38619(12) 0.47832(10)
C6 C 0.66070(18) 0.41198(12) 0.38250(10)
C7 C 0.72358(18) 0.52377(12) 0.38215(11)
H6 H 0.7873 0.5863 0.4432
C8 C 0.68910(18) 0.54004(12) 0.28857(11)
C9 C 0.59176(19) 0.44456(12) 0.19902(11)
H7 H 0.5655 0.4530 0.1356
C10 C 0.53486(18) 0.33602(12) 0.20731(10)
N2 N 0.56877(15) 0.31943(10) 0.29654(9)
C11 C 0.43364(18) 0.22821(12) 0.11606(10)
C12 C 0.4389(2) 0.20260(13) 0.01041(11)
H8 H 0.5010 0.2584 -0.0087
C13 C 0.3504(2) 0.09249(13) -0.06753(11)
H9 H 0.3554 0.0739 -0.1391
C14 C 0.25524(19) 0.01056(13) -0.03924(11)
H10 H 0.1957 -0.0631 -0.0910
C15 C 0.25041(19) 0.04029(13) 0.06729(11)
H11 H 0.1865 -0.0132 0.0881
N3 N 0.33787(16) 0.14632(10) 0.14068(9)
H12 H 0.3329 0.1632 0.2067
C16 C 0.75857(18) 0.65704(12) 0.28500(11)
C17 C 0.76738(19) 0.77030(13) 0.37458(11)
H13 H 0.7262 0.7738 0.4370
C18 C 0.83718(19) 0.87653(13) 0.36995(11)
H14 H 0.8403 0.9525 0.4288
N4 N 0.90061(16) 0.87083(11) 0.28112(9)
H15 H 0.9459 0.9380 0.2800
C19 C 0.8961(2) 0.76380(13) 0.19353(11)
H16 H 0.9425 0.7629 0.1332
C20 C 0.8229(2) 0.65566(13) 0.19302(11)
H17 H 0.8162 0.5818 0.1317
N5 N 0.41324(17) -0.02780(11) 0.31603(9)
O1 O 0.3719(2) -0.13264(10) 0.24356(10)
O2 O 0.34727(16) 0.00582(10) 0.40292(8)
O3 O 0.52455(15) 0.04624(9) 0.30167(8)
N6 N 0.97814(17) 0.30889(11) 0.07985(10)
O4 O 0.88150(19) 0.23428(12) -0.00309(9)
O5 O 0.98383(19) 0.29509(12) 0.16318(10)
O6 O 1.0677(2) 0.39814(12) 0.07671(12)
N7 N 0.08269(16) 0.15980(10) 0.34450(9)
O7 O 0.05499(15) 0.06479(9) 0.25644(8)
O8 O -0.01538(15) 0.17133(12) 0.41562(9)
O9 O 0.21192(15) 0.23858(9) 0.35724(9)
O10 O 0.3195(2) 0.58823(14) 0.07463(12)
H18 H 0.2356 0.5437 0.0855
H19 H 0.2649 0.6502 0.0712
loop_
_geom_bond_atom_site_label_1
_geom_bond_atom_site_label_2
_geom_bond_site_symmetry_1
_geom_bond_site_symmetry_2
N1 H1 1_555 1_555
C1 N1 1_555 1_555
H2 C1 1_555 1_555
C2 C1 1_555 1_555
H3 C2 1_555 1_555
C3 C2 1_555 1_555
H4 C3 1_555 1_555
C4 C3 1_555 1_555
H5 C4 1_555 1_555
C5 N1 1_555 1_555
C6 C5 1_555 1_555
C7 C6 1_555 1_555
H6 C7 1_555 1_555
C8 C7 1_555 1_555
C9 C8 1_555 1_555
H7 C9 1_555 1_555
C10 C9 1_555 1_555
N2 C6 1_555 1_555
C11 C10 1_555 1_555
C12 C11 1_555 1_555
H8 C12 1_555 1_555
C13 C12 1_555 1_555
H9 C13 1_555 1_555
C14 C13 1_555 1_555
H10 C14 1_555 1_555
C15 C14 1_555 1_555
H11 C15 1_555 1_555
N3 C11 1_555 1_555
H12 N3 1_555 1_555
C16 C8 1_555 1_555
C17 C16 1_555 1_555
H13 C17 1_555 1_555
C18 C17 1_555 1_555
H14 C18 1_555 1_555
N4 C18 1_555 1_555
H15 N4 1_555 1_555
C19 N4 1_555 1_555
H16 C19 1_555 1_555
C20 C16 1_555 1_555
H17 C20 1_555 1_555
N5 O1 1_555 1_555
O2 N5 1_555 1_555
O3 N5 1_555 1_555
N6 O4 1_555 1_555
O5 N6 1_555 1_555
O6 N6 1_555 1_555
N7 O7 1_555 1_555
O8 N7 1_555 1_555
O9 N7 1_555 1_555
O10 H18 1_555 1_555
H19 O10 1_555 1_555
C4 C5 1_555 1_555
C10 N2 1_555 1_555
C15 N3 1_555 1_555
C19 C20 1_555 1_555

#END
