
#######################################################################
#
#                 Cambridge Crystallographic Data Centre
#                                CCDC 
#
#######################################################################
#
# If this CIF has been generated from an entry in the Cambridge 
# Structural Database, then it will include bibliographic, chemical, 
# crystal, experimental, refinement or atomic coordinate data resulting 
# from the CCDC's data processing and validation procedures.
#
#######################################################################

data_LEMVEG
_chemical_formula_moiety         'C26 H37 B10 1-,C4 H12 N1 1+,C1 H2 Cl2'
_chemical_name_systematic        
'tetramethylammonium 7-4-[bis(2,4,6-trimethylphenyl)boranyl]phenyl-7,8-dicarbaundecaborane dichloromethane solvate'
_symmetry_cell_setting           triclinic
_symmetry_space_group_name_H-M   'P -1'
_symmetry_Int_Tables_number      2
_space_group_name_Hall           '-P 1'
loop_
_symmetry_equiv_pos_site_id
_symmetry_equiv_pos_as_xyz
1 x,y,z
2 -x,-y,-z
_cell_length_a                   8.5671(12)
_cell_length_b                   11.2992(16)
_cell_length_c                   22.491(3)
_cell_angle_alpha                96.168(6)
_cell_angle_beta                 97.986(6)
_cell_angle_gamma                111.107(6)
_cell_volume                     1981.96
_exptl_crystal_colour            colorless
_exptl_crystal_description       cubic
_cell_formula_units_Z            2
loop_
_atom_site_label
_atom_site_type_symbol
_atom_site_fract_x
_atom_site_fract_y
_atom_site_fract_z
B1 B 1.1658(5) 0.3507(4) 0.34370(19)
C1 C 0.5823(4) -0.0448(3) 0.16758(16)
C2 C 0.4139(6) -0.0093(4) 0.1461(2)
H1 H 0.411(5) 0.096(4) 0.1582(17)
C3 C 0.7311(4) 0.0548(3) 0.21268(15)
C4 C 0.7850(5) 0.1849(3) 0.20806(17)
H2 H 0.7277 0.2100 0.1767
C5 C 0.9208(5) 0.2775(3) 0.24845(16)
H3 H 0.9516 0.3633 0.2438
C6 C 1.0135(4) 0.2465(3) 0.29622(16)
C7 C 0.9591(5) 0.1156(3) 0.30057(19)
H4 H 1.0166 0.0900 0.3317
C8 C 0.8213(5) 0.0226(3) 0.25963(19)
H5 H 0.7894 -0.0634 0.2641
C9 C 1.2974(5) 0.3091(3) 0.38315(16)
C10 C 1.3924(5) 0.2457(3) 0.35565(17)
C11 C 1.5046(5) 0.2084(4) 0.3923(2)
H6 H 1.5659 0.1670 0.3737
C12 C 1.5295(6) 0.2305(4) 0.4559(2)
C13 C 1.4342(7) 0.2900(5) 0.4807(2)
H7 H 1.4460 0.3036 0.5228
C14 C 1.3220(5) 0.3312(4) 0.44744(18)
C15 C 1.3793(6) 0.2192(4) 0.2885(2)
H8 H 1.4909 0.2374 0.2794
H9 H 1.3293 0.2728 0.2696
H10 H 1.3090 0.1304 0.2733
C16 C 1.6590(8) 0.1894(6) 0.4930(3)
H11 H 1.7524 0.2644 0.5154
H12 H 1.7005 0.1412 0.4659
H13 H 1.6052 0.1367 0.5208
C17 C 1.2240(7) 0.3949(5) 0.4808(2)
H14 H 1.2653 0.4085 0.5239
H15 H 1.1050 0.3406 0.4716
H16 H 1.2393 0.4762 0.4682
C18 C 1.1803(5) 0.4968(3) 0.34746(16)
C19 C 1.3245(5) 0.5926(3) 0.33545(17)
C20 C 1.3229(7) 0.7148(4) 0.3312(2)
H17 H 1.4190 0.7772 0.3227
C21 C 1.1861(8) 0.7465(4) 0.3388(2)
C22 C 1.0472(7) 0.6538(5) 0.3538(2)
H18 H 0.9553 0.6747 0.3611
C23 C 1.0410(5) 0.5303(4) 0.35811(19)
C24 C 1.4817(6) 0.5687(4) 0.3254(3)
H19 H 1.5287 0.5448 0.3613
H20 H 1.5644 0.6457 0.3171
H21 H 1.4520 0.5005 0.2914
C25 C 1.1849(11) 0.8781(6) 0.3317(4)
H22 H 1.1644 0.8832 0.2892
H23 H 1.2932 0.9433 0.3513
H24 H 1.0964 0.8910 0.3501
C26 C 0.8837(6) 0.4367(5) 0.3750(3)
H25 H 0.8802 0.4633 0.4166
H26 H 0.8869 0.3522 0.3702
H27 H 0.7839 0.4351 0.3489
B2 B 0.3206(6) -0.0968(4) 0.0734(2)
H28 H 0.2497 -0.0628 0.0392
B3 B 0.2327(6) -0.1533(5) 0.1355(2)
H29 H 0.1304 -0.1465 0.1585
B4 B 0.2592(6) -0.2653(4) 0.0807(2)
H30 H 0.1472 -0.3431 0.0520
B5 B 0.4486(6) -0.1823(4) 0.0520(2)
H31 H 0.4601 -0.2043 0.0043
B6 B 0.5409(6) -0.0244(4) 0.0942(2)
H32 H 0.6153 0.0576 0.0743
B7 B 0.3189(6) -0.2711(4) 0.1573(2)
H33 H 0.2482 -0.3503 0.1796
B8 B 0.4466(6) -0.2908(4) 0.1036(2)
H34 H 0.4604 -0.3823 0.0897
B9 B 0.6227(6) -0.1404(4) 0.1142(2)
H35 H 0.7509 -0.1341 0.1087
B10 B 0.5228(7) -0.1936(5) 0.1736(2)
H36 H 0.5630 -0.2036 0.2208
H37 H 0.418(2) -0.1191(17) 0.1907(9)
N1 N 0.1501(4) 0.2612(3) 0.08261(15)
C27 C 0.3032(8) 0.3287(6) 0.1315(4)
H38 H 0.3847 0.2894 0.1280
H39 H 0.2707 0.3227 0.1706
H40 H 0.3531 0.4176 0.1275
C28 C 0.0385(7) 0.3362(5) 0.0823(3)
H41 H 0.0919 0.4151 0.0677
H42 H 0.0212 0.3553 0.1229
H43 H -0.0694 0.2866 0.0560
C29 C 0.1974(10) 0.2486(9) 0.0227(4)
H44 H 0.0980 0.1955 -0.0072
H45 H 0.2805 0.2098 0.0243
H46 H 0.2446 0.3322 0.0116
C30 C 0.0518(6) 0.1315(4) 0.0959(3)
H47 H -0.0496 0.0897 0.0652
H48 H 0.0210 0.1405 0.1350
H49 H 0.1206 0.0806 0.0959
C31 C 0.8169(7) 0.5879(5) 0.1422(4)
H50 H 0.7899 0.6615 0.1339
H51 H 0.9400 0.6154 0.1510
Cl1 Cl 0.7339(3) 0.5336(2) 0.20694(9)
Cl2 Cl 0.7354(2) 0.47056(18) 0.07983(10)
loop_
_geom_bond_atom_site_label_1
_geom_bond_atom_site_label_2
_geom_bond_site_symmetry_1
_geom_bond_site_symmetry_2
B1 C6 1_555 1_555
C1 C2 1_555 1_555
C2 H1 1_555 1_555
C3 C1 1_555 1_555
C4 C3 1_555 1_555
H2 C4 1_555 1_555
C5 C4 1_555 1_555
H3 C5 1_555 1_555
C6 C5 1_555 1_555
C7 C6 1_555 1_555
H4 C7 1_555 1_555
C8 C3 1_555 1_555
H5 C8 1_555 1_555
C9 B1 1_555 1_555
C10 C9 1_555 1_555
C11 C10 1_555 1_555
H6 C11 1_555 1_555
C12 C11 1_555 1_555
C13 C12 1_555 1_555
H7 C13 1_555 1_555
C14 C9 1_555 1_555
C15 C10 1_555 1_555
H8 C15 1_555 1_555
H9 C15 1_555 1_555
H10 C15 1_555 1_555
C16 C12 1_555 1_555
H11 C16 1_555 1_555
H12 C16 1_555 1_555
H13 C16 1_555 1_555
C17 C14 1_555 1_555
H14 C17 1_555 1_555
H15 C17 1_555 1_555
H16 C17 1_555 1_555
C18 B1 1_555 1_555
C19 C18 1_555 1_555
C20 C19 1_555 1_555
H17 C20 1_555 1_555
C21 C20 1_555 1_555
C22 C21 1_555 1_555
H18 C22 1_555 1_555
C23 C18 1_555 1_555
C24 C19 1_555 1_555
H19 C24 1_555 1_555
H20 C24 1_555 1_555
H21 C24 1_555 1_555
C25 C21 1_555 1_555
H22 C25 1_555 1_555
H23 C25 1_555 1_555
H24 C25 1_555 1_555
C26 C23 1_555 1_555
H25 C26 1_555 1_555
H26 C26 1_555 1_555
H27 C26 1_555 1_555
B2 C2 1_555 1_555
H28 B2 1_555 1_555
B3 C2 1_555 1_555
H29 B3 1_555 1_555
B4 B2 1_555 1_555
H30 B4 1_555 1_555
B5 B2 1_555 1_555
H31 B5 1_555 1_555
B6 C1 1_555 1_555
H32 B6 1_555 1_555
B7 B3 1_555 1_555
H33 B7 1_555 1_555
B8 B4 1_555 1_555
H34 B8 1_555 1_555
B9 C1 1_555 1_555
H35 B9 1_555 1_555
B10 C1 1_555 1_555
H36 B10 1_555 1_555
H37 B10 1_555 1_555
N1 C27 1_555 1_555
C27 H38 1_555 1_555
H39 C27 1_555 1_555
H40 C27 1_555 1_555
C28 N1 1_555 1_555
H41 C28 1_555 1_555
H42 C28 1_555 1_555
H43 C28 1_555 1_555
C29 N1 1_555 1_555
H44 C29 1_555 1_555
H45 C29 1_555 1_555
H46 C29 1_555 1_555
C30 N1 1_555 1_555
H47 C30 1_555 1_555
H48 C30 1_555 1_555
H49 C30 1_555 1_555
C31 H50 1_555 1_555
H51 C31 1_555 1_555
Cl1 C31 1_555 1_555
Cl2 C31 1_555 1_555
C2 B6 1_555 1_555
C7 C8 1_555 1_555
C13 C14 1_555 1_555
C22 C23 1_555 1_555
B2 B3 1_555 1_555
B2 B6 1_555 1_555
B3 B4 1_555 1_555
B4 B5 1_555 1_555
B4 B7 1_555 1_555
B5 B6 1_555 1_555
B5 B8 1_555 1_555
B5 B9 1_555 1_555
B6 B9 1_555 1_555
B7 B8 1_555 1_555
B7 B10 1_555 1_555
B8 B9 1_555 1_555
B8 B10 1_555 1_555
B9 B10 1_555 1_555

#END
