
#######################################################################
#
#                 Cambridge Crystallographic Data Centre
#                                CCDC 
#
#######################################################################
#
# If this CIF has been generated from an entry in the Cambridge 
# Structural Database, then it will include bibliographic, chemical, 
# crystal, experimental, refinement or atomic coordinate data resulting 
# from the CCDC's data processing and validation procedures.
#
#######################################################################

data_LEMWUX
_chemical_formula_moiety         'C25 H30 N4 O2'
_chemical_name_systematic        
1,3-Dibenzylhexahydro-6H,10H-[1,3,5]triazino[2',1':2,3]pyrimido[1,2-a]azepine-2,4(1H,3H)-dione
_symmetry_cell_setting           triclinic
_symmetry_space_group_name_H-M   'P -1'
_symmetry_Int_Tables_number      2
_space_group_name_Hall           '-P 1'
loop_
_symmetry_equiv_pos_site_id
_symmetry_equiv_pos_as_xyz
1 x,y,z
2 -x,-y,-z
_cell_length_a                   10.154(2)
_cell_length_b                   10.801(2)
_cell_length_c                   11.233(2)
_cell_angle_alpha                69.90(3)
_cell_angle_beta                 85.34(3)
_cell_angle_gamma                70.13(3)
_cell_volume                     1087.17
_exptl_crystal_colour            colorless
_cell_formula_units_Z            2
loop_
_atom_site_label
_atom_site_type_symbol
_atom_site_fract_x
_atom_site_fract_y
_atom_site_fract_z
N1 N 0.3367(3) 0.2219(2) 0.0837(2)
N2 N 0.1212(3) 0.1912(3) 0.1469(2)
O1 O 0.2566(2) 0.0879(2) 0.0115(2)
N3 N 0.4139(3) 0.3673(2) 0.1586(2)
N4 N 0.1898(3) 0.3427(3) 0.2110(2)
C1 C 0.0113(3) 0.0030(3) 0.2303(3)
C2 C 0.3376(4) 0.2698(3) 0.1932(2)
C3 C 0.3079(4) 0.3675(3) -0.1884(3)
H1 H 0.2337 0.3927 -0.1376
C4 C 0.4604(3) 0.1944(3) 0.0079(3)
H2 H 0.5003 0.0943 0.0252
H3 H 0.5297 0.2236 0.0351
C5 C 0.5502(4) 0.0535(3) 0.3228(3)
H4 H 0.5614 -0.0397 0.3817
H5 H 0.5778 0.0456 0.2403
C6 C 0.2410(4) 0.1617(3) 0.0774(3)
C7 C 0.4332(4) 0.2663(3) -0.1333(3)
C8 C -0.0649(4) -0.0694(4) 0.2040(3)
H6 H -0.1094 -0.0361 0.1246
C9 C 0.2928(4) 0.4311(4) -0.3183(3)
H7 H 0.2080 0.4988 -0.3543
C10 C 0.0117(4) 0.1379(4) 0.1316(3)
H8 H 0.0204 0.1256 0.0494
H9 H -0.0785 0.2085 0.1306
O2 O -0.0338(3) 0.3449(3) 0.2301(2)
C11 C 0.5054(4) 0.3674(4) 0.2532(3)
H10 H 0.4581 0.3578 0.3328
H11 H 0.5205 0.4570 0.2253
C12 C 0.6466(4) 0.1114(4) 0.3662(3)
H12 H 0.6186 0.1197 0.4485
H13 H 0.7414 0.0456 0.3764
C13 C 0.1637(4) 0.4592(4) 0.2577(3)
H14 H 0.2147 0.4269 0.3381
H15 H 0.0646 0.4965 0.2714
C14 C 0.0862(4) 0.2974(4) 0.1991(3)
C15 C 0.3994(5) 0.3966(4) -0.3943(3)
H16 H 0.3876 0.4408 -0.4818
C16 C 0.6465(4) 0.2520(4) 0.2760(3)
H17 H 0.6794 0.2421 0.1952
H18 H 0.7127 0.2802 0.3091
C17 C 0.3958(3) 0.1438(3) 0.3137(3)
H19 H 0.3791 0.1782 0.3847
H20 H 0.3404 0.0831 0.3257
C18 C 0.5421(4) 0.2317(4) -0.2122(3)
H21 H 0.6273 0.1642 -0.1769
C19 C 0.0761(4) -0.0488(4) 0.3488(3)
H22 H 0.1285 -0.0023 0.3688
C20 C 0.0637(4) -0.1693(4) 0.4382(4)
H23 H 0.1074 -0.2032 0.5181
C21 C 0.3255(4) 0.5073(3) 0.0835(3)
H24 H 0.2828 0.5023 0.0118
H25 H 0.3833 0.5662 0.0505
C22 C -0.0763(4) -0.1896(4) 0.2926(4)
H26 H -0.1275 -0.2372 0.2727
C23 C 0.5254(5) 0.2962(4) -0.3424(3)
H27 H 0.5986 0.2720 -0.3944
C24 C -0.0125(5) -0.2389(4) 0.4095(4)
H28 H -0.0207 -0.3199 0.4698
C25 C 0.2109(4) 0.5732(4) 0.1612(4)
H29 H 0.2463 0.6198 0.2046
H30 H 0.1321 0.6422 0.1057
loop_
_geom_bond_atom_site_label_1
_geom_bond_atom_site_label_2
_geom_bond_site_symmetry_1
_geom_bond_site_symmetry_2
N1 C2 1_555 1_555
N2 C6 1_555 1_555
O1 C6 1_555 1_555
N3 C2 1_555 1_555
N4 C2 1_555 1_555
C1 C8 1_555 1_555
C2 C17 1_555 1_555
C3 H1 1_555 1_555
C4 N1 1_555 1_555
H2 C4 1_555 1_555
H3 C4 1_555 1_555
C5 H4 1_555 1_555
H5 C5 1_555 1_555
C6 N1 1_555 1_555
C7 C3 1_555 1_555
C8 H6 1_555 1_555
C9 C3 1_555 1_555
H7 C9 1_555 1_555
C10 N2 1_555 1_555
H8 C10 1_555 1_555
H9 C10 1_555 1_555
O2 C14 1_555 1_555
C11 N3 1_555 1_555
H10 C11 1_555 1_555
H11 C11 1_555 1_555
C12 C5 1_555 1_555
H12 C12 1_555 1_555
H13 C12 1_555 1_555
C13 N4 1_555 1_555
H14 C13 1_555 1_555
H15 C13 1_555 1_555
C14 N2 1_555 1_555
C15 C9 1_555 1_555
H16 C15 1_555 1_555
C16 C11 1_555 1_555
H17 C16 1_555 1_555
H18 C16 1_555 1_555
C17 C5 1_555 1_555
H19 C17 1_555 1_555
H20 C17 1_555 1_555
C18 C7 1_555 1_555
H21 C18 1_555 1_555
C19 C1 1_555 1_555
H22 C19 1_555 1_555
C20 C19 1_555 1_555
H23 C20 1_555 1_555
C21 N3 1_555 1_555
H24 C21 1_555 1_555
H25 C21 1_555 1_555
C22 C8 1_555 1_555
H26 C22 1_555 1_555
C23 C15 1_555 1_555
H27 C23 1_555 1_555
C24 C20 1_555 1_555
H28 C24 1_555 1_555
C25 C13 1_555 1_555
H29 C25 1_555 1_555
H30 C25 1_555 1_555
N4 C14 1_555 1_555
C1 C10 1_555 1_555
C4 C7 1_555 1_555
C12 C16 1_555 1_555
C18 C23 1_555 1_555
C21 C25 1_555 1_555
C22 C24 1_555 1_555

#END
