
#######################################################################
#
#                 Cambridge Crystallographic Data Centre
#                                CCDC 
#
#######################################################################
#
# If this CIF has been generated from an entry in the Cambridge 
# Structural Database, then it will include bibliographic, chemical, 
# crystal, experimental, refinement or atomic coordinate data resulting 
# from the CCDC's data processing and validation procedures.
#
#######################################################################

data_LEMWAE
_chemical_formula_moiety         'C25 H25 Br1 N2 O5 S3'
_chemical_name_systematic        
N-{[2-(3-bromo-4-methoxyphenyl)-4,5-dihydro-1,3-thiazol-5-yl]methyl}-4-methyl-N-[(4-methylphenyl)sulfonyl]benzene-1-sulfonamide
_symmetry_cell_setting           triclinic
_symmetry_space_group_name_H-M   'P -1'
_symmetry_Int_Tables_number      2
_space_group_name_Hall           '-P 1'
loop_
_symmetry_equiv_pos_site_id
_symmetry_equiv_pos_as_xyz
1 x,y,z
2 -x,-y,-z
_cell_length_a                   9.871(13)
_cell_length_b                   11.838(14)
_cell_length_c                   13.087(12)
_cell_angle_alpha                67.23(7)
_cell_angle_beta                 72.30(8)
_cell_angle_gamma                72.58(8)
_cell_volume                     1314.27
_exptl_crystal_colour            colorless
_exptl_crystal_description       block
_cell_formula_units_Z            2
loop_
_atom_site_label
_atom_site_type_symbol
_atom_site_fract_x
_atom_site_fract_y
_atom_site_fract_z
Br1 Br -0.03165(9) 0.75281(6) 0.54529(6)
S1 S 0.59619(15) 0.21213(12) 0.13572(11)
S2 S 0.84772(14) 0.06811(11) 0.23448(10)
S3 S 0.49777(19) 0.22192(16) 0.54656(11)
O1 O 0.7080(5) 0.2096(4) 0.0364(3)
O2 O 0.4983(5) 0.3261(4) 0.1437(4)
O3 O 0.8549(4) -0.0234(4) 0.1882(4)
O4 O 0.8735(4) 0.0298(4) 0.3450(3)
O5 O -0.1505(5) 0.5421(4) 0.7323(4)
N1 N 0.6809(4) 0.1624(4) 0.2431(3)
N2 N 0.4468(6) 0.4360(5) 0.3862(4)
C1 C 0.5900(6) 0.1555(5) 0.3583(4)
H1 H 0.605746 0.069157 0.407711
H2 H 0.488350 0.181453 0.353887
C2 C 0.6221(6) 0.2357(6) 0.4097(5)
H3 H 0.722860 0.207482 0.419217
C3 C 0.5917(7) 0.3762(6) 0.3434(5)
H4 H 0.661601 0.414750 0.349508
H5 H 0.603202 0.388079 0.263867
C4 C 0.3894(6) 0.3710(5) 0.4846(4)
C5 C 0.2470(6) 0.4124(5) 0.5502(4)
C6 C 0.1834(6) 0.5383(5) 0.5237(4)
H6 H 0.231473 0.596023 0.463300
C7 C 0.0512(6) 0.5795(5) 0.5847(4)
C8 C -0.0235(6) 0.4950(5) 0.6746(4)
C9 C 0.0370(6) 0.3690(5) 0.7008(4)
H7 H -0.012444 0.311345 0.760021
C10 C 0.1704(6) 0.3285(5) 0.6394(4)
H8 H 0.210402 0.243147 0.657818
C11 C -0.2295(8) 0.4538(7) 0.8246(7)
H9 H -0.306105 0.497551 0.869891
H10 H -0.164439 0.392590 0.870766
H11 H -0.270477 0.412725 0.794274
C12 C 0.9616(5) 0.1694(4) 0.1392(4)
C13 C 0.9788(6) 0.2612(5) 0.1701(5)
H12 H 0.926740 0.273276 0.238681
C14 C 1.0745(7) 0.3346(6) 0.0975(6)
H13 H 1.085125 0.398409 0.117340
C15 C 1.1554(6) 0.3189(5) -0.0027(5)
C16 C 1.1366(7) 0.2271(6) -0.0328(5)
H14 H 1.189392 0.215567 -0.101443
C17 C 1.0399(6) 0.1515(6) 0.0377(5)
H15 H 1.027662 0.088910 0.017042
C18 C 1.2617(8) 0.3992(7) -0.0792(8)
H16 H 1.358566 0.349391 -0.081688
H17 H 1.252429 0.465450 -0.050889
H18 H 1.242407 0.434409 -0.154124
C19 C 0.4947(5) 0.1018(5) 0.1672(4)
C20 C 0.5554(6) 0.0031(6) 0.1252(4)
H19 H 0.649378 -0.004871 0.081279
C21 C 0.4746(7) -0.0816(6) 0.1495(5)
H20 H 0.514840 -0.148329 0.121433
C22 C 0.3359(6) -0.0736(5) 0.2137(4)
C23 C 0.2781(6) 0.0253(6) 0.2558(5)
H21 H 0.185050 0.031555 0.301351
C24 C 0.3548(6) 0.1132(6) 0.2319(5)
H22 H 0.313702 0.180763 0.258840
C25 C 0.2515(8) -0.1694(7) 0.2365(6)
H23 H 0.228943 -0.161411 0.167358
H24 H 0.162977 -0.157025 0.291227
H25 H 0.308229 -0.251603 0.265712
loop_
_geom_bond_atom_site_label_1
_geom_bond_atom_site_label_2
_geom_bond_site_symmetry_1
_geom_bond_site_symmetry_2
Br1 C7 1_555 1_555
S1 O1 1_555 1_555
S2 O3 1_555 1_555
S3 C2 1_555 1_555
O2 S1 1_555 1_555
O4 S2 1_555 1_555
O5 C8 1_555 1_555
N1 S1 1_555 1_555
N2 C3 1_555 1_555
C1 N1 1_555 1_555
H1 C1 1_555 1_555
H2 C1 1_555 1_555
C2 C1 1_555 1_555
H3 C2 1_555 1_555
C3 C2 1_555 1_555
H4 C3 1_555 1_555
H5 C3 1_555 1_555
C4 S3 1_555 1_555
C5 C4 1_555 1_555
C6 C5 1_555 1_555
H6 C6 1_555 1_555
C7 C6 1_555 1_555
C8 C7 1_555 1_555
C9 C8 1_555 1_555
H7 C9 1_555 1_555
C10 C5 1_555 1_555
H8 C10 1_555 1_555
C11 O5 1_555 1_555
H9 C11 1_555 1_555
H10 C11 1_555 1_555
H11 C11 1_555 1_555
C12 S2 1_555 1_555
C13 C12 1_555 1_555
H12 C13 1_555 1_555
C14 C13 1_555 1_555
H13 C14 1_555 1_555
C15 C14 1_555 1_555
C16 C15 1_555 1_555
H14 C16 1_555 1_555
C17 C12 1_555 1_555
H15 C17 1_555 1_555
C18 C15 1_555 1_555
H16 C18 1_555 1_555
H17 C18 1_555 1_555
H18 C18 1_555 1_555
C19 S1 1_555 1_555
C20 C19 1_555 1_555
H19 C20 1_555 1_555
C21 C20 1_555 1_555
H20 C21 1_555 1_555
C22 C21 1_555 1_555
C23 C22 1_555 1_555
H21 C23 1_555 1_555
C24 C19 1_555 1_555
H22 C24 1_555 1_555
C25 C22 1_555 1_555
H23 C25 1_555 1_555
H24 C25 1_555 1_555
H25 C25 1_555 1_555
S2 N1 1_555 1_555
N2 C4 1_555 1_555
C9 C10 1_555 1_555
C16 C17 1_555 1_555
C23 C24 1_555 1_555

#END
