
#######################################################################
#
#                 Cambridge Crystallographic Data Centre
#                                CCDC 
#
#######################################################################
#
# If this CIF has been generated from an entry in the Cambridge 
# Structural Database, then it will include bibliographic, chemical, 
# crystal, experimental, refinement or atomic coordinate data resulting 
# from the CCDC's data processing and validation procedures.
#
#######################################################################

data_LEMYIO
_chemical_formula_moiety         'C37 H26 Br1 N1 O3'
_chemical_name_systematic        
4-bromo-4'-phenyl-1-(triphenylmethyl)spiro[indole-3,2'-pyran]-2,6'(1H,3'H)-dione
_symmetry_cell_setting           orthorhombic
_symmetry_space_group_name_H-M   'P 21 21 2'
_symmetry_Int_Tables_number      18
_space_group_name_Hall           'P 2 2ab'
loop_
_symmetry_equiv_pos_site_id
_symmetry_equiv_pos_as_xyz
1 x,y,z
2 -x,-y,z
3 1/2+x,1/2-y,-z
4 1/2-x,1/2+y,-z
_cell_length_a                   18.0961(5)
_cell_length_b                   18.4979(11)
_cell_length_c                   9.1885(11)
_cell_angle_alpha                90
_cell_angle_beta                 90
_cell_angle_gamma                90
_cell_volume                     3075.76
_exptl_crystal_colour            colorless
_exptl_crystal_description       chunk
_cell_formula_units_Z            4
loop_
_atom_site_label
_atom_site_type_symbol
_atom_site_fract_x
_atom_site_fract_y
_atom_site_fract_z
C1 C 0.7100(4) 0.3915(4) 0.5819(7)
C2 C 0.6922(3) 0.3815(3) 0.4242(6)
C3 C 0.7331(4) 0.3919(3) 0.3027(8)
C4 C 0.7029(5) 0.3789(4) 0.1639(8)
H1 H 0.7303 0.3871 0.0799
C5 C 0.6307(5) 0.3532(4) 0.1568(7)
H2 H 0.6101 0.3442 0.0659
C6 C 0.5892(4) 0.3408(3) 0.2778(6)
H3 H 0.5413 0.3228 0.2703
C7 C 0.6204(4) 0.3557(3) 0.4132(6)
C8 C 0.6422(4) 0.3606(3) 0.6602(7)
C9 C 0.8085(4) 0.3544(4) 0.7459(7)
C10 C 0.8017(3) 0.4251(4) 0.8163(7)
H4 H 0.8253 0.4312 0.9054
C11 C 0.7649(4) 0.4807(4) 0.7636(7)
C12 C 0.7220(4) 0.4712(3) 0.6225(7)
H5 H 0.7486 0.4950 0.5444
H6 H 0.6743 0.4947 0.6320
C13 C 0.7640(4) 0.5544(4) 0.8311(8)
C14 C 0.7417(6) 0.6132(5) 0.7585(11)
H7 H 0.7238 0.6083 0.6641
C15 C 0.7449(7) 0.6820(6) 0.8224(15)
H8 H 0.7294 0.7220 0.7694
C16 C 0.7700(7) 0.6912(6) 0.9591(10)
H9 H 0.7707 0.7368 1.0019
C17 C 0.7935(9) 0.6344(6) 1.0297(11)
H10 H 0.8141 0.6403 1.1217
C18 C 0.7882(7) 0.5639(5) 0.9693(10)
H11 H 0.8014 0.5240 1.0251
C19 C 0.5168(3) 0.3083(3) 0.5773(7)
C20 C 0.4918(4) 0.3147(5) 0.7403(7)
C21 C 0.4832(4) 0.3817(5) 0.7977(8)
H12 H 0.4957 0.4227 0.7443
C22 C 0.4554(5) 0.3879(7) 0.9381(11)
H13 H 0.4498 0.4330 0.9814
C23 C 0.4362(6) 0.3253(10) 1.0127(11)
H14 H 0.4169 0.3288 1.1062
C24 C 0.4447(7) 0.2626(8) 0.9545(12)
H15 H 0.4329 0.2215 1.0079
C25 C 0.4702(4) 0.2556(6) 0.8184(8)
H16 H 0.4733 0.2099 0.7766
C26 C 0.5344(4) 0.2293(4) 0.5321(7)
C27 C 0.5893(4) 0.1930(5) 0.6084(10)
H17 H 0.6133 0.2157 0.6853
C28 C 0.6087(6) 0.1219(5) 0.5696(13)
H18 H 0.6447 0.0976 0.6231
C29 C 0.5763(6) 0.0884(6) 0.4569(12)
H19 H 0.5912 0.0422 0.4297
C30 C 0.5220(6) 0.1222(5) 0.3835(10)
H20 H 0.4980 0.0984 0.3080
C31 C 0.5010(5) 0.1939(4) 0.4200(8)
H21 H 0.4642 0.2169 0.3668
C32 C 0.4530(4) 0.3429(4) 0.4929(7)
C33 C 0.3851(4) 0.3078(4) 0.4817(9)
H22 H 0.3787 0.2627 0.5244
C34 C 0.3269(5) 0.3398(5) 0.4074(9)
H23 H 0.2825 0.3149 0.3982
C35 C 0.3334(5) 0.4055(4) 0.3489(8)
H24 H 0.2934 0.4262 0.3007
C36 C 0.3982(4) 0.4425(4) 0.3594(8)
H25 H 0.4029 0.4880 0.3172
C37 C 0.4582(4) 0.4115(4) 0.4346(7)
H26 H 0.5018 0.4375 0.4452
N1 N 0.5869(3) 0.3488(3) 0.5543(5)
O1 O 0.6402(2) 0.3452(3) 0.7867(4)
O2 O 0.7711(2) 0.3456(2) 0.6184(4)
O3 O 0.8483(3) 0.3080(3) 0.7875(6)
Br1 Br 0.83246(5) 0.42324(5) 0.31245(9)
loop_
_geom_bond_atom_site_label_1
_geom_bond_atom_site_label_2
_geom_bond_site_symmetry_1
_geom_bond_site_symmetry_2
C1 C2 1_555 1_555
C2 C3 1_555 1_555
C3 C4 1_555 1_555
C4 H1 1_555 1_555
C5 C4 1_555 1_555
H2 C5 1_555 1_555
C6 C5 1_555 1_555
H3 C6 1_555 1_555
C7 C2 1_555 1_555
C8 C1 1_555 1_555
C9 C10 1_555 1_555
C10 H4 1_555 1_555
C11 C10 1_555 1_555
C12 C1 1_555 1_555
H5 C12 1_555 1_555
H6 C12 1_555 1_555
C13 C11 1_555 1_555
C14 C13 1_555 1_555
H7 C14 1_555 1_555
C15 C14 1_555 1_555
H8 C15 1_555 1_555
C16 C15 1_555 1_555
H9 C16 1_555 1_555
C17 C16 1_555 1_555
H10 C17 1_555 1_555
C18 C13 1_555 1_555
H11 C18 1_555 1_555
C19 C20 1_555 1_555
C20 C21 1_555 1_555
C21 H12 1_555 1_555
C22 C21 1_555 1_555
H13 C22 1_555 1_555
C23 C22 1_555 1_555
H14 C23 1_555 1_555
C24 C23 1_555 1_555
H15 C24 1_555 1_555
C25 C20 1_555 1_555
H16 C25 1_555 1_555
C26 C19 1_555 1_555
C27 C26 1_555 1_555
H17 C27 1_555 1_555
C28 C27 1_555 1_555
H18 C28 1_555 1_555
C29 C28 1_555 1_555
H19 C29 1_555 1_555
C30 C29 1_555 1_555
H20 C30 1_555 1_555
C31 C26 1_555 1_555
H21 C31 1_555 1_555
C32 C19 1_555 1_555
C33 C32 1_555 1_555
H22 C33 1_555 1_555
C34 C33 1_555 1_555
H23 C34 1_555 1_555
C35 C34 1_555 1_555
H24 C35 1_555 1_555
C36 C35 1_555 1_555
H25 C36 1_555 1_555
C37 C32 1_555 1_555
H26 C37 1_555 1_555
N1 C7 1_555 1_555
O1 C8 1_555 1_555
O2 C1 1_555 1_555
O3 C9 1_555 1_555
Br1 C3 1_555 1_555
C6 C7 1_555 1_555
C8 N1 1_555 1_555
C9 O2 1_555 1_555
C11 C12 1_555 1_555
C17 C18 1_555 1_555
C19 N1 1_555 1_555
C24 C25 1_555 1_555
C30 C31 1_555 1_555
C36 C37 1_555 1_555

#END
