
#######################################################################
#
#                 Cambridge Crystallographic Data Centre
#                                CCDC 
#
#######################################################################
#
# If this CIF has been generated from an entry in the Cambridge 
# Structural Database, then it will include bibliographic, chemical, 
# crystal, experimental, refinement or atomic coordinate data resulting 
# from the CCDC's data processing and validation procedures.
#
#######################################################################

data_LENFUI
_chemical_formula_moiety         'C6 H13 N1 O2,C6 H13 N1 O2'
_chemical_name_systematic        'L-leucine L-isoleucine'
_symmetry_cell_setting           monoclinic
_symmetry_space_group_name_H-M   'P 21'
_symmetry_Int_Tables_number      4
_space_group_name_Hall           'P 2yb'
loop_
_symmetry_equiv_pos_site_id
_symmetry_equiv_pos_as_xyz
1 x,y,z
2 -x,1/2+y,-z
_cell_length_a                   9.633(5)
_cell_length_b                   5.281(3)
_cell_length_c                   14.669(7)
_cell_angle_alpha                90
_cell_angle_beta                 104.410(4)
_cell_angle_gamma                90
_cell_volume                     722.763
_exptl_crystal_colour            'pale yellow'
_exptl_crystal_description       needle
_cell_formula_units_Z            2
loop_
_atom_site_label
_atom_site_type_symbol
_atom_site_fract_x
_atom_site_fract_y
_atom_site_fract_z
O1 O -0.82351(10) -0.8447(3) -0.41098(8)
O2 O -0.73427(14) -1.2343(3) -0.38134(10)
C1 C -0.72206(14) -0.9999(4) -0.38258(11)
N1 N -0.55638(14) -0.6553(4) -0.39697(10)
C2 C -0.57357(15) -0.8846(4) -0.34191(12)
C3 C -0.5581(2) -0.8112(5) -0.23673(13)
C4 C -0.4160(3) -0.6855(7) -0.19226(17)
C5 C -0.3909(5) -0.6163(10) -0.09028(19)
C6 C -0.5801(6) -1.0338(9) -0.1780(2)
H1 H -0.5023 -1.0080 -0.3537
H2 H -0.3121 -0.4991 -0.0732
H3 H -0.3698 -0.7618 -0.0470
H4 H -0.4787 -0.5405 -0.0788
H5 H -0.5816 -0.9818 -0.1154
H6 H -0.6657 -1.1185 -0.2069
H7 H -0.5028 -1.1493 -0.1756
H8 H -0.6315 -0.6932 -0.2343
H9 H -0.3437 -0.8052 -0.1955
H10 H -0.4054 -0.5394 -0.2277
H11 H -0.4642 -0.5840 -0.3719
H12 H -0.5660 -0.7003 -0.4610
H13 H -0.6279 -0.5349 -0.3931
C8 C -0.76752(14) -0.9057(4) -0.61461(10)
O3 O -0.66092(10) -0.7632(3) -0.58595(8)
O4 O -0.76004(11) -1.1374(3) -0.63126(8)
C9 C -0.91634(14) -0.7837(4) -0.63377(10)
N2 N -0.90949(12) -0.5530(4) -0.57549(9)
C10 C -0.9978(7) -0.7515(14) -0.9087(3)
C11 C -0.9783(4) -0.8799(8) -0.8135(2)
C12 C -1.1054(5) -1.0507(9) -0.8150(4)
C13 C -0.9587(5) -0.6779(10) -0.7374(3)
H18 H -0.9222 -0.6303 -0.9014
H19 H -0.9915 -0.8787 -0.9530
H20 H -1.0894 -0.6695 -0.9242
H21 H -0.8911 -0.9837 -0.8045
H22 H -1.0965 -1.1260 -0.7533
H23 H -1.1072 -1.1804 -0.8621
H24 H -1.1912 -0.9528 -0.8326
H25 H -1.0466 -0.5811 -0.7440
H26 H -0.8849 -0.5640 -0.7439
H27 H -0.9980 -0.4942 -0.5798
H28 H -0.8693 -0.5929 -0.5128
H29 H -0.9904 -0.9021 -0.6231
H30 H -0.8549 -0.4380 -0.5965
C7? C -0.3125(11) -0.903(4) -0.1670(10)
H14? H -0.2266 -0.8521 -0.1221
H15? H -0.2887 -0.9564 -0.2238
H16? H -0.3559 -1.0418 -0.1424
H17? H -0.5696 -0.9591 -0.2025
C14? C -1.1348(6) -0.9789(13) -0.8853(4)
C15? C -1.0489(5) -1.0063(10) -0.7830(3)
C16? C -0.8842(4) -0.6320(9) -0.7874(3)
C17? C -0.9870(6) -0.7545(11) -0.7377(4)
H31? H -1.1860 -1.1339 -0.9078
H32? H -1.2023 -0.8416 -0.8930
H33? H -1.0693 -0.9456 -0.9231
H34? H -1.1124 -1.0729 -0.7459
H35? H -0.9722 -1.1255 -0.7795
H36? H -0.9343 -0.5508 -0.8463
H37? H -0.8226 -0.7603 -0.8033
H38? H -0.8247 -0.5101 -0.7477
H39? H -1.0687 -0.6384 -0.7412
loop_
_geom_bond_atom_site_label_1
_geom_bond_atom_site_label_2
_geom_bond_site_symmetry_1
_geom_bond_site_symmetry_2
O1 C1 1_555 1_555
O2 C1 1_555 1_555
C1 C2 1_555 1_555
N1 C2 1_555 1_555
C2 C3 1_555 1_555
C3 C4 1_555 1_555
C4 C5 1_555 1_555
C5 H2 1_555 1_555
C6 C3 1_555 1_555
H1 C2 1_555 1_555
H3 C5 1_555 1_555
H4 C5 1_555 1_555
H5 C6 1_555 1_555
H6 C6 1_555 1_555
H7 C6 1_555 1_555
H8 C3 1_555 1_555
H9 C4 1_555 1_555
H10 C4 1_555 1_555
H11 N1 1_555 1_555
H12 N1 1_555 1_555
H13 N1 1_555 1_555
C8 O3 1_555 1_555
O4 C8 1_555 1_555
C9 C8 1_555 1_555
N2 C9 1_555 1_555
C10 C11 1_555 1_555
C11 C12 1_555 1_555
C12 H22 1_555 1_555
C13 C9 1_555 1_555
H18 C10 1_555 1_555
H19 C10 1_555 1_555
H20 C10 1_555 1_555
H21 C11 1_555 1_555
H23 C12 1_555 1_555
H24 C12 1_555 1_555
H25 C13 1_555 1_555
H26 C13 1_555 1_555
H27 N2 1_555 1_555
H28 N2 1_555 1_555
H29 C9 1_555 1_555
H30 N2 1_555 1_555
C11 C13 1_555 1_555

#END
