
#######################################################################
#
#                 Cambridge Crystallographic Data Centre
#                                CCDC 
#
#######################################################################
#
# If this CIF has been generated from an entry in the Cambridge 
# Structural Database, then it will include bibliographic, chemical, 
# crystal, experimental, refinement or atomic coordinate data resulting 
# from the CCDC's data processing and validation procedures.
#
#######################################################################

data_LENGAP
_chemical_formula_moiety         '0.4(C6 H13 N1 O2),0.6(C6 H13 N1 O2)'
_chemical_name_systematic        'L-isoleucine L-Leucine'
_symmetry_cell_setting           monoclinic
_symmetry_space_group_name_H-M   'P 21'
_symmetry_Int_Tables_number      4
_space_group_name_Hall           'P 2yb'
loop_
_symmetry_equiv_pos_site_id
_symmetry_equiv_pos_as_xyz
1 x,y,z
2 -x,1/2+y,-z
_cell_length_a                   9.5961(6)
_cell_length_b                   5.2810(4)
_cell_length_c                   14.4864(13)
_cell_angle_alpha                90
_cell_angle_beta                 109.328(5)
_cell_angle_gamma                90
_cell_volume                     692.751
_exptl_crystal_colour            colorless
_exptl_crystal_description       plate
_cell_formula_units_Z            4
loop_
_atom_site_label
_atom_site_type_symbol
_atom_site_fract_x
_atom_site_fract_y
_atom_site_fract_z
N2 N -0.1600(2) -0.7944(6) 0.4233(2)
C9 C -0.2063(3) -0.5706(7) 0.3589(2)
C10 C -0.3383(3) -0.4449(7) 0.3774(2)
O3 O -0.4185(2) -0.5816(6) 0.41018(17)
C11 C -0.3003(5) -0.4773(11) 0.1718(4)
C12 C -0.3567(9) -0.6151(18) 0.0747(5)
C13 C -0.1716(8) -0.3118(14) 0.1724(5)
C14 C -0.2539(6) -0.6773(12) 0.2536(4)
O4 O -0.3602(2) -0.2129(6) 0.35761(18)
H21 H -0.3799 -0.3732 0.1789
H22 H -0.4137 -0.7586 0.0821
H23 H -0.2741 -0.6712 0.0567
H24 H -0.4182 -0.5042 0.0253
H25 H -0.1334 -0.2298 0.2349
H26 H -0.0958 -0.4149 0.1619
H27 H -0.2019 -0.1871 0.1217
H28 H -0.3340 -0.7936 0.2448
H29 H -0.1706 -0.7720 0.2469
H30 H -0.1244 -0.4497 0.3723
H31 H -0.0790 -0.8723 0.4108
H32 H -0.1311 -0.7424 0.4896
H33 H -0.2390 -0.9114 0.4107
O1 O 0.0983(2) 0.0103(5) 0.40867(17)
C1 C 0.1729(3) 0.1655(7) 0.3786(2)
O2 O 0.1589(2) 0.3998(6) 0.37664(19)
C2 C 0.2875(3) 0.0519(7) 0.3375(3)
N1 N 0.3535(3) -0.1797(6) 0.3938(2)
C3 C 0.2154(4) -0.0230(9) 0.2301(3)
C4 C 0.1744(14) 0.210(2) 0.1658(9)
C5 C 0.0752(12) 0.100(3) 0.0676(7)
C6 C 0.3083(13) 0.3431(16) 0.1572(8)
H1 H 0.3644 0.1771 0.3426
H2 H 0.1154 0.3258 0.1916
H3 H 0.0489 0.2326 0.0185
H4 H 0.1288 -0.0306 0.0469
H5 H -0.0135 0.0280 0.0750
H6 H 0.2772 0.4904 0.1152
H7 H 0.3700 0.3960 0.2223
H8 H 0.3624 0.2276 0.1297
H9 H 0.2832 -0.1206 0.2099
H10 H 0.1303 -0.1212 0.2243
H11 H 0.4235 -0.2468 0.3670
H12 H 0.4012 -0.1377 0.4604
H13 H 0.2791 -0.3018 0.3890
C7? C 0.1198(17) 0.168(3) 0.1583(13)
C8? C 0.3122(13) -0.135(4) 0.1767(9)
H14? H 0.0906 0.1084 0.0921
H15? H 0.1755 0.3220 0.1634
H16? H 0.0335 0.2012 0.1761
H17? H 0.2564 -0.1773 0.1113
H18? H 0.3575 -0.2834 0.2104
H19? H 0.3860 -0.0160 0.1768
H20? H 0.1493 -0.1585 0.2313
C15? C -0.3680(13) -0.718(3) 0.1974(11)
C16? C -0.1980(15) -0.350(3) 0.2029(12)
C17? C -0.2206(18) -0.600(3) 0.2508(12)
H34? H -0.3585 -0.8329 0.1486
H35? H -0.4034 -0.8076 0.2428
H36? H -0.4370 -0.5871 0.1666
H37? H -0.0949 -0.3104 0.2226
H38? H -0.2492 -0.2181 0.2239
H39? H -0.2369 -0.3651 0.1332
H40? H -0.1434 -0.7182 0.2474
loop_
_geom_bond_atom_site_label_1
_geom_bond_atom_site_label_2
_geom_bond_site_symmetry_1
_geom_bond_site_symmetry_2
O1 C1 1_555 1_555
C1 O2 1_555 1_555
C2 C1 1_555 1_555
N1 C2 1_555 1_555
C3 C2 1_555 1_555
C4 C3 1_555 1_555
C5 C4 1_555 1_555
C6 C4 1_555 1_555
H1 C2 1_555 1_555
H2 C4 1_555 1_555
H3 C5 1_555 1_555
H4 C5 1_555 1_555
H5 C5 1_555 1_555
H6 C6 1_555 1_555
H7 C6 1_555 1_555
H8 C6 1_555 1_555
H9 C3 1_555 1_555
H10 C3 1_555 1_555
H11 N1 1_555 1_555
H12 N1 1_555 1_555
H13 N1 1_555 1_555
N2 C9 1_555 1_555
C9 C10 1_555 1_555
C10 O3 1_555 1_555
C11 C12 1_555 1_555
C12 H22 1_555 1_555
C13 C11 1_555 1_555
C14 C9 1_555 1_555
O4 C10 1_555 1_555
H21 C11 1_555 1_555
H23 C12 1_555 1_555
H24 C12 1_555 1_555
H25 C13 1_555 1_555
H26 C13 1_555 1_555
H27 C13 1_555 1_555
H28 C14 1_555 1_555
H29 C14 1_555 1_555
H30 C9 1_555 1_555
H31 N2 1_555 1_555
H32 N2 1_555 1_555
H33 N2 1_555 1_555
C11 C14 1_555 1_555

#END
