
#######################################################################
#
#                 Cambridge Crystallographic Data Centre
#                                CCDC 
#
#######################################################################
#
# If this CIF has been generated from an entry in the Cambridge 
# Structural Database, then it will include bibliographic, chemical, 
# crystal, experimental, refinement or atomic coordinate data resulting 
# from the CCDC's data processing and validation procedures.
#
#######################################################################

data_LENGIU
_chemical_formula_moiety         'C24 H29 N3 O4'
_chemical_name_systematic        
(-)-(trans-3,5-Dihydro-2,2-dimethyl-4-(2-oxopiperidinyl)-2H-pyrano(3,2-c)pyridin-3-yl)-N-((S)-1-phenylethyl)carbamate
_symmetry_cell_setting           monoclinic
_symmetry_space_group_name_H-M   'P 21'
_symmetry_Int_Tables_number      4
_space_group_name_Hall           'P 2yb'
loop_
_symmetry_equiv_pos_site_id
_symmetry_equiv_pos_as_xyz
1 x,y,z
2 -x,1/2+y,-z
_cell_length_a                   10.911(4)
_cell_length_b                   8.764(4)
_cell_length_c                   11.942(5)
_cell_angle_alpha                90
_cell_angle_beta                 96.05(3)
_cell_angle_gamma                90
_cell_volume                     1135.58
_exptl_crystal_colour            colorless
_exptl_crystal_description       plates
_chemical_melting_point          196deg.C
_cell_formula_units_Z            2
_exptl_crystal_recrystallization_method methanol
loop_
_atom_site_label
_atom_site_type_symbol
_atom_site_fract_x
_atom_site_fract_y
_atom_site_fract_z
N1 N 0.2113(2) 0.9822(3) 0.5770(2)
N2 N 0.3688(3) 1.1703(3) 0.8839(2)
N3 N 0.2313(3) 0.5857(3) 0.3579(2)
O1 O 0.4558(2) 0.7252(2) 0.8021(2)
O2 O 0.2602(2) 0.6615(2) 0.5372(2)
O3 O 0.0139(2) 0.9587(3) 0.6161(2)
O4 O 0.4052(2) 0.7169(3) 0.4188(2)
C1 C 0.3721(3) 0.6367(3) 0.7230(2)
C2 C 0.3308(3) 0.7449(3) 0.6255(2)
C3 C 0.2520(3) 0.8737(3) 0.6654(2)
C4 C 0.3057(3) 1.0977(4) 0.7986(3)
C5 C 0.4597(4) 1.0889(4) 0.9411(3)
C6 C 0.4897(3) 0.9422(4) 0.9158(3)
C7 C 0.4224(3) 0.8707(3) 0.8265(2)
C8 C 0.3258(3) 0.9488(3) 0.7652(2)
C9 C 0.0891(3) 1.0081(4) 0.5540(3)
C10 C 0.0444(3) 1.0995(5) 0.4515(3)
C11 C 0.1419(4) 1.1364(5) 0.3745(3)
C12 C 0.2564(3) 1.1874(5) 0.4466(3)
C13 C 0.3082(3) 1.0560(4) 0.5166(3)
C14 C 0.2672(3) 0.5769(4) 0.7860(3)
C15 C 0.4500(3) 0.5078(4) 0.6848(3)
C16 C 0.3066(3) 0.6596(4) 0.4341(2)
C17 C 0.2482(3) 0.5931(4) 0.2389(2)
C18 C 0.1775(3) 0.7254(4) 0.1811(2)
C19 C 0.2383(4) 0.8398(5) 0.1278(3)
C20 C 0.1734(5) 0.9582(6) 0.0735(4)
C21 C 0.0455(5) 0.9631(6) 0.0699(4)
C22 C -0.0147(4) 0.8510(6) 0.1208(4)
C23 C 0.0501(3) 0.7322(5) 0.1774(3)
C24 C 0.2136(4) 0.4420(4) 0.1817(3)
loop_
_geom_bond_atom_site_label_1
_geom_bond_atom_site_label_2
_geom_bond_site_symmetry_1
_geom_bond_site_symmetry_2
N1 C3 1_555 1_555
N2 C4 1_555 1_555
N3 C16 1_555 1_555
O1 C1 1_555 1_555
O2 C2 1_555 1_555
O3 C9 1_555 1_555
O4 C16 1_555 1_555
C1 C2 1_555 1_555
C2 C3 1_555 1_555
C3 C8 1_555 1_555
C4 C8 1_555 1_555
C5 N2 1_555 1_555
C6 C5 1_555 1_555
C7 O1 1_555 1_555
C8 C7 1_555 1_555
C9 N1 1_555 1_555
C10 C9 1_555 1_555
C11 C10 1_555 1_555
C12 C11 1_555 1_555
C13 N1 1_555 1_555
C14 C1 1_555 1_555
C15 C1 1_555 1_555
C16 O2 1_555 1_555
C17 N3 1_555 1_555
C18 C17 1_555 1_555
C19 C18 1_555 1_555
C20 C19 1_555 1_555
C21 C20 1_555 1_555
C22 C21 1_555 1_555
C23 C18 1_555 1_555
C24 C17 1_555 1_555
C6 C7 1_555 1_555
C12 C13 1_555 1_555
C22 C23 1_555 1_555

#END
