
#######################################################################
#
#                 Cambridge Crystallographic Data Centre
#                                CCDC 
#
#######################################################################
#
# If this CIF has been generated from an entry in the Cambridge 
# Structural Database, then it will include bibliographic, chemical, 
# crystal, experimental, refinement or atomic coordinate data resulting 
# from the CCDC's data processing and validation procedures.
#
#######################################################################

data_LENHOE
_chemical_formula_moiety         'C18 H18 O3'
_chemical_name_systematic        
6-hydroxy-2,2-dimethyl-6-(prop-2-yn-1-yl)-2,3,4,6-tetrahydro-5H-naphtho[1,2-b]pyran-5-one
_symmetry_cell_setting           monoclinic
_symmetry_space_group_name_H-M   'P 21/n'
_symmetry_Int_Tables_number      14
_space_group_name_Hall           '-P 2yn'
loop_
_symmetry_equiv_pos_site_id
_symmetry_equiv_pos_as_xyz
1 x,y,z
2 1/2-x,1/2+y,1/2-z
3 -x,-y,-z
4 1/2+x,1/2-y,1/2+z
_cell_length_a                   10.9550(2)
_cell_length_b                   8.6256(2)
_cell_length_c                   16.4580(4)
_cell_angle_alpha                90
_cell_angle_beta                 109.2440(10)
_cell_angle_gamma                90
_cell_volume                     1468.28
_cell_formula_units_Z            4
loop_
_atom_site_label
_atom_site_type_symbol
_atom_site_fract_x
_atom_site_fract_y
_atom_site_fract_z
O1 O 0.42654(12) 0.14618(12) 0.44719(7)
O2 O 0.48975(9) 0.10941(11) 0.62123(6)
H1 H 0.501248 0.033916 0.589673
O3 O 0.23636(8) 0.62906(10) 0.46695(5)
C1 C 0.03413(14) 0.2331(2) 0.49205(10)
H2 H -0.041679 0.295421 0.469808
C2 C 0.38360(12) 0.24175(15) 0.48641(8)
C3 C 0.37966(12) 0.19664(14) 0.57567(8)
C4 C 0.25841(14) 0.09071(16) 0.56093(9)
H3 H 0.264324 0.002952 0.523634
H4 H 0.260836 0.047067 0.617073
C5 C 0.13418(14) 0.16756(17) 0.52197(9)
C6 C 0.37013(11) 0.33481(14) 0.62997(8)
C7 C 0.32402(11) 0.47675(14) 0.59105(7)
C8 C 0.29478(11) 0.49427(14) 0.49753(8)
C9 C 0.18465(12) 0.64942(15) 0.37227(8)
C10 C 0.28284(14) 0.58588(16) 0.33338(8)
H5 H 0.363905 0.646411 0.355268
H6 H 0.248785 0.598164 0.270066
C11 C 0.31200(14) 0.41518(15) 0.35540(8)
H7 H 0.240331 0.350676 0.318542
H8 H 0.392099 0.385337 0.343994
C12 C 0.32826(12) 0.38644(14) 0.44834(8)
C13 C 0.16926(13) 0.82300(15) 0.36096(8)
H9 H 0.128136 0.847312 0.299824
H10 H 0.254451 0.872501 0.382120
H11 H 0.115203 0.861736 0.393588
C14 C 0.05581(13) 0.56464(17) 0.34017(8)
H12 H 0.021379 0.570197 0.277219
H13 H -0.005331 0.613257 0.364440
H14 H 0.068393 0.455856 0.358180
C15 C 0.30993(12) 0.60188(14) 0.64167(8)
H15 H 0.278502 0.698570 0.615440
C16 C 0.34194(12) 0.58445(15) 0.73017(8)
H16 H 0.331856 0.668977 0.764415
C17 C 0.38871(12) 0.44330(16) 0.76854(8)
H17 H 0.411369 0.431862 0.829125
C18 C 0.40247(12) 0.31899(15) 0.71877(8)
H18 H 0.434092 0.222649 0.745390
loop_
_geom_bond_atom_site_label_1
_geom_bond_atom_site_label_2
_geom_bond_site_symmetry_1
_geom_bond_site_symmetry_2
O1 C2 1_555 1_555
O2 H1 1_555 1_555
O3 C8 1_555 1_555
C1 H2 1_555 1_555
C2 C3 1_555 1_555
C3 O2 1_555 1_555
C4 C3 1_555 1_555
H3 C4 1_555 1_555
H4 C4 1_555 1_555
C5 C1 1_555 1_555
C6 C3 1_555 1_555
C7 C6 1_555 1_555
C8 C7 1_555 1_555
C9 O3 1_555 1_555
C10 C9 1_555 1_555
H5 C10 1_555 1_555
H6 C10 1_555 1_555
C11 C10 1_555 1_555
H7 C11 1_555 1_555
H8 C11 1_555 1_555
C12 C2 1_555 1_555
C13 C9 1_555 1_555
H9 C13 1_555 1_555
H10 C13 1_555 1_555
H11 C13 1_555 1_555
C14 C9 1_555 1_555
H12 C14 1_555 1_555
H13 C14 1_555 1_555
H14 C14 1_555 1_555
C15 C7 1_555 1_555
H15 C15 1_555 1_555
C16 C15 1_555 1_555
H16 C16 1_555 1_555
C17 C16 1_555 1_555
H17 C17 1_555 1_555
C18 C6 1_555 1_555
H18 C18 1_555 1_555
C4 C5 1_555 1_555
C8 C12 1_555 1_555
C11 C12 1_555 1_555
C17 C18 1_555 1_555

#END
