
#######################################################################
#
#                 Cambridge Crystallographic Data Centre
#                                CCDC 
#
#######################################################################
#
# If this CIF has been generated from an entry in the Cambridge 
# Structural Database, then it will include bibliographic, chemical, 
# crystal, experimental, refinement or atomic coordinate data resulting 
# from the CCDC's data processing and validation procedures.
#
#######################################################################

data_LENJUK
_chemical_formula_moiety         'C19 H23 N1 O8 S1'
_chemical_name_systematic        
'2-(2-(2-(4-Nitrophenoxy)ethoxy)ethoxy)ethyl toluene-4-sulfonate'
_symmetry_cell_setting           monoclinic
_symmetry_space_group_name_H-M   'C c'
_symmetry_Int_Tables_number      9
_space_group_name_Hall           'C -2yc'
loop_
_symmetry_equiv_pos_site_id
_symmetry_equiv_pos_as_xyz
1 x,y,z
2 x,-y,1/2+z
3 1/2+x,1/2+y,z
4 1/2+x,1/2-y,1/2+z
_cell_length_a                   11.515(2)
_cell_length_b                   11.765(2)
_cell_length_c                   14.883(3)
_cell_angle_alpha                90
_cell_angle_beta                 97.117(3)
_cell_angle_gamma                90
_cell_volume                     2000.72
_exptl_crystal_colour            colorless
_exptl_crystal_description       block
_cell_formula_units_Z            4
_exptl_crystal_recrystallization_method dichloromethane
loop_
_atom_site_label
_atom_site_type_symbol
_atom_site_fract_x
_atom_site_fract_y
_atom_site_fract_z
C1 C 1.2077(2) 0.15016(19) 1.00674(16)
C2 C 1.0970(2) 0.1864(2) 1.01948(18)
H1 H 1.0550 0.1489 1.0619
C3 C 1.0477(2) 0.2772(2) 0.97053(18)
H2 H 0.9721 0.3035 0.9796
C4 C 1.1095(2) 0.33042(18) 0.90752(17)
C5 C 1.22264(19) 0.29473(19) 0.89770(16)
H3 H 1.2658 0.3333 0.8565
C6 C 1.2726(2) 0.20443(19) 0.94685(16)
H4 H 1.3496 0.1798 0.9400
C7 C 0.9463(2) 0.4475(2) 0.85669(18)
H5 H 0.9401 0.4882 0.9141
H6 H 0.8964 0.3789 0.8549
C8 C 0.9061(2) 0.5228(2) 0.77819(18)
H7 H 0.9264 0.4881 0.7216
H8 H 0.8201 0.5319 0.7727
C9 C 0.9152(2) 0.7078(2) 0.72274(17)
H9 H 0.8313 0.7220 0.7270
H10 H 0.9222 0.6750 0.6624
C10 C 0.9820(2) 0.81685(19) 0.73426(18)
H11 H 1.0666 0.8014 0.7350
H12 H 0.9570 0.8678 0.6825
C11 C 1.0446(2) 0.9569(2) 0.84362(19)
H13 H 1.1243 0.9247 0.8448
H14 H 1.0349 0.9806 0.9061
C12 C 1.03476(19) 1.0603(2) 0.78350(18)
H15 H 1.1010 1.1126 0.8013
H16 H 1.0366 1.0377 0.7196
C13 C 0.79725(19) 1.06564(18) 0.64017(17)
C14 C 0.84317(19) 1.03687(19) 0.56209(17)
H17 H 0.9061 1.0793 0.5432
C15 C 0.7964(2) 0.9452(2) 0.51132(18)
H18 H 0.8275 0.9251 0.4573
C16 C 0.7051(2) 0.88255(18) 0.53832(19)
C17 C 0.6601(2) 0.9137(2) 0.6173(2)
H19 H 0.5974 0.8711 0.6364
C18 C 0.7048(2) 1.0057(2) 0.66885(18)
H20 H 0.6729 1.0270 0.7223
C19 C 0.6557(3) 0.7820(3) 0.4840(2)
H21 H 0.5998 0.8085 0.4333
H22 H 0.6158 0.7317 0.5228
H23 H 0.7193 0.7405 0.4606
N1 N 1.2545(2) 0.05006(18) 1.05643(15)
O1 O 1.06563(13) 0.41538(14) 0.85224(12)
O2 O 0.96085(14) 0.63054(13) 0.79128(11)
O3 O 0.96218(14) 0.87100(13) 0.81648(12)
O4 O 0.92422(14) 1.11657(14) 0.79361(12)
O5 O 0.94078(17) 1.23627(14) 0.66107(16)
O6 O 0.76793(17) 1.24035(15) 0.74350(17)
O7 O 1.19236(19) 0.00013(16) 1.10526(15)
O8 O 1.35407(18) 0.01904(17) 1.04733(14)
S1 S 0.85809(5) 1.17837(4) 0.70772(5)
loop_
_geom_bond_atom_site_label_1
_geom_bond_atom_site_label_2
_geom_bond_site_symmetry_1
_geom_bond_site_symmetry_2
C1 C2 1_555 1_555
C2 H1 1_555 1_555
C3 C2 1_555 1_555
H2 C3 1_555 1_555
C4 C3 1_555 1_555
C5 C4 1_555 1_555
H3 C5 1_555 1_555
C6 C1 1_555 1_555
H4 C6 1_555 1_555
C7 H5 1_555 1_555
H6 C7 1_555 1_555
C8 C7 1_555 1_555
H7 C8 1_555 1_555
H8 C8 1_555 1_555
C9 H9 1_555 1_555
H10 C9 1_555 1_555
C10 C9 1_555 1_555
H11 C10 1_555 1_555
H12 C10 1_555 1_555
C11 H13 1_555 1_555
H14 C11 1_555 1_555
C12 C11 1_555 1_555
H15 C12 1_555 1_555
H16 C12 1_555 1_555
C13 C14 1_555 1_555
C14 H17 1_555 1_555
C15 C14 1_555 1_555
H18 C15 1_555 1_555
C16 C15 1_555 1_555
C17 C16 1_555 1_555
H19 C17 1_555 1_555
C18 C13 1_555 1_555
H20 C18 1_555 1_555
C19 C16 1_555 1_555
H21 C19 1_555 1_555
H22 C19 1_555 1_555
H23 C19 1_555 1_555
N1 C1 1_555 1_555
O1 C4 1_555 1_555
O2 C8 1_555 1_555
O3 C10 1_555 1_555
O4 C12 1_555 1_555
O5 S1 1_555 1_555
O6 S1 1_555 1_555
O7 N1 1_555 1_555
O8 N1 1_555 1_555
S1 C13 1_555 1_555
C5 C6 1_555 1_555
C7 O1 1_555 1_555
C9 O2 1_555 1_555
C11 O3 1_555 1_555
C17 C18 1_555 1_555
O4 S1 1_555 1_555

#END
