
#######################################################################
#
#                 Cambridge Crystallographic Data Centre
#                                CCDC 
#
#######################################################################
#
# If this CIF has been generated from an entry in the Cambridge 
# Structural Database, then it will include bibliographic, chemical, 
# crystal, experimental, refinement or atomic coordinate data resulting 
# from the CCDC's data processing and validation procedures.
#
#######################################################################

data_LENNUO
_chemical_formula_moiety         'C14 H20 N4 O2'
_chemical_name_systematic        
7-Methyl-3,7,11,17-tetraazabicyclo[11.3.1]heptadeca-1(17),13,15-triene-2,12-dione
_symmetry_cell_setting           monoclinic
_symmetry_space_group_name_H-M   'P 21/c'
_symmetry_Int_Tables_number      14
_space_group_name_Hall           '-P 2ybc'
loop_
_symmetry_equiv_pos_site_id
_symmetry_equiv_pos_as_xyz
1 x,y,z
2 -x,1/2+y,1/2-z
3 -x,-y,-z
4 x,1/2-y,1/2+z
_cell_length_a                   6.0458(13)
_cell_length_b                   19.101(4)
_cell_length_c                   12.283(2)
_cell_angle_alpha                90
_cell_angle_beta                 104.201(4)
_cell_angle_gamma                90
_cell_volume                     1375.1
_exptl_crystal_colour            colorless
_exptl_crystal_description       needle
_cell_formula_units_Z            4
loop_
_atom_site_label
_atom_site_type_symbol
_atom_site_fract_x
_atom_site_fract_y
_atom_site_fract_z
O1 O 1.2929(3) 0.39864(10) 0.49698(15)
N1 N 0.8563(4) 0.48485(11) 0.30131(16)
C1 C 0.7964(5) 0.54362(14) 0.2425(2)
O2 O 0.4732(3) 0.59531(10) 0.11600(15)
N2 N 0.9340(5) 0.36711(13) 0.40395(19)
H1 H 0.804(5) 0.3860(15) 0.360(2)
C2 C 0.9443(5) 0.59939(16) 0.2495(2)
H2 H 0.882(5) 0.6417(15) 0.208(2)
N3 N 0.5135(4) 0.32758(12) 0.21903(16)
C3 C 1.1584(5) 0.59369(16) 0.3194(2)
H3 H 1.261(4) 0.6342(14) 0.319(2)
C4 C 1.2214(5) 0.53349(15) 0.3809(2)
H4 H 1.383(4) 0.5259(12) 0.431(2)
N4 N 0.4644(4) 0.47974(14) 0.15970(18)
H5 H 0.535(5) 0.4406(15) 0.200(2)
C5 C 1.0628(5) 0.47989(14) 0.36967(19)
C6 C 1.1090(5) 0.41120(15) 0.4310(2)
C7 C 0.9232(6) 0.29844(16) 0.4506(2)
H6 H 1.099(5) 0.2846(14) 0.480(2)
H7 H 0.853(5) 0.3040(14) 0.513(2)
C8 C 0.7822(5) 0.25044(16) 0.3632(2)
H8 H 0.764(4) 0.2062(12) 0.3994(17)
H9 H 0.862(4) 0.2355(13) 0.305(2)
C9 C 0.5408(5) 0.27336(17) 0.3069(2)
H10 H 0.454(5) 0.2291(15) 0.274(2)
H11 H 0.464(5) 0.2916(14) 0.367(2)
C10 C 0.2665(5) 0.33912(17) 0.1747(2)
H12 H 0.204(4) 0.3604(12) 0.240(2)
H13 H 0.189(4) 0.2911(14) 0.156(2)
C11 C 0.1947(6) 0.38801(16) 0.0745(2)
H14 H 0.032(5) 0.3818(12) 0.044(2)
H15 H 0.279(5) 0.3724(15) 0.016(2)
C12 C 0.2319(5) 0.46514(17) 0.0983(3)
H16 H 0.203(4) 0.4886(13) 0.026(2)
H17 H 0.123(4) 0.4845(12) 0.1394(19)
C13 C 0.5612(5) 0.54250(16) 0.1671(2)
C14 C 0.6119(6) 0.3034(2) 0.1284(3)
H18 H 0.549(5) 0.2588(16) 0.097(2)
H19 H 0.782(5) 0.2921(13) 0.158(2)
H20 H 0.597(5) 0.3404(16) 0.069(3)
loop_
_geom_bond_atom_site_label_1
_geom_bond_atom_site_label_2
_geom_bond_site_symmetry_1
_geom_bond_site_symmetry_2
O1 C6 1_555 1_555
N1 C1 1_555 1_555
C1 C2 1_555 1_555
O2 C13 1_555 1_555
N2 H1 1_555 1_555
C2 H2 1_555 1_555
N3 C9 1_555 1_555
C3 C2 1_555 1_555
H3 C3 1_555 1_555
C4 C3 1_555 1_555
H4 C4 1_555 1_555
N4 H5 1_555 1_555
C5 N1 1_555 1_555
C6 N2 1_555 1_555
C7 N2 1_555 1_555
H6 C7 1_555 1_555
H7 C7 1_555 1_555
C8 C7 1_555 1_555
H8 C8 1_555 1_555
H9 C8 1_555 1_555
C9 C8 1_555 1_555
H10 C9 1_555 1_555
H11 C9 1_555 1_555
C10 N3 1_555 1_555
H12 C10 1_555 1_555
H13 C10 1_555 1_555
C11 C10 1_555 1_555
H14 C11 1_555 1_555
H15 C11 1_555 1_555
C12 N4 1_555 1_555
H16 C12 1_555 1_555
H17 C12 1_555 1_555
C13 C1 1_555 1_555
C14 N3 1_555 1_555
H18 C14 1_555 1_555
H19 C14 1_555 1_555
H20 C14 1_555 1_555
C4 C5 1_555 1_555
N4 C13 1_555 1_555
C5 C6 1_555 1_555
C11 C12 1_555 1_555

#END
