
#######################################################################
#
#                 Cambridge Crystallographic Data Centre
#                                CCDC 
#
#######################################################################
#
# If this CIF has been generated from an entry in the Cambridge 
# Structural Database, then it will include bibliographic, chemical, 
# crystal, experimental, refinement or atomic coordinate data resulting 
# from the CCDC's data processing and validation procedures.
#
#######################################################################

data_LENNOI
_chemical_formula_moiety         'C13 H18 N4 O2,C1 H4 O1'
_chemical_name_systematic        
'3,7,11,17-Tetraazabicyclo[11.3.1]heptadeca-1(17),13,15-triene-2,12-dione methanol clathrate'
_symmetry_cell_setting           orthorhombic
_symmetry_space_group_name_H-M   'P c a b'
_symmetry_Int_Tables_number      61
_space_group_name_Hall           '-P 2bc 2ac'
loop_
_symmetry_equiv_pos_site_id
_symmetry_equiv_pos_as_xyz
1 x,y,z
2 -x,1/2-y,1/2+z
3 1/2+x,-y,1/2-z
4 1/2-x,1/2+y,-z
5 -x,-y,-z
6 x,1/2+y,1/2-z
7 1/2-x,y,1/2+z
8 1/2+x,1/2-y,z
_cell_length_a                   7.046(4)
_cell_length_b                   15.999(10)
_cell_length_c                   26.916(16)
_cell_angle_alpha                90
_cell_angle_beta                 90
_cell_angle_gamma                90
_cell_volume                     3034.21
_exptl_crystal_colour            colorless
_exptl_crystal_description       needle
_cell_formula_units_Z            8
loop_
_atom_site_label
_atom_site_type_symbol
_atom_site_fract_x
_atom_site_fract_y
_atom_site_fract_z
O1 O 0.1673(8) 0.8712(4) 0.7071(2)
O2 O 0.3587(11) 0.6274(6) 0.4966(2)
N1 N 0.2702(8) 0.7343(5) 0.6078(2)
N2 N 0.1801(8) 0.7293(4) 0.7008(2)
H1 H 0.1987 0.6882 0.6803
N3 N 0.3059(9) 0.5833(5) 0.5755(3)
H2 H 0.2869 0.6004 0.6057
N4 N 0.2625(9) 0.5482(4) 0.6844(3)
H3 H 0.3346 0.5881 0.6731
C1 C 0.2542(10) 0.8091(5) 0.6299(3)
C2 C 0.2863(11) 0.8817(6) 0.6027(4)
H4 H 0.2784 0.9335 0.6190
C3 C 0.3282(15) 0.8808(8) 0.5539(5)
H5 H 0.3445 0.9302 0.5355
C4 C 0.3459(12) 0.8020(9) 0.5323(4)
H6 H 0.3790 0.7972 0.4986
C5 C 0.3146(10) 0.7299(7) 0.5606(3)
C6 C 0.1984(10) 0.8063(5) 0.6825(3)
C7 C 0.1326(11) 0.7075(6) 0.7512(3)
H7 H -0.0057 0.7057 0.7549
H8 H 0.1822 0.7501 0.7739
C8 C 0.2157(12) 0.6238(6) 0.7642(3)
H9 H 0.1807 0.6104 0.7985
H10 H 0.3543 0.6282 0.7629
C9 C 0.1541(12) 0.5502(6) 0.7306(3)
H11 H 0.1725 0.4975 0.7485
H12 H 0.0187 0.5556 0.7229
C10 C 0.2289(15) 0.4670(6) 0.6601(5)
H13 H 0.0977 0.4652 0.6481
H14 H 0.2439 0.4224 0.6848
C11 C 0.3627(16) 0.4504(7) 0.6168(5)
H15 H 0.3669 0.3901 0.6107
H16 H 0.4907 0.4682 0.6263
C12 C 0.3081(15) 0.4948(7) 0.5682(4)
H17 H 0.3997 0.4805 0.5422
H18 H 0.1823 0.4759 0.5574
C13 C 0.3298(12) 0.6433(8) 0.5409(3)
O3 O 0.1482(16) 0.6098(7) 0.4139(4)
H19 H 0.2120 0.6116 0.4398
C14 C 0.1219(18) 0.6895(8) 0.3961(4)
H20 H 0.0389 0.7200 0.4184
H21 H 0.0649 0.6869 0.3634
H22 H 0.2434 0.7177 0.3941
loop_
_geom_bond_atom_site_label_1
_geom_bond_atom_site_label_2
_geom_bond_site_symmetry_1
_geom_bond_site_symmetry_2
O1 C6 1_555 1_555
O2 C13 1_555 1_555
N1 C1 1_555 1_555
N2 H1 1_555 1_555
N3 H2 1_555 1_555
N4 H3 1_555 1_555
C1 C2 1_555 1_555
C2 H4 1_555 1_555
C3 C2 1_555 1_555
H5 C3 1_555 1_555
C4 C3 1_555 1_555
H6 C4 1_555 1_555
C5 N1 1_555 1_555
C6 N2 1_555 1_555
C7 N2 1_555 1_555
H7 C7 1_555 1_555
H8 C7 1_555 1_555
C8 C7 1_555 1_555
H9 C8 1_555 1_555
H10 C8 1_555 1_555
C9 N4 1_555 1_555
H11 C9 1_555 1_555
H12 C9 1_555 1_555
C10 N4 1_555 1_555
H13 C10 1_555 1_555
H14 C10 1_555 1_555
C11 C10 1_555 1_555
H15 C11 1_555 1_555
H16 C11 1_555 1_555
C12 N3 1_555 1_555
H17 C12 1_555 1_555
H18 C12 1_555 1_555
C13 N3 1_555 1_555
O3 H19 1_555 1_555
C14 O3 1_555 1_555
H20 C14 1_555 1_555
H21 C14 1_555 1_555
H22 C14 1_555 1_555
C1 C6 1_555 1_555
C4 C5 1_555 1_555
C5 C13 1_555 1_555
C8 C9 1_555 1_555
C11 C12 1_555 1_555

#END
