
#######################################################################
#
#                 Cambridge Crystallographic Data Centre
#                                CCDC 
#
#######################################################################
#
# If this CIF has been generated from an entry in the Cambridge 
# Structural Database, then it will include bibliographic, chemical, 
# crystal, experimental, refinement or atomic coordinate data resulting 
# from the CCDC's data processing and validation procedures.
#
#######################################################################

data_LENQOL
_chemical_formula_moiety         'C22 H20 N2 O4 S1'
_chemical_name_systematic        
(4S,4aS,10bS)-5-Oxo-1-p-tosyl-4-vinyl-2,3,4,4a,5,10b-hexahydro-1H-chromeno[4,3-b]pyridine-4a-carbonitrile
_symmetry_cell_setting           triclinic
_symmetry_space_group_name_H-M   'P -1'
_symmetry_Int_Tables_number      2
_space_group_name_Hall           '-P 1'
loop_
_symmetry_equiv_pos_site_id
_symmetry_equiv_pos_as_xyz
1 x,y,z
2 -x,-y,-z
_cell_length_a                   7.7457(6)
_cell_length_b                   8.3807(6)
_cell_length_c                   15.1631(12)
_cell_angle_alpha                85.166(2)
_cell_angle_beta                 89.549(2)
_cell_angle_gamma                74.9760(10)
_cell_volume                     947.176
_exptl_crystal_colour            colorless
_exptl_crystal_description       'Flat plate'
_cell_formula_units_Z            2
loop_
_atom_site_label
_atom_site_type_symbol
_atom_site_fract_x
_atom_site_fract_y
_atom_site_fract_z
S1 S -0.09109(4) 0.38904(4) 0.34890(2)
O1 O -0.00579(13) 0.77109(13) 0.04190(6)
O2 O 0.16724(13) 0.56031(13) -0.01985(6)
O3 O -0.15329(12) 0.48157(12) 0.42367(6)
O4 O -0.21972(12) 0.35459(12) 0.29100(6)
N1 N 0.03368(13) 0.48180(14) 0.28691(7)
N2 N 0.27145(17) 0.21080(17) 0.12524(8)
C1 C 0.10295(17) 0.61651(18) 0.04674(9)
C2 C 0.14601(16) 0.52857(17) 0.13891(8)
C3 C 0.28948(17) 0.60347(19) 0.18204(9)
H1 H 0.253(3) 0.729(3) 0.1782(13)
C4 C 0.33678(17) 0.51574(18) 0.27498(9)
H2 H 0.428(2) 0.563(2) 0.2998(10)
H3 H 0.386(2) 0.403(2) 0.2742(11)
C5 C 0.17006(16) 0.54161(17) 0.33128(8)
H4 H 0.193(2) 0.482(2) 0.3899(10)
H5 H 0.119(2) 0.662(2) 0.3395(10)
C6 C -0.02257(16) 0.55392(16) 0.19754(8)
H6 H -0.098(2) 0.496(2) 0.1773(10)
C7 C -0.11707(16) 0.73751(16) 0.19149(8)
C8 C -0.10293(17) 0.83607(17) 0.11520(9)
C9 C -0.18787(19) 1.00354(19) 0.10380(10)
H7 H -0.166(2) 1.065(3) 0.0504(13)
C10 C -0.2929(2) 1.07617(19) 0.17110(11)
H8 H -0.350(3) 1.195(3) 0.1607(13)
C11 C -0.31369(19) 0.98144(19) 0.24763(10)
H9 H -0.390(2) 1.036(2) 0.2936(12)
C12 C -0.22485(17) 0.81337(18) 0.25814(9)
H10 H -0.239(2) 0.750(2) 0.3106(11)
C13 C 0.06224(17) 0.20350(16) 0.38920(8)
C14 C 0.10526(18) 0.17452(18) 0.47863(9)
H11 H 0.057(2) 0.252(2) 0.5189(11)
C15 C 0.22671(19) 0.02701(18) 0.50895(9)
H12 H 0.252(2) 0.006(2) 0.5719(11)
C16 C 0.30783(17) -0.09011(17) 0.45122(9)
C17 C 0.26381(19) -0.05630(17) 0.36136(10)
H13 H 0.319(2) -0.138(2) 0.3209(11)
C18 C 0.13964(19) 0.08803(17) 0.32985(9)
H14 H 0.118(2) 0.108(2) 0.2685(12)
C19 C 0.44665(18) 0.6003(2) 0.12325(10)
H15 H 0.524(3) 0.487(3) 0.1064(14)
C20 C 0.4851(2) 0.7358(2) 0.08833(10)
H16 H 0.4111(17) 0.8273(18) 0.1064(8)
H17 H 0.585(3) 0.730(3) 0.0500(13)
C21 C 0.21814(17) 0.34993(18) 0.13006(8)
C22 C 0.4369(2) -0.25043(19) 0.48526(12)
H18 H 0.485(3) -0.240(3) 0.5387(14)
H19 H 0.528(3) -0.280(3) 0.4473(13)
H20 H 0.376(3) -0.343(3) 0.4891(13)
loop_
_geom_bond_atom_site_label_1
_geom_bond_atom_site_label_2
_geom_bond_site_symmetry_1
_geom_bond_site_symmetry_2
S1 O3 1_555 1_555
O1 C1 1_555 1_555
O2 C1 1_555 1_555
O4 S1 1_555 1_555
N1 S1 1_555 1_555
N2 C21 1_555 1_555
C1 C2 1_555 1_555
C2 C3 1_555 1_555
C3 H1 1_555 1_555
C4 C3 1_555 1_555
H2 C4 1_555 1_555
H3 C4 1_555 1_555
C5 N1 1_555 1_555
H4 C5 1_555 1_555
H5 C5 1_555 1_555
C6 N1 1_555 1_555
H6 C6 1_555 1_555
C7 C6 1_555 1_555
C8 O1 1_555 1_555
C9 C8 1_555 1_555
H7 C9 1_555 1_555
C10 C9 1_555 1_555
H8 C10 1_555 1_555
C11 C10 1_555 1_555
H9 C11 1_555 1_555
C12 C7 1_555 1_555
H10 C12 1_555 1_555
C13 S1 1_555 1_555
C14 C13 1_555 1_555
H11 C14 1_555 1_555
C15 C14 1_555 1_555
H12 C15 1_555 1_555
C16 C15 1_555 1_555
C17 C16 1_555 1_555
H13 C17 1_555 1_555
C18 C13 1_555 1_555
H14 C18 1_555 1_555
C19 C3 1_555 1_555
H15 C19 1_555 1_555
C20 C19 1_555 1_555
H16 C20 1_555 1_555
H17 C20 1_555 1_555
C21 C2 1_555 1_555
C22 C16 1_555 1_555
H18 C22 1_555 1_555
H19 C22 1_555 1_555
H20 C22 1_555 1_555
C2 C6 1_555 1_555
C4 C5 1_555 1_555
C7 C8 1_555 1_555
C11 C12 1_555 1_555
C17 C18 1_555 1_555

#END
