
#######################################################################
#
#                 Cambridge Crystallographic Data Centre
#                                CCDC 
#
#######################################################################
#
# If this CIF has been generated from an entry in the Cambridge 
# Structural Database, then it will include bibliographic, chemical, 
# crystal, experimental, refinement or atomic coordinate data resulting 
# from the CCDC's data processing and validation procedures.
#
#######################################################################

data_LENQIF
_chemical_formula_moiety         'C18 H14 F3 N1 O3'
_chemical_name_systematic        
'(E)-Methyl 2-(2,2,2-trifluoro-N-phenylacetimidoyloxy)-3-phenyl-2-propenoate'
_symmetry_cell_setting           triclinic
_symmetry_space_group_name_H-M   'P -1'
_symmetry_Int_Tables_number      2
_space_group_name_Hall           '-P 1'
loop_
_symmetry_equiv_pos_site_id
_symmetry_equiv_pos_as_xyz
1 x,y,z
2 -x,-y,-z
_cell_length_a                   11.279(2)
_cell_length_b                   13.083(3)
_cell_length_c                   13.556(3)
_cell_angle_alpha                101.72(3)
_cell_angle_beta                 108.92(3)
_cell_angle_gamma                106.31(3)
_cell_volume                     1718.15
_exptl_crystal_description       block
_cell_formula_units_Z            4
loop_
_atom_site_label
_atom_site_type_symbol
_atom_site_fract_x
_atom_site_fract_y
_atom_site_fract_z
F1 F 0.7972(4) 0.2853(3) 0.5773(3)
F2 F 0.6060(4) 0.2296(3) 0.5539(3)
F3 F 0.7478(6) 0.2116(3) 0.6808(3)
O1 O 0.5145(2) 0.4414(2) 0.59330(18)
O2 O 0.5658(2) 0.6215(2) 0.68706(17)
O3 O 0.7741(2) 0.4684(2) 0.65860(18)
N1 N 0.7244(3) 0.3921(2) 0.7920(2)
C1 C 0.5950(4) 0.5350(3) 0.6469(2)
C2 C 0.7420(3) 0.5653(3) 0.6787(2)
C3 C 0.8425(3) 0.6641(3) 0.7156(2)
H1 H 0.9275 0.6600 0.7334
C4 C 0.8435(3) 0.7789(3) 0.7335(2)
C5 C 0.7497(3) 0.8074(3) 0.6619(3)
H2 H 0.6806 0.7522 0.5985
C6 C 0.7579(4) 0.9178(4) 0.6840(3)
H3 H 0.6938 0.9359 0.6353
C7 C 0.8587(5) 1.0004(4) 0.7762(4)
H4 H 0.8628 1.0742 0.7910
C8 C 0.9529(5) 0.9736(4) 0.8461(3)
H5 H 1.0219 1.0295 0.9090
C9 C 0.9475(4) 0.8648(4) 0.8250(3)
H6 H 1.0144 0.8484 0.8727
C10 C 0.4233(3) 0.5997(4) 0.6600(3)
H7 H 0.4132 0.6674 0.6924
H8 H 0.3877 0.5422 0.6883
H9 H 0.3748 0.5750 0.5814
C11 C 0.7419(3) 0.3897(3) 0.7048(3)
C12 C 0.7202(6) 0.2755(4) 0.6328(4)
C13 C 0.7456(5) 0.4933(3) 0.8718(3)
C14 C 0.6386(5) 0.5038(4) 0.8919(3)
H10 H 0.5528 0.4483 0.8514
C15 C 0.6583(7) 0.5981(5) 0.9732(4)
H11 H 0.5842 0.6069 0.9846
C16 C 0.7808(9) 0.6763(5) 1.0354(4)
H12 H 0.7925 0.7384 1.0905
C17 C 0.8902(6) 0.6646(4) 1.0175(4)
H13 H 0.9763 0.7185 1.0614
C18 C 0.8732(5) 0.5740(4) 0.9354(3)
H14 H 0.9472 0.5670 0.9227
F4 F 0.5109(3) 1.0187(3) 0.35472(19)
F5 F 0.6953(4) 1.0804(3) 0.3488(2)
F6 F 0.6680(3) 0.9739(2) 0.43567(16)
O4 O 0.6275(2) 0.9770(2) 0.07544(18)
O5 O 0.5294(2) 0.8195(2) -0.07047(17)
O6 O 0.4564(2) 0.89651(19) 0.16365(15)
N2 N 0.6172(3) 0.8242(2) 0.22623(18)
C19 C 0.5386(4) 0.8862(3) 0.0218(3)
C20 C 0.4285(3) 0.8356(3) 0.0547(2)
C21 C 0.3104(3) 0.7511(3) -0.0007(2)
H15 H 0.2615 0.7316 0.0407
C22 C 0.2442(3) 0.6828(3) -0.1192(2)
C23 C 0.1922(3) 0.5673(3) -0.1480(3)
H16 H 0.2011 0.5342 -0.0928
C24 C 0.1274(3) 0.4998(3) -0.2565(3)
H17 H 0.0938 0.4219 -0.2744
C25 C 0.1130(3) 0.5478(4) -0.3368(3)
H18 H 0.0695 0.5025 -0.4103
C26 C 0.1619(3) 0.6626(4) -0.3111(3)
H19 H 0.1511 0.6946 -0.3671
C27 C 0.2276(3) 0.7311(3) -0.2015(2)
H20 H 0.2601 0.8090 -0.1839
C28 C 0.6320(4) 0.8666(4) -0.1091(3)
H21 H 0.6183 0.8130 -0.1757
H22 H 0.7200 0.8837 -0.0537
H23 H 0.6256 0.9343 -0.1233
C29 C 0.5654(3) 0.8944(3) 0.2426(2)
C30 C 0.6074(4) 0.9900(4) 0.3467(3)
C31 C 0.7350(3) 0.8217(3) 0.3056(2)
C32 C 0.8604(4) 0.8881(3) 0.3216(2)
H24 H 0.8703 0.9392 0.2834
C33 C 0.9731(4) 0.8803(4) 0.3941(3)
H25 H 1.0588 0.9261 0.4045
C34 C 0.9599(4) 0.8060(4) 0.4506(3)
H26 H 1.0362 0.8007 0.4993
C35 C 0.8342(5) 0.7396(4) 0.4356(3)
H27 H 0.8251 0.6894 0.4748
C36 C 0.7198(4) 0.7457(3) 0.3625(3)
H28 H 0.6341 0.6997 0.3519
loop_
_geom_bond_atom_site_label_1
_geom_bond_atom_site_label_2
_geom_bond_site_symmetry_1
_geom_bond_site_symmetry_2
F1 C12 1_555 1_555
F2 C12 1_555 1_555
F3 C12 1_555 1_555
F4 C30 1_555 1_555
F5 C30 1_555 1_555
F6 C30 1_555 1_555
O1 C1 1_555 1_555
O2 C1 1_555 1_555
O3 C2 1_555 1_555
O4 C19 1_555 1_555
O5 C19 1_555 1_555
O6 C20 1_555 1_555
N1 C11 1_555 1_555
N2 C29 1_555 1_555
C1 C2 1_555 1_555
C2 C3 1_555 1_555
C3 H1 1_555 1_555
C4 C3 1_555 1_555
C5 C4 1_555 1_555
H2 C5 1_555 1_555
C6 C5 1_555 1_555
H3 C6 1_555 1_555
C7 C6 1_555 1_555
H4 C7 1_555 1_555
C8 C7 1_555 1_555
H5 C8 1_555 1_555
C9 C4 1_555 1_555
H6 C9 1_555 1_555
C10 O2 1_555 1_555
H7 C10 1_555 1_555
H8 C10 1_555 1_555
H9 C10 1_555 1_555
C11 O3 1_555 1_555
C12 C11 1_555 1_555
C13 N1 1_555 1_555
C14 C13 1_555 1_555
H10 C14 1_555 1_555
C15 C14 1_555 1_555
H11 C15 1_555 1_555
C16 C15 1_555 1_555
H12 C16 1_555 1_555
C17 C16 1_555 1_555
H13 C17 1_555 1_555
C18 C13 1_555 1_555
H14 C18 1_555 1_555
C19 C20 1_555 1_555
C20 C21 1_555 1_555
C21 H15 1_555 1_555
C22 C21 1_555 1_555
C23 C22 1_555 1_555
H16 C23 1_555 1_555
C24 C23 1_555 1_555
H17 C24 1_555 1_555
C25 C24 1_555 1_555
H18 C25 1_555 1_555
C26 C25 1_555 1_555
H19 C26 1_555 1_555
C27 C22 1_555 1_555
H20 C27 1_555 1_555
C28 O5 1_555 1_555
H21 C28 1_555 1_555
H22 C28 1_555 1_555
H23 C28 1_555 1_555
C29 O6 1_555 1_555
C30 C29 1_555 1_555
C31 N2 1_555 1_555
C32 C31 1_555 1_555
H24 C32 1_555 1_555
C33 C32 1_555 1_555
H25 C33 1_555 1_555
C34 C33 1_555 1_555
H26 C34 1_555 1_555
C35 C34 1_555 1_555
H27 C35 1_555 1_555
C36 C31 1_555 1_555
H28 C36 1_555 1_555
C8 C9 1_555 1_555
C17 C18 1_555 1_555
C26 C27 1_555 1_555
C35 C36 1_555 1_555

#END
