
#######################################################################
#
#                 Cambridge Crystallographic Data Centre
#                                CCDC 
#
#######################################################################
#
# If this CIF has been generated from an entry in the Cambridge 
# Structural Database, then it will include bibliographic, chemical, 
# crystal, experimental, refinement or atomic coordinate data resulting 
# from the CCDC's data processing and validation procedures.
#
#######################################################################

data_LENQAX
_chemical_formula_moiety         'C18 H14 F3 N3 O3'
_chemical_name_systematic        
'Methyl 2-diazo-3-(N-phenyl-trifluoroacetamido)-3-phenylpropionate'
_symmetry_cell_setting           monoclinic
_symmetry_space_group_name_H-M   'C 2/c'
_symmetry_Int_Tables_number      15
_space_group_name_Hall           '-C 2yn'
loop_
_symmetry_equiv_pos_site_id
_symmetry_equiv_pos_as_xyz
1 x,y,z
2 1/2+x,1/2+y,z
3 -x,y,1/2-z
4 1/2-x,1/2+y,1/2-z
5 -x,-y,-z
6 1/2-x,1/2-y,-z
7 x,-y,1/2+z
8 1/2+x,1/2-y,1/2+z
_cell_length_a                   25.699(5)
_cell_length_b                   9.4350(19)
_cell_length_c                   15.604(3)
_cell_angle_alpha                90
_cell_angle_beta                 98.96(3)
_cell_angle_gamma                90
_cell_volume                     3737.33
_exptl_crystal_colour            colorless
_exptl_crystal_description       block
_cell_formula_units_Z            8
loop_
_atom_site_label
_atom_site_type_symbol
_atom_site_fract_x
_atom_site_fract_y
_atom_site_fract_z
F1 F 0.23983(5) 0.12094(16) 0.93372(9)
F2 F 0.17964(6) 0.03398(17) 0.84110(10)
F3 F 0.20724(6) 0.24126(16) 0.82441(9)
O1 O 0.00239(6) 0.0450(2) 0.89741(9)
O2 O -0.02998(6) 0.25795(18) 0.85006(10)
O3 O 0.14260(5) 0.33978(16) 0.91770(9)
N1 N 0.13075(5) 0.13009(16) 0.98433(9)
N2 N 0.04272(6) 0.3905(3) 0.94834(11)
N3 N 0.04245(8) 0.5098(2) 0.94175(14)
C1 C 0.00396(9) 0.1725(3) 0.89939(14)
C2 C 0.04345(8) 0.2502(3) 0.95603(13)
C3 C 0.08365(7) 0.1805(2) 1.02166(11)
H1 H 0.0666 0.0938 1.0379
C4 C 0.15341(7) 0.2162(2) 0.93171(12)
C5 C 0.19536(9) 0.1508(3) 0.88329(15)
C6 C -0.07208(9) 0.1881(3) 0.79228(15)
H2 H -0.0942 0.2582 0.7603
H3 H -0.0926 0.1316 0.8258
H4 H -0.0572 0.1284 0.7526
C7 C 0.09759(8) 0.2626(2) 1.10587(12)
C8 C 0.06595(10) 0.2488(3) 1.16826(16)
H5 H 0.0367 0.1896 1.1581
C9 C 0.07657(12) 0.3210(3) 1.24614(17)
H6 H 0.0546 0.3097 1.2878
C10 C 0.11882(12) 0.4081(3) 1.26190(16)
H7 H 0.1256 0.4580 1.3138
C11 C 0.15080(10) 0.4219(3) 1.20233(16)
H8 H 0.1802 0.4805 1.2135
C12 C 0.14050(9) 0.3493(2) 1.12373(14)
H9 H 0.1631 0.3600 1.0830
C13 C 0.15132(8) -0.0075(2) 1.01341(12)
C14 C 0.12746(10) -0.1291(3) 0.97881(16)
H10 H 0.0975 -0.1243 0.9369
C15 C 0.14868(14) -0.2598(3) 1.0073(2)
H11 H 0.1326 -0.3428 0.9845
C16 C 0.19241(15) -0.2672(3) 1.0677(2)
H12 H 0.2070 -0.3551 1.0844
C17 C 0.21512(11) -0.1478(3) 1.10394(18)
H13 H 0.2445 -0.1537 1.1469
C18 C 0.19449(9) -0.0168(2) 1.07692(14)
H14 H 0.2100 0.0654 1.1020
loop_
_geom_bond_atom_site_label_1
_geom_bond_atom_site_label_2
_geom_bond_site_symmetry_1
_geom_bond_site_symmetry_2
F1 C5 1_555 1_555
F2 C5 1_555 1_555
F3 C5 1_555 1_555
O1 C1 1_555 1_555
O2 C1 1_555 1_555
O3 C4 1_555 1_555
N1 C3 1_555 1_555
N2 N3 1_555 1_555
C1 C2 1_555 1_555
C2 N2 1_555 1_555
C3 C2 1_555 1_555
H1 C3 1_555 1_555
C4 N1 1_555 1_555
C5 C4 1_555 1_555
C6 O2 1_555 1_555
H2 C6 1_555 1_555
H3 C6 1_555 1_555
H4 C6 1_555 1_555
C7 C3 1_555 1_555
C8 C7 1_555 1_555
H5 C8 1_555 1_555
C9 C8 1_555 1_555
H6 C9 1_555 1_555
C10 C9 1_555 1_555
H7 C10 1_555 1_555
C11 C10 1_555 1_555
H8 C11 1_555 1_555
C12 C7 1_555 1_555
H9 C12 1_555 1_555
C13 N1 1_555 1_555
C14 C13 1_555 1_555
H10 C14 1_555 1_555
C15 C14 1_555 1_555
H11 C15 1_555 1_555
C16 C15 1_555 1_555
H12 C16 1_555 1_555
C17 C16 1_555 1_555
H13 C17 1_555 1_555
C18 C13 1_555 1_555
H14 C18 1_555 1_555
C11 C12 1_555 1_555
C17 C18 1_555 1_555

#END
