
#######################################################################
#
#                 Cambridge Crystallographic Data Centre
#                                CCDC 
#
#######################################################################
#
# If this CIF has been generated from an entry in the Cambridge 
# Structural Database, then it will include bibliographic, chemical, 
# crystal, experimental, refinement or atomic coordinate data resulting 
# from the CCDC's data processing and validation procedures.
#
#######################################################################

data_LENTOP
_chemical_formula_moiety         'C26 H21 B1 F2 N2'
_chemical_name_systematic        
17,17-Difluoro-8-methyl-5,10,11,17-tetrahydro-6H-18\l^5^,17\l^5^-benzo[g]benzo[6',7']indolo[1',2':3,4][1,3,2]diazaborinino[1,6-a]indole
_symmetry_cell_setting           monoclinic
_symmetry_space_group_name_H-M   'P 21/c'
_symmetry_Int_Tables_number      14
_space_group_name_Hall           '-P 2ybc'
loop_
_symmetry_equiv_pos_site_id
_symmetry_equiv_pos_as_xyz
1 x,y,z
2 -x,1/2+y,1/2-z
3 -x,-y,-z
4 x,1/2-y,1/2+z
_cell_length_a                   14.9871(19)
_cell_length_b                   8.2650(10)
_cell_length_c                   16.112(2)
_cell_angle_alpha                90
_cell_angle_beta                 96.338(7)
_cell_angle_gamma                90
_cell_volume                     1983.57
_cell_formula_units_Z            4
loop_
_atom_site_label
_atom_site_type_symbol
_atom_site_fract_x
_atom_site_fract_y
_atom_site_fract_z
F1 F 0.78636(6) 0.58156(11) 0.84020(6)
F2 F 0.66143(6) 0.49261(11) 0.89474(5)
C1 C 0.75860(11) 0.7021(2) 1.02730(10)
H1 H 0.7137 0.6703 0.9861
C2 C 0.83177(10) 0.5999(2) 1.04888(9)
C3 C 0.84379(10) 0.43913(19) 1.01403(9)
C4 C 0.89892(11) 0.6510(2) 1.11235(10)
C5 C 0.95516(13) 0.3685(2) 1.13860(11)
H2 H 1.0092 0.3034 1.1471
H3 H 0.9192 0.3467 1.1838
C6 C 0.75221(13) 0.8490(2) 1.06627(11)
H4 H 0.7033 0.9158 1.0507
C7 C 0.81730(13) 0.8983(2) 1.12791(11)
H5 H 0.8124 0.9976 1.1542
C8 C 0.88989(13) 0.7988(2) 1.15030(11)
H6 H 0.9339 0.8323 1.1920
C9 C 0.97936(12) 0.5460(2) 1.13760(11)
H7 H 1.0060 0.5779 1.1928
H8 H 1.0237 0.5629 1.0989
C10 C 0.90324(11) 0.3270(2) 1.05671(10)
C11 C 0.90065(12) 0.1892(2) 1.00918(11)
H9 H 0.9328 0.0947 1.0225
C12 C 0.84116(11) 0.21566(19) 0.93704(10)
N1 N 0.80510(8) 0.37047(15) 0.94121(7)
N2 N 0.72379(8) 0.32075(15) 0.79698(8)
C13 C 0.66643(10) 0.3290(2) 0.72507(9)
C14 C 0.67144(11) 0.1830(2) 0.67999(10)
C15 C 0.60476(10) 0.4579(2) 0.69452(9)
C16 C 0.76373(11) 0.16796(19) 0.79904(10)
C17 C 0.73147(12) 0.0844(2) 0.72537(11)
H10 H 0.7481 -0.0191 0.7104
C18 C 0.61166(12) 0.6191(2) 0.71961(10)
H11 H 0.6587 0.6506 0.7588
C19 C 0.61551(13) 0.1596(3) 0.59786(11)
H12 H 0.6077 0.0451 0.5860
H13 H 0.6449 0.2084 0.5534
C20 C 0.53413(11) 0.4114(3) 0.63339(10)
C21 C 0.54995(14) 0.7330(3) 0.68733(11)
H14 H 0.5555 0.8403 0.7045
C22 C 0.52485(12) 0.2390(3) 0.60312(11)
H15 H 0.4906 0.2373 0.5484
H16 H 0.4918 0.1774 0.6409
C23 C 0.47269(13) 0.5281(3) 0.60314(12)
H17 H 0.4252 0.4985 0.5640
C24 C 0.47971(15) 0.6864(3) 0.62927(12)
H18 H 0.4373 0.7621 0.6079
C25 C 0.82120(11) 0.11627(19) 0.86729(10)
C26 C 0.86397(15) -0.0477(2) 0.86613(13)
H19 H 0.8304 -0.1141 0.8249
H20 H 0.8644 -0.0971 0.9201
H21 H 0.9245 -0.0367 0.8526
B1 B 0.74274(11) 0.4481(2) 0.86825(11)
loop_
_geom_bond_atom_site_label_1
_geom_bond_atom_site_label_2
_geom_bond_site_symmetry_1
_geom_bond_site_symmetry_2
F1 B1 1_555 1_555
F2 B1 1_555 1_555
C1 H1 1_555 1_555
C2 C1 1_555 1_555
C3 C2 1_555 1_555
C4 C2 1_555 1_555
C5 H2 1_555 1_555
H3 C5 1_555 1_555
C6 C1 1_555 1_555
H4 C6 1_555 1_555
C7 C6 1_555 1_555
H5 C7 1_555 1_555
C8 C4 1_555 1_555
H6 C8 1_555 1_555
C9 C4 1_555 1_555
H7 C9 1_555 1_555
H8 C9 1_555 1_555
C10 C3 1_555 1_555
C11 C10 1_555 1_555
H9 C11 1_555 1_555
C12 C11 1_555 1_555
N1 C3 1_555 1_555
N2 C13 1_555 1_555
C13 C14 1_555 1_555
C14 C17 1_555 1_555
C15 C13 1_555 1_555
C16 N2 1_555 1_555
C17 C16 1_555 1_555
H10 C17 1_555 1_555
C18 C15 1_555 1_555
H11 C18 1_555 1_555
C19 C14 1_555 1_555
H12 C19 1_555 1_555
H13 C19 1_555 1_555
C20 C15 1_555 1_555
C21 C18 1_555 1_555
H14 C21 1_555 1_555
C22 C19 1_555 1_555
H15 C22 1_555 1_555
H16 C22 1_555 1_555
C23 C20 1_555 1_555
H17 C23 1_555 1_555
C24 C21 1_555 1_555
H18 C24 1_555 1_555
C25 C12 1_555 1_555
C26 C25 1_555 1_555
H19 C26 1_555 1_555
H20 C26 1_555 1_555
H21 C26 1_555 1_555
B1 N1 1_555 1_555
C5 C9 1_555 1_555
C5 C10 1_555 1_555
C7 C8 1_555 1_555
C12 N1 1_555 1_555
N2 B1 1_555 1_555
C16 C25 1_555 1_555
C20 C22 1_555 1_555
C23 C24 1_555 1_555

#END
