
#######################################################################
#
#                 Cambridge Crystallographic Data Centre
#                                CCDC 
#
#######################################################################
#
# If this CIF has been generated from an entry in the Cambridge 
# Structural Database, then it will include bibliographic, chemical, 
# crystal, experimental, refinement or atomic coordinate data resulting 
# from the CCDC's data processing and validation procedures.
#
#######################################################################

data_LENWOS
_chemical_name_common            'balsamiferine A'
_chemical_formula_moiety         'C20 H29 Cl1 O5'
_chemical_name_systematic        
'10-Isopropyl-3,7-dimethyl-6-oxo-11-oxatricyclo[5.3.1.0^1,5^]undec-2-en-8-yl 3-chloro-2-hydroxy-2-methylbutanoate'
_symmetry_cell_setting           orthorhombic
_symmetry_space_group_name_H-M   'P 21 21 21'
_symmetry_Int_Tables_number      19
_space_group_name_Hall           'P 2ac 2ab'
loop_
_symmetry_equiv_pos_site_id
_symmetry_equiv_pos_as_xyz
1 x,y,z
2 1/2+x,1/2-y,-z
3 -x,1/2+y,1/2-z
4 1/2-x,-y,1/2+z
_cell_length_a                   9.9580(12)
_cell_length_b                   11.1160(16)
_cell_length_c                   18.302(2)
_cell_angle_alpha                90
_cell_angle_beta                 90
_cell_angle_gamma                90
_cell_volume                     2025.91
_exptl_crystal_colour            colorless
_exptl_crystal_description       prism
_cell_formula_units_Z            4
loop_
_atom_site_label
_atom_site_type_symbol
_atom_site_fract_x
_atom_site_fract_y
_atom_site_fract_z
Cl1 Cl 0.74732(3) 0.21903(3) 0.171532(18)
O1 O 0.09396(8) 0.20418(8) 0.09090(4)
O2 O 0.15152(10) 0.02873(9) 0.24308(5)
O3 O 0.40977(8) 0.19136(8) 0.19254(5)
O4 O 0.45917(10) 0.38996(9) 0.19343(5)
O5 O 0.63108(10) 0.36202(9) 0.30642(5)
C1 C 0.11356(12) 0.08919(11) 0.05188(7)
C2 C -0.00934(12) 0.07015(12) 0.00608(7)
H1 H -0.0211 0.1030 -0.0414
C3 C -0.09958(13) 0.00220(12) 0.03944(7)
C4 C -0.04848(12) -0.04519(13) 0.11187(7)
H2 H -0.0553 -0.1340 0.1140
H3 H -0.0997 -0.0103 0.1531
C5 C 0.10063(13) -0.00410(11) 0.11403(7)
H4 H 0.1623 -0.0738 0.1056
C6 C 0.14242(12) 0.06588(11) 0.18135(6)
C7 C 0.17275(12) 0.19407(12) 0.15598(6)
C8 C 0.31989(11) 0.20480(12) 0.13015(6)
H5 H 0.3336 0.2864 0.1084
C9 C 0.35925(12) 0.11027(12) 0.07394(7)
H6 H 0.3712 0.0316 0.0985
H7 H 0.4459 0.1328 0.0512
C10 C 0.25045(12) 0.09880(10) 0.01398(6)
H8 H 0.2499 0.1774 -0.0126
C11 C 0.27972(12) 0.00149(12) -0.04449(7)
H9 H 0.2120 0.0124 -0.0843
C12 C 0.26803(14) -0.12887(12) -0.01843(7)
H10 H 0.2960 -0.1832 -0.0578
H11 H 0.1747 -0.1459 -0.0051
H12 H 0.3260 -0.1410 0.0242
C13 C 0.41833(14) 0.02152(14) -0.07882(7)
H13 H 0.4881 -0.0048 -0.0446
H14 H 0.4303 0.1072 -0.0896
H15 H 0.4252 -0.0250 -0.1242
C14 C -0.24080(14) -0.02335(13) 0.01520(8)
H16 H -0.2597 0.0211 -0.0299
H17 H -0.3037 0.0020 0.0534
H18 H -0.2512 -0.1098 0.0063
C15 C 0.13270(13) 0.28905(13) 0.21109(7)
H19 H 0.1586 0.3686 0.1929
H20 H 0.1783 0.2735 0.2576
H21 H 0.0353 0.2866 0.2185
C16 C 0.47331(12) 0.29013(12) 0.21716(6)
C17 C 0.56665(12) 0.25675(12) 0.28091(7)
C18 C 0.66991(13) 0.16285(12) 0.25443(7)
H22 H 0.6216 0.0863 0.2429
C19 C 0.77887(16) 0.13637(14) 0.30930(9)
H23 H 0.8209 0.2119 0.3248
H24 H 0.8467 0.0843 0.2869
H25 H 0.7398 0.0958 0.3518
C20 C 0.48351(15) 0.20749(15) 0.34442(7)
H26 H 0.5420 0.1942 0.3867
H27 H 0.4420 0.1312 0.3300
H28 H 0.4133 0.2655 0.3573
H29 H 0.6604(19) 0.3968(17) 0.2701(11)
loop_
_geom_bond_atom_site_label_1
_geom_bond_atom_site_label_2
_geom_bond_site_symmetry_1
_geom_bond_site_symmetry_2
Cl1 C18 1_555 1_555
O1 C1 1_555 1_555
O2 C6 1_555 1_555
O3 C8 1_555 1_555
O4 C16 1_555 1_555
O5 C17 1_555 1_555
C1 C2 1_555 1_555
C2 H1 1_555 1_555
C3 C2 1_555 1_555
C4 C3 1_555 1_555
H2 C4 1_555 1_555
H3 C4 1_555 1_555
C5 C1 1_555 1_555
H4 C5 1_555 1_555
C6 C5 1_555 1_555
C7 O1 1_555 1_555
C8 C7 1_555 1_555
H5 C8 1_555 1_555
C9 C8 1_555 1_555
H6 C9 1_555 1_555
H7 C9 1_555 1_555
C10 C1 1_555 1_555
H8 C10 1_555 1_555
C11 C10 1_555 1_555
H9 C11 1_555 1_555
C12 C11 1_555 1_555
H10 C12 1_555 1_555
H11 C12 1_555 1_555
H12 C12 1_555 1_555
C13 C11 1_555 1_555
H13 C13 1_555 1_555
H14 C13 1_555 1_555
H15 C13 1_555 1_555
C14 C3 1_555 1_555
H16 C14 1_555 1_555
H17 C14 1_555 1_555
H18 C14 1_555 1_555
C15 C7 1_555 1_555
H19 C15 1_555 1_555
H20 C15 1_555 1_555
H21 C15 1_555 1_555
C16 O3 1_555 1_555
C17 C16 1_555 1_555
C18 C17 1_555 1_555
H22 C18 1_555 1_555
C19 C18 1_555 1_555
H23 C19 1_555 1_555
H24 C19 1_555 1_555
H25 C19 1_555 1_555
C20 C17 1_555 1_555
H26 C20 1_555 1_555
H27 C20 1_555 1_555
H28 C20 1_555 1_555
H29 O5 1_555 1_555
C4 C5 1_555 1_555
C6 C7 1_555 1_555
C9 C10 1_555 1_555

#END
