
#######################################################################
#
#                 Cambridge Crystallographic Data Centre
#                                CCDC 
#
#######################################################################
#
# If this CIF has been generated from an entry in the Cambridge 
# Structural Database, then it will include bibliographic, chemical, 
# crystal, experimental, refinement or atomic coordinate data resulting 
# from the CCDC's data processing and validation procedures.
#
#######################################################################

data_LENWOT
_chemical_formula_moiety         'C84 H108 Br4 O8,1.5(C10 H8 N2)'
_chemical_name_systematic        
"5,11,17,23-tetrakis(bromoethynyl)-2,8,14,20-tetrakis(n-undecyl)-4,24:6,10:12,16:18,22-O,O'-tetramethylenecalix(4)resorcinarene sesquikis(4,4'-bipyridine)"
_symmetry_cell_setting           triclinic
_symmetry_space_group_name_H-M   'P -1'
_symmetry_Int_Tables_number      2
_space_group_name_Hall           '-P 1'
loop_
_symmetry_equiv_pos_site_id
_symmetry_equiv_pos_as_xyz
1 x,y,z
2 -x,-y,-z
_cell_length_a                   15.7371(15)
_cell_length_b                   17.9259(9)
_cell_length_c                   18.1537(18)
_cell_angle_alpha                107.566(6)
_cell_angle_beta                 100.553(9)
_cell_angle_gamma                101.075(6)
_cell_volume                     4629.61
_exptl_crystal_colour            colorless
_exptl_crystal_description       plate
_cell_formula_units_Z            2
loop_
_atom_site_label
_atom_site_type_symbol
_atom_site_fract_x
_atom_site_fract_y
_atom_site_fract_z
Br1 Br 1.26576(9) 0.48169(8) 0.33396(9)
Br2 Br 1.1232(2) 0.65229(16) -0.02291(17)
Br3 Br 0.60448(8) 0.59768(6) 0.00821(11)
Br4 Br 0.74579(7) 0.47354(5) 0.36771(6)
C1 C 0.9499(4) 0.1610(3) 0.0775(5)
C2 C 1.0103(4) 0.2245(4) 0.1418(5)
C3 C 1.0827(5) 0.2751(4) 0.1291(6)
C4 C 1.0918(4) 0.2612(4) 0.0513(6)
C5 C 1.0307(4) 0.1985(3) -0.0127(5)
C6 C 0.9612(4) 0.1504(3) 0.0020(4)
H1 H 0.9200 0.1088 -0.0411
C7 C 1.1421(5) 0.3426(5) 0.1971(6)
C8 C 1.1910(6) 0.3971(6) 0.2514(7)
C9 C 1.1502(5) 0.3762(4) 0.0201(7)
H2 H 1.1009 0.3929 0.0395
H3 H 1.2032 0.4215 0.0449
C10 C 1.0408(4) 0.1890(4) -0.0954(5)
H4 H 1.1050 0.2084 -0.0903
C11 C 0.9955(5) 0.2455(4) -0.1253(6)
C12 C 1.0387(5) 0.3258(5) -0.1068(7)
C13 C 0.9966(6) 0.3797(5) -0.1277(7)
C14 C 0.9087(5) 0.3498(5) -0.1773(7)
C15 C 0.8621(5) 0.2684(5) -0.2001(6)
C16 C 0.9064(5) 0.2191(4) -0.1718(5)
H5 H 0.8754 0.1654 -0.1843
C17 C 1.0397(6) 0.4656(5) -0.1023(7)
C18 C 1.0743(6) 0.5377(5) -0.0764(7)
C19 C 0.8131(6) 0.4375(5) -0.1651(7)
H6 H 0.8176 0.4912 -0.1681
H7 H 0.8327 0.4439 -0.1092
C20 C 0.7648(5) 0.2403(4) -0.2446(6)
H8 H 0.7562 0.2731 -0.2785
C21 C 0.7102(5) 0.2584(4) -0.1883(6)
C22 C 0.6944(5) 0.3359(4) -0.1602(7)
C23 C 0.6487(5) 0.3570(4) -0.1014(6)
C24 C 0.6156(4) 0.3001(4) -0.0704(6)
C25 C 0.6295(4) 0.2220(3) -0.0937(5)
C26 C 0.6771(4) 0.2042(4) -0.1517(5)
H9 H 0.6877 0.1531 -0.1672
C27 C 0.6376(5) 0.4376(5) -0.0716(7)
C28 C 0.6259(6) 0.5017(5) -0.0394(7)
C29 C 0.6093(6) 0.3443(4) 0.0656(6)
H10 H 0.6726 0.3681 0.0735
H11 H 0.5852 0.3855 0.0965
C30 C 0.5951(4) 0.1625(3) -0.0574(5)
H12 H 0.5414 0.1753 -0.0425
C31 C 0.6639(4) 0.1775(3) 0.0210(5)
C32 C 0.6664(5) 0.2385(4) 0.0914(5)
C33 C 0.7326(5) 0.2590(4) 0.1614(5)
C34 C 0.7962(5) 0.2143(4) 0.1610(5)
C35 C 0.7960(5) 0.1531(4) 0.0934(5)
C36 C 0.7310(4) 0.1366(3) 0.0232(4)
H13 H 0.7323 0.0973 -0.0234
C37 C 0.7368(6) 0.3261(5) 0.2311(6)
C38 C 0.7406(6) 0.3835(5) 0.2859(6)
C39 C 0.9450(6) 0.2820(5) 0.2454(5)
H14 H 0.9397 0.3192 0.2165
H15 H 0.9687 0.3141 0.3018
C40 C 0.8721(5) 0.1098(4) 0.0948(5)
H16 H 0.8924 0.1109 0.1496
C41 C 1.0106(5) 0.0991(4) -0.1527(5)
H17 H 1.0348 0.0669 -0.1241
H18 H 0.9458 0.0811 -0.1644
C42 C 1.0358(6) 0.0800(5) -0.2301(6)
H19 H 1.0999 0.1020 -0.2200
H20 H 1.0055 0.1059 -0.2628
C43 C 1.0110(7) -0.0113(6) -0.2758(7)
H21 H 1.0306 -0.0376 -0.2388
H22 H 0.9463 -0.0307 -0.2943
C44 C 1.0482(8) -0.0371(6) -0.3442(7)
H23 H 1.1122 -0.0122 -0.3276
H24 H 1.0221 -0.0174 -0.3849
C45 C 1.0313(9) -0.1318(7) -0.3820(8)
H25 H 1.0528 -0.1513 -0.3396
H26 H 0.9671 -0.1556 -0.4014
C46 C 1.0727(11) -0.1633(8) -0.4485(9)
H27 H 1.1368 -0.1385 -0.4307
H28 H 1.0487 -0.1475 -0.4929
C47 C 1.0565(11) -0.2533(9) -0.4770(9)
H29 H 0.9929 -0.2780 -0.5007
H30 H 1.0738 -0.2696 -0.4313
C48 C 1.110(2) -0.2873(14) -0.5408(17)
H31 H 1.0861 -0.2766 -0.5887
H32 H 1.1717 -0.2560 -0.5196
C49 C 1.1076(18) -0.3783(13) -0.5659(17)
H33 H 1.1347 -0.3888 -0.5188
H34 H 1.1447 -0.3890 -0.6030
C50 C 1.012(2) -0.440(2) -0.606(2)
H35 H 0.9692 -0.4236 -0.5763
H36 H 0.9904 -0.4428 -0.6606
C51 C 1.025(2) -0.525(2) -0.604(2)
H37 H 0.9685 -0.5647 -0.6183
H38 H 1.0495 -0.5061 -0.5472
H39 H 1.0653 -0.5480 -0.6309
C52 C 0.7366(6) 0.1504(5) -0.3014(6)
H40 H 0.7438 0.1164 -0.2693
H41 H 0.6734 0.1363 -0.3283
C53 C 0.7889(7) 0.1307(7) -0.3647(7)
H42 H 0.8522 0.1564 -0.3405
H43 H 0.7693 0.1520 -0.4062
C54 C 0.7739(8) 0.0376(7) -0.4024(8)
H44 H 0.7931 0.0173 -0.3601
H45 H 0.7101 0.0129 -0.4251
C55 C 0.8216(9) 0.0097(8) -0.4668(8)
H46 H 0.8852 0.0362 -0.4458
H47 H 0.7994 0.0258 -0.5115
C56 C 0.8078(9) -0.0825(8) -0.4963(9)
H48 H 0.8317 -0.0980 -0.4516
H49 H 0.7441 -0.1086 -0.5152
C57 C 0.8522(10) -0.1137(9) -0.5633(8)
H50 H 0.8321 -0.0949 -0.6066
H51 H 0.9166 -0.0915 -0.5433
C58 C 0.8313(12) -0.2030(8) -0.5945(9)
H52 H 0.7667 -0.2249 -0.6107
H53 H 0.8548 -0.2213 -0.5518
C59 C 0.8688(13) -0.2373(9) -0.6650(8)
H54 H 0.9308 -0.2380 -0.6481
H55 H 0.8634 -0.2085 -0.7023
C60 C 0.804(2) -0.3235(13) -0.6994(18)
H56 H 0.8180 -0.3555 -0.6664
H57 H 0.7422 -0.3217 -0.7050
C61 C 0.8236(18) -0.3561(14) -0.7797(13)
H58 H 0.8005 -0.3282 -0.8139
H59 H 0.8879 -0.3451 -0.7727
C62 C 0.784(2) -0.4417(15) -0.8177(18)
H60 H 0.7620 -0.4543 -0.8742
H61 H 0.7349 -0.4576 -0.7961
H62 H 0.8279 -0.4703 -0.8082
C63 C 0.5659(5) 0.0736(4) -0.1136(5)
H63 H 0.5315 0.0704 -0.1652
H64 H 0.6190 0.0557 -0.1216
C64 C 0.5128(7) 0.0190(5) -0.0849(6)
H65 H 0.4625 0.0395 -0.0724
H66 H 0.5490 0.0187 -0.0357
C65 C 0.4770(7) -0.0682(5) -0.1440(8)
H67 H 0.4233 -0.0948 -0.1333
H68 H 0.4614 -0.0679 -0.1981
C66 C 0.5430(10) -0.1120(8) -0.1370(10)
H69 H 0.5516 -0.1186 -0.0853
H70 H 0.5994 -0.0798 -0.1384
C67 C 0.5204(12) -0.1953(10) -0.2017(10)
H71 H 0.5153 -0.1884 -0.2532
H72 H 0.4624 -0.2264 -0.2023
C68 C 0.5887(10) -0.2441(6) -0.1915(9)
H73 H 0.6478 -0.2082 -0.1802
H74 H 0.5857 -0.2582 -0.1444
C69 C 0.5826(12) -0.3193(9) -0.2571(10)
H75 H 0.5659 -0.3121 -0.3082
H76 H 0.6403 -0.3316 -0.2519
C70 C 0.5185(11) -0.3831(10) -0.2540(11)
H77 H 0.4905 -0.4225 -0.3073
H78 H 0.4723 -0.3630 -0.2318
C71 C 0.5662(12) -0.4218(10) -0.2015(11)
H79 H 0.5817 -0.3893 -0.1451
H80 H 0.6189 -0.4350 -0.2170
C72 C 0.4868(13) -0.4980(10) -0.2248(12)
H81 H 0.4777 -0.5051 -0.1756
H82 H 0.4335 -0.4861 -0.2497
C73 C 0.4918(14) -0.5790(11) -0.2797(12)
H83 H 0.5488 -0.5881 -0.2616
H84 H 0.4848 -0.5784 -0.3332
H85 H 0.4448 -0.6216 -0.2792
C74 C 0.8403(4) 0.0205(3) 0.0400(4)
H86 H 0.8123 0.0169 -0.0137
H87 H 0.8917 -0.0018 0.0376
C75 C 0.7745(5) -0.0291(4) 0.0691(5)
H88 H 0.7213 -0.0092 0.0676
H89 H 0.8010 -0.0218 0.1243
C76 C 0.7474(5) -0.1194(4) 0.0193(6)
H90 H 0.7996 -0.1406 0.0238
H91 H 0.7243 -0.1269 -0.0365
C77 C 0.6751(7) -0.1671(6) 0.0474(8)
H92 H 0.6560 -0.2229 0.0111
H93 H 0.6236 -0.1449 0.0428
C78 C 0.7033(9) -0.1668(8) 0.1342(9)
H94 H 0.7460 -0.1991 0.1366
H95 H 0.7332 -0.1117 0.1699
C79 C 0.6264(9) -0.1994(10) 0.1625(8)
H96 H 0.5775 -0.1784 0.1438
H97 H 0.6079 -0.2576 0.1349
C80 C 0.6340(13) -0.1854(14) 0.2467(12)
H98 H 0.6786 -0.2109 0.2648
H99 H 0.6570 -0.1274 0.2755
C81 C 0.5546(13) -0.2131(13) 0.2696(11)
H100 H 0.5357 -0.2718 0.2463
H101 H 0.5076 -0.1928 0.2462
C82 C 0.5622(14) -0.1888(12) 0.3597(12)
H102 H 0.6176 -0.1948 0.3881
H103 H 0.5119 -0.2207 0.3704
C83 C 0.561(3) -0.0972(16) 0.383(2)
H104 H 0.6207 -0.0644 0.3900
H105 H 0.5209 -0.0906 0.3393
C84 C 0.531(3) -0.067(2) 0.459(2)
H106 H 0.5715 -0.0166 0.4953
H107 H 0.5271 -0.1065 0.4852
H108 H 0.4726 -0.0589 0.4438
O1 O 1.0057(4) 0.2378(3) 0.2197(4)
O2 O 1.1652(3) 0.3095(3) 0.0429(4)
O3 O 1.1299(3) 0.3560(3) -0.0641(5)
O4 O 0.8706(4) 0.4036(4) -0.2049(5)
O5 O 0.7233(4) 0.3933(3) -0.1941(4)
O6 O 0.5654(3) 0.3203(3) -0.0159(4)
O7 O 0.5994(3) 0.2792(3) 0.0933(4)
O8 O 0.8588(4) 0.2319(3) 0.2335(3)
C93 C 0.3744(18) -0.3169(17) 0.4332(17)
H133 H 0.3776 -0.3197 0.3818
C94 C 0.354(2) -0.2532(19) 0.4805(19)
H134 H 0.3403 -0.2141 0.4595
C95 C 0.3509(16) -0.2425(12) 0.5585(9)
C96 C 0.3704(15) -0.3024(11) 0.5819(12)
H135 H 0.3736 -0.2993 0.6344
C97 C 0.3857(16) -0.3671(13) 0.5306(13)
H136 H 0.3939 -0.4094 0.5482
C98 C 0.3343(18) -0.1654(11) 0.6119(13)
C99 C 0.362(2) -0.0948(12) 0.6075(16)
H137 H 0.3880 -0.0889 0.5670
C100 C 0.351(3) -0.027(2) 0.665(2)
H138 H 0.3841 0.0242 0.6701
C101 C 0.2728(14) -0.1015(12) 0.7128(13)
H139 H 0.2385 -0.1090 0.7479
C102 C 0.2917(12) -0.1682(11) 0.6663(10)
H140 H 0.2736 -0.2173 0.6737
N1 N 0.3899(15) -0.3743(11) 0.4583(11)
N2 N 0.2975(15) -0.0303(11) 0.7125(12)
C104 C 0.6770(10) 0.6491(8) 0.4923(8)
H144 H 0.6278 0.6262 0.4480
C105 C 0.6716(10) 0.7151(8) 0.5533(8)
H145 H 0.6198 0.7330 0.5515
C106 C 0.7458(5) 0.7528(4) 0.6164(4)
C107 C 0.8132(7) 0.7161(5) 0.6158(5)
H146 H 0.8640 0.7371 0.6587
C108 C 0.8075(8) 0.6462(6) 0.5509(6)
H147 H 0.8544 0.6217 0.5538
C109 C 0.7498(5) 0.8268(4) 0.6842(4)
C110 C 0.6899(7) 0.8731(4) 0.6782(5)
H148 H 0.6444 0.8587 0.6319
C111 C 0.6999(8) 0.9422(5) 0.7441(7)
H149 H 0.6597 0.9733 0.7394
C112 C 0.8154(6) 0.9219(5) 0.8161(6)
H150 H 0.8599 0.9379 0.8636
C113 C 0.8126(6) 0.8515(5) 0.7552(5)
H151 H 0.8533 0.8215 0.7629
N3 N 0.7435(6) 0.6153(4) 0.4898(5)
N4 N 0.7607(6) 0.9666(4) 0.8115(5)
Br5? Br 1.1271(2) 0.63634(16) -0.05822(19)
H109? H 0.9986 -0.2790 -0.4724
H110? H 1.1026 -0.2689 -0.4462
C85? C 1.060(3) -0.2771(19) -0.5630(16)
H111? H 1.1189 -0.2569 -0.5686
H112? H 1.0162 -0.2592 -0.5943
C86? C 1.033(2) -0.3709(18) -0.5854(18)
H113? H 1.0701 -0.3855 -0.5456
H114? H 0.9712 -0.3896 -0.5858
C87? C 1.047(3) -0.4114(19) -0.666(2)
H115? H 1.1101 -0.3975 -0.6637
H116? H 1.0157 -0.3919 -0.7045
C88? C 1.012(2) -0.5027(18) -0.693(2)
H117? H 1.0278 -0.5277 -0.7409
H118? H 0.9476 -0.5169 -0.7023
H119? H 1.0374 -0.5213 -0.6516
H120? H 0.9335 -0.2165 -0.6471
H121? H 0.8482 -0.2153 -0.7055
C89? C 0.8474(19) -0.3299(13) -0.7057(18)
H122? H 0.8928 -0.3422 -0.7336
H123? H 0.8512 -0.3543 -0.6646
C90? C 0.7566(18) -0.3684(15) -0.7642(17)
H124? H 0.7117 -0.3618 -0.7343
H125? H 0.7500 -0.3378 -0.7998
H126? H 0.6008 -0.2186 0.3794
H127? H 0.5951 -0.1320 0.3832
C91? C 0.485(2) -0.197(2) 0.396(3)
H128? H 0.4394 -0.1778 0.3693
H129? H 0.5051 -0.1612 0.4515
C92? C 0.438(3) -0.282(2) 0.395(3)
H130? H 0.4686 -0.3204 0.3715
H131? H 0.3770 -0.2975 0.3650
H132? H 0.4405 -0.2794 0.4493
C103? C 0.735(3) -0.456(2) -0.815(3)
H141? H 0.6769 -0.4720 -0.8517
H142? H 0.7343 -0.4887 -0.7812
H143? H 0.7792 -0.4650 -0.8441
loop_
_geom_bond_atom_site_label_1
_geom_bond_atom_site_label_2
_geom_bond_site_symmetry_1
_geom_bond_site_symmetry_2
Br1 C8 1_555 1_555
Br2 C18 1_555 1_555
Br3 C28 1_555 1_555
Br4 C38 1_555 1_555
C1 C2 1_555 1_555
C2 C3 1_555 1_555
C3 C4 1_555 1_555
C4 C5 1_555 1_555
C5 C6 1_555 1_555
C6 C1 1_555 1_555
H1 C6 1_555 1_555
C7 C3 1_555 1_555
C8 C7 1_555 1_555
C9 H2 1_555 1_555
H3 C9 1_555 1_555
C10 C5 1_555 1_555
H4 C10 1_555 1_555
C11 C10 1_555 1_555
C12 C11 1_555 1_555
C13 C12 1_555 1_555
C14 C13 1_555 1_555
C15 C14 1_555 1_555
C16 C11 1_555 1_555
H5 C16 1_555 1_555
C17 C13 1_555 1_555
C18 C17 1_555 1_555
C19 H6 1_555 1_555
H7 C19 1_555 1_555
C20 C15 1_555 1_555
H8 C20 1_555 1_555
C21 C20 1_555 1_555
C22 C21 1_555 1_555
C23 C22 1_555 1_555
C24 C23 1_555 1_555
C25 C24 1_555 1_555
C26 C21 1_555 1_555
H9 C26 1_555 1_555
C27 C23 1_555 1_555
C28 C27 1_555 1_555
C29 H10 1_555 1_555
H11 C29 1_555 1_555
C30 C25 1_555 1_555
H12 C30 1_555 1_555
C31 C30 1_555 1_555
C32 C31 1_555 1_555
C33 C32 1_555 1_555
C34 C33 1_555 1_555
C35 C34 1_555 1_555
C36 C31 1_555 1_555
H13 C36 1_555 1_555
C37 C33 1_555 1_555
C38 C37 1_555 1_555
C39 H14 1_555 1_555
H15 C39 1_555 1_555
C40 C1 1_555 1_555
H16 C40 1_555 1_555
C41 C10 1_555 1_555
H17 C41 1_555 1_555
H18 C41 1_555 1_555
C42 C41 1_555 1_555
H19 C42 1_555 1_555
H20 C42 1_555 1_555
C43 C42 1_555 1_555
H21 C43 1_555 1_555
H22 C43 1_555 1_555
C44 C43 1_555 1_555
H23 C44 1_555 1_555
H24 C44 1_555 1_555
C45 C44 1_555 1_555
H25 C45 1_555 1_555
H26 C45 1_555 1_555
C46 C45 1_555 1_555
H27 C46 1_555 1_555
H28 C46 1_555 1_555
C47 C46 1_555 1_555
H29 C47 1_555 1_555
H30 C47 1_555 1_555
C48 C47 1_555 1_555
H31 C48 1_555 1_555
H32 C48 1_555 1_555
C49 C48 1_555 1_555
H33 C49 1_555 1_555
H34 C49 1_555 1_555
C50 C49 1_555 1_555
H35 C50 1_555 1_555
H36 C50 1_555 1_555
C51 C50 1_555 1_555
H37 C51 1_555 1_555
H38 C51 1_555 1_555
H39 C51 1_555 1_555
C52 C20 1_555 1_555
H40 C52 1_555 1_555
H41 C52 1_555 1_555
C53 C52 1_555 1_555
H42 C53 1_555 1_555
H43 C53 1_555 1_555
C54 C53 1_555 1_555
H44 C54 1_555 1_555
H45 C54 1_555 1_555
C55 C54 1_555 1_555
H46 C55 1_555 1_555
H47 C55 1_555 1_555
C56 C55 1_555 1_555
H48 C56 1_555 1_555
H49 C56 1_555 1_555
C57 C56 1_555 1_555
H50 C57 1_555 1_555
H51 C57 1_555 1_555
C58 C57 1_555 1_555
H52 C58 1_555 1_555
H53 C58 1_555 1_555
C59 C58 1_555 1_555
H54 C59 1_555 1_555
H55 C59 1_555 1_555
C60 C59 1_555 1_555
H56 C60 1_555 1_555
H57 C60 1_555 1_555
C61 C60 1_555 1_555
H58 C61 1_555 1_555
H59 C61 1_555 1_555
C62 C61 1_555 1_555
H60 C62 1_555 1_555
H61 C62 1_555 1_555
H62 C62 1_555 1_555
C63 C30 1_555 1_555
H63 C63 1_555 1_555
H64 C63 1_555 1_555
C64 C63 1_555 1_555
H65 C64 1_555 1_555
H66 C64 1_555 1_555
C65 C64 1_555 1_555
H67 C65 1_555 1_555
H68 C65 1_555 1_555
C66 C65 1_555 1_555
H69 C66 1_555 1_555
H70 C66 1_555 1_555
C67 C66 1_555 1_555
H71 C67 1_555 1_555
H72 C67 1_555 1_555
C68 C67 1_555 1_555
H73 C68 1_555 1_555
H74 C68 1_555 1_555
C69 C68 1_555 1_555
H75 C69 1_555 1_555
H76 C69 1_555 1_555
C70 C69 1_555 1_555
H77 C70 1_555 1_555
H78 C70 1_555 1_555
C71 C70 1_555 1_555
H79 C71 1_555 1_555
H80 C71 1_555 1_555
C72 C71 1_555 1_555
H81 C72 1_555 1_555
H82 C72 1_555 1_555
C73 C72 1_555 1_555
H83 C73 1_555 1_555
H84 C73 1_555 1_555
H85 C73 1_555 1_555
C74 C40 1_555 1_555
H86 C74 1_555 1_555
H87 C74 1_555 1_555
C75 C74 1_555 1_555
H88 C75 1_555 1_555
H89 C75 1_555 1_555
C76 C75 1_555 1_555
H90 C76 1_555 1_555
H91 C76 1_555 1_555
C77 C76 1_555 1_555
H92 C77 1_555 1_555
H93 C77 1_555 1_555
C78 C77 1_555 1_555
H94 C78 1_555 1_555
H95 C78 1_555 1_555
C79 C78 1_555 1_555
H96 C79 1_555 1_555
H97 C79 1_555 1_555
C80 C79 1_555 1_555
H98 C80 1_555 1_555
H99 C80 1_555 1_555
C81 C80 1_555 1_555
H100 C81 1_555 1_555
H101 C81 1_555 1_555
C82 C81 1_555 1_555
H102 C82 1_555 1_555
H103 C82 1_555 1_555
C83 C82 1_555 1_555
H104 C83 1_555 1_555
H105 C83 1_555 1_555
C84 C83 1_555 1_555
H106 C84 1_555 1_555
H107 C84 1_555 1_555
H108 C84 1_555 1_555
O1 C2 1_555 1_555
O2 C4 1_555 1_555
O3 C9 1_555 1_555
O4 C14 1_555 1_555
O5 C19 1_555 1_555
O6 C24 1_555 1_555
O7 C29 1_555 1_555
O8 C34 1_555 1_555
C93 H133 1_555 1_555
C94 C93 1_555 1_555
H134 C94 1_555 1_555
C95 C94 1_555 1_555
C96 C95 1_555 1_555
H135 C96 1_555 1_555
C97 C96 1_555 1_555
H136 C97 1_555 1_555
C98 C95 1_555 1_555
C99 C98 1_555 1_555
H137 C99 1_555 1_555
C100 C99 1_555 1_555
H138 C100 1_555 1_555
C101 H139 1_555 1_555
C102 C98 1_555 1_555
H140 C102 1_555 1_555
N1 C93 1_555 1_555
N2 C100 1_555 1_555
C104 H144 1_555 1_555
C105 C104 1_555 1_555
H145 C105 1_555 1_555
C106 C105 1_555 1_555
C107 C106 1_555 1_555
H146 C107 1_555 1_555
C108 C107 1_555 1_555
H147 C108 1_555 1_555
C109 C106 1_555 1_555
C110 C109 1_555 1_555
H148 C110 1_555 1_555
C111 C110 1_555 1_555
H149 C111 1_555 1_555
C112 H150 1_555 1_555
C113 C109 1_555 1_555
H151 C113 1_555 1_555
N3 C104 1_555 1_555
N4 C111 1_555 1_555
C9 O2 1_555 1_555
C12 O3 1_555 1_555
C15 C16 1_555 1_555
C19 O4 1_555 1_555
C22 O5 1_555 1_555
C25 C26 1_555 1_555
C29 O6 1_555 1_555
C32 O7 1_555 1_555
C35 C36 1_555 1_555
C35 C40 1_555 1_555
C39 O1 1_555 1_555
C39 O8 1_555 1_555
C97 N1 1_555 1_555
C101 C102 1_555 1_555
C101 N2 1_555 1_555
C108 N3 1_555 1_555
C112 C113 1_555 1_555
C112 N4 1_555 1_555

#END
