
#######################################################################
#
#                 Cambridge Crystallographic Data Centre
#                                CCDC 
#
#######################################################################
#
# If this CIF has been generated from an entry in the Cambridge 
# Structural Database, then it will include bibliographic, chemical, 
# crystal, experimental, refinement or atomic coordinate data resulting 
# from the CCDC's data processing and validation procedures.
#
#######################################################################

data_LENWUZ
_chemical_formula_moiety         'C68 H76 I4 O8,2(C6 H12 N2),3.5(C3 H6 O1)'
_chemical_name_systematic        
"5,11,17,23-tetrakis(iodoethynyl)-2,8,14,20-tetrakis(n-hexyl)-4,24:6,10:12,16:18,22-O,O'-tetramethylenecalix(4)resorcinarene bis(1,4-diazabicyclo(2.2.2)octane) acetone solvate"
_symmetry_cell_setting           orthorhombic
_symmetry_space_group_name_H-M   'P b c a'
_symmetry_Int_Tables_number      61
_space_group_name_Hall           '-P 2ac 2ab'
loop_
_symmetry_equiv_pos_site_id
_symmetry_equiv_pos_as_xyz
1 x,y,z
2 1/2-x,-y,1/2+z
3 1/2+x,1/2-y,-z
4 -x,1/2+y,1/2-z
5 -x,-y,-z
6 1/2+x,y,1/2-z
7 1/2-x,1/2+y,z
8 x,1/2-y,1/2+z
_cell_length_a                   29.6773(2)
_cell_length_b                   20.08702(17)
_cell_length_c                   30.6125(3)
_cell_angle_alpha                90
_cell_angle_beta                 90
_cell_angle_gamma                90
_cell_volume                     18249
_exptl_crystal_colour            colorless
_exptl_crystal_description       plate
_cell_formula_units_Z            8
loop_
_atom_site_label
_atom_site_type_symbol
_atom_site_fract_x
_atom_site_fract_y
_atom_site_fract_z
I1 I 0.45803(2) 0.62115(2) 0.45648(2)
I2 I 0.70206(2) 0.67069(2) 0.21968(2)
I3 I 0.95239(2) 0.85119(2) 0.36021(2)
I4 I 0.73931(2) 0.67841(2) 0.60548(2)
O1 O 0.50623(13) 0.82819(18) 0.36715(14)
O2 O 0.57739(13) 0.83022(18) 0.30325(13)
O3 O 0.72894(12) 0.90087(18) 0.27741(11)
O4 O 0.80569(12) 0.96154(19) 0.31277(11)
O5 O 0.83269(11) 0.96466(19) 0.46714(12)
O6 O 0.77147(11) 0.91078(17) 0.52892(11)
O7 O 0.61841(12) 0.85292(17) 0.55924(12)
O8 O 0.53145(13) 0.84457(18) 0.52159(13)
C1 C 0.52271(16) 0.8314(3) 0.44411(19)
C2 C 0.52752(16) 0.8583(3) 0.40189(18)
C3 C 0.55061(16) 0.9187(2) 0.39528(17)
C4 C 0.56877(15) 0.9505(2) 0.43154(17)
H1 H 0.5849 0.9896 0.4273
C5 C 0.56391(15) 0.9264(2) 0.47427(16)
C6 C 0.54025(15) 0.8668(2) 0.47997(17)
C7 C 0.55491(16) 0.9478(2) 0.34945(17)
H2 H 0.5338 0.9233 0.3308
C8 C 0.60190(17) 0.9361(2) 0.33111(16)
C9 C 0.61167(18) 0.8767(2) 0.30913(17)
C10 C 0.65403(18) 0.8634(3) 0.29197(16)
C11 C 0.68778(17) 0.9122(2) 0.29630(15)
C12 C 0.67965(16) 0.9716(2) 0.31797(15)
C13 C 0.63688(16) 0.9826(2) 0.33531(15)
H3 H 0.6313 1.0221 0.3502
C14 C 0.71806(16) 1.0224(2) 0.32219(15)
H4 H 0.7358 1.0223 0.2956
C15 C 0.74821(16) 1.0040(2) 0.36071(15)
C16 C 0.79024(16) 0.9737(2) 0.35458(15)
C17 C 0.81846(16) 0.9594(3) 0.39025(17)
C18 C 0.80393(16) 0.9759(2) 0.43254(16)
C19 C 0.76233(14) 1.0070(2) 0.43955(15)
C20 C 0.73511(14) 1.0188(2) 0.40337(15)
H5 H 0.7068 1.0375 0.4078
C21 C 0.74774(16) 1.0296(2) 0.48478(15)
H6 H 0.7737 1.0298 0.5040
C22 C 0.71232(16) 0.9821(2) 0.50297(14)
C23 C 0.72593(16) 0.9238(2) 0.52440(15)
C24 C 0.69504(17) 0.8795(2) 0.54276(14)
C25 C 0.64876(16) 0.8945(2) 0.53920(15)
C26 C 0.63338(15) 0.9514(2) 0.51733(14)
C27 C 0.66597(16) 0.9938(2) 0.49951(15)
H7 H 0.6564 1.0317 0.4847
C28 C 0.58300(16) 0.9639(2) 0.51336(16)
H8 H 0.5680 0.9489 0.5398
C29 C 0.5272(2) 0.7691(3) 0.3497(2)
H9 H 0.5101 0.7540 0.3246
H10 H 0.5262 0.7343 0.3716
C30 C 0.57539(19) 0.7801(3) 0.3362(2)
H11 H 0.5931 0.7937 0.3613
H12 H 0.5880 0.7388 0.3251
C31 C 0.75945(18) 0.8615(3) 0.30327(18)
H13 H 0.7603 0.8161 0.2925
H14 H 0.7497 0.8607 0.3335
C32 C 0.80550(19) 0.8929(3) 0.29980(18)
H15 H 0.8264 0.8684 0.3180
H16 H 0.8159 0.8896 0.2698
C33 C 0.83480(18) 0.8962(3) 0.48125(19)
H17 H 0.8554 0.8926 0.5057
H18 H 0.8465 0.8690 0.4576
C34 C 0.78935(17) 0.8700(3) 0.49473(17)
H19 H 0.7691 0.8704 0.4699
H20 H 0.7922 0.8245 0.5049
C35 C 0.60599(18) 0.7962(3) 0.53333(19)
H21 H 0.6213 0.7567 0.5440
H22 H 0.6147 0.8032 0.5031
C36 C 0.55592(19) 0.7869(3) 0.5364(2)
H23 H 0.5472 0.7487 0.5190
H24 H 0.5479 0.7778 0.5666
C37 C 0.49983(17) 0.7692(3) 0.44998(19)
C38 C 0.48265(18) 0.7162(3) 0.4535(2)
C39 C 0.66463(19) 0.8021(3) 0.27003(17)
C40 C 0.67797(19) 0.7525(3) 0.25223(19)
C41 C 0.86153(18) 0.9299(3) 0.38271(18)
C42 C 0.89696(19) 0.9040(3) 0.3752(2)
C43 C 0.70958(17) 0.8192(2) 0.56369(16)
C44 C 0.72119(17) 0.7687(2) 0.58006(16)
C45 C 0.54103(17) 1.0221(3) 0.34765(19)
H25 H 0.5613 1.0476 0.3660
H26 H 0.5444 1.0380 0.3179
C46 C 0.49215(19) 1.0344(3) 0.3628(2)
H27 H 0.4902 1.0245 0.3938
H28 H 0.4854 1.0813 0.3591
C47 C 0.4563(2) 0.9940(4) 0.3389(3)
H29 H 0.4608 0.9473 0.3457
H30 H 0.4270 1.0065 0.3502
C48 C 0.4556(3) 1.0018(5) 0.2903(3)
H31 H 0.4854 0.9923 0.2789
H32 H 0.4486 1.0477 0.2833
C49 C 0.4210(4) 0.9557(6) 0.2674(4)
H33 H 0.3911 0.9656 0.2786
H34 H 0.4209 0.9654 0.2364
C50 C 0.4303(7) 0.8836(7) 0.2738(5)
H35 H 0.4563 0.8712 0.2570
H36 H 0.4048 0.8581 0.2644
H37 H 0.4360 0.8751 0.3042
C51 C 0.70271(16) 1.0951(2) 0.32475(16)
H38 H 0.6834 1.1004 0.3501
H39 H 0.7290 1.1231 0.3291
C52 C 0.6776(2) 1.1196(3) 0.28471(19)
H40 H 0.6515 1.0914 0.2798
H41 H 0.6971 1.1159 0.2594
C53 C 0.6622(3) 1.1913(3) 0.2894(3)
H42 H 0.6389 1.1928 0.3116
H43 H 0.6874 1.2173 0.3002
C54 C 0.6446(4) 1.2243(5) 0.2494(4)
H44 H 0.6688 1.2270 0.2282
H45 H 0.6359 1.2694 0.2568
C55 C 0.6050(4) 1.1901(7) 0.2283(5)
H46 H 0.6137 1.1460 0.2187
H47 H 0.5953 1.2153 0.2029
C56 C 0.5663(6) 1.1849(9) 0.2611(6)
H48 H 0.5397 1.1695 0.2464
H49 H 0.5606 1.2279 0.2736
H50 H 0.5743 1.1541 0.2837
C57 C 0.73251(17) 1.1024(2) 0.48573(16)
H51 H 0.7191 1.1115 0.5140
H52 H 0.7093 1.1085 0.4638
C58 C 0.77014(19) 1.1535(3) 0.47749(17)
H53 H 0.7958 1.1413 0.4954
H54 H 0.7596 1.1965 0.4876
C59 C 0.7869(3) 1.1616(3) 0.4296(2)
H55 H 0.8026 1.1213 0.4210
H56 H 0.7610 1.1667 0.4106
C60 C 0.8184(3) 1.2210(4) 0.4228(3)
H57 H 0.8441 1.2159 0.4420
H58 H 0.8294 1.2199 0.3930
C61 C 0.7980(3) 1.2873(4) 0.4309(3)
H59 H 0.7916 1.2913 0.4619
H60 H 0.7694 1.2895 0.4155
C62 C 0.8275(2) 1.3479(3) 0.4166(2)
H61 H 0.8314 1.3472 0.3854
H62 H 0.8564 1.3453 0.4305
H63 H 0.8128 1.3886 0.4249
C63 C 0.57120(16) 1.0389(2) 0.51178(17)
H64 H 0.5851 1.0584 0.4861
H65 H 0.5388 1.0437 0.5088
C64 C 0.58654(17) 1.0777(3) 0.55206(17)
H66 H 0.5613 1.0828 0.5719
H67 H 0.6097 1.0525 0.5671
C65 C 0.60500(19) 1.1464(3) 0.54052(18)
H68 H 0.5824 1.1700 0.5236
H69 H 0.6313 1.1407 0.5220
C66 C 0.61822(19) 1.1896(3) 0.57963(18)
H70 H 0.5914 1.2011 0.5960
H71 H 0.6379 1.1642 0.5987
C67 C 0.6420(2) 1.2527(3) 0.5657(2)
H72 H 0.6237 1.2748 0.5438
H73 H 0.6704 1.2408 0.5521
C68 C 0.6513(3) 1.3015(3) 0.6025(3)
H74 H 0.6667 1.3397 0.5912
H75 H 0.6698 1.2803 0.6243
H76 H 0.6233 1.3151 0.6155
O9 O 0.62674(14) 1.1111(2) 0.41582(13)
C69 C 0.6107(2) 1.1659(3) 0.42032(18)
C70 C 0.5605(2) 1.1765(4) 0.4217(3)
H77 H 0.5514 1.2026 0.3970
H78 H 0.5526 1.1996 0.4481
H79 H 0.5455 1.1342 0.4210
C71 C 0.6402(3) 1.2258(3) 0.4248(3)
H80 H 0.6397 1.2410 0.4545
H81 H 0.6293 1.2605 0.4060
H82 H 0.6705 1.2144 0.4167
O10 O 0.9561(3) 1.1061(7) 0.3128(4)
C72 C 0.9227(4) 1.0964(5) 0.3342(4)
C73 C 0.9221(5) 1.0897(7) 0.3837(4)
H83 H 0.9010 1.1208 0.3958
H84 H 0.9517 1.0987 0.3950
H85 H 0.9134 1.0452 0.3915
C74 C 0.8783(4) 1.0955(6) 0.3138(4)
H86 H 0.8655 1.0518 0.3164
H87 H 0.8811 1.1069 0.2834
H88 H 0.8591 1.1272 0.3280
O11 O 0.4720(2) 1.2636(4) 0.3494(2)
C75 C 0.4387(4) 1.2459(5) 0.3300(3)
C76 C 0.3919(4) 1.2538(7) 0.3520(4)
H89 H 0.3818 1.2112 0.3624
H90 H 0.3707 1.2707 0.3310
H91 H 0.3942 1.2842 0.3760
C77 C 0.4402(6) 1.2161(9) 0.2856(5)
H92 H 0.4707 1.2164 0.2751
H93 H 0.4215 1.2415 0.2662
H94 H 0.4295 1.1710 0.2869
O12 O 0.6312(4) 0.9963(8) 0.1861(4)
C78 C 0.5962(5) 0.9857(8) 0.1946(4)
C79 C 0.5785(9) 0.9159(10) 0.2019(7)
H95 H 0.5555 0.9063 0.1807
H96 H 0.5660 0.9126 0.2307
H97 H 0.6027 0.8846 0.1989
C80 C 0.5564(9) 1.0341(14) 0.1954(10)
H98 H 0.5470 1.0413 0.2250
H99 H 0.5318 1.0157 0.1790
H100 H 0.5653 1.0758 0.1826
N1 N 0.42948(17) 0.4953(3) 0.45607(18)
N2 N 0.40532(19) 0.3733(3) 0.4548(2)
C81 C 0.3845(2) 0.4880(3) 0.4353(2)
H101 H 0.3848 0.5080 0.4065
H102 H 0.3619 0.5107 0.4527
C82 C 0.3726(2) 0.4136(4) 0.4316(2)
H103 H 0.3429 0.4060 0.4438
H104 H 0.3720 0.4007 0.4011
C83 C 0.4620(2) 0.4553(3) 0.4300(2)
H105 H 0.4923 0.4620 0.4411
H106 H 0.4614 0.4696 0.3997
C84 C 0.4494(2) 0.3812(3) 0.4330(3)
H107 H 0.4481 0.3622 0.4039
H108 H 0.4723 0.3575 0.4495
C85 C 0.4278(2) 0.4698(3) 0.5004(2)
H109 H 0.4086 0.4979 0.5182
H110 H 0.4578 0.4699 0.5130
C86 C 0.4089(2) 0.3974(3) 0.4997(2)
H111 H 0.4288 0.3684 0.5161
H112 H 0.3795 0.3965 0.5134
N3 N 0.77346(15) 0.4429(2) 0.67588(13)
N4 N 0.75999(16) 0.5547(2) 0.63707(14)
C87 C 0.81398(18) 0.4628(3) 0.65107(17)
H113 H 0.8220 0.4278 0.6307
H114 H 0.8390 0.4689 0.6710
C88 C 0.80520(19) 0.5287(3) 0.62566(18)
H115 H 0.8280 0.5612 0.6332
H116 H 0.8069 0.5204 0.5945
C89 C 0.7620(2) 0.4945(3) 0.70761(17)
H117 H 0.7853 0.4971 0.7297
H118 H 0.7339 0.4830 0.7220
C90 C 0.7569(2) 0.5632(3) 0.68475(17)
H119 H 0.7281 0.5827 0.6923
H120 H 0.7805 0.5929 0.6947
C91 C 0.73549(18) 0.4368(3) 0.64424(18)
H121 H 0.7087 0.4211 0.6593
H122 H 0.7432 0.4047 0.6218
C92 C 0.7259(2) 0.5057(3) 0.62295(18)
H123 H 0.7266 0.5015 0.5914
H124 H 0.6961 0.5209 0.6314
I5? I 0.96578(13) 0.8849(3) 0.3776(2)
loop_
_geom_bond_atom_site_label_1
_geom_bond_atom_site_label_2
_geom_bond_site_symmetry_1
_geom_bond_site_symmetry_2
I1 C38 1_555 1_555
I2 C40 1_555 1_555
I3 C42 1_555 1_555
I4 C44 1_555 1_555
O1 C2 1_555 1_555
O2 C9 1_555 1_555
O3 C11 1_555 1_555
O4 C16 1_555 1_555
O5 C18 1_555 1_555
O6 C23 1_555 1_555
O7 C25 1_555 1_555
O8 C6 1_555 1_555
C1 C2 1_555 1_555
C2 C3 1_555 1_555
C3 C4 1_555 1_555
C4 H1 1_555 1_555
C5 C4 1_555 1_555
C6 C1 1_555 1_555
C7 C3 1_555 1_555
H2 C7 1_555 1_555
C8 C7 1_555 1_555
C9 C8 1_555 1_555
C10 C9 1_555 1_555
C11 C10 1_555 1_555
C12 C11 1_555 1_555
C13 C8 1_555 1_555
H3 C13 1_555 1_555
C14 C12 1_555 1_555
H4 C14 1_555 1_555
C15 C14 1_555 1_555
C16 C15 1_555 1_555
C17 C16 1_555 1_555
C18 C17 1_555 1_555
C19 C18 1_555 1_555
C20 C15 1_555 1_555
H5 C20 1_555 1_555
C21 C19 1_555 1_555
H6 C21 1_555 1_555
C22 C21 1_555 1_555
C23 C22 1_555 1_555
C24 C23 1_555 1_555
C25 C24 1_555 1_555
C26 C25 1_555 1_555
C27 C22 1_555 1_555
H7 C27 1_555 1_555
C28 C5 1_555 1_555
H8 C28 1_555 1_555
C29 O1 1_555 1_555
H9 C29 1_555 1_555
H10 C29 1_555 1_555
C30 O2 1_555 1_555
H11 C30 1_555 1_555
H12 C30 1_555 1_555
C31 O3 1_555 1_555
H13 C31 1_555 1_555
H14 C31 1_555 1_555
C32 O4 1_555 1_555
H15 C32 1_555 1_555
H16 C32 1_555 1_555
C33 O5 1_555 1_555
H17 C33 1_555 1_555
H18 C33 1_555 1_555
C34 O6 1_555 1_555
H19 C34 1_555 1_555
H20 C34 1_555 1_555
C35 O7 1_555 1_555
H21 C35 1_555 1_555
H22 C35 1_555 1_555
C36 O8 1_555 1_555
H23 C36 1_555 1_555
H24 C36 1_555 1_555
C37 C1 1_555 1_555
C38 C37 1_555 1_555
C39 C10 1_555 1_555
C40 C39 1_555 1_555
C41 C17 1_555 1_555
C42 C41 1_555 1_555
C43 C24 1_555 1_555
C44 C43 1_555 1_555
C45 C7 1_555 1_555
H25 C45 1_555 1_555
H26 C45 1_555 1_555
C46 C45 1_555 1_555
H27 C46 1_555 1_555
H28 C46 1_555 1_555
C47 C46 1_555 1_555
H29 C47 1_555 1_555
H30 C47 1_555 1_555
C48 C47 1_555 1_555
H31 C48 1_555 1_555
H32 C48 1_555 1_555
C49 C48 1_555 1_555
H33 C49 1_555 1_555
H34 C49 1_555 1_555
C50 C49 1_555 1_555
H35 C50 1_555 1_555
H36 C50 1_555 1_555
H37 C50 1_555 1_555
C51 C14 1_555 1_555
H38 C51 1_555 1_555
H39 C51 1_555 1_555
C52 C51 1_555 1_555
H40 C52 1_555 1_555
H41 C52 1_555 1_555
C53 C52 1_555 1_555
H42 C53 1_555 1_555
H43 C53 1_555 1_555
C54 C53 1_555 1_555
H44 C54 1_555 1_555
H45 C54 1_555 1_555
C55 C54 1_555 1_555
H46 C55 1_555 1_555
H47 C55 1_555 1_555
C56 C55 1_555 1_555
H48 C56 1_555 1_555
H49 C56 1_555 1_555
H50 C56 1_555 1_555
C57 C21 1_555 1_555
H51 C57 1_555 1_555
H52 C57 1_555 1_555
C58 C57 1_555 1_555
H53 C58 1_555 1_555
H54 C58 1_555 1_555
C59 C58 1_555 1_555
H55 C59 1_555 1_555
H56 C59 1_555 1_555
C60 C59 1_555 1_555
H57 C60 1_555 1_555
H58 C60 1_555 1_555
C61 C60 1_555 1_555
H59 C61 1_555 1_555
H60 C61 1_555 1_555
C62 C61 1_555 1_555
H61 C62 1_555 1_555
H62 C62 1_555 1_555
H63 C62 1_555 1_555
C63 C28 1_555 1_555
H64 C63 1_555 1_555
H65 C63 1_555 1_555
C64 C63 1_555 1_555
H66 C64 1_555 1_555
H67 C64 1_555 1_555
C65 C64 1_555 1_555
H68 C65 1_555 1_555
H69 C65 1_555 1_555
C66 C65 1_555 1_555
H70 C66 1_555 1_555
H71 C66 1_555 1_555
C67 C66 1_555 1_555
H72 C67 1_555 1_555
H73 C67 1_555 1_555
C68 C67 1_555 1_555
H74 C68 1_555 1_555
H75 C68 1_555 1_555
H76 C68 1_555 1_555
O9 C69 1_555 1_555
C69 C70 1_555 1_555
C70 H77 1_555 1_555
H78 C70 1_555 1_555
H79 C70 1_555 1_555
C71 C69 1_555 1_555
H80 C71 1_555 1_555
H81 C71 1_555 1_555
H82 C71 1_555 1_555
O10 C72 1_555 1_555
C72 C73 1_555 1_555
C73 H83 1_555 1_555
H84 C73 1_555 1_555
H85 C73 1_555 1_555
C74 C72 1_555 1_555
H86 C74 1_555 1_555
H87 C74 1_555 1_555
H88 C74 1_555 1_555
O11 C75 1_555 1_555
C75 C76 1_555 1_555
C76 H89 1_555 1_555
H90 C76 1_555 1_555
H91 C76 1_555 1_555
C77 C75 1_555 1_555
H92 C77 1_555 1_555
H93 C77 1_555 1_555
H94 C77 1_555 1_555
O12 C78 1_555 1_555
C78 C79 1_555 1_555
C79 H95 1_555 1_555
H96 C79 1_555 1_555
H97 C79 1_555 1_555
C80 C78 1_555 1_555
H98 C80 1_555 1_555
H99 C80 1_555 1_555
H100 C80 1_555 1_555
N1 C81 1_555 1_555
N2 C82 1_555 1_555
C81 H101 1_555 1_555
H102 C81 1_555 1_555
C82 C81 1_555 1_555
H103 C82 1_555 1_555
H104 C82 1_555 1_555
C83 N1 1_555 1_555
H105 C83 1_555 1_555
H106 C83 1_555 1_555
C84 N2 1_555 1_555
H107 C84 1_555 1_555
H108 C84 1_555 1_555
C85 N1 1_555 1_555
H109 C85 1_555 1_555
H110 C85 1_555 1_555
C86 N2 1_555 1_555
H111 C86 1_555 1_555
H112 C86 1_555 1_555
N3 C87 1_555 1_555
N4 C88 1_555 1_555
C87 H113 1_555 1_555
H114 C87 1_555 1_555
C88 C87 1_555 1_555
H115 C88 1_555 1_555
H116 C88 1_555 1_555
C89 N3 1_555 1_555
H117 C89 1_555 1_555
H118 C89 1_555 1_555
C90 N4 1_555 1_555
H119 C90 1_555 1_555
H120 C90 1_555 1_555
C91 N3 1_555 1_555
H121 C91 1_555 1_555
H122 C91 1_555 1_555
C92 N4 1_555 1_555
H123 C92 1_555 1_555
H124 C92 1_555 1_555
C5 C6 1_555 1_555
C12 C13 1_555 1_555
C19 C20 1_555 1_555
C26 C27 1_555 1_555
C26 C28 1_555 1_555
C29 C30 1_555 1_555
C31 C32 1_555 1_555
C33 C34 1_555 1_555
C35 C36 1_555 1_555
C83 C84 1_555 1_555
C85 C86 1_555 1_555
C89 C90 1_555 1_555
C91 C92 1_555 1_555

#END
