
#######################################################################
#
#                 Cambridge Crystallographic Data Centre
#                                CCDC 
#
#######################################################################
#
# If this CIF has been generated from an entry in the Cambridge 
# Structural Database, then it will include bibliographic, chemical, 
# crystal, experimental, refinement or atomic coordinate data resulting 
# from the CCDC's data processing and validation procedures.
#
#######################################################################

data_LENWIN
_chemical_formula_moiety         'C64 H68 Br4 O8,0.5(C10 H8 N2)'
_chemical_name_systematic        
"5,11,17,23-tetrakis(bromoethynyl)-2,8,14,20-tetrakis(n-hexyl)-4,24:6,10:12,16:18,22-O,O'-tetramethylenecalix(4)resorcinarene hemikis(4,4'-bipyridine) unknown solvate"
_symmetry_cell_setting           monoclinic
_symmetry_space_group_name_H-M   'P 21/c'
_symmetry_Int_Tables_number      14
_space_group_name_Hall           '-P 2ybc'
loop_
_symmetry_equiv_pos_site_id
_symmetry_equiv_pos_as_xyz
1 x,y,z
2 -x,1/2+y,1/2-z
3 -x,-y,-z
4 x,1/2-y,1/2+z
_cell_length_a                   13.9692(5)
_cell_length_b                   27.5021(10)
_cell_length_c                   18.4976(7)
_cell_angle_alpha                90
_cell_angle_beta                 90.147(3)
_cell_angle_gamma                90
_cell_volume                     7106.43
_exptl_crystal_colour            colorless
_exptl_crystal_description       block
_cell_formula_units_Z            4
loop_
_atom_site_label
_atom_site_type_symbol
_atom_site_fract_x
_atom_site_fract_y
_atom_site_fract_z
Br1 Br 0.28318(7) 0.81501(3) 0.88130(5)
Br2 Br 0.18705(7) 0.61181(4) 1.22264(4)
Br3 Br 0.66756(6) 0.44383(4) 1.11494(4)
Br4 Br 0.75285(10) 0.66053(5) 0.81679(8)
C1 C 0.5163(8) 0.5068(5) 0.7384(7)
C2 C 0.5192(9) 0.5568(6) 0.7306(6)
C3 C 0.4396(9) 0.5809(5) 0.6938(6)
C4 C 0.3616(9) 0.5542(5) 0.6731(6)
C5 C 0.3580(8) 0.5041(4) 0.6844(6)
H1 H 0.3036 0.4861 0.6691
C6 C 0.4340(9) 0.4804(5) 0.7182(6)
C7 C 0.5943(10) 0.5863(6) 0.7549(8)
C8 C 0.6565(12) 0.6133(7) 0.7803(10)
C9 C 0.4074(9) 0.6645(5) 0.7282(8)
H2 H 0.4464 0.6945 0.7300
H3 H 0.4054 0.6504 0.7773
C10 C 0.2749(9) 0.5836(5) 0.6394(5)
H4 H 0.3014 0.6128 0.6142
C11 C 0.2377(10) 0.6478(5) 0.7339(7)
C12 C 0.1864(10) 0.6660(5) 0.7922(6)
C13 C 0.1119(8) 0.6373(4) 0.8193(6)
C14 C 0.0880(7) 0.5929(4) 0.7915(6)
C15 C 0.1413(8) 0.5748(5) 0.7327(6)
H5 H 0.1259 0.5437 0.7134
C16 C 0.2155(8) 0.6011(4) 0.7025(6)
C17 C 0.2145(11) 0.7116(5) 0.8220(7)
C18 C 0.2346(11) 0.7506(5) 0.8454(7)
C19 C 0.0855(9) 0.6417(4) 0.9475(6)
H6 H 0.1544 0.6333 0.9477
H7 H 0.0757 0.6686 0.9823
C20 C 0.0084(8) 0.5625(4) 0.8264(6)
H8 H -0.0364 0.5859 0.8502
C21 C 0.0683(8) 0.5556(4) 0.9542(6)
C22 C 0.1142(7) 0.5311(5) 1.0095(5)
C23 C 0.1450(7) 0.4822(4) 0.9995(5)
C24 C 0.1319(8) 0.4596(5) 0.9325(5)
C25 C 0.0846(7) 0.4859(4) 0.8765(5)
H9 H 0.0739 0.4701 0.8315
C26 C 0.0536(7) 0.5335(4) 0.8847(6)
C27 C 0.1337(8) 0.5562(5) 1.0764(5)
C28 C 0.1545(9) 0.5772(5) 1.1332(7)
C29 C 0.2831(8) 0.4529(5) 1.0603(6)
H10 H 0.3125 0.4811 1.0357
H11 H 0.3046 0.4532 1.1114
C30 C 0.1661(8) 0.4084(5) 0.9215(6)
H12 H 0.1634 0.3923 0.9700
C31 C 0.3402(9) 0.4153(5) 0.9541(6)
C32 C 0.4388(8) 0.4203(5) 0.9389(6)
C33 C 0.4627(8) 0.4220(5) 0.8660(6)
C34 C 0.3984(7) 0.4192(5) 0.8093(6)
C35 C 0.3021(8) 0.4132(5) 0.8300(6)
H13 H 0.2559 0.4111 0.7924
C36 C 0.2682(8) 0.4100(5) 0.9014(6)
C37 C 0.5069(8) 0.4261(5) 0.9942(6)
C38 C 0.5682(9) 0.4344(5) 1.0387(6)
C39 C 0.5982(9) 0.4702(6) 0.8394(8)
H14 H 0.6650 0.4715 0.8572
H15 H 0.5603 0.4938 0.8678
C40 C 0.4325(8) 0.4254(5) 0.7338(6)
H16 H 0.5006 0.4141 0.7328
C41 C 0.2199(9) 0.5539(5) 0.5845(6)
H17 H 0.1846 0.5276 0.6094
H18 H 0.2652 0.5387 0.5501
C42 C 0.1494(10) 0.5863(5) 0.5433(7)
H19 H 0.1056 0.6017 0.5785
H20 H 0.1858 0.6127 0.5194
C43 C 0.0896(13) 0.5601(7) 0.4863(9)
H21 H 0.1342 0.5417 0.4550
H22 H 0.0493 0.5360 0.5116
C44 C 0.0284(11) 0.5880(7) 0.4401(9)
H23 H 0.0676 0.6099 0.4098
H24 H -0.0146 0.6083 0.4700
C45 C -0.0321(18) 0.5545(8) 0.3911(13)
H25 H 0.0109 0.5315 0.3659
H26 H -0.0763 0.5352 0.4215
C46 C -0.0885(17) 0.5820(10) 0.3366(13)
H27 H -0.0972 0.5620 0.2932
H28 H -0.0543 0.6119 0.3238
H29 H -0.1512 0.5903 0.3568
C47 C -0.0509(9) 0.5330(5) 0.7718(6)
H30 H -0.0099 0.5069 0.7519
H31 H -0.1041 0.5172 0.7981
C48 C -0.0933(10) 0.5620(6) 0.7084(8)
H32 H -0.1215 0.5924 0.7276
H33 H -0.0406 0.5713 0.6755
C49 C -0.1666(12) 0.5365(7) 0.6665(8)
H34 H -0.2260 0.5346 0.6955
H35 H -0.1447 0.5028 0.6573
C50 C -0.1896(15) 0.5615(8) 0.5926(10)
H36 H -0.1291 0.5662 0.5658
H37 H -0.2307 0.5395 0.5637
C51 C -0.240(2) 0.6105(9) 0.6000(12)
H38 H -0.3004 0.6072 0.6273
H39 H -0.1983 0.6344 0.6250
C52 C -0.259(2) 0.6259(11) 0.5224(13)
H40 H -0.2684 0.5970 0.4923
H41 H -0.2043 0.6445 0.5042
H42 H -0.3167 0.6462 0.5205
C53 C 0.1043(9) 0.3770(5) 0.8704(7)
H43 H 0.1078 0.3904 0.8208
H44 H 0.0367 0.3785 0.8861
C54 C 0.1378(14) 0.3226(6) 0.8693(11)
H45 H 0.1988 0.3197 0.8425
H46 H 0.1485 0.3109 0.9193
C55 C 0.0610(13) 0.2921(7) 0.8328(12)
H47 H -0.0012 0.3031 0.8525
H48 H 0.0613 0.3011 0.7810
C56 C 0.0607(16) 0.2393(9) 0.8358(14)
H49 H 0.1092 0.2312 0.8730
H50 H 0.0888 0.2291 0.7892
C57 C -0.0206(15) 0.2031(7) 0.8490(13)
H51 H 0.0014 0.1767 0.8814
H52 H -0.0413 0.1884 0.8026
C58 C -0.1065(13) 0.2314(8) 0.8847(13)
H53 H -0.1286 0.2569 0.8516
H54 H -0.0853 0.2462 0.9302
H55 H -0.1591 0.2087 0.8943
C59 C 0.3787(11) 0.3961(5) 0.6754(7)
H56 H 0.3102 0.4054 0.6764
H57 H 0.4043 0.4050 0.6274
C60 C 0.3865(15) 0.3413(6) 0.6849(9)
H58 H 0.3578 0.3336 0.7324
H59 H 0.4556 0.3337 0.6889
C61 C 0.345(2) 0.3051(14) 0.631(2)
H60 H 0.3625 0.3144 0.5812
H61 H 0.3698 0.2721 0.6408
C62 C 0.236(2) 0.3055(15) 0.639(2)
H62 H 0.2119 0.3383 0.6268
H63 H 0.2198 0.2988 0.6901
C63 C 0.188(3) 0.2681(18) 0.591(3)
H64 H 0.2201 0.2363 0.5969
H65 H 0.1946 0.2781 0.5397
C64 C 0.081(3) 0.263(2) 0.609(3)
H66 H 0.0475 0.2581 0.5644
H67 H 0.0594 0.2921 0.6319
H68 H 0.0699 0.2356 0.6405
O1 O 0.5965(6) 0.4844(4) 0.7650(4)
O2 O 0.4498(6) 0.6303(3) 0.6788(4)
O3 O 0.3104(7) 0.6761(3) 0.7039(5)
O4 O 0.0586(6) 0.6577(3) 0.8769(4)
O5 O 0.0325(6) 0.6012(3) 0.9699(4)
O6 O 0.1810(5) 0.4574(3) 1.0577(4)
O7 O 0.3144(5) 0.4096(3) 1.0269(4)
O8 O 0.5623(6) 0.4240(4) 0.8518(5)
C69 C 0.4318(10) 0.8938(6) 0.9878(7)
H80 H 0.4390 0.8626 1.0093
C70 C 0.4844(10) 0.9320(5) 1.0147(7)
H81 H 0.5286 0.9268 1.0531
C71 C 0.4727(8) 0.9785(5) 0.9853(5)
C72 C 0.4096(10) 0.9829(5) 0.9295(6)
H82 H 0.3994 1.0140 0.9086
C73 C 0.3594(11) 0.9429(5) 0.9019(7)
H83 H 0.3179 0.9475 0.8617
N1 N 0.3683(9) 0.8992(4) 0.9302(6)
C69B C 0.5682(10) 1.1062(6) 1.0122(7)
H80B H 0.5610 1.1374 0.9907
C70B C 0.5156(10) 1.0680(5) 0.9853(7)
H81B H 0.4714 1.0732 0.9469
C71B C 0.5273(8) 1.0215(5) 1.0147(5)
C72B C 0.5904(10) 1.0171(5) 1.0705(6)
H82B H 0.6006 0.9860 1.0914
C73B C 0.6406(11) 1.0571(5) 1.0981(7)
H83B H 0.6821 1.0525 1.1383
N1B N 0.6317(9) 1.1008(4) 1.0698(6)
H69? H 0.3524 0.3323 0.7298
H70? H 0.3519 0.3257 0.6442
C65? C 0.484(2) 0.3200(12) 0.688(3)
H71? H 0.5127 0.3274 0.7361
H72? H 0.5243 0.3350 0.6507
C66? C 0.481(3) 0.2660(13) 0.6775(19)
H73? H 0.4363 0.2519 0.7134
H74? H 0.5454 0.2528 0.6880
C67? C 0.451(3) 0.2488(13) 0.6031(19)
H75? H 0.4811 0.2702 0.5667
H76? H 0.3806 0.2529 0.5986
C68? C 0.476(4) 0.1951(13) 0.584(3)
H77? H 0.5362 0.1882 0.6097
H78? H 0.4845 0.1900 0.5324
H79? H 0.4259 0.1733 0.6024
loop_
_geom_bond_atom_site_label_1
_geom_bond_atom_site_label_2
_geom_bond_site_symmetry_1
_geom_bond_site_symmetry_2
Br1 C18 1_555 1_555
Br2 C28 1_555 1_555
Br3 C38 1_555 1_555
Br4 C8 1_555 1_555
C1 C2 1_555 1_555
C2 C3 1_555 1_555
C3 C4 1_555 1_555
C4 C5 1_555 1_555
C5 H1 1_555 1_555
C6 C1 1_555 1_555
C7 C2 1_555 1_555
C8 C7 1_555 1_555
C9 H2 1_555 1_555
H3 C9 1_555 1_555
C10 C4 1_555 1_555
H4 C10 1_555 1_555
C11 C12 1_555 1_555
C12 C13 1_555 1_555
C13 C14 1_555 1_555
C14 C15 1_555 1_555
C15 H5 1_555 1_555
C16 C10 1_555 1_555
C17 C12 1_555 1_555
C18 C17 1_555 1_555
C19 H6 1_555 1_555
H7 C19 1_555 1_555
C20 C14 1_555 1_555
H8 C20 1_555 1_555
C21 C22 1_555 1_555
C22 C23 1_555 1_555
C23 C24 1_555 1_555
C24 C25 1_555 1_555
C25 H9 1_555 1_555
C26 C20 1_555 1_555
C27 C22 1_555 1_555
C28 C27 1_555 1_555
C29 H10 1_555 1_555
H11 C29 1_555 1_555
C30 C24 1_555 1_555
H12 C30 1_555 1_555
C31 C32 1_555 1_555
C32 C33 1_555 1_555
C33 C34 1_555 1_555
C34 C35 1_555 1_555
C35 H13 1_555 1_555
C36 C30 1_555 1_555
C37 C32 1_555 1_555
C38 C37 1_555 1_555
C39 H14 1_555 1_555
H15 C39 1_555 1_555
C40 C6 1_555 1_555
H16 C40 1_555 1_555
C41 C10 1_555 1_555
H17 C41 1_555 1_555
H18 C41 1_555 1_555
C42 C41 1_555 1_555
H19 C42 1_555 1_555
H20 C42 1_555 1_555
C43 C42 1_555 1_555
H21 C43 1_555 1_555
H22 C43 1_555 1_555
C44 C43 1_555 1_555
H23 C44 1_555 1_555
H24 C44 1_555 1_555
C45 C44 1_555 1_555
H25 C45 1_555 1_555
H26 C45 1_555 1_555
C46 C45 1_555 1_555
H27 C46 1_555 1_555
H28 C46 1_555 1_555
H29 C46 1_555 1_555
C47 C20 1_555 1_555
H30 C47 1_555 1_555
H31 C47 1_555 1_555
C48 C47 1_555 1_555
H32 C48 1_555 1_555
H33 C48 1_555 1_555
C49 C48 1_555 1_555
H34 C49 1_555 1_555
H35 C49 1_555 1_555
C50 C49 1_555 1_555
H36 C50 1_555 1_555
H37 C50 1_555 1_555
C51 C50 1_555 1_555
H38 C51 1_555 1_555
H39 C51 1_555 1_555
C52 C51 1_555 1_555
H40 C52 1_555 1_555
H41 C52 1_555 1_555
H42 C52 1_555 1_555
C53 C30 1_555 1_555
H43 C53 1_555 1_555
H44 C53 1_555 1_555
C54 C53 1_555 1_555
H45 C54 1_555 1_555
H46 C54 1_555 1_555
C55 C54 1_555 1_555
H47 C55 1_555 1_555
H48 C55 1_555 1_555
C56 C55 1_555 1_555
H49 C56 1_555 1_555
H50 C56 1_555 1_555
C57 C56 1_555 1_555
H51 C57 1_555 1_555
H52 C57 1_555 1_555
C58 C57 1_555 1_555
H53 C58 1_555 1_555
H54 C58 1_555 1_555
H55 C58 1_555 1_555
C59 C40 1_555 1_555
H56 C59 1_555 1_555
H57 C59 1_555 1_555
C60 C59 1_555 1_555
H58 C60 1_555 1_555
H59 C60 1_555 1_555
C61 C60 1_555 1_555
H60 C61 1_555 1_555
H61 C61 1_555 1_555
C62 C61 1_555 1_555
H62 C62 1_555 1_555
H63 C62 1_555 1_555
C63 C62 1_555 1_555
H64 C63 1_555 1_555
H65 C63 1_555 1_555
C64 C63 1_555 1_555
H66 C64 1_555 1_555
H67 C64 1_555 1_555
H68 C64 1_555 1_555
O1 C1 1_555 1_555
O2 C3 1_555 1_555
O3 C9 1_555 1_555
O4 C13 1_555 1_555
O5 C19 1_555 1_555
O6 C23 1_555 1_555
O7 C29 1_555 1_555
O8 C33 1_555 1_555
C69 H80 1_555 1_555
C70 C69 1_555 1_555
H81 C70 1_555 1_555
C71 C70 1_555 1_555
C72 C71 1_555 1_555
H82 C72 1_555 1_555
C73 C72 1_555 1_555
H83 C73 1_555 1_555
N1 C69 1_555 1_555
C69B H80B 1_555 1_555
C70B C69B 1_555 1_555
H81B C70B 1_555 1_555
C71B C71 1_555 1_555
C72B C71B 1_555 1_555
H82B C72B 1_555 1_555
C73B C72B 1_555 1_555
H83B C73B 1_555 1_555
N1B C69B 1_555 1_555
C5 C6 1_555 1_555
C9 O2 1_555 1_555
C11 C16 1_555 1_555
C11 O3 1_555 1_555
C15 C16 1_555 1_555
C19 O4 1_555 1_555
C21 C26 1_555 1_555
C21 O5 1_555 1_555
C25 C26 1_555 1_555
C29 O6 1_555 1_555
C31 C36 1_555 1_555
C31 O7 1_555 1_555
C34 C40 1_555 1_555
C35 C36 1_555 1_555
C39 O1 1_555 1_555
C39 O8 1_555 1_555
C73 N1 1_555 1_555
C70B C71B 1_555 1_555
C73B N1B 1_555 1_555

#END
