
#######################################################################
#
#                 Cambridge Crystallographic Data Centre
#                                CCDC 
#
#######################################################################
#
# If this CIF has been generated from an entry in the Cambridge 
# Structural Database, then it will include bibliographic, chemical, 
# crystal, experimental, refinement or atomic coordinate data resulting 
# from the CCDC's data processing and validation procedures.
#
#######################################################################

data_LENWUY
_chemical_formula_moiety         'C29 H27 N1 O8'
_chemical_name_systematic        
'Benzyl 5-(3,4,5-trimethoxyphenyl)-3,3a,4,5-tetrahydro[1,3]dioxolo[6,7]naphtho[1,2-c][1,2]oxazole-4-carboxylate'
_symmetry_cell_setting           orthorhombic
_symmetry_space_group_name_H-M   'P 21 21 21'
_symmetry_Int_Tables_number      19
_space_group_name_Hall           'P 2ac 2ab'
loop_
_symmetry_equiv_pos_site_id
_symmetry_equiv_pos_as_xyz
1 x,y,z
2 1/2-x,-y,1/2+z
3 -x,1/2+y,1/2-z
4 1/2+x,1/2-y,-z
_cell_length_a                   8.881(3)
_cell_length_b                   11.815(4)
_cell_length_c                   24.239(8)
_cell_angle_alpha                90
_cell_angle_beta                 90
_cell_angle_gamma                90
_cell_volume                     2543.37
_exptl_crystal_colour            colorless
_exptl_crystal_description       block
_cell_formula_units_Z            4
loop_
_atom_site_label
_atom_site_type_symbol
_atom_site_fract_x
_atom_site_fract_y
_atom_site_fract_z
C1 C 0.8364(3) 0.2100(2) 0.05134(10)
H1 H 0.7281 0.2218 0.0563
C2 C 0.9020(3) 0.1600(2) 0.10246(10)
C3 C 0.9424(3) 0.2303(2) 0.14984(11)
C4 C 0.9787(3) 0.1796(2) 0.20044(11)
H2 H 0.9732 0.1016 0.2053
C5 C 1.0222(3) 0.2491(2) 0.24189(11)
C6 C 1.1142(5) 0.3226(2) 0.31941(13)
H3 H 1.2219 0.3198 0.3258
H4 H 1.0641 0.3337 0.3546
C7 C 1.0298(3) 0.3646(2) 0.23488(11)
C8 C 0.9932(3) 0.4165(2) 0.18674(11)
H5 H 0.9979 0.4948 0.1831
C9 C 0.9479(3) 0.3473(2) 0.14272(10)
C10 C 0.9046(3) 0.4050(2) 0.08878(10)
H6 H 0.9802 0.4639 0.0821
C11 C 0.9123(3) 0.3222(2) 0.03879(10)
H7 H 1.0187 0.3068 0.0313
C12 C 0.8628(4) 0.1118(2) 0.01196(12)
H8 H 0.7779 0.1023 -0.0128
H9 H 0.9531 0.1239 -0.0098
C13 C 0.7530(3) 0.4650(2) 0.09325(10)
C14 C 0.6311(3) 0.4124(2) 0.11752(11)
H10 H 0.6429 0.3414 0.1335
C15 C 0.4912(3) 0.4646(2) 0.11819(11)
C16 C 0.4740(4) 0.5726(2) 0.09555(12)
C17 C 0.5979(4) 0.6261(2) 0.07268(12)
C18 C 0.7358(3) 0.5728(2) 0.07148(12)
H11 H 0.8182 0.6095 0.0559
C19 C 0.3737(4) 0.3064(3) 0.16048(16)
H12 H 0.4140 0.2572 0.1327
H13 H 0.2753 0.2806 0.1710
H14 H 0.4387 0.3060 0.1921
C20 C 0.2851(5) 0.6750(3) 0.14171(17)
H15 H 0.2898 0.6219 0.1717
H16 H 0.1834 0.7009 0.1373
H17 H 0.3494 0.7383 0.1496
C21 C 0.6797(5) 0.7845(3) 0.01943(17)
H18 H 0.7707 0.7926 0.0404
H19 H 0.6446 0.8578 0.0082
H20 H 0.6991 0.7391 -0.0126
C22 C 0.8456(4) 0.3750(2) -0.01231(12)
C23 C 0.8471(4) 0.5378(2) -0.06968(11)
H21 H 0.8722 0.6168 -0.0638
H22 H 0.7387 0.5302 -0.0665
C24 C 0.8937(4) 0.5047(2) -0.12635(11)
C25 C 1.0423(4) 0.4854(3) -0.13958(14)
H23 H 1.1155 0.4899 -0.1122
C26 C 1.0836(4) 0.4597(3) -0.19281(16)
H24 H 1.1838 0.4441 -0.2010
C27 C 0.9776(5) 0.4570(3) -0.23367(15)
H25 H 1.0063 0.4428 -0.2699
C28 C 0.8286(5) 0.4752(3) -0.22118(14)
H26 H 0.7558 0.4716 -0.2487
C29 C 0.7882(4) 0.4987(3) -0.16784(13)
H27 H 0.6873 0.5108 -0.1595
N1 N 0.9243(3) 0.05347(18) 0.10063(9)
O1 O 1.0648(3) 0.22029(15) 0.29479(8)
O2 O 1.0789(3) 0.41351(15) 0.28292(8)
O3 O 0.8795(3) 0.01475(15) 0.04736(8)
O4 O 0.3634(2) 0.41819(17) 0.13929(9)
O5 O 0.3337(3) 0.62148(19) 0.09242(10)
O6 O 0.5690(3) 0.73164(17) 0.05213(10)
O7 O 0.7390(3) 0.33880(17) -0.03657(9)
O8 O 0.9188(2) 0.46957(15) -0.02666(7)
loop_
_geom_bond_atom_site_label_1
_geom_bond_atom_site_label_2
_geom_bond_site_symmetry_1
_geom_bond_site_symmetry_2
C1 H1 1_555 1_555
C2 C1 1_555 1_555
C3 C2 1_555 1_555
C4 C3 1_555 1_555
H2 C4 1_555 1_555
C5 C4 1_555 1_555
C6 H3 1_555 1_555
H4 C6 1_555 1_555
C7 C5 1_555 1_555
C8 C7 1_555 1_555
H5 C8 1_555 1_555
C9 C3 1_555 1_555
C10 C9 1_555 1_555
H6 C10 1_555 1_555
C11 C1 1_555 1_555
H7 C11 1_555 1_555
C12 C1 1_555 1_555
H8 C12 1_555 1_555
H9 C12 1_555 1_555
C13 C10 1_555 1_555
C14 C13 1_555 1_555
H10 C14 1_555 1_555
C15 C14 1_555 1_555
C16 C15 1_555 1_555
C17 C16 1_555 1_555
C18 C13 1_555 1_555
H11 C18 1_555 1_555
C19 H12 1_555 1_555
H13 C19 1_555 1_555
H14 C19 1_555 1_555
C20 H15 1_555 1_555
H16 C20 1_555 1_555
H17 C20 1_555 1_555
C21 H18 1_555 1_555
H19 C21 1_555 1_555
H20 C21 1_555 1_555
C22 C11 1_555 1_555
C23 H21 1_555 1_555
H22 C23 1_555 1_555
C24 C23 1_555 1_555
C25 C24 1_555 1_555
H23 C25 1_555 1_555
C26 C25 1_555 1_555
H24 C26 1_555 1_555
C27 C26 1_555 1_555
H25 C27 1_555 1_555
C28 C27 1_555 1_555
H26 C28 1_555 1_555
C29 C24 1_555 1_555
H27 C29 1_555 1_555
N1 C2 1_555 1_555
O1 C5 1_555 1_555
O2 C6 1_555 1_555
O3 C12 1_555 1_555
O4 C15 1_555 1_555
O5 C16 1_555 1_555
O6 C17 1_555 1_555
O7 C22 1_555 1_555
O8 C22 1_555 1_555
C6 O1 1_555 1_555
C7 O2 1_555 1_555
C8 C9 1_555 1_555
C10 C11 1_555 1_555
C17 C18 1_555 1_555
C19 O4 1_555 1_555
C20 O5 1_555 1_555
C21 O6 1_555 1_555
C23 O8 1_555 1_555
C28 C29 1_555 1_555
N1 O3 1_555 1_555

#END
