
#######################################################################
#
#                 Cambridge Crystallographic Data Centre
#                                CCDC 
#
#######################################################################
#
# If this CIF has been generated from an entry in the Cambridge 
# Structural Database, then it will include bibliographic, chemical, 
# crystal, experimental, refinement or atomic coordinate data resulting 
# from the CCDC's data processing and validation procedures.
#
#######################################################################

data_LENXEJ
_chemical_formula_moiety         'C28 H24 Br1 N1 O10 S1'
_chemical_name_systematic        
9-((((4-Bromophenyl)sulfonyl)oxy)imino)-5-(3,4,5-trimethoxyphenyl)-5,8,8a,9-tetrahydrofuro[3',4':6,7]naphtho[2,3-d][1,3]dioxol-6(5aH)-one
_symmetry_cell_setting           monoclinic
_symmetry_space_group_name_H-M   'P 21'
_symmetry_Int_Tables_number      4
_space_group_name_Hall           'P 2yb'
loop_
_symmetry_equiv_pos_site_id
_symmetry_equiv_pos_as_xyz
1 x,y,z
2 -x,1/2+y,-z
_cell_length_a                   10.639(3)
_cell_length_b                   18.456(6)
_cell_length_c                   14.352(5)
_cell_angle_alpha                90
_cell_angle_beta                 97.826(4)
_cell_angle_gamma                90
_cell_volume                     2791.82
_exptl_crystal_colour            colorless
_exptl_crystal_description       block
_cell_formula_units_Z            4
loop_
_atom_site_label
_atom_site_type_symbol
_atom_site_fract_x
_atom_site_fract_y
_atom_site_fract_z
Br1 Br -0.15966(10) 1.21741(7) -0.08624(8)
C1 C 0.7933(6) 0.8615(4) 0.3450(4)
H1 H 0.7945 0.8112 0.3442
C2 C 0.8950(6) 0.8994(4) 0.3918(4)
C3 C 0.8913(6) 0.9738(4) 0.3962(5)
C4 C 0.7885(6) 1.0107(4) 0.3506(6)
C5 C 0.6901(6) 0.9733(4) 0.2999(5)
H2 H 0.6233 0.9986 0.2659
C6 C 0.6898(6) 0.8986(4) 0.2992(4)
C7 C 1.0080(8) 0.7903(5) 0.4290(6)
H3 H 0.9418 0.7693 0.4594
H4 H 1.0889 0.7736 0.4592
H5 H 0.9971 0.7763 0.3640
C8 C 1.0545(8) 1.0605(5) 0.4171(7)
H6 H 1.0718 1.0445 0.3565
H7 H 1.1331 1.0690 0.4571
H8 H 1.0062 1.1046 0.4103
C9 C 0.6854(8) 1.1239(4) 0.3194(7)
H9 H 0.6762 1.1193 0.2522
H10 H 0.6965 1.1741 0.3363
H11 H 0.6109 1.1055 0.3421
C10 C 0.5719(6) 0.8564(4) 0.2541(4)
H12 H 0.5956 0.8050 0.2577
C11 C 0.5319(6) 0.8725(3) 0.1510(4)
C12 C 0.5898(7) 0.8347(4) 0.0843(5)
H13 H 0.6549 0.8017 0.1018
C13 C 0.5468(7) 0.8483(4) -0.0077(5)
C14 C 0.5041(10) 0.8439(7) -0.1621(7)
H14 H 0.4524 0.8047 -0.1915
H15 H 0.5530 0.8640 -0.2082
C15 C 0.4502(7) 0.8967(4) -0.0344(5)
C16 C 0.3940(6) 0.9358(4) 0.0287(5)
H16 H 0.3303 0.9692 0.0097
C17 C 0.4372(6) 0.9229(3) 0.1247(4)
C18 C 0.3842(6) 0.9652(4) 0.1972(5)
C19 C 0.3859(6) 0.9341(4) 0.2942(4)
H17 H 0.4202 0.9699 0.3413
C20 C 0.2569(8) 0.9107(4) 0.3125(5)
H18 H 0.2481 0.9170 0.3784
H19 H 0.1918 0.9391 0.2751
C21 C 0.3599(8) 0.8066(5) 0.2824(5)
C22 C 0.4611(6) 0.8641(3) 0.3090(4)
H20 H 0.4925 0.8592 0.3761
C23 C 0.1605(7) 1.1619(3) 0.1521(5)
C24 C 0.1857(8) 1.1706(5) 0.0622(6)
H21 H 0.2687 1.1669 0.0492
C25 C 0.0919(9) 1.1844(5) -0.0075(6)
H22 H 0.1097 1.1881 -0.0690
C26 C -0.0277(9) 1.1930(4) 0.0107(6)
C27 C -0.0569(8) 1.1857(5) 0.1010(6)
H23 H -0.1396 1.1918 0.1139
C28 C 0.0397(8) 1.1692(4) 0.1710(6)
H24 H 0.0222 1.1629 0.2323
N1 N 0.3434(5) 1.0275(3) 0.1725(4)
O1 O 1.0024(4) 0.8666(3) 0.4356(3)
O2 O 0.9864(5) 1.0080(3) 0.4566(4)
O3 O 0.7921(5) 1.0843(3) 0.3597(4)
O4 O 0.5862(5) 0.8173(3) -0.0851(4)
O5 O 0.4253(6) 0.8982(3) -0.1316(4)
O6 O 0.3752(5) 0.7443(3) 0.2625(5)
O7 O 0.2449(5) 0.8354(3) 0.2869(4)
O8 O 0.2916(4) 1.0608(2) 0.2533(3)
O9 O 0.3991(5) 1.1722(3) 0.2153(4)
O10 O 0.2466(5) 1.1683(3) 0.3302(3)
S1 S 0.2846(2) 1.14712(10) 0.24275(14)
Br2 Br 0.27124(9) 0.53391(6) -0.03464(8)
C29 C 1.2028(6) 0.4797(4) 0.3425(5)
H25 H 1.1389 0.5091 0.3122
C30 C 1.3033(7) 0.5101(4) 0.3984(5)
C31 C 1.4054(7) 0.4681(4) 0.4372(5)
C32 C 1.4017(6) 0.3947(4) 0.4209(4)
C33 C 1.2960(6) 0.3634(4) 0.3700(4)
H26 H 1.2928 0.3134 0.3620
C34 C 1.1958(6) 0.4050(4) 0.3310(4)
C35 C 1.2099(9) 0.6281(4) 0.3878(8)
H27 H 1.1894 0.6252 0.3206
H28 H 1.2311 0.6772 0.4057
H29 H 1.1381 0.6128 0.4168
C36 C 1.5691(8) 0.5526(6) 0.4849(6)
H30 H 1.5955 0.5488 0.4237
H31 H 1.6425 0.5563 0.5317
H32 H 1.5174 0.5950 0.4873
C37 C 1.5055(9) 0.2791(5) 0.4506(6)
H33 H 1.4316 0.2595 0.4731
H34 H 1.5803 0.2593 0.4866
H35 H 1.5043 0.2666 0.3856
C38 C 1.0758(6) 0.3698(3) 0.2805(4)
H36 H 1.0927 0.3177 0.2777
C39 C 1.0419(5) 0.3958(4) 0.1796(5)
C40 C 1.1015(6) 0.3620(4) 0.1102(5)
H37 H 1.1615 0.3257 0.1250
C41 C 1.0675(7) 0.3847(4) 0.0205(5)
C42 C 1.0432(9) 0.3985(6) -0.1354(5)
H38 H 1.1011 0.4200 -0.1743
H39 H 0.9872 0.3656 -0.1739
C43 C 0.9847(7) 0.4418(4) -0.0032(5)
C44 C 0.9271(6) 0.4755(4) 0.0647(5)
H40 H 0.8706 0.5135 0.0497
C45 C 0.9563(6) 0.4508(4) 0.1577(5)
C46 C 0.8949(6) 0.4869(4) 0.2313(5)
C47 C 0.8937(6) 0.4505(4) 0.3260(5)
H41 H 0.9287 0.4833 0.3766
C48 C 0.7610(7) 0.4269(4) 0.3406(5)
H42 H 0.7484 0.4342 0.4057
H43 H 0.6980 0.4551 0.3008
C49 C 0.8647(8) 0.3228(5) 0.3119(5)
C50 C 0.9650(6) 0.3791(4) 0.3346(5)
H44 H 0.9982 0.3731 0.4013
C51 C 0.5910(7) 0.6204(3) 0.1859(6)
C52 C 0.5919(9) 0.6326(5) 0.0927(7)
H45 H 0.6583 0.6587 0.0731
C53 C 0.4982(9) 0.6075(5) 0.0282(6)
H46 H 0.5008 0.6156 -0.0355
C54 C 0.3991(8) 0.5702(4) 0.0568(7)
C55 C 0.3950(8) 0.5592(5) 0.1497(7)
H47 H 0.3274 0.5345 0.1697
C56 C 0.4927(9) 0.5852(6) 0.2142(6)
H48 H 0.4904 0.5782 0.2781
N2 N 0.8492(5) 0.5495(3) 0.2127(4)
O11 O 1.3143(5) 0.5826(3) 0.4176(4)
O12 O 1.5023(6) 0.4939(3) 0.5016(5)
O13 O 1.5059(4) 0.3566(3) 0.4605(3)
O14 O 1.1124(5) 0.3605(3) -0.0583(4)
O15 O 0.9707(5) 0.4540(3) -0.0969(4)
O16 O 0.8770(6) 0.2606(3) 0.2956(5)
O17 O 0.7489(5) 0.3507(3) 0.3164(4)
O18 O 0.7952(5) 0.5763(2) 0.2952(3)
O19 O 0.7925(5) 0.6992(2) 0.2233(4)
O20 O 0.6757(5) 0.6689(3) 0.3548(3)
S2 S 0.7169(2) 0.65021(11) 0.26825(15)
loop_
_geom_bond_atom_site_label_1
_geom_bond_atom_site_label_2
_geom_bond_site_symmetry_1
_geom_bond_site_symmetry_2
Br1 C26 1_555 1_555
Br2 C54 1_555 1_555
C1 H1 1_555 1_555
C2 C1 1_555 1_555
C3 C2 1_555 1_555
C4 C3 1_555 1_555
C5 C4 1_555 1_555
H2 C5 1_555 1_555
C6 C1 1_555 1_555
C7 H3 1_555 1_555
H4 C7 1_555 1_555
H5 C7 1_555 1_555
C8 H6 1_555 1_555
H7 C8 1_555 1_555
H8 C8 1_555 1_555
C9 H9 1_555 1_555
H10 C9 1_555 1_555
H11 C9 1_555 1_555
C10 C6 1_555 1_555
H12 C10 1_555 1_555
C11 C10 1_555 1_555
C12 C11 1_555 1_555
H13 C12 1_555 1_555
C13 C12 1_555 1_555
C14 H14 1_555 1_555
H15 C14 1_555 1_555
C15 C13 1_555 1_555
C16 C15 1_555 1_555
H16 C16 1_555 1_555
C17 C11 1_555 1_555
C18 C17 1_555 1_555
C19 C18 1_555 1_555
H17 C19 1_555 1_555
C20 C19 1_555 1_555
H18 C20 1_555 1_555
H19 C20 1_555 1_555
C21 C22 1_555 1_555
C22 C10 1_555 1_555
H20 C22 1_555 1_555
C23 C24 1_555 1_555
C24 H21 1_555 1_555
C25 C24 1_555 1_555
H22 C25 1_555 1_555
C26 C25 1_555 1_555
C27 C26 1_555 1_555
H23 C27 1_555 1_555
C28 C23 1_555 1_555
H24 C28 1_555 1_555
C29 H25 1_555 1_555
C30 C29 1_555 1_555
C31 C30 1_555 1_555
C32 C31 1_555 1_555
C33 C32 1_555 1_555
H26 C33 1_555 1_555
C34 C29 1_555 1_555
C35 H27 1_555 1_555
H28 C35 1_555 1_555
H29 C35 1_555 1_555
C36 H30 1_555 1_555
H31 C36 1_555 1_555
H32 C36 1_555 1_555
C37 H33 1_555 1_555
H34 C37 1_555 1_555
H35 C37 1_555 1_555
C38 C34 1_555 1_555
H36 C38 1_555 1_555
C39 C38 1_555 1_555
C40 C39 1_555 1_555
H37 C40 1_555 1_555
C41 C40 1_555 1_555
C42 H38 1_555 1_555
H39 C42 1_555 1_555
C43 C41 1_555 1_555
C44 C43 1_555 1_555
H40 C44 1_555 1_555
C45 C39 1_555 1_555
C46 C45 1_555 1_555
C47 C46 1_555 1_555
H41 C47 1_555 1_555
C48 C47 1_555 1_555
H42 C48 1_555 1_555
H43 C48 1_555 1_555
C49 C50 1_555 1_555
C50 C38 1_555 1_555
H44 C50 1_555 1_555
C51 C52 1_555 1_555
C52 H45 1_555 1_555
C53 C52 1_555 1_555
H46 C53 1_555 1_555
C54 C53 1_555 1_555
C55 C54 1_555 1_555
H47 C55 1_555 1_555
C56 C51 1_555 1_555
H48 C56 1_555 1_555
N1 C18 1_555 1_555
N2 C46 1_555 1_555
O1 C2 1_555 1_555
O2 C3 1_555 1_555
O3 C4 1_555 1_555
O4 C13 1_555 1_555
O5 C14 1_555 1_555
O6 C21 1_555 1_555
O7 C20 1_555 1_555
O8 N1 1_555 1_555
O9 S1 1_555 1_555
O10 S1 1_555 1_555
O11 C30 1_555 1_555
O12 C31 1_555 1_555
O13 C32 1_555 1_555
O14 C41 1_555 1_555
O15 C42 1_555 1_555
O16 C49 1_555 1_555
O17 C48 1_555 1_555
O18 N2 1_555 1_555
O19 S2 1_555 1_555
O20 S2 1_555 1_555
S1 C23 1_555 1_555
S2 C51 1_555 1_555
C5 C6 1_555 1_555
C7 O1 1_555 1_555
C8 O2 1_555 1_555
C9 O3 1_555 1_555
C14 O4 1_555 1_555
C15 O5 1_555 1_555
C16 C17 1_555 1_555
C19 C22 1_555 1_555
C21 O7 1_555 1_555
C27 C28 1_555 1_555
C33 C34 1_555 1_555
C35 O11 1_555 1_555
C36 O12 1_555 1_555
C37 O13 1_555 1_555
C42 O14 1_555 1_555
C43 O15 1_555 1_555
C44 C45 1_555 1_555
C47 C50 1_555 1_555
C49 O17 1_555 1_555
C55 C56 1_555 1_555
O8 S1 1_555 1_555
O18 S2 1_555 1_555

#END
