
#######################################################################
#
#                 Cambridge Crystallographic Data Centre
#                                CCDC 
#
#######################################################################
#
# If this CIF has been generated from an entry in the Cambridge 
# Structural Database, then it will include bibliographic, chemical, 
# crystal, experimental, refinement or atomic coordinate data resulting 
# from the CCDC's data processing and validation procedures.
#
#######################################################################

data_LENXEK
_chemical_formula_moiety         'C68 H76 I4 O8,6(C4 H8 O2)'
_chemical_name_systematic        
"5,11,17,23-tetrakis(iodoethynyl)-2,8,14,20-tetrakis(n-hexyl)-4,24:6,10:12,16:18,22-O,O'-tetramethylenecalix(4)resorcinarene 1,4-dioxane solvate"
_symmetry_cell_setting           orthorhombic
_symmetry_space_group_name_H-M   'C m c m'
_symmetry_Int_Tables_number      63
_space_group_name_Hall           '-C 2n 2'
loop_
_symmetry_equiv_pos_site_id
_symmetry_equiv_pos_as_xyz
1 x,y,z
2 -x,-y,1/2+z
3 x,-y,-z
4 -x,y,1/2-z
5 1/2+x,1/2+y,z
6 1/2-x,1/2-y,1/2+z
7 1/2+x,1/2-y,-z
8 1/2-x,1/2+y,1/2-z
9 -x,-y,-z
10 x,y,1/2-z
11 -x,y,z
12 x,-y,1/2+z
13 1/2-x,1/2-y,-z
14 1/2+x,1/2+y,1/2-z
15 1/2-x,1/2+y,z
16 1/2+x,1/2-y,1/2+z
_cell_length_a                   32.3008(10)
_cell_length_b                   9.5968(5)
_cell_length_c                   29.1250(10)
_cell_angle_alpha                90
_cell_angle_beta                 90
_cell_angle_gamma                90
_cell_volume                     9028.29
_exptl_crystal_colour            colorless
_exptl_crystal_description       plate
_cell_formula_units_Z            4
loop_
_atom_site_label
_atom_site_type_symbol
_atom_site_fract_x
_atom_site_fract_y
_atom_site_fract_z
C1 C 0.5000 1.4519(10) 0.4182(2)
C2 C 0.5000 1.3338(9) 0.4035(2)
C3 C 0.5000 1.1985(7) 0.3818(2)
C4 C 0.53746(13) 1.1326(5) 0.37115(18)
C5 C 0.53794(13) 1.0049(5) 0.3486(2)
C6 C 0.5000 0.9456(7) 0.3381(3)
H1 H 0.5000 0.8583 0.3227
C7 C 0.7068(2) 1.3202(7) 0.2500
C8 C 0.67961(17) 1.2393(7) 0.2500
C9 C 0.64558(16) 1.1422(6) 0.2500
C10 C 0.62935(12) 1.0930(5) 0.29171(19)
C11 C 0.59669(12) 0.9970(5) 0.2918(2)
C12 C 0.58114(18) 0.9542(7) 0.2500
H2 H 0.5584 0.8914 0.2500
C13 C 0.59120(14) 1.2934(5) 0.35402(19)
H3 H 0.5861 1.3888 0.3656
H4 H 0.5778 1.2844 0.3236
C14 C 0.63724(14) 1.2687(5) 0.34953(19)
H5 H 0.6490 1.3390 0.3283
H6 H 0.6504 1.2820 0.3799
C15 C 0.57954(13) 0.9385(5) 0.3372(2)
H7 H 0.5993 0.9659 0.3620
C16 C 0.57767(15) 0.7781(5) 0.3365(3)
H8 H 0.5650 0.7456 0.3655
H9 H 0.5594 0.7483 0.3110
C17 C 0.61965(14) 0.7077(5) 0.3309(2)
H10 H 0.6158 0.6107 0.3202
H11 H 0.6363 0.7582 0.3078
C18 C 0.6412(5) 0.7080(17) 0.3750(5)
H12 H 0.6248 0.6508 0.3967
H13 H 0.6410 0.8047 0.3868
C19 C 0.6854(4) 0.6566(19) 0.3767(4)
H14 H 0.6885 0.5710 0.3580
H15 H 0.6935 0.6351 0.4087
C20 C 0.7123(5) 0.7718(18) 0.3576(6)
H16 H 0.7104 0.7712 0.3237
H17 H 0.7017 0.8626 0.3686
C21 C 0.7543(12) 0.758(2) 0.3706(13)
H18 H 0.7714 0.8193 0.3513
H19 H 0.7632 0.6615 0.3665
H20 H 0.7575 0.7851 0.4029
I1 I 0.5000 1.67057(11) 0.43796(3)
I2 I 0.75424(11) 1.4548(4) 0.2500
O1 O 0.57411(9) 1.1932(4) 0.38521(12)
O2 O 0.64726(9) 1.1320(3) 0.33281(13)
C1C C 0.5000 1.4519(10) 0.0818(2)
C2C C 0.5000 1.3338(9) 0.0965(2)
C3C C 0.5000 1.1985(7) 0.1182(2)
C4I C 0.53746(13) 1.1326(5) 0.12885(18)
C5I C 0.53794(13) 1.0049(5) 0.1514(2)
C6C C 0.5000 0.9456(7) 0.1619(3)
H1C H 0.5000 0.8583 0.1773
C10I C 0.62935(12) 1.0930(5) 0.20829(19)
C11I C 0.59669(12) 0.9970(5) 0.2082(2)
C13I C 0.59120(14) 1.2934(5) 0.14598(19)
H3I H 0.5861 1.3888 0.1344
H4I H 0.5778 1.2844 0.1764
C14I C 0.63724(14) 1.2687(5) 0.15047(19)
H5I H 0.6490 1.3390 0.1717
H6I H 0.6504 1.2820 0.1201
C15I C 0.57954(13) 0.9385(5) 0.1628(2)
H7I H 0.5993 0.9659 0.1380
C16I C 0.57767(15) 0.7781(5) 0.1635(3)
H8I H 0.5650 0.7456 0.1345
H9I H 0.5594 0.7483 0.1890
C17I C 0.61965(14) 0.7077(5) 0.1691(2)
H10I H 0.6158 0.6107 0.1798
H11I H 0.6363 0.7582 0.1922
C18I C 0.6412(5) 0.7080(17) 0.1250(5)
H12I H 0.6248 0.6508 0.1033
H13I H 0.6410 0.8047 0.1132
C19I C 0.6854(4) 0.6566(19) 0.1233(4)
H14I H 0.6885 0.5710 0.1420
H15I H 0.6935 0.6351 0.0913
C20I C 0.7123(5) 0.7718(18) 0.1424(6)
H16I H 0.7104 0.7712 0.1763
H17I H 0.7017 0.8626 0.1314
C21I C 0.7543(12) 0.758(2) 0.1294(13)
H18I H 0.7714 0.8193 0.1487
H19I H 0.7632 0.6615 0.1335
H20I H 0.7575 0.7851 0.0971
I1C I 0.5000 1.67057(11) 0.06204(3)
O1I O 0.57411(9) 1.1932(4) 0.11479(12)
O2I O 0.64726(9) 1.1320(3) 0.16719(13)
C4J C 0.46254(13) 1.1326(5) 0.37115(18)
C5J C 0.46206(13) 1.0049(5) 0.3486(2)
C7C C 0.2932(2) 1.3202(7) 0.2500
C8C C 0.32039(17) 1.2393(7) 0.2500
C9C C 0.35442(16) 1.1422(6) 0.2500
C10J C 0.37065(12) 1.0930(5) 0.29171(19)
C11J C 0.40331(12) 0.9970(5) 0.2918(2)
C12C C 0.41886(18) 0.9542(7) 0.2500
H2C H 0.4416 0.8914 0.2500
C13J C 0.40880(14) 1.2934(5) 0.35402(19)
H3J H 0.4139 1.3888 0.3656
H4J H 0.4222 1.2844 0.3236
C14J C 0.36276(14) 1.2687(5) 0.34953(19)
H5J H 0.3510 1.3390 0.3283
H6J H 0.3496 1.2820 0.3799
C15J C 0.42046(13) 0.9385(5) 0.3372(2)
H7J H 0.4007 0.9659 0.3620
C16J C 0.42233(15) 0.7781(5) 0.3365(3)
H8J H 0.4350 0.7456 0.3655
H9J H 0.4406 0.7483 0.3110
C17J C 0.38035(14) 0.7077(5) 0.3309(2)
H10J H 0.3842 0.6107 0.3202
H11J H 0.3637 0.7582 0.3078
C18J C 0.3588(5) 0.7080(17) 0.3750(5)
H12J H 0.3752 0.6508 0.3967
H13J H 0.3590 0.8047 0.3868
C19J C 0.3146(4) 0.6566(19) 0.3767(4)
H14J H 0.3115 0.5710 0.3580
H15J H 0.3065 0.6351 0.4087
C20J C 0.2877(5) 0.7718(18) 0.3576(6)
H16J H 0.2896 0.7712 0.3237
H17J H 0.2983 0.8626 0.3686
C21J C 0.2457(12) 0.758(2) 0.3706(13)
H18J H 0.2286 0.8193 0.3513
H19J H 0.2368 0.6615 0.3665
H20J H 0.2425 0.7851 0.4029
I2C I 0.24576(11) 1.4548(4) 0.2500
O1J O 0.42589(9) 1.1932(4) 0.38521(12)
O2J O 0.35274(9) 1.1320(3) 0.33281(13)
C4C C 0.46254(13) 1.1326(5) 0.12885(18)
C5C C 0.46206(13) 1.0049(5) 0.1514(2)
C10C C 0.37065(12) 1.0930(5) 0.20829(19)
C11C C 0.40331(12) 0.9970(5) 0.2082(2)
C13C C 0.40880(14) 1.2934(5) 0.14598(19)
H3C H 0.4139 1.3888 0.1344
H4C H 0.4222 1.2844 0.1764
C14C C 0.36276(14) 1.2687(5) 0.15047(19)
H5C H 0.3510 1.3390 0.1717
H6C H 0.3496 1.2820 0.1201
C15C C 0.42046(13) 0.9385(5) 0.1628(2)
H7C H 0.4007 0.9659 0.1380
C16C C 0.42233(15) 0.7781(5) 0.1635(3)
H8C H 0.4350 0.7456 0.1345
H9C H 0.4406 0.7483 0.1890
C17C C 0.38035(14) 0.7077(5) 0.1691(2)
H10C H 0.3842 0.6107 0.1798
H11C H 0.3637 0.7582 0.1922
C18C C 0.3588(5) 0.7080(17) 0.1250(5)
H12C H 0.3752 0.6508 0.1033
H13C H 0.3590 0.8047 0.1132
C19C C 0.3146(4) 0.6566(19) 0.1233(4)
H14C H 0.3115 0.5710 0.1420
H15C H 0.3065 0.6351 0.0913
C20C C 0.2877(5) 0.7718(18) 0.1424(6)
H16C H 0.2896 0.7712 0.1763
H17C H 0.2983 0.8626 0.1314
C21C C 0.2457(12) 0.758(2) 0.1294(13)
H18C H 0.2286 0.8193 0.1487
H19C H 0.2368 0.6615 0.1335
H20C H 0.2425 0.7851 0.0971
O1C O 0.42589(9) 1.1932(4) 0.11479(12)
O2C O 0.35274(9) 1.1320(3) 0.16719(13)
C22 C 0.5366(3) 2.0113(14) 0.4748(3)
H21 H 0.5365 2.1123 0.4680
H22 H 0.5618 1.9699 0.4611
O3 O 0.5000 1.9464(10) 0.4555(3)
C22B C 0.5366(3) 1.9887(14) 0.5252(3)
H21B H 0.5365 1.8877 0.5320
H22B H 0.5618 2.0301 0.5389
O3B O 0.5000 2.0536(10) 0.5445(3)
C22H C 0.4634(3) 1.9887(14) 0.5252(3)
H21H H 0.4635 1.8877 0.5320
H22H H 0.4382 2.0301 0.5389
C22J C 0.4634(3) 2.0113(14) 0.4748(3)
H21J H 0.4635 2.1123 0.4680
H22J H 0.4382 1.9699 0.4611
C23 C 0.60725(15) 1.4315(6) 0.4874(2)
H23 H 0.6069 1.3540 0.5098
H24 H 0.5821 1.4245 0.4682
C24 C 0.67889(16) 1.4325(6) 0.4870(2)
H25 H 0.7038 1.4278 0.4673
H26 H 0.6800 1.3538 0.5089
O4 O 0.64289(11) 1.4202(4) 0.45923(13)
C23B C 0.60725(15) 1.5685(6) 0.5126(2)
H23B H 0.6069 1.6460 0.4902
H24B H 0.5821 1.5755 0.5318
C24B C 0.67889(16) 1.5675(6) 0.5130(2)
H25B H 0.7038 1.5722 0.5327
H26B H 0.6800 1.6462 0.4911
O4B O 0.64289(11) 1.5798(4) 0.54077(13)
H27? H 0.6293 0.7250 0.2992
H28? H 0.6155 0.6060 0.3341
C25? C 0.6548(3) 0.7511(11) 0.3641(5)
H29? H 0.6628 0.8491 0.3582
H30? H 0.6450 0.7439 0.3963
C26? C 0.6920(6) 0.657(2) 0.3571(7)
H31? H 0.7032 0.6709 0.3258
H32? H 0.6831 0.5581 0.3596
C27? C 0.7264(3) 0.6861(12) 0.3930(5)
H33? H 0.7141 0.7093 0.4231
H34? H 0.7445 0.6035 0.3967
C28? C 0.7515(12) 0.811(2) 0.3742(13)
H35? H 0.7614 0.7893 0.3432
H36? H 0.7752 0.8288 0.3944
H37? H 0.7337 0.8937 0.3731
C29? C 0.5354(3) 1.9273(12) 0.4895(6)
H38? H 0.5380 1.9350 0.4558
H39? H 0.5597 1.8750 0.5011
I3? I 0.5000 1.61053(10) 0.45118(3)
I4? I 0.74714(8) 1.4852(4) 0.2500
O5? O 0.5000 1.8554(11) 0.5000(4)
C30? C 0.6406(5) 1.048(2) 0.4697(6)
H40? H 0.6251 1.1231 0.4541
H41? H 0.6276 0.9578 0.4614
C31? C 0.6844(7) 1.0490(18) 0.4540(6)
H42? H 0.6855 1.0375 0.4203
H43? H 0.6974 1.1393 0.4620
C32? C 0.7054(5) 0.953(2) 0.5220(6)
H44? H 0.7191 1.0415 0.5304
H45? H 0.7208 0.8758 0.5368
C33? C 0.6599(5) 0.9537(18) 0.5397(5)
H46? H 0.6463 0.8639 0.5325
H47? H 0.6595 0.9671 0.5734
O6? O 0.7065(3) 0.9366(13) 0.4761(4)
O7? O 0.6383(2) 1.0667(9) 0.5173(3)
C34? C 0.4771(5) 1.323(2) 0.2321(7)
H48? H 0.4814 1.3279 0.1985
H49? H 0.4542 1.2566 0.2379
C35? C 0.5145(4) 1.2700(15) 0.2535(14)
H50? H 0.5086 1.2495 0.2862
H51? H 0.5224 1.1814 0.2385
C36? C 0.5366(5) 1.4935(18) 0.2711(7)
H52? H 0.5593 1.5613 0.2662
H53? H 0.5335 1.4801 0.3046
C37? C 0.4985(10) 1.5527(11) 0.2532(14)
H54? H 0.4895 1.6287 0.2738
H55? H 0.5043 1.5944 0.2227
O8? O 0.5483(3) 1.3640(9) 0.251(2)
O9? O 0.4656(3) 1.4558(13) 0.249(2)
loop_
_geom_bond_atom_site_label_1
_geom_bond_atom_site_label_2
_geom_bond_site_symmetry_1
_geom_bond_site_symmetry_2
C1 C2 1_555 1_555
C2 C3 1_555 1_555
C3 C4 1_555 1_555
C4 C5 1_555 1_555
C5 C6 1_555 1_555
C6 H1 1_555 1_555
C7 C8 1_555 1_555
C8 C9 1_555 1_555
C9 C10 1_555 1_555
C10 C11 1_555 1_555
C11 C12 1_555 1_555
C12 H2 1_555 1_555
C13 H3 1_555 1_555
H4 C13 1_555 1_555
C14 C13 1_555 1_555
H5 C14 1_555 1_555
H6 C14 1_555 1_555
C15 C5 1_555 1_555
H7 C15 1_555 1_555
C16 C15 1_555 1_555
H8 C16 1_555 1_555
H9 C16 1_555 1_555
C17 C16 1_555 1_555
H10 C17 1_555 1_555
H11 C17 1_555 1_555
C18 C17 1_555 1_555
H12 C18 1_555 1_555
H13 C18 1_555 1_555
C19 C18 1_555 1_555
H14 C19 1_555 1_555
H15 C19 1_555 1_555
C20 C19 1_555 1_555
H16 C20 1_555 1_555
H17 C20 1_555 1_555
C21 C20 1_555 1_555
H18 C21 1_555 1_555
H19 C21 1_555 1_555
H20 C21 1_555 1_555
I1 C1 1_555 1_555
I2 C7 1_555 1_555
O1 C4 1_555 1_555
O2 C10 1_555 1_555
C22 H21 1_555 1_555
H22 C22 1_555 1_555
O3 C22 1_555 1_555
C23 H23 1_555 1_555
H24 C23 1_555 1_555
C24 H25 1_555 1_555
H26 C24 1_555 1_555
O4 C23 1_555 1_555
C1C C2C 1_555 1_555
C2C C3C 1_555 1_555
C3C C4I 1_555 1_555
C4I C5I 1_555 1_555
C5I C6C 1_555 1_555
C6C H1C 1_555 1_555
C10I C9 1_555 1_555
C11I C12 1_555 1_555
C13I H3I 1_555 1_555
H4I C13I 1_555 1_555
C14I C13I 1_555 1_555
H5I C14I 1_555 1_555
H6I C14I 1_555 1_555
C15I C5I 1_555 1_555
H7I C15I 1_555 1_555
C16I C15I 1_555 1_555
H8I C16I 1_555 1_555
H9I C16I 1_555 1_555
C17I C16I 1_555 1_555
H10I C17I 1_555 1_555
H11I C17I 1_555 1_555
C18I C17I 1_555 1_555
H12I C18I 1_555 1_555
H13I C18I 1_555 1_555
C19I C18I 1_555 1_555
H14I C19I 1_555 1_555
H15I C19I 1_555 1_555
C20I C19I 1_555 1_555
H16I C20I 1_555 1_555
H17I C20I 1_555 1_555
C21I C20I 1_555 1_555
H18I C21I 1_555 1_555
H19I C21I 1_555 1_555
H20I C21I 1_555 1_555
I1C C1C 1_555 1_555
O1I C4I 1_555 1_555
O2I C10I 1_555 1_555
C4J C3 1_555 1_555
C5J C6 1_555 1_555
C7C C8C 1_555 1_555
C8C C9C 1_555 1_555
C9C C10J 1_555 1_555
C10J C11J 1_555 1_555
C11J C12C 1_555 1_555
C12C H2C 1_555 1_555
C13J H3J 1_555 1_555
H4J C13J 1_555 1_555
C14J C13J 1_555 1_555
H5J C14J 1_555 1_555
H6J C14J 1_555 1_555
C15J C5J 1_555 1_555
H7J C15J 1_555 1_555
C16J C15J 1_555 1_555
H8J C16J 1_555 1_555
H9J C16J 1_555 1_555
C17J C16J 1_555 1_555
H10J C17J 1_555 1_555
H11J C17J 1_555 1_555
C18J C17J 1_555 1_555
H12J C18J 1_555 1_555
H13J C18J 1_555 1_555
C19J C18J 1_555 1_555
H14J C19J 1_555 1_555
H15J C19J 1_555 1_555
C20J C19J 1_555 1_555
H16J C20J 1_555 1_555
H17J C20J 1_555 1_555
C21J C20J 1_555 1_555
H18J C21J 1_555 1_555
H19J C21J 1_555 1_555
H20J C21J 1_555 1_555
I2C C7C 1_555 1_555
O1J C4J 1_555 1_555
O2J C10J 1_555 1_555
C4C C3C 1_555 1_555
C5C C6C 1_555 1_555
C10C C9C 1_555 1_555
C11C C12C 1_555 1_555
C13C H3C 1_555 1_555
H4C C13C 1_555 1_555
C14C C13C 1_555 1_555
H5C C14C 1_555 1_555
H6C C14C 1_555 1_555
C15C C5C 1_555 1_555
H7C C15C 1_555 1_555
C16C C15C 1_555 1_555
H8C C16C 1_555 1_555
H9C C16C 1_555 1_555
C17C C16C 1_555 1_555
H10C C17C 1_555 1_555
H11C C17C 1_555 1_555
C18C C17C 1_555 1_555
H12C C18C 1_555 1_555
H13C C18C 1_555 1_555
C19C C18C 1_555 1_555
H14C C19C 1_555 1_555
H15C C19C 1_555 1_555
C20C C19C 1_555 1_555
H16C C20C 1_555 1_555
H17C C20C 1_555 1_555
C21C C20C 1_555 1_555
H18C C21C 1_555 1_555
H19C C21C 1_555 1_555
H20C C21C 1_555 1_555
O1C C4C 1_555 1_555
O2C C10C 1_555 1_555
C22B C22 1_555 1_555
H21B C22B 1_555 1_555
H22B C22B 1_555 1_555
O3B C22B 1_555 1_555
C22H O3B 1_555 1_555
H21H C22H 1_555 1_555
H22H C22H 1_555 1_555
C22J O3 1_555 1_555
H21J C22J 1_555 1_555
H22J C22J 1_555 1_555
C23B C23 1_555 1_555
H23B C23B 1_555 1_555
H24B C23B 1_555 1_555
C24B C24 1_555 1_555
H25B C24B 1_555 1_555
H26B C24B 1_555 1_555
O4B C23B 1_555 1_555
C11 C15 1_555 1_555
C13 O1 1_555 1_555
C14 O2 1_555 1_555
C24 O4 1_555 1_555
C10I C11I 1_555 1_555
C11I C15I 1_555 1_555
C13I O1I 1_555 1_555
C14I O2I 1_555 1_555
C4J C5J 1_555 1_555
C11J C15J 1_555 1_555
C13J O1J 1_555 1_555
C14J O2J 1_555 1_555
C4C C5C 1_555 1_555
C10C C11C 1_555 1_555
C11C C15C 1_555 1_555
C13C O1C 1_555 1_555
C14C O2C 1_555 1_555
C22H C22J 1_555 1_555
C24B O4B 1_555 1_555

#END
