
#######################################################################
#
#                 Cambridge Crystallographic Data Centre
#                                CCDC 
#
#######################################################################
#
# If this CIF has been generated from an entry in the Cambridge 
# Structural Database, then it will include bibliographic, chemical, 
# crystal, experimental, refinement or atomic coordinate data resulting 
# from the CCDC's data processing and validation procedures.
#
#######################################################################

data_LENYOU
_chemical_formula_moiety         'C20 H16 Cl1 N3 O5'
_chemical_name_systematic        
5'-Chloro-1,3-dimethyl-8,9-dihydrospiro[chromeno[2,3-d]pyrimidine-5,3'-indole]-2,2',4,6(1H,1'H,3H,7H)-tetrone
_symmetry_cell_setting           triclinic
_symmetry_space_group_name_H-M   'P -1'
_symmetry_Int_Tables_number      2
_space_group_name_Hall           '-P 1'
loop_
_symmetry_equiv_pos_site_id
_symmetry_equiv_pos_as_xyz
1 x,y,z
2 -x,-y,-z
_cell_length_a                   11.248(5)
_cell_length_b                   11.714(4)
_cell_length_c                   16.682(5)
_cell_angle_alpha                73.15(3)
_cell_angle_beta                 82.659(10)
_cell_angle_gamma                79.374(13)
_cell_volume                     2061.1
_cell_formula_units_Z            4
loop_
_atom_site_label
_atom_site_type_symbol
_atom_site_fract_x
_atom_site_fract_y
_atom_site_fract_z
Cl1 Cl 0.4113(2) 0.3344(2) 0.95920(16)
O1 O -0.0783(5) 0.0972(6) 0.8159(4)
O2 O -0.0530(7) 0.3776(7) 0.8024(4)
O3 O 0.2355(5) 0.1768(5) 0.6403(3)
O4 O 0.1862(6) -0.0728(5) 0.9179(3)
O5 O 0.4060(6) -0.2151(6) 0.7099(4)
N1 N 0.3051(6) -0.1409(6) 0.8146(4)
N2 N 0.3165(5) -0.0196(5) 0.6766(3)
N3 N -0.0159(6) 0.1329(6) 0.9314(4)
H1 H -0.0751 0.1114 0.9674
C1 C 0.2482(6) 0.0748(6) 0.7024(4)
C2 C 0.2258(6) -0.0494(6) 0.8439(4)
C3 C 0.2639(6) 0.2504(6) 0.8792(4)
H2 H 0.3173 0.2688 0.8316
C4 C 0.1594(7) 0.2732(7) 0.6561(4)
C5 C 0.1182(6) 0.1677(6) 0.8079(4)
C6 C 0.0991(6) 0.2732(6) 0.7313(4)
C7 C 0.1987(6) 0.0643(6) 0.7834(4)
C8 C 0.1651(6) 0.2010(6) 0.8789(4)
C9 C 0.0811(6) 0.1765(6) 0.9498(4)
C10 C 0.2832(7) 0.2732(7) 0.9554(5)
C11 C 0.1510(8) 0.3774(8) 0.5785(5)
H3 H 0.2317 0.3854 0.5512
H4 H 0.1031 0.3613 0.5397
C12 C 0.2053(8) 0.2488(8) 1.0256(5)
H5 H 0.2202 0.2659 1.0741
C13 C 0.0107(8) 0.3789(8) 0.7366(6)
C14 C -0.0072(7) 0.1279(7) 0.8504(5)
C15 C 0.1012(7) 0.1972(7) 1.0243(4)
H6 H 0.0481 0.1778 1.0720
C16 C 0.3473(7) -0.1325(7) 0.7332(5)
C17 C 0.3401(11) -0.2565(8) 0.8764(6)
H7 H 0.3934 -0.3102 0.8491
H8 H 0.2689 -0.2915 0.9014
H9 H 0.3811 -0.2433 0.9193
C18 C -0.0087(13) 0.4827(11) 0.6606(8)
H10 H -0.0786 0.4757 0.6348
H11 H -0.0273 0.5568 0.6778
C19 C 0.3616(9) -0.0027(9) 0.5880(5)
H12 H 0.3336 0.0785 0.5565
H13 H 0.3319 -0.0583 0.5659
H14 H 0.4487 -0.0173 0.5836
C20 C 0.0952(15) 0.4913(9) 0.5979(7)
H15 H 0.1566 0.5225 0.6177
H16 H 0.0693 0.5496 0.5464
Cl2 Cl -0.0339(2) 0.8669(3) 0.47150(18)
O6 O 0.4538(8) 0.9053(7) 0.3290(5)
O7 O 0.3666(5) 0.4468(5) 0.4196(3)
O8 O 0.2822(7) 0.3263(6) 0.1998(4)
O9 O 0.5985(5) 0.6158(6) 0.3300(4)
O10 O 0.3271(5) 0.7162(4) 0.1479(3)
N4 N 0.4760(6) 0.6514(6) 0.4455(4)
H17 H 0.5290 0.6267 0.4821
N5 N 0.3215(6) 0.3862(5) 0.3110(4)
N6 N 0.3084(6) 0.5193(6) 0.1765(4)
C21 C 0.3488(6) 0.5940(6) 0.2884(4)
C22 C 0.3287(6) 0.6101(6) 0.2081(4)
C23 C 0.3472(6) 0.4732(6) 0.3448(4)
C24 C 0.3783(6) 0.6928(6) 0.3205(4)
C25 C 0.3874(6) 0.8039(6) 0.2467(4)
C26 C 0.2928(6) 0.7220(6) 0.3926(4)
C27 C 0.3606(6) 0.8107(6) 0.1695(4)
C28 C 0.3568(7) 0.6970(7) 0.4633(4)
C29 C 0.1195(8) 0.8002(7) 0.4686(5)
C30 C 0.1714(7) 0.7748(6) 0.3932(5)
H18 H 0.1272 0.7922 0.3465
C31 C 0.4413(9) 1.0018(8) 0.1064(6)
H19 H 0.5259 0.9654 0.1029
H20 H 0.4310 1.0775 0.0626
C32 C 0.3025(7) 0.4058(7) 0.2280(5)
C33 C 0.3035(10) 0.7226(8) 0.5365(5)
H21 H 0.3474 0.7054 0.5833
C34 C 0.5010(6) 0.6496(7) 0.3637(4)
C35 C 0.4209(8) 0.9101(8) 0.2622(5)
C36 C 0.3138(9) 0.2656(7) 0.3665(6)
H22 H 0.2956 0.2152 0.3349
H23 H 0.2508 0.2705 0.4106
H24 H 0.3899 0.2318 0.3905
C37 C 0.3613(8) 0.9176(7) 0.0940(5)
H25 H 0.2793 0.9602 0.0859
H26 H 0.3920 0.8909 0.0443
C38 C 0.1819(8) 0.7749(9) 0.5382(5)
H27 H 0.1432 0.7926 0.5869
C39 C 0.4063(11) 1.0250(8) 0.1915(7)
H28 H 0.4566 1.0794 0.1992
H29 H 0.3225 1.0641 0.1936
C40 C 0.2790(9) 0.5473(9) 0.0882(5)
H30 H 0.2677 0.4747 0.0764
H31 H 0.3444 0.5806 0.0514
H32 H 0.2059 0.6049 0.0796
loop_
_geom_bond_atom_site_label_1
_geom_bond_atom_site_label_2
_geom_bond_site_symmetry_1
_geom_bond_site_symmetry_2
Cl1 C10 1_555 1_555
O1 C14 1_555 1_555
O2 C13 1_555 1_555
O3 C1 1_555 1_555
O4 C2 1_555 1_555
O5 C16 1_555 1_555
N1 C2 1_555 1_555
N2 C1 1_555 1_555
N3 H1 1_555 1_555
C1 C7 1_555 1_555
C2 C7 1_555 1_555
C3 H2 1_555 1_555
C4 O3 1_555 1_555
C5 C6 1_555 1_555
C6 C4 1_555 1_555
C7 C5 1_555 1_555
C8 C3 1_555 1_555
C9 N3 1_555 1_555
C10 C3 1_555 1_555
C11 C4 1_555 1_555
H3 C11 1_555 1_555
H4 C11 1_555 1_555
C12 C10 1_555 1_555
H5 C12 1_555 1_555
C13 C6 1_555 1_555
C14 N3 1_555 1_555
C15 C9 1_555 1_555
H6 C15 1_555 1_555
C16 N1 1_555 1_555
C17 N1 1_555 1_555
H7 C17 1_555 1_555
H8 C17 1_555 1_555
H9 C17 1_555 1_555
C18 C13 1_555 1_555
H10 C18 1_555 1_555
H11 C18 1_555 1_555
C19 N2 1_555 1_555
H12 C19 1_555 1_555
H13 C19 1_555 1_555
H14 C19 1_555 1_555
C20 C11 1_555 1_555
H15 C20 1_555 1_555
H16 C20 1_555 1_555
Cl2 C29 1_555 1_555
O6 C35 1_555 1_555
O7 C23 1_555 1_555
O8 C32 1_555 1_555
O9 C34 1_555 1_555
O10 C22 1_555 1_555
N4 H17 1_555 1_555
N5 C23 1_555 1_555
N6 C22 1_555 1_555
C21 C22 1_555 1_555
C23 C21 1_555 1_555
C24 C21 1_555 1_555
C25 C24 1_555 1_555
C26 C24 1_555 1_555
C27 O10 1_555 1_555
C28 N4 1_555 1_555
C29 C30 1_555 1_555
C30 C26 1_555 1_555
H18 C30 1_555 1_555
C31 H19 1_555 1_555
H20 C31 1_555 1_555
C32 N5 1_555 1_555
C33 C28 1_555 1_555
H21 C33 1_555 1_555
C34 N4 1_555 1_555
C35 C25 1_555 1_555
C36 N5 1_555 1_555
H22 C36 1_555 1_555
H23 C36 1_555 1_555
H24 C36 1_555 1_555
C37 C27 1_555 1_555
H25 C37 1_555 1_555
H26 C37 1_555 1_555
C38 C29 1_555 1_555
H27 C38 1_555 1_555
C39 C31 1_555 1_555
H28 C39 1_555 1_555
H29 C39 1_555 1_555
C40 N6 1_555 1_555
H30 C40 1_555 1_555
H31 C40 1_555 1_555
H32 C40 1_555 1_555
N2 C16 1_555 1_555
C5 C8 1_555 1_555
C5 C14 1_555 1_555
C8 C9 1_555 1_555
C12 C15 1_555 1_555
C18 C20 1_555 1_555
N6 C32 1_555 1_555
C24 C34 1_555 1_555
C25 C27 1_555 1_555
C26 C28 1_555 1_555
C31 C37 1_555 1_555
C33 C38 1_555 1_555
C35 C39 1_555 1_555

#END
