
#######################################################################
#
#                 Cambridge Crystallographic Data Centre
#                                CCDC 
#
#######################################################################
#
# If this CIF has been generated from an entry in the Cambridge 
# Structural Database, then it will include bibliographic, chemical, 
# crystal, experimental, refinement or atomic coordinate data resulting 
# from the CCDC's data processing and validation procedures.
#
#######################################################################

data_LENYAG
_chemical_formula_moiety         'C11 H15 Cl1 N6 O2'
_chemical_name_systematic        
1-((6-Chloropyridin-3-yl)methyl)-2-(2-methylpropylidene)-N'-nitrohydrazinecarboximidamide
_symmetry_cell_setting           monoclinic
_symmetry_space_group_name_H-M   'P 21/c'
_symmetry_Int_Tables_number      14
_space_group_name_Hall           '-P 2ybc'
loop_
_symmetry_equiv_pos_site_id
_symmetry_equiv_pos_as_xyz
1 x,y,z
2 -x,1/2+y,1/2-z
3 -x,-y,-z
4 x,1/2-y,1/2+z
_cell_length_a                   8.738(2)
_cell_length_b                   17.846(4)
_cell_length_c                   9.701(3)
_cell_angle_alpha                90
_cell_angle_beta                 114.164(4)
_cell_angle_gamma                90
_cell_volume                     1380.21
_exptl_crystal_colour            colorless
_exptl_crystal_description       block
_cell_formula_units_Z            4
loop_
_atom_site_label
_atom_site_type_symbol
_atom_site_fract_x
_atom_site_fract_y
_atom_site_fract_z
Cl1 Cl 0.01087(8) 0.47365(3) 0.79603(6)
O1 O -0.4068(2) 0.24408(10) -0.08430(17)
O2 O -0.4002(2) 0.18062(9) 0.10720(18)
N1 N 0.1441(2) 0.36383(9) 0.13809(18)
N2 N 0.0602(2) 0.31285(8) 0.19083(17)
N3 N -0.1518(2) 0.32805(9) -0.04530(18)
H1 H -0.2535 0.3188 -0.1136
H2 H -0.0861 0.3593 -0.0660
N4 N -0.1768(2) 0.24622(9) 0.14148(18)
N5 N -0.3331(2) 0.22401(10) 0.04899(19)
N6 N 0.1913(2) 0.38248(10) 0.70949(19)
C1 C 0.5065(3) 0.39641(17) 0.1277(3)
H3 H 0.4468 0.3626 0.0429
H4 H 0.5793 0.3670 0.2155
H5 H 0.5748 0.4315 0.0993
C2 C 0.4635(4) 0.50101(17) 0.2826(4)
H6 H 0.3775 0.5292 0.3011
H7 H 0.5248 0.5350 0.2439
H8 H 0.5417 0.4783 0.3773
C3 C 0.3804(3) 0.43985(13) 0.1672(3)
H9 H 0.2974 0.4637 0.0730
C4 C 0.2887(2) 0.38679(11) 0.2262(2)
H10 H 0.3382 0.3705 0.3283
C5 C -0.0978(2) 0.29520(10) 0.0876(2)
C6 C 0.1303(2) 0.28326(10) 0.3450(2)
H11 H 0.2524 0.2756 0.3780
H12 H 0.0790 0.2338 0.3455
C7 C 0.1013(2) 0.33443(10) 0.4564(2)
C8 C 0.2173(2) 0.34023(11) 0.6044(2)
H13 H 0.3199 0.3135 0.6341
C9 C 0.0466(3) 0.41880(10) 0.6628(2)
C10 C -0.0755(2) 0.41729(11) 0.5196(2)
H14 H -0.1766 0.4449 0.4931
C11 C -0.0469(2) 0.37455(11) 0.4158(2)
H15 H -0.1292 0.3723 0.3147
loop_
_geom_bond_atom_site_label_1
_geom_bond_atom_site_label_2
_geom_bond_site_symmetry_1
_geom_bond_site_symmetry_2
Cl1 C9 1_555 1_555
O1 N5 1_555 1_555
O2 N5 1_555 1_555
N1 N2 1_555 1_555
N2 C5 1_555 1_555
N3 H1 1_555 1_555
H2 N3 1_555 1_555
N4 N5 1_555 1_555
N6 C8 1_555 1_555
C1 H3 1_555 1_555
H4 C1 1_555 1_555
H5 C1 1_555 1_555
C2 H6 1_555 1_555
H7 C2 1_555 1_555
H8 C2 1_555 1_555
C3 C1 1_555 1_555
H9 C3 1_555 1_555
C4 N1 1_555 1_555
H10 C4 1_555 1_555
C5 N3 1_555 1_555
C6 N2 1_555 1_555
H11 C6 1_555 1_555
H12 C6 1_555 1_555
C7 C6 1_555 1_555
C8 C7 1_555 1_555
H13 C8 1_555 1_555
C9 N6 1_555 1_555
C10 C9 1_555 1_555
H14 C10 1_555 1_555
C11 C7 1_555 1_555
H15 C11 1_555 1_555
N4 C5 1_555 1_555
C2 C3 1_555 1_555
C3 C4 1_555 1_555
C10 C11 1_555 1_555

#END
