
#######################################################################
#
#                 Cambridge Crystallographic Data Centre
#                                CCDC 
#
#######################################################################
#
# If this CIF has been generated from an entry in the Cambridge 
# Structural Database, then it will include bibliographic, chemical, 
# crystal, experimental, refinement or atomic coordinate data resulting 
# from the CCDC's data processing and validation procedures.
#
#######################################################################

data_LEPBIT
_chemical_name_common            (+)-Ficine
_chemical_formula_moiety         'C20 H19 N1 O4'
_chemical_name_systematic        
(+)-(R)-5,7-dihydroxy-8-(1-methylpyrrolidin-2-yl)-2-phenyl-4H-chromen-4-one
_chemical_properties_biological  'Kinase inhibitory activity'
_symmetry_cell_setting           monoclinic
_symmetry_space_group_name_H-M   'P 21'
_symmetry_Int_Tables_number      4
_space_group_name_Hall           'P 2yb'
loop_
_symmetry_equiv_pos_site_id
_symmetry_equiv_pos_as_xyz
1 x,y,z
2 -x,1/2+y,-z
_cell_length_a                   6.0578(3)
_cell_length_b                   18.0554(8)
_cell_length_c                   15.3871(10)
_cell_angle_alpha                90
_cell_angle_beta                 91.395(6)
_cell_angle_gamma                90
_cell_volume                     1682.48
_exptl_crystal_colour            'pale yellow'
_exptl_crystal_description       needle
_cell_formula_units_Z            4
_exptl_crystal_recrystallization_method methanol
loop_
_atom_site_label
_atom_site_type_symbol
_atom_site_fract_x
_atom_site_fract_y
_atom_site_fract_z
O1 O 0.0693(7) 0.2768(2) 0.3766(2)
O2 O -0.5236(8) 0.1300(2) 0.2712(3)
H1 H -0.4551 0.0982 0.3012
O3 O -0.3964(8) 0.3605(2) 0.1396(3)
H2 H -0.3060 0.3957 0.1425
O4 O -0.0532(7) 0.4350(2) 0.1919(2)
N1 N -0.2132(8) 0.0688(2) 0.3669(3)
C1 C -0.2178(11) 0.2019(3) 0.3256(3)
C2 C -0.4066(12) 0.1922(4) 0.2694(4)
C3 C -0.4633(12) 0.2466(4) 0.2074(4)
H3 H -0.5885 0.2398 0.1699
C4 C -0.3405(13) 0.3084(4) 0.2010(4)
C5 C -0.1518(11) 0.3208(3) 0.2546(3)
C6 C -0.0187(11) 0.3864(3) 0.2500(4)
C7 C 0.1597(10) 0.3939(3) 0.3150(3)
H4 H 0.2512 0.4367 0.3154
C8 C 0.1940(10) 0.3399(3) 0.3743(3)
C9 C -0.1059(11) 0.2672(3) 0.3168(4)
C10 C 0.3583(12) 0.3441(3) 0.4460(3)
C11 C 0.5512(12) 0.3828(3) 0.4348(3)
H5 H 0.5786 0.4061 0.3808
C12 C 0.7059(11) 0.3876(3) 0.5027(4)
H6 H 0.8398 0.4140 0.4952
C13 C 0.6644(12) 0.3540(4) 0.5810(4)
H7 H 0.7691 0.3585 0.6276
C14 C 0.4766(13) 0.3147(4) 0.5927(4)
H8 H 0.4515 0.2916 0.6470
C15 C 0.3196(11) 0.3080(3) 0.5247(4)
H9 H 0.1893 0.2796 0.5320
C16 C -0.1606(11) 0.1455(3) 0.3954(3)
H10 H -0.0008 0.1494 0.4126
C17 C -0.3064(15) 0.1544(4) 0.4768(4)
H11 H -0.2192 0.1762 0.5257
H12 H -0.4340 0.1871 0.4635
C18 C -0.3831(13) 0.0785(5) 0.4996(4)
H13 H -0.5425 0.0728 0.4856
H14 H -0.3579 0.0687 0.5624
C19 C -0.2495(13) 0.0266(4) 0.4462(4)
H15 H -0.1077 0.0142 0.4761
H16 H -0.3317 -0.0196 0.4334
C20 C -0.0315(12) 0.0366(4) 0.3173(4)
H17 H 0.1061 0.0396 0.3520
H18 H -0.0150 0.0643 0.2630
H19 H -0.0648 -0.0153 0.3040
O5 O -0.4374(7) 0.1852(2) 0.8773(2)
O6 O -1.0303(7) 0.3323(2) 0.7721(2)
H20 H -0.9767 0.3613 0.8097
O7 O -0.9147(8) 0.0978(3) 0.6469(3)
H21 H -0.8258 0.0622 0.6511
O8 O -0.5813(8) 0.0219(2) 0.7014(2)
N2 N -0.8340(9) 0.3710(3) 0.9148(3)
C21 C -0.7276(11) 0.2616(3) 0.8269(4)
C22 C -0.9096(13) 0.2698(4) 0.7706(4)
C23 C -0.9750(11) 0.2148(4) 0.7107(4)
H22 H -1.1026 0.2221 0.6746
C24 C -0.8555(11) 0.1508(4) 0.7042(4)
C25 C -0.6649(11) 0.1389(3) 0.7599(3)
C26 C -0.5377(12) 0.0728(3) 0.7555(4)
C27 C -0.3651(10) 0.0674(3) 0.8186(3)
H23 H -0.2787 0.0235 0.8198
C28 C -0.3156(11) 0.1207(3) 0.8772(3)
C29 C -0.6131(12) 0.1958(4) 0.8198(4)
C30 C -0.1447(11) 0.1211(3) 0.9457(3)
C31 C 0.0439(11) 0.0790(3) 0.9352(4)
H24 H 0.0638 0.0523 0.8828
C32 C 0.2027(12) 0.0759(3) 1.0006(4)
H25 H 0.3334 0.0480 0.9921
C33 C 0.1759(11) 0.1123(3) 1.0781(4)
H26 H 0.2859 0.1094 1.1230
C34 C -0.0147(12) 0.1533(4) 1.0893(4)
H27 H -0.0364 0.1784 1.1427
C35 C -0.1741(11) 0.1580(4) 1.0232(4)
H28 H -0.3036 0.1866 1.0312
C36 C -0.6487(12) 0.3209(4) 0.8887(4)
H29 H -0.5533 0.3026 0.9381
C37 C -0.541(3) 0.3797(5) 0.8320(7)
H30 H -0.3839 0.3670 0.8240
H31 H -0.6155 0.3808 0.7741
C38 C -0.557(2) 0.4548(6) 0.8739(8)
H32 H -0.6071 0.4929 0.8315
H33 H -0.4146 0.4701 0.9009
C39 C -0.730(2) 0.4410(6) 0.9421(8)
H34 H -0.6604 0.4364 1.0007
H35 H -0.8396 0.4817 0.9427
C40 C -0.9387(17) 0.3443(7) 0.9916(5)
H36 H -0.8279 0.3212 1.0304
H37 H -1.0516 0.3076 0.9752
H38 H -1.0080 0.3858 1.0216
C41? C -0.4322(18) 0.3599(8) 0.8809(13)
C42? C -0.561(3) 0.4217(12) 0.8370(12)
C43? C -0.724(4) 0.4430(7) 0.9062(14)
H39? H -0.6228 0.2917 0.9432
H40? H -0.3266 0.3346 0.8428
H41? H -0.3617 0.3739 0.9372
H42? H -0.6382 0.4042 0.7834
H43? H -0.4639 0.4638 0.8226
H44? H -0.6489 0.4587 0.9610
H45? H -0.8273 0.4822 0.8860
loop_
_geom_bond_atom_site_label_1
_geom_bond_atom_site_label_2
_geom_bond_site_symmetry_1
_geom_bond_site_symmetry_2
O1 C8 1_555 1_555
O2 H1 1_555 1_555
O3 H2 1_555 1_555
O4 C6 1_555 1_555
N1 C16 1_555 1_555
C1 C2 1_555 1_555
C2 O2 1_555 1_555
C3 C2 1_555 1_555
H3 C3 1_555 1_555
C4 O3 1_555 1_555
C5 C4 1_555 1_555
C6 C5 1_555 1_555
C7 C6 1_555 1_555
H4 C7 1_555 1_555
C8 C7 1_555 1_555
C9 O1 1_555 1_555
C10 C8 1_555 1_555
C11 C10 1_555 1_555
H5 C11 1_555 1_555
C12 C11 1_555 1_555
H6 C12 1_555 1_555
C13 C12 1_555 1_555
H7 C13 1_555 1_555
C14 C13 1_555 1_555
H8 C14 1_555 1_555
C15 C10 1_555 1_555
H9 C15 1_555 1_555
C16 C1 1_555 1_555
H10 C16 1_555 1_555
C17 C16 1_555 1_555
H11 C17 1_555 1_555
H12 C17 1_555 1_555
C18 C17 1_555 1_555
H13 C18 1_555 1_555
H14 C18 1_555 1_555
C19 N1 1_555 1_555
H15 C19 1_555 1_555
H16 C19 1_555 1_555
C20 N1 1_555 1_555
H17 C20 1_555 1_555
H18 C20 1_555 1_555
H19 C20 1_555 1_555
O5 C28 1_555 1_555
O6 H20 1_555 1_555
O7 H21 1_555 1_555
O8 C26 1_555 1_555
N2 C36 1_555 1_555
C21 C22 1_555 1_555
C22 O6 1_555 1_555
C23 C22 1_555 1_555
H22 C23 1_555 1_555
C24 O7 1_555 1_555
C25 C24 1_555 1_555
C26 C25 1_555 1_555
C27 C26 1_555 1_555
H23 C27 1_555 1_555
C28 C27 1_555 1_555
C29 O5 1_555 1_555
C30 C28 1_555 1_555
C31 C30 1_555 1_555
H24 C31 1_555 1_555
C32 C31 1_555 1_555
H25 C32 1_555 1_555
C33 C32 1_555 1_555
H26 C33 1_555 1_555
C34 C33 1_555 1_555
H27 C34 1_555 1_555
C35 C30 1_555 1_555
H28 C35 1_555 1_555
C36 C21 1_555 1_555
H29 C36 1_555 1_555
C37 C36 1_555 1_555
H30 C37 1_555 1_555
H31 C37 1_555 1_555
C38 C37 1_555 1_555
H32 C38 1_555 1_555
H33 C38 1_555 1_555
C39 N2 1_555 1_555
H34 C39 1_555 1_555
H35 C39 1_555 1_555
C40 N2 1_555 1_555
H36 C40 1_555 1_555
H37 C40 1_555 1_555
H38 C40 1_555 1_555
C1 C9 1_555 1_555
C3 C4 1_555 1_555
C5 C9 1_555 1_555
C14 C15 1_555 1_555
C18 C19 1_555 1_555
C21 C29 1_555 1_555
C23 C24 1_555 1_555
C25 C29 1_555 1_555
C34 C35 1_555 1_555
C38 C39 1_555 1_555

#END
