
#######################################################################
#
#                 Cambridge Crystallographic Data Centre
#                                CCDC 
#
#######################################################################
#
# If this CIF has been generated from an entry in the Cambridge 
# Structural Database, then it will include bibliographic, chemical, 
# crystal, experimental, refinement or atomic coordinate data resulting 
# from the CCDC's data processing and validation procedures.
#
#######################################################################

data_LEPBOZ
_chemical_formula_moiety         'C21 H21 N1 O4'
_chemical_name_systematic        
(+)-(R)-5,7-Dihydroxy-8-(1-methylpiperidin-2-yl)-2-phenyl-4H-chromen-4-one
_chemical_properties_biological  'Kinase inhibitory activity'
_symmetry_cell_setting           monoclinic
_symmetry_space_group_name_H-M   'P 21'
_symmetry_Int_Tables_number      4
_space_group_name_Hall           'P 2yb'
loop_
_symmetry_equiv_pos_site_id
_symmetry_equiv_pos_as_xyz
1 x,y,z
2 -x,1/2+y,-z
_cell_length_a                   6.1232(9)
_cell_length_b                   18.507(3)
_cell_length_c                   15.7632(11)
_cell_angle_alpha                90
_cell_angle_beta                 91.418(6)
_cell_angle_gamma                90
_cell_volume                     1785.77
_exptl_crystal_colour            'pale yellow'
_exptl_crystal_description       stick
_cell_formula_units_Z            4
_exptl_crystal_recrystallization_method methanol
loop_
_atom_site_label
_atom_site_type_symbol
_atom_site_fract_x
_atom_site_fract_y
_atom_site_fract_z
O1 O -0.5777(3) 0.95033(9) 1.13634(10)
O2 O 0.0001(4) 0.80521(11) 1.24534(13)
H1 H -0.0539 0.7765 1.2092
O3 O -0.1489(4) 1.02597(11) 1.37952(12)
H2 H -0.2391 1.0601 1.3767
O4 O -0.4844(4) 1.09849(11) 1.32529(13)
N1 N -0.2971(4) 0.74987(11) 1.13960(15)
C1 C -0.7042(4) 1.01108(13) 1.13999(16)
C2 C -0.6786(5) 1.06041(15) 1.20193(17)
H3 H -0.7727 1.1012 1.2028
C3 C -0.5120(5) 1.05277(14) 1.26683(17)
C4 C -0.3749(4) 0.98986(14) 1.26096(15)
C5 C -0.1954(5) 0.97763(15) 1.31740(16)
C6 C -0.0705(5) 0.91660(15) 1.31010(17)
H4 H 0.0510 0.9090 1.3476
C7 C -0.1221(5) 0.86574(14) 1.24759(16)
C8 C -0.2934(4) 0.87589(13) 1.18792(15)
C9 C -0.4139(4) 0.93897(13) 1.19646(15)
C10 C -0.8625(4) 1.01501(13) 1.06839(16)
C11 C -0.8127(5) 0.98605(15) 0.98934(16)
H5 H -0.6775 0.9621 0.9815
C12 C -0.9628(5) 0.99272(17) 0.92246(18)
H6 H -0.9300 0.9726 0.8688
C13 C -1.1582(5) 1.02788(17) 0.9325(2)
H7 H -1.2583 1.0329 0.8859
C14 C -1.2078(5) 1.05592(15) 1.0109(2)
H8 H -1.3439 1.0795 1.0184
C15 C -1.0617(5) 1.05002(14) 1.07825(18)
H9 H -1.0968 1.0699 1.1318
C16 C -0.3215(5) 0.82592(12) 1.11245(16)
H10 H -0.4697 0.8332 1.0857
C17 C -0.1462(5) 0.84655(17) 1.04883(16)
H11 H -0.1767 0.8959 1.0275
H12 H -0.0021 0.8475 1.0787
C18 C -0.1341(6) 0.79574(19) 0.9741(2)
H13 H -0.2694 0.7995 0.9387
H14 H -0.0088 0.8089 0.9387
C19 C -0.1071(7) 0.7195(2) 1.0063(2)
H15 H 0.0358 0.7147 1.0366
H16 H -0.1095 0.6855 0.9578
C20 C -0.2890(7) 0.70069(16) 1.0659(2)
H17 H -0.4306 0.7028 1.0342
H18 H -0.2680 0.6506 1.0864
C21 C -0.4809(6) 0.72894(19) 1.1926(2)
H19 H -0.6186 0.7364 1.1608
H20 H -0.4799 0.7586 1.2441
H21 H -0.4669 0.6779 1.2082
O5 O 0.5006(3) 1.00267(11) 0.74414(13)
H22 H 0.4692 1.0270 0.7005
O6 O -0.0721(3) 0.85782(8) 0.63109(10)
O7 O 0.0899(4) 0.69164(10) 0.79098(13)
O8 O 0.4069(4) 0.76738(12) 0.85147(15)
H23 H 0.3214 0.7321 0.8458
N2 N 0.3213(4) 1.03393(12) 0.59759(14)
C22 C -0.1834(4) 0.79387(13) 0.62847(15)
C23 C -0.1351(5) 0.73862(15) 0.68039(17)
H24 H -0.2186 0.6955 0.6762
C24 C 0.0404(5) 0.74324(15) 0.74223(17)
C25 C 0.1606(4) 0.81020(14) 0.74291(16)
C26 C 0.3422(5) 0.82122(16) 0.79827(18)
C27 C 0.4562(5) 0.88491(16) 0.79696(19)
H25 H 0.5804 0.8915 0.8334
C28 C 0.3892(4) 0.94004(15) 0.74181(18)
C29 C 0.2073(4) 0.93217(13) 0.68568(16)
C30 C 0.1027(4) 0.86628(13) 0.68779(15)
C31 C -0.3545(4) 0.79300(13) 0.56159(15)
C32 C -0.3320(5) 0.83100(15) 0.48665(16)
H26 H -0.2060 0.8599 0.4787
C33 C -0.4926(5) 0.82698(16) 0.42315(17)
H27 H -0.4759 0.8530 0.3718
C34 C -0.6755(5) 0.78553(16) 0.43431(18)
H28 H -0.7854 0.7828 0.3908
C35 C -0.6992(5) 0.74779(15) 0.50896(19)
H29 H -0.8261 0.7192 0.5167
C36 C -0.5405(5) 0.75111(14) 0.57242(17)
H30 H -0.5580 0.7248 0.6235
C37 C 0.1293(4) 0.99578(14) 0.63295(16)
H31 H 0.0318 0.9783 0.5854
C38 C 0.0025(5) 1.04725(16) 0.6895(2)
H32 H -0.1316 1.0227 0.7082
H33 H 0.0929 1.0586 0.7407
C39 C -0.0612(6) 1.11754(18) 0.6453(2)
H34 H -0.1660 1.1076 0.5979
H35 H -0.1323 1.1503 0.6858
C40 C 0.1417(5) 1.15265(15) 0.6118(2)
H36 H 0.1013 1.1972 0.5805
H37 H 0.2406 1.1662 0.6599
C41 C 0.2572(5) 1.10161(17) 0.5539(2)
H38 H 0.1599 1.0900 0.5047
H39 H 0.3893 1.1255 0.5323
C42 C 0.4357(7) 0.9869(2) 0.5386(2)
H40 H 0.5629 1.0125 0.5168
H41 H 0.3367 0.9739 0.4913
H42 H 0.4841 0.9430 0.5683
loop_
_geom_bond_atom_site_label_1
_geom_bond_atom_site_label_2
_geom_bond_site_symmetry_1
_geom_bond_site_symmetry_2
O1 C1 1_555 1_555
O2 H1 1_555 1_555
O3 H2 1_555 1_555
O4 C3 1_555 1_555
N1 C16 1_555 1_555
C1 C2 1_555 1_555
C2 H3 1_555 1_555
C3 C2 1_555 1_555
C4 C3 1_555 1_555
C5 O3 1_555 1_555
C6 C5 1_555 1_555
H4 C6 1_555 1_555
C7 O2 1_555 1_555
C8 C7 1_555 1_555
C9 O1 1_555 1_555
C10 C1 1_555 1_555
C11 C10 1_555 1_555
H5 C11 1_555 1_555
C12 C11 1_555 1_555
H6 C12 1_555 1_555
C13 C12 1_555 1_555
H7 C13 1_555 1_555
C14 C13 1_555 1_555
H8 C14 1_555 1_555
C15 C10 1_555 1_555
H9 C15 1_555 1_555
C16 C8 1_555 1_555
H10 C16 1_555 1_555
C17 C16 1_555 1_555
H11 C17 1_555 1_555
H12 C17 1_555 1_555
C18 C17 1_555 1_555
H13 C18 1_555 1_555
H14 C18 1_555 1_555
C19 C18 1_555 1_555
H15 C19 1_555 1_555
H16 C19 1_555 1_555
C20 N1 1_555 1_555
H17 C20 1_555 1_555
H18 C20 1_555 1_555
C21 N1 1_555 1_555
H19 C21 1_555 1_555
H20 C21 1_555 1_555
H21 C21 1_555 1_555
O5 H22 1_555 1_555
O6 C22 1_555 1_555
O7 C24 1_555 1_555
O8 H23 1_555 1_555
N2 C37 1_555 1_555
C22 C23 1_555 1_555
C23 H24 1_555 1_555
C24 C23 1_555 1_555
C25 C24 1_555 1_555
C26 O8 1_555 1_555
C27 C26 1_555 1_555
H25 C27 1_555 1_555
C28 O5 1_555 1_555
C29 C28 1_555 1_555
C30 O6 1_555 1_555
C31 C22 1_555 1_555
C32 C31 1_555 1_555
H26 C32 1_555 1_555
C33 C32 1_555 1_555
H27 C33 1_555 1_555
C34 C33 1_555 1_555
H28 C34 1_555 1_555
C35 C34 1_555 1_555
H29 C35 1_555 1_555
C36 C31 1_555 1_555
H30 C36 1_555 1_555
C37 C29 1_555 1_555
H31 C37 1_555 1_555
C38 C37 1_555 1_555
H32 C38 1_555 1_555
H33 C38 1_555 1_555
C39 C38 1_555 1_555
H34 C39 1_555 1_555
H35 C39 1_555 1_555
C40 C39 1_555 1_555
H36 C40 1_555 1_555
H37 C40 1_555 1_555
C41 N2 1_555 1_555
H38 C41 1_555 1_555
H39 C41 1_555 1_555
C42 N2 1_555 1_555
H40 C42 1_555 1_555
H41 C42 1_555 1_555
H42 C42 1_555 1_555
C4 C5 1_555 1_555
C4 C9 1_555 1_555
C6 C7 1_555 1_555
C8 C9 1_555 1_555
C14 C15 1_555 1_555
C19 C20 1_555 1_555
C25 C26 1_555 1_555
C25 C30 1_555 1_555
C27 C28 1_555 1_555
C29 C30 1_555 1_555
C35 C36 1_555 1_555
C40 C41 1_555 1_555

#END
