
#######################################################################
#
#                 Cambridge Crystallographic Data Centre
#                                CCDC 
#
#######################################################################
#
# If this CIF has been generated from an entry in the Cambridge 
# Structural Database, then it will include bibliographic, chemical, 
# crystal, experimental, refinement or atomic coordinate data resulting 
# from the CCDC's data processing and validation procedures.
#
#######################################################################

data_LEPBUF
_chemical_formula_moiety         'C22 H25 N1 O4,0.5(C1 H4 O1)'
_chemical_name_systematic        
'(-)-(S)-5,7-Dihydroxy-8-(1-(methylamino)hexyl)-2-phenyl-4H-chromen-4-onecompound methanol solvate'
_chemical_properties_biological  'Kinase inhibitory activity'
_symmetry_cell_setting           orthorhombic
_symmetry_space_group_name_H-M   'P 21 21 21'
_symmetry_Int_Tables_number      19
_space_group_name_Hall           'P 2ac 2ab'
loop_
_symmetry_equiv_pos_site_id
_symmetry_equiv_pos_as_xyz
1 x,y,z
2 1/2-x,-y,1/2+z
3 1/2+x,1/2-y,-z
4 -x,1/2+y,1/2-z
_cell_length_a                   15.1798(5)
_cell_length_b                   16.5133(5)
_cell_length_c                   18.5796(13)
_cell_angle_alpha                90
_cell_angle_beta                 90
_cell_angle_gamma                90
_cell_volume                     4657.32
_exptl_crystal_colour            'pale yellow'
_exptl_crystal_description       prism
_cell_formula_units_Z            8
_exptl_crystal_recrystallization_method methanol
loop_
_atom_site_label
_atom_site_type_symbol
_atom_site_fract_x
_atom_site_fract_y
_atom_site_fract_z
O5 O -0.57174(14) 0.95731(14) -0.15921(12)
O6 O -0.65856(13) 0.76252(14) 0.01198(12)
H26 H -0.6375 0.7341 0.0453
O7 O -0.31238(15) 0.93662(17) -0.10069(16)
O8 O -0.35540(14) 0.82427(16) -0.01076(14)
H27 H -0.3224 0.8543 -0.0354
N2 N -0.76295(16) 0.79788(14) -0.10033(14)
H28 H -0.7590 0.7751 -0.0589
C23 C -0.5077(2) 1.0033(2) -0.1907(2)
C24 C -0.4225(2) 0.9964(3) -0.1732(2)
H29 H -0.3804 1.0288 -0.1978
C25 C -0.3932(2) 0.9420(2) -0.1188(2)
C26 C -0.45950(19) 0.89290(19) -0.08622(16)
C27 C -0.4411(2) 0.83612(18) -0.03084(18)
C28 C -0.5061(2) 0.79348(19) 0.00078(18)
H30 H -0.4915 0.7555 0.0373
C29 C -0.59545(19) 0.80355(18) -0.01865(16)
C30 C -0.61722(18) 0.85945(17) -0.07468(15)
C31 C -0.54859(19) 0.90185(17) -0.10652(16)
C32 C -0.5433(2) 1.0573(3) -0.2476(2)
C33 C -0.6191(3) 1.0379(3) -0.2850(3)
H31 H -0.6509 0.9903 -0.2728
C34 C -0.6493(3) 1.0872(4) -0.3402(3)
H32 H -0.7006 1.0727 -0.3666
C35 C -0.6044(3) 1.1576(4) -0.3566(3)
H33 H -0.6251 1.1921 -0.3939
C36 C -0.5302(3) 1.1775(4) -0.3190(3)
H34 H -0.4997 1.2260 -0.3306
C37 C -0.4988(3) 1.1289(3) -0.2647(3)
H35 H -0.4472 1.1439 -0.2390
C38 C -0.71197(19) 0.87495(18) -0.09303(16)
H36 H -0.7144 0.9044 -0.1400
C39 C -0.7606(2) 0.9264(2) -0.0356(2)
H37 H -0.8246 0.9259 -0.0459
H38 H -0.7515 0.9019 0.0124
C40 C -0.7276(3) 1.0148(3) -0.0344(3)
H39 H -0.7474 1.0405 0.0109
H40 H -0.6623 1.0144 -0.0340
C41 C -0.7585(5) 1.0664(3) -0.0972(3)
H41 H -0.7402 1.0391 -0.1422
H42 H -0.8237 1.0669 -0.0966
C42 C -0.7287(6) 1.1487(4) -0.1005(4)
H43 H -0.6635 1.1491 -0.0999
H44 H -0.7493 1.1775 -0.0569
C43 C -0.7600(9) 1.1943(5) -0.1661(5)
H45 H -0.7384 1.2501 -0.1640
H46 H -0.8246 1.1944 -0.1672
H47 H -0.7374 1.1679 -0.2096
C44 C -0.7275(3) 0.7412(2) -0.1554(2)
H48 H -0.7171 0.7706 -0.2004
H49 H -0.7701 0.6976 -0.1638
H50 H -0.6719 0.7180 -0.1382
O1 O -0.59743(14) 0.42955(12) 0.16660(12)
O2 O -0.42754(14) 0.66683(13) 0.14353(12)
H1 H -0.3740 0.6707 0.1326
O3 O -0.34012(17) 0.4692(2) 0.31176(17)
H2 H -0.3567 0.4240 0.3274
O4 O -0.4341(2) 0.33885(19) 0.32136(18)
N1 N -0.60539(17) 0.66858(14) 0.12096(13)
H3 H -0.5517 0.6824 0.1280
C1 C -0.6089(2) 0.35343(19) 0.19259(19)
C2 C -0.5563(3) 0.3222(2) 0.2446(2)
H4 H -0.5685 0.2698 0.2632
C3 C -0.4824(3) 0.3672(2) 0.2723(2)
C4 C -0.4682(2) 0.4452(2) 0.24095(18)
C5 C -0.3965(2) 0.4948(2) 0.26000(19)
C6 C -0.3831(2) 0.5667(2) 0.22650(18)
H5 H -0.3323 0.5975 0.2385
C7 C -0.44164(19) 0.59704(18) 0.17485(17)
C8 C -0.51704(18) 0.55063(17) 0.15603(16)
C9 C -0.5267(2) 0.47593(19) 0.18840(17)
C10 C -0.6832(3) 0.3114(2) 0.15929(19)
C11 C -0.7511(3) 0.3552(3) 0.1294(2)
H6 H -0.7491 0.4127 0.1288
C12 C -0.8230(4) 0.3140(4) 0.0996(4)
H7 H -0.8699 0.3441 0.0789
C13 C -0.8272(5) 0.2319(4) 0.0998(4)
H8 H -0.8774 0.2047 0.0812
C14 C -0.7563(6) 0.1879(4) 0.1280(3)
H9 H -0.7568 0.1304 0.1262
C15 C -0.6854(4) 0.2280(3) 0.1586(3)
H10 H -0.6383 0.1980 0.1792
C16 C -0.5834(2) 0.58161(17) 0.10158(16)
H11 H -0.6383 0.5486 0.1063
C17 C -0.5520(3) 0.5760(2) 0.0242(2)
H12 H -0.4918 0.5986 0.0205
H13 H -0.5912 0.6087 -0.0069
C18 C -0.5516(5) 0.4877(3) -0.0024(3)
H14 H -0.5072 0.4585 0.0268
H15 H -0.6096 0.4644 0.0102
C19 C -0.5358(8) 0.4678(5) -0.0731(4)
H16 H -0.4727 0.4776 -0.0834
H17 H -0.5704 0.5047 -0.1041
C20 C -0.5591(7) 0.3750(4) -0.0957(5)
H18 H -0.5280 0.3380 -0.0624
H19 H -0.6231 0.3664 -0.0889
C21 C -0.5378(10) 0.3542(7) -0.1643(6)
H20 H -0.5533 0.2974 -0.1727
H21 H -0.4744 0.3616 -0.1716
H22 H -0.5703 0.3887 -0.1980
C22 C -0.6651(3) 0.6759(2) 0.1831(2)
H23 H -0.7215 0.6499 0.1718
H24 H -0.6750 0.7333 0.1939
H25 H -0.6386 0.6493 0.2250
loop_
_geom_bond_atom_site_label_1
_geom_bond_atom_site_label_2
_geom_bond_site_symmetry_1
_geom_bond_site_symmetry_2
O1 C1 1_555 1_555
O2 H1 1_555 1_555
O3 H2 1_555 1_555
O4 C3 1_555 1_555
N1 H3 1_555 1_555
C1 C2 1_555 1_555
C2 H4 1_555 1_555
C3 C2 1_555 1_555
C4 C3 1_555 1_555
C5 O3 1_555 1_555
C6 C5 1_555 1_555
H5 C6 1_555 1_555
C7 O2 1_555 1_555
C8 C7 1_555 1_555
C9 O1 1_555 1_555
C10 C1 1_555 1_555
C11 C10 1_555 1_555
H6 C11 1_555 1_555
C12 C11 1_555 1_555
H7 C12 1_555 1_555
C13 C12 1_555 1_555
H8 C13 1_555 1_555
C14 C13 1_555 1_555
H9 C14 1_555 1_555
C15 C10 1_555 1_555
H10 C15 1_555 1_555
C16 N1 1_555 1_555
H11 C16 1_555 1_555
C17 C16 1_555 1_555
H12 C17 1_555 1_555
H13 C17 1_555 1_555
C18 C17 1_555 1_555
H14 C18 1_555 1_555
H15 C18 1_555 1_555
C19 C18 1_555 1_555
H16 C19 1_555 1_555
H17 C19 1_555 1_555
C20 C19 1_555 1_555
H18 C20 1_555 1_555
H19 C20 1_555 1_555
C21 C20 1_555 1_555
H20 C21 1_555 1_555
H21 C21 1_555 1_555
H22 C21 1_555 1_555
C22 N1 1_555 1_555
H23 C22 1_555 1_555
H24 C22 1_555 1_555
H25 C22 1_555 1_555
O5 C23 1_555 1_555
O6 H26 1_555 1_555
O7 C25 1_555 1_555
O8 H27 1_555 1_555
N2 H28 1_555 1_555
C23 C24 1_555 1_555
C24 H29 1_555 1_555
C25 C24 1_555 1_555
C26 C25 1_555 1_555
C27 O8 1_555 1_555
C28 C27 1_555 1_555
H30 C28 1_555 1_555
C29 O6 1_555 1_555
C30 C29 1_555 1_555
C31 O5 1_555 1_555
C32 C23 1_555 1_555
C33 C32 1_555 1_555
H31 C33 1_555 1_555
C34 C33 1_555 1_555
H32 C34 1_555 1_555
C35 C34 1_555 1_555
H33 C35 1_555 1_555
C36 C35 1_555 1_555
H34 C36 1_555 1_555
C37 C32 1_555 1_555
H35 C37 1_555 1_555
C38 N2 1_555 1_555
H36 C38 1_555 1_555
C39 C38 1_555 1_555
H37 C39 1_555 1_555
H38 C39 1_555 1_555
C40 C39 1_555 1_555
H39 C40 1_555 1_555
H40 C40 1_555 1_555
C41 C40 1_555 1_555
H41 C41 1_555 1_555
H42 C41 1_555 1_555
C42 C41 1_555 1_555
H43 C42 1_555 1_555
H44 C42 1_555 1_555
C43 C42 1_555 1_555
H45 C43 1_555 1_555
H46 C43 1_555 1_555
H47 C43 1_555 1_555
C44 N2 1_555 1_555
H48 C44 1_555 1_555
H49 C44 1_555 1_555
H50 C44 1_555 1_555
C4 C5 1_555 1_555
C4 C9 1_555 1_555
C6 C7 1_555 1_555
C8 C9 1_555 1_555
C8 C16 1_555 1_555
C14 C15 1_555 1_555
C26 C27 1_555 1_555
C26 C31 1_555 1_555
C28 C29 1_555 1_555
C30 C31 1_555 1_555
C30 C38 1_555 1_555
C36 C37 1_555 1_555

#END
