
#######################################################################
#
#                 Cambridge Crystallographic Data Centre
#                                CCDC 
#
#######################################################################
#
# If this CIF has been generated from an entry in the Cambridge 
# Structural Database, then it will include bibliographic, chemical, 
# crystal, experimental, refinement or atomic coordinate data resulting 
# from the CCDC's data processing and validation procedures.
#
#######################################################################

data_LEPCUG
_chemical_formula_moiety         'C22 H23 Cl1 N2 O3,0.33(H2 O1)'
_chemical_name_systematic        
'7-Chloro-3-methyl-2-(4-(2-(morpholin-4-yl)ethoxy)phenyl)quinolin-4(1H)-one hydrate'
_symmetry_cell_setting           monoclinic
_symmetry_space_group_name_H-M   'P 21/c'
_symmetry_Int_Tables_number      14
_space_group_name_Hall           '-P 2ybc'
loop_
_symmetry_equiv_pos_site_id
_symmetry_equiv_pos_as_xyz
1 x,y,z
2 -x,1/2+y,1/2-z
3 -x,-y,-z
4 x,1/2-y,1/2+z
_cell_length_a                   13.3882(17)
_cell_length_b                   13.5904(17)
_cell_length_c                   11.8219(15)
_cell_angle_alpha                90
_cell_angle_beta                 113.6750(10)
_cell_angle_gamma                90
_cell_volume                     1969.97
_exptl_crystal_colour            colorless
_exptl_crystal_description       plate
_chemical_melting_point          '200-202 deg.C'
_cell_formula_units_Z            4
loop_
_atom_site_label
_atom_site_type_symbol
_atom_site_fract_x
_atom_site_fract_y
_atom_site_fract_z
Cl1 Cl 0.72878(4) 0.04920(3) 0.02621(4)
O1 O 0.49802(10) 0.38051(8) 0.26962(10)
O2 O 0.13703(9) -0.06967(8) 0.47122(10)
O3 O -0.07437(10) -0.39237(9) 0.52174(12)
N1 N 0.46360(11) 0.08315(10) 0.23367(12)
N2 N 0.01063(11) -0.19718(10) 0.54969(13)
C1 C 0.65551(13) 0.11874(12) 0.09013(14)
C2 C 0.58674(13) 0.07185(11) 0.13228(14)
C3 C 0.53139(12) 0.12861(11) 0.18856(14)
C4 C 0.40948(12) 0.13441(11) 0.29040(14)
C5 C 0.41769(13) 0.23509(11) 0.30242(14)
C6 C 0.48808(13) 0.28895(11) 0.25888(14)
C7 C 0.54669(12) 0.23106(11) 0.20114(14)
C8 C 0.61799(13) 0.27563(11) 0.15535(15)
C9 C 0.67213(13) 0.22100(12) 0.10027(15)
C10 C 0.35379(15) 0.29372(12) 0.35821(17)
C11 C 0.34172(13) 0.07474(11) 0.33875(15)
C12 C 0.24267(13) 0.03378(11) 0.25985(15)
C13 C 0.17664(13) -0.01456(12) 0.30678(15)
C14 C 0.20990(13) -0.02456(11) 0.43370(15)
C15 C 0.16796(14) -0.08162(13) 0.60141(15)
C16 C 0.06908(14) -0.11302(13) 0.62323(16)
C17 C -0.07976(16) -0.22361(15) 0.5829(2)
C18 C -0.14294(16) -0.30857(14) 0.5046(2)
C19 C 0.01337(15) -0.36700(13) 0.48778(19)
C20 C 0.07968(14) -0.28273(13) 0.56450(18)
C21 C 0.30997(13) 0.01303(12) 0.51383(15)
C22 C 0.37424(13) 0.06324(12) 0.46525(15)
H1 H 0.4604(15) 0.0204(15) 0.2322(17)
H2 H 0.57660 0.00260 0.12380
H3 H 0.62870 0.34480 0.16280
H4 H 0.72000 0.25170 0.06960
H5 H 0.30390 0.25000 0.37640
H6 H 0.31180 0.34470 0.29990
H7 H 0.40400 0.32470 0.43480
H8 H 0.22030 0.03910 0.17300
H9 H 0.10860 -0.04090 0.25220
H10 H 0.19670 -0.01880 0.64460
H11 H 0.22590 -0.13210 0.63410
H12 H 0.09240 -0.12950 0.71170
H13 H 0.01810 -0.05670 0.60500
H14 H -0.12870 -0.16630 0.57030
H15 H -0.05120 -0.24220 0.67120
H16 H -0.20440 -0.32550 0.52720
H17 H -0.17350 -0.28910 0.41640
H18 H -0.01640 -0.34840 0.39940
H19 H 0.06120 -0.42500 0.49900
H20 H 0.11290 -0.30220 0.65260
H21 H 0.13930 -0.26630 0.53830
H22 H 0.33410 0.00450 0.60050
H23 H 0.44190 0.09030 0.51980
O4 O 0.1095(3) 0.1236(3) 0.7054(4)
loop_
_geom_bond_atom_site_label_1
_geom_bond_atom_site_label_2
_geom_bond_site_symmetry_1
_geom_bond_site_symmetry_2
Cl1 C1 1_555 1_555
O1 C6 1_555 1_555
O2 C14 1_555 1_555
O3 C18 1_555 1_555
N1 C3 1_555 1_555
N2 C16 1_555 1_555
C1 C2 1_555 1_555
C2 C3 1_555 1_555
C3 C7 1_555 1_555
C4 N1 1_555 1_555
C5 C4 1_555 1_555
C6 C5 1_555 1_555
C7 C6 1_555 1_555
C8 C7 1_555 1_555
C9 C1 1_555 1_555
C10 C5 1_555 1_555
C11 C4 1_555 1_555
C12 C11 1_555 1_555
C13 C12 1_555 1_555
C14 C13 1_555 1_555
C15 O2 1_555 1_555
C16 C15 1_555 1_555
C17 N2 1_555 1_555
C18 C17 1_555 1_555
C19 O3 1_555 1_555
C20 N2 1_555 1_555
C21 C14 1_555 1_555
C22 C11 1_555 1_555
H1 N1 1_555 1_555
H2 C2 1_555 1_555
H3 C8 1_555 1_555
H4 C9 1_555 1_555
H5 C10 1_555 1_555
H6 C10 1_555 1_555
H7 C10 1_555 1_555
H8 C12 1_555 1_555
H9 C13 1_555 1_555
H10 C15 1_555 1_555
H11 C15 1_555 1_555
H12 C16 1_555 1_555
H13 C16 1_555 1_555
H14 C17 1_555 1_555
H15 C17 1_555 1_555
H16 C18 1_555 1_555
H17 C18 1_555 1_555
H18 C19 1_555 1_555
H19 C19 1_555 1_555
H20 C20 1_555 1_555
H21 C20 1_555 1_555
H22 C21 1_555 1_555
H23 C22 1_555 1_555
C8 C9 1_555 1_555
C19 C20 1_555 1_555
C21 C22 1_555 1_555

#END
