
#######################################################################
#
#                 Cambridge Crystallographic Data Centre
#                                CCDC 
#
#######################################################################
#
# If this CIF has been generated from an entry in the Cambridge 
# Structural Database, then it will include bibliographic, chemical, 
# crystal, experimental, refinement or atomic coordinate data resulting 
# from the CCDC's data processing and validation procedures.
#
#######################################################################

data_LEPCIV
_chemical_formula_moiety         'C43 H46 N2'
_chemical_name_systematic        
4,4'-methylenebis{2,6-diethyl-N-[(naphthalen-1-yl)methyl]aniline}
_symmetry_cell_setting           monoclinic
_symmetry_space_group_name_H-M   'C 2/c'
_symmetry_Int_Tables_number      15
_space_group_name_Hall           '-C 2yn'
loop_
_symmetry_equiv_pos_site_id
_symmetry_equiv_pos_as_xyz
1 x,y,z
2 -x,y,1/2-z
3 1/2+x,1/2+y,z
4 1/2-x,1/2+y,1/2-z
5 -x,-y,-z
6 x,-y,1/2+z
7 1/2-x,1/2-y,-z
8 1/2+x,1/2-y,1/2+z
_cell_length_a                   43.386(6)
_cell_length_b                   4.9901(7)
_cell_length_c                   15.449(2)
_cell_angle_alpha                90
_cell_angle_beta                 97.972(4)
_cell_angle_gamma                90
_cell_volume                     3312.39
_exptl_crystal_colour            colorless
_exptl_crystal_description       needle
_cell_formula_units_Z            4
loop_
_atom_site_label
_atom_site_type_symbol
_atom_site_fract_x
_atom_site_fract_y
_atom_site_fract_z
N1 N 0.38639(3) 0.5299(4) 0.74010(11)
H1 H 0.3897 0.3697 0.7598
C1 C 0.41470(4) 0.6810(4) 0.74420(14)
C2 C 0.43944(4) 0.6299(4) 0.81089(14)
C3 C 0.33745(5) 0.4557(5) 0.79805(15)
C4 C 0.31678(4) 0.3331(5) 0.72966(15)
C5 C 0.46699(5) 0.7711(5) 0.80961(16)
H2 H 0.4838 0.7354 0.8524
C6 C 0.44522(5) 1.0127(5) 0.68286(15)
H3 H 0.4471 1.1429 0.6409
C7 C 0.41722(5) 0.8727(5) 0.67967(14)
C8 C 0.47031(5) 0.9633(5) 0.74677(15)
C9 C 0.36104(5) 0.6610(5) 0.77864(15)
H4 H 0.3510 0.7937 0.7383
H5 H 0.3695 0.7519 0.8322
C10 C 0.43537(5) 0.4273(5) 0.88158(15)
H6 H 0.4158 0.4648 0.9030
H7 H 0.4336 0.2508 0.8551
C11 C 0.29573(5) 0.1337(5) 0.75131(17)
C12 C 0.31646(5) 0.3998(5) 0.64052(17)
H8 H 0.3304 0.5270 0.6250
C13 C 0.33627(5) 0.3800(5) 0.88243(17)
H9 H 0.3497 0.4604 0.9270
C14 C 0.5000 1.1265(7) 0.7500
H10 H 0.5018 1.2415 0.8011
C15 C 0.29569(6) 0.0653(6) 0.8398(2)
H11 H 0.2819 -0.0642 0.8545
C16 C 0.27534(5) 0.0121(6) 0.6834(2)
H12 H 0.2615 -0.1187 0.6970
C17 C 0.39009(6) 0.9224(6) 0.60836(16)
H13 H 0.3829 0.7500 0.5845
H14 H 0.3733 1.0000 0.6353
C18 C 0.29614(6) 0.2808(6) 0.57709(19)
H15 H 0.2959 0.3311 0.5190
C19 C 0.31543(6) 0.1852(6) 0.90375(19)
H16 H 0.3151 0.1379 0.9619
C20 C 0.27555(6) 0.0826(6) 0.5986(2)
H17 H 0.2620 -0.0005 0.5547
C21 C 0.39568(7) 1.0987(7) 0.53392(18)
H18 H 0.3774 1.1026 0.4912
H19 H 0.4128 1.0298 0.5076
H20 H 0.4004 1.2769 0.5551
C22 C 0.46074(6) 0.4177(7) 0.95908(18)
H21 H 0.4798 0.3585 0.9403
H22 H 0.4549 0.2952 1.0019
H23 H 0.4637 0.5932 0.9843
H10A H 0.4982 1.2415 0.6989
N1A N 0.61361(3) 0.5299(4) 0.75990(11)
H1A H 0.6103 0.3697 0.7402
C1A C 0.58530(4) 0.6810(4) 0.75580(14)
C2A C 0.56056(4) 0.6299(4) 0.68911(14)
C3A C 0.66255(5) 0.4557(5) 0.70195(15)
C4A C 0.68322(4) 0.3331(5) 0.77034(15)
C5A C 0.53301(5) 0.7711(5) 0.69039(16)
H2A H 0.5162 0.7354 0.6476
C6A C 0.55478(5) 1.0127(5) 0.81714(15)
H3A H 0.5529 1.1429 0.8591
C7A C 0.58278(5) 0.8727(5) 0.82033(14)
C8A C 0.52969(5) 0.9633(5) 0.75323(15)
C9A C 0.63896(5) 0.6610(5) 0.72136(15)
H4A H 0.6490 0.7937 0.7617
H5A H 0.6305 0.7519 0.6678
C10A C 0.56463(5) 0.4273(5) 0.61842(15)
H6A H 0.5842 0.4648 0.5970
H7A H 0.5664 0.2508 0.6449
C11A C 0.70427(5) 0.1337(5) 0.74869(17)
C12A C 0.68354(5) 0.3998(5) 0.85948(17)
H8A H 0.6696 0.5270 0.8750
C13A C 0.66373(5) 0.3800(5) 0.61757(17)
H9A H 0.6503 0.4604 0.5730
C15A C 0.70431(6) 0.0653(6) 0.6602(2)
H11A H 0.7181 -0.0642 0.6455
C16A C 0.72466(5) 0.0121(6) 0.8166(2)
H12A H 0.7385 -0.1187 0.8030
C17A C 0.60991(6) 0.9224(6) 0.89164(16)
H13A H 0.6171 0.7500 0.9155
H14A H 0.6267 1.0000 0.8647
C18A C 0.70386(6) 0.2808(6) 0.92291(19)
H15A H 0.7041 0.3311 0.9810
C19A C 0.68457(6) 0.1852(6) 0.59625(19)
H16A H 0.6849 0.1379 0.5381
C20A C 0.72445(6) 0.0826(6) 0.9014(2)
H17A H 0.7380 -0.0005 0.9453
C21A C 0.60432(7) 1.0987(7) 0.96608(18)
H18A H 0.6226 1.1026 1.0088
H19A H 0.5872 1.0298 0.9924
H20A H 0.5996 1.2769 0.9449
C22A C 0.53926(6) 0.4177(7) 0.54092(18)
H21A H 0.5202 0.3585 0.5597
H22A H 0.5451 0.2952 0.4981
H23A H 0.5363 0.5932 0.5157
H24? H 0.5018 1.2415 0.8011
loop_
_geom_bond_atom_site_label_1
_geom_bond_atom_site_label_2
_geom_bond_site_symmetry_1
_geom_bond_site_symmetry_2
N1 H1 1_555 1_555
C1 N1 1_555 1_555
C2 C1 1_555 1_555
C3 C4 1_555 1_555
C4 C11 1_555 1_555
C5 C2 1_555 1_555
H2 C5 1_555 1_555
C6 H3 1_555 1_555
C7 C1 1_555 1_555
C8 C5 1_555 1_555
C9 N1 1_555 1_555
H4 C9 1_555 1_555
H5 C9 1_555 1_555
C10 C2 1_555 1_555
H6 C10 1_555 1_555
H7 C10 1_555 1_555
C11 C15 1_555 1_555
C12 C4 1_555 1_555
H8 C12 1_555 1_555
C13 C3 1_555 1_555
H9 C13 1_555 1_555
C14 C8 1_555 1_555
H10 C14 1_555 1_555
C15 H11 1_555 1_555
C16 C11 1_555 1_555
H12 C16 1_555 1_555
C17 C7 1_555 1_555
H13 C17 1_555 1_555
H14 C17 1_555 1_555
C18 C12 1_555 1_555
H15 C18 1_555 1_555
C19 C13 1_555 1_555
H16 C19 1_555 1_555
C20 C16 1_555 1_555
H17 C20 1_555 1_555
C21 C17 1_555 1_555
H18 C21 1_555 1_555
H19 C21 1_555 1_555
H20 C21 1_555 1_555
C22 C10 1_555 1_555
H21 C22 1_555 1_555
H22 C22 1_555 1_555
H23 C22 1_555 1_555
H10A C14 1_555 1_555
N1A H1A 1_555 1_555
C1A N1A 1_555 1_555
C2A C1A 1_555 1_555
C3A C4A 1_555 1_555
C4A C11A 1_555 1_555
C5A C2A 1_555 1_555
H2A C5A 1_555 1_555
C6A H3A 1_555 1_555
C7A C1A 1_555 1_555
C8A C14 1_555 1_555
C9A N1A 1_555 1_555
H4A C9A 1_555 1_555
H5A C9A 1_555 1_555
C10A C2A 1_555 1_555
H6A C10A 1_555 1_555
H7A C10A 1_555 1_555
C11A C15A 1_555 1_555
C12A C4A 1_555 1_555
H8A C12A 1_555 1_555
C13A C3A 1_555 1_555
H9A C13A 1_555 1_555
C15A H11A 1_555 1_555
C16A C11A 1_555 1_555
H12A C16A 1_555 1_555
C17A C7A 1_555 1_555
H13A C17A 1_555 1_555
H14A C17A 1_555 1_555
C18A C12A 1_555 1_555
H15A C18A 1_555 1_555
C19A C13A 1_555 1_555
H16A C19A 1_555 1_555
C20A C16A 1_555 1_555
H17A C20A 1_555 1_555
C21A C17A 1_555 1_555
H18A C21A 1_555 1_555
H19A C21A 1_555 1_555
H20A C21A 1_555 1_555
C22A C10A 1_555 1_555
H21A C22A 1_555 1_555
H22A C22A 1_555 1_555
H23A C22A 1_555 1_555
C3 C9 1_555 1_555
C6 C7 1_555 1_555
C6 C8 1_555 1_555
C15 C19 1_555 1_555
C18 C20 1_555 1_555
C3A C9A 1_555 1_555
C5A C8A 1_555 1_555
C6A C7A 1_555 1_555
C6A C8A 1_555 1_555
C15A C19A 1_555 1_555
C18A C20A 1_555 1_555

#END
