
#######################################################################
#
#                 Cambridge Crystallographic Data Centre
#                                CCDC 
#
#######################################################################
#
# If this CIF has been generated from an entry in the Cambridge 
# Structural Database, then it will include bibliographic, chemical, 
# crystal, experimental, refinement or atomic coordinate data resulting 
# from the CCDC's data processing and validation procedures.
#
#######################################################################

data_LEPDAN
_chemical_formula_moiety         'C23 H16 F3 N1 O2'
_chemical_name_systematic        
2-(4-(4-(Trifluoromethoxy)benzyl)phenyl)quinolin-4(1H)-one
_symmetry_cell_setting           triclinic
_symmetry_space_group_name_H-M   'P -1'
_symmetry_Int_Tables_number      2
_space_group_name_Hall           '-P 1'
loop_
_symmetry_equiv_pos_site_id
_symmetry_equiv_pos_as_xyz
1 x,y,z
2 -x,-y,-z
_cell_length_a                   6.8592(9)
_cell_length_b                   9.2103(12)
_cell_length_c                   15.0912(19)
_cell_angle_alpha                90.630(2)
_cell_angle_beta                 103.1150(10)
_cell_angle_gamma                103.761(2)
_cell_volume                     899.742
_exptl_crystal_colour            colorless
_exptl_crystal_description       prism
_cell_formula_units_Z            2
loop_
_atom_site_label
_atom_site_type_symbol
_atom_site_fract_x
_atom_site_fract_y
_atom_site_fract_z
F1 F 0.99205(12) 0.70065(10) 0.00462(6)
F2 F 0.69119(14) 0.55632(9) -0.01545(7)
F3 F 0.80946(15) 0.63399(12) -0.13133(6)
O1 O -0.28417(12) 0.62831(10) 0.59355(6)
O2 O 0.71969(14) 0.79148(11) -0.05295(6)
N1 N 0.30629(14) 0.65430(10) 0.57403(6)
H1 H 0.4327 0.6589 0.5688
C1 C -0.03591(18) 0.47906(13) 0.71916(8)
C2 C 0.23463(17) 0.57282(12) 0.64108(8)
C3 C 0.18807(17) 0.72762(12) 0.51596(7)
C4 C -0.10202(17) 0.63800(12) 0.58757(8)
C5 C 0.03243(17) 0.56256(12) 0.64990(7)
C6 C -0.01112(17) 0.72109(13) 0.52178(8)
C7 C 0.36565(18) 0.50277(14) 0.70144(8)
C8 C 0.46499(18) 0.97772(12) 0.31859(8)
C9 C 0.43860(17) 0.76980(13) 0.41548(8)
C10 C 0.28312(17) 0.81301(12) 0.44744(7)
C11 C 0.49004(18) 0.81756(13) 0.04124(8)
C12 C 0.21980(18) 0.93871(13) 0.41367(8)
C13 C 0.29422(19) 0.42285(14) 0.76884(9)
C14 C 0.45439(18) 0.88680(13) 0.11617(8)
C15 C 0.61345(18) 0.98772(13) 0.17694(8)
C16 C 0.09174(19) 0.40993(14) 0.77758(8)
C17 C 0.5716(2) 1.07312(13) 0.25386(8)
C18 C 0.85121(19) 0.94551(14) 0.08879(9)
C19 C 0.52734(18) 0.85171(13) 0.35188(8)
C20 C 0.68869(19) 0.84950(13) 0.02891(8)
C21 C 0.30903(18) 1.01958(13) 0.34991(8)
C22 C 0.81217(19) 1.01465(14) 0.16285(8)
C23 C 0.80077(19) 0.67239(15) -0.04796(9)
H2 H 0.989(2) 0.9646(17) 0.0782(11)
H3 H 0.383(2) 0.7504(17) -0.0014(10)
H4 H 0.634(2) 0.8202(17) 0.3315(10)
H5 H 0.113(2) 0.9722(17) 0.4354(10)
H6 H -0.174(2) 0.4706(16) 0.7256(10)
H7 H 0.480(2) 0.6805(17) 0.4358(10)
H8 H 0.702(2) 1.1369(17) 0.2899(10)
H9 H 0.318(2) 0.8667(17) 0.1266(10)
H10 H -0.094(2) 0.7712(16) 0.4780(10)
H11 H 0.387(3) 0.3769(19) 0.8107(11)
H12 H 0.492(2) 1.1480(18) 0.2278(11)
H13 H 0.265(2) 1.1104(18) 0.3290(10)
H14 H 0.923(2) 1.0826(18) 0.2055(11)
H15 H 0.044(3) 0.3501(19) 0.8260(11)
H16 H 0.508(2) 0.5137(17) 0.6949(10)
loop_
_geom_bond_atom_site_label_1
_geom_bond_atom_site_label_2
_geom_bond_site_symmetry_1
_geom_bond_site_symmetry_2
F1 C23 1_555 1_555
F2 C23 1_555 1_555
F3 C23 1_555 1_555
O1 C4 1_555 1_555
O2 C20 1_555 1_555
N1 H1 1_555 1_555
C1 C5 1_555 1_555
C2 N1 1_555 1_555
C3 N1 1_555 1_555
C4 C5 1_555 1_555
C5 C2 1_555 1_555
C6 C3 1_555 1_555
C7 C2 1_555 1_555
C8 C17 1_555 1_555
C9 C10 1_555 1_555
C10 C3 1_555 1_555
C11 C14 1_555 1_555
C12 C10 1_555 1_555
C13 C7 1_555 1_555
C14 C15 1_555 1_555
C15 C17 1_555 1_555
C16 C1 1_555 1_555
C17 H8 1_555 1_555
C18 C20 1_555 1_555
C19 C8 1_555 1_555
C20 C11 1_555 1_555
C21 C8 1_555 1_555
C22 C15 1_555 1_555
C23 O2 1_555 1_555
H2 C18 1_555 1_555
H3 C11 1_555 1_555
H4 C19 1_555 1_555
H5 C12 1_555 1_555
H6 C1 1_555 1_555
H7 C9 1_555 1_555
H9 C14 1_555 1_555
H10 C6 1_555 1_555
H11 C13 1_555 1_555
H12 C17 1_555 1_555
H13 C21 1_555 1_555
H14 C22 1_555 1_555
H15 C16 1_555 1_555
H16 C7 1_555 1_555
C4 C6 1_555 1_555
C9 C19 1_555 1_555
C12 C21 1_555 1_555
C13 C16 1_555 1_555
C18 C22 1_555 1_555

#END
