
#######################################################################
#
#                 Cambridge Crystallographic Data Centre
#                                CCDC 
#
#######################################################################
#
# If this CIF has been generated from an entry in the Cambridge 
# Structural Database, then it will include bibliographic, chemical, 
# crystal, experimental, refinement or atomic coordinate data resulting 
# from the CCDC's data processing and validation procedures.
#
#######################################################################

data_LEPFEU
_chemical_formula_moiety         'C43 H48 N2 2+,2(C1 H4 O1),2(Cl1 1-)'
_chemical_name_systematic        
"4,4'-methylenebis{2,6-diethyl-N-[(naphthalen-1-yl)methyl]anilinium} dichloride methanol solvate"
_symmetry_cell_setting           triclinic
_symmetry_space_group_name_H-M   'P -1'
_symmetry_Int_Tables_number      2
_space_group_name_Hall           '-P 1'
loop_
_symmetry_equiv_pos_site_id
_symmetry_equiv_pos_as_xyz
1 x,y,z
2 -x,-y,-z
_cell_length_a                   11.3233(12)
_cell_length_b                   11.3295(11)
_cell_length_c                   16.0792(16)
_cell_angle_alpha                92.539(3)
_cell_angle_beta                 95.904(3)
_cell_angle_gamma                96.359(3)
_cell_volume                     2035.95
_exptl_crystal_colour            colorless
_exptl_crystal_description       block
_cell_formula_units_Z            2
loop_
_atom_site_label
_atom_site_type_symbol
_atom_site_fract_x
_atom_site_fract_y
_atom_site_fract_z
Cl1 Cl 0.51938(12) 0.34871(11) 0.43296(9)
C1 C 0.7809(4) 0.6243(3) 0.4379(2)
N1 N 0.6496(3) 0.6043(4) 0.4298(2)
C2 C 0.8392(4) 0.7193(3) 0.4898(2)
C3 C 0.9641(4) 0.5761(4) 0.3944(3)
N2 N 1.3450(4) 0.6349(5) 0.1271(3)
C4 C 1.2822(4) 0.5538(4) 0.2579(3)
C5 C 0.9641(4) 0.7393(4) 0.4918(3)
C6 C 0.8415(4) 0.5512(4) 0.3894(3)
C7 C 1.0276(4) 0.6695(4) 0.4441(3)
C8 C 1.2089(4) 0.6795(4) 0.3630(3)
C9 C 1.2948(4) 0.6510(4) 0.2081(3)
C10 C 1.2632(5) 0.7622(4) 0.2330(3)
C11 C 0.7766(5) 0.4492(5) 0.3317(3)
H1 H 0.7292 0.3969 0.3649
H2 H 0.7216 0.4819 0.2911
C12 C 1.2408(4) 0.5714(4) 0.3353(3)
C13 C 1.2186(4) 0.7724(4) 0.3099(3)
H3 H 1.1942 0.8447 0.3266
C14 C 0.6958(5) 0.8557(5) 0.3251(3)
C15 C 1.1628(4) 0.6950(5) 0.4469(3)
C16 C 0.5853(5) 0.6550(5) 0.3536(3)
C17 C 0.7758(5) 0.8003(5) 0.5427(3)
H4 H 0.6969 0.8048 0.5141
H5 H 0.7651 0.7634 0.5951
C18 C 1.3139(5) 0.4310(5) 0.2344(5)
C19 C 0.5978(5) 0.7918(5) 0.3562(3)
C20 C 0.5145(5) 0.8517(6) 0.3910(4)
H6 H 0.4508 0.8082 0.4121
C21 C 0.7824(5) 0.8001(6) 0.2854(3)
H7 H 0.7746 0.7178 0.2765
C22 C 0.7063(7) 0.9808(5) 0.3330(4)
C23 C 0.8522(6) 0.3765(5) 0.2856(4)
H8 H 0.8023 0.3151 0.2513
H9 H 0.8978 0.4262 0.2508
H10 H 0.9055 0.3410 0.3248
C24 C 1.0200(7) 0.5972(8) 0.0934(4)
H11 H 1.0635 0.5438 0.1220
C25 C 0.9066(7) 0.6089(7) 0.1042(5)
H12 H 0.8684 0.5575 0.1391
C26 C 0.8413(8) 0.6945(8) 0.0657(5)
H13 H 0.7637 0.6991 0.0787
C27 C 0.8846(8) 0.7680(8) 0.0125(5)
H14 H 0.8380 0.8209 -0.0140
C28 C 1.0000(8) 0.7637(8) -0.0022(5)
C29 C 1.0714(8) 0.6778(7) 0.0313(5)
C30 C 1.1866(8) 0.6749(7) 0.0137(4)
C31 C 1.2232(8) 0.7445(8) -0.0453(5)
H15 H 1.2962 0.7318 -0.0638
C32 C 1.1639(8) 0.8371(8) -0.0842(5)
H16 H 1.1994 0.8874 -0.1210
C33 C 1.0499(8) 0.8456(8) -0.0626(5)
H17 H 1.0048 0.9022 -0.0858
C34 C 1.2580(6) 0.5763(6) 0.0558(4)
H18 H 1.2029 0.5158 0.0767
H19 H 1.3009 0.5384 0.0148
C35 C 0.8788(7) 0.8693(7) 0.2598(4)
H20 H 0.9350 0.8316 0.2335
C36 C 1.2035(8) 0.3365(6) 0.2214(6)
H21 H 1.2280 0.2606 0.2066
H22 H 1.1660 0.3318 0.2722
H23 H 1.1478 0.3585 0.1772
C37 C 1.2815(8) 0.8693(6) 0.1817(4)
H24 H 1.3639 0.9039 0.1953
H25 H 1.2730 0.8408 0.1234
C38 C 0.6203(10) 1.0407(7) 0.3685(5)
H26 H 0.6287 1.1234 0.3739
C39 C 0.5219(9) 0.9742(8) 0.3957(5)
H27 H 0.4617 1.0121 0.4169
C40 C 0.8145(11) 1.0467(7) 0.3068(6)
H28 H 0.8270 1.1291 0.3150
C41 C 1.2100(14) 0.9612(9) 0.1878(8)
H29 H 1.2336 1.0220 0.1511
H30 H 1.1278 0.9307 0.1720
H31 H 1.2192 0.9943 0.2444
C42 C 0.8954(10) 0.9889(10) 0.2711(6)
H32 H 0.9631 1.0315 0.2542
C43 C 0.8324(8) 0.9193(8) 0.5618(9)
H33 H 0.7841 0.9620 0.5955
H34 H 0.9097 0.9170 0.5921
H35 H 0.8413 0.9586 0.5108
H36 H 0.631(5) 0.633(5) 0.475(4)
H37 H 0.626(4) 0.534(5) 0.422(3)
H38 H 0.995(7) 0.521(7) 0.359(5)
H39 H 1.000(4) 0.805(4) 0.524(3)
H40 H 1.240(4) 0.505(4) 0.380(3)
H41 H 1.192(5) 0.778(5) 0.465(3)
H42 H 1.209(7) 0.652(6) 0.488(5)
H43 H 0.515(5) 0.644(5) 0.361(3)
H44 H 0.616(4) 0.607(4) 0.308(3)
H45 H 1.361(6) 0.398(5) 0.277(4)
H46 H 1.340(6) 0.411(5) 0.184(4)
H47 H 1.418(5) 0.590(4) 0.128(3)
H48 H 1.360(5) 0.689(5) 0.110(3)
Cl2 Cl 0.57900(13) 0.52364(15) 0.13341(9)
C44 C 0.4828(7) 0.8200(6) 0.0530(4)
O1 O 0.5763(14) 0.8811(17) 0.0870(9)
C45 C 0.4770(9) 0.2647(7) 0.1013(5)
O2 O 0.5158(12) 0.2141(11) 0.1771(10)
loop_
_geom_bond_atom_site_label_1
_geom_bond_atom_site_label_2
_geom_bond_site_symmetry_1
_geom_bond_site_symmetry_2
C1 N1 1_555 1_555
N1 C16 1_555 1_555
C2 C1 1_555 1_555
C3 C6 1_555 1_555
N2 C9 1_555 1_555
C4 C9 1_555 1_555
C5 C2 1_555 1_555
C6 C1 1_555 1_555
C7 C3 1_555 1_555
C8 C12 1_555 1_555
C9 C10 1_555 1_555
C10 C13 1_555 1_555
C11 C6 1_555 1_555
H1 C11 1_555 1_555
H2 C11 1_555 1_555
C12 C4 1_555 1_555
C13 C8 1_555 1_555
H3 C13 1_555 1_555
C14 C19 1_555 1_555
C15 C7 1_555 1_555
C16 C19 1_555 1_555
C17 C2 1_555 1_555
H4 C17 1_555 1_555
H5 C17 1_555 1_555
C18 C4 1_555 1_555
C19 C20 1_555 1_555
C20 H6 1_555 1_555
C21 C14 1_555 1_555
H7 C21 1_555 1_555
C22 C14 1_555 1_555
C23 C11 1_555 1_555
H8 C23 1_555 1_555
H9 C23 1_555 1_555
H10 C23 1_555 1_555
C24 H11 1_555 1_555
C25 C24 1_555 1_555
H12 C25 1_555 1_555
C26 C25 1_555 1_555
H13 C26 1_555 1_555
C27 C26 1_555 1_555
H14 C27 1_555 1_555
C28 C27 1_555 1_555
C29 C24 1_555 1_555
C30 C29 1_555 1_555
C31 C30 1_555 1_555
H15 C31 1_555 1_555
C32 C31 1_555 1_555
H16 C32 1_555 1_555
C33 C28 1_555 1_555
H17 C33 1_555 1_555
C34 N2 1_555 1_555
H18 C34 1_555 1_555
H19 C34 1_555 1_555
C35 C21 1_555 1_555
H20 C35 1_555 1_555
C36 C18 1_555 1_555
H21 C36 1_555 1_555
H22 C36 1_555 1_555
H23 C36 1_555 1_555
C37 C10 1_555 1_555
H24 C37 1_555 1_555
H25 C37 1_555 1_555
C38 C22 1_555 1_555
H26 C38 1_555 1_555
C39 C20 1_555 1_555
H27 C39 1_555 1_555
C40 C22 1_555 1_555
H28 C40 1_555 1_555
C41 C37 1_555 1_555
H29 C41 1_555 1_555
H30 C41 1_555 1_555
H31 C41 1_555 1_555
C42 C35 1_555 1_555
H32 C42 1_555 1_555
C43 C17 1_555 1_555
H33 C43 1_555 1_555
H34 C43 1_555 1_555
H35 C43 1_555 1_555
H36 N1 1_555 1_555
H37 N1 1_555 1_555
H38 C3 1_555 1_555
H39 C5 1_555 1_555
H40 C12 1_555 1_555
H41 C15 1_555 1_555
H42 C15 1_555 1_555
H43 C16 1_555 1_555
H44 C16 1_555 1_555
H45 C18 1_555 1_555
H46 C18 1_555 1_555
H47 N2 1_555 1_555
H48 N2 1_555 1_555
C44 O1 1_555 1_555
C45 O2 1_555 1_555
C5 C7 1_555 1_555
C8 C15 1_555 1_555
C28 C29 1_555 1_555
C30 C34 1_555 1_555
C32 C33 1_555 1_555
C38 C39 1_555 1_555
C40 C42 1_555 1_555

#END
