
#######################################################################
#
#                 Cambridge Crystallographic Data Centre
#                                CCDC 
#
#######################################################################
#
# If this CIF has been generated from an entry in the Cambridge 
# Structural Database, then it will include bibliographic, chemical, 
# crystal, experimental, refinement or atomic coordinate data resulting 
# from the CCDC's data processing and validation procedures.
#
#######################################################################

data_LEPGAR
_chemical_compound_source        
'endolichenic fungal strain Aspergillus sp. (No. 16-20-8-1)'
_chemical_name_common            'oxisterigmatocystin D chloroform solvate'
_chemical_formula_moiety         'C21 H18 O9,C1 H1 Cl3'
_chemical_name_systematic        
"8-hydroxy-6,11-dimethoxy-7-oxo-1,2,3a,12c-tetrahydro-7H-furo[3',2':4,5]furo[2,3-c]xanthen-2-yl acetate chloroform solvate"
_symmetry_cell_setting           monoclinic
_symmetry_space_group_name_H-M   'P 21'
_symmetry_Int_Tables_number      4
_space_group_name_Hall           'P 2yb'
loop_
_symmetry_equiv_pos_site_id
_symmetry_equiv_pos_as_xyz
1 x,y,z
2 -x,1/2+y,-z
_cell_length_a                   11.2742(3)
_cell_length_b                   6.7798(2)
_cell_length_c                   14.8812(3)
_cell_angle_alpha                90
_cell_angle_beta                 93.337(2)
_cell_angle_gamma                90
_cell_volume                     1135.54
_exptl_crystal_colour            'pale yellow'
_exptl_crystal_description       needle
_cell_formula_units_Z            2
_exptl_crystal_recrystallization_method 'Vapour Deposition'
loop_
_atom_site_label
_atom_site_type_symbol
_atom_site_fract_x
_atom_site_fract_y
_atom_site_fract_z
O1 O 0.5629(3) 0.0822(6) 0.6166(2)
O2 O 0.7983(3) 0.1094(6) 0.3586(2)
O3 O 0.3696(3) 0.0886(7) 0.7032(2)
O4 O 0.5650(3) 0.1031(7) 0.3411(2)
O5 O 0.3384(3) 0.1085(6) 0.3311(2)
H1 H 0.4053 0.0997 0.3125
O6 O 0.9699(3) 0.0805(6) 0.6614(2)
C1 C 0.4573(4) 0.0959(8) 0.4717(3)
C2 C 0.6770(4) 0.0978(8) 0.4822(3)
C3 C 0.3545(4) 0.0920(8) 0.6114(3)
C4 C 0.7936(4) 0.1038(8) 0.4486(3)
O7 O 0.8357(3) 0.4117(6) 0.9016(2)
C5 C 0.7691(4) 0.0810(8) 0.6350(3)
O8 O 0.9384(3) 0.2615(6) 0.7904(3)
C6 C 0.4588(4) 0.0890(8) 0.5644(3)
C7 C 0.5684(4) 0.0981(8) 0.4249(3)
C8 C 0.3455(4) 0.1017(8) 0.4222(3)
C9 C 0.6687(4) 0.0870(8) 0.5761(3)
C10 C 0.8935(4) 0.1033(9) 0.5067(3)
H2 H 0.9691 0.1107 0.4851
C11 C 0.8776(4) 0.0913(8) 0.5989(3)
C12 C 0.2432(4) 0.1001(9) 0.4682(3)
H3 H 0.1698 0.1017 0.4362
C13 C 0.2479(4) 0.0961(9) 0.5614(3)
H4 H 0.1774 0.0961 0.5909
O9 O 0.9356(5) 0.6854(8) 0.8667(3)
C14 C 0.8285(4) 0.3525(9) 0.8090(3)
H5 H 0.8117 0.4654 0.7692
C15 C 0.9126(5) 0.1002(11) 0.3221(4)
H6 H 0.9041 0.1155 0.2579
H7 H 0.9486 -0.0251 0.3364
H8 H 0.9619 0.2040 0.3474
C16 C 0.7849(4) 0.0458(8) 0.7346(3)
H9 H 0.7619 -0.0887 0.7502
C17 C 0.7332(5) 0.1958(9) 0.7962(3)
H10 H 0.7163 0.1364 0.8533
H11 H 0.6605 0.2516 0.7690
C18 C 0.2643(5) 0.1064(15) 0.7508(4)
H12 H 0.2268 0.2306 0.7366
H13 H 0.2841 0.0997 0.8144
H14 H 0.2108 0.0009 0.7337
C19 C 0.9205(4) 0.0769(9) 0.7498(3)
H15 H 0.9567 -0.0283 0.7874
C20 C 0.8895(5) 0.5844(10) 0.9214(4)
C21 C 0.8850(8) 0.6325(13) 1.0192(4)
H16 H 0.8077 0.6831 1.0306
H17 H 0.9441 0.7300 1.0355
H18 H 0.9001 0.5153 1.0542
Cl1 Cl 0.2929(3) 0.6817(5) 0.9238(2)
Cl2 Cl 0.4681(4) 0.4124(8) 0.8815(3)
Cl3 Cl 0.5183(4) 0.8193(9) 0.8717(3)
C22 C 0.4100(7) 0.6456(19) 0.8588(5)
H19 H 0.3799 0.6477 0.7957
loop_
_geom_bond_atom_site_label_1
_geom_bond_atom_site_label_2
_geom_bond_site_symmetry_1
_geom_bond_site_symmetry_2
O1 C6 1_555 1_555
O2 C4 1_555 1_555
O3 C3 1_555 1_555
O4 C7 1_555 1_555
O5 H1 1_555 1_555
O6 C11 1_555 1_555
C1 C6 1_555 1_555
C2 C4 1_555 1_555
C3 C6 1_555 1_555
C4 C10 1_555 1_555
O7 C14 1_555 1_555
C5 C9 1_555 1_555
O8 C14 1_555 1_555
C7 C1 1_555 1_555
C8 O5 1_555 1_555
C9 O1 1_555 1_555
C10 H2 1_555 1_555
C11 C5 1_555 1_555
C12 C8 1_555 1_555
H3 C12 1_555 1_555
C13 C3 1_555 1_555
H4 C13 1_555 1_555
O9 C20 1_555 1_555
C14 H5 1_555 1_555
C15 O2 1_555 1_555
H6 C15 1_555 1_555
H7 C15 1_555 1_555
H8 C15 1_555 1_555
C16 C5 1_555 1_555
H9 C16 1_555 1_555
C17 C14 1_555 1_555
H10 C17 1_555 1_555
H11 C17 1_555 1_555
C18 O3 1_555 1_555
H12 C18 1_555 1_555
H13 C18 1_555 1_555
H14 C18 1_555 1_555
C19 O6 1_555 1_555
H15 C19 1_555 1_555
C20 O7 1_555 1_555
C21 C20 1_555 1_555
H16 C21 1_555 1_555
H17 C21 1_555 1_555
H18 C21 1_555 1_555
Cl1 C22 1_555 1_555
Cl2 C22 1_555 1_555
Cl3 C22 1_555 1_555
C22 H19 1_555 1_555
C1 C8 1_555 1_555
C2 C7 1_555 1_555
C2 C9 1_555 1_555
O8 C19 1_555 1_555
C10 C11 1_555 1_555
C12 C13 1_555 1_555
C16 C17 1_555 1_555
C16 C19 1_555 1_555

#END
