
#######################################################################
#
#                 Cambridge Crystallographic Data Centre
#                                CCDC 
#
#######################################################################
#
# If this CIF has been generated from an entry in the Cambridge 
# Structural Database, then it will include bibliographic, chemical, 
# crystal, experimental, refinement or atomic coordinate data resulting 
# from the CCDC's data processing and validation procedures.
#
#######################################################################

data_LEPJUL
_chemical_formula_moiety         'C22 H15 N1 O2,C4 H8 O1'
_chemical_name_systematic        
'10-Hydroxy-10-(3-indolyl)-9-phenanthrenone tetrahydrofuran clathrate'
_symmetry_cell_setting           orthorhombic
_symmetry_space_group_name_H-M   'P b n 21'
_symmetry_Int_Tables_number      33
_space_group_name_Hall           'P 2c -2ab'
loop_
_symmetry_equiv_pos_site_id
_symmetry_equiv_pos_as_xyz
1 x,y,z
2 1/2-x,1/2+y,z
3 1/2+x,1/2-y,1/2+z
4 -x,-y,1/2+z
_cell_length_a                   11.041(2)
_cell_length_b                   13.147(3)
_cell_length_c                   13.958(1)
_cell_angle_alpha                90
_cell_angle_beta                 90
_cell_angle_gamma                90
_cell_volume                     2026.09
_exptl_crystal_colour            colorless
_cell_formula_units_Z            4
loop_
_atom_site_label
_atom_site_type_symbol
_atom_site_fract_x
_atom_site_fract_y
_atom_site_fract_z
O1 O 0.1636(6) 0.2834(5) 0.3720
O2 O 0.0027(7) 0.2992(5) 0.2330(6)
N1 N 0.3000(7) -0.0234(6) 0.2831(6)
C1 C 0.0994(9) 0.1946(7) 0.3513(8)
C2 C -0.0018(9) 0.2196(7) 0.2775(7)
C3 C 0.1829(8) 0.1159(7) 0.3026(7)
C4 C 0.2169(9) 0.0224(7) 0.3431(8)
C5 C 0.0438(9) 0.1468(7) 0.4402(8)
C6 C 0.100(1) 0.1631(8) 0.5274(8)
C7 C 0.054(1) 0.1162(9) 0.6094(8)
C8 C -0.047(1) 0.0537(8) 0.6059(9)
C9 C -0.107(1) 0.0394(7) 0.5164(8)
C10 C -0.0601(9) 0.0844(6) 0.4334(8)
C11 C -0.1234(9) 0.0739(7) 0.3412(9)
C12 C -0.2182(9) 0.0025(8) 0.3270(9)
C13 C -0.283(1) 0.002(1) 0.240(1)
C14 C -0.2570(1) 0.0727(9) 0.1660(9)
C15 C -0.164(1) 0.145(1) 0.1800(9)
C16 C -0.099(9) 0.1443(8) 0.2661(8)
C17 C 0.2513(8) 0.1278(7) 0.2156(7)
C18 C 0.258(1) 0.2057(8) 0.1439(7)
C19 C 0.336(1) 0.1904(8) 0.0688(8)
C20 C 0.410(1) 0.1020(9) 0.0601(9)
C21 C 0.404(1) 0.0238(8) 0.1291(8)
C22 C 0.3238(9) 0.0376(7) 0.2049(8)
O3 O 0.3946(7) 0.2647(6) 0.4290(7)
C23 C 0.478(1) 0.3016(9) 0.356(1)
C24 C 0.580(1) 0.231(1) 0.353(2)
C25 C 0.554(2) 0.150(1) 0.425(1)
C26 C 0.446(1) 0.174(1) 0.477(1)
loop_
_geom_bond_atom_site_label_1
_geom_bond_atom_site_label_2
_geom_bond_site_symmetry_1
_geom_bond_site_symmetry_2
O1 C1 1_555 1_555
O2 C2 1_555 1_555
N1 C4 1_555 1_555
C1 C2 1_555 1_555
C2 C16 1_555 1_555
C3 C1 1_555 1_555
C4 C3 1_555 1_555
C5 C1 1_555 1_555
C6 C5 1_555 1_555
C7 C6 1_555 1_555
C8 C7 1_555 1_555
C9 C8 1_555 1_555
C10 C5 1_555 1_555
C11 C10 1_555 1_555
C12 C11 1_555 1_555
C13 C12 1_555 1_555
C14 C13 1_555 1_555
C15 C14 1_555 1_555
C16 C11 1_555 1_555
C17 C3 1_555 1_555
C18 C17 1_555 1_555
C19 C18 1_555 1_555
C20 C19 1_555 1_555
C21 C20 1_555 1_555
C22 N1 1_555 1_555
O3 C23 1_555 1_555
C23 C24 1_555 1_555
C24 C25 1_555 1_555
C25 C26 1_555 1_555
C26 O3 1_555 1_555
C9 C10 1_555 1_555
C15 C16 1_555 1_555
C17 C22 1_555 1_555
C21 C22 1_555 1_555

#END
