
#######################################################################
#
#                 Cambridge Crystallographic Data Centre
#                                CCDC 
#
#######################################################################
#
# If this CIF has been generated from an entry in the Cambridge 
# Structural Database, then it will include bibliographic, chemical, 
# crystal, experimental, refinement or atomic coordinate data resulting 
# from the CCDC's data processing and validation procedures.
#
#######################################################################

data_LEPKAS
_chemical_formula_moiety         'C24 H16 O2'
_chemical_name_systematic        3,3-Diphenylnaphtho(1,2-b)furan-2(3H)-one
_symmetry_cell_setting           triclinic
_symmetry_space_group_name_H-M   'P -1'
_symmetry_Int_Tables_number      2
_space_group_name_Hall           '-P 1'
loop_
_symmetry_equiv_pos_site_id
_symmetry_equiv_pos_as_xyz
1 x,y,z
2 -x,-y,-z
_cell_length_a                   8.394(2)
_cell_length_b                   10.292(5)
_cell_length_c                   11.175(6)
_cell_angle_alpha                107.83(4)
_cell_angle_beta                 98.18(4)
_cell_angle_gamma                100.94(3)
_cell_volume                     881.364
_exptl_crystal_colour            colorless
_chemical_melting_point          154-155deg.C
_cell_formula_units_Z            2
loop_
_atom_site_label
_atom_site_type_symbol
_atom_site_fract_x
_atom_site_fract_y
_atom_site_fract_z
O1 O 0.2924(3) 0.2539(3) 0.3819(3)
O2 O 0.3359(4) 0.4562(3) 0.3439(3)
C1 C 0.4340(5) 0.2608(4) 0.2116(4)
C2 C 0.3531(5) 0.3400(4) 0.3162(4)
C3 C 0.4204(5) 0.1229(4) 0.2385(4)
C4 C 0.3381(5) 0.1281(4) 0.3339(4)
C5 C 0.3037(5) 0.0194(4) 0.3856(4)
C6 C 0.2211(6) 0.0270(5) 0.4878(4)
C7 C 0.1963(6) -0.0847(5) 0.5313(5)
C8 C 0.2527(6) -0.2033(5) 0.4748(5)
C9 C 0.3330(6) -0.2138(4) 0.3768(5)
C10 C 0.3624(5) -0.1005(4) 0.3279(4)
C11 C 0.4487(6) -0.1049(4) 0.2282(4)
C12 C 0.4796(6) 0.0052(4) 0.1842(4)
C13 C 0.3252(5) 0.2429(4) 0.0820(4)
C14 C 0.2122(5) 0.1211(4) 0.0068(4)
C15 C 0.1124(6) 0.1110(5) -0.1079(4)
C16 C 0.1265(6) 0.2265(6) -0.1466(5)
C17 C 0.2385(7) 0.3483(5) -0.0720(5)
C18 C 0.3381(6) 0.3597(4) 0.0416(4)
C19 C 0.6145(5) 0.3355(4) 0.2282(4)
C20 C 0.7004(6) 0.2841(4) 0.1346(5)
C21 C 0.8671(6) 0.3433(5) 0.1502(5)
C22 C 0.9486(6) 0.4563(5) 0.2579(6)
C23 C 0.8640(6) 0.5077(5) 0.3493(5)
C24 C 0.6983(6) 0.4481(4) 0.3354(4)
loop_
_geom_bond_atom_site_label_1
_geom_bond_atom_site_label_2
_geom_bond_site_symmetry_1
_geom_bond_site_symmetry_2
O1 C2 1_555 1_555
O2 C2 1_555 1_555
C1 C2 1_555 1_555
C3 C1 1_555 1_555
C4 O1 1_555 1_555
C5 C4 1_555 1_555
C6 C5 1_555 1_555
C7 C6 1_555 1_555
C8 C7 1_555 1_555
C9 C8 1_555 1_555
C10 C5 1_555 1_555
C11 C10 1_555 1_555
C12 C3 1_555 1_555
C13 C1 1_555 1_555
C14 C13 1_555 1_555
C15 C14 1_555 1_555
C16 C15 1_555 1_555
C17 C16 1_555 1_555
C18 C13 1_555 1_555
C19 C1 1_555 1_555
C20 C19 1_555 1_555
C21 C20 1_555 1_555
C22 C21 1_555 1_555
C23 C22 1_555 1_555
C24 C19 1_555 1_555
C3 C4 1_555 1_555
C9 C10 1_555 1_555
C11 C12 1_555 1_555
C17 C18 1_555 1_555
C23 C24 1_555 1_555

#END
