
#######################################################################
#
#                 Cambridge Crystallographic Data Centre
#                                CCDC 
#
#######################################################################
#
# If this CIF has been generated from an entry in the Cambridge 
# Structural Database, then it will include bibliographic, chemical, 
# crystal, experimental, refinement or atomic coordinate data resulting 
# from the CCDC's data processing and validation procedures.
#
#######################################################################

data_LEPKIA
_chemical_formula_moiety         'C6 H15 N4 O2 1+,B1 F4 1-'
_chemical_name_systematic        'L-Arginine tetrafluoroborate'
_symmetry_cell_setting           orthorhombic
_symmetry_space_group_name_H-M   'P 21 21 21'
_symmetry_Int_Tables_number      19
_space_group_name_Hall           'P 2ac 2ab'
loop_
_symmetry_equiv_pos_site_id
_symmetry_equiv_pos_as_xyz
1 x,y,z
2 1/2+x,1/2-y,-z
3 -x,1/2+y,1/2-z
4 1/2-x,-y,1/2+z
_cell_length_a                   5.050(2)
_cell_length_b                   13.619(6)
_cell_length_c                   16.470(3)
_cell_angle_alpha                90
_cell_angle_beta                 90
_cell_angle_gamma                90
_cell_volume                     1132.74
_cell_formula_units_Z            4
loop_
_atom_site_label
_atom_site_type_symbol
_atom_site_fract_x
_atom_site_fract_y
_atom_site_fract_z
F1 F 0.514(3) 0.608(8) 0.3635(8)
F2 F 0.805(5) 0.7046(7) 0.4261(7)
F3 F 0.857(2) 0.6606(7) 0.2990(4)
F4 F 0.846(3) 0.5598(7) 0.4051(6)
B1 B 0.757(4) 0.643(1) 0.372(1)
O1 O 1.025(2) 1.0801(6) 0.4769(5)
O2 O 1.361(2) 1.0302(5) 0.4091(5)
N1 N 0.766(2) 0.9120(7) 0.4733(5)
N2 N 1.234(2) 0.8414(6) 0.1300(5)
N3 N 1.312(2) 0.6847(6) 0.1770(5)
N4 N 1.549(3) 0.7435(8) 0.0671(6)
C1 C 1.157(2) 1.0201(7) 0.4373(6)
C2 C 1.019(3) 0.9218(8) 0.4193(6)
C3 C 0.927(3) 0.9133(8) 0.3296(6)
C4 C 1.148(3) 0.8952(8) 0.2715(7)
C5 C 1.028(3) 0.8626(8) 0.1897(6)
C6 C 1.350(3) 0.7568(8) 0.1249(6)
H1 H 0.582 0.896 0.457
H2 H 0.834 0.937 0.520
H3 H 0.791 0.812 0.457
H4 H 1.250 0.895 0.082
H5 H 1.293 0.687 0.230
H6 H 1.459 0.646 0.168
H7 H 1.582 0.812 0.041
H8 H 1.707 0.750 0.105
loop_
_geom_bond_atom_site_label_1
_geom_bond_atom_site_label_2
_geom_bond_site_symmetry_1
_geom_bond_site_symmetry_2
F1 B1 1_555 1_555
F2 B1 1_555 1_555
F3 B1 1_555 1_555
F4 B1 1_555 1_555
O1 C1 1_555 1_555
O2 C1 1_555 1_555
N1 C2 1_555 1_555
N2 C5 1_555 1_555
N3 C6 1_555 1_555
N4 C6 1_555 1_555
C1 C2 1_555 1_555
C2 C3 1_555 1_555
C3 C4 1_555 1_555
C4 C5 1_555 1_555
C6 N2 1_555 1_555
H1 N1 1_555 1_555
H2 N1 1_555 1_555
H3 N1 1_555 1_555
H4 N2 1_555 1_555
H5 N3 1_555 1_555
H6 N3 1_555 1_555
H7 N4 1_555 1_555
H8 N4 1_555 1_555

#END
