
#######################################################################
#
#                 Cambridge Crystallographic Data Centre
#                                CCDC 
#
#######################################################################
#
# If this CIF has been generated from an entry in the Cambridge 
# Structural Database, then it will include bibliographic, chemical, 
# crystal, experimental, refinement or atomic coordinate data resulting 
# from the CCDC's data processing and validation procedures.
#
#######################################################################

data_LEPLAW
_chemical_formula_moiety         'C12 H15 N1 O3'
_chemical_name_systematic        
5-(3-hydroxypropyl)-4-phenyl-1,3-oxazolidin-2-one
_symmetry_cell_setting           orthorhombic
_symmetry_space_group_name_H-M   'P 21 21 21'
_symmetry_Int_Tables_number      19
_space_group_name_Hall           'P 2ac 2ab'
loop_
_symmetry_equiv_pos_site_id
_symmetry_equiv_pos_as_xyz
1 x,y,z
2 1/2-x,-y,1/2+z
3 -x,1/2+y,1/2-z
4 1/2+x,1/2-y,-z
_cell_length_a                   5.51250(10)
_cell_length_b                   13.5718(3)
_cell_length_c                   14.9000(3)
_cell_angle_alpha                90
_cell_angle_beta                 90
_cell_angle_gamma                90
_cell_volume                     1114.74
_exptl_crystal_colour            colorless
_exptl_crystal_description       prismatic
_cell_formula_units_Z            4
loop_
_atom_site_label
_atom_site_type_symbol
_atom_site_fract_x
_atom_site_fract_y
_atom_site_fract_z
N1 N 0.3909(4) 0.62795(13) 0.84122(11)
O1 O 0.0288(3) 0.59283(12) 0.91042(10)
O2 O 0.1286(3) 0.52863(10) 0.77710(9)
O3 O 0.4499(4) 0.31545(13) 0.58074(12)
H1 H 0.4520 0.3394 0.5302
C1 C 0.1753(4) 0.58579(14) 0.84986(13)
C2 C 0.3457(4) 0.52355(13) 0.72180(13)
H2 H 0.4352 0.4636 0.7374
C3 C 0.4959(4) 0.61390(14) 0.75217(13)
H3 H 0.6669 0.5951 0.7580
C4 C 0.4752(3) 0.70465(14) 0.69320(13)
C5 C 0.6515(4) 0.72323(18) 0.62975(15)
H4 H 0.7816 0.6801 0.6238
C6 C 0.6371(5) 0.8056(2) 0.57450(17)
H5 H 0.7579 0.8178 0.5323
C7 C 0.4446(5) 0.86872(17) 0.58238(16)
H6 H 0.4342 0.9237 0.5453
C8 C 0.2678(4) 0.85111(16) 0.64454(16)
H7 H 0.1370 0.8940 0.6496
C9 C 0.2830(4) 0.76910(16) 0.70024(15)
H8 H 0.1623 0.7577 0.7426
C10 C 0.2734(4) 0.51797(14) 0.62415(13)
H9 H 0.4194 0.5142 0.5879
H10 H 0.1897 0.5783 0.6081
C11 C 0.1112(4) 0.43094(15) 0.60097(14)
H11 H -0.0389 0.4372 0.6345
H12 H 0.0709 0.4345 0.5377
C12 C 0.2185(5) 0.33063(15) 0.61994(15)
H13 H 0.2320 0.3222 0.6844
H14 H 0.1082 0.2806 0.5977
H15 H 0.439(5) 0.680(2) 0.8750(18)
loop_
_geom_bond_atom_site_label_1
_geom_bond_atom_site_label_2
_geom_bond_site_symmetry_1
_geom_bond_site_symmetry_2
N1 C1 1_555 1_555
O1 C1 1_555 1_555
O2 C1 1_555 1_555
O3 H1 1_555 1_555
C2 O2 1_555 1_555
H2 C2 1_555 1_555
C3 N1 1_555 1_555
H3 C3 1_555 1_555
C4 C3 1_555 1_555
C5 C4 1_555 1_555
H4 C5 1_555 1_555
C6 C5 1_555 1_555
H5 C6 1_555 1_555
C7 C6 1_555 1_555
H6 C7 1_555 1_555
C8 C7 1_555 1_555
H7 C8 1_555 1_555
C9 C4 1_555 1_555
H8 C9 1_555 1_555
C10 C2 1_555 1_555
H9 C10 1_555 1_555
H10 C10 1_555 1_555
C11 C10 1_555 1_555
H11 C11 1_555 1_555
H12 C11 1_555 1_555
C12 O3 1_555 1_555
H13 C12 1_555 1_555
H14 C12 1_555 1_555
H15 N1 1_555 1_555
C2 C3 1_555 1_555
C8 C9 1_555 1_555
C11 C12 1_555 1_555

#END
