
#######################################################################
#
#                 Cambridge Crystallographic Data Centre
#                                CCDC 
#
#######################################################################
#
# If this CIF has been generated from an entry in the Cambridge 
# Structural Database, then it will include bibliographic, chemical, 
# crystal, experimental, refinement or atomic coordinate data resulting 
# from the CCDC's data processing and validation procedures.
#
#######################################################################

data_LEPLIE
_chemical_formula_moiety         'C32 H32 F1 N3 O4'
_chemical_name_systematic        
't-butyl [5-(3,5-diphenyl-1H-pyrazol-1-yl)-2-fluoro-1-(4-methoxyphenyl)-5-oxopent-3-en-1-yl]carbamate'
_symmetry_cell_setting           orthorhombic
_symmetry_space_group_name_H-M   'P 21 21 21'
_symmetry_Int_Tables_number      19
_space_group_name_Hall           'P 2ac 2ab'
loop_
_symmetry_equiv_pos_site_id
_symmetry_equiv_pos_as_xyz
1 x,y,z
2 1/2-x,-y,1/2+z
3 -x,1/2+y,1/2-z
4 1/2+x,1/2-y,-z
_cell_length_a                   5.3565(5)
_cell_length_b                   22.187(2)
_cell_length_c                   23.890(2)
_cell_angle_alpha                90
_cell_angle_beta                 90
_cell_angle_gamma                90
_cell_volume                     2839.2
_exptl_crystal_colour            colorless
_exptl_crystal_description       prismatic
_cell_formula_units_Z            4
loop_
_atom_site_label
_atom_site_type_symbol
_atom_site_fract_x
_atom_site_fract_y
_atom_site_fract_z
F1 F 1.2666(3) 0.41992(8) 0.13877(7)
N1 N 0.5357(5) 0.27904(11) 0.26623(10)
N2 N 0.4303(5) 0.33149(11) 0.28568(10)
N3 N 0.9293(5) 0.39128(11) 0.04929(10)
O1 O 0.8248(4) 0.23768(9) 0.20847(9)
O2 O 0.5293(4) 0.38893(11) 0.01952(9)
O3 O 0.8408(4) 0.34552(8) -0.03021(7)
O4 O 1.0407(5) 0.68098(9) 0.04843(10)
C1 C 0.7257(6) 0.28267(14) 0.22564(12)
C2 C 0.7894(7) 0.34388(13) 0.20698(13)
H1 H 0.7096 0.3762 0.2241
C3 C 0.9481(6) 0.35504(13) 0.16853(12)
H2 H 1.0309 0.3225 0.1524
C4 C 1.0100(6) 0.41625(13) 0.14766(12)
H3 H 0.9647 0.4455 0.1767
C5 C 0.8757(5) 0.43357(12) 0.09378(11)
H4 H 0.6966 0.4303 0.1015
C6 C 0.9237(5) 0.49880(12) 0.07821(11)
C7 C 0.7643(6) 0.54294(12) 0.09763(12)
H5 H 0.6250 0.5320 0.1185
C8 C 0.8077(6) 0.60284(13) 0.08661(12)
H6 H 0.6974 0.6319 0.0999
C9 C 1.0122(6) 0.62008(13) 0.05619(12)
C10 C 1.1715(6) 0.57700(14) 0.03568(12)
H7 H 1.3088 0.5882 0.0143
C11 C 1.1265(6) 0.51648(13) 0.04708(12)
H8 H 1.2357 0.4874 0.0334
C12 C 1.2530(8) 0.70079(16) 0.01901(18)
H9 H 1.4008 0.6884 0.0386
H10 H 1.2500 0.7439 0.0162
H11 H 1.2530 0.6835 -0.0178
C13 C 0.4324(6) 0.22889(13) 0.29155(12)
C14 C 0.2607(7) 0.25102(14) 0.32752(13)
H12 H 0.1584 0.2286 0.3511
C15 C 0.2650(6) 0.31402(13) 0.32282(12)
C16 C 0.1173(7) 0.35884(15) 0.35385(13)
C17 C -0.0869(7) 0.34248(19) 0.38465(15)
H13 H -0.1376 0.3024 0.3850
C18 C -0.2178(9) 0.3841(3) 0.41498(17)
H14 H -0.3559 0.3720 0.4357
C19 C -0.1475(10) 0.4430(3) 0.4150(2)
H15 H -0.2366 0.4712 0.4358
C20 C 0.0551(11) 0.4602(2) 0.3844(2)
H16 H 0.1036 0.5005 0.3840
C21 C 0.1868(9) 0.41902(17) 0.35427(17)
H17 H 0.3251 0.4314 0.3337
C22 C 0.4963(6) 0.16562(13) 0.27990(12)
C23 C 0.3353(9) 0.13121(16) 0.24900(13)
H18 H 0.1919 0.1484 0.2340
C24 C 0.3860(10) 0.07055(17) 0.24006(15)
H19 H 0.2790 0.0477 0.2179
C25 C 0.5904(9) 0.04435(17) 0.26336(16)
H20 H 0.6257 0.0039 0.2570
C26 C 0.7414(9) 0.07812(17) 0.29595(19)
H21 H 0.8784 0.0604 0.3133
C27 C 0.6949(8) 0.13810(16) 0.30371(18)
H22 H 0.8027 0.1606 0.3260
C28 C 0.7464(6) 0.37648(12) 0.01290(12)
C29 C 0.6764(5) 0.32293(12) -0.07503(11)
C30 C 0.5558(7) 0.37511(14) -0.10488(13)
H23 H 0.4382 0.3943 -0.0804
H24 H 0.4707 0.3607 -0.1376
H25 H 0.6816 0.4036 -0.1157
C31 C 0.8565(6) 0.29023(15) -0.11285(13)
H26 H 0.9833 0.3177 -0.1253
H27 H 0.7682 0.2745 -0.1446
H28 H 0.9326 0.2576 -0.0927
C32 C 0.4867(6) 0.27990(14) -0.05136(14)
H29 H 0.5695 0.2505 -0.0285
H30 H 0.4011 0.2600 -0.0814
H31 H 0.3684 0.3018 -0.0290
H32 H 1.080(6) 0.3870(13) 0.0391(11)
loop_
_geom_bond_atom_site_label_1
_geom_bond_atom_site_label_2
_geom_bond_site_symmetry_1
_geom_bond_site_symmetry_2
F1 C4 1_555 1_555
N1 N2 1_555 1_555
N2 C15 1_555 1_555
N3 C5 1_555 1_555
O1 C1 1_555 1_555
O2 C28 1_555 1_555
O3 C28 1_555 1_555
O4 C9 1_555 1_555
C1 N1 1_555 1_555
C2 C1 1_555 1_555
H1 C2 1_555 1_555
C3 C2 1_555 1_555
H2 C3 1_555 1_555
C4 C3 1_555 1_555
H3 C4 1_555 1_555
C5 C4 1_555 1_555
H4 C5 1_555 1_555
C6 C5 1_555 1_555
C7 C6 1_555 1_555
H5 C7 1_555 1_555
C8 C7 1_555 1_555
H6 C8 1_555 1_555
C9 C8 1_555 1_555
C10 C9 1_555 1_555
H7 C10 1_555 1_555
C11 C6 1_555 1_555
H8 C11 1_555 1_555
C12 O4 1_555 1_555
H9 C12 1_555 1_555
H10 C12 1_555 1_555
H11 C12 1_555 1_555
C13 N1 1_555 1_555
C14 C13 1_555 1_555
H12 C14 1_555 1_555
C15 C14 1_555 1_555
C16 C15 1_555 1_555
C17 C16 1_555 1_555
H13 C17 1_555 1_555
C18 C17 1_555 1_555
H14 C18 1_555 1_555
C19 C18 1_555 1_555
H15 C19 1_555 1_555
C20 C19 1_555 1_555
H16 C20 1_555 1_555
C21 C16 1_555 1_555
H17 C21 1_555 1_555
C22 C13 1_555 1_555
C23 C22 1_555 1_555
H18 C23 1_555 1_555
C24 C23 1_555 1_555
H19 C24 1_555 1_555
C25 C24 1_555 1_555
H20 C25 1_555 1_555
C26 C25 1_555 1_555
H21 C26 1_555 1_555
C27 C22 1_555 1_555
H22 C27 1_555 1_555
C28 N3 1_555 1_555
C29 O3 1_555 1_555
C30 C29 1_555 1_555
H23 C30 1_555 1_555
H24 C30 1_555 1_555
H25 C30 1_555 1_555
C31 C29 1_555 1_555
H26 C31 1_555 1_555
H27 C31 1_555 1_555
H28 C31 1_555 1_555
C32 C29 1_555 1_555
H29 C32 1_555 1_555
H30 C32 1_555 1_555
H31 C32 1_555 1_555
H32 N3 1_555 1_555
C10 C11 1_555 1_555
C20 C21 1_555 1_555
C26 C27 1_555 1_555

#END
