
#######################################################################
#
#                 Cambridge Crystallographic Data Centre
#                                CCDC 
#
#######################################################################
#
# If this CIF has been generated from an entry in the Cambridge 
# Structural Database, then it will include bibliographic, chemical, 
# crystal, experimental, refinement or atomic coordinate data resulting 
# from the CCDC's data processing and validation procedures.
#
#######################################################################

data_LEPNEA
_chemical_formula_moiety         'C13 H9 I1 N2 O3'
_chemical_name_systematic        N-(2-Iodophenyl)-3-nitrobenzamide
_symmetry_cell_setting           monoclinic
_symmetry_space_group_name_H-M   'P 21/c'
_symmetry_Int_Tables_number      14
_space_group_name_Hall           '-P 2ybc'
loop_
_symmetry_equiv_pos_site_id
_symmetry_equiv_pos_as_xyz
1 x,y,z
2 -x,1/2+y,1/2-z
3 -x,-y,-z
4 x,1/2-y,1/2+z
_cell_length_a                   13.1804(3)
_cell_length_b                   7.5099(2)
_cell_length_c                   13.8849(3)
_cell_angle_alpha                90
_cell_angle_beta                 111.1634(12)
_cell_angle_gamma                90
_cell_volume                     1281.68
_exptl_crystal_colour            colorless
_exptl_crystal_description       plate
_chemical_melting_point          '441-443 K'
_cell_formula_units_Z            4
_exptl_crystal_recrystallization_method ethanol
loop_
_atom_site_label
_atom_site_type_symbol
_atom_site_fract_x
_atom_site_fract_y
_atom_site_fract_z
C1 C 0.34050(18) 0.3979(3) 0.22656(17)
C2 C 0.2645(2) 0.3309(3) 0.26521(19)
C3 C 0.1560(2) 0.3293(3) 0.2003(2)
C4 C 0.12062(19) 0.3921(3) 0.09994(18)
C5 C 0.1966(2) 0.4630(3) 0.06389(19)
C6 C 0.3064(2) 0.4653(3) 0.12638(19)
C7 C 0.45825(19) 0.3785(3) 0.29447(17)
O1 O 0.48528(14) 0.2787(2) 0.36966(13)
N1 N 0.53075(16) 0.4677(3) 0.26480(15)
C8 C 0.64506(18) 0.4398(3) 0.31075(18)
C9 C 0.70234(19) 0.3733(3) 0.25189(18)
C10 C 0.8148(2) 0.3501(3) 0.2958(2)
C11 C 0.86881(19) 0.3922(4) 0.3987(2)
C12 C 0.8122(2) 0.4585(3) 0.4580(2)
C13 C 0.7005(2) 0.4836(3) 0.41364(19)
N2 N 0.07543(18) 0.2512(3) 0.23890(18)
O2 O -0.01542(16) 0.2189(3) 0.17566(17)
O3 O 0.10257(17) 0.2218(3) 0.33156(17)
I1 I 0.619735(13) 0.30348(2) 0.096580(11)
H1 H 0.2862 0.2874 0.3340
H2 H 0.0459 0.3866 0.0570
H3 H 0.1739 0.5106 -0.0040
H4 H 0.3584 0.5130 0.1005
H5 H 0.5103 0.5312 0.2077
H6 H 0.8539 0.3058 0.2553
H7 H 0.9453 0.3755 0.4290
H8 H 0.8498 0.4867 0.5287
H9 H 0.6618 0.5309 0.4538
loop_
_geom_bond_atom_site_label_1
_geom_bond_atom_site_label_2
_geom_bond_site_symmetry_1
_geom_bond_site_symmetry_2
C1 C2 1_555 1_555
C2 C3 1_555 1_555
C3 C4 1_555 1_555
C4 C5 1_555 1_555
C5 C6 1_555 1_555
C6 C1 1_555 1_555
C7 C1 1_555 1_555
O1 C7 1_555 1_555
N1 C7 1_555 1_555
C8 N1 1_555 1_555
C9 C8 1_555 1_555
C10 C9 1_555 1_555
C11 C10 1_555 1_555
C12 C11 1_555 1_555
C13 C8 1_555 1_555
N2 C3 1_555 1_555
O2 N2 1_555 1_555
O3 N2 1_555 1_555
I1 C9 1_555 1_555
H1 C2 1_555 1_555
H2 C4 1_555 1_555
H3 C5 1_555 1_555
H4 C6 1_555 1_555
H5 N1 1_555 1_555
H6 C10 1_555 1_555
H7 C11 1_555 1_555
H8 C12 1_555 1_555
H9 C13 1_555 1_555
C12 C13 1_555 1_555

#END
