
#######################################################################
#
#                 Cambridge Crystallographic Data Centre
#                                CCDC 
#
#######################################################################
#
# If this CIF has been generated from an entry in the Cambridge 
# Structural Database, then it will include bibliographic, chemical, 
# crystal, experimental, refinement or atomic coordinate data resulting 
# from the CCDC's data processing and validation procedures.
#
#######################################################################

data_LEPPIF01
_chemical_formula_moiety         'C30 H18'
_chemical_name_systematic        9,10-bis(Phenylethynyl)anthracene
_symmetry_cell_setting           monoclinic
_symmetry_space_group_name_H-M   'C 2/c'
_symmetry_Int_Tables_number      15
_space_group_name_Hall           '-C 2yn'
loop_
_symmetry_equiv_pos_site_id
_symmetry_equiv_pos_as_xyz
1 x,y,z
2 -x,y,1/2-z
3 1/2+x,1/2+y,z
4 1/2-x,1/2+y,1/2-z
5 -x,-y,-z
6 x,-y,1/2+z
7 1/2-x,1/2-y,-z
8 1/2+x,1/2-y,1/2+z
_cell_length_a                   22.866(5)
_cell_length_b                   5.3567(11)
_cell_length_c                   16.930(3)
_cell_angle_alpha                90
_cell_angle_beta                 99.72(3)
_cell_angle_gamma                90
_cell_volume                     2043.92
_exptl_crystal_colour            orange
_exptl_crystal_description       plate
_cell_formula_units_Z            4
loop_
_atom_site_label
_atom_site_type_symbol
_atom_site_fract_x
_atom_site_fract_y
_atom_site_fract_z
C1 C -0.20480(10) -0.2978(4) 0.21367(13)
H1 H -0.2040 -0.4234 0.2518
C2 C -0.24896(10) -0.2970(5) 0.14666(15)
H2 H -0.2778 -0.4211 0.1403
C3 C -0.25030(10) -0.1149(6) 0.08990(14)
H3 H -0.2805 -0.1121 0.0456
C4 C -0.20710(12) 0.0622(5) 0.09887(14)
H4 H -0.2071 0.1836 0.0596
C5 C -0.16360(10) 0.0632(4) 0.16533(13)
H5 H -0.1345 0.1864 0.1707
C6 C -0.16215(8) -0.1147(4) 0.22432(11)
C7 C -0.11809(9) -0.1001(4) 0.29572(12)
C8 C -0.08317(9) -0.0755(4) 0.35646(12)
C9 C -0.04128(8) -0.0385(4) 0.42884(11)
C10 C 0.00168(8) 0.1525(4) 0.43193(11)
C11 C 0.00412(9) 0.3127(4) 0.36540(12)
H6 H -0.0228 0.2898 0.3182
C12 C 0.04480(10) 0.4974(4) 0.36963(13)
H7 H 0.0454 0.6005 0.3256
C13 C 0.08635(9) 0.5350(4) 0.44043(14)
H8 H 0.1143 0.6619 0.4426
C14 C 0.08571(9) 0.3878(4) 0.50492(12)
H9 H 0.1133 0.4152 0.5512
C15 C 0.04352(8) 0.1910(4) 0.50353(11)
C1D C 0.20480(10) 0.2978(4) 0.78633(13)
H1D H 0.2040 0.4234 0.7482
C2D C 0.24896(10) 0.2970(5) 0.85334(15)
H2D H 0.2778 0.4211 0.8597
C3D C 0.25030(10) 0.1149(6) 0.91010(14)
H3D H 0.2805 0.1121 0.9544
C4D C 0.20710(12) -0.0622(5) 0.90113(14)
H4D H 0.2071 -0.1836 0.9404
C5D C 0.16360(10) -0.0632(4) 0.83467(13)
H5D H 0.1345 -0.1864 0.8293
C6D C 0.16215(8) 0.1147(4) 0.77568(11)
C7D C 0.11809(9) 0.1001(4) 0.70428(12)
C8D C 0.08317(9) 0.0755(4) 0.64354(12)
C9D C 0.04128(8) 0.0385(4) 0.57116(11)
C10D C -0.00168(8) -0.1525(4) 0.56807(11)
C11D C -0.00412(9) -0.3127(4) 0.63460(12)
H6D H 0.0228 -0.2898 0.6818
C12D C -0.04480(10) -0.4974(4) 0.63037(13)
H7D H -0.0454 -0.6005 0.6744
C13D C -0.08635(9) -0.5350(4) 0.55957(14)
H8D H -0.1143 -0.6619 0.5574
C14D C -0.08571(9) -0.3878(4) 0.49508(12)
H9D H -0.1133 -0.4152 0.4488
C15D C -0.04352(8) -0.1910(4) 0.49647(11)
loop_
_geom_bond_atom_site_label_1
_geom_bond_atom_site_label_2
_geom_bond_site_symmetry_1
_geom_bond_site_symmetry_2
C1 H1 1_555 1_555
C2 C1 1_555 1_555
H2 C2 1_555 1_555
C3 C2 1_555 1_555
H3 C3 1_555 1_555
C4 C3 1_555 1_555
H4 C4 1_555 1_555
C5 C4 1_555 1_555
H5 C5 1_555 1_555
C6 C1 1_555 1_555
C7 C6 1_555 1_555
C8 C7 1_555 1_555
C9 C8 1_555 1_555
C10 C9 1_555 1_555
C11 C10 1_555 1_555
H6 C11 1_555 1_555
C12 C11 1_555 1_555
H7 C12 1_555 1_555
C13 C12 1_555 1_555
H8 C13 1_555 1_555
C14 C13 1_555 1_555
H9 C14 1_555 1_555
C15 C10 1_555 1_555
C1D H1D 1_555 1_555
C2D C1D 1_555 1_555
H2D C2D 1_555 1_555
C3D C2D 1_555 1_555
H3D C3D 1_555 1_555
C4D C3D 1_555 1_555
H4D C4D 1_555 1_555
C5D C4D 1_555 1_555
H5D C5D 1_555 1_555
C6D C1D 1_555 1_555
C7D C6D 1_555 1_555
C8D C7D 1_555 1_555
C9D C15 1_555 1_555
C10D C9D 1_555 1_555
C11D C10D 1_555 1_555
H6D C11D 1_555 1_555
C12D C11D 1_555 1_555
H7D C12D 1_555 1_555
C13D C12D 1_555 1_555
H8D C13D 1_555 1_555
C14D C13D 1_555 1_555
H9D C14D 1_555 1_555
C15D C9 1_555 1_555
C5 C6 1_555 1_555
C14 C15 1_555 1_555
C5D C6D 1_555 1_555
C8D C9D 1_555 1_555
C10D C15D 1_555 1_555
C14D C15D 1_555 1_555

#END
