
#######################################################################
#
#                 Cambridge Crystallographic Data Centre
#                                CCDC 
#
#######################################################################
#
# If this CIF has been generated from an entry in the Cambridge 
# Structural Database, then it will include bibliographic, chemical, 
# crystal, experimental, refinement or atomic coordinate data resulting 
# from the CCDC's data processing and validation procedures.
#
#######################################################################

data_LEPPIF07
_chemical_formula_moiety         'C30 H18'
_chemical_name_systematic        9,10-bis(phenylethynyl)anthracene
_symmetry_cell_setting           monoclinic
_symmetry_space_group_name_H-M   'C 2/c'
_symmetry_Int_Tables_number      15
_space_group_name_Hall           '-C 2yn'
loop_
_symmetry_equiv_pos_site_id
_symmetry_equiv_pos_as_xyz
1 x,y,z
2 -x,y,1/2-z
3 1/2+x,1/2+y,z
4 1/2-x,1/2+y,1/2-z
5 -x,-y,-z
6 x,-y,1/2+z
7 1/2-x,1/2-y,-z
8 1/2+x,1/2-y,1/2+z
_cell_length_a                   22.835(15)
_cell_length_b                   5.349(4)
_cell_length_c                   16.916(12)
_cell_angle_alpha                90
_cell_angle_beta                 99.876(18)
_cell_angle_gamma                90
_cell_volume                     2035.58
_exptl_crystal_colour            colorless
_exptl_crystal_description       block
_cell_formula_units_Z            4
loop_
_atom_site_label
_atom_site_type_symbol
_atom_site_fract_x
_atom_site_fract_y
_atom_site_fract_z
C1 C 0.45648(6) 0.1915(3) 0.49634(8)
C2 C 0.41432(6) 0.3875(3) 0.49501(9)
H1 H 0.3867 0.4150 0.4486
C3 C 0.41340(7) 0.5351(3) 0.55968(10)
H2 H 0.3852 0.6617 0.5575
C4 C 0.45507(7) 0.4975(3) 0.63055(9)
H3 H 0.4545 0.6007 0.6747
C5 C 0.49581(7) 0.3127(3) 0.63482(9)
H4 H 0.5226 0.2895 0.6822
C6 C 0.49850(6) 0.1530(3) 0.56825(8)
C7 C 0.45852(6) 0.0386(3) 0.42869(8)
C8 C 0.41665(6) 0.0754(3) 0.35653(8)
C9 C 0.38184(6) 0.1003(3) 0.29575(8)
C10 C 0.33783(6) 0.1146(3) 0.22436(8)
C11 C 0.29515(8) 0.2992(3) 0.21380(9)
H5 H 0.2960 0.4252 0.2519
C12 C 0.25095(8) 0.2973(4) 0.14658(11)
H6 H 0.2220 0.4213 0.1401
C13 C 0.24954(8) 0.1164(4) 0.09009(10)
H7 H 0.2192 0.1142 0.0457
C14 C 0.29283(9) -0.0622(4) 0.09872(10)
H8 H 0.2927 -0.1830 0.0592
C15 C 0.33646(8) -0.0647(3) 0.16531(10)
H9 H 0.3655 -0.1885 0.1708
C1D C 0.54352(6) -0.1915(3) 0.50366(8)
C2D C 0.58568(6) -0.3875(3) 0.50499(9)
H1D H 0.6133 -0.4150 0.5514
C3D C 0.58660(7) -0.5351(3) 0.44032(10)
H2D H 0.6148 -0.6617 0.4425
C4D C 0.54493(7) -0.4975(3) 0.36945(9)
H3D H 0.5455 -0.6007 0.3253
C5D C 0.50419(7) -0.3127(3) 0.36518(9)
H4D H 0.4774 -0.2895 0.3178
C6D C 0.50150(6) -0.1530(3) 0.43175(8)
C7D C 0.54148(6) -0.0386(3) 0.57131(8)
C8D C 0.58335(6) -0.0754(3) 0.64347(8)
C9D C 0.61816(6) -0.1003(3) 0.70425(8)
C10D C 0.66217(6) -0.1146(3) 0.77564(8)
C11D C 0.70485(8) -0.2992(3) 0.78620(9)
H5D H 0.7040 -0.4252 0.7481
C12D C 0.74905(8) -0.2973(4) 0.85342(11)
H6D H 0.7780 -0.4213 0.8599
C13D C 0.75046(8) -0.1164(4) 0.90991(10)
H7D H 0.7808 -0.1142 0.9543
C14D C 0.70717(9) 0.0622(4) 0.90128(10)
H8D H 0.7073 0.1830 0.9408
C15D C 0.66354(8) 0.0647(3) 0.83469(10)
H9D H 0.6345 0.1885 0.8292
loop_
_geom_bond_atom_site_label_1
_geom_bond_atom_site_label_2
_geom_bond_site_symmetry_1
_geom_bond_site_symmetry_2
C1 C2 1_555 1_555
C2 H1 1_555 1_555
C3 C2 1_555 1_555
H2 C3 1_555 1_555
C4 C3 1_555 1_555
H3 C4 1_555 1_555
C5 C4 1_555 1_555
H4 C5 1_555 1_555
C6 C1 1_555 1_555
C7 C1 1_555 1_555
C8 C7 1_555 1_555
C9 C8 1_555 1_555
C10 C9 1_555 1_555
C11 C10 1_555 1_555
H5 C11 1_555 1_555
C12 C11 1_555 1_555
H6 C12 1_555 1_555
C13 C12 1_555 1_555
H7 C13 1_555 1_555
C14 C13 1_555 1_555
H8 C14 1_555 1_555
C15 C10 1_555 1_555
H9 C15 1_555 1_555
C1D C2D 1_555 1_555
C2D H1D 1_555 1_555
C3D C2D 1_555 1_555
H2D C3D 1_555 1_555
C4D C3D 1_555 1_555
H3D C4D 1_555 1_555
C5D C4D 1_555 1_555
H4D C5D 1_555 1_555
C6D C7 1_555 1_555
C7D C6 1_555 1_555
C8D C7D 1_555 1_555
C9D C8D 1_555 1_555
C10D C9D 1_555 1_555
C11D C10D 1_555 1_555
H5D C11D 1_555 1_555
C12D C11D 1_555 1_555
H6D C12D 1_555 1_555
C13D C12D 1_555 1_555
H7D C13D 1_555 1_555
C14D C13D 1_555 1_555
H8D C14D 1_555 1_555
C15D C10D 1_555 1_555
H9D C15D 1_555 1_555
C5 C6 1_555 1_555
C14 C15 1_555 1_555
C1D C6D 1_555 1_555
C1D C7D 1_555 1_555
C5D C6D 1_555 1_555
C14D C15D 1_555 1_555

#END
