
#######################################################################
#
#                 Cambridge Crystallographic Data Centre
#                                CCDC 
#
#######################################################################
#
# If this CIF has been generated from an entry in the Cambridge 
# Structural Database, then it will include bibliographic, chemical, 
# crystal, experimental, refinement or atomic coordinate data resulting 
# from the CCDC's data processing and validation procedures.
#
#######################################################################

data_LEPPAY
_chemical_formula_moiety         'C13 H9 I1 N2 O3'
_chemical_name_systematic        N-(3-Iodophenyl)-4-nitrobenzamide
_symmetry_cell_setting           monoclinic
_symmetry_space_group_name_H-M   'P 21/n'
_symmetry_Int_Tables_number      14
_space_group_name_Hall           '-P 2yn'
loop_
_symmetry_equiv_pos_site_id
_symmetry_equiv_pos_as_xyz
1 x,y,z
2 1/2-x,1/2+y,1/2-z
3 -x,-y,-z
4 1/2+x,1/2-y,1/2+z
_cell_length_a                   7.4798(2)
_cell_length_b                   14.0889(7)
_cell_length_c                   11.8138(6)
_cell_angle_alpha                90
_cell_angle_beta                 93.259(3)
_cell_angle_gamma                90
_cell_volume                     1242.95
_exptl_crystal_colour            brown
_exptl_crystal_description       needle
_chemical_melting_point          '471-472 K'
_cell_formula_units_Z            4
_exptl_crystal_recrystallization_method ethanol
loop_
_atom_site_label
_atom_site_type_symbol
_atom_site_fract_x
_atom_site_fract_y
_atom_site_fract_z
C1 C 0.3258(15) 0.5880(7) 0.5948(9)
C2 C 0.4060(16) 0.6008(8) 0.7037(9)
C3 C 0.4265(15) 0.6925(8) 0.7479(9)
C4 C 0.3651(15) 0.7682(8) 0.6808(9)
N1 N 0.3894(13) 0.8652(7) 0.7271(8)
O1 O 0.4817(12) 0.8751(6) 0.8151(7)
O2 O 0.3173(15) 0.9308(6) 0.6748(7)
C5 C 0.2832(15) 0.7573(8) 0.5738(9)
C6 C 0.2686(15) 0.6662(8) 0.5310(9)
C7 C 0.3143(15) 0.4872(8) 0.5541(9)
O3 O 0.3981(12) 0.4241(6) 0.6054(7)
N2 N 0.2070(12) 0.4695(7) 0.4587(7)
C8 C 0.1813(15) 0.3821(8) 0.4027(9)
C9 C 0.2234(15) 0.2955(8) 0.4531(9)
C10 C 0.1860(15) 0.2123(8) 0.3906(9)
I1 I 0.24533(11) 0.08091(5) 0.46912(6)
C11 C 0.1113(17) 0.2132(9) 0.2805(9)
C12 C 0.0722(16) 0.3011(9) 0.2320(9)
C13 C 0.1025(16) 0.3847(8) 0.2913(9)
H1 H 0.4464 0.5476 0.7473
H2 H 0.4807 0.7028 0.8215
H3 H 0.2386 0.8103 0.5313
H4 H 0.2182 0.6569 0.4563
H5 H 0.1474 0.5182 0.4292
H6 H 0.2762 0.2925 0.5281
H7 H 0.0878 0.1560 0.2399
H8 H 0.0234 0.3038 0.1560
H9 H 0.0702 0.4438 0.2572
loop_
_geom_bond_atom_site_label_1
_geom_bond_atom_site_label_2
_geom_bond_site_symmetry_1
_geom_bond_site_symmetry_2
C1 C2 1_555 1_555
C2 C3 1_555 1_555
C3 C4 1_555 1_555
C4 N1 1_555 1_555
N1 O1 1_555 1_555
O2 N1 1_555 1_555
C5 C4 1_555 1_555
C6 C1 1_555 1_555
C7 C1 1_555 1_555
O3 C7 1_555 1_555
N2 C7 1_555 1_555
C8 N2 1_555 1_555
C9 C8 1_555 1_555
C10 C9 1_555 1_555
I1 C10 1_555 1_555
C11 C10 1_555 1_555
C12 C11 1_555 1_555
C13 C8 1_555 1_555
H1 C2 1_555 1_555
H2 C3 1_555 1_555
H3 C5 1_555 1_555
H4 C6 1_555 1_555
H5 N2 1_555 1_555
H6 C9 1_555 1_555
H7 C11 1_555 1_555
H8 C12 1_555 1_555
H9 C13 1_555 1_555
C5 C6 1_555 1_555
C12 C13 1_555 1_555

#END
