
#######################################################################
#
#                 Cambridge Crystallographic Data Centre
#                                CCDC 
#
#######################################################################
#
# If this CIF has been generated from an entry in the Cambridge 
# Structural Database, then it will include bibliographic, chemical, 
# crystal, experimental, refinement or atomic coordinate data resulting 
# from the CCDC's data processing and validation procedures.
#
#######################################################################

data_LEPPUR
_chemical_name_common            2-(L-Ephedrine)-4,5-diphenyl-2-pentenenitrile
_chemical_formula_moiety         'C27 H28 N2 O1'
_chemical_name_systematic        
(2Z,4R)-2-(N-Methyl-N-(2-hydroxy-1-methyl-2-phenylethyl)amino)-4,5-diphenyl-2-pentenenitrile
_symmetry_cell_setting           monoclinic
_symmetry_space_group_name_H-M   'P 21'
_symmetry_Int_Tables_number      4
_space_group_name_Hall           'P 2yb'
loop_
_symmetry_equiv_pos_site_id
_symmetry_equiv_pos_as_xyz
1 x,y,z
2 -x,1/2+y,-z
_cell_length_a                   10.746(2)
_cell_length_b                   9.560(8)
_cell_length_c                   11.699(2)
_cell_angle_alpha                90
_cell_angle_beta                 109.96(1)
_cell_angle_gamma                90
_cell_volume                     1129.66
_exptl_crystal_colour            colorless
_chemical_melting_point          89-92deg.C
_cell_formula_units_Z            2
loop_
_atom_site_label
_atom_site_type_symbol
_atom_site_fract_x
_atom_site_fract_y
_atom_site_fract_z
O1 O 0.5749(5) 0.60351 0.8276(4)
N1 N 0.3597(5) 0.4465(6) 0.8212(4)
N2 N 0.2047(7) 0.1256(7) 0.7671(6)
C1 C 0.2368(7) 0.2289(8) 0.7441(5)
C2 C 0.2842(6) 0.3731(7) 0.7216(5)
C3 C 0.2502(6) 0.4120(7) 0.6051(5)
C4 C 0.2824(6) 0.5486(8) 0.5579(5)
C5 C 0.1542(6) 0.6329(8) 0.4932(6)
C6 C 0.2860(8) 0.4709(9) 0.8997(6)
C7 C 0.5774(6) 0.4623(8) 0.8124(5)
C8 C 0.4913(6) 0.3867(7) 0.8746(5)
C9 C 0.5532(7) 0.3979(10) 1.0132(6)
C10 C 0.7159(6) 0.4046(7) 0.8486(5)
C11 C 0.7407(7) 0.2799(9) 0.7986(6)
C12 C 0.8675(8) 0.2292(8) 0.8299(6)
C13 C 0.9734(7) 0.2990(9) 0.9110(6)
C14 C 0.9480(7) 0.4221(9) 0.9626(6)
C15 C 0.8205(7) 0.4734(8) 0.9304(6)
C16 C 0.3642(6) 0.5275(7) 0.4745(5)
C17 C 0.3194(7) 0.4411(8) 0.3721(5)
C18 C 0.3960(8) 0.4213(9) 0.2988(6)
C19 C 0.5166(7) 0.4836(9) 0.3250(6)
C20 C 0.5625(7) 0.5670(9) 0.4271(6)
C21 C 0.4870(8) 0.5906(8) 0.5020(7)
C22 C 0.0802(6) 0.6650(8) 0.5789(5)
C23 C 0.1200(7) 0.7734(8) 0.6632(6)
C24 C 0.0593(8) 0.7957(8) 0.7472(6)
C25 C -0.0402(7) 0.7100(9) 0.7524(6)
C26 C -0.0838(7) 0.5988(8) 0.6710(6)
C27 C -0.0236(7) 0.5792(8) 0.5840(5)
H1 H 0.608 0.622 0.889
H2 H 0.191 0.345 0.535
H3 H 0.337 0.602 0.633
H4 H 0.178 0.723 0.460
H5 H 0.096 0.577 0.420
H6 H 0.203 0.528 0.861
H7 H 0.340 0.526 0.978
H8 H 0.263 0.378 0.927
H9 H 0.528 0.440 0.716
H10 H 0.490 0.281 0.861
H11 H 0.653 0.385 1.049
H12 H 0.512 0.339 1.063
H13 H 0.536 0.502 1.030
H14 H 0.659 0.223 0.732
H15 H 0.888 0.138 0.793
H16 H 1.072 0.257 0.934
H17 H 1.027 0.473 1.017
H18 H 0.807 0.564 0.974
H19 H 0.229 0.390 0.355
H20 H 0.362 0.361 0.222
H21 H 0.571 0.468 0.270
H22 H 0.654 0.618 0.450
H23 H 0.518 0.660 0.574
H24 H 0.199 0.832 0.658
H25 H 0.086 0.882 0.801
H26 H -0.087 0.723 0.811
H27 H -0.161 0.530 0.672
H28 H -0.057 0.499 0.515
loop_
_geom_bond_atom_site_label_1
_geom_bond_atom_site_label_2
_geom_bond_site_symmetry_1
_geom_bond_site_symmetry_2
O1 C7 1_555 1_555
N1 C2 1_555 1_555
N2 C1 1_555 1_555
C1 C2 1_555 1_555
C2 C3 1_555 1_555
C3 C4 1_555 1_555
C4 C5 1_555 1_555
C5 C22 1_555 1_555
C6 N1 1_555 1_555
C7 C8 1_555 1_555
C8 N1 1_555 1_555
C9 C8 1_555 1_555
C10 C7 1_555 1_555
C11 C10 1_555 1_555
C12 C11 1_555 1_555
C13 C12 1_555 1_555
C14 C13 1_555 1_555
C15 C10 1_555 1_555
C16 C4 1_555 1_555
C17 C16 1_555 1_555
C18 C17 1_555 1_555
C19 C18 1_555 1_555
C20 C19 1_555 1_555
C21 C16 1_555 1_555
C22 C23 1_555 1_555
C23 C24 1_555 1_555
C24 C25 1_555 1_555
C25 C26 1_555 1_555
C26 C27 1_555 1_555
C27 C22 1_555 1_555
H1 O1 1_555 1_555
H2 C3 1_555 1_555
H3 C4 1_555 1_555
H4 C5 1_555 1_555
H5 C5 1_555 1_555
H6 C6 1_555 1_555
H7 C6 1_555 1_555
H8 C6 1_555 1_555
H9 C7 1_555 1_555
H10 C8 1_555 1_555
H11 C9 1_555 1_555
H12 C9 1_555 1_555
H13 C9 1_555 1_555
H14 C11 1_555 1_555
H15 C12 1_555 1_555
H16 C13 1_555 1_555
H17 C14 1_555 1_555
H18 C15 1_555 1_555
H19 C17 1_555 1_555
H20 C18 1_555 1_555
H21 C19 1_555 1_555
H22 C20 1_555 1_555
H23 C21 1_555 1_555
H24 C23 1_555 1_555
H25 C24 1_555 1_555
H26 C25 1_555 1_555
H27 C26 1_555 1_555
H28 C27 1_555 1_555
C14 C15 1_555 1_555
C20 C21 1_555 1_555

#END
