
#######################################################################
#
#                 Cambridge Crystallographic Data Centre
#                                CCDC 
#
#######################################################################
#
# If this CIF has been generated from an entry in the Cambridge 
# Structural Database, then it will include bibliographic, chemical, 
# crystal, experimental, refinement or atomic coordinate data resulting 
# from the CCDC's data processing and validation procedures.
#
#######################################################################

data_LEPYIP
_chemical_formula_moiety         'C15 H10 Br1 Cl1 O1'
_chemical_name_systematic        
1-(4-bromophenyl)-3-(4-chlorophenyl)prop-2-en-1-one
_symmetry_cell_setting           monoclinic
_symmetry_space_group_name_H-M   'P 21/c'
_symmetry_Int_Tables_number      14
_space_group_name_Hall           '-P 2ybc'
loop_
_symmetry_equiv_pos_site_id
_symmetry_equiv_pos_as_xyz
1 x,y,z
2 -x,1/2+y,1/2-z
3 -x,-y,-z
4 x,1/2-y,1/2+z
_cell_length_a                   15.6239(15)
_cell_length_b                   14.0537(14)
_cell_length_c                   5.8396(5)
_cell_angle_alpha                90
_cell_angle_beta                 92.666(3)
_cell_angle_gamma                90
_cell_volume                     1280.83
_exptl_crystal_colour            colorless
_exptl_crystal_description       block
_cell_formula_units_Z            4
_exptl_crystal_recrystallization_method acetone
loop_
_atom_site_label
_atom_site_type_symbol
_atom_site_fract_x
_atom_site_fract_y
_atom_site_fract_z
Br1 Br -0.36485(2) 0.37278(3) 0.74863(7)
Cl1 Cl 0.47887(5) 0.35642(7) 1.24555(15)
O1 O 0.03020(16) 0.37337(18) 0.2982(4)
C1 C -0.0775(2) 0.37452(18) 0.5680(5)
C2 C -0.1023(2) 0.4074(2) 0.7807(5)
H1 H -0.0600 0.4285 0.8914
C3 C -0.1881(2) 0.4096(2) 0.8319(5)
H2 H -0.2049 0.4336 0.9751
C4 C -0.2490(2) 0.37638(19) 0.6717(5)
C5 C -0.2261(2) 0.3440(2) 0.4594(5)
H3 H -0.2686 0.3223 0.3500
C6 C -0.1408(2) 0.3435(2) 0.4083(5)
H4 H -0.1248 0.3218 0.2623
C7 C 0.23793(19) 0.38897(19) 0.7966(5)
C8 C 0.3163(2) 0.4220(2) 0.7228(5)
H5 H 0.3185 0.4515 0.5768
C9 C 0.3908(2) 0.4124(2) 0.8587(5)
H6 H 0.4439 0.4346 0.8063
C10 C 0.3868(2) 0.3701(2) 1.0718(5)
C11 C 0.3095(2) 0.3378(2) 1.1504(5)
H7 H 0.3075 0.3089 1.2971
C12 C 0.23554(19) 0.3480(2) 1.0144(5)
H8 H 0.1824 0.3270 1.0692
C13 C 0.0130(2) 0.3739(2) 0.5015(5)
C14 C 0.0814(2) 0.3729(2) 0.6857(5)
H9 H 0.0678 0.3568 0.8377
C15 C 0.1620(2) 0.3945(2) 0.6395(5)
H10 H 0.1713 0.4159 0.4883
loop_
_geom_bond_atom_site_label_1
_geom_bond_atom_site_label_2
_geom_bond_site_symmetry_1
_geom_bond_site_symmetry_2
Br1 C4 1_555 1_555
Cl1 C10 1_555 1_555
O1 C13 1_555 1_555
C1 C2 1_555 1_555
C2 H1 1_555 1_555
C3 C2 1_555 1_555
H2 C3 1_555 1_555
C4 C3 1_555 1_555
C5 C4 1_555 1_555
H3 C5 1_555 1_555
C6 C1 1_555 1_555
H4 C6 1_555 1_555
C7 C8 1_555 1_555
C8 H5 1_555 1_555
C9 C8 1_555 1_555
H6 C9 1_555 1_555
C10 C9 1_555 1_555
C11 C10 1_555 1_555
H7 C11 1_555 1_555
C12 C7 1_555 1_555
H8 C12 1_555 1_555
C13 C1 1_555 1_555
C14 C13 1_555 1_555
H9 C14 1_555 1_555
C15 C7 1_555 1_555
H10 C15 1_555 1_555
C5 C6 1_555 1_555
C11 C12 1_555 1_555
C14 C15 1_555 1_555

#END
