
#######################################################################
#
#                 Cambridge Crystallographic Data Centre
#                                CCDC 
#
#######################################################################
#
# If this CIF has been generated from an entry in the Cambridge 
# Structural Database, then it will include bibliographic, chemical, 
# crystal, experimental, refinement or atomic coordinate data resulting 
# from the CCDC's data processing and validation procedures.
#
#######################################################################

data_LEPZUC
_chemical_formula_moiety         '2(C17 H12 N2),C17 H12 N2'
_chemical_name_systematic        
'bis(3-(9-anthryl)pyrazole) 5-(9-anthryl)pyrazole'
_symmetry_cell_setting           monoclinic
_symmetry_space_group_name_H-M   'P 21/c'
_symmetry_Int_Tables_number      14
_space_group_name_Hall           '-P 2ybc'
loop_
_symmetry_equiv_pos_site_id
_symmetry_equiv_pos_as_xyz
1 x,y,z
2 -x,1/2+y,1/2-z
3 -x,-y,-z
4 x,1/2-y,1/2+z
_cell_length_a                   12.789(3)
_cell_length_b                   33.080(7)
_cell_length_c                   9.3463(19)
_cell_angle_alpha                90
_cell_angle_beta                 100.07(3)
_cell_angle_gamma                90
_cell_volume                     3893.13
_exptl_crystal_colour            green
_exptl_crystal_description       block
_cell_formula_units_Z            4
_exptl_crystal_recrystallization_method sublimation
_exptl_crystal_preparation       'green luminescent'
loop_
_atom_site_label
_atom_site_type_symbol
_atom_site_fract_x
_atom_site_fract_y
_atom_site_fract_z
N1 N 0.4042(2) 0.11983(7) 0.2946(3)
N2 N 0.4833(2) 0.11534(9) 0.4098(3)
H1 H 0.5226 0.1346 0.4509
C1 C 0.4913(3) 0.07749(13) 0.4498(5)
H4 H 0.5396 0.0671 0.5270
C2 C 0.4170(3) 0.05574(11) 0.3591(5)
H5 H 0.4055 0.0280 0.3614
C3 C 0.3626(3) 0.08315(9) 0.2638(3)
C4 C 0.2707(3) 0.07473(9) 0.1477(3)
C5 C 0.2867(3) 0.05329(9) 0.0233(4)
C6 C 0.3884(3) 0.04619(12) -0.0110(5)
H6 H 0.4482 0.0560 0.0504
C7 C 0.4003(4) 0.02525(14) -0.1320(6)
H7 H 0.4680 0.0211 -0.1530
C8 C 0.3116(5) 0.00975(14) -0.2260(5)
H8 H 0.3208 -0.0049 -0.3078
C9 C 0.2148(4) 0.01603(13) -0.1981(5)
H9 H 0.1569 0.0056 -0.2614
C10 C 0.1969(3) 0.03801(10) -0.0754(4)
C11 C 0.0962(3) 0.04510(11) -0.0463(4)
H10 H 0.0382 0.0342 -0.1081
C12 C 0.0785(3) 0.06767(10) 0.0705(4)
C13 C -0.0247(3) 0.07559(13) 0.0980(5)
H11 H -0.0828 0.0647 0.0362
C14 C -0.0412(3) 0.09813(15) 0.2098(5)
H12 H -0.1103 0.1031 0.2238
C15 C 0.0443(4) 0.11437(13) 0.3064(4)
H13 H 0.0319 0.1303 0.3838
C16 C 0.1455(3) 0.10701(11) 0.2877(4)
H14 H 0.2017 0.1177 0.3536
C17 C 0.1674(3) 0.08332(9) 0.1694(4)
N3 N 0.6600(2) 0.20760(8) 0.4322(3)
H2 H 0.6147 0.2189 0.3653
N4 N 0.6420(2) 0.17434(7) 0.5073(3)
C18 C 0.7573(3) 0.22002(11) 0.4772(5)
H15 H 0.7885 0.2426 0.4428
C19 C 0.8053(3) 0.19434(11) 0.5831(5)
H16 H 0.8747 0.1959 0.6337
C20 C 0.7304(3) 0.16583(9) 0.5996(4)
C21 C 0.7322(2) 0.13058(9) 0.6981(4)
C22 C 0.6908(2) 0.13471(10) 0.8264(4)
C23 C 0.6563(3) 0.17235(11) 0.8741(4)
H17 H 0.6572 0.1951 0.8157
C24 C 0.6225(3) 0.17585(12) 1.0015(6)
H18 H 0.6010 0.2009 1.0308
C25 C 0.6192(3) 0.14187(17) 1.0913(5)
H19 H 0.5957 0.1448 1.1794
C26 C 0.6495(3) 0.10512(13) 1.0516(5)
H20 H 0.6463 0.0830 1.1119
C27 C 0.6862(2) 0.10014(10) 0.9179(4)
C28 C 0.7218(3) 0.06307(10) 0.8745(4)
H21 H 0.7152 0.0403 0.9305
C29 C 0.7666(3) 0.05902(9) 0.7515(4)
C30 C 0.8101(3) 0.02179(10) 0.7139(4)
H22 H 0.8054 -0.0009 0.7713
C31 C 0.8579(3) 0.01861(11) 0.5975(5)
H23 H 0.8862 -0.0061 0.5755
C32 C 0.8655(3) 0.05258(11) 0.5082(4)
H24 H 0.8998 0.0503 0.4287
C33 C 0.8230(3) 0.08844(10) 0.5382(4)
H25 H 0.8265 0.1103 0.4766
C34 C 0.7733(2) 0.09340(9) 0.6613(4)
N5 N 0.3929(2) 0.20279(7) 0.1838(3)
H3 H 0.3923 0.1784 0.2152
N6 N 0.4712(2) 0.22978(8) 0.2266(3)
C35 C 0.4425(3) 0.26340(10) 0.1528(4)
H26 H 0.4821 0.2871 0.1601
C36 C 0.3464(3) 0.25823(11) 0.0644(4)
H27 H 0.3090 0.2773 0.0024
C37 C 0.3166(3) 0.21934(9) 0.0859(3)
C38 C 0.2215(3) 0.19607(9) 0.0175(4)
C39 C 0.2313(3) 0.16945(10) -0.0973(4)
C40 C 0.3283(4) 0.16183(12) -0.1447(4)
H28 H 0.3895 0.1751 -0.1002
C41 C 0.3339(5) 0.13539(15) -0.2542(5)
H29 H 0.3987 0.1305 -0.2834
C42 C 0.2421(6) 0.11545(16) -0.3233(5)
H30 H 0.2466 0.0976 -0.3988
C43 C 0.1490(5) 0.12159(15) -0.2832(5)
H31 H 0.0894 0.1080 -0.3313
C44 C 0.1383(4) 0.14858(11) -0.1677(4)
C45 C 0.0443(4) 0.15479(12) -0.1223(5)
H32 H -0.0157 0.1415 -0.1705
C46 C 0.0337(3) 0.18012(11) -0.0073(5)
C47 C -0.0627(4) 0.18526(13) 0.0454(6)
H33 H -0.1231 0.1716 -0.0001
C48 C -0.0694(4) 0.20893(15) 0.1576(7)
H34 H -0.1342 0.2118 0.1887
C49 C 0.0193(4) 0.22964(13) 0.2298(6)
H35 H 0.0135 0.2459 0.3092
C50 C 0.1132(3) 0.22622(11) 0.1849(5)
H36 H 0.1716 0.2404 0.2333
C51 C 0.1250(3) 0.20136(10) 0.0655(4)
loop_
_geom_bond_atom_site_label_1
_geom_bond_atom_site_label_2
_geom_bond_site_symmetry_1
_geom_bond_site_symmetry_2
N1 N2 1_555 1_555
N2 H1 1_555 1_555
N3 H2 1_555 1_555
N4 N3 1_555 1_555
N5 H3 1_555 1_555
N6 N5 1_555 1_555
C1 N2 1_555 1_555
H4 C1 1_555 1_555
C2 C1 1_555 1_555
H5 C2 1_555 1_555
C3 N1 1_555 1_555
C4 C3 1_555 1_555
C5 C4 1_555 1_555
C6 C5 1_555 1_555
H6 C6 1_555 1_555
C7 C6 1_555 1_555
H7 C7 1_555 1_555
C8 C7 1_555 1_555
H8 C8 1_555 1_555
C9 C8 1_555 1_555
H9 C9 1_555 1_555
C10 C5 1_555 1_555
C11 C10 1_555 1_555
H10 C11 1_555 1_555
C12 C11 1_555 1_555
C13 C12 1_555 1_555
H11 C13 1_555 1_555
C14 C13 1_555 1_555
H12 C14 1_555 1_555
C15 C14 1_555 1_555
H13 C15 1_555 1_555
C16 C15 1_555 1_555
H14 C16 1_555 1_555
C17 C4 1_555 1_555
C18 N3 1_555 1_555
H15 C18 1_555 1_555
C19 C18 1_555 1_555
H16 C19 1_555 1_555
C20 N4 1_555 1_555
C21 C20 1_555 1_555
C22 C21 1_555 1_555
C23 C22 1_555 1_555
H17 C23 1_555 1_555
C24 C23 1_555 1_555
H18 C24 1_555 1_555
C25 C24 1_555 1_555
H19 C25 1_555 1_555
C26 C25 1_555 1_555
H20 C26 1_555 1_555
C27 C22 1_555 1_555
C28 C27 1_555 1_555
H21 C28 1_555 1_555
C29 C28 1_555 1_555
C30 C29 1_555 1_555
H22 C30 1_555 1_555
C31 C30 1_555 1_555
H23 C31 1_555 1_555
C32 C31 1_555 1_555
H24 C32 1_555 1_555
C33 C32 1_555 1_555
H25 C33 1_555 1_555
C34 C21 1_555 1_555
C35 N6 1_555 1_555
H26 C35 1_555 1_555
C36 C35 1_555 1_555
H27 C36 1_555 1_555
C37 N5 1_555 1_555
C38 C37 1_555 1_555
C39 C38 1_555 1_555
C40 C39 1_555 1_555
H28 C40 1_555 1_555
C41 C40 1_555 1_555
H29 C41 1_555 1_555
C42 C41 1_555 1_555
H30 C42 1_555 1_555
C43 C42 1_555 1_555
H31 C43 1_555 1_555
C44 C39 1_555 1_555
C45 C44 1_555 1_555
H32 C45 1_555 1_555
C46 C45 1_555 1_555
C47 C46 1_555 1_555
H33 C47 1_555 1_555
C48 C47 1_555 1_555
H34 C48 1_555 1_555
C49 C48 1_555 1_555
H35 C49 1_555 1_555
C50 C49 1_555 1_555
H36 C50 1_555 1_555
C51 C38 1_555 1_555
C2 C3 1_555 1_555
C9 C10 1_555 1_555
C12 C17 1_555 1_555
C16 C17 1_555 1_555
C19 C20 1_555 1_555
C26 C27 1_555 1_555
C29 C34 1_555 1_555
C33 C34 1_555 1_555
C36 C37 1_555 1_555
C43 C44 1_555 1_555
C46 C51 1_555 1_555
C50 C51 1_555 1_555

#END
