
#######################################################################
#
#                 Cambridge Crystallographic Data Centre
#                                CCDC 
#
#######################################################################
#
# If this CIF has been generated from an entry in the Cambridge 
# Structural Database, then it will include bibliographic, chemical, 
# crystal, experimental, refinement or atomic coordinate data resulting 
# from the CCDC's data processing and validation procedures.
#
#######################################################################

data_LEQBAL
_chemical_formula_moiety         '2(C17 H12 N2),C17 H12 N2,C1 H1 Cl3'
_chemical_name_systematic        
'bis(3-(9-anthryl)pyrazole) 5-(9-anthryl)pyrazole chloroform solvate'
_symmetry_cell_setting           triclinic
_symmetry_space_group_name_H-M   'P -1'
_symmetry_Int_Tables_number      2
_space_group_name_Hall           '-P 1'
loop_
_symmetry_equiv_pos_site_id
_symmetry_equiv_pos_as_xyz
1 x,y,z
2 -x,-y,-z
_cell_length_a                   9.1815(18)
_cell_length_b                   13.990(3)
_cell_length_c                   18.301(4)
_cell_angle_alpha                68.25(3)
_cell_angle_beta                 88.42(3)
_cell_angle_gamma                79.23(3)
_cell_volume                     2142.7
_exptl_crystal_colour            green
_exptl_crystal_description       block
_cell_formula_units_Z            2
_exptl_crystal_recrystallization_method 'diethyl ether/chloroform'
_exptl_crystal_preparation       'green luminescent'
loop_
_atom_site_label
_atom_site_type_symbol
_atom_site_fract_x
_atom_site_fract_y
_atom_site_fract_z
N1 N 1.1054(4) 0.2932(3) 0.39286(19)
H1 H 1.0419 0.3333 0.4094
N2 N 1.1218(3) 0.3034(2) 0.31766(18)
C1 C 1.2020(6) 0.2120(4) 0.4372(3)
H4 H 1.2111 0.1878 0.4918
C2 C 1.2876(5) 0.1681(4) 0.3910(2)
H5 H 1.3660 0.1111 0.4072
C3 C 1.2313(4) 0.2279(3) 0.3148(2)
C4 C 1.2797(4) 0.2204(3) 0.2391(2)
C5 C 1.4137(4) 0.2496(2) 0.2100(2)
C6 C 1.5110(5) 0.2834(3) 0.2506(3)
H6 H 1.4826 0.2910 0.2976
C7 C 1.6453(5) 0.3048(3) 0.2219(3)
H7 H 1.7078 0.3249 0.2504
C8 C 1.6895(5) 0.2970(3) 0.1506(3)
H8 H 1.7809 0.3121 0.1316
C9 C 1.6004(4) 0.2677(3) 0.1093(3)
H9 H 1.6309 0.2639 0.0614
C10 C 1.4607(4) 0.2423(2) 0.1364(2)
C11 C 1.3713(4) 0.2092(3) 0.0949(2)
H10 H 1.4001 0.2077 0.0462
C12 C 1.2387(4) 0.1779(3) 0.1240(2)
C13 C 1.1517(5) 0.1377(3) 0.0828(2)
H11 H 1.1794 0.1375 0.0336
C14 C 1.0296(5) 0.1001(4) 0.1144(3)
H12 H 0.9748 0.0726 0.0877
C15 C 0.9860(4) 0.1028(4) 0.1880(3)
H13 H 0.9020 0.0765 0.2093
C16 C 1.0621(4) 0.1424(3) 0.2291(3)
H14 H 1.0291 0.1440 0.2773
C17 C 1.1933(4) 0.1819(3) 0.1981(2)
N3 N 0.7896(3) 0.5254(2) 0.35793(18)
H2 H 0.7929 0.5357 0.3086
N4 N 0.8786(4) 0.4477(3) 0.4158(2)
C18 C 0.8392(6) 0.4553(4) 0.4831(3)
H15 H 0.8813 0.4100 0.5322
C19 C 0.7251(6) 0.5414(3) 0.4701(2)
H16 H 0.6786 0.5656 0.5075
C20 C 0.6958(4) 0.5835(3) 0.3893(2)
C21 C 0.5815(4) 0.6751(3) 0.3449(2)
C22 C 0.6053(4) 0.7757(3) 0.3321(2)
C23 C 0.7444(4) 0.7964(3) 0.3490(2)
H17 H 0.8243 0.7410 0.3689
C24 C 0.7624(5) 0.8949(3) 0.3368(2)
H18 H 0.8545 0.9060 0.3481
C25 C 0.6433(6) 0.9812(3) 0.3071(3)
H19 H 0.6567 1.0484 0.2997
C26 C 0.5116(6) 0.9656(3) 0.2897(3)
H20 H 0.4342 1.0229 0.2700
C27 C 0.4859(5) 0.8642(3) 0.3001(2)
C28 C 0.3505(5) 0.8466(4) 0.2819(3)
H21 H 0.2730 0.9037 0.2616
C29 C 0.3253(4) 0.7489(4) 0.2924(2)
C30 C 0.1829(5) 0.7308(6) 0.2756(3)
H22 H 0.1033 0.7869 0.2581
C31 C 0.1631(7) 0.6352(7) 0.2847(3)
H23 H 0.0707 0.6255 0.2724
C32 C 0.2805(8) 0.5491(6) 0.3126(3)
H24 H 0.2649 0.4831 0.3179
C33 C 0.4158(6) 0.5598(4) 0.3320(3)
H25 H 0.4910 0.5009 0.3514
C34 C 0.4447(4) 0.6592(3) 0.3232(2)
N5 N 0.9387(3) 0.4569(2) 0.18916(18)
H3 H 1.0018 0.4123 0.2251
N6 N 0.8284(3) 0.5281(2) 0.20009(16)
C35 C 0.9346(4) 0.4664(3) 0.1146(2)
H26 H 0.9999 0.4262 0.0926
C36 C 0.8177(4) 0.5457(3) 0.0745(2)
H27 H 0.7885 0.5688 0.0215
C37 C 0.7537(3) 0.5830(2) 0.13067(19)
C38 C 0.6268(3) 0.6709(2) 0.12123(18)
C39 C 0.4815(3) 0.6600(2) 0.10645(19)
C40 C 0.4483(4) 0.5642(3) 0.1061(2)
H28 H 0.5241 0.5061 0.1157
C41 C 0.3072(4) 0.5573(3) 0.0918(2)
H29 H 0.2875 0.4943 0.0923
C42 C 0.1896(4) 0.6446(3) 0.0761(2)
H30 H 0.0939 0.6386 0.0656
C43 C 0.2154(4) 0.7364(3) 0.0763(2)
H31 H 0.1369 0.7929 0.0662
C44 C 0.3615(3) 0.7480(3) 0.09183(19)
C45 C 0.3907(3) 0.8416(3) 0.0916(2)
H32 H 0.3127 0.8984 0.0817
C46 C 0.5336(3) 0.8534(3) 0.1058(2)
C47 C 0.5631(4) 0.9500(3) 0.1046(2)
H33 H 0.4852 1.0070 0.0946
C48 C 0.7012(4) 0.9608(3) 0.1177(2)
H34 H 0.7183 1.0248 0.1165
C49 C 0.8205(4) 0.8752(3) 0.1334(2)
H35 H 0.9157 0.8835 0.1422
C50 C 0.7986(4) 0.7815(3) 0.1357(2)
H36 H 0.8791 0.7262 0.1462
C51 C 0.6535(3) 0.7655(2) 0.12224(18)
C52 C 0.7728(10) 0.1836(10) 0.4757(6)
H37 H 0.8271 0.2367 0.4421
Cl1 Cl 0.7694(6) 0.0992(2) 0.43028(19)
Cl2 Cl 0.8686(3) 0.1259(3) 0.56301(16)
Cl3 Cl 0.5985(3) 0.2502(3) 0.48418(17)
loop_
_geom_bond_atom_site_label_1
_geom_bond_atom_site_label_2
_geom_bond_site_symmetry_1
_geom_bond_site_symmetry_2
N1 H1 1_555 1_555
N2 N1 1_555 1_555
N3 H2 1_555 1_555
N4 N3 1_555 1_555
N5 H3 1_555 1_555
N6 N5 1_555 1_555
C1 N1 1_555 1_555
H4 C1 1_555 1_555
C2 C1 1_555 1_555
H5 C2 1_555 1_555
C3 N2 1_555 1_555
C4 C3 1_555 1_555
C5 C4 1_555 1_555
C6 C5 1_555 1_555
H6 C6 1_555 1_555
C7 C6 1_555 1_555
H7 C7 1_555 1_555
C8 C7 1_555 1_555
H8 C8 1_555 1_555
C9 C8 1_555 1_555
H9 C9 1_555 1_555
C10 C5 1_555 1_555
C11 C10 1_555 1_555
H10 C11 1_555 1_555
C12 C11 1_555 1_555
C13 C12 1_555 1_555
H11 C13 1_555 1_555
C14 C13 1_555 1_555
H12 C14 1_555 1_555
C15 C14 1_555 1_555
H13 C15 1_555 1_555
C16 C15 1_555 1_555
H14 C16 1_555 1_555
C17 C4 1_555 1_555
C18 N4 1_555 1_555
H15 C18 1_555 1_555
C19 C18 1_555 1_555
H16 C19 1_555 1_555
C20 N3 1_555 1_555
C21 C20 1_555 1_555
C22 C21 1_555 1_555
C23 C22 1_555 1_555
H17 C23 1_555 1_555
C24 C23 1_555 1_555
H18 C24 1_555 1_555
C25 C24 1_555 1_555
H19 C25 1_555 1_555
C26 C25 1_555 1_555
H20 C26 1_555 1_555
C27 C22 1_555 1_555
C28 C27 1_555 1_555
H21 C28 1_555 1_555
C29 C28 1_555 1_555
C30 C29 1_555 1_555
H22 C30 1_555 1_555
C31 C30 1_555 1_555
H23 C31 1_555 1_555
C32 C31 1_555 1_555
H24 C32 1_555 1_555
C33 C32 1_555 1_555
H25 C33 1_555 1_555
C34 C21 1_555 1_555
C35 N5 1_555 1_555
H26 C35 1_555 1_555
C36 C35 1_555 1_555
H27 C36 1_555 1_555
C37 N6 1_555 1_555
C38 C37 1_555 1_555
C39 C38 1_555 1_555
C40 C39 1_555 1_555
H28 C40 1_555 1_555
C41 C40 1_555 1_555
H29 C41 1_555 1_555
C42 C41 1_555 1_555
H30 C42 1_555 1_555
C43 C42 1_555 1_555
H31 C43 1_555 1_555
C44 C39 1_555 1_555
C45 C44 1_555 1_555
H32 C45 1_555 1_555
C46 C45 1_555 1_555
C47 C46 1_555 1_555
H33 C47 1_555 1_555
C48 C47 1_555 1_555
H34 C48 1_555 1_555
C49 C48 1_555 1_555
H35 C49 1_555 1_555
C50 C49 1_555 1_555
H36 C50 1_555 1_555
C51 C38 1_555 1_555
C52 H37 1_555 1_555
Cl1 C52 1_555 1_555
Cl2 C52 1_555 1_555
Cl3 C52 1_555 1_555
C2 C3 1_555 1_555
C9 C10 1_555 1_555
C12 C17 1_555 1_555
C16 C17 1_555 1_555
C19 C20 1_555 1_555
C26 C27 1_555 1_555
C29 C34 1_555 1_555
C33 C34 1_555 1_555
C36 C37 1_555 1_555
C43 C44 1_555 1_555
C46 C51 1_555 1_555
C50 C51 1_555 1_555

#END
