
#######################################################################
#
#                 Cambridge Crystallographic Data Centre
#                                CCDC 
#
#######################################################################
#
# If this CIF has been generated from an entry in the Cambridge 
# Structural Database, then it will include bibliographic, chemical, 
# crystal, experimental, refinement or atomic coordinate data resulting 
# from the CCDC's data processing and validation procedures.
#
#######################################################################

data_LEQVUY
_chemical_formula_moiety         'C2 H7 N3 S1'
_chemical_name_systematic        4-Methyl-3-thiosemicarbazide
_symmetry_cell_setting           monoclinic
_symmetry_space_group_name_H-M   'P 21/c'
_symmetry_Int_Tables_number      14
_space_group_name_Hall           '-P 2ybc'
loop_
_symmetry_equiv_pos_site_id
_symmetry_equiv_pos_as_xyz
1 x,y,z
2 -x,1/2+y,1/2-z
3 -x,-y,-z
4 x,1/2-y,1/2+z
_cell_length_a                   6.0090(10)
_cell_length_b                   8.937(2)
_cell_length_c                   19.012(4)
_cell_angle_alpha                90
_cell_angle_beta                 92.82(2)
_cell_angle_gamma                90
_cell_volume                     1019.75
_cell_formula_units_Z            8
loop_
_atom_site_label
_atom_site_type_symbol
_atom_site_fract_x
_atom_site_fract_y
_atom_site_fract_z
S1 S 0.4994(1) -0.3095(1) -0.2289(1)
N1 N 1.0382(2) -0.0620(1) -0.2390(1)
N2 N 0.8700(2) -0.1679(1) -0.2532(1)
C1 C 0.7002(2) -0.1794(1) -0.2099(1)
N3 N 0.7041(2) -0.0878(1) -0.1556(1)
C2 C 0.5375(2) -0.0803(2) -0.1034(1)
S2 S 0.0329(1) 0.1864(1) -0.0827(1)
N4 N -0.5168(2) 0.4299(1) -0.0914(1)
N5 N -0.3375(2) 0.3373(1) -0.1089(1)
C3 C -0.1796(2) 0.2986(1) -0.0600(1)
N6 N -0.1999(2) 0.3527(1) 0.0043(1)
C4 C -0.0472(2) 0.3209(2) 0.0635(1)
loop_
_geom_bond_atom_site_label_1
_geom_bond_atom_site_label_2
_geom_bond_site_symmetry_1
_geom_bond_site_symmetry_2
S1 C1 1_555 1_555
S2 C3 1_555 1_555
N1 N2 1_555 1_555
N2 C1 1_555 1_555
C1 N3 1_555 1_555
N3 C2 1_555 1_555
N4 N5 1_555 1_555
N5 C3 1_555 1_555
C3 N6 1_555 1_555
N6 C4 1_555 1_555

#END
