
#######################################################################
#
#                 Cambridge Crystallographic Data Centre
#                                CCDC 
#
#######################################################################
#
# If this CIF has been generated from an entry in the Cambridge 
# Structural Database, then it will include bibliographic, chemical, 
# crystal, experimental, refinement or atomic coordinate data resulting 
# from the CCDC's data processing and validation procedures.
#
#######################################################################

data_LEQXEN
_chemical_formula_moiety         'C28 H34 O5'
_chemical_name_systematic        
'(2-hydroxy-1,4a-dimethyl-6-methylidene-5-(2-(2-oxo-2,5-dihydrofuran-3-yl)ethenyl)decahydronaphthalen-1-yl)methyl 3-methylbenzoate'
_chemical_properties_biological  'insecticidal and acaricidal activity'
_symmetry_cell_setting           monoclinic
_symmetry_space_group_name_H-M   'P 21'
_symmetry_Int_Tables_number      4
_space_group_name_Hall           'P 2yb'
loop_
_symmetry_equiv_pos_site_id
_symmetry_equiv_pos_as_xyz
1 x,y,z
2 -x,1/2+y,-z
_cell_length_a                   10.4682(8)
_cell_length_b                   6.4252(3)
_cell_length_c                   18.5537(11)
_cell_angle_alpha                90
_cell_angle_beta                 101.077(6)
_cell_angle_gamma                90
_cell_volume                     1224.68
_exptl_crystal_colour            colorless
_exptl_crystal_description       block
_cell_formula_units_Z            2
loop_
_atom_site_label
_atom_site_type_symbol
_atom_site_fract_x
_atom_site_fract_y
_atom_site_fract_z
O1 O -0.3665(4) -0.4614(6) -0.4954(2)
H1 H -0.304576 -0.390056 -0.475757
O2 O -0.7412(5) -0.9940(8) -0.9418(3)
O3 O -0.8382(5) -0.7294(8) -1.0077(2)
O4 O -0.2473(4) -0.8406(6) -0.43866(19)
O5 O -0.1831(4) -1.1706(6) -0.41175(19)
C1 C -0.3687(5) -0.8441(8) -0.7755(3)
H2 H -0.317540 -0.722649 -0.784766
C2 C -0.2841(6) -1.0329(9) -0.7808(3)
C3 C -0.1565(6) -1.0263(10) -0.7276(3)
H3 H -0.101395 -0.921505 -0.743636
H4 H -0.113394 -1.159753 -0.728243
C4 C -0.1704(5) -0.9778(9) -0.6491(3)
H5 H -0.084828 -0.951346 -0.619716
H6 H -0.206296 -1.098452 -0.628663
C5 C -0.2579(5) -0.7897(8) -0.6440(3)
H7 H -0.217498 -0.675897 -0.666775
C6 C -0.2560(5) -0.7135(8) -0.5639(3)
C7 C -0.3473(5) -0.5259(8) -0.5664(3)
H8 H -0.307724 -0.409324 -0.588196
C8 C -0.4817(5) -0.5619(8) -0.6125(3)
H9 H -0.524843 -0.671945 -0.590522
H10 H -0.533096 -0.436123 -0.612906
C9 C -0.4748(5) -0.6213(8) -0.6907(3)
H11 H -0.436739 -0.507207 -0.713610
H12 H -0.562268 -0.643648 -0.718285
C10 C -0.3937(5) -0.8188(8) -0.6945(3)
C11 C -0.4926(6) -0.8373(9) -0.8326(3)
H13 H -0.550727 -0.947713 -0.835058
C12 C -0.5217(7) -0.6829(10) -0.8789(3)
H14 H -0.459096 -0.579305 -0.876966
C13 C -0.6413(7) -0.6548(9) -0.9331(3)
C14 C -0.7384(8) -0.8141(12) -0.9580(4)
C15 C -0.8106(8) -0.5139(13) -1.0176(4)
H15 H -0.876343 -0.425509 -1.003030
H16 H -0.806351 -0.484846 -1.068398
C16 C -0.6832(9) -0.4822(12) -0.9694(4)
H17 H -0.637650 -0.357081 -0.964942
C17 C -0.3165(7) -1.1864(10) -0.8281(3)
H18 H -0.259187 -1.296434 -0.829322
H19 H -0.396517 -1.184571 -0.860171
C18 C -0.4689(5) -1.0104(8) -0.6753(3)
H20 H -0.546730 -1.027905 -0.711668
H21 H -0.491473 -0.990791 -0.627974
H22 H -0.415264 -1.132031 -0.674177
C19 C -0.1168(5) -0.6398(9) -0.5308(3)
H23 H -0.059362 -0.757639 -0.523159
H24 H -0.116659 -0.571914 -0.484693
H25 H -0.087703 -0.544065 -0.563950
C20 C -0.2955(6) -0.8892(8) -0.5158(3)
H26 H -0.389576 -0.902497 -0.524959
H27 H -0.259161 -1.020410 -0.528070
C21 C -0.1960(5) -0.9918(9) -0.3939(3)
C22 C -0.1597(5) -0.9146(8) -0.3168(3)
C23 C -0.1943(5) -0.7176(9) -0.2975(3)
H28 H -0.237722 -0.627156 -0.333049
C24 C -0.1634(6) -0.6559(10) -0.2241(3)
H29 H -0.188886 -0.525760 -0.210075
C25 C -0.0944(6) -0.7896(10) -0.1725(3)
H30 H -0.072744 -0.746258 -0.123814
C26 C -0.0571(6) -0.9841(10) -0.1907(3)
C27 C -0.0925(5) -1.0452(9) -0.2639(3)
H31 H -0.070150 -1.177779 -0.277335
C28 C 0.0208(7) -1.1263(11) -0.1341(3)
H32 H -0.037271 -1.213481 -0.113356
H33 H 0.072261 -1.044353 -0.095941
H34 H 0.077059 -1.211488 -0.156920
loop_
_geom_bond_atom_site_label_1
_geom_bond_atom_site_label_2
_geom_bond_site_symmetry_1
_geom_bond_site_symmetry_2
O1 H1 1_555 1_555
O2 C14 1_555 1_555
O3 C14 1_555 1_555
O4 C20 1_555 1_555
O5 C21 1_555 1_555
C1 H2 1_555 1_555
C2 C1 1_555 1_555
C3 C2 1_555 1_555
H3 C3 1_555 1_555
H4 C3 1_555 1_555
C4 C3 1_555 1_555
H5 C4 1_555 1_555
H6 C4 1_555 1_555
C5 C4 1_555 1_555
H7 C5 1_555 1_555
C6 C5 1_555 1_555
C7 O1 1_555 1_555
H8 C7 1_555 1_555
C8 C7 1_555 1_555
H9 C8 1_555 1_555
H10 C8 1_555 1_555
C9 C8 1_555 1_555
H11 C9 1_555 1_555
H12 C9 1_555 1_555
C10 C1 1_555 1_555
C11 C1 1_555 1_555
H13 C11 1_555 1_555
C12 C11 1_555 1_555
H14 C12 1_555 1_555
C13 C12 1_555 1_555
C14 C13 1_555 1_555
C15 O3 1_555 1_555
H15 C15 1_555 1_555
H16 C15 1_555 1_555
C16 C13 1_555 1_555
H17 C16 1_555 1_555
C17 C2 1_555 1_555
H18 C17 1_555 1_555
H19 C17 1_555 1_555
C18 C10 1_555 1_555
H20 C18 1_555 1_555
H21 C18 1_555 1_555
H22 C18 1_555 1_555
C19 C6 1_555 1_555
H23 C19 1_555 1_555
H24 C19 1_555 1_555
H25 C19 1_555 1_555
C20 C6 1_555 1_555
H26 C20 1_555 1_555
H27 C20 1_555 1_555
C21 O4 1_555 1_555
C22 C21 1_555 1_555
C23 C22 1_555 1_555
H28 C23 1_555 1_555
C24 C23 1_555 1_555
H29 C24 1_555 1_555
C25 C24 1_555 1_555
H30 C25 1_555 1_555
C26 C25 1_555 1_555
C27 C22 1_555 1_555
H31 C27 1_555 1_555
C28 C26 1_555 1_555
H32 C28 1_555 1_555
H33 C28 1_555 1_555
H34 C28 1_555 1_555
C5 C10 1_555 1_555
C6 C7 1_555 1_555
C9 C10 1_555 1_555
C15 C16 1_555 1_555
C26 C27 1_555 1_555

#END
