
#######################################################################
#
#                 Cambridge Crystallographic Data Centre
#                                CCDC 
#
#######################################################################
#
# If this CIF has been generated from an entry in the Cambridge 
# Structural Database, then it will include bibliographic, chemical, 
# crystal, experimental, refinement or atomic coordinate data resulting 
# from the CCDC's data processing and validation procedures.
#
#######################################################################

data_LEQXEL
_chemical_formula_moiety         'C56 H80 N4 O12'
_chemical_name_systematic        
5,11,17,23-tetrakis(t-Butylnitroxide)-25,26,27,28-tetrakis(2-methoxyethoxy)calix(4)arene
_symmetry_cell_setting           monoclinic
_symmetry_space_group_name_H-M   'P 21/c'
_symmetry_Int_Tables_number      14
_space_group_name_Hall           '-P 2ybc'
loop_
_symmetry_equiv_pos_site_id
_symmetry_equiv_pos_as_xyz
1 x,y,z
2 -x,1/2+y,1/2-z
3 -x,-y,-z
4 x,1/2-y,1/2+z
_cell_length_a                   14.920(4)
_cell_length_b                   35.167(9)
_cell_length_c                   10.593(3)
_cell_angle_alpha                90
_cell_angle_beta                 100.379(7)
_cell_angle_gamma                90
_cell_volume                     5467.12
_exptl_crystal_colour            red
_exptl_crystal_description       block
_chemical_melting_point          169-171deg.C(dec)
_cell_formula_units_Z            4
_exptl_crystal_recrystallization_method methanol
_exptl_crystal_preparation       antiferromagnetic
loop_
_atom_site_label
_atom_site_type_symbol
_atom_site_fract_x
_atom_site_fract_y
_atom_site_fract_z
O1 O 1.00732(8) 0.21858(4) -0.06125(11)
O2 O 0.62585(7) 0.19269(3) 0.05597(10)
O3 O 0.44339(8) 0.20444(3) -0.12074(11)
O4 O 0.41245(8) 0.04227(3) -0.13512(12)
O5 O 0.81275(7) 0.09200(3) -0.02465(10)
O6 O 0.97617(8) 0.04682(3) -0.05369(11)
O7 O 1.07263(8) 0.10993(3) 0.38903(12)
O8 O 0.66701(7) 0.06069(3) 0.31269(10)
O9 O 0.57524(8) 0.04008(3) 0.52814(11)
O10 O 0.41225(7) 0.18891(3) 0.30086(11)
O11 O 0.83499(7) 0.17092(3) 0.44181(10)
O12 O 0.98276(8) 0.15223(3) 0.66343(11)
N1 N 0.99600(9) 0.21049(4) 0.05421(12)
N2 N 0.43896(8) 0.07299(3) -0.07226(12)
N3 N 1.04319(9) 0.07605(3) 0.35879(13)
N4 N 0.45735(9) 0.16563(3) 0.38247(12)
C1 C 0.77331(10) 0.21207(4) 0.16879(14)
C2 C 0.86589(10) 0.21591(4) 0.16923(15)
H1 H 0.9037 0.2280 0.2396
C3 C 0.90389(10) 0.20218(4) 0.06702(15)
C4 C 0.85015(10) 0.18221(4) -0.03242(14)
H2 H 0.8770 0.1719 -0.0997
C5 C 0.75774(10) 0.17733(4) -0.03384(14)
C6 C 0.71949(10) 0.19394(4) 0.06446(15)
C7 C 0.69931(10) 0.15409(4) -0.13744(14)
H3 H 0.7359 0.1470 -0.2030
H4 H 0.6476 0.1699 -0.1799
C8 C 0.66229(10) 0.11812(4) -0.08518(13)
C9 C 0.56932(10) 0.11331(4) -0.09352(13)
H5 H 0.5287 0.1329 -0.1295
C10 C 0.53502(10) 0.08004(4) -0.04953(13)
C11 C 0.59320(10) 0.05230(4) 0.01229(13)
H6 H 0.5690 0.0300 0.0437
C12 C 0.68643(10) 0.05727(4) 0.02797(13)
C13 C 0.71990(10) 0.08936(4) -0.02725(13)
C14 C 0.75176(10) 0.02953(4) 0.10536(14)
H7 H 0.7955 0.0204 0.0522
H8 H 0.7172 0.0073 0.1281
C15 C 0.80415(10) 0.04738(4) 0.22774(14)
C16 C 0.89788(10) 0.05135(4) 0.24129(14)
H9 H 0.9288 0.0410 0.1782
C17 C 0.94703(10) 0.07040(4) 0.34707(14)
C18 C 0.90225(10) 0.08725(4) 0.43683(14)
H10 H 0.9360 0.1013 0.5060
C19 C 0.80874(10) 0.08369(4) 0.42610(13)
C20 C 0.76039(9) 0.06276(4) 0.32352(13)
C21 C 0.76018(10) 0.10361(4) 0.52187(14)
H11 H 0.7219 0.0849 0.5576
H12 H 0.8061 0.1135 0.5936
C22 C 0.70090(10) 0.13612(4) 0.46245(13)
C23 C 0.60716(10) 0.13451(4) 0.45008(13)
H13 H 0.5794 0.1131 0.4821
C24 C 0.55286(10) 0.16426(4) 0.39060(14)
C25 C 0.59433(10) 0.19384(4) 0.33429(14)
H14 H 0.5574 0.2128 0.2867
C26 C 0.68783(10) 0.19611(4) 0.34638(14)
C27 C 0.74100(10) 0.16801(4) 0.41663(14)
C28 C 0.73197(11) 0.22736(4) 0.27977(15)
H15 H 0.7802 0.2398 0.3427
H16 H 0.6857 0.2468 0.2471
C29 C 1.07801(10) 0.19560(4) 0.14366(16)
C30 C 1.06472(11) 0.19662(5) 0.28282(16)
H17 H 1.0537 0.2229 0.3071
H18 H 1.1195 0.1868 0.3384
H19 H 1.0123 0.1808 0.2925
C31 C 1.09123(14) 0.15440(5) 0.10256(18)
H20 H 1.0979 0.1539 0.0122
H21 H 1.0381 0.1392 0.1136
H22 H 1.1461 0.1438 0.1557
C32 C 1.15859(12) 0.22024(6) 0.1257(2)
H23 H 1.1474 0.2466 0.1488
H24 H 1.1663 0.2192 0.0358
H25 H 1.2140 0.2108 0.1809
C33 C 0.58527(11) 0.22675(4) -0.00509(17)
H26 H 0.5999 0.2287 -0.0924
H27 H 0.6113 0.2492 0.0446
C34 C 0.48413(11) 0.22660(5) -0.01398(16)
H28 H 0.4685 0.2159 0.0657
H29 H 0.4606 0.2530 -0.0238
C35 C 0.34824(13) 0.21101(6) -0.1499(2)
H30 H 0.3215 0.1958 -0.2248
H31 H 0.3368 0.2380 -0.1688
H32 H 0.3206 0.2037 -0.0763
C36 C 0.37337(11) 0.09113(5) 0.00005(16)
C37 C 0.34963(17) 0.06141(6) 0.0935(2)
H33 H 0.4043 0.0550 0.1560
H34 H 0.3262 0.0385 0.0461
H35 H 0.3030 0.0716 0.1386
C38 C 0.29000(13) 0.10206(7) -0.0988(2)
H36 H 0.3076 0.1205 -0.1591
H37 H 0.2438 0.1133 -0.0552
H38 H 0.2649 0.0793 -0.1459
C39 C 0.41566(12) 0.12586(5) 0.07304(17)
H39 H 0.4706 0.1183 0.1332
H40 H 0.3718 0.1372 0.1207
H41 H 0.4319 0.1445 0.0123
C40 C 0.83604(11) 0.07619(5) -0.13981(15)
H42 H 0.8060 0.0910 -0.2151
H43 H 0.8140 0.0496 -0.1505
C41 C 0.93697(11) 0.07709(5) -0.13264(16)
H44 H 0.9517 0.0744 -0.2197
H45 H 0.9618 0.1017 -0.0963
C42 C 1.07123(12) 0.04506(5) -0.04776(18)
H46 H 1.0962 0.0236 0.0062
H47 H 1.0992 0.0687 -0.0110
H48 H 1.0844 0.0417 -0.1344
C43 C 1.11234(10) 0.04512(4) 0.39000(15)
C44 C 1.14818(12) 0.04709(5) 0.53504(16)
H49 H 1.1774 0.0718 0.5566
H50 H 1.1927 0.0267 0.5599
H51 H 1.0973 0.0440 0.5812
C45 C 1.07222(11) 0.00607(4) 0.35326(17)
H52 H 1.0523 0.0048 0.2600
H53 H 1.0199 0.0017 0.3957
H54 H 1.1185 -0.0135 0.3804
C46 C 1.18763(11) 0.05387(5) 0.31403(17)
H55 H 1.1634 0.0515 0.2220
H56 H 1.2379 0.0359 0.3382
H57 H 1.2099 0.0798 0.3331
C47 C 0.63134(10) 0.02393(4) 0.33692(15)
H58 H 0.6662 0.0041 0.3002
H59 H 0.5671 0.0223 0.2925
C48 C 0.63567(10) 0.01586(4) 0.47752(15)
H60 H 0.6190 -0.0110 0.4892
H61 H 0.6986 0.0199 0.5243
C49 C 0.57950(13) 0.03421(5) 0.66205(16)
H62 H 0.5311 0.0489 0.6911
H63 H 0.6389 0.0426 0.7088
H64 H 0.5714 0.0071 0.6785
C50 C 0.40626(10) 0.14560(5) 0.47418(15)
C51 C 0.45393(12) 0.15218(6) 0.61199(16)
H65 H 0.4600 0.1796 0.6286
H66 H 0.5145 0.1405 0.6253
H67 H 0.4180 0.1407 0.6709
C52 C 0.31081(12) 0.16266(6) 0.45626(18)
H68 H 0.3152 0.1899 0.4754
H69 H 0.2760 0.1501 0.5145
H70 H 0.2799 0.1589 0.3674
C53 C 0.39790(12) 0.10319(5) 0.4408(2)
H71 H 0.3687 0.1002 0.3508
H72 H 0.3610 0.0906 0.4962
H73 H 0.4587 0.0917 0.4541
C54 C 0.86503(12) 0.19272(5) 0.55733(17)
H74 H 0.8322 0.1841 0.6254
H75 H 0.8508 0.2199 0.5403
C55 C 0.96499(11) 0.18794(5) 0.60157(16)
H76 H 0.9966 0.1894 0.5272
H77 H 0.9884 0.2086 0.6619
C56 C 1.07725(13) 0.14637(6) 0.70139(19)
H78 H 1.0880 0.1216 0.7437
H79 H 1.1029 0.1665 0.7612
H80 H 1.1065 0.1470 0.6257
loop_
_geom_bond_atom_site_label_1
_geom_bond_atom_site_label_2
_geom_bond_site_symmetry_1
_geom_bond_site_symmetry_2
O1 N1 1_555 1_555
O2 C6 1_555 1_555
O3 C34 1_555 1_555
O4 N2 1_555 1_555
O5 C13 1_555 1_555
O6 C41 1_555 1_555
O7 N3 1_555 1_555
O8 C20 1_555 1_555
O9 C48 1_555 1_555
O10 N4 1_555 1_555
O11 C27 1_555 1_555
O12 C55 1_555 1_555
N1 C3 1_555 1_555
N2 C10 1_555 1_555
N3 C17 1_555 1_555
N4 C24 1_555 1_555
C1 C2 1_555 1_555
C2 H1 1_555 1_555
C3 C2 1_555 1_555
C4 C3 1_555 1_555
H2 C4 1_555 1_555
C5 C4 1_555 1_555
C6 C1 1_555 1_555
C7 C5 1_555 1_555
H3 C7 1_555 1_555
H4 C7 1_555 1_555
C8 C7 1_555 1_555
C9 C8 1_555 1_555
H5 C9 1_555 1_555
C10 C9 1_555 1_555
C11 C10 1_555 1_555
H6 C11 1_555 1_555
C12 C11 1_555 1_555
C13 C8 1_555 1_555
C14 C12 1_555 1_555
H7 C14 1_555 1_555
H8 C14 1_555 1_555
C15 C14 1_555 1_555
C16 C15 1_555 1_555
H9 C16 1_555 1_555
C17 C16 1_555 1_555
C18 C17 1_555 1_555
H10 C18 1_555 1_555
C19 C18 1_555 1_555
C20 C15 1_555 1_555
C21 C19 1_555 1_555
H11 C21 1_555 1_555
H12 C21 1_555 1_555
C22 C21 1_555 1_555
C23 C22 1_555 1_555
H13 C23 1_555 1_555
C24 C23 1_555 1_555
C25 C24 1_555 1_555
H14 C25 1_555 1_555
C26 C25 1_555 1_555
C27 C22 1_555 1_555
C28 C1 1_555 1_555
H15 C28 1_555 1_555
H16 C28 1_555 1_555
C29 N1 1_555 1_555
C30 C29 1_555 1_555
H17 C30 1_555 1_555
H18 C30 1_555 1_555
H19 C30 1_555 1_555
C31 C29 1_555 1_555
H20 C31 1_555 1_555
H21 C31 1_555 1_555
H22 C31 1_555 1_555
C32 C29 1_555 1_555
H23 C32 1_555 1_555
H24 C32 1_555 1_555
H25 C32 1_555 1_555
C33 O2 1_555 1_555
H26 C33 1_555 1_555
H27 C33 1_555 1_555
C34 C33 1_555 1_555
H28 C34 1_555 1_555
H29 C34 1_555 1_555
C35 O3 1_555 1_555
H30 C35 1_555 1_555
H31 C35 1_555 1_555
H32 C35 1_555 1_555
C36 N2 1_555 1_555
C37 C36 1_555 1_555
H33 C37 1_555 1_555
H34 C37 1_555 1_555
H35 C37 1_555 1_555
C38 C36 1_555 1_555
H36 C38 1_555 1_555
H37 C38 1_555 1_555
H38 C38 1_555 1_555
C39 C36 1_555 1_555
H39 C39 1_555 1_555
H40 C39 1_555 1_555
H41 C39 1_555 1_555
C40 O5 1_555 1_555
H42 C40 1_555 1_555
H43 C40 1_555 1_555
C41 C40 1_555 1_555
H44 C41 1_555 1_555
H45 C41 1_555 1_555
C42 O6 1_555 1_555
H46 C42 1_555 1_555
H47 C42 1_555 1_555
H48 C42 1_555 1_555
C43 N3 1_555 1_555
C44 C43 1_555 1_555
H49 C44 1_555 1_555
H50 C44 1_555 1_555
H51 C44 1_555 1_555
C45 C43 1_555 1_555
H52 C45 1_555 1_555
H53 C45 1_555 1_555
H54 C45 1_555 1_555
C46 C43 1_555 1_555
H55 C46 1_555 1_555
H56 C46 1_555 1_555
H57 C46 1_555 1_555
C47 O8 1_555 1_555
H58 C47 1_555 1_555
H59 C47 1_555 1_555
C48 C47 1_555 1_555
H60 C48 1_555 1_555
H61 C48 1_555 1_555
C49 O9 1_555 1_555
H62 C49 1_555 1_555
H63 C49 1_555 1_555
H64 C49 1_555 1_555
C50 N4 1_555 1_555
C51 C50 1_555 1_555
H65 C51 1_555 1_555
H66 C51 1_555 1_555
H67 C51 1_555 1_555
C52 C50 1_555 1_555
H68 C52 1_555 1_555
H69 C52 1_555 1_555
H70 C52 1_555 1_555
C53 C50 1_555 1_555
H71 C53 1_555 1_555
H72 C53 1_555 1_555
H73 C53 1_555 1_555
C54 O11 1_555 1_555
H74 C54 1_555 1_555
H75 C54 1_555 1_555
C55 C54 1_555 1_555
H76 C55 1_555 1_555
H77 C55 1_555 1_555
C56 O12 1_555 1_555
H78 C56 1_555 1_555
H79 C56 1_555 1_555
H80 C56 1_555 1_555
C5 C6 1_555 1_555
C12 C13 1_555 1_555
C19 C20 1_555 1_555
C26 C27 1_555 1_555
C26 C28 1_555 1_555

#END
