
#######################################################################
#
#                 Cambridge Crystallographic Data Centre
#                                CCDC 
#
#######################################################################
#
# If this CIF has been generated from an entry in the Cambridge 
# Structural Database, then it will include bibliographic, chemical, 
# crystal, experimental, refinement or atomic coordinate data resulting 
# from the CCDC's data processing and validation procedures.
#
#######################################################################

data_LERFEU
_chemical_formula_moiety         'C20 H17 N1 O7'
_chemical_name_systematic        'gmelanone oxime'
_symmetry_cell_setting           orthorhombic
_symmetry_space_group_name_H-M   'P 21 21 21'
_symmetry_Int_Tables_number      19
_space_group_name_Hall           'P 2ac 2ab'
loop_
_symmetry_equiv_pos_site_id
_symmetry_equiv_pos_as_xyz
1 x,y,z
2 1/2-x,-y,1/2+z
3 -x,1/2+y,1/2-z
4 1/2+x,1/2-y,-z
_cell_length_a                   5.9627(3)
_cell_length_b                   10.4827(6)
_cell_length_c                   25.8598(17)
_cell_angle_alpha                90
_cell_angle_beta                 90
_cell_angle_gamma                90
_cell_volume                     1616.37
_exptl_crystal_colour            colorless
_exptl_crystal_description       Plate
_chemical_melting_point          180deg.C
_cell_formula_units_Z            4
_exptl_crystal_recrystallization_method methanol
loop_
_atom_site_label
_atom_site_type_symbol
_atom_site_fract_x
_atom_site_fract_y
_atom_site_fract_z
O1 O 0.0102(6) 0.4457(3) 0.14995(11)
O2 O 0.2641(6) 0.7225(2) 0.03876(10)
O3 O 0.6120(5) 0.7251(3) 0.10586(11)
O4 O 0.2177(6) 0.2551(3) -0.11135(11)
O5 O 0.9177(6) 0.4283(3) 0.30075(12)
N1 N 0.1277(7) 0.4548(3) 0.10204(13)
O6 O 1.0221(6) 0.6390(3) 0.28685(13)
O7 O -0.0248(6) 0.4275(3) -0.10461(11)
C1 C 0.7435(9) 0.6823(4) 0.21948(17)
C2 C 0.1345(9) 0.4317(4) -0.06544(16)
C3 C 0.2268(8) 0.5627(4) 0.09813(16)
C4 C -0.0033(11) 0.3014(4) -0.1259(2)
C5 C 0.5627(8) 0.6304(4) 0.19089(16)
C6 C 0.2782(9) 0.3304(4) -0.06943(17)
C7 C 0.4855(9) 0.4069(4) 0.00089(17)
C8 C 0.3586(8) 0.6006(4) 0.05093(16)
C9 C 0.6120(10) 0.4301(5) 0.23719(18)
C10 C 0.7798(9) 0.4848(4) 0.26378(17)
C11 C 0.3390(9) 0.5095(4) 0.00600(15)
C12 C 0.1689(10) 0.7777(5) 0.08614(18)
C13 C 0.1574(9) 0.5239(4) -0.02788(17)
C14 C 0.4587(10) 0.3148(4) -0.03763(18)
C15 C 0.8450(9) 0.6084(4) 0.25522(17)
C16 C 0.4610(8) 0.7138(4) 0.14931(17)
C17 C 1.0495(12) 0.5317(5) 0.3205(2)
C18 C 0.2247(9) 0.6823(4) 0.12959(18)
C19 C 0.6040(9) 0.6206(5) 0.07001(19)
C20 C 0.4991(10) 0.5055(5) 0.20118(18)
H1 H 0.605(7) 0.401(3) 0.0264(13)
H2 H 0.063(7) 0.600(3) -0.0250(14)
H3 H 0.109(7) 0.681(3) 0.1572(14)
H4 H 0.454(7) 0.811(3) 0.1636(12)
H5 H 0.669(7) 0.547(3) 0.0869(14)
H6 H 0.800(6) 0.780(3) 0.2127(12)
H7 H 0.707(8) 0.647(3) 0.0403(16)
H8 H 0.982(9) 0.551(5) 0.359(2)
H9 H 0.549(9) 0.343(4) 0.2417(16)
H10 H -0.126(9) 0.247(4) -0.1106(16)
H11 H 0.245(7) 0.870(3) 0.0917(13)
H12 H 0.003(8) 0.774(4) 0.0812(14)
H13 H 1.223(11) 0.508(5) 0.3201(18)
H14 H 0.007(7) 0.306(3) -0.1660(14)
H15 H 0.375(8) 0.476(4) 0.1864(16)
H16 H 0.559(10) 0.251(4) -0.0436(18)
H17 H -0.068(14) 0.356(7) 0.145(3)
loop_
_geom_bond_atom_site_label_1
_geom_bond_atom_site_label_2
_geom_bond_site_symmetry_1
_geom_bond_site_symmetry_2
O1 N1 1_555 1_555
O2 C8 1_555 1_555
O3 C16 1_555 1_555
O4 C4 1_555 1_555
O5 C10 1_555 1_555
N1 C3 1_555 1_555
O6 C15 1_555 1_555
O7 C2 1_555 1_555
C1 C5 1_555 1_555
C2 C6 1_555 1_555
C3 C8 1_555 1_555
C4 O7 1_555 1_555
C5 C16 1_555 1_555
C6 O4 1_555 1_555
C7 C11 1_555 1_555
C8 C11 1_555 1_555
C9 C10 1_555 1_555
C10 C15 1_555 1_555
C11 C13 1_555 1_555
C12 O2 1_555 1_555
C13 C2 1_555 1_555
C14 C6 1_555 1_555
C15 C1 1_555 1_555
C16 C18 1_555 1_555
C17 O5 1_555 1_555
C18 C3 1_555 1_555
C19 O3 1_555 1_555
C20 C5 1_555 1_555
H1 C7 1_555 1_555
H2 C13 1_555 1_555
H3 C18 1_555 1_555
H4 C16 1_555 1_555
H5 C19 1_555 1_555
H6 C1 1_555 1_555
H7 C19 1_555 1_555
H8 C17 1_555 1_555
H9 C9 1_555 1_555
H10 C4 1_555 1_555
H11 C12 1_555 1_555
H12 C12 1_555 1_555
H13 C17 1_555 1_555
H14 C4 1_555 1_555
H15 C20 1_555 1_555
H16 C14 1_555 1_555
H17 O1 1_555 1_555
O6 C17 1_555 1_555
C7 C14 1_555 1_555
C8 C19 1_555 1_555
C9 C20 1_555 1_555
C12 C18 1_555 1_555

#END
