
#######################################################################
#
#                 Cambridge Crystallographic Data Centre
#                                CCDC 
#
#######################################################################
#
# If this CIF has been generated from an entry in the Cambridge 
# Structural Database, then it will include bibliographic, chemical, 
# crystal, experimental, refinement or atomic coordinate data resulting 
# from the CCDC's data processing and validation procedures.
#
#######################################################################

data_LERGIZ
_chemical_formula_moiety         'C6 H2 N6 O6,C3 H7 N1 O1'
_chemical_name_systematic        
'1-Amino-2-nitrobenzodifuroxan N,N-dimethylformamide solvate'
_symmetry_cell_setting           monoclinic
_symmetry_space_group_name_H-M   'P 21/n'
_symmetry_Int_Tables_number      14
_space_group_name_Hall           '-P 2yn'
loop_
_symmetry_equiv_pos_site_id
_symmetry_equiv_pos_as_xyz
1 x,y,z
2 1/2-x,1/2+y,1/2-z
3 -x,-y,-z
4 1/2+x,1/2-y,1/2+z
_cell_length_a                   13.216(3)
_cell_length_b                   6.6199(13)
_cell_length_c                   15.745(3)
_cell_angle_alpha                90
_cell_angle_beta                 102.80(3)
_cell_angle_gamma                90
_cell_volume                     1343.28
_chemical_melting_point          204-205deg.C
_cell_formula_units_Z            4
loop_
_atom_site_label
_atom_site_type_symbol
_atom_site_fract_x
_atom_site_fract_y
_atom_site_fract_z
O1 O 0.7180(2) 0.4012(3) 0.4778(1)
O2 O 0.6167(2) -0.3555(4) 0.3103(2)
O3 O 0.8895(2) 0.4792(3) 0.4892(1)
O4 O 0.5082(2) -0.1419(4) 0.3610(2)
O5 O 0.9154(2) -0.4129(4) 0.3031(2)
O6 O 1.0362(2) -0.1907(4) 0.3525(2)
N1 N 0.8200(2) 0.3573(3) 0.4641(1)
N2 N 0.6513(2) 0.2458(4) 0.4446(2)
N3 N 0.5955(2) -0.1717(4) 0.3519(2)
N4 N 0.7220(2) -0.3610(4) 0.3086(2)
N5 N 0.9445(2) -0.2466(4) 0.3375(2)
N6 N 0.9890(2) 0.1545(4) 0.4146(2)
C1 C 0.8122(2) 0.1786(4) 0.4235(1)
C2 C 0.7095(2) 0.1169(4) 0.4129(2)
C3 C 0.6852(2) -0.0751(4) 0.3726(2)
C4 C 0.7628(2) -0.1922(4) 0.3465(2)
C5 C 0.8690(2) -0.1226(4) 0.3622(2)
C6 C 0.8967(2) 0.0677(4) 0.3991(1)
O7 O 0.7054(2) 0.4008(4) 0.9231(2)
C7 C 0.7868(3) 0.3321(6) 0.9088(2)
N7 N 0.7910(2) 0.1782(4) 0.8565(2)
C8 C 0.6951(4) 0.0858(9) 0.8084(3)
C9 C 0.8881(4) 0.0977(9) 0.8433(4)
loop_
_geom_bond_atom_site_label_1
_geom_bond_atom_site_label_2
_geom_bond_site_symmetry_1
_geom_bond_site_symmetry_2
O1 N1 1_555 1_555
O2 N3 1_555 1_555
O3 N1 1_555 1_555
O4 N3 1_555 1_555
O5 N5 1_555 1_555
O6 N5 1_555 1_555
O7 C7 1_555 1_555
N1 C1 1_555 1_555
N2 O1 1_555 1_555
N3 C3 1_555 1_555
N4 O2 1_555 1_555
N5 C5 1_555 1_555
N6 C6 1_555 1_555
C1 C2 1_555 1_555
C2 N2 1_555 1_555
C3 C2 1_555 1_555
C4 N4 1_555 1_555
C5 C4 1_555 1_555
C6 C1 1_555 1_555
C7 N7 1_555 1_555
N7 C8 1_555 1_555
C9 N7 1_555 1_555
C3 C4 1_555 1_555
C5 C6 1_555 1_555

#END
