
#######################################################################
#
#                 Cambridge Crystallographic Data Centre
#                                CCDC 
#
#######################################################################
#
# If this CIF has been generated from an entry in the Cambridge 
# Structural Database, then it will include bibliographic, chemical, 
# crystal, experimental, refinement or atomic coordinate data resulting 
# from the CCDC's data processing and validation procedures.
#
#######################################################################

data_LERKEA
_chemical_formula_moiety         'C10 H8 Cl1 N1 O1'
_chemical_name_systematic        7-Chloro-4-methoxyquinoline
_symmetry_cell_setting           monoclinic
_symmetry_space_group_name_H-M   'P 21/n'
_symmetry_Int_Tables_number      14
_space_group_name_Hall           '-P 2yn'
loop_
_symmetry_equiv_pos_site_id
_symmetry_equiv_pos_as_xyz
1 x,y,z
2 1/2-x,1/2+y,1/2-z
3 -x,-y,-z
4 1/2+x,1/2-y,1/2+z
_cell_length_a                   3.8120(4)
_cell_length_b                   10.9801(11)
_cell_length_c                   20.348(2)
_cell_angle_alpha                90
_cell_angle_beta                 93.591(7)
_cell_angle_gamma                90
_cell_volume                     850.017
_exptl_crystal_colour            colorless
_exptl_crystal_description       needle
_cell_formula_units_Z            4
loop_
_atom_site_label
_atom_site_type_symbol
_atom_site_fract_x
_atom_site_fract_y
_atom_site_fract_z
Cl1 Cl 0.89892(10) 0.08327(3) 0.06834(2)
O1 O 0.5718(3) 0.67284(10) 0.10505(5)
N1 N 0.4436(3) 0.38168(12) 0.23375(6)
C1 C 0.3598(4) 0.49420(14) 0.24930(8)
H1 H 0.2707 0.5061 0.2914
C2 C 0.3894(4) 0.59811(14) 0.20972(8)
H2 H 0.3195 0.6760 0.2244
C3 C 0.5223(4) 0.58330(13) 0.14927(8)
C4 C 0.7544(4) 0.44119(14) 0.06716(8)
H3 H 0.7868 0.5068 0.0377
C5 C 0.8388(4) 0.32556(14) 0.04902(8)
H4 H 0.9299 0.3104 0.0074
C6 C 0.7883(4) 0.22947(14) 0.09307(8)
C7 C 0.6607(4) 0.24774(14) 0.15333(7)
H5 H 0.6311 0.1808 0.1820
C8 C 0.6201(4) 0.46452(14) 0.12884(7)
C9 C 0.5723(4) 0.36699(14) 0.17291(7)
C10 C 0.4611(4) 0.79300(14) 0.12217(9)
H6 H 0.2108 0.7917 0.1306
H7 H 0.4991 0.8489 0.0858
H8 H 0.5978 0.8204 0.1618
loop_
_geom_bond_atom_site_label_1
_geom_bond_atom_site_label_2
_geom_bond_site_symmetry_1
_geom_bond_site_symmetry_2
Cl1 C6 1_555 1_555
O1 C3 1_555 1_555
N1 C1 1_555 1_555
C1 H1 1_555 1_555
C2 C1 1_555 1_555
H2 C2 1_555 1_555
C3 C2 1_555 1_555
C4 H3 1_555 1_555
C5 C4 1_555 1_555
H4 C5 1_555 1_555
C6 C5 1_555 1_555
C7 C6 1_555 1_555
H5 C7 1_555 1_555
C8 C3 1_555 1_555
C9 N1 1_555 1_555
C10 O1 1_555 1_555
H6 C10 1_555 1_555
H7 C10 1_555 1_555
H8 C10 1_555 1_555
C4 C8 1_555 1_555
C7 C9 1_555 1_555
C8 C9 1_555 1_555

#END
