
#######################################################################
#
#                 Cambridge Crystallographic Data Centre
#                                CCDC 
#
#######################################################################
#
# If this CIF has been generated from an entry in the Cambridge 
# Structural Database, then it will include bibliographic, chemical, 
# crystal, experimental, refinement or atomic coordinate data resulting 
# from the CCDC's data processing and validation procedures.
#
#######################################################################

data_LERQEH
_chemical_name_common            'LB30870 tetrahydrate form III'
_chemical_formula_moiety         'C28 H31 N5 O4 S1,4(H2 O1)'
_chemical_name_systematic        
'2-(((1R)-2-((2S)-2-((((5-(amino(iminio)methyl)-2-thienyl)methyl)amino)carbonyl)pyrrolidinyl)-1-benzhydryl-2-oxoethyl)amino)acetate tetrahydrate'
_chemical_properties_biological  'LB30870 is a direct thrombin inhibitor'
_symmetry_cell_setting           orthorhombic
_symmetry_space_group_name_H-M   'P 21 21 21'
_symmetry_Int_Tables_number      19
_space_group_name_Hall           'P 2ac 2ab'
loop_
_symmetry_equiv_pos_site_id
_symmetry_equiv_pos_as_xyz
1 x,y,z
2 1/2-x,-y,1/2+z
3 -x,1/2+y,1/2-z
4 1/2+x,1/2-y,-z
_cell_length_a                   9.6077(19)
_cell_length_b                   13.438(3)
_cell_length_c                   23.935(5)
_cell_angle_alpha                90
_cell_angle_beta                 90
_cell_angle_gamma                90
_cell_volume                     3090.21
_exptl_crystal_colour            colorless
_exptl_crystal_description       block
_cell_formula_units_Z            4
loop_
_atom_site_label
_atom_site_type_symbol
_atom_site_fract_x
_atom_site_fract_y
_atom_site_fract_z
N1 N 1.1016(6) 0.1770(4) 0.7921(2)
H1 H 1.167(7) 0.166(4) 0.767(2)
H2 H 1.137(6) 0.230(4) 0.816(2)
N2 N 0.9436(6) 0.0825(4) 0.7446(2)
H3 H 1.003(7) 0.081(4) 0.719(2)
H4 H 0.863(6) 0.050(4) 0.742(2)
C1 C 0.9755(7) 0.1415(5) 0.7862(2)
S1 S 0.90526(17) 0.17812(13) 0.89691(6)
C2 C 0.8668(7) 0.1623(5) 0.8271(2)
C3 C 0.7286(7) 0.1674(5) 0.8185(2)
H5 H 0.6873 0.1609 0.7826
C4 C 0.6507(6) 0.1835(5) 0.8675(3)
H6 H 0.5521 0.1883 0.8684
C5 C 0.7323(6) 0.1912(4) 0.9131(2)
C6 C 0.6874(7) 0.2069(4) 0.9727(2)
H7 H 0.5863 0.1939 0.9758
H8 H 0.7365 0.1586 0.9970
N3 N 0.7167(5) 0.3075(4) 0.99215(19)
H9 H 0.685(6) 0.362(4) 0.972(2)
O1 O 0.8514(4) 0.2629(3) 1.06556(17)
C7 C 0.8014(6) 0.3270(5) 1.0342(2)
C8 C 0.8392(7) 0.4350(4) 1.0446(2)
H10 H 0.9379 0.4384 1.0577
C9 C 0.7467(7) 0.4863(5) 1.0874(2)
H11 H 0.7049 0.4372 1.1133
H12 H 0.8004 0.5355 1.1095
C10 C 0.6350(7) 0.5375(5) 1.0529(2)
H13 H 0.5617 0.4899 1.0415
H14 H 0.5916 0.5928 1.0739
C11 C 0.7138(6) 0.5760(4) 1.0027(2)
H15 H 0.6528 0.5808 0.9695
H16 H 0.7553 0.6421 1.0103
N4 N 0.8237(5) 0.4985(3) 0.99496(18)
O2 O 0.9896(4) 0.4129(3) 0.94978(15)
C12 C 0.9096(7) 0.4854(5) 0.9518(2)
C13 C 0.9148(6) 0.5625(4) 0.9046(2)
H17 H 0.8371 0.6114 0.9094
C14 C 1.0560(6) 0.6171(4) 0.9095(2)
H18 H 1.1300 0.5678 0.8996
C15 C 1.0719(7) 0.7044(5) 0.8699(2)
C16 C 0.9610(7) 0.7633(5) 0.8529(2)
H19 H 0.8700 0.7474 0.8656
C17 C 0.9788(7) 0.8444(5) 0.8181(2)
H20 H 0.9012 0.8833 0.8069
C18 C 1.1104(8) 0.8678(5) 0.8000(2)
H21 H 1.1241 0.9241 0.7766
C19 C 1.2222(8) 0.8104(5) 0.8154(2)
H22 H 1.3125 0.8263 0.8020
C20 C 1.2040(7) 0.7292(5) 0.8505(3)
H23 H 1.2821 0.6904 0.8613
C21 C 1.0805(7) 0.6471(5) 0.9702(2)
C22 C 1.1741(8) 0.5927(5) 1.0024(3)
H24 H 1.2296 0.5423 0.9856
C23 C 1.1858(10) 0.6125(7) 1.0591(3)
H25 H 1.2501 0.5753 1.0809
C24 C 1.1080(10) 0.6833(8) 1.0842(3)
H26 H 1.1145 0.6937 1.1233
C25 C 1.0189(8) 0.7406(6) 1.0522(3)
H27 H 0.9668 0.7925 1.0692
C26 C 1.0052(7) 0.7222(5) 0.9948(3)
H28 H 0.9439 0.7616 0.9729
N5 N 0.9018(6) 0.5128(4) 0.84998(19)
H29 H 0.944(6) 0.453(4) 0.852(2)
C27 C 0.7602(6) 0.4740(5) 0.8411(2)
H30 H 0.7269 0.4429 0.8762
H31 H 0.7631 0.4218 0.8120
O3 O 0.5341(5) 0.5441(4) 0.84089(17)
O4 O 0.6996(4) 0.6225(3) 0.79246(18)
C28 C 0.6575(8) 0.5541(5) 0.8235(3)
O5 O 0.1677(5) 0.3453(4) 0.8661(2)
H32 H 0.236(6) 0.311(5) 0.878(3)
H33 H 0.110(7) 0.367(6) 0.890(2)
O6 O 0.4998(5) 0.4269(4) 0.93631(19)
H34 H 0.497(8) 0.458(5) 0.9053(17)
H35 H 0.446(6) 0.377(4) 0.930(3)
O7 O 0.2999(5) 0.4706(4) 0.7863(2)
H36 H 0.279(8) 0.430(4) 0.813(2)
H37 H 0.382(4) 0.491(5) 0.794(3)
O8 O 0.5476(7) 0.7842(5) 0.7523(4)
H38 H 0.601(10) 0.834(6) 0.754(5)
H39 H 0.598(11) 0.743(7) 0.770(4)
loop_
_geom_bond_atom_site_label_1
_geom_bond_atom_site_label_2
_geom_bond_site_symmetry_1
_geom_bond_site_symmetry_2
N1 H1 1_555 1_555
H2 N1 1_555 1_555
N2 H3 1_555 1_555
H4 N2 1_555 1_555
C1 N1 1_555 1_555
S1 C2 1_555 1_555
C2 C1 1_555 1_555
C3 C2 1_555 1_555
H5 C3 1_555 1_555
C4 C3 1_555 1_555
H6 C4 1_555 1_555
C5 S1 1_555 1_555
C6 C5 1_555 1_555
H7 C6 1_555 1_555
H8 C6 1_555 1_555
N3 C6 1_555 1_555
H9 N3 1_555 1_555
O1 C7 1_555 1_555
C7 N3 1_555 1_555
C8 C7 1_555 1_555
H10 C8 1_555 1_555
C9 C8 1_555 1_555
H11 C9 1_555 1_555
H12 C9 1_555 1_555
C10 C9 1_555 1_555
H13 C10 1_555 1_555
H14 C10 1_555 1_555
C11 C10 1_555 1_555
H15 C11 1_555 1_555
H16 C11 1_555 1_555
N4 C8 1_555 1_555
O2 C12 1_555 1_555
C12 N4 1_555 1_555
C13 C12 1_555 1_555
H17 C13 1_555 1_555
C14 C13 1_555 1_555
H18 C14 1_555 1_555
C15 C14 1_555 1_555
C16 C15 1_555 1_555
H19 C16 1_555 1_555
C17 C16 1_555 1_555
H20 C17 1_555 1_555
C18 C17 1_555 1_555
H21 C18 1_555 1_555
C19 C18 1_555 1_555
H22 C19 1_555 1_555
C20 C15 1_555 1_555
H23 C20 1_555 1_555
C21 C14 1_555 1_555
C22 C21 1_555 1_555
H24 C22 1_555 1_555
C23 C22 1_555 1_555
H25 C23 1_555 1_555
C24 C23 1_555 1_555
H26 C24 1_555 1_555
C25 C24 1_555 1_555
H27 C25 1_555 1_555
C26 C21 1_555 1_555
H28 C26 1_555 1_555
N5 C13 1_555 1_555
H29 N5 1_555 1_555
C27 N5 1_555 1_555
H30 C27 1_555 1_555
H31 C27 1_555 1_555
O3 C28 1_555 1_555
O4 C28 1_555 1_555
C28 C27 1_555 1_555
O5 H32 1_555 1_555
H33 O5 1_555 1_555
O6 H34 1_555 1_555
H35 O6 1_555 1_555
O7 H36 1_555 1_555
H37 O7 1_555 1_555
O8 H38 1_555 1_555
H39 O8 1_555 1_555
N2 C1 1_555 1_555
C4 C5 1_555 1_555
C11 N4 1_555 1_555
C19 C20 1_555 1_555
C25 C26 1_555 1_555

#END
