
#######################################################################
#
#                 Cambridge Crystallographic Data Centre
#                                CCDC 
#
#######################################################################
#
# If this CIF has been generated from an entry in the Cambridge 
# Structural Database, then it will include bibliographic, chemical, 
# crystal, experimental, refinement or atomic coordinate data resulting 
# from the CCDC's data processing and validation procedures.
#
#######################################################################

data_LERTUY
_chemical_name_common            'PDB Chemical Component code: SZ1'
_chemical_formula_moiety         'C18 H10 Cl2 O2,2(C7 H15 N1)'
_chemical_name_systematic        
'trans-1,5-Dichloro-9,10-diethynyl-9,10-dihydroanthracene-9,10-diol cycloheptylamine solvate'
_symmetry_cell_setting           monoclinic
_symmetry_space_group_name_H-M   'P 21/c'
_symmetry_Int_Tables_number      14
_space_group_name_Hall           '-P 2ybc'
loop_
_symmetry_equiv_pos_site_id
_symmetry_equiv_pos_as_xyz
1 x,y,z
2 -x,1/2+y,1/2-z
3 -x,-y,-z
4 x,1/2-y,1/2+z
_cell_length_a                   13.8867(3)
_cell_length_b                   11.3975(3)
_cell_length_c                   9.4693(2)
_cell_angle_alpha                90
_cell_angle_beta                 101.2800(10)
_cell_angle_gamma                90
_cell_volume                     1469.79
_exptl_crystal_colour            colorless
_exptl_crystal_description       needle
_cell_formula_units_Z            2
loop_
_atom_site_label
_atom_site_type_symbol
_atom_site_fract_x
_atom_site_fract_y
_atom_site_fract_z
Cl1 Cl 0.23390(3) 0.50048(3) -0.27837(4)
O1 O 0.37650(8) 0.32939(9) -0.09108(12)
C1 C 0.44092(11) 0.42126(12) -0.11603(15)
C2 C 0.45505(11) 0.60839(13) 0.03429(16)
C3 C 0.40264(10) 0.53952(13) -0.07530(15)
C4 C 0.44387(11) 0.41951(13) -0.27172(16)
C5 C 0.27152(12) 0.68574(15) -0.10566(18)
C6 C 0.41573(12) 0.71332(13) 0.07533(17)
C7 C 0.30882(11) 0.58074(14) -0.14354(16)
C8 C 0.45031(13) 0.41098(16) -0.39429(18)
C9 C 0.32461(13) 0.75197(15) 0.00555(18)
H1 H 0.2990(15) 0.8280(19) 0.038(2)
H2 H 0.2115(18) 0.711(2) -0.154(2)
H3 H 0.4508(14) 0.7574(18) 0.152(2)
H4 H 0.453(2) 0.401(2) -0.500(3)
H5 H 0.3699(17) 0.337(2) 0.000(3)
Cl1B Cl 0.76610(3) 0.49952(3) 0.27837(4)
O1B O 0.62350(8) 0.67061(9) 0.09108(12)
C1B C 0.55908(11) 0.57874(12) 0.11603(15)
C2B C 0.54495(11) 0.39161(13) -0.03429(16)
C3B C 0.59736(10) 0.46048(13) 0.07530(15)
C4B C 0.55613(11) 0.58049(13) 0.27172(16)
C5B C 0.72848(12) 0.31426(15) 0.10566(18)
C6B C 0.58427(12) 0.28668(13) -0.07533(17)
C7B C 0.69118(11) 0.41926(14) 0.14354(16)
C8B C 0.54969(13) 0.58902(16) 0.39429(18)
C9B C 0.67539(13) 0.24803(15) -0.00555(18)
H1B H 0.7010(15) 0.1720(19) -0.038(2)
H2B H 0.7885(18) 0.289(2) 0.154(2)
H3B H 0.5492(14) 0.2426(18) -0.152(2)
H4B H 0.547(2) 0.599(2) 0.500(3)
H5B H 0.6301(17) 0.663(2) 0.000(3)
N1 N 0.34486(11) 0.37065(13) 0.17845(15)
C10 C 0.12955(14) 0.53094(18) 0.3017(2)
C11 C 0.22938(14) 0.4737(2) 0.3064(2)
C12 C 0.04966(17) 0.4458(2) 0.3213(3)
H6 H 0.0693 0.4104 0.4181
H7 H -0.0105 0.4922 0.3219
C13 C 0.17439(18) 0.3180(3) 0.1094(3)
H8 H 0.1924 0.2873 0.0203
H9 H 0.1853 0.2540 0.1814
C14 C 0.0231(3) 0.3504(3) 0.2193(5)
H10 H -0.0493 0.3507 0.1894
H11 H 0.0412 0.2761 0.2720
C15 C 0.0674(2) 0.3461(3) 0.0774(3)
H12 H 0.0321 0.2861 0.0114
H13 H 0.0573 0.4231 0.0281
C16 C 0.24479(12) 0.41867(15) 0.16571(17)
H14 H 0.3872(17) 0.420(2) 0.220(2)
H15 H 0.3521(18) 0.311(2) 0.239(3)
H16 H 0.1341(17) 0.587(2) 0.374(2)
H17 H 0.240(2) 0.413(3) 0.380(3)
H18 H 0.281(2) 0.532(3) 0.331(3)
H19 H 0.2387(16) 0.4813(18) 0.098(2)
H20 H 0.1105(18) 0.575(2) 0.212(3)
C17? C 0.1558(11) 0.3668(14) 0.0743(16)
C18? C 0.1047(7) 0.2817(8) 0.1744(10)
H21? H 0.1427 0.2740 0.2740
H22? H 0.0870 0.2036 0.1313
C19? C 0.0057(9) 0.3771(11) 0.1593(13)
loop_
_geom_bond_atom_site_label_1
_geom_bond_atom_site_label_2
_geom_bond_site_symmetry_1
_geom_bond_site_symmetry_2
Cl1 C7 1_555 1_555
O1 C1 1_555 1_555
C1 C3 1_555 1_555
C2 C3 1_555 1_555
C3 C7 1_555 1_555
C4 C1 1_555 1_555
C5 C7 1_555 1_555
C6 C2 1_555 1_555
C8 C4 1_555 1_555
C9 C5 1_555 1_555
H1 C9 1_555 1_555
H2 C5 1_555 1_555
H3 C6 1_555 1_555
H4 C8 1_555 1_555
H5 O1 1_555 1_555
N1 C16 1_555 1_555
C10 C11 1_555 1_555
C11 C16 1_555 1_555
C12 C10 1_555 1_555
H6 C12 1_555 1_555
H7 C12 1_555 1_555
C13 H8 1_555 1_555
H9 C13 1_555 1_555
C14 C12 1_555 1_555
H10 C14 1_555 1_555
H11 C14 1_555 1_555
C15 C13 1_555 1_555
H12 C15 1_555 1_555
H13 C15 1_555 1_555
C16 C13 1_555 1_555
H14 N1 1_555 1_555
H15 N1 1_555 1_555
H16 C10 1_555 1_555
H17 C11 1_555 1_555
H18 C11 1_555 1_555
H19 C16 1_555 1_555
H20 C10 1_555 1_555
Cl1B C7B 1_555 1_555
O1B C1B 1_555 1_555
C1B C2 1_555 1_555
C2B C1 1_555 1_555
C3B C1B 1_555 1_555
C4B C1B 1_555 1_555
C5B C7B 1_555 1_555
C6B C2B 1_555 1_555
C7B C3B 1_555 1_555
C8B C4B 1_555 1_555
C9B C5B 1_555 1_555
H1B C9B 1_555 1_555
H2B C5B 1_555 1_555
H3B C6B 1_555 1_555
H4B C8B 1_555 1_555
H5B O1B 1_555 1_555
C6 C9 1_555 1_555
C14 C15 1_555 1_555
C2B C3B 1_555 1_555
C6B C9B 1_555 1_555

#END
