
#######################################################################
#
#                 Cambridge Crystallographic Data Centre
#                                CCDC 
#
#######################################################################
#
# If this CIF has been generated from an entry in the Cambridge 
# Structural Database, then it will include bibliographic, chemical, 
# crystal, experimental, refinement or atomic coordinate data resulting 
# from the CCDC's data processing and validation procedures.
#
#######################################################################

data_LERVAH
_chemical_formula_moiety         'C42 H38 Ca1 F4 O8,4(C1 H4 O1)'
_chemical_name_systematic        
"Bis(4,4''-difluoro-1,1':3',1''-terphenyl-2'-carboxylato)-tetramethanol-calcium(ii) methanol solvate"
_symmetry_cell_setting           orthorhombic
_symmetry_space_group_name_H-M   'P b c a'
_symmetry_Int_Tables_number      61
_space_group_name_Hall           '-P 2ac 2ab'
loop_
_symmetry_equiv_pos_site_id
_symmetry_equiv_pos_as_xyz
1 x,y,z
2 1/2-x,-y,1/2+z
3 -x,1/2+y,1/2-z
4 1/2+x,1/2-y,-z
5 -x,-y,-z
6 1/2+x,y,1/2-z
7 x,1/2-y,1/2+z
8 1/2-x,1/2+y,z
_cell_length_a                   15.4611(19)
_cell_length_b                   14.2436(18)
_cell_length_c                   20.886(3)
_cell_angle_alpha                90
_cell_angle_beta                 90
_cell_angle_gamma                90
_cell_volume                     4599.55
_exptl_crystal_colour            colorless
_exptl_crystal_description       block
_cell_formula_units_Z            4
loop_
_atom_site_label
_atom_site_type_symbol
_atom_site_fract_x
_atom_site_fract_y
_atom_site_fract_z
Ca1 Ca 1.0000 0.0000 0.5000
O1 O 0.79691(12) 0.20766(14) 0.46541(10)
O2 O 0.92097(13) 0.12979(14) 0.47660(10)
O3 O 0.94225(15) -0.07389(16) 0.40917(11)
O4 O 1.12075(14) 0.04631(15) 0.44165(11)
F1 F 1.02858(13) 0.35764(16) 0.71251(10)
F2 F 0.68180(14) 0.03347(16) 0.22211(11)
C1 C 0.7834(2) 0.2459(2) 0.27894(15)
H1 H 0.7766 0.3120 0.2754
C2 C 0.87736(19) 0.1973(2) 0.45564(14)
C3 C 0.99166(19) 0.3377(2) 0.51732(15)
C4 C 0.92369(18) 0.27084(19) 0.41636(15)
C5 C 0.9544(2) 0.3437(2) 0.31427(17)
H2 H 0.9460 0.3476 0.2693
C6 C 0.8506(2) 0.2098(2) 0.31613(15)
C7 C 0.97877(18) 0.3349(2) 0.44720(16)
C8 C 0.91018(19) 0.2756(2) 0.35003(15)
C9 C 1.0100(2) 0.4050(2) 0.34434(17)
H3 H 1.0407 0.4501 0.3197
C10 C 0.9219(2) 0.3391(2) 0.56012(16)
H4 H 0.8647 0.3351 0.5436
C11 C 1.0747(2) 0.3425(2) 0.54382(17)
H5 H 1.1235 0.3414 0.5161
C12 C 0.8596(2) 0.1135(2) 0.31971(16)
H6 H 0.9049 0.0876 0.3448
C13 C 0.9335(2) 0.3462(2) 0.62520(16)
H7 H 0.8855 0.3479 0.6535
C14 C 1.0216(2) 0.4017(2) 0.40898(18)
H8 H 1.0595 0.4455 0.4287
C15 C 1.0168(2) 0.3508(2) 0.64801(17)
C16 C 1.0876(2) 0.3486(2) 0.60847(17)
H9 H 1.1444 0.3512 0.6256
C17 C 0.7379(2) 0.0923(3) 0.25238(17)
C18 C 1.1492(2) 0.1374(2) 0.42276(18)
H10 H 1.1019 0.1703 0.4011
H11 H 1.1984 0.1314 0.3934
H12 H 1.1669 0.1730 0.4607
C19 C 0.9850(2) -0.1026(3) 0.35239(19)
H13 H 1.0103 -0.0477 0.3312
H14 H 0.9433 -0.1327 0.3236
H15 H 1.0309 -0.1474 0.3632
C20 C 0.8036(2) 0.0540(2) 0.28735(17)
H16 H 0.8108 -0.0122 0.2895
C21 C 0.7266(2) 0.1872(3) 0.24715(16)
H17 H 0.6808 0.2123 0.2222
H18 H 1.163(2) 0.003(3) 0.4370(19)
H19 H 0.892(3) -0.104(3) 0.4134(19)
O1D O 1.20309(12) -0.20766(14) 0.53459(10)
O2D O 1.07903(13) -0.12979(14) 0.52340(10)
O3D O 1.05775(15) 0.07389(16) 0.59083(11)
O4D O 0.87925(14) -0.04631(15) 0.55835(11)
F1D F 0.97142(13) -0.35764(16) 0.28749(10)
F2D F 1.31820(14) -0.03347(16) 0.77789(11)
C1D C 1.2166(2) -0.2459(2) 0.72106(15)
H1D H 1.2234 -0.3120 0.7246
C2D C 1.12264(19) -0.1973(2) 0.54436(14)
C3D C 1.00834(19) -0.3377(2) 0.48268(15)
C4D C 1.07631(18) -0.27084(19) 0.58364(15)
C5D C 1.0456(2) -0.3437(2) 0.68573(17)
H2D H 1.0540 -0.3476 0.7307
C6D C 1.1494(2) -0.2098(2) 0.68387(15)
C7D C 1.02123(18) -0.3349(2) 0.55280(16)
C8D C 1.08982(19) -0.2756(2) 0.64997(15)
C9D C 0.9900(2) -0.4050(2) 0.65566(17)
H3D H 0.9593 -0.4501 0.6803
C10D C 1.0781(2) -0.3391(2) 0.43988(16)
H4D H 1.1353 -0.3351 0.4564
C11D C 0.9253(2) -0.3425(2) 0.45618(17)
H5D H 0.8765 -0.3414 0.4839
C12D C 1.1404(2) -0.1135(2) 0.68029(16)
H6D H 1.0951 -0.0876 0.6552
C13D C 1.0665(2) -0.3462(2) 0.37480(16)
H7D H 1.1145 -0.3479 0.3465
C14D C 0.9784(2) -0.4017(2) 0.59102(18)
H8D H 0.9405 -0.4455 0.5713
C15D C 0.9832(2) -0.3508(2) 0.35199(17)
C16D C 0.9124(2) -0.3486(2) 0.39153(17)
H9D H 0.8556 -0.3512 0.3744
C17D C 1.2621(2) -0.0923(3) 0.74762(17)
C18D C 0.8508(2) -0.1374(2) 0.57724(18)
H10D H 0.8981 -0.1703 0.5989
H11D H 0.8016 -0.1314 0.6066
H12D H 0.8331 -0.1730 0.5393
C19D C 1.0150(2) 0.1026(3) 0.64761(19)
H13D H 0.9897 0.0477 0.6688
H14D H 1.0567 0.1327 0.6764
H15D H 0.9691 0.1474 0.6368
C20D C 1.1964(2) -0.0540(2) 0.71265(17)
H16D H 1.1892 0.0122 0.7105
C21D C 1.2734(2) -0.1872(3) 0.75285(16)
H17D H 1.3192 -0.2123 0.7778
H18D H 0.837(2) -0.003(3) 0.5630(19)
H19D H 1.108(3) 0.104(3) 0.5866(19)
O5 O 0.24558(14) 0.91787(15) 0.43929(12)
H20 H 0.2373 0.8828 0.4711
C22 C 0.2469(2) 0.8631(3) 0.38278(18)
H21 H 0.2503 0.9045 0.3454
H22 H 0.1940 0.8254 0.3803
H23 H 0.2974 0.8215 0.3835
O6 O 0.78040(14) 0.86827(15) 0.41295(12)
H24 H 0.7576 0.8192 0.4275
C23 C 0.7269(2) 0.9463(2) 0.42684(19)
H25 H 0.7059 0.9417 0.4710
H26 H 0.6775 0.9468 0.3974
H27 H 0.7601 1.0044 0.4217
loop_
_geom_bond_atom_site_label_1
_geom_bond_atom_site_label_2
_geom_bond_site_symmetry_1
_geom_bond_site_symmetry_2
Ca1 O2 1_555 1_555
O1 C2 1_555 1_555
O2 C2 1_555 1_555
O3 Ca1 1_555 1_555
O4 Ca1 1_555 1_555
F1 C15 1_555 1_555
F2 C17 1_555 1_555
C1 H1 1_555 1_555
C2 C4 1_555 1_555
C3 C7 1_555 1_555
C4 C7 1_555 1_555
C5 H2 1_555 1_555
C6 C1 1_555 1_555
C7 C14 1_555 1_555
C8 C4 1_555 1_555
C9 C5 1_555 1_555
H3 C9 1_555 1_555
C10 C3 1_555 1_555
H4 C10 1_555 1_555
C11 C3 1_555 1_555
H5 C11 1_555 1_555
C12 C6 1_555 1_555
H6 C12 1_555 1_555
C13 C10 1_555 1_555
H7 C13 1_555 1_555
C14 C9 1_555 1_555
H8 C14 1_555 1_555
C15 C13 1_555 1_555
C16 C11 1_555 1_555
H9 C16 1_555 1_555
C17 C20 1_555 1_555
C18 O4 1_555 1_555
H10 C18 1_555 1_555
H11 C18 1_555 1_555
H12 C18 1_555 1_555
C19 O3 1_555 1_555
H13 C19 1_555 1_555
H14 C19 1_555 1_555
H15 C19 1_555 1_555
C20 C12 1_555 1_555
H16 C20 1_555 1_555
C21 C1 1_555 1_555
H17 C21 1_555 1_555
H18 O4 1_555 1_555
H19 O3 1_555 1_555
O5 H20 1_555 1_555
C22 O5 1_555 1_555
H21 C22 1_555 1_555
H22 C22 1_555 1_555
H23 C22 1_555 1_555
O6 H24 1_555 1_555
C23 O6 1_555 1_555
H25 C23 1_555 1_555
H26 C23 1_555 1_555
H27 C23 1_555 1_555
O1D C2D 1_555 1_555
O2D Ca1 1_555 1_555
O3D Ca1 1_555 1_555
O4D Ca1 1_555 1_555
F1D C15D 1_555 1_555
F2D C17D 1_555 1_555
C1D H1D 1_555 1_555
C2D O2D 1_555 1_555
C3D C7D 1_555 1_555
C4D C2D 1_555 1_555
C5D H2D 1_555 1_555
C6D C1D 1_555 1_555
C7D C4D 1_555 1_555
C8D C4D 1_555 1_555
C9D C5D 1_555 1_555
H3D C9D 1_555 1_555
C10D C3D 1_555 1_555
H4D C10D 1_555 1_555
C11D C3D 1_555 1_555
H5D C11D 1_555 1_555
C12D C6D 1_555 1_555
H6D C12D 1_555 1_555
C13D C10D 1_555 1_555
H7D C13D 1_555 1_555
C14D C7D 1_555 1_555
H8D C14D 1_555 1_555
C15D C13D 1_555 1_555
C16D C11D 1_555 1_555
H9D C16D 1_555 1_555
C17D C20D 1_555 1_555
C18D O4D 1_555 1_555
H10D C18D 1_555 1_555
H11D C18D 1_555 1_555
H12D C18D 1_555 1_555
C19D O3D 1_555 1_555
H13D C19D 1_555 1_555
H14D C19D 1_555 1_555
H15D C19D 1_555 1_555
C20D C12D 1_555 1_555
H16D C20D 1_555 1_555
C21D C1D 1_555 1_555
H17D C21D 1_555 1_555
H18D O4D 1_555 1_555
H19D O3D 1_555 1_555
C5 C8 1_555 1_555
C6 C8 1_555 1_555
C15 C16 1_555 1_555
C17 C21 1_555 1_555
C5D C8D 1_555 1_555
C6D C8D 1_555 1_555
C9D C14D 1_555 1_555
C15D C16D 1_555 1_555
C17D C21D 1_555 1_555

#END
