
#######################################################################
#
#                 Cambridge Crystallographic Data Centre
#                                CCDC 
#
#######################################################################
#
# If this CIF has been generated from an entry in the Cambridge 
# Structural Database, then it will include bibliographic, chemical, 
# crystal, experimental, refinement or atomic coordinate data resulting 
# from the CCDC's data processing and validation procedures.
#
#######################################################################

data_LERVEK
_chemical_formula_moiety         'C18 H10 Cl2 O2,0.67(C6 H14 N2)'
_chemical_name_systematic        
'trans-1,5-Dichloro-9,10-diethynyl-9,10-dihydroanthracene-9,10-diol cyclohexane-1,2-diamine solvate'
_symmetry_cell_setting           triclinic
_symmetry_space_group_name_H-M   'P -1'
_symmetry_Int_Tables_number      2
_space_group_name_Hall           '-P 1'
loop_
_symmetry_equiv_pos_site_id
_symmetry_equiv_pos_as_xyz
1 x,y,z
2 -x,-y,-z
_cell_length_a                   9.787(2)
_cell_length_b                   11.727(2)
_cell_length_c                   13.902(3)
_cell_angle_alpha                79.01(3)
_cell_angle_beta                 82.36(3)
_cell_angle_gamma                67.48(3)
_cell_volume                     1443.7
_exptl_crystal_colour            colorless
_exptl_crystal_description       cube
_cell_formula_units_Z            3
loop_
_atom_site_label
_atom_site_type_symbol
_atom_site_fract_x
_atom_site_fract_y
_atom_site_fract_z
Cl1 Cl 0.63680(4) -0.17506(4) 0.77410(3)
O1 O 0.74024(12) -0.19509(10) 0.56307(8)
C1 C 0.72049(16) -0.00161(14) 0.59438(11)
C2 C 0.36275(15) 0.01440(13) 0.55853(10)
C3 C 0.64540(15) -0.06698(13) 0.55103(10)
C4 C 0.78397(19) 0.05127(16) 0.62471(12)
C5 C 0.22469(17) 0.03370(15) 0.61121(12)
C6 C 0.49403(16) -0.04794(13) 0.60551(10)
C7 C 0.34607(19) -0.07240(16) 0.75886(11)
C8 C 0.48183(17) -0.09243(14) 0.70670(11)
C9 C 0.21690(18) -0.00814(16) 0.71057(12)
H2 H 0.344(2) -0.1005(19) 0.8277(16)
H7 H 0.695(2) -0.233(2) 0.5525(16)
H9 H 0.124(2) 0.0076(19) 0.7484(15)
H11 H 0.829(3) 0.093(2) 0.6504(17)
H15 H 0.122(2) 0.0718(19) 0.5856(15)
Cl1A Cl 0.36320(4) 0.17506(4) 0.22590(3)
O1A O 0.25976(12) 0.19509(10) 0.43693(8)
C1A C 0.27951(16) 0.00161(14) 0.40562(11)
C2A C 0.63725(15) -0.01440(13) 0.44147(10)
C3A C 0.35460(15) 0.06698(13) 0.44897(10)
C4A C 0.21603(19) -0.05127(16) 0.37529(12)
C5A C 0.77531(17) -0.03370(15) 0.38879(12)
C6A C 0.50597(16) 0.04794(13) 0.39449(10)
C7A C 0.65393(19) 0.07240(16) 0.24114(11)
C8A C 0.51817(17) 0.09243(14) 0.29330(11)
C9A C 0.78310(18) 0.00814(16) 0.28943(12)
H2A H 0.656(2) 0.1005(19) 0.1723(16)
H7A H 0.305(2) 0.233(2) 0.4475(16)
H9A H 0.876(2) -0.0076(19) 0.2516(15)
H11A H 0.171(3) -0.093(2) 0.3496(17)
H15A H 0.878(2) -0.0718(19) 0.4144(15)
Cl2 Cl 0.12608(4) 0.50557(4) 0.39621(3)
O2 O 0.41741(12) 0.31855(10) 0.48185(8)
C10 C 0.45495(16) 0.42520(13) 0.44028(10)
C11 C 0.44976(17) 0.44357(14) 0.33228(11)
C12 C 0.08578(18) 0.67909(15) 0.50692(12)
C13 C 0.34327(15) 0.53971(13) 0.48133(10)
C14 C 0.19123(17) 0.57978(14) 0.46654(11)
C15 C 0.13045(18) 0.74270(15) 0.56358(12)
C16 C 0.38465(16) 0.60474(13) 0.53864(10)
C17 C 0.27818(18) 0.70658(14) 0.57896(11)
C18 C 0.4522(2) 0.45951(17) 0.24542(13)
H3 H -0.012(2) 0.7004(18) 0.4945(14)
H5 H 0.059(2) 0.814(2) 0.5931(16)
H10 H 0.419(3) 0.307(2) 0.5460(18)
H16 H 0.305(2) 0.7498(18) 0.6179(14)
H27 H 0.449(3) 0.467(2) 0.178(2)
Cl2A Cl 0.87392(4) 0.49443(4) 0.60379(3)
O2A O 0.58259(12) 0.68145(10) 0.51815(8)
C10A C 0.54505(16) 0.57480(13) 0.55972(10)
C11A C 0.55024(17) 0.55643(14) 0.66772(11)
C12A C 0.91422(18) 0.32091(15) 0.49308(12)
C13A C 0.65673(15) 0.46029(13) 0.51867(10)
C14A C 0.80877(17) 0.42022(14) 0.53346(11)
C15A C 0.86955(18) 0.25730(15) 0.43642(12)
C16A C 0.61535(16) 0.39526(13) 0.46136(10)
C17A C 0.72182(18) 0.29342(14) 0.42104(11)
C18A C 0.5478(2) 0.54049(17) 0.75458(13)
H3A H 1.012(2) 0.2996(18) 0.5055(14)
H5A H 0.941(2) 0.186(2) 0.4069(16)
H10A H 0.581(3) 0.693(2) 0.4540(18)
H16A H 0.695(2) 0.2502(18) 0.3821(14)
H27A H 0.551(3) 0.533(2) 0.822(2)
Cl3 Cl 1.35205(4) -0.32929(4) 0.98134(3)
O3 O 1.28468(12) -0.05952(11) 1.00076(8)
C19 C 1.13417(18) -0.27919(15) 0.86542(11)
C20 C 1.17963(17) -0.23546(14) 0.93627(11)
C21 C 0.95719(16) -0.05329(13) 0.92894(10)
C22 C 1.09319(16) -0.12082(13) 0.96893(10)
C23 C 1.17080(17) -0.16423(14) 1.13586(11)
C24 C 0.90949(17) -0.09942(15) 0.85925(11)
C25 C 1.15027(16) -0.07273(13) 1.04370(10)
C26 C 0.99746(18) -0.21089(15) 0.82723(11)
C27 C 1.1786(2) -0.23665(16) 1.20904(12)
H6 H 1.342(3) -0.075(2) 1.0430(18)
H12 H 1.188(3) -0.299(2) 1.2618(18)
H14 H 0.964(2) -0.2401(18) 0.7785(14)
H17 H 0.819(2) -0.0541(18) 0.8335(14)
H18 H 1.198(2) -0.3569(19) 0.8414(15)
Cl3A Cl 0.64795(4) 0.32929(4) 1.01866(3)
O3A O 0.71532(12) 0.05952(11) 0.99924(8)
C19A C 0.86583(18) 0.27919(15) 1.13458(11)
C20A C 0.82037(17) 0.23546(14) 1.06373(11)
C21A C 1.04281(16) 0.05329(13) 1.07106(10)
C22A C 0.90681(16) 0.12082(13) 1.03107(10)
C23A C 0.82920(17) 0.16423(14) 0.86414(11)
C24A C 1.09051(17) 0.09942(15) 1.14075(11)
C25A C 0.84973(16) 0.07273(13) 0.95630(10)
C26A C 1.00254(18) 0.21089(15) 1.17277(11)
C27A C 0.8214(2) 0.23665(16) 0.79096(12)
H6A H 0.658(3) 0.075(2) 0.9570(18)
H12A H 0.812(3) 0.299(2) 0.7382(18)
H14A H 1.036(2) 0.2401(18) 1.2215(14)
H17A H 1.181(2) 0.0541(18) 1.1665(14)
H18A H 0.802(2) 0.3569(19) 1.1586(15)
N1 N 0.50642(18) 0.10538(15) 0.87083(12)
N2 N 0.45311(18) 0.27621(16) 0.67591(11)
C28 C 0.39908(19) 0.23538(16) 0.85716(12)
C29 C 0.33701(19) 0.27868(16) 0.75538(12)
C30 C 0.2185(2) 0.40902(17) 0.74814(14)
C31 C 0.2762(2) 0.24709(19) 0.93857(15)
C32 C 0.0962(2) 0.4190(2) 0.83004(18)
C33 C 0.1585(3) 0.3780(2) 0.93013(17)
H1 H 0.293(2) 0.219(2) 0.7417(15)
H4 H 0.273(2) 0.470(2) 0.7520(16)
H8 H 0.177(3) 0.436(2) 0.6797(17)
H13 H 0.449(2) 0.2901(17) 0.8625(13)
H19 H 0.456(3) 0.050(2) 0.8861(18)
H20 H 0.328(2) 0.220(2) 0.9986(17)
H21 H 0.506(3) 0.329(2) 0.6923(17)
H22 H 0.056(3) 0.362(3) 0.8236(19)
H23 H 0.515(3) 0.199(3) 0.6786(18)
H24 H 0.561(3) 0.084(2) 0.8119(19)
H25 H 0.208(3) 0.440(3) 0.9439(19)
H26 H 0.079(3) 0.381(2) 0.9821(19)
H28 H 0.223(3) 0.187(2) 0.9299(18)
H29 H 0.021(3) 0.510(3) 0.8262(19)
loop_
_geom_bond_atom_site_label_1
_geom_bond_atom_site_label_2
_geom_bond_site_symmetry_1
_geom_bond_site_symmetry_2
Cl1 C8 1_555 1_555
O1 C3 1_555 1_555
C1 C3 1_555 1_555
C2 C5 1_555 1_555
C3 C6 1_555 1_555
C4 C1 1_555 1_555
C5 C9 1_555 1_555
C6 C2 1_555 1_555
C7 C8 1_555 1_555
C8 C6 1_555 1_555
C9 C7 1_555 1_555
Cl2 C14 1_555 1_555
O2 C10 1_555 1_555
C10 C11 1_555 1_555
C11 C18 1_555 1_555
C12 C14 1_555 1_555
C13 C10 1_555 1_555
C14 C13 1_555 1_555
C15 C12 1_555 1_555
C16 C13 1_555 1_555
C17 C15 1_555 1_555
C18 H27 1_555 1_555
Cl3 C20 1_555 1_555
O3 C25 1_555 1_555
C19 C20 1_555 1_555
C20 C22 1_555 1_555
C21 C22 1_555 1_555
C22 C25 1_555 1_555
C23 C25 1_555 1_555
C24 C21 1_555 1_555
C25 C21A 1_555 1_555
C26 C19 1_555 1_555
C27 C23 1_555 1_555
N1 C28 1_555 1_555
N2 C29 1_555 1_555
C28 C29 1_555 1_555
C29 C30 1_555 1_555
C30 C32 1_555 1_555
C31 C28 1_555 1_555
C32 C33 1_555 1_555
C33 C31 1_555 1_555
H1 C29 1_555 1_555
H2 C7 1_555 1_555
H3 C12 1_555 1_555
H4 C30 1_555 1_555
H5 C15 1_555 1_555
H6 O3 1_555 1_555
H7 O1 1_555 1_555
H8 C30 1_555 1_555
H9 C9 1_555 1_555
H10 O2 1_555 1_555
H11 C4 1_555 1_555
H12 C27 1_555 1_555
H13 C28 1_555 1_555
H14 C26 1_555 1_555
H15 C5 1_555 1_555
H16 C17 1_555 1_555
H17 C24 1_555 1_555
H18 C19 1_555 1_555
H19 N1 1_555 1_555
H20 C31 1_555 1_555
H21 N2 1_555 1_555
H22 C32 1_555 1_555
H23 N2 1_555 1_555
H24 N1 1_555 1_555
H25 C33 1_555 1_555
H26 C33 1_555 1_555
H28 C31 1_555 1_555
H29 C32 1_555 1_555
Cl1A C8A 1_555 1_555
O1A C3A 1_555 1_555
C1A C3A 1_555 1_555
C2A C3 1_555 1_555
C3A C2 1_555 1_555
C4A C1A 1_555 1_555
C5A C2A 1_555 1_555
C6A C2A 1_555 1_555
C7A C8A 1_555 1_555
C8A C6A 1_555 1_555
C9A C5A 1_555 1_555
Cl2A C14A 1_555 1_555
O2A C10A 1_555 1_555
C10A C16 1_555 1_555
C11A C10A 1_555 1_555
C12A C14A 1_555 1_555
C13A C10A 1_555 1_555
C14A C13A 1_555 1_555
C15A C12A 1_555 1_555
C16A C10 1_555 1_555
C17A C15A 1_555 1_555
C18A C11A 1_555 1_555
Cl3A C20A 1_555 1_555
O3A C25A 1_555 1_555
C19A C20A 1_555 1_555
C20A C22A 1_555 1_555
C21A C22A 1_555 1_555
C22A C25A 1_555 1_555
C23A C25A 1_555 1_555
C24A C21A 1_555 1_555
C25A C21 1_555 1_555
C26A C19A 1_555 1_555
C27A C23A 1_555 1_555
H2A C7A 1_555 1_555
H3A C12A 1_555 1_555
H5A C15A 1_555 1_555
H6A O3A 1_555 1_555
H7A O1A 1_555 1_555
H9A C9A 1_555 1_555
H10A O2A 1_555 1_555
H11A C4A 1_555 1_555
H12A C27A 1_555 1_555
H14A C26A 1_555 1_555
H15A C5A 1_555 1_555
H16A C17A 1_555 1_555
H17A C24A 1_555 1_555
H18A C19A 1_555 1_555
H27A C18A 1_555 1_555
C16 C17 1_555 1_555
C24 C26 1_555 1_555
C3A C6A 1_555 1_555
C7A C9A 1_555 1_555
C13A C16A 1_555 1_555
C16A C17A 1_555 1_555
C24A C26A 1_555 1_555

#END
