
#######################################################################
#
#                 Cambridge Crystallographic Data Centre
#                                CCDC 
#
#######################################################################
#
# If this CIF has been generated from an entry in the Cambridge 
# Structural Database, then it will include bibliographic, chemical, 
# crystal, experimental, refinement or atomic coordinate data resulting 
# from the CCDC's data processing and validation procedures.
#
#######################################################################

data_LERVOU
_chemical_formula_moiety         'C18 H10 Cl2 O2,2(C8 H19 N1)'
_chemical_name_systematic        
'trans-1,5-Dichloro-9,10-diethynyl-9,10-dihydroanthracene-9,10-diol di-n-butylamine solvate'
_symmetry_cell_setting           triclinic
_symmetry_space_group_name_H-M   'P -1'
_symmetry_Int_Tables_number      2
_space_group_name_Hall           '-P 1'
loop_
_symmetry_equiv_pos_site_id
_symmetry_equiv_pos_as_xyz
1 x,y,z
2 -x,-y,-z
_cell_length_a                   8.5156(5)
_cell_length_b                   8.9976(6)
_cell_length_c                   11.6849(7)
_cell_angle_alpha                100.046(2)
_cell_angle_beta                 109.570(2)
_cell_angle_gamma                90.338(2)
_cell_volume                     828.645
_exptl_crystal_colour            colorless
_exptl_crystal_description       plate
_cell_formula_units_Z            1
loop_
_atom_site_label
_atom_site_type_symbol
_atom_site_fract_x
_atom_site_fract_y
_atom_site_fract_z
Cl1 Cl 0.94720(10) 0.18807(7) 0.68701(6)
O1 O 1.0721(3) 0.21035(18) 0.9673(2)
C1 C 0.9273(4) 0.4161(3) 0.8720(3)
C2 C 0.8473(3) 0.5381(3) 0.9118(3)
C3 C 0.7087(6) 0.3807(5) 0.6693(3)
C4 C 1.0904(4) 0.3643(3) 0.9576(3)
C5 C 0.6996(3) 0.5800(3) 0.8306(2)
C6 C 0.8556(3) 0.3387(3) 0.7486(2)
C7 C 1.3378(5) 0.4003(4) 0.8714(4)
C8 C 1.2250(4) 0.3790(3) 0.9055(3)
C9 C 0.6310(4) 0.5021(3) 0.7116(3)
H1 H 0.616(3) 0.666(3) 0.849(3)
H2 H 0.525(4) 0.535(3) 0.661(3)
H3 H 0.664(4) 0.329(3) 0.590(3)
H4 H 1.421(4) 0.414(4) 0.848(3)
H5 H 1.007(4) 0.204(3) 1.007(3)
Cl1A Cl 1.05280(10) 0.81193(7) 1.31299(6)
O1A O 0.9279(3) 0.78965(18) 1.0327(2)
C1A C 1.0727(4) 0.5839(3) 1.1280(3)
C2A C 1.1527(3) 0.4619(3) 1.0882(3)
C3A C 1.2913(6) 0.6193(5) 1.3307(3)
C4A C 0.9096(4) 0.6357(3) 1.0424(3)
C5A C 1.3004(3) 0.4200(3) 1.1694(2)
C6A C 1.1444(3) 0.6613(3) 1.2514(2)
C7A C 0.6622(5) 0.5997(4) 1.1286(4)
C8A C 0.7750(4) 0.6210(3) 1.0945(3)
C9A C 1.3690(4) 0.4979(3) 1.2884(3)
H1A H 1.384(3) 0.334(3) 1.151(3)
H2A H 1.475(4) 0.465(3) 1.339(3)
H3A H 1.336(4) 0.671(3) 1.410(3)
H4A H 0.579(4) 0.586(4) 1.152(3)
H5A H 0.993(4) 0.796(3) 0.993(3)
N1 N 0.8383(2) 0.1412(2) 1.06594(17)
C10 C 1.2003(5) 0.3044(6) 1.5100(3)
C11 C 1.0368(4) 0.3184(4) 1.4092(2)
C12 C 1.0152(4) 0.2161(3) 1.2868(2)
C13 C 0.8539(3) 0.2337(3) 1.1862(2)
C14 C 0.6747(3) 0.1497(3) 0.9718(2)
C15 C 0.6483(3) 0.0364(3) 0.8548(2)
C16 C 0.4845(4) 0.0474(3) 0.7536(3)
C17 C 0.4535(5) -0.0748(4) 0.6397(3)
H6 H 0.672(3) 0.252(3) 0.954(2)
H7 H 0.582(3) 0.135(3) 1.005(2)
H8 H 0.739(3) 0.052(3) 0.827(2)
H9 H 0.853(3) 0.343(3) 1.176(2)
H10 H 1.111(4) 0.231(3) 1.260(2)
H11 H 0.761(4) 0.211(3) 1.211(2)
H12 H 0.850(4) 0.050(3) 1.076(3)
H13 H 0.392(4) 0.045(3) 0.784(3)
H14 H 0.943(4) 0.304(3) 1.432(3)
H15 H 0.656(3) -0.069(3) 0.873(2)
H16 H 0.481(4) 0.143(4) 0.728(3)
H17 H 1.030(4) 0.433(4) 1.394(3)
H18 H 0.349(4) -0.067(3) 0.582(3)
H19 H 0.539(4) -0.065(4) 0.603(3)
H20 H 1.206(5) 0.360(4) 1.586(4)
H21 H 1.012(4) 0.111(4) 1.294(3)
H22 H 1.296(6) 0.320(5) 1.478(4)
H23 H 1.188(4) 0.206(4) 1.521(3)
H24 H 0.445(5) -0.181(5) 0.657(4)
Cl2? Cl 0.5694(5) 0.6321(4) 0.7664(4)
O2? O 1.1193(15) 0.2280(13) 1.0246(11)
C18? C 0.9505(12) 0.2826(11) 0.7821(10)
C19? C 0.8136(15) 0.2827(12) 0.6757(8)
C20? C 0.6989(13) 0.3922(14) 0.6744(9)
C21? C 0.7210(12) 0.5016(11) 0.7795(10)
C22? C 0.8578(14) 0.5015(11) 0.8858(8)
C23? C 0.9726(12) 0.3920(13) 0.8871(8)
C24? C 1.119(2) 0.3847(19) 1.0011(15)
C25? C 1.267(2) 0.3901(17) 0.9543(14)
C26? C 1.365(3) 0.415(3) 0.923(2)
loop_
_geom_bond_atom_site_label_1
_geom_bond_atom_site_label_2
_geom_bond_site_symmetry_1
_geom_bond_site_symmetry_2
Cl1 C6 1_555 1_555
O1 C4 1_555 1_555
C1 C2 1_555 1_555
C2 C5 1_555 1_555
C3 C6 1_555 1_555
C4 C1 1_555 1_555
C5 C9 1_555 1_555
C6 C1 1_555 1_555
C7 C8 1_555 1_555
C8 C4 1_555 1_555
C9 C3 1_555 1_555
H1 C5 1_555 1_555
H2 C9 1_555 1_555
H3 C3 1_555 1_555
H4 C7 1_555 1_555
H5 O1 1_555 1_555
N1 C13 1_555 1_555
C10 C11 1_555 1_555
C11 C12 1_555 1_555
C12 C13 1_555 1_555
C13 H9 1_555 1_555
C14 N1 1_555 1_555
C15 C14 1_555 1_555
C16 C15 1_555 1_555
C17 C16 1_555 1_555
H6 C14 1_555 1_555
H7 C14 1_555 1_555
H8 C15 1_555 1_555
H10 C12 1_555 1_555
H11 C13 1_555 1_555
H12 N1 1_555 1_555
H13 C16 1_555 1_555
H14 C11 1_555 1_555
H15 C15 1_555 1_555
H16 C16 1_555 1_555
H17 C11 1_555 1_555
H18 C17 1_555 1_555
H19 C17 1_555 1_555
H20 C10 1_555 1_555
H21 C12 1_555 1_555
H22 C10 1_555 1_555
H23 C10 1_555 1_555
H24 C17 1_555 1_555
Cl1A C6A 1_555 1_555
O1A C4A 1_555 1_555
C1A C2A 1_555 1_555
C2A C4 1_555 1_555
C3A C6A 1_555 1_555
C4A C2 1_555 1_555
C5A C2A 1_555 1_555
C6A C1A 1_555 1_555
C7A C8A 1_555 1_555
C8A C4A 1_555 1_555
C9A C3A 1_555 1_555
H1A C5A 1_555 1_555
H2A C9A 1_555 1_555
H3A C3A 1_555 1_555
H4A C7A 1_555 1_555
H5A O1A 1_555 1_555
C1A C4A 1_555 1_555
C5A C9A 1_555 1_555

#END
