
#######################################################################
#
#                 Cambridge Crystallographic Data Centre
#                                CCDC 
#
#######################################################################
#
# If this CIF has been generated from an entry in the Cambridge 
# Structural Database, then it will include bibliographic, chemical, 
# crystal, experimental, refinement or atomic coordinate data resulting 
# from the CCDC's data processing and validation procedures.
#
#######################################################################

data_LERVUA
_chemical_formula_moiety         'C18 H10 Cl2 O2,2(C12 H23 N1)'
_chemical_name_systematic        
'trans-1,5-Dichloro-9,10-diethynyl-9,10-dihydroanthracene-9,10-diol dicyclohexylamine solvate'
_symmetry_cell_setting           triclinic
_symmetry_space_group_name_H-M   'P -1'
_symmetry_Int_Tables_number      2
_space_group_name_Hall           '-P 1'
loop_
_symmetry_equiv_pos_site_id
_symmetry_equiv_pos_as_xyz
1 x,y,z
2 -x,-y,-z
_cell_length_a                   8.8402(2)
_cell_length_b                   10.3480(2)
_cell_length_c                   11.3207(2)
_cell_angle_alpha                90.1980(10)
_cell_angle_beta                 112.7930(10)
_cell_angle_gamma                103.5550(10)
_cell_volume                     922.989
_exptl_crystal_colour            colorless
_exptl_crystal_description       prism
_cell_formula_units_Z            1
_exptl_crystal_recrystallization_method dicyclohexylamine/acetone
loop_
_atom_site_label
_atom_site_type_symbol
_atom_site_fract_x
_atom_site_fract_y
_atom_site_fract_z
Cl1 Cl 0.44059(4) 0.39069(3) 0.32981(3)
O1 O 0.22609(11) 0.43248(9) 0.04987(9)
C1 C 0.53329(15) 0.49728(11) 0.13782(12)
C2 C 0.64649(15) 0.58730(11) 0.10012(12)
C4 C 0.71770(17) 0.58131(14) 0.36203(13)
C5 C 0.79038(16) 0.67569(12) 0.19220(13)
C6 C 0.37213(15) 0.40482(12) 0.03951(12)
C8 C 0.37228(16) 0.26434(12) 0.06618(12)
C9 C 0.57280(16) 0.49676(12) 0.27099(12)
C12 C 0.38038(18) 0.15303(14) 0.08217(14)
C17 C 0.82665(17) 0.67180(14) 0.32151(13)
H8 H 0.863(2) 0.7384(15) 0.1621(15)
H11 H 0.745(2) 0.5759(15) 0.4541(16)
H16 H 0.388(2) 0.0657(19) 0.0992(18)
H17 H 0.229(2) 0.5151(18) 0.0407(16)
H21 H 0.921(2) 0.7282(17) 0.3796(17)
Cl1A Cl 0.55941(4) 0.60931(3) -0.32981(3)
O1A O 0.77391(11) 0.56752(9) -0.04987(9)
C1A C 0.46671(15) 0.50272(11) -0.13782(12)
C2A C 0.35351(15) 0.41270(11) -0.10012(12)
C4A C 0.28230(17) 0.41869(14) -0.36203(13)
C5A C 0.20962(16) 0.32431(12) -0.19220(13)
C6A C 0.62787(15) 0.59518(12) -0.03951(12)
C8A C 0.62772(16) 0.73566(12) -0.06618(12)
C9A C 0.42720(16) 0.50324(12) -0.27099(12)
C12A C 0.61962(18) 0.84697(14) -0.08217(14)
C17A C 0.17335(17) 0.32820(14) -0.32151(13)
H8A H 0.137(2) 0.2616(15) -0.1621(15)
H11A H 0.255(2) 0.4241(15) -0.4541(16)
H16A H 0.612(2) 0.9343(19) -0.0992(18)
H17A H 0.771(2) 0.4849(18) -0.0407(16)
H21A H 0.079(2) 0.2718(17) -0.3796(17)
N1 N 0.82649(14) 0.30835(11) 0.96833(11)
C3 C 0.83490(16) 0.23363(13) 1.08132(13)
C7 C 0.74158(16) 0.22545(12) 0.84236(13)
C10 C 0.55043(16) 0.17387(13) 0.80500(13)
C11 C 0.49985(19) 0.16946(14) 0.56931(14)
C13 C 0.95019(18) 0.13775(13) 1.10816(14)
C14 C 0.89526(19) 0.33145(14) 1.20124(14)
C15 C 0.77144(18) 0.30840(14) 0.73835(14)
C16 C 0.69005(19) 0.22485(15) 0.60742(14)
C18 C 0.8938(2) 0.25775(16) 1.31752(14)
C19 C 0.46315(19) 0.09040(14) 0.67328(13)
C20 C 1.0033(2) 0.15831(15) 1.34400(14)
C21 C 0.9505(2) 0.06256(14) 1.22416(15)
H1 H 0.501(2) 0.0082(17) 0.6782(16)
H2 H 0.5247(19) 0.1214(15) 0.8698(15)
H3 H 0.722(2) 0.1830(15) 1.0641(15)
H4 H 0.7870(18) 0.1468(15) 0.8440(14)
H5 H 0.447(2) 0.1149(16) 0.4870(16)
H6 H 0.5039(18) 0.2520(15) 0.8019(14)
H7 H 0.831(2) 0.0025(17) 1.2036(16)
H9 H 0.721(2) 0.3828(17) 0.7335(15)
H10 H 0.337(2) 0.0611(16) 0.6489(16)
H12 H 0.994(2) 0.1072(18) 1.4155(18)
H13 H 0.447(2) 0.2476(16) 0.5594(15)
H14 H 0.711(2) 0.2782(17) 0.5435(17)
H15 H 1.008(2) 0.3873(17) 1.2158(16)
H18 H 0.915(2) 0.0750(17) 1.0336(17)
H19 H 0.890(2) 0.3421(16) 0.7624(15)
H20 H 0.928(2) 0.3394(16) 0.9785(16)
H22 H 0.932(2) 0.3233(18) 1.3920(18)
H23 H 1.029(2) 0.0048(18) 1.2420(17)
H24 H 0.743(2) 0.1486(17) 0.6112(16)
H25 H 1.066(2) 0.1877(17) 1.1243(16)
H26 H 0.823(2) 0.3942(17) 1.1844(16)
H27 H 1.124(3) 0.2053(19) 1.3704(18)
H28 H 0.772(2) 0.2104(17) 1.2983(17)
loop_
_geom_bond_atom_site_label_1
_geom_bond_atom_site_label_2
_geom_bond_site_symmetry_1
_geom_bond_site_symmetry_2
Cl1 C9 1_555 1_555
O1 C6 1_555 1_555
C1 C2 1_555 1_555
N1 C3 1_555 1_555
C2 C5 1_555 1_555
C3 C13 1_555 1_555
C4 C9 1_555 1_555
C5 C17 1_555 1_555
C6 C1 1_555 1_555
C7 N1 1_555 1_555
C8 C6 1_555 1_555
C9 C1 1_555 1_555
C10 C7 1_555 1_555
C11 C16 1_555 1_555
C12 C8 1_555 1_555
C13 C21 1_555 1_555
C14 C3 1_555 1_555
C15 C7 1_555 1_555
C16 C15 1_555 1_555
C17 C4 1_555 1_555
C18 C14 1_555 1_555
C19 C10 1_555 1_555
C20 C18 1_555 1_555
C21 C20 1_555 1_555
H1 C19 1_555 1_555
H2 C10 1_555 1_555
H3 C3 1_555 1_555
H4 C7 1_555 1_555
H5 C11 1_555 1_555
H6 C10 1_555 1_555
H7 C21 1_555 1_555
H8 C5 1_555 1_555
H9 C15 1_555 1_555
H10 C19 1_555 1_555
H11 C4 1_555 1_555
H12 C20 1_555 1_555
H13 C11 1_555 1_555
H14 C16 1_555 1_555
H15 C14 1_555 1_555
H16 C12 1_555 1_555
H17 O1 1_555 1_555
H18 C13 1_555 1_555
H19 C15 1_555 1_555
H20 N1 1_555 1_555
H21 C17 1_555 1_555
H22 C18 1_555 1_555
H23 C21 1_555 1_555
H24 C16 1_555 1_555
H25 C13 1_555 1_555
H26 C14 1_555 1_555
H27 C20 1_555 1_555
H28 C18 1_555 1_555
Cl1A C9A 1_555 1_555
O1A C6A 1_555 1_555
C1A C2A 1_555 1_555
C2A C6 1_555 1_555
C4A C9A 1_555 1_555
C5A C2A 1_555 1_555
C6A C2 1_555 1_555
C8A C6A 1_555 1_555
C9A C1A 1_555 1_555
C12A C8A 1_555 1_555
C17A C4A 1_555 1_555
H8A C5A 1_555 1_555
H11A C4A 1_555 1_555
H16A C12A 1_555 1_555
H17A O1A 1_555 1_555
H21A C17A 1_555 1_555
C11 C19 1_555 1_555
C1A C6A 1_555 1_555
C5A C17A 1_555 1_555

#END
