
#######################################################################
#
#                 Cambridge Crystallographic Data Centre
#                                CCDC 
#
#######################################################################
#
# If this CIF has been generated from an entry in the Cambridge 
# Structural Database, then it will include bibliographic, chemical, 
# crystal, experimental, refinement or atomic coordinate data resulting 
# from the CCDC's data processing and validation procedures.
#
#######################################################################

data_LERWUC
_chemical_formula_moiety         'C12 H16 O2'
_chemical_name_systematic        
2-(2-Hydroxy-2-phenylethyl)-1-methylcyclopropan-1-ol
_symmetry_cell_setting           triclinic
_symmetry_space_group_name_H-M   'P -1'
_symmetry_Int_Tables_number      2
_space_group_name_Hall           '-P 1'
loop_
_symmetry_equiv_pos_site_id
_symmetry_equiv_pos_as_xyz
1 x,y,z
2 -x,-y,-z
_cell_length_a                   9.1700(8)
_cell_length_b                   10.3863(10)
_cell_length_c                   11.9412(11)
_cell_angle_alpha                98.133(7)
_cell_angle_beta                 90.854(6)
_cell_angle_gamma                91.841(7)
_cell_volume                     1125.07
_exptl_crystal_colour            colorless
_exptl_crystal_description       block
_cell_formula_units_Z            4
_exptl_crystal_recrystallization_method 'ethyl acetate/petrol'
loop_
_atom_site_label
_atom_site_type_symbol
_atom_site_fract_x
_atom_site_fract_y
_atom_site_fract_z
O1 O 0.29470(19) 0.48083(17) 0.31228(15)
H1 H 0.3789 0.5069 0.3051
O2 O 0.44023(19) 0.39198(17) 0.70678(14)
H2 H 0.3622 0.4207 0.7296
C1 C 0.3172(3) 0.2795(3) 0.1811(2)
C2 C 0.3688(3) 0.3498(3) 0.0998(2)
H3 H 0.3859 0.4391 0.1177
C3 C 0.3958(3) 0.2885(3) -0.0095(2)
H4 H 0.4298 0.3374 -0.0638
C4 C 0.3729(4) 0.1591(4) -0.0366(3)
H5 H 0.3920 0.1186 -0.1092
C5 C 0.3223(6) 0.0882(4) 0.0417(3)
H6 H 0.3077 -0.0013 0.0230
C6 C 0.2918(5) 0.1479(3) 0.1504(3)
H7 H 0.2539 0.0982 0.2028
C7 C 0.2894(3) 0.3416(3) 0.3008(2)
H8 H 0.1916 0.3131 0.3213
C8 C 0.3980(3) 0.3031(3) 0.3855(2)
H9 H 0.4006 0.2089 0.3771
H10 H 0.4944 0.3362 0.3694
C9 C 0.3607(3) 0.3547(3) 0.5063(2)
H11 H 0.3466 0.4487 0.5197
C10 C 0.4153(3) 0.3000(3) 0.6074(2)
C11 C 0.2598(3) 0.2770(3) 0.5716(2)
H12 H 0.1871 0.3236 0.6179
H13 H 0.2291 0.1901 0.5369
C12 C 0.5203(3) 0.1925(3) 0.6002(3)
H14 H 0.5398 0.1715 0.6746
H15 H 0.6096 0.2195 0.5682
H16 H 0.4789 0.1171 0.5531
O3 O 0.20635(19) 0.51624(17) -0.18527(15)
H17 H 0.1211 0.4912 -0.1976
O4 O 0.06177(18) 0.60637(17) 0.23173(14)
H18 H 0.1389 0.5758 0.2490
C13 C 0.1876(3) 0.7210(3) -0.2628(2)
C14 C 0.2208(5) 0.8513(3) -0.2580(3)
H19 H 0.2619 0.8971 -0.1919
C15 C 0.1944(5) 0.9163(4) -0.3494(4)
H20 H 0.2164 1.0051 -0.3438
C16 C 0.1365(5) 0.8511(5) -0.4469(3)
H21 H 0.1173 0.8949 -0.5080
C17 C 0.1070(4) 0.7221(5) -0.4549(3)
H22 H 0.0701 0.6768 -0.5227
C18 C 0.1309(3) 0.6553(3) -0.3632(3)
H23 H 0.1085 0.5665 -0.3697
C19 C 0.2137(3) 0.6552(2) -0.1590(2)
H24 H 0.3115 0.6818 -0.1283
C20 C 0.1041(3) 0.6937(3) -0.0678(2)
H25 H 0.1025 0.7879 -0.0521
H26 H 0.0076 0.6617 -0.0949
C21 C 0.1402(3) 0.6401(3) 0.0402(2)
H27 H 0.1507 0.5456 0.0304
C22 C 0.0892(3) 0.6972(3) 0.1554(2)
C23 C 0.2449(3) 0.7152(3) 0.1265(2)
H28 H 0.3163 0.6664 0.1622
H29 H 0.2786 0.8012 0.1136
C24 C -0.0105(4) 0.8086(3) 0.1728(3)
H30 H -0.0290 0.8303 0.2520
H31 H -0.1010 0.7847 0.1325
H32 H 0.0341 0.8825 0.1450
loop_
_geom_bond_atom_site_label_1
_geom_bond_atom_site_label_2
_geom_bond_site_symmetry_1
_geom_bond_site_symmetry_2
O1 H1 1_555 1_555
O2 H2 1_555 1_555
C1 C2 1_555 1_555
C2 H3 1_555 1_555
C3 C2 1_555 1_555
H4 C3 1_555 1_555
C4 C3 1_555 1_555
H5 C4 1_555 1_555
C5 C4 1_555 1_555
H6 C5 1_555 1_555
C6 C1 1_555 1_555
H7 C6 1_555 1_555
C7 O1 1_555 1_555
H8 C7 1_555 1_555
C8 C7 1_555 1_555
H9 C8 1_555 1_555
H10 C8 1_555 1_555
C9 C8 1_555 1_555
H11 C9 1_555 1_555
C10 O2 1_555 1_555
C11 C9 1_555 1_555
H12 C11 1_555 1_555
H13 C11 1_555 1_555
C12 C10 1_555 1_555
H14 C12 1_555 1_555
H15 C12 1_555 1_555
H16 C12 1_555 1_555
O3 H17 1_555 1_555
O4 H18 1_555 1_555
C13 C14 1_555 1_555
C14 H19 1_555 1_555
C15 C14 1_555 1_555
H20 C15 1_555 1_555
C16 C15 1_555 1_555
H21 C16 1_555 1_555
C17 C16 1_555 1_555
H22 C17 1_555 1_555
C18 C13 1_555 1_555
H23 C18 1_555 1_555
C19 O3 1_555 1_555
H24 C19 1_555 1_555
C20 C19 1_555 1_555
H25 C20 1_555 1_555
H26 C20 1_555 1_555
C21 C20 1_555 1_555
H27 C21 1_555 1_555
C22 O4 1_555 1_555
C23 C21 1_555 1_555
H28 C23 1_555 1_555
H29 C23 1_555 1_555
C24 C22 1_555 1_555
H30 C24 1_555 1_555
H31 C24 1_555 1_555
H32 C24 1_555 1_555
C1 C7 1_555 1_555
C5 C6 1_555 1_555
C9 C10 1_555 1_555
C10 C11 1_555 1_555
C13 C19 1_555 1_555
C17 C18 1_555 1_555
C21 C22 1_555 1_555
C22 C23 1_555 1_555

#END
