
#######################################################################
#
#                 Cambridge Crystallographic Data Centre
#                                CCDC 
#
#######################################################################
#
# If this CIF has been generated from an entry in the Cambridge 
# Structural Database, then it will include bibliographic, chemical, 
# crystal, experimental, refinement or atomic coordinate data resulting 
# from the CCDC's data processing and validation procedures.
#
#######################################################################

data_LERWEL
_chemical_formula_moiety         'C18 H10 Cl2 O2,2(C4 H11 N1)'
_chemical_name_systematic        
'trans-1,5-Dichloro-9,10-diethynyl-9,10-dihydroanthracene-9,10-diol ethyl(dimethyl)amine solvate'
_symmetry_cell_setting           triclinic
_symmetry_space_group_name_H-M   'P -1'
_symmetry_Int_Tables_number      2
_space_group_name_Hall           '-P 1'
loop_
_symmetry_equiv_pos_site_id
_symmetry_equiv_pos_as_xyz
1 x,y,z
2 -x,-y,-z
_cell_length_a                   9.9854(3)
_cell_length_b                   10.2540(3)
_cell_length_c                   12.7257(4)
_cell_angle_alpha                88.2500(10)
_cell_angle_beta                 72.4310(10)
_cell_angle_gamma                87.2610(10)
_cell_volume                     1240.61
_exptl_crystal_colour            colorless
_exptl_crystal_description       plate
_cell_formula_units_Z            2
loop_
_atom_site_label
_atom_site_type_symbol
_atom_site_fract_x
_atom_site_fract_y
_atom_site_fract_z
Cl1 Cl 0.21421(6) 1.30939(5) 0.54330(4)
O2 O 0.42554(16) 1.16077(15) 0.35755(12)
C2 C 0.3724(2) 1.0823(2) 0.54752(16)
C4 C 0.4838(2) 1.1333(2) 0.44547(16)
C5 C 0.2484(2) 1.1571(2) 0.59656(17)
C6 C 0.3872(2) 0.9602(2) 0.59500(16)
C10 C 0.1458(2) 1.1148(2) 0.68919(18)
C12 C 0.5362(2) 1.2585(2) 0.47123(16)
C13 C 0.2820(2) 0.9163(2) 0.68732(18)
C15 C 0.1636(2) 0.9925(2) 0.73487(18)
C18 C 0.5867(2) 1.3546(2) 0.48831(19)
H36 H 0.064(3) 1.170(3) 0.719(2)
H45 H 0.296(3) 0.836(3) 0.716(2)
H47 H 0.093(3) 0.963(3) 0.800(2)
H48 H 0.625(3) 1.428(3) 0.502(2)
H51 H 0.410(3) 1.089(3) 0.334(3)
Cl1A Cl 0.78579(6) 0.69061(5) 0.45670(4)
O2A O 0.57446(16) 0.83923(15) 0.64245(12)
C2A C 0.6276(2) 0.9177(2) 0.45248(16)
C4A C 0.5162(2) 0.8667(2) 0.55453(16)
C5A C 0.7516(2) 0.8429(2) 0.40344(17)
C6A C 0.6128(2) 1.0398(2) 0.40500(16)
C10A C 0.8542(2) 0.8852(2) 0.31081(18)
C12A C 0.4638(2) 0.7415(2) 0.52877(16)
C13A C 0.7180(2) 1.0837(2) 0.31268(18)
C15A C 0.8364(2) 1.0075(2) 0.26513(18)
C18A C 0.4133(2) 0.6454(2) 0.51169(19)
H36A H 0.936(3) 0.830(3) 0.281(2)
H45A H 0.704(3) 1.164(3) 0.284(2)
H47A H 0.907(3) 1.037(3) 0.200(2)
H48A H 0.375(3) 0.572(3) 0.498(2)
H51A H 0.590(3) 0.911(3) 0.666(3)
Cl2 Cl 0.27838(6) 0.79167(5) 0.96108(5)
O1 O 0.06368(16) 0.65058(15) 1.14343(12)
C1 C 0.1264(2) 0.5763(2) 0.95419(16)
C3 C 0.2498(2) 0.6447(2) 0.90672(17)
C7 C 0.1161(2) 0.4574(2) 0.90745(16)
C8 C 0.0105(2) 0.6301(2) 1.05360(16)
C9 C -0.0435(2) 0.7596(2) 1.02378(16)
C11 C -0.0931(2) 0.8609(2) 1.00316(18)
C14 C 0.2252(2) 0.4108(2) 0.81673(17)
C16 C 0.3556(2) 0.6006(2) 0.81606(18)
C17 C 0.3427(2) 0.4819(2) 0.77093(18)
H34 H 0.433(3) 0.652(2) 0.786(2)
H39 H 0.415(3) 0.447(2) 0.708(2)
H42 H 0.213(2) 0.331(2) 0.7864(19)
H43 H 0.096(3) 0.573(3) 1.162(2)
H49 H -0.128(3) 0.945(3) 0.986(2)
Cl2A Cl -0.27838(6) 0.20833(5) 1.03892(5)
O1A O -0.06368(16) 0.34942(15) 0.85657(12)
C1A C -0.1264(2) 0.4237(2) 1.04581(16)
C3A C -0.2498(2) 0.3553(2) 1.09328(17)
C7A C -0.1161(2) 0.5426(2) 1.09255(16)
C8A C -0.0105(2) 0.3699(2) 0.94640(16)
C9A C 0.0435(2) 0.2404(2) 0.97622(16)
C11A C 0.0931(2) 0.1391(2) 0.99684(18)
C14A C -0.2252(2) 0.5892(2) 1.18327(17)
C16A C -0.3556(2) 0.3994(2) 1.18394(18)
C17A C -0.3427(2) 0.5181(2) 1.22907(18)
H34A H -0.433(3) 0.348(2) 1.214(2)
H39A H -0.415(3) 0.553(2) 1.292(2)
H42A H -0.213(2) 0.669(2) 1.2136(19)
H43A H -0.096(3) 0.427(3) 0.838(2)
H49A H 0.128(3) 0.055(3) 1.014(2)
N1 N 0.1894(2) 0.43737(19) 1.21112(16)
C19 C 0.3059(3) 0.3922(3) 1.1163(2)
C20 C 0.1043(3) 0.3266(2) 1.2643(2)
C21 C 0.2464(3) 0.5019(3) 1.2888(2)
C22 C -0.0308(3) 0.3675(3) 1.3509(3)
H35 H 0.357(3) 0.469(3) 1.082(2)
H37 H 0.161(3) 0.262(3) 1.295(2)
H38 H 0.268(3) 0.350(3) 1.060(2)
H40 H 0.166(3) 0.543(3) 1.349(2)
H41 H 0.304(3) 0.574(3) 1.253(2)
H44 H 0.302(4) 0.439(4) 1.319(3)
H46 H 0.371(3) 0.325(3) 1.139(3)
H50 H 0.082(3) 0.277(3) 1.207(3)
H52 H -0.087(4) 0.294(4) 1.374(3)
H53 H -0.085(3) 0.433(3) 1.321(3)
H54 H -0.012(4) 0.404(4) 1.414(3)
C23 C 0.1430(7) 0.9461(7) 0.3957(5)
H1 H 0.0741 0.8865 0.4412
H2 H 0.0977 1.0044 0.3530
H3 H 0.1801 0.9979 0.4433
N2 N 0.3683(11) 0.9549(9) 0.2464(8)
C24 C 0.3407(8) 1.0206(5) 0.1641(5)
H4 H 0.2528 1.0726 0.1922
H5 H 0.3311 0.9593 0.1094
H6 H 0.4176 1.0786 0.1296
C25 C 0.2649(6) 0.8661(6) 0.3161(5)
H7 H 0.3110 0.8070 0.3589
H8 H 0.2276 0.8120 0.2690
C26 C 0.5092(8) 0.8674(7) 0.2046(7)
H9 H 0.5838 0.9204 0.1572
H10 H 0.4935 0.7942 0.1626
H11 H 0.5371 0.8338 0.2681
C27? C 0.1721(10) 0.8750(9) 0.4037(8)
H12? H 0.0721 0.8558 0.4252
H13? H 0.1858 0.9468 0.4480
H14? H 0.2265 0.7972 0.4163
C28? C 0.4705(11) 0.8420(8) 0.2363(7)
H15? H 0.5675 0.8695 0.2196
H16? H 0.4611 0.7924 0.1744
H17? H 0.4471 0.7869 0.3031
C29? C 0.3973(8) 1.0198(6) 0.1392(5)
H18? H 0.4939 1.0477 0.1068
H19? H 0.3324 1.0965 0.1523
H20? H 0.3737 0.9614 0.0885
C30? C 0.2211(7) 0.9137(7) 0.2828(5)
H21? H 0.1659 0.9916 0.2690
H22? H 0.2084 0.8415 0.2373
N3? N 0.3844(10) 0.9456(9) 0.2518(8)
C31? C 0.255(3) 1.000(2) 0.2018(19)
H23? H 0.3272 1.0396 0.1404
H24? H 0.1847 1.0673 0.2379
H25? H 0.2098 0.9322 0.1737
C32? C 0.537(2) 0.890(2) 0.152(2)
H26? H 0.6067 0.8188 0.1248
H27? H 0.5802 0.9600 0.1792
H28? H 0.5016 0.9237 0.0921
C33? C 0.421(3) 0.841(2) 0.2413(19)
H29? H 0.3752 0.7715 0.2135
H30? H 0.4568 0.8024 0.3002
C34? C 0.204(3) 0.883(3) 0.375(3)
H31? H 0.2409 0.8411 0.4315
H32? H 0.1577 0.8178 0.3446
H33? H 0.1349 0.9527 0.4089
N4? N 0.3230(17) 0.9400(14) 0.2840(12)
loop_
_geom_bond_atom_site_label_1
_geom_bond_atom_site_label_2
_geom_bond_site_symmetry_1
_geom_bond_site_symmetry_2
Cl1 C5 1_555 1_555
Cl2 C3 1_555 1_555
O1 C8 1_555 1_555
O2 C4 1_555 1_555
C1 C3 1_555 1_555
C2 C4 1_555 1_555
C3 C16 1_555 1_555
C4 C12 1_555 1_555
C5 C2 1_555 1_555
C6 C2 1_555 1_555
C7 C1 1_555 1_555
C8 C1 1_555 1_555
C9 C8 1_555 1_555
N1 C19 1_555 1_555
C10 C5 1_555 1_555
C11 C9 1_555 1_555
C12 C18 1_555 1_555
C13 C6 1_555 1_555
C14 C7 1_555 1_555
C15 C10 1_555 1_555
C16 C17 1_555 1_555
C17 C14 1_555 1_555
C18 H48 1_555 1_555
C19 H35 1_555 1_555
C20 N1 1_555 1_555
C21 N1 1_555 1_555
C22 C20 1_555 1_555
C23 H1 1_555 1_555
H2 C23 1_555 1_555
H3 C23 1_555 1_555
N2 C24 1_555 1_555
C24 H4 1_555 1_555
H5 C24 1_555 1_555
H6 C24 1_555 1_555
C25 C23 1_555 1_555
H7 C25 1_555 1_555
H8 C25 1_555 1_555
C26 N2 1_555 1_555
H9 C26 1_555 1_555
H10 C26 1_555 1_555
H11 C26 1_555 1_555
H34 C16 1_555 1_555
H36 C10 1_555 1_555
H37 C20 1_555 1_555
H38 C19 1_555 1_555
H39 C17 1_555 1_555
H40 C21 1_555 1_555
H41 C21 1_555 1_555
H42 C14 1_555 1_555
H43 O1 1_555 1_555
H44 C21 1_555 1_555
H45 C13 1_555 1_555
H46 C19 1_555 1_555
H47 C15 1_555 1_555
H49 C11 1_555 1_555
H50 C20 1_555 1_555
H51 O2 1_555 1_555
H52 C22 1_555 1_555
H53 C22 1_555 1_555
H54 C22 1_555 1_555
Cl1A C5A 1_555 1_555
Cl2A C3A 1_555 1_555
O1A C8A 1_555 1_555
O2A C4A 1_555 1_555
C1A C3A 1_555 1_555
C2A C4A 1_555 1_555
C3A C16A 1_555 1_555
C4A C6 1_555 1_555
C5A C2A 1_555 1_555
C6A C4 1_555 1_555
C7A C8 1_555 1_555
C8A C7 1_555 1_555
C9A C8A 1_555 1_555
C10A C5A 1_555 1_555
C11A C9A 1_555 1_555
C12A C4A 1_555 1_555
C13A C6A 1_555 1_555
C14A C7A 1_555 1_555
C15A C10A 1_555 1_555
C16A C17A 1_555 1_555
C17A C14A 1_555 1_555
C18A C12A 1_555 1_555
H34A C16A 1_555 1_555
H36A C10A 1_555 1_555
H39A C17A 1_555 1_555
H42A C14A 1_555 1_555
H43A O1A 1_555 1_555
H45A C13A 1_555 1_555
H47A C15A 1_555 1_555
H48A C18A 1_555 1_555
H49A C11A 1_555 1_555
H51A O2A 1_555 1_555
C13 C15 1_555 1_555
N2 C25 1_555 1_555
C1A C7A 1_555 1_555
C1A C8A 1_555 1_555
C2A C6A 1_555 1_555
C13A C15A 1_555 1_555

#END
