
#######################################################################
#
#                 Cambridge Crystallographic Data Centre
#                                CCDC 
#
#######################################################################
#
# If this CIF has been generated from an entry in the Cambridge 
# Structural Database, then it will include bibliographic, chemical, 
# crystal, experimental, refinement or atomic coordinate data resulting 
# from the CCDC's data processing and validation procedures.
#
#######################################################################

data_LERWAH
_chemical_formula_moiety         'C18 H10 Cl2 O2,2(C6 H15 N1)'
_chemical_name_systematic        
'trans-1,5-Dichloro-9,10-diethynyl-9,10-dihydroanthracene-9,10-diol di-isopropylamine solvate'
_symmetry_cell_setting           triclinic
_symmetry_space_group_name_H-M   'P -1'
_symmetry_Int_Tables_number      2
_space_group_name_Hall           '-P 1'
loop_
_symmetry_equiv_pos_site_id
_symmetry_equiv_pos_as_xyz
1 x,y,z
2 -x,-y,-z
_cell_length_a                   7.8515(2)
_cell_length_b                   9.1728(3)
_cell_length_c                   10.4275(3)
_cell_angle_alpha                84.4690(10)
_cell_angle_beta                 73.4860(10)
_cell_angle_gamma                79.5710(10)
_cell_volume                     707.314
_exptl_crystal_colour            colorless
_exptl_crystal_description       plate
_cell_formula_units_Z            1
loop_
_atom_site_label
_atom_site_type_symbol
_atom_site_fract_x
_atom_site_fract_y
_atom_site_fract_z
Cl1 Cl 0.45920(4) 0.33303(3) 0.24714(3)
O1 O 0.69719(11) 0.03491(9) 0.15650(8)
C1 C 0.41864(14) 0.11767(11) 0.09591(10)
C2 C 0.62336(14) 0.08184(12) 0.04603(10)
C3 C 0.33482(15) 0.22980(12) 0.18725(11)
C4 C 0.30804(14) 0.03762(12) 0.05812(10)
C5 C 0.14976(16) 0.26236(13) 0.23672(11)
C6 C 0.74369(18) 0.32635(14) -0.07813(13)
C7 C 0.12058(15) 0.06739(13) 0.11158(11)
C9 C 0.69373(15) 0.21818(12) -0.01898(11)
C10 C 0.04188(16) 0.17994(13) 0.19861(12)
H1 H 0.049(2) 0.0113(17) 0.0875(16)
H3 H 0.099(2) 0.3402(17) 0.2972(16)
H5 H -0.084(2) 0.1995(17) 0.2296(16)
H13 H 0.779(3) 0.411(2) -0.1203(19)
H20 H 0.648(2) -0.0339(19) 0.1958(18)
Cl1A Cl 0.54080(4) -0.33303(3) -0.24714(3)
O1A O 0.30281(11) -0.03491(9) -0.15650(8)
C1A C 0.58136(14) -0.11767(11) -0.09591(10)
C2A C 0.37664(14) -0.08184(12) -0.04603(10)
C3A C 0.66518(15) -0.22980(12) -0.18725(11)
C4A C 0.69196(14) -0.03762(12) -0.05812(10)
C5A C 0.85024(16) -0.26236(13) -0.23672(11)
C6A C 0.25631(18) -0.32635(14) 0.07813(13)
C7A C 0.87942(15) -0.06739(13) -0.11158(11)
C9A C 0.30627(15) -0.21818(12) 0.01898(11)
C10A C 0.95812(16) -0.17994(13) -0.19861(12)
H1A H 0.951(2) -0.0113(17) -0.0875(16)
H3A H 0.901(2) -0.3402(17) -0.2972(16)
H5A H 1.084(2) -0.1995(17) -0.2296(16)
H13A H 0.221(3) -0.411(2) 0.1203(19)
H20A H 0.352(2) 0.0339(19) -0.1958(18)
N1 N 0.54416(13) 0.78013(11) 0.28642(10)
C8 C 0.41279(16) 0.79629(13) 0.42077(11)
C11 C 0.69079(16) 0.65200(13) 0.28147(12)
C12 C 0.83029(18) 0.69087(16) 0.34269(14)
C13 C 0.30834(19) 0.95253(15) 0.43275(14)
C14 C 0.77465(19) 0.60902(15) 0.13684(13)
C15 C 0.2849(2) 0.68278(16) 0.45070(15)
H2 H 0.4806(18) 0.7789(15) 0.4871(14)
H4 H 0.6448(19) 0.5642(16) 0.3362(15)
H6 H 0.211(3) 0.696(2) 0.5435(19)
H7 H 0.776(2) 0.7216(19) 0.4350(18)
H8 H 0.394(2) 1.0232(19) 0.4152(17)
H9 H 0.882(2) 0.772(2) 0.2933(18)
H10 H 0.487(2) 0.7644(17) 0.2319(16)
H11 H 0.836(2) 0.685(2) 0.0832(18)
H12 H 0.924(2) 0.606(2) 0.3449(17)
H14 H 0.864(2) 0.5185(19) 0.1302(17)
H15 H 0.229(3) 0.967(2) 0.5239(19)
H16 H 0.213(2) 0.700(2) 0.3912(19)
H17 H 0.235(2) 0.970(2) 0.3675(19)
H18 H 0.683(2) 0.5871(19) 0.0957(17)
H19 H 0.350(2) 0.582(2) 0.4394(18)
loop_
_geom_bond_atom_site_label_1
_geom_bond_atom_site_label_2
_geom_bond_site_symmetry_1
_geom_bond_site_symmetry_2
Cl1 C3 1_555 1_555
O1 C2 1_555 1_555
N1 C8 1_555 1_555
C1 C2 1_555 1_555
C2 C9 1_555 1_555
C3 C1 1_555 1_555
C4 C1 1_555 1_555
C5 C3 1_555 1_555
C6 C9 1_555 1_555
C7 C4 1_555 1_555
C8 C13 1_555 1_555
C10 C5 1_555 1_555
C11 N1 1_555 1_555
C12 C11 1_555 1_555
C13 H8 1_555 1_555
C14 C11 1_555 1_555
C15 C8 1_555 1_555
H1 C7 1_555 1_555
H2 C8 1_555 1_555
H3 C5 1_555 1_555
H4 C11 1_555 1_555
H5 C10 1_555 1_555
H6 C15 1_555 1_555
H7 C12 1_555 1_555
H9 C12 1_555 1_555
H10 N1 1_555 1_555
H11 C14 1_555 1_555
H12 C12 1_555 1_555
H13 C6 1_555 1_555
H14 C14 1_555 1_555
H15 C13 1_555 1_555
H16 C15 1_555 1_555
H17 C13 1_555 1_555
H18 C14 1_555 1_555
H19 C15 1_555 1_555
H20 O1 1_555 1_555
Cl1A C3A 1_555 1_555
O1A C2A 1_555 1_555
C1A C2A 1_555 1_555
C2A C4 1_555 1_555
C3A C1A 1_555 1_555
C4A C2 1_555 1_555
C5A C3A 1_555 1_555
C6A C9A 1_555 1_555
C7A C4A 1_555 1_555
C9A C2A 1_555 1_555
C10A C5A 1_555 1_555
H1A C7A 1_555 1_555
H3A C5A 1_555 1_555
H5A C10A 1_555 1_555
H13A C6A 1_555 1_555
H20A O1A 1_555 1_555
C7 C10 1_555 1_555
C1A C4A 1_555 1_555
C7A C10A 1_555 1_555

#END
