
#######################################################################
#
#                 Cambridge Crystallographic Data Centre
#                                CCDC 
#
#######################################################################
#
# If this CIF has been generated from an entry in the Cambridge 
# Structural Database, then it will include bibliographic, chemical, 
# crystal, experimental, refinement or atomic coordinate data resulting 
# from the CCDC's data processing and validation procedures.
#
#######################################################################

data_LERXAI
_chemical_formula_moiety         'C18 H10 Cl2 O2,2(C6 H15 N1)'
_chemical_name_systematic        
'trans-1,5-Dichloro-9,10-diethynyl-9,10-dihydroanthracene-9,10-diol triethylamine solvate'
_symmetry_cell_setting           triclinic
_symmetry_space_group_name_H-M   'P -1'
_symmetry_Int_Tables_number      2
_space_group_name_Hall           '-P 1'
loop_
_symmetry_equiv_pos_site_id
_symmetry_equiv_pos_as_xyz
1 x,y,z
2 -x,-y,-z
_cell_length_a                   7.8896(3)
_cell_length_b                   9.0728(3)
_cell_length_c                   11.4777(4)
_cell_angle_alpha                79.1350(10)
_cell_angle_beta                 70.2730(10)
_cell_angle_gamma                71.3310(10)
_cell_volume                     729.686
_exptl_crystal_colour            colorless
_exptl_crystal_description       needle
_cell_formula_units_Z            1
loop_
_atom_site_label
_atom_site_type_symbol
_atom_site_fract_x
_atom_site_fract_y
_atom_site_fract_z
Cl1 Cl 0.05702(9) 0.21193(7) 0.24424(6)
O1 O -0.2211(2) 0.4981(2) 0.36942(18)
C1 C 0.0888(3) 0.3961(2) 0.3984(2)
C2 C 0.1991(3) 0.4608(2) 0.4353(2)
C3 C 0.3723(4) 0.2619(3) 0.2443(3)
C4 C 0.3935(3) 0.4253(3) 0.3778(3)
C5 C -0.1681(3) 0.2819(3) 0.5158(3)
C6 C 0.1806(3) 0.2979(3) 0.3008(2)
C7 C 0.4787(3) 0.3271(3) 0.2841(3)
C8 C -0.1236(3) 0.4323(2) 0.4592(2)
C9 C -0.1985(4) 0.1624(3) 0.5675(3)
H31 H -0.191(5) 0.571(4) 0.331(3)
H32 H 0.434(4) 0.196(4) 0.176(3)
H33 H 0.609(5) 0.297(3) 0.250(3)
H34 H 0.461(5) 0.467(4) 0.411(3)
H35 H -0.215(5) 0.066(4) 0.604(3)
Cl1A Cl -0.05702(9) 0.78807(7) 0.75576(6)
O1A O 0.2211(2) 0.5019(2) 0.63058(18)
C1A C -0.0888(3) 0.6039(2) 0.6016(2)
C2A C -0.1991(3) 0.5392(2) 0.5647(2)
C3A C -0.3723(4) 0.7381(3) 0.7557(3)
C4A C -0.3935(3) 0.5747(3) 0.6222(3)
C5A C 0.1681(3) 0.7181(3) 0.4842(3)
C6A C -0.1806(3) 0.7021(3) 0.6992(2)
C7A C -0.4787(3) 0.6729(3) 0.7159(3)
C8A C 0.1236(3) 0.5677(2) 0.5408(2)
C9A C 0.1985(4) 0.8376(3) 0.4325(3)
H31A H 0.191(5) 0.429(4) 0.669(3)
H32A H -0.434(4) 0.804(4) 0.824(3)
H33A H -0.609(5) 0.703(3) 0.750(3)
H34A H -0.461(5) 0.533(4) 0.589(3)
H35A H 0.215(5) 0.934(4) 0.396(3)
N1 N -0.1300(6) 0.7440(5) 0.2200(5)
C10 C -0.3218(10) 0.9267(8) 0.3839(6)
H1 H -0.3283 1.0197 0.4154
H2 H -0.3179 0.8419 0.4481
H3 H -0.4301 0.9436 0.3573
C11 C -0.2667(12) 0.7804(8) 0.1475(7)
H4 H -0.2155 0.8409 0.0721
H5 H -0.3788 0.8521 0.1948
C12 C -0.1431(9) 0.8860(7) 0.2726(7)
H6 H -0.1451 0.9730 0.2089
H7 H -0.0337 0.8687 0.2995
C13 C -0.3379(11) 0.6650(8) 0.1050(6)
H8 H -0.4248 0.7223 0.0597
H9 H -0.3992 0.6065 0.1765
H10 H -0.2336 0.5946 0.0525
C14 C 0.1459(9) 0.7734(7) 0.0298(6)
H11 H 0.1968 0.7480 -0.0549
H12 H 0.2374 0.7229 0.0731
H13 H 0.1139 0.8844 0.0318
C15 C 0.0184(8) 0.7326(6) 0.0754(5)
H14 H 0.0603 0.6221 0.0639
H15 H -0.0612 0.7808 0.0223
C16? C 0.0646(7) 0.6760(6) 0.1477(5)
H16? H 0.0804 0.6193 0.2256
H17? H 0.0642 0.5975 0.1009
C17? C 0.2035(9) 0.6899(7) 0.1014(6)
H18? H 0.2945 0.5898 0.1003
H19? H 0.2279 0.7576 0.1450
H20? H 0.2115 0.7347 0.0176
N2? N -0.1460(7) 0.7638(6) 0.1889(5)
C18? C -0.2668(10) 0.6354(7) 0.0945(6)
H21? H -0.3696 0.6356 0.0675
H22? H -0.2430 0.5463 0.1529
H23? H -0.1570 0.6303 0.0240
C19? C -0.3182(12) 0.7922(8) 0.1595(7)
H24? H -0.3404 0.8851 0.1028
H25? H -0.4255 0.7995 0.2334
C20? C -0.1510(10) 0.9012(9) 0.2432(7)
H26? H -0.0259 0.8891 0.2463
H27? H -0.1816 0.9930 0.1871
C21? C -0.2827(12) 0.9315(9) 0.3684(7)
H28? H -0.2754 1.0243 0.3929
H29? H -0.2503 0.8445 0.4266
H30? H -0.4080 0.9454 0.3673
loop_
_geom_bond_atom_site_label_1
_geom_bond_atom_site_label_2
_geom_bond_site_symmetry_1
_geom_bond_site_symmetry_2
Cl1 C6 1_555 1_555
O1 C8 1_555 1_555
C1 C2 1_555 1_555
C2 C4 1_555 1_555
C3 C6 1_555 1_555
C4 C7 1_555 1_555
C5 C8 1_555 1_555
C6 C1 1_555 1_555
C7 C3 1_555 1_555
C8 C1 1_555 1_555
C9 C5 1_555 1_555
N1 C11 1_555 1_555
C10 H1 1_555 1_555
H2 C10 1_555 1_555
H3 C10 1_555 1_555
C11 H4 1_555 1_555
H5 C11 1_555 1_555
C12 N1 1_555 1_555
H6 C12 1_555 1_555
H7 C12 1_555 1_555
C13 C11 1_555 1_555
H8 C13 1_555 1_555
H9 C13 1_555 1_555
H10 C13 1_555 1_555
C14 H11 1_555 1_555
H12 C14 1_555 1_555
H13 C14 1_555 1_555
C15 N1 1_555 1_555
H14 C15 1_555 1_555
H15 C15 1_555 1_555
H31 O1 1_555 1_555
H32 C3 1_555 1_555
H33 C7 1_555 1_555
H34 C4 1_555 1_555
H35 C9 1_555 1_555
Cl1A C6A 1_555 1_555
O1A C8A 1_555 1_555
C1A C2A 1_555 1_555
C2A C8 1_555 1_555
C3A C6A 1_555 1_555
C4A C2A 1_555 1_555
C5A C8A 1_555 1_555
C6A C1A 1_555 1_555
C7A C3A 1_555 1_555
C8A C2 1_555 1_555
C9A C5A 1_555 1_555
H31A O1A 1_555 1_555
H32A C3A 1_555 1_555
H33A C7A 1_555 1_555
H34A C4A 1_555 1_555
H35A C9A 1_555 1_555
C10 C12 1_555 1_555
C14 C15 1_555 1_555
C1A C8A 1_555 1_555
C4A C7A 1_555 1_555

#END
