
#######################################################################
#
#                 Cambridge Crystallographic Data Centre
#                                CCDC 
#
#######################################################################
#
# If this CIF has been generated from an entry in the Cambridge 
# Structural Database, then it will include bibliographic, chemical, 
# crystal, experimental, refinement or atomic coordinate data resulting 
# from the CCDC's data processing and validation procedures.
#
#######################################################################

data_LERXIR
_chemical_formula_moiety         'C17 H14 O6'
_chemical_name_systematic        
5-(2,5-Dioxotetrahydrofuran-3-yl)-8-methyl-3a,4,5,9b-tetrahydronaphtho[1,2-c]furan-1,3-dione
_symmetry_cell_setting           triclinic
_symmetry_space_group_name_H-M   'P -1'
_symmetry_Int_Tables_number      2
_space_group_name_Hall           '-P 1'
loop_
_symmetry_equiv_pos_site_id
_symmetry_equiv_pos_as_xyz
1 x,y,z
2 -x,-y,-z
_cell_length_a                   6.6907(13)
_cell_length_b                   9.166(2)
_cell_length_c                   11.839(2)
_cell_angle_alpha                78.628(8)
_cell_angle_beta                 78.352(9)
_cell_angle_gamma                79.054(9)
_cell_volume                     688.57
_exptl_crystal_colour            colorless
_exptl_crystal_description       plate
_chemical_melting_point          '512 K'
_cell_formula_units_Z            2
_exptl_crystal_recrystallization_method acetonitrile
loop_
_atom_site_label
_atom_site_type_symbol
_atom_site_fract_x
_atom_site_fract_y
_atom_site_fract_z
O1 O 0.92938(16) 0.39637(11) 0.93311(9)
O2 O 0.66859(17) 0.57336(11) 0.88256(10)
O3 O 1.15083(16) 0.18178(12) 0.96436(10)
O4 O 0.49898(16) -0.15978(12) 0.67925(9)
O5 O 0.27400(16) -0.18783(12) 0.84664(10)
O6 O 0.75828(19) -0.09713(14) 0.53681(10)
C1 C 0.7423(2) 0.44344(15) 0.89396(12)
C2 C 0.6609(2) 0.30800(14) 0.87438(11)
H1 H 0.5548 0.2806 0.9443
C3 C 0.8484(2) 0.18248(15) 0.87829(12)
H2 H 0.8078 0.0875 0.9278
C4 C 0.9938(2) 0.24363(15) 0.93188(13)
C5 C 0.9568(2) 0.15432(16) 0.75541(13)
H3 H 1.0170 0.2446 0.7129
H4 H 1.0712 0.0687 0.7623
C6 C 0.8083(2) 0.11962(15) 0.68574(12)
H5 H 0.8836 0.1187 0.6038
C7 C 0.6239(2) 0.24430(14) 0.68056(11)
C8 C 0.5574(2) 0.33563(14) 0.76735(11)
C9 C 0.7444(2) -0.03861(15) 0.73173(12)
H6 H 0.8682 -0.1090 0.7553
C10 C 0.5642(2) -0.05583(16) 0.83299(12)
H7 H 0.6142 -0.1119 0.9050
H8 H 0.4887 0.0441 0.8484
C11 C 0.6786(2) -0.09717(16) 0.63586(13)
C12 C 0.4273(2) -0.14180(15) 0.79467(12)
C13 C 0.5157(2) 0.26953(16) 0.58755(12)
H9 H 0.5581 0.2077 0.5286
C14 C 0.3478(2) 0.38295(16) 0.57969(13)
H10 H 0.2769 0.3981 0.5154
C15 C 0.2811(2) 0.47547(16) 0.66501(13)
C16 C 0.3867(2) 0.44920(15) 0.75866(13)
H11 H 0.3418 0.5100 0.8182
C17 C 0.1005(3) 0.60085(19) 0.65557(16)
H12 H 0.1385 0.6798 0.5899
H13 H 0.0630 0.6433 0.7282
H14 H -0.0175 0.5611 0.6425
loop_
_geom_bond_atom_site_label_1
_geom_bond_atom_site_label_2
_geom_bond_site_symmetry_1
_geom_bond_site_symmetry_2
O1 C1 1_555 1_555
O2 C1 1_555 1_555
O3 C4 1_555 1_555
O4 C11 1_555 1_555
O5 C12 1_555 1_555
O6 C11 1_555 1_555
C1 C2 1_555 1_555
C2 H1 1_555 1_555
C3 C2 1_555 1_555
H2 C3 1_555 1_555
C4 O1 1_555 1_555
C5 C3 1_555 1_555
H3 C5 1_555 1_555
H4 C5 1_555 1_555
C6 C5 1_555 1_555
H5 C6 1_555 1_555
C7 C6 1_555 1_555
C8 C2 1_555 1_555
C9 C6 1_555 1_555
H6 C9 1_555 1_555
C10 C9 1_555 1_555
H7 C10 1_555 1_555
H8 C10 1_555 1_555
C11 C9 1_555 1_555
C12 O4 1_555 1_555
C13 C7 1_555 1_555
H9 C13 1_555 1_555
C14 C13 1_555 1_555
H10 C14 1_555 1_555
C15 C14 1_555 1_555
C16 C8 1_555 1_555
H11 C16 1_555 1_555
C17 C15 1_555 1_555
H12 C17 1_555 1_555
H13 C17 1_555 1_555
H14 C17 1_555 1_555
C3 C4 1_555 1_555
C7 C8 1_555 1_555
C10 C12 1_555 1_555
C15 C16 1_555 1_555

#END
