
#######################################################################
#
#                 Cambridge Crystallographic Data Centre
#                                CCDC 
#
#######################################################################
#
# If this CIF has been generated from an entry in the Cambridge 
# Structural Database, then it will include bibliographic, chemical, 
# crystal, experimental, refinement or atomic coordinate data resulting 
# from the CCDC's data processing and validation procedures.
#
#######################################################################

data_LERYIS
_chemical_formula_moiety         'C33 H25 F2 N1 O2'
_chemical_name_systematic        
3''-(2-Fluorobenzylidene)-4'-(2-fluorophenyl)-1'-methyldispiro[acenaphthylene-1,2'-pyrrolidine-3',1''-cyclopentane]-2,2''-dione
_symmetry_cell_setting           orthorhombic
_symmetry_space_group_name_H-M   'P c a 21'
_symmetry_Int_Tables_number      29
_space_group_name_Hall           'P 2c -2ac'
loop_
_symmetry_equiv_pos_site_id
_symmetry_equiv_pos_as_xyz
1 x,y,z
2 -x,-y,1/2+z
3 1/2+x,-y,z
4 1/2-x,y,1/2+z
_cell_length_a                   17.728(13)
_cell_length_b                   12.272(9)
_cell_length_c                   12.094(8)
_cell_angle_alpha                90
_cell_angle_beta                 90
_cell_angle_gamma                90
_cell_volume                     2631.15
_exptl_crystal_colour            yellow
_exptl_crystal_description       prismatic
_chemical_melting_point          '93.2-95.0 deg.C'
_cell_formula_units_Z            4
_exptl_crystal_recrystallization_method 'dichloromethane/ethyl acetate'
loop_
_atom_site_label
_atom_site_type_symbol
_atom_site_fract_x
_atom_site_fract_y
_atom_site_fract_z
F1 F 0.1562(3) 0.1946(2) 0.9893(3)
F2 F 0.37848(15) 0.7382(2) 1.1356(2)
O1 O 0.20514(17) 0.54755(19) 1.1294(2)
O2 O 0.08624(18) 0.9035(2) 0.9244(3)
N1 N 0.0970(2) 0.7803(3) 1.1430(3)
C1 C 0.1917(2) 0.5827(3) 1.0368(3)
C2 C 0.1848(2) 0.5181(3) 0.9340(3)
C3 C 0.1787(2) 0.5964(3) 0.8387(3)
H1 H 0.1272 0.6007 0.8120
H2 H 0.2113 0.5745 0.7783
C4 C 0.2041(2) 0.7055(2) 0.8874(3)
H3 H 0.1802 0.7655 0.8486
H4 H 0.2583 0.7135 0.8812
C5 C 0.18001(19) 0.7045(2) 1.0097(3)
C6 C 0.2244(2) 0.7800(3) 1.0916(3)
H5 H 0.2461 0.7324 1.1483
C7 C 0.1640(2) 0.8486(3) 1.1487(3)
H6 H 0.1777 0.8636 1.2249
H7 H 0.1562 0.9170 1.1103
C8 C 0.0945(2) 0.7332(3) 1.0318(3)
C9 C 0.0633(2) 0.8121(3) 0.9403(3)
C10 C 0.0007(2) 0.7571(4) 0.8828(3)
C11 C -0.0125(2) 0.6583(3) 0.9373(3)
C12 C 0.0375(2) 0.6408(3) 1.0259(3)
C13 C 0.0260(3) 0.5518(4) 1.0922(4)
H8 H 0.0563 0.5400 1.1538
C14 C -0.0322(4) 0.4789(5) 1.0659(6)
H9 H -0.0390 0.4182 1.1109
C15 C -0.0788(3) 0.4923(4) 0.9792(6)
H10 H -0.1158 0.4407 0.9646
C16 C -0.0713(3) 0.5851(4) 0.9099(4)
C17 C -0.1165(3) 0.6177(6) 0.8195(6)
H11 H -0.1559 0.5731 0.7967
C18 C -0.1034(3) 0.7133(7) 0.7648(5)
H12 H -0.1339 0.7309 0.7048
C19 C -0.0455(3) 0.7867(4) 0.7954(4)
H13 H -0.0387 0.8523 0.7582
C20 C 0.1819(2) 0.4093(3) 0.9397(3)
H14 H 0.1849 0.3811 1.0109
C21 C 0.1747(2) 0.3280(3) 0.8532(3)
C22 C 0.1803(3) 0.3482(3) 0.7384(3)
H15 H 0.1859 0.4196 0.7140
C23 C 0.1776(3) 0.2659(4) 0.6621(4)
H16 H 0.1820 0.2824 0.5873
C24 C 0.1685(3) 0.1603(4) 0.6939(5)
H17 H 0.1678 0.1048 0.6415
C25 C 0.1604(4) 0.1365(4) 0.8058(5)
H18 H 0.1528 0.0652 0.8294
C26 C 0.1639(3) 0.2197(3) 0.8797(4)
C27 C 0.2887(2) 0.8456(3) 1.0442(3)
C28 C 0.2768(3) 0.9352(3) 0.9739(3)
H19 H 0.2278 0.9556 0.9559
C29 C 0.3368(3) 0.9934(3) 0.9313(4)
H20 H 0.3274 1.0522 0.8849
C30 C 0.4090(3) 0.9666(4) 0.9558(4)
H21 H 0.4485 1.0070 0.9263
C31 C 0.4239(3) 0.8797(4) 1.0239(4)
H22 H 0.4731 0.8598 1.0412
C32 C 0.3623(2) 0.8225(3) 1.0661(3)
C33 C 0.0275(3) 0.8304(4) 1.1823(4)
H23 H 0.0325 0.8479 1.2593
H24 H -0.0136 0.7805 1.1724
H25 H 0.0179 0.8958 1.1410
loop_
_geom_bond_atom_site_label_1
_geom_bond_atom_site_label_2
_geom_bond_site_symmetry_1
_geom_bond_site_symmetry_2
F1 C26 1_555 1_555
F2 C32 1_555 1_555
O1 C1 1_555 1_555
O2 C9 1_555 1_555
N1 C7 1_555 1_555
C1 C2 1_555 1_555
C2 C3 1_555 1_555
C3 H1 1_555 1_555
H2 C3 1_555 1_555
C4 C3 1_555 1_555
H3 C4 1_555 1_555
H4 C4 1_555 1_555
C5 C1 1_555 1_555
C6 C5 1_555 1_555
H5 C6 1_555 1_555
C7 C6 1_555 1_555
H6 C7 1_555 1_555
H7 C7 1_555 1_555
C8 N1 1_555 1_555
C9 C8 1_555 1_555
C10 C9 1_555 1_555
C11 C10 1_555 1_555
C12 C8 1_555 1_555
C13 C12 1_555 1_555
H8 C13 1_555 1_555
C14 C13 1_555 1_555
H9 C14 1_555 1_555
C15 C14 1_555 1_555
H10 C15 1_555 1_555
C16 C11 1_555 1_555
C17 C16 1_555 1_555
H11 C17 1_555 1_555
C18 C17 1_555 1_555
H12 C18 1_555 1_555
C19 C10 1_555 1_555
H13 C19 1_555 1_555
C20 C2 1_555 1_555
H14 C20 1_555 1_555
C21 C20 1_555 1_555
C22 C21 1_555 1_555
H15 C22 1_555 1_555
C23 C22 1_555 1_555
H16 C23 1_555 1_555
C24 C23 1_555 1_555
H17 C24 1_555 1_555
C25 C24 1_555 1_555
H18 C25 1_555 1_555
C26 C21 1_555 1_555
C27 C6 1_555 1_555
C28 C27 1_555 1_555
H19 C28 1_555 1_555
C29 C28 1_555 1_555
H20 C29 1_555 1_555
C30 C29 1_555 1_555
H21 C30 1_555 1_555
C31 C30 1_555 1_555
H22 C31 1_555 1_555
C32 C27 1_555 1_555
C33 N1 1_555 1_555
H23 C33 1_555 1_555
H24 C33 1_555 1_555
H25 C33 1_555 1_555
C4 C5 1_555 1_555
C5 C8 1_555 1_555
C11 C12 1_555 1_555
C15 C16 1_555 1_555
C18 C19 1_555 1_555
C25 C26 1_555 1_555
C31 C32 1_555 1_555

#END
