
#######################################################################
#
#                 Cambridge Crystallographic Data Centre
#                                CCDC 
#
#######################################################################
#
# If this CIF has been generated from an entry in the Cambridge 
# Structural Database, then it will include bibliographic, chemical, 
# crystal, experimental, refinement or atomic coordinate data resulting 
# from the CCDC's data processing and validation procedures.
#
#######################################################################

data_LESBOC
_chemical_formula_moiety         'C12 H11 Br2 N3 O1,C4 H5 N1 O2'
_chemical_name_systematic        
'N-(7-Dibromomethyl-5-methyl-1,8-naphthyridin-2-yl)acetamide pyrrolidine-2,5-dione'
_symmetry_cell_setting           monoclinic
_symmetry_space_group_name_H-M   'P 21/m'
_symmetry_Int_Tables_number      11
_space_group_name_Hall           '-P 2yb'
loop_
_symmetry_equiv_pos_site_id
_symmetry_equiv_pos_as_xyz
1 x,y,z
2 -x,1/2+y,-z
3 -x,-y,-z
4 x,1/2-y,z
_cell_length_a                   11.537(2)
_cell_length_b                   7.0093(14)
_cell_length_c                   11.632(2)
_cell_angle_alpha                90
_cell_angle_beta                 106.57(3)
_cell_angle_gamma                90
_cell_volume                     901.574
_exptl_crystal_colour            colorless
_exptl_crystal_description       block
_cell_formula_units_Z            2
loop_
_atom_site_label
_atom_site_type_symbol
_atom_site_fract_x
_atom_site_fract_y
_atom_site_fract_z
C1 C 0.5310(7) 0.2500 0.7838(6)
C2 C 0.4522(7) 0.2500 0.8575(7)
H1 H 0.3689 0.2500 0.8226
C3 C 0.4977(7) 0.2500 0.9803(6)
C4 C 0.6257(7) 0.2500 1.0284(6)
C5 C 0.6882(7) 0.2500 1.1520(6)
H2 H 0.6446 0.2500 1.2080
C6 C 0.8109(7) 0.2500 1.1903(7)
H3 H 0.8518 0.2500 1.2717
C7 C 0.8749(6) 0.2500 1.1028(6)
C8 C 0.6974(7) 0.2500 0.9487(6)
C9 C 0.4859(8) 0.2500 0.6506(7)
H4 H 0.5554 0.2500 0.6180
C10 C 0.4146(7) 0.2500 1.0597(7)
H5 H 0.3319 0.2500 1.0112
H6 H 0.4298 0.1382 1.1094
C11 C 1.0841(7) 0.2500 1.2427(7)
C12 C 1.2128(7) 0.2500 1.2408(8)
H7 H 1.2652 0.2500 1.3214
H8 H 1.2279 0.1382 1.1997
N1 N 0.6503(6) 0.2500 0.8271(5)
N2 N 0.8206(6) 0.2500 0.9860(5)
N3 N 1.0008(6) 0.2500 1.1320(5)
H9 H 1.0303 0.2500 1.0719
O1 O 1.0553(6) 0.2500 1.3339(5)
Br1 Br 0.38805(7) 0.02689(12) 0.59139(6)
H6C H 0.4298 0.3618 1.1094
H8C H 1.2279 0.3618 1.1997
Br1C Br 0.38805(7) 0.47311(12) 0.59139(6)
C13 C 0.0377(8) 0.2500 0.8080(8)
C14 C 0.0885(8) 0.2500 0.7021(8)
H10 H 0.1368 0.1384 0.7023
C15 C -0.0232(9) 0.2500 0.5948(8)
H11 H -0.0251 0.1387 0.5463
C16 C -0.1280(8) 0.2500 0.6435(8)
N4 N -0.0857(6) 0.2500 0.7663(5)
H12 H -0.1322 0.2500 0.8124
O2 O 0.0955(5) 0.2500 0.9136(5)
O3 O -0.2342(6) 0.2500 0.5882(6)
H10C H 0.1368 0.3616 0.7023
H11C H -0.0251 0.3613 0.5463
loop_
_geom_bond_atom_site_label_1
_geom_bond_atom_site_label_2
_geom_bond_site_symmetry_1
_geom_bond_site_symmetry_2
C1 C2 1_555 1_555
C2 H1 1_555 1_555
C3 C2 1_555 1_555
C4 C3 1_555 1_555
C5 C4 1_555 1_555
H2 C5 1_555 1_555
C6 C5 1_555 1_555
H3 C6 1_555 1_555
C7 C6 1_555 1_555
C8 C4 1_555 1_555
C9 C1 1_555 1_555
H4 C9 1_555 1_555
C10 C3 1_555 1_555
H5 C10 1_555 1_555
H6 C10 1_555 1_555
C11 C12 1_555 1_555
C12 H7 1_555 1_555
H8 C12 1_555 1_555
N1 C1 1_555 1_555
N2 C7 1_555 1_555
N3 C7 1_555 1_555
H9 N3 1_555 1_555
O1 C11 1_555 1_555
Br1 C9 1_555 1_555
C13 C14 1_555 1_555
C14 H10 1_555 1_555
C15 C14 1_555 1_555
H11 C15 1_555 1_555
C16 C15 1_555 1_555
N4 C13 1_555 1_555
H12 N4 1_555 1_555
O2 C13 1_555 1_555
O3 C16 1_555 1_555
H6C C10 1_555 1_555
H8C C12 1_555 1_555
Br1C C9 1_555 1_555
H10C C14 1_555 1_555
H11C C15 1_555 1_555
C8 N1 1_555 1_555
C8 N2 1_555 1_555
C11 N3 1_555 1_555
C16 N4 1_555 1_555

#END
