
#######################################################################
#
#                 Cambridge Crystallographic Data Centre
#                                CCDC 
#
#######################################################################
#
# If this CIF has been generated from an entry in the Cambridge 
# Structural Database, then it will include bibliographic, chemical, 
# crystal, experimental, refinement or atomic coordinate data resulting 
# from the CCDC's data processing and validation procedures.
#
#######################################################################

data_LESCIX
_chemical_formula_moiety         'C6 H9 Cl1 N2 2+,2(H2 O4 P1 1-)'
_chemical_name_systematic        
'2-Chlorobenzene-1,4-diaminium bis(dihydrogen phosphate)'
_symmetry_cell_setting           orthorhombic
_symmetry_space_group_name_H-M   'P 21 21 21'
_symmetry_Int_Tables_number      19
_space_group_name_Hall           'P 2ac 2ab'
loop_
_symmetry_equiv_pos_site_id
_symmetry_equiv_pos_as_xyz
1 x,y,z
2 1/2-x,-y,1/2+z
3 -x,1/2+y,1/2-z
4 1/2+x,1/2-y,-z
_cell_length_a                   7.0084(8)
_cell_length_b                   7.9404(9)
_cell_length_c                   23.064(3)
_cell_angle_alpha                90
_cell_angle_beta                 90
_cell_angle_gamma                90
_cell_volume                     1283.5
_exptl_crystal_colour            colorless
_exptl_crystal_description       block
_cell_formula_units_Z            4
loop_
_atom_site_label
_atom_site_type_symbol
_atom_site_fract_x
_atom_site_fract_y
_atom_site_fract_z
C1 C 1.3321(2) 0.15359(17) 0.76907(6)
C2 C 1.18845(19) 0.20920(16) 0.80593(5)
C3 C 1.0154(2) 0.26208(16) 0.78290(5)
H1 H 0.9161 0.2984 0.8080
C4 C 0.9869(2) 0.26197(17) 0.72312(5)
H2 H 0.8686 0.2977 0.7072
C5 C 1.13375(19) 0.20895(16) 0.68709(5)
C6 C 1.30604(19) 0.15298(17) 0.70924(6)
H3 H 1.4044 0.1149 0.6841
N1 N 1.21619(16) 0.20932(15) 0.86858(4)
H4 H 1.2127 0.1016 0.8820
H5 H 1.1218 0.2704 0.8857
H6 H 1.3314 0.2560 0.8771
N2 N 1.10964(17) 0.21095(15) 0.62440(4)
H7 H 1.2140 0.2587 0.6076
H8 H 1.0040 0.2719 0.6151
H9 H 1.0959 0.1036 0.6112
Cl1 Cl 1.54768(5) 0.08734(5) 0.796787(14)
O1 O 1.22585(15) -0.22787(14) 0.49473(4)
H10 H 1.1180 -0.2666 0.4861
O2 O 1.44777(14) -0.15775(12) 0.57261(4)
O3 O 1.20902(15) -0.39458(12) 0.58809(4)
H11 H 1.2990 -0.4584 0.5783
O4 O 1.09007(14) -0.10621(12) 0.58851(4)
P1 P 1.24379(5) -0.21374(4) 0.562311(13)
O5 O 1.66727(16) 0.25284(15) 0.50298(4)
H12 H 1.7753 0.2093 0.4981
O6 O 1.64342(16) 0.10590(12) 0.60055(5)
H13 H 1.5618 0.0408 0.5861
O7 O 1.78483(14) 0.38754(12) 0.59744(4)
O8 O 1.43146(14) 0.34988(12) 0.57179(4)
P2 P 1.63262(5) 0.28287(4) 0.569303(13)
Cl2? Cl 1.5045(15) 0.0693(15) 0.6861(4)
H14? H 1.4496 0.1155 0.7849
H15? H 1.5907 0.0361 0.5728
O9? O 1.690(5) 0.096(4) 0.5735(15)
loop_
_geom_bond_atom_site_label_1
_geom_bond_atom_site_label_2
_geom_bond_site_symmetry_1
_geom_bond_site_symmetry_2
C1 C2 1_555 1_555
C2 C3 1_555 1_555
C3 H1 1_555 1_555
C4 C3 1_555 1_555
H2 C4 1_555 1_555
C5 C4 1_555 1_555
C6 C1 1_555 1_555
H3 C6 1_555 1_555
N1 C2 1_555 1_555
H4 N1 1_555 1_555
H5 N1 1_555 1_555
H6 N1 1_555 1_555
N2 C5 1_555 1_555
H7 N2 1_555 1_555
H8 N2 1_555 1_555
H9 N2 1_555 1_555
Cl1 C1 1_555 1_555
O1 H10 1_555 1_555
O2 P1 1_555 1_555
O3 H11 1_555 1_555
O4 P1 1_555 1_555
P1 O1 1_555 1_555
O5 H12 1_555 1_555
O6 H13 1_555 1_555
O7 P2 1_555 1_555
O8 P2 1_555 1_555
P2 O5 1_555 1_555
C5 C6 1_555 1_555
O3 P1 1_555 1_555
O6 P2 1_555 1_555

#END
