
#######################################################################
#
#                 Cambridge Crystallographic Data Centre
#                                CCDC 
#
#######################################################################
#
# If this CIF has been generated from an entry in the Cambridge 
# Structural Database, then it will include bibliographic, chemical, 
# crystal, experimental, refinement or atomic coordinate data resulting 
# from the CCDC's data processing and validation procedures.
#
#######################################################################

data_LESDUK
_chemical_formula_moiety         'C18 H15 N5 O2 S1'
_chemical_name_systematic        
3-((4-((2-Methylbenzylidene)amino)-5-thioxo-4,5-dihydro-1H-1,2,4-triazol-3-yl)methyl)-1,3-benzoxazol-2(3H)-one
_symmetry_cell_setting           monoclinic
_symmetry_space_group_name_H-M   'P 21/c'
_symmetry_Int_Tables_number      14
_space_group_name_Hall           '-P 2ybc'
loop_
_symmetry_equiv_pos_site_id
_symmetry_equiv_pos_as_xyz
1 x,y,z
2 -x,1/2+y,1/2-z
3 -x,-y,-z
4 x,1/2-y,1/2+z
_cell_length_a                   18.0823(13)
_cell_length_b                   6.4623(4)
_cell_length_c                   15.1892(11)
_cell_angle_alpha                90
_cell_angle_beta                 100.821(6)
_cell_angle_gamma                90
_cell_volume                     1743.35
_exptl_crystal_colour            colorless
_exptl_crystal_description       prism
_chemical_melting_point          '494-495 K'
_cell_formula_units_Z            4
_exptl_crystal_recrystallization_method acetone/ethanol
loop_
_atom_site_label
_atom_site_type_symbol
_atom_site_fract_x
_atom_site_fract_y
_atom_site_fract_z
S1 S 0.82101(3) 0.21261(9) 0.49178(3)
O1 O 0.57137(8) -0.3003(2) 0.04586(9)
O2 O 0.69462(8) -0.2533(3) 0.04013(11)
N1 N 0.63001(7) -0.0347(2) 0.11876(9)
N2 N 0.76393(7) 0.19558(19) 0.30855(8)
N3 N 0.73011(8) -0.0492(2) 0.38509(9)
N4 N 0.69353(8) -0.0842(2) 0.29879(9)
N5 N 0.78893(7) 0.3744(2) 0.27189(9)
C1 C 0.51976(10) -0.1911(3) 0.08396(12)
C2 C 0.44430(11) -0.2291(3) 0.07683(16)
C3 C 0.40518(11) -0.0913(4) 0.11896(16)
C4 C 0.43962(11) 0.0728(4) 0.16624(15)
C5 C 0.51655(10) 0.1116(3) 0.17325(13)
C6 C 0.55532(9) -0.0251(3) 0.13032(10)
C7 C 0.63901(11) -0.1995(3) 0.06662(12)
C8 C 0.69017(9) 0.1059(3) 0.15606(11)
C9 C 0.71518(8) 0.0672(2) 0.25402(10)
C10 C 0.77295(8) 0.1213(2) 0.39537(10)
C11 C 0.84178(9) 0.4744(3) 0.31801(11)
C12 C 0.87066(8) 0.6636(2) 0.28379(11)
C13 C 0.85106(10) 0.7124(3) 0.19330(12)
C14 C 0.87728(12) 0.8909(3) 0.16082(15)
C15 C 0.92305(12) 1.0222(3) 0.21815(18)
C16 C 0.94356(11) 0.9736(3) 0.30694(17)
C17 C 0.91832(9) 0.7942(3) 0.34227(13)
C18 C 0.94257(14) 0.7470(4) 0.44018(16)
H1 H 0.42100 -0.34200 0.04520
H2 H 0.35370 -0.11010 0.11530
H3 H 0.72590 -0.12990 0.42890
H4 H 0.41110 0.16160 0.19460
H5 H 0.54000 0.22390 0.20530
H6 H 0.67270 0.24760 0.14660
H7 H 0.73230 0.08710 0.12570
H8 H 0.86300 0.42740 0.37500
H9 H 0.82000 0.62380 0.15460
H10 H 0.86410 0.92290 0.10020
H11 H 0.94010 1.14430 0.19640
H12 H 0.97520 1.06280 0.34470
H13 H 0.98610 0.82820 0.46430
H14 H 0.95470 0.60270 0.44770
H15 H 0.90240 0.77980 0.47110
loop_
_geom_bond_atom_site_label_1
_geom_bond_atom_site_label_2
_geom_bond_site_symmetry_1
_geom_bond_site_symmetry_2
S1 C10 1_555 1_555
O1 C1 1_555 1_555
O2 C7 1_555 1_555
N1 C6 1_555 1_555
N2 N5 1_555 1_555
N3 N4 1_555 1_555
N4 C9 1_555 1_555
N5 C11 1_555 1_555
C1 C2 1_555 1_555
C2 C3 1_555 1_555
C3 C4 1_555 1_555
C4 C5 1_555 1_555
C5 C6 1_555 1_555
C6 C1 1_555 1_555
C7 O1 1_555 1_555
C8 N1 1_555 1_555
C9 N2 1_555 1_555
C10 N2 1_555 1_555
C11 C12 1_555 1_555
C12 C13 1_555 1_555
C13 C14 1_555 1_555
C14 C15 1_555 1_555
C15 C16 1_555 1_555
C16 C17 1_555 1_555
C17 C12 1_555 1_555
C18 C17 1_555 1_555
H1 C2 1_555 1_555
H2 C3 1_555 1_555
H3 N3 1_555 1_555
H4 C4 1_555 1_555
H5 C5 1_555 1_555
H6 C8 1_555 1_555
H7 C8 1_555 1_555
H8 C11 1_555 1_555
H9 C13 1_555 1_555
H10 C14 1_555 1_555
H11 C15 1_555 1_555
H12 C16 1_555 1_555
H13 C18 1_555 1_555
H14 C18 1_555 1_555
H15 C18 1_555 1_555
N1 C7 1_555 1_555
N3 C10 1_555 1_555
C8 C9 1_555 1_555

#END
