
#######################################################################
#
#                 Cambridge Crystallographic Data Centre
#                                CCDC 
#
#######################################################################
#
# If this CIF has been generated from an entry in the Cambridge 
# Structural Database, then it will include bibliographic, chemical, 
# crystal, experimental, refinement or atomic coordinate data resulting 
# from the CCDC's data processing and validation procedures.
#
#######################################################################

data_LESFAS
_chemical_formula_moiety         'C7 H4 N2 O2 S2'
_chemical_name_systematic        6-Nitro-1,3-benzothiazole-2(3H)-thione
_symmetry_cell_setting           monoclinic
_symmetry_space_group_name_H-M   'P 21/n'
_symmetry_Int_Tables_number      14
_space_group_name_Hall           '-P 2yn'
loop_
_symmetry_equiv_pos_site_id
_symmetry_equiv_pos_as_xyz
1 x,y,z
2 1/2-x,1/2+y,1/2-z
3 -x,-y,-z
4 1/2+x,1/2-y,1/2+z
_cell_length_a                   3.8645(2)
_cell_length_b                   26.345(2)
_cell_length_c                   7.8961(4)
_cell_angle_alpha                90
_cell_angle_beta                 92.5090(10)
_cell_angle_gamma                90
_cell_volume                     803.133
_exptl_crystal_colour            colorless
_exptl_crystal_description       block
_cell_formula_units_Z            4
loop_
_atom_site_label
_atom_site_type_symbol
_atom_site_fract_x
_atom_site_fract_y
_atom_site_fract_z
N1 N 0.2970(8) 0.05823(12) 0.4296(4)
H1 H 0.2434 0.0278 0.3985
N2 N 0.8798(11) 0.20738(15) 0.0513(6)
O1 O 0.9284(13) 0.24753(15) 0.1198(5)
O2 O 0.9722(12) 0.19831(14) -0.0880(5)
S1 S 0.3759(3) 0.13687(4) 0.60511(13)
S2 S 0.0806(3) 0.04194(4) 0.73917(14)
C1 C 0.2447(10) 0.07491(14) 0.5857(5)
C2 C 0.4399(10) 0.09190(14) 0.3216(5)
C3 C 0.5018(10) 0.13824(14) 0.3978(5)
C4 C 0.6477(10) 0.17709(15) 0.3110(5)
H2 H 0.6936 0.2085 0.3610
C5 C 0.7219(11) 0.16726(15) 0.1476(5)
C6 C 0.6620(11) 0.12160(16) 0.0691(6)
H3 H 0.7212 0.1168 -0.0426
C7 C 0.5160(11) 0.08351(16) 0.1556(5)
H4 H 0.4684 0.0524 0.1041
loop_
_geom_bond_atom_site_label_1
_geom_bond_atom_site_label_2
_geom_bond_site_symmetry_1
_geom_bond_site_symmetry_2
N1 H1 1_555 1_555
N2 O1 1_555 1_555
O2 N2 1_555 1_555
S1 C1 1_555 1_555
S2 C1 1_555 1_555
C1 N1 1_555 1_555
C2 N1 1_555 1_555
C3 S1 1_555 1_555
C4 C3 1_555 1_555
H2 C4 1_555 1_555
C5 N2 1_555 1_555
C6 C5 1_555 1_555
H3 C6 1_555 1_555
C7 C2 1_555 1_555
H4 C7 1_555 1_555
C2 C3 1_555 1_555
C4 C5 1_555 1_555
C6 C7 1_555 1_555

#END
