
#######################################################################
#
#                 Cambridge Crystallographic Data Centre
#                                CCDC 
#
#######################################################################
#
# If this CIF has been generated from an entry in the Cambridge 
# Structural Database, then it will include bibliographic, chemical, 
# crystal, experimental, refinement or atomic coordinate data resulting 
# from the CCDC's data processing and validation procedures.
#
#######################################################################

data_LESHIC
_chemical_formula_moiety         'C35 H48 O4 S1'
_chemical_name_systematic        
"3,3',5,5'-Tetra-t-butyl-2'-hydroxybiphenyl-2-yl 4-methylbenzenesulfonate"
_symmetry_cell_setting           triclinic
_symmetry_space_group_name_H-M   'P -1'
_symmetry_Int_Tables_number      2
_space_group_name_Hall           '-P 1'
loop_
_symmetry_equiv_pos_site_id
_symmetry_equiv_pos_as_xyz
1 x,y,z
2 -x,-y,-z
_cell_length_a                   9.885(2)
_cell_length_b                   12.948(3)
_cell_length_c                   13.600(3)
_cell_angle_alpha                101.761(2)
_cell_angle_beta                 102.539(2)
_cell_angle_gamma                92.004(2)
_cell_volume                     1657.76
_exptl_crystal_colour            colorless
_exptl_crystal_description       block
_cell_formula_units_Z            2
loop_
_atom_site_label
_atom_site_type_symbol
_atom_site_fract_x
_atom_site_fract_y
_atom_site_fract_z
S1 S 0.22545(10) 0.17764(8) 0.44203(7)
O1 O 0.1844(2) 0.07858(17) 0.34604(16)
O2 O 0.5120(2) 0.26901(19) 0.27643(19)
H1 H 0.5103 0.2567 0.3330
O3 O 0.1712(3) 0.1483(3) 0.5218(2)
O4 O 0.3688(3) 0.2077(2) 0.45884(19)
C1 C 0.3461(3) 0.0734(2) 0.2373(2)
C2 C 0.2906(3) 0.0266(2) 0.3045(2)
C3 C 0.3277(3) -0.0710(2) 0.3269(2)
C4 C 0.4364(3) -0.1131(2) 0.2843(2)
H2 H 0.4663 -0.1768 0.2988
C5 C 0.5024(3) -0.0665(2) 0.2222(2)
C6 C 0.4537(3) 0.0270(2) 0.1985(2)
H3 H 0.4942 0.0592 0.1556
C7 C 0.2913(3) 0.1695(2) 0.2016(2)
C8 C 0.3770(3) 0.2606(3) 0.2169(2)
C9 C 0.3317(3) 0.3460(3) 0.1729(2)
C10 C 0.1955(3) 0.3340(3) 0.1159(2)
H4 H 0.1629 0.3895 0.0860
C11 C 0.1041(3) 0.2450(3) 0.1002(2)
C12 C 0.1548(3) 0.1631(3) 0.1449(2)
H5 H 0.0965 0.1026 0.1368
C13 C 0.1268(4) 0.2766(3) 0.4004(2)
C14 C 0.1954(4) 0.3687(3) 0.3934(3)
H6 H 0.2915 0.3746 0.4020
C15 C 0.1179(4) 0.4518(3) 0.3734(3)
H7 H 0.1641 0.5142 0.3696
C16 C -0.0226(4) 0.4467(3) 0.3590(3)
C17 C -0.0889(4) 0.3533(3) 0.3653(3)
H8 H -0.1852 0.3474 0.3553
C18 C -0.0154(4) 0.2684(3) 0.3861(3)
H9 H -0.0618 0.2062 0.3903
C19 C 0.6240(3) -0.1130(3) 0.1791(2)
C20 C 0.6596(4) -0.2182(3) 0.2076(4)
H10 H 0.5811 -0.2694 0.1788
H11 H 0.6826 -0.2090 0.2813
H12 H 0.7376 -0.2427 0.1807
C21 C 0.5913(5) -0.1263(4) 0.0628(3)
H13 H 0.5101 -0.1746 0.0326
H14 H 0.6686 -0.1539 0.0368
H15 H 0.5745 -0.0590 0.0454
C22 C 0.7542(4) -0.0359(3) 0.2265(3)
H16 H 0.7760 -0.0275 0.3002
H17 H 0.7372 0.0315 0.2093
H18 H 0.8310 -0.0635 0.1998
C23 C 0.2605(3) -0.1305(3) 0.3933(2)
C24 C 0.1016(3) -0.1278(3) 0.3695(3)
H19 H 0.0636 -0.1592 0.2979
H20 H 0.0784 -0.0558 0.3840
H21 H 0.0635 -0.1668 0.4115
C25 C 0.3219(4) -0.0820(3) 0.5080(2)
H22 H 0.2796 -0.1190 0.5495
H23 H 0.3041 -0.0087 0.5227
H24 H 0.4204 -0.0879 0.5235
C26 C 0.2909(4) -0.2467(3) 0.3749(3)
H25 H 0.2526 -0.2800 0.3039
H26 H 0.2496 -0.2815 0.4184
H27 H 0.3896 -0.2515 0.3907
C27 C 0.4274(4) 0.4459(3) 0.1849(3)
C28 C 0.3500(5) 0.5268(3) 0.1297(4)
H28 H 0.2729 0.5475 0.1594
H29 H 0.3165 0.4953 0.0577
H30 H 0.4124 0.5879 0.1375
C29 C 0.4797(4) 0.5009(3) 0.2986(3)
H31 H 0.5289 0.4528 0.3357
H32 H 0.4020 0.5224 0.3274
H33 H 0.5410 0.5620 0.3041
C30 C 0.5501(4) 0.4157(3) 0.1359(3)
H34 H 0.6003 0.3654 0.1692
H35 H 0.6109 0.4779 0.1440
H36 H 0.5161 0.3850 0.0638
C31 C -0.0447(3) 0.2368(3) 0.0343(3)
C32 C -0.1409(7) 0.1544(10) 0.0610(11)
H37 H -0.1383 0.0861 0.0181
H38 H -0.2344 0.1750 0.0491
H39 H -0.1094 0.1514 0.1322
C33 C -0.1088(11) 0.3421(8) 0.0594(10)
H40 H -0.0511 0.3979 0.0485
H41 H -0.1158 0.3565 0.1301
H42 H -0.1999 0.3380 0.0153
C34 C -0.0426(8) 0.2085(15) -0.0744(5)
H43 H 0.0150 0.2610 -0.0905
H44 H -0.1355 0.2051 -0.1155
H45 H -0.0060 0.1408 -0.0890
C35 C -0.1038(5) 0.5394(3) 0.3377(3)
H46 H -0.0409 0.5973 0.3369
H47 H -0.1538 0.5608 0.3906
H48 H -0.1684 0.5190 0.2719
C36? C -0.083(2) 0.1294(14) -0.036(2)
C37? C -0.048(3) 0.315(2) -0.045(3)
C38? C -0.139(2) 0.270(4) 0.096(3)
H49? H -0.0401 0.1245 -0.0931
H50? H -0.1822 0.1188 -0.0601
H51? H -0.0512 0.0762 0.0019
H52? H 0.0433 0.3497 -0.0338
H53? H -0.1127 0.3668 -0.0330
H54? H -0.0756 0.2744 -0.1144
H55? H -0.1181 0.3437 0.1272
H56? H -0.1323 0.2296 0.1482
H57? H -0.2321 0.2589 0.0532
loop_
_geom_bond_atom_site_label_1
_geom_bond_atom_site_label_2
_geom_bond_site_symmetry_1
_geom_bond_site_symmetry_2
S1 O1 1_555 1_555
O1 C2 1_555 1_555
O2 H1 1_555 1_555
O3 S1 1_555 1_555
O4 S1 1_555 1_555
C1 C2 1_555 1_555
C2 C3 1_555 1_555
C3 C4 1_555 1_555
C4 H2 1_555 1_555
C5 C4 1_555 1_555
C6 C1 1_555 1_555
H3 C6 1_555 1_555
C7 C1 1_555 1_555
C8 O2 1_555 1_555
C9 C8 1_555 1_555
C10 C9 1_555 1_555
H4 C10 1_555 1_555
C11 C10 1_555 1_555
C12 C7 1_555 1_555
H5 C12 1_555 1_555
C13 S1 1_555 1_555
C14 C13 1_555 1_555
H6 C14 1_555 1_555
C15 C14 1_555 1_555
H7 C15 1_555 1_555
C16 C15 1_555 1_555
C17 C16 1_555 1_555
H8 C17 1_555 1_555
C18 C13 1_555 1_555
H9 C18 1_555 1_555
C19 C5 1_555 1_555
C20 C19 1_555 1_555
H10 C20 1_555 1_555
H11 C20 1_555 1_555
H12 C20 1_555 1_555
C21 C19 1_555 1_555
H13 C21 1_555 1_555
H14 C21 1_555 1_555
H15 C21 1_555 1_555
C22 C19 1_555 1_555
H16 C22 1_555 1_555
H17 C22 1_555 1_555
H18 C22 1_555 1_555
C23 C3 1_555 1_555
C24 C23 1_555 1_555
H19 C24 1_555 1_555
H20 C24 1_555 1_555
H21 C24 1_555 1_555
C25 C23 1_555 1_555
H22 C25 1_555 1_555
H23 C25 1_555 1_555
H24 C25 1_555 1_555
C26 C23 1_555 1_555
H25 C26 1_555 1_555
H26 C26 1_555 1_555
H27 C26 1_555 1_555
C27 C9 1_555 1_555
C28 C27 1_555 1_555
H28 C28 1_555 1_555
H29 C28 1_555 1_555
H30 C28 1_555 1_555
C29 C27 1_555 1_555
H31 C29 1_555 1_555
H32 C29 1_555 1_555
H33 C29 1_555 1_555
C30 C27 1_555 1_555
H34 C30 1_555 1_555
H35 C30 1_555 1_555
H36 C30 1_555 1_555
C31 C11 1_555 1_555
C32 C31 1_555 1_555
H37 C32 1_555 1_555
H38 C32 1_555 1_555
H39 C32 1_555 1_555
C33 C31 1_555 1_555
H40 C33 1_555 1_555
H41 C33 1_555 1_555
H42 C33 1_555 1_555
C34 C31 1_555 1_555
H43 C34 1_555 1_555
H44 C34 1_555 1_555
H45 C34 1_555 1_555
C35 C16 1_555 1_555
H46 C35 1_555 1_555
H47 C35 1_555 1_555
H48 C35 1_555 1_555
C5 C6 1_555 1_555
C7 C8 1_555 1_555
C11 C12 1_555 1_555
C17 C18 1_555 1_555

#END
