
#######################################################################
#
#                 Cambridge Crystallographic Data Centre
#                                CCDC 
#
#######################################################################
#
# If this CIF has been generated from an entry in the Cambridge 
# Structural Database, then it will include bibliographic, chemical, 
# crystal, experimental, refinement or atomic coordinate data resulting 
# from the CCDC's data processing and validation procedures.
#
#######################################################################

data_LESHOJ
_chemical_formula_moiety         'C22 H19 Cl1 N6 O3'
_chemical_name_systematic        
4-({[5-chloro-3-methyl-1-(4-nitrophenyl)-1H-pyrazol-4-yl]methylidene}amino)-1,5-dimethyl-2-phenyl-1,2-dihydro-3H-pyrazol-3-one
_symmetry_cell_setting           monoclinic
_symmetry_space_group_name_H-M   'P 21/n'
_symmetry_Int_Tables_number      14
_space_group_name_Hall           '-P 2yn'
loop_
_symmetry_equiv_pos_site_id
_symmetry_equiv_pos_as_xyz
1 x,y,z
2 1/2-x,1/2+y,1/2-z
3 -x,-y,-z
4 1/2+x,1/2-y,1/2+z
_cell_length_a                   6.3305(15)
_cell_length_b                   13.570(3)
_cell_length_c                   24.016(6)
_cell_angle_alpha                90
_cell_angle_beta                 91.416(3)
_cell_angle_gamma                90
_cell_volume                     2062.46
_exptl_crystal_colour            yellow
_exptl_crystal_description       block
_cell_formula_units_Z            4
loop_
_atom_site_label
_atom_site_type_symbol
_atom_site_fract_x
_atom_site_fract_y
_atom_site_fract_z
Cl1 Cl 0.44540(10) 0.22948(4) 0.31893(2)
O1 O 1.0837(3) 0.34919(12) 0.23038(7)
O2 O -0.5021(3) 0.11113(14) 0.45945(8)
O3 O -0.5182(3) 0.22794(15) 0.52050(9)
N1 N 0.3161(3) 0.35426(14) 0.40125(8)
N2 N 0.3765(3) 0.44259(14) 0.42645(9)
N3 N 0.9094(3) 0.48476(14) 0.32528(8)
N4 N 1.3557(3) 0.56798(13) 0.25205(8)
N5 N 1.3368(3) 0.47318(13) 0.22860(8)
N6 N -0.4319(3) 0.18626(16) 0.48194(9)
C1 C 0.4571(4) 0.33171(16) 0.36079(9)
C2 C 0.5485(4) 0.47129(17) 0.40155(10)
C3 C 0.6092(4) 0.40336(16) 0.35942(9)
C4 C 0.7911(4) 0.40712(17) 0.32411(9)
H1 H 0.823098 0.353334 0.300445
C5 C 1.0829(4) 0.49329(16) 0.29154(9)
C6 C 1.1568(4) 0.42820(16) 0.24899(9)
C7 C 1.2103(4) 0.57588(16) 0.29217(10)
C8 C 1.1985(4) 0.66288(17) 0.33025(11)
H2 H 1.058848 0.665155 0.346906
H3 H 1.221549 0.723438 0.309009
H4 H 1.307492 0.657023 0.359760
C9 C 1.5541(4) 0.62213(17) 0.24847(11)
H5 H 1.531826 0.690801 0.259520
H6 H 1.603024 0.620018 0.210096
H7 H 1.660529 0.591942 0.273392
C10 C 1.4197(4) 0.45242(16) 0.17452(9)
C11 C 1.2954(4) 0.47089(17) 0.12700(10)
H8 H 1.159235 0.499567 0.130038
C12 C 1.3730(4) 0.44681(18) 0.07496(10)
H9 H 1.289569 0.459427 0.042319
C13 C 1.5711(4) 0.40459(18) 0.07051(11)
H10 H 1.622838 0.387824 0.034937
C14 C 1.6947(4) 0.38673(18) 0.11847(11)
H11 H 1.830790 0.358013 0.115500
C15 C 1.6187(4) 0.41091(18) 0.17040(10)
H12 H 1.702808 0.399051 0.203029
C16 C 0.6596(4) 0.56331(19) 0.42033(11)
H13 H 0.809328 0.548898 0.427777
H14 H 0.595582 0.587770 0.454410
H15 H 0.646549 0.613510 0.391114
C17 C 0.1302(4) 0.30895(17) 0.42094(9)
C18 C 0.0173(4) 0.35785(19) 0.46177(10)
H16 H 0.066461 0.419573 0.475524
C19 C -0.1647(4) 0.3176(2) 0.48234(10)
H17 H -0.240400 0.350657 0.510453
C20 C -0.2356(4) 0.22804(18) 0.46133(10)
C21 C -0.1264(4) 0.17814(18) 0.42137(11)
H18 H -0.177147 0.116621 0.407720
C22 C 0.0577(4) 0.21784(18) 0.40112(12)
H19 H 0.134725 0.183304 0.373833
loop_
_geom_bond_atom_site_label_1
_geom_bond_atom_site_label_2
_geom_bond_site_symmetry_1
_geom_bond_site_symmetry_2
Cl1 C1 1_555 1_555
O1 C6 1_555 1_555
O2 N6 1_555 1_555
O3 N6 1_555 1_555
N1 N2 1_555 1_555
N2 C2 1_555 1_555
N3 C4 1_555 1_555
N4 N5 1_555 1_555
N5 C6 1_555 1_555
N6 C20 1_555 1_555
C1 N1 1_555 1_555
C2 C3 1_555 1_555
C3 C1 1_555 1_555
C4 C3 1_555 1_555
H1 C4 1_555 1_555
C5 N3 1_555 1_555
C6 C5 1_555 1_555
C7 N4 1_555 1_555
C8 C7 1_555 1_555
H2 C8 1_555 1_555
H3 C8 1_555 1_555
H4 C8 1_555 1_555
C9 N4 1_555 1_555
H5 C9 1_555 1_555
H6 C9 1_555 1_555
H7 C9 1_555 1_555
C10 N5 1_555 1_555
C11 C10 1_555 1_555
H8 C11 1_555 1_555
C12 C11 1_555 1_555
H9 C12 1_555 1_555
C13 C12 1_555 1_555
H10 C13 1_555 1_555
C14 C13 1_555 1_555
H11 C14 1_555 1_555
C15 C10 1_555 1_555
H12 C15 1_555 1_555
C16 C2 1_555 1_555
H13 C16 1_555 1_555
H14 C16 1_555 1_555
H15 C16 1_555 1_555
C17 N1 1_555 1_555
C18 C17 1_555 1_555
H16 C18 1_555 1_555
C19 C18 1_555 1_555
H17 C19 1_555 1_555
C20 C19 1_555 1_555
C21 C20 1_555 1_555
H18 C21 1_555 1_555
C22 C17 1_555 1_555
H19 C22 1_555 1_555
C5 C7 1_555 1_555
C14 C15 1_555 1_555
C21 C22 1_555 1_555

#END
