
#######################################################################
#
#                 Cambridge Crystallographic Data Centre
#                                CCDC 
#
#######################################################################
#
# If this CIF has been generated from an entry in the Cambridge 
# Structural Database, then it will include bibliographic, chemical, 
# crystal, experimental, refinement or atomic coordinate data resulting 
# from the CCDC's data processing and validation procedures.
#
#######################################################################

data_LESHUP
_chemical_formula_moiety         'C21 H17 N3 O3'
_chemical_name_systematic        
3,3-dimethyl-12-nitro-2,3-dihydro-1H-benzo[a]pyrano[2,3-c]phenazine
_symmetry_cell_setting           monoclinic
_symmetry_space_group_name_H-M   'P 21/c'
_symmetry_Int_Tables_number      14
_space_group_name_Hall           '-P 2ybc'
loop_
_symmetry_equiv_pos_site_id
_symmetry_equiv_pos_as_xyz
1 x,y,z
2 -x,1/2+y,1/2-z
3 -x,-y,-z
4 x,1/2-y,1/2+z
_cell_length_a                   9.9041(16)
_cell_length_b                   25.107(4)
_cell_length_c                   6.7920(11)
_cell_angle_alpha                90
_cell_angle_beta                 91.527(2)
_cell_angle_gamma                90
_cell_volume                     1688.31
_exptl_crystal_colour            orange
_exptl_crystal_description       plate
_cell_formula_units_Z            4
loop_
_atom_site_label
_atom_site_type_symbol
_atom_site_fract_x
_atom_site_fract_y
_atom_site_fract_z
O1 O -0.0308(3) 0.71465(11) 0.8434(4)
O2 O 0.1149(3) 0.77950(10) 0.8065(4)
O3 O 0.4075(2) 0.37079(8) 0.7552(3)
N1 N 0.2365(3) 0.54874(11) 0.7871(3)
N2 N 0.5056(3) 0.58642(10) 0.7540(3)
N3 N 0.0849(4) 0.73129(13) 0.8177(4)
C1 C 0.1942(4) 0.69276(14) 0.7990(4)
C2 C 0.1613(4) 0.63906(14) 0.8014(4)
H1 H 0.070355 0.627749 0.813409
C3 C 0.2673(4) 0.60164(13) 0.7854(4)
C4 C 0.3406(3) 0.51512(13) 0.7724(4)
C5 C 0.4770(4) 0.53492(12) 0.7555(4)
C6 C 0.4009(4) 0.62039(13) 0.7682(4)
C7 C 0.4267(4) 0.67548(14) 0.7648(5)
H2 H 0.516974 0.687542 0.751696
C8 C 0.3257(4) 0.71198(15) 0.7798(5)
H3 H 0.343882 0.749124 0.777242
C9 C 0.5872(3) 0.49724(13) 0.7398(4)
C10 C 0.5582(3) 0.44229(13) 0.7380(4)
C11 C 0.4206(4) 0.42445(12) 0.7554(4)
C12 C 0.2718(3) 0.34741(13) 0.7498(4)
C13 C 0.1802(4) 0.38093(13) 0.8754(4)
H4 H 0.214051 0.380144 1.013866
H5 H 0.088140 0.365564 0.871079
C14 C 0.1741(3) 0.43851(13) 0.8038(4)
H6 H 0.121207 0.440507 0.678319
H7 H 0.128703 0.460899 0.902155
C15 C 0.3138(3) 0.45871(13) 0.7741(4)
C16 C 0.2222(4) 0.34409(14) 0.5375(4)
H8 H 0.132943 0.327209 0.531445
H9 H 0.285657 0.322870 0.461845
H10 H 0.215821 0.380028 0.481753
C17 C 0.2929(4) 0.29202(14) 0.8356(5)
H11 H 0.207848 0.272098 0.826371
H12 H 0.322380 0.294956 0.974018
H13 H 0.362000 0.273297 0.761614
C18 C 0.6664(4) 0.40576(14) 0.7207(4)
H14 H 0.648747 0.368571 0.719260
C19 C 0.7963(4) 0.42380(15) 0.7062(4)
H15 H 0.868015 0.398991 0.694311
C20 C 0.8242(4) 0.47828(14) 0.7085(4)
H16 H 0.914582 0.490493 0.698960
C21 C 0.7206(4) 0.51411(14) 0.7248(4)
H17 H 0.740134 0.551154 0.725825
loop_
_geom_bond_atom_site_label_1
_geom_bond_atom_site_label_2
_geom_bond_site_symmetry_1
_geom_bond_site_symmetry_2
O1 N3 1_555 1_555
O2 N3 1_555 1_555
O3 C11 1_555 1_555
N1 C3 1_555 1_555
N2 C5 1_555 1_555
N3 C1 1_555 1_555
C1 C2 1_555 1_555
C2 H1 1_555 1_555
C3 C2 1_555 1_555
C4 N1 1_555 1_555
C5 C4 1_555 1_555
C6 N2 1_555 1_555
C7 C6 1_555 1_555
H2 C7 1_555 1_555
C8 C1 1_555 1_555
H3 C8 1_555 1_555
C9 C5 1_555 1_555
C10 C9 1_555 1_555
C11 C10 1_555 1_555
C12 O3 1_555 1_555
C13 C12 1_555 1_555
H4 C13 1_555 1_555
H5 C13 1_555 1_555
C14 C13 1_555 1_555
H6 C14 1_555 1_555
H7 C14 1_555 1_555
C15 C4 1_555 1_555
C16 C12 1_555 1_555
H8 C16 1_555 1_555
H9 C16 1_555 1_555
H10 C16 1_555 1_555
C17 C12 1_555 1_555
H11 C17 1_555 1_555
H12 C17 1_555 1_555
H13 C17 1_555 1_555
C18 C10 1_555 1_555
H14 C18 1_555 1_555
C19 C18 1_555 1_555
H15 C19 1_555 1_555
C20 C19 1_555 1_555
H16 C20 1_555 1_555
C21 C9 1_555 1_555
H17 C21 1_555 1_555
C3 C6 1_555 1_555
C7 C8 1_555 1_555
C11 C15 1_555 1_555
C14 C15 1_555 1_555
C20 C21 1_555 1_555

#END
