
#######################################################################
#
#                 Cambridge Crystallographic Data Centre
#                                CCDC 
#
#######################################################################
#
# If this CIF has been generated from an entry in the Cambridge 
# Structural Database, then it will include bibliographic, chemical, 
# crystal, experimental, refinement or atomic coordinate data resulting 
# from the CCDC's data processing and validation procedures.
#
#######################################################################

data_LESJOL
_chemical_formula_moiety         'C50 H44 F4 Mg1 N4 O2 P2,C2 H3 N1'
_chemical_name_systematic        
'bis(acetonitrile)-bis(N-[3-(diphenylphosphino)-4-oxopent-2-en-2-yl]-2,6-difluorobenzen-1-amido)-magnesium acetonitrile solvate'
_symmetry_cell_setting           monoclinic
_symmetry_space_group_name_H-M   'P 21/n'
_symmetry_Int_Tables_number      14
_space_group_name_Hall           '-P 2yn'
loop_
_symmetry_equiv_pos_site_id
_symmetry_equiv_pos_as_xyz
1 x,y,z
2 1/2-x,1/2+y,1/2-z
3 -x,-y,-z
4 1/2+x,1/2-y,1/2+z
_cell_length_a                   11.1185(4)
_cell_length_b                   14.5501(5)
_cell_length_c                   16.1000(7)
_cell_angle_alpha                90
_cell_angle_beta                 102.767(4)
_cell_angle_gamma                90
_cell_volume                     2540.19
_exptl_crystal_colour            colorless
_exptl_crystal_description       block
_cell_formula_units_Z            2
loop_
_atom_site_label
_atom_site_type_symbol
_atom_site_fract_x
_atom_site_fract_y
_atom_site_fract_z
P1 P 0.68104(4) 0.71258(3) 0.30158(3)
Mg1 Mg 0.5000 0.5000 0.5000
O1 O 0.66645(9) 0.53187(7) 0.48484(7)
N1 N 0.45666(11) 0.63913(8) 0.45687(8)
C1 C 0.69727(13) 0.58207(10) 0.42800(10)
C2 C 0.63179(13) 0.66019(10) 0.39120(10)
F1 F 0.45086(11) 0.74500(8) 0.60267(7)
C3 C 0.52179(13) 0.69303(10) 0.41816(10)
F2 F 0.23004(10) 0.61342(9) 0.34830(8)
C4 C 0.75692(14) 0.82220(12) 0.33793(11)
C5 C 0.48318(16) 0.79195(11) 0.40267(12)
H1 H 0.4010 0.7946 0.3664
H2 H 0.5406 0.8233 0.3750
H3 H 0.4831 0.8216 0.4566
C6 C 0.34614(14) 0.67645(11) 0.47518(11)
N2 N 0.44632(14) 0.45103(11) 0.36388(10)
C7 C 0.79943(16) 0.87831(13) 0.27914(13)
H4 H 0.7878 0.8594 0.2221
C8 C 0.81907(15) 0.55401(13) 0.40753(12)
H5 H 0.8863 0.5841 0.4468
H6 H 0.8199 0.5721 0.3497
H7 H 0.8288 0.4879 0.4131
C9 C 0.53450(15) 0.74786(11) 0.23055(10)
C10 C 0.44203(16) 0.68175(13) 0.20946(12)
H8 H 0.4561 0.6222 0.2321
C11 C 0.34182(17) 0.72523(12) 0.54800(13)
C12 C 0.23263(16) 0.66057(13) 0.42160(13)
C13 C 0.39675(19) 0.85492(14) 0.14071(12)
H9 H 0.3818 0.9142 0.1175
C14 C 0.78266(16) 0.85016(14) 0.42246(12)
H10 H 0.7591 0.8127 0.4637
C15 C 0.40786(17) 0.41612(15) 0.30113(13)
C16 C 0.50954(17) 0.83507(13) 0.19392(11)
H11 H 0.5705 0.8809 0.2057
C17 C 0.30651(19) 0.78921(15) 0.12144(12)
H12 H 0.2300 0.8032 0.0854
C18 C 0.87874(18) 0.98844(15) 0.38739(16)
H13 H 0.9173 1.0451 0.4039
C19 C 0.85797(17) 0.96081(13) 0.30425(15)
H14 H 0.8837 0.9982 0.2638
C20 C 0.2345(2) 0.75735(15) 0.56758(15)
H15 H 0.2367 0.7907 0.6179
C21 C 0.84267(19) 0.93268(16) 0.44697(15)
H16 H 0.8589 0.9507 0.5044
C22 C 0.32925(18) 0.70239(15) 0.15544(13)
H17 H 0.2682 0.6568 0.1421
C23 C 0.1243(2) 0.73926(16) 0.51163(18)
H18 H 0.0500 0.7599 0.5240
C24 C 0.12199(18) 0.69114(16) 0.43781(17)
H19 H 0.0470 0.6792 0.3991
C25 C 0.3595(3) 0.3681(2) 0.22111(17)
H20 H 0.3295 0.3080 0.2330
H21 H 0.4246 0.3610 0.1902
H22 H 0.2924 0.4034 0.1870
P1B P 0.31896(4) 0.28742(3) 0.69842(3)
O1B O 0.33355(9) 0.46813(7) 0.51516(7)
N1B N 0.54334(11) 0.36087(8) 0.54313(8)
C1B C 0.30273(13) 0.41793(10) 0.57200(10)
C2B C 0.36821(13) 0.33981(10) 0.60880(10)
F1B F 0.54914(11) 0.25500(8) 0.39733(7)
C3B C 0.47821(13) 0.30697(10) 0.58184(10)
F2B F 0.76996(10) 0.38658(9) 0.65170(8)
C4B C 0.24308(14) 0.17780(12) 0.66207(11)
C5B C 0.51682(16) 0.20805(11) 0.59733(12)
H1B H 0.5990 0.2054 0.6336
H2B H 0.4594 0.1767 0.6250
H3B H 0.5169 0.1784 0.5434
C6B C 0.65386(14) 0.32355(11) 0.52482(11)
N2B N 0.55368(14) 0.54897(11) 0.63612(10)
C7B C 0.20057(16) 0.12169(13) 0.72086(13)
H4B H 0.2122 0.1406 0.7779
C8B C 0.18093(15) 0.44599(13) 0.59247(12)
H5B H 0.1137 0.4159 0.5532
H6B H 0.1801 0.4279 0.6503
H7B H 0.1712 0.5121 0.5869
C9B C 0.46550(15) 0.25214(11) 0.76945(10)
C10B C 0.55797(16) 0.31825(13) 0.79054(12)
H8B H 0.5439 0.3778 0.7679
C11B C 0.65818(17) 0.27477(12) 0.45200(13)
C12B C 0.76737(16) 0.33943(13) 0.57840(13)
C13B C 0.60325(19) 0.14508(14) 0.85929(12)
H9B H 0.6182 0.0858 0.8825
C14B C 0.21734(16) 0.14984(14) 0.57754(12)
H10B H 0.2409 0.1873 0.5363
C15B C 0.59214(17) 0.58388(15) 0.69887(13)
C16B C 0.49046(17) 0.16493(13) 0.80608(11)
H11B H 0.4295 0.1191 0.7943
C17B C 0.69349(19) 0.21079(15) 0.87856(12)
H12B H 0.7700 0.1968 0.9146
C18B C 0.12126(18) 0.01156(15) 0.61261(16)
H13B H 0.0827 -0.0451 0.5961
C19B C 0.14203(17) 0.03919(13) 0.69575(15)
H14B H 0.1163 0.0018 0.7362
C20B C 0.7655(2) 0.24265(15) 0.43242(15)
H15B H 0.7633 0.2093 0.3821
C21B C 0.15733(19) 0.06732(16) 0.55303(15)
H16B H 0.1411 0.0493 0.4956
C22B C 0.67075(18) 0.29761(15) 0.84456(13)
H17B H 0.7318 0.3432 0.8579
C23B C 0.8757(2) 0.26074(16) 0.48837(18)
H18B H 0.9500 0.2401 0.4760
C24B C 0.87801(18) 0.30886(16) 0.56219(17)
H19B H 0.9530 0.3208 0.6009
C25B C 0.6405(3) 0.6319(2) 0.77889(17)
H20B H 0.6705 0.6920 0.7670
H21B H 0.5754 0.6390 0.8098
H22B H 0.7076 0.5966 0.8130
loop_
_geom_bond_atom_site_label_1
_geom_bond_atom_site_label_2
_geom_bond_site_symmetry_1
_geom_bond_site_symmetry_2
P1 C2 1_555 1_555
Mg1 O1 1_555 1_555
O1 C1 1_555 1_555
N1 Mg1 1_555 1_555
C1 C2 1_555 1_555
C2 C3 1_555 1_555
F1 C11 1_555 1_555
C3 N1 1_555 1_555
F2 C12 1_555 1_555
C4 P1 1_555 1_555
C5 C3 1_555 1_555
H1 C5 1_555 1_555
H2 C5 1_555 1_555
H3 C5 1_555 1_555
C6 N1 1_555 1_555
N2 Mg1 1_555 1_555
C7 C4 1_555 1_555
H4 C7 1_555 1_555
C8 C1 1_555 1_555
H5 C8 1_555 1_555
H6 C8 1_555 1_555
H7 C8 1_555 1_555
C9 P1 1_555 1_555
C10 C9 1_555 1_555
H8 C10 1_555 1_555
C11 C6 1_555 1_555
C12 C6 1_555 1_555
C13 H9 1_555 1_555
C14 C4 1_555 1_555
H10 C14 1_555 1_555
C15 N2 1_555 1_555
C16 C9 1_555 1_555
H11 C16 1_555 1_555
C17 C13 1_555 1_555
H12 C17 1_555 1_555
C18 H13 1_555 1_555
C19 C7 1_555 1_555
H14 C19 1_555 1_555
C20 C11 1_555 1_555
H15 C20 1_555 1_555
C21 C14 1_555 1_555
H16 C21 1_555 1_555
C22 C10 1_555 1_555
H17 C22 1_555 1_555
C23 C20 1_555 1_555
H18 C23 1_555 1_555
C24 C12 1_555 1_555
H19 C24 1_555 1_555
C25 C15 1_555 1_555
H20 C25 1_555 1_555
H21 C25 1_555 1_555
H22 C25 1_555 1_555
P1B C2B 1_555 1_555
O1B Mg1 1_555 1_555
N1B Mg1 1_555 1_555
C1B O1B 1_555 1_555
C2B C1B 1_555 1_555
F1B C11B 1_555 1_555
C3B N1B 1_555 1_555
F2B C12B 1_555 1_555
C4B P1B 1_555 1_555
C5B C3B 1_555 1_555
H1B C5B 1_555 1_555
H2B C5B 1_555 1_555
H3B C5B 1_555 1_555
C6B N1B 1_555 1_555
N2B Mg1 1_555 1_555
C7B C4B 1_555 1_555
H4B C7B 1_555 1_555
C8B C1B 1_555 1_555
H5B C8B 1_555 1_555
H6B C8B 1_555 1_555
H7B C8B 1_555 1_555
C9B P1B 1_555 1_555
C10B C9B 1_555 1_555
H8B C10B 1_555 1_555
C11B C6B 1_555 1_555
C12B C6B 1_555 1_555
C13B H9B 1_555 1_555
C14B C4B 1_555 1_555
H10B C14B 1_555 1_555
C15B N2B 1_555 1_555
C16B C9B 1_555 1_555
H11B C16B 1_555 1_555
C17B C13B 1_555 1_555
H12B C17B 1_555 1_555
C18B H13B 1_555 1_555
C19B C7B 1_555 1_555
H14B C19B 1_555 1_555
C20B C11B 1_555 1_555
H15B C20B 1_555 1_555
C21B C14B 1_555 1_555
H16B C21B 1_555 1_555
C22B C10B 1_555 1_555
H17B C22B 1_555 1_555
C23B C20B 1_555 1_555
H18B C23B 1_555 1_555
C24B C12B 1_555 1_555
H19B C24B 1_555 1_555
C25B C15B 1_555 1_555
H20B C25B 1_555 1_555
H21B C25B 1_555 1_555
H22B C25B 1_555 1_555
C13 C16 1_555 1_555
C17 C22 1_555 1_555
C18 C19 1_555 1_555
C18 C21 1_555 1_555
C23 C24 1_555 1_555
C2B C3B 1_555 1_555
C13B C16B 1_555 1_555
C17B C22B 1_555 1_555
C18B C19B 1_555 1_555
C18B C21B 1_555 1_555
C23B C24B 1_555 1_555

#END
