
#######################################################################
#
#                 Cambridge Crystallographic Data Centre
#                                CCDC 
#
#######################################################################
#
# If this CIF has been generated from an entry in the Cambridge 
# Structural Database, then it will include bibliographic, chemical, 
# crystal, experimental, refinement or atomic coordinate data resulting 
# from the CCDC's data processing and validation procedures.
#
#######################################################################

data_LESKUP
_chemical_compound_source        Teucrium
_chemical_formula_moiety         'C20 H28 O7'
_chemical_name_systematic        'Montanin E'
_chemical_properties_biological  'possible antifeedant activity'
_symmetry_cell_setting           orthorhombic
_symmetry_space_group_name_H-M   'P 21 21 21'
_symmetry_Int_Tables_number      19
_space_group_name_Hall           'P 2ac 2ab'
loop_
_symmetry_equiv_pos_site_id
_symmetry_equiv_pos_as_xyz
1 x,y,z
2 1/2+x,1/2-y,-z
3 -x,1/2+y,1/2-z
4 1/2-x,-y,1/2+z
_cell_length_a                   37.445(56)
_cell_length_b                   7.563(1)
_cell_length_c                   6.5840(4)
_cell_angle_alpha                90
_cell_angle_beta                 90
_cell_angle_gamma                90
_cell_volume                     1864.57
_cell_formula_units_Z            4
loop_
_atom_site_label
_atom_site_type_symbol
_atom_site_fract_x
_atom_site_fract_y
_atom_site_fract_z
O1 O 0.1981(1) 0.6636(8) 0.1207(8)
O2 O 0.2633(1) 0.8292(9) 0.1834(9)
O3 O 0.2144(1) 0.8274(9) 0.7589(9)
O4 O 0.0611(2) 0.7309(10) 0.6446(11)
O5 O -0.0397(3) 0.5092(17) 0.5089(20)
O6 O 0.1989(2) 0.3963(7) 0.3824(11)
O7 O 0.1063(2) 0.7048(10) 0.8531(10)
C1 C 0.1269(2) 0.8738(11) 0.3361(13)
C2 C 0.1523(2) 0.9678(2) 0.1902(4)
C3 C 0.1914(2) 0.9545(10) 0.2498(14)
C4 C 0.2030(2) 0.7670(10) 0.3045(11)
C5 C 0.1788(2) 0.6920(9) 0.4786(11)
C6 C 0.1907(2) 0.5079(10) 0.5529(12)
C7 C 0.1631(2) 0.4189(12) 0.6865(16)
C8 C 0.1270(2) 0.3968(11) 0.5817(15)
C9 C 0.1112(2) 0.5762(11) 0.5110(12)
C10 C 0.1397(2) 0.6863(10) 0.3911(12)
C11 C 0.0781(2) 0.5462(13) 0.3728(15)
C12 C 0.0509(2) 0.6856(14) 0.4371(15)
C13 C 0.0127(2) 0.6296(12) 0.4418(16)
C14 C -0.0112(2) 0.6753(18) 0.3035(25)
C15 C -0.0438(1) 0.6038(7) 0.3398(11)
C16 C -0.0055(3) 0.5129(16) 0.5786(18)
C17 C 0.1019(3) 0.2899(16) 0.7201(21)
C18 C 0.2430(2) 0.7630(11) 0.3506(12)
C19 C 0.1800(2) 0.8132(11) 0.6681(12)
C20 C 0.0944(2) 0.6746(12) 0.6875(14)
H1 H 0.203(3) 0.547(17) 0.173(19)
H2 H 0.270(2) 0.934(14) 0.207(14)
H3 H 0.213(2) 0.759(12) 0.861(15)
H4 H 0.213(2) 0.313(14) 0.428(15)
H5 H 0.124(2) 0.951(12) 0.477(15)
H6 H 0.102(2) 0.864(10) 0.274(12)
H7 H 0.146(2) 1.083(14) 0.186(15)
H8 H 0.149(2) 0.922(11) 0.072(15)
H9 H 0.206(2) 1.002(11) 0.131(14)
H10 H 0.197(2) 1.032(11) 0.365(15)
H11 H 0.214(2) 0.526(10) 0.631(13)
H12 H 0.171(2) 0.301(14) 0.721(15)
H13 H 0.156(3) 0.484(14) 0.821(17)
H14 H 0.131(3) 0.321(16) 0.460(19)
H15 H 0.140(2) 0.622(11) 0.277(14)
H16 H 0.084(2) 0.564(11) 0.236(14)
H17 H 0.070(2) 0.427(13) 0.409(14)
H18 H 0.053(2) 0.804(14) 0.357(15)
H19 H -0.009(4) 0.765(24) 0.155(29)
H20 H -0.044(4) 0.651(22) 0.166(25)
H21 H 0.006(4) 0.471(20) 0.680(25)
H22 H 0.096(3) 0.350(16) 0.865(20)
H23 H 0.113(3) 0.185(17) 0.748(18)
H24 H 0.081(3) 0.270(14) 0.659(16)
H25 H 0.251(2) 0.651(12) 0.388(13)
H26 H 0.249(2) 0.829(11) 0.480(13)
H27 H 0.164(2) 0.747(11) 0.783(13)
H28 H 0.172(2) 0.936(12) 0.635(15)
loop_
_geom_bond_atom_site_label_1
_geom_bond_atom_site_label_2
_geom_bond_site_symmetry_1
_geom_bond_site_symmetry_2
O1 C4 1_555 1_555
O2 C18 1_555 1_555
O3 C19 1_555 1_555
O4 C12 1_555 1_555
O5 C15 1_555 1_555
O6 C6 1_555 1_555
O7 C20 1_555 1_555
C1 C2 1_555 1_555
C2 C3 1_555 1_555
C3 C4 1_555 1_555
C4 C5 1_555 1_555
C5 C6 1_555 1_555
C6 C7 1_555 1_555
C7 C8 1_555 1_555
C8 C9 1_555 1_555
C9 C10 1_555 1_555
C10 C1 1_555 1_555
C11 C9 1_555 1_555
C12 C11 1_555 1_555
C13 C12 1_555 1_555
C14 C13 1_555 1_555
C15 C14 1_555 1_555
C16 O5 1_555 1_555
C17 C8 1_555 1_555
C18 C4 1_555 1_555
C19 C5 1_555 1_555
C20 O4 1_555 1_555
H1 O1 1_555 1_555
H2 O2 1_555 1_555
H3 O3 1_555 1_555
H4 O6 1_555 1_555
H5 C1 1_555 1_555
H6 C1 1_555 1_555
H7 C2 1_555 1_555
H8 C2 1_555 1_555
H9 C3 1_555 1_555
H10 C3 1_555 1_555
H11 C6 1_555 1_555
H12 C7 1_555 1_555
H13 C7 1_555 1_555
H14 C8 1_555 1_555
H15 C10 1_555 1_555
H16 C11 1_555 1_555
H17 C11 1_555 1_555
H18 C12 1_555 1_555
H19 C14 1_555 1_555
H20 C15 1_555 1_555
H21 C16 1_555 1_555
H22 C17 1_555 1_555
H23 C17 1_555 1_555
H24 C17 1_555 1_555
H25 C18 1_555 1_555
H26 C18 1_555 1_555
H27 C19 1_555 1_555
H28 C19 1_555 1_555
C5 C10 1_555 1_555
C9 C20 1_555 1_555
C13 C16 1_555 1_555

#END
