
#######################################################################
#
#                 Cambridge Crystallographic Data Centre
#                                CCDC 
#
#######################################################################
#
# If this CIF has been generated from an entry in the Cambridge 
# Structural Database, then it will include bibliographic, chemical, 
# crystal, experimental, refinement or atomic coordinate data resulting 
# from the CCDC's data processing and validation procedures.
#
#######################################################################

data_LESQUX
_chemical_name_common            
"rac-Methyl 1',1''-dimethyl-2,2''-dioxo-2H-dispiro[acenaphthylene-1,2'-pyrrolidine-3',3''-indoline]-4'-carboxylate"
_chemical_formula_moiety         'C26 H22 N2 O4'
_chemical_name_systematic        
"Methyl 1',1''-dimethyl-2,2''-dioxo-1'',2''-dihydro-2H-dispiro[acenaphthylene-1,2'-pyrrolidine-3',3''-indole]-4'-carboxylate"
_symmetry_cell_setting           monoclinic
_symmetry_space_group_name_H-M   'P 21/c'
_symmetry_Int_Tables_number      14
_space_group_name_Hall           '-P 2ybc'
loop_
_symmetry_equiv_pos_site_id
_symmetry_equiv_pos_as_xyz
1 x,y,z
2 -x,1/2+y,1/2-z
3 -x,-y,-z
4 x,1/2-y,1/2+z
_cell_length_a                   15.4839(4)
_cell_length_b                   9.5832(2)
_cell_length_c                   15.6375(4)
_cell_angle_alpha                90
_cell_angle_beta                 115.1840(10)
_cell_angle_gamma                90
_cell_volume                     2099.81
_exptl_crystal_colour            colorless
_exptl_crystal_description       block
_cell_formula_units_Z            4
loop_
_atom_site_label
_atom_site_type_symbol
_atom_site_fract_x
_atom_site_fract_y
_atom_site_fract_z
O1 O 0.69067(8) 0.37535(12) 0.28269(9)
O2 O 0.87808(9) 0.87118(12) 0.39458(9)
O3 O 0.64333(11) 0.58931(15) 0.48841(11)
O4 O 0.65285(10) 0.81185(13) 0.45236(10)
N1 N 0.87057(9) 0.51097(14) 0.41944(9)
N2 N 0.73670(10) 0.90053(13) 0.26438(10)
C1 C 0.91612(13) 0.37648(19) 0.42302(14)
H1 H 0.8683 0.3050 0.3999
H2 H 0.9596 0.3560 0.4871
H3 H 0.9505 0.3800 0.3844
C2 C 0.81537(13) 0.51929(18) 0.47465(12)
H4 H 0.8562 0.5123 0.5418
H5 H 0.7673 0.4465 0.4568
C3 C 0.77008(12) 0.66228(17) 0.44928(11)
H6 H 0.8174 0.7303 0.4890
C4 C 0.75428(11) 0.68832(15) 0.34492(11)
C5 C 0.81077(10) 0.56359(15) 0.32472(10)
C6 C 0.74144(11) 0.44844(15) 0.25997(12)
C7 C 0.75797(10) 0.43438(15) 0.17441(11)
C8 C 0.71903(12) 0.34921(17) 0.09679(12)
H7 H 0.6677 0.2913 0.0878
C9 C 0.75897(13) 0.35191(18) 0.03135(12)
H8 H 0.7321 0.2965 -0.0225
C10 C 0.83614(14) 0.43324(18) 0.04395(12)
H9 H 0.8613 0.4304 -0.0004
C11 C 0.87793(12) 0.52114(16) 0.12320(11)
C12 C 0.83529(10) 0.52056(15) 0.18635(10)
C13 C 0.86999(10) 0.59774(15) 0.27095(11)
C14 C 0.95079(11) 0.67546(17) 0.29344(12)
H10 H 0.9769 0.7255 0.3497
C15 C 0.99391(13) 0.67866(19) 0.23017(13)
H11 H 1.0482 0.7331 0.2454
C16 C 0.95951(13) 0.60548(19) 0.14783(13)
H12 H 0.9898 0.6111 0.1078
C17 C 0.79970(12) 0.82915(16) 0.33990(12)
C18 C 0.65287(11) 0.70826(15) 0.27105(11)
C19 C 0.64718(11) 0.83487(16) 0.22577(11)
C20 C 0.56296(13) 0.88569(19) 0.15782(13)
H13 H 0.5609 0.9701 0.1276
C21 C 0.48165(13) 0.8071(2) 0.13602(14)
H14 H 0.4237 0.8390 0.0902
C22 C 0.48497(12) 0.6824(2) 0.18089(14)
H15 H 0.4292 0.6317 0.1657
C23 C 0.57069(11) 0.63162(17) 0.24860(12)
H16 H 0.5727 0.5470 0.2785
C24 C 0.75568(16) 1.03779(19) 0.23647(17)
H17 H 0.7189 1.1066 0.2511
H18 H 0.7383 1.0385 0.1698
H19 H 0.8224 1.0589 0.2701
C25 C 0.68278(13) 0.68033(18) 0.46619(12)
C26 C 0.56590(17) 0.8428(3) 0.4604(2)
H20 H 0.5144 0.7906 0.4139
H21 H 0.5525 0.9408 0.4503
H22 H 0.5727 0.8178 0.5224
loop_
_geom_bond_atom_site_label_1
_geom_bond_atom_site_label_2
_geom_bond_site_symmetry_1
_geom_bond_site_symmetry_2
O1 C6 1_555 1_555
O2 C17 1_555 1_555
O3 C25 1_555 1_555
O4 C25 1_555 1_555
N1 C1 1_555 1_555
N2 C17 1_555 1_555
C1 H1 1_555 1_555
H2 C1 1_555 1_555
H3 C1 1_555 1_555
C2 N1 1_555 1_555
H4 C2 1_555 1_555
H5 C2 1_555 1_555
C3 C2 1_555 1_555
H6 C3 1_555 1_555
C4 C3 1_555 1_555
C5 N1 1_555 1_555
C6 C5 1_555 1_555
C7 C6 1_555 1_555
C8 C7 1_555 1_555
H7 C8 1_555 1_555
C9 C8 1_555 1_555
H8 C9 1_555 1_555
C10 C9 1_555 1_555
H9 C10 1_555 1_555
C11 C10 1_555 1_555
C12 C7 1_555 1_555
C13 C5 1_555 1_555
C14 C13 1_555 1_555
H10 C14 1_555 1_555
C15 C14 1_555 1_555
H11 C15 1_555 1_555
C16 C11 1_555 1_555
H12 C16 1_555 1_555
C17 C4 1_555 1_555
C18 C4 1_555 1_555
C19 N2 1_555 1_555
C20 C19 1_555 1_555
H13 C20 1_555 1_555
C21 C20 1_555 1_555
H14 C21 1_555 1_555
C22 C21 1_555 1_555
H15 C22 1_555 1_555
C23 C18 1_555 1_555
H16 C23 1_555 1_555
C24 N2 1_555 1_555
H17 C24 1_555 1_555
H18 C24 1_555 1_555
H19 C24 1_555 1_555
C25 C3 1_555 1_555
C26 O4 1_555 1_555
H20 C26 1_555 1_555
H21 C26 1_555 1_555
H22 C26 1_555 1_555
C4 C5 1_555 1_555
C11 C12 1_555 1_555
C12 C13 1_555 1_555
C15 C16 1_555 1_555
C18 C19 1_555 1_555
C22 C23 1_555 1_555

#END
