
#######################################################################
#
#                 Cambridge Crystallographic Data Centre
#                                CCDC 
#
#######################################################################
#
# If this CIF has been generated from an entry in the Cambridge 
# Structural Database, then it will include bibliographic, chemical, 
# crystal, experimental, refinement or atomic coordinate data resulting 
# from the CCDC's data processing and validation procedures.
#
#######################################################################

data_LESVOW
_chemical_name_common            
2-(1-(4-Bromophenyl)-2-nitroethyl)-4-ethylcyclohexanone
_chemical_formula_moiety         'C16 H20 Br1 N1 O3'
_chemical_name_systematic        
(2S,4R)-2-[(1R)-1-(4-Bromophenyl)-2-nitroethyl]-4-ethylcyclohexanone
_symmetry_cell_setting           monoclinic
_symmetry_space_group_name_H-M   'P 21'
_symmetry_Int_Tables_number      4
_space_group_name_Hall           'P 2yb'
loop_
_symmetry_equiv_pos_site_id
_symmetry_equiv_pos_as_xyz
1 x,y,z
2 -x,1/2+y,-z
_cell_length_a                   5.6434(4)
_cell_length_b                   9.2179(6)
_cell_length_c                   16.5472(9)
_cell_angle_alpha                90
_cell_angle_beta                 101.782(3)
_cell_angle_gamma                90
_cell_volume                     842.655
_exptl_crystal_colour            colorless
_exptl_crystal_description       platelet
_cell_formula_units_Z            2
loop_
_atom_site_label
_atom_site_type_symbol
_atom_site_fract_x
_atom_site_fract_y
_atom_site_fract_z
C1 C 0.2312(11) 0.2884(7) 0.1770(4)
H1 H 0.0766 0.3379 0.1754
C2 C 0.4174(11) 0.4066(6) 0.1660(4)
H2 H 0.5499 0.3592 0.1461
C3 C 0.3093(14) 0.5225(7) 0.1030(4)
C4 C 0.4813(15) 0.6373(10) 0.0880(5)
H3 H 0.3957 0.7096 0.0504
H4 H 0.6060 0.5948 0.0629
C5 C 0.5974(14) 0.7093(9) 0.1702(5)
H5 H 0.7190 0.7778 0.1605
H6 H 0.4742 0.7634 0.1905
C6 C 0.7146(11) 0.6025(7) 0.2361(5)
H7 H 0.8446 0.5533 0.2156
C7 C 0.5264(10) 0.4859(8) 0.2467(3)
H8 H 0.6031 0.4153 0.2872
H9 H 0.3969 0.5317 0.2679
C8 C 0.8263(14) 0.6704(9) 0.3179(5)
H10 H 0.8867 0.5934 0.3565
H11 H 0.6999 0.7206 0.3387
C9 C 1.0317(16) 0.7769(10) 0.3167(7)
H12 H 1.0904 0.8137 0.3714
H13 H 0.9736 0.8558 0.2802
H14 H 1.1607 0.7282 0.2978
C10 C 0.2948(10) 0.2114(7) 0.2592(4)
C11 C 0.4955(12) 0.1193(7) 0.2768(4)
H15 H 0.5875 0.1042 0.2369
C12 C 0.5606(13) 0.0500(7) 0.3524(5)
H16 H 0.6965 -0.0094 0.3637
C13 C 0.4189(15) 0.0708(8) 0.4112(5)
C14 C 0.2187(14) 0.1583(8) 0.3947(4)
H17 H 0.1244 0.1714 0.4341
C15 C 0.1579(11) 0.2267(8) 0.3194(4)
H18 H 0.0206 0.2851 0.3085
C16 C 0.1937(11) 0.1852(7) 0.1032(4)
H19 H 0.1394 0.2399 0.0527
H20 H 0.3464 0.1395 0.1001
N1 N 0.0135(12) 0.0724(7) 0.1101(4)
O1 O 0.0953(10) 0.5240(6) 0.0704(3)
O2 O 0.0723(11) -0.0541(7) 0.1111(4)
O3 O -0.1912(9) 0.1117(7) 0.1163(3)
Br1 Br 0.5073(2) -0.02467(17) 0.51442(5)
loop_
_geom_bond_atom_site_label_1
_geom_bond_atom_site_label_2
_geom_bond_site_symmetry_1
_geom_bond_site_symmetry_2
C1 H1 1_555 1_555
C2 C1 1_555 1_555
H2 C2 1_555 1_555
C3 C2 1_555 1_555
C4 C3 1_555 1_555
H3 C4 1_555 1_555
H4 C4 1_555 1_555
C5 C4 1_555 1_555
H5 C5 1_555 1_555
H6 C5 1_555 1_555
C6 C5 1_555 1_555
H7 C6 1_555 1_555
C7 C2 1_555 1_555
H8 C7 1_555 1_555
H9 C7 1_555 1_555
C8 C6 1_555 1_555
H10 C8 1_555 1_555
H11 C8 1_555 1_555
C9 C8 1_555 1_555
H12 C9 1_555 1_555
H13 C9 1_555 1_555
H14 C9 1_555 1_555
C10 C1 1_555 1_555
C11 C10 1_555 1_555
H15 C11 1_555 1_555
C12 C11 1_555 1_555
H16 C12 1_555 1_555
C13 C12 1_555 1_555
C14 C13 1_555 1_555
H17 C14 1_555 1_555
C15 C10 1_555 1_555
H18 C15 1_555 1_555
C16 C1 1_555 1_555
H19 C16 1_555 1_555
H20 C16 1_555 1_555
N1 C16 1_555 1_555
O1 C3 1_555 1_555
O2 N1 1_555 1_555
O3 N1 1_555 1_555
Br1 C13 1_555 1_555
C6 C7 1_555 1_555
C14 C15 1_555 1_555

#END
