
#######################################################################
#
#                 Cambridge Crystallographic Data Centre
#                                CCDC 
#
#######################################################################
#
# If this CIF has been generated from an entry in the Cambridge 
# Structural Database, then it will include bibliographic, chemical, 
# crystal, experimental, refinement or atomic coordinate data resulting 
# from the CCDC's data processing and validation procedures.
#
#######################################################################

data_LESWIS
_chemical_formula_moiety         'C21 H18 N4 O3 S1'
_chemical_name_systematic        
2,4-diamino-8-methoxy-5-[(4-methoxyphenyl)sulfanyl]-5H-[1]benzopyrano[2,3-b]pyridine-3-carbonitrile
_symmetry_cell_setting           monoclinic
_symmetry_space_group_name_H-M   'C 2/c'
_symmetry_Int_Tables_number      15
_space_group_name_Hall           '-C 2yn'
loop_
_symmetry_equiv_pos_site_id
_symmetry_equiv_pos_as_xyz
1 x,y,z
2 -x,y,1/2-z
3 1/2+x,1/2+y,z
4 1/2-x,1/2+y,1/2-z
5 -x,-y,-z
6 x,-y,1/2+z
7 1/2-x,1/2-y,-z
8 1/2+x,1/2-y,1/2+z
_cell_length_a                   21.6226(4)
_cell_length_b                   14.4826(4)
_cell_length_c                   13.0479(3)
_cell_angle_alpha                90
_cell_angle_beta                 112.052(2)
_cell_angle_gamma                90
_cell_volume                     3787.05
_exptl_crystal_colour            'pale yellow'
_exptl_crystal_description       needle
_cell_formula_units_Z            8
loop_
_atom_site_label
_atom_site_type_symbol
_atom_site_fract_x
_atom_site_fract_y
_atom_site_fract_z
S1 S 0.11656(2) 0.53801(3) 0.27474(2)
O1 O 0.21943(6) 0.60312(7) 0.60019(7)
O2 O 0.04849(7) 0.79138(7) 0.63638(9)
O3 O 0.12294(5) 0.26698(6) 0.61798(7)
N1 N 0.31833(7) 0.55070(8) 0.61283(8)
N2 N 0.42390(7) 0.50234(10) 0.63825(9)
H1 H 0.4316(10) 0.5062(14) 0.7096(14)
H2 H 0.4583(9) 0.5004(15) 0.6158(17)
N3 N 0.43786(7) 0.48897(9) 0.37905(9)
N4 N 0.26886(8) 0.57226(9) 0.27125(9)
H3 H 0.2950(10) 0.5412(15) 0.2452(18)
H4 H 0.2267(8) 0.5694(13) 0.2306(15)
C1 C 0.36350(8) 0.53105(9) 0.56893(9)
C2 C 0.34842(8) 0.53763(9) 0.45336(9)
C3 C 0.28515(8) 0.56869(9) 0.38315(9)
C4 C 0.23942(8) 0.59638(9) 0.43063(9)
C5 C 0.25999(8) 0.58317(9) 0.54444(10)
C6 C 0.17119(8) 0.63106(10) 0.36419(10)
H5 H 0.175966 0.680226 0.313858
C7 C 0.13884(8) 0.67442(9) 0.43575(10)
C8 C 0.16321(8) 0.65662(9) 0.54824(10)
C9 C 0.13413(8) 0.69250(9) 0.61837(10)
H6 H 0.151596 0.677746 0.694907
C10 C 0.07954(9) 0.74982(9) 0.57502(11)
C11 C 0.05302(9) 0.76922(10) 0.46100(11)
H7 H 0.015027 0.807954 0.430546
C12 C 0.08275(8) 0.73143(10) 0.39399(11)
H8 H 0.064552 0.744541 0.317028
C13 C 0.39765(8) 0.51150(9) 0.41164(9)
C14 C 0.07990(11) 0.78049(12) 0.75378(13)
H9 H 0.058409 0.821336 0.790368
H10 H 0.127286 0.796437 0.777655
H11 H 0.075507 0.716248 0.773657
C15 C 0.12026(7) 0.45690(9) 0.37805(10)
C16 C 0.17497(7) 0.39921(10) 0.42287(11)
H12 H 0.210866 0.403581 0.397901
C17 C 0.17806(7) 0.33483(9) 0.50409(10)
H13 H 0.21606 0.296178 0.535107
C18 C 0.12508(6) 0.32777(8) 0.53918(9)
C19 C 0.06987(6) 0.38544(9) 0.49499(10)
H14 H 0.033807 0.38059 0.519495
C20 C 0.06760(7) 0.45004(9) 0.41505(10)
H15 H 0.030089 0.489736 0.38538
C21 C 0.17526(7) 0.20030(9) 0.65680(11)
H16 H 0.167272 0.15941 0.710393
H17 H 0.218082 0.231979 0.692361
H18 H 0.176345 0.163763 0.594278
loop_
_geom_bond_atom_site_label_1
_geom_bond_atom_site_label_2
_geom_bond_site_symmetry_1
_geom_bond_site_symmetry_2
S1 C6 1_555 1_555
O1 C5 1_555 1_555
O2 C10 1_555 1_555
O3 C18 1_555 1_555
N1 C1 1_555 1_555
N2 H1 1_555 1_555
H2 N2 1_555 1_555
N3 C13 1_555 1_555
N4 H3 1_555 1_555
H4 N4 1_555 1_555
C1 N2 1_555 1_555
C2 C1 1_555 1_555
C3 N4 1_555 1_555
C4 C3 1_555 1_555
C5 N1 1_555 1_555
C6 C4 1_555 1_555
H5 C6 1_555 1_555
C7 C6 1_555 1_555
C8 O1 1_555 1_555
C9 C8 1_555 1_555
H6 C9 1_555 1_555
C10 C9 1_555 1_555
C11 C10 1_555 1_555
H7 C11 1_555 1_555
C12 C7 1_555 1_555
H8 C12 1_555 1_555
C13 C2 1_555 1_555
C14 O2 1_555 1_555
H9 C14 1_555 1_555
H10 C14 1_555 1_555
H11 C14 1_555 1_555
C15 S1 1_555 1_555
C16 C15 1_555 1_555
H12 C16 1_555 1_555
C17 C16 1_555 1_555
H13 C17 1_555 1_555
C18 C17 1_555 1_555
C19 C18 1_555 1_555
H14 C19 1_555 1_555
C20 C15 1_555 1_555
H15 C20 1_555 1_555
C21 O3 1_555 1_555
H16 C21 1_555 1_555
H17 C21 1_555 1_555
H18 C21 1_555 1_555
C2 C3 1_555 1_555
C4 C5 1_555 1_555
C7 C8 1_555 1_555
C11 C12 1_555 1_555
C19 C20 1_555 1_555

#END
