
#######################################################################
#
#                 Cambridge Crystallographic Data Centre
#                                CCDC 
#
#######################################################################
#
# If this CIF has been generated from an entry in the Cambridge 
# Structural Database, then it will include bibliographic, chemical, 
# crystal, experimental, refinement or atomic coordinate data resulting 
# from the CCDC's data processing and validation procedures.
#
#######################################################################

data_LESWEO
_chemical_formula_moiety         'C20 H15 F1 N4 O2 S1'
_chemical_name_systematic        
2,4-diamino-5-[(4-fluorophenyl)sulfanyl]-8-methoxy-5H-[1]benzopyrano[2,3-b]pyridine-3-carbonitrile
_symmetry_cell_setting           monoclinic
_symmetry_space_group_name_H-M   'P 21/n'
_symmetry_Int_Tables_number      14
_space_group_name_Hall           '-P 2yn'
loop_
_symmetry_equiv_pos_site_id
_symmetry_equiv_pos_as_xyz
1 x,y,z
2 1/2-x,1/2+y,1/2-z
3 -x,-y,-z
4 1/2+x,1/2-y,1/2+z
_cell_length_a                   14.6027(7)
_cell_length_b                   7.1994(4)
_cell_length_c                   18.1327(10)
_cell_angle_alpha                90
_cell_angle_beta                 107.694(2)
_cell_angle_gamma                90
_cell_volume                     1816.12
_cell_formula_units_Z            4
loop_
_atom_site_label
_atom_site_type_symbol
_atom_site_fract_x
_atom_site_fract_y
_atom_site_fract_z
S1 S 0.18137(2) 0.72926(4) 0.35479(2)
F1 F 0.40928(7) 0.04701(14) 0.38105(7)
O1 O 0.18005(6) 0.33835(12) 0.52330(5)
O2 O 0.46763(6) 0.59187(14) 0.69473(5)
N1 N 0.04089(7) 0.20541(13) 0.46138(6)
N2 N -0.09656(8) 0.04596(15) 0.39903(6)
H1 H -0.0787(12) -0.037(2) 0.4352(10)
H2 H -0.1527(13) 0.039(3) 0.3671(11)
N3 N -0.23954(8) 0.34599(16) 0.24889(7)
N4 N -0.05545(9) 0.67169(16) 0.32401(7)
H3 H -0.0187(14) 0.756(3) 0.3217(11)
H4 H -0.1156(14) 0.677(3) 0.2954(11)
C1 C -0.04580(8) 0.20432(16) 0.40712(6)
C2 C -0.08011(8) 0.36076(16) 0.35963(7)
C3 C -0.02317(8) 0.52262(16) 0.36870(7)
C4 C 0.06831(8) 0.52213(16) 0.42556(7)
C5 C 0.09342(8) 0.35954(16) 0.46742(6)
C6 C 0.13386(9) 0.68663(16) 0.43895(7)
H5 H 0.0964 0.7986 0.4454
C7 C 0.21679(8) 0.66403(17) 0.51103(7)
C8 C 0.23904(8) 0.49227(17) 0.54592(7)
C9 C 0.32194(9) 0.45884(18) 0.60706(7)
H6 H 0.3358 0.3383 0.6290
C10 C 0.38383(9) 0.60629(19) 0.63517(7)
C11 C 0.36214(10) 0.78369(19) 0.60349(8)
H7 H 0.4037 0.8850 0.6241
C12 C 0.28003(9) 0.81104(18) 0.54201(8)
H8 H 0.2660 0.9316 0.5202
C13 C -0.16924(9) 0.35268(16) 0.29948(7)
C14 C 0.50015(10) 0.4110(2) 0.72090(8)
H9 H 0.5614 0.4197 0.7624
H10 H 0.5092 0.3388 0.6778
H11 H 0.4524 0.3496 0.7406
C15 C 0.25102(9) 0.52546(18) 0.36128(7)
C16 C 0.21050(10) 0.36686(19) 0.32028(8)
H12 H 0.1459 0.3697 0.2876
C17 C 0.26371(11) 0.2049(2) 0.32672(9)
H13 H 0.2364 0.0964 0.2988
C18 C 0.35693(11) 0.2053(2) 0.37460(9)
C19 C 0.39989(11) 0.3598(2) 0.41574(9)
H14 H 0.4646 0.3556 0.4482
C20 C 0.34609(10) 0.5213(2) 0.40844(8)
H15 H 0.3743 0.6299 0.4358
loop_
_geom_bond_atom_site_label_1
_geom_bond_atom_site_label_2
_geom_bond_site_symmetry_1
_geom_bond_site_symmetry_2
S1 C6 1_555 1_555
F1 C18 1_555 1_555
O1 C5 1_555 1_555
O2 C10 1_555 1_555
N1 C1 1_555 1_555
N2 H1 1_555 1_555
H2 N2 1_555 1_555
N3 C13 1_555 1_555
N4 H3 1_555 1_555
H4 N4 1_555 1_555
C1 N2 1_555 1_555
C2 C1 1_555 1_555
C3 N4 1_555 1_555
C4 C3 1_555 1_555
C5 N1 1_555 1_555
C6 C4 1_555 1_555
H5 C6 1_555 1_555
C7 C6 1_555 1_555
C8 O1 1_555 1_555
C9 C8 1_555 1_555
H6 C9 1_555 1_555
C10 C9 1_555 1_555
C11 C10 1_555 1_555
H7 C11 1_555 1_555
C12 C7 1_555 1_555
H8 C12 1_555 1_555
C13 C2 1_555 1_555
C14 O2 1_555 1_555
H9 C14 1_555 1_555
H10 C14 1_555 1_555
H11 C14 1_555 1_555
C15 S1 1_555 1_555
C16 C15 1_555 1_555
H12 C16 1_555 1_555
C17 C16 1_555 1_555
H13 C17 1_555 1_555
C18 C17 1_555 1_555
C19 C18 1_555 1_555
H14 C19 1_555 1_555
C20 C15 1_555 1_555
H15 C20 1_555 1_555
C2 C3 1_555 1_555
C4 C5 1_555 1_555
C7 C8 1_555 1_555
C11 C12 1_555 1_555
C19 C20 1_555 1_555

#END
