
#######################################################################
#
#                 Cambridge Crystallographic Data Centre
#                                CCDC 
#
#######################################################################
#
# If this CIF has been generated from an entry in the Cambridge 
# Structural Database, then it will include bibliographic, chemical, 
# crystal, experimental, refinement or atomic coordinate data resulting 
# from the CCDC's data processing and validation procedures.
#
#######################################################################

data_LESYUF01
_chemical_formula_moiety         'C21 H18 O2 S1'
_chemical_name_systematic        'benzyl 2-(benzylsulfanyl)benzoate'
_symmetry_cell_setting           triclinic
_symmetry_space_group_name_H-M   'P -1'
_symmetry_Int_Tables_number      2
_space_group_name_Hall           '-P 1'
loop_
_symmetry_equiv_pos_site_id
_symmetry_equiv_pos_as_xyz
1 x,y,z
2 -x,-y,-z
_cell_length_a                   5.662(7)
_cell_length_b                   11.988(15)
_cell_length_c                   12.959(15)
_cell_angle_alpha                72.796(15)
_cell_angle_beta                 86.431(15)
_cell_angle_gamma                89.971(15)
_cell_volume                     838.473
_exptl_crystal_colour            colorless
_exptl_crystal_description       block
_cell_formula_units_Z            2
loop_
_atom_site_label
_atom_site_type_symbol
_atom_site_fract_x
_atom_site_fract_y
_atom_site_fract_z
S1 S 1.10616(13) 0.22267(6) 0.48164(6)
C1 C 1.1147(4) 0.2742(2) 0.3417(2)
C2 C 0.3075(4) 0.6076(2) 0.2610(2)
C3 C 0.3618(5) 0.6363(3) 0.1526(2)
H1 H 0.4983 0.6076 0.1266
C4 C 0.9512(4) 0.3563(2) 0.2884(2)
C5 C 0.1053(5) 0.6524(2) 0.2970(2)
H2 H 0.0649 0.6335 0.3709
C6 C 1.2847(5) 0.2383(3) 0.2756(2)
H3 H 1.3958 0.1839 0.3075
C7 C -0.0367(5) 0.7243(2) 0.2253(3)
H4 H -0.1715 0.7549 0.2508
C8 C 0.0183(5) 0.7512(3) 0.1176(3)
H5 H -0.0790 0.7994 0.0688
C9 C 1.1312(6) 0.3603(3) 0.1155(3)
H6 H 1.1371 0.3891 0.0404
C10 C 0.9618(5) 0.3964(2) 0.1777(2)
H7 H 0.8506 0.4497 0.1439
C11 C 1.2914(6) 0.2811(3) 0.1661(3)
H8 H 1.4078 0.2559 0.1247
C12 C 0.2174(5) 0.7070(3) 0.0815(3)
H9 H 0.2557 0.7252 0.0075
C13 C 0.4553(5) 0.5308(2) 0.3431(2)
H10 H 0.5343 0.5766 0.3816
H11 H 0.3562 0.4719 0.3952
C14 C 0.7697(5) 0.4018(2) 0.3509(2)
O1 O 0.6274(3) 0.47588(15) 0.28920(14)
O2 O 0.7514(4) 0.37687(19) 0.44717(17)
C15 C 1.3522(4) 0.0709(2) 0.6254(2)
C16 C 1.5287(5) 0.1055(2) 0.6781(3)
H12 H 1.6448 0.1583 0.6382
C17 C 1.3409(5) 0.1191(2) 0.5067(2)
H13 H 1.3100 0.0569 0.4753
H14 H 1.4902 0.1571 0.4744
C18 C 1.1836(5) -0.0072(3) 0.6873(3)
H15 H 1.0616 -0.0318 0.6538
C19 C 1.5367(6) 0.0639(3) 0.7874(3)
H16 H 1.6575 0.0886 0.8215
C20 C 1.3692(6) -0.0135(3) 0.8472(3)
H17 H 1.3746 -0.0421 0.9220
C21 C 1.1924(6) -0.0490(3) 0.7961(3)
H18 H 1.0774 -0.1021 0.8364
loop_
_geom_bond_atom_site_label_1
_geom_bond_atom_site_label_2
_geom_bond_site_symmetry_1
_geom_bond_site_symmetry_2
S1 C1 1_555 1_555
C1 C4 1_555 1_555
C2 C3 1_555 1_555
C3 H1 1_555 1_555
C4 C10 1_555 1_555
C5 C2 1_555 1_555
H2 C5 1_555 1_555
C6 C1 1_555 1_555
H3 C6 1_555 1_555
C7 C5 1_555 1_555
H4 C7 1_555 1_555
C8 C7 1_555 1_555
H5 C8 1_555 1_555
C9 H6 1_555 1_555
C10 C9 1_555 1_555
H7 C10 1_555 1_555
C11 C6 1_555 1_555
H8 C11 1_555 1_555
C12 C3 1_555 1_555
H9 C12 1_555 1_555
C13 C2 1_555 1_555
H10 C13 1_555 1_555
H11 C13 1_555 1_555
C14 C4 1_555 1_555
O1 C13 1_555 1_555
O2 C14 1_555 1_555
C15 C16 1_555 1_555
C16 H12 1_555 1_555
C17 S1 1_555 1_555
H13 C17 1_555 1_555
H14 C17 1_555 1_555
C18 C15 1_555 1_555
H15 C18 1_555 1_555
C19 C16 1_555 1_555
H16 C19 1_555 1_555
C20 C19 1_555 1_555
H17 C20 1_555 1_555
C21 C18 1_555 1_555
H18 C21 1_555 1_555
C8 C12 1_555 1_555
C9 C11 1_555 1_555
C14 O1 1_555 1_555
C15 C17 1_555 1_555
C20 C21 1_555 1_555

#END
