
#######################################################################
#
#                 Cambridge Crystallographic Data Centre
#                                CCDC 
#
#######################################################################
#
# If this CIF has been generated from an entry in the Cambridge 
# Structural Database, then it will include bibliographic, chemical, 
# crystal, experimental, refinement or atomic coordinate data resulting 
# from the CCDC's data processing and validation procedures.
#
#######################################################################

data_LETBOD
_chemical_name_common            'Desoxyhemigossypol 6-methyl ether'
_chemical_formula_moiety         'C16 H18 O3'
_chemical_name_systematic        
6-Methoxy-10-methyl-7-(propan-2-yl)-2-oxatricyclo-[6.3.1.0^4,12^]dodeca-1(11),4,6,8(12),9-pentaen-5-ol
_symmetry_cell_setting           triclinic
_symmetry_space_group_name_H-M   'P -1'
_symmetry_Int_Tables_number      2
_space_group_name_Hall           '-P 1'
loop_
_symmetry_equiv_pos_site_id
_symmetry_equiv_pos_as_xyz
1 x,y,z
2 -x,-y,-z
_cell_length_a                   10.0275(5)
_cell_length_b                   11.1058(6)
_cell_length_c                   13.2938(8)
_cell_angle_alpha                107.797(5)
_cell_angle_beta                 103.896(5)
_cell_angle_gamma                90.435(4)
_cell_volume                     1363.08
_exptl_crystal_colour            colorless
_exptl_crystal_description       block
_cell_formula_units_Z            4
loop_
_atom_site_label
_atom_site_type_symbol
_atom_site_fract_x
_atom_site_fract_y
_atom_site_fract_z
C1 C 0.6372(2) 0.6300(2) 0.60266(16)
C2 C 0.5457(3) 0.7031(2) 0.64751(18)
H1 H 0.5440 0.7154 0.7196
C3 C 0.4517(3) 0.7608(2) 0.5804(2)
C4 C 0.4535(2) 0.7425(2) 0.47364(18)
H2 H 0.3927 0.7831 0.4328
C5 C 0.56004(19) 0.62981(17) 0.31437(15)
C6 C 0.65818(18) 0.54699(17) 0.28745(14)
C7 C 0.74826(19) 0.49542(18) 0.36144(16)
C8 C 0.73732(19) 0.52956(19) 0.46605(16)
C9 C 0.63691(19) 0.61040(18) 0.49337(15)
C10 C 0.54617(19) 0.66320(18) 0.42417(15)
C11 C 0.3488(3) 0.8409(3) 0.6302(3)
H3 H 0.3084 0.8905 0.5848
H4 H 0.3947 0.8965 0.7016
H5 H 0.2777 0.7868 0.6359
C12 C 0.8076(2) 0.4986(2) 0.56747(18)
H6 H 0.7977 0.4079 0.5551
H7 H 0.9050 0.5272 0.5900
C13 C 0.4747(2) 0.6820(2) 0.22867(18)
H8 H 0.5046 0.6427 0.1619
C14 C 0.3207(2) 0.6418(3) 0.1997(2)
H9 H 0.3072 0.5517 0.1843
H10 H 0.2747 0.6640 0.1365
H11 H 0.2835 0.6845 0.2600
C15 C 0.5064(3) 0.8232(2) 0.2559(3)
H12 H 0.4851 0.8668 0.3238
H13 H 0.4517 0.8515 0.1989
H14 H 0.6024 0.8411 0.2623
C16 C 0.5963(2) 0.4046(2) 0.10614(18)
H15 H 0.6233 0.3830 0.0387
H16 H 0.5017 0.4238 0.0935
H17 H 0.6065 0.3342 0.1342
O1 O 0.73758(17) 0.56665(17) 0.64974(12)
O2 O 0.84360(15) 0.41512(15) 0.33045(13)
H18 H 0.8335 0.3970 0.2643
O3 O 0.68208(14) 0.51333(13) 0.18394(10)
C17 C 1.1325(2) 0.81302(19) -0.05314(15)
C18 C 1.2223(2) 0.9049(2) -0.05337(17)
H19 H 1.2599 0.8966 -0.1124
C19 C 1.2561(2) 1.0143(2) 0.04066(18)
C20 C 1.2035(2) 1.02680(19) 0.12981(17)
H20 H 1.2300 1.0994 0.1903
C21 C 1.04433(19) 0.92410(18) 0.21481(16)
C22 C 0.9539(2) 0.81841(18) 0.19220(15)
C23 C 0.9187(2) 0.71749(18) 0.09065(15)
C24 C 0.9836(2) 0.72145(17) 0.01286(15)
C25 C 1.07617(18) 0.82592(17) 0.03528(15)
C26 C 1.10907(18) 0.93059(17) 0.13117(15)
C27 C 1.3522(3) 1.1198(2) 0.0407(2)
H21 H 1.3271 1.2002 0.0809
H22 H 1.3452 1.1177 -0.0332
H23 H 1.4453 1.1088 0.0743
C28 C 0.9801(2) 0.6354(2) -0.09991(17)
H24 H 1.0057 0.5518 -0.0983
H25 H 0.8891 0.6269 -0.1488
C29 C 1.0730(2) 1.0259(2) 0.32693(17)
H26 H 1.0156 0.9971 0.3667
C30 C 1.2201(2) 1.0329(2) 0.39328(19)
H27 H 1.2413 0.9502 0.3977
H28 H 1.2305 1.0910 0.4655
H29 H 1.2818 1.0619 0.3587
C31 C 1.0288(3) 1.1533(2) 0.3244(2)
H30 H 1.0832 1.1876 0.2876
H31 H 1.0417 1.2091 0.3978
H32 H 0.9332 1.1450 0.2863
C32 C 0.9621(3) 0.7427(3) 0.3406(2)
H33 H 0.9789 0.6596 0.2989
H34 H 0.9104 0.7354 0.3908
H35 H 1.0485 0.7914 0.3804
O4 O 1.08204(16) 0.69916(14) -0.13428(11)
O5 O 0.82418(17) 0.61951(15) 0.07111(12)
H36 H 0.7976 0.6270 0.1263
O6 O 0.88542(15) 0.80485(15) 0.26829(12)
loop_
_geom_bond_atom_site_label_1
_geom_bond_atom_site_label_2
_geom_bond_site_symmetry_1
_geom_bond_site_symmetry_2
C1 C2 1_555 1_555
C2 H1 1_555 1_555
C3 C2 1_555 1_555
C4 C3 1_555 1_555
H2 C4 1_555 1_555
C5 C6 1_555 1_555
C6 C7 1_555 1_555
C7 C8 1_555 1_555
C8 C9 1_555 1_555
C9 C1 1_555 1_555
C10 C4 1_555 1_555
C11 C3 1_555 1_555
H3 C11 1_555 1_555
H4 C11 1_555 1_555
H5 C11 1_555 1_555
C12 C8 1_555 1_555
H6 C12 1_555 1_555
H7 C12 1_555 1_555
C13 C5 1_555 1_555
H8 C13 1_555 1_555
C14 C13 1_555 1_555
H9 C14 1_555 1_555
H10 C14 1_555 1_555
H11 C14 1_555 1_555
C15 C13 1_555 1_555
H12 C15 1_555 1_555
H13 C15 1_555 1_555
H14 C15 1_555 1_555
C16 H15 1_555 1_555
H16 C16 1_555 1_555
H17 C16 1_555 1_555
O1 C1 1_555 1_555
O2 C7 1_555 1_555
H18 O2 1_555 1_555
O3 C6 1_555 1_555
C17 C18 1_555 1_555
C18 H19 1_555 1_555
C19 C18 1_555 1_555
C20 C19 1_555 1_555
H20 C20 1_555 1_555
C21 C22 1_555 1_555
C22 C23 1_555 1_555
C23 C24 1_555 1_555
C24 C25 1_555 1_555
C25 C17 1_555 1_555
C26 C20 1_555 1_555
C27 C19 1_555 1_555
H21 C27 1_555 1_555
H22 C27 1_555 1_555
H23 C27 1_555 1_555
C28 C24 1_555 1_555
H24 C28 1_555 1_555
H25 C28 1_555 1_555
C29 C21 1_555 1_555
H26 C29 1_555 1_555
C30 C29 1_555 1_555
H27 C30 1_555 1_555
H28 C30 1_555 1_555
H29 C30 1_555 1_555
C31 C29 1_555 1_555
H30 C31 1_555 1_555
H31 C31 1_555 1_555
H32 C31 1_555 1_555
C32 H33 1_555 1_555
H34 C32 1_555 1_555
H35 C32 1_555 1_555
O4 C17 1_555 1_555
O5 C23 1_555 1_555
H36 O5 1_555 1_555
O6 C22 1_555 1_555
C5 C10 1_555 1_555
C9 C10 1_555 1_555
C12 O1 1_555 1_555
C16 O3 1_555 1_555
C21 C26 1_555 1_555
C25 C26 1_555 1_555
C28 O4 1_555 1_555
C32 O6 1_555 1_555

#END
