
#######################################################################
#
#                 Cambridge Crystallographic Data Centre
#                                CCDC 
#
#######################################################################
#
# If this CIF has been generated from an entry in the Cambridge 
# Structural Database, then it will include bibliographic, chemical, 
# crystal, experimental, refinement or atomic coordinate data resulting 
# from the CCDC's data processing and validation procedures.
#
#######################################################################

data_LETDIZ
_chemical_name_common            
'Methyl 2-bromo-3-(4-chlorobenzenesulfonamido)benzoate'
_chemical_formula_moiety         'C14 H11 Br1 Cl1 N1 O4 S1'
_chemical_name_systematic        
'Methyl 2-bromo-3-(((4-chlorophenyl)sulfonyl)amino)benzoate'
_symmetry_cell_setting           monoclinic
_symmetry_space_group_name_H-M   'P 21/c'
_symmetry_Int_Tables_number      14
_space_group_name_Hall           '-P 2ybc'
loop_
_symmetry_equiv_pos_site_id
_symmetry_equiv_pos_as_xyz
1 x,y,z
2 -x,1/2+y,1/2-z
3 -x,-y,-z
4 x,1/2-y,1/2+z
_cell_length_a                   7.9206(2)
_cell_length_b                   9.4600(3)
_cell_length_c                   20.0915(6)
_cell_angle_alpha                90
_cell_angle_beta                 94.505(3)
_cell_angle_gamma                90
_cell_volume                     1500.78
_exptl_crystal_colour            colorless
_exptl_crystal_description       chunk
_cell_formula_units_Z            4
loop_
_atom_site_label
_atom_site_type_symbol
_atom_site_fract_x
_atom_site_fract_y
_atom_site_fract_z
Br1 Br 0.55830(3) 0.29987(2) 0.362077(11)
Cl1 Cl 0.01337(10) -0.03081(9) 0.18862(3)
S1 S 0.23124(6) 0.09272(5) 0.48834(2)
O1 O 0.3147(2) -0.03081(17) 0.51690(8)
O2 O 0.0901(2) 0.15202(17) 0.51868(8)
O3 O 0.4253(3) 0.6005(2) 0.27820(9)
O4 O 0.5888(3) 0.7061(2) 0.35913(9)
N1 N 0.3799(3) 0.2130(2) 0.48786(10)
H1 H 0.466(5) 0.177(3) 0.4775(17)
C1 C 0.3423(3) 0.3532(2) 0.46643(10)
C2 C 0.4146(3) 0.4121(2) 0.41128(10)
C3 C 0.3853(3) 0.5527(2) 0.39355(11)
C4 C 0.2772(3) 0.6340(2) 0.42946(12)
H2 H 0.2549 0.7294 0.4170
C5 C 0.2022(3) 0.5763(2) 0.48325(12)
H3 H 0.1269 0.6315 0.5070
C6 C 0.2372(3) 0.4374(3) 0.50239(11)
H4 H 0.1890 0.3995 0.5404
C7 C 0.4666(3) 0.6198(2) 0.33630(11)
C8 C 0.6814(4) 0.7813(3) 0.31100(14)
H5 H 0.7891 0.8150 0.3326
H6 H 0.6143 0.8621 0.2936
H7 H 0.7035 0.7177 0.2742
C9 C 0.1676(3) 0.0580(2) 0.40362(11)
C10 C 0.2808(3) -0.0105(2) 0.36475(12)
H8 H 0.3899 -0.0373 0.3835
C11 C 0.2321(3) -0.0390(3) 0.29849(12)
H9 H 0.3065 -0.0871 0.2714
C12 C 0.0727(3) 0.0038(3) 0.27216(12)
C13 C -0.0388(3) 0.0736(3) 0.31041(13)
H10 H -0.1467 0.1028 0.2913
C14 C 0.0093(3) 0.1003(2) 0.37711(12)
H11 H -0.0659 0.1473 0.4043
loop_
_geom_bond_atom_site_label_1
_geom_bond_atom_site_label_2
_geom_bond_site_symmetry_1
_geom_bond_site_symmetry_2
Br1 C2 1_555 1_555
Cl1 C12 1_555 1_555
S1 O1 1_555 1_555
O2 S1 1_555 1_555
O3 C7 1_555 1_555
O4 C7 1_555 1_555
N1 S1 1_555 1_555
H1 N1 1_555 1_555
C1 N1 1_555 1_555
C2 C1 1_555 1_555
C3 C2 1_555 1_555
C4 C3 1_555 1_555
H2 C4 1_555 1_555
C5 C4 1_555 1_555
H3 C5 1_555 1_555
C6 C1 1_555 1_555
H4 C6 1_555 1_555
C7 C3 1_555 1_555
C8 O4 1_555 1_555
H5 C8 1_555 1_555
H6 C8 1_555 1_555
H7 C8 1_555 1_555
C9 S1 1_555 1_555
C10 C9 1_555 1_555
H8 C10 1_555 1_555
C11 C10 1_555 1_555
H9 C11 1_555 1_555
C12 C11 1_555 1_555
C13 C12 1_555 1_555
H10 C13 1_555 1_555
C14 C9 1_555 1_555
H11 C14 1_555 1_555
C5 C6 1_555 1_555
C13 C14 1_555 1_555

#END
