
#######################################################################
#
#                 Cambridge Crystallographic Data Centre
#                                CCDC 
#
#######################################################################
#
# If this CIF has been generated from an entry in the Cambridge 
# Structural Database, then it will include bibliographic, chemical, 
# crystal, experimental, refinement or atomic coordinate data resulting 
# from the CCDC's data processing and validation procedures.
#
#######################################################################

data_LETDEW
_chemical_formula_moiety         'C33 H16 I4,C24 H20 P1 1+,Br1 1-'
_chemical_name_systematic        
"tetraphenylphosphonium bromide 1,1',1'',1'''-methanetetrayltetrakis[4-(iodoethynyl)benzene]"
_symmetry_cell_setting           monoclinic
_symmetry_space_group_name_H-M   'I 2/a'
_symmetry_Int_Tables_number      15
_space_group_name_Hall           '-I 2ya'
loop_
_symmetry_equiv_pos_site_id
_symmetry_equiv_pos_as_xyz
1 x,y,z
2 1/2-x,y,-z
3 1/2+x,1/2+y,1/2+z
4 -x,1/2+y,1/2-z
5 -x,-y,-z
6 1/2+x,-y,z
7 1/2-x,1/2-y,1/2-z
8 x,1/2-y,1/2+z
_cell_length_a                   17.4076(9)
_cell_length_b                   17.4445(11)
_cell_length_c                   34.0495(19)
_cell_angle_alpha                90
_cell_angle_beta                 90.184(4)
_cell_angle_gamma                90
_cell_volume                     10339.7
_exptl_crystal_colour            yellow
_exptl_crystal_description       prism
_cell_formula_units_Z            8
loop_
_atom_site_label
_atom_site_type_symbol
_atom_site_fract_x
_atom_site_fract_y
_atom_site_fract_z
I1 I 0.25460(3) 0.11964(3) 0.18383(2)
I2 I 0.98884(3) 0.09376(3) 0.17641(2)
I3 I 0.62772(3) 0.49542(3) 0.54967(2)
I4 I 0.63909(3) -0.22516(4) 0.55687(2)
C1 C 0.6292(3) 0.1285(4) 0.36524(19)
C2 C 0.5572(3) 0.1274(4) 0.33798(18)
C3 C 0.5152(4) 0.0612(4) 0.3316(2)
H1 H 0.5262 0.0172 0.3461
C4 C 0.4566(4) 0.0601(5) 0.3038(2)
H2 H 0.4293 0.0149 0.2997
C5 C 0.4380(4) 0.1238(4) 0.2821(2)
C6 C 0.4818(4) 0.1900(4) 0.2879(2)
H3 H 0.4710 0.2339 0.2733
C7 C 0.5408(4) 0.1910(4) 0.3149(2)
H4 H 0.5703 0.2351 0.3177
C8 C 0.3790(4) 0.1214(4) 0.2522(2)
C9 C 0.3340(4) 0.1203(5) 0.2267(2)
C10 C 0.6963(3) 0.1248(4) 0.33546(18)
C11 C 0.7099(4) 0.0566(4) 0.3156(2)
H5 H 0.6816 0.0132 0.3220
C12 C 0.7644(4) 0.0524(4) 0.2869(2)
H6 H 0.7739 0.0054 0.2750
C13 C 0.8056(4) 0.1153(4) 0.2751(2)
C14 C 0.7893(4) 0.1842(4) 0.2933(2)
H7 H 0.8149 0.2283 0.2853
C15 C 0.7354(4) 0.1890(4) 0.32324(19)
H8 H 0.7257 0.2360 0.3351
C16 C 0.8609(4) 0.1096(4) 0.2433(2)
C17 C 0.9063(5) 0.1007(5) 0.2184(3)
C18 C 0.6325(3) 0.2010(4) 0.39156(18)
C19 C 0.6998(3) 0.2164(4) 0.41216(18)
H9 H 0.7437 0.1877 0.4071
C20 C 0.7024(4) 0.2739(4) 0.44010(19)
H10 H 0.7482 0.2836 0.4534
C21 C 0.6375(4) 0.3176(4) 0.4487(2)
C22 C 0.5709(4) 0.3030(5) 0.4272(2)
H11 H 0.5274 0.3328 0.4314
C23 C 0.5687(4) 0.2450(4) 0.3999(2)
H12 H 0.5230 0.2352 0.3866
C24 C 0.6370(4) 0.3729(4) 0.4808(2)
C25 C 0.6334(5) 0.4165(5) 0.5068(2)
C26 C 0.6293(3) 0.0635(4) 0.39534(18)
C27 C 0.6927(4) 0.0189(5) 0.4030(2)
H13 H 0.7363 0.0251 0.3876
C28 C 0.6938(5) -0.0351(5) 0.4329(3)
H14 H 0.7373 -0.0652 0.4368
C29 C 0.6298(4) -0.0443(4) 0.4573(2)
C30 C 0.5662(4) 0.0004(5) 0.4496(2)
H15 H 0.5227 -0.0052 0.4651
C31 C 0.5656(4) 0.0528(5) 0.4198(2)
H16 H 0.5217 0.0821 0.4156
C32 C 0.6311(5) -0.0982(5) 0.4894(3)
C33 C 0.6336(5) -0.1425(5) 0.5148(3)
P1 P 0.49967(10) 0.23789(11) 0.12204(5)
C34 C 0.4407(4) 0.1745(5) 0.0949(2)
C35 C 0.3927(5) 0.2019(7) 0.0650(3)
H17 H 0.3945 0.2531 0.0575
C36 C 0.3431(6) 0.1522(9) 0.0468(4)
H18 H 0.3099 0.1703 0.0274
C37 C 0.3420(6) 0.0782(10) 0.0565(4)
H19 H 0.3079 0.0458 0.0435
C38 C 0.3887(6) 0.0480(7) 0.0847(3)
H20 H 0.3870 -0.0038 0.0911
C39 C 0.4392(5) 0.0980(5) 0.1037(3)
H21 H 0.4724 0.0789 0.1228
C40 C 0.4408(4) 0.2912(4) 0.1560(2)
C41 C 0.4766(5) 0.3273(5) 0.1880(2)
H22 H 0.5296 0.3249 0.1913
C42 C 0.4309(8) 0.3668(6) 0.2147(3)
H23 H 0.4536 0.3918 0.2359
C43 C 0.3533(9) 0.3692(6) 0.2100(4)
H24 H 0.3235 0.3952 0.2283
C44 C 0.3190(6) 0.3347(6) 0.1794(4)
H25 H 0.2659 0.3373 0.1766
C45 C 0.3629(5) 0.2945(5) 0.1515(3)
H26 H 0.3392 0.2705 0.1303
C46 C 0.5695(4) 0.1830(4) 0.1492(2)
C47 C 0.6393(4) 0.1652(4) 0.1318(2)
H27 H 0.6511 0.1838 0.1069
C48 C 0.6909(5) 0.1197(5) 0.1517(3)
H28 H 0.7379 0.1074 0.1404
C49 C 0.6728(6) 0.0925(5) 0.1882(3)
H29 H 0.7082 0.0617 0.2012
C50 C 0.6051(6) 0.1086(5) 0.2063(3)
H30 H 0.5945 0.0899 0.2313
C51 C 0.5506(5) 0.1553(5) 0.1856(3)
H31 H 0.5032 0.1666 0.1967
C52 C 0.5491(4) 0.3022(4) 0.0893(2)
C53 C 0.5676(5) 0.2807(6) 0.0521(3)
H32 H 0.5533 0.2328 0.0426
C54 C 0.6087(5) 0.3319(8) 0.0282(3)
H33 H 0.6219 0.3173 0.0028
C55 C 0.6289(5) 0.4006(7) 0.0411(3)
H34 H 0.6563 0.4336 0.0249
C56 C 0.6100(5) 0.4227(5) 0.0776(3)
H35 H 0.6233 0.4715 0.0862
C57 C 0.5710(4) 0.3740(5) 0.1025(2)
H36 H 0.5596 0.3893 0.1280
Br1 Br 0.12829(4) 0.12676(5) 0.11550(2)
loop_
_geom_bond_atom_site_label_1
_geom_bond_atom_site_label_2
_geom_bond_site_symmetry_1
_geom_bond_site_symmetry_2
I1 C9 1_555 1_555
I2 C17 1_555 1_555
I3 C25 1_555 1_555
I4 C33 1_555 1_555
C1 C2 1_555 1_555
C2 C3 1_555 1_555
C3 H1 1_555 1_555
C4 C3 1_555 1_555
H2 C4 1_555 1_555
C5 C4 1_555 1_555
C6 C5 1_555 1_555
H3 C6 1_555 1_555
C7 C2 1_555 1_555
H4 C7 1_555 1_555
C8 C5 1_555 1_555
C9 C8 1_555 1_555
C10 C1 1_555 1_555
C11 C10 1_555 1_555
H5 C11 1_555 1_555
C12 C11 1_555 1_555
H6 C12 1_555 1_555
C13 C12 1_555 1_555
C14 C13 1_555 1_555
H7 C14 1_555 1_555
C15 C10 1_555 1_555
H8 C15 1_555 1_555
C16 C13 1_555 1_555
C17 C16 1_555 1_555
C18 C1 1_555 1_555
C19 C18 1_555 1_555
H9 C19 1_555 1_555
C20 C19 1_555 1_555
H10 C20 1_555 1_555
C21 C20 1_555 1_555
C22 C21 1_555 1_555
H11 C22 1_555 1_555
C23 C18 1_555 1_555
H12 C23 1_555 1_555
C24 C21 1_555 1_555
C25 C24 1_555 1_555
C26 C1 1_555 1_555
C27 C26 1_555 1_555
H13 C27 1_555 1_555
C28 C27 1_555 1_555
H14 C28 1_555 1_555
C29 C28 1_555 1_555
C30 C29 1_555 1_555
H15 C30 1_555 1_555
C31 C26 1_555 1_555
H16 C31 1_555 1_555
C32 C29 1_555 1_555
C33 C32 1_555 1_555
P1 C34 1_555 1_555
C34 C35 1_555 1_555
C35 H17 1_555 1_555
C36 C35 1_555 1_555
H18 C36 1_555 1_555
C37 C36 1_555 1_555
H19 C37 1_555 1_555
C38 C37 1_555 1_555
H20 C38 1_555 1_555
C39 C34 1_555 1_555
H21 C39 1_555 1_555
C40 P1 1_555 1_555
C41 C40 1_555 1_555
H22 C41 1_555 1_555
C42 C41 1_555 1_555
H23 C42 1_555 1_555
C43 C42 1_555 1_555
H24 C43 1_555 1_555
C44 C43 1_555 1_555
H25 C44 1_555 1_555
C45 C40 1_555 1_555
H26 C45 1_555 1_555
C46 P1 1_555 1_555
C47 C46 1_555 1_555
H27 C47 1_555 1_555
C48 C47 1_555 1_555
H28 C48 1_555 1_555
C49 C48 1_555 1_555
H29 C49 1_555 1_555
C50 C49 1_555 1_555
H30 C50 1_555 1_555
C51 C46 1_555 1_555
H31 C51 1_555 1_555
C52 P1 1_555 1_555
C53 C52 1_555 1_555
H32 C53 1_555 1_555
C54 C53 1_555 1_555
H33 C54 1_555 1_555
C55 C54 1_555 1_555
H34 C55 1_555 1_555
C56 C55 1_555 1_555
H35 C56 1_555 1_555
C57 C52 1_555 1_555
H36 C57 1_555 1_555
C6 C7 1_555 1_555
C14 C15 1_555 1_555
C22 C23 1_555 1_555
C30 C31 1_555 1_555
C38 C39 1_555 1_555
C44 C45 1_555 1_555
C50 C51 1_555 1_555
C56 C57 1_555 1_555

#END
