
#######################################################################
#
#                 Cambridge Crystallographic Data Centre
#                                CCDC 
#
#######################################################################
#
# If this CIF has been generated from an entry in the Cambridge 
# Structural Database, then it will include bibliographic, chemical, 
# crystal, experimental, refinement or atomic coordinate data resulting 
# from the CCDC's data processing and validation procedures.
#
#######################################################################

data_LETDIA
_chemical_formula_moiety         'C33 H16 I4,C24 H20 P1 1+,Cl1 1-'
_chemical_name_systematic        
"tetraphenylphosphonium chloride 1,1',1'',1'''-methanetetrayltetrakis[4-(iodoethynyl)benzene]"
_symmetry_cell_setting           monoclinic
_symmetry_space_group_name_H-M   'I 2/a'
_symmetry_Int_Tables_number      15
_space_group_name_Hall           '-I 2ya'
loop_
_symmetry_equiv_pos_site_id
_symmetry_equiv_pos_as_xyz
1 x,y,z
2 1/2-x,y,-z
3 1/2+x,1/2+y,1/2+z
4 -x,1/2+y,1/2-z
5 -x,-y,-z
6 1/2+x,-y,z
7 1/2-x,1/2-y,1/2-z
8 x,1/2-y,1/2+z
_cell_length_a                   17.3730(6)
_cell_length_b                   17.4497(7)
_cell_length_c                   33.5122(11)
_cell_angle_alpha                90
_cell_angle_beta                 90.168(4)
_cell_angle_gamma                90
_cell_volume                     10159.3
_exptl_crystal_colour            yellow
_exptl_crystal_description       block
_cell_formula_units_Z            8
loop_
_atom_site_label
_atom_site_type_symbol
_atom_site_fract_x
_atom_site_fract_y
_atom_site_fract_z
I1 I 0.49026(3) 0.40527(3) 0.17492(2)
I2 I 0.13996(3) 0.72814(3) 0.55890(2)
I3 I -0.24861(3) 0.37974(3) 0.18170(2)
I4 I 0.12653(3) 0.00174(3) 0.55144(2)
C1 C 0.1284(3) 0.3715(3) 0.36549(18)
C2 C 0.1956(3) 0.3750(3) 0.33515(18)
C3 C 0.2111(4) 0.4438(4) 0.3157(2)
H1 H 0.1840 0.4877 0.3227
C4 C 0.2663(4) 0.4476(4) 0.2862(2)
H2 H 0.2768 0.4945 0.2741
C5 C 0.3060(4) 0.3833(4) 0.2743(2)
C6 C 0.2892(4) 0.3152(4) 0.2927(2)
H3 H 0.3149 0.2709 0.2848
C7 C 0.2350(4) 0.3110(4) 0.32260(19)
H4 H 0.2249 0.2639 0.3345
C8 C 0.3621(4) 0.3908(4) 0.2432(2)
C9 C 0.4066(4) 0.4000(4) 0.2168(2)
C10 C 0.1295(3) 0.4376(4) 0.39568(17)
C11 C 0.0667(4) 0.4494(5) 0.4197(2)
H5 H 0.0227 0.4200 0.4156
C12 C 0.0669(4) 0.5039(5) 0.4501(2)
H6 H 0.0226 0.5117 0.4651
C13 C 0.1313(4) 0.5459(4) 0.4581(2)
C14 C 0.1948(4) 0.5352(5) 0.4344(2)
H7 H 0.2389 0.5643 0.4388
C15 C 0.1937(4) 0.4813(4) 0.4039(2)
H8 H 0.2377 0.4745 0.3885
C16 C 0.1323(5) 0.6006(5) 0.4905(2)
C17 C 0.1352(5) 0.6450(5) 0.5171(2)
C18 C 0.0568(3) 0.3734(3) 0.33751(18)
C19 C 0.0165(4) 0.4390(4) 0.3302(2)
H9 H 0.0291 0.4830 0.3444
C20 C -0.0420(4) 0.4427(4) 0.3026(2)
H10 H -0.0681 0.4885 0.2984
C21 C -0.0621(4) 0.3769(4) 0.2808(2)
C22 C -0.0197(4) 0.3111(4) 0.2874(2)
H11 H -0.0316 0.2670 0.2731
C23 C 0.0396(4) 0.3090(4) 0.3145(2)
H12 H 0.0684 0.2645 0.3175
C24 C -0.1223(4) 0.3786(4) 0.2512(2)
C25 C -0.1682(4) 0.3791(5) 0.2247(2)
C26 C 0.1318(3) 0.2991(4) 0.39237(18)
C27 C 0.0682(4) 0.2559(4) 0.4008(2)
H13 H 0.0223 0.2660 0.3875
C28 C 0.0707(4) 0.1977(4) 0.4287(2)
H14 H 0.0271 0.1681 0.4332
C29 C 0.1372(4) 0.1829(4) 0.45002(19)
C30 C 0.2024(4) 0.2255(4) 0.44097(19)
H15 H 0.2485 0.2154 0.4542
C31 C 0.1998(3) 0.2818(4) 0.41313(19)
H16 H 0.2441 0.3096 0.4077
C32 C 0.1372(4) 0.1259(4) 0.4820(2)
C33 C 0.1322(4) 0.0820(4) 0.5087(2)
P1 P 0.00054(10) 0.76170(10) 0.37824(5)
C34 C 0.0602(4) 0.7098(4) 0.3439(2)
C35 C 0.1375(4) 0.7044(4) 0.3494(3)
H17 H 0.1608 0.7266 0.3716
C36 C 0.1813(6) 0.6652(6) 0.3214(4)
H18 H 0.2344 0.6634 0.3246
C37 C 0.1499(8) 0.6308(6) 0.2907(4)
H19 H 0.1808 0.6040 0.2729
C38 C 0.0735(8) 0.6339(5) 0.2846(2)
H20 H 0.0527 0.6091 0.2625
C39 C 0.0236(5) 0.6736(5) 0.3109(2)
H21 H -0.0293 0.6759 0.3068
C40 C -0.0486(4) 0.6962(4) 0.4108(2)
C41 C -0.0705(4) 0.6251(4) 0.3967(2)
H22 H -0.0583 0.6101 0.3709
C42 C -0.1111(5) 0.5763(5) 0.4219(3)
H23 H -0.1258 0.5282 0.4128
C43 C -0.1292(5) 0.5976(6) 0.4589(3)
H24 H -0.1572 0.5645 0.4750
C44 C -0.1072(6) 0.6667(6) 0.4734(3)
H25 H -0.1201 0.6803 0.4993
C45 C -0.0658(5) 0.7176(5) 0.4499(2)
H26 H -0.0500 0.7647 0.4599
C46 C 0.0593(4) 0.8260(4) 0.4057(2)
C47 C 0.1067(5) 0.7984(6) 0.4358(3)
H27 H 0.1053 0.7470 0.4432
C48 C 0.1567(6) 0.8498(9) 0.4550(3)
H28 H 0.1895 0.8327 0.4751
C49 C 0.1570(6) 0.9260(8) 0.4438(4)
H29 H 0.1905 0.9598 0.4565
C50 C 0.1117(6) 0.9512(7) 0.4161(3)
H30 H 0.1127 1.0029 0.4093
C51 C 0.0612(4) 0.9019(5) 0.3963(3)
H31 H 0.0287 0.9209 0.3766
C52 C -0.0697(4) 0.8168(4) 0.3512(2)
C53 C -0.1384(4) 0.8327(4) 0.3683(2)
H32 H -0.1504 0.8126 0.3932
C54 C -0.1915(5) 0.8798(5) 0.3480(3)
H33 H -0.2386 0.8921 0.3595
C55 C -0.1723(6) 0.9074(5) 0.3107(3)
H34 H -0.2074 0.9384 0.2972
C56 C -0.1054(6) 0.8913(5) 0.2933(3)
H35 H -0.0949 0.9100 0.2679
C57 C -0.0504(5) 0.8458(5) 0.3136(2)
H36 H -0.0027 0.8355 0.3022
Cl1 Cl 0.62562(8) 0.37289(8) 0.11572(3)
loop_
_geom_bond_atom_site_label_1
_geom_bond_atom_site_label_2
_geom_bond_site_symmetry_1
_geom_bond_site_symmetry_2
I1 C9 1_555 1_555
I2 C17 1_555 1_555
I3 C25 1_555 1_555
I4 C33 1_555 1_555
C1 C2 1_555 1_555
C2 C3 1_555 1_555
C3 H1 1_555 1_555
C4 C3 1_555 1_555
H2 C4 1_555 1_555
C5 C4 1_555 1_555
C6 C5 1_555 1_555
H3 C6 1_555 1_555
C7 C2 1_555 1_555
H4 C7 1_555 1_555
C8 C5 1_555 1_555
C9 C8 1_555 1_555
C10 C1 1_555 1_555
C11 C10 1_555 1_555
H5 C11 1_555 1_555
C12 C11 1_555 1_555
H6 C12 1_555 1_555
C13 C12 1_555 1_555
C14 C13 1_555 1_555
H7 C14 1_555 1_555
C15 C10 1_555 1_555
H8 C15 1_555 1_555
C16 C13 1_555 1_555
C17 C16 1_555 1_555
C18 C1 1_555 1_555
C19 C18 1_555 1_555
H9 C19 1_555 1_555
C20 C19 1_555 1_555
H10 C20 1_555 1_555
C21 C20 1_555 1_555
C22 C21 1_555 1_555
H11 C22 1_555 1_555
C23 C18 1_555 1_555
H12 C23 1_555 1_555
C24 C21 1_555 1_555
C25 C24 1_555 1_555
C26 C1 1_555 1_555
C27 C26 1_555 1_555
H13 C27 1_555 1_555
C28 C27 1_555 1_555
H14 C28 1_555 1_555
C29 C28 1_555 1_555
C30 C29 1_555 1_555
H15 C30 1_555 1_555
C31 C26 1_555 1_555
H16 C31 1_555 1_555
C32 C29 1_555 1_555
C33 C32 1_555 1_555
P1 C34 1_555 1_555
C34 C35 1_555 1_555
C35 H17 1_555 1_555
C36 C35 1_555 1_555
H18 C36 1_555 1_555
C37 C36 1_555 1_555
H19 C37 1_555 1_555
C38 C37 1_555 1_555
H20 C38 1_555 1_555
C39 C34 1_555 1_555
H21 C39 1_555 1_555
C40 P1 1_555 1_555
C41 C40 1_555 1_555
H22 C41 1_555 1_555
C42 C41 1_555 1_555
H23 C42 1_555 1_555
C43 C42 1_555 1_555
H24 C43 1_555 1_555
C44 C43 1_555 1_555
H25 C44 1_555 1_555
C45 C40 1_555 1_555
H26 C45 1_555 1_555
C46 P1 1_555 1_555
C47 C46 1_555 1_555
H27 C47 1_555 1_555
C48 C47 1_555 1_555
H28 C48 1_555 1_555
C49 C48 1_555 1_555
H29 C49 1_555 1_555
C50 C49 1_555 1_555
H30 C50 1_555 1_555
C51 C46 1_555 1_555
H31 C51 1_555 1_555
C52 P1 1_555 1_555
C53 C52 1_555 1_555
H32 C53 1_555 1_555
C54 C53 1_555 1_555
H33 C54 1_555 1_555
C55 C54 1_555 1_555
H34 C55 1_555 1_555
C56 C55 1_555 1_555
H35 C56 1_555 1_555
C57 C52 1_555 1_555
H36 C57 1_555 1_555
C6 C7 1_555 1_555
C14 C15 1_555 1_555
C22 C23 1_555 1_555
C30 C31 1_555 1_555
C38 C39 1_555 1_555
C44 C45 1_555 1_555
C50 C51 1_555 1_555
C56 C57 1_555 1_555

#END
