
#######################################################################
#
#                 Cambridge Crystallographic Data Centre
#                                CCDC 
#
#######################################################################
#
# If this CIF has been generated from an entry in the Cambridge 
# Structural Database, then it will include bibliographic, chemical, 
# crystal, experimental, refinement or atomic coordinate data resulting 
# from the CCDC's data processing and validation procedures.
#
#######################################################################

data_LETXAJ10
_chemical_name_common            "9,2'-Cyclo-bicyclomycin hemihydrate"
_chemical_formula_moiety         'C12 H16 N2 O6,0.5(H2 O1)'
_chemical_name_systematic        
'1,4-Epoxypropano-4,9-dihydroxy-8-hydroxymethyl-8-methyl-13-methylene-7-oxa-2,5-diazabicyclo(4.3.0)non-5-en-3-one hemihydrate'
_symmetry_cell_setting           monoclinic
_symmetry_space_group_name_H-M   'P 21'
_symmetry_Int_Tables_number      4
_space_group_name_Hall           'P 2yb'
loop_
_symmetry_equiv_pos_site_id
_symmetry_equiv_pos_as_xyz
1 x,y,z
2 -x,1/2+y,-z
_cell_length_a                   10.228(3)
_cell_length_b                   12.349(4)
_cell_length_c                   11.564(2)
_cell_angle_alpha                90
_cell_angle_beta                 112.00(2)
_cell_angle_gamma                90
_cell_volume                     1354.24
_exptl_crystal_colour            colorless
_chemical_melting_point          199-201deg.C
_cell_formula_units_Z            4
loop_
_atom_site_label
_atom_site_type_symbol
_atom_site_fract_x
_atom_site_fract_y
_atom_site_fract_z
C1 C 0.2933(3) 0.6861 0.1832(3)
O1 O 0.2292(3) 0.7894(4) 0.1715(3)
C2 C 0.3115(8) 0.8856(7) 0.1904(8)
C3 C 0.3904(8) 0.9015(8) 0.0960(7)
C4 C 0.5427(5) 0.8494(5) 0.1462(4)
C5 C 0.5569(3) 0.7261(5) 0.1666(3)
C6 C 0.5460(3) 0.6988(4) 0.2944(3)
N1 N 0.4182(3) 0.6770(4) 0.2938(3)
C7 C 0.3320(3) 0.6588(4) 0.0721(3)
N2 N 0.4478(3) 0.6727(4) 0.0601(3)
C8 C 0.1836(3) 0.5981(5) 0.1712(3)
C9 C 0.1108(3) 0.5796(5) 0.0277(3)
O2 O 0.2238(2) 0.6101(4) -0.0172(2)
C10 C 0.6385(7) 0.9035(7) 0.1313(8)
O3 O 0.6861(3) 0.6852(4) 0.1697(2)
O4 O 0.6538(2) 0.6979(4) 0.3896(2)
O5 O 0.0893(3) 0.6289(4) 0.2284(3)
C11 C 0.0781(4) 0.4612(5) -0.0035(4)
C12 C -0.0144(4) 0.6544(5) -0.0313(3)
O6 O -0.0608(3) 0.6434(4) -0.1641(2)
C13 C 0.3096(3) 0.7457(4) 0.6910(3)
O7 O 0.2761(3) 0.8576(4) 0.6711(2)
C14 C 0.3838(4) 0.9340(5) 0.6722(4)
C15 C 0.4399(4) 0.9165(5) 0.5683(4)
C16 C 0.5690(4) 0.8453(5) 0.6024(3)
C17 C 0.5560(3) 0.7275(5) 0.6367(3)
C18 C 0.5656(3) 0.7184(5) 0.7744(3)
N3 N 0.4413(3) 0.7254(4) 0.7919(3)
C19 C 0.3184(3) 0.6900(4) 0.5775(3)
N4 N 0.4251(3) 0.6794(4) 0.5483(2)
C20 C 0.1776(3) 0.6920(5) 0.6996(3)
C21 C 0.0876(3) 0.6642(5) 0.5619(3)
O8 O 0.1959(2) 0.6446(4) 0.5076(2)
C22 C 0.6905(5) 0.8827(5) 0.6040(5)
O9 O 0.6695(3) 0.6640(4) 0.6349(2)
O10 O 0.6776(3) 0.7059(5) 0.8587(2)
O11 O 0.1086(3) 0.7621(4) 0.7545(3)
C23 C 0.0052(5) 0.5593(5) 0.5470(5)
C24 C -0.0032(4) 0.7585(5) 0.4892(4)
O12 O -0.0577(3) 0.7373(5) 0.3577(3)
O13 O -0.1334(4) 0.4919(5) 0.1821(3)
C25? C 0.2934(12) 0.8832(11) 0.1316(12)
C26? C 0.4382(13) 0.9091(13) 0.1963(13)
loop_
_geom_bond_atom_site_label_1
_geom_bond_atom_site_label_2
_geom_bond_site_symmetry_1
_geom_bond_site_symmetry_2
C1 O1 1_555 1_555
O1 C2 1_555 1_555
C2 C3 1_555 1_555
C3 C4 1_555 1_555
C4 C5 1_555 1_555
C5 C6 1_555 1_555
C6 N1 1_555 1_555
N1 C1 1_555 1_555
C7 C1 1_555 1_555
N2 C5 1_555 1_555
C8 C1 1_555 1_555
C9 C8 1_555 1_555
O2 C7 1_555 1_555
C10 C4 1_555 1_555
O3 C5 1_555 1_555
O4 C6 1_555 1_555
O5 C8 1_555 1_555
C11 C9 1_555 1_555
C12 C9 1_555 1_555
O6 C12 1_555 1_555
C13 O7 1_555 1_555
O7 C14 1_555 1_555
C14 C15 1_555 1_555
C15 C16 1_555 1_555
C16 C17 1_555 1_555
C17 C18 1_555 1_555
C18 N3 1_555 1_555
N3 C13 1_555 1_555
C19 C13 1_555 1_555
N4 C17 1_555 1_555
C20 C13 1_555 1_555
C21 C20 1_555 1_555
O8 C19 1_555 1_555
C22 C16 1_555 1_555
O9 C17 1_555 1_555
O10 C18 1_555 1_555
O11 C20 1_555 1_555
C23 C21 1_555 1_555
C24 C21 1_555 1_555
O12 C24 1_555 1_555
C7 N2 1_555 1_555
C9 O2 1_555 1_555
C19 N4 1_555 1_555
C21 O8 1_555 1_555

#END
