
#######################################################################
#
#                 Cambridge Crystallographic Data Centre
#                                CCDC 
#
#######################################################################
#
# If this CIF has been generated from an entry in the Cambridge 
# Structural Database, then it will include bibliographic, chemical, 
# crystal, experimental, refinement or atomic coordinate data resulting 
# from the CCDC's data processing and validation procedures.
#
#######################################################################

data_LETYIS
_chemical_formula_moiety         'C16 H12 F3 N1 O1 S1'
_chemical_name_systematic        
N-Trifluoroacetyl-1-thia-10-aza(2.2)metacyclophane
_symmetry_cell_setting           monoclinic
_symmetry_space_group_name_H-M   'P 21/c'
_symmetry_Int_Tables_number      14
_space_group_name_Hall           '-P 2ybc'
loop_
_symmetry_equiv_pos_site_id
_symmetry_equiv_pos_as_xyz
1 x,y,z
2 -x,1/2+y,1/2-z
3 -x,-y,-z
4 x,1/2-y,1/2+z
_cell_length_a                   5.428(1)
_cell_length_b                   16.478(1)
_cell_length_c                   16.607(1)
_cell_angle_alpha                90
_cell_angle_beta                 98.66(1)
_cell_angle_gamma                90
_cell_volume                     1468.44
_chemical_melting_point          122deg.C
_cell_formula_units_Z            4
loop_
_atom_site_label
_atom_site_type_symbol
_atom_site_fract_x
_atom_site_fract_y
_atom_site_fract_z
S1 S 0.4115(2) 0.5465(1) 0.0904(1)
C1 C 0.2314(10) 0.4516(3) 0.0985(3)
C2 C 0.2373(8) 0.4268(2) 0.1857(3)
C3 C 0.4419(8) 0.3857(2) 0.2294(3)
C4 C 0.4684(8) 0.3808(2) 0.3133(3)
C5 C 0.3084(8) 0.4211(2) 0.3561(3)
C6 C 0.1036(7) 0.4617(2) 0.3138(2)
C7 C 0.0636(8) 0.4597(2) 0.2295(2)
C8 C -0.0303(8) 0.5232(2) 0.3576(2)
N1 N 0.1038(6) 0.6032(2) 0.3589(2)
C9 C 0.1174(7) 0.6371(2) 0.2796(2)
C10 C -0.0638(8) 0.6895(2) 0.2428(2)
C11 C -0.0792(9) 0.7062(2) 0.1608(2)
C12 C 0.0688(8) 0.6659(2) 0.1132(2)
C13 C 0.2531(7) 0.6125(2) 0.1493(2)
C14 C 0.2865(7) 0.6029(2) 0.2336(2)
C15 C 0.1992(8) 0.6350(2) 0.4303(2)
O1 O 0.1793(8) 0.6062(2) 0.4964(2)
C16 C 0.3497(9) 0.7133(3) 0.4303(2)
F1 F 0.2084(7) 0.7758(2) 0.4010(2)
F2 F 0.5310(6) 0.7086(2) 0.3843(2)
F3 F 0.4544(6) 0.7333(2) 0.5038(2)
H1 H 0.0600(10) 0.4600(3) 0.0735(3)
H2 H 0.3009(10) 0.4085(3) 0.0691(3)
H3 H 0.5599(8) 0.3618(2) 0.2017(3)
H4 H 0.5965(8) 0.3496(2) 0.3412(3)
H5 H 0.3365(8) 0.4213(2) 0.4127(3)
H6 H -0.0836(8) 0.4811(2) 0.2016(2)
H7 H -0.0359(8) 0.5051(2) 0.4129(2)
H8 H -0.2001(8) 0.5293(2) 0.3302(2)
H9 H -0.1749(8) 0.7134(2) 0.2732(2)
H10 H -0.1913(9) 0.7452(2) 0.1372(2)
H11 H 0.0461(8) 0.6743(2) 0.0572(2)
H12 H 0.4223(7) 0.5736(2) 0.2595(2)
loop_
_geom_bond_atom_site_label_1
_geom_bond_atom_site_label_2
_geom_bond_site_symmetry_1
_geom_bond_site_symmetry_2
S1 C1 1_555 1_555
C1 C2 1_555 1_555
C2 C3 1_555 1_555
C3 C4 1_555 1_555
C4 C5 1_555 1_555
C5 C6 1_555 1_555
C6 C7 1_555 1_555
C7 C2 1_555 1_555
C8 C6 1_555 1_555
N1 C8 1_555 1_555
C9 N1 1_555 1_555
C10 C9 1_555 1_555
C11 C10 1_555 1_555
C12 C11 1_555 1_555
C13 S1 1_555 1_555
C14 C9 1_555 1_555
C15 N1 1_555 1_555
O1 C15 1_555 1_555
C16 C15 1_555 1_555
F1 C16 1_555 1_555
F2 C16 1_555 1_555
F3 C16 1_555 1_555
H1 C1 1_555 1_555
H2 C1 1_555 1_555
H3 C3 1_555 1_555
H4 C4 1_555 1_555
H5 C5 1_555 1_555
H6 C7 1_555 1_555
H7 C8 1_555 1_555
H8 C8 1_555 1_555
H9 C10 1_555 1_555
H10 C11 1_555 1_555
H11 C12 1_555 1_555
H12 C14 1_555 1_555
C12 C13 1_555 1_555
C13 C14 1_555 1_555

#END
