
#######################################################################
#
#                 Cambridge Crystallographic Data Centre
#                                CCDC 
#
#######################################################################
#
# If this CIF has been generated from an entry in the Cambridge 
# Structural Database, then it will include bibliographic, chemical, 
# crystal, experimental, refinement or atomic coordinate data resulting 
# from the CCDC's data processing and validation procedures.
#
#######################################################################

data_LEVDOH
_chemical_formula_moiety         'C24 H2 F10 O4 S2'
_chemical_name_systematic        
2,7-bis(pentafluorobenzoyl)-benzo[1,2-b:6,5-b']dithiophene-4,5-dione
_symmetry_cell_setting           monoclinic
_symmetry_space_group_name_H-M   'P 21/n'
_symmetry_Int_Tables_number      14
_space_group_name_Hall           '-P 2yn'
loop_
_symmetry_equiv_pos_site_id
_symmetry_equiv_pos_as_xyz
1 x,y,z
2 1/2-x,1/2+y,1/2-z
3 -x,-y,-z
4 1/2+x,1/2-y,1/2+z
_cell_length_a                   6.9519(12)
_cell_length_b                   7.8710(13)
_cell_length_c                   38.831(7)
_cell_angle_alpha                90
_cell_angle_beta                 92.118(3)
_cell_angle_gamma                90
_cell_volume                     2123.32
_exptl_crystal_colour            red
_exptl_crystal_description       plates
_cell_formula_units_Z            4
loop_
_atom_site_label
_atom_site_type_symbol
_atom_site_fract_x
_atom_site_fract_y
_atom_site_fract_z
S1 S 0.03841(9) 0.78211(8) 0.282942(16)
S2 S 0.06421(10) 0.80303(8) 0.194826(16)
F1 F 0.3814(2) 0.9120(2) 0.07641(4)
F2 F 0.3155(3) 1.0811(2) 0.01712(4)
F3 F -0.0317(3) 1.2273(2) 0.00335(4)
F4 F -0.3197(3) 1.1910(2) 0.04796(5)
F5 F -0.2581(2) 1.0192(2) 0.10698(4)
F6 F -0.3077(2) 0.9812(2) 0.37199(4)
F7 F -0.3422(3) 1.1426(2) 0.43276(5)
F8 F -0.0381(3) 1.1563(2) 0.47854(4)
F9 F 0.3010(2) 1.0105(2) 0.46326(4)
F10 F 0.3394(2) 0.8564(2) 0.40213(4)
O1 O -0.0838(3) 1.3991(2) 0.27779(5)
O2 O -0.0538(3) 1.4172(2) 0.20784(5)
O3 O 0.1766(3) 0.7223(2) 0.12491(5)
O4 O 0.0832(3) 0.6621(2) 0.35476(5)
C1 C 0.0145(4) 0.9006(3) 0.32037(6)
C2 C -0.0164(4) 1.0685(3) 0.31357(7)
H1 H -0.0325 1.1502 0.3305
C3 C -0.0213(4) 1.1044(3) 0.27815(7)
C4 C 0.0090(3) 0.9614(3) 0.25843(7)
C5 C 0.0163(4) 0.9692(3) 0.22134(7)
C6 C -0.0097(4) 1.1200(3) 0.20355(7)
C7 C -0.0410(4) 1.2806(3) 0.22185(6)
C8 C -0.0518(4) 1.2708(3) 0.26197(7)
C9 C 0.0078(4) 1.0995(3) 0.16781(7)
H2 H -0.0074 1.1871 0.1519
C10 C 0.0499(4) 0.9354(3) 0.15924(6)
C11 C 0.1016(4) 0.8612(3) 0.12627(7)
C12 C 0.0654(4) 0.9631(3) 0.09406(7)
C13 C 0.2071(4) 0.9806(3) 0.07014(7)
C14 C 0.1755(4) 1.0683(4) 0.03995(7)
C15 C -0.0002(5) 1.1417(4) 0.03259(7)
C16 C -0.1468(4) 1.1240(4) 0.05541(7)
C17 C -0.1120(4) 1.0365(4) 0.08568(7)
C18 C 0.0393(4) 0.8110(3) 0.35302(6)
C19 C 0.0167(4) 0.9111(3) 0.38585(7)
C20 C -0.1553(4) 0.9892(4) 0.39411(7)
C21 C -0.1746(4) 1.0708(4) 0.42518(7)
C22 C -0.0206(4) 1.0764(3) 0.44866(7)
C23 C 0.1517(4) 1.0018(3) 0.44098(7)
C24 C 0.1682(4) 0.9220(3) 0.40970(7)
loop_
_geom_bond_atom_site_label_1
_geom_bond_atom_site_label_2
_geom_bond_site_symmetry_1
_geom_bond_site_symmetry_2
S1 C1 1_555 1_555
S2 C5 1_555 1_555
F1 C13 1_555 1_555
F2 C14 1_555 1_555
F3 C15 1_555 1_555
F4 C16 1_555 1_555
F5 C17 1_555 1_555
F6 C20 1_555 1_555
F7 C21 1_555 1_555
F8 C22 1_555 1_555
F9 C23 1_555 1_555
F10 C24 1_555 1_555
O1 C8 1_555 1_555
O2 C7 1_555 1_555
O3 C11 1_555 1_555
O4 C18 1_555 1_555
C1 C2 1_555 1_555
C2 H1 1_555 1_555
C3 C2 1_555 1_555
C4 S1 1_555 1_555
C5 C4 1_555 1_555
C6 C5 1_555 1_555
C7 C6 1_555 1_555
C8 C3 1_555 1_555
C9 C6 1_555 1_555
H2 C9 1_555 1_555
C10 S2 1_555 1_555
C11 C10 1_555 1_555
C12 C11 1_555 1_555
C13 C12 1_555 1_555
C14 C13 1_555 1_555
C15 C14 1_555 1_555
C16 C15 1_555 1_555
C17 C12 1_555 1_555
C18 C1 1_555 1_555
C19 C18 1_555 1_555
C20 C19 1_555 1_555
C21 C20 1_555 1_555
C22 C21 1_555 1_555
C23 C22 1_555 1_555
C24 C19 1_555 1_555
C3 C4 1_555 1_555
C7 C8 1_555 1_555
C9 C10 1_555 1_555
C16 C17 1_555 1_555
C23 C24 1_555 1_555

#END
