
#######################################################################
#
#                 Cambridge Crystallographic Data Centre
#                                CCDC 
#
#######################################################################
#
# If this CIF has been generated from an entry in the Cambridge 
# Structural Database, then it will include bibliographic, chemical, 
# crystal, experimental, refinement or atomic coordinate data resulting 
# from the CCDC's data processing and validation procedures.
#
#######################################################################

data_LEVDIC
_chemical_formula_moiety         'C23 H17 Cl1 N2 O3 S2'
_chemical_name_systematic        
7-[(4-chlorophenyl)sulfonyl]-8-methyl-7,8-dihydroindolo[3,2-b][1,4]benzothiazocin-6(5H)-one
_symmetry_cell_setting           rhombohedral
_symmetry_space_group_name_H-M   'R -3'
_symmetry_Int_Tables_number      148
_space_group_name_Hall           '-R 3'
loop_
_symmetry_equiv_pos_site_id
_symmetry_equiv_pos_as_xyz
1 x,y,z
2 -y,x-y,z
3 -x+y,-x,z
4 2/3+x,1/3+y,1/3+z
5 2/3-y,1/3+x-y,1/3+z
6 2/3-x+y,1/3-x,1/3+z
7 1/3+x,2/3+y,2/3+z
8 1/3-y,2/3+x-y,2/3+z
9 1/3-x+y,2/3-x,2/3+z
10 -x,-y,-z
11 y,-x+y,-z
12 x-y,x,-z
13 1/3-x,2/3-y,2/3-z
14 1/3+y,2/3-x+y,2/3-z
15 1/3+x-y,2/3+x,2/3-z
16 2/3-x,1/3-y,1/3-z
17 2/3+y,1/3-x+y,1/3-z
18 2/3+x-y,1/3+x,1/3-z
_cell_length_a                   31.8220(18)
_cell_length_b                   31.8220(18)
_cell_length_c                   13.3046(5)
_cell_angle_alpha                90
_cell_angle_beta                 90
_cell_angle_gamma                120
_cell_volume                     11667.8
_exptl_crystal_colour            colorless
_exptl_crystal_description       block
_cell_formula_units_Z            18
loop_
_atom_site_label
_atom_site_type_symbol
_atom_site_fract_x
_atom_site_fract_y
_atom_site_fract_z
Cl1 Cl 0.38489(3) 0.10628(4) 0.90051(5)
S1 S 0.40179(2) -0.05733(2) 0.83421(4)
S2 S 0.43180(2) 0.00759(2) 0.55062(4)
O1 O 0.51199(6) 0.02508(6) 0.68321(11)
O2 O 0.47553(7) 0.04138(6) 0.50196(11)
O3 O 0.38848(7) -0.02131(7) 0.49394(12)
N1 N 0.38019(7) -0.11597(7) 0.56446(14)
N2 N 0.44192(7) -0.03373(7) 0.60939(13)
C1 C 0.31938(9) -0.18189(10) 0.7866(2)
H1 H 0.319412 -0.174816 0.856030
C2 C 0.29132(10) -0.22828(10) 0.7518(2)
H2 H 0.272835 -0.253592 0.798231
C3 C 0.28918(10) -0.23938(10) 0.6490(2)
H3 H 0.268762 -0.271800 0.626925
C4 C 0.31639(9) -0.20372(10) 0.5798(2)
H4 H 0.314602 -0.210905 0.510070
C5 C 0.34651(9) -0.15696(9) 0.61531(17)
C6 C 0.34794(8) -0.14514(9) 0.71871(18)
C7 C 0.38328(8) -0.09463(9) 0.72776(17)
C8 C 0.40154(8) -0.07890(9) 0.63323(16)
C9 C 0.45053(9) -0.06282(9) 0.88523(16)
C10 C 0.45174(10) -0.06416(10) 0.99055(17)
H5 H 0.426080 -0.065033 1.028691
C11 C 0.49013(11) -0.06420(11) 1.03901(19)
H6 H 0.491212 -0.064070 1.110368
C12 C 0.52665(11) -0.06444(11) 0.98484(19)
H7 H 0.552398 -0.065604 1.018404
C13 C 0.52576(9) -0.06294(9) 0.87980(17)
H8 H 0.551060 -0.063195 0.842395
C14 C 0.48849(9) -0.06109(8) 0.82922(15)
C15 C 0.49170(9) -0.05723(9) 0.71462(16)
H9 H 0.524085 -0.051182 0.693468
H10 H 0.467193 -0.088734 0.685615
C16 C 0.48378(8) -0.01762(9) 0.67149(16)
C17 C 0.39187(10) -0.11392(10) 0.45787(16)
H11 H 0.367883 -0.110373 0.418167
H12 H 0.391306 -0.143896 0.438380
H13 H 0.424256 -0.086116 0.445461
C18 C 0.41862(9) 0.03628(8) 0.64745(15)
C19 C 0.45575(9) 0.07845(9) 0.68885(16)
H14 H 0.487905 0.092377 0.663628
C20 C 0.44505(10) 0.10004(10) 0.76817(17)
H15 H 0.469842 0.128993 0.798057
C21 C 0.39802(10) 0.07887(10) 0.80276(17)
C22 C 0.36089(10) 0.03688(10) 0.76161(18)
H16 H 0.328784 0.023016 0.787068
C23 C 0.37134(9) 0.01533(9) 0.68242(18)
H17 H 0.346388 -0.013490 0.652421
loop_
_geom_bond_atom_site_label_1
_geom_bond_atom_site_label_2
_geom_bond_site_symmetry_1
_geom_bond_site_symmetry_2
Cl1 C21 1_555 1_555
S1 C7 1_555 1_555
S2 O2 1_555 1_555
O1 C16 1_555 1_555
O3 S2 1_555 1_555
N1 C5 1_555 1_555
N2 S2 1_555 1_555
C1 H1 1_555 1_555
C2 C1 1_555 1_555
H2 C2 1_555 1_555
C3 C2 1_555 1_555
H3 C3 1_555 1_555
C4 C3 1_555 1_555
H4 C4 1_555 1_555
C5 C4 1_555 1_555
C6 C1 1_555 1_555
C7 C6 1_555 1_555
C8 N1 1_555 1_555
C9 S1 1_555 1_555
C10 C9 1_555 1_555
H5 C10 1_555 1_555
C11 C10 1_555 1_555
H6 C11 1_555 1_555
C12 C11 1_555 1_555
H7 C12 1_555 1_555
C13 C12 1_555 1_555
H8 C13 1_555 1_555
C14 C9 1_555 1_555
C15 C14 1_555 1_555
H9 C15 1_555 1_555
H10 C15 1_555 1_555
C16 N2 1_555 1_555
C17 N1 1_555 1_555
H11 C17 1_555 1_555
H12 C17 1_555 1_555
H13 C17 1_555 1_555
C18 S2 1_555 1_555
C19 C18 1_555 1_555
H14 C19 1_555 1_555
C20 C19 1_555 1_555
H15 C20 1_555 1_555
C21 C20 1_555 1_555
C22 C21 1_555 1_555
H16 C22 1_555 1_555
C23 C18 1_555 1_555
H17 C23 1_555 1_555
N2 C8 1_555 1_555
C5 C6 1_555 1_555
C7 C8 1_555 1_555
C13 C14 1_555 1_555
C15 C16 1_555 1_555
C22 C23 1_555 1_555

#END
