
#######################################################################
#
#                 Cambridge Crystallographic Data Centre
#                                CCDC 
#
#######################################################################
#
# If this CIF has been generated from an entry in the Cambridge 
# Structural Database, then it will include bibliographic, chemical, 
# crystal, experimental, refinement or atomic coordinate data resulting 
# from the CCDC's data processing and validation procedures.
#
#######################################################################

data_LEVDUN
_chemical_formula_moiety         'C26 H10 F6 O4 S2'
_chemical_name_systematic        
2,7-bis(4-trifluoromethylbenzoyl)-benzo[1,2-b:6,5-b']dithiophene-4,5-dione
_symmetry_cell_setting           monoclinic
_symmetry_space_group_name_H-M   'P 21/n'
_symmetry_Int_Tables_number      14
_space_group_name_Hall           '-P 2yn'
loop_
_symmetry_equiv_pos_site_id
_symmetry_equiv_pos_as_xyz
1 x,y,z
2 1/2-x,1/2+y,1/2-z
3 -x,-y,-z
4 1/2+x,1/2-y,1/2+z
_cell_length_a                   8.5420(9)
_cell_length_b                   5.9376(6)
_cell_length_c                   44.370(5)
_cell_angle_alpha                90
_cell_angle_beta                 93.560(2)
_cell_angle_gamma                90
_cell_volume                     2246.06
_exptl_crystal_colour            yellow
_exptl_crystal_description       prism
_cell_formula_units_Z            4
loop_
_atom_site_label
_atom_site_type_symbol
_atom_site_fract_x
_atom_site_fract_y
_atom_site_fract_z
S1 S 0.15434(11) 0.22917(15) 0.016462(19)
S2 S 0.21095(11) 0.06538(15) 0.091041(19)
O1 O 0.5513(3) 0.7304(4) 0.10349(6)
O2 O 0.5168(3) 0.8542(4) 0.04359(6)
O3 O 0.2386(3) -0.2193(4) 0.14555(6)
O4 O 0.0303(3) 0.2185(5) -0.04154(6)
F1 F 0.4276(8) 0.1805(18) 0.29173(15)
F2 F 0.6636(8) 0.0952(15) 0.27973(15)
F3 F 0.5803(13) 0.4273(11) 0.27211(13)
F4 F 0.0429(6) 0.8439(16) -0.16958(16)
F5 F 0.2786(8) 0.7310(10) -0.17049(11)
F6 F 0.2373(12) 1.0534(10) -0.1518(2)
C1 C 0.2003(4) 0.4284(6) -0.01058(7)
C2 C 0.3011(4) 0.5874(6) 0.00157(7)
H1 H 0.3396 0.7097 -0.0096
C3 C 0.3423(4) 0.5511(6) 0.03257(7)
C4 C 0.2694(4) 0.3633(6) 0.04351(7)
C5 C 0.2911(4) 0.2964(5) 0.07488(7)
C6 C 0.3841(4) 0.4183(5) 0.09531(7)
C7 C 0.4683(4) 0.6199(6) 0.08619(8)
C8 C 0.4466(4) 0.6912(6) 0.05241(8)
C9 C 0.3915(4) 0.3231(6) 0.12454(7)
H2 H 0.4507 0.3852 0.1414
C10 C 0.3038(4) 0.1313(6) 0.12579(7)
C11 C 0.2920(4) -0.0316(6) 0.15058(8)
C12 C 0.3529(4) 0.0349(6) 0.18157(7)
C13 C 0.4428(5) -0.1160(6) 0.19869(9)
H3 H 0.4652 -0.2600 0.1907
C14 C 0.5006(5) -0.0592(7) 0.22749(9)
H4 H 0.5642 -0.1627 0.2391
C15 C 0.4655(4) 0.1486(7) 0.23937(8)
C16 C 0.3724(4) 0.2991(6) 0.22275(8)
H5 H 0.3465 0.4403 0.2312
C17 C 0.3170(4) 0.2443(6) 0.19385(8)
H6 H 0.2543 0.3488 0.1822
C18 C 0.1190(4) 0.3809(6) -0.04028(8)
C19 C 0.1377(4) 0.5154(6) -0.06830(7)
C20 C 0.2143(4) 0.7201(6) -0.06962(8)
H7 H 0.2584 0.7867 -0.0516
C21 C 0.2276(4) 0.8285(6) -0.09680(8)
H8 H 0.2809 0.9687 -0.0974
C22 C 0.1635(4) 0.7334(6) -0.12298(7)
C23 C 0.0849(5) 0.5317(6) -0.12218(8)
H9 H 0.0393 0.4674 -0.1403
C24 C 0.0729(4) 0.4239(6) -0.09505(8)
H10 H 0.0192 0.2840 -0.0946
C25 C 0.1754(5) 0.8471(7) -0.15263(9)
C26 C 0.5268(6) 0.2122(9) 0.27048(10)
F7? F 0.562(4) 0.019(4) 0.2855(5)
F8? F 0.467(4) 0.078(4) 0.2909(5)
F9? F 0.637(4) 0.335(7) 0.2683(7)
F10? F 0.669(2) 0.198(5) 0.2741(5)
F11? F 0.413(3) 0.320(6) 0.2843(7)
F12? F 0.483(3) 0.435(3) 0.2773(4)
F13? F 0.112(3) 1.060(4) -0.1507(5)
F14? F 0.041(2) 0.971(4) -0.1596(4)
F15? F 0.092(4) 0.754(5) -0.1759(5)
F16? F 0.200(3) 0.721(3) -0.1743(3)
F17? F 0.307(3) 0.862(5) -0.1603(6)
F18? F 0.290(4) 0.994(5) -0.1506(8)
loop_
_geom_bond_atom_site_label_1
_geom_bond_atom_site_label_2
_geom_bond_site_symmetry_1
_geom_bond_site_symmetry_2
S1 C1 1_555 1_555
S2 C5 1_555 1_555
O1 C7 1_555 1_555
O2 C8 1_555 1_555
O3 C11 1_555 1_555
O4 C18 1_555 1_555
F1 C26 1_555 1_555
F2 C26 1_555 1_555
F3 C26 1_555 1_555
F4 C25 1_555 1_555
F5 C25 1_555 1_555
F6 C25 1_555 1_555
C1 C2 1_555 1_555
C2 H1 1_555 1_555
C3 C2 1_555 1_555
C4 S1 1_555 1_555
C5 C4 1_555 1_555
C6 C5 1_555 1_555
C7 C6 1_555 1_555
C8 C3 1_555 1_555
C9 C6 1_555 1_555
H2 C9 1_555 1_555
C10 S2 1_555 1_555
C11 C10 1_555 1_555
C12 C11 1_555 1_555
C13 C12 1_555 1_555
H3 C13 1_555 1_555
C14 C13 1_555 1_555
H4 C14 1_555 1_555
C15 C14 1_555 1_555
C16 C15 1_555 1_555
H5 C16 1_555 1_555
C17 C12 1_555 1_555
H6 C17 1_555 1_555
C18 C1 1_555 1_555
C19 C18 1_555 1_555
C20 C19 1_555 1_555
H7 C20 1_555 1_555
C21 C20 1_555 1_555
H8 C21 1_555 1_555
C22 C21 1_555 1_555
C23 C22 1_555 1_555
H9 C23 1_555 1_555
C24 C19 1_555 1_555
H10 C24 1_555 1_555
C25 C22 1_555 1_555
C26 C15 1_555 1_555
C3 C4 1_555 1_555
C7 C8 1_555 1_555
C9 C10 1_555 1_555
C16 C17 1_555 1_555
C23 C24 1_555 1_555

#END
