
#######################################################################
#
#                 Cambridge Crystallographic Data Centre
#                                CCDC 
#
#######################################################################
#
# If this CIF has been generated from an entry in the Cambridge 
# Structural Database, then it will include bibliographic, chemical, 
# crystal, experimental, refinement or atomic coordinate data resulting 
# from the CCDC's data processing and validation procedures.
#
#######################################################################

data_LEVDOI
_chemical_formula_moiety         'C23 H19 F1 N2 O3 S2'
_chemical_name_systematic        
N-[(4-fluorophenyl)sulfonyl]-N-[1-methyl-3-(phenylsulfanyl)-1H-indol-2-yl]acetamide
_symmetry_cell_setting           monoclinic
_symmetry_space_group_name_H-M   'P 21/c'
_symmetry_Int_Tables_number      14
_space_group_name_Hall           '-P 2ybc'
loop_
_symmetry_equiv_pos_site_id
_symmetry_equiv_pos_as_xyz
1 x,y,z
2 -x,1/2+y,1/2-z
3 -x,-y,-z
4 x,1/2-y,1/2+z
_cell_length_a                   14.9465(16)
_cell_length_b                   9.9560(8)
_cell_length_c                   14.9447(12)
_cell_angle_alpha                90
_cell_angle_beta                 105.076(10)
_cell_angle_gamma                90
_cell_volume                     2147.34
_exptl_crystal_colour            colorless
_exptl_crystal_description       block
_cell_formula_units_Z            4
loop_
_atom_site_label
_atom_site_type_symbol
_atom_site_fract_x
_atom_site_fract_y
_atom_site_fract_z
S1 S 0.24480(4) 0.53331(6) 0.10404(4)
S2 S 0.18282(5) 0.35229(6) -0.16365(4)
F1 F 0.10287(12) -0.11242(15) 0.03515(12)
O1 O -0.00375(11) 0.40387(17) -0.15497(12)
O2 O 0.28020(12) 0.37406(18) -0.13970(14)
O3 O 0.13329(15) 0.34183(17) -0.25814(11)
N1 N 0.21814(12) 0.69069(18) -0.14278(12)
N2 N 0.14162(12) 0.48708(16) -0.11689(11)
C1 C 0.35886(17) 0.8248(3) 0.06794(19)
H1 H 0.374973 0.800463 0.130149
C2 C 0.39260(19) 0.9409(3) 0.0388(2)
H2 H 0.432201 0.995463 0.082073
C3 C 0.36846(19) 0.9781(3) -0.0541(2)
H3 H 0.392214 1.057290 -0.071522
C4 C 0.31138(16) 0.9022(2) -0.11995(19)
H4 H 0.295473 0.927896 -0.181879
C5 C 0.27744(14) 0.7844(2) -0.09150(15)
C6 C 0.29994(14) 0.7447(2) 0.00158(15)
C7 C 0.25193(14) 0.6215(2) 0.00580(14)
C8 C 0.20356(14) 0.5936(2) -0.08311(14)
C9 C 0.34640(15) 0.4330(2) 0.13423(14)
C10 C 0.35106(18) 0.3408(2) 0.20360(16)
H5 H 0.303185 0.335929 0.232680
C11 C 0.4257(2) 0.2557(3) 0.23056(18)
H6 H 0.428061 0.194128 0.277853
C12 C 0.4957(2) 0.2612(3) 0.18850(19)
H7 H 0.546214 0.203733 0.206560
C13 C 0.4911(2) 0.3521(4) 0.1193(2)
H8 H 0.538894 0.355684 0.090144
C14 C 0.41711(19) 0.4388(3) 0.09161(19)
H9 H 0.415300 0.500518 0.044522
C15 C 0.04669(16) 0.4951(2) -0.12212(15)
C16 C 0.01514(16) 0.6204(2) -0.08521(18)
H10 H 0.046303 0.629448 -0.020697
H11 H -0.050553 0.616114 -0.092527
H12 H 0.029344 0.696169 -0.118640
C17 C 0.15693(16) 0.2137(2) -0.10353(15)
C18 C 0.09404(19) 0.1204(2) -0.14874(18)
H13 H 0.063579 0.132270 -0.210903
C19 C 0.0761(2) 0.0092(3) -0.1021(2)
H14 H 0.034378 -0.055797 -0.132128
C20 C 0.12061(19) -0.0032(2) -0.01128(19)
C21 C 0.1826(2) 0.0879(3) 0.03542(18)
H15 H 0.211483 0.076201 0.097986
C22 C 0.20177(18) 0.1979(2) -0.01165(16)
H16 H 0.244831 0.261170 0.018526
C23 C 0.18191(18) 0.6939(3) -0.24281(15)
H17 H 0.232301 0.689101 -0.271519
H18 H 0.148275 0.775859 -0.260661
H19 H 0.141205 0.618992 -0.262366
loop_
_geom_bond_atom_site_label_1
_geom_bond_atom_site_label_2
_geom_bond_site_symmetry_1
_geom_bond_site_symmetry_2
S1 C7 1_555 1_555
S2 O2 1_555 1_555
F1 C20 1_555 1_555
O1 C15 1_555 1_555
O3 S2 1_555 1_555
N1 C5 1_555 1_555
N2 S2 1_555 1_555
C1 H1 1_555 1_555
C2 C1 1_555 1_555
H2 C2 1_555 1_555
C3 C2 1_555 1_555
H3 C3 1_555 1_555
C4 C3 1_555 1_555
H4 C4 1_555 1_555
C5 C4 1_555 1_555
C6 C1 1_555 1_555
C7 C6 1_555 1_555
C8 N1 1_555 1_555
C9 S1 1_555 1_555
C10 C9 1_555 1_555
H5 C10 1_555 1_555
C11 C10 1_555 1_555
H6 C11 1_555 1_555
C12 C11 1_555 1_555
H7 C12 1_555 1_555
C13 C12 1_555 1_555
H8 C13 1_555 1_555
C14 C9 1_555 1_555
H9 C14 1_555 1_555
C15 N2 1_555 1_555
C16 C15 1_555 1_555
H10 C16 1_555 1_555
H11 C16 1_555 1_555
H12 C16 1_555 1_555
C17 S2 1_555 1_555
C18 C17 1_555 1_555
H13 C18 1_555 1_555
C19 C18 1_555 1_555
H14 C19 1_555 1_555
C20 C19 1_555 1_555
C21 C20 1_555 1_555
H15 C21 1_555 1_555
C22 C17 1_555 1_555
H16 C22 1_555 1_555
C23 N1 1_555 1_555
H17 C23 1_555 1_555
H18 C23 1_555 1_555
H19 C23 1_555 1_555
N2 C8 1_555 1_555
C5 C6 1_555 1_555
C7 C8 1_555 1_555
C13 C14 1_555 1_555
C21 C22 1_555 1_555

#END
