
#######################################################################
#
#                 Cambridge Crystallographic Data Centre
#                                CCDC 
#
#######################################################################
#
# If this CIF has been generated from an entry in the Cambridge 
# Structural Database, then it will include bibliographic, chemical, 
# crystal, experimental, refinement or atomic coordinate data resulting 
# from the CCDC's data processing and validation procedures.
#
#######################################################################

data_LEVFEZ
_chemical_formula_moiety         'C26 H8 F10 N2 O6 S2'
_chemical_name_systematic        
2,7-bis(pentafluorobenzoyl)-benzo[1,2-d:4,3-d']bis(thiazole)-4,5-bis(1,3-dioxolane)
_symmetry_cell_setting           monoclinic
_symmetry_space_group_name_H-M   'P 21/c'
_symmetry_Int_Tables_number      14
_space_group_name_Hall           '-P 2ybc'
loop_
_symmetry_equiv_pos_site_id
_symmetry_equiv_pos_as_xyz
1 x,y,z
2 -x,1/2+y,1/2-z
3 -x,-y,-z
4 x,1/2-y,1/2+z
_cell_length_a                   14.6242(10)
_cell_length_b                   17.9041(13)
_cell_length_c                   21.1195(15)
_cell_angle_alpha                90
_cell_angle_beta                 109.0980(10)
_cell_angle_gamma                90
_cell_volume                     5225.43
_exptl_crystal_colour            orange
_exptl_crystal_description       plates
_cell_formula_units_Z            8
loop_
_atom_site_label
_atom_site_type_symbol
_atom_site_fract_x
_atom_site_fract_y
_atom_site_fract_z
S1 S 0.18793(3) 0.21132(3) 0.29806(2)
S2 S -0.06339(4) 0.23559(3) 0.20373(2)
F1 F 0.56785(9) 0.21586(7) 0.36408(6)
F2 F 0.71811(9) 0.29702(9) 0.43777(7)
F3 F 0.69486(11) 0.39974(9) 0.52571(7)
F4 F 0.52025(12) 0.41584(8) 0.54375(7)
F5 F 0.36927(9) 0.33214(8) 0.47146(6)
F6 F -0.15864(8) 0.34963(7) 0.01892(6)
F7 F -0.25832(10) 0.44377(8) -0.07777(6)
F8 F -0.44337(9) 0.47883(7) -0.09141(6)
F9 F -0.52928(8) 0.42095(7) -0.00649(6)
F10 F -0.43220(8) 0.32527(7) 0.08966(6)
O1 O 0.38854(11) 0.15954(8) 0.36711(8)
O2 O -0.27425(10) 0.22533(8) 0.12388(8)
O3 O 0.21789(9) 0.48332(7) 0.26925(7)
O4 O 0.12044(10) 0.45270(7) 0.33088(6)
O5 O 0.00823(10) 0.50381(7) 0.21162(7)
O6 O 0.08863(10) 0.43950(7) 0.15244(7)
N1 N 0.27942(11) 0.33747(9) 0.32579(8)
N2 N -0.10068(11) 0.37091(9) 0.15968(8)
C1 C 0.29019(14) 0.26527(10) 0.33511(9)
C2 C 0.18664(13) 0.35298(10) 0.28783(9)
C3 C 0.12648(14) 0.29214(10) 0.26858(9)
C4 C 0.02628(14) 0.30155(10) 0.22857(9)
C5 C -0.00750(14) 0.36978(10) 0.20122(9)
C6 C 0.05793(14) 0.43704(10) 0.20947(9)
C7 C 0.14767(13) 0.43218(10) 0.27473(9)
C8 C 0.24456(15) 0.52871(12) 0.32866(11)
H1 H 0.2612 0.5801 0.3191
H2 H 0.3001 0.5069 0.3643
C9 C 0.15463(15) 0.52780(11) 0.34817(11)
H3 H 0.1696 0.5374 0.3967
H4 H 0.1069 0.5650 0.3224
C10 C -0.01033(18) 0.53949(13) 0.14788(12)
H5 H -0.0114 0.5945 0.1521
H6 H -0.0726 0.5227 0.1155
C11 C 0.07284(19) 0.51468(12) 0.12724(12)
H7 H 0.0564 0.5158 0.0779
H8 H 0.1305 0.5463 0.1478
C12 C 0.38086(14) 0.22651(11) 0.37193(9)
C13 C 0.46330(14) 0.27308(11) 0.41425(9)
C14 C 0.55421(15) 0.26463(11) 0.40832(10)
C15 C 0.63184(15) 0.30645(14) 0.44542(11)
C16 C 0.61962(17) 0.35825(13) 0.49012(11)
C17 C 0.53105(18) 0.36705(12) 0.49847(10)
C18 C 0.45377(15) 0.32454(12) 0.46072(10)
C19 C -0.13903(14) 0.30458(11) 0.15623(10)
C20 C -0.23785(14) 0.28368(11) 0.11473(10)
C21 C -0.29075(14) 0.33726(11) 0.05986(10)
C22 C -0.24881(14) 0.36816(11) 0.01569(10)
C23 C -0.29972(16) 0.41580(12) -0.03491(10)
C24 C -0.39401(15) 0.43353(11) -0.04212(10)
C25 C -0.43803(14) 0.40364(11) 0.00063(10)
C26 C -0.38671(14) 0.35506(11) 0.05038(9)
S3 S 0.55335(4) 0.17566(3) 0.20051(2)
S4 S 0.79496(4) 0.20475(3) 0.32250(3)
F11 F 0.17042(9) 0.18858(7) 0.14266(6)
F12 F 0.02766(9) 0.28507(8) 0.08327(7)
F13 F 0.05901(11) 0.39874(9) 0.00767(7)
F14 F 0.23003(12) 0.40905(8) -0.01591(7)
F15 F 0.37070(9) 0.30910(7) 0.03886(6)
F16 F 0.89627(9) 0.34271(8) 0.49781(7)
F17 F 0.99585(10) 0.45075(8) 0.58018(7)
F18 F 1.16572(9) 0.49924(7) 0.57085(6)
F19 F 1.24391(9) 0.43261(7) 0.48582(6)
F20 F 1.15349(9) 0.31498(7) 0.41189(6)
O7 O 0.34403(11) 0.12552(8) 0.12267(7)
O8 O 1.00807(13) 0.20594(9) 0.40490(9)
O9 O 0.55672(10) 0.39400(7) 0.31407(7)
O10 O 0.51944(10) 0.44756(7) 0.21042(7)
O11 O 0.69825(10) 0.41467(7) 0.19977(7)
O12 O 0.70970(10) 0.47243(7) 0.29876(7)
N3 N 0.45442(11) 0.29789(9) 0.18458(8)
N4 N 0.83351(12) 0.34586(9) 0.34096(8)
C27 C 0.44742(14) 0.22699(10) 0.16863(9)
C28 C 0.54600(14) 0.31437(10) 0.22322(9)
C29 C 0.61021(14) 0.25590(10) 0.23781(9)
C30 C 0.70898(14) 0.26806(11) 0.28025(9)
C31 C 0.74291(14) 0.33976(11) 0.29645(9)
C32 C 0.68268(15) 0.40631(10) 0.26256(9)
C33 C 0.57445(14) 0.39172(10) 0.25185(9)
C34 C 0.49898(17) 0.45952(12) 0.31340(11)
H9 H 0.5400 0.5031 0.3333
H10 H 0.4524 0.4507 0.3377
C35 C 0.44764(17) 0.47031(13) 0.23915(11)
H11 H 0.3891 0.4386 0.2231
H12 H 0.4290 0.5232 0.2286
C36 C 0.72074(19) 0.49218(12) 0.19380(12)
H13 H 0.6618 0.5213 0.1705
H14 H 0.7680 0.4980 0.1696
C37 C 0.7636(2) 0.51536(13) 0.26603(13)
H15 H 0.8334 0.5031 0.2839
H16 H 0.7551 0.5696 0.2714
C38 C 0.35582(14) 0.19230(11) 0.12751(10)
C39 C 0.27601(14) 0.24692(11) 0.09389(10)
C40 C 0.18723(15) 0.24237(12) 0.10356(10)
C41 C 0.11360(16) 0.29273(13) 0.07470(10)
C42 C 0.12935(17) 0.34955(13) 0.03552(11)
C43 C 0.21580(18) 0.35491(12) 0.02390(11)
C44 C 0.28848(16) 0.30376(12) 0.05294(11)
C45 C 0.86975(15) 0.27937(11) 0.35899(10)
C46 C 0.96862(16) 0.26546(12) 0.40465(11)
C47 C 1.01990(15) 0.32840(11) 0.44946(10)
C48 C 0.98149(14) 0.36416(12) 0.49330(11)
C49 C 1.03181(15) 0.41943(12) 0.53578(10)
C50 C 1.11945(15) 0.44300(11) 0.53254(10)
C51 C 1.15952(14) 0.40879(11) 0.48939(10)
C52 C 1.11086(15) 0.35047(11) 0.45037(9)
loop_
_geom_bond_atom_site_label_1
_geom_bond_atom_site_label_2
_geom_bond_site_symmetry_1
_geom_bond_site_symmetry_2
S1 C1 1_555 1_555
S2 C4 1_555 1_555
F1 C14 1_555 1_555
F2 C15 1_555 1_555
F3 C16 1_555 1_555
F4 C17 1_555 1_555
F5 C18 1_555 1_555
F6 C22 1_555 1_555
F7 C23 1_555 1_555
F8 C24 1_555 1_555
F9 C25 1_555 1_555
F10 C26 1_555 1_555
O1 C12 1_555 1_555
O2 C20 1_555 1_555
O3 C7 1_555 1_555
O4 C7 1_555 1_555
O5 C6 1_555 1_555
O6 C6 1_555 1_555
N1 C1 1_555 1_555
N2 C5 1_555 1_555
C1 C12 1_555 1_555
C2 N1 1_555 1_555
C3 S1 1_555 1_555
C4 C3 1_555 1_555
C5 C4 1_555 1_555
C6 C5 1_555 1_555
C7 C2 1_555 1_555
C8 O3 1_555 1_555
H1 C8 1_555 1_555
H2 C8 1_555 1_555
C9 O4 1_555 1_555
H3 C9 1_555 1_555
H4 C9 1_555 1_555
C10 O5 1_555 1_555
H5 C10 1_555 1_555
H6 C10 1_555 1_555
C11 O6 1_555 1_555
H7 C11 1_555 1_555
H8 C11 1_555 1_555
C12 C13 1_555 1_555
C13 C14 1_555 1_555
C14 C15 1_555 1_555
C15 C16 1_555 1_555
C16 C17 1_555 1_555
C17 C18 1_555 1_555
C18 C13 1_555 1_555
C19 S2 1_555 1_555
C20 C19 1_555 1_555
C21 C20 1_555 1_555
C22 C21 1_555 1_555
C23 C22 1_555 1_555
C24 C23 1_555 1_555
C25 C24 1_555 1_555
C26 C21 1_555 1_555
S3 C27 1_555 1_555
S4 C30 1_555 1_555
F11 C40 1_555 1_555
F12 C41 1_555 1_555
F13 C42 1_555 1_555
F14 C43 1_555 1_555
F15 C44 1_555 1_555
F16 C48 1_555 1_555
F17 C49 1_555 1_555
F18 C50 1_555 1_555
F19 C51 1_555 1_555
F20 C52 1_555 1_555
O7 C38 1_555 1_555
O8 C46 1_555 1_555
O9 C33 1_555 1_555
O10 C33 1_555 1_555
O11 C32 1_555 1_555
O12 C32 1_555 1_555
N3 C27 1_555 1_555
N4 C31 1_555 1_555
C27 C38 1_555 1_555
C28 N3 1_555 1_555
C29 S3 1_555 1_555
C30 C29 1_555 1_555
C31 C30 1_555 1_555
C32 C31 1_555 1_555
C33 C28 1_555 1_555
C34 O9 1_555 1_555
H9 C34 1_555 1_555
H10 C34 1_555 1_555
C35 O10 1_555 1_555
H11 C35 1_555 1_555
H12 C35 1_555 1_555
C36 O11 1_555 1_555
H13 C36 1_555 1_555
H14 C36 1_555 1_555
C37 O12 1_555 1_555
H15 C37 1_555 1_555
H16 C37 1_555 1_555
C38 C39 1_555 1_555
C39 C40 1_555 1_555
C40 C41 1_555 1_555
C41 C42 1_555 1_555
C42 C43 1_555 1_555
C43 C44 1_555 1_555
C44 C39 1_555 1_555
C45 S4 1_555 1_555
C46 C45 1_555 1_555
C47 C46 1_555 1_555
C48 C47 1_555 1_555
C49 C48 1_555 1_555
C50 C49 1_555 1_555
C51 C50 1_555 1_555
C52 C47 1_555 1_555
N2 C19 1_555 1_555
C2 C3 1_555 1_555
C6 C7 1_555 1_555
C8 C9 1_555 1_555
C10 C11 1_555 1_555
C25 C26 1_555 1_555
N4 C45 1_555 1_555
C28 C29 1_555 1_555
C32 C33 1_555 1_555
C34 C35 1_555 1_555
C36 C37 1_555 1_555
C51 C52 1_555 1_555

#END
