
#######################################################################
#
#                 Cambridge Crystallographic Data Centre
#                                CCDC 
#
#######################################################################
#
# If this CIF has been generated from an entry in the Cambridge 
# Structural Database, then it will include bibliographic, chemical, 
# crystal, experimental, refinement or atomic coordinate data resulting 
# from the CCDC's data processing and validation procedures.
#
#######################################################################

data_LEVGOK
_chemical_formula_moiety         'C27 H13 F5 N2 O5 S4'
_chemical_name_systematic        
2-(5-Pentafluorobenzoyl-thiophen-2-yl)-7-(thiophen-2-yl)-benzo[1,2-d:4,3-d']bis(thiazole)-4,5-bis(1,3-dioxolane)
_symmetry_cell_setting           monoclinic
_symmetry_space_group_name_H-M   'C 2/c'
_symmetry_Int_Tables_number      15
_space_group_name_Hall           '-C 2yn'
loop_
_symmetry_equiv_pos_site_id
_symmetry_equiv_pos_as_xyz
1 x,y,z
2 -x,y,1/2-z
3 1/2+x,1/2+y,z
4 1/2-x,1/2+y,1/2-z
5 -x,-y,-z
6 x,-y,1/2+z
7 1/2-x,1/2-y,-z
8 1/2+x,1/2-y,1/2+z
_cell_length_a                   40.227(8)
_cell_length_b                   7.2753(15)
_cell_length_c                   20.654(4)
_cell_angle_alpha                90
_cell_angle_beta                 116.42(3)
_cell_angle_gamma                90
_cell_volume                     5413.35
_exptl_crystal_colour            yellow
_exptl_crystal_description       prism
_cell_formula_units_Z            8
loop_
_atom_site_label
_atom_site_type_symbol
_atom_site_fract_x
_atom_site_fract_y
_atom_site_fract_z
S1 S 0.87001(12) 0.9355(8) 0.7872(3)
S2 S 0.80403(8) 0.9859(4) 0.55357(15)
S3 S 0.71651(9) 1.0161(4) 0.38927(15)
S4 S 0.59743(13) 1.1111(8) 0.2691(2)
O1 O 0.9329(4) 0.894(3) 0.9374(10)
O2 O 0.7127(2) 0.7435(9) 0.6003(4)
O3 O 0.7259(2) 0.9801(10) 0.6836(4)
O4 O 0.6576(2) 0.9975(10) 0.5544(4)
O5 O 0.6978(2) 1.2408(11) 0.5778(4)
N1 N 0.7930(3) 0.9442(14) 0.6677(5)
N2 N 0.6607(3) 1.0453(13) 0.4190(5)
C1 C 0.9409(6) 0.898(4) 0.8802(16)
C2 C 0.9160(4) 0.899(2) 0.8065(9)
C3 C 0.9211(5) 0.887(3) 0.7424(11)
H1 H 0.9452 0.8754 0.7477
C4 C 0.8889(3) 0.8905(19) 0.6647(8)
H2 H 0.8875 0.8762 0.6188
C5 C 0.8585(3) 0.9297(18) 0.6949(7)
C6 C 0.8188(3) 0.9497(17) 0.6465(6)
C7 C 0.7591(3) 0.9620(16) 0.6106(6)
C8 C 0.7596(3) 0.9872(13) 0.5424(6)
C9 C 0.7243(3) 1.0081(13) 0.4772(5)
C10 C 0.6916(3) 1.0271(14) 0.4815(5)
C11 C 0.6913(3) 1.0426(17) 0.5575(6)
C12 C 0.7233(3) 0.9310(16) 0.6142(6)
C13 C 0.6702(4) 1.0401(17) 0.3652(6)
C14 C 0.6432(4) 1.0624(19) 0.2893(7)
C15 C 0.6506(4) 1.0627(18) 0.2255(6)
H3 H 0.6735 1.0477 0.2253
C16 C 0.6161(7) 1.090(3) 0.1649(12)
H4 H 0.6138 1.0879 0.1181
C17 C 0.5866(6) 1.120(3) 0.1775(9)
H5 H 0.5629 1.1423 0.1412
C18 C 0.7104(3) 0.6720(17) 0.6643(6)
H6 H 0.6850 0.6731 0.6579
H7 H 0.7200 0.5477 0.6751
C19 C 0.7335(3) 0.7993(17) 0.7212(6)
H8 H 0.7596 0.7671 0.7403
H9 H 0.7265 0.8005 0.7605
C20 C 0.6366(4) 1.1547(19) 0.5400(8)
H10 H 0.6188 1.1462 0.5597
H11 H 0.6233 1.1753 0.4883
C21 C 0.6630(5) 1.302(2) 0.5747(10)
H12 H 0.6549 1.4149 0.5468
H13 H 0.6656 1.3251 0.6230
C22 C 0.9846(4) 0.869(3) 0.9035(16)
C23 C 1.0047(5) 1.009(2) 0.8916(17)
C24 C 1.0422(5) 0.985(3) 0.9106(17)
C25 C 1.0596(4) 0.820(3) 0.9414(16)
C26 C 1.0395(5) 0.680(2) 0.9533(16)
C27 C 1.0020(5) 0.704(3) 0.9343(16)
F1 F 0.9883(5) 1.160(3) 0.8569(13)
F2 F 1.0617(5) 1.127(3) 0.9079(14)
F3 F 1.0958(5) 0.816(3) 0.9775(14)
F4 F 1.0537(5) 0.531(3) 0.9863(15)
F5 F 0.9807(5) 0.553(3) 0.9608(15)
loop_
_geom_bond_atom_site_label_1
_geom_bond_atom_site_label_2
_geom_bond_site_symmetry_1
_geom_bond_site_symmetry_2
S1 C2 1_555 1_555
S2 C6 1_555 1_555
S3 C9 1_555 1_555
S4 C14 1_555 1_555
O1 C1 1_555 1_555
O2 C12 1_555 1_555
O3 C12 1_555 1_555
O4 C11 1_555 1_555
O5 C11 1_555 1_555
N1 C6 1_555 1_555
N2 C10 1_555 1_555
C1 C2 1_555 1_555
C2 C3 1_555 1_555
C3 H1 1_555 1_555
C4 C3 1_555 1_555
H2 C4 1_555 1_555
C5 S1 1_555 1_555
C6 C5 1_555 1_555
C7 N1 1_555 1_555
C8 S2 1_555 1_555
C9 C8 1_555 1_555
C10 C9 1_555 1_555
C11 C10 1_555 1_555
C12 C7 1_555 1_555
C13 S3 1_555 1_555
C14 C13 1_555 1_555
C15 C14 1_555 1_555
H3 C15 1_555 1_555
C16 C15 1_555 1_555
H4 C16 1_555 1_555
C17 S4 1_555 1_555
H5 C17 1_555 1_555
C18 O2 1_555 1_555
H6 C18 1_555 1_555
H7 C18 1_555 1_555
C19 O3 1_555 1_555
H8 C19 1_555 1_555
H9 C19 1_555 1_555
C20 O4 1_555 1_555
H10 C20 1_555 1_555
H11 C20 1_555 1_555
C21 O5 1_555 1_555
H12 C21 1_555 1_555
H13 C21 1_555 1_555
C22 C1 1_555 1_555
C23 C22 1_555 1_555
C24 C23 1_555 1_555
C25 C24 1_555 1_555
C26 C25 1_555 1_555
C27 C22 1_555 1_555
F1 C23 1_555 1_555
F2 C24 1_555 1_555
F3 C25 1_555 1_555
F4 C26 1_555 1_555
F5 C27 1_555 1_555
N2 C13 1_555 1_555
C4 C5 1_555 1_555
C7 C8 1_555 1_555
C11 C12 1_555 1_555
C16 C17 1_555 1_555
C18 C19 1_555 1_555
C20 C21 1_555 1_555
C26 C27 1_555 1_555

#END
