
#######################################################################
#
#                 Cambridge Crystallographic Data Centre
#                                CCDC 
#
#######################################################################
#
# If this CIF has been generated from an entry in the Cambridge 
# Structural Database, then it will include bibliographic, chemical, 
# crystal, experimental, refinement or atomic coordinate data resulting 
# from the CCDC's data processing and validation procedures.
#
#######################################################################

data_LEVGIE
_chemical_formula_moiety         'C20 H14 N2 O4 S4'
_chemical_name_systematic        
2,7-bis(thiophen-2-yl)-benzo[1,2-d:4,3-d']bis(thiazole)-4,5-bis(1,3-dioxolane)
_symmetry_cell_setting           monoclinic
_symmetry_space_group_name_H-M   'P 21/c'
_symmetry_Int_Tables_number      14
_space_group_name_Hall           '-P 2ybc'
loop_
_symmetry_equiv_pos_site_id
_symmetry_equiv_pos_as_xyz
1 x,y,z
2 -x,1/2+y,1/2-z
3 -x,-y,-z
4 x,1/2-y,1/2+z
_cell_length_a                   7.4786(8)
_cell_length_b                   21.309(2)
_cell_length_c                   12.5339(13)
_cell_angle_alpha                90
_cell_angle_beta                 94.645(2)
_cell_angle_gamma                90
_cell_volume                     1990.86
_exptl_crystal_colour            yellow
_exptl_crystal_description       needles
_cell_formula_units_Z            4
loop_
_atom_site_label
_atom_site_type_symbol
_atom_site_fract_x
_atom_site_fract_y
_atom_site_fract_z
S1 S 0.84884(10) 0.60841(3) 0.13194(5)
S2 S 0.75851(10) 0.46697(3) -0.02269(5)
S3 S 0.56377(12) 0.27734(4) -0.09402(7)
S4 S 0.88997(15) 0.72560(4) 0.41856(7)
O1 O 0.8650(2) 0.43953(9) 0.35502(15)
O2 O 0.6404(3) 0.48952(9) 0.43324(14)
O3 O 0.5346(3) 0.38136(8) 0.30733(15)
O4 O 0.4057(2) 0.47444(8) 0.25470(15)
N1 N 0.8092(3) 0.59117(10) 0.33259(17)
N2 N 0.5856(3) 0.38516(10) 0.08133(18)
C1 C 0.8576(3) 0.63340(12) 0.2648(2)
C2 C 0.7630(3) 0.53676(12) 0.2801(2)
C3 C 0.7767(3) 0.53650(12) 0.1722(2)
C4 C 0.7247(3) 0.48179(12) 0.1084(2)
C5 C 0.6330(3) 0.43339(12) 0.1499(2)
C6 C 0.5695(3) 0.43993(12) 0.2614(2)
C7 C 0.7087(3) 0.47722(12) 0.3354(2)
C8 C 0.8572(5) 0.41233(16) 0.4590(2)
H1 H 0.9780 0.4104 0.4975
H2 H 0.8061 0.3695 0.4538
C9 C 0.7383(6) 0.4554(2) 0.5137(3)
H3 H 0.6564 0.4313 0.5564
H4 H 0.8104 0.4841 0.5622
C10 C 0.3518(4) 0.38150(17) 0.3346(3)
H5 H 0.3434 0.3944 0.4100
H6 H 0.2958 0.3397 0.3232
C11 C 0.2664(4) 0.42908(15) 0.2585(3)
H7 H 0.2344 0.4105 0.1871
H8 H 0.1578 0.4475 0.2861
C12 C 0.6421(4) 0.39608(12) -0.0129(2)
C13 C 0.6185(4) 0.35544(12) -0.1061(2)
C14 C 0.6289(4) 0.37127(13) -0.2109(2)
H9 H 0.6578 0.4122 -0.2341
C15 C 0.5925(4) 0.32051(14) -0.2806(2)
H10 H 0.5934 0.3236 -0.3562
C16 C 0.5563(4) 0.26712(14) -0.2299(2)
H11 H 0.5297 0.2283 -0.2651
C17 C 0.9142(3) 0.69694(12) 0.2928(2)
C18 C 1.0327(4) 0.79707(15) 0.2874(3)
H12 H 1.0878 0.8327 0.2583
C19 C 0.9906(4) 0.74139(12) 0.2269(3)
H13 H 1.0110 0.7353 0.1538
C20 C 0.9878(5) 0.79463(16) 0.3883(3)
H14 H 1.0084 0.8280 0.4380
loop_
_geom_bond_atom_site_label_1
_geom_bond_atom_site_label_2
_geom_bond_site_symmetry_1
_geom_bond_site_symmetry_2
S1 C1 1_555 1_555
S2 C4 1_555 1_555
S3 C13 1_555 1_555
S4 C17 1_555 1_555
O1 C7 1_555 1_555
O2 C7 1_555 1_555
O3 C6 1_555 1_555
O4 C6 1_555 1_555
N1 C1 1_555 1_555
N2 C5 1_555 1_555
C1 C17 1_555 1_555
C2 N1 1_555 1_555
C3 S1 1_555 1_555
C4 C3 1_555 1_555
C5 C4 1_555 1_555
C6 C5 1_555 1_555
C7 C2 1_555 1_555
C8 O1 1_555 1_555
H1 C8 1_555 1_555
H2 C8 1_555 1_555
C9 O2 1_555 1_555
H3 C9 1_555 1_555
H4 C9 1_555 1_555
C10 O3 1_555 1_555
H5 C10 1_555 1_555
H6 C10 1_555 1_555
C11 O4 1_555 1_555
H7 C11 1_555 1_555
H8 C11 1_555 1_555
C12 S2 1_555 1_555
C13 C12 1_555 1_555
C14 C13 1_555 1_555
H9 C14 1_555 1_555
C15 C14 1_555 1_555
H10 C15 1_555 1_555
C16 S3 1_555 1_555
H11 C16 1_555 1_555
C17 C19 1_555 1_555
C18 H12 1_555 1_555
C19 C18 1_555 1_555
H13 C19 1_555 1_555
C20 S4 1_555 1_555
H14 C20 1_555 1_555
N2 C12 1_555 1_555
C2 C3 1_555 1_555
C6 C7 1_555 1_555
C8 C9 1_555 1_555
C10 C11 1_555 1_555
C15 C16 1_555 1_555
C18 C20 1_555 1_555

#END
