
#######################################################################
#
#                 Cambridge Crystallographic Data Centre
#                                CCDC 
#
#######################################################################
#
# If this CIF has been generated from an entry in the Cambridge 
# Structural Database, then it will include bibliographic, chemical, 
# crystal, experimental, refinement or atomic coordinate data resulting 
# from the CCDC's data processing and validation procedures.
#
#######################################################################

data_LEVGUQ
_chemical_formula_moiety         'C29 H32 O1 S4'
_chemical_name_systematic        
2,6-bis(thiophen-2-yl)-3,5-di-n-hexyl-4H-cyclopenta[1,2-b:5,4-b']dithiophen-4-one
_symmetry_cell_setting           monoclinic
_symmetry_space_group_name_H-M   'P 21/c'
_symmetry_Int_Tables_number      14
_space_group_name_Hall           '-P 2ybc'
loop_
_symmetry_equiv_pos_site_id
_symmetry_equiv_pos_as_xyz
1 x,y,z
2 -x,1/2+y,1/2-z
3 -x,-y,-z
4 x,1/2-y,1/2+z
_cell_length_a                   5.3435(4)
_cell_length_b                   20.1523(15)
_cell_length_c                   24.6864(18)
_cell_angle_alpha                90
_cell_angle_beta                 92.0210(10)
_cell_angle_gamma                90
_cell_volume                     2656.67
_exptl_crystal_colour            pink
_exptl_crystal_description       plate
_cell_formula_units_Z            4
loop_
_atom_site_label
_atom_site_type_symbol
_atom_site_fract_x
_atom_site_fract_y
_atom_site_fract_z
S1 S 0.05875(13) 0.49891(4) 0.41373(3)
S2 S 0.55931(14) 0.60209(4) 0.32976(3)
S3 S -0.09497(16) 0.32600(4) 0.50177(4)
O1 O 0.5479(4) 0.36065(11) 0.28829(9)
C1 C -0.0050(5) 0.41377(15) 0.41777(12)
C2 C 0.1304(5) 0.37716(15) 0.38167(12)
C3 C 0.2870(5) 0.41949(15) 0.35180(12)
C4 C 0.2696(5) 0.48552(15) 0.36467(12)
C5 C 0.4524(5) 0.52319(15) 0.33428(12)
C6 C 0.5826(5) 0.48022(15) 0.30254(12)
C7 C 0.4840(5) 0.41137(15) 0.31045(12)
C8 C 0.7762(6) 0.51036(16) 0.27355(12)
C9 C 0.7873(6) 0.57777(16) 0.28438(12)
C10 C 0.9559(6) 0.62926(16) 0.26599(13)
S4 S 1.1545(3) 0.61997(9) 0.21174(6)
C11 C 0.9848(16) 0.6941(6) 0.2856(3)
H1 H 0.8906 0.7125 0.3138
C12 C 1.1796(18) 0.7300(6) 0.2568(3)
H2 H 1.2373 0.7736 0.2648
C13 C 1.2599(17) 0.6919(3) 0.2181(4)
H3 H 1.3815 0.7078 0.1942
C14 C -0.1703(5) 0.39214(15) 0.46024(12)
C15 C -0.3943(5) 0.42418(13) 0.47692(10)
H4 H -0.4712 0.4614 0.4595
C16 C -0.4836(6) 0.39154(17) 0.52366(13)
H5 H -0.6294 0.4057 0.5413
C17 C -0.3455(6) 0.33903(17) 0.54091(14)
H6 H -0.3838 0.3125 0.5713
C18 C 0.9421(6) 0.47255(17) 0.23651(12)
H7 H 0.9658 0.4269 0.2505
H8 H 1.1084 0.4942 0.2362
C19 C 0.8309(7) 0.4695(2) 0.17842(13)
H9 H 0.6777 0.4419 0.1780
H10 H 0.7820 0.5148 0.1667
C20 C 1.0125(9) 0.4409(3) 0.13817(16)
H11 H 0.9307 0.4417 0.1016
H12 H 1.1612 0.4701 0.1374
C21 C 1.0990(14) 0.3713(3) 0.1502(3)
H13 H 0.9623 0.3381 0.1492
H14 H 1.2038 0.3672 0.1839
C22 C 1.321(2) 0.3364(5) 0.1124(4)
H15 H 1.4495 0.3691 0.1023
H16 H 1.4034 0.2985 0.1314
C23 C 1.1810(19) 0.3163(4) 0.0689(4)
H17 H 1.0292 0.2944 0.0811
H18 H 1.2776 0.2851 0.0476
H19 H 1.1346 0.3548 0.0466
C24 C 0.1229(6) 0.30296(14) 0.37598(12)
H20 H 0.1166 0.2912 0.3370
H21 H -0.0314 0.2859 0.3921
C25 C 0.3512(5) 0.26950(14) 0.40373(12)
H22 H 0.5029 0.2814 0.3840
H23 H 0.3725 0.2867 0.4412
C26 C 0.3283(6) 0.19452(15) 0.40574(13)
H24 H 0.3020 0.1774 0.3684
H25 H 0.1791 0.1827 0.4264
C27 C 0.5584(6) 0.16071(15) 0.43196(13)
H26 H 0.7062 0.1713 0.4105
H27 H 0.5883 0.1792 0.4688
C28 C 0.5347(6) 0.08595(16) 0.43625(15)
H28 H 0.5235 0.0668 0.3993
H29 H 0.3775 0.0751 0.4544
C29 C 0.7533(7) 0.05408(18) 0.46764(16)
H30 H 0.9097 0.0644 0.4499
H31 H 0.7297 0.0059 0.4685
H32 H 0.7613 0.0714 0.5048
C30? C 1.091(3) 0.6300(10) 0.2202(8)
C31? C 1.270(4) 0.7060(7) 0.2208(10)
C32? C 1.174(4) 0.7335(14) 0.2684(7)
C33? C 1.270(5) 0.3733(11) 0.0916(10)
C34? C 1.387(5) 0.3031(10) 0.0947(10)
H33? H 1.0906 0.5967 0.1929
H34? H 1.3909 0.7222 0.1968
H35? H 1.2264 0.7769 0.2786
H36? H 0.9498 0.3422 0.1476
H37? H 1.1611 0.3702 0.1884
H38? H 1.1601 0.3790 0.0587
H39? H 1.3985 0.4086 0.0930
H40? H 1.5070 0.3008 0.1256
H41? H 1.4743 0.2941 0.0612
H42? H 1.2552 0.2700 0.0991
S5? S 0.9946(9) 0.6984(3) 0.30373(14)
loop_
_geom_bond_atom_site_label_1
_geom_bond_atom_site_label_2
_geom_bond_site_symmetry_1
_geom_bond_site_symmetry_2
S1 C1 1_555 1_555
S2 C5 1_555 1_555
S3 C14 1_555 1_555
O1 C7 1_555 1_555
C1 C2 1_555 1_555
C2 C3 1_555 1_555
C3 C4 1_555 1_555
C4 S1 1_555 1_555
C5 C4 1_555 1_555
C6 C5 1_555 1_555
C7 C3 1_555 1_555
C8 C6 1_555 1_555
C9 S2 1_555 1_555
C10 C9 1_555 1_555
S4 C10 1_555 1_555
C11 C10 1_555 1_555
H1 C11 1_555 1_555
C12 C11 1_555 1_555
H2 C12 1_555 1_555
C13 S4 1_555 1_555
H3 C13 1_555 1_555
C14 C1 1_555 1_555
C15 C14 1_555 1_555
H4 C15 1_555 1_555
C16 C15 1_555 1_555
H5 C16 1_555 1_555
C17 S3 1_555 1_555
H6 C17 1_555 1_555
C18 C8 1_555 1_555
H7 C18 1_555 1_555
H8 C18 1_555 1_555
C19 C18 1_555 1_555
H9 C19 1_555 1_555
H10 C19 1_555 1_555
C20 C19 1_555 1_555
H11 C20 1_555 1_555
H12 C20 1_555 1_555
C21 C20 1_555 1_555
H13 C21 1_555 1_555
H14 C21 1_555 1_555
C22 C21 1_555 1_555
H15 C22 1_555 1_555
H16 C22 1_555 1_555
C23 C22 1_555 1_555
H17 C23 1_555 1_555
H18 C23 1_555 1_555
H19 C23 1_555 1_555
C24 C2 1_555 1_555
H20 C24 1_555 1_555
H21 C24 1_555 1_555
C25 C24 1_555 1_555
H22 C25 1_555 1_555
H23 C25 1_555 1_555
C26 C25 1_555 1_555
H24 C26 1_555 1_555
H25 C26 1_555 1_555
C27 C26 1_555 1_555
H26 C27 1_555 1_555
H27 C27 1_555 1_555
C28 C27 1_555 1_555
H28 C28 1_555 1_555
H29 C28 1_555 1_555
C29 C28 1_555 1_555
H30 C29 1_555 1_555
H31 C29 1_555 1_555
H32 C29 1_555 1_555
C6 C7 1_555 1_555
C8 C9 1_555 1_555
C12 C13 1_555 1_555
C16 C17 1_555 1_555

#END
