
#######################################################################
#
#                 Cambridge Crystallographic Data Centre
#                                CCDC 
#
#######################################################################
#
# If this CIF has been generated from an entry in the Cambridge 
# Structural Database, then it will include bibliographic, chemical, 
# crystal, experimental, refinement or atomic coordinate data resulting 
# from the CCDC's data processing and validation procedures.
#
#######################################################################

data_LEVHUQ
_chemical_formula_moiety         'C12 H32 S2 Si4'
_chemical_name_systematic        
3,3,4,4,8,8,9,9-Octamethyl-1,6-dithia-3,4,8,9-tetrasilacyclodecane
_symmetry_cell_setting           triclinic
_symmetry_space_group_name_H-M   'P -1'
_symmetry_Int_Tables_number      2
_space_group_name_Hall           '-P 1'
loop_
_symmetry_equiv_pos_site_id
_symmetry_equiv_pos_as_xyz
1 x,y,z
2 -x,-y,-z
_cell_length_a                   6.2586(4)
_cell_length_b                   7.9795(5)
_cell_length_c                   11.3208(7)
_cell_angle_alpha                104.2230(10)
_cell_angle_beta                 93.6240(10)
_cell_angle_gamma                107.7620(10)
_cell_volume                     516.034
_exptl_crystal_colour            colorless
_exptl_crystal_description       block
_cell_formula_units_Z            1
loop_
_atom_site_label
_atom_site_type_symbol
_atom_site_fract_x
_atom_site_fract_y
_atom_site_fract_z
S1 S 0.52265(4) 0.69316(3) 0.43566(2)
Si1 Si 0.34509(5) 0.35911(4) 0.21109(2)
Si2 Si 0.37354(5) 0.11842(4) 0.28833(2)
C1 C 0.27179(18) 0.53377(15) 0.33280(10)
C2 C 0.40609(19) 0.78630(15) 0.56853(10)
C3 C 0.6173(2) 0.47294(17) 0.15986(12)
C4 C 0.1120(2) 0.26960(17) 0.07640(11)
C5 C 0.4685(2) -0.04415(17) 0.17149(11)
C6 C 0.0939(2) -0.00941(17) 0.32558(12)
H1 H 0.197(2) 0.601(2) 0.2984(13)
H2 H 0.175(3) 0.474(2) 0.3798(14)
H3 H 0.282(3) 0.687(2) 0.5798(13)
H4 H 0.353(2) 0.881(2) 0.5565(13)
H5 H 0.647(3) 0.391(2) 0.0981(17)
H6 H 0.739(3) 0.515(2) 0.2235(17)
H7 H 0.612(3) 0.573(2) 0.1299(15)
H8 H 0.096(3) 0.371(2) 0.0446(15)
H9 H -0.032(3) 0.208(2) 0.0994(16)
H10 H 0.135(3) 0.179(3) 0.0126(17)
H11 H 0.362(3) -0.100(3) 0.0995(19)
H12 H 0.606(3) 0.017(3) 0.1457(17)
H13 H 0.494(3) -0.142(2) 0.2008(16)
H14 H 0.106(3) -0.108(2) 0.3623(16)
H15 H -0.015(3) -0.063(3) 0.2549(18)
H16 H 0.035(3) 0.068(2) 0.3802(17)
S1A S 0.47735(4) 0.30684(3) 0.56434(2)
Si1A Si 0.65491(5) 0.64089(4) 0.78891(2)
Si2A Si 0.62646(5) 0.88158(4) 0.71167(2)
C1A C 0.72821(18) 0.46623(15) 0.66720(10)
C2A C 0.59391(19) 0.21370(15) 0.43147(10)
C3A C 0.3827(2) 0.52706(17) 0.84014(12)
C4A C 0.8880(2) 0.73040(17) 0.92360(11)
C5A C 0.5315(2) 1.04415(17) 0.82851(11)
C6A C 0.9061(2) 1.00941(17) 0.67442(12)
H1A H 0.803(2) 0.399(2) 0.7016(13)
H2A H 0.825(3) 0.526(2) 0.6202(14)
H3A H 0.718(3) 0.313(2) 0.4202(13)
H4A H 0.647(2) 0.119(2) 0.4435(13)
H5A H 0.353(3) 0.609(2) 0.9019(17)
H6A H 0.261(3) 0.485(2) 0.7765(17)
H7A H 0.388(3) 0.427(2) 0.8701(15)
H8A H 0.904(3) 0.629(2) 0.9554(15)
H9A H 1.032(3) 0.792(2) 0.9006(16)
H10A H 0.865(3) 0.821(3) 0.9874(17)
H11A H 0.638(3) 1.100(3) 0.9005(19)
H12A H 0.394(3) 0.983(3) 0.8543(17)
H13A H 0.506(3) 1.142(2) 0.7992(16)
H14A H 0.894(3) 1.108(2) 0.6377(16)
H15A H 1.015(3) 1.063(3) 0.7451(18)
H16A H 0.965(3) 0.932(2) 0.6198(17)
loop_
_geom_bond_atom_site_label_1
_geom_bond_atom_site_label_2
_geom_bond_site_symmetry_1
_geom_bond_site_symmetry_2
S1 C1 1_555 1_555
Si1 Si2 1_555 1_555
Si2 C5 1_555 1_555
C1 Si1 1_555 1_555
C2 S1 1_555 1_555
C3 Si1 1_555 1_555
C4 Si1 1_555 1_555
C5 H11 1_555 1_555
C6 Si2 1_555 1_555
H1 C1 1_555 1_555
H2 C1 1_555 1_555
H3 C2 1_555 1_555
H4 C2 1_555 1_555
H5 C3 1_555 1_555
H6 C3 1_555 1_555
H7 C3 1_555 1_555
H8 C4 1_555 1_555
H9 C4 1_555 1_555
H10 C4 1_555 1_555
H12 C5 1_555 1_555
H13 C5 1_555 1_555
H14 C6 1_555 1_555
H15 C6 1_555 1_555
H16 C6 1_555 1_555
S1A C1A 1_555 1_555
Si1A Si2A 1_555 1_555
Si2A C2 1_555 1_555
C1A Si1A 1_555 1_555
C2A Si2 1_555 1_555
C3A Si1A 1_555 1_555
C4A Si1A 1_555 1_555
C5A Si2A 1_555 1_555
C6A Si2A 1_555 1_555
H1A C1A 1_555 1_555
H2A C1A 1_555 1_555
H3A C2A 1_555 1_555
H4A C2A 1_555 1_555
H5A C3A 1_555 1_555
H6A C3A 1_555 1_555
H7A C3A 1_555 1_555
H8A C4A 1_555 1_555
H9A C4A 1_555 1_555
H10A C4A 1_555 1_555
H11A C5A 1_555 1_555
H12A C5A 1_555 1_555
H13A C5A 1_555 1_555
H14A C6A 1_555 1_555
H15A C6A 1_555 1_555
H16A C6A 1_555 1_555
S1A C2A 1_555 1_555

#END
