
#######################################################################
#
#                 Cambridge Crystallographic Data Centre
#                                CCDC 
#
#######################################################################
#
# If this CIF has been generated from an entry in the Cambridge 
# Structural Database, then it will include bibliographic, chemical, 
# crystal, experimental, refinement or atomic coordinate data resulting 
# from the CCDC's data processing and validation procedures.
#
#######################################################################

data_LEVJIG
_chemical_formula_moiety         'C2 H4 O1 S1 Se1'
_chemical_name_systematic        '1,3-thiaselenetane S-oxide'
_symmetry_cell_setting           orthorhombic
_symmetry_space_group_name_H-M   'P 21 21 21'
_symmetry_Int_Tables_number      19
_space_group_name_Hall           'P 2ac 2ab'
loop_
_symmetry_equiv_pos_site_id
_symmetry_equiv_pos_as_xyz
1 x,y,z
2 1/2-x,-y,1/2+z
3 -x,1/2+y,1/2-z
4 1/2+x,1/2-y,-z
_cell_length_a                   8.1944(5)
_cell_length_b                   8.2657(5)
_cell_length_c                   12.9537(9)
_cell_angle_alpha                90
_cell_angle_beta                 90
_cell_angle_gamma                90
_cell_volume                     877.386
_exptl_crystal_colour            colorless
_exptl_crystal_description       block
_chemical_melting_point          86-88deg.C
_cell_formula_units_Z            8
loop_
_atom_site_label
_atom_site_type_symbol
_atom_site_fract_x
_atom_site_fract_y
_atom_site_fract_z
Se1 Se 0.10546(3) 0.37896(3) 0.253035(18)
S1 S 0.29801(8) 0.63507(8) 0.22827(5)
O1 O 0.4697(3) 0.6944(3) 0.22999(16)
C1 C 0.2769(4) 0.4495(4) 0.15713(19)
C2 C 0.2488(5) 0.5133(4) 0.33900(19)
H1 H 0.244(5) 0.463(5) 0.089(3)
H2 H 0.376(4) 0.375(4) 0.171(2)
H3 H 0.330(6) 0.456(6) 0.356(3)
H4 H 0.198(7) 0.555(7) 0.391(4)
Se2 Se 0.36540(3) 1.14009(3) 0.51144(2)
S2 S 0.10306(8) 0.95519(8) 0.48296(4)
O2 O 0.0437(3) 0.7860(3) 0.47546(15)
C3 C 0.2362(4) 0.9847(4) 0.5920(2)
C4 C 0.2842(4) 0.9886(4) 0.4076(2)
H5 H 0.195(5) 1.021(5) 0.658(3)
H6 H 0.293(5) 0.900(5) 0.596(3)
H7 H 0.346(5) 0.885(5) 0.412(3)
H8 H 0.268(5) 1.039(5) 0.337(2)
loop_
_geom_bond_atom_site_label_1
_geom_bond_atom_site_label_2
_geom_bond_site_symmetry_1
_geom_bond_site_symmetry_2
Se1 C1 1_555 1_555
Se2 C3 1_555 1_555
S1 O1 1_555 1_555
S2 O2 1_555 1_555
C1 S1 1_555 1_555
C2 Se1 1_555 1_555
C3 S2 1_555 1_555
C4 Se2 1_555 1_555
H1 C1 1_555 1_555
H2 C1 1_555 1_555
H3 C2 1_555 1_555
H4 C2 1_555 1_555
H5 C3 1_555 1_555
H6 C3 1_555 1_555
H7 C4 1_555 1_555
H8 C4 1_555 1_555
S1 C2 1_555 1_555
S2 C4 1_555 1_555

#END
