
#######################################################################
#
#                 Cambridge Crystallographic Data Centre
#                                CCDC 
#
#######################################################################
#
# If this CIF has been generated from an entry in the Cambridge 
# Structural Database, then it will include bibliographic, chemical, 
# crystal, experimental, refinement or atomic coordinate data resulting 
# from the CCDC's data processing and validation procedures.
#
#######################################################################

data_LEVJIH
_chemical_formula_moiety         'C9 H2 Br2 O1 S2'
_chemical_name_systematic        
2,6-Dibromo-4H-cyclopenta[1,2-b:5,4-b']dithiophen-4-one
_symmetry_cell_setting           orthorhombic
_symmetry_space_group_name_H-M   'P 21 21 21'
_symmetry_Int_Tables_number      19
_space_group_name_Hall           'P 2ac 2ab'
loop_
_symmetry_equiv_pos_site_id
_symmetry_equiv_pos_as_xyz
1 x,y,z
2 1/2-x,-y,1/2+z
3 -x,1/2+y,1/2-z
4 1/2+x,1/2-y,-z
_cell_length_a                   7.2936(10)
_cell_length_b                   20.532(3)
_cell_length_c                   26.509(4)
_cell_angle_alpha                90
_cell_angle_beta                 90
_cell_angle_gamma                90
_cell_volume                     3969.78
_exptl_crystal_colour            purple
_exptl_crystal_description       block
_cell_formula_units_Z            16
loop_
_atom_site_label
_atom_site_type_symbol
_atom_site_fract_x
_atom_site_fract_y
_atom_site_fract_z
Br1 Br -0.11162(19) 0.27601(5) 0.36745(4)
Br2 Br 0.5835(2) 0.69173(5) 0.40211(4)
S1 S 0.1136(5) 0.39142(12) 0.41069(8)
S2 S 0.3884(5) 0.56103(12) 0.42513(9)
O1 O 0.2525(11) 0.4989(4) 0.2471(2)
C1 C 0.0351(16) 0.3507(6) 0.3581(4)
C2 C 0.0764(17) 0.3794(5) 0.3135(4)
H1 H 0.0450 0.3628 0.2812
C3 C 0.1758(16) 0.4391(5) 0.3228(4)
C4 C 0.2047(17) 0.4509(6) 0.3729(4)
C5 C 0.2566(16) 0.4921(6) 0.2929(4)
C6 C 0.3351(16) 0.5378(6) 0.3307(4)
C7 C 0.3073(17) 0.5130(6) 0.3793(4)
C8 C 0.4298(16) 0.5979(5) 0.3319(4)
H2 H 0.4642 0.6222 0.3029
C9 C 0.4644(17) 0.6159(6) 0.3797(4)
Br3 Br 1.08736(19) 0.68776(5) 0.48943(5)
Br4 Br 0.38110(15) 0.27197(4) 0.49220(4)
S3 S 0.8924(5) 0.56054(12) 0.45611(9)
S4 S 0.6128(5) 0.39028(12) 0.45676(9)
O2 O 0.7513(12) 0.4767(4) 0.6277(3)
C10 C 0.9681(14) 0.6084(5) 0.5040(4)
C11 C 0.9331(16) 0.5858(5) 0.5510(4)
H3 H 0.9659 0.6071 0.5815
C12 C 0.8405(16) 0.5256(5) 0.5477(4)
C13 C 0.8093(15) 0.5051(5) 0.4984(4)
C14 C 0.7570(17) 0.4758(5) 0.5822(4)
C15 C 0.6786(16) 0.4246(5) 0.5478(4)
C16 C 0.7080(16) 0.4433(5) 0.4984(4)
C17 C 0.5745(17) 0.3669(5) 0.5528(4)
H4 H 0.5396 0.3475 0.5839
C18 C 0.5321(14) 0.3435(4) 0.5067(4)
Br5 Br 1.1011(2) 0.70854(5) 0.26509(4)
Br6 Br 0.41304(19) 0.29305(5) 0.21516(4)
S5 S 0.8885(5) 0.59244(12) 0.21652(9)
S6 S 0.6149(5) 0.42339(13) 0.19693(9)
O3 O 0.7480(11) 0.4771(4) 0.3771(3)
C19 C 0.9660(16) 0.6323(5) 0.2707(4)
C20 C 0.9305(16) 0.5998(5) 0.3133(4)
H5 H 0.9662 0.6137 0.3461
C21 C 0.8318(16) 0.5412(5) 0.3029(4)
C22 C 0.8027(16) 0.5313(5) 0.2521(4)
C23 C 0.7505(16) 0.4852(5) 0.3314(4)
C24 C 0.6708(16) 0.4421(5) 0.2911(4)
C25 C 0.7011(16) 0.4704(5) 0.2444(4)
C26 C 0.5793(16) 0.3829(5) 0.2881(4)
H6 H 0.5485 0.3567 0.3164
C27 C 0.5398(16) 0.3674(5) 0.2397(4)
Br7 Br 0.60602(19) 0.72110(5) 0.15041(4)
Br8 Br -0.0957(2) 0.30552(5) 0.11785(4)
S7 S 0.3847(5) 0.59569(12) 0.17546(9)
S8 S 0.1069(5) 0.42544(13) 0.16219(9)
O4 O 0.2506(11) 0.5333(3) -0.0016(2)
C28 C 0.4650(16) 0.6489(5) 0.1306(4)
C29 C 0.4220(17) 0.6327(5) 0.0821(4)
H7 H 0.4516 0.6572 0.0528
C30 C 0.3243(16) 0.5723(5) 0.0830(4)
C31 C 0.2926(16) 0.5466(5) 0.1294(4)
C32 C 0.2445(17) 0.5274(5) 0.0439(4)
C33 C 0.1614(16) 0.4723(5) 0.0739(4)
C34 C 0.1925(16) 0.4853(5) 0.1247(4)
C35 C 0.0693(16) 0.4152(5) 0.0642(4)
H8 H 0.0370 0.3997 0.0316
C36 C 0.0308(16) 0.3835(5) 0.1093(4)
loop_
_geom_bond_atom_site_label_1
_geom_bond_atom_site_label_2
_geom_bond_site_symmetry_1
_geom_bond_site_symmetry_2
Br1 C1 1_555 1_555
Br2 C9 1_555 1_555
S1 C1 1_555 1_555
S2 C7 1_555 1_555
O1 C5 1_555 1_555
C1 C2 1_555 1_555
C2 H1 1_555 1_555
C3 C2 1_555 1_555
C4 S1 1_555 1_555
C5 C3 1_555 1_555
C6 C5 1_555 1_555
C7 C4 1_555 1_555
C8 C6 1_555 1_555
H2 C8 1_555 1_555
C9 S2 1_555 1_555
Br3 C10 1_555 1_555
Br4 C18 1_555 1_555
S3 C10 1_555 1_555
S4 C16 1_555 1_555
O2 C14 1_555 1_555
C10 C11 1_555 1_555
C11 H3 1_555 1_555
C12 C11 1_555 1_555
C13 S3 1_555 1_555
C14 C12 1_555 1_555
C15 C14 1_555 1_555
C16 C13 1_555 1_555
C17 C15 1_555 1_555
H4 C17 1_555 1_555
C18 S4 1_555 1_555
Br5 C19 1_555 1_555
Br6 C27 1_555 1_555
S5 C19 1_555 1_555
S6 C25 1_555 1_555
O3 C23 1_555 1_555
C19 C20 1_555 1_555
C20 H5 1_555 1_555
C21 C20 1_555 1_555
C22 S5 1_555 1_555
C23 C21 1_555 1_555
C24 C23 1_555 1_555
C25 C22 1_555 1_555
C26 C24 1_555 1_555
H6 C26 1_555 1_555
C27 S6 1_555 1_555
Br7 C28 1_555 1_555
Br8 C36 1_555 1_555
S7 C28 1_555 1_555
S8 C34 1_555 1_555
O4 C32 1_555 1_555
C28 C29 1_555 1_555
C29 H7 1_555 1_555
C30 C29 1_555 1_555
C31 S7 1_555 1_555
C32 C30 1_555 1_555
C33 C32 1_555 1_555
C34 C31 1_555 1_555
C35 C33 1_555 1_555
H8 C35 1_555 1_555
C36 S8 1_555 1_555
C3 C4 1_555 1_555
C6 C7 1_555 1_555
C8 C9 1_555 1_555
C12 C13 1_555 1_555
C15 C16 1_555 1_555
C17 C18 1_555 1_555
C21 C22 1_555 1_555
C24 C25 1_555 1_555
C26 C27 1_555 1_555
C30 C31 1_555 1_555
C33 C34 1_555 1_555
C35 C36 1_555 1_555

#END
