
#######################################################################
#
#                 Cambridge Crystallographic Data Centre
#                                CCDC 
#
#######################################################################
#
# If this CIF has been generated from an entry in the Cambridge 
# Structural Database, then it will include bibliographic, chemical, 
# crystal, experimental, refinement or atomic coordinate data resulting 
# from the CCDC's data processing and validation procedures.
#
#######################################################################

data_LEVJUS
_chemical_formula_moiety         'C8 H22 Br2 Si3'
_chemical_name_systematic        
2,2-bis(bromomethyl)-1,1,1,3,3,3-hexamethyltrisilane
_symmetry_cell_setting           monoclinic
_symmetry_space_group_name_H-M   'C 2/c'
_symmetry_Int_Tables_number      15
_space_group_name_Hall           '-C 2yn'
loop_
_symmetry_equiv_pos_site_id
_symmetry_equiv_pos_as_xyz
1 x,y,z
2 1/2+x,1/2+y,z
3 -x,y,1/2-z
4 1/2-x,1/2+y,1/2-z
5 -x,-y,-z
6 1/2-x,1/2-y,-z
7 x,-y,1/2+z
8 1/2+x,1/2-y,1/2+z
_cell_length_a                   17.4033(14)
_cell_length_b                   7.8526(7)
_cell_length_c                   12.3918(10)
_cell_angle_alpha                90
_cell_angle_beta                 108.5570(10)
_cell_angle_gamma                90
_cell_volume                     1605.43
_exptl_crystal_colour            colorless
_exptl_crystal_description       block
_cell_formula_units_Z            4
loop_
_atom_site_label
_atom_site_type_symbol
_atom_site_fract_x
_atom_site_fract_y
_atom_site_fract_z
Br1 Br 1.112276(18) 1.00988(4) 0.91449(3)
Si1 Si 1.0000 0.73278(10) 0.7500
Si2 Si 0.88434(3) 0.56633(8) 0.73414(5)
C1 C 0.91875(15) 0.3841(3) 0.8357(2)
C2 C 1.01269(14) 0.8758(3) 0.8767(2)
C3 C 0.80697(17) 0.6929(4) 0.7753(3)
C4 C 0.83905(18) 0.4854(4) 0.5858(2)
H1 H 0.9705(19) 0.958(4) 0.863(3)
H2 H 1.0147(17) 0.821(4) 0.940(3)
H3 H 0.8767(17) 0.317(4) 0.837(2)
H4 H 0.945(2) 0.429(5) 0.912(3)
H5 H 0.9561(18) 0.311(4) 0.820(2)
H6 H 0.7889(19) 0.778(4) 0.726(3)
H7 H 0.828(2) 0.739(5) 0.847(3)
H8 H 0.761(2) 0.624(4) 0.773(3)
H9 H 0.8221(17) 0.581(4) 0.536(2)
H10 H 0.796(2) 0.425(5) 0.582(3)
H11 H 0.873(2) 0.418(5) 0.563(3)
Br1B Br 0.887724(18) 1.00988(4) 0.58551(3)
Si2B Si 1.11566(3) 0.56633(8) 0.76586(5)
C1B C 1.08125(15) 0.3841(3) 0.6643(2)
C2B C 0.98731(14) 0.8758(3) 0.6233(2)
C3B C 1.19303(17) 0.6929(4) 0.7247(3)
C4B C 1.16095(18) 0.4854(4) 0.9142(2)
H1B H 1.0295(19) 0.958(4) 0.637(3)
H2B H 0.9853(17) 0.821(4) 0.560(3)
H3B H 1.1233(17) 0.317(4) 0.663(2)
H4B H 1.055(2) 0.429(5) 0.588(3)
H5B H 1.0439(18) 0.311(4) 0.680(2)
H6B H 1.2111(19) 0.778(4) 0.774(3)
H7B H 1.172(2) 0.739(5) 0.653(3)
H8B H 1.239(2) 0.624(4) 0.727(3)
H9B H 1.1779(17) 0.581(4) 0.964(2)
H10B H 1.204(2) 0.425(5) 0.918(3)
H11B H 1.127(2) 0.418(5) 0.937(3)
loop_
_geom_bond_atom_site_label_1
_geom_bond_atom_site_label_2
_geom_bond_site_symmetry_1
_geom_bond_site_symmetry_2
Br1 C2 1_555 1_555
Si1 Si2 1_555 1_555
Si2 C1 1_555 1_555
C1 H3 1_555 1_555
C2 Si1 1_555 1_555
C3 Si2 1_555 1_555
C4 Si2 1_555 1_555
H1 C2 1_555 1_555
H2 C2 1_555 1_555
H4 C1 1_555 1_555
H5 C1 1_555 1_555
H6 C3 1_555 1_555
H7 C3 1_555 1_555
H8 C3 1_555 1_555
H9 C4 1_555 1_555
H10 C4 1_555 1_555
H11 C4 1_555 1_555
Br1B C2B 1_555 1_555
Si2B Si1 1_555 1_555
C1B Si2B 1_555 1_555
C2B Si1 1_555 1_555
C3B Si2B 1_555 1_555
C4B Si2B 1_555 1_555
H1B C2B 1_555 1_555
H2B C2B 1_555 1_555
H3B C1B 1_555 1_555
H4B C1B 1_555 1_555
H5B C1B 1_555 1_555
H6B C3B 1_555 1_555
H7B C3B 1_555 1_555
H8B C3B 1_555 1_555
H9B C4B 1_555 1_555
H10B C4B 1_555 1_555
H11B C4B 1_555 1_555

#END
