
#######################################################################
#
#                 Cambridge Crystallographic Data Centre
#                                CCDC 
#
#######################################################################
#
# If this CIF has been generated from an entry in the Cambridge 
# Structural Database, then it will include bibliographic, chemical, 
# crystal, experimental, refinement or atomic coordinate data resulting 
# from the CCDC's data processing and validation procedures.
#
#######################################################################

data_LEVJUT
_chemical_formula_moiety         'C32 H46 Br2 N2 S4 Si2'
_chemical_name_systematic        
4,4'-Dibromo-2,2'-bis(4-hexyl-5-(trimethylsilyl)thiophen-2-yl)-5,5'-bithiazole
_symmetry_cell_setting           monoclinic
_symmetry_space_group_name_H-M   'C 2/c'
_symmetry_Int_Tables_number      15
_space_group_name_Hall           '-C 2yn'
loop_
_symmetry_equiv_pos_site_id
_symmetry_equiv_pos_as_xyz
1 x,y,z
2 -x,y,1/2-z
3 1/2+x,1/2+y,z
4 1/2-x,1/2+y,1/2-z
5 -x,-y,-z
6 x,-y,1/2+z
7 1/2-x,1/2-y,-z
8 1/2+x,1/2-y,1/2+z
_cell_length_a                   37.478(2)
_cell_length_b                   7.0932(4)
_cell_length_c                   14.7217(8)
_cell_angle_alpha                90
_cell_angle_beta                 108.2470(10)
_cell_angle_gamma                90
_cell_volume                     3716.81
_cell_formula_units_Z            4
loop_
_atom_site_label
_atom_site_type_symbol
_atom_site_fract_x
_atom_site_fract_y
_atom_site_fract_z
Br1 Br 0.244186(9) -0.20620(4) 0.20444(2)
Si1 Si 0.38076(3) 0.78142(14) 0.20900(7)
S1 S 0.27976(2) -0.00291(11) -0.03420(5)
S2 S 0.32776(2) 0.43924(12) 0.17428(6)
N1 N 0.27914(7) 0.0792(4) 0.13562(18)
C1 C 0.25858(8) -0.1631(4) 0.0226(2)
C2 C 0.26183(9) -0.0899(4) 0.1114(2)
C3 C 0.29010(9) 0.1421(4) 0.0648(2)
C4 C 0.31135(9) 0.3155(4) 0.0690(2)
C5 C 0.32267(9) 0.3980(4) -0.0013(2)
H1 H 0.3162 0.3508 -0.0647
C6 C 0.34516(9) 0.5615(5) 0.0299(2)
C7 C 0.35096(9) 0.6013(5) 0.1252(2)
C8 C 0.36220(10) 0.6700(5) -0.0344(3)
H2 H 0.3592 0.8068 -0.0253
H3 H 0.3484 0.6393 -0.1019
C9 C 0.40385(10) 0.6256(6) -0.0144(3)
H4 H 0.4065 0.4923 -0.0311
H5 H 0.4170 0.6411 0.0549
C10 C 0.42255(11) 0.7518(6) -0.0705(3)
H6 H 0.4095 0.7343 -0.1398
H7 H 0.4193 0.8851 -0.0548
C11 C 0.46414(11) 0.7134(6) -0.0506(3)
H8 H 0.4775 0.7413 0.0175
H9 H 0.4677 0.5778 -0.0612
C12 C 0.48162(12) 0.8280(7) -0.1122(4)
H10 H 0.4796 0.9635 -0.0984
H11 H 0.4672 0.8065 -0.1803
C13 C 0.52265(13) 0.7805(8) -0.0966(4)
H12 H 0.5374 0.8097 -0.0304
H13 H 0.5320 0.8552 -0.1404
H14 H 0.5250 0.6460 -0.1089
C14 C 0.42848(12) 0.6671(6) 0.2692(3)
H15 H 0.4437 0.7504 0.3197
H16 H 0.4414 0.6460 0.2216
H17 H 0.4248 0.5461 0.2973
C15 C 0.38922(11) 0.9960(5) 0.1472(3)
H18 H 0.3651 1.0499 0.1091
H19 H 0.4040 0.9632 0.1052
H20 H 0.4030 1.0885 0.1947
C16 C 0.35863(13) 0.8351(6) 0.3008(3)
H21 H 0.3754 0.9150 0.3502
H22 H 0.3537 0.7175 0.3297
H23 H 0.3349 0.9016 0.2714
Br1F Br 0.255814(9) -0.29380(4) -0.20444(2)
Si1F Si 0.11924(3) -1.28142(14) -0.20900(7)
S1F S 0.22024(2) -0.49709(11) 0.03420(5)
S2F S 0.17224(2) -0.93924(12) -0.17428(6)
N1F N 0.22086(7) -0.5792(4) -0.13562(18)
C1F C 0.24142(8) -0.3369(4) -0.0226(2)
C2F C 0.23817(9) -0.4101(4) -0.1114(2)
C3F C 0.20990(9) -0.6421(4) -0.0648(2)
C4F C 0.18865(9) -0.8155(4) -0.0690(2)
C5F C 0.17733(9) -0.8980(4) 0.0013(2)
H1F H 0.1838 -0.8508 0.0647
C6F C 0.15484(9) -1.0615(5) -0.0299(2)
C7F C 0.14904(9) -1.1013(5) -0.1252(2)
C8F C 0.13780(10) -1.1700(5) 0.0344(3)
H2F H 0.1408 -1.3068 0.0253
H3F H 0.1516 -1.1393 0.1019
C9F C 0.09615(10) -1.1256(6) 0.0144(3)
H4F H 0.0935 -0.9923 0.0311
H5F H 0.0830 -1.1411 -0.0549
C10F C 0.07745(11) -1.2518(6) 0.0705(3)
H6F H 0.0905 -1.2343 0.1398
H7F H 0.0807 -1.3851 0.0548
C11F C 0.03586(11) -1.2134(6) 0.0506(3)
H8F H 0.0225 -1.2413 -0.0175
H9F H 0.0323 -1.0778 0.0612
C12F C 0.01838(12) -1.3280(7) 0.1122(4)
H10F H 0.0204 -1.4635 0.0984
H11F H 0.0328 -1.3065 0.1803
C13F C -0.02265(13) -1.2805(8) 0.0966(4)
H12F H -0.0374 -1.3097 0.0304
H13F H -0.0320 -1.3552 0.1404
H14F H -0.0250 -1.1460 0.1089
C14F C 0.07152(12) -1.1671(6) -0.2692(3)
H15F H 0.0563 -1.2504 -0.3197
H16F H 0.0586 -1.1460 -0.2216
H17F H 0.0752 -1.0461 -0.2973
C15F C 0.11078(11) -1.4960(5) -0.1472(3)
H18F H 0.1349 -1.5499 -0.1091
H19F H 0.0960 -1.4632 -0.1052
H20F H 0.0970 -1.5885 -0.1947
C16F C 0.14137(13) -1.3351(6) -0.3008(3)
H21F H 0.1246 -1.4150 -0.3502
H22F H 0.1463 -1.2175 -0.3297
H23F H 0.1651 -1.4016 -0.2714
loop_
_geom_bond_atom_site_label_1
_geom_bond_atom_site_label_2
_geom_bond_site_symmetry_1
_geom_bond_site_symmetry_2
Br1 C2 1_555 1_555
Si1 C7 1_555 1_555
S1 C1 1_555 1_555
S2 C4 1_555 1_555
N1 C2 1_555 1_555
C1 C2 1_555 1_555
C3 S1 1_555 1_555
C4 C3 1_555 1_555
C5 C4 1_555 1_555
H1 C5 1_555 1_555
C6 C5 1_555 1_555
C7 S2 1_555 1_555
C8 C6 1_555 1_555
H2 C8 1_555 1_555
H3 C8 1_555 1_555
C9 C8 1_555 1_555
H4 C9 1_555 1_555
H5 C9 1_555 1_555
C10 C9 1_555 1_555
H6 C10 1_555 1_555
H7 C10 1_555 1_555
C11 C10 1_555 1_555
H8 C11 1_555 1_555
H9 C11 1_555 1_555
C12 C11 1_555 1_555
H10 C12 1_555 1_555
H11 C12 1_555 1_555
C13 C12 1_555 1_555
H12 C13 1_555 1_555
H13 C13 1_555 1_555
H14 C13 1_555 1_555
C14 Si1 1_555 1_555
H15 C14 1_555 1_555
H16 C14 1_555 1_555
H17 C14 1_555 1_555
C15 Si1 1_555 1_555
H18 C15 1_555 1_555
H19 C15 1_555 1_555
H20 C15 1_555 1_555
C16 Si1 1_555 1_555
H21 C16 1_555 1_555
H22 C16 1_555 1_555
H23 C16 1_555 1_555
Br1F C2F 1_555 1_555
Si1F C7F 1_555 1_555
S1F C1F 1_555 1_555
S2F C4F 1_555 1_555
N1F C2F 1_555 1_555
C1F C1 1_555 1_555
C2F C1F 1_555 1_555
C3F S1F 1_555 1_555
C4F C3F 1_555 1_555
C5F C4F 1_555 1_555
H1F C5F 1_555 1_555
C6F C5F 1_555 1_555
C7F S2F 1_555 1_555
C8F C6F 1_555 1_555
H2F C8F 1_555 1_555
H3F C8F 1_555 1_555
C9F C8F 1_555 1_555
H4F C9F 1_555 1_555
H5F C9F 1_555 1_555
C10F C9F 1_555 1_555
H6F C10F 1_555 1_555
H7F C10F 1_555 1_555
C11F C10F 1_555 1_555
H8F C11F 1_555 1_555
H9F C11F 1_555 1_555
C12F C11F 1_555 1_555
H10F C12F 1_555 1_555
H11F C12F 1_555 1_555
C13F C12F 1_555 1_555
H12F C13F 1_555 1_555
H13F C13F 1_555 1_555
H14F C13F 1_555 1_555
C14F Si1F 1_555 1_555
H15F C14F 1_555 1_555
H16F C14F 1_555 1_555
H17F C14F 1_555 1_555
C15F Si1F 1_555 1_555
H18F C15F 1_555 1_555
H19F C15F 1_555 1_555
H20F C15F 1_555 1_555
C16F Si1F 1_555 1_555
H21F C16F 1_555 1_555
H22F C16F 1_555 1_555
H23F C16F 1_555 1_555
N1 C3 1_555 1_555
C6 C7 1_555 1_555
N1F C3F 1_555 1_555
C6F C7F 1_555 1_555

#END
