
#######################################################################
#
#                 Cambridge Crystallographic Data Centre
#                                CCDC 
#
#######################################################################
#
# If this CIF has been generated from an entry in the Cambridge 
# Structural Database, then it will include bibliographic, chemical, 
# crystal, experimental, refinement or atomic coordinate data resulting 
# from the CCDC's data processing and validation procedures.
#
#######################################################################

data_LEVJAZ
_chemical_formula_moiety         'C14 H10 F2 O4 S2'
_chemical_name_systematic        
2,7-Difluoro-benzo[1,2-b:6,5-b']dithiophene-4,5-bis(ethyleneoxolane)
_symmetry_cell_setting           triclinic
_symmetry_space_group_name_H-M   'P -1'
_symmetry_Int_Tables_number      2
_space_group_name_Hall           '-P 1'
loop_
_symmetry_equiv_pos_site_id
_symmetry_equiv_pos_as_xyz
1 x,y,z
2 -x,-y,-z
_cell_length_a                   6.907(3)
_cell_length_b                   10.238(3)
_cell_length_c                   10.674(4)
_cell_angle_alpha                100.888(6)
_cell_angle_beta                 103.524(6)
_cell_angle_gamma                99.264(4)
_cell_volume                     703.826
_exptl_crystal_colour            black
_exptl_crystal_description       plates
_cell_formula_units_Z            2
loop_
_atom_site_label
_atom_site_type_symbol
_atom_site_fract_x
_atom_site_fract_y
_atom_site_fract_z
S1 S 0.29621(6) 0.07450(4) -0.07321(4)
S2 S 0.27621(7) -0.05432(4) 0.20983(5)
F1 F 0.26250(19) 0.20359(13) -0.26671(10)
F2 F 0.2662(2) -0.09854(13) 0.44418(13)
O1 O -0.12233(15) 0.29274(12) 0.12109(11)
O2 O 0.08932(18) 0.37740(12) 0.39123(11)
O3 O 0.39502(16) 0.40623(11) 0.34376(10)
O4 O 0.11441(17) 0.48603(11) 0.15658(11)
C1 C 0.2413(3) 0.20687(18) -0.14345(15)
C2 C 0.0894(2) 0.34636(15) 0.15757(15)
C3 C 0.2390(2) 0.10297(15) 0.18531(14)
C4 C 0.2119(2) 0.18332(15) 0.29487(14)
C5 C 0.2300(2) 0.15038(15) 0.06545(14)
C6 C 0.1685(2) 0.26840(15) 0.05230(14)
C7 C 0.1933(2) 0.32885(15) 0.29805(14)
C8 C 0.1748(2) 0.30234(16) -0.07000(15)
H1 H 0.1384 0.3790 -0.0953
C9 C 0.3233(3) 0.55871(16) 0.20300(18)
H2 H 0.3309 0.6537 0.2010
H3 H 0.4003 0.5209 0.1453
C10 C 0.4130(3) 0.54800(16) 0.34115(17)
H4 H 0.5554 0.5944 0.3714
H5 H 0.3418 0.5910 0.4001
C11 C 0.2185(3) 0.11904(18) 0.40245(16)
H6 H 0.2020 0.1583 0.4842
C12 C -0.2205(3) 0.3467(2) 0.2187(2)
H7 H -0.3649 0.3050 0.1899
H8 H -0.2060 0.4442 0.2281
C13 C -0.1265(3) 0.3186(2) 0.3489(2)
H9 H -0.1907 0.3568 0.4146
H10 H -0.1483 0.2210 0.3407
C14 C 0.2520(3) -0.00682(19) 0.36833(18)
loop_
_geom_bond_atom_site_label_1
_geom_bond_atom_site_label_2
_geom_bond_site_symmetry_1
_geom_bond_site_symmetry_2
S1 C1 1_555 1_555
S2 C3 1_555 1_555
F1 C1 1_555 1_555
F2 C14 1_555 1_555
O1 C2 1_555 1_555
O2 C7 1_555 1_555
O3 C7 1_555 1_555
O4 C2 1_555 1_555
C1 C8 1_555 1_555
C2 C6 1_555 1_555
C3 C4 1_555 1_555
C4 C7 1_555 1_555
C5 S1 1_555 1_555
C6 C5 1_555 1_555
C7 C2 1_555 1_555
C8 C6 1_555 1_555
H1 C8 1_555 1_555
C9 O4 1_555 1_555
H2 C9 1_555 1_555
H3 C9 1_555 1_555
C10 O3 1_555 1_555
H4 C10 1_555 1_555
H5 C10 1_555 1_555
C11 C4 1_555 1_555
H6 C11 1_555 1_555
C12 O1 1_555 1_555
H7 C12 1_555 1_555
H8 C12 1_555 1_555
C13 O2 1_555 1_555
H9 C13 1_555 1_555
H10 C13 1_555 1_555
C14 S2 1_555 1_555
C3 C5 1_555 1_555
C9 C10 1_555 1_555
C11 C14 1_555 1_555
C12 C13 1_555 1_555

#END
