
#######################################################################
#
#                 Cambridge Crystallographic Data Centre
#                                CCDC 
#
#######################################################################
#
# If this CIF has been generated from an entry in the Cambridge 
# Structural Database, then it will include bibliographic, chemical, 
# crystal, experimental, refinement or atomic coordinate data resulting 
# from the CCDC's data processing and validation procedures.
#
#######################################################################

data_LEVLII
_chemical_formula_moiety         'C8 H20 Si2 Te2'
_chemical_name_systematic        
3,3,7,7-Tetramethyl-1,5-ditellura-3,7-disilocane
_symmetry_cell_setting           monoclinic
_symmetry_space_group_name_H-M   'P 21/n'
_symmetry_Int_Tables_number      14
_space_group_name_Hall           '-P 2yn'
loop_
_symmetry_equiv_pos_site_id
_symmetry_equiv_pos_as_xyz
1 x,y,z
2 1/2-x,1/2+y,1/2-z
3 -x,-y,-z
4 1/2+x,1/2-y,1/2+z
_cell_length_a                   8.0944(4)
_cell_length_b                   25.8749(13)
_cell_length_c                   10.6969(5)
_cell_angle_alpha                90
_cell_angle_beta                 106.5830(10)
_cell_angle_gamma                90
_cell_volume                     2147.19
_exptl_crystal_colour            colorless
_exptl_crystal_description       block
_chemical_melting_point          56.5-57.5deg.C
_cell_formula_units_Z            6
_exptl_crystal_recrystallization_method hexane
loop_
_atom_site_label
_atom_site_type_symbol
_atom_site_fract_x
_atom_site_fract_y
_atom_site_fract_z
Te1 Te 0.050059(18) 0.200148(6) 0.894783(15)
Te2 Te 0.569240(18) 0.261767(6) 0.767307(14)
Si1 Si 0.33081(8) 0.14916(2) 0.74277(6)
Si2 Si 0.20191(7) 0.31594(2) 0.80525(6)
C1 C 0.1095(3) 0.17608(9) 0.7188(2)
C2 C 0.5062(3) 0.19021(9) 0.8467(2)
C3 C 0.3117(3) 0.29200(9) 0.6850(2)
C4 C 0.2079(3) 0.26828(9) 0.9381(2)
C5 C 0.3396(4) 0.08627(10) 0.8299(3)
C6 C 0.3718(4) 0.13871(12) 0.5817(3)
C7 C 0.3198(4) 0.37443(10) 0.8869(3)
C8 C -0.0248(3) 0.33352(10) 0.7194(3)
H1 H 0.033(4) 0.1482(10) 0.688(3)
H2 H 0.079(4) 0.2020(11) 0.655(3)
H3 H 0.606(4) 0.1747(10) 0.857(2)
H4 H 0.486(3) 0.1967(9) 0.929(2)
H5 H 0.328(3) 0.3188(11) 0.637(3)
H6 H 0.242(3) 0.2674(9) 0.622(2)
H7 H 0.320(3) 0.2595(9) 0.978(2)
H8 H 0.160(3) 0.2843(10) 0.999(2)
H9 H 0.454(4) 0.0717(10) 0.841(2)
H10 H 0.262(5) 0.0622(13) 0.786(3)
H11 H 0.323(4) 0.0923(12) 0.911(3)
H12 H 0.480(4) 0.1231(12) 0.590(3)
H13 H 0.361(4) 0.1693(15) 0.533(3)
H14 H 0.294(4) 0.1149(12) 0.533(3)
H15 H 0.302(4) 0.4025(11) 0.830(3)
H16 H 0.278(5) 0.3842(13) 0.954(3)
H17 H 0.432(4) 0.3685(12) 0.920(3)
H18 H -0.029(3) 0.3591(11) 0.656(3)
H19 H -0.088(4) 0.3040(11) 0.670(3)
H20 H -0.086(4) 0.3475(12) 0.781(3)
Te3 Te 0.678145(19) 0.553856(6) 0.456123(14)
Si3 Si 0.70150(8) 0.49078(2) 0.74268(6)
C9 C 0.6546(3) 0.55340(9) 0.6524(2)
C10 C 0.4073(3) 0.56494(9) 0.3583(2)
C11 C 0.9378(4) 0.47849(11) 0.7962(3)
C12 C 0.6188(4) 0.49653(12) 0.8874(3)
H21 H 0.545(4) 0.5621(11) 0.643(3)
H22 H 0.729(3) 0.5802(10) 0.699(3)
H23 H 0.362(4) 0.5716(11) 0.430(3)
H24 H 0.392(4) 0.5976(11) 0.304(3)
H25 H 0.984(4) 0.4752(12) 0.724(3)
H26 H 0.989(4) 0.5054(12) 0.845(3)
H27 H 0.965(5) 0.4476(14) 0.846(3)
H28 H 0.492(4) 0.5029(12) 0.862(3)
H29 H 0.639(5) 0.4647(15) 0.933(3)
H30 H 0.668(4) 0.5251(13) 0.934(3)
Te3B Te 0.321855(19) 0.446144(6) 0.543877(14)
Si3B Si 0.29850(8) 0.50922(2) 0.25732(6)
C9B C 0.3454(3) 0.44660(9) 0.3476(2)
C10B C 0.5927(3) 0.43506(9) 0.6417(2)
C11B C 0.0622(4) 0.52151(11) 0.2038(3)
C12B C 0.3812(4) 0.50347(12) 0.1126(3)
H21B H 0.455(4) 0.4379(11) 0.357(3)
H22B H 0.271(3) 0.4198(10) 0.301(3)
H23B H 0.638(4) 0.4284(11) 0.570(3)
H24B H 0.608(4) 0.4024(11) 0.696(3)
H25B H 0.016(4) 0.5248(12) 0.276(3)
H26B H 0.011(4) 0.4946(12) 0.155(3)
H27B H 0.035(5) 0.5524(14) 0.154(3)
H28B H 0.508(4) 0.4971(12) 0.138(3)
H29B H 0.361(5) 0.5353(15) 0.067(3)
H30B H 0.332(4) 0.4749(13) 0.066(3)
loop_
_geom_bond_atom_site_label_1
_geom_bond_atom_site_label_2
_geom_bond_site_symmetry_1
_geom_bond_site_symmetry_2
Te1 C1 1_555 1_555
Te2 C2 1_555 1_555
Si1 C1 1_555 1_555
Si2 C3 1_555 1_555
C1 H1 1_555 1_555
C2 Si1 1_555 1_555
C3 Te2 1_555 1_555
C4 Te1 1_555 1_555
C5 Si1 1_555 1_555
C6 Si1 1_555 1_555
C7 Si2 1_555 1_555
C8 Si2 1_555 1_555
H2 C1 1_555 1_555
H3 C2 1_555 1_555
H4 C2 1_555 1_555
H5 C3 1_555 1_555
H6 C3 1_555 1_555
H7 C4 1_555 1_555
H8 C4 1_555 1_555
H9 C5 1_555 1_555
H10 C5 1_555 1_555
H11 C5 1_555 1_555
H12 C6 1_555 1_555
H13 C6 1_555 1_555
H14 C6 1_555 1_555
H15 C7 1_555 1_555
H16 C7 1_555 1_555
H17 C7 1_555 1_555
H18 C8 1_555 1_555
H19 C8 1_555 1_555
H20 C8 1_555 1_555
Te3 C9 1_555 1_555
Si3 C9 1_555 1_555
C9 H21 1_555 1_555
C10 Te3 1_555 1_555
C11 Si3 1_555 1_555
C12 Si3 1_555 1_555
H22 C9 1_555 1_555
H23 C10 1_555 1_555
H24 C10 1_555 1_555
H25 C11 1_555 1_555
H26 C11 1_555 1_555
H27 C11 1_555 1_555
H28 C12 1_555 1_555
H29 C12 1_555 1_555
H30 C12 1_555 1_555
Te3B C9B 1_555 1_555
Si3B C10 1_555 1_555
C9B Si3B 1_555 1_555
C10B Si3 1_555 1_555
C11B Si3B 1_555 1_555
C12B Si3B 1_555 1_555
H21B C9B 1_555 1_555
H22B C9B 1_555 1_555
H23B C10B 1_555 1_555
H24B C10B 1_555 1_555
H25B C11B 1_555 1_555
H26B C11B 1_555 1_555
H27B C11B 1_555 1_555
H28B C12B 1_555 1_555
H29B C12B 1_555 1_555
H30B C12B 1_555 1_555
Si2 C4 1_555 1_555
Te3B C10B 1_555 1_555

#END
