
#######################################################################
#
#                 Cambridge Crystallographic Data Centre
#                                CCDC 
#
#######################################################################
#
# If this CIF has been generated from an entry in the Cambridge 
# Structural Database, then it will include bibliographic, chemical, 
# crystal, experimental, refinement or atomic coordinate data resulting 
# from the CCDC's data processing and validation procedures.
#
#######################################################################

data_LEVLOO
_chemical_formula_moiety         'C16 H44 Si6 Te2'
_chemical_name_systematic        
3,3,7,7-tetrakis(trimethylsilyl)-1,5-ditellura-3,7-disilocane
_symmetry_cell_setting           monoclinic
_symmetry_space_group_name_H-M   'P 21/n'
_symmetry_Int_Tables_number      14
_space_group_name_Hall           '-P 2yn'
loop_
_symmetry_equiv_pos_site_id
_symmetry_equiv_pos_as_xyz
1 x,y,z
2 1/2-x,1/2+y,1/2-z
3 -x,-y,-z
4 1/2+x,1/2-y,1/2+z
_cell_length_a                   6.5427(3)
_cell_length_b                   13.7608(6)
_cell_length_c                   16.9840(8)
_cell_angle_alpha                90
_cell_angle_beta                 98.6130(10)
_cell_angle_gamma                90
_cell_volume                     1511.87
_exptl_crystal_colour            colorless
_exptl_crystal_description       block
_chemical_melting_point          145-146deg.C
_cell_formula_units_Z            2
_exptl_crystal_recrystallization_method pentane/2-methylbutane
loop_
_atom_site_label
_atom_site_type_symbol
_atom_site_fract_x
_atom_site_fract_y
_atom_site_fract_z
Te1 Te 0.20363(2) 0.064650(11) 1.095113(8)
Si1 Si 0.03822(9) 0.15604(4) 0.90798(3)
Si2 Si 0.10215(10) 0.14756(4) 0.77577(4)
Si3 Si 0.00437(9) 0.31915(4) 0.94556(3)
C1 C 0.2606(4) 0.09934(19) 0.97601(14)
C2 C 0.2091(3) -0.09130(18) 1.08099(16)
C3 C -0.1468(6) 0.1663(3) 0.70794(18)
C4 C 0.2883(6) 0.2451(2) 0.7587(2)
C5 C 0.2113(6) 0.0273(2) 0.75307(19)
C6 C -0.1603(5) 0.3892(2) 0.86559(18)
C7 C 0.2671(5) 0.3769(2) 0.96521(19)
C8 C -0.1174(5) 0.3238(2) 1.03828(16)
H1 H 0.369(5) 0.139(2) 0.9834(18)
H2 H 0.241(4) -0.1014(18) 1.0311(16)
H3 H -0.240(6) 0.116(3) 0.713(2)
H4 H 0.406(6) 0.242(3) 0.791(2)
H5 H 0.238(5) 0.024(2) 0.699(2)
H6 H -0.100(5) 0.391(2) 0.821(2)
H7 H 0.328(5) 0.381(2) 0.923(2)
H8 H -0.142(5) 0.389(3) 1.0516(19)
H9 H 0.294(4) 0.042(2) 0.9556(15)
H10 H 0.317(5) -0.111(2) 1.1175(17)
H11 H -0.116(6) 0.164(3) 0.657(3)
H12 H 0.227(5) 0.308(2) 0.7633(19)
H13 H 0.329(6) 0.012(3) 0.790(2)
H14 H -0.286(5) 0.364(2) 0.8541(18)
H15 H 0.355(5) 0.343(2) 1.004(2)
H16 H -0.252(5) 0.296(2) 1.0294(17)
H17 H -0.207(5) 0.228(3) 0.7141(18)
H18 H 0.308(6) 0.244(3) 0.705(2)
H19 H 0.114(4) -0.019(2) 0.7602(16)
H20 H -0.176(5) 0.454(2) 0.882(2)
H21 H 0.262(5) 0.436(2) 0.988(2)
H22 H -0.046(4) 0.295(2) 1.0819(19)
Te1B Te -0.20363(2) -0.064650(11) 0.904887(8)
Si1B Si -0.03822(9) -0.15604(4) 1.09202(3)
Si2B Si -0.10215(10) -0.14756(4) 1.22423(4)
Si3B Si -0.00437(9) -0.31915(4) 1.05444(3)
C1B C -0.2606(4) -0.09934(19) 1.02399(14)
C2B C -0.2091(3) 0.09130(18) 0.91901(16)
C3B C 0.1468(6) -0.1663(3) 1.29206(18)
C4B C -0.2883(6) -0.2451(2) 1.2413(2)
C5B C -0.2113(6) -0.0273(2) 1.24693(19)
C6B C 0.1603(5) -0.3892(2) 1.13441(18)
C7B C -0.2671(5) -0.3769(2) 1.03479(19)
C8B C 0.1174(5) -0.3238(2) 0.96172(16)
H1B H -0.369(5) -0.139(2) 1.0166(18)
H2B H -0.241(4) 0.1014(18) 0.9689(16)
H3B H 0.240(6) -0.116(3) 1.287(2)
H4B H -0.406(6) -0.242(3) 1.209(2)
H5B H -0.238(5) -0.024(2) 1.301(2)
H6B H 0.100(5) -0.391(2) 1.179(2)
H7B H -0.328(5) -0.381(2) 1.077(2)
H8B H 0.142(5) -0.389(3) 0.9484(19)
H9B H -0.294(4) -0.042(2) 1.0444(15)
H10B H -0.317(5) 0.111(2) 0.8825(17)
H11B H 0.116(6) -0.164(3) 1.343(3)
H12B H -0.227(5) -0.308(2) 1.2367(19)
H13B H -0.329(6) -0.012(3) 1.210(2)
H14B H 0.286(5) -0.364(2) 1.1459(18)
H15B H -0.355(5) -0.343(2) 0.996(2)
H16B H 0.252(5) -0.296(2) 0.9706(17)
H17B H 0.207(5) -0.228(3) 1.2859(18)
H18B H -0.308(6) -0.244(3) 1.295(2)
H19B H -0.114(4) 0.019(2) 1.2398(16)
H20B H 0.176(5) -0.454(2) 1.118(2)
H21B H -0.262(5) -0.436(2) 1.012(2)
H22B H 0.046(4) -0.295(2) 0.9181(19)
loop_
_geom_bond_atom_site_label_1
_geom_bond_atom_site_label_2
_geom_bond_site_symmetry_1
_geom_bond_site_symmetry_2
Te1 C1 1_555 1_555
Si1 Si2 1_555 1_555
Si2 C3 1_555 1_555
Si3 Si1 1_555 1_555
C1 Si1 1_555 1_555
C2 Te1 1_555 1_555
C3 H3 1_555 1_555
C4 Si2 1_555 1_555
C5 Si2 1_555 1_555
C6 Si3 1_555 1_555
C7 Si3 1_555 1_555
C8 Si3 1_555 1_555
H1 C1 1_555 1_555
H2 C2 1_555 1_555
H4 C4 1_555 1_555
H5 C5 1_555 1_555
H6 C6 1_555 1_555
H7 C7 1_555 1_555
H8 C8 1_555 1_555
H9 C1 1_555 1_555
H10 C2 1_555 1_555
H11 C3 1_555 1_555
H12 C4 1_555 1_555
H13 C5 1_555 1_555
H14 C6 1_555 1_555
H15 C7 1_555 1_555
H16 C8 1_555 1_555
H17 C3 1_555 1_555
H18 C4 1_555 1_555
H19 C5 1_555 1_555
H20 C6 1_555 1_555
H21 C7 1_555 1_555
H22 C8 1_555 1_555
Te1B C1B 1_555 1_555
Si1B C2 1_555 1_555
Si2B Si1B 1_555 1_555
Si3B Si1B 1_555 1_555
C1B Si1B 1_555 1_555
C2B Si1 1_555 1_555
C3B Si2B 1_555 1_555
C4B Si2B 1_555 1_555
C5B Si2B 1_555 1_555
C6B Si3B 1_555 1_555
C7B Si3B 1_555 1_555
C8B Si3B 1_555 1_555
H1B C1B 1_555 1_555
H2B C2B 1_555 1_555
H3B C3B 1_555 1_555
H4B C4B 1_555 1_555
H5B C5B 1_555 1_555
H6B C6B 1_555 1_555
H7B C7B 1_555 1_555
H8B C8B 1_555 1_555
H9B C1B 1_555 1_555
H10B C2B 1_555 1_555
H11B C3B 1_555 1_555
H12B C4B 1_555 1_555
H13B C5B 1_555 1_555
H14B C6B 1_555 1_555
H15B C7B 1_555 1_555
H16B C8B 1_555 1_555
H17B C3B 1_555 1_555
H18B C4B 1_555 1_555
H19B C5B 1_555 1_555
H20B C6B 1_555 1_555
H21B C7B 1_555 1_555
H22B C8B 1_555 1_555
Te1B C2B 1_555 1_555

#END
