
#######################################################################
#
#                 Cambridge Crystallographic Data Centre
#                                CCDC 
#
#######################################################################
#
# If this CIF has been generated from an entry in the Cambridge 
# Structural Database, then it will include bibliographic, chemical, 
# crystal, experimental, refinement or atomic coordinate data resulting 
# from the CCDC's data processing and validation procedures.
#
#######################################################################

data_LEVLAA
_chemical_formula_moiety         'C8 H20 Se2 Si2'
_chemical_name_systematic        
3,3,7,7-Tetramethyl-1,5-diselena-3,7-disilocane
_symmetry_cell_setting           monoclinic
_symmetry_space_group_name_H-M   'P 21/c'
_symmetry_Int_Tables_number      14
_space_group_name_Hall           '-P 2ybc'
loop_
_symmetry_equiv_pos_site_id
_symmetry_equiv_pos_as_xyz
1 x,y,z
2 -x,1/2+y,1/2-z
3 -x,-y,-z
4 x,1/2-y,1/2+z
_cell_length_a                   7.3665(4)
_cell_length_b                   13.2789(7)
_cell_length_c                   14.1387(7)
_cell_angle_alpha                90
_cell_angle_beta                 99.6510(10)
_cell_angle_gamma                90
_cell_volume                     1363.46
_exptl_crystal_colour            colorless
_exptl_crystal_description       plate
_chemical_melting_point          30-31deg.C
_cell_formula_units_Z            4
loop_
_atom_site_label
_atom_site_type_symbol
_atom_site_fract_x
_atom_site_fract_y
_atom_site_fract_z
Se1 Se 0.04806(2) 0.861165(13) 0.241117(11)
Se2 Se -0.27945(3) 0.893439(15) 0.503259(12)
Si1 Si -0.02383(6) 0.72110(3) 0.41846(3)
Si2 Si -0.33891(6) 0.96742(3) 0.27971(3)
C1 C -0.0807(2) 0.74658(12) 0.28611(11)
C2 C -0.0388(2) 0.83559(13) 0.49402(12)
C3 C -0.4121(2) 0.88228(14) 0.37201(13)
C4 C -0.0826(2) 0.97446(12) 0.28656(13)
C5 C 0.2205(3) 0.67907(18) 0.44606(16)
C6 C -0.1799(3) 0.62035(16) 0.44843(16)
C7 C -0.4136(3) 1.09852(16) 0.30183(17)
C8 C -0.4512(2) 0.92240(17) 0.15949(13)
H1 H -0.031(3) 0.6916(16) 0.2522(14)
H2 H -0.210(3) 0.7519(14) 0.2598(13)
H3 H 0.009(3) 0.8098(17) 0.5594(16)
H4 H 0.044(3) 0.8846(16) 0.4777(15)
H5 H -0.535(3) 0.8990(16) 0.3802(16)
H6 H -0.420(2) 0.8094(15) 0.3548(13)
H7 H -0.063(3) 1.0279(17) 0.2444(14)
H8 H -0.021(3) 0.9942(16) 0.3486(14)
H9 H 0.307(4) 0.723(2) 0.428(2)
H10 H 0.238(4) 0.619(2) 0.413(2)
H11 H 0.263(5) 0.675(3) 0.508(3)
H12 H -0.166(4) 0.561(2) 0.4103(19)
H13 H -0.156(3) 0.6026(18) 0.507(2)
H14 H -0.306(5) 0.644(2) 0.442(2)
H15 H -0.373(4) 1.1191(19) 0.361(2)
H16 H -0.538(4) 1.0974(19) 0.3004(19)
H17 H -0.369(4) 1.148(2) 0.256(2)
H18 H -0.582(4) 0.9172(19) 0.1614(17)
H19 H -0.435(3) 0.9649(18) 0.1126(17)
H20 H -0.409(3) 0.8554(18) 0.1466(16)
loop_
_geom_bond_atom_site_label_1
_geom_bond_atom_site_label_2
_geom_bond_site_symmetry_1
_geom_bond_site_symmetry_2
Se1 C1 1_555 1_555
Se2 C2 1_555 1_555
Si1 C1 1_555 1_555
Si2 C3 1_555 1_555
C1 H1 1_555 1_555
C2 Si1 1_555 1_555
C3 Se2 1_555 1_555
C4 Se1 1_555 1_555
C5 Si1 1_555 1_555
C6 Si1 1_555 1_555
C7 Si2 1_555 1_555
C8 Si2 1_555 1_555
H2 C1 1_555 1_555
H3 C2 1_555 1_555
H4 C2 1_555 1_555
H5 C3 1_555 1_555
H6 C3 1_555 1_555
H7 C4 1_555 1_555
H8 C4 1_555 1_555
H9 C5 1_555 1_555
H10 C5 1_555 1_555
H11 C5 1_555 1_555
H12 C6 1_555 1_555
H13 C6 1_555 1_555
H14 C6 1_555 1_555
H15 C7 1_555 1_555
H16 C7 1_555 1_555
H17 C7 1_555 1_555
H18 C8 1_555 1_555
H19 C8 1_555 1_555
H20 C8 1_555 1_555
Si2 C4 1_555 1_555

#END
