
#######################################################################
#
#                 Cambridge Crystallographic Data Centre
#                                CCDC 
#
#######################################################################
#
# If this CIF has been generated from an entry in the Cambridge 
# Structural Database, then it will include bibliographic, chemical, 
# crystal, experimental, refinement or atomic coordinate data resulting 
# from the CCDC's data processing and validation procedures.
#
#######################################################################

data_LEVREJ
_chemical_formula_moiety         'C26 H30 N2 O2'
_chemical_name_systematic        
1,3-Dibenzyl-2-(4',4'-dimethyl-2',6'-dioxocyclohexylidene)hexahydropyrimidine
_symmetry_cell_setting           triclinic
_symmetry_space_group_name_H-M   'P -1'
_symmetry_Int_Tables_number      2
_space_group_name_Hall           '-P 1'
loop_
_symmetry_equiv_pos_site_id
_symmetry_equiv_pos_as_xyz
1 x,y,z
2 -x,-y,-z
_cell_length_a                   9.971(4)
_cell_length_b                   10.113(3)
_cell_length_c                   11.247(4)
_cell_angle_alpha                88.90(3)
_cell_angle_beta                 88.86(3)
_cell_angle_gamma                87.49(3)
_cell_volume                     1132.61
_exptl_crystal_colour            white
_chemical_melting_point          214-216deg.C
_cell_formula_units_Z            2
loop_
_atom_site_label
_atom_site_type_symbol
_atom_site_fract_x
_atom_site_fract_y
_atom_site_fract_z
O1 O -0.2733(9) 0.0526(8) 0.1466(8)
O2 O -0.1157(9) 0.4802(8) 0.2048(9)
N1 N -0.0466(12) 0.2678(11) -0.0038(13)
N2 N 0.0327(14) 0.1580(12) 0.1605(11)
C1 C 0.0814(13) 0.1595(18) 0.3811(13)
C2 C 0.0694(17) 0.2942(17) 0.4044(18)
C3 C 0.1216(15) 0.3443(16) 0.5020(18)
C4 C 0.1873(18) 0.2657(20) 0.5827(15)
C5 C 0.2039(18) 0.1325(19) 0.5634(16)
C6 C 0.1555(15) 0.0801(15) 0.4632(15)
C7 C -0.2178(19) 0.2990(15) -0.1603(14)
C8 C -0.3268(19) 0.2183(16) -0.1411(15)
C9 C -0.3984(18) 0.1707(17) -0.2346(24)
C10 C -0.3554(33) 0.2032(23) -0.3471(25)
C11 C -0.2493(28) 0.2730(24) -0.3691(23)
C12 C -0.1803(18) 0.3226(14) -0.2762(19)
C13 C -0.1898(13) 0.2634(14) 0.1769(12)
C14 C -0.2814(16) 0.1663(17) 0.1875(11)
C15 C -0.4116(15) 0.2034(15) 0.2606(14)
C16 C -0.4536(14) 0.3497(14) 0.2625(13)
C17 C -0.3308(16) 0.4225(13) 0.2944(12)
C18 C -0.2024(16) 0.3960(15) 0.2213(12)
C19 C -0.0652(15) 0.2288(14) 0.1098(16)
C20 C 0.0734(17) 0.2297(13) -0.0737(13)
C21 C 0.1951(16) 0.2221(16) 0.0032(16)
C22 C 0.1660(16) 0.1257(15) 0.1061(16)
C23 C -0.5039(14) 0.4000(14) 0.1428(14)
C24 C -0.5630(16) 0.3742(15) 0.3571(16)
C25 C -0.1403(15) 0.3632(13) -0.0624(12)
C26 C 0.0149(13) 0.0925(10) 0.2768(12)
H1 H 0.0177 0.3497 0.3439
H2 H 0.1128 0.4370 0.5114
H3 H 0.2231 0.3059 0.6488
H4 H 0.2468 0.0796 0.6214
H5 H 0.1736 -0.0135 0.4489
H6 H -0.3588 0.2081 -0.0563
H7 H -0.4712 0.1068 -0.2168
H8 H -0.4148 0.1834 -0.4097
H9 H -0.2224 0.2902 -0.4471
H10 H -0.1014 0.3711 -0.2938
H11 H -0.3084 0.4040 0.3751
H12 H -0.3503 0.5174 0.2874
H13 H -0.3998 0.1720 0.3375
H14 H -0.4818 0.1585 0.2234
H15 H 0.0840 0.2923 -0.1366
H16 H 0.0586 0.1448 -0.1068
H17 H 0.2708 0.1901 -0.0423
H18 H 0.2117 0.3072 0.0331
H19 H 0.1699 0.0367 0.0776
H20 H 0.2334 0.1321 0.1652
H21 H -0.0932 0.4341 -0.1015
H22 H -0.2055 0.4006 -0.0097
H23 H 0.0472 0.0020 0.2711
H24 H -0.0796 0.0918 0.2948
H25 H -0.4361 0.3847 0.0830
H26 H -0.5826 0.3519 0.1232
H27 H -0.5282 0.4920 0.1470
H28 H -0.5296 0.3408 0.4340
H29 H -0.5858 0.4651 0.3624
H30 H -0.6401 0.3251 0.3386
loop_
_geom_bond_atom_site_label_1
_geom_bond_atom_site_label_2
_geom_bond_site_symmetry_1
_geom_bond_site_symmetry_2
O1 C14 1_555 1_555
O2 C18 1_555 1_555
N1 C19 1_555 1_555
N2 C19 1_555 1_555
C1 C2 1_555 1_555
C2 C3 1_555 1_555
C3 C4 1_555 1_555
C4 C5 1_555 1_555
C5 C6 1_555 1_555
C6 C1 1_555 1_555
C7 C8 1_555 1_555
C8 C9 1_555 1_555
C9 C10 1_555 1_555
C10 C11 1_555 1_555
C11 C12 1_555 1_555
C12 C7 1_555 1_555
C13 C14 1_555 1_555
C14 C15 1_555 1_555
C15 C16 1_555 1_555
C16 C17 1_555 1_555
C17 C18 1_555 1_555
C18 C13 1_555 1_555
C19 C13 1_555 1_555
C20 N1 1_555 1_555
C21 C20 1_555 1_555
C22 N2 1_555 1_555
C23 C16 1_555 1_555
C24 C16 1_555 1_555
C25 N1 1_555 1_555
C26 N2 1_555 1_555
H1 C2 1_555 1_555
H2 C3 1_555 1_555
H3 C4 1_555 1_555
H4 C5 1_555 1_555
H5 C6 1_555 1_555
H6 C8 1_555 1_555
H7 C9 1_555 1_555
H8 C10 1_555 1_555
H9 C11 1_555 1_555
H10 C12 1_555 1_555
H11 C17 1_555 1_555
H12 C17 1_555 1_555
H13 C15 1_555 1_555
H14 C15 1_555 1_555
H15 C20 1_555 1_555
H16 C20 1_555 1_555
H17 C21 1_555 1_555
H18 C21 1_555 1_555
H19 C22 1_555 1_555
H20 C22 1_555 1_555
H21 C25 1_555 1_555
H22 C25 1_555 1_555
H23 C26 1_555 1_555
H24 C26 1_555 1_555
H25 C23 1_555 1_555
H26 C23 1_555 1_555
H27 C23 1_555 1_555
H28 C24 1_555 1_555
H29 C24 1_555 1_555
H30 C24 1_555 1_555
C1 C26 1_555 1_555
C7 C25 1_555 1_555
C21 C22 1_555 1_555

#END
