
#######################################################################
#
#                 Cambridge Crystallographic Data Centre
#                                CCDC 
#
#######################################################################
#
# If this CIF has been generated from an entry in the Cambridge 
# Structural Database, then it will include bibliographic, chemical, 
# crystal, experimental, refinement or atomic coordinate data resulting 
# from the CCDC's data processing and validation procedures.
#
#######################################################################

data_LEVROT
_chemical_formula_moiety         'C27 H32 N2 S2'
_chemical_name_systematic        
1,3-Dibenzyl-2-(2'-(methylthio)-4',4'-dimethyl-6'-thioxocyclohex-2-enylidene)hexahydropyrimidine
_symmetry_cell_setting           triclinic
_symmetry_space_group_name_H-M   'P -1'
_symmetry_Int_Tables_number      2
_space_group_name_Hall           '-P 1'
loop_
_symmetry_equiv_pos_site_id
_symmetry_equiv_pos_as_xyz
1 x,y,z
2 -x,-y,-z
_cell_length_a                   9.225(3)
_cell_length_b                   10.681(4)
_cell_length_c                   13.907(4)
_cell_angle_alpha                99.92(3)
_cell_angle_beta                 94.45(3)
_cell_angle_gamma                113.16(3)
_cell_volume                     1224.94
_exptl_crystal_colour            orange
_chemical_melting_point          169-171deg.C
_cell_formula_units_Z            2
loop_
_atom_site_label
_atom_site_type_symbol
_atom_site_fract_x
_atom_site_fract_y
_atom_site_fract_z
S1 S 0.2438(1) 0.0871(1) 0.1179(1)
S2 S 0.7641(1) 0.3226(1) 0.4122(1)
N1 N 0.6339(4) 0.0652(3) 0.2164(2)
N2 N 0.6492(4) 0.2443(3) 0.1393(2)
C1 C 0.5933(5) 0.1703(4) 0.2071(3)
C2 C 0.4904(5) 0.2050(4) 0.2733(3)
C3 C 0.3332(5) 0.1702(4) 0.2378(3)
C4 C 0.2361(5) 0.2118(5) 0.3088(3)
C5 C 0.2756(3) 0.2025(5) 0.4161(3)
C6 C 0.4551(5) 0.2676(4) 0.4453(3)
C7 C 0.5520(5) 0.2688(4) 0.3810(3)
C8 C 0.7425(6) 0.0288(5) 0.1568(4)
C9 C 0.8523(6) 0.1525(5) 0.1234(3)
C10 C 0.7523(6) 0.2132(5) 0.0735(3)
C11 C 0.5819(6) -0.0153(4) 0.2933(3)
C12 C 0.4854(5) -0.1692(4) 0.2522(3)
C13 C 0.3369(6) -0.2185(5) 0.1944(3)
C14 C 0.2432(7) -0.3595(5) 0.1660(3)
C15 C 0.2967(8) -0.4546(5) 0.1933(4)
C16 C 0.4446(7) -0.4068(5) 0.2493(4)
C17 C 0.5391(6) -0.2651(5) 0.2776(3)
C18 C 0.5917(5) 0.3458(4) 0.1136(3)
C19 C 0.7179(5) 0.4930(4) 0.1342(3)
C20 C 0.8169(5) 0.5560(4) 0.2246(3)
C21 C 0.9223(6) 0.6948(5) 0.2447(4)
C22 C 0.9316(6) 0.7731(5) 0.1750(4)
C23 C 0.8355(6) 0.7134(5) 0.0860(4)
C24 C 0.7274(5) 0.5736(4) 0.0647(3)
C25 C 0.2114(6) 0.0486(5) 0.4218(3)
C26 C 0.1974(6) 0.2772(6) 0.4830(4)
C27 C 0.7947(6) 0.3494(6) 0.5427(3)
H1 H 0.2549 0.3136 0.3110
H2 H 0.1277 0.1486 0.2788
H3 H 0.4953 0.3170 0.5185
H4 H 0.6750 -0.0552 0.0979
H5 H 0.8054 -0.0070 0.1933
H6 H 0.9191 0.1400 0.0853
H7 H 0.9144 0.2297 0.1858
H8 H 0.6896 0.1438 0.0118
H9 H 0.8159 0.2991 0.0584
H10 H 0.6792 -0.0079 0.3318
H11 H 0.5181 0.0220 0.3335
H12 H 0.2942 -0.1503 0.1854
H13 H 0.1461 -0.3884 0.1290
H14 H 0.2368 -0.5556 0.1725
H15 H 0.4783 -0.4671 0.2678
H16 H 0.6488 -0.2335 0.3084
H17 H 0.5411 0.3072 0.0383
H18 H 0.5059 0.3472 0.1511
H19 H 0.8144 0.5005 0.2660
H20 H 0.9917 0.7395 0.3079
H21 H 1.0005 0.8762 0.1988
H22 H 0.8332 0.7537 0.0361
H23 H 0.6638 0.5248 0.0025
H24 H 0.2496 -0.0072 0.3731
H25 H 0.2440 0.0390 0.4862
H26 H 0.0907 -0.0031 0.4058
H27 H 0.2428 0.3958 0.4900
H28 H 0.2048 0.2754 0.5537
H29 H 0.0840 0.2382 0.4614
H30 H 0.7589 0.4170 0.5776
H31 H 0.8984 0.3664 0.5607
H32 H 0.7362 0.2532 0.5532
loop_
_geom_bond_atom_site_label_1
_geom_bond_atom_site_label_2
_geom_bond_site_symmetry_1
_geom_bond_site_symmetry_2
S1 C3 1_555 1_555
S2 C7 1_555 1_555
N1 C1 1_555 1_555
N2 C1 1_555 1_555
C1 C2 1_555 1_555
C2 C3 1_555 1_555
C3 C4 1_555 1_555
C4 C5 1_555 1_555
C5 C6 1_555 1_555
C6 C7 1_555 1_555
C7 C2 1_555 1_555
C8 N1 1_555 1_555
C9 C8 1_555 1_555
C10 N2 1_555 1_555
C11 N1 1_555 1_555
C12 C11 1_555 1_555
C13 C12 1_555 1_555
C14 C13 1_555 1_555
C15 C14 1_555 1_555
C16 C15 1_555 1_555
C17 C12 1_555 1_555
C18 N2 1_555 1_555
C19 C18 1_555 1_555
C20 C19 1_555 1_555
C21 C20 1_555 1_555
C22 C21 1_555 1_555
C23 C22 1_555 1_555
C24 C19 1_555 1_555
C25 C5 1_555 1_555
C26 C5 1_555 1_555
C27 S2 1_555 1_555
H1 C4 1_555 1_555
H2 C4 1_555 1_555
H3 C6 1_555 1_555
H4 C8 1_555 1_555
H5 C8 1_555 1_555
H6 C9 1_555 1_555
H7 C9 1_555 1_555
H8 C10 1_555 1_555
H9 C10 1_555 1_555
H10 C11 1_555 1_555
H11 C11 1_555 1_555
H12 C13 1_555 1_555
H13 C14 1_555 1_555
H14 C15 1_555 1_555
H15 C16 1_555 1_555
H16 C17 1_555 1_555
H17 C18 1_555 1_555
H18 C18 1_555 1_555
H19 C20 1_555 1_555
H20 C21 1_555 1_555
H21 C22 1_555 1_555
H22 C23 1_555 1_555
H23 C24 1_555 1_555
H24 C25 1_555 1_555
H25 C25 1_555 1_555
H26 C25 1_555 1_555
H27 C26 1_555 1_555
H28 C26 1_555 1_555
H29 C26 1_555 1_555
H30 C27 1_555 1_555
H31 C27 1_555 1_555
H32 C27 1_555 1_555
C9 C10 1_555 1_555
C16 C17 1_555 1_555
C23 C24 1_555 1_555

#END
