
#######################################################################
#
#                 Cambridge Crystallographic Data Centre
#                                CCDC 
#
#######################################################################
#
# If this CIF has been generated from an entry in the Cambridge 
# Structural Database, then it will include bibliographic, chemical, 
# crystal, experimental, refinement or atomic coordinate data resulting 
# from the CCDC's data processing and validation procedures.
#
#######################################################################

data_LEVSUB
_chemical_formula_moiety         'C22 H33 N1 O6'
_chemical_name_systematic        
4-(dispiro[cyclohexane-1,3'-[1,2,4,5]tetroxane-6',2''-tricyclo[3.3.1.1^3,7^]decan]-4-ylacetyl)morpholine
_chemical_properties_biological  'antimalarial activity'
_symmetry_cell_setting           monoclinic
_symmetry_space_group_name_H-M   'P 21/n'
_symmetry_Int_Tables_number      14
_space_group_name_Hall           '-P 2yn'
loop_
_symmetry_equiv_pos_site_id
_symmetry_equiv_pos_as_xyz
1 x,y,z
2 1/2-x,1/2+y,1/2-z
3 -x,-y,-z
4 1/2+x,1/2-y,1/2+z
_cell_length_a                   6.2610(6)
_cell_length_b                   37.479(3)
_cell_length_c                   8.6291(8)
_cell_angle_alpha                90
_cell_angle_beta                 90.841(2)
_cell_angle_gamma                90
_cell_volume                     2024.65
_exptl_crystal_colour            colorless
_exptl_crystal_description       block
_cell_formula_units_Z            4
_exptl_crystal_recrystallization_method dichloromethane/hexane
loop_
_atom_site_label
_atom_site_type_symbol
_atom_site_fract_x
_atom_site_fract_y
_atom_site_fract_z
C1 C 0.9308(3) -0.04547(6) 0.3066(2)
C2 C 0.7424(3) -0.01969(6) 0.3102(2)
H1 H 0.7276 -0.0105 0.4171
H2 H 0.6101 -0.0329 0.2832
C3 C 0.7643(3) 0.01186(5) 0.1996(2)
H3 H 0.8109 0.0025 0.0970
C4 C 0.9292(3) 0.03944(6) 0.2553(2)
H4 H 0.8871 0.0488 0.3578
H5 H 1.0703 0.0278 0.2676
C5 C 0.9464(3) 0.07026(6) 0.1409(2)
H6 H 1.0480 0.0882 0.1826
H7 H 1.0032 0.0613 0.0418
C6 C 0.7303(3) 0.08787(5) 0.1111(2)
C7 C 0.5603(3) 0.06118(6) 0.0614(2)
H8 H 0.5941 0.0518 -0.0426
H9 H 0.4200 0.0733 0.0543
C8 C 0.5472(3) 0.03029(6) 0.1761(2)
H10 H 0.4416 0.0126 0.1374
H11 H 0.4972 0.0394 0.2770
C9 C 1.0766(3) -0.10434(6) 0.3723(3)
H12 H 1.1375 -0.1068 0.4783
H13 H 1.1915 -0.0963 0.3028
C10 C 0.9896(3) -0.14002(6) 0.3175(3)
H14 H 0.9427 -0.1380 0.2078
H15 H 1.1048 -0.1581 0.3233
C11 C 0.6448(3) -0.12614(6) 0.3992(3)
H16 H 0.5231 -0.1346 0.4613
H17 H 0.5952 -0.1238 0.2902
C12 C 0.7176(3) -0.09004(6) 0.4587(2)
H18 H 0.6002 -0.0725 0.4467
H19 H 0.7555 -0.0918 0.5702
C13 C 0.5298(3) 0.15279(5) 0.1112(2)
C14 C 0.3192(3) 0.17289(6) 0.0857(2)
H20 H 0.2029 0.1557 0.0574
C15 C 0.2630(3) 0.19253(6) 0.2361(2)
H21 H 0.2447 0.1750 0.3208
H22 H 0.1266 0.2056 0.2215
C16 C 0.4422(3) 0.21902(6) 0.2800(2)
H23 H 0.4042 0.2318 0.3775
C17 C 0.6511(3) 0.19811(6) 0.3059(2)
H24 H 0.7673 0.2148 0.3361
H25 H 0.6330 0.1807 0.3909
C18 C 0.7105(3) 0.17849(6) 0.1570(3)
H26 H 0.8466 0.1650 0.1734
C19 C 0.7364(3) 0.20558(6) 0.0253(2)
H27 H 0.7749 0.1929 -0.0711
H28 H 0.8531 0.2224 0.0519
C20 C 0.5270(3) 0.22639(6) -0.0011(2)
H29 H 0.5462 0.2441 -0.0864
C21 C 0.3486(3) 0.20013(6) -0.0462(2)
H30 H 0.3862 0.1875 -0.1429
H31 H 0.2135 0.2133 -0.0649
C22 C 0.4696(3) 0.24604(6) 0.1490(2)
H32 H 0.5843 0.2632 0.1769
H33 H 0.3354 0.2596 0.1331
N1 N 0.9032(3) -0.07809(5) 0.3718(2)
O1 O 1.0994(2) -0.03738(4) 0.24406(18)
O2 O 0.8141(2) -0.15162(4) 0.40838(18)
O3 O 0.7706(2) 0.11412(4) -0.00479(16)
O4 O 0.5698(2) 0.13428(4) -0.02970(16)
O5 O 0.48514(19) 0.12655(4) 0.22652(16)
O6 O 0.6835(2) 0.10595(4) 0.25284(16)
loop_
_geom_bond_atom_site_label_1
_geom_bond_atom_site_label_2
_geom_bond_site_symmetry_1
_geom_bond_site_symmetry_2
C1 C2 1_555 1_555
C2 H1 1_555 1_555
H2 C2 1_555 1_555
C3 C2 1_555 1_555
H3 C3 1_555 1_555
C4 C3 1_555 1_555
H4 C4 1_555 1_555
H5 C4 1_555 1_555
C5 C4 1_555 1_555
H6 C5 1_555 1_555
H7 C5 1_555 1_555
C6 C5 1_555 1_555
C7 C6 1_555 1_555
H8 C7 1_555 1_555
H9 C7 1_555 1_555
C8 C3 1_555 1_555
H10 C8 1_555 1_555
H11 C8 1_555 1_555
C9 H12 1_555 1_555
H13 C9 1_555 1_555
C10 C9 1_555 1_555
H14 C10 1_555 1_555
H15 C10 1_555 1_555
C11 H16 1_555 1_555
H17 C11 1_555 1_555
C12 C11 1_555 1_555
H18 C12 1_555 1_555
H19 C12 1_555 1_555
C13 C14 1_555 1_555
C14 H20 1_555 1_555
C15 C14 1_555 1_555
H21 C15 1_555 1_555
H22 C15 1_555 1_555
C16 C15 1_555 1_555
H23 C16 1_555 1_555
C17 C16 1_555 1_555
H24 C17 1_555 1_555
H25 C17 1_555 1_555
C18 C13 1_555 1_555
H26 C18 1_555 1_555
C19 C18 1_555 1_555
H27 C19 1_555 1_555
H28 C19 1_555 1_555
C20 C19 1_555 1_555
H29 C20 1_555 1_555
C21 C14 1_555 1_555
H30 C21 1_555 1_555
H31 C21 1_555 1_555
C22 C16 1_555 1_555
H32 C22 1_555 1_555
H33 C22 1_555 1_555
N1 C1 1_555 1_555
O1 C1 1_555 1_555
O2 C10 1_555 1_555
O3 C6 1_555 1_555
O4 C13 1_555 1_555
O5 C13 1_555 1_555
O6 C6 1_555 1_555
C7 C8 1_555 1_555
C9 N1 1_555 1_555
C11 O2 1_555 1_555
C12 N1 1_555 1_555
C17 C18 1_555 1_555
C20 C21 1_555 1_555
C20 C22 1_555 1_555
O3 O4 1_555 1_555
O5 O6 1_555 1_555

#END
