
#######################################################################
#
#                 Cambridge Crystallographic Data Centre
#                                CCDC 
#
#######################################################################
#
# If this CIF has been generated from an entry in the Cambridge 
# Structural Database, then it will include bibliographic, chemical, 
# crystal, experimental, refinement or atomic coordinate data resulting 
# from the CCDC's data processing and validation procedures.
#
#######################################################################

data_LEVVAM
_chemical_formula_moiety         'C18 H16 O6'
_chemical_name_systematic        
'2,3-bis(2-furyl)-6-methyl-8-oxo-7-oxabicyclo[4.2.0]oct-3-en-5-yl acetate'
_symmetry_cell_setting           triclinic
_symmetry_space_group_name_H-M   'P -1'
_symmetry_Int_Tables_number      2
_space_group_name_Hall           '-P 1'
loop_
_symmetry_equiv_pos_site_id
_symmetry_equiv_pos_as_xyz
1 x,y,z
2 -x,-y,-z
_cell_length_a                   7.652(2)
_cell_length_b                   8.435(2)
_cell_length_c                   13.737(4)
_cell_angle_alpha                82.170(10)
_cell_angle_beta                 89.400(10)
_cell_angle_gamma                65.087(5)
_cell_volume                     795.561
_exptl_crystal_colour            colorless
_exptl_crystal_description       prism
_cell_formula_units_Z            2
loop_
_atom_site_label
_atom_site_type_symbol
_atom_site_fract_x
_atom_site_fract_y
_atom_site_fract_z
O1 O -0.18336(18) 1.00243(17) 0.06331(9)
O2 O -0.04776(16) 0.81166(15) 0.45123(8)
O3 O -0.17602(19) 0.62840(19) 0.41033(10)
O4 O 0.29947(15) 0.94449(14) 0.32139(9)
O5 O 0.1690(2) 1.23788(17) 0.28763(14)
O6 O 0.3937(2) 0.4916(2) 0.13800(11)
C1 C -0.2557(3) 0.9806(3) -0.02165(14)
H1 H -0.3370 1.0725 -0.0683
C2 C -0.1948(4) 0.8112(4) -0.02880(16)
H2 H -0.2243 0.7635 -0.0800
C3 C -0.0753(3) 0.7159(3) 0.05735(14)
H3 H -0.0120 0.5937 0.0734
C4 C -0.0713(2) 0.8362(2) 0.11111(11)
C5 C 0.0242(2) 0.82114(18) 0.20461(10)
C6 C 0.1487(2) 0.63408(18) 0.25487(10)
H4 H 0.0914 0.5572 0.2368
C7 C 0.1465(2) 0.62601(19) 0.36629(10)
H5 H 0.2425 0.5130 0.4000
C8 C 0.1446(2) 0.78387(19) 0.41210(11)
C9 C 0.1096(2) 0.94959(18) 0.33957(11)
H6 H 0.0342 1.0537 0.3709
C10 C 0.0068(2) 0.96226(19) 0.24543(11)
H7 H -0.0737 1.0739 0.2133
C11 C -0.0502(2) 0.6758(2) 0.40880(11)
C12 C 0.2902(3) 0.7432(2) 0.49556(13)
H8 H 0.2608 0.8475 0.5253
H9 H 0.4171 0.7046 0.4708
H10 H 0.2854 0.6515 0.5438
C13 C 0.3518(2) 0.56524(19) 0.22075(11)
C14 C 0.5080(3) 0.5559(3) 0.26584(16)
H11 H 0.5158 0.5941 0.3253
C15 C 0.6645(3) 0.4737(3) 0.2034(3)
H12 H 0.7933 0.4503 0.2143
C16 C 0.5916(4) 0.4396(4) 0.1307(2)
H13 H 0.6615 0.3865 0.0791
C17 C 0.3090(3) 1.0998(2) 0.29835(13)
C18 C 0.5119(3) 1.0736(3) 0.2847(2)
H14 H 0.5602 1.0111 0.2298
H15 H 0.5897 1.0063 0.3431
H16 H 0.5167 1.1864 0.2724
loop_
_geom_bond_atom_site_label_1
_geom_bond_atom_site_label_2
_geom_bond_site_symmetry_1
_geom_bond_site_symmetry_2
O1 C1 1_555 1_555
O2 C8 1_555 1_555
O3 C11 1_555 1_555
O4 C9 1_555 1_555
O5 C17 1_555 1_555
O6 C13 1_555 1_555
C1 H1 1_555 1_555
C2 C1 1_555 1_555
H2 C2 1_555 1_555
C3 C2 1_555 1_555
H3 C3 1_555 1_555
C4 O1 1_555 1_555
C5 C4 1_555 1_555
C6 C5 1_555 1_555
H4 C6 1_555 1_555
C7 C6 1_555 1_555
H5 C7 1_555 1_555
C8 C7 1_555 1_555
C9 C8 1_555 1_555
H6 C9 1_555 1_555
C10 C5 1_555 1_555
H7 C10 1_555 1_555
C11 O2 1_555 1_555
C12 C8 1_555 1_555
H8 C12 1_555 1_555
H9 C12 1_555 1_555
H10 C12 1_555 1_555
C13 C6 1_555 1_555
C14 C13 1_555 1_555
H11 C14 1_555 1_555
C15 C14 1_555 1_555
H12 C15 1_555 1_555
C16 O6 1_555 1_555
H13 C16 1_555 1_555
C17 O4 1_555 1_555
C18 C17 1_555 1_555
H14 C18 1_555 1_555
H15 C18 1_555 1_555
H16 C18 1_555 1_555
C3 C4 1_555 1_555
C7 C11 1_555 1_555
C9 C10 1_555 1_555
C15 C16 1_555 1_555

#END
