
#######################################################################
#
#                 Cambridge Crystallographic Data Centre
#                                CCDC 
#
#######################################################################
#
# If this CIF has been generated from an entry in the Cambridge 
# Structural Database, then it will include bibliographic, chemical, 
# crystal, experimental, refinement or atomic coordinate data resulting 
# from the CCDC's data processing and validation procedures.
#
#######################################################################

data_LEVZAN
_chemical_formula_moiety         'C17 H13 Cl1 F3 N3 O3 S1'
_chemical_name_systematic        
1-((Benzyloxy)methyl)-7-chloro-5-(methylthio)-2-(trifluoroacetyl)imidazo(1,2-c)pyrimidin-3-one
_symmetry_cell_setting           monoclinic
_symmetry_space_group_name_H-M   'P 21/c'
_symmetry_Int_Tables_number      14
_space_group_name_Hall           '-P 2ybc'
loop_
_symmetry_equiv_pos_site_id
_symmetry_equiv_pos_as_xyz
1 x,y,z
2 -x,1/2+y,1/2-z
3 -x,-y,-z
4 x,1/2-y,1/2+z
_cell_length_a                   7.260(2)
_cell_length_b                   19.237(4)
_cell_length_c                   13.295(2)
_cell_angle_alpha                90
_cell_angle_beta                 101.03(2)
_cell_angle_gamma                90
_cell_volume                     1822.49
_exptl_crystal_colour            yellow
_chemical_melting_point          148-149deg.C
_cell_formula_units_Z            4
loop_
_atom_site_label
_atom_site_type_symbol
_atom_site_fract_x
_atom_site_fract_y
_atom_site_fract_z
S1 S 0.3107(2) 0.4356(1) 0.9770(1)
C1 C 0.2636(9) 0.3887(3) 0.8580(4)
Cl1 Cl -0.3237(3) 0.3005(1) 0.9475(1)
N1 N -0.0442(7) 0.4598(3) 1.2480(4)
C2 C -0.0626(9) 0.4281(3) 1.1581(5)
N2 N 0.0953(7) 0.4411(2) 1.1192(3)
C3 C -0.2023(9) 0.3854(3) 1.1056(5)
C4 C -0.1686(9) 0.3586(3) 1.0171(5)
N3 N -0.0163(8) 0.3731(3) 0.9774(3)
C5 C 0.1155(9) 0.4139(3) 1.0259(5)
C6 C 0.2277(10) 0.4838(3) 1.1899(5)
C7 C 0.1294(9) 0.4953(3) 1.2709(5)
C8 C 0.1716(11) 0.5426(3) 1.3549(5)
C9 C 0.3581(13) 0.5797(5) 1.3735(6)
F1 F 0.3781(6) 0.6181(3) 1.4570(3)
F2 F 0.5038(6) 0.5379(3) 1.3832(3)
F3 F 0.3721(7) 0.6233(2) 1.2973(4)
C10 C -0.1727(10) 0.4409(4) 1.3200(5)
O1 O 0.0642(7) 0.5574(3) 1.4118(4)
C11 C -0.0010(11) 0.3402(4) 1.3882(5)
C12 C 0.0232(10) 0.2631(3) 1.2443(5)
C13 C 0.1210(11) 0.2356(4) 1.1739(6)
C14 C 0.3005(11) 0.2547(4) 1.1754(6)
C15 C 0.3870(11) 0.2981(4) 1.2483(5)
C16 C 0.2959(11) 0.3270(4) 1.3194(5)
C17 C 0.1092(9) 0.3103(3) 1.3165(5)
O2 O -0.1765(7) 0.3693(3) 1.3377(4)
O3 O 0.3778(6) 0.5015(2) 1.1711(3)
H1 H 0.3638 0.3962 0.8214
H2 H 0.2543 0.3400 0.8720
H3 H 0.1477 0.4046 0.8173
H4 H -0.3155 0.3754 1.1301
H5 H -0.2973 0.4567 1.2920
H6 H -0.1314 0.4643 1.3841
H7 H 0.0717 0.3759 1.4279
H8 H -0.0252 0.3046 1.4347
H9 H -0.1047 0.2497 1.2427
H10 H 0.0611 0.2026 1.1240
H11 H 0.3663 0.2373 1.1245
H12 H 0.5165 0.3096 1.2506
H13 H 0.3605 0.3581 1.3708
loop_
_geom_bond_atom_site_label_1
_geom_bond_atom_site_label_2
_geom_bond_site_symmetry_1
_geom_bond_site_symmetry_2
S1 C1 1_555 1_555
C1 H1 1_555 1_555
Cl1 C4 1_555 1_555
N1 C2 1_555 1_555
C2 N2 1_555 1_555
N2 C5 1_555 1_555
C3 C2 1_555 1_555
C4 C3 1_555 1_555
N3 C4 1_555 1_555
C5 S1 1_555 1_555
C6 N2 1_555 1_555
C7 N1 1_555 1_555
C8 C7 1_555 1_555
C9 C8 1_555 1_555
F1 C9 1_555 1_555
F2 C9 1_555 1_555
F3 C9 1_555 1_555
C10 N1 1_555 1_555
O1 C8 1_555 1_555
C11 C17 1_555 1_555
C12 C13 1_555 1_555
C13 C14 1_555 1_555
C14 C15 1_555 1_555
C15 C16 1_555 1_555
C16 C17 1_555 1_555
C17 C12 1_555 1_555
O2 C10 1_555 1_555
O3 C6 1_555 1_555
H2 C1 1_555 1_555
H3 C1 1_555 1_555
H4 C3 1_555 1_555
H5 C10 1_555 1_555
H6 C10 1_555 1_555
H7 C11 1_555 1_555
H8 C11 1_555 1_555
H9 C12 1_555 1_555
H10 C13 1_555 1_555
H11 C14 1_555 1_555
H12 C15 1_555 1_555
H13 C16 1_555 1_555
N3 C5 1_555 1_555
C6 C7 1_555 1_555
C11 O2 1_555 1_555

#END
