
#######################################################################
#
#                 Cambridge Crystallographic Data Centre
#                                CCDC 
#
#######################################################################
#
# If this CIF has been generated from an entry in the Cambridge 
# Structural Database, then it will include bibliographic, chemical, 
# crystal, experimental, refinement or atomic coordinate data resulting 
# from the CCDC's data processing and validation procedures.
#
#######################################################################

data_LEWKED
_chemical_formula_moiety         'C34 H45 B1 N1 P1 S1'
_chemical_name_systematic        
2,2,3-Tri-n-butyl-4,4,5-triphenyl-5-methylthio-1,5,2-azaphosphoniaboratacyclohexa-3,6-diene
_symmetry_cell_setting           triclinic
_symmetry_space_group_name_H-M   'P -1'
_symmetry_Int_Tables_number      2
_space_group_name_Hall           '-P 1'
loop_
_symmetry_equiv_pos_site_id
_symmetry_equiv_pos_as_xyz
1 x,y,z
2 -x,-y,-z
_cell_length_a                   9.553(3)
_cell_length_b                   10.939(3)
_cell_length_c                   17.258(6)
_cell_angle_alpha                88.78(2)
_cell_angle_beta                 81.17(3)
_cell_angle_gamma                66.48(4)
_cell_volume                     1632.45
_chemical_melting_point          61-63deg.C
_cell_formula_units_Z            2
loop_
_atom_site_label
_atom_site_type_symbol
_atom_site_fract_x
_atom_site_fract_y
_atom_site_fract_z
S1 S -0.02118(5) 0.21905(5) -0.30982(4)
P1 P 0.14735(5) 0.38808(4) -0.27846(3)
N1 N 0.2583(2) 0.1204(1) -0.26230(9)
C1 C 0.1516(2) 0.2193(2) -0.2814(1)
C2 C 0.3178(2) 0.3765(2) -0.2452(1)
C3 C 0.4186(2) 0.2574(2) -0.2263(1)
C4 C 0.5527(2) 0.0173(2) -0.2979(1)
C5 C 0.5794(3) 0.0763(3) -0.3758(2)
C6 C 0.7063(4) -0.0198(3) -0.4366(2)
C7 C 0.7274(6) 0.0450(5) -0.5140(3)
C8 C 0.4054(2) 0.0444(2) -0.1480(1)
C9 C 0.2642(3) 0.1136(2) -0.0859(1)
C10 C 0.2649(3) 0.0475(3) -0.0088(2)
C11 C 0.1169(4) 0.1060(3) 0.0495(2)
C12 C 0.0014(2) 0.0526(2) -0.2879(2)
C13 C -0.0230(2) 0.4945(2) -0.2134(1)
C14 C -0.0223(2) 0.4864(2) -0.1331(1)
C15 C -0.1514(3) 0.5632(3) -0.0803(2)
C16 C -0.2810(3) 0.6489(3) -0.1080(2)
C17 C -0.2844(3) 0.6541(3) -0.1855(2)
C18 C -0.1561(3) 0.5782(3) -0.2396(2)
C19 C 0.1445(2) 0.4539(2) -0.3749(1)
C20 C 0.1075(3) 0.5888(2) -0.3854(2)
C21 C 0.1262(3) 0.6321(3) -0.4610(2)
C22 C 0.1808(3) 0.5425(3) -0.5250(2)
C23 C 0.2161(3) 0.4098(3) -0.5147(2)
C24 C 0.1985(2) 0.3653(2) -0.4400(1)
C25 C 0.3375(2) 0.5067(2) -0.2513(1)
C26 C 0.4235(2) 0.5291(2) -0.3179(2)
C27 C 0.4202(3) 0.6537(2) -0.3277(2)
C28 C 0.3523(3) 0.7547(2) -0.2711(2)
C29 C 0.2702(3) 0.7327(2) -0.2049(2)
C30 C 0.2615(2) 0.6097(2) -0.1943(1)
C31 C 0.5646(2) 0.2549(2) -0.2014(1)
C32 C 0.5465(2) 0.2996(2) -0.1158(1)
C33 C 0.6981(3) 0.3279(3) -0.0951(2)
C34 C 0.6893(3) 0.2896(3) -0.0107(2)
B1 B 0.4062(2) 0.1138(2) -0.2330(1)
loop_
_geom_bond_atom_site_label_1
_geom_bond_atom_site_label_2
_geom_bond_site_symmetry_1
_geom_bond_site_symmetry_2
S1 C1 1_555 1_555
P1 C1 1_555 1_555
N1 C1 1_555 1_555
C2 P1 1_555 1_555
C3 C2 1_555 1_555
C4 C5 1_555 1_555
C5 C6 1_555 1_555
C6 C7 1_555 1_555
C8 C9 1_555 1_555
C9 C10 1_555 1_555
C10 C11 1_555 1_555
C12 S1 1_555 1_555
C13 P1 1_555 1_555
C14 C13 1_555 1_555
C15 C14 1_555 1_555
C16 C15 1_555 1_555
C17 C16 1_555 1_555
C18 C13 1_555 1_555
C19 P1 1_555 1_555
C20 C19 1_555 1_555
C21 C20 1_555 1_555
C22 C21 1_555 1_555
C23 C22 1_555 1_555
C24 C19 1_555 1_555
C25 C2 1_555 1_555
C26 C25 1_555 1_555
C27 C26 1_555 1_555
C28 C27 1_555 1_555
C29 C28 1_555 1_555
C30 C25 1_555 1_555
C31 C3 1_555 1_555
C32 C31 1_555 1_555
C33 C32 1_555 1_555
C34 C33 1_555 1_555
B1 N1 1_555 1_555
C3 B1 1_555 1_555
C4 B1 1_555 1_555
C8 B1 1_555 1_555
C17 C18 1_555 1_555
C23 C24 1_555 1_555
C29 C30 1_555 1_555

#END
