
#######################################################################
#
#                 Cambridge Crystallographic Data Centre
#                                CCDC 
#
#######################################################################
#
# If this CIF has been generated from an entry in the Cambridge 
# Structural Database, then it will include bibliographic, chemical, 
# crystal, experimental, refinement or atomic coordinate data resulting 
# from the CCDC's data processing and validation procedures.
#
#######################################################################

data_LEWLOP
_chemical_name_common            
'Methylazacalix(4)pyridine dimethylformamide clathrate perchloric acid'
_chemical_formula_moiety         'C24 H25 N8 1+,Cl1 O4 1-,C3 H7 N1 O1'
_chemical_name_systematic        
'2,4,6,8-Tetramethyl-2,4,6,8-tetra-aza-1,3,5,7-(2,6)-tetrapyridinaoctacyclophane dimethylformamide clathrate perchloric acid'
_symmetry_cell_setting           triclinic
_symmetry_space_group_name_H-M   'P -1'
_symmetry_Int_Tables_number      2
_space_group_name_Hall           '-P 1'
loop_
_symmetry_equiv_pos_site_id
_symmetry_equiv_pos_as_xyz
1 x,y,z
2 -x,-y,-z
_cell_length_a                   9.6632(4)
_cell_length_b                   11.0917(7)
_cell_length_c                   14.0602(6)
_cell_angle_alpha                83.5930(17)
_cell_angle_beta                 70.534(3)
_cell_angle_gamma                85.995(2)
_cell_volume                     1411.12
_cell_formula_units_Z            2
loop_
_atom_site_label
_atom_site_type_symbol
_atom_site_fract_x
_atom_site_fract_y
_atom_site_fract_z
Cl1 Cl 0.45167(9) 0.19406(6) 0.17352(6)
O1 O 0.3944(4) 0.1953(3) 0.0932(2)
O2 O 0.5260(4) 0.0821(3) 0.1814(4)
O3 O 0.3328(4) 0.2099(3) 0.2630(2)
O4 O 0.5503(3) 0.2911(2) 0.1547(2)
O5 O -0.1446(2) -0.08742(18) 0.37203(15)
N9 N -0.1439(3) 0.0223(2) 0.22741(18)
C25 C -0.1093(5) 0.0291(4) 0.1190(3)
H26 H -0.0814 -0.0503 0.0965
H27 H -0.0297 0.0827 0.0869
H28 H -0.1940 0.0596 0.1014
C26 C -0.1892(5) 0.1330(3) 0.2767(3)
H29 H -0.2081 0.1155 0.3483
H30 H -0.2769 0.1666 0.2648
H31 H -0.1126 0.1904 0.2498
C27 C -0.1246(3) -0.0789(3) 0.2797(2)
H32 H -0.0942 -0.1484 0.2457
N1 N -0.0705(2) -0.3688(2) 0.18441(16)
N2 N -0.3199(3) -0.3097(2) 0.22661(18)
N3 N -0.3001(2) -0.3423(2) 0.38735(17)
N4 N -0.2705(2) -0.3810(2) 0.54693(17)
N5 N -0.0552(2) -0.2738(2) 0.47588(16)
H1 H -0.0970 -0.2304 0.4378
N6 N 0.1543(3) -0.1584(2) 0.39078(17)
N7 N 0.1650(2) -0.2822(2) 0.26634(17)
N8 N 0.1767(3) -0.4173(2) 0.14680(18)
C1 C 0.0394(3) -0.4493(2) 0.15030(19)
C2 C 0.0181(4) -0.5616(3) 0.1197(2)
H2 H 0.0962 -0.6165 0.0961
C3 C -0.1212(4) -0.5869(3) 0.1259(2)
H3 H -0.1382 -0.6592 0.1046
C4 C -0.2377(4) -0.5057(3) 0.1638(2)
H4 H -0.3333 -0.5228 0.1699
C5 C -0.2058(3) -0.3987(3) 0.1919(2)
C6 C -0.3599(3) -0.2767(3) 0.3238(2)
C7 C -0.4607(3) -0.1786(3) 0.3546(2)
H5 H -0.5021 -0.1349 0.3098
C8 C -0.4956(3) -0.1497(3) 0.4524(2)
H6 H -0.5615 -0.0854 0.4743
C9 C -0.4339(3) -0.2155(3) 0.5189(2)
H7 H -0.4564 -0.1970 0.5854
C10 C -0.3375(3) -0.3095(2) 0.4813(2)
C11 C -0.1332(3) -0.3617(2) 0.54430(19)
C12 C -0.0643(3) -0.4281(3) 0.6082(2)
H8 H -0.1142 -0.4889 0.6558
C13 C 0.0749(3) -0.4037(3) 0.6005(2)
H9 H 0.1186 -0.4465 0.6444
C14 C 0.1540(3) -0.3142(3) 0.5271(2)
H10 H 0.2499 -0.2984 0.5211
C15 C 0.0865(3) -0.2519(2) 0.46541(19)
C16 C 0.1830(3) -0.1725(2) 0.2887(2)
C17 C 0.2322(3) -0.0744(3) 0.2150(2)
H11 H 0.2405 0.0021 0.2334
C18 C 0.2678(3) -0.0952(3) 0.1149(2)
H12 H 0.3046 -0.0332 0.0641
C19 C 0.2488(3) -0.2083(3) 0.0901(2)
H13 H 0.2712 -0.2236 0.0228
C20 C 0.1956(3) -0.2982(2) 0.1679(2)
C21 C -0.3953(4) -0.2548(4) 0.1573(3)
H14 H -0.4695 -0.1974 0.1909
H15 H -0.4403 -0.3170 0.1365
H16 H -0.3258 -0.2141 0.0989
C22 C -0.3662(3) -0.4624(3) 0.6283(2)
H17 H -0.3101 -0.5051 0.6672
H18 H -0.4067 -0.5196 0.5993
H19 H -0.4444 -0.4155 0.6717
C23 C 0.1734(3) -0.0417(3) 0.4218(2)
H20 H 0.2209 0.0117 0.3630
H21 H 0.2327 -0.0529 0.4652
H22 H 0.0791 -0.0070 0.4578
C24 C 0.3090(4) -0.4854(3) 0.0935(3)
H23 H 0.2831 -0.5639 0.0835
H24 H 0.3739 -0.4950 0.1330
H25 H 0.3573 -0.4423 0.0290
loop_
_geom_bond_atom_site_label_1
_geom_bond_atom_site_label_2
_geom_bond_site_symmetry_1
_geom_bond_site_symmetry_2
Cl1 O1 1_555 1_555
O2 Cl1 1_555 1_555
O3 Cl1 1_555 1_555
O4 Cl1 1_555 1_555
O5 C27 1_555 1_555
N1 C1 1_555 1_555
N2 C5 1_555 1_555
N3 C6 1_555 1_555
N4 C10 1_555 1_555
N5 H1 1_555 1_555
N6 C15 1_555 1_555
N7 C16 1_555 1_555
N8 C1 1_555 1_555
N9 C25 1_555 1_555
C1 C2 1_555 1_555
C2 H2 1_555 1_555
C3 C2 1_555 1_555
H3 C3 1_555 1_555
C4 C3 1_555 1_555
H4 C4 1_555 1_555
C5 N1 1_555 1_555
C6 N2 1_555 1_555
C7 C6 1_555 1_555
H5 C7 1_555 1_555
C8 C7 1_555 1_555
H6 C8 1_555 1_555
C9 C8 1_555 1_555
H7 C9 1_555 1_555
C10 N3 1_555 1_555
C11 N4 1_555 1_555
C12 C11 1_555 1_555
H8 C12 1_555 1_555
C13 C12 1_555 1_555
H9 C13 1_555 1_555
C14 C13 1_555 1_555
H10 C14 1_555 1_555
C15 N5 1_555 1_555
C16 N6 1_555 1_555
C17 C16 1_555 1_555
H11 C17 1_555 1_555
C18 C17 1_555 1_555
H12 C18 1_555 1_555
C19 C18 1_555 1_555
H13 C19 1_555 1_555
C20 N7 1_555 1_555
C21 N2 1_555 1_555
H14 C21 1_555 1_555
H15 C21 1_555 1_555
H16 C21 1_555 1_555
C22 N4 1_555 1_555
H17 C22 1_555 1_555
H18 C22 1_555 1_555
H19 C22 1_555 1_555
C23 N6 1_555 1_555
H20 C23 1_555 1_555
H21 C23 1_555 1_555
H22 C23 1_555 1_555
C24 N8 1_555 1_555
H23 C24 1_555 1_555
H24 C24 1_555 1_555
H25 C24 1_555 1_555
C25 H26 1_555 1_555
H27 C25 1_555 1_555
H28 C25 1_555 1_555
C26 N9 1_555 1_555
H29 C26 1_555 1_555
H30 C26 1_555 1_555
H31 C26 1_555 1_555
C27 N9 1_555 1_555
H32 C27 1_555 1_555
N5 C11 1_555 1_555
N8 C20 1_555 1_555
C4 C5 1_555 1_555
C9 C10 1_555 1_555
C14 C15 1_555 1_555
C19 C20 1_555 1_555

#END
