
#######################################################################
#
#                 Cambridge Crystallographic Data Centre
#                                CCDC 
#
#######################################################################
#
# If this CIF has been generated from an entry in the Cambridge 
# Structural Database, then it will include bibliographic, chemical, 
# crystal, experimental, refinement or atomic coordinate data resulting 
# from the CCDC's data processing and validation procedures.
#
#######################################################################

data_LEWLIJ
_chemical_name_common            
'Methylazacalix(4)pyridine perchloric acid clathrate perchloric acid'
_chemical_formula_moiety         'C24 H26 N8 2+,2(Cl1 O4 1-)'
_chemical_name_systematic        
'2,4,6,8-Tetramethyl-2,4,6,8-tetra-aza-1,3,5,7-(2,6)-tetrapyridinaoctacyclophane perchloric acid clathrate perchloric acid'
_symmetry_cell_setting           monoclinic
_symmetry_space_group_name_H-M   'P 21/n'
_symmetry_Int_Tables_number      14
_space_group_name_Hall           '-P 2yn'
loop_
_symmetry_equiv_pos_site_id
_symmetry_equiv_pos_as_xyz
1 x,y,z
2 1/2-x,1/2+y,1/2-z
3 -x,-y,-z
4 1/2+x,1/2-y,1/2+z
_cell_length_a                   13.7975(6)
_cell_length_b                   13.7100(6)
_cell_length_c                   14.4855(8)
_cell_angle_alpha                90
_cell_angle_beta                 91.0020(10)
_cell_angle_gamma                90
_cell_volume                     2739.71
_cell_formula_units_Z            4
loop_
_atom_site_label
_atom_site_type_symbol
_atom_site_fract_x
_atom_site_fract_y
_atom_site_fract_z
N1 N 0.2297(2) 0.9668(2) 0.3539(2)
N2 N 0.3948(3) 1.0129(3) 0.3501(3)
N3 N 0.5564(2) 1.0546(2) 0.3282(2)
N4 N 0.54867(19) 0.9057(2) 0.24899(19)
N5 N 0.5474(2) 0.7552(2) 0.1793(2)
N6 N 0.4707(3) 0.7125(2) 0.3162(2)
N7 N 0.3756(3) 0.6772(2) 0.44413(19)
N8 N 0.3004(2) 0.8204(2) 0.39893(17)
C1 C 0.1422(3) 1.0235(3) 0.3308(3)
H1 H 0.0943 0.9814 0.3032
H2 H 0.1582 1.0743 0.2881
H3 H 0.1170 1.0519 0.3860
C2 C 0.3078(3) 1.0165(3) 0.3943(3)
C3 C 0.3023(3) 1.0693(3) 0.4726(3)
H4 H 0.2442 1.0741 0.5040
C4 C 0.3841(4) 1.1157(3) 0.5049(3)
H5 H 0.3809 1.1516 0.5592
C5 C 0.4700(3) 1.1110(3) 0.4600(3)
H6 H 0.5244 1.1425 0.4845
C6 C 0.4769(3) 1.0591(3) 0.3773(3)
C7 C 0.6413(3) 1.1115(3) 0.3560(2)
H7 H 0.6294 1.1431 0.4138
H8 H 0.6541 1.1597 0.3098
H9 H 0.6963 1.0690 0.3626
C8 C 0.5610(3) 1.0025(3) 0.2431(3)
C9 C 0.5838(3) 1.0512(3) 0.1634(3)
H10 H 0.5934 1.1184 0.1632
C10 C 0.5916(3) 0.9975(3) 0.0847(3)
H11 H 0.6061 1.0279 0.0292
C11 C 0.5780(2) 0.8970(3) 0.0876(2)
H12 H 0.5829 0.8594 0.0345
C12 C 0.5574(2) 0.8549(3) 0.1706(3)
C13 C 0.5688(3) 0.6916(2) 0.1023(2)
H13 H 0.5616 0.7273 0.0456
H14 H 0.5249 0.6374 0.1020
H15 H 0.6342 0.6682 0.1085
C14 C 0.5540(3) 0.7145(3) 0.2676(3)
C15 C 0.6361(3) 0.6779(3) 0.3074(3)
H16 H 0.6941 0.6783 0.2757
C16 C 0.6323(3) 0.6405(3) 0.3948(3)
H17 H 0.6884 0.6153 0.4221
C17 C 0.5485(3) 0.6392(3) 0.4426(3)
H18 H 0.5475 0.6136 0.5020
C18 C 0.4639(3) 0.6765(2) 0.4019(3)
C19 C 0.3650(3) 0.6249(3) 0.5294(2)
H19 H 0.4264 0.5980 0.5483
H20 H 0.3189 0.5731 0.5207
H21 H 0.3425 0.6686 0.5762
C20 C 0.2942(3) 0.7247(3) 0.4033(2)
C21 C 0.2159(3) 0.6671(3) 0.3759(3)
H22 H 0.2166 0.5994 0.3805
C22 C 0.1381(3) 0.7172(4) 0.3419(2)
H23 H 0.0827 0.6833 0.3231
C23 C 0.1399(3) 0.8170(3) 0.3347(2)
H24 H 0.0865 0.8506 0.3110
C24 C 0.2216(3) 0.8666(3) 0.3630(2)
H25 H 0.424(2) 0.734(2) 0.286(2)
H26 H 0.393(2) 0.984(2) 0.3143(18)
Cl1 Cl 0.29544(8) 0.84581(8) 0.12645(7)
O1 O 0.1959(2) 0.8684(2) 0.11886(18)
O2 O 0.33427(19) 0.81812(17) 0.04031(16)
O3 O 0.34556(19) 0.93250(18) 0.15995(17)
O4 O 0.31283(18) 0.76915(18) 0.19086(16)
Cl2 Cl 0.63819(10) 0.39093(10) 0.20438(10)
O5 O 0.6152(4) 0.2992(3) 0.2109(3)
O6 O 0.7244(3) 0.4048(4) 0.2367(4)
O7 O 0.5748(3) 0.4382(3) 0.2603(3)
O8 O 0.6147(3) 0.4291(3) 0.1213(3)
loop_
_geom_bond_atom_site_label_1
_geom_bond_atom_site_label_2
_geom_bond_site_symmetry_1
_geom_bond_site_symmetry_2
N1 C1 1_555 1_555
N2 C2 1_555 1_555
N3 C6 1_555 1_555
N4 C8 1_555 1_555
N5 C12 1_555 1_555
N6 C14 1_555 1_555
N7 C18 1_555 1_555
N8 C20 1_555 1_555
C1 H1 1_555 1_555
H2 C1 1_555 1_555
H3 C1 1_555 1_555
C2 N1 1_555 1_555
C3 C2 1_555 1_555
H4 C3 1_555 1_555
C4 C3 1_555 1_555
H5 C4 1_555 1_555
C5 C4 1_555 1_555
H6 C5 1_555 1_555
C6 N2 1_555 1_555
C7 N3 1_555 1_555
H7 C7 1_555 1_555
H8 C7 1_555 1_555
H9 C7 1_555 1_555
C8 N3 1_555 1_555
C9 C8 1_555 1_555
H10 C9 1_555 1_555
C10 C9 1_555 1_555
H11 C10 1_555 1_555
C11 C10 1_555 1_555
H12 C11 1_555 1_555
C12 N4 1_555 1_555
C13 N5 1_555 1_555
H13 C13 1_555 1_555
H14 C13 1_555 1_555
H15 C13 1_555 1_555
C14 N5 1_555 1_555
C15 C14 1_555 1_555
H16 C15 1_555 1_555
C16 C15 1_555 1_555
H17 C16 1_555 1_555
C17 C16 1_555 1_555
H18 C17 1_555 1_555
C18 N6 1_555 1_555
C19 N7 1_555 1_555
H19 C19 1_555 1_555
H20 C19 1_555 1_555
H21 C19 1_555 1_555
C20 N7 1_555 1_555
C21 C20 1_555 1_555
H22 C21 1_555 1_555
C22 C21 1_555 1_555
H23 C22 1_555 1_555
C23 C22 1_555 1_555
H24 C23 1_555 1_555
C24 N1 1_555 1_555
Cl1 O1 1_555 1_555
O2 Cl1 1_555 1_555
O3 Cl1 1_555 1_555
O4 Cl1 1_555 1_555
Cl2 O5 1_555 1_555
O6 Cl2 1_555 1_555
O7 Cl2 1_555 1_555
O8 Cl2 1_555 1_555
H25 N6 1_555 1_555
H26 N2 1_555 1_555
N8 C24 1_555 1_555
C5 C6 1_555 1_555
C11 C12 1_555 1_555
C17 C18 1_555 1_555
C23 C24 1_555 1_555

#END
