
#######################################################################
#
#                 Cambridge Crystallographic Data Centre
#                                CCDC 
#
#######################################################################
#
# If this CIF has been generated from an entry in the Cambridge 
# Structural Database, then it will include bibliographic, chemical, 
# crystal, experimental, refinement or atomic coordinate data resulting 
# from the CCDC's data processing and validation procedures.
#
#######################################################################

data_LEWLEF
_chemical_name_common            
'Methylazacalix(4)pyridine acetonitrile solvate'
_chemical_formula_moiety         'C24 H24 N8,C2 H3 N1'
_chemical_name_systematic        
'2,4,6,8-Tetramethyl-2,4,6,8-tetra-aza-1,3,5,7-(2,6)-tetrapyridinaoctacyclophane acetonitrile solvate'
_symmetry_cell_setting           orthorhombic
_symmetry_space_group_name_H-M   'P m m n'
_symmetry_Int_Tables_number      59
_space_group_name_Hall           '-P 2ab 2a'
loop_
_symmetry_equiv_pos_site_id
_symmetry_equiv_pos_as_xyz
1 x,y,z
2 1/2-x,1/2-y,z
3 -x,1/2+y,-z
4 1/2+x,-y,-z
5 -x,-y,-z
6 1/2+x,1/2+y,-z
7 x,1/2-y,z
8 1/2-x,y,z
_cell_length_a                   11.7199(7)
_cell_length_b                   16.6292(9)
_cell_length_c                   6.1808(4)
_cell_angle_alpha                90
_cell_angle_beta                 90
_cell_angle_gamma                90
_cell_volume                     1204.59
_exptl_crystal_colour            colorless
_chemical_melting_point          '263-264 deg.C'
_cell_formula_units_Z            2
loop_
_atom_site_label
_atom_site_type_symbol
_atom_site_fract_x
_atom_site_fract_y
_atom_site_fract_z
N1 N 0.05292(17) 0.7500 0.5568(3)
N2 N 0.2500 0.60409(11) 0.5813(3)
N3 N 0.05362(13) 0.60854(9) 0.5690(3)
C1 C 0.06746(15) 0.68149(10) 0.4474(3)
C2 C 0.09264(18) 0.67860(11) 0.2308(3)
H1 H 0.1018 0.6296 0.1607
C3 C 0.1040(3) 0.7500 0.1193(4)
H2 H 0.1191 0.7500 -0.0284
C4 C 0.15185(16) 0.57301(10) 0.6509(3)
C5 C 0.14752(18) 0.50843(11) 0.7971(3)
H3 H 0.0784 0.4875 0.8446
C6 C 0.2500 0.47751(16) 0.8672(4)
H4 H 0.2500 0.4347 0.9642
C7 C -0.05386(17) 0.59936(13) 0.6839(3)
H5 H -0.0541 0.5490 0.7598
H6 H -0.1158 0.6004 0.5822
H7 H -0.0626 0.6426 0.7854
N1G N 0.44708(17) 0.7500 0.5568(3)
N2F N 0.2500 0.89591(11) 0.5813(3)
N3G N 0.44638(13) 0.60854(9) 0.5690(3)
N3A N 0.44638(13) 0.89146(9) 0.5690(3)
N3F N 0.05362(13) 0.89146(9) 0.5690(3)
C1G C 0.43254(15) 0.68149(10) 0.4474(3)
C1A C 0.43254(15) 0.81851(10) 0.4474(3)
C1F C 0.06746(15) 0.81851(10) 0.4474(3)
C2F C 0.09264(18) 0.82140(11) 0.2308(3)
C2A C 0.40736(18) 0.82140(11) 0.2308(3)
C2G C 0.40736(18) 0.67860(11) 0.2308(3)
H1F H 0.1018 0.8704 0.1607
H1A H 0.3982 0.8704 0.1607
H1G H 0.3982 0.6296 0.1607
C3G C 0.3960(3) 0.7500 0.1193(4)
H2G H 0.3809 0.7500 -0.0284
C4G C 0.34815(16) 0.57301(10) 0.6509(3)
C4A C 0.34815(16) 0.92699(10) 0.6509(3)
C4F C 0.15185(16) 0.92699(10) 0.6509(3)
C5F C 0.14752(18) 0.99157(11) 0.7971(3)
C5A C 0.35248(18) 0.99157(11) 0.7971(3)
C5G C 0.35248(18) 0.50843(11) 0.7971(3)
H3F H 0.0784 1.0125 0.8446
H3A H 0.4216 1.0125 0.8446
H3G H 0.4216 0.4875 0.8446
C6F C 0.2500 1.02249(16) 0.8672(4)
H4F H 0.2500 1.0653 0.9642
C7F C -0.05386(17) 0.90064(13) 0.6839(3)
C7A C 0.55386(17) 0.90064(13) 0.6839(3)
C7G C 0.55386(17) 0.59936(13) 0.6839(3)
H5F H -0.0541 0.9510 0.7598
H5A H 0.5541 0.9510 0.7598
H5G H 0.5541 0.5490 0.7598
H6F H -0.1158 0.8996 0.5822
H6A H 0.6158 0.8996 0.5822
H6G H 0.6158 0.6004 0.5822
H7F H -0.0626 0.8574 0.7854
H7A H 0.5626 0.8574 0.7854
H7G H 0.5626 0.6426 0.7854
C8 C 0.2500 0.2500 0.9589(11)
N4 N 0.2500 0.2500 1.1412(10)
C9 C 0.2500 0.2500 0.7213(11)
loop_
_geom_bond_atom_site_label_1
_geom_bond_atom_site_label_2
_geom_bond_site_symmetry_1
_geom_bond_site_symmetry_2
N1 C1 1_555 1_555
N2 C4 1_555 1_555
N3 C1 1_555 1_555
C1 C2 1_555 1_555
C2 H1 1_555 1_555
C3 C2 1_555 1_555
H2 C3 1_555 1_555
C4 N3 1_555 1_555
C5 C4 1_555 1_555
H3 C5 1_555 1_555
C6 C5 1_555 1_555
H4 C6 1_555 1_555
C7 N3 1_555 1_555
H5 C7 1_555 1_555
H6 C7 1_555 1_555
H7 C7 1_555 1_555
C8 N4 1_555 1_555
C9 C8 1_555 1_555
N1G C1G 1_555 1_555
N2F C4A 1_555 1_555
N3G C1G 1_555 1_555
N3A C1A 1_555 1_555
N3F C1F 1_555 1_555
C1G C2G 1_555 1_555
C1A N1G 1_555 1_555
C1F N1 1_555 1_555
C2F C3 1_555 1_555
C2A C1A 1_555 1_555
C2G H1G 1_555 1_555
H1F C2F 1_555 1_555
H1A C2A 1_555 1_555
C3G C2A 1_555 1_555
H2G C3G 1_555 1_555
C4G N2 1_555 1_555
C4A N3A 1_555 1_555
C4F N2F 1_555 1_555
C5F C4F 1_555 1_555
C5A C4A 1_555 1_555
C5G C6 1_555 1_555
H3F C5F 1_555 1_555
H3A C5A 1_555 1_555
H3G C5G 1_555 1_555
C6F C5F 1_555 1_555
H4F C6F 1_555 1_555
C7F N3F 1_555 1_555
C7A N3A 1_555 1_555
C7G N3G 1_555 1_555
H5F C7F 1_555 1_555
H5A C7A 1_555 1_555
H5G C7G 1_555 1_555
H6F C7F 1_555 1_555
H6A C7A 1_555 1_555
H6G C7G 1_555 1_555
H7F C7F 1_555 1_555
H7A C7A 1_555 1_555
H7G C7G 1_555 1_555
N3G C4G 1_555 1_555
N3F C4F 1_555 1_555
C1F C2F 1_555 1_555
C2G C3G 1_555 1_555
C4G C5G 1_555 1_555
C5A C6F 1_555 1_555

#END
