
#######################################################################
#
#                 Cambridge Crystallographic Data Centre
#                                CCDC 
#
#######################################################################
#
# If this CIF has been generated from an entry in the Cambridge 
# Structural Database, then it will include bibliographic, chemical, 
# crystal, experimental, refinement or atomic coordinate data resulting 
# from the CCDC's data processing and validation procedures.
#
#######################################################################

data_LEWMIK
_chemical_name_common            
'Methylazacalix(2)benzene(2)pyridine bis(hydrogen iodide) iodine methanol solvate'
_chemical_formula_moiety         'C26 H28 N6 2+,2(I1 1-),I2,C1 H4 O1'
_chemical_name_systematic        
'2,4,6,8-Tetramethyl-2,4,6,8-tetra-aza-3,7-(1,3)-dibenzena-1,5-(2,6)-dipyridinaoctacyclophane bis(hydrogen iodide) iodine methanol solvate'
_symmetry_cell_setting           triclinic
_symmetry_space_group_name_H-M   'P -1'
_symmetry_Int_Tables_number      2
_space_group_name_Hall           '-P 1'
loop_
_symmetry_equiv_pos_site_id
_symmetry_equiv_pos_as_xyz
1 x,y,z
2 -x,-y,-z
_cell_length_a                   9.1832(18)
_cell_length_b                   11.184(2)
_cell_length_c                   16.038(3)
_cell_angle_alpha                97.71(3)
_cell_angle_beta                 92.98(3)
_cell_angle_gamma                91.33(3)
_cell_volume                     1629.32
_exptl_crystal_colour            brown
_cell_formula_units_Z            2
loop_
_atom_site_label
_atom_site_type_symbol
_atom_site_fract_x
_atom_site_fract_y
_atom_site_fract_z
I4 I 0.0000 0.5000 0.5000
I5 I 0.45514(5) 0.01221(4) 0.25807(3)
N1 N 0.8083(5) 0.9563(4) 0.3856(2)
H1 H 0.8125 0.9090 0.3389
N2 N 0.9481(6) 1.0910(4) 0.3242(3)
N3 N 0.7390(5) 0.9283(4) 0.0452(3)
N4 N 0.6029(5) 0.7756(4) 0.0897(3)
H2 H 0.6563 0.7897 0.1358
N5 N 0.4891(5) 0.6259(5) 0.1513(3)
N6 N 0.6741(6) 0.8036(5) 0.4310(3)
C1 C 0.7336(6) 0.9150(5) 0.4470(3)
C2 C 0.7249(7) 0.9923(5) 0.5222(3)
H3 H 0.6745 0.9689 0.5665
C3 C 0.7926(8) 1.1033(6) 0.5287(4)
H4 H 0.7863 1.1551 0.5788
C4 C 0.8694(8) 1.1433(5) 0.4663(4)
H5 H 0.9147 1.2195 0.4737
C5 C 0.8769(6) 1.0657(5) 0.3914(3)
C6 C 1.0377(10) 1.2023(7) 0.3266(5)
H6 H 1.0286 1.2522 0.3796
H7 H 1.0050 1.2451 0.2815
H8 H 1.1379 1.1821 0.3205
C7 C 0.8438(5) 1.0098(5) 0.1851(3)
H9 H 0.7751 1.0698 0.1888
C8 C 0.9471(6) 1.0050(5) 0.2502(3)
C9 C 1.0544(6) 0.9185(6) 0.2437(4)
H10 H 1.1260 0.9177 0.2868
C10 C 1.0528(8) 0.8346(7) 0.1729(4)
H11 H 1.1236 0.7763 0.1682
C11 C 0.9468(7) 0.8358(6) 0.1083(4)
H12 H 0.9451 0.7772 0.0613
C12 C 0.8439(6) 0.9237(5) 0.1139(3)
C13 C 0.7781(7) 1.0009(6) -0.0192(4)
H13 H 0.6999 0.9969 -0.0616
H14 H 0.8649 0.9707 -0.0444
H15 H 0.7956 1.0832 0.0059
C14 C 0.6305(6) 0.8433(5) 0.0280(3)
C15 C 0.5431(7) 0.8214(6) -0.0456(3)
H16 H 0.5582 0.8645 -0.0902
C16 C 0.4330(7) 0.7342(6) -0.0513(4)
H17 H 0.3739 0.7201 -0.1007
C17 C 0.4063(6) 0.6672(6) 0.0121(3)
H18 H 0.3297 0.6103 0.0066
C18 C 0.4974(6) 0.6872(5) 0.0847(3)
C19 C 0.3715(8) 0.5363(7) 0.1550(4)
H19 H 0.3038 0.5362 0.1073
H20 H 0.3218 0.5562 0.2060
H21 H 0.4119 0.4577 0.1540
C20 C 0.5797(6) 0.7107(5) 0.2931(3)
H22 H 0.4893 0.7435 0.3038
C21 C 0.6038(6) 0.6410(5) 0.2164(3)
C22 C 0.7377(7) 0.5901(5) 0.2021(4)
H23 H 0.7514 0.5425 0.1512
C23 C 0.8511(7) 0.6094(6) 0.2628(4)
H24 H 0.9410 0.5753 0.2529
C24 C 0.8296(6) 0.6793(5) 0.3379(4)
H25 H 0.9057 0.6931 0.3790
C25 C 0.6961(6) 0.7294(4) 0.3531(3)
C26 C 0.5898(8) 0.7528(7) 0.4930(4)
H26 H 0.5836 0.8118 0.5419
H27 H 0.6368 0.6827 0.5088
H28 H 0.4934 0.7303 0.4692
C27 C 0.6092(19) 0.3031(13) 0.2583(6)
H29 H 0.5072 0.3004 0.2415
H30 H 0.6435 0.2223 0.2558
H31 H 0.6625 0.3459 0.2211
O1 O 0.6288(16) 0.3581(11) 0.3350(8)
H32 H 0.6770 0.3160 0.3635
I1 I 0.01646(6) 0.32770(4) 0.11964(3)
I2 I 0.0000 0.5000 0.0000
I1A I -0.01646(6) 0.67230(4) -0.11964(3)
I3? I 0.22936(6) 0.53841(5) 0.38772(3)
loop_
_geom_bond_atom_site_label_1
_geom_bond_atom_site_label_2
_geom_bond_site_symmetry_1
_geom_bond_site_symmetry_2
I1 I2 1_555 1_555
I2 I1A 1_555 1_555
N1 H1 1_555 1_555
N2 C5 1_555 1_555
N3 C12 1_555 1_555
N4 H2 1_555 1_555
N5 C18 1_555 1_555
N6 C1 1_555 1_555
C1 N1 1_555 1_555
C2 C1 1_555 1_555
H3 C2 1_555 1_555
C3 C2 1_555 1_555
H4 C3 1_555 1_555
C4 C3 1_555 1_555
H5 C4 1_555 1_555
C5 N1 1_555 1_555
C6 N2 1_555 1_555
H6 C6 1_555 1_555
H7 C6 1_555 1_555
H8 C6 1_555 1_555
C7 H9 1_555 1_555
C8 N2 1_555 1_555
C9 C8 1_555 1_555
H10 C9 1_555 1_555
C10 C9 1_555 1_555
H11 C10 1_555 1_555
C11 C10 1_555 1_555
H12 C11 1_555 1_555
C12 C7 1_555 1_555
C13 N3 1_555 1_555
H13 C13 1_555 1_555
H14 C13 1_555 1_555
H15 C13 1_555 1_555
C14 N3 1_555 1_555
C15 C14 1_555 1_555
H16 C15 1_555 1_555
C16 C15 1_555 1_555
H17 C16 1_555 1_555
C17 C16 1_555 1_555
H18 C17 1_555 1_555
C18 N4 1_555 1_555
C19 N5 1_555 1_555
H19 C19 1_555 1_555
H20 C19 1_555 1_555
H21 C19 1_555 1_555
C20 H22 1_555 1_555
C21 N5 1_555 1_555
C22 C21 1_555 1_555
H23 C22 1_555 1_555
C23 C22 1_555 1_555
H24 C23 1_555 1_555
C24 C23 1_555 1_555
H25 C24 1_555 1_555
C25 N6 1_555 1_555
C26 N6 1_555 1_555
H26 C26 1_555 1_555
H27 C26 1_555 1_555
H28 C26 1_555 1_555
C27 H29 1_555 1_555
H30 C27 1_555 1_555
H31 C27 1_555 1_555
O1 C27 1_555 1_555
H32 O1 1_555 1_555
N4 C14 1_555 1_555
C4 C5 1_555 1_555
C7 C8 1_555 1_555
C11 C12 1_555 1_555
C17 C18 1_555 1_555
C20 C21 1_555 1_555
C20 C25 1_555 1_555
C24 C25 1_555 1_555

#END
