
#######################################################################
#
#                 Cambridge Crystallographic Data Centre
#                                CCDC 
#
#######################################################################
#
# If this CIF has been generated from an entry in the Cambridge 
# Structural Database, then it will include bibliographic, chemical, 
# crystal, experimental, refinement or atomic coordinate data resulting 
# from the CCDC's data processing and validation procedures.
#
#######################################################################

data_LEWPAF
_chemical_formula_moiety         'C8 H12 F1 N1 O3'
_chemical_name_systematic        'N-Acetyl-(2R,3R)-3-fluoroproline methyl ester'
_symmetry_cell_setting           orthorhombic
_symmetry_space_group_name_H-M   'P 21 21 21'
_symmetry_Int_Tables_number      19
_space_group_name_Hall           'P 2ac 2ab'
loop_
_symmetry_equiv_pos_site_id
_symmetry_equiv_pos_as_xyz
1 x,y,z
2 1/2-x,-y,1/2+z
3 -x,1/2+y,1/2-z
4 1/2+x,1/2-y,-z
_cell_length_a                   7.0907(2)
_cell_length_b                   9.8318(4)
_cell_length_c                   12.9324(5)
_cell_angle_alpha                90
_cell_angle_beta                 90
_cell_angle_gamma                90
_cell_volume                     901.574
_exptl_crystal_colour            colorless
_exptl_crystal_description       rod
_cell_formula_units_Z            4
_exptl_crystal_recrystallization_method 'ethyl acetate'
loop_
_atom_site_label
_atom_site_type_symbol
_atom_site_fract_x
_atom_site_fract_y
_atom_site_fract_z
C1 C -0.0532(2) 0.20613(15) 0.64272(11)
H1 H -0.0973 0.3027 0.6431
C2 C 0.0843(3) 0.18001(16) 0.55581(11)
H2 H 0.1685 0.2592 0.5454
H3 H 0.0169 0.1607 0.4904
C3 C 0.1959(2) 0.05608(16) 0.59164(12)
H4 H 0.1304 -0.0295 0.5733
H5 H 0.3241 0.0552 0.5614
C4 C 0.0594(2) 0.17185(14) 0.74067(11)
H6 H 0.1222 0.2559 0.7674
C5 C -0.0643(2) 0.11049(15) 0.82501(11)
C6 C 0.3236(2) 0.02010(15) 0.77313(11)
C7 C 0.4622(2) -0.08291(17) 0.73352(13)
H7 H 0.5173 -0.1321 0.7921
H8 H 0.5625 -0.0367 0.6950
H9 H 0.3975 -0.1473 0.6879
C8 C -0.2540(2) 0.16443(17) 0.96977(12)
H13 H -0.1973 0.0873 1.0063
H14 H -0.3752 0.1367 0.9401
H15 H -0.2741 0.2395 1.0184
N1 N 0.20241(18) 0.07564(12) 0.70471(9)
O1 O -0.10398(14) -0.00768(10) 0.83318(8)
O2 O 0.31681(15) 0.05263(11) 0.86510(8)
O3 O -0.12822(14) 0.20872(9) 0.88741(7)
F1 F -0.20522(13) 0.11465(9) 0.63342(7)
H10? H 0.5909 -0.0747 0.7611
H11? H 0.4672 -0.0924 0.6584
H12? H 0.4197 -0.1778 0.7575
loop_
_geom_bond_atom_site_label_1
_geom_bond_atom_site_label_2
_geom_bond_site_symmetry_1
_geom_bond_site_symmetry_2
C1 H1 1_555 1_555
C2 C1 1_555 1_555
H2 C2 1_555 1_555
H3 C2 1_555 1_555
C3 C2 1_555 1_555
H4 C3 1_555 1_555
H5 C3 1_555 1_555
C4 C1 1_555 1_555
H6 C4 1_555 1_555
C5 C4 1_555 1_555
C6 C7 1_555 1_555
C7 H7 1_555 1_555
H8 C7 1_555 1_555
H9 C7 1_555 1_555
C8 H13 1_555 1_555
H14 C8 1_555 1_555
H15 C8 1_555 1_555
N1 C3 1_555 1_555
O1 C5 1_555 1_555
O2 C6 1_555 1_555
O3 C5 1_555 1_555
F1 C1 1_555 1_555
C4 N1 1_555 1_555
C6 N1 1_555 1_555
C8 O3 1_555 1_555

#END
