
#######################################################################
#
#                 Cambridge Crystallographic Data Centre
#                                CCDC 
#
#######################################################################
#
# If this CIF has been generated from an entry in the Cambridge 
# Structural Database, then it will include bibliographic, chemical, 
# crystal, experimental, refinement or atomic coordinate data resulting 
# from the CCDC's data processing and validation procedures.
#
#######################################################################

data_LEWQOV
_chemical_formula_moiety         'C14 H16 N1 O1 1+,C8 H7 O3 1-'
_chemical_name_systematic        
'2-Hydroxy-1,2-diphenylethanaminium hydroxy(phenyl)acetate'
_symmetry_cell_setting           triclinic
_symmetry_space_group_name_H-M   'P 1'
_symmetry_Int_Tables_number      1
_space_group_name_Hall           'P 1'
loop_
_symmetry_equiv_pos_site_id
_symmetry_equiv_pos_as_xyz
1 x,y,z
_cell_length_a                   12.1110(17)
_cell_length_b                   12.3360(16)
_cell_length_c                   13.115(2)
_cell_angle_alpha                92.565(8)
_cell_angle_beta                 103.272(11)
_cell_angle_gamma                90.015(3)
_cell_volume                     1905.04
_exptl_crystal_colour            colorless
_exptl_crystal_description       prism
_cell_formula_units_Z            4
loop_
_atom_site_label
_atom_site_type_symbol
_atom_site_fract_x
_atom_site_fract_y
_atom_site_fract_z
N1 N 0.5869(6) 0.6618(5) 0.9710(5)
H1 H 0.6569 0.6394 0.9653
H2 H 0.5530 0.6091 1.0000
H3 H 0.5939 0.7236 1.0126
O1 O 0.6737(5) 0.7754(5) 0.8201(4)
H4 H 0.7165 0.8053 0.8735
C1 C 0.5598(7) 0.7886(6) 0.8261(6)
H5 H 0.5586 0.8471 0.8811
C2 C 0.5155(7) 0.6837(7) 0.8634(7)
H6 H 0.4362 0.6971 0.8706
C3 C 0.4860(9) 0.8253(7) 0.7247(7)
C4 C 0.3842(10) 0.8761(8) 0.7258(8)
H7 H 0.3603 0.8848 0.7898
C5 C 0.3167(11) 0.9144(8) 0.6346(10)
H8 H 0.2476 0.9503 0.6358
C6 C 0.3518(12) 0.8992(9) 0.5418(11)
H9 H 0.3055 0.9235 0.4786
C7 C 0.4520(12) 0.8497(11) 0.5398(9)
H10 H 0.4756 0.8420 0.4756
C8 C 0.5204(11) 0.8101(9) 0.6312(8)
H11 H 0.5890 0.7735 0.6293
C9 C 0.5127(8) 0.5870(7) 0.7902(6)
C10 C 0.6101(8) 0.5332(7) 0.7807(7)
H12 H 0.6814 0.5568 0.8227
C11 C 0.6044(9) 0.4442(7) 0.7095(8)
H13 H 0.6716 0.4066 0.7049
C12 C 0.5016(8) 0.4110(7) 0.6459(7)
H14 H 0.4981 0.3509 0.5974
C13 C 0.4022(9) 0.4663(8) 0.6533(8)
H15 H 0.3309 0.4440 0.6102
C14 C 0.4099(9) 0.5523(8) 0.7234(7)
H16 H 0.3427 0.5905 0.7271
N2 N 0.9968(6) 0.7266(6) 0.9853(5)
H17 H 1.0736 0.7349 1.0032
H18 H 0.9771 0.6621 1.0075
H19 H 0.9643 0.7817 1.0161
O2 O 1.1188(5) 0.8409(5) 0.8732(5)
H20 H 1.1381 0.9026 0.9013
C15 C 0.9992(7) 0.8360(6) 0.8360(7)
H21 H 0.9668 0.8964 0.8731
C16 C 0.9566(7) 0.7286(6) 0.8697(6)
H22 H 0.8718 0.7297 0.8526
C17 C 0.9585(9) 0.8510(7) 0.7194(7)
C18 C 1.0309(10) 0.8314(8) 0.6524(8)
H23 H 1.1063 0.8082 0.6795
C19 C 0.9922(11) 0.8460(9) 0.5446(9)
H24 H 1.0417 0.8322 0.4990
C20 C 0.8826(10) 0.8802(8) 0.5037(8)
H25 H 0.8566 0.8898 0.4306
C21 C 0.8124(9) 0.9000(8) 0.5711(8)
H26 H 0.7373 0.9243 0.5443
C22 C 0.8495(9) 0.8851(7) 0.6768(7)
H27 H 0.7991 0.8986 0.7216
C23 C 0.9933(8) 0.6287(7) 0.8134(6)
C24 C 0.9174(10) 0.5811(8) 0.7293(7)
H28 H 0.8429 0.6094 0.7098
C25 C 0.9465(11) 0.4936(8) 0.6727(8)
H29 H 0.8927 0.4627 0.6143
C26 C 1.0544(10) 0.4505(8) 0.7010(9)
H30 H 1.0743 0.3896 0.6624
C27 C 1.1321(10) 0.4961(8) 0.7849(9)
H31 H 1.2064 0.4674 0.8043
C28 C 1.1010(8) 0.5856(7) 0.8419(7)
H32 H 1.1543 0.6168 0.9006
N3 N 0.1321(6) 0.3724(6) 0.1759(5)
H33 H 0.2011 0.4039 0.1803
H34 H 0.0765 0.4170 0.1432
H35 H 0.1277 0.3079 0.1386
O3 O 0.2975(5) 0.2613(5) 0.3224(4)
H36 H 0.3277 0.3059 0.3711
C29 C 0.1171(8) 0.3532(7) 0.2852(6)
H37 H 0.0345 0.3399 0.2803
C30 C 0.1810(7) 0.2487(7) 0.3214(7)
H38 H 0.1492 0.1882 0.2696
C31 C 0.1534(8) 0.4524(7) 0.3579(6)
C32 C 0.0862(10) 0.4868(8) 0.4243(7)
H39 H 0.0182 0.4483 0.4241
C33 C 0.1171(9) 0.5782(7) 0.4921(7)
H40 H 0.0690 0.6026 0.5362
C34 C 0.2171(8) 0.6327(7) 0.4952(7)
H41 H 0.2388 0.6940 0.5420
C35 C 0.2861(10) 0.5975(8) 0.4295(7)
H42 H 0.3548 0.6354 0.4310
C36 C 0.2557(9) 0.5081(7) 0.3622(7)
H43 H 0.3042 0.4839 0.3185
C37 C 0.1646(8) 0.2187(7) 0.4295(7)
C38 C 0.2525(10) 0.2274(7) 0.5175(7)
H44 H 0.3246 0.2541 0.5125
C39 C 0.2355(11) 0.1975(8) 0.6121(8)
H45 H 0.2962 0.2064 0.6723
C40 C 0.1365(11) 0.1561(9) 0.6231(8)
H46 H 0.1277 0.1351 0.6896
C41 C 0.0468(10) 0.1447(8) 0.5349(9)
H47 H -0.0236 0.1148 0.5407
C42 C 0.0607(9) 0.1771(8) 0.4386(8)
H48 H -0.0009 0.1709 0.3789
N4 N 0.5344(6) 0.3151(5) 0.1444(5)
H49 H 0.5993 0.2993 0.1231
H50 H 0.5107 0.3824 0.1242
H51 H 0.4797 0.2653 0.1147
O4 O 0.7119(5) 0.1988(5) 0.2528(5)
H52 H 0.7403 0.1367 0.2604
C43 C 0.5567(7) 0.3121(7) 0.2605(6)
H53 H 0.4816 0.3123 0.2801
C44 C 0.6137(7) 0.2029(6) 0.2920(7)
H54 H 0.5614 0.1433 0.2553
C45 C 0.6239(7) 0.4102(7) 0.3166(7)
C46 C 0.7155(7) 0.4532(7) 0.2860(8)
H55 H 0.7368 0.4239 0.2251
C47 C 0.7769(10) 0.5396(9) 0.3443(9)
H56 H 0.8401 0.5690 0.3230
C48 C 0.7469(10) 0.5823(9) 0.4316(8)
H57 H 0.7905 0.6401 0.4718
C49 C 0.6539(10) 0.5423(8) 0.4618(8)
H58 H 0.6327 0.5734 0.5220
C50 C 0.5915(11) 0.4573(8) 0.4049(8)
H59 H 0.5267 0.4304 0.4254
C51 C 0.6347(8) 0.1880(7) 0.4085(7)
C52 C 0.7379(9) 0.2205(8) 0.4750(8)
H60 H 0.7946 0.2534 0.4468
C53 C 0.7583(9) 0.2053(8) 0.5803(8)
H61 H 0.8304 0.2245 0.6237
C54 C 0.6761(9) 0.1628(9) 0.6246(8)
H62 H 0.6908 0.1549 0.6982
C55 C 0.5711(10) 0.1312(8) 0.5609(8)
H63 H 0.5144 0.1000 0.5902
C56 C 0.5508(8) 0.1464(7) 0.4524(7)
H64 H 0.4786 0.1280 0.4088
O5 O 0.3290(6) 0.4691(5) 0.1333(5)
O6 O 0.4706(5) 0.5124(7) 0.0609(6)
O7 O 0.2252(5) 0.6586(5) 0.0938(5)
H65 H 0.2188 0.6245 0.1461
C57 C 0.3828(7) 0.5345(7) 0.0924(7)
C58 C 0.3378(7) 0.6508(7) 0.0812(7)
H66 H 0.3372 0.6716 0.0083
C59 C 0.4161(7) 0.7318(6) 0.1566(7)
C60 C 0.5105(9) 0.7041(7) 0.2316(7)
H67 H 0.5332 0.6305 0.2371
C61 C 0.5728(11) 0.7845(8) 0.2994(8)
H68 H 0.6381 0.7656 0.3506
C62 C 0.5391(8) 0.8926(7) 0.2919(7)
H69 H 0.5802 0.9471 0.3389
C63 C 0.4462(10) 0.9193(8) 0.2160(10)
H70 H 0.4229 0.9927 0.2103
C64 C 0.3866(8) 0.8404(7) 0.1483(9)
H71 H 0.3239 0.8605 0.0947
O8 O 0.1532(5) 0.1778(5) 1.0667(5)
O9 O 0.3378(5) 0.1762(5) 1.1478(4)
O10 O 0.1765(5) 0.0624(5) 0.9043(4)
H72 H 0.1259 0.1040 0.9171
C65 C 0.2535(7) 0.1516(6) 1.0740(6)
C66 C 0.2777(7) 0.0781(6) 0.9848(6)
H73 H 0.3020 0.0059 1.0134
C67 C 0.3740(10) 0.1252(8) 0.9426(7)
C68 C 0.4721(8) 0.0681(7) 0.9452(8)
H74 H 0.4798 -0.0025 0.9718
C69 C 0.5584(9) 0.1129(8) 0.9096(10)
H75 H 0.6261 0.0731 0.9126
C70 C 0.5495(9) 0.2147(9) 0.8693(8)
H76 H 0.6095 0.2437 0.8429
C71 C 0.4506(10) 0.2754(9) 0.8677(8)
H77 H 0.4450 0.3471 0.8433
C72 C 0.3612(8) 0.2300(7) 0.9018(7)
H78 H 0.2927 0.2686 0.8979
O11 O 0.6637(5) 0.8581(5) 0.0767(4)
O12 O 0.8052(5) 0.8641(5) -0.0072(4)
O13 O 0.7652(5) 0.9800(5) 0.2365(5)
H79 H 0.6967 0.9629 0.2125
C73 C 0.7583(7) 0.8887(6) 0.0686(7)
C74 C 0.8271(7) 0.9616(6) 0.1562(6)
H80 H 0.8377 1.0332 0.1265
C75 C 0.9411(9) 0.9173(8) 0.2003(7)
C76 C 0.9557(8) 0.8129(7) 0.2391(7)
H81 H 0.8909 0.7702 0.2408
C77 C 1.0623(10) 0.7714(9) 0.2747(7)
H82 H 1.0699 0.7003 0.3001
C78 C 1.1573(9) 0.8304(8) 0.2741(8)
H83 H 1.2305 0.8017 0.3007
C79 C 1.1454(9) 0.9336(9) 0.2337(9)
H84 H 1.2109 0.9754 0.2324
C80 C 1.0392(8) 0.9752(7) 0.1959(8)
H85 H 1.0324 1.0444 0.1663
O14 O 0.8074(5) 0.5713(5) 0.9980(5)
O15 O 0.9800(4) 0.5234(7) 1.0799(6)
O16 O 0.7144(5) 0.3856(5) 1.0374(5)
H86 H 0.6849 0.4133 0.9803
C81 C 0.8772(7) 0.5050(7) 1.0450(6)
C82 C 0.8340(7) 0.3902(7) 1.0540(6)
H87 H 0.8662 0.3686 1.1274
C83 C 0.8729(7) 0.3070(6) 0.9808(6)
C84 C 0.8421(8) 0.1982(7) 0.9863(8)
H88 H 0.8024 0.1788 1.0375
C85 C 0.8688(10) 0.1181(8) 0.9177(9)
H89 H 0.8479 0.0446 0.9228
C86 C 0.9243(8) 0.1449(7) 0.8439(7)
H90 H 0.9405 0.0905 0.7960
C87 C 0.9579(10) 0.2516(8) 0.8377(7)
H91 H 0.9986 0.2695 0.7868
C88 C 0.9324(7) 0.3322(7) 0.9054(6)
H92 H 0.9555 0.4050 0.9004
loop_
_geom_bond_atom_site_label_1
_geom_bond_atom_site_label_2
_geom_bond_site_symmetry_1
_geom_bond_site_symmetry_2
N1 H1 1_555 1_555
H2 N1 1_555 1_555
H3 N1 1_555 1_555
O1 H4 1_555 1_555
C1 O1 1_555 1_555
H5 C1 1_555 1_555
C2 N1 1_555 1_555
H6 C2 1_555 1_555
C3 C1 1_555 1_555
C4 C3 1_555 1_555
H7 C4 1_555 1_555
C5 C4 1_555 1_555
H8 C5 1_555 1_555
C6 C5 1_555 1_555
H9 C6 1_555 1_555
C7 C6 1_555 1_555
H10 C7 1_555 1_555
C8 C3 1_555 1_555
H11 C8 1_555 1_555
C9 C2 1_555 1_555
C10 C9 1_555 1_555
H12 C10 1_555 1_555
C11 C10 1_555 1_555
H13 C11 1_555 1_555
C12 C11 1_555 1_555
H14 C12 1_555 1_555
C13 C12 1_555 1_555
H15 C13 1_555 1_555
C14 C9 1_555 1_555
H16 C14 1_555 1_555
N2 H17 1_555 1_555
H18 N2 1_555 1_555
H19 N2 1_555 1_555
O2 H20 1_555 1_555
C15 O2 1_555 1_555
H21 C15 1_555 1_555
C16 N2 1_555 1_555
H22 C16 1_555 1_555
C17 C15 1_555 1_555
C18 C17 1_555 1_555
H23 C18 1_555 1_555
C19 C18 1_555 1_555
H24 C19 1_555 1_555
C20 C19 1_555 1_555
H25 C20 1_555 1_555
C21 C20 1_555 1_555
H26 C21 1_555 1_555
C22 C17 1_555 1_555
H27 C22 1_555 1_555
C23 C16 1_555 1_555
C24 C23 1_555 1_555
H28 C24 1_555 1_555
C25 C24 1_555 1_555
H29 C25 1_555 1_555
C26 C25 1_555 1_555
H30 C26 1_555 1_555
C27 C26 1_555 1_555
H31 C27 1_555 1_555
C28 C23 1_555 1_555
H32 C28 1_555 1_555
N3 H33 1_555 1_555
H34 N3 1_555 1_555
H35 N3 1_555 1_555
O3 H36 1_555 1_555
C29 N3 1_555 1_555
H37 C29 1_555 1_555
C30 O3 1_555 1_555
H38 C30 1_555 1_555
C31 C29 1_555 1_555
C32 C31 1_555 1_555
H39 C32 1_555 1_555
C33 C32 1_555 1_555
H40 C33 1_555 1_555
C34 C33 1_555 1_555
H41 C34 1_555 1_555
C35 C34 1_555 1_555
H42 C35 1_555 1_555
C36 C31 1_555 1_555
H43 C36 1_555 1_555
C37 C30 1_555 1_555
C38 C37 1_555 1_555
H44 C38 1_555 1_555
C39 C38 1_555 1_555
H45 C39 1_555 1_555
C40 C39 1_555 1_555
H46 C40 1_555 1_555
C41 C40 1_555 1_555
H47 C41 1_555 1_555
C42 C37 1_555 1_555
H48 C42 1_555 1_555
N4 H49 1_555 1_555
H50 N4 1_555 1_555
H51 N4 1_555 1_555
O4 H52 1_555 1_555
C43 N4 1_555 1_555
H53 C43 1_555 1_555
C44 O4 1_555 1_555
H54 C44 1_555 1_555
C45 C43 1_555 1_555
C46 C45 1_555 1_555
H55 C46 1_555 1_555
C47 C46 1_555 1_555
H56 C47 1_555 1_555
C48 C47 1_555 1_555
H57 C48 1_555 1_555
C49 C48 1_555 1_555
H58 C49 1_555 1_555
C50 C45 1_555 1_555
H59 C50 1_555 1_555
C51 C44 1_555 1_555
C52 C51 1_555 1_555
H60 C52 1_555 1_555
C53 C52 1_555 1_555
H61 C53 1_555 1_555
C54 C53 1_555 1_555
H62 C54 1_555 1_555
C55 C54 1_555 1_555
H63 C55 1_555 1_555
C56 C51 1_555 1_555
H64 C56 1_555 1_555
O5 C57 1_555 1_555
O6 C57 1_555 1_555
O7 H65 1_555 1_555
C57 C58 1_555 1_555
C58 O7 1_555 1_555
H66 C58 1_555 1_555
C59 C58 1_555 1_555
C60 C59 1_555 1_555
H67 C60 1_555 1_555
C61 C60 1_555 1_555
H68 C61 1_555 1_555
C62 C61 1_555 1_555
H69 C62 1_555 1_555
C63 C62 1_555 1_555
H70 C63 1_555 1_555
C64 C59 1_555 1_555
H71 C64 1_555 1_555
O8 C65 1_555 1_555
O9 C65 1_555 1_555
O10 H72 1_555 1_555
C65 C66 1_555 1_555
C66 O10 1_555 1_555
H73 C66 1_555 1_555
C67 C66 1_555 1_555
C68 C67 1_555 1_555
H74 C68 1_555 1_555
C69 C68 1_555 1_555
H75 C69 1_555 1_555
C70 C69 1_555 1_555
H76 C70 1_555 1_555
C71 C70 1_555 1_555
H77 C71 1_555 1_555
C72 C67 1_555 1_555
H78 C72 1_555 1_555
O11 C73 1_555 1_555
O12 C73 1_555 1_555
O13 H79 1_555 1_555
C73 C74 1_555 1_555
C74 O13 1_555 1_555
H80 C74 1_555 1_555
C75 C74 1_555 1_555
C76 C75 1_555 1_555
H81 C76 1_555 1_555
C77 C76 1_555 1_555
H82 C77 1_555 1_555
C78 C77 1_555 1_555
H83 C78 1_555 1_555
C79 C78 1_555 1_555
H84 C79 1_555 1_555
C80 C75 1_555 1_555
H85 C80 1_555 1_555
O14 C81 1_555 1_555
O15 C81 1_555 1_555
O16 H86 1_555 1_555
C81 C82 1_555 1_555
C82 O16 1_555 1_555
H87 C82 1_555 1_555
C83 C82 1_555 1_555
C84 C83 1_555 1_555
H88 C84 1_555 1_555
C85 C84 1_555 1_555
H89 C85 1_555 1_555
C86 C85 1_555 1_555
H90 C86 1_555 1_555
C87 C86 1_555 1_555
H91 C87 1_555 1_555
C88 C83 1_555 1_555
H92 C88 1_555 1_555
C1 C2 1_555 1_555
C7 C8 1_555 1_555
C13 C14 1_555 1_555
C15 C16 1_555 1_555
C21 C22 1_555 1_555
C27 C28 1_555 1_555
C29 C30 1_555 1_555
C35 C36 1_555 1_555
C41 C42 1_555 1_555
C43 C44 1_555 1_555
C49 C50 1_555 1_555
C55 C56 1_555 1_555
C63 C64 1_555 1_555
C71 C72 1_555 1_555
C79 C80 1_555 1_555
C87 C88 1_555 1_555

#END
