
#######################################################################
#
#                 Cambridge Crystallographic Data Centre
#                                CCDC 
#
#######################################################################
#
# If this CIF has been generated from an entry in the Cambridge 
# Structural Database, then it will include bibliographic, chemical, 
# crystal, experimental, refinement or atomic coordinate data resulting 
# from the CCDC's data processing and validation procedures.
#
#######################################################################

data_LEWSEN
_chemical_formula_moiety         'C14 H11 N3 O5,C1 H4 O1'
_chemical_name_systematic        
"3,5-Dihydroxy-N'-(3-nitrobenzylidene)benzohydrazide methanol solvate"
_symmetry_cell_setting           monoclinic
_symmetry_space_group_name_H-M   'P 21/c'
_symmetry_Int_Tables_number      14
_space_group_name_Hall           '-P 2ybc'
loop_
_symmetry_equiv_pos_site_id
_symmetry_equiv_pos_as_xyz
1 x,y,z
2 -x,1/2+y,1/2-z
3 -x,-y,-z
4 x,1/2-y,1/2+z
_cell_length_a                   8.387(4)
_cell_length_b                   23.237(10)
_cell_length_c                   9.133(3)
_cell_angle_alpha                90
_cell_angle_beta                 122.10(3)
_cell_angle_gamma                90
_cell_volume                     1507.81
_exptl_crystal_colour            yellow
_exptl_crystal_description       block
_cell_formula_units_Z            4
loop_
_atom_site_label
_atom_site_type_symbol
_atom_site_fract_x
_atom_site_fract_y
_atom_site_fract_z
C1 C -0.2450(3) 0.42726(8) 0.1502(2)
C2 C -0.4046(3) 0.44500(8) 0.1507(2)
H1 H -0.4050 0.4795 0.2020
C3 C -0.5602(3) 0.40992(8) 0.0730(2)
C4 C -0.5671(3) 0.35816(9) -0.0062(3)
H2 H -0.6751 0.3355 -0.0581
C5 C -0.4102(3) 0.34141(9) -0.0058(3)
H3 H -0.4114 0.3070 -0.0583
C6 C -0.2504(3) 0.37521(8) 0.0722(3)
H4 H -0.1446 0.3630 0.0725
C7 C -0.0724(3) 0.46066(8) 0.2321(3)
H5 H 0.0343 0.4444 0.2423
C8 C 0.1473(3) 0.59129(8) 0.4094(2)
C9 C 0.3371(3) 0.61281(7) 0.4565(2)
C10 C 0.4149(3) 0.65976(7) 0.5663(2)
H6 H 0.3501 0.6777 0.6104
C11 C 0.5911(3) 0.67963(7) 0.6095(2)
C12 C 0.6893(3) 0.65296(8) 0.5450(3)
H7 H 0.8074 0.6664 0.5749
C13 C 0.6101(3) 0.60612(8) 0.4356(3)
C14 C 0.4333(3) 0.58648(8) 0.3896(3)
H8 H 0.3792 0.5556 0.3139
H9 H 0.790(4) 0.5912(12) 0.381(4)
H10 H 0.206(3) 0.5165(9) 0.364(3)
H11 H 0.761(4) 0.7332(11) 0.736(4)
N1 N -0.7244(2) 0.42629(7) 0.0802(2)
N2 N -0.0604(2) 0.51120(6) 0.2907(2)
N3 N 0.1151(2) 0.53588(7) 0.3613(2)
O1 O -0.8651(2) 0.39610(7) 0.0079(2)
O2 O -0.7140(2) 0.46952(7) 0.1598(3)
O3 O 0.6962(2) 0.57628(7) 0.3692(2)
O4 O 0.6628(2) 0.72529(6) 0.7190(2)
O5 O 0.03052(19) 0.62212(5) 0.41524(18)
C15 C 0.0729(4) 0.73482(10) 0.1767(3)
H12 H 0.0827 0.7737 0.1470
H13 H -0.0102 0.7136 0.0733
H14 H 0.1951 0.7172 0.2357
H15 H 0.007(4) 0.7040(12) 0.327(3)
O6 O 0.0008(2) 0.73472(7) 0.2857(2)
loop_
_geom_bond_atom_site_label_1
_geom_bond_atom_site_label_2
_geom_bond_site_symmetry_1
_geom_bond_site_symmetry_2
C1 C2 1_555 1_555
C2 H1 1_555 1_555
C3 C2 1_555 1_555
C4 C3 1_555 1_555
H2 C4 1_555 1_555
C5 C4 1_555 1_555
H3 C5 1_555 1_555
C6 C1 1_555 1_555
H4 C6 1_555 1_555
C7 C1 1_555 1_555
H5 C7 1_555 1_555
C8 C9 1_555 1_555
C9 C10 1_555 1_555
C10 H6 1_555 1_555
C11 C10 1_555 1_555
C12 C11 1_555 1_555
H7 C12 1_555 1_555
C13 C12 1_555 1_555
C14 C9 1_555 1_555
H8 C14 1_555 1_555
H9 O3 1_555 1_555
H10 N3 1_555 1_555
H11 O4 1_555 1_555
N1 C3 1_555 1_555
N2 C7 1_555 1_555
N3 C8 1_555 1_555
O1 N1 1_555 1_555
O2 N1 1_555 1_555
O3 C13 1_555 1_555
O4 C11 1_555 1_555
O5 C8 1_555 1_555
C15 H12 1_555 1_555
H13 C15 1_555 1_555
H14 C15 1_555 1_555
H15 O6 1_555 1_555
O6 C15 1_555 1_555
C5 C6 1_555 1_555
C13 C14 1_555 1_555
N2 N3 1_555 1_555

#END
