
#######################################################################
#
#                 Cambridge Crystallographic Data Centre
#                                CCDC 
#
#######################################################################
#
# If this CIF has been generated from an entry in the Cambridge 
# Structural Database, then it will include bibliographic, chemical, 
# crystal, experimental, refinement or atomic coordinate data resulting 
# from the CCDC's data processing and validation procedures.
#
#######################################################################

data_LEWVAN
_chemical_formula_moiety         'C21 H32 O4'
_chemical_name_systematic        
'methyl 7,8-dihydroxy-3a,8-dimethyl-1-isopropyl-3,3a,4,5,6,7,8,9-octahydrocyclohepta[e]indene-5a(2H)-carboxylate'
_symmetry_cell_setting           triclinic
_symmetry_space_group_name_H-M   'P -1'
_symmetry_Int_Tables_number      2
_space_group_name_Hall           '-P 1'
loop_
_symmetry_equiv_pos_site_id
_symmetry_equiv_pos_as_xyz
1 x,y,z
2 -x,-y,-z
_cell_length_a                   8.9291(9)
_cell_length_b                   10.3684(8)
_cell_length_c                   12.0945(9)
_cell_angle_alpha                72.802(5)
_cell_angle_beta                 68.678(5)
_cell_angle_gamma                80.064(6)
_cell_volume                     993.77
_exptl_crystal_colour            colorless
_exptl_crystal_description       platelet
_cell_formula_units_Z            2
loop_
_atom_site_label
_atom_site_type_symbol
_atom_site_fract_x
_atom_site_fract_y
_atom_site_fract_z
O1 O 0.1890(2) 1.0341(2) 0.99404(16)
H1 H 0.224(4) 1.002(3) 1.054(2)
O2 O 0.1230(2) 0.90980(16) 0.83614(15)
H2 H 0.046(3) 0.918(3) 0.899(2)
O3 O 0.7293(2) 1.00181(16) 0.62219(14)
O4 O 0.6935(2) 1.04558(19) 0.79960(17)
C1 C 0.2906(4) 0.5304(3) 0.6444(3)
H3 H 0.3439 0.5946 0.5700
H4 H 0.1779 0.5359 0.6551
H5 H 0.3370 0.4407 0.6395
C2 C 0.3111(3) 0.5624(2) 0.7530(2)
H6 H 0.2642 0.6546 0.7556
C3 C 0.4874(3) 0.5576(2) 0.7365(2)
C4 C 0.5732(3) 0.6608(2) 0.71755(19)
C5 C 0.5167(3) 0.8022(2) 0.71828(18)
C6 C 0.4188(3) 0.8759(2) 0.65798(18)
H7 H 0.3978 0.8372 0.6054
C7 C 0.3392(3) 1.0137(2) 0.66566(19)
H8 H 0.2822 1.0444 0.6068
H9 H 0.4222 1.0755 0.6417
C8 C 0.2197(3) 1.0226(2) 0.7930(2)
C9 C 0.1134(3) 1.1554(2) 0.7792(3)
H10 H 0.0541 1.1566 0.7267
H11 H 0.1802 1.2304 0.7438
H12 H 0.0396 1.1622 0.8583
C10 C 0.3086(3) 1.0172(2) 0.8813(2)
H13 H 0.3761 1.0942 0.8470
C11 C 0.5657(3) 0.8548(2) 0.80555(18)
C12 C 0.6666(3) 0.9772(2) 0.7440(2)
C13 C 0.8313(4) 1.1138(3) 0.5617(3)
H14 H 0.7730 1.1941 0.5844
H15 H 0.8631 1.1279 0.4744
H16 H 0.9254 1.0936 0.5861
C14 C 0.4147(3) 0.8887(2) 0.90967(19)
H17 H 0.3474 0.8130 0.9418
H18 H 0.4501 0.8934 0.9752
C15 C 0.6724(3) 0.7432(2) 0.8660(2)
H19 H 0.7148 0.7809 0.9121
H20 H 0.6063 0.6707 0.9232
C16 C 0.8117(3) 0.6854(3) 0.7723(2)
H21 H 0.8787 0.6205 0.8138
H22 H 0.8774 0.7577 0.7143
C17 C 0.7500(3) 0.6151(2) 0.7026(2)
C18 C 0.8494(3) 0.6487(3) 0.5657(3)
H23 H 0.8127 0.6005 0.5248
H24 H 0.9611 0.6222 0.5557
H25 H 0.8367 0.7443 0.5308
C19 C 0.7407(4) 0.4620(3) 0.7572(3)
H26 H 0.8379 0.4136 0.7154
H27 H 0.7276 0.4385 0.8438
C20 C 0.5940(4) 0.4270(3) 0.7381(3)
H28 H 0.6241 0.4022 0.6612
H29 H 0.5408 0.3534 0.8049
C21 C 0.2192(4) 0.4653(4) 0.8730(3)
H30 H 0.2636 0.3742 0.8727
H31 H 0.1075 0.4723 0.8805
H32 H 0.2289 0.4887 0.9411
loop_
_geom_bond_atom_site_label_1
_geom_bond_atom_site_label_2
_geom_bond_site_symmetry_1
_geom_bond_site_symmetry_2
O1 H1 1_555 1_555
O2 H2 1_555 1_555
O3 C12 1_555 1_555
O4 C12 1_555 1_555
C1 H3 1_555 1_555
H4 C1 1_555 1_555
H5 C1 1_555 1_555
C2 C1 1_555 1_555
H6 C2 1_555 1_555
C3 C2 1_555 1_555
C4 C3 1_555 1_555
C5 C4 1_555 1_555
C6 C5 1_555 1_555
H7 C6 1_555 1_555
C7 C6 1_555 1_555
H8 C7 1_555 1_555
H9 C7 1_555 1_555
C8 O2 1_555 1_555
C9 C8 1_555 1_555
H10 C9 1_555 1_555
H11 C9 1_555 1_555
H12 C9 1_555 1_555
C10 O1 1_555 1_555
H13 C10 1_555 1_555
C11 C5 1_555 1_555
C12 C11 1_555 1_555
C13 O3 1_555 1_555
H14 C13 1_555 1_555
H15 C13 1_555 1_555
H16 C13 1_555 1_555
C14 C10 1_555 1_555
H17 C14 1_555 1_555
H18 C14 1_555 1_555
C15 C11 1_555 1_555
H19 C15 1_555 1_555
H20 C15 1_555 1_555
C16 C15 1_555 1_555
H21 C16 1_555 1_555
H22 C16 1_555 1_555
C17 C4 1_555 1_555
C18 C17 1_555 1_555
H23 C18 1_555 1_555
H24 C18 1_555 1_555
H25 C18 1_555 1_555
C19 C17 1_555 1_555
H26 C19 1_555 1_555
H27 C19 1_555 1_555
C20 C3 1_555 1_555
H28 C20 1_555 1_555
H29 C20 1_555 1_555
C21 C2 1_555 1_555
H30 C21 1_555 1_555
H31 C21 1_555 1_555
H32 C21 1_555 1_555
C7 C8 1_555 1_555
C8 C10 1_555 1_555
C11 C14 1_555 1_555
C16 C17 1_555 1_555
C19 C20 1_555 1_555

#END
