
#######################################################################
#
#                 Cambridge Crystallographic Data Centre
#                                CCDC 
#
#######################################################################
#
# If this CIF has been generated from an entry in the Cambridge 
# Structural Database, then it will include bibliographic, chemical, 
# crystal, experimental, refinement or atomic coordinate data resulting 
# from the CCDC's data processing and validation procedures.
#
#######################################################################

data_LEWZEU
_chemical_formula_moiety         'C7 H4 N1 O5 1-,C6 H8 N1 O1 1+'
_chemical_name_systematic        '2-Hydroxyanilinium 2-hydroxy-5-nitrobenzoate'
_symmetry_cell_setting           triclinic
_symmetry_space_group_name_H-M   'P -1'
_symmetry_Int_Tables_number      2
_space_group_name_Hall           '-P 1'
loop_
_symmetry_equiv_pos_site_id
_symmetry_equiv_pos_as_xyz
1 x,y,z
2 -x,-y,-z
_cell_length_a                   10.7020(10)
_cell_length_b                   10.7709(11)
_cell_length_c                   12.4031(13)
_cell_angle_alpha                108.702(2)
_cell_angle_beta                 97.5900(10)
_cell_angle_gamma                92.7600(10)
_cell_volume                     1336.1
_exptl_crystal_colour            colorless
_exptl_crystal_description       block
_cell_formula_units_Z            4
loop_
_atom_site_label
_atom_site_type_symbol
_atom_site_fract_x
_atom_site_fract_y
_atom_site_fract_z
N1 N 0.0496(12) 0.1564(10) -0.0943(8)
O1 O 0.2210(9) 0.6694(8) 0.1781(6)
H1 H 0.1899 0.6896 0.2377
O2 O 0.0889(9) 0.6411(8) 0.3258(6)
O3 O 0.0051(8) 0.4412(7) 0.3096(6)
O4 O -0.0309(12) 0.0953(9) -0.0649(8)
O5 O 0.0943(10) 0.1083(8) -0.1845(7)
C1 C 0.0586(12) 0.5216(12) 0.2702(8)
C2 C 0.1801(12) 0.5445(11) 0.1145(8)
C3 C 0.0972(10) 0.4686(10) 0.1529(8)
C4 C 0.0522(11) 0.3422(10) 0.0808(8)
H2 H -0.0064 0.2921 0.1027
C5 C 0.0943(11) 0.2914(10) -0.0229(7)
C6 C 0.1785(13) 0.3660(12) -0.0601(9)
H3 H 0.2053 0.3305 -0.1310
C7 C 0.2216(13) 0.4929(12) 0.0094(9)
H4 H 0.2782 0.5434 -0.0141
N2 N 0.6946(10) 1.1508(9) 0.2537(8)
O6 O 0.4502(9) 0.6847(8) -0.0557(6)
H5 H 0.4802 0.6654 -0.1159
O7 O 0.5921(8) 0.7041(8) -0.1974(6)
O8 O 0.7460(9) 0.8689(8) -0.1435(7)
O9 O 0.7827(10) 1.2087(8) 0.2264(7)
O10 O 0.6626(8) 1.1960(7) 0.3493(6)
C8 C 0.6550(13) 0.8102(12) -0.1259(9)
C9 C 0.5109(11) 0.7979(11) 0.0186(8)
C10 C 0.6093(11) 0.8640(11) -0.0116(8)
C11 C 0.6701(10) 0.9814(10) 0.0653(8)
H6 H 0.7358 1.0261 0.0464
C12 C 0.6294(10) 1.0305(11) 0.1722(8)
C13 C 0.5303(11) 0.9656(11) 0.2019(9)
H7 H 0.5055 1.0009 0.2737
C14 C 0.4695(12) 0.8497(11) 0.1251(9)
H8 H 0.4023 0.8066 0.1434
N3 N 0.0740(9) 0.1630(8) 0.2728(6)
H9 H 0.1379 0.1738 0.2364
H10 H 0.0411 0.2392 0.2995
H11 H 0.0148 0.1033 0.2239
O11 O 0.0030(8) 0.2730(7) 0.4804(5)
H12 H -0.0165 0.2997 0.5451
C15 C 0.0805(11) 0.1748(10) 0.4740(9)
C16 C 0.1202(11) 0.1182(10) 0.3685(8)
C17 C 0.2013(12) 0.0191(12) 0.3531(11)
H13 H 0.2283 -0.0181 0.2824
C18 C 0.2413(15) -0.0229(14) 0.4458(14)
H14 H 0.2933 -0.0911 0.4367
C19 C 0.2039(15) 0.0366(14) 0.5515(12)
H15 H 0.2334 0.0094 0.6134
C20 C 0.1251(13) 0.1338(12) 0.5666(9)
H16 H 0.1011 0.1729 0.6383
N4 N 0.1815(8) 0.5421(8) 0.5530(6)
H17 H 0.1318 0.5526 0.6068
H18 H 0.1364 0.5004 0.4840
H19 H 0.2139 0.6206 0.5549
O12 O 0.2931(8) 0.4049(8) 0.3790(6)
H20 H 0.3306 0.3593 0.3294
C21 C 0.3417(11) 0.3978(11) 0.4823(9)
C22 C 0.2826(11) 0.4657(10) 0.5747(9)
C23 C 0.3227(12) 0.4645(12) 0.6850(10)
H21 H 0.2824 0.5108 0.7456
C24 C 0.4227(14) 0.3944(13) 0.7048(12)
H22 H 0.4511 0.3951 0.7791
C25 C 0.4813(14) 0.3227(14) 0.6137(14)
H23 H 0.5474 0.2737 0.6265
C26 C 0.4398(13) 0.3250(13) 0.5030(13)
H24 H 0.4787 0.2769 0.4421
loop_
_geom_bond_atom_site_label_1
_geom_bond_atom_site_label_2
_geom_bond_site_symmetry_1
_geom_bond_site_symmetry_2
N1 O4 1_555 1_555
O1 H1 1_555 1_555
O2 C1 1_555 1_555
O3 C1 1_555 1_555
O5 N1 1_555 1_555
C1 C3 1_555 1_555
C2 O1 1_555 1_555
C3 C2 1_555 1_555
C4 C3 1_555 1_555
H2 C4 1_555 1_555
C5 N1 1_555 1_555
C6 C5 1_555 1_555
H3 C6 1_555 1_555
C7 C2 1_555 1_555
H4 C7 1_555 1_555
N2 O9 1_555 1_555
O6 H5 1_555 1_555
O7 C8 1_555 1_555
O8 C8 1_555 1_555
O10 N2 1_555 1_555
C8 C10 1_555 1_555
C9 O6 1_555 1_555
C10 C9 1_555 1_555
C11 C10 1_555 1_555
H6 C11 1_555 1_555
C12 N2 1_555 1_555
C13 C12 1_555 1_555
H7 C13 1_555 1_555
C14 C9 1_555 1_555
H8 C14 1_555 1_555
N3 H9 1_555 1_555
H10 N3 1_555 1_555
H11 N3 1_555 1_555
O11 H12 1_555 1_555
C15 O11 1_555 1_555
C16 N3 1_555 1_555
C17 C16 1_555 1_555
H13 C17 1_555 1_555
C18 C17 1_555 1_555
H14 C18 1_555 1_555
C19 C18 1_555 1_555
H15 C19 1_555 1_555
C20 C15 1_555 1_555
H16 C20 1_555 1_555
N4 H17 1_555 1_555
H18 N4 1_555 1_555
H19 N4 1_555 1_555
O12 H20 1_555 1_555
C21 O12 1_555 1_555
C22 N4 1_555 1_555
C23 C22 1_555 1_555
H21 C23 1_555 1_555
C24 C23 1_555 1_555
H22 C24 1_555 1_555
C25 C24 1_555 1_555
H23 C25 1_555 1_555
C26 C21 1_555 1_555
H24 C26 1_555 1_555
C4 C5 1_555 1_555
C6 C7 1_555 1_555
C11 C12 1_555 1_555
C13 C14 1_555 1_555
C15 C16 1_555 1_555
C19 C20 1_555 1_555
C21 C22 1_555 1_555
C25 C26 1_555 1_555

#END
