
#######################################################################
#
#                 Cambridge Crystallographic Data Centre
#                                CCDC 
#
#######################################################################
#
# If this CIF has been generated from an entry in the Cambridge 
# Structural Database, then it will include bibliographic, chemical, 
# crystal, experimental, refinement or atomic coordinate data resulting 
# from the CCDC's data processing and validation procedures.
#
#######################################################################

data_LEXHAA
_chemical_name_common            'stachyoides A'
_chemical_formula_moiety         'C16 H18 O5'
_chemical_name_systematic        
6-hydroxy-6'-methoxy-3a',8b'-dihydro-1'H,3H-spiro[cyclohexane-1,3'-furo[3,4-b][1]benzofuran]-3-one
_symmetry_cell_setting           monoclinic
_symmetry_space_group_name_H-M   'P 21'
_symmetry_Int_Tables_number      4
_space_group_name_Hall           'P 2yb'
loop_
_symmetry_equiv_pos_site_id
_symmetry_equiv_pos_as_xyz
1 x,y,z
2 -x,1/2+y,-z
_cell_length_a                   6.51965(16)
_cell_length_b                   20.3447(5)
_cell_length_c                   10.5706(3)
_cell_angle_alpha                90
_cell_angle_beta                 101.701(3)
_cell_angle_gamma                90
_cell_volume                     1372.95
_exptl_crystal_colour            colorless
_exptl_crystal_description       plate
_chemical_melting_point          '378-380 K'
_cell_formula_units_Z            4
loop_
_atom_site_label
_atom_site_type_symbol
_atom_site_fract_x
_atom_site_fract_y
_atom_site_fract_z
O1 O -0.0485(3) -0.40440(8) -0.20464(17)
O2 O 0.2321(2) -0.51731(8) -0.30386(15)
O3 O 0.2445(3) -0.52624(9) 0.04264(16)
H1 H 0.3343 -0.5371 0.1053
C1 C 0.1606(4) -0.32957(11) -0.4585(2)
H2 H 0.2878 -0.3281 -0.4854
O4 O -0.3816(3) -0.26674(9) -0.54705(17)
C2 C -0.2034(4) -0.29874(11) -0.4875(2)
O5 O -0.1576(3) -0.64304(10) -0.3005(2)
C3 C 0.2993(4) -0.40490(11) -0.2555(2)
H3 H 0.4133 -0.3773 -0.2091
C4 C -0.0128(4) -0.29510(11) -0.5279(2)
H4 H -0.0008 -0.2702 -0.5997
C5 C -0.2260(4) -0.33609(11) -0.3804(2)
H5 H -0.3541 -0.3393 -0.3550
C6 C -0.0565(3) -0.53934(12) -0.2016(2)
H6 H -0.1182 -0.5285 -0.1281
H7 H -0.1464 -0.5216 -0.2784
C7 C -0.0499(4) -0.36811(11) -0.3137(2)
C8 C -0.3627(4) -0.21890(13) -0.6429(3)
H8 H -0.3234 -0.2403 -0.7154
H9 H -0.2575 -0.1873 -0.6070
H10 H -0.4945 -0.1970 -0.6707
C9 C 0.1428(4) -0.36562(11) -0.3505(2)
C10 C -0.0454(4) -0.61341(12) -0.2139(2)
C11 C 0.1132(4) -0.64688(12) -0.1106(3)
H11 H 0.1237 -0.6929 -0.1326
H12 H 0.0672 -0.6446 -0.0289
C12 C 0.1602(4) -0.43238(12) -0.1639(2)
H13 H 0.2194 -0.4211 -0.0738
C13 C 0.3824(4) -0.46657(12) -0.3116(2)
H14 H 0.3938 -0.4593 -0.4006
H15 H 0.5192 -0.4785 -0.2618
C14 C 0.3166(4) -0.54041(12) -0.0733(2)
H16 H 0.4555 -0.5209 -0.0680
C15 C 0.1600(3) -0.50760(11) -0.1841(2)
C16 C 0.3293(4) -0.61418(12) -0.0961(2)
H17 H 0.4254 -0.6340 -0.0241
H18 H 0.3836 -0.6218 -0.1738
O6 O 0.4490(3) -0.33599(9) 0.14475(18)
O7 O 0.1242(3) -0.19454(8) -0.20937(17)
O8 O 0.2362(3) 0.03788(9) -0.05326(18)
O9 O 0.4707(2) -0.08083(8) -0.24742(16)
C17 C 0.6397(4) -0.26412(12) -0.1228(2)
H19 H 0.7636 -0.2634 -0.1536
C18 C 0.4648(4) -0.23013(11) -0.1876(2)
O10 O -0.0503(3) -0.05790(9) -0.44587(17)
H20 H -0.0919 -0.0483 -0.5221
C19 C 0.4426(4) -0.29932(12) 0.0357(2)
C20 C 0.6284(4) -0.29912(12) -0.0118(2)
H21 H 0.7443 -0.3225 0.0312
C21 C 0.2846(4) -0.23059(10) -0.1373(2)
C22 C 0.2659(4) -0.26435(12) -0.0263(2)
H22 H 0.1427 -0.2638 0.0052
C23 C 0.1833(4) 0.01357(12) -0.1596(2)
C24 C 0.1516(4) -0.06002(12) -0.1766(2)
H23 H 0.0027 -0.0695 -0.1938
H24 H 0.2151 -0.0819 -0.0968
C25 C 0.2059(4) -0.16210(11) -0.3121(2)
H25 H 0.1121 -0.1691 -0.3959
C26 C 0.5660(4) -0.13128(12) -0.3123(2)
H26 H 0.7076 -0.1404 -0.2663
H27 H 0.5702 -0.1181 -0.3999
C27 C 0.2288(4) 0.02376(13) -0.3914(2)
H28 H 0.1769 0.0477 -0.4707
H29 H 0.3801 0.0282 -0.3707
C28 C 0.1357(5) 0.05373(12) -0.2816(3)
H30 H 0.1914 0.0977 -0.2633
H31 H -0.0150 0.0574 -0.3100
C29 C 0.2456(3) -0.08766(11) -0.2862(2)
C30 C 0.4257(4) -0.19140(12) -0.3120(2)
H32 H 0.4249 -0.2197 -0.3872
C31 C 0.1714(4) -0.04863(12) -0.4117(2)
H33 H 0.2369 -0.0666 -0.4799
C32 C 0.2635(5) -0.33921(16) 0.1963(3)
H34 H 0.1523 -0.3581 0.1334
H35 H 0.2245 -0.2957 0.2176
H36 H 0.2889 -0.3659 0.2728
loop_
_geom_bond_atom_site_label_1
_geom_bond_atom_site_label_2
_geom_bond_site_symmetry_1
_geom_bond_site_symmetry_2
O1 C7 1_555 1_555
O2 C13 1_555 1_555
O3 H1 1_555 1_555
C1 H2 1_555 1_555
O4 C2 1_555 1_555
C2 C4 1_555 1_555
O5 C10 1_555 1_555
C3 H3 1_555 1_555
C4 C1 1_555 1_555
H4 C4 1_555 1_555
C5 C2 1_555 1_555
H5 C5 1_555 1_555
C6 H6 1_555 1_555
H7 C6 1_555 1_555
C7 C5 1_555 1_555
C8 O4 1_555 1_555
H8 C8 1_555 1_555
H9 C8 1_555 1_555
H10 C8 1_555 1_555
C9 C1 1_555 1_555
C10 C6 1_555 1_555
C11 C10 1_555 1_555
H11 C11 1_555 1_555
H12 C11 1_555 1_555
C12 O1 1_555 1_555
H13 C12 1_555 1_555
C13 C3 1_555 1_555
H14 C13 1_555 1_555
H15 C13 1_555 1_555
C14 O3 1_555 1_555
H16 C14 1_555 1_555
C15 O2 1_555 1_555
C16 C11 1_555 1_555
H17 C16 1_555 1_555
H18 C16 1_555 1_555
O6 C19 1_555 1_555
O7 C21 1_555 1_555
O8 C23 1_555 1_555
O9 C26 1_555 1_555
C17 H19 1_555 1_555
C18 C17 1_555 1_555
O10 H20 1_555 1_555
C19 C20 1_555 1_555
C20 C17 1_555 1_555
H21 C20 1_555 1_555
C21 C18 1_555 1_555
C22 C19 1_555 1_555
H22 C22 1_555 1_555
C23 C24 1_555 1_555
C24 H23 1_555 1_555
H24 C24 1_555 1_555
C25 O7 1_555 1_555
H25 C25 1_555 1_555
C26 H26 1_555 1_555
H27 C26 1_555 1_555
C27 H28 1_555 1_555
H29 C27 1_555 1_555
C28 C23 1_555 1_555
H30 C28 1_555 1_555
H31 C28 1_555 1_555
C29 O9 1_555 1_555
C30 C18 1_555 1_555
H32 C30 1_555 1_555
C31 O10 1_555 1_555
H33 C31 1_555 1_555
C32 O6 1_555 1_555
H34 C32 1_555 1_555
H35 C32 1_555 1_555
H36 C32 1_555 1_555
C3 C9 1_555 1_555
C3 C12 1_555 1_555
C6 C15 1_555 1_555
C7 C9 1_555 1_555
C12 C15 1_555 1_555
C14 C15 1_555 1_555
C14 C16 1_555 1_555
C21 C22 1_555 1_555
C24 C29 1_555 1_555
C25 C29 1_555 1_555
C25 C30 1_555 1_555
C26 C30 1_555 1_555
C27 C28 1_555 1_555
C27 C31 1_555 1_555
C29 C31 1_555 1_555

#END
