
#######################################################################
#
#                 Cambridge Crystallographic Data Centre
#                                CCDC 
#
#######################################################################
#
# If this CIF has been generated from an entry in the Cambridge 
# Structural Database, then it will include bibliographic, chemical, 
# crystal, experimental, refinement or atomic coordinate data resulting 
# from the CCDC's data processing and validation procedures.
#
#######################################################################

data_LEXKUX
_chemical_formula_moiety         'C33 H56 B11 Cl1 N4 O1 Si2'
_chemical_name_systematic        
'1,2-(2-[(carbonyl)(2-yl-1,3-di-t-butyl-4-phenyl-2,3-dihydro-1,3,2-diazasilet-2-yl)boranyl]-1,3-di-t-butyl-2-chloro-4-phenyl-2,3-dihydro-1,3,2-diazasilet)-1,2-dicaba-closo-dodecaborane(10) unknown solvate'
_symmetry_cell_setting           monoclinic
_symmetry_space_group_name_H-M   'P 21/n'
_symmetry_Int_Tables_number      14
_space_group_name_Hall           '-P 2yn'
loop_
_symmetry_equiv_pos_site_id
_symmetry_equiv_pos_as_xyz
1 x,y,z
2 1/2-x,1/2+y,1/2-z
3 -x,-y,-z
4 1/2+x,1/2-y,1/2+z
_cell_length_a                   12.7538(3)
_cell_length_b                   9.8933(2)
_cell_length_c                   38.4553(8)
_cell_angle_alpha                90
_cell_angle_beta                 91.3681(13)
_cell_angle_gamma                90
_cell_volume                     4850.8
_exptl_crystal_colour            orange
_exptl_crystal_description       block
_cell_formula_units_Z            4
loop_
_atom_site_label
_atom_site_type_symbol
_atom_site_fract_x
_atom_site_fract_y
_atom_site_fract_z
Si1 Si 0.62411(8) 0.25543(10) 0.09868(2)
Si2 Si 0.62218(9) 0.11009(12) 0.17933(3)
N1 N 0.7461(2) 0.3418(3) 0.08808(7)
N2 N 0.6889(2) 0.1606(3) 0.06403(7)
N3 N 0.5879(3) 0.1472(4) 0.22362(8)
N4 N 0.5555(3) -0.0349(3) 0.19681(8)
C1 C 0.5046(3) 0.3493(4) 0.07947(8)
C2 C 0.4153(3) 0.3411(4) 0.11004(9)
C3 C 0.4540(3) 0.2583(4) 0.14274(9)
C4 C 0.8157(3) 0.4505(4) 0.10271(11)
C5 C 0.9167(6) 0.4002(7) 0.1151(2)
H1 H 0.9521 0.3574 0.0963
H2 H 0.9583 0.4741 0.1239
H3 H 0.9065 0.3357 0.1334
C6 C 0.8350(8) 0.5552(6) 0.07615(19)
H4 H 0.7693 0.5902 0.0675
H5 H 0.8757 0.6272 0.0864
H6 H 0.8728 0.5161 0.0573
C7 C 0.7594(6) 0.5163(9) 0.1307(2)
H7 H 0.6930 0.5487 0.1219
H8 H 0.7482 0.4526 0.1491
H9 H 0.8001 0.5910 0.1396
C8 C 0.7685(3) 0.2471(4) 0.06456(9)
C9 C 0.8627(3) 0.2437(4) 0.04226(9)
C10 C 0.9494(3) 0.1667(5) 0.05133(12)
H10 H 0.9497 0.1152 0.0716
C11 C 1.0359(4) 0.1663(6) 0.03014(16)
H11 H 1.0948 0.1152 0.0362
C12 C 1.0341(4) 0.2412(6) 0.00044(14)
H12 H 1.0923 0.2419 -0.0137
C13 C 0.9483(4) 0.3147(6) -0.00875(12)
H13 H 0.9474 0.3642 -0.0293
C14 C 0.8622(3) 0.3165(5) 0.01225(10)
H14 H 0.8036 0.3676 0.0059
C15 C 0.6784(3) 0.0280(4) 0.04547(10)
C16 C 0.7004(4) 0.0460(6) 0.00651(12)
H15 H 0.6934 -0.0396 -0.0051
H16 H 0.6511 0.1090 -0.0035
H17 H 0.7703 0.0796 0.0039
C17 C 0.7526(4) -0.0733(5) 0.06263(16)
H18 H 0.7464 -0.1587 0.0509
H19 H 0.8234 -0.0410 0.0612
H20 H 0.7349 -0.0842 0.0866
C18 C 0.5671(4) -0.0178(5) 0.04948(12)
H21 H 0.5570 -0.1029 0.0379
H22 H 0.5528 -0.0279 0.0737
H23 H 0.5203 0.0482 0.0394
C19 C 0.5975(4) 0.2626(5) 0.24759(11)
C20 C 0.6885(6) 0.3495(7) 0.23449(15)
H24 H 0.6979 0.4266 0.2494
H25 H 0.7517 0.2967 0.2347
H26 H 0.6726 0.3793 0.2112
C21 C 0.6238(5) 0.2114(6) 0.28398(11)
H27 H 0.6301 0.2866 0.2997
H28 H 0.5691 0.1523 0.2915
H29 H 0.6890 0.1628 0.2838
C22 C 0.4974(6) 0.3462(6) 0.24653(17)
H30 H 0.5048 0.4211 0.2623
H31 H 0.4848 0.3794 0.2233
H32 H 0.4395 0.2909 0.2533
C23 C 0.5314(3) 0.0337(4) 0.22486(10)
C24 C 0.4536(4) -0.0043(6) 0.25113(12)
C25 C 0.3555(5) 0.0454(7) 0.24630(18)
H33 H 0.3394 0.1052 0.2283
C26 C 0.2787(7) 0.0030(13) 0.2698(3)
H34 H 0.2104 0.0349 0.2670
C27 C 0.3024(11) -0.0841(15) 0.2964(3)
H35 H 0.2508 -0.1119 0.3115
C28 C 0.4033(10) -0.1299(12) 0.3006(2)
H36 H 0.4202 -0.1864 0.3192
C29 C 0.4808(5) -0.0940(7) 0.27768(13)
H37 H 0.5485 -0.1286 0.2800
C30 C 0.5095(5) -0.1581(5) 0.18067(12)
C31 C 0.5784(9) -0.1826(7) 0.1491(2)
H38 H 0.6491 -0.2007 0.1570
H39 H 0.5519 -0.2587 0.1362
H40 H 0.5774 -0.1039 0.1346
C32 C 0.4039(7) -0.1313(8) 0.1683(3)
H41 H 0.3748 -0.2117 0.1579
H42 H 0.3618 -0.1042 0.1874
H43 H 0.4048 -0.0603 0.1513
C33 C 0.5231(6) -0.2810(6) 0.20299(18)
H44 H 0.5955 -0.2902 0.2099
H45 H 0.4813 -0.2720 0.2233
H46 H 0.5011 -0.3595 0.1901
B1 B 0.4779(4) 0.4913(5) 0.10321(12)
H47 H 0.5334 0.5377 0.1220
B2 B 0.4977(4) 0.4994(5) 0.05776(12)
H48 H 0.5652 0.5518 0.0467
B3 B 0.4472(4) 0.3479(6) 0.03932(11)
H49 H 0.4823 0.3017 0.0163
B4 B 0.3960(4) 0.2466(6) 0.07329(12)
H50 H 0.3974 0.1355 0.0727
B5 B 0.3423(4) 0.4866(5) 0.11084(13)
H51 H 0.3088 0.5303 0.1344
B6 B 0.3916(5) 0.5881(6) 0.07698(14)
H52 H 0.3899 0.6991 0.0783
B7 B 0.3721(4) 0.4987(7) 0.03743(14)
H53 H 0.3570 0.5519 0.0127
B8 B 0.3116(4) 0.3446(7) 0.04629(14)
H54 H 0.2573 0.2969 0.0273
B9 B 0.2916(4) 0.3365(7) 0.09242(14)
H55 H 0.2250 0.2836 0.1040
B10 B 0.2772(5) 0.4931(7) 0.06989(14)
H56 H 0.2003 0.5422 0.0664
B11 B 0.5670(4) 0.2091(5) 0.14161(11)
O1 O 0.3880(2) 0.2473(3) 0.16574(7)
Cl1 Cl 0.78098(11) 0.06873(18) 0.17877(4)
loop_
_geom_bond_atom_site_label_1
_geom_bond_atom_site_label_2
_geom_bond_site_symmetry_1
_geom_bond_site_symmetry_2
Si1 N1 1_555 1_555
Si2 N3 1_555 1_555
N1 C4 1_555 1_555
N2 Si1 1_555 1_555
N3 C19 1_555 1_555
N4 Si2 1_555 1_555
C1 Si1 1_555 1_555
C2 C1 1_555 1_555
C3 C2 1_555 1_555
C4 C5 1_555 1_555
C5 H1 1_555 1_555
H2 C5 1_555 1_555
H3 C5 1_555 1_555
C6 C4 1_555 1_555
H4 C6 1_555 1_555
H5 C6 1_555 1_555
H6 C6 1_555 1_555
C7 C4 1_555 1_555
H7 C7 1_555 1_555
H8 C7 1_555 1_555
H9 C7 1_555 1_555
C8 N1 1_555 1_555
C9 C8 1_555 1_555
C10 C9 1_555 1_555
H10 C10 1_555 1_555
C11 C10 1_555 1_555
H11 C11 1_555 1_555
C12 C11 1_555 1_555
H12 C12 1_555 1_555
C13 C12 1_555 1_555
H13 C13 1_555 1_555
C14 C9 1_555 1_555
H14 C14 1_555 1_555
C15 N2 1_555 1_555
C16 C15 1_555 1_555
H15 C16 1_555 1_555
H16 C16 1_555 1_555
H17 C16 1_555 1_555
C17 C15 1_555 1_555
H18 C17 1_555 1_555
H19 C17 1_555 1_555
H20 C17 1_555 1_555
C18 C15 1_555 1_555
H21 C18 1_555 1_555
H22 C18 1_555 1_555
H23 C18 1_555 1_555
C19 C20 1_555 1_555
C20 H24 1_555 1_555
H25 C20 1_555 1_555
H26 C20 1_555 1_555
C21 C19 1_555 1_555
H27 C21 1_555 1_555
H28 C21 1_555 1_555
H29 C21 1_555 1_555
C22 C19 1_555 1_555
H30 C22 1_555 1_555
H31 C22 1_555 1_555
H32 C22 1_555 1_555
C23 N3 1_555 1_555
C24 C23 1_555 1_555
C25 C24 1_555 1_555
H33 C25 1_555 1_555
C26 C25 1_555 1_555
H34 C26 1_555 1_555
C27 C26 1_555 1_555
H35 C27 1_555 1_555
C28 C27 1_555 1_555
H36 C28 1_555 1_555
C29 C24 1_555 1_555
H37 C29 1_555 1_555
C30 N4 1_555 1_555
C31 C30 1_555 1_555
H38 C31 1_555 1_555
H39 C31 1_555 1_555
H40 C31 1_555 1_555
C32 C30 1_555 1_555
H41 C32 1_555 1_555
H42 C32 1_555 1_555
H43 C32 1_555 1_555
C33 C30 1_555 1_555
H44 C33 1_555 1_555
H45 C33 1_555 1_555
H46 C33 1_555 1_555
B1 C1 1_555 1_555
H47 B1 1_555 1_555
B2 C1 1_555 1_555
H48 B2 1_555 1_555
B3 C1 1_555 1_555
H49 B3 1_555 1_555
B4 C1 1_555 1_555
H50 B4 1_555 1_555
B5 C2 1_555 1_555
H51 B5 1_555 1_555
B6 B1 1_555 1_555
H52 B6 1_555 1_555
B7 B2 1_555 1_555
H53 B7 1_555 1_555
B8 B3 1_555 1_555
H54 B8 1_555 1_555
B9 C2 1_555 1_555
H55 B9 1_555 1_555
B10 B5 1_555 1_555
H56 B10 1_555 1_555
B11 Si1 1_555 1_555
O1 C3 1_555 1_555
Cl1 Si2 1_555 1_555
Si2 B11 1_555 1_555
N2 C8 1_555 1_555
N4 C23 1_555 1_555
C2 B1 1_555 1_555
C2 B4 1_555 1_555
C3 B11 1_555 1_555
C13 C14 1_555 1_555
C28 C29 1_555 1_555
B1 B2 1_555 1_555
B1 B5 1_555 1_555
B2 B3 1_555 1_555
B2 B6 1_555 1_555
B3 B4 1_555 1_555
B3 B7 1_555 1_555
B4 B8 1_555 1_555
B4 B9 1_555 1_555
B5 B6 1_555 1_555
B5 B9 1_555 1_555
B6 B7 1_555 1_555
B6 B10 1_555 1_555
B7 B8 1_555 1_555
B7 B10 1_555 1_555
B8 B9 1_555 1_555
B8 B10 1_555 1_555
B9 B10 1_555 1_555

#END
