
#######################################################################
#
#                 Cambridge Crystallographic Data Centre
#                                CCDC 
#
#######################################################################
#
# If this CIF has been generated from an entry in the Cambridge 
# Structural Database, then it will include bibliographic, chemical, 
# crystal, experimental, refinement or atomic coordinate data resulting 
# from the CCDC's data processing and validation procedures.
#
#######################################################################

data_LEXNUA
_chemical_compound_source        'fungus Drechmeria sp.'
_chemical_name_common            
"2'-epi-terpendole A unknown solvate hemihydrate"
_chemical_formula_moiety         'C32 H41 N1 O6,0.5(H2 O1)'
_chemical_name_systematic        
"3-(3,3-dimethyloxiran-2-yl)-1,1,13b,13c-tetramethyl-1,4a,4b,6,7,7a,8,13,13b,13c,14,15,15a,16a-tetradecahydro-3H,5bH-[1,3]dioxino[5'',4'':2',3']oxireno[4',4a'][1]benzopyrano[5',6':6,7]indeno[1,2-b]indol-5b-ol unknown solvate hemihydrate"
_symmetry_cell_setting           orthorhombic
_symmetry_space_group_name_H-M   'P 21 21 21'
_symmetry_Int_Tables_number      19
_space_group_name_Hall           'P 2ac 2ab'
loop_
_symmetry_equiv_pos_site_id
_symmetry_equiv_pos_as_xyz
1 x,y,z
2 1/2-x,-y,1/2+z
3 -x,1/2+y,1/2-z
4 1/2+x,1/2-y,-z
_cell_length_a                   11.3677(2)
_cell_length_b                   11.4847(4)
_cell_length_c                   47.0123(10)
_cell_angle_alpha                90
_cell_angle_beta                 90
_cell_angle_gamma                90
_cell_volume                     6137.67
_exptl_crystal_colour            colorless
_exptl_crystal_description       block
_cell_formula_units_Z            8
loop_
_atom_site_label
_atom_site_type_symbol
_atom_site_fract_x
_atom_site_fract_y
_atom_site_fract_z
O1 O 0.4608(3) 0.7547(3) 0.50724(6)
O2 O 0.6622(3) 0.7815(3) 0.39511(6)
H1 H 0.717705 0.794600 0.405777
O3 O 0.6056(3) 0.7592(3) 0.45259(6)
O4 O 0.3836(3) 0.5725(3) 0.51945(6)
O5 O 0.3827(3) 0.6012(3) 0.44240(6)
O6 O 0.3891(3) 0.6833(3) 0.58029(6)
N1 N 0.3456(3) 0.9072(4) 0.31527(8)
H2 H 0.312(5) 0.841(5) 0.3164(11)
C1 C 0.4417(4) 1.0741(4) 0.32494(9)
C2 C 0.4689(4) 0.6446(4) 0.42243(9)
H3 H 0.535251 0.590100 0.422357
C3 C 0.4168(4) 0.7415(4) 0.47875(8)
H4 H 0.335754 0.770249 0.477828
C4 C 0.3786(4) 1.0908(4) 0.29882(9)
C5 C 0.3457(4) 0.8822(4) 0.39224(9)
H5 H 0.325263 0.838465 0.408929
H6 H 0.286577 0.871063 0.377928
H7 H 0.350800 0.963351 0.396968
C6 C 0.4191(4) 0.6145(4) 0.47107(9)
H8 H 0.498(5) 0.581(5) 0.4740(11)
C7 C 0.5592(4) 0.8409(4) 0.40538(9)
C8 C 0.4922(4) 0.8106(4) 0.45892(9)
H9 H 0.489795 0.895481 0.460960
C9 C 0.4207(4) 0.9642(4) 0.33394(9)
C10 C 0.4663(4) 0.8396(4) 0.38078(8)
C11 C 0.3037(4) 1.1619(4) 0.25443(10)
H10 H 0.299837 1.219839 0.240640
C12 C 0.4539(4) 0.7149(4) 0.37051(9)
H11 H 0.530106 0.686667 0.364283
H12 H 0.401199 0.712994 0.354294
C13 C 0.5166(3) 0.7647(4) 0.43027(9)
C14 C 0.3193(4) 0.9857(5) 0.29360(9)
C15 C 0.3899(4) 0.6911(4) 0.52652(9)
H13 H 0.311421 0.725634 0.528377
C16 C 0.5079(4) 0.9232(4) 0.35635(9)
C17 C 0.2431(4) 1.0584(5) 0.25010(10)
H14 H 0.198076 1.049273 0.233735
C18 C 0.2484(4) 0.9686(5) 0.26963(10)
H15 H 0.206706 0.899804 0.266958
C19 C 0.3696(4) 1.1810(4) 0.27866(9)
H16 H 0.407135 1.251960 0.281597
C20 C 0.4063(4) 0.6341(4) 0.39369(9)
H17 H 0.412950 0.554259 0.387129
H18 H 0.323423 0.650563 0.396422
C21 C 0.4566(4) 0.6956(4) 0.55427(9)
H19 H 0.530900 0.652311 0.554147
C22 C 0.5942(4) 0.9630(4) 0.41481(9)
H20 H 0.656081 0.957235 0.428935
H21 H 0.526985 1.000177 0.423720
C23 C 0.5380(4) 1.0458(4) 0.36840(9)
H22 H 0.468576 1.068372 0.379479
C24 C 0.5382(4) 1.1293(4) 0.34254(9)
H23 H 0.518783 1.208432 0.348002
H24 H 0.613168 1.128565 0.332677
C25 C 0.6114(4) 0.8737(5) 0.33859(9)
H25 H 0.583498 0.811109 0.326858
H26 H 0.671449 0.845243 0.351151
H27 H 0.643281 0.934116 0.326775
C26 C 0.2093(4) 0.5726(5) 0.48803(10)
H28 H 0.164458 0.526069 0.501072
H29 H 0.184211 0.556681 0.468928
H30 H 0.197255 0.653584 0.492201
C27 C 0.3761(5) 0.8966(4) 0.57062(10)
H31 H 0.303859 0.873913 0.561611
H32 H 0.416005 0.952586 0.558918
H33 H 0.359286 0.930533 0.588832
C28 C 0.3613(6) 0.4154(5) 0.48762(11)
H34 H 0.443(7) 0.389(6) 0.4916(14)
H35 H 0.341(6) 0.399(6) 0.4705(15)
H36 H 0.313(6) 0.365(6) 0.5021(14)
C29 C 0.3403(5) 0.5432(4) 0.49106(9)
C30 C 0.6373(4) 1.0397(4) 0.38999(9)
H37 H 0.656794 1.117082 0.396783
H38 H 0.706982 1.005894 0.381385
C31 C 0.5614(4) 0.8087(5) 0.59283(10)
H39 H 0.538955 0.843651 0.610575
H40 H 0.615821 0.858832 0.583139
H41 H 0.597949 0.734809 0.596380
C32 C 0.4531(4) 0.7913(4) 0.57452(9)
O7 O 0.4945(3) 0.2617(3) 0.76090(6)
O8 O 0.4978(3) 0.1210(3) 0.70569(6)
O9 O 0.3352(3) 0.3397(3) 0.69656(6)
O10 O 0.4287(3) 0.3342(3) 0.83415(6)
O11 O 0.5223(3) 0.0677(3) 0.64812(6)
H42 H 0.535407 0.012945 0.658871
O12 O 0.3091(3) 0.3348(3) 0.77391(6)
N2 N 0.6395(3) 0.3849(4) 0.56901(8)
H43 H 0.567996 0.408350 0.570717
C33 C 0.4793(4) 0.3050(4) 0.73260(8)
H44 H 0.507938 0.385432 0.731664
C34 C 0.5480(4) 0.2320(4) 0.71252(9)
H45 H 0.633795 0.234609 0.714539
C35 C 0.8119(4) 0.2953(4) 0.57854(9)
C36 C 0.4393(4) 0.2679(4) 0.80839(9)
H46 H 0.396957 0.193525 0.808773
C37 C 0.7162(4) 0.4118(4) 0.54687(9)
C38 C 0.4308(4) 0.3311(4) 0.78049(9)
H47 H 0.464059 0.409609 0.781861
C39 C 0.6990(4) 0.3142(4) 0.58758(9)
C40 C 0.6163(4) 0.3821(4) 0.64640(9)
H48 H 0.573887 0.398116 0.663630
H49 H 0.599890 0.441813 0.632670
H50 H 0.699118 0.380546 0.650341
C41 C 0.5389(4) 0.2730(4) 0.82777(9)
C42 C 0.5024(4) 0.2091(4) 0.68380(9)
C43 C 0.3788(4) 0.2558(4) 0.67636(8)
H51 H 0.324330 0.189630 0.676165
C44 C 0.8250(4) 0.3562(4) 0.55203(9)
C45 C 0.9142(4) 0.3668(4) 0.53141(10)
H52 H 0.986854 0.331341 0.534144
C46 C 0.5800(4) 0.1703(4) 0.65864(8)
C47 C 0.3493(4) 0.3028(4) 0.72513(8)
H53 H 0.320922 0.222509 0.726747
C48 C 0.6617(4) 0.2261(4) 0.60972(9)
C49 C 0.3681(4) 0.3188(5) 0.64770(9)
H54 H 0.385199 0.400732 0.650595
H55 H 0.287284 0.312975 0.641210
C50 C 0.5777(4) 0.2634(4) 0.63451(9)
C51 C 0.7872(4) 0.1999(4) 0.62204(9)
H56 H 0.808164 0.268718 0.633263
C52 C 0.8703(4) 0.2021(4) 0.59597(9)
H57 H 0.949927 0.223476 0.601249
H58 H 0.871331 0.127848 0.586120
C53 C 0.5615(4) 0.1679(4) 0.84599(9)
H59 H 0.595467 0.191925 0.863740
H60 H 0.614806 0.116417 0.836357
H61 H 0.488659 0.128134 0.849523
C54 C 0.6427(4) 0.3516(5) 0.82290(10)
H62 H 0.617313 0.420626 0.813145
H63 H 0.700289 0.311787 0.811580
H64 H 0.676662 0.372675 0.840872
C55 C 0.3027(5) 0.5073(5) 0.74292(10)
H65 H 0.257290 0.548941 0.756822
H66 H 0.281089 0.533092 0.724206
H67 H 0.384848 0.521935 0.746001
C56 C 0.7060(4) 0.1392(4) 0.66821(9)
H68 H 0.741518 0.206618 0.677178
H69 H 0.702446 0.077258 0.682209
C57 C 0.4494(4) 0.2721(4) 0.62419(9)
H70 H 0.445599 0.323399 0.607827
H71 H 0.422382 0.195692 0.618288
C58 C 0.6955(5) 0.4786(4) 0.52257(10)
H72 H 0.624344 0.517122 0.519901
C59 C 0.2789(4) 0.3791(5) 0.74562(9)
C60 C 0.7839(5) 0.4853(5) 0.50277(10)
H73 H 0.771364 0.527273 0.486118
C61 C 0.7831(4) 0.1000(4) 0.64315(9)
H74 H 0.861822 0.081520 0.649730
H75 H 0.749934 0.031230 0.634270
C62 C 0.1484(4) 0.3549(5) 0.74275(10)
H76 H 0.133665 0.273792 0.746187
H77 H 0.122985 0.374716 0.723884
H78 H 0.105807 0.400843 0.756349
C63 C 0.6146(4) 0.1230(4) 0.59209(9)
H79 H 0.549708 0.148694 0.580626
H80 H 0.588755 0.062318 0.604659
H81 H 0.675984 0.093887 0.580009
C64 C 0.8924(5) 0.4307(4) 0.50701(10)
H82 H 0.950736 0.437341 0.493242
O13 O 0.3880(7) 0.4288(8) 0.56627(15)
H83 H 0.375332 0.463955 0.550659
loop_
_geom_bond_atom_site_label_1
_geom_bond_atom_site_label_2
_geom_bond_site_symmetry_1
_geom_bond_site_symmetry_2
O1 C3 1_555 1_555
O2 H1 1_555 1_555
O3 C8 1_555 1_555
O4 C15 1_555 1_555
O5 C2 1_555 1_555
O6 C21 1_555 1_555
N1 H2 1_555 1_555
C1 C4 1_555 1_555
C2 H3 1_555 1_555
C3 H4 1_555 1_555
C4 C14 1_555 1_555
C5 H5 1_555 1_555
H6 C5 1_555 1_555
H7 C5 1_555 1_555
C6 O5 1_555 1_555
H8 C6 1_555 1_555
C7 O2 1_555 1_555
C8 C3 1_555 1_555
H9 C8 1_555 1_555
C9 N1 1_555 1_555
C10 C5 1_555 1_555
C11 H10 1_555 1_555
C12 C10 1_555 1_555
H11 C12 1_555 1_555
H12 C12 1_555 1_555
C13 O3 1_555 1_555
C14 N1 1_555 1_555
C15 O1 1_555 1_555
H13 C15 1_555 1_555
C16 C9 1_555 1_555
C17 C11 1_555 1_555
H14 C17 1_555 1_555
C18 C14 1_555 1_555
H15 C18 1_555 1_555
C19 C4 1_555 1_555
H16 C19 1_555 1_555
C20 C2 1_555 1_555
H17 C20 1_555 1_555
H18 C20 1_555 1_555
C21 C15 1_555 1_555
H19 C21 1_555 1_555
C22 C7 1_555 1_555
H20 C22 1_555 1_555
H21 C22 1_555 1_555
C23 C16 1_555 1_555
H22 C23 1_555 1_555
C24 C1 1_555 1_555
H23 C24 1_555 1_555
H24 C24 1_555 1_555
C25 C16 1_555 1_555
H25 C25 1_555 1_555
H26 C25 1_555 1_555
H27 C25 1_555 1_555
C26 H28 1_555 1_555
H29 C26 1_555 1_555
H30 C26 1_555 1_555
C27 H31 1_555 1_555
H32 C27 1_555 1_555
H33 C27 1_555 1_555
C28 H34 1_555 1_555
H35 C28 1_555 1_555
H36 C28 1_555 1_555
C29 O4 1_555 1_555
C30 C22 1_555 1_555
H37 C30 1_555 1_555
H38 C30 1_555 1_555
C31 H39 1_555 1_555
H40 C31 1_555 1_555
H41 C31 1_555 1_555
C32 O6 1_555 1_555
O7 C33 1_555 1_555
O8 C34 1_555 1_555
O9 C43 1_555 1_555
O10 C36 1_555 1_555
O11 H42 1_555 1_555
O12 C38 1_555 1_555
N2 H43 1_555 1_555
C33 H44 1_555 1_555
C34 C33 1_555 1_555
H45 C34 1_555 1_555
C35 C39 1_555 1_555
C36 H46 1_555 1_555
C37 N2 1_555 1_555
C38 O7 1_555 1_555
H47 C38 1_555 1_555
C39 N2 1_555 1_555
C40 H48 1_555 1_555
H49 C40 1_555 1_555
H50 C40 1_555 1_555
C41 O10 1_555 1_555
C42 O8 1_555 1_555
C43 C42 1_555 1_555
H51 C43 1_555 1_555
C44 C35 1_555 1_555
C45 C44 1_555 1_555
H52 C45 1_555 1_555
C46 O11 1_555 1_555
C47 O9 1_555 1_555
H53 C47 1_555 1_555
C48 C39 1_555 1_555
C49 C43 1_555 1_555
H54 C49 1_555 1_555
H55 C49 1_555 1_555
C50 C40 1_555 1_555
C51 C48 1_555 1_555
H56 C51 1_555 1_555
C52 C35 1_555 1_555
H57 C52 1_555 1_555
H58 C52 1_555 1_555
C53 C41 1_555 1_555
H59 C53 1_555 1_555
H60 C53 1_555 1_555
H61 C53 1_555 1_555
C54 C41 1_555 1_555
H62 C54 1_555 1_555
H63 C54 1_555 1_555
H64 C54 1_555 1_555
C55 H65 1_555 1_555
H66 C55 1_555 1_555
H67 C55 1_555 1_555
C56 C46 1_555 1_555
H68 C56 1_555 1_555
H69 C56 1_555 1_555
C57 C49 1_555 1_555
H70 C57 1_555 1_555
H71 C57 1_555 1_555
C58 C37 1_555 1_555
H72 C58 1_555 1_555
C59 O12 1_555 1_555
C60 C58 1_555 1_555
H73 C60 1_555 1_555
C61 C51 1_555 1_555
H74 C61 1_555 1_555
H75 C61 1_555 1_555
C62 C59 1_555 1_555
H76 C62 1_555 1_555
H77 C62 1_555 1_555
H78 C62 1_555 1_555
C63 C48 1_555 1_555
H79 C63 1_555 1_555
H80 C63 1_555 1_555
H81 C63 1_555 1_555
C64 C45 1_555 1_555
H82 C64 1_555 1_555
O13 H83 1_555 1_555
C1 C9 1_555 1_555
C2 C13 1_555 1_555
C3 C6 1_555 1_555
C6 C29 1_555 1_555
C7 C10 1_555 1_555
C7 C13 1_555 1_555
C8 C13 1_555 1_555
C10 C16 1_555 1_555
C11 C19 1_555 1_555
C12 C20 1_555 1_555
C17 C18 1_555 1_555
C21 C32 1_555 1_555
C23 C24 1_555 1_555
C23 C30 1_555 1_555
C26 C29 1_555 1_555
C27 C32 1_555 1_555
C28 C29 1_555 1_555
C31 C32 1_555 1_555
C33 C47 1_555 1_555
C34 C42 1_555 1_555
C36 C38 1_555 1_555
C36 C41 1_555 1_555
C37 C44 1_555 1_555
C42 C46 1_555 1_555
C46 C50 1_555 1_555
C47 C59 1_555 1_555
C48 C50 1_555 1_555
C50 C57 1_555 1_555
C51 C52 1_555 1_555
C55 C59 1_555 1_555
C56 C61 1_555 1_555
C60 C64 1_555 1_555

#END
