
#######################################################################
#
#                 Cambridge Crystallographic Data Centre
#                                CCDC 
#
#######################################################################
#
# If this CIF has been generated from an entry in the Cambridge 
# Structural Database, then it will include bibliographic, chemical, 
# crystal, experimental, refinement or atomic coordinate data resulting 
# from the CCDC's data processing and validation procedures.
#
#######################################################################

data_LEXNEI
_chemical_formula_moiety         'C9 H10 Cl1 N3 S1'
_chemical_name_systematic        
1-(1-(2-Chlorophenyl)ethylidene)thiosemicarbazide
_symmetry_cell_setting           monoclinic
_symmetry_space_group_name_H-M   'P 21/c'
_symmetry_Int_Tables_number      14
_space_group_name_Hall           '-P 2ybc'
loop_
_symmetry_equiv_pos_site_id
_symmetry_equiv_pos_as_xyz
1 x,y,z
2 -x,1/2+y,1/2-z
3 -x,-y,-z
4 x,1/2-y,1/2+z
_cell_length_a                   11.482(2)
_cell_length_b                   8.1751(16)
_cell_length_c                   13.232(6)
_cell_angle_alpha                90
_cell_angle_beta                 120.52(2)
_cell_angle_gamma                90
_cell_volume                     1069.96
_exptl_crystal_colour            colorless
_exptl_crystal_description       block
_cell_formula_units_Z            4
_exptl_crystal_recrystallization_method acetone
loop_
_atom_site_label
_atom_site_type_symbol
_atom_site_fract_x
_atom_site_fract_y
_atom_site_fract_z
Cl1 Cl -0.04181(9) -0.00032(12) 0.24067(8)
S1 S 0.56965(9) 0.33901(10) 0.28227(10)
N1 N 0.3106(2) 0.2367(3) 0.3811(2)
N2 N 0.4067(2) 0.2137(3) 0.3491(2)
H1 H 0.4334 0.1177 0.3433
N3 N 0.4148(3) 0.4916(3) 0.3450(3)
H2 H 0.3583 0.4935 0.3694
H3 H 0.4439 0.5817 0.3322
C1 C 0.4568(3) 0.3507(4) 0.3271(3)
C2 C 0.2835(4) -0.0621(4) 0.3890(4)
H4 H 0.3499 -0.0700 0.3656
H5 H 0.2021 -0.1163 0.3323
H6 H 0.3176 -0.1130 0.4643
C3 C 0.2540(3) 0.1133(4) 0.3968(2)
C4 C 0.1538(3) 0.1595(3) 0.4318(2)
C5 C 0.0187(3) 0.1137(3) 0.3688(2)
C6 C -0.0730(3) 0.1637(4) 0.4006(3)
H7 H -0.1629 0.1313 0.3568
C7 C -0.0308(3) 0.2613(4) 0.4971(3)
H8 H -0.0919 0.2950 0.5193
C8 C 0.1027(4) 0.3098(4) 0.5614(3)
H9 H 0.1313 0.3765 0.6268
C9 C 0.1937(3) 0.2597(4) 0.5290(3)
H10 H 0.2833 0.2933 0.5729
loop_
_geom_bond_atom_site_label_1
_geom_bond_atom_site_label_2
_geom_bond_site_symmetry_1
_geom_bond_site_symmetry_2
Cl1 C5 1_555 1_555
S1 C1 1_555 1_555
N1 N2 1_555 1_555
N2 H1 1_555 1_555
N3 H2 1_555 1_555
H3 N3 1_555 1_555
C1 N2 1_555 1_555
C2 H4 1_555 1_555
H5 C2 1_555 1_555
H6 C2 1_555 1_555
C3 N1 1_555 1_555
C4 C3 1_555 1_555
C5 C4 1_555 1_555
C6 C5 1_555 1_555
H7 C6 1_555 1_555
C7 C6 1_555 1_555
H8 C7 1_555 1_555
C8 C7 1_555 1_555
H9 C8 1_555 1_555
C9 C4 1_555 1_555
H10 C9 1_555 1_555
N3 C1 1_555 1_555
C2 C3 1_555 1_555
C8 C9 1_555 1_555

#END
