
#######################################################################
#
#                 Cambridge Crystallographic Data Centre
#                                CCDC 
#
#######################################################################
#
# If this CIF has been generated from an entry in the Cambridge 
# Structural Database, then it will include bibliographic, chemical, 
# crystal, experimental, refinement or atomic coordinate data resulting 
# from the CCDC's data processing and validation procedures.
#
#######################################################################

data_LEXQEM
_chemical_formula_moiety         'C6 H10 O4,2(C8 H8 N2 S1)'
_chemical_name_systematic        
'Hexanedioic acid 6-methyl-1,3-benzothiazol-2-amine'
_symmetry_cell_setting           monoclinic
_symmetry_space_group_name_H-M   'P 21/n'
_symmetry_Int_Tables_number      14
_space_group_name_Hall           '-P 2yn'
loop_
_symmetry_equiv_pos_site_id
_symmetry_equiv_pos_as_xyz
1 x,y,z
2 1/2-x,1/2+y,1/2-z
3 -x,-y,-z
4 1/2+x,1/2-y,1/2+z
_cell_length_a                   13.418(5)
_cell_length_b                   6.623(2)
_cell_length_c                   13.418(5)
_cell_angle_alpha                90
_cell_angle_beta                 110.001(5)
_cell_angle_gamma                90
_cell_volume                     1120.5
_cell_formula_units_Z            2
loop_
_atom_site_label
_atom_site_type_symbol
_atom_site_fract_x
_atom_site_fract_y
_atom_site_fract_z
S1 S 0.86864(4) 0.12016(9) 0.14115(4)
C1 C 0.80635(16) -0.1139(3) 0.12050(16)
C2 C 0.82525(14) -0.0659(3) -0.03390(15)
C3 C 0.82175(16) -0.1057(3) -0.13492(15)
H1 H 0.7916 -0.2279 -0.1691
C4 C 0.86220(15) 0.0328(3) -0.18587(15)
H2 H 0.8603 0.0042 -0.2559
C5 C 0.90590(15) 0.2133(3) -0.13956(16)
C6 C 0.91028(16) 0.2525(3) -0.03835(17)
H3 H 0.9401 0.3751 -0.0044
C7 C 0.87102(15) 0.1124(3) 0.01357(15)
C8 C 0.9475(2) 0.3633(4) -0.19878(19)
H4 H 0.9710 0.4848 -0.1554
H5 H 0.8913 0.3990 -0.2653
H6 H 1.0075 0.3044 -0.2145
N1 N 0.77780(16) -0.2015(3) 0.19495(14)
H7 H 0.7446 -0.3183 0.1823
H8 H 0.7920 -0.1431 0.2572
N2 N 0.78807(13) -0.1909(3) 0.02742(12)
C9 C 0.86879(16) -0.1001(3) 0.49299(15)
C10 C 0.92745(16) -0.2849(3) 0.54238(15)
H9 H 0.8792 -0.3723 0.5649
H10 H 0.9866 -0.2452 0.6070
C11 C 0.97179(17) -0.4062(3) 0.47284(16)
H11 H 1.0220 -0.3214 0.4517
H12 H 0.9133 -0.4453 0.4075
O1 O 0.85936(12) -0.0433(2) 0.40467(11)
O2 O 0.82812(13) -0.0040(2) 0.55337(11)
H13 H 0.785(2) 0.113(5) 0.519(2)
C9B C 1.13121(16) -0.8999(3) 0.50701(15)
C10B C 1.07255(16) -0.7151(3) 0.45762(15)
H9B H 1.1208 -0.6277 0.4351
H10B H 1.0134 -0.7548 0.3930
C11B C 1.02821(17) -0.5938(3) 0.52716(16)
H11B H 0.9780 -0.6786 0.5483
H12B H 1.0867 -0.5547 0.5925
O1B O 1.14064(12) -0.9567(2) 0.59533(11)
O2B O 1.17188(13) -0.9960(2) 0.44663(11)
H13B H 1.215(2) -1.113(5) 0.481(2)
loop_
_geom_bond_atom_site_label_1
_geom_bond_atom_site_label_2
_geom_bond_site_symmetry_1
_geom_bond_site_symmetry_2
S1 C1 1_555 1_555
C1 N1 1_555 1_555
C2 C3 1_555 1_555
C3 H1 1_555 1_555
C4 C3 1_555 1_555
H2 C4 1_555 1_555
C5 C4 1_555 1_555
C6 C5 1_555 1_555
H3 C6 1_555 1_555
C7 S1 1_555 1_555
C8 C5 1_555 1_555
H4 C8 1_555 1_555
H5 C8 1_555 1_555
H6 C8 1_555 1_555
N1 H7 1_555 1_555
H8 N1 1_555 1_555
N2 C1 1_555 1_555
C9 C10 1_555 1_555
C10 H9 1_555 1_555
H10 C10 1_555 1_555
C11 C10 1_555 1_555
H11 C11 1_555 1_555
H12 C11 1_555 1_555
O1 C9 1_555 1_555
O2 C9 1_555 1_555
H13 O2 1_555 1_555
C9B C10B 1_555 1_555
C10B H9B 1_555 1_555
H10B C10B 1_555 1_555
C11B C11 1_555 1_555
H11B C11B 1_555 1_555
H12B C11B 1_555 1_555
O1B C9B 1_555 1_555
O2B C9B 1_555 1_555
H13B O2B 1_555 1_555
C2 C7 1_555 1_555
C2 N2 1_555 1_555
C6 C7 1_555 1_555
C10B C11B 1_555 1_555

#END
