
#######################################################################
#
#                 Cambridge Crystallographic Data Centre
#                                CCDC 
#
#######################################################################
#
# If this CIF has been generated from an entry in the Cambridge 
# Structural Database, then it will include bibliographic, chemical, 
# crystal, experimental, refinement or atomic coordinate data resulting 
# from the CCDC's data processing and validation procedures.
#
#######################################################################

data_LEXQOW
_chemical_formula_moiety         'C9 H16 O4,2(C7 H6 N2 S1)'
_chemical_name_systematic        'Nonanedioic acid 1,3-benzothiazol-2-amine'
_symmetry_cell_setting           monoclinic
_symmetry_space_group_name_H-M   'C 2/c'
_symmetry_Int_Tables_number      15
_space_group_name_Hall           '-C 2yn'
loop_
_symmetry_equiv_pos_site_id
_symmetry_equiv_pos_as_xyz
1 x,y,z
2 -x,y,1/2-z
3 1/2+x,1/2+y,z
4 1/2-x,1/2+y,1/2-z
5 -x,-y,-z
6 x,-y,1/2+z
7 1/2-x,1/2-y,-z
8 1/2+x,1/2-y,1/2+z
_cell_length_a                   29.028(6)
_cell_length_b                   7.6244(15)
_cell_length_c                   25.456(5)
_cell_angle_alpha                90
_cell_angle_beta                 118.94(3)
_cell_angle_gamma                90
_cell_volume                     4930.42
_cell_formula_units_Z            8
loop_
_atom_site_label
_atom_site_type_symbol
_atom_site_fract_x
_atom_site_fract_y
_atom_site_fract_z
S1 S 0.56935(3) -1.52479(11) 0.57964(3)
C1 C 0.52311(12) -1.3607(4) 0.56734(12)
C2 C 0.49408(12) -1.5711(4) 0.60446(12)
C3 C 0.46424(13) -1.6513(4) 0.62681(13)
H1 H 0.4346 -1.5940 0.6253
C4 C 0.47902(16) -1.8182(4) 0.65160(15)
H2 H 0.4597 -1.8732 0.6684
C5 C 0.52095(16) -1.9056(4) 0.65240(16)
H3 H 0.5295 -2.0207 0.6686
C6 C 0.55060(14) -1.8275(4) 0.62989(15)
H4 H 0.5794 -1.8878 0.6303
C7 C 0.53758(13) -1.6601(4) 0.60681(13)
N1 N 0.52529(11) -1.2057(3) 0.54434(12)
H5 H 0.5013 -1.1254 0.5377
H6 H 0.5507 -1.1837 0.5358
N2 N 0.48633(10) -1.4014(3) 0.58092(10)
S2 S 0.16311(3) 0.71088(10) 0.20160(3)
C8 C 0.18017(12) 0.5081(4) 0.23947(12)
C9 C 0.12949(11) 0.6193(4) 0.27475(12)
C10 C 0.10311(12) 0.6301(4) 0.30740(13)
H7 H 0.1056 0.5373 0.3335
C11 C 0.07304(12) 0.7768(4) 0.30194(14)
H8 H 0.0534 0.7821 0.3228
C12 C 0.07150(13) 0.9168(5) 0.26600(14)
H9 H 0.0515 1.0181 0.2635
C13 C 0.09835(13) 0.9106(4) 0.23428(13)
H10 H 0.0975 1.0071 0.2102
C14 C 0.12693(12) 0.7607(4) 0.23785(12)
N3 N 0.21030(11) 0.3942(3) 0.22998(12)
H11 H 0.2180 0.2920 0.2484
H12 H 0.2225 0.4212 0.2054
N4 N 0.16054(10) 0.4789(3) 0.27505(10)
C15 C 0.39776(12) -1.0553(4) 0.52462(12)
C16 C 0.35533(12) -0.9314(4) 0.51847(13)
H13 H 0.3641 -0.8864 0.5587
H14 H 0.3218 -0.9969 0.5028
C17 C 0.34746(13) -0.7770(4) 0.47732(13)
H15 H 0.3355 -0.8212 0.4362
H16 H 0.3817 -0.7174 0.4909
C18 C 0.30747(12) -0.6435(4) 0.47563(13)
H17 H 0.2735 -0.7032 0.4633
H18 H 0.3200 -0.5951 0.5164
C19 C 0.29905(13) -0.4932(4) 0.43211(14)
H19 H 0.3334 -0.4373 0.4437
H20 H 0.2855 -0.5421 0.3912
C20 C 0.26084(12) -0.3535(3) 0.43058(13)
H21 H 0.2737 -0.3063 0.4716
H22 H 0.2261 -0.4082 0.4177
C21 C 0.25443(12) -0.2029(3) 0.38813(13)
H23 H 0.2409 -0.2496 0.3470
H24 H 0.2893 -0.1494 0.4005
C22 C 0.21677(12) -0.0618(4) 0.38768(13)
H25 H 0.1819 -0.1160 0.3749
H26 H 0.2301 -0.0174 0.4291
C23 C 0.20986(11) 0.0911(3) 0.34679(12)
O1 O 0.42481(10) -1.0292(3) 0.50112(10)
O2 O 0.40279(10) -1.1945(3) 0.55757(10)
O3 O 0.23026(9) 0.0992(3) 0.31485(10)
O4 O 0.17923(9) 0.2141(3) 0.34928(9)
H27 H 0.175(2) 0.323(6) 0.327(2)
H28 H 0.435(2) -1.269(7) 0.564(3)
loop_
_geom_bond_atom_site_label_1
_geom_bond_atom_site_label_2
_geom_bond_site_symmetry_1
_geom_bond_site_symmetry_2
S1 C1 1_555 1_555
C1 N1 1_555 1_555
C2 C3 1_555 1_555
C3 H1 1_555 1_555
C4 C3 1_555 1_555
H2 C4 1_555 1_555
C5 C4 1_555 1_555
H3 C5 1_555 1_555
C6 C5 1_555 1_555
H4 C6 1_555 1_555
C7 S1 1_555 1_555
N1 H5 1_555 1_555
H6 N1 1_555 1_555
N2 C1 1_555 1_555
S2 C8 1_555 1_555
C8 N3 1_555 1_555
C9 C10 1_555 1_555
C10 H7 1_555 1_555
C11 C10 1_555 1_555
H8 C11 1_555 1_555
C12 C11 1_555 1_555
H9 C12 1_555 1_555
C13 C12 1_555 1_555
H10 C13 1_555 1_555
C14 S2 1_555 1_555
N3 H11 1_555 1_555
H12 N3 1_555 1_555
N4 C8 1_555 1_555
C15 C16 1_555 1_555
C16 H13 1_555 1_555
H14 C16 1_555 1_555
C17 C16 1_555 1_555
H15 C17 1_555 1_555
H16 C17 1_555 1_555
C18 C17 1_555 1_555
H17 C18 1_555 1_555
H18 C18 1_555 1_555
C19 C18 1_555 1_555
H19 C19 1_555 1_555
H20 C19 1_555 1_555
C20 C19 1_555 1_555
H21 C20 1_555 1_555
H22 C20 1_555 1_555
C21 C20 1_555 1_555
H23 C21 1_555 1_555
H24 C21 1_555 1_555
C22 C21 1_555 1_555
H25 C22 1_555 1_555
H26 C22 1_555 1_555
C23 C22 1_555 1_555
O1 C15 1_555 1_555
O2 C15 1_555 1_555
O3 C23 1_555 1_555
O4 C23 1_555 1_555
H27 O4 1_555 1_555
H28 O2 1_555 1_555
C2 C7 1_555 1_555
C2 N2 1_555 1_555
C6 C7 1_555 1_555
C9 C14 1_555 1_555
C9 N4 1_555 1_555
C13 C14 1_555 1_555

#END
