
#######################################################################
#
#                 Cambridge Crystallographic Data Centre
#                                CCDC 
#
#######################################################################
#
# If this CIF has been generated from an entry in the Cambridge 
# Structural Database, then it will include bibliographic, chemical, 
# crystal, experimental, refinement or atomic coordinate data resulting 
# from the CCDC's data processing and validation procedures.
#
#######################################################################

data_LEXSOY
_chemical_formula_moiety         'C11 H9 Br1 N2 O1'
_chemical_name_systematic        
N-(4-Bromophenyl)-1-cyanocyclopropanecarboxamide
_symmetry_cell_setting           triclinic
_symmetry_space_group_name_H-M   'P -1'
_symmetry_Int_Tables_number      2
_space_group_name_Hall           '-P 1'
loop_
_symmetry_equiv_pos_site_id
_symmetry_equiv_pos_as_xyz
1 x,y,z
2 -x,-y,-z
_cell_length_a                   8.902(4)
_cell_length_b                   10.944(5)
_cell_length_c                   12.733(6)
_cell_angle_alpha                103.753(8)
_cell_angle_beta                 106.812(9)
_cell_angle_gamma                104.004(9)
_cell_volume                     1087.11
_exptl_crystal_colour            colorless
_exptl_crystal_description       prism
_cell_formula_units_Z            4
loop_
_atom_site_label
_atom_site_type_symbol
_atom_site_fract_x
_atom_site_fract_y
_atom_site_fract_z
Br1 Br 0.06673(14) 0.82253(11) 1.41626(8)
O1 O 0.2862(8) 1.0304(6) 0.9900(5)
N1 N 0.0770(8) 0.8405(6) 0.9454(6)
H1 H 0.0025 0.7736 0.8881
N2 N -0.0930(10) 0.7052(7) 0.6364(6)
C1 C 0.1716(11) 0.9494(8) 1.1568(8)
H2 H 0.2385 1.0264 1.1525
C2 C 0.1699(11) 0.9447(9) 1.2642(8)
H3 H 0.2374 1.0161 1.3317
C3 C 0.0664(13) 0.8325(10) 1.2684(8)
C4 C -0.0346(12) 0.7276(8) 1.1707(8)
H4 H -0.1071 0.6535 1.1748
C5 C -0.0272(12) 0.7335(8) 1.0653(8)
H5 H -0.0941 0.6615 0.9981
C6 C 0.0777(10) 0.8441(8) 1.0570(7)
C7 C 0.1782(12) 0.9286(9) 0.9184(8)
C8 C 0.1615(11) 0.8974(8) 0.7943(8)
C9 C 0.2297(11) 1.0158(8) 0.7591(7)
H6 H 0.1715 1.0138 0.6811
H7 H 0.2751 1.1036 0.8178
C10 C 0.3266(11) 0.9247(8) 0.7710(8)
H8 H 0.4302 0.9563 0.8374
H9 H 0.3265 0.8664 0.7004
C11 C 0.0206(12) 0.7903(9) 0.7057(8)
Br2 Br 0.37117(16) 0.64178(11) 0.99557(8)
O2 O 0.5332(9) 0.8006(6) 0.5538(5)
N3 N 0.3596(8) 0.5928(6) 0.5089(5)
H10 H 0.2995 0.5181 0.4543
N4 N 0.1621(10) 0.4692(8) 0.2074(6)
C12 C 0.5158(11) 0.6637(8) 0.7196(7)
H11 H 0.6152 0.6967 0.7093
C13 C 0.5179(12) 0.6756(8) 0.8299(8)
H12 H 0.6170 0.7184 0.8940
C14 C 0.3688(14) 0.6223(9) 0.8443(7)
C15 C 0.2230(12) 0.5636(8) 0.7512(9)
H13 H 0.1234 0.5327 0.7618
C16 C 0.2236(12) 0.5503(8) 0.6424(8)
H14 H 0.1246 0.5043 0.5788
C17 C 0.3690(12) 0.6037(7) 0.6233(7)
C18 C 0.4397(12) 0.6928(9) 0.4812(8)
C19 C 0.4175(10) 0.6701(8) 0.3560(7)
C20 C 0.4697(12) 0.7920(9) 0.3226(8)
H15 H 0.4047 0.7904 0.2463
H16 H 0.5123 0.8784 0.3831
C21 C 0.5734(12) 0.7080(9) 0.3281(9)
H17 H 0.6801 0.7421 0.3921
H18 H 0.5724 0.6541 0.2553
C22 C 0.2735(11) 0.5578(9) 0.2707(7)
loop_
_geom_bond_atom_site_label_1
_geom_bond_atom_site_label_2
_geom_bond_site_symmetry_1
_geom_bond_site_symmetry_2
Br1 C3 1_555 1_555
O1 C7 1_555 1_555
N1 H1 1_555 1_555
N2 C11 1_555 1_555
C1 H2 1_555 1_555
C2 C1 1_555 1_555
H3 C2 1_555 1_555
C3 C2 1_555 1_555
C4 C3 1_555 1_555
H4 C4 1_555 1_555
C5 C4 1_555 1_555
H5 C5 1_555 1_555
C6 N1 1_555 1_555
C7 N1 1_555 1_555
C8 C7 1_555 1_555
C9 C8 1_555 1_555
H6 C9 1_555 1_555
H7 C9 1_555 1_555
C10 C8 1_555 1_555
H8 C10 1_555 1_555
H9 C10 1_555 1_555
C11 C8 1_555 1_555
Br2 C14 1_555 1_555
O2 C18 1_555 1_555
N3 H10 1_555 1_555
N4 C22 1_555 1_555
C12 H11 1_555 1_555
C13 C12 1_555 1_555
H12 C13 1_555 1_555
C14 C13 1_555 1_555
C15 C14 1_555 1_555
H13 C15 1_555 1_555
C16 C15 1_555 1_555
H14 C16 1_555 1_555
C17 N3 1_555 1_555
C18 N3 1_555 1_555
C19 C18 1_555 1_555
C20 C19 1_555 1_555
H15 C20 1_555 1_555
H16 C20 1_555 1_555
C21 C19 1_555 1_555
H17 C21 1_555 1_555
H18 C21 1_555 1_555
C22 C19 1_555 1_555
C1 C6 1_555 1_555
C5 C6 1_555 1_555
C9 C10 1_555 1_555
C12 C17 1_555 1_555
C16 C17 1_555 1_555
C20 C21 1_555 1_555

#END
