
#######################################################################
#
#                 Cambridge Crystallographic Data Centre
#                                CCDC 
#
#######################################################################
#
# If this CIF has been generated from an entry in the Cambridge 
# Structural Database, then it will include bibliographic, chemical, 
# crystal, experimental, refinement or atomic coordinate data resulting 
# from the CCDC's data processing and validation procedures.
#
#######################################################################

data_LEXSUE
_chemical_name_common            
"25,26,27,28-tetrakis((Carboxymethyl)oxy)-2,8,14,20-tetrathiacalix(4)arene bis(4,4'-bipyridine) dihydrate"
_chemical_formula_moiety         'C32 H24 O12 S4,2(C10 H8 N2),2(H2 O1)'
_chemical_name_systematic        
"2,2',2'',2'''-(2,8,14,20-Tetrathiapentacyclo[19.3.1.1^3,7^.1^9,13^.1^15,19^]octacosa-1(25),3(28),4,6,9(27),10,12,15(26),16,18,21,23-dodecaene-25,26,27,28-tetrayltetrakis(oxy))tetraacetic acid bis(4,4'-bipyridine) dihydrate"
_symmetry_cell_setting           orthorhombic
_symmetry_space_group_name_H-M   'P b a n'
_symmetry_Int_Tables_number      50
_space_group_name_Hall           '-P 2ab 2b'
loop_
_symmetry_equiv_pos_site_id
_symmetry_equiv_pos_as_xyz
1 x,y,z
2 1/2-x,1/2-y,z
3 x,1/2-y,-z
4 1/2-x,y,-z
5 -x,-y,-z
6 1/2+x,1/2+y,-z
7 -x,1/2+y,z
8 1/2+x,-y,z
_cell_length_a                   7.9311(7)
_cell_length_b                   19.6432(17)
_cell_length_c                   15.5657(13)
_cell_angle_alpha                90
_cell_angle_beta                 90
_cell_angle_gamma                90
_cell_volume                     2425.01
_cell_formula_units_Z            2
loop_
_atom_site_label
_atom_site_type_symbol
_atom_site_fract_x
_atom_site_fract_y
_atom_site_fract_z
S1 S 0.7500 0.94965(10) 0.0000
O1 O 0.5997(5) 0.8583(2) 0.1404(3)
O2 O 0.3825(8) 0.8510(3) 0.2723(4)
O3 O 0.3380(7) 0.9630(3) 0.2698(4)
C1 C 0.8585(7) 0.8912(3) 0.0675(4)
C2 C 1.0317(8) 0.8825(3) 0.0582(4)
H1 H 1.0899 0.9093 0.0189
C3 C 1.1188(7) 0.8352(3) 0.1059(4)
H2 H 1.2348 0.8305 0.0997
C4 C 1.0307(8) 0.7946(3) 0.1634(4)
H3 H 1.0882 0.7614 0.1945
C5 C 0.8586(7) 0.8024(3) 0.1755(4)
C6 C 0.7720(8) 0.8520(3) 0.1290(4)
C7 C 0.5434(8) 0.9214(3) 0.1765(4)
H4 H 0.4958 0.9496 0.1314
H5 H 0.6388 0.9454 0.2009
C8 C 0.4126(9) 0.9098(3) 0.2453(4)
S2 S 0.7500 0.7500 0.25068(13)
H6 H 0.285(8) 0.856(9) 0.289(11)
S1A S 0.7500 0.55035(10) 0.0000
O1A O 0.9003(5) 0.6417(2) 0.1404(3)
O2A O 1.1175(8) 0.6490(3) 0.2723(4)
O3A O 1.1620(7) 0.5370(3) 0.2698(4)
C1A C 0.6415(7) 0.6088(3) 0.0675(4)
C2A C 0.4683(8) 0.6175(3) 0.0582(4)
H1A H 0.4101 0.5907 0.0189
C3A C 0.3812(7) 0.6648(3) 0.1059(4)
H2A H 0.2652 0.6695 0.0997
C4A C 0.4693(8) 0.7054(3) 0.1634(4)
H3A H 0.4118 0.7386 0.1945
C5A C 0.6414(7) 0.6976(3) 0.1755(4)
C6A C 0.7280(8) 0.6480(3) 0.1290(4)
C7A C 0.9566(8) 0.5786(3) 0.1765(4)
H4A H 1.0042 0.5504 0.1314
H5A H 0.8612 0.5546 0.2009
C8A C 1.0874(9) 0.5902(3) 0.2453(4)
H6A H 1.215(8) 0.644(9) 0.289(11)
O1B O 0.5997(5) 0.6417(2) -0.1404(3)
O2B O 0.3825(8) 0.6490(3) -0.2723(4)
O3B O 0.3380(7) 0.5370(3) -0.2698(4)
C1B C 0.8585(7) 0.6088(3) -0.0675(4)
C2B C 1.0317(8) 0.6175(3) -0.0582(4)
H1B H 1.0899 0.5907 -0.0189
C3B C 1.1188(7) 0.6648(3) -0.1059(4)
H2B H 1.2348 0.6695 -0.0997
C4B C 1.0307(8) 0.7054(3) -0.1634(4)
H3B H 1.0882 0.7386 -0.1945
C5B C 0.8586(7) 0.6976(3) -0.1755(4)
C6B C 0.7720(8) 0.6480(3) -0.1290(4)
C7B C 0.5434(8) 0.5786(3) -0.1765(4)
H4B H 0.4958 0.5504 -0.1314
H5B H 0.6388 0.5546 -0.2009
C8B C 0.4126(9) 0.5902(3) -0.2453(4)
S2B S 0.7500 0.7500 -0.25068(13)
H6B H 0.285(8) 0.644(9) -0.289(11)
O1C O 0.9003(5) 0.8583(2) -0.1404(3)
O2C O 1.1175(8) 0.8510(3) -0.2723(4)
O3C O 1.1620(7) 0.9630(3) -0.2698(4)
C1C C 0.6415(7) 0.8912(3) -0.0675(4)
C2C C 0.4683(8) 0.8825(3) -0.0582(4)
H1C H 0.4101 0.9093 -0.0189
C3C C 0.3812(7) 0.8352(3) -0.1059(4)
H2C H 0.2652 0.8305 -0.0997
C4C C 0.4693(8) 0.7946(3) -0.1634(4)
H3C H 0.4118 0.7614 -0.1945
C5C C 0.6414(7) 0.8024(3) -0.1755(4)
C6C C 0.7280(8) 0.8520(3) -0.1290(4)
C7C C 0.9566(8) 0.9214(3) -0.1765(4)
H4C H 1.0042 0.9496 -0.1314
H5C H 0.8612 0.9454 -0.2009
C8C C 1.0874(9) 0.9098(3) -0.2453(4)
H6C H 1.215(8) 0.856(9) -0.289(11)
C9 C -0.0129(9) 0.9038(4) 0.3469(4)
C10 C -0.1578(10) 0.9012(6) 0.3908(5)
N1 N 0.1247 0.9307 0.3869(3)
C11 C -0.0083 0.9169 0.5227(3)
C12 C 0.1303 0.9365 0.4734(3)
C13 C -0.1727 0.8852 0.4749(3)
C9C C -0.4871(9) 0.9038(4) 0.6531(4)
C10C C -0.3422(10) 0.9012(6) 0.6092(5)
N1C N -0.6247 0.9307 0.6131(3)
C11C C -0.4917 0.9169 0.4773(3)
C12C C -0.6303 0.9365 0.5266(3)
C13C C -0.3273 0.8852 0.5251(3)
O4 O 0.2500 0.7500 0.3915(3)
H7 H 0.1747 0.7589 0.3543
H7A H 0.3253 0.7411 0.3543
N2? N 0.1038 0.8552 0.3706(3)
C14? C -0.0765 0.8283 0.4929(3)
C15? C 0.0657 0.8190 0.4437(3)
loop_
_geom_bond_atom_site_label_1
_geom_bond_atom_site_label_2
_geom_bond_site_symmetry_1
_geom_bond_site_symmetry_2
S1 C1 1_555 1_555
O1 C6 1_555 1_555
O2 C8 1_555 1_555
O3 C8 1_555 1_555
C1 C2 1_555 1_555
C2 H1 1_555 1_555
C3 C2 1_555 1_555
H2 C3 1_555 1_555
C4 C3 1_555 1_555
H3 C4 1_555 1_555
C5 C4 1_555 1_555
C6 C1 1_555 1_555
C7 O1 1_555 1_555
H4 C7 1_555 1_555
H5 C7 1_555 1_555
C8 C7 1_555 1_555
S2 C5 1_555 1_555
H6 O2 1_555 1_555
C9 C10 1_555 1_555
C10 C13 1_555 1_555
N1 C9 1_555 1_555
C11 C12 1_555 1_555
C12 N1 1_555 1_555
C13 C11 1_555 1_555
O4 H7 1_555 1_555
S1A C1A 1_555 1_555
O1A C6A 1_555 1_555
O2A C8A 1_555 1_555
O3A C8A 1_555 1_555
C1A C2A 1_555 1_555
C2A H1A 1_555 1_555
C3A C2A 1_555 1_555
H2A C3A 1_555 1_555
C4A C3A 1_555 1_555
H3A C4A 1_555 1_555
C5A S2 1_555 1_555
C6A C1A 1_555 1_555
C7A O1A 1_555 1_555
H4A C7A 1_555 1_555
H5A C7A 1_555 1_555
C8A C7A 1_555 1_555
H6A O2A 1_555 1_555
O1B C6B 1_555 1_555
O2B C8B 1_555 1_555
O3B C8B 1_555 1_555
C1B S1A 1_555 1_555
C2B C1B 1_555 1_555
H1B C2B 1_555 1_555
C3B C2B 1_555 1_555
H2B C3B 1_555 1_555
C4B C3B 1_555 1_555
H3B C4B 1_555 1_555
C5B C4B 1_555 1_555
C6B C1B 1_555 1_555
C7B O1B 1_555 1_555
H4B C7B 1_555 1_555
H5B C7B 1_555 1_555
C8B C7B 1_555 1_555
S2B C5B 1_555 1_555
H6B O2B 1_555 1_555
O1C C6C 1_555 1_555
O2C C8C 1_555 1_555
O3C C8C 1_555 1_555
C1C S1 1_555 1_555
C2C C1C 1_555 1_555
H1C C2C 1_555 1_555
C3C C2C 1_555 1_555
H2C C3C 1_555 1_555
C4C C3C 1_555 1_555
H3C C4C 1_555 1_555
C5C S2B 1_555 1_555
C6C C1C 1_555 1_555
C7C O1C 1_555 1_555
H4C C7C 1_555 1_555
H5C C7C 1_555 1_555
C8C C7C 1_555 1_555
H6C O2C 1_555 1_555
C9C C10C 1_555 1_555
C10C C13C 1_555 1_555
N1C C9C 1_555 1_555
C11C C12C 1_555 1_555
C12C N1C 1_555 1_555
C13C C13 1_555 1_555
H7A O4 1_555 1_555
C5 C6 1_555 1_555
C4A C5A 1_555 1_555
C5A C6A 1_555 1_555
C5B C6B 1_555 1_555
C4C C5C 1_555 1_555
C5C C6C 1_555 1_555
C11C C13C 1_555 1_555

#END
