
#######################################################################
#
#                 Cambridge Crystallographic Data Centre
#                                CCDC 
#
#######################################################################
#
# If this CIF has been generated from an entry in the Cambridge 
# Structural Database, then it will include bibliographic, chemical, 
# crystal, experimental, refinement or atomic coordinate data resulting 
# from the CCDC's data processing and validation procedures.
#
#######################################################################

data_LEXTEP
_chemical_name_common            
'25,26,27,28-tetrakis((Carboxymethyl)oxy)-2,8,14,20-tetrathiacalix(4)arene ethanol solvate monohydrate'
_chemical_formula_moiety         'C32 H24 O12 S4,C2 H6 O1,H2 O1'
_chemical_name_systematic        
"2,2',2'',2'''-(2,8,14,20-Tetrathiapentacyclo[19.3.1.1^3,7^.1^9,13^.1^15,19^]octacosa-1(25),3(28),4,6,9(27),10,12,15(26),16,18,21,23-dodecaene-25,26,27,28-tetrayltetrakis(oxy))tetraacetic acid ethanol solvate monohydrate"
_symmetry_cell_setting           triclinic
_symmetry_space_group_name_H-M   'P -1'
_symmetry_Int_Tables_number      2
_space_group_name_Hall           '-P 1'
loop_
_symmetry_equiv_pos_site_id
_symmetry_equiv_pos_as_xyz
1 x,y,z
2 -x,-y,-z
_cell_length_a                   10.3369(8)
_cell_length_b                   13.2291(10)
_cell_length_c                   13.3387(11)
_cell_angle_alpha                85.4050(10)
_cell_angle_beta                 79.6150(10)
_cell_angle_gamma                81.5540(10)
_cell_volume                     1772
_exptl_crystal_colour            colorless
_exptl_crystal_description       block
_cell_formula_units_Z            2
loop_
_atom_site_label
_atom_site_type_symbol
_atom_site_fract_x
_atom_site_fract_y
_atom_site_fract_z
C1 C 0.1248(2) 0.31927(19) 0.3463(2)
C2 C 0.0955(3) 0.2209(2) 0.3409(2)
C3 C 0.0643(3) 0.1618(2) 0.4312(2)
H1 H 0.0449 0.0957 0.4282
C4 C 0.0618(3) 0.2001(2) 0.5243(2)
H2 H 0.0361 0.1615 0.5841
C5 C 0.0972(3) 0.2948(2) 0.5292(2)
H3 H 0.0989 0.3192 0.5923
C6 C 0.1309(2) 0.35554(19) 0.4404(2)
C7 C 0.3135(3) 0.49849(19) 0.3715(2)
C8 C 0.4299(3) 0.43021(18) 0.3698(2)
C9 C 0.5495(3) 0.45490(19) 0.3139(2)
C10 C 0.5492(3) 0.5477(2) 0.2554(2)
H4 H 0.6274 0.5638 0.2148
C11 C 0.4344(3) 0.6151(2) 0.2577(2)
H5 H 0.4360 0.6774 0.2202
C12 C 0.3174(3) 0.5913(2) 0.3148(2)
H6 H 0.2403 0.6375 0.3156
C13 C 0.6933(3) 0.2543(2) 0.3209(2)
C14 C 0.6619(2) 0.21659(19) 0.2360(2)
C15 C 0.6569(3) 0.11276(19) 0.2323(2)
C16 C 0.6917(3) 0.0472(2) 0.3133(3)
H7 H 0.6893 -0.0227 0.3115
C17 C 0.7290(3) 0.0836(2) 0.3948(3)
H8 H 0.7545 0.0386 0.4472
C18 C 0.7290(3) 0.1872(2) 0.3995(2)
H9 H 0.7530 0.2122 0.4558
C19 C 0.4712(3) 0.1185(2) 0.0994(2)
C20 C 0.3543(3) 0.12536(19) 0.1724(2)
C21 C 0.2348(3) 0.1697(2) 0.1431(2)
C22 C 0.2316(3) 0.2038(2) 0.0427(2)
H10 H 0.1519 0.2340 0.0236
C23 C 0.3461(4) 0.1932(2) -0.0295(3)
H11 H 0.3430 0.2138 -0.0974
C24 C 0.4634(3) 0.1525(2) -0.0006(2)
H12 H 0.5404 0.1474 -0.0493
C25 C 0.0470(3) 0.4628(2) 0.2454(2)
H13 H 0.0743 0.5255 0.2624
H14 H -0.0337 0.4514 0.2920
C26 C 0.0208(3) 0.4736(2) 0.1390(2)
C27 C 0.3859(3) -0.0120(2) 0.3001(3)
H15 H 0.4081 -0.0200 0.3682
H16 H 0.4637 -0.0395 0.2531
C28 C 0.2760(4) -0.0720(3) 0.2970(3)
C29 C 0.7510(3) 0.2846(2) 0.0760(3)
H17 H 0.7676 0.2200 0.0430
H18 H 0.8275 0.2903 0.1069
C30 C 0.7355(3) 0.3706(2) -0.0029(2)
C31 C 0.4334(3) 0.3309(2) 0.5255(2)
H19 H 0.3667 0.3825 0.5590
H20 H 0.5199 0.3450 0.5347
C32 C 0.4100(3) 0.2263(2) 0.5727(3)
O1 O 0.14818(17) 0.37952(13) 0.25711(13)
O2 O 0.35392(19) 0.09496(14) 0.27393(14)
O3 O 0.63667(17) 0.28406(13) 0.15419(14)
O4 O 0.42706(18) 0.33467(12) 0.42085(15)
O5 O 0.0860(2) 0.42366(16) 0.07032(17)
O6 O -0.0778(2) 0.54569(17) 0.12799(16)
H21 H -0.0839 0.5548 0.0674
O7 O 0.2701(3) -0.0983(3) 0.2091(2)
H22 H 0.2052 -0.1281 0.2121
O8 O 0.1974(4) -0.0911(3) 0.3694(3)
O9 O 0.6465(2) 0.44617(17) 0.02584(18)
H23 H 0.6448 0.4905 -0.0207
O10 O 0.8083(2) 0.36712(16) -0.08430(17)
O11 O 0.4025(3) 0.15688(16) 0.5081(2)
H24 H 0.4064 0.1837 0.4503
O12 O 0.3985(3) 0.2060(2) 0.6614(2)
S1 S 0.16293(7) 0.48108(5) 0.45520(6)
S2 S 0.07857(8) 0.17119(6) 0.22537(7)
S3 S 0.62772(8) 0.05699(6) 0.12366(6)
S4 S 0.70616(8) 0.38586(6) 0.32701(7)
C33 C 0.9570(6) 0.8329(5) 0.1834(4)
H25 H 0.8996 0.8596 0.2441
H26 H 0.9127 0.7832 0.1577
C34 C 0.9749(6) 0.9145(5) 0.1084(5)
H27 H 1.0132 0.9663 0.1351
H28 H 0.8906 0.9433 0.0909
H29 H 1.0331 0.8891 0.0486
O13 O 1.0768(3) 0.7832(2) 0.2106(3)
H30 H 1.1150 0.7450 0.1658
O14 O 0.3796(2) 0.40652(18) 0.1060(2)
H31 H 0.4527(19) 0.381(3) 0.118(3)
H32 H 0.315(3) 0.383(3) 0.138(3)
loop_
_geom_bond_atom_site_label_1
_geom_bond_atom_site_label_2
_geom_bond_site_symmetry_1
_geom_bond_site_symmetry_2
C1 C2 1_555 1_555
C2 C3 1_555 1_555
C3 H1 1_555 1_555
C4 C3 1_555 1_555
H2 C4 1_555 1_555
C5 C4 1_555 1_555
H3 C5 1_555 1_555
C6 C1 1_555 1_555
C7 C8 1_555 1_555
C8 C9 1_555 1_555
C9 C10 1_555 1_555
C10 H4 1_555 1_555
C11 C10 1_555 1_555
H5 C11 1_555 1_555
C12 C7 1_555 1_555
H6 C12 1_555 1_555
C13 C14 1_555 1_555
C14 C15 1_555 1_555
C15 C16 1_555 1_555
C16 H7 1_555 1_555
C17 C16 1_555 1_555
H8 C17 1_555 1_555
C18 C13 1_555 1_555
H9 C18 1_555 1_555
C19 C20 1_555 1_555
C20 C21 1_555 1_555
C21 C22 1_555 1_555
C22 H10 1_555 1_555
C23 C22 1_555 1_555
H11 C23 1_555 1_555
C24 C19 1_555 1_555
H12 C24 1_555 1_555
C25 H13 1_555 1_555
H14 C25 1_555 1_555
C26 C25 1_555 1_555
C27 H15 1_555 1_555
H16 C27 1_555 1_555
C28 C27 1_555 1_555
C29 H17 1_555 1_555
H18 C29 1_555 1_555
C30 C29 1_555 1_555
C31 H19 1_555 1_555
H20 C31 1_555 1_555
C32 C31 1_555 1_555
O1 C1 1_555 1_555
O2 C20 1_555 1_555
O3 C14 1_555 1_555
O4 C8 1_555 1_555
O5 C26 1_555 1_555
O6 C26 1_555 1_555
H21 O6 1_555 1_555
O7 C28 1_555 1_555
H22 O7 1_555 1_555
O8 C28 1_555 1_555
O9 C30 1_555 1_555
H23 O9 1_555 1_555
O10 C30 1_555 1_555
O11 C32 1_555 1_555
H24 O11 1_555 1_555
O12 C32 1_555 1_555
S1 C6 1_555 1_555
S2 C2 1_555 1_555
S3 C15 1_555 1_555
S4 C9 1_555 1_555
C33 H25 1_555 1_555
H26 C33 1_555 1_555
C34 C33 1_555 1_555
H27 C34 1_555 1_555
H28 C34 1_555 1_555
H29 C34 1_555 1_555
O13 C33 1_555 1_555
H30 O13 1_555 1_555
O14 H31 1_555 1_555
H32 O14 1_555 1_555
C5 C6 1_555 1_555
C7 S1 1_555 1_555
C11 C12 1_555 1_555
C13 S4 1_555 1_555
C17 C18 1_555 1_555
C19 S3 1_555 1_555
C21 S2 1_555 1_555
C23 C24 1_555 1_555
C25 O1 1_555 1_555
C27 O2 1_555 1_555
C29 O3 1_555 1_555
C31 O4 1_555 1_555

#END
