
#######################################################################
#
#                 Cambridge Crystallographic Data Centre
#                                CCDC 
#
#######################################################################
#
# If this CIF has been generated from an entry in the Cambridge 
# Structural Database, then it will include bibliographic, chemical, 
# crystal, experimental, refinement or atomic coordinate data resulting 
# from the CCDC's data processing and validation procedures.
#
#######################################################################

data_LEXVEP01
_chemical_formula_moiety         'C4 H4 F8 N3 O2 P3'
_chemical_name_systematic        
1,1,3,3-Tetrafluoro-5,5-(2,2,3,3-tetrafluorotetramethylenedioxy)-cyclotriphosphazene
_symmetry_cell_setting           triclinic
_symmetry_space_group_name_H-M   'P -1'
_symmetry_Int_Tables_number      2
_space_group_name_Hall           '-P 1'
loop_
_symmetry_equiv_pos_site_id
_symmetry_equiv_pos_as_xyz
1 x,y,z
2 -x,-y,-z
_cell_length_a                   12.392(2)
_cell_length_b                   16.569(3)
_cell_length_c                   19.257(4)
_cell_angle_alpha                110.22(3)
_cell_angle_beta                 90.02(3)
_cell_angle_gamma                97.10(3)
_cell_volume                     3677.85
_exptl_crystal_colour            colorless
_cell_formula_units_Z            12
loop_
_atom_site_label
_atom_site_type_symbol
_atom_site_fract_x
_atom_site_fract_y
_atom_site_fract_z
P1 P 0.3483(2) 0.1802(1) 0.3244(1)
P2 P 0.5636(2) 0.1813(2) 0.3544(1)
P3 P 0.4224(2) 0.2058(1) 0.4650(1)
N1 N 0.3298(5) 0.2002(4) 0.4091(3)
N2 N 0.4697(5) 0.1767(4) 0.3000(3)
N3 N 0.5406(5) 0.1966(4) 0.4375(3)
O1 O 0.2938(4) 0.2515(3) 0.3052(2)
O2 O 0.2825(4) 0.0918(3) 0.2735(3)
F1 F 0.6556(3) 0.2488(3) 0.3513(2)
F2 F 0.6233(4) 0.1018(3) 0.3237(3)
F3 F 0.3916(3) 0.1409(3) 0.5039(2)
F4 F 0.4264(3) 0.2877(3) 0.5312(2)
F5 F 0.0232(4) 0.0755(3) 0.1885(3)
F6 F 0.1821(4) 0.0582(3) 0.1417(3)
F7 F 0.1199(4) 0.2055(4) 0.1455(3)
F8 F 0.0833(4) 0.2399(3) 0.2624(3)
C1 C 0.1673(6) 0.0805(5) 0.2678(4)
C2 C 0.1312(7) 0.1023(6) 0.2033(5)
C3 C 0.1504(7) 0.1982(6) 0.2116(5)
C4 C 0.2649(6) 0.2432(6) 0.2300(4)
H1 H 0.1400 0.0213 0.2608
H2 H 0.1400 0.1181 0.3123
H3 H 0.2695 0.2997 0.2260
H4 H 0.3134 0.2096 0.1965
P4 P 0.3952(2) 0.5072(1) 0.8583(1)
P5 P 0.6036(2) 0.4880(2) 0.8171(1)
P6 P 0.4637(2) 0.5255(2) 0.7290(1)
N4 N 0.5782(5) 0.5062(5) 0.7443(3)
N5 N 0.5150(5) 0.4946(4) 0.8751(3)
N6 N 0.3731(5) 0.5255(5) 0.7848(3)
O3 O 0.3108(4) 0.4274(3) 0.8551(3)
O4 O 0.3652(4) 0.5835(3) 0.9293(3)
F9 F 0.6461(4) 0.4008(3) 0.7957(3)
F10 F 0.7074(3) 0.5444(3) 0.8545(3)
F11 F 0.4249(4) 0.4673(5) 0.6529(3)
F12 F 0.1525(4) 0.4180(3) 1.0064(3)
F13 F 0.4745(5) 0.6121(4) 0.7157(3)
F14 F 0.1064(3) 0.4293(3) 0.9021(2)
F15 F 0.2692(4) 0.5707(3) 1.0514(2)
F16 F 0.1088(4) 0.5770(3) 1.0101(3)
C5 C 0.2864(6) 0.4087(5) 0.9217(4)
C6 C 0.1871(6) 0.4515(5) 0.9542(4)
C7 C 0.2046(6) 0.5504(5) 0.9888(4)
C8 C 0.2534(6) 0.5979(5) 0.9417(4)
H5 H 0.2710 0.3471 0.9099
H6 H 0.3473 0.4313 0.9567
H7 H 0.2505 0.6588 0.9658
H8 H 0.2131 0.5778 0.8950
P7 P 0.1075(2) 0.5104(1) 0.3587(1)
P8 P -0.1072(2) 0.4953(2) 0.3184(1)
P9 P 0.0459(2) 0.5251(2) 0.2279(1)
N7 N -0.0752(5) 0.5107(5) 0.2446(4)
N8 N -0.0164(5) 0.5001(4) 0.3756(3)
N9 N 0.1346(5) 0.5254(5) 0.2851(3)
O5 O 0.1634(4) 0.4294(3) 0.3570(3)
O6 O 0.1635(4) 0.5870(3) 0.4283(3)
F17 F -0.1878(4) 0.5571(4) 0.3561(3)
F18 F -0.1838(4) 0.4111(3) 0.3000(3)
F19 F 0.0672(4) 0.6094(5) 0.2114(3)
F20 F 0.0623(4) 0.4637(5) 0.1529(3)
F21 F 0.2514(4) 0.5759(3) 0.5515(2)
F22 F 0.4148(3) 0.5807(3) 0.5130(3)
F23 F 0.3174(4) 0.4239(3) 0.5103(3)
F24 F 0.3682(3) 0.4320(3) 0.4051(3)
C9 C 0.1827(6) 0.4131(5) 0.4247(4)
C10 C 0.2786(6) 0.6008(5) 0.4416(4)
C11 C 0.3102(6) 0.5545(5) 0.4899(4)
C12 C 0.2936(7) 0.4550(5) 0.4561(4)
H9 H 0.1296 0.4368 0.4597
H10 H 0.1774 0.3517 0.4143
H11 H 0.3129 0.5797 0.3952
H12 H 0.3022 0.6618 0.4651
P10 P -0.0420(2) 0.8288(1) 0.1784(1)
P11 P 0.1707(2) 0.8199(1) 0.1432(1)
P12 P 0.0195(2) 0.8088(2) 0.0377(1)
N10 N 0.0805(5) 0.8316(4) 0.2012(3)
N11 N -0.0697(5) 0.8141(4) 0.0954(3)
N12 N 0.1399(5) 0.8104(4) 0.0615(3)
O7 O -0.1196(4) 0.7565(3) 0.1958(3)
O8 O -0.0763(4) 0.9165(3) 0.2329(3)
F25 F 0.2322(4) 0.7457(3) 0.1431(3)
F26 F 0.2640(3) 0.8939(3) 0.1735(3)
F27 F 0.0155(4) 0.8797(3) 0.0054(3)
F28 F -0.0121(4) 0.7306(3) -0.0317(2)
F29 F -0.2824(5) 0.7948(4) 0.3522(3)
F30 F -0.3267(4) 0.7677(3) 0.2361(3)
F31 F -0.3329(5) 0.9297(4) 0.3159(3)
F32 F -0.1695(5) 0.9431(4) 0.3635(3)
C13 C -0.2480(8) 0.8063(7) 0.2888(5)
C14 C -0.2342(8) 0.9025(7) 0.3022(5)
C15 C -0.1885(7) 0.9281(5) 0.2386(5)
C16 C -0.1469(7) 0.7613(6) 0.2690(4)
H13 H -0.1958 0.9878 0.2476
H14 H -0.2278 0.8922 0.1933
H15 H -0.1612 0.7038 0.2708
H16 H -0.0877 0.7936 0.3034
P13 P 0.4579(2) 0.8176(1) 0.9637(1)
P14 P 0.6668(2) 0.7966(2) 0.9913(1)
P15 P 0.5135(2) 0.7886(2) 1.0894(1)
N13 N 0.4254(5) 0.7990(4) 1.0358(3)
N14 N 0.6336(5) 0.7869(4) 1.0666(3)
N15 N 0.5797(5) 0.8106(4) 0.9400(3)
O9 O 0.3747(4) 0.7544(3) 0.9010(3)
O10 O 0.4359(4) 0.9112(3) 0.9677(3)
F33 F 0.7635(3) 0.8668(3) 1.0041(3)
F34 F 0.7229(4) 0.7200(3) 0.9474(3)
F35 F 0.4777(4) 0.7092(3) 1.1103(3)
F36 F 0.5122(4) 0.8579(4) 1.1653(2)
F37 F 0.1737(4) 0.7842(3) 0.8777(3)
F38 F 0.2169(4) 0.8220(4) 0.7831(3)
F39 F 0.1804(4) 0.9508(4) 0.9114(3)
F40 F 0.3408(5) 0.9614(4) 0.8662(3)
C17 C 0.3492(7) 0.7721(6) 0.8366(4)
C18 C 0.2549(8) 0.8235(7) 0.8499(5)
C19 C 0.2765(7) 0.9169(6) 0.9017(6)
C20 C 0.3271(7) 0.9335(5) 0.9756(5)
H17 H 0.4113 0.8048 0.8247
H18 H 0.3302 0.7185 0.7962
H19 H 0.2851 0.8989 0.9995
H20 H 0.3293 0.9938 1.0049
P16 P 0.1437(2) 0.8223(1) 0.4638(1)
P17 P -0.0704(2) 0.8110(2) 0.4964(1)
P18 P 0.0799(2) 0.7883(1) 0.5874(1)
N16 N -0.0399(5) 0.7936(4) 0.5680(3)
N17 N 0.1706(5) 0.8006(4) 0.5347(3)
N18 N 0.0213(5) 0.8192(4) 0.4421(3)
O11 O 0.2001(4) 0.9145(3) 0.4691(3)
O12 O 0.2031(4) 0.7575(3) 0.3988(3)
F41 F 0.0841(4) 0.7049(3) 0.6028(3)
F42 F 0.1095(4) 0.8506(3) 0.6656(2)
F43 F -0.1621(4) 0.7422(4) 0.4543(3)
F44 F -0.1315(4) 0.8895(3) 0.5167(3)
F45 F 0.4155(4) 0.7844(3) 0.3768(3)
F46 F 0.3865(4) 0.8252(3) 0.2832(3)
F47 F 0.4683(4) 0.9518(4) 0.4109(3)
F48 F 0.3101(4) 0.9646(3) 0.3676(3)
C21 C 0.2372(6) 0.7776(5) 0.3353(4)
C22 C 0.3495(7) 0.8260(6) 0.3500(4)
C23 C 0.3618(7) 0.9199(6) 0.4019(5)
C24 C 0.3170(7) 0.9344(5) 0.4774(4)
H21 H 0.2369 0.7248 0.2937
H22 H 0.1881 0.8127 0.3246
H23 H 0.3367 0.9939 0.5085
H24 H 0.3460 0.8973 0.4994
loop_
_geom_bond_atom_site_label_1
_geom_bond_atom_site_label_2
_geom_bond_site_symmetry_1
_geom_bond_site_symmetry_2
P1 N1 1_555 1_555
P2 N2 1_555 1_555
P3 N1 1_555 1_555
N2 P1 1_555 1_555
N3 P2 1_555 1_555
O1 P1 1_555 1_555
O2 P1 1_555 1_555
F1 P2 1_555 1_555
F2 P2 1_555 1_555
F3 P3 1_555 1_555
F4 P3 1_555 1_555
F5 C2 1_555 1_555
F6 C2 1_555 1_555
F7 C3 1_555 1_555
F8 C3 1_555 1_555
C1 O2 1_555 1_555
C2 C1 1_555 1_555
C3 C2 1_555 1_555
C4 O1 1_555 1_555
H1 C1 1_555 1_555
H2 C1 1_555 1_555
H3 C4 1_555 1_555
H4 C4 1_555 1_555
P4 N5 1_555 1_555
P5 N4 1_555 1_555
P6 N4 1_555 1_555
N5 P5 1_555 1_555
N6 P4 1_555 1_555
O3 P4 1_555 1_555
O4 P4 1_555 1_555
F9 P5 1_555 1_555
F10 P5 1_555 1_555
F11 P6 1_555 1_555
F12 C6 1_555 1_555
F13 P6 1_555 1_555
F14 C6 1_555 1_555
F15 C7 1_555 1_555
F16 C7 1_555 1_555
C5 O3 1_555 1_555
C6 C5 1_555 1_555
C7 C6 1_555 1_555
C8 O4 1_555 1_555
H5 C5 1_555 1_555
H6 C5 1_555 1_555
H7 C8 1_555 1_555
H8 C8 1_555 1_555
P7 N8 1_555 1_555
P8 N7 1_555 1_555
P9 N7 1_555 1_555
N8 P8 1_555 1_555
N9 P7 1_555 1_555
O5 P7 1_555 1_555
O6 P7 1_555 1_555
F17 P8 1_555 1_555
F18 P8 1_555 1_555
F19 P9 1_555 1_555
F20 P9 1_555 1_555
F21 C11 1_555 1_555
F22 C11 1_555 1_555
F23 C12 1_555 1_555
F24 C12 1_555 1_555
C9 O5 1_555 1_555
C10 O6 1_555 1_555
C11 C10 1_555 1_555
C12 C9 1_555 1_555
H9 C9 1_555 1_555
H10 C9 1_555 1_555
H11 C10 1_555 1_555
H12 C10 1_555 1_555
P10 N10 1_555 1_555
P11 N10 1_555 1_555
P12 N11 1_555 1_555
N11 P10 1_555 1_555
N12 P11 1_555 1_555
O7 P10 1_555 1_555
O8 P10 1_555 1_555
F25 P11 1_555 1_555
F26 P11 1_555 1_555
F27 P12 1_555 1_555
F28 P12 1_555 1_555
F29 C13 1_555 1_555
F30 C13 1_555 1_555
F31 C14 1_555 1_555
F32 C14 1_555 1_555
C13 C14 1_555 1_555
C14 C15 1_555 1_555
C15 O8 1_555 1_555
C16 O7 1_555 1_555
H13 C15 1_555 1_555
H14 C15 1_555 1_555
H15 C16 1_555 1_555
H16 C16 1_555 1_555
P13 N13 1_555 1_555
P14 N14 1_555 1_555
P15 N13 1_555 1_555
N14 P15 1_555 1_555
N15 P13 1_555 1_555
O9 P13 1_555 1_555
O10 P13 1_555 1_555
F33 P14 1_555 1_555
F34 P14 1_555 1_555
F35 P15 1_555 1_555
F36 P15 1_555 1_555
F37 C18 1_555 1_555
F38 C18 1_555 1_555
F39 C19 1_555 1_555
F40 C19 1_555 1_555
C17 O9 1_555 1_555
C18 C17 1_555 1_555
C19 C18 1_555 1_555
C20 O10 1_555 1_555
H17 C17 1_555 1_555
H18 C17 1_555 1_555
H19 C20 1_555 1_555
H20 C20 1_555 1_555
P16 N17 1_555 1_555
P17 N16 1_555 1_555
P18 N16 1_555 1_555
N17 P18 1_555 1_555
N18 P16 1_555 1_555
O11 P16 1_555 1_555
O12 P16 1_555 1_555
F41 P18 1_555 1_555
F42 P18 1_555 1_555
F43 P17 1_555 1_555
F44 P17 1_555 1_555
F45 C22 1_555 1_555
F46 C22 1_555 1_555
F47 C23 1_555 1_555
F48 C23 1_555 1_555
C21 O12 1_555 1_555
C22 C21 1_555 1_555
C23 C22 1_555 1_555
C24 O11 1_555 1_555
H21 C21 1_555 1_555
H22 C21 1_555 1_555
H23 C24 1_555 1_555
H24 C24 1_555 1_555
P3 N3 1_555 1_555
C3 C4 1_555 1_555
P6 N6 1_555 1_555
C7 C8 1_555 1_555
P9 N9 1_555 1_555
C11 C12 1_555 1_555
P12 N12 1_555 1_555
C13 C16 1_555 1_555
P14 N15 1_555 1_555
C19 C20 1_555 1_555
P17 N18 1_555 1_555
C23 C24 1_555 1_555

#END
