
#######################################################################
#
#                 Cambridge Crystallographic Data Centre
#                                CCDC 
#
#######################################################################
#
# If this CIF has been generated from an entry in the Cambridge 
# Structural Database, then it will include bibliographic, chemical, 
# crystal, experimental, refinement or atomic coordinate data resulting 
# from the CCDC's data processing and validation procedures.
#
#######################################################################

data_LEXXER
_chemical_formula_moiety         'C26 H54 N7 P3 Se2'
_chemical_name_systematic        
1,3-bis(N,N-Diethylselenophosphondiamide)-2-diethylaminobenzotriphosphazane
_symmetry_cell_setting           orthorhombic
_symmetry_space_group_name_H-M   'P b c a'
_symmetry_Int_Tables_number      61
_space_group_name_Hall           '-P 2ac 2ab'
loop_
_symmetry_equiv_pos_site_id
_symmetry_equiv_pos_as_xyz
1 x,y,z
2 1/2-x,-y,1/2+z
3 1/2+x,1/2-y,-z
4 -x,1/2+y,1/2-z
5 -x,-y,-z
6 1/2+x,y,1/2-z
7 1/2-x,1/2+y,z
8 x,1/2-y,1/2+z
_cell_length_a                   14.975(6)
_cell_length_b                   18.894(7)
_cell_length_c                   24.524(8)
_cell_angle_alpha                90
_cell_angle_beta                 90
_cell_angle_gamma                90
_cell_volume                     6938.76
_exptl_crystal_colour            colorless
_chemical_melting_point          128-129deg.C
_cell_formula_units_Z            8
loop_
_atom_site_label
_atom_site_type_symbol
_atom_site_fract_x
_atom_site_fract_y
_atom_site_fract_z
Se1 Se 0.0114(1) 0.0934(1) 0.2166(1)
Se2 Se -0.1719(1) 0.1149(1) 0.5326(1)
P1 P -0.1220(2) 0.0931(1) 0.2430(1)
P2 P -0.1568(2) 0.0488(1) 0.3589(1)
P3 P -0.2438(2) 0.1064(2) 0.4596(1)
N1 N -0.1348(4) 0.1138(4) 0.3088(3)
N2 N -0.1821(4) 0.1188(4) 0.4034(3)
N3 N -0.1828(5) 0.1538(4) 0.2126(3)
N4 N -0.1675(4) 0.0137(4) 0.2394(3)
N5 N -0.0591(5) 0.0201(4) 0.3795(4)
N6 N -0.2875(5) 0.0269(4) 0.4522(3)
N7 N -0.3218(5) 0.1668(4) 0.4533(3)
C1 C -0.1174(6) 0.1812(5) 0.3322(5)
C2 C -0.1431(6) 0.1842(6) 0.3860(5)
C3 C -0.1300(7) 0.2439(5) 0.4179(5)
C4 C -0.0908(7) 0.3012(6) 0.3923(6)
C5 C -0.0645(7) 0.2990(6) 0.3384(7)
C6 C -0.0771(7) 0.2393(6) 0.3074(5)
C7 C -0.1741(8) 0.1574(6) 0.1518(5)
C8 C -0.1250(8) 0.2206(7) 0.1354(5)
C9 C -0.2678(8) 0.1806(3) 0.2347(5)
C10 C -0.2890(13) 0.2530(10) 0.2278(9)
C11 C -0.2657(6) 0.0082(5) 0.2455(4)
C12 C -0.2983(7) -0.0613(5) 0.2675(4)
C13 C -0.1238(6) -0.0477(5) 0.2130(4)
C14 C -0.1554(7) -0.0617(6) 0.1556(4)
C15 C 0.0294(19) 0.0683(12) 0.3782(10)
C16 C 0.0473(20) 0.0760(13) 0.4373(12)
C17 C -0.0440(6) -0.0557(5) 0.3807(4)
C18 C 0.0240(6) -0.0824(5) 0.3402(4)
C19 C -0.3569(6) 0.0146(5) 0.4096(4)
C20 C -0.4515(6) 0.0123(5) 0.4300(4)
C21 C -0.2461(7) -0.0404(6) 0.4745(5)
C22 C -0.2968(9) -0.0735(7) 0.5160(6)
C23 C -0.3602(7) 0.1891(5) 0.4008(4)
C24 C -0.3690(9) 0.2671(6) 0.3948(5)
C25 C -0.3860(8) 0.1775(7) 0.5026(5)
C26 C -0.3587(8) 0.2420(7) 0.5318(5)
H1 H -0.1504 0.2454 0.4550
H2 H -0.0806 0.3435 0.4131
H3 H -0.0368 0.3400 0.3226
H4 H -0.0586 0.2367 0.2700
H5 H -0.2321 0.1574 0.1351
H6 H -0.1419 0.1165 0.1392
H7 H -0.1181 0.2236 0.0965
H8 H -0.1579 0.2609 0.1482
H9 H -0.0672 0.2198 0.1523
H10 H -0.2693 0.1700 0.2730
H11 H -0.3156 0.1546 0.2180
H12 H -0.3460 0.2633 0.2439
H13 H -0.2435 0.2804 0.2456
H14 H -0.2905 0.2648 0.1897
H15 H -0.2928 0.0153 0.2104
H16 H -0.2855 0.0457 0.2659
H17 H -0.3622 -0.0604 0.2702
H18 H -0.2804 -0.0992 0.2439
H19 H -0.2730 -0.0685 0.3031
H20 H -0.1345 -0.0893 0.2346
H21 H -0.0606 -0.0392 0.2123
H22 H -0.1252 -0.1016 0.1398
H23 H -0.2185 -0.0708 0.1565
H24 H -0.1440 -0.0203 0.1340
H25 H 0.0175 0.1118 0.3594
H26 H 0.0777 0.0438 0.3607
H27 H 0.0993 0.1052 0.4416
H28 H -0.0032 0.0992 0.4535
H29 H 0.0569 0.0313 0.4549
H30 H -0.0998 -0.0791 0.3738
H31 H -0.0246 -0.0690 0.4166
H32 H 0.0305 -0.1329 0.3431
H33 H 0.0044 -0.0704 0.3041
H34 H 0.0804 -0.0601 0.3474
H35 H -0.3444 -0.0290 0.3910
H36 H -0.3529 0.0522 0.3834
H37 H -0.4923 0.0049 0.4004
H38 H -0.4566 -0.0259 0.4556
H39 H -0.4653 0.0562 0.4479
H40 H -0.1881 -0.0299 0.4890
H41 H -0.2386 -0.0735 0.4452
H42 H -0.2684 -0.1159 0.5289
H43 H -0.3034 -0.0409 0.5457
H44 H -0.3545 -0.0849 0.5014
H45 H -0.4171 0.1667 0.3953
H46 H -0.3208 0.1736 0.3723
H47 H -0.3929 0.2798 0.3598
H48 H -0.4091 0.2825 0.4229
H49 H -0.3120 0.2894 0.3997
H50 H -0.3841 0.1367 0.5259
H51 H -0.4462 0.1839 0.4901
H52 H -0.3963 0.2506 0.5628
H53 H -0.2984 0.2347 0.5438
H54 H -0.3608 0.2821 0.5078
C27? C -0.3270(28) 0.2193(25) 0.1981(19)
C28? C 0.0050(18) 0.0566(12) 0.4154(10)
C29? C 0.0796(23) 0.0902(15) 0.3847(10)
H55? H -0.3807 0.2340 0.2161
H56? H -0.2901 0.2599 0.1911
H57? H -0.3419 0.1968 0.1642
H58? H 0.0268 0.0249 0.4428
H59? H -0.0232 0.0961 0.4330
H60? H 0.1232 0.1145 0.4064
H61? H 0.1070 0.0502 0.3673
H62? H 0.0567 0.1218 0.3574
loop_
_geom_bond_atom_site_label_1
_geom_bond_atom_site_label_2
_geom_bond_site_symmetry_1
_geom_bond_site_symmetry_2
Se1 P1 1_555 1_555
Se2 P3 1_555 1_555
P1 N1 1_555 1_555
P2 N1 1_555 1_555
P3 N2 1_555 1_555
N1 C1 1_555 1_555
N2 P2 1_555 1_555
N3 P1 1_555 1_555
N4 P1 1_555 1_555
N5 P2 1_555 1_555
N6 P3 1_555 1_555
N7 P3 1_555 1_555
C1 C2 1_555 1_555
C2 N2 1_555 1_555
C3 C2 1_555 1_555
C4 C3 1_555 1_555
C5 C4 1_555 1_555
C6 C1 1_555 1_555
C7 N3 1_555 1_555
C8 C7 1_555 1_555
C9 N3 1_555 1_555
C10 C9 1_555 1_555
C11 N4 1_555 1_555
C12 C11 1_555 1_555
C13 N4 1_555 1_555
C14 C13 1_555 1_555
C15 N5 1_555 1_555
C16 C15 1_555 1_555
C17 N5 1_555 1_555
C18 C17 1_555 1_555
C19 N6 1_555 1_555
C20 C19 1_555 1_555
C21 N6 1_555 1_555
C22 C21 1_555 1_555
C23 N7 1_555 1_555
C24 C23 1_555 1_555
C25 N7 1_555 1_555
C26 C25 1_555 1_555
H1 C3 1_555 1_555
H2 C4 1_555 1_555
H3 C5 1_555 1_555
H4 C6 1_555 1_555
H5 C7 1_555 1_555
H6 C7 1_555 1_555
H7 C8 1_555 1_555
H8 C8 1_555 1_555
H9 C8 1_555 1_555
H10 C9 1_555 1_555
H11 C9 1_555 1_555
H12 C10 1_555 1_555
H13 C10 1_555 1_555
H14 C10 1_555 1_555
H15 C11 1_555 1_555
H16 C11 1_555 1_555
H17 C12 1_555 1_555
H18 C12 1_555 1_555
H19 C12 1_555 1_555
H20 C13 1_555 1_555
H21 C13 1_555 1_555
H22 C14 1_555 1_555
H23 C14 1_555 1_555
H24 C14 1_555 1_555
H25 C15 1_555 1_555
H26 C15 1_555 1_555
H27 C16 1_555 1_555
H28 C16 1_555 1_555
H29 C16 1_555 1_555
H30 C17 1_555 1_555
H31 C17 1_555 1_555
H32 C18 1_555 1_555
H33 C18 1_555 1_555
H34 C18 1_555 1_555
H35 C19 1_555 1_555
H36 C19 1_555 1_555
H37 C20 1_555 1_555
H38 C20 1_555 1_555
H39 C20 1_555 1_555
H40 C21 1_555 1_555
H41 C21 1_555 1_555
H42 C22 1_555 1_555
H43 C22 1_555 1_555
H44 C22 1_555 1_555
H45 C23 1_555 1_555
H46 C23 1_555 1_555
H47 C24 1_555 1_555
H48 C24 1_555 1_555
H49 C24 1_555 1_555
H50 C25 1_555 1_555
H51 C25 1_555 1_555
H52 C26 1_555 1_555
H53 C26 1_555 1_555
H54 C26 1_555 1_555
C5 C6 1_555 1_555

#END
