
#######################################################################
#
#                 Cambridge Crystallographic Data Centre
#                                CCDC 
#
#######################################################################
#
# If this CIF has been generated from an entry in the Cambridge 
# Structural Database, then it will include bibliographic, chemical, 
# crystal, experimental, refinement or atomic coordinate data resulting 
# from the CCDC's data processing and validation procedures.
#
#######################################################################

data_LEXXIV
_chemical_formula_moiety         'C27 H57 N7 P3 S2 1+,I1 1-'
_chemical_name_systematic        
'1,3-bis(N,N-Diethylthiophosphadiamide)-2-methyl-2-diethylaminobenzotriphosphazane iodide'
_symmetry_cell_setting           orthorhombic
_symmetry_space_group_name_H-M   'C 2 2 21'
_symmetry_Int_Tables_number      20
_space_group_name_Hall           'C 2n 2'
loop_
_symmetry_equiv_pos_site_id
_symmetry_equiv_pos_as_xyz
1 x,y,z
2 1/2+x,1/2+y,z
3 x,-y,-z
4 1/2+x,1/2-y,-z
5 -x,y,1/2-z
6 1/2-x,1/2+y,1/2-z
7 -x,-y,1/2+z
8 1/2-x,1/2-y,1/2+z
_cell_length_a                   10.885(4)
_cell_length_b                   20.78(2)
_cell_length_c                   36.31(2)
_cell_angle_alpha                90
_cell_angle_beta                 90
_cell_angle_gamma                90
_cell_volume                     8212.97
_exptl_crystal_colour            colorless
_cell_formula_units_Z            8
loop_
_atom_site_label
_atom_site_type_symbol
_atom_site_fract_x
_atom_site_fract_y
_atom_site_fract_z
I1 I 0.5971(1) 0.5000 0.5000
I2 I 0.0000 0.4010(1) 0.2500
P1 P 0.2065(3) 0.5398(1) 0.3731(1)
P2 P 0.2688(2) 0.3998(1) 0.3707(1)
P3 P 0.1910(3) 0.2624(1) 0.3748(1)
S1 S 0.3721(3) 0.5491(1) 0.3552(1)
S2 S 0.3566(3) 0.2499(1) 0.3567(1)
N1 N 0.1834(8) 0.4609(4) 0.3872(2)
N2 N 0.1778(7) 0.3421(3) 0.3885(2)
N3 N 0.1727(11) 0.5803(4) 0.4103(2)
N4 N 0.1062(9) 0.5576(5) 0.3429(2)
N5 N 0.4043(7) 0.3998(4) 0.3873(2)
N6 N 0.1507(8) 0.2239(3) 0.4123(2)
N7 N 0.0848(9) 0.2468(4) 0.3446(2)
C1 C 0.0849(10) 0.4374(5) 0.4091(3)
C2 C 0.0793(11) 0.3692(5) 0.4096(3)
C3 C -0.0070(12) 0.3403(6) 0.4305(3)
C4 C -0.0953(14) 0.3765(8) 0.4490(3)
C5 C -0.0909(14) 0.4417(7) 0.4482(3)
C6 C -0.0012(12) 0.4721(6) 0.4285(3)
C7 C 0.2676(9) 0.3985(5) 0.3226(2)
C8 C 0.2558(17) 0.5700(6) 0.4418(3)
C9 C 0.1991(19) 0.5845(7) 0.4785(3)
C10 C 0.1096(20) 0.6428(8) 0.4085(5)
C11 C 0.1792(21) 0.6974(8) 0.4093(6)
C12 C 0.1390(14) 0.5714(8) 0.3024(4)
C13 C 0.1296(20) 0.6384(7) 0.2933(5)
C14 C -0.0230(13) 0.5635(12) 0.3524(7)
C15 C -0.0897(45) 0.5081(18) 0.3333(10)
C16 C 0.5163(10) 0.3911(5) 0.3649(3)
C17 C 0.6169(11) 0.4369(6) 0.3726(4)
C18 C 0.4185(10) 0.4052(5) 0.4276(2)
C19 C 0.4898(13) 0.3485(5) 0.4440(3)
C20 C 0.1176(13) 0.1543(5) 0.4089(3)
C21 C 0.2207(15) 0.1097(7) 0.4107(4)
C22 C 0.2205(12) 0.2378(5) 0.4462(3)
C23 C 0.1529(17) 0.2175(6) 0.4810(3)
C24 C -0.0482(12) 0.2492(8) 0.3534(5)
C25 C -0.1178(15) 0.3013(8) 0.3379(4)
C26 C 0.1133(13) 0.2350(6) 0.3054(3)
C27 C 0.1117(16) 0.1662(7) 0.2955(4)
H1 H -0.0037 0.2944 0.4330
H2 H -0.1599 0.3549 0.4622
H3 H -0.1496 0.4674 0.4614
H4 H 0.0032 0.5182 0.4273
H5 H 0.1829 0.4013 0.3154
H6 H 0.3061 0.3634 0.3099
H7 H 0.3087 0.4380 0.3165
H8 H 0.3247 0.5982 0.4381
H9 H 0.2854 0.5265 0.4427
H10 H 0.2549 0.5801 0.4988
H11 H 0.1701 0.6281 0.4773
H12 H 0.1306 0.5560 0.4819
H13 H 0.0599 0.6464 0.4303
H14 H 0.0565 0.6448 0.3875
H15 H 0.1361 0.7377 0.4091
H16 H 0.2316 0.6954 0.4306
H17 H 0.2281 0.6939 0.3874
H18 H 0.0831 0.5476 0.2871
H19 H 0.2208 0.5562 0.2976
H20 H 0.1496 0.6453 0.2679
H21 H 0.0474 0.6531 0.2980
H22 H 0.1861 0.6617 0.3086
H23 H -0.0541 0.6030 0.3423
H24 H -0.0332 0.5643 0.3786
H25 H -0.1758 0.5111 0.3388
H26 H -0.0783 0.5080 0.3071
H27 H -0.0573 0.4691 0.3436
H28 H 0.4935 0.3945 0.3394
H29 H 0.5463 0.3482 0.3688
H30 H 0.6847 0.4272 0.3566
H31 H 0.5893 0.4801 0.3680
H32 H 0.6428 0.4332 0.3978
H33 H 0.3391 0.4066 0.4390
H34 H 0.4608 0.4445 0.4331
H35 H 0.4994 0.3525 0.4702
H36 H 0.4466 0.3094 0.4385
H37 H 0.5692 0.3476 0.4326
H38 H 0.0748 0.1486 0.3860
H39 H 0.0619 0.1440 0.4285
H40 H 0.1927 0.0661 0.4084
H41 H 0.2758 0.1194 0.3908
H42 H 0.2628 0.1149 0.4337
H43 H 0.2379 0.2830 0.4470
H44 H 0.2970 0.2148 0.4462
H45 H 0.1974 0.2273 0.5031
H46 H 0.0768 0.2408 0.4808
H47 H 0.1364 0.1721 0.4801
H48 H -0.0558 0.2513 0.3797
H49 H -0.0853 0.2097 0.3453
H50 H -0.2027 0.2999 0.3449
H51 H -0.0818 0.3408 0.3463
H52 H -0.1116 0.2988 0.3115
H53 H 0.1949 0.2501 0.3003
H54 H 0.0568 0.2584 0.2902
H55 H 0.1308 0.1587 0.2700
H56 H 0.1688 0.1431 0.3107
H57 H 0.0298 0.1515 0.3005
C28? C -0.0102(18) 0.5236(12) 0.3395(8)
C29? C -0.1165(26) 0.5572(13) 0.3201(7)
C30? C 0.5000 0.4677(27) 0.2500
C31? C 0.5000 0.3616(27) 0.2500
C32? C 0.5000 0.2958(8) 0.2500
C33? C 0.4260 0.3719 0.2379
C34? C 0.3644 0.4589 0.2326
C35? C 0.3549 0.3885 0.2317
C36? C 0.4310 0.4293 0.2439
C37? C 0.4539 0.5039 0.2434
C38? C 0.3931 0.3223 0.2350
H58? H -0.0367 0.5111 0.3637
H59? H 0.0047 0.4849 0.3259
H60? H -0.1877 0.5299 0.3193
H61? H -0.1351 0.5954 0.3338
H62? H -0.0932 0.5687 0.2955
loop_
_geom_bond_atom_site_label_1
_geom_bond_atom_site_label_2
_geom_bond_site_symmetry_1
_geom_bond_site_symmetry_2
P1 S1 1_555 1_555
P2 N1 1_555 1_555
P3 S2 1_555 1_555
N1 P1 1_555 1_555
N2 P2 1_555 1_555
N3 P1 1_555 1_555
N4 P1 1_555 1_555
N5 P2 1_555 1_555
N6 P3 1_555 1_555
N7 P3 1_555 1_555
C1 N1 1_555 1_555
C2 N2 1_555 1_555
C3 C2 1_555 1_555
C4 C3 1_555 1_555
C5 C4 1_555 1_555
C6 C1 1_555 1_555
C7 P2 1_555 1_555
C8 N3 1_555 1_555
C9 C8 1_555 1_555
C10 N3 1_555 1_555
C11 C10 1_555 1_555
C12 N4 1_555 1_555
C13 C12 1_555 1_555
C14 N4 1_555 1_555
C15 C14 1_555 1_555
C16 N5 1_555 1_555
C17 C16 1_555 1_555
C18 N5 1_555 1_555
C19 C18 1_555 1_555
C20 N6 1_555 1_555
C21 C20 1_555 1_555
C22 N6 1_555 1_555
C23 C22 1_555 1_555
C24 N7 1_555 1_555
C25 C24 1_555 1_555
C26 N7 1_555 1_555
C27 C26 1_555 1_555
H1 C3 1_555 1_555
H2 C4 1_555 1_555
H3 C5 1_555 1_555
H4 C6 1_555 1_555
H5 C7 1_555 1_555
H6 C7 1_555 1_555
H7 C7 1_555 1_555
H8 C8 1_555 1_555
H9 C8 1_555 1_555
H10 C9 1_555 1_555
H11 C9 1_555 1_555
H12 C9 1_555 1_555
H13 C10 1_555 1_555
H14 C10 1_555 1_555
H15 C11 1_555 1_555
H16 C11 1_555 1_555
H17 C11 1_555 1_555
H18 C12 1_555 1_555
H19 C12 1_555 1_555
H20 C13 1_555 1_555
H21 C13 1_555 1_555
H22 C13 1_555 1_555
H23 C14 1_555 1_555
H24 C14 1_555 1_555
H25 C15 1_555 1_555
H26 C15 1_555 1_555
H27 C15 1_555 1_555
H28 C16 1_555 1_555
H29 C16 1_555 1_555
H30 C17 1_555 1_555
H31 C17 1_555 1_555
H32 C17 1_555 1_555
H33 C18 1_555 1_555
H34 C18 1_555 1_555
H35 C19 1_555 1_555
H36 C19 1_555 1_555
H37 C19 1_555 1_555
H38 C20 1_555 1_555
H39 C20 1_555 1_555
H40 C21 1_555 1_555
H41 C21 1_555 1_555
H42 C21 1_555 1_555
H43 C22 1_555 1_555
H44 C22 1_555 1_555
H45 C23 1_555 1_555
H46 C23 1_555 1_555
H47 C23 1_555 1_555
H48 C24 1_555 1_555
H49 C24 1_555 1_555
H50 C25 1_555 1_555
H51 C25 1_555 1_555
H52 C25 1_555 1_555
H53 C26 1_555 1_555
H54 C26 1_555 1_555
H55 C27 1_555 1_555
H56 C27 1_555 1_555
H57 C27 1_555 1_555
P3 N2 1_555 1_555
C1 C2 1_555 1_555
C5 C6 1_555 1_555

#END
