
#######################################################################
#
#                 Cambridge Crystallographic Data Centre
#                                CCDC 
#
#######################################################################
#
# If this CIF has been generated from an entry in the Cambridge 
# Structural Database, then it will include bibliographic, chemical, 
# crystal, experimental, refinement or atomic coordinate data resulting 
# from the CCDC's data processing and validation procedures.
#
#######################################################################

data_LEXYUK
_chemical_formula_moiety         'C15 H12 N2 O7'
_chemical_name_systematic        
'Ethyl 3-(2,5-dioxopyrrolidin-1-yl)-5-nitro-1-benzofuran-2-carboxylate'
_symmetry_cell_setting           triclinic
_symmetry_space_group_name_H-M   'P -1'
_symmetry_Int_Tables_number      2
_space_group_name_Hall           '-P 1'
loop_
_symmetry_equiv_pos_site_id
_symmetry_equiv_pos_as_xyz
1 x,y,z
2 -x,-y,-z
_cell_length_a                   9.2680(13)
_cell_length_b                   11.6707(15)
_cell_length_c                   15.414(2)
_cell_angle_alpha                75.185(5)
_cell_angle_beta                 72.683(5)
_cell_angle_gamma                71.301(5)
_cell_volume                     1483.79
_exptl_crystal_colour            colorless
_exptl_crystal_description       block
_cell_formula_units_Z            4
loop_
_atom_site_label
_atom_site_type_symbol
_atom_site_fract_x
_atom_site_fract_y
_atom_site_fract_z
C1 C 0.34954(19) 0.37907(15) 0.30696(12)
H1 H 0.3092 0.3346 0.3633
C2 C 0.3391(2) 0.50147(15) 0.29637(12)
C3 C 0.3984(2) 0.57177(17) 0.21314(14)
H2 H 0.3884 0.6545 0.2100
C4 C 0.4709(3) 0.51905(18) 0.13665(14)
H3 H 0.5114 0.5639 0.0805
C5 C 0.4815(2) 0.39561(17) 0.14655(12)
C6 C 0.42357(19) 0.32492(15) 0.22911(11)
C7 C 0.46214(19) 0.20375(15) 0.20922(11)
C8 C 0.5384(2) 0.20893(17) 0.11952(12)
C9 C 0.6200(3) 0.1161(2) 0.06031(14)
C10 C 0.6968(3) -0.0973(2) 0.05686(18)
H4 H 0.8094 -0.1122 0.0459
H5 H 0.6697 -0.0789 -0.0022
C11 C 0.6470(4) -0.2062(2) 0.1149(2)
H6 H 0.6985 -0.2756 0.0842
H7 H 0.5355 -0.1904 0.1251
H8 H 0.6744 -0.2233 0.1731
C12 C 0.3188(2) -0.06279(18) 0.34908(14)
H9 H 0.3359 -0.1408 0.3311
H10 H 0.2170 -0.0443 0.3918
C13 C 0.4469(2) -0.06805(16) 0.39339(13)
H11 H 0.4059 -0.0662 0.4589
H12 H 0.5313 -0.1423 0.3855
C14 C 0.50359(19) 0.04374(15) 0.34430(12)
C15 C 0.3266(2) 0.03681(16) 0.26622(12)
N1 N 0.26416(18) 0.56245(14) 0.37661(11)
N2 N 0.42946(15) 0.09944(12) 0.27216(9)
O1 O 0.24449(17) 0.67296(11) 0.36669(10)
O2 O 0.2253(2) 0.50003(14) 0.45108(10)
O3 O 0.55055(18) 0.32593(12) 0.07898(8)
O4 O 0.6832(3) 0.13976(19) -0.01896(12)
O5 O 0.61622(17) 0.00449(13) 0.10623(9)
O6 O 0.59900(16) 0.08097(13) 0.35973(9)
O7 O 0.26103(17) 0.06258(13) 0.20513(10)
C16 C 0.9853(2) 0.87045(16) 0.28045(13)
H13 H 1.0045 0.9443 0.2795
C17 C 1.0413(2) 0.81812(17) 0.20285(13)
H14 H 1.0977 0.8549 0.1482
C18 C 1.0094(2) 0.70738(16) 0.21009(12)
C19 C 0.92262(18) 0.65013(15) 0.28998(11)
C20 C 0.91975(19) 0.53900(15) 0.26720(11)
C21 C 1.0026(2) 0.53638(16) 0.17890(12)
C22 C 1.0463(2) 0.44653(18) 0.11737(13)
C23 C 0.9820(4) 0.2770(2) 0.09658(18)
H15 H 0.9454 0.3092 0.0401
H16 H 1.0941 0.2398 0.0803
C24 C 0.9040(3) 0.1874(2) 0.1536(2)
H17 H 0.9280 0.1202 0.1219
H18 H 0.7929 0.2239 0.1671
H19 H 0.9385 0.1577 0.2101
C25 C 0.89987(19) 0.81351(15) 0.36064(12)
C26 C 0.69121(19) 0.47173(16) 0.37087(12)
C27 C 0.9321(2) 0.32475(15) 0.35069(12)
C28 C 0.86505(18) 0.70456(15) 0.36799(12)
H20 H 0.8061 0.6694 0.4224
C29 C 0.6597(2) 0.35317(17) 0.42636(14)
H21 H 0.5882 0.3301 0.4033
H22 H 0.6138 0.3604 0.4907
C30 C 0.8162(2) 0.25936(17) 0.41589(14)
H23 H 0.8436 0.2271 0.4751
H24 H 0.8138 0.1916 0.3911
N3 N 0.84809(18) 0.86998(13) 0.44298(11)
N4 N 0.85028(15) 0.44798(12) 0.32724(9)
O8 O 1.05978(15) 0.63819(12) 0.14247(8)
O9 O 1.1538(2) 0.44155(16) 0.05064(11)
O10 O 0.95003(18) 0.37525(13) 0.14608(9)
O11 O 0.74936(19) 0.83403(13) 0.50773(9)
O12 O 0.90507(17) 0.95109(13) 0.44347(11)
O13 O 0.60072(15) 0.57210(12) 0.36228(10)
O14 O 1.06988(15) 0.28454(12) 0.32152(11)
loop_
_geom_bond_atom_site_label_1
_geom_bond_atom_site_label_2
_geom_bond_site_symmetry_1
_geom_bond_site_symmetry_2
C1 H1 1_555 1_555
C2 C1 1_555 1_555
C3 C2 1_555 1_555
H2 C3 1_555 1_555
C4 C3 1_555 1_555
H3 C4 1_555 1_555
C5 C4 1_555 1_555
C6 C1 1_555 1_555
C7 C6 1_555 1_555
C8 C7 1_555 1_555
C9 C8 1_555 1_555
C10 H4 1_555 1_555
H5 C10 1_555 1_555
C11 C10 1_555 1_555
H6 C11 1_555 1_555
H7 C11 1_555 1_555
H8 C11 1_555 1_555
C12 H9 1_555 1_555
H10 C12 1_555 1_555
C13 C12 1_555 1_555
H11 C13 1_555 1_555
H12 C13 1_555 1_555
C14 C13 1_555 1_555
C15 C12 1_555 1_555
N1 C2 1_555 1_555
N2 C7 1_555 1_555
O1 N1 1_555 1_555
O2 N1 1_555 1_555
O3 C5 1_555 1_555
O4 C9 1_555 1_555
O5 C9 1_555 1_555
O6 C14 1_555 1_555
O7 C15 1_555 1_555
C16 H13 1_555 1_555
C17 C16 1_555 1_555
H14 C17 1_555 1_555
C18 C17 1_555 1_555
C19 C18 1_555 1_555
C20 C19 1_555 1_555
C21 C20 1_555 1_555
C22 C21 1_555 1_555
C23 H15 1_555 1_555
H16 C23 1_555 1_555
C24 C23 1_555 1_555
H17 C24 1_555 1_555
H18 C24 1_555 1_555
H19 C24 1_555 1_555
C25 C16 1_555 1_555
C26 C29 1_555 1_555
C27 C30 1_555 1_555
C28 C19 1_555 1_555
H20 C28 1_555 1_555
C29 H21 1_555 1_555
H22 C29 1_555 1_555
C30 C29 1_555 1_555
H23 C30 1_555 1_555
H24 C30 1_555 1_555
N3 C25 1_555 1_555
N4 C20 1_555 1_555
O8 C18 1_555 1_555
O9 C22 1_555 1_555
O10 C22 1_555 1_555
O11 N3 1_555 1_555
O12 N3 1_555 1_555
O13 C26 1_555 1_555
O14 C27 1_555 1_555
C5 C6 1_555 1_555
C8 O3 1_555 1_555
C10 O5 1_555 1_555
C14 N2 1_555 1_555
C15 N2 1_555 1_555
C21 O8 1_555 1_555
C23 O10 1_555 1_555
C25 C28 1_555 1_555
C26 N4 1_555 1_555
C27 N4 1_555 1_555

#END
