
#######################################################################
#
#                 Cambridge Crystallographic Data Centre
#                                CCDC 
#
#######################################################################
#
# If this CIF has been generated from an entry in the Cambridge 
# Structural Database, then it will include bibliographic, chemical, 
# crystal, experimental, refinement or atomic coordinate data resulting 
# from the CCDC's data processing and validation procedures.
#
#######################################################################

data_LEXZUL
_chemical_formula_moiety         'C33 H27 N3'
_chemical_name_systematic        
((7-(Diphenylamino)-9,9-diethyl-9H-fluoren-2-yl)methylene)malononitrile
_symmetry_cell_setting           triclinic
_symmetry_space_group_name_H-M   'P -1'
_symmetry_Int_Tables_number      2
_space_group_name_Hall           '-P 1'
loop_
_symmetry_equiv_pos_site_id
_symmetry_equiv_pos_as_xyz
1 x,y,z
2 -x,-y,-z
_cell_length_a                   8.3392(13)
_cell_length_b                   10.0974(16)
_cell_length_c                   15.684(3)
_cell_angle_alpha                98.756(2)
_cell_angle_beta                 101.508(2)
_cell_angle_gamma                97.415(2)
_cell_volume                     1261.58
_exptl_crystal_colour            colorless
_exptl_crystal_description       prism
_cell_formula_units_Z            2
loop_
_atom_site_label
_atom_site_type_symbol
_atom_site_fract_x
_atom_site_fract_y
_atom_site_fract_z
N1 N 0.9290(3) 1.1091(3) 0.05323(18)
N2 N 0.6199(5) 1.0899(4) -0.20810(19)
C1 C 0.8878(3) 0.6683(2) 0.19884(14)
C2 C 0.7452(3) 0.6899(2) 0.12662(14)
N3 N 0.8244(2) 0.31717(19) 0.39376(12)
C3 C 0.7497(3) 0.7719(2) 0.06437(15)
H1 H 0.8515 0.8240 0.0620
C4 C 0.6013(3) 0.7780(2) 0.00391(14)
C5 C 0.4526(3) 0.6999(2) 0.00891(15)
H2 H 0.3533 0.7026 -0.0323
C6 C 0.4471(3) 0.6196(2) 0.07196(15)
H3 H 0.3451 0.5688 0.0751
C7 C 0.5943(3) 0.6142(2) 0.13127(14)
C8 C 0.6266(3) 0.5340(2) 0.20093(14)
C9 C 0.5215(3) 0.4387(2) 0.22841(14)
H4 H 0.4056 0.4219 0.2035
C10 C 0.5887(3) 0.3686(2) 0.29264(14)
H5 H 0.5184 0.3020 0.3109
C11 C 0.7590(3) 0.3950(2) 0.33084(14)
C12 C 0.8629(3) 0.4947(2) 0.30576(14)
H6 H 0.9777 0.5156 0.3334
C13 C 0.7972(2) 0.5626(2) 0.24020(14)
C14 C 1.0301(3) 0.6153(2) 0.16204(15)
H7 H 1.0687 0.6784 0.1251
H8 H 1.1239 0.6170 0.2123
C15 C 0.9858(3) 0.4722(2) 0.10696(15)
H9 H 0.8899 0.4679 0.0583
H10 H 0.9585 0.4072 0.1444
H11 H 1.0805 0.4495 0.0827
C16 C 0.9588(3) 0.8015(2) 0.26676(15)
H12 H 1.0446 0.7818 0.3145
H13 H 1.0144 0.8674 0.2368
C17 C 0.8335(3) 0.8682(2) 0.30873(16)
H14 H 0.7745 0.8033 0.3370
H15 H 0.7539 0.8968 0.2630
H16 H 0.8912 0.9478 0.3533
C18 C 0.9675(3) 0.2597(2) 0.38607(15)
C19 C 1.0035(3) 0.2257(2) 0.30288(16)
H17 H 0.9298 0.2397 0.2517
C20 C 1.1451(3) 0.1721(2) 0.29435(19)
H18 H 1.1683 0.1502 0.2374
C21 C 1.2531(3) 0.1499(2) 0.36790(19)
H19 H 1.3511 0.1142 0.3620
C22 C 1.2166(3) 0.1806(2) 0.45045(18)
H20 H 1.2891 0.1635 0.5011
C23 C 1.0761(3) 0.2357(2) 0.46023(16)
H21 H 1.0536 0.2571 0.5173
C24 C 0.7491(3) 0.3073(2) 0.46738(14)
C25 C 0.7161(3) 0.1840(2) 0.49486(15)
H22 H 0.7403 0.1035 0.4635
C26 C 0.6477(3) 0.1790(2) 0.56834(16)
H23 H 0.6279 0.0952 0.5880
C27 C 0.6080(3) 0.2953(3) 0.61326(15)
H24 H 0.5610 0.2914 0.6634
C28 C 0.6374(3) 0.4168(3) 0.58422(16)
H25 H 0.6092 0.4964 0.6142
C29 C 0.7078(3) 0.4235(2) 0.51186(15)
H26 H 0.7279 0.5076 0.4926
C30 C 0.5998(3) 0.86114(19) -0.06215(15)
H27 H 0.5171 0.8223 -0.1141
C31 C 0.6823(4) 0.9774(3) -0.07040(17)
C32 C 0.8209(4) 1.0486(4) -0.0014(2)
C33 C 0.6463(5) 1.0393(4) -0.1474(2)
N1A N 0.0710(3) 0.8909(3) -0.05323(18)
N2A N 0.3801(5) 0.9101(4) 0.20810(19)
C1A C 0.1122(3) 1.3317(2) -0.19884(14)
C2A C 0.2548(3) 1.3101(2) -0.12662(14)
N3A N 0.1756(2) 1.68283(19) -0.39376(12)
C3A C 0.2503(3) 1.2281(2) -0.06437(15)
H1A H 0.1485 1.1760 -0.0620
C4A C 0.3987(3) 1.2220(2) -0.00391(14)
C5A C 0.5474(3) 1.3001(2) -0.00891(15)
H2A H 0.6467 1.2974 0.0323
C6A C 0.5529(3) 1.3804(2) -0.07196(15)
H3A H 0.6549 1.4312 -0.0751
C7A C 0.4057(3) 1.3858(2) -0.13127(14)
C8A C 0.3734(3) 1.4660(2) -0.20093(14)
C9A C 0.4785(3) 1.5613(2) -0.22841(14)
H4A H 0.5944 1.5781 -0.2035
C10A C 0.4113(3) 1.6314(2) -0.29264(14)
H5A H 0.4816 1.6980 -0.3109
C11A C 0.2410(3) 1.6050(2) -0.33084(14)
C12A C 0.1371(3) 1.5053(2) -0.30576(14)
H6A H 0.0223 1.4844 -0.3334
C13A C 0.2028(2) 1.4374(2) -0.24020(14)
C14A C -0.0301(3) 1.3847(2) -0.16204(15)
H7A H -0.0687 1.3216 -0.1251
H8A H -0.1239 1.3830 -0.2123
C15A C 0.0142(3) 1.5278(2) -0.10696(15)
H9A H 0.1101 1.5321 -0.0583
H10A H 0.0415 1.5928 -0.1444
H11A H -0.0805 1.5505 -0.0827
C16A C 0.0412(3) 1.1985(2) -0.26676(15)
H12A H -0.0446 1.2182 -0.3145
H13A H -0.0144 1.1326 -0.2368
C17A C 0.1665(3) 1.1318(2) -0.30873(16)
H14A H 0.2255 1.1967 -0.3370
H15A H 0.2461 1.1032 -0.2630
H16A H 0.1088 1.0522 -0.3533
C18A C 0.0325(3) 1.7403(2) -0.38607(15)
C19A C -0.0035(3) 1.7743(2) -0.30288(16)
H17A H 0.0702 1.7603 -0.2517
C20A C -0.1451(3) 1.8279(2) -0.29435(19)
H18A H -0.1683 1.8498 -0.2374
C21A C -0.2531(3) 1.8501(2) -0.36790(19)
H19A H -0.3511 1.8858 -0.3620
C22A C -0.2166(3) 1.8194(2) -0.45045(18)
H20A H -0.2891 1.8365 -0.5011
C23A C -0.0761(3) 1.7643(2) -0.46023(16)
H21A H -0.0536 1.7429 -0.5173
C24A C 0.2509(3) 1.6927(2) -0.46738(14)
C25A C 0.2839(3) 1.8160(2) -0.49486(15)
H22A H 0.2597 1.8965 -0.4635
C26A C 0.3523(3) 1.8210(2) -0.56834(16)
H23A H 0.3721 1.9048 -0.5880
C27A C 0.3920(3) 1.7047(3) -0.61326(15)
H24A H 0.4390 1.7086 -0.6634
C28A C 0.3626(3) 1.5832(3) -0.58422(16)
H25A H 0.3908 1.5036 -0.6142
C29A C 0.2922(3) 1.5765(2) -0.51186(15)
H26A H 0.2721 1.4924 -0.4926
C30A C 0.4002(3) 1.13886(19) 0.06215(15)
H27A H 0.4829 1.1777 0.1141
C31A C 0.3177(4) 1.0226(3) 0.07040(17)
C32A C 0.1791(4) 0.9514(4) 0.0014(2)
C33A C 0.3537(5) 0.9607(4) 0.1474(2)
N4? N 0.1881(4) 0.8847(5) -0.1034(3)
N5? N 0.5835(8) 1.0622(5) -0.2245(3)
H28? H 0.7097 0.8824 -0.0717
C34? C 0.4952(4) 0.9167(4) -0.1145(3)
C35? C 0.3250(4) 0.8960(5) -0.1068(4)
C36? C 0.5517(7) 0.9987(5) -0.1737(3)
loop_
_geom_bond_atom_site_label_1
_geom_bond_atom_site_label_2
_geom_bond_site_symmetry_1
_geom_bond_site_symmetry_2
N1 C32 1_555 1_555
N2 C33 1_555 1_555
C1 C2 1_555 1_555
C2 C3 1_555 1_555
N3 C11 1_555 1_555
C3 H1 1_555 1_555
C4 C3 1_555 1_555
C5 C4 1_555 1_555
H2 C5 1_555 1_555
C6 C5 1_555 1_555
H3 C6 1_555 1_555
C7 C2 1_555 1_555
C8 C7 1_555 1_555
C9 C8 1_555 1_555
H4 C9 1_555 1_555
C10 C9 1_555 1_555
H5 C10 1_555 1_555
C11 C10 1_555 1_555
C12 C11 1_555 1_555
H6 C12 1_555 1_555
C13 C1 1_555 1_555
C14 C1 1_555 1_555
H7 C14 1_555 1_555
H8 C14 1_555 1_555
C15 C14 1_555 1_555
H9 C15 1_555 1_555
H10 C15 1_555 1_555
H11 C15 1_555 1_555
C16 C1 1_555 1_555
H12 C16 1_555 1_555
H13 C16 1_555 1_555
C17 C16 1_555 1_555
H14 C17 1_555 1_555
H15 C17 1_555 1_555
H16 C17 1_555 1_555
C18 N3 1_555 1_555
C19 C18 1_555 1_555
H17 C19 1_555 1_555
C20 C19 1_555 1_555
H18 C20 1_555 1_555
C21 C20 1_555 1_555
H19 C21 1_555 1_555
C22 C21 1_555 1_555
H20 C22 1_555 1_555
C23 C18 1_555 1_555
H21 C23 1_555 1_555
C24 N3 1_555 1_555
C25 C24 1_555 1_555
H22 C25 1_555 1_555
C26 C25 1_555 1_555
H23 C26 1_555 1_555
C27 C26 1_555 1_555
H24 C27 1_555 1_555
C28 C27 1_555 1_555
H25 C28 1_555 1_555
C29 C24 1_555 1_555
H26 C29 1_555 1_555
C30 C4 1_555 1_555
H27 C30 1_555 1_555
C31 C30 1_555 1_555
C32 C31 1_555 1_555
C33 C31 1_555 1_555
N1A C32A 1_555 1_555
N2A C33A 1_555 1_555
C1A C2A 1_555 1_555
C2A C3A 1_555 1_555
N3A C11A 1_555 1_555
C3A H1A 1_555 1_555
C4A C3A 1_555 1_555
C5A C4A 1_555 1_555
H2A C5A 1_555 1_555
C6A C5A 1_555 1_555
H3A C6A 1_555 1_555
C7A C2A 1_555 1_555
C8A C7A 1_555 1_555
C9A C8A 1_555 1_555
H4A C9A 1_555 1_555
C10A C9A 1_555 1_555
H5A C10A 1_555 1_555
C11A C10A 1_555 1_555
C12A C11A 1_555 1_555
H6A C12A 1_555 1_555
C13A C1A 1_555 1_555
C14A C1A 1_555 1_555
H7A C14A 1_555 1_555
H8A C14A 1_555 1_555
C15A C14A 1_555 1_555
H9A C15A 1_555 1_555
H10A C15A 1_555 1_555
H11A C15A 1_555 1_555
C16A C1A 1_555 1_555
H12A C16A 1_555 1_555
H13A C16A 1_555 1_555
C17A C16A 1_555 1_555
H14A C17A 1_555 1_555
H15A C17A 1_555 1_555
H16A C17A 1_555 1_555
C18A N3A 1_555 1_555
C19A C18A 1_555 1_555
H17A C19A 1_555 1_555
C20A C19A 1_555 1_555
H18A C20A 1_555 1_555
C21A C20A 1_555 1_555
H19A C21A 1_555 1_555
C22A C21A 1_555 1_555
H20A C22A 1_555 1_555
C23A C18A 1_555 1_555
H21A C23A 1_555 1_555
C24A N3A 1_555 1_555
C25A C24A 1_555 1_555
H22A C25A 1_555 1_555
C26A C25A 1_555 1_555
H23A C26A 1_555 1_555
C27A C26A 1_555 1_555
H24A C27A 1_555 1_555
C28A C27A 1_555 1_555
H25A C28A 1_555 1_555
C29A C24A 1_555 1_555
H26A C29A 1_555 1_555
C30A C4A 1_555 1_555
H27A C30A 1_555 1_555
C31A C30A 1_555 1_555
C32A C31A 1_555 1_555
C33A C31A 1_555 1_555
C6 C7 1_555 1_555
C8 C13 1_555 1_555
C12 C13 1_555 1_555
C22 C23 1_555 1_555
C28 C29 1_555 1_555
C6A C7A 1_555 1_555
C8A C13A 1_555 1_555
C12A C13A 1_555 1_555
C22A C23A 1_555 1_555
C28A C29A 1_555 1_555

#END
