
#######################################################################
#
#                 Cambridge Crystallographic Data Centre
#                                CCDC 
#
#######################################################################
#
# If this CIF has been generated from an entry in the Cambridge 
# Structural Database, then it will include bibliographic, chemical, 
# crystal, experimental, refinement or atomic coordinate data resulting 
# from the CCDC's data processing and validation procedures.
#
#######################################################################

data_LEXZOF
_chemical_formula_moiety         'C34 H29 N3'
_chemical_name_systematic        
(1-(7-(Diphenylamino)-9,9-diethyl-9H-fluoren-2-yl)ethylidene)malononitrile
_symmetry_cell_setting           triclinic
_symmetry_space_group_name_H-M   'P -1'
_symmetry_Int_Tables_number      2
_space_group_name_Hall           '-P 1'
loop_
_symmetry_equiv_pos_site_id
_symmetry_equiv_pos_as_xyz
1 x,y,z
2 -x,-y,-z
_cell_length_a                   8.7255(12)
_cell_length_b                   10.8750(15)
_cell_length_c                   15.855(2)
_cell_angle_alpha                98.469(2)
_cell_angle_beta                 101.687(2)
_cell_angle_gamma                110.096(2)
_cell_volume                     1344.57
_exptl_crystal_colour            green
_exptl_crystal_description       needle
_cell_formula_units_Z            2
loop_
_atom_site_label
_atom_site_type_symbol
_atom_site_fract_x
_atom_site_fract_y
_atom_site_fract_z
N1 N 1.31959(18) 0.91803(15) 0.42750(10)
N2 N 1.6045(2) 1.35056(17) 0.48521(12)
N3 N 0.21234(16) 0.31134(13) 0.15352(9)
C1 C 0.7855(2) 0.69282(15) 0.22300(10)
C2 C 0.8297(2) 0.83312(15) 0.27924(10)
C3 C 0.9830(2) 0.94226(15) 0.30634(10)
H1 H 1.0763 0.9381 0.2856
C4 C 0.9997(2) 1.05973(15) 0.36490(10)
C5 C 0.8590(2) 1.06670(16) 0.39137(11)
H2 H 0.8692 1.1474 0.4289
C6 C 0.7053(2) 0.95806(16) 0.36375(10)
H3 H 0.6106 0.9634 0.3826
C7 C 0.6905(2) 0.84059(15) 0.30795(10)
C8 C 0.5477(2) 0.71075(15) 0.27201(10)
C9 C 0.3841(2) 0.66768(16) 0.28127(11)
H4 H 0.3483 0.7274 0.3145
C10 C 0.2740(2) 0.53586(16) 0.24110(11)
H5 H 0.1619 0.5049 0.2474
C11 C 0.3253(2) 0.44786(15) 0.19149(11)
C12 C 0.4895(2) 0.49261(15) 0.18093(10)
H6 H 0.5241 0.4339 0.1459
C13 C 0.6005(2) 0.62336(15) 0.22211(10)
C14 C 0.8969(2) 0.62403(17) 0.26814(12)
H7 H 0.8604 0.5316 0.2317
H8 H 1.0158 0.6740 0.2686
C15 C 0.8921(3) 0.61535(19) 0.36279(13)
H9 H 0.7755 0.5639 0.3632
H10 H 0.9319 0.7064 0.4003
H11 H 0.9657 0.5702 0.3857
C16 C 0.8064(2) 0.69455(17) 0.12915(11)
H12 H 0.9274 0.7458 0.1340
H13 H 0.7766 0.6008 0.0967
C17 C 0.7005(3) 0.7552(2) 0.07522(12)
H14 H 0.7315 0.8491 0.1056
H15 H 0.5801 0.7040 0.0685
H16 H 0.7213 0.7520 0.0166
C18 C 0.2688(2) 0.20587(15) 0.16646(11)
C19 C 0.4009(2) 0.22258(17) 0.23886(11)
H17 H 0.4571 0.3068 0.2809
C20 C 0.4503(2) 0.11669(18) 0.24961(12)
H18 H 0.5411 0.1292 0.2990
C21 C 0.3695(2) -0.00745(18) 0.18962(13)
H19 H 0.4027 -0.0803 0.1982
C22 C 0.2399(2) -0.02341(17) 0.11719(12)
H20 H 0.1841 -0.1078 0.0753
C23 C 0.1907(2) 0.08170(16) 0.10505(11)
H21 H 0.1026 0.0695 0.0543
C24 C 0.0348(2) 0.28119(16) 0.12365(11)
C25 C -0.0239(2) 0.35237(16) 0.06797(11)
H22 H 0.0542 0.4204 0.0491
C26 C -0.1965(2) 0.32434(18) 0.03983(13)
H23 H -0.2357 0.3738 0.0021
C27 C -0.3115(2) 0.22508(19) 0.06636(13)
H24 H -0.4293 0.2067 0.0475
C28 C -0.2535(2) 0.15285(19) 0.12047(13)
H25 H -0.3323 0.0829 0.1376
C29 C -0.0815(2) 0.18129(17) 0.15008(11)
H26 H -0.0429 0.1324 0.1885
C30 C 1.1654(2) 1.17428(16) 0.40109(10)
C31 C 1.1695(2) 1.31410(16) 0.40568(12)
H27 H 1.0990 1.3310 0.4432
H28 H 1.1257 1.3232 0.3459
H29 H 1.2866 1.3795 0.4309
C32 C 1.3103(2) 1.15362(16) 0.42965(11)
C33 C 1.3132(2) 1.02186(18) 0.42820(10)
C34 C 1.4743(2) 1.26374(18) 0.46173(12)
loop_
_geom_bond_atom_site_label_1
_geom_bond_atom_site_label_2
_geom_bond_site_symmetry_1
_geom_bond_site_symmetry_2
N1 C33 1_555 1_555
N2 C34 1_555 1_555
N3 C11 1_555 1_555
C1 C2 1_555 1_555
C2 C3 1_555 1_555
C3 H1 1_555 1_555
C4 C3 1_555 1_555
C5 C4 1_555 1_555
H2 C5 1_555 1_555
C6 C5 1_555 1_555
H3 C6 1_555 1_555
C7 C2 1_555 1_555
C8 C7 1_555 1_555
C9 C8 1_555 1_555
H4 C9 1_555 1_555
C10 C9 1_555 1_555
H5 C10 1_555 1_555
C11 C10 1_555 1_555
C12 C11 1_555 1_555
H6 C12 1_555 1_555
C13 C1 1_555 1_555
C14 C1 1_555 1_555
H7 C14 1_555 1_555
H8 C14 1_555 1_555
C15 C14 1_555 1_555
H9 C15 1_555 1_555
H10 C15 1_555 1_555
H11 C15 1_555 1_555
C16 C1 1_555 1_555
H12 C16 1_555 1_555
H13 C16 1_555 1_555
C17 C16 1_555 1_555
H14 C17 1_555 1_555
H15 C17 1_555 1_555
H16 C17 1_555 1_555
C18 N3 1_555 1_555
C19 C18 1_555 1_555
H17 C19 1_555 1_555
C20 C19 1_555 1_555
H18 C20 1_555 1_555
C21 C20 1_555 1_555
H19 C21 1_555 1_555
C22 C21 1_555 1_555
H20 C22 1_555 1_555
C23 C18 1_555 1_555
H21 C23 1_555 1_555
C24 N3 1_555 1_555
C25 C24 1_555 1_555
H22 C25 1_555 1_555
C26 C25 1_555 1_555
H23 C26 1_555 1_555
C27 C26 1_555 1_555
H24 C27 1_555 1_555
C28 C27 1_555 1_555
H25 C28 1_555 1_555
C29 C24 1_555 1_555
H26 C29 1_555 1_555
C30 C4 1_555 1_555
C31 C30 1_555 1_555
H27 C31 1_555 1_555
H28 C31 1_555 1_555
H29 C31 1_555 1_555
C32 C30 1_555 1_555
C33 C32 1_555 1_555
C34 C32 1_555 1_555
C6 C7 1_555 1_555
C8 C13 1_555 1_555
C12 C13 1_555 1_555
C22 C23 1_555 1_555
C28 C29 1_555 1_555

#END
