
#######################################################################
#
#                 Cambridge Crystallographic Data Centre
#                                CCDC 
#
#######################################################################
#
# If this CIF has been generated from an entry in the Cambridge 
# Structural Database, then it will include bibliographic, chemical, 
# crystal, experimental, refinement or atomic coordinate data resulting 
# from the CCDC's data processing and validation procedures.
#
#######################################################################

data_LEYDEY10
_chemical_formula_moiety         'C27 H58 B1 Ba1 I1 N12 O2 P2'
_chemical_name_systematic        
(Hydridotris(3,5-dimethylpyrazolyl)borato)-bis(hexamethylphosphoramido)-iodo-barium
_symmetry_cell_setting           monoclinic
_symmetry_space_group_name_H-M   'C 2/c'
_symmetry_Int_Tables_number      15
_space_group_name_Hall           '-C 2yn'
loop_
_symmetry_equiv_pos_site_id
_symmetry_equiv_pos_as_xyz
1 x,y,z
2 -x,y,1/2-z
3 1/2+x,1/2+y,z
4 1/2-x,1/2+y,1/2-z
5 -x,-y,-z
6 x,-y,1/2+z
7 1/2-x,1/2-y,-z
8 1/2+x,1/2-y,1/2+z
_cell_length_a                   44.01(1)
_cell_length_b                   11.479(9)
_cell_length_c                   17.691(6)
_cell_angle_alpha                90
_cell_angle_beta                 100.63(3)
_cell_angle_gamma                90
_cell_volume                     8783.96
_cell_formula_units_Z            8
_chemical_properties_physical    'Highly hygroscopic'
loop_
_atom_site_label
_atom_site_type_symbol
_atom_site_fract_x
_atom_site_fract_y
_atom_site_fract_z
H1 H 0.40810 0.43570 0.75040
H2 H 0.39030 0.34390 0.79760
H3 H 0.37810 0.47360 0.78220
H4 H 0.44480 0.11660 0.72120
H5 H 0.44080 0.21420 0.78580
H6 H 0.47060 0.21630 0.74490
H7 H 0.42230 0.15010 0.77570
H8 H 0.42560 0.07470 0.69940
H9 H 0.40940 0.01770 0.76580
H10 H 0.34600 0.12230 0.68310
H11 H 0.36290 0.18280 0.76360
H12 H 0.36160 0.04440 0.75460
H13 H 0.27500 -0.17810 0.30800
H14 H 0.25460 -0.18530 0.37620
H15 H 0.27700 -0.29130 0.36270
H16 H 0.24950 0.16090 0.38010
H17 H 0.23380 0.03380 0.38910
H18 H 0.22570 0.10600 0.31360
H19 H 0.27960 -0.01300 0.26660
H20 H 0.28510 0.12430 0.28920
H21 H 0.25260 0.07850 0.24720
H22 H 0.28090 -0.12670 0.54340
H23 H 0.24880 -0.06630 0.49990
H24 H 0.26230 -0.04110 0.58650
H25 H 0.27590 0.17020 0.50520
H26 H 0.31000 0.12800 0.54950
H27 H 0.28100 0.11900 0.58840
H28 H 0.46320 -0.10930 0.45780
H29 H 0.38260 -0.06320 0.46920
H30 H 0.40000 0.00600 0.54570
H31 H 0.40790 -0.12730 0.53180
H32 H 0.50250 0.12900 0.38590
H33 H 0.48480 0.06120 0.30910
H34 H 0.50730 -0.00730 0.37540
H35 H 0.45670 0.61280 0.46250
H36 H 0.39180 0.49310 0.53600
H37 H 0.37460 0.55070 0.45490
H38 H 0.39730 0.62710 0.51700
H39 H 0.48380 0.44290 0.32160
H40 H 0.50000 0.38070 0.40200
H41 H 0.50350 0.51840 0.39000
H42 H 0.37530 0.26680 0.09820
H43 H 0.32400 0.31670 0.23330
H44 H 0.32470 0.17500 0.22540
H45 H 0.31590 0.25560 0.15080
H46 H 0.45580 0.19990 0.18810
H47 H 0.45260 0.34150 0.19070
H48 H 0.44320 0.27210 0.11100
H49 H 0.45870 0.25960 0.32270
H50 H 0.33170 0.36490 0.63960
H51 H 0.35500 0.45560 0.60790
H52 H 0.33890 0.48980 0.67880
H53 H 0.43700 0.34590 0.57850
H54 H 0.44360 0.20620 0.58830
H55 H 0.46890 0.29810 0.62180
H56 H 0.32510 -0.17170 0.51010
H57 H 0.34350 -0.16030 0.43820
H58 H 0.32710 -0.28020 0.45420
Ba1 Ba 0.36180(6) 0.23940(27) 0.42520(13)
I1 I 0.30590(10) 0.44660(36) 0.38410(29)
P1 P 0.38960(28) 0.2530(13) 0.65570(61)
P2 P 0.29640(29) 0.0026(13) 0.41350(79)
N1 N 0.4398(11) 0.1382(36) 0.3894(25)
N2 N 0.41760(87) 0.1085(33) 0.4243(23)
C1 C 0.4233(13) 0.0076(47) 0.4577(26)
C2 C 0.4516(15) -0.0321(44) 0.4445(32)
C3 C 0.4610(12) 0.0494(50) 0.4003(26)
C4 C 0.4045(12) -0.0547(44) 0.5030(31)
C5 C 0.4903(13) 0.0550(49) 0.3683(32)
N3 N 0.4362(10) 0.3642(32) 0.3923(22)
N4 N 0.41100(81) 0.3901(30) 0.4228(23)
C6 C 0.4183(13) 0.4966(47) 0.4556(34)
C7 C 0.4467(17) 0.5311(45) 0.4406(31)
C8 C 0.4574(11) 0.4447(66) 0.4068(32)
C9 C 0.3956(12) 0.5451(46) 0.4912(26)
C10 C 0.4872(12) 0.4480(42) 0.3792(28)
N5 N 0.41120(57) 0.2517(32) 0.2684(15)
N6 N 0.38140(74) 0.2453(34) 0.2797(20)
C11 C 0.36370(95) 0.2586(46) 0.2114(17)
C12 C 0.38250(90) 0.2626(46) 0.1572(22)
C13 C 0.41180(97) 0.2550(51) 0.1939(16)
C14 C 0.33050(89) 0.2484(50) 0.2019(18)
C15 C 0.44190(80) 0.2642(52) 0.1658(22)
B1 B 0.43810(88) 0.2523(74) 0.3445(29)
O1 O 0.37500(53) 0.2378(23) 0.5719(16)
O2 O 0.32220(59) 0.0624(23) 0.4041(17)
N7 N 0.37520(99) 0.3552(40) 0.6928(27)
N8 N 0.42550(95) 0.2781(37) 0.6697(23)
N9 N 0.3856(11) 0.1379(43) 0.6997(29)
N10 N 0.2997(10) -0.1350(39) 0.4148(25)
N11 N 0.27210(98) 0.0318(35) 0.3584(24)
N12 N 0.28660(95) 0.0194(40) 0.4887(27)
C16 C 0.3495(12) 0.4191(44) 0.6554(29)
C17 C 0.3874(13) 0.4071(54) 0.7581(36)
C18 C 0.4450(11) 0.2855(43) 0.6210(27)
C19 C 0.4479(13) 0.2005(52) 0.7360(33)
C20 C 0.4120(14) 0.0915(52) 0.7376(33)
C21 C 0.3642(16) 0.1182(60) 0.7264(40)
C22 C 0.3249(12) -0.1902(45) 0.4515(28)
C23 C 0.2749(13) -0.2045(50) 0.3618(32)
C24 C 0.2437(14) 0.0843(54) 0.3545(33)
C25 C 0.2706(14) 0.0569(58) 0.2881(37)
C26 C 0.2688(13) -0.0524(56) 0.5358(34)
C27 C 0.2875(13) 0.1077(53) 0.5377(33)
loop_
_geom_bond_atom_site_label_1
_geom_bond_atom_site_label_2
_geom_bond_site_symmetry_1
_geom_bond_site_symmetry_2
H1 C17 1_555 1_555
H2 C17 1_555 1_555
H3 C17 1_555 1_555
H4 C19 1_555 1_555
H5 C19 1_555 1_555
H6 C19 1_555 1_555
H7 C20 1_555 1_555
H8 C20 1_555 1_555
H9 C20 1_555 1_555
H10 C21 1_555 1_555
H11 C21 1_555 1_555
H12 C21 1_555 1_555
H13 C23 1_555 1_555
H14 C23 1_555 1_555
H15 C23 1_555 1_555
H16 C24 1_555 1_555
H17 C24 1_555 1_555
H18 C24 1_555 1_555
H19 C25 1_555 1_555
H20 C25 1_555 1_555
H21 C25 1_555 1_555
H22 C26 1_555 1_555
H23 C26 1_555 1_555
H24 C26 1_555 1_555
H25 C27 1_555 1_555
H26 C27 1_555 1_555
H27 C27 1_555 1_555
H28 C2 1_555 1_555
H29 C4 1_555 1_555
H30 C4 1_555 1_555
H31 C4 1_555 1_555
H32 C5 1_555 1_555
H33 C5 1_555 1_555
H34 C5 1_555 1_555
H35 C7 1_555 1_555
H36 C9 1_555 1_555
H37 C9 1_555 1_555
H38 C9 1_555 1_555
H39 C10 1_555 1_555
H40 C10 1_555 1_555
H41 C10 1_555 1_555
H42 C12 1_555 1_555
H43 C14 1_555 1_555
H44 C14 1_555 1_555
H45 C14 1_555 1_555
H46 C15 1_555 1_555
H47 C15 1_555 1_555
H48 C15 1_555 1_555
H49 B1 1_555 1_555
H50 C16 1_555 1_555
H51 C16 1_555 1_555
H52 C16 1_555 1_555
H53 C18 1_555 1_555
H54 C18 1_555 1_555
H55 C18 1_555 1_555
H56 C22 1_555 1_555
H57 C22 1_555 1_555
H58 C22 1_555 1_555
Ba1 I1 1_555 1_555
P1 O1 1_555 1_555
P2 O2 1_555 1_555
N1 N2 1_555 1_555
N2 Ba1 1_555 1_555
C1 N2 1_555 1_555
C2 C1 1_555 1_555
C3 N1 1_555 1_555
C4 C1 1_555 1_555
C5 C3 1_555 1_555
N3 N4 1_555 1_555
N4 Ba1 1_555 1_555
C6 N4 1_555 1_555
C7 C6 1_555 1_555
C8 N3 1_555 1_555
C9 C6 1_555 1_555
C10 C8 1_555 1_555
N5 N6 1_555 1_555
N6 Ba1 1_555 1_555
C11 N6 1_555 1_555
C12 C11 1_555 1_555
C13 N5 1_555 1_555
C14 C11 1_555 1_555
C15 C13 1_555 1_555
B1 N1 1_555 1_555
O1 Ba1 1_555 1_555
O2 Ba1 1_555 1_555
N7 P1 1_555 1_555
N8 P1 1_555 1_555
N9 P1 1_555 1_555
N10 P2 1_555 1_555
N11 P2 1_555 1_555
N12 P2 1_555 1_555
C16 N7 1_555 1_555
C17 N7 1_555 1_555
C18 N8 1_555 1_555
C19 N8 1_555 1_555
C20 N9 1_555 1_555
C21 N9 1_555 1_555
C22 N10 1_555 1_555
C23 N10 1_555 1_555
C24 N11 1_555 1_555
C25 N11 1_555 1_555
C26 N12 1_555 1_555
C27 N12 1_555 1_555
C2 C3 1_555 1_555
N3 B1 1_555 1_555
C7 C8 1_555 1_555
N5 B1 1_555 1_555
C12 C13 1_555 1_555

#END
