
#######################################################################
#
#                 Cambridge Crystallographic Data Centre
#                                CCDC 
#
#######################################################################
#
# If this CIF has been generated from an entry in the Cambridge 
# Structural Database, then it will include bibliographic, chemical, 
# crystal, experimental, refinement or atomic coordinate data resulting 
# from the CCDC's data processing and validation procedures.
#
#######################################################################

data_LEYGEB
_chemical_formula_moiety         'C37 H31 P3 S2'
_chemical_name_systematic        
2-Diphenylphosphino-1,1,3,3-tetraphenyl-1,3-diphosphapropane-1,2-dithione
_symmetry_cell_setting           monoclinic
_symmetry_space_group_name_H-M   'P 21/n'
_symmetry_Int_Tables_number      14
_space_group_name_Hall           '-P 2yn'
loop_
_symmetry_equiv_pos_site_id
_symmetry_equiv_pos_as_xyz
1 x,y,z
2 1/2-x,1/2+y,1/2-z
3 -x,-y,-z
4 1/2+x,1/2-y,1/2+z
_cell_length_a                   19.867(9)
_cell_length_b                   18.889(7)
_cell_length_c                   8.828(4)
_cell_angle_alpha                90
_cell_angle_beta                 100.47(5)
_cell_angle_gamma                90
_cell_volume                     3257.71
_exptl_crystal_colour            colorless
_cell_formula_units_Z            4
loop_
_atom_site_label
_atom_site_type_symbol
_atom_site_fract_x
_atom_site_fract_y
_atom_site_fract_z
S1 S 0.1223(1) 0.4129(1) 0.3882(2)
S2 S 0.0861(1) 0.1681(1) 0.7683(2)
P1 P 0.1521(1) 0.3592(1) 0.5757(2)
P2 P 0.0736(1) 0.2110(1) 0.5633(2)
P3 P 0.1845(1) 0.2393(1) 0.3610(2)
H1 H 0.190(4) 0.245(4) 0.607(9)
C1 C 0.1525(4) 0.2617(3) 0.5450(8)
C2 C 0.2399(3) 0.3791(4) 0.6672(8)
C3 C 0.2763(4) 0.3389(4) 0.7864(9)
C4 C 0.3442(4) 0.3570(4) 0.8499(10)
C5 C 0.3733(4) 0.4139(4) 0.7952(9)
C6 C 0.3392(4) 0.4544(4) 0.6794(10)
C7 C 0.2715(4) 0.4373(4) 0.6143(9)
C8 C 0.1015(3) 0.3770(4) 0.7242(8)
C9 C 0.1139(4) 0.3439(4) 0.8652(8)
C10 C 0.0737(4) 0.3588(4) 0.9744(10)
C11 C 0.0217(5) 0.4069(4) 0.9413(11)
C12 C 0.0099(4) 0.4413(5) 0.8034(10)
C13 C 0.0497(4) 0.4271(4) 0.6922(9)
C14 C 0.0613(3) 0.1429(3) 0.4135(8)
C15 C 0.0686(3) 0.0726(3) 0.4580(8)
C16 C 0.0622(4) 0.0197(4) 0.3472(9)
C17 C 0.0502(4) 0.0367(4) 0.1943(9)
C18 C 0.0429(4) 0.1056(4) 0.1473(9)
C19 C 0.0475(3) 0.1587(4) 0.2571(8)
C20 C -0.0016(3) 0.2679(4) 0.5193(8)
C21 C -0.0181(4) 0.3055(4) 0.3831(9)
C22 C -0.0776(4) 0.3465(5) 0.3559(11)
C23 C -0.1195(5) 0.3474(5) 0.4648(11)
C24 C -0.1033(5) 0.3119(4) 0.5997(11)
C25 C -0.0439(4) 0.2711(4) 0.6278(9)
C26 C 0.2663(3) 0.2874(3) 0.3710(8)
C27 C 0.3259(4) 0.2702(4) 0.4714(9)
C28 C 0.3872(4) 0.3039(4) 0.4565(9)
C29 C 0.3870(4) 0.3551(4) 0.3460(9)
C30 C 0.3280(4) 0.3738(4) 0.2503(9)
C31 C 0.2673(4) 0.3389(4) 0.2621(9)
C32 C 0.2215(3) 0.1503(4) 0.4070(8)
C33 C 0.2385(4) 0.1188(4) 0.5483(10)
C34 C 0.2738(4) 0.0528(5) 0.5659(12)
C35 C 0.2895(5) 0.0219(5) 0.4393(12)
C36 C 0.2732(5) 0.0513(5) 0.2987(13)
C37 C 0.2371(4) 0.1162(5) 0.2774(11)
loop_
_geom_bond_atom_site_label_1
_geom_bond_atom_site_label_2
_geom_bond_site_symmetry_1
_geom_bond_site_symmetry_2
S1 P1 1_555 1_555
S2 P2 1_555 1_555
P1 C1 1_555 1_555
P2 C1 1_555 1_555
P3 C1 1_555 1_555
H1 C1 1_555 1_555
C2 P1 1_555 1_555
C3 C2 1_555 1_555
C4 C3 1_555 1_555
C5 C4 1_555 1_555
C6 C5 1_555 1_555
C7 C2 1_555 1_555
C8 P1 1_555 1_555
C9 C8 1_555 1_555
C10 C9 1_555 1_555
C11 C10 1_555 1_555
C12 C11 1_555 1_555
C13 C8 1_555 1_555
C14 P2 1_555 1_555
C15 C14 1_555 1_555
C16 C15 1_555 1_555
C17 C16 1_555 1_555
C18 C17 1_555 1_555
C19 C14 1_555 1_555
C20 P2 1_555 1_555
C21 C20 1_555 1_555
C22 C21 1_555 1_555
C23 C22 1_555 1_555
C24 C23 1_555 1_555
C25 C20 1_555 1_555
C26 P3 1_555 1_555
C27 C26 1_555 1_555
C28 C27 1_555 1_555
C29 C28 1_555 1_555
C30 C29 1_555 1_555
C31 C26 1_555 1_555
C32 P3 1_555 1_555
C33 C32 1_555 1_555
C34 C33 1_555 1_555
C35 C34 1_555 1_555
C36 C35 1_555 1_555
C37 C32 1_555 1_555
C6 C7 1_555 1_555
C12 C13 1_555 1_555
C18 C19 1_555 1_555
C24 C25 1_555 1_555
C30 C31 1_555 1_555
C36 C37 1_555 1_555

#END
