
#######################################################################
#
#                 Cambridge Crystallographic Data Centre
#                                CCDC 
#
#######################################################################
#
# If this CIF has been generated from an entry in the Cambridge 
# Structural Database, then it will include bibliographic, chemical, 
# crystal, experimental, refinement or atomic coordinate data resulting 
# from the CCDC's data processing and validation procedures.
#
#######################################################################

data_LEYQOW
_chemical_formula_moiety         'C22 H16 O4,C2 H6 O1'
_chemical_name_systematic        
'Heptacyclo[10.8.0.0^2,11^.0^3,20^.0^4,19^.0^5,10^.0^13,18^]icosa-5,7,9,13,15,17-hexaene-1,3-dicarboxylic acid ethanol solvate'
_symmetry_cell_setting           triclinic
_symmetry_space_group_name_H-M   'P -1'
_symmetry_Int_Tables_number      2
_space_group_name_Hall           '-P 1'
loop_
_symmetry_equiv_pos_site_id
_symmetry_equiv_pos_as_xyz
1 x,y,z
2 -x,-y,-z
_cell_length_a                   8.4163(17)
_cell_length_b                   9.7021(19)
_cell_length_c                   13.143(3)
_cell_angle_alpha                110.25(3)
_cell_angle_beta                 101.76(3)
_cell_angle_gamma                98.81(3)
_cell_volume                     956.052
_exptl_crystal_colour            colorless
_exptl_crystal_description       Block
_cell_formula_units_Z            2
loop_
_atom_site_label
_atom_site_type_symbol
_atom_site_fract_x
_atom_site_fract_y
_atom_site_fract_z
O1 O 0.4823(2) 0.0526(2) 0.80759(15)
O2 O 0.7330(2) 0.0166(2) 0.86688(18)
H1 H 0.658(5) -0.057(4) 0.901(3)
O3 O 1.1926(2) 0.1127(3) 0.72230(16)
H2 H 1.281(5) 0.089(4) 0.746(3)
O4 O 1.2084(3) 0.2355(3) 0.89975(17)
C1 C 0.7210(3) 0.1854(3) 0.77625(19)
C2 C 0.8114(3) 0.1120(3) 0.68706(19)
H4 H 0.8121 0.0051 0.6678
C3 C 0.9780(3) 0.2345(3) 0.76026(19)
C4 C 0.8878(3) 0.3051(3) 0.84845(19)
H5 H 0.9334 0.3131 0.9256
C5 C 0.8069(3) 0.4339(3) 0.83310(18)
H6 H 0.7922 0.4984 0.9049
C6 C 0.6377(3) 0.3110(3) 0.75814(18)
H7 H 0.5510 0.3241 0.7979
C7 C 0.8020(3) 0.1736(3) 0.59291(19)
H8 H 0.8204 0.1000 0.5261
C8 C 0.9700(3) 0.2991(3) 0.66605(18)
H9 H 1.0603 0.2784 0.6306
C9 C 0.9688(3) 0.4627(3) 0.69991(19)
C10 C 0.8920(3) 0.5286(3) 0.78271(19)
C11 C 0.9000(3) 0.6825(3) 0.8174(2)
H10 H 0.8519 0.7278 0.8742
C12 C 0.9779(4) 0.7701(3) 0.7696(3)
H11 H 0.9815 0.8730 0.7939
C13 C 1.0494(3) 0.7046(3) 0.6865(3)
H12 H 1.0999 0.7621 0.6527
C14 C 1.0463(3) 0.5527(3) 0.6529(2)
H13 H 1.0974 0.5093 0.5974
C15 C 0.5703(3) 0.2956(3) 0.63996(19)
C16 C 0.6495(3) 0.2285(3) 0.55966(19)
C17 C 0.5877(3) 0.2160(3) 0.4501(2)
H14 H 0.6389 0.1700 0.3955
C18 C 0.4502(4) 0.2711(3) 0.4208(2)
H15 H 0.4109 0.2623 0.3468
C19 C 0.3718(3) 0.3383(3) 0.4994(2)
H16 H 0.2805 0.3764 0.4798
C20 C 0.4311(3) 0.3485(3) 0.6085(2)
H17 H 0.3769 0.3917 0.6621
C21 C 0.6321(3) 0.0803(3) 0.81790(19)
C22 C 1.1374(3) 0.1955(3) 0.8025(2)
O5 O 0.5873(3) -0.1668(3) 0.9399(2)
H3 H 0.638(7) -0.173(6) 1.011(5)
C23 C 0.4356(6) -0.2590(6) 0.8882(4)
H18 H 0.4309 -0.3066 0.8091
H19 H 0.3571 -0.1952 0.8924
C24 C 0.3705(5) -0.3772(4) 0.9206(3)
H20 H 0.2586 -0.4283 0.8737
H21 H 0.3695 -0.3347 0.9981
H22 H 0.4398 -0.4481 0.9117
loop_
_geom_bond_atom_site_label_1
_geom_bond_atom_site_label_2
_geom_bond_site_symmetry_1
_geom_bond_site_symmetry_2
O1 C21 1_555 1_555
O2 H1 1_555 1_555
O3 H2 1_555 1_555
O4 C22 1_555 1_555
O5 H3 1_555 1_555
C1 C2 1_555 1_555
C2 H4 1_555 1_555
C3 C2 1_555 1_555
C4 C1 1_555 1_555
H5 C4 1_555 1_555
C5 C4 1_555 1_555
H6 C5 1_555 1_555
C6 C1 1_555 1_555
H7 C6 1_555 1_555
C7 C2 1_555 1_555
H8 C7 1_555 1_555
C8 C3 1_555 1_555
H9 C8 1_555 1_555
C9 C8 1_555 1_555
C10 C5 1_555 1_555
C11 C10 1_555 1_555
H10 C11 1_555 1_555
C12 C11 1_555 1_555
H11 C12 1_555 1_555
C13 C12 1_555 1_555
H12 C13 1_555 1_555
C14 C9 1_555 1_555
H13 C14 1_555 1_555
C15 C6 1_555 1_555
C16 C7 1_555 1_555
C17 C16 1_555 1_555
H14 C17 1_555 1_555
C18 C17 1_555 1_555
H15 C18 1_555 1_555
C19 C18 1_555 1_555
H16 C19 1_555 1_555
C20 C15 1_555 1_555
H17 C20 1_555 1_555
C21 O2 1_555 1_555
C22 O3 1_555 1_555
C23 O5 1_555 1_555
H18 C23 1_555 1_555
H19 C23 1_555 1_555
C24 C23 1_555 1_555
H20 C24 1_555 1_555
H21 C24 1_555 1_555
H22 C24 1_555 1_555
C1 C21 1_555 1_555
C3 C4 1_555 1_555
C3 C22 1_555 1_555
C5 C6 1_555 1_555
C7 C8 1_555 1_555
C9 C10 1_555 1_555
C13 C14 1_555 1_555
C15 C16 1_555 1_555
C19 C20 1_555 1_555

#END
