
#######################################################################
#
#                 Cambridge Crystallographic Data Centre
#                                CCDC 
#
#######################################################################
#
# If this CIF has been generated from an entry in the Cambridge 
# Structural Database, then it will include bibliographic, chemical, 
# crystal, experimental, refinement or atomic coordinate data resulting 
# from the CCDC's data processing and validation procedures.
#
#######################################################################

data_LEYXIY
_chemical_compound_source        
'basidiomycete Stereum sp. CCTCC AF 2012007, collected in Xishuangbanna, Yunnan Province'
_chemical_name_common            'Stereumin P'
_chemical_formula_moiety         'C15 H22 O4,H2 O1'
_chemical_name_systematic        
'5,8-Dimethyl-1-methylene-1,2,4,5,5a,6,7,9a-octahydronaphtho[2,1-b]furan-3a,7,9b-triol hydrate'
_symmetry_cell_setting           monoclinic
_symmetry_space_group_name_H-M   'P 21'
_symmetry_Int_Tables_number      4
_space_group_name_Hall           'P 2yb'
loop_
_symmetry_equiv_pos_site_id
_symmetry_equiv_pos_as_xyz
1 x,y,z
2 -x,1/2+y,-z
_cell_length_a                   9.034(3)
_cell_length_b                   6.203(2)
_cell_length_c                   13.560(4)
_cell_angle_alpha                90
_cell_angle_beta                 98.783(5)
_cell_angle_gamma                90
_cell_volume                     750.963
_exptl_crystal_colour            colorless
_exptl_crystal_description       block
_chemical_melting_point          '93-95 deg.C'
_cell_formula_units_Z            2
loop_
_atom_site_label
_atom_site_type_symbol
_atom_site_fract_x
_atom_site_fract_y
_atom_site_fract_z
C1 C -0.0760(4) 0.4259(6) 0.1715(2)
H1 H -0.1698 0.4674 0.1313
H2 H -0.0593 0.2736 0.1612
C2 C 0.0524(3) 0.5583(5) 0.1428(2)
C3 C 0.1002(3) 0.7080(5) 0.2297(2)
C4 C 0.0605(3) 0.5692(5) 0.3163(2)
C5 C 0.1090(4) 0.5416(6) 0.0594(2)
H3 H 0.1886 0.6292 0.0487
H4 H 0.0694 0.4423 0.0111
C6 C 0.1772(3) 0.3987(5) 0.3502(2)
H5 H 0.1720 0.2884 0.2992
H6 H 0.1529 0.3312 0.4103
C7 C 0.3386(3) 0.4848(5) 0.3717(2)
H7 H 0.3447 0.5880 0.4269
C8 C 0.4458(4) 0.2972(6) 0.4047(2)
H8 H 0.4091 0.2167 0.4563
H9 H 0.5435 0.3532 0.4296
H10 H 0.4520 0.2046 0.3487
C9 C 0.3752(3) 0.6040(5) 0.2796(2)
H11 H 0.3660 0.5022 0.2238
C10 C 0.2623(3) 0.7875(5) 0.2521(2)
H12 H 0.2672 0.8749 0.3127
C11 C 0.3063(3) 0.9364(5) 0.1747(2)
H13 H 0.2318 1.0226 0.1398
C12 C 0.4428(3) 0.9548(5) 0.1522(2)
C13 C 0.5681(3) 0.8084(6) 0.1996(2)
H14 H 0.5796 0.6943 0.1513
C14 C 0.5332(3) 0.6995(6) 0.2941(2)
H15 H 0.5427 0.8041 0.3478
H16 H 0.6055 0.5856 0.3132
C15 C 0.4828(4) 1.1170(6) 0.0783(2)
H17 H 0.3931 1.1829 0.0444
H18 H 0.5344 1.0459 0.0306
H19 H 0.5465 1.2257 0.1127
O1 O -0.0804(2) 0.4685(4) 0.27483(15)
O2 O 0.0095(2) 0.8995(3) 0.22021(16)
H20 H -0.0793 0.8657 0.2112
O3 O 0.0364(2) 0.6903(4) 0.39941(14)
H21 H -0.0132 0.7975 0.3808
O4 O 0.7079(2) 0.9235(5) 0.21860(16)
H22 H 0.7205 0.9694 0.2760
O5 O 0.8509(3) 0.1045(5) 0.3952(2)
H23 H 0.867(4) 0.126(6) 0.4578(8)
H24 H 0.874(5) 0.207(4) 0.359(2)
loop_
_geom_bond_atom_site_label_1
_geom_bond_atom_site_label_2
_geom_bond_site_symmetry_1
_geom_bond_site_symmetry_2
C1 H1 1_555 1_555
H2 C1 1_555 1_555
C2 C1 1_555 1_555
C3 C2 1_555 1_555
C4 C3 1_555 1_555
C5 C2 1_555 1_555
H3 C5 1_555 1_555
H4 C5 1_555 1_555
C6 C4 1_555 1_555
H5 C6 1_555 1_555
H6 C6 1_555 1_555
C7 C6 1_555 1_555
H7 C7 1_555 1_555
C8 C7 1_555 1_555
H8 C8 1_555 1_555
H9 C8 1_555 1_555
H10 C8 1_555 1_555
C9 C7 1_555 1_555
H11 C9 1_555 1_555
C10 C3 1_555 1_555
H12 C10 1_555 1_555
C11 C10 1_555 1_555
H13 C11 1_555 1_555
C12 C11 1_555 1_555
C13 C12 1_555 1_555
H14 C13 1_555 1_555
C14 C9 1_555 1_555
H15 C14 1_555 1_555
H16 C14 1_555 1_555
C15 C12 1_555 1_555
H17 C15 1_555 1_555
H18 C15 1_555 1_555
H19 C15 1_555 1_555
O1 C1 1_555 1_555
O2 C3 1_555 1_555
H20 O2 1_555 1_555
O3 C4 1_555 1_555
H21 O3 1_555 1_555
O4 C13 1_555 1_555
H22 O4 1_555 1_555
O5 H23 1_555 1_555
H24 O5 1_555 1_555
C4 O1 1_555 1_555
C9 C10 1_555 1_555
C13 C14 1_555 1_555

#END
