
#######################################################################
#
#                 Cambridge Crystallographic Data Centre
#                                CCDC 
#
#######################################################################
#
# If this CIF has been generated from an entry in the Cambridge 
# Structural Database, then it will include bibliographic, chemical, 
# crystal, experimental, refinement or atomic coordinate data resulting 
# from the CCDC's data processing and validation procedures.
#
#######################################################################

data_LEYYIY
_chemical_formula_moiety         'C16 H24 N2 O6'
_chemical_name_systematic        
'meso-Diethyl 2,7-bis(acetamido)oct-4-yne-1,8-dioate'
_symmetry_cell_setting           triclinic
_symmetry_space_group_name_H-M   'P -1'
_symmetry_Int_Tables_number      2
_space_group_name_Hall           '-P 1'
loop_
_symmetry_equiv_pos_site_id
_symmetry_equiv_pos_as_xyz
1 x,y,z
2 -x,-y,-z
_cell_length_a                   4.9555(6)
_cell_length_b                   8.2940(19)
_cell_length_c                   11.190(3)
_cell_angle_alpha                89.41(2)
_cell_angle_beta                 97.645(16)
_cell_angle_gamma                99.162(14)
_cell_volume                     449.988
_exptl_crystal_colour            colorless
_exptl_crystal_description       block
_cell_formula_units_Z            1
loop_
_atom_site_label
_atom_site_type_symbol
_atom_site_fract_x
_atom_site_fract_y
_atom_site_fract_z
C1 C 0.0803(5) 0.5198(3) 0.9655(2)
C2 C 0.2757(5) 0.5688(3) 0.8796(2)
H1 H 0.3316 0.4716 0.8495
H2 H 0.4390 0.6351 0.9217
C3 C 0.1607(4) 0.6653(3) 0.7720(2)
C4 C 0.2984(5) 0.9482(3) 0.8307(2)
C5 C 0.2157(7) 1.1046(4) 0.8687(3)
H3 H 0.0196 1.0893 0.8687
H4 H 0.2682 1.1894 0.8134
H5 H 0.3065 1.1350 0.9483
C6 C -0.0884(4) 0.5695(3) 0.6974(2)
C7 C -0.2630(7) 0.3233(5) 0.5881(3)
H6 H -0.3186 0.3851 0.5175
H7 H -0.4217 0.2925 0.6304
C8 C -0.1613(10) 0.1759(5) 0.5514(3)
H8 H -0.3051 0.1090 0.4997
H9 H -0.1074 0.1154 0.6218
H10 H -0.0054 0.2075 0.5090
N1 N 0.0970(4) 0.8204(2) 0.80735(18)
O1 O 0.5398(4) 0.9375(3) 0.8233(2)
O2 O -0.2972(4) 0.6184(3) 0.6668(2)
O3 O -0.0413(4) 0.4227(2) 0.66688(17)
H11 H -0.076(5) 0.829(3) 0.806(2)
H12 H 0.301(6) 0.674(3) 0.724(2)
C1A C -0.0803(5) 0.4802(3) 1.0345(2)
C2A C -0.2757(5) 0.4312(3) 1.1204(2)
H1A H -0.3316 0.5284 1.1505
H2A H -0.4390 0.3649 1.0783
C3A C -0.1607(4) 0.3347(3) 1.2280(2)
C4A C -0.2984(5) 0.0518(3) 1.1693(2)
C5A C -0.2157(7) -0.1046(4) 1.1313(3)
H3A H -0.0196 -0.0893 1.1313
H4A H -0.2682 -0.1894 1.1866
H5A H -0.3065 -0.1350 1.0517
C6A C 0.0884(4) 0.4305(3) 1.3026(2)
C7A C 0.2630(7) 0.6767(5) 1.4119(3)
H6A H 0.3186 0.6149 1.4825
H7A H 0.4217 0.7075 1.3696
C8A C 0.1613(10) 0.8241(5) 1.4486(3)
H8A H 0.3051 0.8910 1.5003
H9A H 0.1074 0.8846 1.3782
H10A H 0.0054 0.7925 1.4910
N1A N -0.0970(4) 0.1796(2) 1.19265(18)
O1A O -0.5398(4) 0.0625(3) 1.1767(2)
O2A O 0.2972(4) 0.3816(3) 1.3332(2)
O3A O 0.0413(4) 0.5773(2) 1.33312(17)
H11A H 0.076(5) 0.171(3) 1.194(2)
H12A H -0.301(6) 0.326(3) 1.276(2)
loop_
_geom_bond_atom_site_label_1
_geom_bond_atom_site_label_2
_geom_bond_site_symmetry_1
_geom_bond_site_symmetry_2
C1 C2 1_555 1_555
C2 H1 1_555 1_555
H2 C2 1_555 1_555
C3 C2 1_555 1_555
C4 C5 1_555 1_555
C5 H3 1_555 1_555
H4 C5 1_555 1_555
H5 C5 1_555 1_555
C6 C3 1_555 1_555
C7 H6 1_555 1_555
H7 C7 1_555 1_555
C8 C7 1_555 1_555
H8 C8 1_555 1_555
H9 C8 1_555 1_555
H10 C8 1_555 1_555
N1 C3 1_555 1_555
O1 C4 1_555 1_555
O2 C6 1_555 1_555
O3 C6 1_555 1_555
H11 N1 1_555 1_555
H12 C3 1_555 1_555
C1A C1 1_555 1_555
C2A C1A 1_555 1_555
H1A C2A 1_555 1_555
H2A C2A 1_555 1_555
C3A C2A 1_555 1_555
C4A C5A 1_555 1_555
C5A H3A 1_555 1_555
H4A C5A 1_555 1_555
H5A C5A 1_555 1_555
C6A C3A 1_555 1_555
C7A H6A 1_555 1_555
H7A C7A 1_555 1_555
C8A C7A 1_555 1_555
H8A C8A 1_555 1_555
H9A C8A 1_555 1_555
H10A C8A 1_555 1_555
N1A C3A 1_555 1_555
O1A C4A 1_555 1_555
O2A C6A 1_555 1_555
O3A C6A 1_555 1_555
H11A N1A 1_555 1_555
H12A C3A 1_555 1_555
C4 N1 1_555 1_555
C7 O3 1_555 1_555
C4A N1A 1_555 1_555
C7A O3A 1_555 1_555

#END
