
#######################################################################
#
#                 Cambridge Crystallographic Data Centre
#                                CCDC 
#
#######################################################################
#
# If this CIF has been generated from an entry in the Cambridge 
# Structural Database, then it will include bibliographic, chemical, 
# crystal, experimental, refinement or atomic coordinate data resulting 
# from the CCDC's data processing and validation procedures.
#
#######################################################################

data_LEYZIY
_chemical_formula_moiety         'C18 H10 N5 O6 1-,K1 1+'
_chemical_name_systematic        'Potassium 9-(2,4,6-trinitroanilino)carbazole'
_symmetry_cell_setting           monoclinic
_symmetry_space_group_name_H-M   'P 21/n'
_symmetry_Int_Tables_number      14
_space_group_name_Hall           '-P 2yn'
loop_
_symmetry_equiv_pos_site_id
_symmetry_equiv_pos_as_xyz
1 x,y,z
2 1/2-x,1/2+y,1/2-z
3 -x,-y,-z
4 1/2+x,1/2-y,1/2+z
_cell_length_a                   10.8670(11)
_cell_length_b                   13.7970(14)
_cell_length_c                   12.7190(13)
_cell_angle_alpha                90
_cell_angle_beta                 113.320(11)
_cell_angle_gamma                90
_cell_volume                     1751.2
_exptl_crystal_colour            black
_cell_formula_units_Z            4
loop_
_atom_site_label
_atom_site_type_symbol
_atom_site_fract_x
_atom_site_fract_y
_atom_site_fract_z
K1 K -0.0726(1) 0.1125(1) 0.0969(1)
O1 O 0.1464(2) 0.0637(1) 0.0494(1)
O2 O 0.2185(2) 0.0604(1) -0.0848(1)
O3 O 0.3491(2) 0.3376(1) -0.2234(1)
O4 O 0.3937(2) 0.4708(1) -0.1266(2)
O5 O 0.4105(2) 0.4660(1) 0.2635(2)
O6 O 0.4205(2) 0.3206(1) 0.3290(2)
N1 N 0.1977(2) 0.1045(1) -0.0088(2)
N2 N 0.3592(2) 0.3850(1) -0.1384(2)
N3 N 0.3877(2) 0.3787(1) 0.2504(2)
N4 N 0.1543(2) 0.2335(1) 0.1576(2)
N5 N 0.1515(2) 0.2949(1) 0.2455(1)
C1 C 0.2354(2) 0.2581(1) 0.1093(2)
C2 C 0.2377(2) 0.2044(1) 0.0112(2)
C3 C 0.2774(2) 0.2461(2) -0.0679(2)
C4 C 0.3268(2) 0.3401(2) -0.0515(2)
C5 C 0.3592(2) 0.3856(2) 0.0540(2)
C6 C 0.3237(2) 0.3426(2) 0.1338(2)
C7 C 0.1627(2) 0.2547(2) 0.3490(2)
C8 C 0.2146(3) 0.1652(2) 0.3939(2)
C9 C 0.2209(3) 0.1430(2) 0.5025(2)
C10 C 0.1761(3) 0.2087(2) 0.5628(2)
C11 C 0.1236(3) 0.2974(2) 0.5168(2)
C12 C 0.1168(2) 0.3218(2) 0.4075(2)
C13 C 0.0725(2) 0.4056(2) 0.3353(2)
C14 C 0.0178(3) 0.4949(2) 0.3455(2)
C15 C -0.0105(3) 0.5623(2) 0.2608(2)
C16 C 0.0133(3) 0.5432(2) 0.1636(2)
C17 C 0.0646(2) 0.4550(2) 0.1482(2)
C18 C 0.0943(2) 0.3866(2) 0.2344(2)
H1 H 0.270 0.209 -0.138
H2 H 0.408 0.449 0.071
H3 H 0.246 0.119 0.349
H4 H 0.259 0.079 0.538
H5 H 0.180 0.191 0.640
H6 H 0.090 0.344 0.560
H7 H 0.000 0.509 0.415
H8 H -0.049 0.626 0.269
H9 H -0.008 0.594 0.102
H10 H 0.080 0.441 0.077
loop_
_geom_bond_atom_site_label_1
_geom_bond_atom_site_label_2
_geom_bond_site_symmetry_1
_geom_bond_site_symmetry_2
O1 N1 1_555 1_555
O2 N1 1_555 1_555
O3 N2 1_555 1_555
O4 N2 1_555 1_555
O5 N3 1_555 1_555
O6 N3 1_555 1_555
N1 C2 1_555 1_555
N2 C4 1_555 1_555
N3 C6 1_555 1_555
N4 N5 1_555 1_555
N5 C7 1_555 1_555
C1 N4 1_555 1_555
C2 C1 1_555 1_555
C3 C2 1_555 1_555
C4 C3 1_555 1_555
C5 C4 1_555 1_555
C6 C1 1_555 1_555
C7 C8 1_555 1_555
C8 C9 1_555 1_555
C9 C10 1_555 1_555
C10 C11 1_555 1_555
C11 C12 1_555 1_555
C12 C7 1_555 1_555
C13 C12 1_555 1_555
C14 C13 1_555 1_555
C15 C14 1_555 1_555
C16 C15 1_555 1_555
C17 C16 1_555 1_555
C18 N5 1_555 1_555
H1 C3 1_555 1_555
H2 C5 1_555 1_555
H3 C8 1_555 1_555
H4 C9 1_555 1_555
H5 C10 1_555 1_555
H6 C11 1_555 1_555
H7 C14 1_555 1_555
H8 C15 1_555 1_555
H9 C16 1_555 1_555
H10 C17 1_555 1_555
C5 C6 1_555 1_555
C13 C18 1_555 1_555
C17 C18 1_555 1_555

#END
