
#######################################################################
#
#                 Cambridge Crystallographic Data Centre
#                                CCDC 
#
#######################################################################
#
# If this CIF has been generated from an entry in the Cambridge 
# Structural Database, then it will include bibliographic, chemical, 
# crystal, experimental, refinement or atomic coordinate data resulting 
# from the CCDC's data processing and validation procedures.
#
#######################################################################

data_LEYZIZ
_chemical_formula_moiety         'C16 H14 F3 N5 O3'
_chemical_name_systematic        
(E)-N-(2-Amino-6-benzyloxy-5-nitrosopyrimidin-4-yl)-4,4,4-trifluoro-3-methylbut-2-enamide
_symmetry_cell_setting           triclinic
_symmetry_space_group_name_H-M   'P -1'
_symmetry_Int_Tables_number      2
_space_group_name_Hall           '-P 1'
loop_
_symmetry_equiv_pos_site_id
_symmetry_equiv_pos_as_xyz
1 x,y,z
2 -x,-y,-z
_cell_length_a                   13.1447(2)
_cell_length_b                   13.4048(2)
_cell_length_c                   38.5360(5)
_cell_angle_alpha                86.0982(6)
_cell_angle_beta                 89.5773(5)
_cell_angle_gamma                89.2288(5)
_cell_volume                     6773.63
_exptl_crystal_colour            'dark blue'
_exptl_crystal_description       Cube
_chemical_melting_point          148.9-149.2deg.C
_cell_formula_units_Z            16
_exptl_crystal_recrystallization_method chloroform
loop_
_atom_site_label
_atom_site_type_symbol
_atom_site_fract_x
_atom_site_fract_y
_atom_site_fract_z
F1 F 0.3608(4) 0.2652(4) 0.75887(11)
F2 F 0.2494(3) 0.2728(4) 0.71896(13)
F3 F 0.3862(4) 0.3499(3) 0.71282(15)
N1 N 0.6012(3) 0.1434(3) 0.64910(11)
N2 N 0.8306(3) -0.0071(3) 0.59869(11)
N3 N 0.6722(3) -0.0068(3) 0.63212(12)
N4 N 0.7555(3) -0.1508(3) 0.61941(11)
N5 N 0.7836(3) 0.2453(3) 0.62093(12)
O1 O 0.4864(3) 0.0222(3) 0.66654(11)
O2 O 0.7230(3) 0.2970(2) 0.63882(10)
O3 O 0.9049(3) 0.1432(2) 0.58264(10)
C1 C 0.5140(4) 0.1077(4) 0.66559(13)
C2 C 0.4606(4) 0.1887(4) 0.68447(15)
C3 C 0.3963(4) 0.1778(5) 0.71044(17)
C4 C 0.3460(6) 0.2658(5) 0.7248(2)
C5 C 0.3612(7) 0.0785(5) 0.7271(2)
C6 C 0.7515(4) -0.0527(3) 0.61698(13)
C7 C 0.6797(3) 0.0898(3) 0.63343(14)
C8 C 0.7609(4) 0.1465(3) 0.61893(14)
C9 C 0.8351(4) 0.0903(3) 0.59916(13)
C10 C 0.9794(4) 0.0931(4) 0.56086(14)
C11 C 0.9538(4) 0.1121(4) 0.52289(15)
C12 C 1.0213(4) 0.1557(4) 0.49972(15)
C13 C 0.9971(5) 0.1700(4) 0.46493(14)
C14 C 0.9031(5) 0.1413(4) 0.45350(15)
C15 C 0.8371(4) 0.0941(4) 0.47614(17)
C16 C 0.8602(5) 0.0804(4) 0.51074(15)
H1 H 0.6040 0.2149 0.6492
H2 H 0.7032 -0.1877 0.6319
H3 H 0.8103 -0.1856 0.6086
H13 H 0.4744 0.2571 0.6771
H14 H 0.3108 0.0895 0.7447
H15 H 0.4218 0.0507 0.7379
H16 H 0.3354 0.0328 0.7113
H17 H 1.0467 0.1165 0.5649
H18 H 0.9769 0.0223 0.5667
H19 H 1.0856 0.1781 0.5077
H20 H 1.0472 0.2002 0.4495
H21 H 0.8844 0.1529 0.4295
H22 H 0.7736 0.0726 0.4672
H23 H 0.8137 0.0476 0.5270
F4 F 1.2749(3) 0.0924(4) 0.29086(11)
F5 F 1.1271(5) 0.1731(3) 0.29378(16)
F6 F 1.1672(3) 0.1011(3) 0.24938(11)
N6 N 0.9033(3) -0.0501(3) 0.35323(11)
N7 N 0.6576(3) -0.2078(3) 0.39469(11)
N8 N 0.8220(3) -0.2033(3) 0.36529(11)
N9 N 0.7298(3) -0.3476(3) 0.37312(12)
N10 N 0.7267(3) 0.0493(3) 0.38330(11)
O4 O 1.0133(3) -0.1679(3) 0.33475(10)
O5 O 0.7990(3) 0.1062(2) 0.37075(10)
O6 O 0.5879(3) -0.0627(3) 0.41337(9)
C17 C 0.9905(4) -0.0817(4) 0.33569(13)
C18 C 1.0478(4) 0.0039(4) 0.32040(14)
C19 C 1.1285(4) -0.0026(4) 0.29872(13)
C20 C 1.1741(4) 0.0929(4) 0.28460(16)
C21 C 1.1706(4) -0.0956(4) 0.28592(15)
C22 C 0.7397(4) -0.2514(4) 0.37751(14)
C23 C 0.8239(4) -0.1059(4) 0.36596(13)
C24 C 0.7386(4) -0.0511(4) 0.38155(14)
C25 C 0.6607(4) -0.1119(4) 0.39631(12)
C26 C 0.5128(4) -0.1197(4) 0.43396(14)
C27 C 0.5424(4) -0.1252(4) 0.47125(15)
C28 C 0.4637(4) -0.1302(4) 0.49672(15)
C29 C 0.4860(5) -0.1365(4) 0.53161(16)
C30 C 0.5862(5) -0.1370(4) 0.54212(16)
C31 C 0.6654(5) -0.1293(5) 0.51792(17)
C32 C 0.6397(4) -0.1232(4) 0.48257(16)
H4 H 0.8928 0.0184 0.3584
H5 H 0.7826 -0.3835 0.3617
H6 H 0.6699 -0.3817 0.3815
H24 H 1.0283 0.0701 0.3260
H25 H 1.2265 -0.0804 0.2704
H26 H 1.1189 -0.1292 0.2739
H27 H 1.1941 -0.1380 0.3054
H28 H 0.4474 -0.0876 0.4308
H29 H 0.5104 -0.1857 0.4259
H30 H 0.3938 -0.1302 0.4897
H31 H 0.4310 -0.1421 0.5481
H32 H 0.6005 -0.1409 0.5666
H33 H 0.7350 -0.1274 0.5252
H34 H 0.6955 -0.1178 0.4664
F7 F 0.5235(3) 0.1916(3) 0.29014(11)
F8 F 0.6337(3) 0.2131(3) 0.25108(11)
F9 F 0.6756(4) 0.1323(2) 0.29837(12)
N11 N 0.8627(3) 0.3604(3) 0.35312(11)
N12 N 1.0908(3) 0.5106(3) 0.39983(12)
N13 N 0.9286(3) 0.5133(3) 0.36905(11)
N14 N 1.0136(3) 0.6555(3) 0.38007(11)
N15 N 1.0442(3) 0.2577(3) 0.37953(11)
O7 O 0.7404(3) 0.4765(3) 0.33584(11)
O8 O 0.9812(3) 0.2058(3) 0.36419(11)
O9 O 1.1710(2) 0.3598(2) 0.41521(9)
C33 C 0.7724(4) 0.3909(4) 0.33647(14)
C34 C 0.7263(4) 0.3066(3) 0.32085(13)
C35 C 0.6471(4) 0.3087(4) 0.29882(14)
C36 C 0.6190(5) 0.2099(5) 0.28690(18)
C37 C 0.5835(4) 0.3956(4) 0.28612(14)
C38 C 1.0113(3) 0.5582(3) 0.38311(12)
C39 C 0.9362(3) 0.4154(4) 0.36729(13)
C40 C 1.0248(3) 0.3579(3) 0.38157(12)
C41 C 1.0955(3) 0.4150(4) 0.39921(12)
C42 C 1.2451(4) 0.4104(4) 0.43612(14)
C43 C 1.2130(4) 0.3980(3) 0.47356(13)
C44 C 1.2872(4) 0.3782(4) 0.49861(14)
C45 C 1.2632(4) 0.3695(5) 0.53364(16)
C46 C 1.0872(5) 0.3979(5) 0.52055(16)
C47 C 1.1120(4) 0.4079(4) 0.48537(15)
C48 C 1.1624(5) 0.3795(4) 0.54404(17)
H7 H 0.8686 0.2888 0.3539
H8 H 1.0692 0.6907 0.3894
H9 H 0.9590 0.6920 0.3684
H35 H 0.7567 0.2432 0.3282
H36 H 0.5328 0.3733 0.2707
H37 H 0.6267 0.4430 0.2736
H38 H 0.5509 0.4266 0.3051
H39 H 1.3110 0.3808 0.4327
H40 H 1.2463 0.4799 0.4283
H41 H 1.3578 0.3721 0.4925
H42 H 1.3170 0.3546 0.5500
H43 H 1.0173 0.4059 0.5273
H44 H 1.0577 0.4226 0.4692
H45 H 1.1422 0.3725 0.5681
F10 F 0.1084(4) 0.6682(3) 0.29413(13)
F11 F -0.0207(3) 0.5779(4) 0.28841(13)
F12 F 0.0877(3) 0.5996(3) 0.24658(10)
N16 N 0.3565(3) 0.4515(3) 0.35097(11)
N17 N 0.5917(3) 0.2892(3) 0.39809(10)
N18 N 0.4337(3) 0.2974(3) 0.36553(11)
N19 N 0.5259(3) 0.1520(3) 0.37562(11)
N20 N 0.5311(4) 0.5480(3) 0.38070(13)
O10 O 0.2459(3) 0.3333(3) 0.33328(11)
O11 O 0.4638(3) 0.6055(3) 0.36554(11)
O12 O 0.6591(3) 0.4340(2) 0.41662(10)
C49 C 0.2675(4) 0.4202(4) 0.33456(14)
C50 C 0.2066(4) 0.5026(3) 0.31713(15)
C51 C 0.1352(5) 0.4927(4) 0.29406(16)
C52 C 0.0783(5) 0.5859(4) 0.28149(15)
C53 C 0.1076(5) 0.4014(5) 0.2773(2)
C54 C 0.5166(3) 0.2479(4) 0.37888(13)
C55 C 0.4337(4) 0.3950(3) 0.36655(13)
C56 C 0.5157(4) 0.4474(3) 0.38214(13)
C57 C 0.5895(3) 0.3848(3) 0.39980(13)
C58 C 0.7307(4) 0.3748(4) 0.43747(13)
C59 C 0.7017(4) 0.3671(4) 0.47604(15)
C60 C 0.7742(4) 0.3384(4) 0.50022(16)
C61 C 0.7520(5) 0.3314(4) 0.53469(18)
C62 C 0.6536(5) 0.3521(4) 0.54654(14)
C63 C 0.5777(4) 0.3827(4) 0.52204(15)
C64 C 0.6015(4) 0.3878(4) 0.48669(17)
H10 H 0.3702 0.5216 0.3514
H11 H 0.5839 0.1162 0.3853
H12 H 0.4755 0.1175 0.3633
H46 H 0.2180 0.5698 0.3231
H47 H 0.0537 0.4141 0.2608
H48 H 0.0866 0.3516 0.2948
H49 H 0.1669 0.3779 0.2655
H50 H 0.7357 0.3083 0.4298
H51 H 0.7963 0.4055 0.4358
H52 H 0.8414 0.3231 0.4920
H53 H 0.8037 0.3120 0.5514
H54 H 0.6377 0.3465 0.5709
H55 H 0.5102 0.3981 0.5299
H56 H 0.5519 0.4067 0.4692
F13 F 1.3311(3) 0.3653(3) 0.20071(11)
F14 F 1.4786(3) 0.3099(3) 0.20882(11)
F15 F 1.3654(3) 0.2854(3) 0.24940(10)
N21 N 1.1369(3) 0.1393(3) 0.14586(12)
N22 N 0.9083(3) -0.0101(3) 0.09936(10)
N23 N 1.0693(3) -0.0116(3) 0.13099(10)
N24 N 0.9881(3) -0.1548(3) 0.11924(12)
N25 N 0.9562(3) 0.2416(3) 0.12027(12)
O13 O 1.2589(3) 0.0239(3) 0.16452(10)
O14 O 1.0166(3) 0.2953(2) 0.13639(10)
O15 O 0.8295(3) 0.1398(2) 0.08500(9)
C65 C 1.2264(4) 0.1072(4) 0.16274(13)
C66 C 1.2729(4) 0.1945(4) 0.17774(15)
C67 C 1.3486(4) 0.1912(4) 0.19984(15)
C68 C 1.3780(5) 0.2857(4) 0.21555(17)
C69 C 1.4078(4) 0.1021(4) 0.21455(17)
C70 C 0.9887(4) -0.0564(4) 0.11686(15)
C71 C 1.0631(4) 0.0854(3) 0.13149(13)
C72 C 0.9788(4) 0.1434(4) 0.11837(14)
C73 C 0.9045(4) 0.0879(4) 0.10091(13)
C74 C 0.7585(3) 0.0897(4) 0.06327(14)
C75 C 0.7865(4) 0.1016(4) 0.02507(14)
C76 C 0.8870(5) 0.0914(4) 0.01428(18)
C77 C 0.9109(4) 0.1021(4) -0.02028(16)
C78 C 0.8350(5) 0.1224(4) -0.04522(15)
C79 C 0.7391(5) 0.1320(4) -0.03442(15)
C80 C 0.7129(4) 0.1251(4) 0.00052(16)
H57 H 1.1290 0.2105 0.1463
H58 H 0.9321 -0.1892 0.1098
H59 H 1.0434 -0.1922 0.1301
H69 H 1.2431 0.2580 0.1703
H70 H 1.4580 0.1217 0.2306
H71 H 1.4408 0.0716 0.1956
H72 H 1.3625 0.0551 0.2262
H73 H 0.7573 0.0196 0.0703
H74 H 0.6917 0.1181 0.0658
H75 H 0.9399 0.0783 0.0311
H76 H 0.9802 0.0974 -0.0281
H77 H 0.8476 0.1276 -0.0698
H78 H 0.6863 0.1447 -0.0513
H79 H 0.6439 0.1363 0.0078
F16 F 0.8909(4) -0.1681(3) 0.20698(13)
F17 F 0.9147(3) -0.1004(3) 0.25366(11)
F18 F 1.0190(3) -0.0779(3) 0.21305(11)
N26 N 0.6469(3) 0.0488(3) 0.14880(11)
N27 N 0.4066(3) 0.2114(3) 0.10158(11)
N28 N 0.5659(3) 0.2035(3) 0.13477(11)
N29 N 0.4740(3) 0.3494(3) 0.12389(11)
N30 N 0.4724(3) -0.0485(3) 0.11920(11)
O16 O 0.7516(3) 0.1680(3) 0.16763(11)
O17 O 0.5371(3) -0.1066(3) 0.13487(11)
O18 O 0.3423(2) 0.0686(2) 0.08336(9)
C81 C 0.7304(4) 0.0819(4) 0.16642(14)
C82 C 0.7928(4) -0.0052(4) 0.18156(13)
C83 C 0.8637(4) 0.0046(4) 0.20535(13)
C84 C 0.9215(5) -0.0851(5) 0.2197(2)
C85 C 0.9013(6) 0.0988(4) 0.2203(2)
C86 C 0.4805(4) 0.2503(4) 0.11965(13)
C87 C 0.5676(3) 0.1058(4) 0.13438(13)
C88 C 0.4873(3) 0.0517(3) 0.11843(13)
C89 C 0.4113(4) 0.1131(4) 0.10155(13)
C90 C 0.2685(4) 0.1256(4) 0.06221(14)
C91 C 0.3000(4) 0.1323(4) 0.02487(15)
C92 C 0.3971(4) 0.1135(4) 0.01289(16)
C93 C 0.4206(5) 0.1222(4) -0.02148(17)
C94 C 0.3507(5) 0.1479(4) -0.04616(18)
C95 C 0.2523(5) 0.1698(4) -0.03551(16)
C96 C 0.2267(4) 0.1605(4) 0.00018(14)
H60 H 0.6477 -0.0224 0.1472
H61 H 0.5254 0.3812 0.1366
H62 H 0.4170 0.3876 0.1146
H80 H 0.7793 -0.0704 0.1740
H81 H 0.9539 0.0812 0.2369
H82 H 0.8464 0.1318 0.2317
H83 H 0.9282 0.1428 0.2019
H84 H 0.2037 0.0937 0.0651
H85 H 0.2640 0.1914 0.0705
H86 H 0.4503 0.0955 0.0292
H87 H 0.4880 0.1052 -0.0290
H88 H 0.3711 0.1549 -0.0702
H89 H 0.2012 0.1877 -0.0526
H90 H 0.1583 0.1760 0.0071
F19 F 0.2513(3) 0.7726(4) 0.21906(13)
F20 F 0.3852(4) 0.8525(3) 0.21148(15)
F21 F 0.3585(4) 0.7618(4) 0.25865(12)
N31 N 0.6050(3) 0.6436(3) 0.14929(12)
N32 N 0.8281(3) 0.4952(3) 0.09715(11)
N33 N 0.6703(3) 0.4918(3) 0.13167(10)
N34 N 0.7554(3) 0.3484(3) 0.11894(11)
N35 N 0.7852(3) 0.7450(3) 0.12171(11)
O19 O 0.4864(3) 0.5239(3) 0.16715(11)
O20 O 0.7235(3) 0.7970(3) 0.13897(10)
O21 O 0.9059(2) 0.6441(2) 0.08229(9)
C97 C 0.5159(4) 0.6084(4) 0.16693(15)
C98 C 0.4624(4) 0.6903(4) 0.18337(14)
C99 C 0.3954(5) 0.6759(4) 0.20909(16)
C100 C 0.3496(5) 0.7652(5) 0.2247(2)
C101 C 0.3558(8) 0.5806(5) 0.2257(2)
C102 C 0.7544(4) 0.4480(4) 0.11560(14)
C103 C 0.6759(4) 0.5908(3) 0.13303(11)
C104 C 0.7627(3) 0.6474(3) 0.11818(12)
C105 C 0.8317(4) 0.5919(4) 0.09973(13)
C106 C 0.9775(4) 0.5919(4) 0.06062(13)
C107 C 0.9514(4) 0.6093(4) 0.02339(14)
C108 C 1.0199(5) 0.6556(4) 0.00019(16)
C109 C 0.9968(5) 0.6704(5) -0.03504(18)
C110 C 0.9084(5) 0.6412(4) -0.04869(16)
C111 C 0.8361(5) 0.5989(4) -0.02526(17)
C112 C 0.8587(4) 0.5813(4) 0.01002(16)
H63 H 0.6127 0.7144 0.1504
H64 H 0.8103 0.3119 0.1089
H65 H 0.7011 0.3131 0.1309
H91 H 0.4731 0.7591 0.1758
H92 H 0.3091 0.5934 0.2442
H93 H 0.4121 0.5410 0.2349
H94 H 0.3218 0.5451 0.2085
H95 H 1.0443 0.6173 0.0641
H96 H 0.9768 0.5215 0.0671
H97 H 1.0848 0.6768 0.0080
H98 H 1.0441 0.7047 -0.0506
H99 H 0.8935 0.6475 -0.0731
H100 H 0.7710 0.5821 -0.0342
H101 H 0.8089 0.5485 0.0249
F22 F -0.1657(3) 0.3989(3) 0.25052(11)
F23 F -0.1355(4) 0.3282(3) 0.20327(15)
F24 F -0.2673(4) 0.4038(4) 0.20972(13)
N36 N 0.0988(3) 0.5489(3) 0.14685(11)
N37 N 0.3420(3) 0.7085(3) 0.10534(11)
N38 N 0.1771(3) 0.7030(3) 0.13516(11)
N39 N 0.2704(3) 0.8463(3) 0.12712(11)
N40 N 0.2692(4) 0.4491(3) 0.11740(12)
O22 O -0.0145(3) 0.6691(3) 0.16428(11)
O23 O 0.4120(3) 0.5623(2) 0.08769(9)
O24 O 0.2034(3) 0.3930(3) 0.12978(12)
C113 C 0.0102(4) 0.5820(4) 0.16216(14)
C114 C -0.0493(4) 0.4957(3) 0.17891(14)
C115 C -0.1219(4) 0.5044(4) 0.20063(15)
C116 C -0.1676(6) 0.4120(6) 0.2171(2)
C117 C -0.1710(5) 0.5958(4) 0.21444(16)
C118 C 0.2643(3) 0.7492(3) 0.12305(13)
C119 C 0.1778(3) 0.6048(3) 0.13331(13)
C120 C 0.2583(4) 0.5503(3) 0.11843(12)
C121 C 0.3386(3) 0.6108(4) 0.10346(13)
C122 C 0.4854(4) 0.6196(4) 0.06570(14)
C123 C 0.4601(4) 0.6238(4) 0.02773(14)
C124 C 0.3552(4) 0.6225(4) 0.01788(15)
C125 C 0.3365(5) 0.6286(4) -0.01775(17)
C126 C 0.4110(4) 0.6343(4) -0.04159(16)
C127 C 0.5121(4) 0.6403(4) -0.03158(16)
C128 C 0.5347(4) 0.6343(4) 0.00370(15)
H66 H 0.1019 0.4776 0.1459
H67 H 0.2172 0.8790 0.1395
H68 H 0.3277 0.8838 0.1182
H102 H -0.0339 0.4285 0.1733
H103 H -0.2240 0.5755 0.2305
H104 H -0.1996 0.6367 0.1954
H105 H -0.1215 0.6334 0.2260
H106 H 0.4881 0.6868 0.0728
H107 H 0.5513 0.5884 0.0684
H108 H 0.3045 0.6173 0.0359
H109 H 0.2675 0.6284 -0.0258
H110 H 0.3921 0.6363 -0.0656
H111 H 0.5656 0.6465 -0.0487
H112 H 0.6043 0.6364 0.0109
loop_
_geom_bond_atom_site_label_1
_geom_bond_atom_site_label_2
_geom_bond_site_symmetry_1
_geom_bond_site_symmetry_2
F1 C4 1_555 1_555
F2 C4 1_555 1_555
F3 C4 1_555 1_555
F4 C20 1_555 1_555
F5 C20 1_555 1_555
F6 C20 1_555 1_555
F7 C36 1_555 1_555
F8 C36 1_555 1_555
F9 C36 1_555 1_555
F10 C52 1_555 1_555
F11 C52 1_555 1_555
F12 C52 1_555 1_555
N1 C1 1_555 1_555
N2 C6 1_555 1_555
N3 C6 1_555 1_555
N4 C6 1_555 1_555
N5 O2 1_555 1_555
N6 C17 1_555 1_555
N7 C22 1_555 1_555
N8 C22 1_555 1_555
N9 C22 1_555 1_555
N10 O5 1_555 1_555
N11 C33 1_555 1_555
N12 C38 1_555 1_555
N13 C38 1_555 1_555
N14 C38 1_555 1_555
N15 O8 1_555 1_555
N16 C49 1_555 1_555
N17 C54 1_555 1_555
N18 C54 1_555 1_555
N19 C54 1_555 1_555
N20 O11 1_555 1_555
O1 C1 1_555 1_555
O3 C9 1_555 1_555
O4 C17 1_555 1_555
O6 C25 1_555 1_555
O7 C33 1_555 1_555
O9 C41 1_555 1_555
O10 C49 1_555 1_555
O12 C57 1_555 1_555
C1 C2 1_555 1_555
C2 C3 1_555 1_555
C3 C4 1_555 1_555
C5 C3 1_555 1_555
C7 N1 1_555 1_555
C8 N5 1_555 1_555
C9 N2 1_555 1_555
C10 O3 1_555 1_555
C11 C10 1_555 1_555
C12 C11 1_555 1_555
C13 C12 1_555 1_555
C14 C13 1_555 1_555
C15 C14 1_555 1_555
C16 C11 1_555 1_555
C17 C18 1_555 1_555
C18 C19 1_555 1_555
C19 C20 1_555 1_555
C21 C19 1_555 1_555
C23 N6 1_555 1_555
C24 N10 1_555 1_555
C25 N7 1_555 1_555
C26 O6 1_555 1_555
C27 C26 1_555 1_555
C28 C27 1_555 1_555
C29 C28 1_555 1_555
C30 C29 1_555 1_555
C31 C30 1_555 1_555
C32 C27 1_555 1_555
C33 C34 1_555 1_555
C34 C35 1_555 1_555
C35 C36 1_555 1_555
C37 C35 1_555 1_555
C39 N11 1_555 1_555
C40 N15 1_555 1_555
C41 N12 1_555 1_555
C42 O9 1_555 1_555
C43 C42 1_555 1_555
C44 C43 1_555 1_555
C45 C44 1_555 1_555
C46 C47 1_555 1_555
C47 C43 1_555 1_555
C48 C45 1_555 1_555
C49 C50 1_555 1_555
C50 C51 1_555 1_555
C51 C52 1_555 1_555
C53 C51 1_555 1_555
C55 N16 1_555 1_555
C56 N20 1_555 1_555
C57 N17 1_555 1_555
C58 O12 1_555 1_555
C59 C58 1_555 1_555
C60 C59 1_555 1_555
C61 C60 1_555 1_555
C62 C61 1_555 1_555
C63 C62 1_555 1_555
C64 C59 1_555 1_555
F13 C68 1_555 1_555
F14 C68 1_555 1_555
F15 C68 1_555 1_555
F16 C84 1_555 1_555
F17 C84 1_555 1_555
F18 C84 1_555 1_555
F19 C100 1_555 1_555
F20 C100 1_555 1_555
F21 C100 1_555 1_555
F22 C116 1_555 1_555
F23 C116 1_555 1_555
F24 C116 1_555 1_555
N21 C65 1_555 1_555
N22 C70 1_555 1_555
N23 C70 1_555 1_555
N24 C70 1_555 1_555
N25 O14 1_555 1_555
N26 C81 1_555 1_555
N27 C86 1_555 1_555
N28 C86 1_555 1_555
N29 C86 1_555 1_555
N30 O17 1_555 1_555
N31 C97 1_555 1_555
N32 C102 1_555 1_555
N33 C102 1_555 1_555
N34 C102 1_555 1_555
N35 O20 1_555 1_555
N36 C113 1_555 1_555
N37 C118 1_555 1_555
N38 C118 1_555 1_555
N39 C118 1_555 1_555
N40 O24 1_555 1_555
O13 C65 1_555 1_555
O15 C73 1_555 1_555
O16 C81 1_555 1_555
O18 C89 1_555 1_555
O19 C97 1_555 1_555
O21 C105 1_555 1_555
O22 C113 1_555 1_555
O23 C121 1_555 1_555
C65 C66 1_555 1_555
C66 C67 1_555 1_555
C67 C68 1_555 1_555
C69 C67 1_555 1_555
C71 N21 1_555 1_555
C72 N25 1_555 1_555
C73 N22 1_555 1_555
C74 O15 1_555 1_555
C75 C74 1_555 1_555
C76 C75 1_555 1_555
C77 C76 1_555 1_555
C78 C77 1_555 1_555
C79 C78 1_555 1_555
C80 C75 1_555 1_555
C81 C82 1_555 1_555
C82 C83 1_555 1_555
C83 C84 1_555 1_555
C85 C83 1_555 1_555
C87 N26 1_555 1_555
C88 N30 1_555 1_555
C89 N27 1_555 1_555
C90 O18 1_555 1_555
C91 C90 1_555 1_555
C92 C91 1_555 1_555
C93 C92 1_555 1_555
C94 C93 1_555 1_555
C95 C94 1_555 1_555
C96 C91 1_555 1_555
C97 C98 1_555 1_555
C98 C99 1_555 1_555
C99 C100 1_555 1_555
C101 C99 1_555 1_555
C103 N31 1_555 1_555
C104 N35 1_555 1_555
C105 N32 1_555 1_555
C106 O21 1_555 1_555
C107 C106 1_555 1_555
C108 C107 1_555 1_555
C109 C108 1_555 1_555
C110 C109 1_555 1_555
C111 C110 1_555 1_555
C112 C107 1_555 1_555
C113 C114 1_555 1_555
C114 C115 1_555 1_555
C115 C116 1_555 1_555
C117 C115 1_555 1_555
C119 N36 1_555 1_555
C120 N40 1_555 1_555
C121 N37 1_555 1_555
C122 O23 1_555 1_555
C123 C122 1_555 1_555
C124 C123 1_555 1_555
C125 C124 1_555 1_555
C126 C125 1_555 1_555
C127 C126 1_555 1_555
C128 C123 1_555 1_555
H1 N1 1_555 1_555
H2 N4 1_555 1_555
H3 N4 1_555 1_555
H4 N6 1_555 1_555
H5 N9 1_555 1_555
H6 N9 1_555 1_555
H7 N11 1_555 1_555
H8 N14 1_555 1_555
H9 N14 1_555 1_555
H10 N16 1_555 1_555
H11 N19 1_555 1_555
H12 N19 1_555 1_555
H13 C2 1_555 1_555
H14 C5 1_555 1_555
H15 C5 1_555 1_555
H16 C5 1_555 1_555
H17 C10 1_555 1_555
H18 C10 1_555 1_555
H19 C12 1_555 1_555
H20 C13 1_555 1_555
H21 C14 1_555 1_555
H22 C15 1_555 1_555
H23 C16 1_555 1_555
H24 C18 1_555 1_555
H25 C21 1_555 1_555
H26 C21 1_555 1_555
H27 C21 1_555 1_555
H28 C26 1_555 1_555
H29 C26 1_555 1_555
H30 C28 1_555 1_555
H31 C29 1_555 1_555
H32 C30 1_555 1_555
H33 C31 1_555 1_555
H34 C32 1_555 1_555
H35 C34 1_555 1_555
H36 C37 1_555 1_555
H37 C37 1_555 1_555
H38 C37 1_555 1_555
H39 C42 1_555 1_555
H40 C42 1_555 1_555
H41 C44 1_555 1_555
H42 C45 1_555 1_555
H43 C46 1_555 1_555
H44 C47 1_555 1_555
H45 C48 1_555 1_555
H46 C50 1_555 1_555
H47 C53 1_555 1_555
H48 C53 1_555 1_555
H49 C53 1_555 1_555
H50 C58 1_555 1_555
H51 C58 1_555 1_555
H52 C60 1_555 1_555
H53 C61 1_555 1_555
H54 C62 1_555 1_555
H55 C63 1_555 1_555
H56 C64 1_555 1_555
H57 N21 1_555 1_555
H58 N24 1_555 1_555
H59 N24 1_555 1_555
H60 N26 1_555 1_555
H61 N29 1_555 1_555
H62 N29 1_555 1_555
H63 N31 1_555 1_555
H64 N34 1_555 1_555
H65 N34 1_555 1_555
H66 N36 1_555 1_555
H67 N39 1_555 1_555
H68 N39 1_555 1_555
H69 C66 1_555 1_555
H70 C69 1_555 1_555
H71 C69 1_555 1_555
H72 C69 1_555 1_555
H73 C74 1_555 1_555
H74 C74 1_555 1_555
H75 C76 1_555 1_555
H76 C77 1_555 1_555
H77 C78 1_555 1_555
H78 C79 1_555 1_555
H79 C80 1_555 1_555
H80 C82 1_555 1_555
H81 C85 1_555 1_555
H82 C85 1_555 1_555
H83 C85 1_555 1_555
H84 C90 1_555 1_555
H85 C90 1_555 1_555
H86 C92 1_555 1_555
H87 C93 1_555 1_555
H88 C94 1_555 1_555
H89 C95 1_555 1_555
H90 C96 1_555 1_555
H91 C98 1_555 1_555
H92 C101 1_555 1_555
H93 C101 1_555 1_555
H94 C101 1_555 1_555
H95 C106 1_555 1_555
H96 C106 1_555 1_555
H97 C108 1_555 1_555
H98 C109 1_555 1_555
H99 C110 1_555 1_555
H100 C111 1_555 1_555
H101 C112 1_555 1_555
H102 C114 1_555 1_555
H103 C117 1_555 1_555
H104 C117 1_555 1_555
H105 C117 1_555 1_555
H106 C122 1_555 1_555
H107 C122 1_555 1_555
H108 C124 1_555 1_555
H109 C125 1_555 1_555
H110 C126 1_555 1_555
H111 C127 1_555 1_555
H112 C128 1_555 1_555
N3 C7 1_555 1_555
N8 C23 1_555 1_555
N13 C39 1_555 1_555
N18 C55 1_555 1_555
C7 C8 1_555 1_555
C8 C9 1_555 1_555
C15 C16 1_555 1_555
C23 C24 1_555 1_555
C24 C25 1_555 1_555
C31 C32 1_555 1_555
C39 C40 1_555 1_555
C40 C41 1_555 1_555
C46 C48 1_555 1_555
C55 C56 1_555 1_555
C56 C57 1_555 1_555
C63 C64 1_555 1_555
N23 C71 1_555 1_555
N28 C87 1_555 1_555
N33 C103 1_555 1_555
N38 C119 1_555 1_555
C71 C72 1_555 1_555
C72 C73 1_555 1_555
C79 C80 1_555 1_555
C87 C88 1_555 1_555
C88 C89 1_555 1_555
C95 C96 1_555 1_555
C103 C104 1_555 1_555
C104 C105 1_555 1_555
C111 C112 1_555 1_555
C119 C120 1_555 1_555
C120 C121 1_555 1_555
C127 C128 1_555 1_555

#END
