
#######################################################################
#
#                 Cambridge Crystallographic Data Centre
#                                CCDC 
#
#######################################################################
#
# If this CIF has been generated from an entry in the Cambridge 
# Structural Database, then it will include bibliographic, chemical, 
# crystal, experimental, refinement or atomic coordinate data resulting 
# from the CCDC's data processing and validation procedures.
#
#######################################################################

data_LEZHED
_chemical_compound_source        'root of Bach-bo plant (Stemona tuberosa Lour)'
_chemical_formula_moiety         'C22 H33 N1 O4'
_chemical_name_systematic        'Tuberostemonine L-G'
_chemical_properties_biological  
'agent used in treatment of common cough and whooping cough'
_symmetry_cell_setting           orthorhombic
_symmetry_space_group_name_H-M   'P 21 21 21'
_symmetry_Int_Tables_number      19
_space_group_name_Hall           'P 2ac 2ab'
loop_
_symmetry_equiv_pos_site_id
_symmetry_equiv_pos_as_xyz
1 x,y,z
2 1/2+x,1/2-y,-z
3 -x,1/2+y,1/2-z
4 1/2-x,-y,1/2+z
_cell_length_a                   6.432(1)
_cell_length_b                   14.237(2)
_cell_length_c                   23.034(2)
_cell_angle_alpha                90
_cell_angle_beta                 90
_cell_angle_gamma                90
_cell_volume                     2109.28
_exptl_crystal_colour            Colorless
_chemical_melting_point          433-434K
_cell_formula_units_Z            4
loop_
_atom_site_label
_atom_site_type_symbol
_atom_site_fract_x
_atom_site_fract_y
_atom_site_fract_z
O1 O -0.2941(4) 0.5519(2) 0.6284(1)
O2 O -0.0004(3) 0.4831(1) 0.5993(1)
O3 O 0.6516(3) 0.2587(1) 0.8340(1)
O4 O 0.9021(4) 0.2442(2) 0.8995(1)
N1 N 0.3850(3) 0.2772(2) 0.7246(1)
C1 C -0.1159(5) 0.5319(2) 0.6380(1)
C2 C 0.0110(5) 0.5524(2) 0.6918(1)
C3 C -0.1223(6) 0.5623(3) 0.7456(2)
C4 C 0.1786(5) 0.4761(2) 0.6882(1)
C5 C 0.2108(5) 0.4708(2) 0.6227(1)
C6 C 0.3070(5) 0.3831(2) 0.5980(1)
C7 C 0.3026(7) 0.3838(3) 0.5312(1)
C8 C 0.4062(9) 0.4666(4) 0.5038(2)
C9 C 0.2054(5) 0.2948(2) 0.6235(1)
C10 C 0.1953(4) 0.2950(2) 0.6900(1)
C11 C 0.1011(4) 0.3839(2) 0.7151(1)
C12 C 0.1611(5) 0.3760(2) 0.7789(1)
C13 C 0.3827(4) 0.3371(2) 0.7765(1)
C14 C 0.4310(4) 0.2858(2) 0.8325(1)
C15 C 0.4037(6) 0.3431(3) 0.8875(1)
C16 C 0.5605(5) 0.3020(3) 0.9290(1)
C17 C 0.6410(9) 0.3664(5) 0.9757(2)
C18 C 0.7258(5) 0.2653(2) 0.8886(1)
C19 C 0.5868(5) 0.2610(3) 0.6988(1)
C20 C 0.5998(6) 0.1719(3) 0.6626(2)
C21 C 0.5102(7) 0.1808(3) 0.6018(1)
C22 C 0.2795(6) 0.2005(3) 0.5988(1)
H1 H 0.071(4) 0.606(2) 0.686(1)
H2 H -0.247(5) 0.615(2) 0.740(1)
H3 H -0.196(5) 0.501(2) 0.754(1)
H4 H -0.046(5) 0.579(2) 0.779(1)
H5 H 0.306(4) 0.493(2) 0.706(1)
H6 H 0.299(4) 0.524(2) 0.610(1)
H7 H 0.450(4) 0.381(2) 0.610(1)
H8 H 0.366(6) 0.317(2) 0.516(1)
H9 H 0.153(6) 0.369(2) 0.519(1)
H10 H 0.335(7) 0.531(2) 0.513(1)
H11 H 0.550(6) 0.475(3) 0.521(2)
H12 H 0.421(5) 0.454(2) 0.460(1)
H13 H 0.052(4) 0.299(2) 0.612(1)
H14 H 0.100(4) 0.246(2) 0.700(1)
H15 H -0.047(4) 0.380(2) 0.709(1)
H16 H 0.151(4) 0.438(2) 0.802(1)
H17 H 0.064(4) 0.333(2) 0.797(1)
H18 H 0.479(4) 0.386(2) 0.771(1)
H19 H 0.351(4) 0.227(1) 0.834(1)
H20 H 0.260(4) 0.343(2) 0.900(1)
H21 H 0.429(5) 0.411(2) 0.877(1)
H22 H 0.510(5) 0.244(2) 0.948(1)
H23 H 0.521(9) 0.391(4) 1.000(2)
H24 H 0.742(8) 0.339(3) 0.995(2)
H25 H 0.721(8) 0.427(3) 0.950(2)
H26 H 0.680(4) 0.250(2) 0.733(1)
H27 H 0.629(5) 0.315(2) 0.671(1)
H28 H 0.498(6) 0.112(2) 0.687(1)
H29 H 0.746(5) 0.158(2) 0.658(1)
H30 H 0.587(4) 0.235(2) 0.581(1)
H31 H 0.536(5) 0.120(2) 0.580(1)
H32 H 0.220(4) 0.199(2) 0.556(1)
H33 H 0.216(5) 0.146(2) 0.621(1)
loop_
_geom_bond_atom_site_label_1
_geom_bond_atom_site_label_2
_geom_bond_site_symmetry_1
_geom_bond_site_symmetry_2
O1 C1 1_555 1_555
O2 C1 1_555 1_555
O3 C14 1_555 1_555
O4 C18 1_555 1_555
N1 C10 1_555 1_555
C1 C2 1_555 1_555
C2 C3 1_555 1_555
C3 H2 1_555 1_555
C4 C2 1_555 1_555
C5 O2 1_555 1_555
C6 C5 1_555 1_555
C7 C6 1_555 1_555
C8 C7 1_555 1_555
C9 C6 1_555 1_555
C10 C9 1_555 1_555
C11 C4 1_555 1_555
C12 C11 1_555 1_555
C13 N1 1_555 1_555
C14 C13 1_555 1_555
C15 C14 1_555 1_555
C16 C15 1_555 1_555
C17 C16 1_555 1_555
C18 O3 1_555 1_555
C19 N1 1_555 1_555
C20 C19 1_555 1_555
C21 C20 1_555 1_555
C22 C9 1_555 1_555
H1 C2 1_555 1_555
H3 C3 1_555 1_555
H4 C3 1_555 1_555
H5 C4 1_555 1_555
H6 C5 1_555 1_555
H7 C6 1_555 1_555
H8 C7 1_555 1_555
H9 C7 1_555 1_555
H10 C8 1_555 1_555
H11 C8 1_555 1_555
H12 C8 1_555 1_555
H13 C9 1_555 1_555
H14 C10 1_555 1_555
H15 C11 1_555 1_555
H16 C12 1_555 1_555
H17 C12 1_555 1_555
H18 C13 1_555 1_555
H19 C14 1_555 1_555
H20 C15 1_555 1_555
H21 C15 1_555 1_555
H22 C16 1_555 1_555
H23 C17 1_555 1_555
H24 C17 1_555 1_555
H25 C17 1_555 1_555
H26 C19 1_555 1_555
H27 C19 1_555 1_555
H28 C20 1_555 1_555
H29 C20 1_555 1_555
H30 C21 1_555 1_555
H31 C21 1_555 1_555
H32 C22 1_555 1_555
H33 C22 1_555 1_555
C4 C5 1_555 1_555
C10 C11 1_555 1_555
C12 C13 1_555 1_555
C16 C18 1_555 1_555
C21 C22 1_555 1_555

#END
