
#######################################################################
#
#                 Cambridge Crystallographic Data Centre
#                                CCDC 
#
#######################################################################
#
# If this CIF has been generated from an entry in the Cambridge 
# Structural Database, then it will include bibliographic, chemical, 
# crystal, experimental, refinement or atomic coordinate data resulting 
# from the CCDC's data processing and validation procedures.
#
#######################################################################

data_LEZKEJ
_chemical_formula_moiety         'C21 H18 N2 O2'
_chemical_name_systematic        
'ethyl 5-phenyl-5,10-dihydroazepino[2,3-b]indole-4-carboxylate'
_symmetry_cell_setting           monoclinic
_symmetry_space_group_name_H-M   'P 21/c'
_symmetry_Int_Tables_number      14
_space_group_name_Hall           '-P 2ybc'
loop_
_symmetry_equiv_pos_site_id
_symmetry_equiv_pos_as_xyz
1 x,y,z
2 -x,1/2+y,1/2-z
3 -x,-y,-z
4 x,1/2-y,1/2+z
_cell_length_a                   10.3152(3)
_cell_length_b                   21.8940(6)
_cell_length_c                   8.1031(2)
_cell_angle_alpha                90
_cell_angle_beta                 110.046(3)
_cell_angle_gamma                90
_cell_volume                     1719.15
_exptl_crystal_colour            red
_exptl_crystal_description       block
_cell_formula_units_Z            4
loop_
_atom_site_label
_atom_site_type_symbol
_atom_site_fract_x
_atom_site_fract_y
_atom_site_fract_z
O1 O 0.63889(14) 0.66015(7) 0.8443(2)
N1 N 0.02977(13) 0.57952(7) 0.5630(2)
H1 H -0.0332 0.5521 0.5454
N2 N 0.19657(14) 0.51088(6) 0.5354(2)
C1 C 0.37701(14) 0.63485(7) 0.59315(18)
H2 H 0.4092 0.6732 0.6565
C2 C 0.39006(15) 0.64202(7) 0.41229(19)
C3 C 0.23332(14) 0.62405(7) 0.59405(18)
C4 C 0.14061(14) 0.66957(7) 0.6130(2)
C5 C 0.16273(14) 0.56959(7) 0.5662(2)
C6 C 0.47342(15) 0.58519(8) 0.6946(2)
C7 C 0.01451(16) 0.64016(8) 0.5922(2)
C8 C 0.3022(2) 0.61305(8) 0.2644(2)
H3 H 0.2319 0.5881 0.2733
C9 C 0.49550(17) 0.67800(9) 0.3952(2)
H4 H 0.5559 0.6976 0.4934
C10 C 0.44925(16) 0.52495(8) 0.6786(2)
H5 H 0.5240 0.5002 0.7381
C11 C 0.32352(17) 0.49299(8) 0.5820(3)
H6 H 0.3358 0.4535 0.5481
C12 C 0.15161(17) 0.73245(8) 0.6459(3)
H7 H 0.2336 0.7530 0.6598
C13 C 0.61111(19) 0.60841(10) 0.8123(3)
C14 C -0.10027(18) 0.67197(9) 0.5994(3)
H8 H -0.1837 0.6522 0.5822
C15 C 0.4223(3) 0.65684(11) 0.0877(3)
H9 H 0.4323 0.6621 -0.0212
C16 C 0.3185(3) 0.62103(11) 0.1030(3)
H10 H 0.2582 0.6018 0.0041
C17 C 0.5116(2) 0.68503(11) 0.2338(3)
H11 H 0.5831 0.7089 0.2241
C18 C 0.0391(2) 0.76311(9) 0.6574(3)
H12 H 0.0461 0.8047 0.6822
C19 C -0.0858(2) 0.73323(10) 0.6326(4)
H13 H -0.1607 0.7555 0.6388
O2 O 0.7124(3) 0.56621(17) 0.8333(10)
C20 C 0.8508(7) 0.5836(3) 0.9483(12)
H14 H 0.9194 0.5626 0.9122
H15 H 0.8636 0.6273 0.9394
C21 C 0.8678(12) 0.5682(6) 1.1231(12)
H16 H 0.8418 0.5264 1.1283
H17 H 0.8106 0.5941 1.1648
H18 H 0.9627 0.5737 1.1953
O3? O 0.6807(7) 0.5618(2) 0.9262(13)
C22? C 0.8127(11) 0.5794(5) 1.0508(18)
H19? H 0.8184 0.6236 1.0579
H20? H 0.8208 0.5639 1.1661
C23? C 0.9210(11) 0.5568(12) 1.003(4)
H21? H 0.9333 0.5823 0.9130
H22? H 0.9002 0.5159 0.9596
H23? H 1.0042 0.5568 1.1037
loop_
_geom_bond_atom_site_label_1
_geom_bond_atom_site_label_2
_geom_bond_site_symmetry_1
_geom_bond_site_symmetry_2
O1 C13 1_555 1_555
N1 H1 1_555 1_555
N2 C5 1_555 1_555
C1 H2 1_555 1_555
C2 C1 1_555 1_555
C3 C1 1_555 1_555
C4 C3 1_555 1_555
C5 N1 1_555 1_555
C6 C1 1_555 1_555
C7 N1 1_555 1_555
C8 C2 1_555 1_555
H3 C8 1_555 1_555
C9 C2 1_555 1_555
H4 C9 1_555 1_555
C10 C6 1_555 1_555
H5 C10 1_555 1_555
C11 N2 1_555 1_555
H6 C11 1_555 1_555
C12 C4 1_555 1_555
H7 C12 1_555 1_555
C13 C6 1_555 1_555
C14 C7 1_555 1_555
H8 C14 1_555 1_555
C15 H9 1_555 1_555
C16 C8 1_555 1_555
H10 C16 1_555 1_555
C17 C9 1_555 1_555
H11 C17 1_555 1_555
C18 C12 1_555 1_555
H12 C18 1_555 1_555
C19 C14 1_555 1_555
H13 C19 1_555 1_555
O2 C13 1_555 1_555
C20 O2 1_555 1_555
H14 C20 1_555 1_555
H15 C20 1_555 1_555
C21 C20 1_555 1_555
H16 C21 1_555 1_555
H17 C21 1_555 1_555
H18 C21 1_555 1_555
C3 C5 1_555 1_555
C4 C7 1_555 1_555
C10 C11 1_555 1_555
C15 C16 1_555 1_555
C15 C17 1_555 1_555
C18 C19 1_555 1_555

#END
