
#######################################################################
#
#                 Cambridge Crystallographic Data Centre
#                                CCDC 
#
#######################################################################
#
# If this CIF has been generated from an entry in the Cambridge 
# Structural Database, then it will include bibliographic, chemical, 
# crystal, experimental, refinement or atomic coordinate data resulting 
# from the CCDC's data processing and validation procedures.
#
#######################################################################

data_LEZNUA
_chemical_formula_moiety         'C24 H16 I2 N2 2+,2(B1 F4 1-),C2 H3 N1'
_chemical_name_systematic        
'2,7-Di-iodo-9-(bis(4-pyridiniumyl)methylene)fluorene bis(tetrafluoroborate) acetonitrile solvate'
_symmetry_cell_setting           triclinic
_symmetry_space_group_name_H-M   'P -1'
_symmetry_Int_Tables_number      2
_space_group_name_Hall           '-P 1'
loop_
_symmetry_equiv_pos_site_id
_symmetry_equiv_pos_as_xyz
1 x,y,z
2 -x,-y,-z
_cell_length_a                   13.0726(17)
_cell_length_b                   14.0843(19)
_cell_length_c                   17.150(2)
_cell_angle_alpha                72.58(1)
_cell_angle_beta                 73.36(1)
_cell_angle_gamma                82.13(1)
_cell_volume                     2882.11
_exptl_crystal_colour            orange
_exptl_crystal_description       'pyramidal splinter'
_cell_formula_units_Z            4
loop_
_atom_site_label
_atom_site_type_symbol
_atom_site_fract_x
_atom_site_fract_y
_atom_site_fract_z
I1 I 0.989588(14) 0.487227(12) 0.893789(10)
I2 I 0.772624(13) 0.491059(13) 0.320228(10)
N1 N 1.0080(2) 0.10756(16) 0.85468(14)
H1 H 1.023(3) 0.073(2) 0.896(2)
N2 N 0.89977(18) 0.12155(16) 0.48134(14)
H2 H 0.893(3) 0.090(2) 0.450(2)
C1 C 0.94345(17) 0.43774(16) 0.74794(14)
H3 H 0.9765 0.3748 0.7697
C2 C 0.93020(18) 0.51347(17) 0.78741(14)
C3 C 0.88166(19) 0.60632(17) 0.75735(15)
H4 H 0.8739 0.6565 0.7856
C4 C 0.84487(18) 0.62526(16) 0.68544(15)
H5 H 0.8116 0.6883 0.6641
C5 C 0.77714(17) 0.62530(17) 0.51675(15)
H6 H 0.7533 0.6869 0.5298
C6 C 0.76044(17) 0.60798(17) 0.44573(15)
H7 H 0.7246 0.6575 0.4099
C7 C 0.79659(17) 0.51749(17) 0.42745(13)
C8 C 0.84856(17) 0.44245(16) 0.47874(13)
H8 H 0.8730 0.3813 0.4649
C9 C 0.90783(16) 0.39317(15) 0.62006(13)
C10 C 0.90659(16) 0.45672(15) 0.67624(13)
C11 C 0.85717(16) 0.55064(16) 0.64525(14)
C12 C 0.82921(17) 0.55154(16) 0.56831(14)
C13 C 0.86354(16) 0.45903(16) 0.55059(13)
C14 C 0.93425(16) 0.29492(15) 0.63351(13)
C15 C 0.96348(17) 0.23064(15) 0.71146(13)
C16 C 1.06777(19) 0.19750(19) 0.71238(16)
H9 H 1.1247 0.2169 0.6630
C17 C 1.0881(2) 0.13534(19) 0.78644(17)
H10 H 1.1594 0.1126 0.7884
C18 C 0.9070(2) 0.1358(2) 0.85487(16)
H11 H 0.8513 0.1125 0.9044
C19 C 0.8823(2) 0.1985(2) 0.78368(15)
H12 H 0.8100 0.2194 0.7841
C20 C 0.92337(17) 0.23550(15) 0.57759(13)
C21 C 1.01078(19) 0.20887(17) 0.51819(15)
H13 H 1.0797 0.2297 0.5113
C22 C 0.9970(2) 0.15204(19) 0.46976(16)
H14 H 1.0561 0.1350 0.4280
C23 C 0.8140(2) 0.14417(19) 0.53925(16)
H15 H 0.7463 0.1209 0.5460
C24 C 0.82381(18) 0.20144(18) 0.58827(15)
H16 H 0.7633 0.2178 0.6293
I3 I 0.461481(13) 0.691962(11) 0.493040(9)
I4 I 0.701049(12) 0.471891(11) 1.089881(9)
N3 N 0.37215(18) 1.00258(16) 0.66356(13)
H17 H 0.339(3) 1.047(3) 0.639(2)
N4 N 0.66256(19) 0.88982(15) 0.95372(14)
H18 H 0.687(3) 0.914(2) 0.984(2)
C25 C 0.51839(17) 0.68122(16) 0.65456(13)
H19 H 0.5036 0.7513 0.6387
C26 C 0.51038(17) 0.62288(16) 0.60414(13)
C27 C 0.53486(18) 0.52037(17) 0.62494(15)
H20 H 0.5275 0.4820 0.5900
C28 C 0.56929(17) 0.47448(16) 0.69720(14)
H21 H 0.5888 0.4052 0.7108
C29 C 0.64246(18) 0.40988(16) 0.87348(15)
H22 H 0.6457 0.3529 0.8540
C30 C 0.66990(18) 0.40141(16) 0.94793(15)
H23 H 0.6938 0.3387 0.9792
C31 C 0.66206(17) 0.48596(16) 0.97622(13)
C32 C 0.62911(16) 0.57964(15) 0.93151(13)
H24 H 0.6236 0.6362 0.9521
C33 C 0.56278(16) 0.67512(15) 0.79594(13)
C34 C 0.54718(16) 0.63458(15) 0.72939(13)
C35 C 0.57530(17) 0.53151(15) 0.74956(14)
C36 C 0.61010(16) 0.50280(15) 0.82786(14)
C37 C 0.60456(16) 0.58826(15) 0.85594(13)
C38 C 0.54322(16) 0.76991(15) 0.80233(13)
C39 C 0.48321(17) 0.85050(15) 0.75146(13)
C40 C 0.52273(19) 0.94550(16) 0.71610(14)
H25 H 0.5890 0.9583 0.7224
C41 C 0.4651(2) 1.02054(17) 0.67196(15)
H26 H 0.4915 1.0854 0.6480
C42 C 0.3296(2) 0.91334(19) 0.69763(15)
H27 H 0.2626 0.9034 0.6907
C43 C 0.38393(18) 0.83587(17) 0.74337(14)
H28 H 0.3538 0.7727 0.7693
C44 C 0.58456(17) 0.80669(14) 0.85994(13)
C45 C 0.69215(18) 0.82579(16) 0.83791(15)
H29 H 0.7398 0.8085 0.7902
C46 C 0.7297(2) 0.86898(18) 0.88563(16)
H30 H 0.8028 0.8836 0.8701
C47 C 0.5585(2) 0.87244(18) 0.97802(15)
H31 H 0.5139 0.8884 1.0274
C48 C 0.51639(18) 0.83098(16) 0.93125(14)
H32 H 0.4425 0.8188 0.9476
B1 B 0.2924(2) 1.09176(19) 0.48700(17)
F1 F 0.25933(17) 1.13582(17) 0.55668(14)
F2 F 0.2519(3) 1.1491(4) 0.4219(2)
F3 F 0.40571(16) 1.08970(18) 0.46391(14)
F4 F 0.2625(2) 0.99714(17) 0.51659(16)
B2 B 0.7663(2) 1.05539(18) 1.06908(16)
F9 F 0.87795(10) 1.03818(10) 1.04316(8)
F10 F 0.74158(12) 1.15686(10) 1.05587(11)
F11 F 0.71992(12) 1.02332(12) 1.01772(11)
F12 F 0.72860(13) 1.00525(12) 1.15196(9)
B3 B 0.6073(3) 1.1329(2) 0.7878(4)
F13 F 0.5210(3) 1.0799(3) 0.8433(2)
F14 F 0.6980(2) 1.0699(2) 0.7773(2)
F15 F 0.62366(16) 1.20730(17) 0.8193(2)
F16 F 0.58560(16) 1.17659(19) 0.70933(13)
B5 B 1.0069(2) 0.0850(2) 0.28561(18)
F21 F 1.07270(14) 0.16145(13) 0.26563(12)
F22 F 1.02626(16) 0.04496(13) 0.21828(10)
F23 F 0.90246(14) 0.12432(19) 0.30481(14)
F24 F 1.0228(2) 0.01444(14) 0.35666(12)
N5 N 0.6767(2) 0.79059(17) 0.29061(15)
C49 C 0.6638(2) 0.7603(2) 0.24043(17)
C50 C 0.6485(3) 0.7201(2) 0.17539(19)
H33 H 0.7131 0.7290 0.1282
H34 H 0.5873 0.7561 0.1552
H35 H 0.6353 0.6491 0.1988
N6 N 0.8859(2) 0.8148(2) 1.0153(2)
C51 C 0.9612(3) 0.7914(2) 0.9709(2)
C52 C 1.0564(2) 0.7618(2) 0.9131(2)
H36 H 1.0379 0.7183 0.8845
H37 H 1.1078 0.7258 0.9451
H38 H 1.0884 0.8212 0.8708
F5? F 0.3030(5) 1.1413(6) 0.5347(5)
F6? F 0.2766(12) 1.1537(12) 0.4088(7)
F7? F 0.3581(5) 1.0136(5) 0.4720(4)
F8? F 0.1868(6) 1.0446(6) 0.5271(5)
B4? B 0.609(3) 1.133(2) 0.8097(14)
F17? F 0.506(3) 1.103(2) 0.833(2)
F18? F 0.674(2) 1.074(3) 0.763(2)
F19? F 0.6063(14) 1.2174(13) 0.7454(11)
F20? F 0.6430(15) 1.1427(15) 0.8747(12)
loop_
_geom_bond_atom_site_label_1
_geom_bond_atom_site_label_2
_geom_bond_site_symmetry_1
_geom_bond_site_symmetry_2
I1 C2 1_555 1_555
I2 C7 1_555 1_555
N1 H1 1_555 1_555
N2 H2 1_555 1_555
C1 H3 1_555 1_555
C2 C1 1_555 1_555
C3 C2 1_555 1_555
H4 C3 1_555 1_555
C4 C3 1_555 1_555
H5 C4 1_555 1_555
C5 H6 1_555 1_555
C6 C5 1_555 1_555
H7 C6 1_555 1_555
C7 C6 1_555 1_555
C8 C7 1_555 1_555
H8 C8 1_555 1_555
C9 C10 1_555 1_555
C10 C1 1_555 1_555
C11 C4 1_555 1_555
C12 C5 1_555 1_555
C13 C8 1_555 1_555
C14 C9 1_555 1_555
C15 C14 1_555 1_555
C16 C15 1_555 1_555
H9 C16 1_555 1_555
C17 N1 1_555 1_555
H10 C17 1_555 1_555
C18 N1 1_555 1_555
H11 C18 1_555 1_555
C19 C15 1_555 1_555
H12 C19 1_555 1_555
C20 C14 1_555 1_555
C21 C20 1_555 1_555
H13 C21 1_555 1_555
C22 N2 1_555 1_555
H14 C22 1_555 1_555
C23 N2 1_555 1_555
H15 C23 1_555 1_555
C24 C20 1_555 1_555
H16 C24 1_555 1_555
I3 C26 1_555 1_555
I4 C31 1_555 1_555
N3 H17 1_555 1_555
N4 H18 1_555 1_555
C25 H19 1_555 1_555
C26 C25 1_555 1_555
C27 C26 1_555 1_555
H20 C27 1_555 1_555
C28 C27 1_555 1_555
H21 C28 1_555 1_555
C29 H22 1_555 1_555
C30 C29 1_555 1_555
H23 C30 1_555 1_555
C31 C30 1_555 1_555
C32 C31 1_555 1_555
H24 C32 1_555 1_555
C33 C34 1_555 1_555
C34 C25 1_555 1_555
C35 C28 1_555 1_555
C36 C29 1_555 1_555
C37 C32 1_555 1_555
C38 C33 1_555 1_555
C39 C38 1_555 1_555
C40 C39 1_555 1_555
H25 C40 1_555 1_555
C41 N3 1_555 1_555
H26 C41 1_555 1_555
C42 N3 1_555 1_555
H27 C42 1_555 1_555
C43 C39 1_555 1_555
H28 C43 1_555 1_555
C44 C38 1_555 1_555
C45 C44 1_555 1_555
H29 C45 1_555 1_555
C46 N4 1_555 1_555
H30 C46 1_555 1_555
C47 N4 1_555 1_555
H31 C47 1_555 1_555
C48 C44 1_555 1_555
H32 C48 1_555 1_555
B1 F1 1_555 1_555
F2 B1 1_555 1_555
F3 B1 1_555 1_555
F4 B1 1_555 1_555
B2 F9 1_555 1_555
F10 B2 1_555 1_555
F11 B2 1_555 1_555
F12 B2 1_555 1_555
B3 F13 1_555 1_555
F14 B3 1_555 1_555
F15 B3 1_555 1_555
F16 B3 1_555 1_555
B5 F21 1_555 1_555
F22 B5 1_555 1_555
F23 B5 1_555 1_555
F24 B5 1_555 1_555
N5 C49 1_555 1_555
C49 C50 1_555 1_555
C50 H33 1_555 1_555
H34 C50 1_555 1_555
H35 C50 1_555 1_555
N6 C51 1_555 1_555
C51 C52 1_555 1_555
C52 H36 1_555 1_555
H37 C52 1_555 1_555
H38 C52 1_555 1_555
C9 C13 1_555 1_555
C10 C11 1_555 1_555
C11 C12 1_555 1_555
C12 C13 1_555 1_555
C16 C17 1_555 1_555
C18 C19 1_555 1_555
C21 C22 1_555 1_555
C23 C24 1_555 1_555
C33 C37 1_555 1_555
C34 C35 1_555 1_555
C35 C36 1_555 1_555
C36 C37 1_555 1_555
C40 C41 1_555 1_555
C42 C43 1_555 1_555
C45 C46 1_555 1_555
C47 C48 1_555 1_555

#END
