
#######################################################################
#
#                 Cambridge Crystallographic Data Centre
#                                CCDC 
#
#######################################################################
#
# If this CIF has been generated from an entry in the Cambridge 
# Structural Database, then it will include bibliographic, chemical, 
# crystal, experimental, refinement or atomic coordinate data resulting 
# from the CCDC's data processing and validation procedures.
#
#######################################################################

data_LEZQUE
_chemical_formula_moiety         'C7 H6 O3,C6 H5 N3'
_chemical_name_systematic        '2-Hydroxybenzoic acid 1H-benzotriazole'
_symmetry_cell_setting           monoclinic
_symmetry_space_group_name_H-M   'P 21/n'
_symmetry_Int_Tables_number      14
_space_group_name_Hall           '-P 2yn'
loop_
_symmetry_equiv_pos_site_id
_symmetry_equiv_pos_as_xyz
1 x,y,z
2 1/2-x,1/2+y,1/2-z
3 -x,-y,-z
4 1/2+x,1/2-y,1/2+z
_cell_length_a                   13.8085(13)
_cell_length_b                   5.3846(4)
_cell_length_c                   16.7063(13)
_cell_angle_alpha                90
_cell_angle_beta                 102.331(9)
_cell_angle_gamma                90
_cell_volume                     1213.51
_exptl_crystal_colour            colorless
_exptl_crystal_description       block
_cell_formula_units_Z            4
loop_
_atom_site_label
_atom_site_type_symbol
_atom_site_fract_x
_atom_site_fract_y
_atom_site_fract_z
O1 O 0.76480(15) 0.3015(3) 0.44428(9)
H1 H 0.7238 0.4031 0.4525
O2 O 0.64886(11) 0.5156(3) 0.52261(8)
O3 O 0.64884(12) 0.3986(3) 0.65098(8)
H2 H 0.6140 0.5225 0.6495
C1 C 0.79074(16) 0.1517(4) 0.51030(12)
C2 C 0.75112(14) 0.1802(3) 0.58009(11)
C3 C 0.78185(15) 0.0184(4) 0.64593(12)
H3 H 0.7562 0.0359 0.6928
C4 C 0.84928(17) -0.1659(4) 0.64248(14)
H4 H 0.8692 -0.2733 0.6865
C5 C 0.88734(17) -0.1906(4) 0.57309(14)
H5 H 0.9329 -0.3161 0.5707
C6 C 0.85944(18) -0.0340(4) 0.50738(14)
H6 H 0.8864 -0.0522 0.4613
C7 C 0.67864(15) 0.3784(4) 0.58167(11)
N1 N 0.47613(13) 1.2250(3) 0.35049(10)
N2 N 0.49166(13) 1.1042(3) 0.42000(10)
N3 N 0.55369(12) 0.9178(3) 0.41590(9)
H7 H 0.5740 0.8135 0.4549
C8 C 0.53058(14) 1.1126(3) 0.30026(11)
C9 C 0.58086(14) 0.9128(3) 0.34234(11)
C10 C 0.64284(16) 0.7614(4) 0.30751(12)
H8 H 0.6765 0.6275 0.3357
C11 C 0.65137(16) 0.8205(4) 0.22964(12)
H9 H 0.6918 0.7235 0.2043
C12 C 0.60118(16) 1.0219(4) 0.18702(12)
H10 H 0.6095 1.0553 0.1343
C13 C 0.54021(15) 1.1715(4) 0.22051(11)
H11 H 0.5069 1.3052 0.1919
loop_
_geom_bond_atom_site_label_1
_geom_bond_atom_site_label_2
_geom_bond_site_symmetry_1
_geom_bond_site_symmetry_2
O1 H1 1_555 1_555
O2 C7 1_555 1_555
O3 H2 1_555 1_555
C1 O1 1_555 1_555
C2 C1 1_555 1_555
C3 C2 1_555 1_555
H3 C3 1_555 1_555
C4 C3 1_555 1_555
H4 C4 1_555 1_555
C5 C4 1_555 1_555
H5 C5 1_555 1_555
C6 C1 1_555 1_555
H6 C6 1_555 1_555
C7 O3 1_555 1_555
N1 N2 1_555 1_555
N2 N3 1_555 1_555
N3 H7 1_555 1_555
C8 N1 1_555 1_555
C9 N3 1_555 1_555
C10 C9 1_555 1_555
H8 C10 1_555 1_555
C11 C10 1_555 1_555
H9 C11 1_555 1_555
C12 C11 1_555 1_555
H10 C12 1_555 1_555
C13 C8 1_555 1_555
H11 C13 1_555 1_555
C2 C7 1_555 1_555
C5 C6 1_555 1_555
C8 C9 1_555 1_555
C12 C13 1_555 1_555

#END
