
#######################################################################
#
#                 Cambridge Crystallographic Data Centre
#                                CCDC 
#
#######################################################################
#
# If this CIF has been generated from an entry in the Cambridge 
# Structural Database, then it will include bibliographic, chemical, 
# crystal, experimental, refinement or atomic coordinate data resulting 
# from the CCDC's data processing and validation procedures.
#
#######################################################################

data_LEZQOX
_chemical_compound_source        
'The marine algicolous fungus of the genus Botrytis'
_chemical_formula_moiety         'C21 H15 Br2 Cl1 O5'
_chemical_name_systematic        
'1-(5-(((4-bromophenyl)carbonyl)oxy)-4-chloro-3-oxocyclopent-1-en-1-yl)ethyl 4-bromobenzoate'
_symmetry_cell_setting           triclinic
_symmetry_space_group_name_H-M   'P -1'
_symmetry_Int_Tables_number      2
_space_group_name_Hall           '-P 1'
loop_
_symmetry_equiv_pos_site_id
_symmetry_equiv_pos_as_xyz
1 x,y,z
2 -x,-y,-z
_cell_length_a                   6.6847(5)
_cell_length_b                   12.1890(9)
_cell_length_c                   13.078(1)
_cell_angle_alpha                83.984(1)
_cell_angle_beta                 80.366(1)
_cell_angle_gamma                84.514(1)
_cell_volume                     1041.46
_exptl_crystal_colour            colorless
_exptl_crystal_description       block
_cell_formula_units_Z            2
loop_
_atom_site_label
_atom_site_type_symbol
_atom_site_fract_x
_atom_site_fract_y
_atom_site_fract_z
Cl1 Cl 0.27806(15) 0.76865(10) 0.76844(9)
Br1 Br 1.41747(6) 0.29515(4) 0.48104(3)
Br2 Br 1.28261(9) 1.01239(5) 1.42480(4)
O1 O 0.3722(5) 0.9623(3) 0.8760(3)
O2 O 0.7805(4) 0.6344(2) 0.7940(2)
O3 O 0.9271(4) 0.7554(2) 1.0638(2)
O4 O 0.5518(4) 0.5218(3) 0.7664(2)
O5 O 1.2414(4) 0.6692(3) 1.0489(2)
C1 C 0.4933(6) 0.8824(4) 0.8763(3)
C2 C 0.6458(6) 0.8525(4) 0.9454(3)
H1 H 0.6848 0.8993 0.9890
C3 C 0.7198(6) 0.7479(3) 0.9359(3)
C4 C 0.6215(5) 0.6930(3) 0.8607(3)
H2 H 0.5226 0.6425 0.8981
C5 C 0.5160(6) 0.7905(4) 0.8032(3)
H3 H 0.6080 0.8131 0.7395
C6 C 0.8736(6) 0.6828(3) 0.9930(3)
H4 H 0.9946 0.6618 0.9435
C7 C 0.7920(6) 0.5805(4) 1.0543(3)
H5 H 0.6730 0.6011 1.1025
H6 H 0.8939 0.5428 1.0919
H7 H 0.7572 0.5323 1.0075
C8 C 0.7244(6) 0.5477(3) 0.7519(3)
C9 C 0.8958(6) 0.4884(3) 0.6866(3)
C10 C 1.0965(6) 0.5144(4) 0.6810(3)
H8 H 1.1261 0.5708 0.7174
C11 C 1.2507(6) 0.4552(4) 0.6205(3)
H9 H 1.3854 0.4705 0.6170
C12 C 1.2037(6) 0.3739(3) 0.5659(3)
C13 C 1.0067(6) 0.3475(4) 0.5695(3)
H10 H 0.9775 0.2917 0.5322
C14 C 0.8535(6) 0.4071(4) 0.6307(3)
H11 H 0.7190 0.3915 0.6338
C15 C 1.1172(6) 0.7364(4) 1.0874(3)
C16 C 1.1517(6) 0.8087(4) 1.1659(3)
C17 C 1.0058(7) 0.8872(4) 1.2075(3)
H12 H 0.8820 0.8991 1.1829
C18 C 1.0417(7) 0.9475(4) 1.2844(4)
H13 H 0.9423 0.9991 1.3132
C19 C 1.2285(7) 0.9303(4) 1.3182(3)
C20 C 1.3786(6) 0.8539(4) 1.2770(3)
H14 H 1.5034 0.8434 1.3006
C21 C 1.3396(6) 0.7942(4) 1.2010(3)
H15 H 1.4397 0.7430 1.1720
loop_
_geom_bond_atom_site_label_1
_geom_bond_atom_site_label_2
_geom_bond_site_symmetry_1
_geom_bond_site_symmetry_2
Cl1 C5 1_555 1_555
Br1 C12 1_555 1_555
Br2 C19 1_555 1_555
O1 C1 1_555 1_555
O2 C4 1_555 1_555
O3 C6 1_555 1_555
O4 C8 1_555 1_555
O5 C15 1_555 1_555
C1 C2 1_555 1_555
C2 H1 1_555 1_555
C3 C2 1_555 1_555
C4 C3 1_555 1_555
H2 C4 1_555 1_555
C5 C1 1_555 1_555
H3 C5 1_555 1_555
C6 C3 1_555 1_555
H4 C6 1_555 1_555
C7 C6 1_555 1_555
H5 C7 1_555 1_555
H6 C7 1_555 1_555
H7 C7 1_555 1_555
C8 O2 1_555 1_555
C9 C8 1_555 1_555
C10 C9 1_555 1_555
H8 C10 1_555 1_555
C11 C10 1_555 1_555
H9 C11 1_555 1_555
C12 C11 1_555 1_555
C13 C12 1_555 1_555
H10 C13 1_555 1_555
C14 C9 1_555 1_555
H11 C14 1_555 1_555
C15 O3 1_555 1_555
C16 C15 1_555 1_555
C17 C16 1_555 1_555
H12 C17 1_555 1_555
C18 C17 1_555 1_555
H13 C18 1_555 1_555
C19 C18 1_555 1_555
C20 C19 1_555 1_555
H14 C20 1_555 1_555
C21 C16 1_555 1_555
H15 C21 1_555 1_555
C4 C5 1_555 1_555
C13 C14 1_555 1_555
C20 C21 1_555 1_555

#END
