
#######################################################################
#
#                 Cambridge Crystallographic Data Centre
#                                CCDC 
#
#######################################################################
#
# If this CIF has been generated from an entry in the Cambridge 
# Structural Database, then it will include bibliographic, chemical, 
# crystal, experimental, refinement or atomic coordinate data resulting 
# from the CCDC's data processing and validation procedures.
#
#######################################################################

data_LEZRIU
_chemical_formula_moiety         'C28 H26 F1 N1 O8 S1'
_chemical_name_systematic        
'dimethyl (3-{[(4-fluorobenzene-1-carbonyl)oxy]methyl}-2-[(4-methylphenyl)sulfonyl]-2,3-dihydro-1H-isoindol-1-yl)propanedioate'
_symmetry_cell_setting           orthorhombic
_symmetry_space_group_name_H-M   'P b c a'
_symmetry_Int_Tables_number      61
_space_group_name_Hall           '-P 2ac 2ab'
loop_
_symmetry_equiv_pos_site_id
_symmetry_equiv_pos_as_xyz
1 x,y,z
2 1/2-x,-y,1/2+z
3 -x,1/2+y,1/2-z
4 1/2+x,1/2-y,-z
5 -x,-y,-z
6 1/2+x,y,1/2-z
7 x,1/2-y,1/2+z
8 1/2-x,1/2+y,z
_cell_length_a                   8.2423(2)
_cell_length_b                   18.2962(6)
_cell_length_c                   34.5544(12)
_cell_angle_alpha                90
_cell_angle_beta                 90
_cell_angle_gamma                90
_cell_volume                     5210.9
_exptl_crystal_colour            colorless
_exptl_crystal_description       block
_cell_formula_units_Z            8
loop_
_atom_site_label
_atom_site_type_symbol
_atom_site_fract_x
_atom_site_fract_y
_atom_site_fract_z
S1 S 0.78028(7) 0.74392(4) 0.44512(2)
F1 F 0.4246(2) 0.96770(12) 0.21215(6)
O1 O 0.6921(2) 0.73448(12) 0.27188(7)
O2 O 0.8167(2) 0.86199(12) 0.36482(7)
O3 O 0.4035(2) 0.84217(12) 0.37839(7)
O4 O 0.8354(2) 0.64941(12) 0.30411(7)
O5 O 0.9389(2) 0.74787(13) 0.42770(7)
O6 O 0.7287(2) 0.79914(12) 0.47165(7)
O7 O 0.5017(3) 0.95384(12) 0.39448(8)
O8 O 1.0014(2) 0.79055(14) 0.33563(8)
N1 N 0.6507(3) 0.74476(14) 0.40926(8)
C1 C 0.7579(3) 0.70531(16) 0.30355(9)
C2 C 0.5265(3) 0.66014(15) 0.36795(9)
C3 C 0.7204(3) 0.75151(15) 0.33905(9)
H1 H 0.6238 0.7811 0.3338
C4 C 0.4080(3) 0.68789(15) 0.39227(9)
C5 C 0.6852(3) 0.70122(16) 0.37426(9)
H2 H 0.7752 0.6672 0.3787
C6 C 0.4476(3) 0.92395(15) 0.32812(10)
C7 C 0.4554(3) 0.91024(16) 0.37067(10)
C8 C 0.8642(3) 0.80259(16) 0.34614(9)
C9 C 0.5348(3) 0.98255(17) 0.31264(10)
H3 H 0.5985 1.0115 0.3287
C10 C 0.4326(3) 0.95357(17) 0.25075(10)
C11 C 0.3523(3) 0.88116(16) 0.30423(10)
H4 H 0.2932 0.8426 0.3147
C12 C 0.4748(3) 0.74266(16) 0.42033(9)
H5 H 0.4641 0.7237 0.4467
C13 C 0.4920(3) 0.60616(16) 0.34125(10)
H6 H 0.5724 0.5875 0.3252
C14 C 0.5265(3) 0.99745(17) 0.27350(10)
H7 H 0.5835 1.0365 0.2629
C15 C 0.6568(3) 0.65339(18) 0.50026(10)
H8 H 0.5990 0.6940 0.5087
C16 C 0.3991(3) 0.81808(17) 0.41806(9)
H9 H 0.2878 0.8163 0.4271
H10 H 0.4589 0.8519 0.4343
C17 C 0.8434(3) 0.59726(18) 0.45526(10)
H11 H 0.9106 0.6005 0.4337
C18 C 0.3440(3) 0.89526(18) 0.26479(10)
H12 H 0.2811 0.8665 0.2484
C19 C 0.2481(3) 0.66315(18) 0.38955(10)
H13 H 0.1679 0.6819 0.4057
C20 C 0.7605(3) 0.65914(18) 0.46882(9)
C21 C 0.3320(3) 0.58035(17) 0.33914(10)
H14 H 0.3065 0.5429 0.3220
C22 C 0.7249(3) 0.52544(18) 0.50715(10)
C23 C 0.6396(3) 0.58739(19) 0.51895(10)
H15 H 0.5694 0.5840 0.5399
C24 C 0.7234(4) 0.69474(19) 0.23610(10)
H16 H 0.6642 0.7171 0.2153
H17 H 0.6892 0.6449 0.2390
H18 H 0.8373 0.6961 0.2304
C25 C 0.2115(3) 0.60980(19) 0.36222(11)
H19 H 0.1051 0.5938 0.3595
C26 C 0.8243(4) 0.53142(19) 0.47429(11)
H20 H 0.8783 0.4903 0.4652
C27 C 0.9444(4) 0.91136(19) 0.37629(11)
H21 H 0.9961 0.9309 0.3537
H22 H 1.0229 0.8854 0.3916
H23 H 0.8993 0.9506 0.3913
C28 C 0.7161(4) 0.4557(2) 0.52980(12)
H24 H 0.7949 0.4568 0.5502
H25 H 0.7382 0.4151 0.5130
H26 H 0.6095 0.4505 0.5407
loop_
_geom_bond_atom_site_label_1
_geom_bond_atom_site_label_2
_geom_bond_site_symmetry_1
_geom_bond_site_symmetry_2
S1 O5 1_555 1_555
F1 C10 1_555 1_555
O1 C1 1_555 1_555
O2 C8 1_555 1_555
O3 C7 1_555 1_555
O4 C1 1_555 1_555
O6 S1 1_555 1_555
O7 C7 1_555 1_555
O8 C8 1_555 1_555
N1 S1 1_555 1_555
C1 C3 1_555 1_555
C2 C4 1_555 1_555
C3 H1 1_555 1_555
C4 C12 1_555 1_555
C5 N1 1_555 1_555
H2 C5 1_555 1_555
C6 C7 1_555 1_555
C8 C3 1_555 1_555
C9 C6 1_555 1_555
H3 C9 1_555 1_555
C10 C14 1_555 1_555
C11 C6 1_555 1_555
H4 C11 1_555 1_555
C12 N1 1_555 1_555
H5 C12 1_555 1_555
C13 C2 1_555 1_555
H6 C13 1_555 1_555
C14 C9 1_555 1_555
H7 C14 1_555 1_555
C15 H8 1_555 1_555
C16 O3 1_555 1_555
H9 C16 1_555 1_555
H10 C16 1_555 1_555
C17 H11 1_555 1_555
C18 C10 1_555 1_555
H12 C18 1_555 1_555
C19 C4 1_555 1_555
H13 C19 1_555 1_555
C20 S1 1_555 1_555
C21 C13 1_555 1_555
H14 C21 1_555 1_555
C22 C23 1_555 1_555
C23 C15 1_555 1_555
H15 C23 1_555 1_555
C24 O1 1_555 1_555
H16 C24 1_555 1_555
H17 C24 1_555 1_555
H18 C24 1_555 1_555
C25 C19 1_555 1_555
H19 C25 1_555 1_555
C26 C17 1_555 1_555
H20 C26 1_555 1_555
C27 O2 1_555 1_555
H21 C27 1_555 1_555
H22 C27 1_555 1_555
H23 C27 1_555 1_555
C28 C22 1_555 1_555
H24 C28 1_555 1_555
H25 C28 1_555 1_555
H26 C28 1_555 1_555
C2 C5 1_555 1_555
C3 C5 1_555 1_555
C11 C18 1_555 1_555
C12 C16 1_555 1_555
C15 C20 1_555 1_555
C17 C20 1_555 1_555
C21 C25 1_555 1_555
C22 C26 1_555 1_555

#END
