
#######################################################################
#
#                 Cambridge Crystallographic Data Centre
#                                CCDC 
#
#######################################################################
#
# If this CIF has been generated from an entry in the Cambridge 
# Structural Database, then it will include bibliographic, chemical, 
# crystal, experimental, refinement or atomic coordinate data resulting 
# from the CCDC's data processing and validation procedures.
#
#######################################################################

data_LEZTOA
_chemical_formula_moiety         'C18 H18 O3'
_chemical_name_systematic        
3-(2,4-dimethylphenoxymethyl)-3,4-dihydroisocoumarin
_symmetry_cell_setting           orthorhombic
_symmetry_space_group_name_H-M   'P b c a'
_symmetry_Int_Tables_number      61
_space_group_name_Hall           '-P 2ac 2ab'
loop_
_symmetry_equiv_pos_site_id
_symmetry_equiv_pos_as_xyz
1 x,y,z
2 1/2-x,-y,1/2+z
3 1/2+x,1/2-y,-z
4 -x,1/2+y,1/2-z
5 -x,-y,-z
6 1/2+x,y,1/2-z
7 1/2-x,1/2+y,z
8 x,1/2-y,1/2+z
_cell_length_a                   8.239(2)
_cell_length_b                   14.918(5)
_cell_length_c                   24.831(9)
_cell_angle_alpha                90
_cell_angle_beta                 90
_cell_angle_gamma                90
_cell_volume                     3051.96
_exptl_crystal_colour            colorless
_exptl_crystal_description       needles
_chemical_melting_point          '98 deg.C'
_cell_formula_units_Z            8
_exptl_crystal_recrystallization_method dimethylformamide
loop_
_atom_site_label
_atom_site_type_symbol
_atom_site_fract_x
_atom_site_fract_y
_atom_site_fract_z
C1 C 0.5785(3) -0.08624(15) 0.04848(9)
O1 O 0.50168(19) -0.14159(12) 0.02367(8)
O2 O 0.49401(18) -0.02053(10) 0.07375(7)
C2 C 0.5785(3) 0.04169(16) 0.10955(10)
C3 C 0.7340(3) 0.07281(17) 0.08405(12)
C4 C 0.8362(3) -0.00702(15) 0.06943(9)
C5 C 1.0043(3) -0.0069(2) 0.07106(10)
C6 C 1.0913(3) -0.0828(2) 0.05677(11)
C7 C 1.0122(3) -0.1587(2) 0.03948(12)
C8 C 0.8450(3) -0.16022(18) 0.03711(11)
C9 C 0.7564(3) -0.08438(14) 0.05243(8)
C10 C 0.4607(3) 0.11647(18) 0.11985(12)
O3 O 0.3343(2) 0.08279(10) 0.15344(7)
C11 C 0.0962(5) 0.0073(2) 0.21643(15)
C12 C -0.2135(5) 0.2982(3) 0.2030(2)
C13 C 0.2067(3) 0.13922(16) 0.16485(9)
C14 C 0.0845(3) 0.10256(15) 0.19664(9)
C15 C -0.0480(3) 0.15538(19) 0.20857(11)
C16 C -0.0641(3) 0.24332(17) 0.19014(10)
C17 C 0.0609(3) 0.27756(19) 0.15971(11)
C18 C 0.1964(3) 0.22671(17) 0.14692(11)
H1 H 0.598(3) 0.0090(16) 0.1428(10)
H2 H 0.701(3) 0.1093(17) 0.0505(12)
H3 H 0.790(3) 0.115(2) 0.1084(13)
H4 H 1.054(3) 0.044(2) 0.0821(11)
H5 H 1.216(4) -0.077(2) 0.0608(14)
H6 H 1.069(4) -0.217(2) 0.0258(14)
H7 H 0.780(3) -0.215(2) 0.0260(12)
H8 H 0.412(3) 0.1406(16) 0.0836(11)
H9 H 0.519(3) 0.1667(18) 0.1396(11)
H10 H -0.134(3) 0.1343(16) 0.2282(11)
H11 H 0.050(3) 0.3392(19) 0.1468(11)
H12 H 0.281(3) 0.2516(18) 0.1249(12)
H13 H 0.205(5) -0.009(2) 0.2232(16)
H14 H 0.106(5) -0.037(3) 0.1885(16)
H15 H 0.004(5) -0.006(2) 0.2364(14)
H16 H -0.301(5) 0.260(3) 0.2157(17)
H17 H -0.201(6) 0.325(3) 0.239(2)
H18 H -0.256(6) 0.324(4) 0.175(3)
loop_
_geom_bond_atom_site_label_1
_geom_bond_atom_site_label_2
_geom_bond_site_symmetry_1
_geom_bond_site_symmetry_2
C1 O1 1_555 1_555
O2 C1 1_555 1_555
C2 O2 1_555 1_555
C3 C2 1_555 1_555
C4 C3 1_555 1_555
C5 C4 1_555 1_555
C6 C5 1_555 1_555
C7 C6 1_555 1_555
C8 C7 1_555 1_555
C9 C1 1_555 1_555
C10 C2 1_555 1_555
O3 C10 1_555 1_555
C11 C14 1_555 1_555
C12 C16 1_555 1_555
C13 O3 1_555 1_555
C14 C13 1_555 1_555
C15 C14 1_555 1_555
C16 C15 1_555 1_555
C17 C16 1_555 1_555
C18 C13 1_555 1_555
H1 C2 1_555 1_555
H2 C3 1_555 1_555
H3 C3 1_555 1_555
H4 C5 1_555 1_555
H5 C6 1_555 1_555
H6 C7 1_555 1_555
H7 C8 1_555 1_555
H8 C10 1_555 1_555
H9 C10 1_555 1_555
H10 C15 1_555 1_555
H11 C17 1_555 1_555
H12 C18 1_555 1_555
H13 C11 1_555 1_555
H14 C11 1_555 1_555
H15 C11 1_555 1_555
H16 C12 1_555 1_555
H17 C12 1_555 1_555
H18 C12 1_555 1_555
C4 C9 1_555 1_555
C8 C9 1_555 1_555
C17 C18 1_555 1_555

#END
