
#######################################################################
#
#                 Cambridge Crystallographic Data Centre
#                                CCDC 
#
#######################################################################
#
# If this CIF has been generated from an entry in the Cambridge 
# Structural Database, then it will include bibliographic, chemical, 
# crystal, experimental, refinement or atomic coordinate data resulting 
# from the CCDC's data processing and validation procedures.
#
#######################################################################

data_LEZVOE
_chemical_compound_source        'Pyxidicoccus fallax'
_chemical_name_common            'Pyxidicycline B formic acid'
_chemical_formula_moiety         'C21 H15 N1 O7,C1 H2 O2'
_chemical_name_systematic        
'2-(10,12-dihydroxy-1-methyl-3,6,11-trioxo-6,11-dihydronaphtho[2,3-g]isoquinolin-2(3H)-yl)ethyl formate formic acid'
_symmetry_cell_setting           triclinic
_symmetry_space_group_name_H-M   'P -1'
_symmetry_Int_Tables_number      2
_space_group_name_Hall           '-P 1'
loop_
_symmetry_equiv_pos_site_id
_symmetry_equiv_pos_as_xyz
1 x,y,z
2 -x,-y,-z
_cell_length_a                   7.0902(12)
_cell_length_b                   7.9097(15)
_cell_length_c                   17.330(3)
_cell_angle_alpha                89.561(13)
_cell_angle_beta                 84.797(11)
_cell_angle_gamma                74.655(12)
_cell_volume                     933.245
_exptl_crystal_colour            red
_exptl_crystal_description       plate
_cell_formula_units_Z            2
loop_
_atom_site_label
_atom_site_type_symbol
_atom_site_fract_x
_atom_site_fract_y
_atom_site_fract_z
O1 O 0.1924(9) 0.1200(8) 0.1896(3)
O2 O 0.4364(8) 0.1588(7) 0.5903(3)
O3 O 0.2204(8) 0.9208(7) 0.6772(3)
H1 H 0.1821 0.9436 0.6329
O4 O 0.1603(7) 0.8506(7) 0.5380(3)
O5 O 0.0952(7) 0.7853(7) 0.4050(3)
H2 H 0.1532 0.8156 0.3650
N1 N 0.1302(8) 0.4089(9) 0.2279(4)
C1 C 0.1909(12) 0.2248(14) 0.2430(6)
C2 C 0.2472(11) 0.1804(11) 0.3168(5)
H3 H 0.2913 0.0600 0.3293
C3 C 0.2407(10) 0.3094(10) 0.3738(5)
C4 C 0.3025(10) 0.2570(12) 0.4475(5)
H4 H 0.3471 0.1357 0.4582
C5 C 0.2990(9) 0.3783(11) 0.5036(4)
C6 C 0.3651(10) 0.3167(11) 0.5781(4)
C7 C 0.3500(10) 0.4478(11) 0.6402(4)
C8 C 0.4022(11) 0.3886(12) 0.7124(5)
H5 H 0.4414 0.2665 0.7220
C9 C 0.3968(11) 0.5079(13) 0.7701(5)
H6 H 0.4370 0.4683 0.8194
C10 C 0.3345(10) 0.6815(12) 0.7571(4)
H7 H 0.3279 0.7620 0.7982
C11 C 0.2798(10) 0.7457(11) 0.6853(4)
C12 C 0.2849(9) 0.6283(10) 0.6253(4)
C13 C 0.2217(10) 0.6858(11) 0.5500(4)
C14 C 0.2291(9) 0.5609(10) 0.4887(4)
C15 C 0.1678(10) 0.6143(10) 0.4157(4)
C16 C 0.1755(10) 0.4910(10) 0.3545(4)
C17 C 0.1252(10) 0.5381(10) 0.2808(4)
C18 C 0.0738(11) 0.7251(10) 0.2521(4)
H8 H 0.0747 0.8057 0.2946
H9 H 0.1706 0.7367 0.2097
H10 H -0.0571 0.7536 0.2334
C19 C 0.0615(12) 0.4465(13) 0.1507(5)
H11 H -0.0214 0.5687 0.1505
H12 H -0.0218 0.3682 0.1402
C20 C 0.2269(18) 0.4228(18) 0.0853(7)
H13 H 0.3308 0.3148 0.0941
H14 H 0.1747 0.4080 0.0354
O6 O 0.3079(12) 0.5635(13) 0.0806(5)
C21 C 0.276(4) 0.691(4) 0.0179(15)
H15 H 0.2717 0.8123 0.0151
O7 O 0.256(3) 0.577(3) -0.0324(12)
H16? H 0.3826 0.7411 0.0046
O8? O 0.125(5) 0.748(6) -0.023(2)
O9? O 0.536(2) 1.132(2) -0.1343(9)
O10? O 0.243(5) 1.145(4) -0.1026(16)
O11? O 0.010(2) 0.999(2) -0.0868(9)
C22? C 0.392(4) 1.107(3) -0.1139(11)
O12? O 0.389(4) 1.002(4) -0.0719(16)
loop_
_geom_bond_atom_site_label_1
_geom_bond_atom_site_label_2
_geom_bond_site_symmetry_1
_geom_bond_site_symmetry_2
O1 C1 1_555 1_555
O2 C6 1_555 1_555
O3 H1 1_555 1_555
O4 C13 1_555 1_555
O5 H2 1_555 1_555
N1 C1 1_555 1_555
C1 C2 1_555 1_555
C2 H3 1_555 1_555
C3 C2 1_555 1_555
C4 C3 1_555 1_555
H4 C4 1_555 1_555
C5 C4 1_555 1_555
C6 C5 1_555 1_555
C7 C6 1_555 1_555
C8 C7 1_555 1_555
H5 C8 1_555 1_555
C9 C8 1_555 1_555
H6 C9 1_555 1_555
C10 C9 1_555 1_555
H7 C10 1_555 1_555
C11 O3 1_555 1_555
C12 C7 1_555 1_555
C13 C12 1_555 1_555
C14 C5 1_555 1_555
C15 O5 1_555 1_555
C16 C3 1_555 1_555
C17 N1 1_555 1_555
C18 C17 1_555 1_555
H8 C18 1_555 1_555
H9 C18 1_555 1_555
H10 C18 1_555 1_555
C19 N1 1_555 1_555
H11 C19 1_555 1_555
H12 C19 1_555 1_555
C20 C19 1_555 1_555
H13 C20 1_555 1_555
H14 C20 1_555 1_555
O6 C20 1_555 1_555
C21 O6 1_555 1_555
H15 C21 1_555 1_555
O7 C21 1_555 1_555
C10 C11 1_555 1_555
C11 C12 1_555 1_555
C13 C14 1_555 1_555
C14 C15 1_555 1_555
C15 C16 1_555 1_555
C16 C17 1_555 1_555

#END
