
#######################################################################
#
#                 Cambridge Crystallographic Data Centre
#                                CCDC 
#
#######################################################################
#
# If this CIF has been generated from an entry in the Cambridge 
# Structural Database, then it will include bibliographic, chemical, 
# crystal, experimental, refinement or atomic coordinate data resulting 
# from the CCDC's data processing and validation procedures.
#
#######################################################################

data_LEZWIZ
_chemical_formula_moiety         'C44 H56 Ca2 O5'
_chemical_name_systematic        
(\m-[1,1'-biphenyl]-2,2'-diyl)-(\m-[1,1'-biphenyl]-2,2'-diyl)-pentakis(tetrahydrofuran)-di-calcium
_symmetry_cell_setting           monoclinic
_symmetry_space_group_name_H-M   'P 21/c'
_symmetry_Int_Tables_number      14
_space_group_name_Hall           '-P 2ybc'
loop_
_symmetry_equiv_pos_site_id
_symmetry_equiv_pos_as_xyz
1 x,y,z
2 -x,1/2+y,1/2-z
3 -x,-y,-z
4 x,1/2-y,1/2+z
_cell_length_a                   16.1464(3)
_cell_length_b                   14.7588(2)
_cell_length_c                   20.6595(5)
_cell_angle_alpha                90
_cell_angle_beta                 126.1900(10)
_cell_angle_gamma                90
_cell_volume                     3973.33
_exptl_crystal_colour            'light yellow'
_exptl_crystal_description       block
_cell_formula_units_Z            4
_chemical_properties_physical    
Air-sensitive,Moisture-sensitive,Oxygen-sensitive
loop_
_atom_site_label
_atom_site_type_symbol
_atom_site_fract_x
_atom_site_fract_y
_atom_site_fract_z
Ca1 Ca 0.77747(3) 0.84347(2) 0.81731(2)
Ca2 Ca 0.74949(3) 0.63246(2) 0.80445(2)
O1 O 0.73929(11) 0.98128(9) 0.74189(8)
O2 O 0.78075(12) 0.94542(10) 0.90984(9)
O3 O 0.88879(10) 0.55239(9) 0.82035(8)
O4 O 0.68207(10) 0.52853(9) 0.85214(8)
O5 O 0.66735(10) 0.51039(8) 0.70529(8)
C1 C 0.58965(13) 0.75326(11) 0.64398(10)
C2 C 0.69730(13) 0.73989(11) 0.68722(10)
C3 C 0.73557(14) 0.75010(12) 0.64148(11)
H1 H 0.8058 0.7433 0.6674
C4 C 0.67477(16) 0.76975(13) 0.56001(12)
H2 H 0.7038 0.7746 0.5325
C5 C 0.57021(16) 0.78207(14) 0.52035(11)
H3 H 0.5286 0.7954 0.4658
C6 C 0.52808(14) 0.77459(13) 0.56184(11)
H4 H 0.4580 0.7838 0.5352
C7 C 0.54339(13) 0.74439(11) 0.68916(11)
C8 C 0.60935(14) 0.75444(12) 0.77386(11)
C9 C 0.55992(16) 0.74728(13) 0.81175(13)
H5 H 0.5998 0.7535 0.8672
C10 C 0.45592(17) 0.73153(15) 0.77146(15)
H6 H 0.4274 0.7283 0.7995
C11 C 0.39521(16) 0.72067(16) 0.68947(15)
H7 H 0.3254 0.7094 0.6619
C12 C 0.43823(15) 0.72660(14) 0.64810(13)
H8 H 0.3971 0.7187 0.5928
C13 C 1.02300(14) 0.77881(12) 0.92761(11)
C14 C 0.95532(14) 0.82680(12) 0.85465(11)
C15 C 0.99712(16) 0.84630(13) 0.81264(13)
H9 H 0.9562 0.8777 0.7645
C16 C 1.09529(16) 0.82189(14) 0.83802(13)
H10 H 1.1174 0.8350 0.8065
C17 C 1.15973(16) 0.77784(14) 0.91082(14)
H11 H 1.2263 0.7626 0.9295
C18 C 1.12354(15) 0.75672(13) 0.95549(13)
H12 H 1.1665 0.7275 1.0046
C19 C 0.98465(14) 0.75049(11) 0.97548(11)
C20 C 0.88031(14) 0.72330(11) 0.93454(11)
C21 C 0.85153(14) 0.70170(12) 0.98518(11)
H13 H 0.7838 0.6845 0.9611
C22 C 0.91719(16) 0.70425(14) 1.06873(12)
H14 H 0.8936 0.6891 1.0990
C23 C 1.01810(17) 0.72976(14) 1.10564(12)
H15 H 1.0636 0.7313 1.1613
C24 C 1.05113(16) 0.75294(13) 1.05934(12)
H16 H 1.1190 0.7705 1.0845
C25 C 0.70789(18) 0.98861(14) 0.66124(13)
H17 H 0.6450 0.9551 0.6246
H18 H 0.7608 0.9662 0.6568
C26 C 0.6912(2) 1.08905(15) 0.64429(14)
H19 H 0.6233 1.1069 0.6272
H20 H 0.6998 1.1061 0.6032
C27 C 0.77325(17) 1.13159(14) 0.72393(14)
H21 H 0.8319 1.1495 0.7251
H22 H 0.7468 1.1845 0.7341
C28 C 0.8025(2) 1.05891(15) 0.78482(15)
H23 H 0.8745 1.0435 0.8133
H24 H 0.7910 1.0796 0.8235
C29 C 0.8711(2) 0.96672(18) 0.98845(16)
H25 H 0.8946 1.0277 0.9898
H26 H 0.9260 0.9244 1.0041
C30 C 0.8388(3) 0.9588(2) 1.04263(18)
H27 H 0.8497 0.8976 1.0635
H28 H 0.8769 1.0007 1.0872
C31 C 0.7306(3) 0.9811(3) 0.9924(2)
H29 H 0.7203 1.0428 1.0026
H30 H 0.6931 0.9405 1.0034
C32 C 0.6946(2) 0.9714(2) 0.90840(18)
H31 H 0.6413 0.9256 0.8813
H32 H 0.6666 1.0284 0.8800
C33 C 0.7353(2) 0.47627(17) 0.92441(14)
H33 H 0.7981 0.5066 0.9663
H34 H 0.7526 0.4170 0.9153
C34 C 0.6649(3) 0.4676(2) 0.94784(18)
H35 H 0.6862 0.5072 0.9927
H36 H 0.6636 0.4057 0.9630
C35 C 0.5604(2) 0.4951(2) 0.8744(2)
H37 H 0.5382 0.5514 0.8838
H38 H 0.5099 0.4485 0.8602
C36 C 0.57515(16) 0.50658(15) 0.80887(14)
H39 H 0.5590 0.4510 0.7785
H40 H 0.5324 0.5551 0.7725
C37 C 0.69801(17) 0.41596(13) 0.72297(13)
H41 H 0.6680 0.3868 0.7467
H42 H 0.7721 0.4106 0.7596
C38 C 0.65827(18) 0.37442(15) 0.64346(14)
H43 H 0.7063 0.3827 0.6302
H44 H 0.6450 0.3102 0.6429
C39 C 0.5620(2) 0.42503(17) 0.58745(16)
H45 H 0.5060 0.4002 0.5869
H46 H 0.5433 0.4239 0.5334
C40 C 0.58794(18) 0.51991(15) 0.62109(13)
H47 H 0.6119 0.5559 0.5959
H48 H 0.5282 0.5492 0.6121
C41 C 0.88897(16) 0.55117(15) 0.75023(13)
H49 H 0.8367 0.5914 0.7090
H50 H 0.8767 0.4904 0.7284
C42 C 0.99397(17) 0.58328(16) 0.78052(14)
H51 H 0.9988 0.6488 0.7849
H52 H 1.0127 0.5633 0.7460
C43 C 1.06064(16) 0.53846(16) 0.86261(14)
H53 H 1.1221 0.5738 0.8991
H54 H 1.0804 0.4778 0.8586
C44 C 0.99230(15) 0.53573(14) 0.89079(13)
H55 H 0.9967 0.4770 0.9137
H56 H 1.0129 0.5819 0.9311
loop_
_geom_bond_atom_site_label_1
_geom_bond_atom_site_label_2
_geom_bond_site_symmetry_1
_geom_bond_site_symmetry_2
Ca1 O1 1_555 1_555
Ca2 O3 1_555 1_555
O1 C25 1_555 1_555
O2 Ca1 1_555 1_555
O3 C41 1_555 1_555
O4 Ca2 1_555 1_555
O5 Ca2 1_555 1_555
C1 C2 1_555 1_555
C2 Ca1 1_555 1_555
C3 C2 1_555 1_555
H1 C3 1_555 1_555
C4 C3 1_555 1_555
H2 C4 1_555 1_555
C5 C4 1_555 1_555
H3 C5 1_555 1_555
C6 C1 1_555 1_555
H4 C6 1_555 1_555
C7 C1 1_555 1_555
C8 Ca1 1_555 1_555
C9 C8 1_555 1_555
H5 C9 1_555 1_555
C10 C9 1_555 1_555
H6 C10 1_555 1_555
C11 C10 1_555 1_555
H7 C11 1_555 1_555
C12 C7 1_555 1_555
H8 C12 1_555 1_555
C13 C14 1_555 1_555
C14 Ca1 1_555 1_555
C15 C14 1_555 1_555
H9 C15 1_555 1_555
C16 C15 1_555 1_555
H10 C16 1_555 1_555
C17 C16 1_555 1_555
H11 C17 1_555 1_555
C18 C13 1_555 1_555
H12 C18 1_555 1_555
C19 C13 1_555 1_555
C20 Ca1 1_555 1_555
C21 C20 1_555 1_555
H13 C21 1_555 1_555
C22 C21 1_555 1_555
H14 C22 1_555 1_555
C23 C22 1_555 1_555
H15 C23 1_555 1_555
C24 C19 1_555 1_555
H16 C24 1_555 1_555
C25 H17 1_555 1_555
H18 C25 1_555 1_555
C26 C25 1_555 1_555
H19 C26 1_555 1_555
H20 C26 1_555 1_555
C27 C26 1_555 1_555
H21 C27 1_555 1_555
H22 C27 1_555 1_555
C28 O1 1_555 1_555
H23 C28 1_555 1_555
H24 C28 1_555 1_555
C29 O2 1_555 1_555
H25 C29 1_555 1_555
H26 C29 1_555 1_555
C30 C29 1_555 1_555
H27 C30 1_555 1_555
H28 C30 1_555 1_555
C31 C30 1_555 1_555
H29 C31 1_555 1_555
H30 C31 1_555 1_555
C32 O2 1_555 1_555
H31 C32 1_555 1_555
H32 C32 1_555 1_555
C33 O4 1_555 1_555
H33 C33 1_555 1_555
H34 C33 1_555 1_555
C34 C33 1_555 1_555
H35 C34 1_555 1_555
H36 C34 1_555 1_555
C35 C34 1_555 1_555
H37 C35 1_555 1_555
H38 C35 1_555 1_555
C36 O4 1_555 1_555
H39 C36 1_555 1_555
H40 C36 1_555 1_555
C37 O5 1_555 1_555
H41 C37 1_555 1_555
H42 C37 1_555 1_555
C38 C37 1_555 1_555
H43 C38 1_555 1_555
H44 C38 1_555 1_555
C39 C38 1_555 1_555
H45 C39 1_555 1_555
H46 C39 1_555 1_555
C40 O5 1_555 1_555
H47 C40 1_555 1_555
H48 C40 1_555 1_555
C41 H49 1_555 1_555
H50 C41 1_555 1_555
C42 C41 1_555 1_555
H51 C42 1_555 1_555
H52 C42 1_555 1_555
C43 C42 1_555 1_555
H53 C43 1_555 1_555
H54 C43 1_555 1_555
C44 O3 1_555 1_555
H55 C44 1_555 1_555
H56 C44 1_555 1_555
Ca2 C2 1_555 1_555
Ca2 C8 1_555 1_555
Ca2 C20 1_555 1_555
C5 C6 1_555 1_555
C7 C8 1_555 1_555
C11 C12 1_555 1_555
C17 C18 1_555 1_555
C19 C20 1_555 1_555
C23 C24 1_555 1_555
C27 C28 1_555 1_555
C31 C32 1_555 1_555
C35 C36 1_555 1_555
C39 C40 1_555 1_555
C43 C44 1_555 1_555

#END
