
#######################################################################
#
#                 Cambridge Crystallographic Data Centre
#                                CCDC 
#
#######################################################################
#
# If this CIF has been generated from an entry in the Cambridge 
# Structural Database, then it will include bibliographic, chemical, 
# crystal, experimental, refinement or atomic coordinate data resulting 
# from the CCDC's data processing and validation procedures.
#
#######################################################################

data_LEZWOF
_chemical_formula_moiety         'C60 H72 Ca3 O6'
_chemical_name_systematic        
tris(\m-[1,1'-biphenyl]-2,2'-diyl)-hexakis(tetrahydrofuran)-tri-calcium
_symmetry_cell_setting           triclinic
_symmetry_space_group_name_H-M   'P -1'
_symmetry_Int_Tables_number      2
_space_group_name_Hall           '-P 1'
loop_
_symmetry_equiv_pos_site_id
_symmetry_equiv_pos_as_xyz
1 x,y,z
2 -x,-y,-z
_cell_length_a                   10.2714(2)
_cell_length_b                   21.1518(5)
_cell_length_c                   37.3847(5)
_cell_angle_alpha                88.6660(10)
_cell_angle_beta                 85.4240(10)
_cell_angle_gamma                80.768(2)
_cell_volume                     7990.93
_exptl_crystal_colour            'light yellow'
_exptl_crystal_description       block
_cell_formula_units_Z            6
_chemical_properties_physical    
Air-sensitive,Moisture-sensitive,Oxygen-sensitive
loop_
_atom_site_label
_atom_site_type_symbol
_atom_site_fract_x
_atom_site_fract_y
_atom_site_fract_z
Ca1 Ca 0.16608(8) 0.33274(4) 0.71965(2)
Ca2 Ca 0.32127(8) 0.17798(4) 0.73478(2)
Ca3 Ca 0.20334(8) 0.27567(4) 0.80645(2)
O1 O 0.2350(3) 0.41731(16) 0.68177(9)
O2 O -0.0276(4) 0.39191(17) 0.69279(10)
O3 O 0.5365(3) 0.11065(15) 0.72359(10)
O4 O 0.2883(4) 0.07772(17) 0.70967(10)
O5 O 0.2865(4) 0.31861(18) 0.85811(10)
O6 O 0.0509(4) 0.25945(18) 0.85733(9)
C1 C 0.1929(4) 0.2322(2) 0.66024(12)
C2 C 0.1299(4) 0.2240(2) 0.69529(12)
C3 C 0.0032(5) 0.2067(2) 0.69577(13)
H1 H -0.0414 0.2008 0.7179
C4 C -0.0595(5) 0.1979(3) 0.66493(14)
H2 H -0.1419 0.1847 0.6667
C5 C 0.0030(5) 0.2092(3) 0.63146(14)
H3 H -0.0391 0.2050 0.6107
C6 C 0.1276(5) 0.2266(3) 0.62909(13)
H4 H 0.1685 0.2346 0.6067
C7 C 0.3321(4) 0.2473(2) 0.65801(12)
C8 C 0.3822(4) 0.2665(2) 0.68963(12)
C9 C 0.5116(4) 0.2812(2) 0.68492(13)
H5 H 0.5483 0.2944 0.7049
C10 C 0.5883(5) 0.2771(2) 0.65223(15)
H6 H 0.6731 0.2876 0.6506
C11 C 0.5354(5) 0.2570(3) 0.62205(14)
H7 H 0.5853 0.2534 0.6001
C12 C 0.4097(5) 0.2427(2) 0.62483(13)
H8 H 0.3747 0.2296 0.6046
C13 C 0.0188(4) 0.4055(2) 0.78743(12)
C14 C 0.0059(4) 0.3428(2) 0.77696(11)
C15 C -0.1228(4) 0.3274(2) 0.78159(12)
H9 H -0.1355 0.2869 0.7749
C16 C -0.2320(5) 0.3694(3) 0.79564(14)
H10 H -0.3150 0.3568 0.7983
C17 C -0.2158(5) 0.4300(3) 0.80557(16)
H11 H -0.2884 0.4588 0.8146
C18 C -0.0914(5) 0.4480(2) 0.80203(15)
H12 H -0.0806 0.4885 0.8093
C19 C 0.1551(4) 0.4252(2) 0.78381(11)
C20 C 0.2650(4) 0.3772(2) 0.77333(11)
C21 C 0.3896(4) 0.3973(2) 0.77217(12)
H13 H 0.4640 0.3673 0.7658
C22 C 0.4085(5) 0.4591(2) 0.77986(13)
H14 H 0.4933 0.4696 0.7791
C23 C 0.2982(5) 0.5048(2) 0.78876(14)
H15 H 0.3088 0.5466 0.7935
C24 C 0.1726(5) 0.4885(2) 0.79052(14)
H16 H 0.0993 0.5195 0.7962
C25 C 0.2738(4) 0.1217(2) 0.81218(11)
C26 C 0.1747(4) 0.1594(2) 0.79252(11)
C27 C 0.0525(4) 0.1373(2) 0.79404(12)
H17 H -0.0152 0.1609 0.7820
C28 C 0.0265(5) 0.0820(2) 0.81254(13)
H18 H -0.0566 0.0698 0.8129
C29 C 0.1269(5) 0.0453(2) 0.83043(14)
H19 H 0.1118 0.0079 0.8425
C30 C 0.2494(5) 0.0648(2) 0.83003(13)
H20 H 0.3166 0.0401 0.8417
C31 C 0.4051(4) 0.1451(2) 0.81377(11)
C32 C 0.4271(4) 0.2010(2) 0.79320(11)
C33 C 0.5507(4) 0.2203(2) 0.79630(12)
H21 H 0.5691 0.2563 0.7834
C34 C 0.6471(4) 0.1888(2) 0.81746(13)
H22 H 0.7273 0.2036 0.8184
C35 C 0.6221(5) 0.1353(2) 0.83712(14)
H23 H 0.6857 0.1137 0.8513
C36 C 0.5021(5) 0.1140(2) 0.83567(13)
H24 H 0.4851 0.0785 0.8494
C37 C 0.2258(6) 0.4147(3) 0.64349(13)
H25 H 0.1513 0.4451 0.6362
H26 H 0.2148 0.3721 0.6365
C38 C 0.3540(6) 0.4316(3) 0.62657(14)
H27 H 0.3424 0.4516 0.6032
H28 H 0.4220 0.3941 0.6241
C39 C 0.3874(5) 0.4787(2) 0.65362(14)
H29 H 0.4813 0.4811 0.6517
H30 H 0.3380 0.5213 0.6504
C40 C 0.3453(5) 0.4493(2) 0.68891(13)
H31 H 0.4174 0.4188 0.6974
H32 H 0.3180 0.4821 0.7069
C41 C -0.0679(6) 0.4591(3) 0.69966(17)
H33 H -0.0373 0.4845 0.6797
H34 H -0.0315 0.4710 0.7212
C42 C -0.2160(6) 0.4702(3) 0.70424(19)
H35 H -0.2466 0.4742 0.7294
H36 H -0.2521 0.5089 0.6916
C43 C -0.2555(7) 0.4136(3) 0.6888(2)
H37 H -0.3186 0.3963 0.7054
H38 H -0.2968 0.4252 0.6666
C44 C -0.1398(6) 0.3669(3) 0.6820(2)
H39 H -0.1275 0.3569 0.6566
H40 H -0.1496 0.3278 0.6953
C45 C 0.3549(6) 0.2767(3) 0.88383(17)
H41 H 0.3747 0.2333 0.8749
H42 H 0.3006 0.2766 0.9063
C46 C 0.4792(7) 0.3016(3) 0.88933(19)
H43 H 0.5549 0.2751 0.8772
H44 H 0.4928 0.3028 0.9147
C47 C 0.4590(7) 0.3681(3) 0.87330(19)
H45 H 0.5149 0.3701 0.8513
H46 H 0.4787 0.3990 0.8900
C48 C 0.3106(6) 0.3810(3) 0.86582(17)
H47 H 0.2556 0.3986 0.8867
H48 H 0.2953 0.4099 0.8455
C49 C 0.0404(6) 0.2055(3) 0.88087(14)
H49 H 0.0957 0.2059 0.9007
H50 H 0.0672 0.1656 0.8680
C50 C -0.1047(6) 0.2130(3) 0.89438(16)
H51 H -0.1141 0.2063 0.9201
H52 H -0.1488 0.1826 0.8829
C51 C -0.1624(6) 0.2819(3) 0.88443(16)
H53 H -0.2199 0.2828 0.8650
H54 H -0.2120 0.3039 0.9049
C52 C -0.0407(6) 0.3121(3) 0.87279(14)
H55 H -0.0609 0.3460 0.8552
H56 H -0.0057 0.3293 0.8932
C53 C 0.6608(5) 0.1346(2) 0.71552(15)
H57 H 0.6654 0.1708 0.7306
H58 H 0.6694 0.1482 0.6906
C54 C 0.7692(5) 0.0792(3) 0.72299(16)
H59 H 0.8456 0.0943 0.7313
H60 H 0.7965 0.0534 0.7018
C55 C 0.7019(5) 0.0417(3) 0.75226(15)
H61 H 0.7433 -0.0028 0.7528
H62 H 0.7038 0.0602 0.7757
C56 C 0.5618(5) 0.0485(2) 0.74097(15)
H63 H 0.5538 0.0148 0.7245
H64 H 0.4996 0.0461 0.7617
C57 C 0.1884(7) 0.0394(4) 0.7181(2)
H65 H 0.1178 0.0619 0.7341
H66 H 0.2246 -0.0005 0.7295
C58 C 0.1375(8) 0.0269(4) 0.6821(2)
H67 H 0.1329 -0.0183 0.6799
H68 H 0.0496 0.0510 0.6802
C59 C 0.2264(8) 0.0463(4) 0.6547(2)
H69 H 0.1832 0.0823 0.6413
H70 H 0.2587 0.0114 0.6383
C60 C 0.3369(7) 0.0648(3) 0.67313(17)
H71 H 0.4118 0.0304 0.6720
H72 H 0.3650 0.1027 0.6618
Ca4 Ca 0.63743(8) -0.14428(4) 0.57517(2)
Ca5 Ca 0.79283(9) -0.28685(4) 0.53455(2)
Ca6 Ca 0.74471(8) -0.27928(4) 0.62714(2)
O7 O 0.6714(3) -0.03205(17) 0.57967(10)
O8 O 0.4234(3) -0.07829(16) 0.56791(9)
O9 O 0.9885(4) -0.31956(18) 0.49442(11)
O10 O 0.7280(4) -0.35794(17) 0.49063(9)
O11 O 0.8875(3) -0.30871(15) 0.67551(9)
O12 O 0.6231(3) -0.33443(15) 0.67479(8)
C61 C 0.5973(5) -0.1815(2) 0.49506(12)
C62 C 0.5667(4) -0.2160(2) 0.52681(12)
C63 C 0.4392(5) -0.2334(2) 0.53000(14)
H73 H 0.4150 -0.2559 0.5505
C64 C 0.3474(5) -0.2188(3) 0.50429(15)
H74 H 0.2643 -0.2312 0.5077
C65 C 0.3818(5) -0.1859(3) 0.47378(16)
H75 H 0.3220 -0.1763 0.4563
C66 C 0.5047(5) -0.1671(2) 0.46890(14)
H76 H 0.5268 -0.1447 0.4482
C67 C 0.7323(5) -0.1610(2) 0.49028(12)
C68 C 0.8099(5) -0.1657(2) 0.52045(12)
C69 C 0.9353(5) -0.1469(2) 0.51376(14)
H77 H 0.9899 -0.1494 0.5326
C70 C 0.9819(6) -0.1247(2) 0.48068(15)
H78 H 1.0649 -0.1121 0.4779
C71 C 0.9042(6) -0.1215(3) 0.45210(15)
H79 H 0.9357 -0.1076 0.4298
C72 C 0.7805(5) -0.1387(2) 0.45650(14)
H80 H 0.7280 -0.1358 0.4372
C73 C 0.5604(4) -0.1544(2) 0.65879(12)
C74 C 0.5310(4) -0.1971(2) 0.63276(12)
C75 C 0.4018(5) -0.2116(2) 0.63654(14)
H81 H 0.3787 -0.2397 0.6203
C76 C 0.3061(5) -0.1864(2) 0.66324(15)
H82 H 0.2229 -0.1987 0.6651
C77 C 0.3368(5) -0.1429(3) 0.68688(16)
H83 H 0.2729 -0.1245 0.7042
C78 C 0.4626(5) -0.1266(2) 0.68480(14)
H84 H 0.4826 -0.0970 0.7007
C79 C 0.7000(4) -0.1396(2) 0.65792(12)
C80 C 0.7881(4) -0.1603(2) 0.62767(12)
C81 C 0.9146(4) -0.1423(2) 0.62773(14)
H85 H 0.9753 -0.1546 0.6084
C82 C 0.9543(5) -0.1076(2) 0.65475(15)
H86 H 1.0380 -0.0958 0.6530
C83 C 0.8665(5) -0.0908(2) 0.68442(14)
H87 H 0.8922 -0.0685 0.7031
C84 C 0.7413(5) -0.1070(2) 0.68631(13)
H88 H 0.6837 -0.0964 0.7065
C85 C 0.8247(5) -0.4104(2) 0.58905(11)
C86 C 0.7104(4) -0.3661(2) 0.58162(12)
C87 C 0.5950(5) -0.3932(2) 0.57885(12)
H89 H 0.5183 -0.3660 0.5735
C88 C 0.5890(5) -0.4580(3) 0.58362(13)
H90 H 0.5110 -0.4736 0.5806
C89 C 0.7006(6) -0.4990(2) 0.59287(14)
H91 H 0.6968 -0.5422 0.5973
C90 C 0.8178(5) -0.4756(2) 0.59547(14)
H92 H 0.8928 -0.5033 0.6015
C91 C 0.9551(4) -0.3852(2) 0.58887(11)
C92 C 0.9531(4) -0.3179(2) 0.58519(12)
C93 C 1.0772(5) -0.2978(2) 0.58559(14)
H93 H 1.0804 -0.2542 0.5833
C94 C 1.1953(5) -0.3392(3) 0.58916(15)
H94 H 1.2743 -0.3232 0.5900
C95 C 1.1934(5) -0.4045(3) 0.59146(15)
H95 H 1.2719 -0.4328 0.5931
C96 C 1.0747(5) -0.4277(3) 0.59124(14)
H96 H 1.0741 -0.4716 0.5927
C97 C 0.7948(7) -0.0076(3) 0.57234(18)
H97 H 0.7979 0.0123 0.5487
H98 H 0.8690 -0.0423 0.5730
C98 C 0.8014(7) 0.0395(3) 0.60001(19)
H99 H 0.8677 0.0227 0.6163
H100 H 0.8245 0.0786 0.5891
C99 C 0.6714(7) 0.0520(4) 0.6192(2)
H101 H 0.6296 0.0955 0.6143
H102 H 0.6794 0.0471 0.6448
C100 C 0.5914(6) 0.0068(3) 0.60722(17)
H103 H 0.5659 -0.0200 0.6271
H104 H 0.5118 0.0295 0.5976
C101 C 0.4090(6) -0.0364(3) 0.53661(15)
H105 H 0.4728 -0.0528 0.5172
H106 H 0.4234 0.0063 0.5424
C102 C 0.2725(7) -0.0347(3) 0.52601(17)
H107 H 0.2685 -0.0682 0.5091
H108 H 0.2389 0.0065 0.5155
C103 C 0.1961(6) -0.0457(3) 0.5614(2)
H109 H 0.1715 -0.0063 0.5748
H110 H 0.1170 -0.0636 0.5577
C104 C 0.2944(5) -0.0929(3) 0.58027(17)
H111 H 0.2794 -0.0882 0.6061
H112 H 0.2871 -0.1365 0.5742
C105 C 0.9284(5) -0.3749(2) 0.68517(13)
H113 H 0.9189 -0.4027 0.6656
H114 H 0.8752 -0.3867 0.7061
C106 C 1.0720(5) -0.3810(3) 0.69311(17)
H115 H 1.0884 -0.4060 0.7149
H116 H 1.1297 -0.4012 0.6734
C107 C 1.0932(7) -0.3134(3) 0.6977(2)
H117 H 1.1234 -0.3079 0.7212
H118 H 1.1591 -0.3023 0.6795
C108 C 0.9672(6) -0.2731(3) 0.69383(18)
H119 H 0.9246 -0.2606 0.7172
H120 H 0.9800 -0.2346 0.6803
C109 C 0.5959(5) -0.3032(2) 0.70928(12)
H121 H 0.5869 -0.2571 0.7062
H122 H 0.6673 -0.3172 0.7246
C110 C 0.4673(5) -0.3220(2) 0.72585(13)
H123 H 0.3916 -0.2909 0.7200
H124 H 0.4678 -0.3265 0.7517
C111 C 0.4665(5) -0.3863(2) 0.70820(13)
H125 H 0.5208 -0.4208 0.7202
H126 H 0.3773 -0.3959 0.7081
C112 C 0.5251(5) -0.3750(2) 0.67040(13)
H127 H 0.5656 -0.4151 0.6594
H128 H 0.4574 -0.3539 0.6556
C113 C 0.9912(7) -0.2997(3) 0.45736(16)
H129 H 0.9813 -0.2534 0.4553
H130 H 0.9201 -0.3141 0.4458
C114 C 1.1189(8) -0.3290(4) 0.4409(2)
H131 H 1.1065 -0.3588 0.4226
H132 H 1.1648 -0.2962 0.4296
C115 C 1.1960(8) -0.3621(4) 0.4677(2)
H133 H 1.2651 -0.3386 0.4734
H134 H 1.2365 -0.4045 0.4595
C116 C 1.1025(6) -0.3667(4) 0.49920(19)
H135 H 1.0781 -0.4092 0.5010
H136 H 1.1423 -0.3585 0.5210
C117 C 0.6207(6) -0.3495(3) 0.46732(15)
H137 H 0.6538 -0.3494 0.4423
H138 H 0.5608 -0.3099 0.4724
C118 C 0.5531(6) -0.4067(3) 0.47601(17)
H139 H 0.5079 -0.4176 0.4557
H140 H 0.4894 -0.3984 0.4966
C119 C 0.6642(7) -0.4599(3) 0.48421(16)
H141 H 0.6393 -0.4842 0.5053
H142 H 0.6872 -0.4887 0.4641
C120 C 0.7780(6) -0.4257(3) 0.49090(17)
H143 H 0.8116 -0.4387 0.5139
H144 H 0.8493 -0.4358 0.4723
Ca7 Ca -0.23437(8) 0.80024(4) 0.86180(2)
Ca8 Ca -0.13405(9) 0.66289(4) 0.91235(2)
Ca9 Ca -0.28323(9) 0.80321(4) 0.95442(2)
O13 O -0.1164(3) 0.85737(16) 0.81536(9)
O14 O -0.3803(3) 0.83102(15) 0.81421(9)
O15 O 0.0781(4) 0.59206(19) 0.91374(14)
O16 O -0.1855(4) 0.55493(19) 0.91712(13)
O17 O -0.2177(4) 0.86923(18) 1.00054(10)
O18 O -0.4765(5) 0.8322(2) 0.99508(12)
C121 C -0.1760(5) 0.6625(2) 0.82795(14)
C122 C -0.2723(5) 0.6814(2) 0.85670(14)
C123 C -0.3934(5) 0.6593(3) 0.85464(15)
H145 H -0.4593 0.6699 0.8730
C124 C -0.4202(6) 0.6221(3) 0.82638(16)
H146 H -0.5018 0.6084 0.8262
C125 C -0.3239(6) 0.6061(3) 0.79882(16)
H147 H -0.3405 0.5817 0.7798
C126 C -0.2031(6) 0.6262(3) 0.79940(15)
H148 H -0.1388 0.6155 0.7806
C127 C -0.0403(5) 0.6825(3) 0.82933(15)
C128 C -0.0183(6) 0.7187(3) 0.85899(15)
C129 C 0.1102(6) 0.7343(3) 0.85967(17)
H149 H 0.1274 0.7580 0.8789
C130 C 0.2117(6) 0.7166(3) 0.83374(18)
H150 H 0.2951 0.7274 0.8358
C131 C 0.1889(6) 0.6849(3) 0.80650(18)
H151 H 0.2568 0.6743 0.7887
C132 C 0.0624(6) 0.6651(3) 0.80241(17)
H152 H 0.0494 0.6417 0.7826
C133 C -0.4351(4) 0.9082(2) 0.90363(11)
C134 C -0.4404(4) 0.8414(2) 0.90348(12)
C135 C -0.5664(5) 0.8251(3) 0.89975(13)
H153 H -0.5743 0.7819 0.8995
C136 C -0.6797(5) 0.8703(3) 0.89642(15)
H154 H -0.7600 0.8572 0.8931
C137 C -0.6719(5) 0.9347(3) 0.89813(15)
H155 H -0.7476 0.9651 0.8968
C138 C -0.5509(5) 0.9539(3) 0.90185(14)
H156 H -0.5460 0.9973 0.9032
C139 C -0.3016(4) 0.9291(2) 0.90503(11)
C140 C -0.1906(4) 0.8812(2) 0.90962(12)
C141 C -0.0708(5) 0.9040(2) 0.91313(13)
H157 H 0.0040 0.8742 0.9168
C142 C -0.0580(5) 0.9681(3) 0.91140(13)
H158 H 0.0232 0.9806 0.9145
C143 C -0.1667(5) 1.0135(3) 0.90503(15)
H159 H -0.1585 1.0566 0.9027
C144 C -0.2887(5) 0.9939(2) 0.90216(13)
H160 H -0.3625 1.0243 0.8983
C145 C -0.2411(7) 0.6678(3) 0.99489(19)
C146 C -0.3169(7) 0.6854(3) 0.96526(18)
C147 C -0.4416(7) 0.6660(3) 0.9673(2)
H161 H -0.4939 0.6768 0.9482
C148 C -0.4927(8) 0.6316(4) 0.9958(2)
H162 H -0.5766 0.6203 0.9958
C149 C -0.4187(8) 0.6154(4) 1.0231(2)
H163 H -0.4521 0.5924 1.0423
C150 C -0.2970(8) 0.6309(4) 1.0241(2)
H164 H -0.2479 0.6181 1.0436
C151 C 0.0628(5) 0.7401(2) 0.96525(12)
H165 H 0.0936 0.7641 0.9462
C152 C -0.0630(4) 0.7235(2) 0.96588(11)
C153 C -0.1090(4) 0.6876(2) 0.99436(13)
C154 C -0.0293(5) 0.6682(2) 1.02222(11)
H166 H -0.0601 0.6442 1.0413
C155 C 0.0965(5) 0.6847(3) 1.02159(12)
H167 H 0.1499 0.6718 1.0402
C156 C 0.1425(4) 0.7207(3) 0.99311(14)
H168 H 0.2267 0.7317 0.9927
C157 C -0.0937(5) 0.8307(2) 0.77953(13)
H169 H -0.1618 0.8504 0.7644
H170 H -0.0942 0.7848 0.7805
C158 C 0.0403(5) 0.8448(3) 0.76506(14)
H171 H 0.0459 0.8489 0.7391
H172 H 0.1109 0.8119 0.7721
C159 C 0.0451(5) 0.9083(3) 0.78269(14)
H173 H -0.0044 0.9437 0.7701
H174 H 0.1355 0.9157 0.7837
C160 C -0.0194(5) 0.8988(3) 0.81998(14)
H175 H 0.0458 0.8788 0.8359
H176 H -0.0619 0.9395 0.8300
C161 C -0.4339(6) 0.8975(3) 0.80847(17)
H177 H -0.3717 0.9180 0.7932
H178 H -0.4503 0.9196 0.8312
C162 C -0.5581(7) 0.8999(3) 0.7912(2)
H179 H -0.5532 0.9219 0.7682
H180 H -0.6316 0.9225 0.8062
C163 C -0.5758(6) 0.8324(3) 0.7864(2)
H181 H -0.6451 0.8211 0.8033
H182 H -0.5989 0.8259 0.7622
C164 C -0.4488(7) 0.7941(3) 0.7929(2)
H183 H -0.4622 0.7547 0.8054
H184 H -0.3976 0.7832 0.7703
C165 C -0.0951(8) 0.8578(4) 1.0189(2)
H185 H -0.0909 0.8190 1.0335
H186 H -0.0186 0.8534 1.0017
C166 C -0.0990(8) 0.9135(4) 1.0415(2)
H187 H -0.0107 0.9204 1.0460
H188 H -0.1497 0.9093 1.0642
C167 C -0.1669(7) 0.9668(4) 1.0186(2)
H189 H -0.2068 1.0033 1.0332
H190 H -0.1051 0.9807 1.0003
C168 C -0.2691(7) 0.9370(3) 1.00247(18)
H191 H -0.3520 0.9444 1.0173
H192 H -0.2841 0.9547 0.9787
C169 C -0.4762(7) 0.8079(4) 1.03174(19)
H193 H -0.4547 0.7616 1.0319
H194 H -0.4105 0.8250 1.0443
C170 C -0.6043(7) 0.8275(4) 1.0488(2)
H195 H -0.5976 0.8492 1.0710
H196 H -0.6467 0.7903 1.0546
C171 C -0.6839(7) 0.8713(4) 1.0243(2)
H197 H -0.7678 0.8572 1.0215
H198 H -0.7007 0.9147 1.0334
C172 C -0.6025(7) 0.8677(4) 0.9905(2)
H199 H -0.6450 0.8475 0.9726
H200 H -0.5932 0.9106 0.9820
C173 C 0.1575(8) 0.5639(4) 0.8832(2)
H201 H 0.1373 0.5215 0.8793
H202 H 0.1375 0.5899 0.8620
C174 C 0.2941(9) 0.5597(5) 0.8887(3)
H203 H 0.3434 0.5187 0.8809
H204 H 0.3320 0.5937 0.8760
C175 C 0.2942(10) 0.5662(5) 0.9262(3)
H205 H 0.3277 0.6049 0.9316
H206 H 0.3510 0.5300 0.9361
C176 C 0.1486(9) 0.5692(5) 0.9435(3)
H207 H 0.1304 0.5273 0.9514
H208 H 0.1300 0.5987 0.9634
C177 C -0.1943(8) 0.5146(4) 0.8882(2)
H209 H -0.1101 0.4874 0.8825
H210 H -0.2185 0.5398 0.8670
C178 C -0.2967(9) 0.4755(5) 0.8996(2)
H211 H -0.3795 0.4929 0.8897
H212 H -0.2699 0.4318 0.8915
C179 C -0.3116(9) 0.4771(5) 0.9372(3)
H213 H -0.2968 0.4340 0.9472
H214 H -0.4000 0.4976 0.9454
C180 C -0.2063(9) 0.5163(4) 0.9490(2)
H215 H -0.2400 0.5428 0.9696
H216 H -0.1256 0.4886 0.9545
loop_
_geom_bond_atom_site_label_1
_geom_bond_atom_site_label_2
_geom_bond_site_symmetry_1
_geom_bond_site_symmetry_2
Ca1 O1 1_555 1_555
Ca2 O3 1_555 1_555
Ca3 O5 1_555 1_555
O1 C37 1_555 1_555
O2 Ca1 1_555 1_555
O3 C53 1_555 1_555
O4 Ca2 1_555 1_555
O5 C45 1_555 1_555
O6 Ca3 1_555 1_555
C1 C2 1_555 1_555
C2 Ca1 1_555 1_555
C3 C2 1_555 1_555
H1 C3 1_555 1_555
C4 C3 1_555 1_555
H2 C4 1_555 1_555
C5 C4 1_555 1_555
H3 C5 1_555 1_555
C6 C1 1_555 1_555
H4 C6 1_555 1_555
C7 C1 1_555 1_555
C8 Ca1 1_555 1_555
C9 C8 1_555 1_555
H5 C9 1_555 1_555
C10 C9 1_555 1_555
H6 C10 1_555 1_555
C11 C10 1_555 1_555
H7 C11 1_555 1_555
C12 C7 1_555 1_555
H8 C12 1_555 1_555
C13 C14 1_555 1_555
C14 Ca1 1_555 1_555
C15 C14 1_555 1_555
H9 C15 1_555 1_555
C16 C15 1_555 1_555
H10 C16 1_555 1_555
C17 C16 1_555 1_555
H11 C17 1_555 1_555
C18 C13 1_555 1_555
H12 C18 1_555 1_555
C19 C13 1_555 1_555
C20 Ca1 1_555 1_555
C21 C20 1_555 1_555
H13 C21 1_555 1_555
C22 C21 1_555 1_555
H14 C22 1_555 1_555
C23 C22 1_555 1_555
H15 C23 1_555 1_555
C24 C19 1_555 1_555
H16 C24 1_555 1_555
C25 C26 1_555 1_555
C26 Ca2 1_555 1_555
C27 C26 1_555 1_555
H17 C27 1_555 1_555
C28 C27 1_555 1_555
H18 C28 1_555 1_555
C29 C28 1_555 1_555
H19 C29 1_555 1_555
C30 C25 1_555 1_555
H20 C30 1_555 1_555
C31 C25 1_555 1_555
C32 Ca2 1_555 1_555
C33 C32 1_555 1_555
H21 C33 1_555 1_555
C34 C33 1_555 1_555
H22 C34 1_555 1_555
C35 C34 1_555 1_555
H23 C35 1_555 1_555
C36 C31 1_555 1_555
H24 C36 1_555 1_555
C37 H25 1_555 1_555
H26 C37 1_555 1_555
C38 C37 1_555 1_555
H27 C38 1_555 1_555
H28 C38 1_555 1_555
C39 C38 1_555 1_555
H29 C39 1_555 1_555
H30 C39 1_555 1_555
C40 O1 1_555 1_555
H31 C40 1_555 1_555
H32 C40 1_555 1_555
C41 O2 1_555 1_555
H33 C41 1_555 1_555
H34 C41 1_555 1_555
C42 C41 1_555 1_555
H35 C42 1_555 1_555
H36 C42 1_555 1_555
C43 C42 1_555 1_555
H37 C43 1_555 1_555
H38 C43 1_555 1_555
C44 O2 1_555 1_555
H39 C44 1_555 1_555
H40 C44 1_555 1_555
C45 H41 1_555 1_555
H42 C45 1_555 1_555
C46 C45 1_555 1_555
H43 C46 1_555 1_555
H44 C46 1_555 1_555
C47 C46 1_555 1_555
H45 C47 1_555 1_555
H46 C47 1_555 1_555
C48 O5 1_555 1_555
H47 C48 1_555 1_555
H48 C48 1_555 1_555
C49 O6 1_555 1_555
H49 C49 1_555 1_555
H50 C49 1_555 1_555
C50 C49 1_555 1_555
H51 C50 1_555 1_555
H52 C50 1_555 1_555
C51 C50 1_555 1_555
H53 C51 1_555 1_555
H54 C51 1_555 1_555
C52 O6 1_555 1_555
H55 C52 1_555 1_555
H56 C52 1_555 1_555
C53 H57 1_555 1_555
H58 C53 1_555 1_555
C54 C53 1_555 1_555
H59 C54 1_555 1_555
H60 C54 1_555 1_555
C55 C54 1_555 1_555
H61 C55 1_555 1_555
H62 C55 1_555 1_555
C56 O3 1_555 1_555
H63 C56 1_555 1_555
H64 C56 1_555 1_555
C57 O4 1_555 1_555
H65 C57 1_555 1_555
H66 C57 1_555 1_555
C58 C57 1_555 1_555
H67 C58 1_555 1_555
H68 C58 1_555 1_555
C59 C58 1_555 1_555
H69 C59 1_555 1_555
H70 C59 1_555 1_555
C60 O4 1_555 1_555
H71 C60 1_555 1_555
H72 C60 1_555 1_555
Ca4 O7 1_555 1_555
Ca5 O9 1_555 1_555
Ca6 O11 1_555 1_555
O7 C97 1_555 1_555
O8 Ca4 1_555 1_555
O9 C113 1_555 1_555
O10 Ca5 1_555 1_555
O11 C105 1_555 1_555
O12 Ca6 1_555 1_555
C61 C62 1_555 1_555
C62 Ca4 1_555 1_555
C63 C62 1_555 1_555
H73 C63 1_555 1_555
C64 C63 1_555 1_555
H74 C64 1_555 1_555
C65 C64 1_555 1_555
H75 C65 1_555 1_555
C66 C61 1_555 1_555
H76 C66 1_555 1_555
C67 C61 1_555 1_555
C68 Ca4 1_555 1_555
C69 C68 1_555 1_555
H77 C69 1_555 1_555
C70 C69 1_555 1_555
H78 C70 1_555 1_555
C71 C70 1_555 1_555
H79 C71 1_555 1_555
C72 C67 1_555 1_555
H80 C72 1_555 1_555
C73 C74 1_555 1_555
C74 Ca4 1_555 1_555
C75 C74 1_555 1_555
H81 C75 1_555 1_555
C76 C75 1_555 1_555
H82 C76 1_555 1_555
C77 C76 1_555 1_555
H83 C77 1_555 1_555
C78 C73 1_555 1_555
H84 C78 1_555 1_555
C79 C73 1_555 1_555
C80 Ca4 1_555 1_555
C81 C80 1_555 1_555
H85 C81 1_555 1_555
C82 C81 1_555 1_555
H86 C82 1_555 1_555
C83 C82 1_555 1_555
H87 C83 1_555 1_555
C84 C79 1_555 1_555
H88 C84 1_555 1_555
C85 C86 1_555 1_555
C86 Ca5 1_555 1_555
C87 C86 1_555 1_555
H89 C87 1_555 1_555
C88 C87 1_555 1_555
H90 C88 1_555 1_555
C89 C88 1_555 1_555
H91 C89 1_555 1_555
C90 C85 1_555 1_555
H92 C90 1_555 1_555
C91 C85 1_555 1_555
C92 Ca5 1_555 1_555
C93 C92 1_555 1_555
H93 C93 1_555 1_555
C94 C93 1_555 1_555
H94 C94 1_555 1_555
C95 C94 1_555 1_555
H95 C95 1_555 1_555
C96 C91 1_555 1_555
H96 C96 1_555 1_555
C97 H97 1_555 1_555
H98 C97 1_555 1_555
C98 C97 1_555 1_555
H99 C98 1_555 1_555
H100 C98 1_555 1_555
C99 C98 1_555 1_555
H101 C99 1_555 1_555
H102 C99 1_555 1_555
C100 O7 1_555 1_555
H103 C100 1_555 1_555
H104 C100 1_555 1_555
C101 O8 1_555 1_555
H105 C101 1_555 1_555
H106 C101 1_555 1_555
C102 C101 1_555 1_555
H107 C102 1_555 1_555
H108 C102 1_555 1_555
C103 C102 1_555 1_555
H109 C103 1_555 1_555
H110 C103 1_555 1_555
C104 O8 1_555 1_555
H111 C104 1_555 1_555
H112 C104 1_555 1_555
C105 H113 1_555 1_555
H114 C105 1_555 1_555
C106 C105 1_555 1_555
H115 C106 1_555 1_555
H116 C106 1_555 1_555
C107 C106 1_555 1_555
H117 C107 1_555 1_555
H118 C107 1_555 1_555
C108 O11 1_555 1_555
H119 C108 1_555 1_555
H120 C108 1_555 1_555
C109 O12 1_555 1_555
H121 C109 1_555 1_555
H122 C109 1_555 1_555
C110 C109 1_555 1_555
H123 C110 1_555 1_555
H124 C110 1_555 1_555
C111 C110 1_555 1_555
H125 C111 1_555 1_555
H126 C111 1_555 1_555
C112 O12 1_555 1_555
H127 C112 1_555 1_555
H128 C112 1_555 1_555
C113 H129 1_555 1_555
H130 C113 1_555 1_555
C114 C113 1_555 1_555
H131 C114 1_555 1_555
H132 C114 1_555 1_555
C115 C114 1_555 1_555
H133 C115 1_555 1_555
H134 C115 1_555 1_555
C116 O9 1_555 1_555
H135 C116 1_555 1_555
H136 C116 1_555 1_555
C117 O10 1_555 1_555
H137 C117 1_555 1_555
H138 C117 1_555 1_555
C118 C117 1_555 1_555
H139 C118 1_555 1_555
H140 C118 1_555 1_555
C119 C118 1_555 1_555
H141 C119 1_555 1_555
H142 C119 1_555 1_555
C120 O10 1_555 1_555
H143 C120 1_555 1_555
H144 C120 1_555 1_555
Ca7 O13 1_555 1_555
Ca8 O15 1_555 1_555
Ca9 O17 1_555 1_555
O13 C157 1_555 1_555
O14 Ca7 1_555 1_555
O15 C173 1_555 1_555
O16 Ca8 1_555 1_555
O17 C165 1_555 1_555
O18 Ca9 1_555 1_555
C121 C122 1_555 1_555
C122 Ca7 1_555 1_555
C123 C122 1_555 1_555
H145 C123 1_555 1_555
C124 C123 1_555 1_555
H146 C124 1_555 1_555
C125 C124 1_555 1_555
H147 C125 1_555 1_555
C126 C121 1_555 1_555
H148 C126 1_555 1_555
C127 C121 1_555 1_555
C128 Ca7 1_555 1_555
C129 C128 1_555 1_555
H149 C129 1_555 1_555
C130 C129 1_555 1_555
H150 C130 1_555 1_555
C131 C130 1_555 1_555
H151 C131 1_555 1_555
C132 C127 1_555 1_555
H152 C132 1_555 1_555
C133 C134 1_555 1_555
C134 Ca7 1_555 1_555
C135 C134 1_555 1_555
H153 C135 1_555 1_555
C136 C135 1_555 1_555
H154 C136 1_555 1_555
C137 C136 1_555 1_555
H155 C137 1_555 1_555
C138 C133 1_555 1_555
H156 C138 1_555 1_555
C139 C133 1_555 1_555
C140 Ca7 1_555 1_555
C141 C140 1_555 1_555
H157 C141 1_555 1_555
C142 C141 1_555 1_555
H158 C142 1_555 1_555
C143 C142 1_555 1_555
H159 C143 1_555 1_555
C144 C139 1_555 1_555
H160 C144 1_555 1_555
C145 C146 1_555 1_555
C146 Ca8 1_555 1_555
C147 C146 1_555 1_555
H161 C147 1_555 1_555
C148 C147 1_555 1_555
H162 C148 1_555 1_555
C149 C148 1_555 1_555
H163 C149 1_555 1_555
C150 C145 1_555 1_555
H164 C150 1_555 1_555
C151 H165 1_555 1_555
C152 Ca8 1_555 1_555
C153 C145 1_555 1_555
C154 C153 1_555 1_555
H166 C154 1_555 1_555
C155 C154 1_555 1_555
H167 C155 1_555 1_555
C156 C151 1_555 1_555
H168 C156 1_555 1_555
C157 H169 1_555 1_555
H170 C157 1_555 1_555
C158 C157 1_555 1_555
H171 C158 1_555 1_555
H172 C158 1_555 1_555
C159 C158 1_555 1_555
H173 C159 1_555 1_555
H174 C159 1_555 1_555
C160 O13 1_555 1_555
H175 C160 1_555 1_555
H176 C160 1_555 1_555
C161 O14 1_555 1_555
H177 C161 1_555 1_555
H178 C161 1_555 1_555
C162 C161 1_555 1_555
H179 C162 1_555 1_555
H180 C162 1_555 1_555
C163 C162 1_555 1_555
H181 C163 1_555 1_555
H182 C163 1_555 1_555
C164 O14 1_555 1_555
H183 C164 1_555 1_555
H184 C164 1_555 1_555
C165 H185 1_555 1_555
H186 C165 1_555 1_555
C166 C165 1_555 1_555
H187 C166 1_555 1_555
H188 C166 1_555 1_555
C167 C166 1_555 1_555
H189 C167 1_555 1_555
H190 C167 1_555 1_555
C168 O17 1_555 1_555
H191 C168 1_555 1_555
H192 C168 1_555 1_555
C169 O18 1_555 1_555
H193 C169 1_555 1_555
H194 C169 1_555 1_555
C170 C169 1_555 1_555
H195 C170 1_555 1_555
H196 C170 1_555 1_555
C171 C170 1_555 1_555
H197 C171 1_555 1_555
H198 C171 1_555 1_555
C172 O18 1_555 1_555
H199 C172 1_555 1_555
H200 C172 1_555 1_555
C173 H201 1_555 1_555
H202 C173 1_555 1_555
C174 C173 1_555 1_555
H203 C174 1_555 1_555
H204 C174 1_555 1_555
C175 C174 1_555 1_555
H205 C175 1_555 1_555
H206 C175 1_555 1_555
C176 O15 1_555 1_555
H207 C176 1_555 1_555
H208 C176 1_555 1_555
C177 O16 1_555 1_555
H209 C177 1_555 1_555
H210 C177 1_555 1_555
C178 C177 1_555 1_555
H211 C178 1_555 1_555
H212 C178 1_555 1_555
C179 C178 1_555 1_555
H213 C179 1_555 1_555
H214 C179 1_555 1_555
C180 O16 1_555 1_555
H215 C180 1_555 1_555
H216 C180 1_555 1_555
Ca2 C2 1_555 1_555
Ca2 C8 1_555 1_555
Ca3 C14 1_555 1_555
Ca3 C20 1_555 1_555
Ca3 C26 1_555 1_555
Ca3 C32 1_555 1_555
C5 C6 1_555 1_555
C7 C8 1_555 1_555
C11 C12 1_555 1_555
C17 C18 1_555 1_555
C19 C20 1_555 1_555
C23 C24 1_555 1_555
C29 C30 1_555 1_555
C31 C32 1_555 1_555
C35 C36 1_555 1_555
C39 C40 1_555 1_555
C43 C44 1_555 1_555
C47 C48 1_555 1_555
C51 C52 1_555 1_555
C55 C56 1_555 1_555
C59 C60 1_555 1_555
Ca5 C62 1_555 1_555
Ca5 C68 1_555 1_555
Ca6 C74 1_555 1_555
Ca6 C80 1_555 1_555
Ca6 C86 1_555 1_555
Ca6 C92 1_555 1_555
C65 C66 1_555 1_555
C67 C68 1_555 1_555
C71 C72 1_555 1_555
C77 C78 1_555 1_555
C79 C80 1_555 1_555
C83 C84 1_555 1_555
C89 C90 1_555 1_555
C91 C92 1_555 1_555
C95 C96 1_555 1_555
C99 C100 1_555 1_555
C103 C104 1_555 1_555
C107 C108 1_555 1_555
C111 C112 1_555 1_555
C115 C116 1_555 1_555
C119 C120 1_555 1_555
Ca8 C122 1_555 1_555
Ca8 C128 1_555 1_555
Ca9 C134 1_555 1_555
Ca9 C140 1_555 1_555
Ca9 C146 1_555 1_555
Ca9 C152 1_555 1_555
C125 C126 1_555 1_555
C127 C128 1_555 1_555
C131 C132 1_555 1_555
C137 C138 1_555 1_555
C139 C140 1_555 1_555
C143 C144 1_555 1_555
C149 C150 1_555 1_555
C151 C152 1_555 1_555
C152 C153 1_555 1_555
C155 C156 1_555 1_555
C159 C160 1_555 1_555
C163 C164 1_555 1_555
C167 C168 1_555 1_555
C171 C172 1_555 1_555
C175 C176 1_555 1_555
C179 C180 1_555 1_555

#END
