
#######################################################################
#
#                 Cambridge Crystallographic Data Centre
#                                CCDC 
#
#######################################################################
#
# If this CIF has been generated from an entry in the Cambridge 
# Structural Database, then it will include bibliographic, chemical, 
# crystal, experimental, refinement or atomic coordinate data resulting 
# from the CCDC's data processing and validation procedures.
#
#######################################################################

data_LIBBAC
_chemical_formula_moiety         'C17 H28 O6'
_chemical_name_systematic        
7-ethoxy-8b-(2-hydroxypropan-2-yl)-2,2,4-trimethylhexahydro-2H-furo[2,3-e][1,3]benzodioxol-5(4H)-one
_symmetry_cell_setting           orthorhombic
_symmetry_space_group_name_H-M   'P 21 21 21'
_symmetry_Int_Tables_number      19
_space_group_name_Hall           'P 2ac 2ab'
loop_
_symmetry_equiv_pos_site_id
_symmetry_equiv_pos_as_xyz
1 x,y,z
2 1/2-x,-y,1/2+z
3 -x,1/2+y,1/2-z
4 1/2+x,1/2-y,-z
_cell_length_a                   7.6651(3)
_cell_length_b                   12.4842(6)
_cell_length_c                   18.5353(8)
_cell_angle_alpha                90
_cell_angle_beta                 90
_cell_angle_gamma                90
_cell_volume                     1773.69
_exptl_crystal_colour            colorless
_exptl_crystal_description       block
_cell_formula_units_Z            4
loop_
_atom_site_label
_atom_site_type_symbol
_atom_site_fract_x
_atom_site_fract_y
_atom_site_fract_z
O1 O 0.2859(2) 0.3131(2) 0.40432(11)
H1 H 0.179419 0.302237 0.412188
C1 C 0.7849(6) 0.8415(2) 0.4637(2)
H2 H 0.827428 0.900364 0.433442
H3 H 0.845014 0.843124 0.510353
H4 H 0.659076 0.84952 0.471321
O2 O 0.9247(2) 0.29806(13) 0.44496(9)
C2 C 0.8206(4) 0.7364(2) 0.42682(15)
H5 H 0.763216 0.734772 0.378985
H6 H 0.947664 0.726814 0.41979
C3 C 0.8047(3) 0.55072(18) 0.44900(11)
H7 H 0.934347 0.548168 0.443424
O3 O 0.75464(19) 0.32965(12) 0.27725(8)
O4 O 0.53691(18) 0.45339(12) 0.26978(7)
C4 C 0.7469(3) 0.47021(18) 0.50644(11)
H8 H 0.848826 0.439065 0.531682
H9 H 0.669257 0.504396 0.542365
O5 O 0.7229(2) 0.51971(12) 0.38294(7)
C5 C 0.7914(4) 0.1305(2) 0.35895(16)
H10 H 0.72101 0.07987 0.330917
H11 H 0.838007 0.094343 0.401759
H12 H 0.888182 0.156621 0.329202
C6 C 0.5759(3) 0.45289(16) 0.40101(10)
H13 H 0.480457 0.499371 0.420286
O6 O 0.7533(2) 0.65329(12) 0.47148(8)
C7 C 0.5064(3) 0.39205(16) 0.33378(10)
C8 C 0.6103(3) 0.28868(17) 0.31795(11)
H14 H 0.538823 0.240721 0.286419
C9 C 0.6782(3) 0.22456(16) 0.38220(12)
H15 H 0.574964 0.194911 0.408424
C10 C 0.7692(3) 0.30095(16) 0.43214(11)
C11 C 0.6498(3) 0.38506(17) 0.46342(11)
H16 H 0.554224 0.351904 0.492577
C12 C 0.2076(3) 0.4805(3) 0.34593(15)
H17 H 0.242516 0.527686 0.306246
H18 H 0.235779 0.514614 0.39209
H19 H 0.081704 0.467255 0.343332
C13 C 0.3053(3) 0.3743(2) 0.33991(12)
C14 C 0.2290(3) 0.3145(2) 0.27564(16)
H20 H 0.252183 0.354982 0.231352
H21 H 0.10281 0.306545 0.282091
H22 H 0.283055 0.243574 0.272107
C15 C 0.6824(3) 0.40818(18) 0.23055(11)
C16 C 0.6155(3) 0.3577(2) 0.16081(12)
H23 H 0.548011 0.410715 0.133621
H24 H 0.540931 0.296264 0.172397
H25 H 0.714679 0.333566 0.131646
C17 C 0.8171(3) 0.4935(2) 0.21589(12)
H26 H 0.919216 0.461081 0.192818
H27 H 0.852104 0.526983 0.261477
H28 H 0.767329 0.548022 0.183858
loop_
_geom_bond_atom_site_label_1
_geom_bond_atom_site_label_2
_geom_bond_site_symmetry_1
_geom_bond_site_symmetry_2
O1 H1 1_555 1_555
C1 H2 1_555 1_555
H3 C1 1_555 1_555
H4 C1 1_555 1_555
O2 C10 1_555 1_555
C2 C1 1_555 1_555
H5 C2 1_555 1_555
H6 C2 1_555 1_555
C3 H7 1_555 1_555
O3 C8 1_555 1_555
O4 C7 1_555 1_555
C4 C3 1_555 1_555
H8 C4 1_555 1_555
H9 C4 1_555 1_555
O5 C3 1_555 1_555
C5 H10 1_555 1_555
H11 C5 1_555 1_555
H12 C5 1_555 1_555
C6 O5 1_555 1_555
H13 C6 1_555 1_555
O6 C2 1_555 1_555
C7 C6 1_555 1_555
C8 C7 1_555 1_555
H14 C8 1_555 1_555
C9 C5 1_555 1_555
H15 C9 1_555 1_555
C10 C9 1_555 1_555
C11 C4 1_555 1_555
H16 C11 1_555 1_555
C12 H17 1_555 1_555
H18 C12 1_555 1_555
H19 C12 1_555 1_555
C13 O1 1_555 1_555
C14 C13 1_555 1_555
H20 C14 1_555 1_555
H21 C14 1_555 1_555
H22 C14 1_555 1_555
C15 O3 1_555 1_555
C16 C15 1_555 1_555
H23 C16 1_555 1_555
H24 C16 1_555 1_555
H25 C16 1_555 1_555
C17 C15 1_555 1_555
H26 C17 1_555 1_555
H27 C17 1_555 1_555
H28 C17 1_555 1_555
C3 O6 1_555 1_555
O4 C15 1_555 1_555
C6 C11 1_555 1_555
C7 C13 1_555 1_555
C8 C9 1_555 1_555
C10 C11 1_555 1_555
C12 C13 1_555 1_555

#END
