
#######################################################################
#
#                 Cambridge Crystallographic Data Centre
#                                CCDC 
#
#######################################################################
#
# If this CIF has been generated from an entry in the Cambridge 
# Structural Database, then it will include bibliographic, chemical, 
# crystal, experimental, refinement or atomic coordinate data resulting 
# from the CCDC's data processing and validation procedures.
#
#######################################################################

data_LIBJIP
_chemical_formula_moiety         'C18 H20 O3'
_chemical_name_systematic        
1-(2,2-Dimethylpropylidene)-2,2a-(ethanoepoxy)-3,4-dihydrocyclobuta(c)coumarin
_symmetry_cell_setting           monoclinic
_symmetry_space_group_name_H-M   'P 21/c'
_symmetry_Int_Tables_number      14
_space_group_name_Hall           '-P 2ybc'
loop_
_symmetry_equiv_pos_site_id
_symmetry_equiv_pos_as_xyz
1 x,y,z
2 -x,1/2+y,1/2-z
3 -x,-y,-z
4 x,1/2-y,1/2+z
_cell_length_a                   11.388(3)
_cell_length_b                   10.536(2)
_cell_length_c                   13.154(4)
_cell_angle_alpha                90
_cell_angle_beta                 105.99(2)
_cell_angle_gamma                90
_cell_volume                     1517.21
_exptl_crystal_colour            colorless
_cell_formula_units_Z            4
loop_
_atom_site_label
_atom_site_type_symbol
_atom_site_fract_x
_atom_site_fract_y
_atom_site_fract_z
O1 O 0.9197(3) 0.2000(3) 0.8090(3)
O2 O 0.9412(3) 0.0445(3) 1.0958(3)
O3 O 0.7900(4) 0.0569(4) 0.7260(3)
C1 C 0.9862(4) 0.2590(5) 0.9019(4)
C2 C 1.0660(5) 0.3526(5) 0.8857(4)
C3 C 1.1398(5) 0.4141(5) 0.9719(4)
C4 C 1.1337(5) 0.3852(5) 1.0714(4)
C5 C 1.0531(5) 0.2931(5) 1.0870(4)
C6 C 0.9785(4) 0.2287(4) 1.0013(4)
C7 C 0.8856(4) 0.1336(5) 1.0152(4)
C8 C 0.8070(4) 0.0775(5) 0.9097(4)
C9 C 0.8336(4) 0.1051(5) 0.8093(4)
C10 C 0.8434(5) -0.0085(6) 1.1312(4)
C11 C 0.7485(5) 0.0958(5) 1.1244(4)
C12 C 0.7669(4) 0.1840(5) 1.0372(4)
C13 C 0.6991(4) 0.1533(5) 0.9243(4)
C14 C 0.5990(5) 0.1899(5) 0.8550(4)
C15 C 0.4983(5) 0.2776(5) 0.8691(5)
C16 C 0.5333(7) 0.4124(6) 0.8501(8)
C17 C 0.3793(6) 0.2441(7) 0.7891(6)
C18 C 0.4787(6) 0.2657(8) 0.9782(6)
H1 H 1.068 0.375 0.816
H2 H 1.196 0.477 0.962
H3 H 1.185 0.429 1.131
H4 H 1.050 0.273 1.157
H5 H 0.807 -0.077 1.087
H6 H 0.807 -0.012 0.900
H7 H 0.874 -0.038 1.202
H8 H 0.667 0.063 1.106
H9 H 0.764 0.139 1.190
H10 H 0.753 0.266 1.061
H11 H 0.588 0.157 0.786
H12 H 0.472 0.470 0.858
H13 H 0.610 0.433 0.899
H14 H 0.541 0.418 0.780
H15 H 0.315 0.297 0.797
H16 H 0.390 0.254 0.720
H17 H 0.360 0.158 0.799
H18 H 0.415 0.321 0.985
H19 H 0.458 0.181 0.990
H20 H 0.553 0.288 1.029
loop_
_geom_bond_atom_site_label_1
_geom_bond_atom_site_label_2
_geom_bond_site_symmetry_1
_geom_bond_site_symmetry_2
O1 C1 1_555 1_555
O2 C7 1_555 1_555
O3 C9 1_555 1_555
C1 C2 1_555 1_555
C2 C3 1_555 1_555
C3 C4 1_555 1_555
C4 C5 1_555 1_555
C5 C6 1_555 1_555
C6 C1 1_555 1_555
C7 C6 1_555 1_555
C8 C7 1_555 1_555
C9 O1 1_555 1_555
C10 O2 1_555 1_555
C11 C10 1_555 1_555
C12 C7 1_555 1_555
C13 C8 1_555 1_555
C14 C13 1_555 1_555
C15 C14 1_555 1_555
C16 C15 1_555 1_555
C17 C15 1_555 1_555
C18 C15 1_555 1_555
H1 C2 1_555 1_555
H2 C3 1_555 1_555
H3 C4 1_555 1_555
H4 C5 1_555 1_555
H5 C10 1_555 1_555
H6 C8 1_555 1_555
H7 C10 1_555 1_555
H8 C11 1_555 1_555
H9 C11 1_555 1_555
H10 C12 1_555 1_555
H11 C14 1_555 1_555
H12 C16 1_555 1_555
H13 C16 1_555 1_555
H14 C16 1_555 1_555
H15 C17 1_555 1_555
H16 C17 1_555 1_555
H17 C17 1_555 1_555
H18 C18 1_555 1_555
H19 C18 1_555 1_555
H20 C18 1_555 1_555
C8 C9 1_555 1_555
C11 C12 1_555 1_555
C12 C13 1_555 1_555

#END
