
#######################################################################
#
#                 Cambridge Crystallographic Data Centre
#                                CCDC 
#
#######################################################################
#
# If this CIF has been generated from an entry in the Cambridge 
# Structural Database, then it will include bibliographic, chemical, 
# crystal, experimental, refinement or atomic coordinate data resulting 
# from the CCDC's data processing and validation procedures.
#
#######################################################################

data_LIBJEN
_chemical_formula_moiety         'C22 H23 N3 O4'
_chemical_name_systematic        
'Ethyl 3-(((benzylideneamino)oxy)methyl)-6-methyl-2-oxo-4-phenyl-1,2,3,4-tetrahydropyrimidine-5-carboxylate'
_symmetry_cell_setting           triclinic
_symmetry_space_group_name_H-M   'P -1'
_symmetry_Int_Tables_number      2
_space_group_name_Hall           '-P 1'
loop_
_symmetry_equiv_pos_site_id
_symmetry_equiv_pos_as_xyz
1 x,y,z
2 -x,-y,-z
_cell_length_a                   9.033(16)
_cell_length_b                   9.512(17)
_cell_length_c                   12.37(2)
_cell_angle_alpha                101.182(15)
_cell_angle_beta                 99.171(15)
_cell_angle_gamma                95.491(15)
_cell_volume                     1020.52
_exptl_crystal_colour            colorless
_exptl_crystal_description       block
_cell_formula_units_Z            2
loop_
_atom_site_label
_atom_site_type_symbol
_atom_site_fract_x
_atom_site_fract_y
_atom_site_fract_z
C1 C 0.8541(3) 0.5630(3) 0.3174(2)
H1 H 0.7892 0.5234 0.3580
C2 C 1.0047(4) 0.6033(4) 0.3633(3)
H2 H 1.0408 0.5900 0.4348
C3 C 1.1009(4) 0.6621(3) 0.3063(4)
H3 H 1.2024 0.6895 0.3386
C4 C 1.0495(4) 0.6809(3) 0.2026(4)
H4 H 1.1156 0.7212 0.1630
C5 C 0.8981(4) 0.6402(3) 0.1545(3)
H5 H 0.8635 0.6535 0.0828
C6 C 0.7994(3) 0.5811(2) 0.21114(19)
C7 C 0.6408(3) 0.5407(2) 0.15839(19)
H6 H 0.6082 0.5585 0.0877
C8 C 0.3023(3) 0.3731(2) 0.19011(18)
H7 H 0.1996 0.3921 0.1674
H8 H 0.3296 0.4063 0.2708
C9 C 0.4370(2) 0.1626(2) 0.22032(16)
H9 H 0.5285 0.2285 0.2230
C10 C 0.4547(2) 0.0174(2) 0.15342(16)
C11 C 0.3352(3) -0.0648(2) 0.08356(16)
C12 C 0.1859(3) 0.1338(2) 0.09652(17)
C13 C 0.4197(2) 0.1618(2) 0.34044(17)
C14 C 0.3334(3) 0.0520(3) 0.36719(19)
H10 H 0.2867 -0.0266 0.3109
C15 C 0.3142(3) 0.0555(3) 0.4762(2)
H11 H 0.2562 -0.0207 0.4931
C16 C 0.3809(4) 0.1717(4) 0.5593(2)
H12 H 0.3661 0.1756 0.6325
C17 C 0.4681(4) 0.2806(3) 0.5350(2)
H13 H 0.5143 0.3589 0.5916
C18 C 0.4889(3) 0.2761(3) 0.42601(19)
H14 H 0.5502 0.3510 0.4102
C19 C 0.3300(3) -0.2146(2) 0.01591(18)
H15 H 0.4091 -0.2166 -0.0275
H16 H 0.2338 -0.2427 -0.0334
H17 H 0.3436 -0.2806 0.0652
C20 C 0.6049(3) -0.0307(2) 0.16822(18)
C21 C 0.8616(3) 0.0420(3) 0.2573(2)
H18 H 0.8963 0.0148 0.1868
H19 H 0.8699 -0.0364 0.2968
C22 C 0.9515(3) 0.1755(4) 0.3253(3)
H20 H 0.9404 0.2524 0.2858
H21 H 1.0560 0.1614 0.3396
H22 H 0.9168 0.2001 0.3952
H23 H 0.121(3) -0.060(2) 0.0296(19)
N1 N 0.5469(2) 0.48185(19) 0.20691(15)
N2 N 0.30707(19) 0.22014(16) 0.16210(13)
N3 N 0.1992(2) -0.00965(19) 0.06984(15)
O1 O 0.40009(18) 0.45244(15) 0.13889(13)
O2 O 0.06746(17) 0.17908(15) 0.06121(12)
O3 O 0.63778(19) -0.14468(18) 0.12469(15)
O4 O 0.70656(17) 0.07256(17) 0.23781(13)
loop_
_geom_bond_atom_site_label_1
_geom_bond_atom_site_label_2
_geom_bond_site_symmetry_1
_geom_bond_site_symmetry_2
C1 H1 1_555 1_555
C2 C1 1_555 1_555
H2 C2 1_555 1_555
C3 C2 1_555 1_555
H3 C3 1_555 1_555
C4 C3 1_555 1_555
H4 C4 1_555 1_555
C5 C4 1_555 1_555
H5 C5 1_555 1_555
C6 C1 1_555 1_555
C7 C6 1_555 1_555
H6 C7 1_555 1_555
C8 H7 1_555 1_555
H8 C8 1_555 1_555
C9 H9 1_555 1_555
C10 C9 1_555 1_555
C11 C10 1_555 1_555
C12 N2 1_555 1_555
C13 C9 1_555 1_555
C14 C13 1_555 1_555
H10 C14 1_555 1_555
C15 C14 1_555 1_555
H11 C15 1_555 1_555
C16 C15 1_555 1_555
H12 C16 1_555 1_555
C17 C16 1_555 1_555
H13 C17 1_555 1_555
C18 C13 1_555 1_555
H14 C18 1_555 1_555
C19 C11 1_555 1_555
H15 C19 1_555 1_555
H16 C19 1_555 1_555
H17 C19 1_555 1_555
C20 C10 1_555 1_555
C21 H18 1_555 1_555
H19 C21 1_555 1_555
C22 C21 1_555 1_555
H20 C22 1_555 1_555
H21 C22 1_555 1_555
H22 C22 1_555 1_555
H23 N3 1_555 1_555
N1 C7 1_555 1_555
N2 C8 1_555 1_555
N3 C11 1_555 1_555
O1 C8 1_555 1_555
O2 C12 1_555 1_555
O3 C20 1_555 1_555
O4 C20 1_555 1_555
C5 C6 1_555 1_555
C9 N2 1_555 1_555
C12 N3 1_555 1_555
C17 C18 1_555 1_555
C21 O4 1_555 1_555
N1 O1 1_555 1_555

#END
