
#######################################################################
#
#                 Cambridge Crystallographic Data Centre
#                                CCDC 
#
#######################################################################
#
# If this CIF has been generated from an entry in the Cambridge 
# Structural Database, then it will include bibliographic, chemical, 
# crystal, experimental, refinement or atomic coordinate data resulting 
# from the CCDC's data processing and validation procedures.
#
#######################################################################

data_LIBKAL
_chemical_formula_moiety         'C25 H22 N4 O2 S1'
_chemical_name_systematic        
4-{4-methyl-1-[(4-methylphenyl)sulfonyl]-2,5-dihydro-1H-pyrrol-3-yl}-2-(pyridin-3-yl)quinazoline
_symmetry_cell_setting           monoclinic
_symmetry_space_group_name_H-M   'P 21/n'
_symmetry_Int_Tables_number      14
_space_group_name_Hall           '-P 2yn'
loop_
_symmetry_equiv_pos_site_id
_symmetry_equiv_pos_as_xyz
1 x,y,z
2 1/2-x,1/2+y,1/2-z
3 -x,-y,-z
4 1/2+x,1/2-y,1/2+z
_cell_length_a                   9.61410(10)
_cell_length_b                   11.7092(2)
_cell_length_c                   20.0435(2)
_cell_angle_alpha                90
_cell_angle_beta                 93.9240(10)
_cell_angle_gamma                90
_cell_volume                     2251.08
_exptl_crystal_colour            colorless
_exptl_crystal_description       block
_cell_formula_units_Z            4
loop_
_atom_site_label
_atom_site_type_symbol
_atom_site_fract_x
_atom_site_fract_y
_atom_site_fract_z
S1 S 0.10111(7) 0.51742(7) 0.60359(3)
O1 O 0.0579(2) 0.4024(2) 0.61317(11)
N1 N 0.4477(2) 0.74923(18) 0.43211(11)
O2 O 0.0020(2) 0.6083(2) 0.60161(11)
N2 N 0.1733(3) 0.5207(2) 0.53350(11)
N3 N 0.4817(3) 0.8320(2) 0.32519(12)
C1 C 0.3294(3) 0.6680(2) 0.33406(12)
C2 C 0.3633(3) 0.6712(2) 0.40407(12)
C3 C 0.3283(3) 0.4770(2) 0.45434(12)
C4 C 0.3046(3) 0.5885(2) 0.45050(12)
C5 C 0.5057(3) 0.8258(2) 0.39071(14)
C6 C 0.3919(3) 0.7531(2) 0.29597(13)
C7 C 0.2553(3) 0.4246(2) 0.51064(13)
H1 H 0.195666 0.361845 0.495043
H2 H 0.321375 0.397405 0.545816
C8 C 0.2298(3) 0.5506(3) 0.66803(13)
C9 C 0.2117(3) 0.6296(2) 0.50296(13)
H3 H 0.261360 0.679191 0.535194
H4 H 0.130407 0.669267 0.483175
C10 C 0.4160(3) 0.4050(2) 0.41243(14)
H5 H 0.356981 0.356842 0.383957
H6 H 0.477225 0.358589 0.440869
H7 H 0.470165 0.453356 0.385493
C11 C 0.2366(3) 0.5882(2) 0.30204(14)
H8 H 0.194443 0.532651 0.326965
C12 C 0.3031(3) 0.4625(3) 0.70075(15)
H9 H 0.285686 0.386989 0.688528
C13 C 0.6074(5) 0.9064(3) 0.4235(2)
C14 C 0.4020(4) 0.4884(3) 0.75159(16)
H10 H 0.450250 0.429328 0.773941
C15 C 0.3610(4) 0.7560(3) 0.22599(15)
H11 H 0.400580 0.811778 0.200264
C16 C 0.2582(3) 0.6624(3) 0.68488(16)
H12 H 0.209882 0.721330 0.662494
C17 C 0.4314(3) 0.6009(3) 0.77020(15)
C18 C 0.2091(4) 0.5933(3) 0.23416(16)
H13 H 0.147879 0.541195 0.212955
C19 C 0.3591(4) 0.6865(3) 0.73529(17)
H14 H 0.378936 0.762345 0.746035
C20 C 0.2734(4) 0.6771(3) 0.19638(15)
H15 H 0.255532 0.678522 0.150195
C21 C 0.6754(5) 0.9861(3) 0.3872(3)
H16 H 0.655506 0.989666 0.341141
N4 N 0.7716(4) 1.0604(3) 0.4164(2)
C22 C 0.5363(4) 0.6277(4) 0.8269(2)
H17 H 0.516666 0.582825 0.865281
H18 H 0.531132 0.707332 0.837847
H19 H 0.628158 0.610032 0.814002
C23 C 0.6383(5) 0.9048(3) 0.4923(2)
H20 H 0.592396 0.852591 0.518047
C24 C 0.7323(5) 0.9759(3) 0.5231(3)
H21 H 0.750863 0.975078 0.569219
C25 C 0.7992(5) 1.0498(4) 0.4828(3)
H22 H 0.868711 1.095979 0.502886
loop_
_geom_bond_atom_site_label_1
_geom_bond_atom_site_label_2
_geom_bond_site_symmetry_1
_geom_bond_site_symmetry_2
S1 O1 1_555 1_555
N1 C2 1_555 1_555
O2 S1 1_555 1_555
N2 S1 1_555 1_555
N3 C5 1_555 1_555
C1 C2 1_555 1_555
C2 C4 1_555 1_555
C3 C4 1_555 1_555
C4 C9 1_555 1_555
C5 N1 1_555 1_555
C6 N3 1_555 1_555
C7 N2 1_555 1_555
H1 C7 1_555 1_555
H2 C7 1_555 1_555
C8 S1 1_555 1_555
C9 N2 1_555 1_555
H3 C9 1_555 1_555
H4 C9 1_555 1_555
C10 C3 1_555 1_555
H5 C10 1_555 1_555
H6 C10 1_555 1_555
H7 C10 1_555 1_555
C11 C1 1_555 1_555
H8 C11 1_555 1_555
C12 C8 1_555 1_555
H9 C12 1_555 1_555
C13 C5 1_555 1_555
C14 C12 1_555 1_555
H10 C14 1_555 1_555
C15 C6 1_555 1_555
H11 C15 1_555 1_555
C16 C8 1_555 1_555
H12 C16 1_555 1_555
C17 C14 1_555 1_555
C18 C11 1_555 1_555
H13 C18 1_555 1_555
C19 C16 1_555 1_555
H14 C19 1_555 1_555
C20 C15 1_555 1_555
H15 C20 1_555 1_555
C21 C13 1_555 1_555
H16 C21 1_555 1_555
N4 C21 1_555 1_555
C22 C17 1_555 1_555
H17 C22 1_555 1_555
H18 C22 1_555 1_555
H19 C22 1_555 1_555
C23 C13 1_555 1_555
H20 C23 1_555 1_555
C24 C23 1_555 1_555
H21 C24 1_555 1_555
C25 N4 1_555 1_555
H22 C25 1_555 1_555
C1 C6 1_555 1_555
C3 C7 1_555 1_555
C17 C19 1_555 1_555
C18 C20 1_555 1_555
C24 C25 1_555 1_555

#END
