
#######################################################################
#
#                 Cambridge Crystallographic Data Centre
#                                CCDC 
#
#######################################################################
#
# If this CIF has been generated from an entry in the Cambridge 
# Structural Database, then it will include bibliographic, chemical, 
# crystal, experimental, refinement or atomic coordinate data resulting 
# from the CCDC's data processing and validation procedures.
#
#######################################################################

data_LIBPAP
_chemical_formula_moiety         'C21 H15 Br2 N1 O3'
_chemical_name_systematic        
'3,5-Dibromobenzyl 4-(2-(4-nitrophenyl)vinyl)phenyl ether'
_symmetry_cell_setting           triclinic
_symmetry_space_group_name_H-M   'P -1'
_symmetry_Int_Tables_number      2
_space_group_name_Hall           '-P 1'
loop_
_symmetry_equiv_pos_site_id
_symmetry_equiv_pos_as_xyz
1 x,y,z
2 -x,-y,-z
_cell_length_a                   7.4584(8)
_cell_length_b                   8.5139(12)
_cell_length_c                   15.6163(18)
_cell_angle_alpha                85.088(2)
_cell_angle_beta                 79.5100(10)
_cell_angle_gamma                75.9980(10)
_cell_volume                     945.192
_cell_formula_units_Z            2
loop_
_atom_site_label
_atom_site_type_symbol
_atom_site_fract_x
_atom_site_fract_y
_atom_site_fract_z
Br1 Br 1.44470(14) 0.74072(13) -0.03866(7)
Br2 Br 0.99638(16) 1.23810(12) 0.17440(8)
N1 N -0.4379(10) 0.0408(9) 0.6684(6)
O1 O 0.7708(8) 0.6351(7) 0.2236(4)
O2 O -0.5633(10) 0.0237(10) 0.6316(5)
O3 O -0.4313(10) 0.0061(9) 0.7446(5)
C1 C 0.7701(13) 0.7051(12) 0.1386(6)
H1 H 0.6501 0.7790 0.1348
H2 H 0.7905 0.6214 0.0971
C2 C 0.9244(12) 0.7950(10) 0.1181(5)
C3 C 1.0886(13) 0.7319(10) 0.0619(6)
H3 H 1.1070 0.6310 0.0389
C4 C 1.2252(12) 0.8207(10) 0.0405(5)
C5 C 1.2012(12) 0.9733(9) 0.0733(5)
H4 H 1.2905 1.0347 0.0577
C6 C 1.0347(13) 1.0283(10) 0.1312(5)
C7 C 0.8975(13) 0.9453(11) 0.1512(6)
H5 H 0.7858 0.9897 0.1870
C8 C 0.6218(11) 0.5642(9) 0.2599(6)
C9 C 0.6197(13) 0.5106(11) 0.3446(6)
H6 H 0.7136 0.5218 0.3739
C10 C 0.4792(12) 0.4402(10) 0.3866(6)
H7 H 0.4784 0.4053 0.4447
C11 C 0.3365(12) 0.4194(9) 0.3443(5)
C12 C 0.3458(13) 0.4739(11) 0.2587(6)
H8 H 0.2540 0.4613 0.2285
C13 C 0.4849(12) 0.5464(11) 0.2153(6)
H9 H 0.4864 0.5824 0.1573
C14 C 0.1831(12) 0.3486(10) 0.3886(6)
H10 H 0.0979 0.3345 0.3548
C15 C 0.1530(12) 0.3025(10) 0.4720(6)
H11 H 0.2407 0.3148 0.5048
C16 C -0.0013(11) 0.2344(9) 0.5190(6)
C17 C -0.0143(12) 0.2082(10) 0.6085(6)
H12 H 0.0739 0.2353 0.6361
C18 C -0.1545(12) 0.1431(10) 0.6580(6)
H13 H -0.1605 0.1244 0.7179
C19 C -0.2844(11) 0.1070(9) 0.6158(6)
C20 C -0.2785(12) 0.1307(10) 0.5275(7)
H14 H -0.3685 0.1050 0.5006
C21 C -0.1327(12) 0.1948(9) 0.4789(6)
H15 H -0.1250 0.2106 0.4188
loop_
_geom_bond_atom_site_label_1
_geom_bond_atom_site_label_2
_geom_bond_site_symmetry_1
_geom_bond_site_symmetry_2
Br1 C4 1_555 1_555
Br2 C6 1_555 1_555
N1 O2 1_555 1_555
O1 C1 1_555 1_555
O3 N1 1_555 1_555
C1 H1 1_555 1_555
H2 C1 1_555 1_555
C2 C1 1_555 1_555
C3 C2 1_555 1_555
H3 C3 1_555 1_555
C4 C3 1_555 1_555
C5 C4 1_555 1_555
H4 C5 1_555 1_555
C6 C5 1_555 1_555
C7 C2 1_555 1_555
H5 C7 1_555 1_555
C8 O1 1_555 1_555
C9 C8 1_555 1_555
H6 C9 1_555 1_555
C10 C9 1_555 1_555
H7 C10 1_555 1_555
C11 C10 1_555 1_555
C12 C11 1_555 1_555
H8 C12 1_555 1_555
C13 C8 1_555 1_555
H9 C13 1_555 1_555
C14 C11 1_555 1_555
H10 C14 1_555 1_555
C15 C14 1_555 1_555
H11 C15 1_555 1_555
C16 C15 1_555 1_555
C17 C16 1_555 1_555
H12 C17 1_555 1_555
C18 C17 1_555 1_555
H13 C18 1_555 1_555
C19 N1 1_555 1_555
C20 C19 1_555 1_555
H14 C20 1_555 1_555
C21 C16 1_555 1_555
H15 C21 1_555 1_555
C6 C7 1_555 1_555
C12 C13 1_555 1_555
C18 C19 1_555 1_555
C20 C21 1_555 1_555

#END
