
#######################################################################
#
#                 Cambridge Crystallographic Data Centre
#                                CCDC 
#
#######################################################################
#
# If this CIF has been generated from an entry in the Cambridge 
# Structural Database, then it will include bibliographic, chemical, 
# crystal, experimental, refinement or atomic coordinate data resulting 
# from the CCDC's data processing and validation procedures.
#
#######################################################################

data_LIBRUM
_chemical_formula_moiety         'C27 H24 F1 N3 O2 S1'
_chemical_name_systematic        
2-(5-fluoro-2-methylphenyl)-4-{4-methyl-1-[(4-methylphenyl)sulfonyl]-2,5-dihydro-1H-pyrrol-3-yl}quinazoline
_symmetry_cell_setting           triclinic
_symmetry_space_group_name_H-M   'P -1'
_symmetry_Int_Tables_number      2
_space_group_name_Hall           '-P 1'
loop_
_symmetry_equiv_pos_site_id
_symmetry_equiv_pos_as_xyz
1 x,y,z
2 -x,-y,-z
_cell_length_a                   10.4632(5)
_cell_length_b                   10.5464(5)
_cell_length_c                   12.8044(6)
_cell_angle_alpha                111.443(4)
_cell_angle_beta                 104.277(4)
_cell_angle_gamma                103.717(4)
_cell_volume                     1187.68
_exptl_crystal_colour            colorless
_exptl_crystal_description       block
_cell_formula_units_Z            2
loop_
_atom_site_label
_atom_site_type_symbol
_atom_site_fract_x
_atom_site_fract_y
_atom_site_fract_z
S1 S 0.59693(5) 1.00617(5) 0.69860(4)
F1 F 0.06324(18) 0.4166(2) 0.72640(12)
N1 N 0.19885(14) 0.46114(16) 0.39968(12)
O1 O 0.74554(16) 1.07623(16) 0.73062(12)
O2 O 0.50604(19) 1.08843(15) 0.70172(13)
N2 N 0.00780(15) 0.27643(17) 0.21904(13)
N3 N 0.53883(16) 0.87755(16) 0.56241(13)
C1 C 0.18940(17) 0.46206(18) 0.21129(14)
C2 C 0.25394(16) 0.51916(18) 0.33855(14)
C3 C 0.38773(17) 0.64813(18) 0.41286(14)
C4 C 0.06240(18) 0.33789(19) 0.15512(15)
C5 C 0.07721(17) 0.33887(19) 0.33611(15)
C6 C 0.02417(18) 0.2765(2) 0.41127(16)
C7 C 0.5748(2) 0.92260(19) 0.79320(15)
C8 C -0.0089(2) 0.2760(2) 0.02893(16)
H1 H -0.091850 0.193995 -0.009398
C9 C 0.6828(2) 0.8875(2) 0.84830(16)
H2 H 0.768692 0.910025 0.837651
C10 C 0.38686(19) 0.7862(2) 0.50286(17)
H3 H 0.333432 0.830498 0.463565
H4 H 0.347836 0.769103 0.559895
C11 C 0.51688(18) 0.6544(2) 0.41885(15)
C12 C 0.24039(19) 0.5220(2) 0.14103(16)
H5 H 0.322718 0.604396 0.177426
C13 C -0.05799(19) 0.1282(2) 0.36705(19)
C14 C 0.0633(2) 0.3724(2) 0.53310(17)
H6 H 0.117817 0.470552 0.563346
C15 C 0.6622(2) 0.8184(2) 0.91950(18)
H7 H 0.735598 0.796062 0.957317
C16 C 0.1682(2) 0.4586(2) 0.01907(17)
H8 H 0.202619 0.497372 -0.027397
C17 C 0.0429(2) 0.3356(2) -0.03659(16)
H9 H -0.005276 0.294296 -0.119511
C18 C 0.4461(2) 0.8880(2) 0.80852(19)
H10 H 0.373495 0.912163 0.772041
C19 C 0.62552(19) 0.7970(2) 0.51738(17)
H11 H 0.685260 0.783010 0.580140
H12 H 0.684405 0.847195 0.486173
C20 C 0.5355(3) 0.7819(2) 0.93566(18)
C21 C 0.0208(2) 0.3206(3) 0.60763(19)
C22 C -0.0612(2) 0.1781(3) 0.5674(2)
H13 H -0.090200 0.145562 0.619148
C23 C 0.4276(3) 0.8169(3) 0.8790(2)
H14 H 0.341201 0.792195 0.888409
C24 C -0.0993(2) 0.0842(3) 0.4473(2)
H15 H -0.155255 -0.013180 0.418719
C25 C -0.0975(3) 0.0130(2) 0.2404(2)
H16 H -0.163333 0.029966 0.184830
H17 H -0.140385 -0.081794 0.234470
H18 H -0.014095 0.017338 0.221016
C26 C 0.5612(2) 0.5384(3) 0.3460(2)
H19 H 0.622155 0.513912 0.398717
H20 H 0.611055 0.573593 0.302526
H21 H 0.479032 0.452997 0.289860
C27 C 0.5136(4) 0.7036(3) 1.0115(3)
H22 H 0.455066 0.602726 0.959719
H23 H 0.468381 0.748269 1.063518
H24 H 0.603585 0.710046 1.059502
loop_
_geom_bond_atom_site_label_1
_geom_bond_atom_site_label_2
_geom_bond_site_symmetry_1
_geom_bond_site_symmetry_2
S1 O1 1_555 1_555
F1 C21 1_555 1_555
N1 C2 1_555 1_555
O2 S1 1_555 1_555
N2 C4 1_555 1_555
N3 S1 1_555 1_555
C1 C2 1_555 1_555
C2 C3 1_555 1_555
C3 C10 1_555 1_555
C4 C1 1_555 1_555
C5 N1 1_555 1_555
C6 C5 1_555 1_555
C7 S1 1_555 1_555
C8 C4 1_555 1_555
H1 C8 1_555 1_555
C9 C7 1_555 1_555
H2 C9 1_555 1_555
C10 N3 1_555 1_555
H3 C10 1_555 1_555
H4 C10 1_555 1_555
C11 C3 1_555 1_555
C12 C1 1_555 1_555
H5 C12 1_555 1_555
C13 C6 1_555 1_555
C14 C6 1_555 1_555
H6 C14 1_555 1_555
C15 C9 1_555 1_555
H7 C15 1_555 1_555
C16 C12 1_555 1_555
H8 C16 1_555 1_555
C17 C8 1_555 1_555
H9 C17 1_555 1_555
C18 C7 1_555 1_555
H10 C18 1_555 1_555
C19 N3 1_555 1_555
H11 C19 1_555 1_555
H12 C19 1_555 1_555
C20 C15 1_555 1_555
C21 C14 1_555 1_555
C22 C21 1_555 1_555
H13 C22 1_555 1_555
C23 C18 1_555 1_555
H14 C23 1_555 1_555
C24 C13 1_555 1_555
H15 C24 1_555 1_555
C25 C13 1_555 1_555
H16 C25 1_555 1_555
H17 C25 1_555 1_555
H18 C25 1_555 1_555
C26 C11 1_555 1_555
H19 C26 1_555 1_555
H20 C26 1_555 1_555
H21 C26 1_555 1_555
C27 C20 1_555 1_555
H22 C27 1_555 1_555
H23 C27 1_555 1_555
H24 C27 1_555 1_555
N2 C5 1_555 1_555
C11 C19 1_555 1_555
C16 C17 1_555 1_555
C20 C23 1_555 1_555
C22 C24 1_555 1_555

#END
