
#######################################################################
#
#                 Cambridge Crystallographic Data Centre
#                                CCDC 
#
#######################################################################
#
# If this CIF has been generated from an entry in the Cambridge 
# Structural Database, then it will include bibliographic, chemical, 
# crystal, experimental, refinement or atomic coordinate data resulting 
# from the CCDC's data processing and validation procedures.
#
#######################################################################

data_LIBREW
_chemical_formula_moiety         'C27 H20 F3 N3 O2 S1'
_chemical_name_systematic        
4-{4-methyl-1-[(4-methylphenyl)sulfonyl]-1H-pyrrol-3-yl}-2-[2-(trifluoromethyl)phenyl]quinazoline
_symmetry_cell_setting           orthorhombic
_symmetry_space_group_name_H-M   'P b c a'
_symmetry_Int_Tables_number      61
_space_group_name_Hall           '-P 2ac 2ab'
loop_
_symmetry_equiv_pos_site_id
_symmetry_equiv_pos_as_xyz
1 x,y,z
2 1/2-x,-y,1/2+z
3 -x,1/2+y,1/2-z
4 1/2+x,1/2-y,-z
5 -x,-y,-z
6 1/2+x,y,1/2-z
7 x,1/2-y,1/2+z
8 1/2-x,1/2+y,z
_cell_length_a                   19.2771(2)
_cell_length_b                   10.64050(10)
_cell_length_c                   24.2108(3)
_cell_angle_alpha                90
_cell_angle_beta                 90
_cell_angle_gamma                90
_cell_volume                     4966.07
_exptl_crystal_colour            colorless
_exptl_crystal_description       block
_cell_formula_units_Z            8
loop_
_atom_site_label
_atom_site_type_symbol
_atom_site_fract_x
_atom_site_fract_y
_atom_site_fract_z
S1 S 0.32848(3) 0.75670(6) 0.88105(2)
F1 F 0.38270(9) 0.38125(17) 0.69285(7)
N1 N 0.37372(8) 0.63458(14) 0.66103(6)
N2 N 0.45097(8) 0.58346(14) 0.58711(6)
F2 F 0.28021(10) 0.4404(2) 0.71321(6)
F3 F 0.29933(12) 0.24927(18) 0.69179(8)
O1 O 0.28329(9) 0.6503(2) 0.88070(8)
N3 N 0.33828(11) 0.79814(19) 0.81730(7)
O2 O 0.31020(13) 0.8672(2) 0.91070(8)
C1 C 0.50053(10) 0.65640(17) 0.61135(8)
C2 C 0.39209(9) 0.57262(17) 0.61401(7)
C3 C 0.33870(9) 0.48808(17) 0.58949(7)
C4 C 0.48896(10) 0.71855(17) 0.66197(8)
C5 C 0.42046(9) 0.70845(17) 0.68412(7)
C6 C 0.32502(10) 0.50135(18) 0.53338(8)
H1 H 0.349280 0.561270 0.513151
C7 C 0.39717(10) 0.77418(19) 0.73453(8)
C8 C 0.30278(11) 0.3954(2) 0.61894(8)
C9 C 0.54517(11) 0.7806(2) 0.68816(10)
H2 H 0.538786 0.818688 0.722355
C10 C 0.40213(13) 0.8950(2) 0.74792(9)
C11 C 0.56649(11) 0.6654(2) 0.58585(10)
H3 H 0.574168 0.627766 0.551721
C12 C 0.27624(12) 0.4276(2) 0.50700(9)
H4 H 0.267464 0.438596 0.469542
C13 C 0.40957(12) 0.7048(2) 0.90525(8)
C14 C 0.35636(13) 0.7010(2) 0.77636(9)
H5 H 0.345291 0.615898 0.776438
C15 C 0.60848(12) 0.7843(2) 0.66326(12)
H6 H 0.645354 0.823940 0.680885
C16 C 0.42304(13) 0.5780(2) 0.90747(10)
H7 H 0.388886 0.520300 0.897792
C17 C 0.25415(13) 0.3210(2) 0.59201(10)
H8 H 0.230349 0.259265 0.611530
C18 C 0.61860(12) 0.7291(2) 0.61138(12)
H9 H 0.661531 0.736168 0.594137
C19 C 0.31590(15) 0.3679(3) 0.67870(11)
C20 C 0.36795(16) 0.9206(2) 0.80251(9)
H10 H 0.366047 0.995707 0.822128
C21 C 0.24088(14) 0.3381(2) 0.53632(11)
H11 H 0.207799 0.288639 0.518745
C22 C 0.46025(16) 0.7900(3) 0.92055(11)
H12 H 0.450713 0.875637 0.920206
C23 C 0.48774(16) 0.5369(3) 0.92421(11)
H13 H 0.496484 0.451044 0.926378
C24 C 0.53968(15) 0.6210(3) 0.93777(12)
C25 C 0.52448(17) 0.7481(3) 0.93620(13)
H14 H 0.558473 0.805988 0.945941
C26 C 0.43198(19) 1.0019(2) 0.71630(12)
H15 H 0.445379 0.973615 0.680185
H16 H 0.471927 1.033816 0.735375
H17 H 0.397924 1.067267 0.712910
C27 C 0.61053(18) 0.5749(5) 0.95398(18)
H18 H 0.631013 0.632780 0.979647
H19 H 0.639244 0.568782 0.921693
H20 H 0.606582 0.493656 0.970950
loop_
_geom_bond_atom_site_label_1
_geom_bond_atom_site_label_2
_geom_bond_site_symmetry_1
_geom_bond_site_symmetry_2
S1 O1 1_555 1_555
F1 C19 1_555 1_555
N1 C2 1_555 1_555
N2 C1 1_555 1_555
F2 C19 1_555 1_555
F3 C19 1_555 1_555
N3 S1 1_555 1_555
O2 S1 1_555 1_555
C1 C4 1_555 1_555
C2 N2 1_555 1_555
C3 C2 1_555 1_555
C4 C5 1_555 1_555
C5 N1 1_555 1_555
C6 C3 1_555 1_555
H1 C6 1_555 1_555
C7 C5 1_555 1_555
C8 C3 1_555 1_555
C9 C4 1_555 1_555
H2 C9 1_555 1_555
C10 C7 1_555 1_555
C11 C1 1_555 1_555
H3 C11 1_555 1_555
C12 C6 1_555 1_555
H4 C12 1_555 1_555
C13 S1 1_555 1_555
C14 N3 1_555 1_555
H5 C14 1_555 1_555
C15 C9 1_555 1_555
H6 C15 1_555 1_555
C16 C13 1_555 1_555
H7 C16 1_555 1_555
C17 C8 1_555 1_555
H8 C17 1_555 1_555
C18 C11 1_555 1_555
H9 C18 1_555 1_555
C19 C8 1_555 1_555
C20 N3 1_555 1_555
H10 C20 1_555 1_555
C21 C12 1_555 1_555
H11 C21 1_555 1_555
C22 C13 1_555 1_555
H12 C22 1_555 1_555
C23 C16 1_555 1_555
H13 C23 1_555 1_555
C24 C23 1_555 1_555
C25 C22 1_555 1_555
H14 C25 1_555 1_555
C26 C10 1_555 1_555
H15 C26 1_555 1_555
H16 C26 1_555 1_555
H17 C26 1_555 1_555
C27 C24 1_555 1_555
H18 C27 1_555 1_555
H19 C27 1_555 1_555
H20 C27 1_555 1_555
C7 C14 1_555 1_555
C10 C20 1_555 1_555
C15 C18 1_555 1_555
C17 C21 1_555 1_555
C24 C25 1_555 1_555

#END
