
#######################################################################
#
#                 Cambridge Crystallographic Data Centre
#                                CCDC 
#
#######################################################################
#
# If this CIF has been generated from an entry in the Cambridge 
# Structural Database, then it will include bibliographic, chemical, 
# crystal, experimental, refinement or atomic coordinate data resulting 
# from the CCDC's data processing and validation procedures.
#
#######################################################################

data_LIBSAT
_chemical_formula_moiety         'C27 H25 N3 O2 S1'
_chemical_name_systematic        
'6-methyl-4-{4-methyl-1-[(4-methylphenyl)sulfonyl]-2,5-dihydro-1H-pyrrol-3-yl}-2-phenylquinazoline unknown solvate'
_symmetry_cell_setting           monoclinic
_symmetry_space_group_name_H-M   'C 2/c'
_symmetry_Int_Tables_number      15
_space_group_name_Hall           '-C 2yn'
loop_
_symmetry_equiv_pos_site_id
_symmetry_equiv_pos_as_xyz
1 x,y,z
2 -x,y,1/2-z
3 1/2+x,1/2+y,z
4 1/2-x,1/2+y,1/2-z
5 -x,-y,-z
6 x,-y,1/2+z
7 1/2-x,1/2-y,-z
8 1/2+x,1/2-y,1/2+z
_cell_length_a                   21.9638(3)
_cell_length_b                   10.47230(10)
_cell_length_c                   22.1586(3)
_cell_angle_alpha                90
_cell_angle_beta                 94.2860(10)
_cell_angle_gamma                90
_cell_volume                     5082.48
_exptl_crystal_colour            yellow
_exptl_crystal_description       block
_cell_formula_units_Z            8
loop_
_atom_site_label
_atom_site_type_symbol
_atom_site_fract_x
_atom_site_fract_y
_atom_site_fract_z
S1 S 0.42911(2) 0.30407(4) 0.41016(2)
O1 O 0.46399(6) 0.41821(15) 0.40463(7)
O2 O 0.43457(7) 0.20150(15) 0.36836(7)
N1 N 0.24096(7) 0.54247(14) 0.52736(6)
N2 N 0.35782(7) 0.34678(15) 0.40466(7)
N3 N 0.16361(7) 0.70211(14) 0.52840(7)
C1 C 0.18776(8) 0.60572(16) 0.43386(8)
C2 C 0.23189(8) 0.53108(15) 0.46806(7)
C3 C 0.30954(8) 0.24872(17) 0.40019(8)
H1 H 0.319262 0.178387 0.427729
H2 H 0.303113 0.215906 0.359277
C4 C 0.27118(8) 0.43580(16) 0.43993(7)
C5 C 0.25477(8) 0.32174(16) 0.41808(7)
C6 C 0.43784(8) 0.11524(18) 0.49582(9)
H3 H 0.422529 0.060346 0.465367
C7 C 0.21398(9) 0.63144(17) 0.62236(8)
C8 C 0.44623(8) 0.24377(18) 0.48372(8)
C9 C 0.17579(9) 0.59760(19) 0.37043(9)
H4 H 0.198371 0.541416 0.348480
C10 C 0.15453(8) 0.69265(16) 0.46727(9)
C11 C 0.33870(9) 0.45790(17) 0.43989(9)
H5 H 0.347635 0.537766 0.420211
H6 H 0.358190 0.457652 0.480640
C12 C 0.20499(8) 0.62722(16) 0.55537(8)
C13 C 0.45252(9) 0.06961(19) 0.55368(9)
H7 H 0.446579 -0.016423 0.561825
C14 C 0.47572(9) 0.1486(2) 0.59954(9)
C15 C 0.19328(9) 0.2609(2) 0.41366(9)
H8 H 0.179671 0.249175 0.371838
H9 H 0.164965 0.314741 0.432666
H10 H 0.195580 0.179458 0.433617
C16 C 0.26251(11) 0.5696(2) 0.65312(9)
H11 H 0.290223 0.524788 0.631476
C17 C 0.09877(10) 0.7577(2) 0.37525(11)
H12 H 0.068777 0.808401 0.355501
C18 C 0.10954(9) 0.7693(2) 0.43595(10)
H13 H 0.087345 0.827694 0.457059
C19 C 0.48368(11) 0.2774(2) 0.58661(10)
H14 H 0.499190 0.332038 0.617062
C20 C 0.46890(10) 0.32527(19) 0.52925(9)
H15 H 0.474141 0.411601 0.521277
C21 C 0.13146(10) 0.6711(2) 0.34070(10)
C22 C 0.27045(14) 0.5735(3) 0.71547(11)
H16 H 0.303384 0.531551 0.735493
C23 C 0.17288(14) 0.6974(2) 0.65559(11)
H17 H 0.139840 0.739363 0.635784
C24 C 0.11750(14) 0.6621(3) 0.27323(11)
H18 H 0.121468 0.744961 0.255422
H19 H 0.076548 0.631534 0.264753
H20 H 0.145600 0.604036 0.256533
C25 C 0.22983(16) 0.6391(3) 0.74796(11)
H21 H 0.235214 0.641986 0.789971
C26 C 0.49221(15) 0.0969(3) 0.66237(12)
H22 H 0.507428 0.011395 0.659496
H23 H 0.456595 0.096675 0.684992
H24 H 0.523062 0.149959 0.682518
C27 C 0.18108(19) 0.7006(3) 0.71807(13)
H25 H 0.153412 0.744709 0.740073
loop_
_geom_bond_atom_site_label_1
_geom_bond_atom_site_label_2
_geom_bond_site_symmetry_1
_geom_bond_site_symmetry_2
S1 O1 1_555 1_555
O2 S1 1_555 1_555
N1 C2 1_555 1_555
N2 S1 1_555 1_555
N3 C10 1_555 1_555
C1 C2 1_555 1_555
C2 C4 1_555 1_555
C3 N2 1_555 1_555
H1 C3 1_555 1_555
H2 C3 1_555 1_555
C4 C5 1_555 1_555
C5 C3 1_555 1_555
C6 H3 1_555 1_555
C7 C12 1_555 1_555
C8 S1 1_555 1_555
C9 C1 1_555 1_555
H4 C9 1_555 1_555
C10 C1 1_555 1_555
C11 N2 1_555 1_555
H5 C11 1_555 1_555
H6 C11 1_555 1_555
C12 N1 1_555 1_555
C13 C6 1_555 1_555
H7 C13 1_555 1_555
C14 C13 1_555 1_555
C15 C5 1_555 1_555
H8 C15 1_555 1_555
H9 C15 1_555 1_555
H10 C15 1_555 1_555
C16 C7 1_555 1_555
H11 C16 1_555 1_555
C17 H12 1_555 1_555
C18 C10 1_555 1_555
H13 C18 1_555 1_555
C19 C14 1_555 1_555
H14 C19 1_555 1_555
C20 C8 1_555 1_555
H15 C20 1_555 1_555
C21 C9 1_555 1_555
C22 C16 1_555 1_555
H16 C22 1_555 1_555
C23 C7 1_555 1_555
H17 C23 1_555 1_555
C24 C21 1_555 1_555
H18 C24 1_555 1_555
H19 C24 1_555 1_555
H20 C24 1_555 1_555
C25 C22 1_555 1_555
H21 C25 1_555 1_555
C26 C14 1_555 1_555
H22 C26 1_555 1_555
H23 C26 1_555 1_555
H24 C26 1_555 1_555
C27 C23 1_555 1_555
H25 C27 1_555 1_555
N3 C12 1_555 1_555
C4 C11 1_555 1_555
C6 C8 1_555 1_555
C17 C18 1_555 1_555
C17 C21 1_555 1_555
C19 C20 1_555 1_555
C25 C27 1_555 1_555

#END
