
#######################################################################
#
#                 Cambridge Crystallographic Data Centre
#                                CCDC 
#
#######################################################################
#
# If this CIF has been generated from an entry in the Cambridge 
# Structural Database, then it will include bibliographic, chemical, 
# crystal, experimental, refinement or atomic coordinate data resulting 
# from the CCDC's data processing and validation procedures.
#
#######################################################################

data_LIBTOI
_chemical_formula_moiety         'C27 H23 N3 O4 S1'
_chemical_name_systematic        
2-(2H-1,3-benzodioxol-5-yl)-4-{4-methyl-1-[(4-methylphenyl)sulfonyl]-2,5-dihydro-1H-pyrrol-3-yl}quinazoline
_symmetry_cell_setting           monoclinic
_symmetry_space_group_name_H-M   'P 21/c'
_symmetry_Int_Tables_number      14
_space_group_name_Hall           '-P 2ybc'
loop_
_symmetry_equiv_pos_site_id
_symmetry_equiv_pos_as_xyz
1 x,y,z
2 -x,1/2+y,1/2-z
3 -x,-y,-z
4 x,1/2-y,1/2+z
_cell_length_a                   12.3962(2)
_cell_length_b                   11.1541(2)
_cell_length_c                   17.9393(4)
_cell_angle_alpha                90
_cell_angle_beta                 108.833(2)
_cell_angle_gamma                90
_cell_volume                     2347.65
_exptl_crystal_colour            'light yellow'
_exptl_crystal_description       block
_cell_formula_units_Z            4
loop_
_atom_site_label
_atom_site_type_symbol
_atom_site_fract_x
_atom_site_fract_y
_atom_site_fract_z
S1 S 0.80579(4) 0.89992(4) 0.62889(3)
N1 N 0.50983(11) 0.57105(11) 0.59831(8)
O1 O 0.74263(13) 0.14057(12) 0.81241(9)
N2 N 0.34761(12) 0.44250(12) 0.57030(8)
O2 O 0.82663(12) 0.30157(13) 0.77144(10)
N3 N 0.67078(13) 0.89186(13) 0.57800(9)
O3 O 0.86682(13) 0.85061(17) 0.58062(10)
O4 O 0.82560(14) 1.02033(14) 0.65722(11)
C1 C 0.52944(14) 0.37541(13) 0.65802(9)
C2 C 0.45613(13) 0.46664(13) 0.60466(8)
C3 C 0.44729(13) 0.65829(13) 0.55592(9)
C4 C 0.51052(14) 0.77274(14) 0.56138(9)
C5 C 0.33036(14) 0.64155(14) 0.51238(9)
C6 C 0.48781(15) 0.87820(14) 0.58791(9)
C7 C 0.28370(14) 0.52901(14) 0.52234(9)
C8 C 0.47992(15) 0.27713(15) 0.68227(10)
H1 H 0.401187 0.267829 0.663142
C9 C 0.64779(15) 0.39049(14) 0.68544(10)
H2 H 0.682375 0.455715 0.670111
C10 C 0.83072(14) 0.80332(16) 0.71031(10)
C11 C 0.71044(15) 0.30524(15) 0.73575(10)
C12 C 0.66053(16) 0.20901(14) 0.75986(10)
C13 C 0.62519(14) 0.77129(15) 0.55067(11)
H3 H 0.673138 0.708972 0.582308
H4 H 0.618718 0.759103 0.495854
C14 C 0.54568(17) 0.19230(15) 0.73460(11)
H5 H 0.512535 0.127348 0.751420
C15 C 0.87083(15) 0.68806(18) 0.70583(11)
H6 H 0.884226 0.663098 0.660141
C16 C 0.26061(15) 0.72648(16) 0.46017(10)
H7 H 0.290824 0.800240 0.452998
C17 C 0.87145(14) 0.64521(18) 0.83707(10)
C18 C 0.80896(16) 0.83948(18) 0.77830(11)
H8 H 0.781230 0.915959 0.781973
C19 C 0.89082(16) 0.61072(18) 0.76852(11)
H9 H 0.917811 0.533935 0.764718
C20 C 0.82938(15) 0.75938(19) 0.84060(11)
H10 H 0.814376 0.783062 0.885980
C21 C 0.58751(16) 0.96079(15) 0.60318(11)
H11 H 0.566264 1.033995 0.572768
H12 H 0.617995 0.981129 0.658620
C22 C 0.16825(16) 0.50524(18) 0.48094(12)
H13 H 0.136442 0.431988 0.487266
C23 C 0.38599(19) 0.91903(16) 0.60752(13)
H14 H 0.350112 0.983919 0.573338
H15 H 0.408957 0.945753 0.661246
H16 H 0.333157 0.853784 0.600645
C24 C 0.14970(17) 0.70098(19) 0.42043(13)
H17 H 0.104505 0.757011 0.385846
C25 C 0.10298(17) 0.5897(2) 0.43151(14)
H18 H 0.026638 0.573601 0.404770
C26 C 0.8485(2) 0.1955(2) 0.81728(15)
H19 H 0.890495 0.214592 0.871680
H20 H 0.894152 0.140851 0.797817
C27 C 0.8986(2) 0.5612(2) 0.90627(13)
H21 H 0.863006 0.485059 0.889392
H22 H 0.870403 0.594269 0.945836
H23 H 0.979620 0.550733 0.927752
loop_
_geom_bond_atom_site_label_1
_geom_bond_atom_site_label_2
_geom_bond_site_symmetry_1
_geom_bond_site_symmetry_2
S1 N3 1_555 1_555
N1 C2 1_555 1_555
O1 C12 1_555 1_555
N2 C2 1_555 1_555
O2 C11 1_555 1_555
N3 C13 1_555 1_555
O3 S1 1_555 1_555
O4 S1 1_555 1_555
C1 C2 1_555 1_555
C3 N1 1_555 1_555
C4 C3 1_555 1_555
C5 C3 1_555 1_555
C6 C4 1_555 1_555
C7 N2 1_555 1_555
C8 C1 1_555 1_555
H1 C8 1_555 1_555
C9 C1 1_555 1_555
H2 C9 1_555 1_555
C10 S1 1_555 1_555
C11 C9 1_555 1_555
C12 C11 1_555 1_555
C13 C4 1_555 1_555
H3 C13 1_555 1_555
H4 C13 1_555 1_555
C14 C8 1_555 1_555
H5 C14 1_555 1_555
C15 C10 1_555 1_555
H6 C15 1_555 1_555
C16 C5 1_555 1_555
H7 C16 1_555 1_555
C17 C19 1_555 1_555
C18 C10 1_555 1_555
H8 C18 1_555 1_555
C19 C15 1_555 1_555
H9 C19 1_555 1_555
C20 C17 1_555 1_555
H10 C20 1_555 1_555
C21 N3 1_555 1_555
H11 C21 1_555 1_555
H12 C21 1_555 1_555
C22 C7 1_555 1_555
H13 C22 1_555 1_555
C23 C6 1_555 1_555
H14 C23 1_555 1_555
H15 C23 1_555 1_555
H16 C23 1_555 1_555
C24 C16 1_555 1_555
H17 C24 1_555 1_555
C25 C22 1_555 1_555
H18 C25 1_555 1_555
C26 O1 1_555 1_555
H19 C26 1_555 1_555
H20 C26 1_555 1_555
C27 C17 1_555 1_555
H21 C27 1_555 1_555
H22 C27 1_555 1_555
H23 C27 1_555 1_555
O2 C26 1_555 1_555
C5 C7 1_555 1_555
C6 C21 1_555 1_555
C12 C14 1_555 1_555
C18 C20 1_555 1_555
C24 C25 1_555 1_555

#END
