
#######################################################################
#
#                 Cambridge Crystallographic Data Centre
#                                CCDC 
#
#######################################################################
#
# If this CIF has been generated from an entry in the Cambridge 
# Structural Database, then it will include bibliographic, chemical, 
# crystal, experimental, refinement or atomic coordinate data resulting 
# from the CCDC's data processing and validation procedures.
#
#######################################################################

data_LIBTAU
_chemical_formula_moiety         'C32 H27 N3 O2 S1'
_chemical_name_systematic        
2-([1,1'-biphenyl]-4-yl)-4-{4-methyl-1-[(4-methylphenyl)sulfonyl]-2,5-dihydro-1H-pyrrol-3-yl}quinazoline
_symmetry_cell_setting           monoclinic
_symmetry_space_group_name_H-M   'P 21/n'
_symmetry_Int_Tables_number      14
_space_group_name_Hall           '-P 2yn'
loop_
_symmetry_equiv_pos_site_id
_symmetry_equiv_pos_as_xyz
1 x,y,z
2 1/2-x,1/2+y,1/2-z
3 -x,-y,-z
4 1/2+x,1/2-y,1/2+z
_cell_length_a                   12.8709(2)
_cell_length_b                   8.74770(10)
_cell_length_c                   24.2903(5)
_cell_angle_alpha                90
_cell_angle_beta                 97.798(2)
_cell_angle_gamma                90
_cell_volume                     2709.57
_exptl_crystal_colour            colorless
_exptl_crystal_description       block
_cell_formula_units_Z            4
loop_
_atom_site_label
_atom_site_type_symbol
_atom_site_fract_x
_atom_site_fract_y
_atom_site_fract_z
S1 S 0.25449(4) -0.34515(5) 0.43557(2)
N1 N 0.58162(11) 0.01729(16) 0.38540(6)
N2 N 0.74392(12) 0.04972(17) 0.34887(6)
N3 N 0.38004(12) -0.31867(17) 0.44637(7)
O1 O 0.22807(12) -0.42827(17) 0.48229(8)
O2 O 0.23213(15) -0.4071(2) 0.38088(8)
C1 C 0.61268(13) -0.11595(18) 0.40722(7)
C2 C 0.53455(13) -0.19548(17) 0.43685(7)
C3 C 0.53805(13) -0.22769(18) 0.49031(7)
C4 C 0.71178(14) -0.17951(19) 0.40062(7)
C5 C 0.77579(13) -0.0904(2) 0.37007(7)
C6 C 0.64958(14) 0.09512(19) 0.35700(7)
C7 C 0.43624(14) -0.2940(2) 0.50231(8)
H1 H 0.447033 -0.389377 0.522637
H2 H 0.398920 -0.223143 0.523285
C8 C 0.61136(14) 0.24458(19) 0.33359(8)
C9 C 0.53828(15) 0.5282(2) 0.28824(7)
C10 C 0.16632(14) -0.1035(2) 0.48322(8)
H3 H 0.181291 -0.156485 0.516535
C11 C 0.50038(17) 0.6794(2) 0.26575(7)
C12 C 0.19316(14) -0.1657(2) 0.43462(8)
C13 C 0.74806(16) -0.3237(2) 0.42133(9)
H4 H 0.706314 -0.383656 0.441109
C14 C 0.43074(15) -0.2350(2) 0.40449(8)
H5 H 0.391537 -0.144027 0.391822
H6 H 0.438883 -0.299194 0.372788
C15 C 0.87493(15) -0.1464(2) 0.36143(9)
H7 H 0.917812 -0.088763 0.341541
C16 C 0.67703(17) 0.3436(2) 0.31071(10)
H8 H 0.746861 0.316840 0.310305
C17 C 0.11714(15) 0.0378(3) 0.48226(10)
H9 H 0.098984 0.078342 0.515044
C18 C 0.90780(16) -0.2857(3) 0.38238(10)
H10 H 0.973399 -0.322131 0.376707
C19 C 0.09457(16) 0.1199(3) 0.43306(11)
C20 C 0.62376(16) -0.1981(3) 0.53659(9)
H11 H 0.681071 -0.148516 0.522331
H12 H 0.647344 -0.293226 0.553609
H13 H 0.598181 -0.133402 0.563723
C21 C 0.17179(17) -0.0847(3) 0.38519(9)
H14 H 0.190048 -0.124815 0.352366
C22 C 0.64057(17) 0.4821(2) 0.28834(10)
H15 H 0.686602 0.546059 0.272904
C23 C 0.84429(18) -0.3746(2) 0.41226(10)
H16 H 0.868046 -0.469357 0.426045
C24 C 0.50857(17) 0.2897(3) 0.33411(12)
H17 H 0.462380 0.225248 0.349193
C25 C 0.47363(18) 0.4296(3) 0.31246(12)
H18 H 0.404591 0.458302 0.314234
C26 C 0.5705(2) 0.7946(3) 0.25621(11)
H19 H 0.642111 0.775668 0.263981
C27 C 0.12286(19) 0.0567(3) 0.38533(11)
H20 H 0.108748 0.110532 0.352133
C28 C 0.3947(2) 0.7134(3) 0.25530(11)
H21 H 0.345446 0.640740 0.262399
C29 C 0.5370(3) 0.9361(3) 0.23552(12)
H22 H 0.585607 1.010664 0.229374
C30 C 0.4321(3) 0.9659(3) 0.22417(12)
H23 H 0.409050 1.060298 0.209737
C31 C 0.3613(3) 0.8565(4) 0.23410(13)
H24 H 0.289929 0.877370 0.226658
C32 C 0.0402(2) 0.2726(3) 0.43253(17)
H25 H 0.023026 0.294478 0.468962
H26 H -0.022884 0.269845 0.406453
H27 H 0.085844 0.350795 0.421841
loop_
_geom_bond_atom_site_label_1
_geom_bond_atom_site_label_2
_geom_bond_site_symmetry_1
_geom_bond_site_symmetry_2
S1 N3 1_555 1_555
N1 C1 1_555 1_555
N2 C5 1_555 1_555
N3 C7 1_555 1_555
O1 S1 1_555 1_555
O2 S1 1_555 1_555
C1 C2 1_555 1_555
C2 C3 1_555 1_555
C3 C7 1_555 1_555
C4 C1 1_555 1_555
C5 C4 1_555 1_555
C6 N1 1_555 1_555
C7 H1 1_555 1_555
H2 C7 1_555 1_555
C8 C6 1_555 1_555
C9 C11 1_555 1_555
C10 H3 1_555 1_555
C11 C26 1_555 1_555
C12 S1 1_555 1_555
C13 C4 1_555 1_555
H4 C13 1_555 1_555
C14 N3 1_555 1_555
H5 C14 1_555 1_555
H6 C14 1_555 1_555
C15 C5 1_555 1_555
H7 C15 1_555 1_555
C16 C8 1_555 1_555
H8 C16 1_555 1_555
C17 C10 1_555 1_555
H9 C17 1_555 1_555
C18 C15 1_555 1_555
H10 C18 1_555 1_555
C19 C17 1_555 1_555
C20 C3 1_555 1_555
H11 C20 1_555 1_555
H12 C20 1_555 1_555
H13 C20 1_555 1_555
C21 C12 1_555 1_555
H14 C21 1_555 1_555
C22 C9 1_555 1_555
H15 C22 1_555 1_555
C23 C13 1_555 1_555
H16 C23 1_555 1_555
C24 C8 1_555 1_555
H17 C24 1_555 1_555
C25 C9 1_555 1_555
H18 C25 1_555 1_555
C26 H19 1_555 1_555
C27 C19 1_555 1_555
H20 C27 1_555 1_555
C28 C11 1_555 1_555
H21 C28 1_555 1_555
C29 C26 1_555 1_555
H22 C29 1_555 1_555
C30 C29 1_555 1_555
H23 C30 1_555 1_555
C31 C28 1_555 1_555
H24 C31 1_555 1_555
C32 C19 1_555 1_555
H25 C32 1_555 1_555
H26 C32 1_555 1_555
H27 C32 1_555 1_555
N2 C6 1_555 1_555
C2 C14 1_555 1_555
C10 C12 1_555 1_555
C16 C22 1_555 1_555
C18 C23 1_555 1_555
C21 C27 1_555 1_555
C24 C25 1_555 1_555
C30 C31 1_555 1_555

#END
