
#######################################################################
#
#                 Cambridge Crystallographic Data Centre
#                                CCDC 
#
#######################################################################
#
# If this CIF has been generated from an entry in the Cambridge 
# Structural Database, then it will include bibliographic, chemical, 
# crystal, experimental, refinement or atomic coordinate data resulting 
# from the CCDC's data processing and validation procedures.
#
#######################################################################

data_LIBVOI
_chemical_formula_moiety         'C11 H9 N3 O2 S1'
_chemical_name_systematic        
'Thiophene-2-carbaldehyde 3-nitrophenylhydrazone'
_symmetry_cell_setting           monoclinic
_symmetry_space_group_name_H-M   'P 21'
_symmetry_Int_Tables_number      4
_space_group_name_Hall           'P 2yb'
loop_
_symmetry_equiv_pos_site_id
_symmetry_equiv_pos_as_xyz
1 x,y,z
2 -x,1/2+y,-z
_cell_length_a                   5.9309(3)
_cell_length_b                   5.6529(3)
_cell_length_c                   17.2697(10)
_cell_angle_alpha                90
_cell_angle_beta                 91.762(2)
_cell_angle_gamma                90
_cell_volume                     578.724
_exptl_crystal_colour            red
_exptl_crystal_description       lath
_chemical_melting_point          '421-422 K'
_cell_formula_units_Z            2
loop_
_atom_site_label
_atom_site_type_symbol
_atom_site_fract_x
_atom_site_fract_y
_atom_site_fract_z
S1 S 0.56083(8) 0.31170(10) 0.38339(2)
C1 C 0.4070(3) 0.5582(4) 0.35649(9)
C2 C 0.2053(3) 0.5703(5) 0.39530(10)
C3 C 0.1813(4) 0.3735(5) 0.44669(10)
C4 C 0.3567(4) 0.2239(5) 0.44633(10)
C5 C 0.4823(3) 0.7230(4) 0.29830(8)
N1 N 0.6657(3) 0.6796(3) 0.26232(7)
N2 N 0.7228(3) 0.8380(4) 0.20659(8)
C6 C 0.9074(3) 0.7892(4) 0.16153(8)
C7 C 1.0462(3) 0.5963(4) 0.17622(9)
C8 C 1.2314(3) 0.5638(4) 0.12975(9)
N3 N 1.3801(3) 0.3631(3) 0.14586(8)
O1 O 1.3376(2) 0.2294(3) 0.19990(7)
O2 O 1.5444(2) 0.3337(4) 0.10471(7)
C9 C 1.2832(3) 0.7141(4) 0.06886(9)
C10 C 1.1394(3) 0.9022(4) 0.05429(9)
C11 C 0.9536(3) 0.9439(4) 0.09963(9)
H1 H 0.0973 0.6932 0.3886
H2 H 0.0539 0.3512 0.4779
H3 H 0.3674 0.0852 0.4773
H4 H 0.3975 0.8618 0.2867
H5 H 0.6360 0.9917 0.1966
H6 H 1.0159 0.4890 0.2169
H7 H 1.4120 0.6882 0.0386
H8 H 1.1681 1.0055 0.0123
H9 H 0.8582 1.0757 0.0891
loop_
_geom_bond_atom_site_label_1
_geom_bond_atom_site_label_2
_geom_bond_site_symmetry_1
_geom_bond_site_symmetry_2
S1 C1 1_555 1_555
C1 C2 1_555 1_555
C2 C3 1_555 1_555
C3 C4 1_555 1_555
C4 S1 1_555 1_555
C5 C1 1_555 1_555
N1 C5 1_555 1_555
N2 N1 1_555 1_555
C6 N2 1_555 1_555
C7 C6 1_555 1_555
C8 C7 1_555 1_555
N3 C8 1_555 1_555
O1 N3 1_555 1_555
O2 N3 1_555 1_555
C9 C8 1_555 1_555
C10 C9 1_555 1_555
C11 C6 1_555 1_555
H1 C2 1_555 1_555
H2 C3 1_555 1_555
H3 C4 1_555 1_555
H4 C5 1_555 1_555
H5 N2 1_555 1_555
H6 C7 1_555 1_555
H7 C9 1_555 1_555
H8 C10 1_555 1_555
H9 C11 1_555 1_555
C10 C11 1_555 1_555

#END
