
#######################################################################
#
#                 Cambridge Crystallographic Data Centre
#                                CCDC 
#
#######################################################################
#
# If this CIF has been generated from an entry in the Cambridge 
# Structural Database, then it will include bibliographic, chemical, 
# crystal, experimental, refinement or atomic coordinate data resulting 
# from the CCDC's data processing and validation procedures.
#
#######################################################################

data_LIBWEB
_chemical_formula_moiety         'C27 H23 N3 O2 S1'
_chemical_name_systematic        
4-{4-ethenyl-1-[(4-methylphenyl)sulfonyl]-2,5-dihydro-1H-pyrrol-3-yl}-2-phenylquinazoline
_symmetry_cell_setting           monoclinic
_symmetry_space_group_name_H-M   'P 21/c'
_symmetry_Int_Tables_number      14
_space_group_name_Hall           '-P 2ybc'
loop_
_symmetry_equiv_pos_site_id
_symmetry_equiv_pos_as_xyz
1 x,y,z
2 -x,1/2+y,1/2-z
3 -x,-y,-z
4 x,1/2-y,1/2+z
_cell_length_a                   16.2949(2)
_cell_length_b                   14.7341(2)
_cell_length_c                   10.05390(10)
_cell_angle_alpha                90
_cell_angle_beta                 107.468(2)
_cell_angle_gamma                90
_cell_volume                     2302.53
_exptl_crystal_colour            yellow
_exptl_crystal_description       plate
_cell_formula_units_Z            4
loop_
_atom_site_label
_atom_site_type_symbol
_atom_site_fract_x
_atom_site_fract_y
_atom_site_fract_z
S1 S 0.10427(3) 0.59864(3) 0.38915(6)
O1 O 0.13168(11) 0.67774(11) 0.33301(19)
O2 O 0.03050(10) 0.60225(11) 0.43838(18)
N1 N 0.18474(10) 0.56769(13) 0.52165(19)
N2 N 0.44754(12) 0.42525(14) 0.6785(2)
N3 N 0.54322(12) 0.36265(14) 0.5626(3)
C1 C 0.08636(12) 0.51250(14) 0.2618(2)
C2 C 0.03680(15) 0.43712(16) 0.2711(2)
H1 H 0.011699 0.432818 0.342636
C3 C 0.10967(16) 0.44955(17) 0.0569(2)
H2 H 0.133853 0.454082 -0.015645
C4 C 0.12242(14) 0.51921(16) 0.1543(2)
H3 H 0.154913 0.569818 0.147012
C5 C 0.06194(16) 0.37396(16) 0.0659(2)
C6 C 0.52473(14) 0.38912(15) 0.6755(3)
C7 C 0.38629(14) 0.43230(16) 0.5583(3)
C8 C 0.27038(13) 0.56076(16) 0.4993(3)
H4 H 0.307893 0.609712 0.545862
H5 H 0.265518 0.561768 0.400801
C9 C 0.02534(17) 0.36904(16) 0.1734(2)
H6 H -0.007696 0.318690 0.179808
C10 C 0.30256(13) 0.47130(17) 0.5628(3)
C11 C 0.17192(14) 0.49155(18) 0.6084(3)
H7 H 0.119679 0.458472 0.562119
H8 H 0.168814 0.512933 0.697999
C12 C 0.48003(16) 0.36874(16) 0.4391(3)
C13 C 0.39756(15) 0.40337(15) 0.4316(3)
C14 C 0.59121(15) 0.37887(17) 0.8122(3)
C15 C 0.24970(14) 0.43346(18) 0.6253(3)
C16 C 0.66743(16) 0.33270(18) 0.8203(4)
H9 H 0.677100 0.310182 0.739920
C17 C 0.33350(18) 0.40492(18) 0.3005(3)
H10 H 0.278417 0.425130 0.294376
C18 C 0.4971(2) 0.3392(2) 0.3163(4)
H11 H 0.551233 0.316766 0.320502
C19 C 0.3515(2) 0.3772(2) 0.1835(4)
H12 H 0.309180 0.380540 0.097741
C20 C 0.0483(2) 0.2992(2) -0.0406(3)
H13 H 0.060942 0.321357 -0.122027
H14 H -0.010494 0.279236 -0.065645
H15 H 0.085639 0.249187 -0.001989
C21 C 0.5777(2) 0.4124(2) 0.9330(4)
H16 H 0.526701 0.442354 0.928132
C22 C 0.2612(2) 0.3475(2) 0.7022(4)
H17 H 0.308864 0.312666 0.702324
C23 C 0.72832(19) 0.3207(2) 0.9483(5)
H18 H 0.778990 0.289888 0.953362
C24 C 0.4335(2) 0.3436(2) 0.1908(4)
H19 H 0.444781 0.324247 0.109972
C25 C 0.7153(2) 0.3535(3) 1.0685(5)
H20 H 0.756423 0.343771 1.154132
C26 C 0.6405(3) 0.4013(3) 1.0620(5)
H21 H 0.632266 0.425567 1.142421
C27 C 0.2128(4) 0.3163(4) 0.7679(6)
H22 H 0.164378 0.348754 0.770708
H23 H 0.225437 0.260888 0.813724
loop_
_geom_bond_atom_site_label_1
_geom_bond_atom_site_label_2
_geom_bond_site_symmetry_1
_geom_bond_site_symmetry_2
S1 O1 1_555 1_555
O2 S1 1_555 1_555
N1 S1 1_555 1_555
N2 C6 1_555 1_555
N3 C6 1_555 1_555
C1 S1 1_555 1_555
C2 C1 1_555 1_555
H1 C2 1_555 1_555
C3 H2 1_555 1_555
C4 C1 1_555 1_555
H3 C4 1_555 1_555
C5 C3 1_555 1_555
C6 C14 1_555 1_555
C7 N2 1_555 1_555
C8 N1 1_555 1_555
H4 C8 1_555 1_555
H5 C8 1_555 1_555
C9 C2 1_555 1_555
H6 C9 1_555 1_555
C10 C7 1_555 1_555
C11 N1 1_555 1_555
H7 C11 1_555 1_555
H8 C11 1_555 1_555
C12 N3 1_555 1_555
C13 C7 1_555 1_555
C14 C16 1_555 1_555
C15 C10 1_555 1_555
C16 H9 1_555 1_555
C17 C13 1_555 1_555
H10 C17 1_555 1_555
C18 C12 1_555 1_555
H11 C18 1_555 1_555
C19 C17 1_555 1_555
H12 C19 1_555 1_555
C20 C5 1_555 1_555
H13 C20 1_555 1_555
H14 C20 1_555 1_555
H15 C20 1_555 1_555
C21 C14 1_555 1_555
H16 C21 1_555 1_555
C22 C15 1_555 1_555
H17 C22 1_555 1_555
C23 C16 1_555 1_555
H18 C23 1_555 1_555
C24 C18 1_555 1_555
H19 C24 1_555 1_555
C25 C23 1_555 1_555
H20 C25 1_555 1_555
C26 C21 1_555 1_555
H21 C26 1_555 1_555
C27 C22 1_555 1_555
H22 C27 1_555 1_555
H23 C27 1_555 1_555
C3 C4 1_555 1_555
C5 C9 1_555 1_555
C8 C10 1_555 1_555
C11 C15 1_555 1_555
C12 C13 1_555 1_555
C19 C24 1_555 1_555
C25 C26 1_555 1_555

#END
