
#######################################################################
#
#                 Cambridge Crystallographic Data Centre
#                                CCDC 
#
#######################################################################
#
# If this CIF has been generated from an entry in the Cambridge 
# Structural Database, then it will include bibliographic, chemical, 
# crystal, experimental, refinement or atomic coordinate data resulting 
# from the CCDC's data processing and validation procedures.
#
#######################################################################

data_LIBWIF
_chemical_formula_moiety         'C26 H23 N3 O2 S1'
_chemical_name_systematic        
4-{4-methyl-1-[(4-methylphenyl)sulfonyl]-2,5-dihydro-1H-pyrrol-3-yl}-2-phenylquinazoline
_symmetry_cell_setting           monoclinic
_symmetry_space_group_name_H-M   'P 21/c'
_symmetry_Int_Tables_number      14
_space_group_name_Hall           '-P 2ybc'
loop_
_symmetry_equiv_pos_site_id
_symmetry_equiv_pos_as_xyz
1 x,y,z
2 -x,1/2+y,1/2-z
3 -x,-y,-z
4 x,1/2-y,1/2+z
_cell_length_a                   10.0055(2)
_cell_length_b                   18.2295(3)
_cell_length_c                   12.8705(2)
_cell_angle_alpha                90
_cell_angle_beta                 100.837(2)
_cell_angle_gamma                90
_cell_volume                     2305.65
_cell_formula_units_Z            4
loop_
_atom_site_label
_atom_site_type_symbol
_atom_site_fract_x
_atom_site_fract_y
_atom_site_fract_z
S1 S 0.85584(4) 0.40235(3) 0.34141(3)
N1 N 0.53080(13) 0.36895(7) 0.66884(10)
N2 N 0.55418(14) 0.33528(7) 0.85153(10)
O1 O 0.89779(16) 0.32716(10) 0.35158(12)
O2 O 0.94279(13) 0.45742(11) 0.31146(11)
N3 N 0.82488(13) 0.42618(8) 0.45597(10)
C1 C 0.48466(15) 0.34082(8) 0.75415(12)
C2 C 0.70890(14) 0.42484(9) 0.59402(11)
C3 C 0.34113(16) 0.31478(8) 0.73382(12)
C4 C 0.65675(15) 0.39460(8) 0.68597(12)
C5 C 0.68457(17) 0.36123(9) 0.86961(13)
C6 C 0.74169(16) 0.39262(9) 0.78802(12)
C7 C 0.70033(16) 0.40632(9) 0.25166(12)
C8 C 0.72177(17) 0.49450(9) 0.57009(12)
C9 C 0.65646(17) 0.47213(9) 0.20234(12)
H1 H 0.712004 0.513407 0.212611
C10 C 0.26212(17) 0.31662(10) 0.63326(14)
H2 H 0.298794 0.335054 0.577337
C11 C 0.78489(17) 0.50224(10) 0.47380(12)
H3 H 0.719813 0.520689 0.414005
H4 H 0.863309 0.534532 0.487064
C12 C 0.52980(19) 0.47566(9) 0.13800(13)
H5 H 0.500454 0.519726 0.105005
C13 C 0.75667(18) 0.37400(10) 0.51674(13)
H6 H 0.819687 0.337575 0.552462
H7 H 0.681015 0.349516 0.471910
C14 C 0.44556(18) 0.41497(10) 0.12157(13)
C15 C 0.6184(2) 0.34481(10) 0.23464(15)
H8 H 0.647838 0.300555 0.266997
C16 C 0.87647(18) 0.42027(12) 0.81038(15)
H9 H 0.915105 0.440939 0.756918
C17 C 0.7632(2) 0.35764(12) 0.97289(14)
H10 H 0.727004 0.336541 1.027294
C18 C 0.2848(2) 0.28672(11) 0.81639(15)
H11 H 0.336639 0.284750 0.884352
C19 C 0.1290(2) 0.29135(12) 0.61478(18)
H12 H 0.077099 0.292624 0.546818
C20 C 0.4928(2) 0.34963(11) 0.16934(16)
H13 H 0.438549 0.307958 0.157074
C21 C 0.8917(2) 0.38503(14) 0.99263(16)
H14 H 0.942523 0.383120 1.060945
C22 C 0.0740(2) 0.26433(13) 0.69751(19)
H15 H -0.015574 0.247903 0.685631
C23 C 0.9488(2) 0.41622(14) 0.91113(17)
H16 H 1.037194 0.434360 0.926174
C24 C 0.1518(2) 0.26170(14) 0.79772(18)
H17 H 0.114757 0.242979 0.853285
C25 C 0.3051(2) 0.42005(16) 0.05456(19)
H18 H 0.246048 0.445738 0.092931
H19 H 0.270201 0.371570 0.037636
H20 H 0.309497 0.446070 -0.009549
C26 C 0.6822(3) 0.56069(12) 0.62437(19)
H21 H 0.637215 0.546044 0.680670
H22 H 0.621690 0.590282 0.574624
H23 H 0.762106 0.588552 0.652903
loop_
_geom_bond_atom_site_label_1
_geom_bond_atom_site_label_2
_geom_bond_site_symmetry_1
_geom_bond_site_symmetry_2
S1 O1 1_555 1_555
N1 C1 1_555 1_555
N2 C1 1_555 1_555
O2 S1 1_555 1_555
N3 S1 1_555 1_555
C1 C3 1_555 1_555
C2 C4 1_555 1_555
C3 C10 1_555 1_555
C4 N1 1_555 1_555
C5 N2 1_555 1_555
C6 C4 1_555 1_555
C7 S1 1_555 1_555
C8 C2 1_555 1_555
C9 C7 1_555 1_555
H1 C9 1_555 1_555
C10 H2 1_555 1_555
C11 N3 1_555 1_555
H3 C11 1_555 1_555
H4 C11 1_555 1_555
C12 C9 1_555 1_555
H5 C12 1_555 1_555
C13 N3 1_555 1_555
H6 C13 1_555 1_555
H7 C13 1_555 1_555
C14 C12 1_555 1_555
C15 C7 1_555 1_555
H8 C15 1_555 1_555
C16 C6 1_555 1_555
H9 C16 1_555 1_555
C17 C5 1_555 1_555
H10 C17 1_555 1_555
C18 C3 1_555 1_555
H11 C18 1_555 1_555
C19 C10 1_555 1_555
H12 C19 1_555 1_555
C20 C14 1_555 1_555
H13 C20 1_555 1_555
C21 C17 1_555 1_555
H14 C21 1_555 1_555
C22 C19 1_555 1_555
H15 C22 1_555 1_555
C23 C16 1_555 1_555
H16 C23 1_555 1_555
C24 C18 1_555 1_555
H17 C24 1_555 1_555
C25 C14 1_555 1_555
H18 C25 1_555 1_555
H19 C25 1_555 1_555
H20 C25 1_555 1_555
C26 C8 1_555 1_555
H21 C26 1_555 1_555
H22 C26 1_555 1_555
H23 C26 1_555 1_555
C2 C13 1_555 1_555
C5 C6 1_555 1_555
C8 C11 1_555 1_555
C15 C20 1_555 1_555
C21 C23 1_555 1_555
C22 C24 1_555 1_555

#END
