
#######################################################################
#
#                 Cambridge Crystallographic Data Centre
#                                CCDC 
#
#######################################################################
#
# If this CIF has been generated from an entry in the Cambridge 
# Structural Database, then it will include bibliographic, chemical, 
# crystal, experimental, refinement or atomic coordinate data resulting 
# from the CCDC's data processing and validation procedures.
#
#######################################################################

data_LIBXEC
_chemical_formula_moiety         'C28 H22 F3 N3 O2 S1'
_chemical_name_systematic        
4-{4-ethenyl-1-[(4-methylphenyl)sulfonyl]-2,5-dihydro-1H-pyrrol-3-yl}-2-[2-(trifluoromethyl)phenyl]quinazoline
_symmetry_cell_setting           orthorhombic
_symmetry_space_group_name_H-M   'P b c a'
_symmetry_Int_Tables_number      61
_space_group_name_Hall           '-P 2ac 2ab'
loop_
_symmetry_equiv_pos_site_id
_symmetry_equiv_pos_as_xyz
1 x,y,z
2 1/2-x,-y,1/2+z
3 -x,1/2+y,1/2-z
4 1/2+x,1/2-y,-z
5 -x,-y,-z
6 1/2+x,y,1/2-z
7 x,1/2-y,1/2+z
8 1/2-x,1/2+y,z
_cell_length_a                   19.0048(12)
_cell_length_b                   11.3845(7)
_cell_length_c                   23.7930(9)
_cell_angle_alpha                90
_cell_angle_beta                 90
_cell_angle_gamma                90
_cell_volume                     5147.86
_exptl_crystal_colour            colorless
_exptl_crystal_description       block
_cell_formula_units_Z            8
loop_
_atom_site_label
_atom_site_type_symbol
_atom_site_fract_x
_atom_site_fract_y
_atom_site_fract_z
S1 S 0.67021(6) 0.22817(10) 0.11895(4)
F1 F 0.71960(17) 0.5364(3) 0.28088(10)
F2 F 0.61650(16) 0.5989(2) 0.30193(10)
F3 F 0.70266(19) 0.7185(2) 0.29688(12)
O1 O 0.71761(16) 0.3263(3) 0.11745(12)
O2 O 0.6867(2) 0.1216(3) 0.09071(11)
N1 N 0.66009(18) 0.1945(3) 0.18433(11)
N2 N 0.62920(14) 0.3634(2) 0.34034(10)
N3 N 0.55238(15) 0.4202(2) 0.41515(11)
C1 C 0.3857(3) 0.4084(6) 0.0441(2)
H1 H 0.366726 0.361467 0.014206
H2 H 0.390184 0.488281 0.031766
H3 H 0.354740 0.405056 0.075969
C2 C 0.4572(3) 0.3615(5) 0.06055(17)
C3 C 0.4710(3) 0.2421(5) 0.06493(18)
H4 H 0.435336 0.188836 0.056751
C4 C 0.5355(3) 0.2006(4) 0.08097(16)
H5 H 0.543594 0.120140 0.083252
C5 C 0.5888(2) 0.2792(3) 0.09377(13)
C6 C 0.5770(2) 0.3985(3) 0.08901(14)
H6 H 0.612755 0.451525 0.097216
C7 C 0.5118(3) 0.4386(4) 0.07200(16)
H7 H 0.504381 0.518940 0.068150
C8 C 0.6324(2) 0.0802(3) 0.20247(15)
H8 H 0.669525 0.021983 0.204816
H9 H 0.596178 0.052283 0.177044
C9 C 0.6024(2) 0.1072(3) 0.25975(13)
C10 C 0.60512(18) 0.2224(3) 0.27023(12)
C11 C 0.6416(2) 0.2889(3) 0.22478(13)
H10 H 0.610699 0.346621 0.207793
H11 H 0.683410 0.328068 0.238865
C12 C 0.5793(3) 0.0137(4) 0.29709(17)
H12 H 0.571137 0.033879 0.334399
C13 C 0.5694(5) -0.0918(5) 0.2838(2)
H13 H 0.576883 -0.116126 0.246925
H14 H 0.554533 -0.145503 0.310699
C14 C 0.58232(19) 0.2880(3) 0.32090(12)
C15 C 0.51430(18) 0.2767(3) 0.34566(13)
C16 C 0.4586(2) 0.2077(3) 0.32444(16)
H15 H 0.465143 0.163109 0.292117
C17 C 0.3955(2) 0.2065(4) 0.35114(19)
H16 H 0.359003 0.161311 0.336599
C18 C 0.3844(2) 0.2712(4) 0.3997(2)
H17 H 0.341037 0.267513 0.417677
C19 C 0.4365(2) 0.3405(4) 0.42130(17)
H18 H 0.428466 0.384223 0.453692
C20 C 0.50252(19) 0.3454(3) 0.39425(14)
C21 C 0.61167(18) 0.4275(3) 0.38675(12)
C22 C 0.66575(18) 0.5098(3) 0.40853(13)
C23 C 0.6821(2) 0.5040(3) 0.46534(14)
H19 H 0.659163 0.449275 0.487814
C24 C 0.7307(2) 0.5761(4) 0.48901(17)
H20 H 0.741097 0.569600 0.527083
C25 C 0.7645(3) 0.6584(4) 0.4569(2)
H21 H 0.797645 0.707862 0.473208
C26 C 0.7497(2) 0.6683(4) 0.40056(19)
H22 H 0.772569 0.724734 0.379025
C27 C 0.7005(2) 0.5942(3) 0.37556(14)
C28 C 0.6850(3) 0.6114(4) 0.31425(19)
loop_
_geom_bond_atom_site_label_1
_geom_bond_atom_site_label_2
_geom_bond_site_symmetry_1
_geom_bond_site_symmetry_2
S1 O1 1_555 1_555
F1 C28 1_555 1_555
F2 C28 1_555 1_555
F3 C28 1_555 1_555
O2 S1 1_555 1_555
N1 S1 1_555 1_555
N2 C14 1_555 1_555
N3 C20 1_555 1_555
C1 H1 1_555 1_555
H2 C1 1_555 1_555
H3 C1 1_555 1_555
C2 C1 1_555 1_555
C3 C2 1_555 1_555
H4 C3 1_555 1_555
C4 C3 1_555 1_555
H5 C4 1_555 1_555
C5 S1 1_555 1_555
C6 C5 1_555 1_555
H6 C6 1_555 1_555
C7 C2 1_555 1_555
H7 C7 1_555 1_555
C8 N1 1_555 1_555
H8 C8 1_555 1_555
H9 C8 1_555 1_555
C9 C8 1_555 1_555
C10 C9 1_555 1_555
C11 N1 1_555 1_555
H10 C11 1_555 1_555
H11 C11 1_555 1_555
C12 C9 1_555 1_555
H12 C12 1_555 1_555
C13 C12 1_555 1_555
H13 C13 1_555 1_555
H14 C13 1_555 1_555
C14 C10 1_555 1_555
C15 C14 1_555 1_555
C16 C15 1_555 1_555
H15 C16 1_555 1_555
C17 C16 1_555 1_555
H16 C17 1_555 1_555
C18 C17 1_555 1_555
H17 C18 1_555 1_555
C19 C18 1_555 1_555
H18 C19 1_555 1_555
C20 C15 1_555 1_555
C21 N2 1_555 1_555
C22 C21 1_555 1_555
C23 C22 1_555 1_555
H19 C23 1_555 1_555
C24 C23 1_555 1_555
H20 C24 1_555 1_555
C25 C24 1_555 1_555
H21 C25 1_555 1_555
C26 C25 1_555 1_555
H22 C26 1_555 1_555
C27 C22 1_555 1_555
C28 C27 1_555 1_555
N3 C21 1_555 1_555
C4 C5 1_555 1_555
C6 C7 1_555 1_555
C10 C11 1_555 1_555
C19 C20 1_555 1_555
C26 C27 1_555 1_555

#END
