
#######################################################################
#
#                 Cambridge Crystallographic Data Centre
#                                CCDC 
#
#######################################################################
#
# If this CIF has been generated from an entry in the Cambridge 
# Structural Database, then it will include bibliographic, chemical, 
# crystal, experimental, refinement or atomic coordinate data resulting 
# from the CCDC's data processing and validation procedures.
#
#######################################################################

data_LIBXAY
_chemical_formula_moiety         'C27 H25 N3 O3 S1'
_chemical_name_systematic        
7-methoxy-4-{4-methyl-1-[(4-methylphenyl)sulfonyl]-2,5-dihydro-1H-pyrrol-3-yl}-2-phenylquinazoline
_symmetry_cell_setting           triclinic
_symmetry_space_group_name_H-M   'P -1'
_symmetry_Int_Tables_number      2
_space_group_name_Hall           '-P 1'
loop_
_symmetry_equiv_pos_site_id
_symmetry_equiv_pos_as_xyz
1 x,y,z
2 -x,-y,-z
_cell_length_a                   10.1019(4)
_cell_length_b                   14.7608(6)
_cell_length_c                   16.2422(5)
_cell_angle_alpha                88.233(3)
_cell_angle_beta                 84.193(3)
_cell_angle_gamma                89.924(3)
_cell_volume                     2408.33
_exptl_crystal_colour            colorless
_exptl_crystal_description       block
_cell_formula_units_Z            4
loop_
_atom_site_label
_atom_site_type_symbol
_atom_site_fract_x
_atom_site_fract_y
_atom_site_fract_z
S1 S 0.49714(12) 1.08313(8) 0.71501(7)
O1 O 0.3817(4) 1.1039(3) 0.6742(2)
N1 N 0.0259(3) 0.8640(2) 1.0735(2)
N2 N 0.2033(3) 0.9616(2) 1.0170(2)
N3 N 0.4578(3) 0.9980(2) 0.7781(2)
O2 O 0.6185(4) 1.0597(3) 0.6683(2)
C1 C 0.3499(4) 0.9317(3) 0.8966(2)
O3 O -0.0506(4) 0.5863(3) 0.9382(3)
C2 C 0.1711(4) 0.8201(3) 0.9535(2)
C3 C 0.2377(4) 0.9033(3) 0.9584(2)
C4 C 0.0992(4) 0.9370(3) 1.0741(2)
C5 C 0.0713(4) 1.0000(3) 1.1428(3)
C6 C 0.4764(4) 0.9106(3) 0.8972(3)
C7 C 0.0591(4) 0.8046(3) 1.0124(2)
C8 C 0.5291(5) 1.1747(3) 0.7762(3)
C9 C -0.0190(4) 0.7261(3) 1.0079(3)
H1 H -0.094418 0.716380 1.044913
C10 C 0.5599(4) 0.9569(3) 0.8264(3)
H2 H 0.617021 1.002760 0.845868
H3 H 0.614139 0.913801 0.794212
C11 C 0.2057(5) 0.7545(3) 0.8942(3)
H4 H 0.279448 0.763669 0.855715
C12 C 0.3251(4) 0.9951(4) 0.8260(3)
H5 H 0.257974 0.971394 0.793730
H6 H 0.298070 1.054556 0.845257
C13 C 0.6555(5) 1.1886(4) 0.7994(3)
H7 H 0.725959 1.151783 0.780091
C14 C 0.0167(5) 0.6648(3) 0.9489(3)
C15 C 0.4267(5) 1.2317(3) 0.8050(3)
H8 H 0.342147 1.223474 0.788433
C16 C 0.1313(5) 0.6770(4) 0.8928(3)
H9 H 0.156560 0.632676 0.854919
C17 C 0.1079(5) 1.0903(4) 1.1332(3)
H10 H 0.151183 1.111565 1.083125
C18 C 0.6750(6) 1.2588(4) 0.8523(4)
H11 H 0.759993 1.268766 0.867504
C19 C 0.0074(5) 0.9678(4) 1.2186(3)
H12 H -0.018837 0.907481 1.225661
C20 C 0.4479(6) 1.2999(4) 0.8573(4)
H13 H 0.377574 1.337289 0.875882
C21 C 0.5723(7) 1.3140(4) 0.8830(4)
C22 C 0.0810(7) 1.1494(5) 1.1973(5)
H14 H 0.105220 1.210112 1.190354
C23 C 0.5403(6) 0.8528(5) 0.9588(4)
H15 H 0.473584 0.830676 1.000930
H16 H 0.604544 0.887984 0.983675
H17 H 0.583806 0.802452 0.931533
C24 C 0.0172(7) 1.1167(6) 1.2720(4)
H18 H -0.003179 1.156089 1.315103
C25 C -0.0159(7) 1.0268(6) 1.2828(4)
H19 H -0.054734 1.005261 1.333970
C26 C 0.5956(10) 1.3865(5) 0.9433(5)
H20 H 0.631680 1.359557 0.990737
H21 H 0.512733 1.415555 0.960625
H22 H 0.657054 1.430580 0.917073
C27 C -0.1725(8) 0.5712(5) 0.9903(6)
H23 H -0.232598 0.620444 0.982308
H24 H -0.154289 0.567744 1.047181
H25 H -0.212196 0.515470 0.976241
S2 S 0.50218(12) 0.56906(9) 0.77943(7)
N4 N 0.8002(3) 0.4832(2) 0.4749(2)
O4 O 0.3833(4) 0.5361(3) 0.8257(2)
O5 O 0.6155(4) 0.5916(3) 0.8204(2)
N5 N 0.9779(3) 0.3955(3) 0.4095(2)
N6 N 0.5487(4) 0.4926(3) 0.7133(2)
O6 O 1.0694(4) 0.1020(3) 0.5272(3)
C28 C 0.9507(4) 0.3286(3) 0.4684(2)
C29 C 0.6584(4) 0.4364(3) 0.5950(2)
C30 C 0.7702(4) 0.4181(3) 0.5307(2)
C31 C 0.8415(4) 0.3351(3) 0.5302(2)
C32 C 0.9013(4) 0.4681(3) 0.4148(2)
C33 C 0.5354(4) 0.4047(3) 0.5993(3)
C34 C 0.9215(4) 0.5410(3) 0.3491(2)
C35 C 0.4499(4) 0.4452(3) 0.6694(3)
H26 H 0.385562 0.487113 0.649382
H27 H 0.403489 0.398711 0.704665
C36 C 0.4603(4) 0.6662(3) 0.7226(3)
C37 C 1.0306(4) 0.2497(3) 0.4664(3)
H28 H 1.103695 0.245001 0.427064
C38 C 0.8116(4) 0.2620(3) 0.5864(3)
H29 H 0.739607 0.265582 0.626713
C39 C 0.3356(5) 0.6739(3) 0.6944(3)
H30 H 0.272744 0.628426 0.707420
C40 C 0.8752(4) 0.6273(3) 0.3643(3)
H31 H 0.831774 0.640110 0.415831
C41 C 0.9993(5) 0.1806(3) 0.5226(3)
C42 C 0.6770(4) 0.5014(4) 0.6618(3)
H32 H 0.750780 0.483789 0.692668
H33 H 0.691312 0.562764 0.639558
C43 C 0.8879(5) 0.1857(3) 0.5820(3)
H34 H 0.866379 0.136860 0.618403
C44 C 0.3045(5) 0.7479(4) 0.6475(3)
H35 H 0.220577 0.751322 0.628801
C45 C 0.9867(5) 0.5222(4) 0.2718(3)
H36 H 1.019602 0.464458 0.260802
C46 C 0.5524(5) 0.7353(4) 0.7036(3)
H37 H 0.636544 0.731514 0.721966
C47 C 0.8927(5) 0.6945(4) 0.3038(3)
H38 H 0.860744 0.752448 0.314665
C48 C 0.3936(6) 0.8174(4) 0.6272(3)
C49 C 0.5174(6) 0.8100(4) 0.6568(4)
H39 H 0.578840 0.856686 0.644847
C50 C 1.0016(6) 0.5914(5) 0.2114(3)
H40 H 1.042686 0.579346 0.159074
C51 C 0.9563(6) 0.6772(4) 0.2282(4)
H41 H 0.969072 0.723368 0.187899
C52 C 0.4767(5) 0.3418(4) 0.5429(4)
H42 H 0.546002 0.318335 0.504567
H43 H 0.413202 0.373887 0.512918
H44 H 0.433132 0.292579 0.574816
C53 C 1.1907(7) 0.0938(5) 0.4748(5)
H45 H 1.172880 0.100126 0.417968
H46 H 1.229276 0.035405 0.484309
H47 H 1.251492 0.140330 0.486878
C54 C 0.3598(9) 0.8969(4) 0.5736(4)
H48 H 0.424855 0.902525 0.526366
H49 H 0.359510 0.951172 0.604758
H50 H 0.273402 0.888024 0.555397
loop_
_geom_bond_atom_site_label_1
_geom_bond_atom_site_label_2
_geom_bond_site_symmetry_1
_geom_bond_site_symmetry_2
S1 O1 1_555 1_555
N1 C4 1_555 1_555
N2 C3 1_555 1_555
N3 S1 1_555 1_555
O2 S1 1_555 1_555
C1 C3 1_555 1_555
O3 C14 1_555 1_555
C2 C3 1_555 1_555
C4 N2 1_555 1_555
C5 C4 1_555 1_555
C6 C1 1_555 1_555
C7 N1 1_555 1_555
C8 S1 1_555 1_555
C9 C7 1_555 1_555
H1 C9 1_555 1_555
C10 N3 1_555 1_555
H2 C10 1_555 1_555
H3 C10 1_555 1_555
C11 C2 1_555 1_555
H4 C11 1_555 1_555
C12 N3 1_555 1_555
H5 C12 1_555 1_555
H6 C12 1_555 1_555
C13 C8 1_555 1_555
H7 C13 1_555 1_555
C14 C9 1_555 1_555
C15 C8 1_555 1_555
H8 C15 1_555 1_555
C16 C11 1_555 1_555
H9 C16 1_555 1_555
C17 C5 1_555 1_555
H10 C17 1_555 1_555
C18 C13 1_555 1_555
H11 C18 1_555 1_555
C19 C5 1_555 1_555
H12 C19 1_555 1_555
C20 C15 1_555 1_555
H13 C20 1_555 1_555
C21 C18 1_555 1_555
C22 C17 1_555 1_555
H14 C22 1_555 1_555
C23 C6 1_555 1_555
H15 C23 1_555 1_555
H16 C23 1_555 1_555
H17 C23 1_555 1_555
C24 C22 1_555 1_555
H18 C24 1_555 1_555
C25 C19 1_555 1_555
H19 C25 1_555 1_555
C26 C21 1_555 1_555
H20 C26 1_555 1_555
H21 C26 1_555 1_555
H22 C26 1_555 1_555
C27 O3 1_555 1_555
H23 C27 1_555 1_555
H24 C27 1_555 1_555
H25 C27 1_555 1_555
S2 O4 1_555 1_555
N4 C30 1_555 1_555
O5 S2 1_555 1_555
N5 C28 1_555 1_555
N6 S2 1_555 1_555
O6 C41 1_555 1_555
C28 C31 1_555 1_555
C29 C30 1_555 1_555
C30 C31 1_555 1_555
C31 C38 1_555 1_555
C32 N4 1_555 1_555
C33 C29 1_555 1_555
C34 C32 1_555 1_555
C35 N6 1_555 1_555
H26 C35 1_555 1_555
H27 C35 1_555 1_555
C36 S2 1_555 1_555
C37 C28 1_555 1_555
H28 C37 1_555 1_555
C38 H29 1_555 1_555
C39 C36 1_555 1_555
H30 C39 1_555 1_555
C40 C34 1_555 1_555
H31 C40 1_555 1_555
C41 C37 1_555 1_555
C42 N6 1_555 1_555
H32 C42 1_555 1_555
H33 C42 1_555 1_555
C43 C38 1_555 1_555
H34 C43 1_555 1_555
C44 C39 1_555 1_555
H35 C44 1_555 1_555
C45 C34 1_555 1_555
H36 C45 1_555 1_555
C46 C36 1_555 1_555
H37 C46 1_555 1_555
C47 C40 1_555 1_555
H38 C47 1_555 1_555
C48 C44 1_555 1_555
C49 C46 1_555 1_555
H39 C49 1_555 1_555
C50 C45 1_555 1_555
H40 C50 1_555 1_555
C51 C47 1_555 1_555
H41 C51 1_555 1_555
C52 C33 1_555 1_555
H42 C52 1_555 1_555
H43 C52 1_555 1_555
H44 C52 1_555 1_555
C53 O6 1_555 1_555
H45 C53 1_555 1_555
H46 C53 1_555 1_555
H47 C53 1_555 1_555
C54 C48 1_555 1_555
H48 C54 1_555 1_555
H49 C54 1_555 1_555
H50 C54 1_555 1_555
C1 C12 1_555 1_555
C2 C7 1_555 1_555
C6 C10 1_555 1_555
C14 C16 1_555 1_555
C20 C21 1_555 1_555
C24 C25 1_555 1_555
N5 C32 1_555 1_555
C29 C42 1_555 1_555
C33 C35 1_555 1_555
C41 C43 1_555 1_555
C48 C49 1_555 1_555
C50 C51 1_555 1_555

#END
