
#######################################################################
#
#                 Cambridge Crystallographic Data Centre
#                                CCDC 
#
#######################################################################
#
# If this CIF has been generated from an entry in the Cambridge 
# Structural Database, then it will include bibliographic, chemical, 
# crystal, experimental, refinement or atomic coordinate data resulting 
# from the CCDC's data processing and validation procedures.
#
#######################################################################

data_LIBXUS
_chemical_formula_moiety         'C27 H24 F1 N3 O3 S1'
_chemical_name_systematic        
5-fluoro-6-methoxy-4-{4-methyl-1-[(4-methylphenyl)sulfonyl]-2,5-dihydro-1H-pyrrol-3-yl}-2-phenylquinazoline
_symmetry_cell_setting           triclinic
_symmetry_space_group_name_H-M   'P -1'
_symmetry_Int_Tables_number      2
_space_group_name_Hall           '-P 1'
loop_
_symmetry_equiv_pos_site_id
_symmetry_equiv_pos_as_xyz
1 x,y,z
2 -x,-y,-z
_cell_length_a                   11.1532(12)
_cell_length_b                   11.4177(18)
_cell_length_c                   11.8868(9)
_cell_angle_alpha                107.420(11)
_cell_angle_beta                 102.025(9)
_cell_angle_gamma                115.490(13)
_cell_volume                     1199.64
_exptl_crystal_colour            colorless
_exptl_crystal_description       prism
_cell_formula_units_Z            2
loop_
_atom_site_label
_atom_site_type_symbol
_atom_site_fract_x
_atom_site_fract_y
_atom_site_fract_z
C1 C -0.1286(4) -0.1022(3) 0.1136(3)
H1 H -0.2128 -0.1106 0.0613
H2 H -0.1556 -0.1889 0.1242
H3 H -0.0610 -0.0878 0.0730
C2 C -0.0597(3) 0.0252(2) 0.2432(2)
C3 C -0.0831(3) 0.1384(3) 0.2591(2)
H4 H -0.1408 0.1361 0.1885
C4 C -0.0224(2) 0.2538(2) 0.3774(2)
H5 H -0.0381 0.3292 0.3865
C5 C 0.0621(2) 0.25649(19) 0.48223(19)
C6 C 0.0891(2) 0.1458(2) 0.4689(2)
H6 H 0.1479 0.1490 0.5393
C7 C 0.0271(2) 0.0313(2) 0.3494(2)
H7 H 0.0440 -0.0434 0.3400
C8 C 0.4197(2) 0.5084(2) 0.68152(19)
H8 H 0.3954 0.4140 0.6230
H9 H 0.4549 0.5217 0.7689
C9 C 0.5280(2) 0.62666(19) 0.66098(17)
C10 C 0.4682(2) 0.68705(18) 0.61062(17)
C11 C 0.3111(2) 0.6204(2) 0.5890(2)
H10 H 0.2900 0.6930 0.6281
H11 H 0.2494 0.5650 0.4985
C12 C 0.6796(2) 0.6612(2) 0.6967(2)
H12 H 0.7302 0.7276 0.6653
H13 H 0.6795 0.5740 0.6595
H14 H 0.7267 0.7042 0.7883
C13 C 0.4087(4) 0.7053(4) -0.0062(3)
H15 H 0.3778 0.6731 -0.0945
C14 C 0.3590(4) 0.6089(3) 0.0442(2)
H16 H 0.2956 0.5110 -0.0102
C15 C 0.4025(3) 0.6564(3) 0.1753(2)
H17 H 0.3673 0.5906 0.2086
C16 C 0.4983(2) 0.8020(2) 0.25736(19)
C17 C 0.5500(3) 0.8994(3) 0.2059(2)
H18 H 0.6148 0.9972 0.2598
C18 C 0.5042(4) 0.8496(4) 0.0744(3)
H19 H 0.5386 0.9146 0.0401
C19 C 0.5481(2) 0.8566(2) 0.39880(18)
C20 C 0.53612(19) 0.80153(18) 0.56900(17)
C21 C 0.6429(2) 0.94859(18) 0.65610(17)
C22 C 0.6938(2) 1.04280(19) 0.59882(18)
C23 C 0.7996(2) 1.1895(2) 0.6761(2)
H20 H 0.8309 1.2516 0.6386
C24 C 0.8565(2) 1.2412(2) 0.8057(2)
H21 H 0.9287 1.3381 0.8556
C25 C 0.8086(2) 1.1515(2) 0.8656(2)
C26 C 0.7018(2) 1.0085(2) 0.79046(19)
C27 C 0.9631(4) 1.3446(3) 1.0752(3)
H22 H 1.0509 1.3714 1.0610
H23 H 0.9826 1.3627 1.1632
H24 H 0.9252 1.4006 1.0558
F1 F 0.65397(18) 0.92731(13) 0.85107(12)
N1 N 0.29584(18) 0.52646(16) 0.65405(16)
N2 N 0.48924(18) 0.75725(16) 0.44387(15)
N3 N 0.64492(18) 0.99448(17) 0.46942(16)
O1 O 0.05052(17) 0.46400(16) 0.63367(16)
O2 O 0.16458(18) 0.35220(16) 0.72869(15)
O3 O 0.8601(2) 1.19465(17) 0.99435(15)
S1 S 0.13858(5) 0.40258(5) 0.63468(5)
loop_
_geom_bond_atom_site_label_1
_geom_bond_atom_site_label_2
_geom_bond_site_symmetry_1
_geom_bond_site_symmetry_2
C1 H1 1_555 1_555
H2 C1 1_555 1_555
H3 C1 1_555 1_555
C2 C1 1_555 1_555
C3 C2 1_555 1_555
H4 C3 1_555 1_555
C4 C3 1_555 1_555
H5 C4 1_555 1_555
C5 C4 1_555 1_555
C6 C5 1_555 1_555
H6 C6 1_555 1_555
C7 C2 1_555 1_555
H7 C7 1_555 1_555
C8 H8 1_555 1_555
H9 C8 1_555 1_555
C9 C8 1_555 1_555
C10 C9 1_555 1_555
C11 C10 1_555 1_555
H10 C11 1_555 1_555
H11 C11 1_555 1_555
C12 C9 1_555 1_555
H12 C12 1_555 1_555
H13 C12 1_555 1_555
H14 C12 1_555 1_555
C13 H15 1_555 1_555
C14 C13 1_555 1_555
H16 C14 1_555 1_555
C15 C14 1_555 1_555
H17 C15 1_555 1_555
C16 C15 1_555 1_555
C17 C16 1_555 1_555
H18 C17 1_555 1_555
C18 C13 1_555 1_555
H19 C18 1_555 1_555
C19 C16 1_555 1_555
C20 C10 1_555 1_555
C21 C20 1_555 1_555
C22 C21 1_555 1_555
C23 C22 1_555 1_555
H20 C23 1_555 1_555
C24 C23 1_555 1_555
H21 C24 1_555 1_555
C25 C24 1_555 1_555
C26 C21 1_555 1_555
C27 H22 1_555 1_555
H23 C27 1_555 1_555
H24 C27 1_555 1_555
F1 C26 1_555 1_555
N1 C8 1_555 1_555
N2 C19 1_555 1_555
N3 C19 1_555 1_555
O1 S1 1_555 1_555
O2 S1 1_555 1_555
O3 C25 1_555 1_555
S1 C5 1_555 1_555
C6 C7 1_555 1_555
C11 N1 1_555 1_555
C17 C18 1_555 1_555
C20 N2 1_555 1_555
C22 N3 1_555 1_555
C25 C26 1_555 1_555
C27 O3 1_555 1_555
N1 S1 1_555 1_555

#END
