
#######################################################################
#
#                 Cambridge Crystallographic Data Centre
#                                CCDC 
#
#######################################################################
#
# If this CIF has been generated from an entry in the Cambridge 
# Structural Database, then it will include bibliographic, chemical, 
# crystal, experimental, refinement or atomic coordinate data resulting 
# from the CCDC's data processing and validation procedures.
#
#######################################################################

data_LICHOV
_chemical_formula_moiety         'C11 H13 N1 O4'
_chemical_name_systematic        'Ethyl N-(2-(hydroxyacetyl)phenyl)carbamate'
_symmetry_cell_setting           orthorhombic
_symmetry_space_group_name_H-M   'P n m a'
_symmetry_Int_Tables_number      62
_space_group_name_Hall           '-P 2ac 2n'
loop_
_symmetry_equiv_pos_site_id
_symmetry_equiv_pos_as_xyz
1 x,y,z
2 1/2-x,-y,1/2+z
3 1/2+x,1/2-y,1/2-z
4 -x,1/2+y,-z
5 -x,-y,-z
6 1/2+x,y,1/2-z
7 1/2-x,1/2+y,1/2+z
8 x,1/2-y,z
_cell_length_a                   8.2526(6)
_cell_length_b                   6.5210(2)
_cell_length_c                   19.7707(2)
_cell_angle_alpha                90
_cell_angle_beta                 90
_cell_angle_gamma                90
_cell_volume                     1063.96
_exptl_crystal_colour            colorless
_exptl_crystal_description       block
_chemical_melting_point          '388 K'
_cell_formula_units_Z            4
_exptl_crystal_recrystallization_method ethanol
loop_
_atom_site_label
_atom_site_type_symbol
_atom_site_fract_x
_atom_site_fract_y
_atom_site_fract_z
O1 O 0.55153(15) 0.7500 0.35591(6)
O2 O 0.81203(14) 0.7500 0.39178(6)
O3 O 0.74913(15) 0.7500 0.59367(6)
O4 O 0.74354(16) 0.7500 0.72455(7)
N1 N 0.61998(17) 0.7500 0.46941(7)
C1 C 0.4690(2) 0.7500 0.50134(9)
C2 C 0.46311(19) 0.7500 0.57333(8)
C3 C 0.3110(2) 0.7500 0.60528(9)
C4 C 0.1685(2) 0.7500 0.56890(9)
C5 C 0.1762(2) 0.7500 0.49842(9)
C6 C 0.3232(2) 0.7500 0.46504(9)
C7 C 0.6504(2) 0.7500 0.40150(8)
C8 C 0.8622(2) 0.7500 0.32124(8)
C9 C 1.0447(2) 0.7500 0.32077(10)
C10 C 0.6094(2) 0.7500 0.61591(8)
C11 C 0.5904(2) 0.7500 0.69238(9)
H1 H 0.7053 0.7500 0.4961
H2 H 0.3062 0.7500 0.6533
H3 H 0.0668 0.7500 0.5914
H4 H 0.0786 0.7500 0.4729
H5 H 0.3255 0.7500 0.4170
H6 H 0.8202 0.8733 0.2979
H7 H 0.8202 0.6267 0.2979
H8 H 1.0836 0.7500 0.2739
H9 H 1.0846 0.6273 0.3440
H10 H 1.0846 0.8727 0.3440
H11 H 0.5286 0.8729 0.7065
H12 H 0.5286 0.6271 0.7065
H13? H 0.8168 0.7624 0.6953
loop_
_geom_bond_atom_site_label_1
_geom_bond_atom_site_label_2
_geom_bond_site_symmetry_1
_geom_bond_site_symmetry_2
O1 C7 1_555 1_555
O2 C7 1_555 1_555
O3 C10 1_555 1_555
O4 C11 1_555 1_555
N1 C1 1_555 1_555
C1 C2 1_555 1_555
C2 C3 1_555 1_555
C3 C4 1_555 1_555
C4 C5 1_555 1_555
C5 C6 1_555 1_555
C6 C1 1_555 1_555
C7 N1 1_555 1_555
C8 O2 1_555 1_555
C9 C8 1_555 1_555
C10 C2 1_555 1_555
C11 C10 1_555 1_555
H1 N1 1_555 1_555
H2 C3 1_555 1_555
H3 C4 1_555 1_555
H4 C5 1_555 1_555
H5 C6 1_555 1_555
H6 C8 1_555 1_555
H7 C8 1_555 1_555
H8 C9 1_555 1_555
H9 C9 1_555 1_555
H10 C9 1_555 1_555
H11 C11 1_555 1_555
H12 C11 1_555 1_555

#END
