
#######################################################################
#
#                 Cambridge Crystallographic Data Centre
#                                CCDC 
#
#######################################################################
#
# If this CIF has been generated from an entry in the Cambridge 
# Structural Database, then it will include bibliographic, chemical, 
# crystal, experimental, refinement or atomic coordinate data resulting 
# from the CCDC's data processing and validation procedures.
#
#######################################################################

data_LICJAJ
_chemical_formula_moiety         'C12 H15 N1 O4'
_chemical_name_systematic        
'Ethyl N-(2-(hydroxyacetyl)-4-methylphenyl)carbamate'
_symmetry_cell_setting           triclinic
_symmetry_space_group_name_H-M   'P -1'
_symmetry_Int_Tables_number      2
_space_group_name_Hall           '-P 1'
loop_
_symmetry_equiv_pos_site_id
_symmetry_equiv_pos_as_xyz
1 x,y,z
2 -x,-y,-z
_cell_length_a                   7.085(7)
_cell_length_b                   10.711(11)
_cell_length_c                   15.587(16)
_cell_angle_alpha                87.916(11)
_cell_angle_beta                 80.861(13)
_cell_angle_gamma                89.664(11)
_cell_volume                     1167.07
_exptl_crystal_colour            colorless
_exptl_crystal_description       needle
_chemical_melting_point          '373 K'
_cell_formula_units_Z            4
_exptl_crystal_recrystallization_method ethanol
loop_
_atom_site_label
_atom_site_type_symbol
_atom_site_fract_x
_atom_site_fract_y
_atom_site_fract_z
O1 O 0.5781(7) 0.7984(4) 0.1820(2)
O2 O 0.5297(4) 0.6568(3) 0.08578(19)
O3 O 0.7641(5) 0.8424(3) -0.1363(2)
O4 O 0.9040(6) 0.9349(4) -0.2879(2)
N1 N 0.6480(5) 0.8411(3) 0.0346(2)
C1 C 0.7102(6) 0.9653(4) 0.0298(3)
C2 C 0.7942(6) 1.0204(4) -0.0512(3)
C3 C 0.8572(6) 1.1445(4) -0.0546(3)
C4 C 0.8441(6) 1.2165(4) 0.0189(3)
C5 C 0.7557(6) 1.1594(4) 0.0969(3)
C6 C 0.6917(6) 1.0373(4) 0.1035(3)
C13 C 0.5839(7) 0.7690(5) 0.1078(3)
C14 C 0.4562(9) 0.5702(5) 0.1576(3)
C15 C 0.3917(7) 0.4557(5) 0.1244(3)
C16 C 0.8120(6) 0.9528(5) -0.1332(3)
C17 C 0.8920(8) 1.0191(5) -0.2189(3)
C18 C 0.9233(7) 1.3460(4) 0.0149(3)
H1 H 0.6498 0.8024 -0.0227
H2 H 0.5579 0.5508 0.1928
H3 H 0.3485 0.6095 0.1955
H4 H 0.2846 0.4743 0.0932
H5 H 0.3501 0.3963 0.1729
H6 H 0.4969 0.4192 0.0846
H7 H 0.8083 1.0902 -0.2301
H8 H 1.0207 1.0524 -0.2158
H9 H 0.8679 0.8636 -0.2678
H10 H 0.9112 1.1812 -0.1093
H11 H 0.9850 1.3672 -0.0446
H12 H 1.0174 1.3506 0.0545
H13 H 0.8193 1.4052 0.0323
H14 H 0.7387 1.2068 0.1479
H15 H 0.6351 1.0022 0.1584
O5 O 0.5168(6) 0.6625(3) 0.6814(2)
O6 O 0.5182(4) 0.8301(3) 0.58795(19)
O7 O 0.7679(4) 0.6823(3) 0.3659(2)
O8 O 0.9253(5) 0.6166(3) 0.2135(2)
N2 N 0.6420(5) 0.6541(3) 0.5351(2)
C7 C 0.7062(6) 0.5314(4) 0.5286(3)
C8 C 0.7995(6) 0.4899(4) 0.4468(3)
C9 C 0.8672(6) 0.3661(4) 0.4413(3)
C10 C 0.8525(6) 0.2841(4) 0.5115(3)
C11 C 0.7564(6) 0.3255(4) 0.5908(3)
C12 C 0.6868(6) 0.4455(4) 0.5995(3)
C19 C 0.5554(7) 0.7112(5) 0.6079(3)
C20 C 0.4237(7) 0.9022(4) 0.6594(3)
C21 C 0.4147(8) 1.0353(5) 0.6290(4)
C22 C 0.8193(6) 0.5735(4) 0.3665(3)
C23 C 0.9111(7) 0.5218(5) 0.2801(3)
C24 C 0.9321(7) 0.1528(5) 0.5049(3)
H16 H 0.6440 0.6870 0.4787
H17 H 0.4958 0.8954 0.7089
H18 H 0.2930 0.8696 0.6793
H19 H 0.5437 1.0648 0.6051
H20 H 0.3613 1.0862 0.6780
H21 H 0.3331 1.0423 0.5838
H22 H 1.0402 0.4894 0.2852
H23 H 0.8333 0.4518 0.2651
H24 H 0.8587 0.6783 0.2315
H25 H 0.9259 0.3382 0.3862
H26 H 1.0154 0.1449 0.4488
H27 H 0.8266 0.0929 0.5095
H28 H 1.0059 0.1356 0.5521
H29 H 0.7388 0.2694 0.6401
H30 H 0.6243 0.4706 0.6547
loop_
_geom_bond_atom_site_label_1
_geom_bond_atom_site_label_2
_geom_bond_site_symmetry_1
_geom_bond_site_symmetry_2
O1 C13 1_555 1_555
O2 C13 1_555 1_555
O3 C16 1_555 1_555
O4 C17 1_555 1_555
O5 C19 1_555 1_555
O6 C19 1_555 1_555
O7 C22 1_555 1_555
O8 C23 1_555 1_555
N1 C1 1_555 1_555
N2 C7 1_555 1_555
C1 C2 1_555 1_555
C2 C3 1_555 1_555
C3 C4 1_555 1_555
C4 C5 1_555 1_555
C5 C6 1_555 1_555
C6 C1 1_555 1_555
C7 C8 1_555 1_555
C8 C9 1_555 1_555
C9 C10 1_555 1_555
C10 C11 1_555 1_555
C11 C12 1_555 1_555
C12 C7 1_555 1_555
C13 N1 1_555 1_555
C14 O2 1_555 1_555
C15 C14 1_555 1_555
C16 C2 1_555 1_555
C17 C16 1_555 1_555
C18 C4 1_555 1_555
C19 N2 1_555 1_555
C20 O6 1_555 1_555
C21 C20 1_555 1_555
C22 C8 1_555 1_555
C23 C22 1_555 1_555
C24 C10 1_555 1_555
H1 N1 1_555 1_555
H2 C14 1_555 1_555
H3 C14 1_555 1_555
H4 C15 1_555 1_555
H5 C15 1_555 1_555
H6 C15 1_555 1_555
H7 C17 1_555 1_555
H8 C17 1_555 1_555
H9 O4 1_555 1_555
H10 C3 1_555 1_555
H11 C18 1_555 1_555
H12 C18 1_555 1_555
H13 C18 1_555 1_555
H14 C5 1_555 1_555
H15 C6 1_555 1_555
H16 N2 1_555 1_555
H17 C20 1_555 1_555
H18 C20 1_555 1_555
H19 C21 1_555 1_555
H20 C21 1_555 1_555
H21 C21 1_555 1_555
H22 C23 1_555 1_555
H23 C23 1_555 1_555
H24 O8 1_555 1_555
H25 C9 1_555 1_555
H26 C24 1_555 1_555
H27 C24 1_555 1_555
H28 C24 1_555 1_555
H29 C11 1_555 1_555
H30 C12 1_555 1_555

#END
