
#######################################################################
#
#                 Cambridge Crystallographic Data Centre
#                                CCDC 
#
#######################################################################
#
# If this CIF has been generated from an entry in the Cambridge 
# Structural Database, then it will include bibliographic, chemical, 
# crystal, experimental, refinement or atomic coordinate data resulting 
# from the CCDC's data processing and validation procedures.
#
#######################################################################

data_LICJOY
_chemical_formula_moiety         'C68 Cl6,0.5(C1 H1 Cl3)'
_chemical_name_systematic        'Hexachloro-C68fullerene chloroform solvate'
_symmetry_cell_setting           monoclinic
_symmetry_space_group_name_H-M   'C 2/c'
_symmetry_Int_Tables_number      15
_space_group_name_Hall           '-C 2yn'
loop_
_symmetry_equiv_pos_site_id
_symmetry_equiv_pos_as_xyz
1 x,y,z
2 -x,y,1/2-z
3 1/2+x,1/2+y,z
4 1/2-x,1/2+y,1/2-z
5 -x,-y,-z
6 x,-y,1/2+z
7 1/2-x,1/2-y,-z
8 1/2+x,1/2-y,1/2+z
_cell_length_a                   16.8460(7)
_cell_length_b                   12.7586(4)
_cell_length_c                   35.3151(11)
_cell_angle_alpha                90
_cell_angle_beta                 93.615(3)
_cell_angle_gamma                90
_cell_volume                     7575.22
_cell_formula_units_Z            8
loop_
_atom_site_label
_atom_site_type_symbol
_atom_site_fract_x
_atom_site_fract_y
_atom_site_fract_z
C69 C 0.0000 0.9092(17) 0.2500
Cl7 Cl 0.0769(3) 0.8269(6) 0.23809(19)
Cl8 Cl 0.0221(3) 0.9581(4) 0.30242(14)
Cl7A Cl -0.0769(3) 0.8269(6) 0.26191(19)
Cl8A Cl -0.0221(3) 0.9581(4) 0.19758(14)
C1 C 0.1758(9) 0.7739(6) 0.3744(4)
C2 C 0.1046(7) 0.6821(9) 0.4574(3)
C3 C 0.3085(4) 0.2658(5) 0.39049(18)
C4 C 0.3548(4) 0.4216(6) 0.35683(19)
C5 C 0.2115(5) 0.2550(6) 0.45159(19)
C6 C 0.0116(5) 0.2952(5) 0.4208(2)
C7 C 0.2399(4) 0.1940(5) 0.3890(2)
C8 C 0.2036(4) 0.1462(5) 0.3534(2)
C9 C 0.2678(4) 0.3029(6) 0.32399(18)
C10 C 0.3311(4) 0.3152(6) 0.4248(2)
C11 C 0.3750(6) 0.5764(8) 0.3923(2)
C12 C 0.0544(7) 0.6052(7) 0.3100(3)
C13 C 0.0949(4) 0.4278(6) 0.28851(18)
C14 C 0.3439(6) 0.4740(8) 0.4582(2)
C15 C 0.3209(4) 0.3236(6) 0.35588(19)
C16 C 0.0742(4) 0.1693(5) 0.3813(2)
C17 C -0.0175(5) 0.2932(7) 0.3494(2)
C18 C 0.0919(5) 0.2229(6) 0.31788(19)
C19 C -0.0524(4) 0.3940(7) 0.3527(2)
C20 C 0.0083(4) 0.2414(7) 0.3829(2)
C21 C 0.2356(4) 0.3876(7) 0.30174(19)
C22 C 0.1649(5) 0.3575(6) 0.27972(18)
C23 C 0.2128(7) 0.6718(8) 0.3240(3)
C24 C 0.2580(5) 0.4925(7) 0.3090(2)
C25 C 0.1524(5) 0.2358(6) 0.2905(2)
C26 C 0.2166(5) 0.4520(8) 0.4863(2)
C27 C 0.3247(5) 0.5062(7) 0.3342(2)
C28 C 0.1390(6) 0.4020(6) 0.47808(19)
C29 C -0.0264(4) 0.4573(9) 0.3214(2)
C30 C 0.0703(4) 0.2337(7) 0.44754(19)
C31 C 0.1172(5) 0.1655(5) 0.3505(2)
C32 C 0.1978(6) 0.5740(7) 0.3037(2)
C33 C 0.1206(7) 0.5866(8) 0.4775(2)
C34 C 0.2451(8) 0.7125(8) 0.4485(3)
C35 C 0.1083(5) 0.1524(6) 0.4197(2)
C36 C 0.1974(4) 0.1909(6) 0.4217(2)
C37 C 0.3371(6) 0.6008(8) 0.3536(3)
C38 C 0.2641(7) 0.6283(7) 0.4720(2)
C39 C 0.0239(4) 0.2866(6) 0.3185(2)
C40 C 0.0261(5) 0.3904(7) 0.2998(2)
C41 C 0.3842(5) 0.4673(8) 0.3942(3)
C42 C 0.3719(4) 0.4173(7) 0.4261(2)
C43 C -0.0344(6) 0.6111(10) 0.3585(3)
C44 C 0.2821(4) 0.3145(6) 0.45597(19)
C45 C 0.2803(6) 0.6842(6) 0.3494(2)
C46 C 0.2045(7) 0.5662(7) 0.4859(2)
C47 C -0.0498(6) 0.5590(8) 0.3893(3)
C48 C -0.0565(5) 0.4406(10) 0.3873(3)
C49 C 0.3505(6) 0.6345(8) 0.4211(3)
C50 C -0.0115(6) 0.5826(8) 0.4285(3)
C51 C 0.3337(6) 0.5788(9) 0.4571(2)
C52 C 0.2294(4) 0.2025(6) 0.31455(19)
C53 C 0.2844(5) 0.4053(6) 0.47518(19)
C54 C 0.1133(5) 0.5423(7) 0.2951(2)
C55 C 0.2916(9) 0.7209(9) 0.4172(3)
C56 C 0.2649(9) 0.7419(8) 0.3807(3)
C57 C 0.1387(4) 0.2996(5) 0.46332(19)
C58 C -0.0160(5) 0.5604(8) 0.3247(2)
C59 C -0.0152(5) 0.3977(6) 0.4228(3)
C60 C 0.0474(8) 0.7360(7) 0.3983(3)
C61 C 0.0799(5) 0.4853(10) 0.4716(2)
C62 C 0.0733(9) 0.6959(8) 0.3326(3)
C63 C 0.1531(8) 0.7311(7) 0.3387(3)
C64 C 0.0227(9) 0.7042(9) 0.3622(3)
C65 C 0.1335(10) 0.7748(7) 0.4043(3)
C66 C 0.0103(5) 0.4832(8) 0.4471(2)
C67 C 0.0293(9) 0.6728(10) 0.4318(3)
C68 C 0.1578(10) 0.7401(8) 0.4412(3)
Cl1 Cl 0.18364(12) 0.37066(16) 0.22936(4)
Cl2 Cl 0.22823(16) 0.00920(14) 0.35199(6)
Cl3 Cl 0.12653(13) 0.15246(16) 0.25081(5)
Cl4 Cl 0.29857(14) 0.12911(18) 0.28910(5)
Cl5 Cl 0.10312(16) 0.01964(17) 0.43552(6)
Cl6 Cl 0.01864(12) 0.1745(2) 0.48511(5)
Cl9? Cl -0.0925(6) 0.8631(11) 0.2519(3)
loop_
_geom_bond_atom_site_label_1
_geom_bond_atom_site_label_2
_geom_bond_site_symmetry_1
_geom_bond_site_symmetry_2
C1 C56 1_555 1_555
C2 C33 1_555 1_555
C3 C7 1_555 1_555
C4 C15 1_555 1_555
C5 C36 1_555 1_555
C6 C20 1_555 1_555
C7 C8 1_555 1_555
C8 C31 1_555 1_555
C9 C15 1_555 1_555
C10 C3 1_555 1_555
C11 C37 1_555 1_555
C12 C54 1_555 1_555
C13 C22 1_555 1_555
C14 C42 1_555 1_555
C15 C3 1_555 1_555
C16 C20 1_555 1_555
C17 C19 1_555 1_555
C18 C25 1_555 1_555
C19 C29 1_555 1_555
C20 C17 1_555 1_555
C21 C9 1_555 1_555
C22 C21 1_555 1_555
C23 C32 1_555 1_555
C24 C21 1_555 1_555
C25 C22 1_555 1_555
C26 C28 1_555 1_555
C27 C4 1_555 1_555
C28 C57 1_555 1_555
C29 C40 1_555 1_555
C30 C6 1_555 1_555
C31 C16 1_555 1_555
C32 C24 1_555 1_555
C33 C46 1_555 1_555
C34 C38 1_555 1_555
C35 C16 1_555 1_555
C36 C7 1_555 1_555
C37 C27 1_555 1_555
C38 C46 1_555 1_555
C39 C17 1_555 1_555
C40 C13 1_555 1_555
C41 C4 1_555 1_555
C42 C10 1_555 1_555
C43 C47 1_555 1_555
C44 C5 1_555 1_555
C45 C23 1_555 1_555
C46 C26 1_555 1_555
C47 C48 1_555 1_555
C48 C19 1_555 1_555
C49 C11 1_555 1_555
C50 C47 1_555 1_555
C51 C14 1_555 1_555
C52 C8 1_555 1_555
C53 C14 1_555 1_555
C54 C13 1_555 1_555
C55 C34 1_555 1_555
C56 C45 1_555 1_555
C57 C5 1_555 1_555
C58 C12 1_555 1_555
C59 C6 1_555 1_555
C60 C64 1_555 1_555
C61 C28 1_555 1_555
C62 C12 1_555 1_555
C63 C1 1_555 1_555
C64 C43 1_555 1_555
C65 C1 1_555 1_555
C66 C50 1_555 1_555
C67 C2 1_555 1_555
C68 C2 1_555 1_555
Cl1 C22 1_555 1_555
Cl2 C8 1_555 1_555
Cl3 C25 1_555 1_555
Cl4 C52 1_555 1_555
Cl5 C35 1_555 1_555
Cl6 C30 1_555 1_555
C69 Cl7 1_555 1_555
Cl8 C69 1_555 1_555
Cl7A C69 1_555 1_555
Cl8A C69 1_555 1_555
C9 C52 1_555 1_555
C10 C44 1_555 1_555
C11 C41 1_555 1_555
C18 C31 1_555 1_555
C18 C39 1_555 1_555
C23 C63 1_555 1_555
C24 C27 1_555 1_555
C25 C52 1_555 1_555
C26 C53 1_555 1_555
C29 C58 1_555 1_555
C30 C35 1_555 1_555
C30 C57 1_555 1_555
C32 C54 1_555 1_555
C33 C61 1_555 1_555
C34 C68 1_555 1_555
C35 C36 1_555 1_555
C37 C45 1_555 1_555
C38 C51 1_555 1_555
C39 C40 1_555 1_555
C41 C42 1_555 1_555
C43 C58 1_555 1_555
C44 C53 1_555 1_555
C48 C59 1_555 1_555
C49 C51 1_555 1_555
C49 C55 1_555 1_555
C50 C67 1_555 1_555
C55 C56 1_555 1_555
C59 C66 1_555 1_555
C60 C65 1_555 1_555
C60 C67 1_555 1_555
C61 C66 1_555 1_555
C62 C63 1_555 1_555
C62 C64 1_555 1_555
C65 C68 1_555 1_555

#END
