
#######################################################################
#
#                 Cambridge Crystallographic Data Centre
#                                CCDC 
#
#######################################################################
#
# If this CIF has been generated from an entry in the Cambridge 
# Structural Database, then it will include bibliographic, chemical, 
# crystal, experimental, refinement or atomic coordinate data resulting 
# from the CCDC's data processing and validation procedures.
#
#######################################################################

data_LICMIW
_chemical_formula_moiety         'C8 H4 Br1 F2 N1 O1 S1'
_chemical_name_systematic        
7-bromo-3-(difluoromethyl)-1,3-benzoxazole-2(3H)-thione
_symmetry_cell_setting           triclinic
_symmetry_space_group_name_H-M   'P -1'
_symmetry_Int_Tables_number      2
_space_group_name_Hall           '-P 1'
loop_
_symmetry_equiv_pos_site_id
_symmetry_equiv_pos_as_xyz
1 x,y,z
2 -x,-y,-z
_cell_length_a                   4.3008(3)
_cell_length_b                   8.4584(9)
_cell_length_c                   13.1155(12)
_cell_angle_alpha                76.864(8)
_cell_angle_beta                 87.095(6)
_cell_angle_gamma                77.793(7)
_cell_volume                     454.123
_exptl_crystal_colour            colorless
_exptl_crystal_description       Needle
_cell_formula_units_Z            2
loop_
_atom_site_label
_atom_site_type_symbol
_atom_site_fract_x
_atom_site_fract_y
_atom_site_fract_z
Br1 Br 0.21445(11) 0.72657(6) 0.52734(3)
S1 S -0.0415(3) 0.40149(14) 0.20818(9)
F1 F 0.5293(6) 0.6787(3) 0.0080(2)
F2 F 0.0650(6) 0.8373(3) -0.0053(2)
O1 O 0.1229(7) 0.5910(4) 0.3217(2)
N1 N 0.2202(8) 0.6766(4) 0.1542(3)
C1 C 0.4638(10) 0.9212(5) 0.1704(4)
C2 C 0.3252(10) 0.7850(5) 0.2056(4)
C3 C 0.2597(10) 0.7281(5) 0.3090(4)
C4 C 0.2259(10) 0.6875(6) 0.0442(3)
C5 C 0.5307(11) 0.9975(6) 0.2483(4)
C6 C 0.4607(11) 0.9423(6) 0.3531(4)
C7 C 0.1002(10) 0.5579(5) 0.2255(4)
C8 C 0.3219(10) 0.8055(5) 0.3868(4)
H1 H 0.509(12) 1.003(6) 0.398(4)
H2 H 0.507(11) 0.956(5) 0.100(4)
H3 H 0.611(12) 1.088(7) 0.229(4)
H4 H 0.140(12) 0.603(6) 0.028(4)
loop_
_geom_bond_atom_site_label_1
_geom_bond_atom_site_label_2
_geom_bond_site_symmetry_1
_geom_bond_site_symmetry_2
Br1 C8 1_555 1_555
S1 C7 1_555 1_555
F1 C4 1_555 1_555
F2 C4 1_555 1_555
O1 C3 1_555 1_555
N1 C2 1_555 1_555
C1 C2 1_555 1_555
C2 C3 1_555 1_555
C3 C8 1_555 1_555
C4 N1 1_555 1_555
C5 C1 1_555 1_555
C6 C5 1_555 1_555
C7 O1 1_555 1_555
C8 C6 1_555 1_555
H1 C6 1_555 1_555
H2 C1 1_555 1_555
H3 C5 1_555 1_555
H4 C4 1_555 1_555
N1 C7 1_555 1_555

#END
