
#######################################################################
#
#                 Cambridge Crystallographic Data Centre
#                                CCDC 
#
#######################################################################
#
# If this CIF has been generated from an entry in the Cambridge 
# Structural Database, then it will include bibliographic, chemical, 
# crystal, experimental, refinement or atomic coordinate data resulting 
# from the CCDC's data processing and validation procedures.
#
#######################################################################

data_LICQUL
_chemical_formula_moiety         'C20 H16 N2 O1'
_chemical_name_systematic        
2,3-Dimethyl-5-(9-phenanthrylmethylene)-3,5-dihydro-4H-imidazol-4-one
_symmetry_cell_setting           monoclinic
_symmetry_space_group_name_H-M   'P 21/c'
_symmetry_Int_Tables_number      14
_space_group_name_Hall           '-P 2ybc'
loop_
_symmetry_equiv_pos_site_id
_symmetry_equiv_pos_as_xyz
1 x,y,z
2 -x,1/2+y,1/2-z
3 -x,-y,-z
4 x,1/2-y,1/2+z
_cell_length_a                   8.9955(18)
_cell_length_b                   8.5297(17)
_cell_length_c                   20.917(6)
_cell_angle_alpha                90
_cell_angle_beta                 113.66(3)
_cell_angle_gamma                90
_cell_volume                     1470.03
_exptl_crystal_colour            yellow
_exptl_crystal_description       block
_cell_formula_units_Z            4
loop_
_atom_site_label
_atom_site_type_symbol
_atom_site_fract_x
_atom_site_fract_y
_atom_site_fract_z
O1 O 0.5690(3) 0.3065(3) -0.10087(14)
N1 N 0.3518(3) 0.3887(3) -0.07713(16)
N2 N 0.4062(3) 0.2734(4) 0.02727(15)
C1 C 0.4933(4) 0.3087(4) -0.0638(2)
C2 C 0.3060(4) 0.3666(4) -0.0229(2)
C3 C 0.5260(4) 0.2350(4) 0.00333(19)
C4 C 0.2677(5) 0.4844(4) -0.1397(2)
H1 H 0.1502 0.4731 -0.1546
H2 H 0.2989 0.4493 -0.1772
H3 H 0.2981 0.5946 -0.1290
C5 C 0.1608(5) 0.4400(5) -0.0201(2)
H4 H 0.1425 0.3981 0.0197
H5 H 0.0665 0.4173 -0.0634
H6 H 0.1769 0.5537 -0.0149
C6 C 0.6588(4) 0.1403(4) 0.03520(19)
H7 H 0.7257 0.1287 0.0100
C7 C 0.7146(4) 0.0551(4) 0.10045(18)
C8 C 0.6236(4) 0.0518(4) 0.13930(19)
H8 H 0.5239 0.1077 0.1230
C9 C 0.6723(4) -0.0321(4) 0.20312(19)
C10 C 0.5752(5) -0.0316(4) 0.2420(2)
H9 H 0.4768 0.0264 0.2253
C11 C 0.6199(5) -0.1132(4) 0.3033(2)
H10 H 0.5541 -0.1109 0.3292
C12 C 0.7631(5) -0.1994(5) 0.3271(2)
H11 H 0.7940 -0.2576 0.3692
C13 C 0.8597(5) -0.2018(4) 0.2909(2)
H12 H 0.9569 -0.2617 0.3085
C14 C 0.8194(4) -0.1179(4) 0.22825(19)
C15 C 0.9186(4) -0.1170(4) 0.18804(19)
C16 C 1.0677(4) -0.1993(4) 0.2102(2)
H13 H 1.1023 -0.2587 0.2521
C17 C 1.1627(5) -0.1962(4) 0.1736(2)
H14 H 1.2620 -0.2528 0.1900
C18 C 1.1145(5) -0.1105(5) 0.1125(2)
H15 H 1.1814 -0.1080 0.0870
C19 C 0.9702(4) -0.0287(4) 0.0881(2)
H16 H 0.9390 0.0299 0.0461
C20 C 0.8679(4) -0.0307(4) 0.12477(18)
loop_
_geom_bond_atom_site_label_1
_geom_bond_atom_site_label_2
_geom_bond_site_symmetry_1
_geom_bond_site_symmetry_2
O1 C1 1_555 1_555
N1 C1 1_555 1_555
N2 C2 1_555 1_555
C1 C3 1_555 1_555
C2 N1 1_555 1_555
C3 N2 1_555 1_555
C4 N1 1_555 1_555
H1 C4 1_555 1_555
H2 C4 1_555 1_555
H3 C4 1_555 1_555
C5 C2 1_555 1_555
H4 C5 1_555 1_555
H5 C5 1_555 1_555
H6 C5 1_555 1_555
C6 C3 1_555 1_555
H7 C6 1_555 1_555
C7 C6 1_555 1_555
C8 C7 1_555 1_555
H8 C8 1_555 1_555
C9 C8 1_555 1_555
C10 C9 1_555 1_555
H9 C10 1_555 1_555
C11 C10 1_555 1_555
H10 C11 1_555 1_555
C12 C11 1_555 1_555
H11 C12 1_555 1_555
C13 C12 1_555 1_555
H12 C13 1_555 1_555
C14 C9 1_555 1_555
C15 C14 1_555 1_555
C16 C15 1_555 1_555
H13 C16 1_555 1_555
C17 C16 1_555 1_555
H14 C17 1_555 1_555
C18 C17 1_555 1_555
H15 C18 1_555 1_555
C19 C18 1_555 1_555
H16 C19 1_555 1_555
C20 C7 1_555 1_555
C13 C14 1_555 1_555
C15 C20 1_555 1_555
C19 C20 1_555 1_555

#END
