
#######################################################################
#
#                 Cambridge Crystallographic Data Centre
#                                CCDC 
#
#######################################################################
#
# If this CIF has been generated from an entry in the Cambridge 
# Structural Database, then it will include bibliographic, chemical, 
# crystal, experimental, refinement or atomic coordinate data resulting 
# from the CCDC's data processing and validation procedures.
#
#######################################################################

data_LICSOH
_chemical_formula_moiety         'C34 H29 Br1 O9'
_chemical_name_systematic        
"8a-Bromo-8-oxo-9-(3,4,5-trimethoxyphenyl)-5,5a,6,8,8a,9-hexahydrofuro[3',4':6,7]naphtho[2,3-d][1,3]dioxol-5-yl 1-naphthylacetate"
_symmetry_cell_setting           orthorhombic
_symmetry_space_group_name_H-M   'P 21 21 21'
_symmetry_Int_Tables_number      19
_space_group_name_Hall           'P 2ac 2ab'
loop_
_symmetry_equiv_pos_site_id
_symmetry_equiv_pos_as_xyz
1 x,y,z
2 1/2-x,-y,1/2+z
3 -x,1/2+y,1/2-z
4 1/2+x,1/2-y,-z
_cell_length_a                   10.324(9)
_cell_length_b                   13.901(11)
_cell_length_c                   20.134(16)
_cell_angle_alpha                90
_cell_angle_beta                 90
_cell_angle_gamma                90
_cell_volume                     2889.51
_exptl_crystal_colour            colorless
_exptl_crystal_description       block
_cell_formula_units_Z            4
loop_
_atom_site_label
_atom_site_type_symbol
_atom_site_fract_x
_atom_site_fract_y
_atom_site_fract_z
Br1 Br 0.48868(5) 0.61196(4) -0.01087(3)
C1 C 0.7683(4) 0.5999(3) -0.0015(2)
H1 H 0.8460 0.6193 0.0231
C2 C 0.7521(4) 0.4927(4) 0.0094(2)
H2 H 0.6963 0.4656 -0.0252
C3 C 0.6959(4) 0.4705(4) 0.0775(2)
C4 C 0.6520(4) 0.5414(3) 0.1212(2)
C5 C 0.6506(4) 0.6484(3) 0.1033(2)
H3 H 0.5676 0.6752 0.1179
C6 C 0.6566(5) 0.6564(3) 0.0275(2)
C7 C 0.6916(4) 0.3722(4) 0.0964(3)
H4 H 0.7186 0.3241 0.0675
C8 C 0.6473(5) 0.3507(3) 0.1577(3)
C9 C 0.6069(6) 0.2788(4) 0.2546(3)
H5 H 0.6813 0.2651 0.2824
H6 H 0.5358 0.2379 0.2685
C10 C 0.6078(5) 0.4199(4) 0.2019(2)
C11 C 0.6064(5) 0.5152(4) 0.1847(2)
H7 H 0.5762 0.5616 0.2142
C12 C 0.7808(6) 0.6430(4) -0.0710(3)
H8 H 0.8690 0.6384 -0.0873
H9 H 0.7232 0.6113 -0.1022
C13 C 0.6714(6) 0.7550(5) -0.0058(3)
C14 C 0.7591(5) 0.7062(4) 0.1370(2)
C15 C 0.7328(5) 0.8020(4) 0.1530(2)
H10 H 0.6510 0.8281 0.1458
C16 C 0.8316(5) 0.8572(4) 0.1799(2)
C17 C 0.9540(5) 0.8185(4) 0.1910(2)
C18 C 0.9792(5) 0.7231(3) 0.1755(2)
C19 C 0.8802(5) 0.6675(3) 0.1487(2)
H11 H 0.8958 0.6032 0.1386
C20 C 0.6983(7) 0.9976(4) 0.1846(4)
H12 H 0.6733 0.9868 0.1393
H13 H 0.7058 1.0654 0.1925
H14 H 0.6338 0.9710 0.2136
C21 C 1.0564(5) 0.8796(4) 0.2855(3)
H15 H 0.9741 0.9009 0.3023
H16 H 1.1228 0.9233 0.2997
H17 H 1.0748 0.8164 0.3023
C22 C 1.1381(6) 0.6001(4) 0.1643(3)
H18 H 1.0970 0.5513 0.1906
H19 H 1.2305 0.5930 0.1671
H20 H 1.1114 0.5935 0.1188
C23 C 0.9341(6) 0.4259(4) -0.0501(3)
C24 C 1.0473(6) 0.3604(5) -0.0454(3)
H21 H 1.1092 0.3810 -0.0787
H22 H 1.0178 0.2969 -0.0583
C25 C 1.1219(6) 0.3489(5) 0.0198(3)
C26 C 1.2195(7) 0.4133(5) 0.0346(4)
H23 H 1.2330 0.4650 0.0062
C27 C 1.2982(7) 0.4043(6) 0.0899(4)
H24 H 1.3623 0.4500 0.0974
C28 C 1.2847(6) 0.3316(6) 0.1329(4)
H25 H 1.3387 0.3260 0.1697
C29 C 1.1809(6) 0.2603(4) 0.1201(3)
C30 C 1.1647(9) 0.1837(6) 0.1632(4)
H26 H 1.2220 0.1739 0.1982
C31 C 1.0617(10) 0.1224(6) 0.1530(5)
H27 H 1.0456 0.0733 0.1833
C32 C 0.9808(8) 0.1330(6) 0.0976(5)
H28 H 0.9141 0.0890 0.0914
C33 C 0.9954(7) 0.2042(5) 0.0528(4)
H29 H 0.9406 0.2093 0.0163
C34 C 1.1024(6) 0.2745(4) 0.0638(3)
O1 O 0.6377(4) 0.2608(2) 0.18640(18)
O2 O 0.5708(3) 0.3784(3) 0.26076(17)
O3 O 0.7430(4) 0.7432(3) -0.0606(2)
O4 O 0.6252(4) 0.8293(3) 0.0101(2)
O5 O 0.8182(4) 0.9528(3) 0.19678(19)
O6 O 1.0525(3) 0.8769(3) 0.21552(18)
O7 O 1.1019(3) 0.6925(3) 0.18825(17)
O8 O 0.8785(3) 0.4426(2) 0.00943(17)
O9 O 0.8926(4) 0.4560(3) -0.1014(2)
loop_
_geom_bond_atom_site_label_1
_geom_bond_atom_site_label_2
_geom_bond_site_symmetry_1
_geom_bond_site_symmetry_2
Br1 C6 1_555 1_555
C1 H1 1_555 1_555
C2 C1 1_555 1_555
H2 C2 1_555 1_555
C3 C2 1_555 1_555
C4 C3 1_555 1_555
C5 C4 1_555 1_555
H3 C5 1_555 1_555
C6 C1 1_555 1_555
C7 C3 1_555 1_555
H4 C7 1_555 1_555
C8 C7 1_555 1_555
C9 H5 1_555 1_555
H6 C9 1_555 1_555
C10 C8 1_555 1_555
C11 C4 1_555 1_555
H7 C11 1_555 1_555
C12 C1 1_555 1_555
H8 C12 1_555 1_555
H9 C12 1_555 1_555
C13 C6 1_555 1_555
C14 C5 1_555 1_555
C15 C14 1_555 1_555
H10 C15 1_555 1_555
C16 C15 1_555 1_555
C17 C16 1_555 1_555
C18 C17 1_555 1_555
C19 C14 1_555 1_555
H11 C19 1_555 1_555
C20 H12 1_555 1_555
H13 C20 1_555 1_555
H14 C20 1_555 1_555
C21 H15 1_555 1_555
H16 C21 1_555 1_555
H17 C21 1_555 1_555
C22 H18 1_555 1_555
H19 C22 1_555 1_555
H20 C22 1_555 1_555
C23 C24 1_555 1_555
C24 H21 1_555 1_555
H22 C24 1_555 1_555
C25 C24 1_555 1_555
C26 C25 1_555 1_555
H23 C26 1_555 1_555
C27 C26 1_555 1_555
H24 C27 1_555 1_555
C28 C27 1_555 1_555
H25 C28 1_555 1_555
C29 C28 1_555 1_555
C30 C29 1_555 1_555
H26 C30 1_555 1_555
C31 C30 1_555 1_555
H27 C31 1_555 1_555
C32 C31 1_555 1_555
H28 C32 1_555 1_555
C33 C32 1_555 1_555
H29 C33 1_555 1_555
C34 C25 1_555 1_555
O1 C8 1_555 1_555
O2 C9 1_555 1_555
O3 C12 1_555 1_555
O4 C13 1_555 1_555
O5 C16 1_555 1_555
O6 C17 1_555 1_555
O7 C18 1_555 1_555
O8 C2 1_555 1_555
O9 C23 1_555 1_555
C5 C6 1_555 1_555
C9 O1 1_555 1_555
C10 C11 1_555 1_555
C10 O2 1_555 1_555
C13 O3 1_555 1_555
C18 C19 1_555 1_555
C20 O5 1_555 1_555
C21 O6 1_555 1_555
C22 O7 1_555 1_555
C23 O8 1_555 1_555
C29 C34 1_555 1_555
C33 C34 1_555 1_555

#END
