
#######################################################################
#
#                 Cambridge Crystallographic Data Centre
#                                CCDC 
#
#######################################################################
#
# If this CIF has been generated from an entry in the Cambridge 
# Structural Database, then it will include bibliographic, chemical, 
# crystal, experimental, refinement or atomic coordinate data resulting 
# from the CCDC's data processing and validation procedures.
#
#######################################################################

data_LICTUP
_chemical_formula_moiety         'C114 H100 N2,C60'
_chemical_name_systematic        
"2,2'-(phenanthrene-3,6-diyl)bis(5,8,11,14-tetra-t-butyl-15d-azabenzo[5,6]acenaphtho[4,3,2,1,8,7-pqrstuv]dibenzo[fg,ij]pentaphene) C60fullerene unknown solvate"
_symmetry_cell_setting           triclinic
_symmetry_space_group_name_H-M   'P -1'
_symmetry_Int_Tables_number      2
_space_group_name_Hall           '-P 1'
loop_
_symmetry_equiv_pos_site_id
_symmetry_equiv_pos_as_xyz
1 x,y,z
2 -x,-y,-z
_cell_length_a                   15.9701(5)
_cell_length_b                   19.0260(7)
_cell_length_c                   25.3330(7)
_cell_angle_alpha                75.796(3)
_cell_angle_beta                 78.814(2)
_cell_angle_gamma                72.466(3)
_cell_volume                     7055.06
_exptl_crystal_colour            black
_exptl_crystal_description       prism
_cell_formula_units_Z            2
_exptl_crystal_recrystallization_method 
'Re-crystallisation from solvent: tetrachloromethane'
loop_
_atom_site_label
_atom_site_type_symbol
_atom_site_fract_x
_atom_site_fract_y
_atom_site_fract_z
C1 C 0.3874(5) 0.0709(4) 0.2657(3)
C2 C 0.3647(5) 0.0573(4) 0.3218(3)
C3 C 0.4318(5) 0.0587(5) 0.3552(3)
C4 C 0.5107(5) 0.0735(4) 0.3338(3)
C5 C 0.5281(6) 0.0871(5) 0.2752(4)
C6 C 0.4712(6) 0.0863(4) 0.2420(3)
C7 C 0.4550(6) 0.1416(4) 0.1932(3)
C8 C 0.3630(6) 0.1625(4) 0.1883(3)
C9 C 0.3114(5) 0.1199(4) 0.2349(3)
C10 C 0.2330(5) 0.1551(5) 0.2569(3)
C11 C 0.2098(5) 0.1402(5) 0.3153(3)
C12 C 0.2773(4) 0.0901(4) 0.3453(3)
C13 C 0.2843(5) 0.1096(4) 0.3970(3)
C14 C 0.3822(4) 0.0871(4) 0.4028(2)
C15 C 0.4056(6) 0.1349(5) 0.4253(3)
C16 C 0.4883(6) 0.1503(5) 0.4028(3)
C17 C 0.5401(5) 0.1220(5) 0.3605(3)
C18 C 0.5842(6) 0.1625(5) 0.3099(4)
C19 C 0.5773(6) 0.1456(5) 0.2599(4)
C20 C 0.5632(5) 0.1984(5) 0.2124(3)
C21 C 0.5005(6) 0.1967(4) 0.1792(3)
C22 C 0.4582(6) 0.2774(5) 0.1581(3)
C23 C 0.3738(6) 0.2940(5) 0.1523(3)
C24 C 0.3285(6) 0.2358(6) 0.1669(4)
C25 C 0.2418(5) 0.2660(5) 0.1876(3)
C26 C 0.1894(6) 0.2340(5) 0.2333(3)
C27 C 0.1428(5) 0.2630(5) 0.2823(4)
C28 C 0.1535(7) 0.2089(5) 0.3338(4)
C29 C 0.1669(5) 0.2214(4) 0.3804(3)
C30 C 0.2334(5) 0.1699(4) 0.4127(3)
C31 C 0.2633(6) 0.2214(5) 0.4339(3)
C32 C 0.3451(6) 0.2045(5) 0.4405(3)
C33 C 0.3925(7) 0.2619(6) 0.4248(4)
C34 C 0.4787(6) 0.2311(5) 0.4047(3)
C35 C 0.5312(6) 0.2636(5) 0.3586(4)
C36 C 0.5788(5) 0.2337(5) 0.3122(4)
C37 C 0.5670(6) 0.2902(5) 0.2603(4)
C38 C 0.5558(4) 0.2768(4) 0.2129(3)
C39 C 0.4879(5) 0.3278(4) 0.1816(3)
C40 C 0.4373(5) 0.3883(4) 0.1959(3)
C41 C 0.3406(5) 0.4087(4) 0.1899(3)
C42 C 0.3142(5) 0.3640(5) 0.1681(3)
C43 C 0.2311(5) 0.3490(5) 0.1898(3)
C44 C 0.1817(5) 0.3767(5) 0.2322(3)
C45 C 0.1363(5) 0.3343(5) 0.2836(4)
C46 C 0.1454(5) 0.3534(5) 0.3334(4)
C47 C 0.1619(6) 0.3012(5) 0.3821(4)
C48 C 0.2236(6) 0.3010(5) 0.4140(4)
C49 C 0.2672(6) 0.3545(5) 0.3994(3)
C50 C 0.3567(6) 0.3339(5) 0.4042(3)
C51 C 0.4082(6) 0.3774(4) 0.3565(3)
C52 C 0.4888(6) 0.3436(4) 0.3376(3)
C53 C 0.5100(5) 0.3582(5) 0.2780(3)
C54 C 0.4434(5) 0.4071(4) 0.2471(3)
C55 C 0.3570(6) 0.4394(4) 0.2708(3)
C56 C 0.2909(6) 0.4410(5) 0.2373(3)
C57 C 0.2120(5) 0.4262(4) 0.2576(3)
C58 C 0.1928(6) 0.4121(5) 0.3177(4)
C59 C 0.2532(6) 0.4097(5) 0.3499(3)
C60 C 0.3341(6) 0.4244(4) 0.3260(3)
C121 C 0.1049(3) 0.6139(2) 0.35193(16)
C122 C 0.0549(3) 0.5661(2) 0.38347(17)
H1 H -0.0012 0.5699 0.3739
C123 C 0.0860(3) 0.5125(2) 0.42901(17)
C124 C 0.1674(3) 0.5159(2) 0.44299(17)
C125 C 0.2243(3) 0.5560(2) 0.40946(16)
C126 C 0.1894(3) 0.6074(2) 0.36292(17)
H2 H 0.2242 0.6377 0.3389
C127 C -0.0166(3) 0.4293(2) 0.43877(18)
H3 H -0.0474 0.4635 0.4102
C128 C -0.0380(3) 0.3611(3) 0.46154(19)
C129 C 0.0108(3) 0.3095(3) 0.50185(19)
H4 H -0.0037 0.2630 0.5167
C130 C 0.0790(3) 0.3228(3) 0.52120(18)
C131 C 0.0894(3) 0.3975(3) 0.50057(18)
C132 C 0.0488(3) 0.4478(2) 0.45726(17)
C133 C 0.3192(3) 0.5347(2) 0.41888(17)
C134 C 0.3449(3) 0.4783(2) 0.46434(16)
C135 C 0.4339(3) 0.4367(2) 0.47107(17)
C136 C 0.4973(3) 0.4666(2) 0.43446(16)
H5 H 0.5580 0.4443 0.4386
C137 C 0.4748(3) 0.5282(3) 0.39195(17)
C138 C 0.3852(3) 0.5610(2) 0.38294(17)
H6 H 0.3705 0.6008 0.3524
C139 C 0.1573(3) 0.4122(3) 0.51917(17)
C140 C 0.2197(3) 0.3595(3) 0.54882(17)
C141 C 0.2971(3) 0.3832(3) 0.53715(17)
C142 C 0.2807(3) 0.4501(2) 0.50055(17)
C143 C 0.1462(3) 0.2657(3) 0.55274(18)
C144 C 0.1512(3) 0.1883(3) 0.56787(18)
H7 H 0.1021 0.1718 0.5647
C145 C 0.2254(3) 0.1355(2) 0.58722(19)
C146 C 0.3021(3) 0.1569(3) 0.58613(18)
H8 H 0.3547 0.1191 0.5951
C147 C 0.3038(3) 0.2314(2) 0.57242(17)
C148 C 0.2210(3) 0.2840(3) 0.56187(17)
C149 C 0.4523(3) 0.3619(3) 0.50866(17)
C150 C 0.3798(3) 0.3342(3) 0.53835(17)
C151 C 0.3853(3) 0.2572(3) 0.56059(17)
C152 C 0.4708(3) 0.2097(3) 0.56079(17)
H9 H 0.4789 0.1578 0.5766
C153 C 0.5450(3) 0.2367(3) 0.53817(18)
C154 C 0.5350(3) 0.3116(3) 0.51156(18)
H10 H 0.5861 0.3284 0.4951
C155 C -0.1080(3) 0.3411(3) 0.4410(2)
C156 C -0.1161(13) 0.3776(12) 0.3769(6)
H11 H -0.0567 0.3729 0.3563
H12 H -0.1485 0.4309 0.3730
H13 H -0.1480 0.3512 0.3626
C157 C -0.0918(11) 0.2530(8) 0.4448(8)
H14 H -0.0297 0.2310 0.4316
H15 H -0.1301 0.2453 0.4220
H16 H -0.1056 0.2286 0.4830
C158 C -0.2003(9) 0.3681(10) 0.4690(9)
H17 H -0.2017 0.3490 0.5087
H18 H -0.2411 0.3496 0.4550
H19 H -0.2183 0.4232 0.4615
C159 C 0.2257(3) 0.0522(3) 0.6057(2)
C160 C 0.1349(4) 0.0396(3) 0.6102(4)
H20 H 0.0918 0.0723 0.6330
H21 H 0.1373 -0.0131 0.6269
H22 H 0.1169 0.0514 0.5735
C161 C 0.2540(4) 0.0247(3) 0.6650(2)
H23 H 0.3138 0.0295 0.6638
H24 H 0.2535 -0.0281 0.6784
H25 H 0.2124 0.0555 0.6897
C162 C 0.2920(4) 0.0062(3) 0.5685(2)
H26 H 0.2782 0.0255 0.5307
H27 H 0.2898 -0.0463 0.5800
H28 H 0.3515 0.0094 0.5703
C163 C 0.6398(3) 0.1832(3) 0.5422(2)
C164 C 0.6377(4) 0.1054(3) 0.5669(3)
H29 H 0.6072 0.1031 0.6045
H30 H 0.6985 0.0731 0.5675
H31 H 0.6062 0.0881 0.5452
C165 C 0.6858(4) 0.2157(4) 0.5737(3)
H32 H 0.6527 0.2182 0.6104
H33 H 0.6882 0.2665 0.5540
H34 H 0.7461 0.1836 0.5771
C166 C 0.6877(4) 0.1862(3) 0.4833(2)
H35 H 0.7505 0.1592 0.4843
H36 H 0.6825 0.2387 0.4648
H37 H 0.6609 0.1624 0.4632
C167 C 0.5452(3) 0.5596(3) 0.35066(17)
C168 C 0.5500(3) 0.5384(3) 0.29581(18)
H38 H 0.5911 0.5618 0.2683
H39 H 0.4910 0.5561 0.2839
H40 H 0.5710 0.4836 0.2998
C169 C 0.5232(3) 0.6450(3) 0.34377(19)
H41 H 0.5206 0.6579 0.3793
H42 H 0.4657 0.6681 0.3302
H43 H 0.5691 0.6638 0.3174
C170 C 0.6363(3) 0.5263(3) 0.3701(2)
H44 H 0.6780 0.5531 0.3467
H45 H 0.6573 0.4729 0.3680
H46 H 0.6321 0.5313 0.4082
C171 C 0.2455(3) 0.5657(2) 0.07256(16)
C172 C 0.3372(3) 0.5510(2) 0.07208(16)
H47 H 0.3601 0.5850 0.0831
C173 C 0.3947(3) 0.4867(2) 0.05556(15)
C174 C 0.3539(3) 0.4411(2) 0.03843(16)
C175 C 0.2632(3) 0.4474(3) 0.04619(17)
C176 C 0.2097(3) 0.5131(3) 0.06304(17)
H48 H 0.1471 0.5218 0.0681
C177 C 0.5338(2) 0.4923(2) 0.08806(16)
H49 H 0.5043 0.5394 0.0982
C178 C 0.6221(3) 0.4554(3) 0.10060(17)
C179 C 0.6615(3) 0.3841(3) 0.08892(17)
H50 H 0.7191 0.3589 0.0987
C180 C 0.6226(3) 0.3478(3) 0.06414(18)
C181 C 0.5400(3) 0.3896(2) 0.04654(16)
C182 C 0.4903(3) 0.4608(2) 0.06142(16)
C183 C 0.2308(3) 0.3818(3) 0.04547(18)
C184 C 0.2947(4) 0.3168(3) 0.03153(18)
C185 C 0.2805(4) 0.2451(3) 0.0445(2)
C186 C 0.1924(4) 0.2425(4) 0.0651(2)
H51 H 0.1779 0.1960 0.0717
C187 C 0.1262(4) 0.3061(4) 0.0759(3)
C188 C 0.1453(4) 0.3748(3) 0.0663(2)
H52 H 0.0997 0.4178 0.0740
C189 C 0.4983(3) 0.3568(2) 0.02082(16)
C190 C 0.5263(3) 0.2824(3) 0.01790(16)
C191 C 0.4527(3) 0.2612(3) 0.01302(17)
C192 C 0.3802(3) 0.3217(3) 0.01300(17)
C193 C 0.6516(3) 0.2661(3) 0.06223(18)
C194 C 0.7232(3) 0.2159(3) 0.0863(2)
H53 H 0.7639 0.2344 0.0982
C195 C 0.7366(4) 0.1376(3) 0.0932(2)
C196 C 0.6741(4) 0.1107(3) 0.0808(2)
H54 H 0.6809 0.0580 0.0894
C197 C 0.6022(4) 0.1566(3) 0.0565(2)
C198 C 0.5978(3) 0.2343(3) 0.04233(18)
C199 C 0.3586(4) 0.1782(3) 0.04635(19)
C200 C 0.4438(4) 0.1880(3) 0.03355(18)
C201 C 0.5198(4) 0.1327(3) 0.0523(2)
C202 C 0.5106(4) 0.0600(3) 0.07353(19)
H55 H 0.5601 0.0204 0.0853
C203 C 0.4292(4) 0.0457(3) 0.0775(2)
C204 C 0.3554(4) 0.1023(3) 0.0677(2)
H56 H 0.2997 0.0912 0.0754
C205 C 0.6686(3) 0.4897(3) 0.12954(18)
C206 C 0.6163(3) 0.5688(3) 0.1396(2)
H57 H 0.5619 0.5657 0.1646
H58 H 0.6012 0.6020 0.1045
H59 H 0.6527 0.5890 0.1559
C207 C 0.7579(3) 0.4979(3) 0.0966(2)
H60 H 0.7478 0.5313 0.0609
H61 H 0.7955 0.4484 0.0910
H62 H 0.7872 0.5194 0.1169
C208 C 0.6858(3) 0.4404(3) 0.1851(2)
H63 H 0.7210 0.4605 0.2024
H64 H 0.7182 0.3892 0.1805
H65 H 0.6292 0.4397 0.2083
C209 C 0.8193(4) 0.0810(3) 0.1171(3)
C210 C 0.7893(4) 0.0449(4) 0.1759(3)
H66 H 0.7498 0.0146 0.1753
H67 H 0.7577 0.0844 0.1968
H68 H 0.8411 0.0127 0.1934
C211 C 0.8892(4) 0.1199(4) 0.1170(3)
H69 H 0.9443 0.0820 0.1260
H70 H 0.8688 0.1519 0.1444
H71 H 0.8998 0.1508 0.0805
C212 C 0.8613(5) 0.0235(4) 0.0811(4)
H72 H 0.9178 -0.0081 0.0933
H73 H 0.8718 0.0493 0.0429
H74 H 0.8216 -0.0081 0.0838
C213 C 0.4200(5) -0.0355(3) 0.1007(2)
C214 C 0.3999(7) -0.0462(4) 0.1619(3)
H75 H 0.4483 -0.0389 0.1767
H76 H 0.3938 -0.0973 0.1772
H77 H 0.3445 -0.0096 0.1718
C215 C 0.3486(5) -0.0484(4) 0.0743(3)
H78 H 0.3520 -0.0234 0.0355
H79 H 0.2900 -0.0276 0.0933
H80 H 0.3582 -0.1025 0.0771
C216 C 0.5068(5) -0.0939(3) 0.0861(2)
H81 H 0.5543 -0.0884 0.1028
H82 H 0.5224 -0.0859 0.0461
H83 H 0.4989 -0.1446 0.1001
C217 C 0.0309(5) 0.3018(5) 0.1014(4)
C218 C -0.0119(5) 0.3528(5) 0.1373(3)
H84 H -0.0208 0.4046 0.1163
H85 H 0.0251 0.3450 0.1660
H86 H -0.0694 0.3439 0.1542
C219 C -0.0162(6) 0.3118(7) 0.0588(4)
H87 H -0.0792 0.3188 0.0729
H88 H 0.0052 0.2675 0.0418
H89 H -0.0082 0.3564 0.0313
C220 C 0.0397(5) 0.2164(5) 0.1435(4)
H90 H 0.0597 0.1772 0.1215
H91 H -0.0181 0.2144 0.1646
H92 H 0.0827 0.2082 0.1687
C221 C 0.1573(3) 0.6442(3) 0.13863(17)
H93 H 0.1804 0.6043 0.1673
C222 C 0.1851(3) 0.6361(3) 0.08614(17)
C223 C 0.1517(4) 0.6945(3) 0.0440(2)
H94 H 0.1714 0.6896 0.0069
C224 C 0.0921(5) 0.7578(4) 0.0551(2)
H95 H 0.0714 0.7975 0.0258
C225 C 0.0601(4) 0.7658(3) 0.1093(2)
C226 C 0.0963(3) 0.7085(3) 0.15251(19)
C227 C 0.0676(3) 0.6719(2) 0.30617(17)
C228 C 0.0999(3) 0.6654(2) 0.25250(17)
H96 H 0.1480 0.6235 0.2456
C229 C 0.0649(3) 0.7175(3) 0.20844(19)
C230 C -0.0043(4) 0.7798(3) 0.2195(2)
C231 C -0.0382(4) 0.7849(3) 0.2740(2)
H97 H -0.0864 0.8265 0.2810
C232 C -0.0056(3) 0.7337(3) 0.3163(2)
H98 H -0.0310 0.7383 0.3529
C233 C -0.0089(5) 0.8294(4) 0.1224(3)
H99 H -0.0327 0.8684 0.0935
C234 C -0.0405(5) 0.8353(4) 0.1740(3)
H100 H -0.0883 0.8773 0.1811
N1 N 0.1943(2) 0.4693(2) 0.49038(14)
N2 N 0.4095(2) 0.3823(2) 0.01676(14)
C61? C 0.5247(19) 0.3211(15) 0.3056(9)
C62? C 0.5109(19) 0.2885(13) 0.3607(11)
C63? C 0.4260(15) 0.3171(12) 0.3912(10)
C64? C 0.3627(14) 0.3790(16) 0.3701(10)
C65? C 0.3814(13) 0.4180(17) 0.3133(9)
C66? C 0.4581(17) 0.3872(16) 0.2831(9)
C67? C 0.4621(17) 0.3896(17) 0.2256(10)
C68? C 0.5248(19) 0.3208(14) 0.2137(10)
C69? C 0.567(3) 0.2809(14) 0.2627(12)
C70? C 0.589(2) 0.2038(13) 0.2782(9)
C71? C 0.570(2) 0.1694(14) 0.3369(9)
C72? C 0.5353(17) 0.2069(13) 0.3779(10)
C73? C 0.4629(17) 0.1857(13) 0.4186(12)
C74? C 0.4001(15) 0.2540(13) 0.4279(16)
C75? C 0.3100(14) 0.2590(13) 0.4371(12)
C76? C 0.2436(18) 0.3244(14) 0.4134(14)
C77? C 0.2694(16) 0.3848(16) 0.3805(11)
C78? C 0.2317(18) 0.421(2) 0.3307(10)
C79? C 0.2987(15) 0.4425(17) 0.2896(9)
C80? C 0.3014(17) 0.445(2) 0.2347(11)
C81? C 0.3850(15) 0.4172(17) 0.2028(11)
C82? C 0.3723(15) 0.3719(15) 0.1684(12)
C83? C 0.4289(16) 0.3070(13) 0.1573(15)
C84? C 0.5127(17) 0.2783(13) 0.1804(12)
C85? C 0.538(2) 0.1972(14) 0.1961(13)
C86? C 0.574(3) 0.1609(16) 0.2440(10)
C87? C 0.546(2) 0.0987(19) 0.2806(10)
C88? C 0.546(2) 0.1013(17) 0.3376(9)
C89? C 0.4811(16) 0.0776(16) 0.3760(10)
C90? C 0.4402(16) 0.1216(16) 0.4174(14)
C91? C 0.3451(15) 0.1282(15) 0.4239(13)
C92? C 0.2865(16) 0.1920(13) 0.4360(16)
C93? C 0.2026(18) 0.2168(13) 0.4136(12)
C94? C 0.178(2) 0.2983(14) 0.3970(13)
C95? C 0.136(2) 0.3371(15) 0.3511(9)
C96? C 0.165(2) 0.4009(18) 0.3156(9)
C97? C 0.173(2) 0.3944(17) 0.2593(9)
C98? C 0.2356(16) 0.4180(16) 0.2201(10)
C99? C 0.2788(16) 0.3723(17) 0.1794(14)
C100? C 0.2561(17) 0.3085(13) 0.1768(13)
C101? C 0.3166(15) 0.2397(13) 0.1665(17)
C102? C 0.4059(14) 0.2392(13) 0.1565(12)
C103? C 0.4710(18) 0.1724(14) 0.1795(13)
C104? C 0.4415(16) 0.1141(17) 0.2141(11)
C105? C 0.4802(19) 0.079(2) 0.2647(10)
C106? C 0.4130(15) 0.0557(18) 0.3052(9)
C107? C 0.4119(16) 0.055(2) 0.3597(11)
C108? C 0.3279(15) 0.0829(17) 0.3919(12)
C109? C 0.2492(17) 0.1055(16) 0.3696(10)
C110? C 0.1847(19) 0.1745(13) 0.3821(10)
C111? C 0.149(3) 0.2160(13) 0.3316(10)
C112? C 0.124(2) 0.2931(12) 0.3159(9)
C113? C 0.144(2) 0.3278(14) 0.2575(9)
C114? C 0.1841(17) 0.2868(13) 0.2181(10)
C115? C 0.205(2) 0.2054(13) 0.2342(11)
C116? C 0.2871(15) 0.1755(12) 0.2008(10)
C117? C 0.3487(15) 0.1133(17) 0.2239(10)
C118? C 0.3303(14) 0.0787(17) 0.2816(9)
C119? C 0.2511(17) 0.1046(15) 0.3117(9)
C120? C 0.1868(19) 0.1726(13) 0.2890(9)
C235? C -0.1533(14) 0.4029(9) 0.4020(10)
H101? H -0.1107 0.4287 0.3784
H102? H -0.1989 0.4383 0.4216
H103? H -0.1812 0.3837 0.3793
C236? C -0.0678(13) 0.2713(11) 0.4200(9)
H104? H -0.0239 0.2800 0.3880
H105? H -0.1140 0.2554 0.4092
H106? H -0.0389 0.2318 0.4487
C237? C -0.1762(14) 0.325(2) 0.4945(7)
H107? H -0.1457 0.2830 0.5213
H108? H -0.2248 0.3113 0.4844
H109? H -0.2000 0.3698 0.5106
loop_
_geom_bond_atom_site_label_1
_geom_bond_atom_site_label_2
_geom_bond_site_symmetry_1
_geom_bond_site_symmetry_2
C1 C2 1_555 1_555
C2 C3 1_555 1_555
C3 C4 1_555 1_555
C4 C5 1_555 1_555
C5 C6 1_555 1_555
C6 C1 1_555 1_555
C7 C6 1_555 1_555
C8 C7 1_555 1_555
C9 C1 1_555 1_555
C10 C9 1_555 1_555
C11 C10 1_555 1_555
C12 C2 1_555 1_555
C13 C12 1_555 1_555
C14 C3 1_555 1_555
C15 C14 1_555 1_555
C16 C15 1_555 1_555
C17 C4 1_555 1_555
C18 C17 1_555 1_555
C19 C5 1_555 1_555
C20 C19 1_555 1_555
C21 C7 1_555 1_555
C22 C21 1_555 1_555
C23 C22 1_555 1_555
C24 C8 1_555 1_555
C25 C24 1_555 1_555
C26 C10 1_555 1_555
C27 C26 1_555 1_555
C28 C11 1_555 1_555
C29 C28 1_555 1_555
C30 C13 1_555 1_555
C31 C30 1_555 1_555
C32 C15 1_555 1_555
C33 C32 1_555 1_555
C34 C16 1_555 1_555
C35 C34 1_555 1_555
C36 C18 1_555 1_555
C37 C36 1_555 1_555
C38 C20 1_555 1_555
C39 C22 1_555 1_555
C40 C39 1_555 1_555
C41 C40 1_555 1_555
C42 C23 1_555 1_555
C43 C25 1_555 1_555
C44 C43 1_555 1_555
C45 C27 1_555 1_555
C46 C45 1_555 1_555
C47 C29 1_555 1_555
C48 C31 1_555 1_555
C49 C48 1_555 1_555
C50 C33 1_555 1_555
C51 C50 1_555 1_555
C52 C35 1_555 1_555
C53 C37 1_555 1_555
C54 C40 1_555 1_555
C55 C54 1_555 1_555
C56 C41 1_555 1_555
C57 C44 1_555 1_555
C58 C46 1_555 1_555
C59 C49 1_555 1_555
C60 C51 1_555 1_555
C121 C122 1_555 1_555
C122 H1 1_555 1_555
C123 C122 1_555 1_555
C124 C123 1_555 1_555
C125 C124 1_555 1_555
C126 C121 1_555 1_555
H2 C126 1_555 1_555
C127 H3 1_555 1_555
C128 C127 1_555 1_555
C129 C128 1_555 1_555
H4 C129 1_555 1_555
C130 C129 1_555 1_555
C131 C130 1_555 1_555
C132 C123 1_555 1_555
C133 C125 1_555 1_555
C134 C133 1_555 1_555
C135 C134 1_555 1_555
C136 C135 1_555 1_555
H5 C136 1_555 1_555
C137 C136 1_555 1_555
C138 C133 1_555 1_555
H6 C138 1_555 1_555
C139 C131 1_555 1_555
C140 C139 1_555 1_555
C141 C140 1_555 1_555
C142 C134 1_555 1_555
C143 C130 1_555 1_555
C144 C143 1_555 1_555
H7 C144 1_555 1_555
C145 C144 1_555 1_555
C146 C145 1_555 1_555
H8 C146 1_555 1_555
C147 C146 1_555 1_555
C148 C140 1_555 1_555
C149 C135 1_555 1_555
C150 C141 1_555 1_555
C151 C147 1_555 1_555
C152 C151 1_555 1_555
H9 C152 1_555 1_555
C153 C152 1_555 1_555
C154 C149 1_555 1_555
H10 C154 1_555 1_555
C155 C128 1_555 1_555
C156 C155 1_555 1_555
H11 C156 1_555 1_555
H12 C156 1_555 1_555
H13 C156 1_555 1_555
C157 C155 1_555 1_555
H14 C157 1_555 1_555
H15 C157 1_555 1_555
H16 C157 1_555 1_555
C158 C155 1_555 1_555
H17 C158 1_555 1_555
H18 C158 1_555 1_555
H19 C158 1_555 1_555
C159 C145 1_555 1_555
C160 C159 1_555 1_555
H20 C160 1_555 1_555
H21 C160 1_555 1_555
H22 C160 1_555 1_555
C161 C159 1_555 1_555
H23 C161 1_555 1_555
H24 C161 1_555 1_555
H25 C161 1_555 1_555
C162 C159 1_555 1_555
H26 C162 1_555 1_555
H27 C162 1_555 1_555
H28 C162 1_555 1_555
C163 C153 1_555 1_555
C164 C163 1_555 1_555
H29 C164 1_555 1_555
H30 C164 1_555 1_555
H31 C164 1_555 1_555
C165 C163 1_555 1_555
H32 C165 1_555 1_555
H33 C165 1_555 1_555
H34 C165 1_555 1_555
C166 C163 1_555 1_555
H35 C166 1_555 1_555
H36 C166 1_555 1_555
H37 C166 1_555 1_555
C167 C137 1_555 1_555
C168 C167 1_555 1_555
H38 C168 1_555 1_555
H39 C168 1_555 1_555
H40 C168 1_555 1_555
C169 C167 1_555 1_555
H41 C169 1_555 1_555
H42 C169 1_555 1_555
H43 C169 1_555 1_555
C170 C167 1_555 1_555
H44 C170 1_555 1_555
H45 C170 1_555 1_555
H46 C170 1_555 1_555
C171 C172 1_555 1_555
C172 H47 1_555 1_555
C173 C172 1_555 1_555
C174 C173 1_555 1_555
C175 C174 1_555 1_555
C176 C171 1_555 1_555
H48 C176 1_555 1_555
C177 H49 1_555 1_555
C178 C177 1_555 1_555
C179 C178 1_555 1_555
H50 C179 1_555 1_555
C180 C179 1_555 1_555
C181 C180 1_555 1_555
C182 C173 1_555 1_555
C183 C175 1_555 1_555
C184 C183 1_555 1_555
C185 C184 1_555 1_555
C186 C185 1_555 1_555
H51 C186 1_555 1_555
C187 C186 1_555 1_555
C188 C183 1_555 1_555
H52 C188 1_555 1_555
C189 C181 1_555 1_555
C190 C189 1_555 1_555
C191 C190 1_555 1_555
C192 C184 1_555 1_555
C193 C180 1_555 1_555
C194 C193 1_555 1_555
H53 C194 1_555 1_555
C195 C194 1_555 1_555
C196 C195 1_555 1_555
H54 C196 1_555 1_555
C197 C196 1_555 1_555
C198 C190 1_555 1_555
C199 C185 1_555 1_555
C200 C191 1_555 1_555
C201 C197 1_555 1_555
C202 C201 1_555 1_555
H55 C202 1_555 1_555
C203 C202 1_555 1_555
C204 C199 1_555 1_555
H56 C204 1_555 1_555
C205 C178 1_555 1_555
C206 C205 1_555 1_555
H57 C206 1_555 1_555
H58 C206 1_555 1_555
H59 C206 1_555 1_555
C207 C205 1_555 1_555
H60 C207 1_555 1_555
H61 C207 1_555 1_555
H62 C207 1_555 1_555
C208 C205 1_555 1_555
H63 C208 1_555 1_555
H64 C208 1_555 1_555
H65 C208 1_555 1_555
C209 C195 1_555 1_555
C210 C209 1_555 1_555
H66 C210 1_555 1_555
H67 C210 1_555 1_555
H68 C210 1_555 1_555
C211 C209 1_555 1_555
H69 C211 1_555 1_555
H70 C211 1_555 1_555
H71 C211 1_555 1_555
C212 C209 1_555 1_555
H72 C212 1_555 1_555
H73 C212 1_555 1_555
H74 C212 1_555 1_555
C213 C203 1_555 1_555
C214 C213 1_555 1_555
H75 C214 1_555 1_555
H76 C214 1_555 1_555
H77 C214 1_555 1_555
C215 C213 1_555 1_555
H78 C215 1_555 1_555
H79 C215 1_555 1_555
H80 C215 1_555 1_555
C216 C213 1_555 1_555
H81 C216 1_555 1_555
H82 C216 1_555 1_555
H83 C216 1_555 1_555
C217 C187 1_555 1_555
C218 C217 1_555 1_555
H84 C218 1_555 1_555
H85 C218 1_555 1_555
H86 C218 1_555 1_555
C219 C217 1_555 1_555
H87 C219 1_555 1_555
H88 C219 1_555 1_555
H89 C219 1_555 1_555
C220 C217 1_555 1_555
H90 C220 1_555 1_555
H91 C220 1_555 1_555
H92 C220 1_555 1_555
C221 H93 1_555 1_555
C222 C171 1_555 1_555
C223 C222 1_555 1_555
H94 C223 1_555 1_555
C224 C223 1_555 1_555
H95 C224 1_555 1_555
C225 C224 1_555 1_555
C226 C221 1_555 1_555
C227 C121 1_555 1_555
C228 C227 1_555 1_555
H96 C228 1_555 1_555
C229 C226 1_555 1_555
C230 C229 1_555 1_555
C231 C230 1_555 1_555
H97 C231 1_555 1_555
C232 C227 1_555 1_555
H98 C232 1_555 1_555
C233 C225 1_555 1_555
H99 C233 1_555 1_555
C234 C230 1_555 1_555
H100 C234 1_555 1_555
N1 C124 1_555 1_555
N2 C174 1_555 1_555
C8 C9 1_555 1_555
C11 C12 1_555 1_555
C13 C14 1_555 1_555
C16 C17 1_555 1_555
C18 C19 1_555 1_555
C20 C21 1_555 1_555
C23 C24 1_555 1_555
C25 C26 1_555 1_555
C27 C28 1_555 1_555
C29 C30 1_555 1_555
C31 C32 1_555 1_555
C33 C34 1_555 1_555
C35 C36 1_555 1_555
C37 C38 1_555 1_555
C38 C39 1_555 1_555
C41 C42 1_555 1_555
C42 C43 1_555 1_555
C44 C45 1_555 1_555
C46 C47 1_555 1_555
C47 C48 1_555 1_555
C49 C50 1_555 1_555
C51 C52 1_555 1_555
C52 C53 1_555 1_555
C53 C54 1_555 1_555
C55 C56 1_555 1_555
C55 C60 1_555 1_555
C56 C57 1_555 1_555
C57 C58 1_555 1_555
C58 C59 1_555 1_555
C59 C60 1_555 1_555
C125 C126 1_555 1_555
C127 C132 1_555 1_555
C131 C132 1_555 1_555
C137 C138 1_555 1_555
C139 N1 1_555 1_555
C141 C142 1_555 1_555
C142 N1 1_555 1_555
C143 C148 1_555 1_555
C147 C148 1_555 1_555
C149 C150 1_555 1_555
C150 C151 1_555 1_555
C153 C154 1_555 1_555
C175 C176 1_555 1_555
C177 C182 1_555 1_555
C181 C182 1_555 1_555
C187 C188 1_555 1_555
C189 N2 1_555 1_555
C191 C192 1_555 1_555
C192 N2 1_555 1_555
C193 C198 1_555 1_555
C197 C198 1_555 1_555
C199 C200 1_555 1_555
C200 C201 1_555 1_555
C203 C204 1_555 1_555
C221 C222 1_555 1_555
C225 C226 1_555 1_555
C228 C229 1_555 1_555
C231 C232 1_555 1_555
C233 C234 1_555 1_555

#END
