
#######################################################################
#
#                 Cambridge Crystallographic Data Centre
#                                CCDC 
#
#######################################################################
#
# If this CIF has been generated from an entry in the Cambridge 
# Structural Database, then it will include bibliographic, chemical, 
# crystal, experimental, refinement or atomic coordinate data resulting 
# from the CCDC's data processing and validation procedures.
#
#######################################################################

data_LICZUT
_chemical_formula_moiety         'C17 H21 N1 O5'
_chemical_name_systematic        
't-Butyl 6-oxo-3-phenylhexahydro-4H-furo(3,2-b)(1,4)oxazine-4-carboxylate'
_symmetry_cell_setting           orthorhombic
_symmetry_space_group_name_H-M   'P 21 21 21'
_symmetry_Int_Tables_number      19
_space_group_name_Hall           'P 2ac 2ab'
loop_
_symmetry_equiv_pos_site_id
_symmetry_equiv_pos_as_xyz
1 x,y,z
2 1/2-x,-y,1/2+z
3 -x,1/2+y,1/2-z
4 1/2+x,1/2-y,-z
_cell_length_a                   5.7729(7)
_cell_length_b                   11.5032(14)
_cell_length_c                   25.161(3)
_cell_angle_alpha                90
_cell_angle_beta                 90
_cell_angle_gamma                90
_cell_volume                     1670.86
_exptl_crystal_colour            colorless
_exptl_crystal_description       block
_chemical_melting_point          132-134deg.C
_cell_formula_units_Z            4
loop_
_atom_site_label
_atom_site_type_symbol
_atom_site_fract_x
_atom_site_fract_y
_atom_site_fract_z
O1 O 0.3191(3) 0.40317(10) 0.99502(5)
O2 O 0.0014(2) 0.62583(9) 0.85023(4)
O3 O -0.1076(3) 0.44143(11) 0.83018(5)
O4 O -0.0332(2) 0.61610(10) 0.97243(5)
O5 O -0.1058(4) 0.68353(13) 1.05306(6)
N1 N 0.0845(3) 0.48140(11) 0.90659(5)
C1 C 0.2070(3) 0.27417(13) 0.89594(6)
C2 C 0.1524(3) 0.15635(14) 0.89889(7)
H1 H 0.0173 0.1331 0.9160
C3 C 0.2964(4) 0.07394(16) 0.87675(7)
H2 H 0.2586 -0.0044 0.8793
C4 C 0.4949(4) 0.10682(17) 0.85099(7)
H3 H 0.5915 0.0510 0.8361
C5 C 0.5508(4) 0.22301(17) 0.84723(8)
H4 H 0.6852 0.2456 0.8297
C6 C 0.4071(3) 0.30635(15) 0.86960(7)
H5 H 0.4457 0.3846 0.8669
C7 C 0.0513(3) 0.35994(13) 0.92442(6)
H6 H -0.1102 0.3379 0.9179
C8 C 0.0951(4) 0.35704(15) 0.98407(6)
H7 H -0.0218 0.4027 1.0023
H8 H 0.0854 0.2776 0.9969
C9 C -0.0174(3) 0.51174(14) 0.85891(6)
C10 C -0.1150(4) 0.68070(17) 0.80427(7)
C11 C -0.0205(5) 0.6331(2) 0.75306(7)
H9 H -0.0683 0.5536 0.7490
H10 H 0.1456 0.6370 0.7536
H11 H -0.0785 0.6782 0.7238
C12 C -0.3730(4) 0.6655(3) 0.80907(12)
H12 H -0.4213 0.6861 0.8443
H13 H -0.4128 0.5859 0.8022
H14 H -0.4494 0.7148 0.7838
C13 C -0.0414(6) 0.80714(19) 0.81070(10)
H15 H 0.1245 0.8122 0.8098
H16 H -0.0972 0.8363 0.8441
H17 H -0.1052 0.8526 0.7822
C14 C 0.1645(3) 0.56731(13) 0.94237(6)
H18 H 0.2387 0.6298 0.9221
C15 C 0.3340(3) 0.52377(15) 0.98496(6)
H19 H 0.4926 0.5433 0.9744
C16 C 0.2676(4) 0.59494(15) 1.03337(7)
H20 H 0.2725 0.5474 1.0652
H21 H 0.3729 0.6599 1.0378
C17 C 0.0277(4) 0.63714(15) 1.02331(7)
loop_
_geom_bond_atom_site_label_1
_geom_bond_atom_site_label_2
_geom_bond_site_symmetry_1
_geom_bond_site_symmetry_2
O1 C8 1_555 1_555
O2 C9 1_555 1_555
O3 C9 1_555 1_555
O4 C14 1_555 1_555
O5 C17 1_555 1_555
N1 C7 1_555 1_555
C1 C2 1_555 1_555
C2 H1 1_555 1_555
C3 C2 1_555 1_555
H2 C3 1_555 1_555
C4 C3 1_555 1_555
H3 C4 1_555 1_555
C5 C4 1_555 1_555
H4 C5 1_555 1_555
C6 C1 1_555 1_555
H5 C6 1_555 1_555
C7 C1 1_555 1_555
H6 C7 1_555 1_555
C8 C7 1_555 1_555
H7 C8 1_555 1_555
H8 C8 1_555 1_555
C9 N1 1_555 1_555
C10 O2 1_555 1_555
C11 C10 1_555 1_555
H9 C11 1_555 1_555
H10 C11 1_555 1_555
H11 C11 1_555 1_555
C12 C10 1_555 1_555
H12 C12 1_555 1_555
H13 C12 1_555 1_555
H14 C12 1_555 1_555
C13 C10 1_555 1_555
H15 C13 1_555 1_555
H16 C13 1_555 1_555
H17 C13 1_555 1_555
C14 N1 1_555 1_555
H18 C14 1_555 1_555
C15 O1 1_555 1_555
H19 C15 1_555 1_555
C16 C15 1_555 1_555
H20 C16 1_555 1_555
H21 C16 1_555 1_555
C17 O4 1_555 1_555
C5 C6 1_555 1_555
C14 C15 1_555 1_555
C16 C17 1_555 1_555

#END
