
#######################################################################
#
#                 Cambridge Crystallographic Data Centre
#                                CCDC 
#
#######################################################################
#
# If this CIF has been generated from an entry in the Cambridge 
# Structural Database, then it will include bibliographic, chemical, 
# crystal, experimental, refinement or atomic coordinate data resulting 
# from the CCDC's data processing and validation procedures.
#
#######################################################################

data_LIDBOS
_chemical_formula_moiety         'C16 H18 N2 O4'
_chemical_name_systematic        
'ethyl (acetylamino)(2-methyl-5-phenyl-1,3-oxazol-4-yl)acetate'
_symmetry_cell_setting           triclinic
_symmetry_space_group_name_H-M   'P -1'
_symmetry_Int_Tables_number      2
_space_group_name_Hall           '-P 1'
loop_
_symmetry_equiv_pos_site_id
_symmetry_equiv_pos_as_xyz
1 x,y,z
2 -x,-y,-z
_cell_length_a                   8.4668(8)
_cell_length_b                   9.3725(8)
_cell_length_c                   10.3302(9)
_cell_angle_alpha                113.043(2)
_cell_angle_beta                 91.557(3)
_cell_angle_gamma                93.085(3)
_cell_volume                     752.215
_exptl_crystal_colour            yellow
_exptl_crystal_description       platy
_cell_formula_units_Z            2
loop_
_atom_site_label
_atom_site_type_symbol
_atom_site_fract_x
_atom_site_fract_y
_atom_site_fract_z
C1 C 0.3197(2) 0.53439(18) 0.34308(17)
C2 C 0.1554(2) 0.52943(18) 0.32343(18)
H1 H 0.1046 0.4627 0.2358
C3 C 0.3031(2) 0.72545(19) 0.57846(18)
H2 H 0.3534 0.7926 0.6662
C4 C 0.3936(2) 0.63498(18) 0.47085(17)
H3 H 0.5057 0.6416 0.4842
C5 C 0.1400(2) 0.7189(2) 0.55929(18)
H4 H 0.0788 0.7811 0.6337
C6 C 0.0661(2) 0.6216(2) 0.43134(19)
H5 H -0.0457 0.6179 0.4176
C7 C 0.41168(19) 0.43158(18) 0.23082(17)
C8 C 0.6189(2) 0.37036(19) 0.10535(18)
C9 C 0.7779(2) 0.3985(2) 0.0599(2)
H6 H 0.8252 0.2991 0.0130
H7 H 0.8455 0.4648 0.1423
H8 H 0.7681 0.4503 -0.0058
C10 C 0.39201(19) 0.28259(18) 0.13689(16)
O1 O 0.55909(14) 0.48969(13) 0.21120(12)
N1 N 0.52582(17) 0.24476(16) 0.05693(14)
C11 C 0.26212(19) 0.16074(17) 0.12032(16)
H9 H 0.1805 0.2111 0.1886
C12 C 0.3088(2) 0.04199(19) 0.28662(17)
C13 C 0.3713(2) -0.0924(2) 0.31182(19)
H10 H 0.4580 -0.0543 0.3844
H11 H 0.4105 -0.1664 0.2242
H12 H 0.2862 -0.1442 0.3433
N2 N 0.31835(17) 0.03607(15) 0.15416(14)
H13 H 0.3587 -0.0435 0.0888
O2 O 0.24994(16) 0.14888(15) 0.37913(12)
C14 C 0.18124(19) 0.09506(18) -0.02637(17)
O3 O 0.13712(14) 0.21092(13) -0.06123(11)
O4 O 0.15842(16) -0.04071(14) -0.09902(12)
C15 C 0.0647(2) 0.1656(2) -0.20284(17)
H14 H -0.0046 0.2467 -0.2045
H15 H -0.0017 0.0673 -0.2284
C16 C 0.1892(2) 0.1440(2) -0.30849(19)
H16 H 0.2596 0.2389 -0.2795
H17 H 0.1382 0.1226 -0.4012
H18 H 0.2509 0.0566 -0.3138
loop_
_geom_bond_atom_site_label_1
_geom_bond_atom_site_label_2
_geom_bond_site_symmetry_1
_geom_bond_site_symmetry_2
C1 C2 1_555 1_555
C2 H1 1_555 1_555
C3 H2 1_555 1_555
C4 C1 1_555 1_555
H3 C4 1_555 1_555
C5 C3 1_555 1_555
H4 C5 1_555 1_555
C6 C2 1_555 1_555
H5 C6 1_555 1_555
C7 C1 1_555 1_555
C8 C9 1_555 1_555
C9 H6 1_555 1_555
H7 C9 1_555 1_555
H8 C9 1_555 1_555
C10 C7 1_555 1_555
O1 C7 1_555 1_555
N1 C8 1_555 1_555
C11 C10 1_555 1_555
H9 C11 1_555 1_555
C12 C13 1_555 1_555
C13 H10 1_555 1_555
H11 C13 1_555 1_555
H12 C13 1_555 1_555
N2 C11 1_555 1_555
H13 N2 1_555 1_555
O2 C12 1_555 1_555
C14 C11 1_555 1_555
O3 C14 1_555 1_555
O4 C14 1_555 1_555
C15 O3 1_555 1_555
H14 C15 1_555 1_555
H15 C15 1_555 1_555
C16 C15 1_555 1_555
H16 C16 1_555 1_555
H17 C16 1_555 1_555
H18 C16 1_555 1_555
C3 C4 1_555 1_555
C5 C6 1_555 1_555
C8 O1 1_555 1_555
C10 N1 1_555 1_555
C12 N2 1_555 1_555

#END
