
#######################################################################
#
#                 Cambridge Crystallographic Data Centre
#                                CCDC 
#
#######################################################################
#
# If this CIF has been generated from an entry in the Cambridge 
# Structural Database, then it will include bibliographic, chemical, 
# crystal, experimental, refinement or atomic coordinate data resulting 
# from the CCDC's data processing and validation procedures.
#
#######################################################################

data_LIDCAD
_chemical_formula_moiety         'C14 H10 Cl1 N5 O1 S1'
_chemical_name_systematic        
1-(4-Chlorophenyl)-3-(5-(pyridin-4-yl)-1,3,4-thiadiazol-2-yl)urea
_chemical_properties_biological  
'fungicidal activity against Rhizoctonia solani, Botrytis cinerea, Dothiorella gregaria,Fusarium oxysporium, Gibberella zeae and Colletotrichum gossypii'
_symmetry_cell_setting           triclinic
_symmetry_space_group_name_H-M   'P -1'
_symmetry_Int_Tables_number      2
_space_group_name_Hall           '-P 1'
loop_
_symmetry_equiv_pos_site_id
_symmetry_equiv_pos_as_xyz
1 x,y,z
2 -x,-y,-z
_cell_length_a                   5.8550(8)
_cell_length_b                   7.5668(10)
_cell_length_c                   16.416(2)
_cell_angle_alpha                78.364(2)
_cell_angle_beta                 81.204(2)
_cell_angle_gamma                84.749(2)
_cell_volume                     702.579
_exptl_crystal_colour            colorless
_exptl_crystal_description       plate
_chemical_melting_point          'above 573 K'
_cell_formula_units_Z            2
_exptl_crystal_recrystallization_method dmf
loop_
_atom_site_label
_atom_site_type_symbol
_atom_site_fract_x
_atom_site_fract_y
_atom_site_fract_z
C1 C -0.0431(6) 0.3934(5) 0.37561(18)
H1 H -0.1591 0.4590 0.3473
C2 C -0.0868(7) 0.3270(5) 0.4610(2)
H2 H -0.2336 0.3514 0.4887
C3 C 0.2718(7) 0.2030(5) 0.4634(2)
H3 H 0.3847 0.1371 0.4931
C4 C 0.3318(6) 0.2635(4) 0.37851(18)
H4 H 0.4803 0.2374 0.3526
C5 C 0.1723(5) 0.3618(3) 0.33285(15)
C6 C 0.2259(4) 0.4271(3) 0.24168(16)
C7 C 0.2432(4) 0.5538(3) 0.09729(15)
C8 C 0.0390(4) 0.7482(3) -0.00995(15)
C9 C -0.0728(4) 0.9199(3) -0.14590(15)
C10 C -0.2950(4) 0.9835(3) -0.11744(16)
H5 H -0.3523 0.9584 -0.0606
C11 C -0.4301(5) 1.0843(3) -0.17428(16)
H6 H -0.5790 1.1271 -0.1557
C12 C -0.3444(5) 1.1217(3) -0.25871(16)
C13 C -0.1216(5) 1.0628(3) -0.28740(16)
H7 H -0.0634 1.0908 -0.3441
C14 C 0.0115(4) 0.9629(4) -0.23107(15)
H8 H 0.1614 0.9229 -0.2500
Cl1 Cl -0.51874(13) 1.24275(11) -0.33071(5)
N1 N 0.0661(6) 0.2317(4) 0.50533(17)
N2 N 0.4207(4) 0.3807(3) 0.19867(13)
N3 N 0.4296(4) 0.4546(3) 0.11469(13)
N4 N 0.2246(4) 0.6357(3) 0.01616(13)
H9 H 0.3373 0.6156 -0.0217
N5 N 0.0759(4) 0.8116(3) -0.09437(12)
H10 H 0.2091 0.7807 -0.1195
O1 O -0.1301(3) 0.7824(3) 0.03806(11)
S1 S 0.03486(11) 0.56672(9) 0.18213(4)
loop_
_geom_bond_atom_site_label_1
_geom_bond_atom_site_label_2
_geom_bond_site_symmetry_1
_geom_bond_site_symmetry_2
C1 H1 1_555 1_555
C2 C1 1_555 1_555
H2 C2 1_555 1_555
C3 H3 1_555 1_555
C4 C3 1_555 1_555
H4 C4 1_555 1_555
C5 C1 1_555 1_555
C6 C5 1_555 1_555
C7 N3 1_555 1_555
C8 N4 1_555 1_555
C9 C10 1_555 1_555
C10 H5 1_555 1_555
C11 C10 1_555 1_555
H6 C11 1_555 1_555
C12 C11 1_555 1_555
C13 C12 1_555 1_555
H7 C13 1_555 1_555
C14 C9 1_555 1_555
H8 C14 1_555 1_555
Cl1 C12 1_555 1_555
N1 C2 1_555 1_555
N2 C6 1_555 1_555
N3 N2 1_555 1_555
N4 C7 1_555 1_555
H9 N4 1_555 1_555
N5 C8 1_555 1_555
H10 N5 1_555 1_555
O1 C8 1_555 1_555
S1 C6 1_555 1_555
C3 N1 1_555 1_555
C4 C5 1_555 1_555
C7 S1 1_555 1_555
C9 N5 1_555 1_555
C13 C14 1_555 1_555

#END
