
#######################################################################
#
#                 Cambridge Crystallographic Data Centre
#                                CCDC 
#
#######################################################################
#
# If this CIF has been generated from an entry in the Cambridge 
# Structural Database, then it will include bibliographic, chemical, 
# crystal, experimental, refinement or atomic coordinate data resulting 
# from the CCDC's data processing and validation procedures.
#
#######################################################################

data_LIDCEH
_chemical_formula_moiety         'C14 H18 Cl1 N3 O3 S1'
_chemical_name_systematic        
N-t-Butylaminocarbonyl-N-2-chlorophenoxyacetylthiourea
_chemical_properties_biological  
'antiproliferation and apoptosis activity against K562 cells (chronic myeloid leukaemic cells)'
_symmetry_cell_setting           orthorhombic
_symmetry_space_group_name_H-M   'P n m a'
_symmetry_Int_Tables_number      62
_space_group_name_Hall           '-P 2ac 2n'
loop_
_symmetry_equiv_pos_site_id
_symmetry_equiv_pos_as_xyz
1 x,y,z
2 1/2-x,-y,1/2+z
3 -x,1/2+y,-z
4 1/2+x,1/2-y,1/2-z
5 -x,-y,-z
6 1/2+x,y,1/2-z
7 x,1/2-y,z
8 1/2-x,1/2+y,1/2+z
_cell_length_a                   19.786(6)
_cell_length_b                   6.789(2)
_cell_length_c                   12.938(4)
_cell_angle_alpha                90
_cell_angle_beta                 90
_cell_angle_gamma                90
_cell_volume                     1737.92
_chemical_melting_point          172-175deg.C
_cell_formula_units_Z            4
_exptl_crystal_recrystallization_method ethanol
loop_
_atom_site_label
_atom_site_type_symbol
_atom_site_fract_x
_atom_site_fract_y
_atom_site_fract_z
Cl1 Cl 0.35849(4) 0.2500 0.86955(7)
S1 S 0.44305(4) 0.2500 0.53759(6)
N1 N 0.31263(11) 0.2500 0.56427(19)
N2 N 0.34383(13) 0.2500 0.39426(17)
N3 N 0.44556(13) 0.2500 0.30110(19)
O1 O 0.24867(10) 0.2500 0.73099(16)
O2 O 0.21667(10) 0.2500 0.46604(16)
O3 O 0.34436(10) 0.2500 0.22144(15)
C1 C 0.27457(14) 0.2500 0.9056(2)
C2 C 0.25736(16) 0.2500 1.0081(2)
H1 H 0.2908 0.2500 1.0585
C3 C 0.19071(18) 0.2500 1.0359(2)
H2 H 0.1788 0.2500 1.1054
C4 C 0.14158(16) 0.2500 0.9620(3)
H3 H 0.0963 0.2500 0.9815
C5 C 0.15826(14) 0.2500 0.8590(2)
H4 H 0.1246 0.2500 0.8089
C6 C 0.22551(14) 0.2500 0.8306(2)
C7 C 0.20355(14) 0.2500 0.6479(2)
H5 H 0.1749 0.3659 0.6506
H6 H 0.1749 0.1341 0.6506
C8 C 0.24451(13) 0.2500 0.5493(2)
C9 C 0.36502(13) 0.2500 0.4931(2)
C10 C 0.37901(15) 0.2500 0.2983(2)
C11 C 0.49126(14) 0.2500 0.2119(2)
C12 C 0.47995(13) 0.0654(5) 0.1485(2)
H7 H 0.4854 -0.0483 0.1919
H8 H 0.5122 0.0605 0.0932
H9 H 0.4351 0.0669 0.1204
C13 C 0.56286(14) 0.2500 0.2549(3)
H12 H 0.5702 0.3682 0.2940
H13 H 0.4652(13) 0.2500 0.355(2)
H14 H 0.3266(14) 0.2500 0.623(2)
H15 H 0.3009(15) 0.2500 0.387(2)
C12F C 0.47995(13) 0.4346(5) 0.1485(2)
H7F H 0.4854 0.5483 0.1919
H8F H 0.5122 0.4395 0.0932
H9F H 0.4351 0.4331 0.1204
H12F H 0.5702 0.1318 0.2940
H10? H 0.5946 0.2443 0.1988
H11? H 0.5689 0.1375 0.2988
loop_
_geom_bond_atom_site_label_1
_geom_bond_atom_site_label_2
_geom_bond_site_symmetry_1
_geom_bond_site_symmetry_2
Cl1 C1 1_555 1_555
S1 C9 1_555 1_555
N1 C8 1_555 1_555
N2 C9 1_555 1_555
N3 C10 1_555 1_555
O1 C6 1_555 1_555
O2 C8 1_555 1_555
O3 C10 1_555 1_555
C1 C2 1_555 1_555
C2 H1 1_555 1_555
C3 C2 1_555 1_555
H2 C3 1_555 1_555
C4 C3 1_555 1_555
H3 C4 1_555 1_555
C5 C4 1_555 1_555
H4 C5 1_555 1_555
C6 C1 1_555 1_555
C7 O1 1_555 1_555
H5 C7 1_555 1_555
H6 C7 1_555 1_555
C8 C7 1_555 1_555
C9 N1 1_555 1_555
C10 N2 1_555 1_555
C11 N3 1_555 1_555
C12 C11 1_555 1_555
H7 C12 1_555 1_555
H8 C12 1_555 1_555
H9 C12 1_555 1_555
C13 C11 1_555 1_555
H12 C13 1_555 1_555
H13 N3 1_555 1_555
H14 N1 1_555 1_555
H15 N2 1_555 1_555
C12F C11 1_555 1_555
H7F C12F 1_555 1_555
H8F C12F 1_555 1_555
H9F C12F 1_555 1_555
H12F C13 1_555 1_555
C5 C6 1_555 1_555

#END
