
#######################################################################
#
#                 Cambridge Crystallographic Data Centre
#                                CCDC 
#
#######################################################################
#
# If this CIF has been generated from an entry in the Cambridge 
# Structural Database, then it will include bibliographic, chemical, 
# crystal, experimental, refinement or atomic coordinate data resulting 
# from the CCDC's data processing and validation procedures.
#
#######################################################################

data_LIDHEM
_chemical_formula_moiety         'C22 H16 S1'
_chemical_name_systematic        2,5-bis(para-methylphenylethynyl)thiophene
_symmetry_cell_setting           monoclinic
_symmetry_space_group_name_H-M   'P 21/n'
_symmetry_Int_Tables_number      14
_space_group_name_Hall           '-P 2yn'
loop_
_symmetry_equiv_pos_site_id
_symmetry_equiv_pos_as_xyz
1 x,y,z
2 1/2-x,1/2+y,1/2-z
3 -x,-y,-z
4 1/2+x,1/2-y,1/2+z
_cell_length_a                   16.0717(15)
_cell_length_b                   5.0902(5)
_cell_length_c                   21.2336(19)
_cell_angle_alpha                90
_cell_angle_beta                 112.217(10)
_cell_angle_gamma                90
_cell_volume                     1608.12
_exptl_crystal_colour            'light brown'
_exptl_crystal_description       prism
_chemical_melting_point          '167.9-168.2 deg.C'
_cell_formula_units_Z            4
_exptl_crystal_recrystallization_method hexane/toluene
_exptl_crystal_preparation       fluorescent
loop_
_atom_site_label
_atom_site_type_symbol
_atom_site_fract_x
_atom_site_fract_y
_atom_site_fract_z
S1 S 0.45063(3) 0.91711(8) 0.23334(2)
C1 C 0.52393(10) 1.0970(3) 0.20831(8)
C2 C 0.51632(12) 1.0262(4) 0.14365(9)
H1 H 0.5533(13) 1.106(4) 0.1225(10)
C3 C 0.45182(12) 0.8292(4) 0.11490(9)
H2 H 0.4373(14) 0.759(4) 0.0700(11)
C4 C 0.40971(11) 0.7482(3) 0.15721(8)
C5 C 0.58067(11) 1.2895(3) 0.25284(8)
C6 C 0.62661(11) 1.4485(3) 0.29063(8)
C7 C 0.34203(11) 0.5550(3) 0.14575(8)
C8 C 0.28599(11) 0.3939(3) 0.13813(8)
C9 C 0.85960(13) 2.2149(4) 0.47319(10)
H3 H 0.8554(15) 2.210(5) 0.5175(12)
H4 H 0.9239(16) 2.180(4) 0.4794(11)
H5 H 0.8471(16) 2.387(5) 0.4544(12)
C10 C 0.68423(11) 1.6423(3) 0.33608(8)
C11 C 0.67575(12) 1.7019(4) 0.39762(9)
H6 H 0.6306(13) 1.613(4) 0.4087(10)
C12 C 0.73271(12) 1.8849(3) 0.44190(9)
H7 H 0.7274(13) 1.920(4) 0.4855(10)
C13 C 0.79826(11) 2.0148(3) 0.42577(8)
C14 C 0.80553(11) 1.9565(3) 0.36386(8)
H8 H 0.8497(14) 2.043(4) 0.3512(10)
C15 C 0.74986(12) 1.7731(3) 0.31965(8)
H9 H 0.7565(13) 1.737(4) 0.2770(10)
C16 C 0.00475(12) -0.3718(4) 0.09202(9)
H10 H -0.0364(13) -0.363(4) 0.0457(11)
H11 H -0.0297(14) -0.337(4) 0.1196(10)
H12 H 0.0297(13) -0.551(4) 0.1035(10)
C17 C 0.21708(11) 0.1981(3) 0.12767(8)
C18 C 0.18748(12) 0.1286(3) 0.17949(8)
H13 H 0.2144(13) 0.210(4) 0.2235(10)
C19 C 0.11938(12) -0.0537(3) 0.16767(8)
H14 H 0.0988(13) -0.090(4) 0.2048(10)
C20 C 0.07843(11) -0.1739(3) 0.10446(8)
C21 C 0.10907(12) -0.1061(4) 0.05326(8)
H15 H 0.0837(13) -0.186(4) 0.0094(10)
C22 C 0.17698(11) 0.0751(3) 0.06426(8)
H16 H 0.1984(12) 0.117(4) 0.0274(10)
loop_
_geom_bond_atom_site_label_1
_geom_bond_atom_site_label_2
_geom_bond_site_symmetry_1
_geom_bond_site_symmetry_2
S1 C1 1_555 1_555
C1 C2 1_555 1_555
C2 H1 1_555 1_555
C3 C2 1_555 1_555
H2 C3 1_555 1_555
C4 S1 1_555 1_555
C5 C1 1_555 1_555
C6 C5 1_555 1_555
C7 C4 1_555 1_555
C8 C7 1_555 1_555
C9 H3 1_555 1_555
H4 C9 1_555 1_555
H5 C9 1_555 1_555
C10 C6 1_555 1_555
C11 C10 1_555 1_555
H6 C11 1_555 1_555
C12 C11 1_555 1_555
H7 C12 1_555 1_555
C13 C9 1_555 1_555
C14 C13 1_555 1_555
H8 C14 1_555 1_555
C15 C10 1_555 1_555
H9 C15 1_555 1_555
C16 H10 1_555 1_555
H11 C16 1_555 1_555
H12 C16 1_555 1_555
C17 C8 1_555 1_555
C18 C17 1_555 1_555
H13 C18 1_555 1_555
C19 C18 1_555 1_555
H14 C19 1_555 1_555
C20 C16 1_555 1_555
C21 C20 1_555 1_555
H15 C21 1_555 1_555
C22 C17 1_555 1_555
H16 C22 1_555 1_555
C3 C4 1_555 1_555
C12 C13 1_555 1_555
C14 C15 1_555 1_555
C19 C20 1_555 1_555
C21 C22 1_555 1_555

#END
