
#######################################################################
#
#                 Cambridge Crystallographic Data Centre
#                                CCDC 
#
#######################################################################
#
# If this CIF has been generated from an entry in the Cambridge 
# Structural Database, then it will include bibliographic, chemical, 
# crystal, experimental, refinement or atomic coordinate data resulting 
# from the CCDC's data processing and validation procedures.
#
#######################################################################

data_LIDKIT
_chemical_formula_moiety         'C38 H34 N2 O4'
_chemical_name_systematic        
r-4-(c-2,t-4-bis(3,4-dimethoxyphenyl)-t-3-(4-quinolyl)cyclobutyl)quinoline
_symmetry_cell_setting           monoclinic
_symmetry_space_group_name_H-M   'P 21/c'
_symmetry_Int_Tables_number      14
_space_group_name_Hall           '-P 2ybc'
loop_
_symmetry_equiv_pos_site_id
_symmetry_equiv_pos_as_xyz
1 x,y,z
2 -x,1/2+y,1/2-z
3 -x,-y,-z
4 x,1/2-y,1/2+z
_cell_length_a                   10.9855(12)
_cell_length_b                   10.8828(12)
_cell_length_c                   12.2120(13)
_cell_angle_alpha                90
_cell_angle_beta                 98.282(5)
_cell_angle_gamma                90
_cell_volume                     1444.76
_exptl_crystal_colour            colorless
_exptl_crystal_description       block
_chemical_melting_point          '67-70 deg.C'
_cell_formula_units_Z            2
loop_
_atom_site_label
_atom_site_type_symbol
_atom_site_fract_x
_atom_site_fract_y
_atom_site_fract_z
O1 O 0.57384(14) 1.10315(15) 0.09818(13)
O2 O 0.49495(13) 0.97497(14) 0.25222(13)
N1 N 0.91617(16) 0.89496(17) 0.09581(14)
C1 C 1.0177(2) 0.9475(2) 0.14436(18)
C2 C 1.05550(19) 0.9508(2) 0.25987(17)
C3 C 0.98779(18) 0.89198(18) 0.33010(16)
C4 C 0.88581(18) 0.81957(18) 0.27926(16)
C5 C 0.81643(18) 0.74182(19) 0.34005(18)
C6 C 0.7115(2) 0.6864(2) 0.29033(18)
C7 C 0.6686(2) 0.7077(2) 0.17792(18)
C8 C 0.7361(2) 0.7775(2) 0.11605(18)
C9 C 0.84883(18) 0.83110(19) 0.16363(17)
C10 C 1.00107(18) 0.91263(19) 0.45308(16)
C11 C 0.89726(18) 1.00057(19) 0.49003(17)
C12 C 0.80617(18) 1.05147(19) 0.39661(17)
C13 C 0.84147(19) 1.13024(19) 0.31777(17)
C14 C 0.76589(19) 1.1511(2) 0.21744(18)
C15 C 0.65204(19) 1.0947(2) 0.19629(18)
C16 C 0.61066(18) 1.02300(19) 0.27892(18)
C17 C 0.68746(19) 1.00179(19) 0.37744(17)
C18 C 0.6274(3) 1.1402(3) 0.0031(2)
C19 C 0.4498(2) 0.8995(2) 0.3335(2)
H1 H 1.066(2) 0.990(2) 0.0970(18)
H2 H 1.125(2) 1.000(2) 0.2906(19)
H3 H 0.843(2) 0.726(2) 0.415(2)
H4 H 0.666(2) 0.635(2) 0.3314(19)
H5 H 0.592(2) 0.674(2) 0.144(2)
H6 H 0.710(2) 0.793(2) 0.044(2)
H7 H 0.999(2) 0.831(2) 0.4931(19)
H8 H 0.853(2) 0.958(2) 0.5392(18)
H9 H 0.920(2) 1.1664(19) 0.3300(17)
H10 H 0.793(2) 1.201(2) 0.159(2)
H11 H 0.658(2) 0.947(2) 0.4303(19)
H12 H 0.565(2) 1.119(2) -0.056(2)
H13 H 0.704(3) 1.093(3) -0.003(2)
H14 H 0.650(2) 1.229(2) 0.0051(19)
H15 H 0.501(2) 0.825(2) 0.351(2)
H16 H 0.449(2) 0.955(2) 0.408(2)
H17 H 0.362(3) 0.877(3) 0.306(2)
O1B O 1.42616(14) 0.89685(15) 0.90182(13)
O2B O 1.50505(13) 1.02503(14) 0.74778(13)
N1B N 1.08383(16) 1.10504(17) 0.90419(14)
C1B C 0.9823(2) 1.0525(2) 0.85564(18)
C2B C 0.94450(19) 1.0492(2) 0.74013(17)
C3B C 1.01221(18) 1.10802(18) 0.66990(16)
C4B C 1.11419(18) 1.18043(18) 0.72074(16)
C5B C 1.18357(18) 1.25818(19) 0.65995(18)
C6B C 1.2885(2) 1.3136(2) 0.70967(18)
C7B C 1.3314(2) 1.2923(2) 0.82208(18)
C8B C 1.2639(2) 1.2225(2) 0.88395(18)
C9B C 1.15117(18) 1.16890(19) 0.83637(17)
C10B C 0.99893(18) 1.08737(19) 0.54692(16)
C11B C 1.10274(18) 0.99943(19) 0.50997(17)
C12B C 1.19383(18) 0.94853(19) 0.60339(17)
C13B C 1.15853(19) 0.86976(19) 0.68223(17)
C14B C 1.23411(19) 0.8489(2) 0.78256(18)
C15B C 1.34796(19) 0.9053(2) 0.80371(18)
C16B C 1.38934(18) 0.97700(19) 0.72108(18)
C17B C 1.31254(19) 0.99821(19) 0.62256(17)
C18B C 1.3726(3) 0.8598(3) 0.9969(2)
C19B C 1.5502(2) 1.1005(2) 0.6665(2)
H1B H 0.934(2) 1.010(2) 0.9030(18)
H2B H 0.875(2) 1.000(2) 0.7094(19)
H3B H 1.157(2) 1.274(2) 0.585(2)
H4B H 1.334(2) 1.365(2) 0.6686(19)
H5B H 1.408(2) 1.326(2) 0.856(2)
H6B H 1.290(2) 1.207(2) 0.956(2)
H7B H 1.001(2) 1.169(2) 0.5069(19)
H8B H 1.147(2) 1.042(2) 0.4608(18)
H9B H 1.080(2) 0.8336(19) 0.6700(17)
H10B H 1.207(2) 0.799(2) 0.841(2)
H11B H 1.342(2) 1.053(2) 0.5697(19)
H12B H 1.435(2) 0.881(2) 1.056(2)
H13B H 1.296(3) 0.907(3) 1.003(2)
H14B H 1.350(2) 0.771(2) 0.9949(19)
H15B H 1.499(2) 1.175(2) 0.649(2)
H16B H 1.551(2) 1.045(2) 0.592(2)
H17B H 1.638(3) 1.123(3) 0.694(2)
loop_
_geom_bond_atom_site_label_1
_geom_bond_atom_site_label_2
_geom_bond_site_symmetry_1
_geom_bond_site_symmetry_2
O1 C15 1_555 1_555
O2 C16 1_555 1_555
N1 C1 1_555 1_555
C1 C2 1_555 1_555
C2 C3 1_555 1_555
C3 C4 1_555 1_555
C4 C5 1_555 1_555
C5 C6 1_555 1_555
C6 C7 1_555 1_555
C7 C8 1_555 1_555
C8 C9 1_555 1_555
C9 N1 1_555 1_555
C10 C3 1_555 1_555
C11 C10 1_555 1_555
C12 C11 1_555 1_555
C13 C12 1_555 1_555
C14 C13 1_555 1_555
C15 C14 1_555 1_555
C16 C15 1_555 1_555
C17 C12 1_555 1_555
C18 O1 1_555 1_555
C19 O2 1_555 1_555
H1 C1 1_555 1_555
H2 C2 1_555 1_555
H3 C5 1_555 1_555
H4 C6 1_555 1_555
H5 C7 1_555 1_555
H6 C8 1_555 1_555
H7 C10 1_555 1_555
H8 C11 1_555 1_555
H9 C13 1_555 1_555
H10 C14 1_555 1_555
H11 C17 1_555 1_555
H12 C18 1_555 1_555
H13 C18 1_555 1_555
H14 C18 1_555 1_555
H15 C19 1_555 1_555
H16 C19 1_555 1_555
H17 C19 1_555 1_555
O1B C15B 1_555 1_555
O2B C16B 1_555 1_555
N1B C1B 1_555 1_555
C1B C2B 1_555 1_555
C2B C3B 1_555 1_555
C3B C4B 1_555 1_555
C4B C5B 1_555 1_555
C5B C6B 1_555 1_555
C6B C7B 1_555 1_555
C7B C8B 1_555 1_555
C8B C9B 1_555 1_555
C9B N1B 1_555 1_555
C10B C11 1_555 1_555
C11B C10 1_555 1_555
C12B C11B 1_555 1_555
C13B C12B 1_555 1_555
C14B C13B 1_555 1_555
C15B C14B 1_555 1_555
C16B C15B 1_555 1_555
C17B C12B 1_555 1_555
C18B O1B 1_555 1_555
C19B O2B 1_555 1_555
H1B C1B 1_555 1_555
H2B C2B 1_555 1_555
H3B C5B 1_555 1_555
H4B C6B 1_555 1_555
H5B C7B 1_555 1_555
H6B C8B 1_555 1_555
H7B C10B 1_555 1_555
H8B C11B 1_555 1_555
H9B C13B 1_555 1_555
H10B C14B 1_555 1_555
H11B C17B 1_555 1_555
H12B C18B 1_555 1_555
H13B C18B 1_555 1_555
H14B C18B 1_555 1_555
H15B C19B 1_555 1_555
H16B C19B 1_555 1_555
H17B C19B 1_555 1_555
C4 C9 1_555 1_555
C16 C17 1_555 1_555
C3B C10B 1_555 1_555
C4B C9B 1_555 1_555
C10B C11B 1_555 1_555
C16B C17B 1_555 1_555

#END
