
#######################################################################
#
#                 Cambridge Crystallographic Data Centre
#                                CCDC 
#
#######################################################################
#
# If this CIF has been generated from an entry in the Cambridge 
# Structural Database, then it will include bibliographic, chemical, 
# crystal, experimental, refinement or atomic coordinate data resulting 
# from the CCDC's data processing and validation procedures.
#
#######################################################################

data_LIDLUH
_chemical_formula_moiety         'C19 H19 F2 N3 O3'
_chemical_name_systematic        
N-((4-((t-Butyl(hydroxy)-\l^5^-azanylidene)methyl)phenyl)carbamoyl)-2,6-difluorobenzamide
_symmetry_cell_setting           monoclinic
_symmetry_space_group_name_H-M   'P 21/c'
_symmetry_Int_Tables_number      14
_space_group_name_Hall           '-P 2ybc'
loop_
_symmetry_equiv_pos_site_id
_symmetry_equiv_pos_as_xyz
1 x,y,z
2 -x,1/2+y,1/2-z
3 -x,-y,-z
4 x,1/2-y,1/2+z
_cell_length_a                   7.090(3)
_cell_length_b                   17.706(7)
_cell_length_c                   14.104(6)
_cell_angle_alpha                90
_cell_angle_beta                 102.064(4)
_cell_angle_gamma                90
_cell_volume                     1731.45
_exptl_crystal_colour            colorless
_exptl_crystal_description       prism
_cell_formula_units_Z            4
loop_
_atom_site_label
_atom_site_type_symbol
_atom_site_fract_x
_atom_site_fract_y
_atom_site_fract_z
F1 F -0.51483(14) 0.39939(5) 0.36540(8)
F2 F 0.03655(14) 0.24634(5) 0.40400(9)
N1 N -0.16322(19) 0.44795(7) 0.31727(9)
N2 N 0.09534(19) 0.53062(6) 0.36411(9)
N3 N 0.56222(17) 0.85629(6) 0.37775(8)
O1 O 0.04472(16) 0.39989(6) 0.45012(8)
O2 O -0.15852(17) 0.56039(6) 0.24042(8)
O3 O 0.39029(15) 0.88428(6) 0.34980(8)
C1 C -0.4312(2) 0.33035(8) 0.36807(11)
C2 C -0.5485(2) 0.26797(10) 0.35872(12)
H1 H -0.6846 0.2734 0.3486
C3 C -0.4652(3) 0.19715(9) 0.36430(12)
H2 H -0.5442 0.1533 0.3563
C4 C -0.2676(3) 0.19015(9) 0.38144(12)
H3 H -0.2090 0.1417 0.3870
C5 C -0.1564(2) 0.25448(8) 0.39035(12)
C6 C -0.2324(2) 0.32722(7) 0.38191(10)
C7 C -0.1027(2) 0.39472(8) 0.38759(10)
C8 C -0.0767(2) 0.51819(8) 0.30370(10)
C9 C 0.2093(2) 0.59666(7) 0.36687(10)
C10 C 0.4084(2) 0.58841(8) 0.39670(11)
H4 H 0.4620 0.5396 0.4120
C11 C 0.5286(2) 0.65043(8) 0.40426(11)
H5 H 0.6640 0.6438 0.4243
C12 C 0.4527(2) 0.72342(8) 0.38266(10)
C13 C 0.2532(2) 0.73073(8) 0.35252(11)
H6 H 0.1989 0.7794 0.3371
C14 C 0.1323(2) 0.66831(8) 0.34458(11)
H7 H -0.0031 0.6746 0.3239
C15 C 0.5937(2) 0.78414(8) 0.39358(11)
H8 H 0.7247 0.7696 0.4148
C16 C 0.7287(2) 0.91272(7) 0.39993(11)
C17 C 0.9103(2) 0.87902(9) 0.37519(13)
H9 H 0.9561 0.8372 0.4195
H10 H 1.0105 0.9179 0.3818
H11 H 0.8809 0.8603 0.3083
C18 C 0.7579(2) 0.93131(9) 0.50763(11)
H12 H 0.6370 0.9505 0.5217
H13 H 0.8585 0.9698 0.5246
H14 H 0.7970 0.8856 0.5458
C19 C 0.6710(3) 0.98341(8) 0.33878(13)
H15 H 0.6463 0.9700 0.2699
H16 H 0.7758 1.0205 0.3528
H17 H 0.5541 1.0051 0.3544
H18 H -0.264(2) 0.4346(11) 0.2717(12)
H19 H 0.134(3) 0.4918(8) 0.4038(12)
loop_
_geom_bond_atom_site_label_1
_geom_bond_atom_site_label_2
_geom_bond_site_symmetry_1
_geom_bond_site_symmetry_2
F1 C1 1_555 1_555
F2 C5 1_555 1_555
N1 C7 1_555 1_555
N2 C8 1_555 1_555
N3 O3 1_555 1_555
O1 C7 1_555 1_555
O2 C8 1_555 1_555
C1 C2 1_555 1_555
C2 H1 1_555 1_555
C3 C2 1_555 1_555
H2 C3 1_555 1_555
C4 C3 1_555 1_555
H3 C4 1_555 1_555
C5 C4 1_555 1_555
C6 C1 1_555 1_555
C7 C6 1_555 1_555
C8 N1 1_555 1_555
C9 N2 1_555 1_555
C10 C9 1_555 1_555
H4 C10 1_555 1_555
C11 C10 1_555 1_555
H5 C11 1_555 1_555
C12 C11 1_555 1_555
C13 C12 1_555 1_555
H6 C13 1_555 1_555
C14 C9 1_555 1_555
H7 C14 1_555 1_555
C15 N3 1_555 1_555
H8 C15 1_555 1_555
C16 N3 1_555 1_555
C17 C16 1_555 1_555
H9 C17 1_555 1_555
H10 C17 1_555 1_555
H11 C17 1_555 1_555
C18 C16 1_555 1_555
H12 C18 1_555 1_555
H13 C18 1_555 1_555
H14 C18 1_555 1_555
C19 C16 1_555 1_555
H15 C19 1_555 1_555
H16 C19 1_555 1_555
H17 C19 1_555 1_555
H18 N1 1_555 1_555
H19 N2 1_555 1_555
C5 C6 1_555 1_555
C12 C15 1_555 1_555
C13 C14 1_555 1_555

#END
