
#######################################################################
#
#                 Cambridge Crystallographic Data Centre
#                                CCDC 
#
#######################################################################
#
# If this CIF has been generated from an entry in the Cambridge 
# Structural Database, then it will include bibliographic, chemical, 
# crystal, experimental, refinement or atomic coordinate data resulting 
# from the CCDC's data processing and validation procedures.
#
#######################################################################

data_LIDMOC
_chemical_formula_moiety         'C17 H14 Cl1 N1 O4'
_chemical_name_systematic        
3-(1-(2-Chlorophenyl)-2-nitroethyl)-3-methyl-1-benzofuran-2(3H)-one
_symmetry_cell_setting           monoclinic
_symmetry_space_group_name_H-M   'P 21'
_symmetry_Int_Tables_number      4
_space_group_name_Hall           'P 2yb'
loop_
_symmetry_equiv_pos_site_id
_symmetry_equiv_pos_as_xyz
1 x,y,z
2 -x,1/2+y,-z
_cell_length_a                   14.2170(14)
_cell_length_b                   7.4840(8)
_cell_length_c                   14.4870(15)
_cell_angle_alpha                90
_cell_angle_beta                 93.356(7)
_cell_angle_gamma                90
_cell_volume                     1538.77
_exptl_crystal_colour            colorless
_exptl_crystal_description       prism
_cell_formula_units_Z            4
loop_
_atom_site_label
_atom_site_type_symbol
_atom_site_fract_x
_atom_site_fract_y
_atom_site_fract_z
Cl1 Cl 0.17377(5) 0.94718(9) 0.97997(4)
O1 O 0.36177(13) 0.2715(3) 0.96144(12)
O2 O 0.33314(13) 0.2227(2) 1.10988(12)
O3 O 0.15451(13) 0.8099(3) 1.21708(12)
O4 O 0.06459(13) 0.5755(3) 1.20983(13)
N1 N 0.14082(16) 0.6495(3) 1.20346(14)
C1 C 0.34609(19) 0.3289(4) 1.05015(19)
C2 C 0.34837(18) 0.5329(4) 1.05512(17)
C3 C 0.36914(16) 0.5804(4) 0.95748(16)
C4 C 0.37648(17) 0.4244(4) 0.90756(16)
C5 C 0.39588(17) 0.4183(4) 0.81591(17)
H1 H 0.3994 0.3088 0.7832
C6 C 0.41001(18) 0.5819(5) 0.77409(18)
H2 H 0.4234 0.5852 0.7106
C7 C 0.40510(18) 0.7392(4) 0.82215(18)
H3 H 0.4161 0.8489 0.7915
C8 C 0.38429(17) 0.7414(4) 0.91500(17)
H4 H 0.3807 0.8508 0.9479
C9 C 0.42706(18) 0.5925(4) 1.12555(17)
H5 H 0.4233 0.7220 1.1347
H6 H 0.4884 0.5621 1.1024
H7 H 0.4197 0.5316 1.1846
C10 C 0.25208(17) 0.6104(3) 1.08260(16)
H8 H 0.2615 0.7422 1.0899
C11 C 0.22296(17) 0.5411(3) 1.17683(16)
H9 H 0.2054 0.4133 1.1722
H10 H 0.2759 0.5537 1.2239
C12 C 0.17306(16) 0.5866(3) 1.00774(15)
C13 C 0.13485(17) 0.7282(3) 0.95699(17)
C14 C 0.06473(18) 0.7064(4) 0.88718(16)
H11 H 0.0400 0.8069 0.8538
C15 C 0.03154(18) 0.5379(4) 0.86700(18)
H12 H -0.0152 0.5209 0.8183
C16 C 0.06612(19) 0.3928(3) 0.91757(18)
H13 H 0.0421 0.2765 0.9046
C17 C 0.13608(16) 0.4178(3) 0.98727(16)
H14 H 0.1593 0.3176 1.0218
Cl2 Cl 0.74470(5) 0.95604(10) 0.42807(4)
O5 O 0.83754(13) 0.3062(2) 0.57910(12)
O6 O 0.68914(13) 0.2089(2) 0.58635(12)
O7 O 0.47897(13) 0.4376(3) 0.36073(11)
O8 O 0.52443(12) 0.7139(3) 0.37537(12)
N2 N 0.52029(14) 0.5587(3) 0.40275(14)
C18 C 0.74302(19) 0.3328(4) 0.58649(17)
C19 C 0.72177(17) 0.5327(3) 0.59620(17)
C20 C 0.82057(18) 0.6085(4) 0.60258(16)
C21 C 0.88296(17) 0.4706(4) 0.59121(15)
C22 C 0.97933(18) 0.4906(4) 0.59093(17)
H15 H 1.0204 0.3927 0.5822
C23 C 1.0122(2) 0.6642(4) 0.60432(18)
H16 H 1.0779 0.6866 0.6034
C24 C 0.9522(2) 0.8045(4) 0.61880(17)
H17 H 0.9774 0.9206 0.6300
C25 C 0.85501(19) 0.7789(4) 0.61720(16)
H18 H 0.8136 0.8763 0.6260
C26 C 0.66677(18) 0.5628(4) 0.68293(16)
H19 H 0.6472 0.6882 0.6857
H20 H 0.7071 0.5337 0.7381
H21 H 0.6109 0.4858 0.6804
C27 C 0.66573(17) 0.6058(3) 0.50758(16)
H22 H 0.6534 0.7353 0.5188
C28 C 0.56933(17) 0.5141(3) 0.49439(17)
H23 H 0.5779 0.3830 0.4990
H24 H 0.5293 0.5518 0.5446
C29 C 0.72099(16) 0.5946(3) 0.42101(15)
C30 C 0.76036(17) 0.7439(3) 0.38170(17)
C31 C 0.81259(18) 0.7322(4) 0.30404(17)
H25 H 0.8390 0.8369 0.2789
C32 C 0.82608(18) 0.5700(4) 0.26373(17)
H26 H 0.8626 0.5615 0.2110
C33 C 0.78669(18) 0.4186(4) 0.29947(16)
H27 H 0.7954 0.3058 0.2712
C34 C 0.73434(16) 0.4319(4) 0.37687(15)
H28 H 0.7067 0.3271 0.4005
loop_
_geom_bond_atom_site_label_1
_geom_bond_atom_site_label_2
_geom_bond_site_symmetry_1
_geom_bond_site_symmetry_2
Cl1 C13 1_555 1_555
O1 C1 1_555 1_555
O2 C1 1_555 1_555
O3 N1 1_555 1_555
O4 N1 1_555 1_555
N1 C11 1_555 1_555
C1 C2 1_555 1_555
C2 C3 1_555 1_555
C3 C4 1_555 1_555
C4 O1 1_555 1_555
C5 C4 1_555 1_555
H1 C5 1_555 1_555
C6 C5 1_555 1_555
H2 C6 1_555 1_555
C7 C6 1_555 1_555
H3 C7 1_555 1_555
C8 C3 1_555 1_555
H4 C8 1_555 1_555
C9 C2 1_555 1_555
H5 C9 1_555 1_555
H6 C9 1_555 1_555
H7 C9 1_555 1_555
C10 C2 1_555 1_555
H8 C10 1_555 1_555
C11 C10 1_555 1_555
H9 C11 1_555 1_555
H10 C11 1_555 1_555
C12 C10 1_555 1_555
C13 C12 1_555 1_555
C14 C13 1_555 1_555
H11 C14 1_555 1_555
C15 C14 1_555 1_555
H12 C15 1_555 1_555
C16 C15 1_555 1_555
H13 C16 1_555 1_555
C17 C12 1_555 1_555
H14 C17 1_555 1_555
Cl2 C30 1_555 1_555
O5 C18 1_555 1_555
O6 C18 1_555 1_555
O7 N2 1_555 1_555
O8 N2 1_555 1_555
N2 C28 1_555 1_555
C18 C19 1_555 1_555
C19 C20 1_555 1_555
C20 C21 1_555 1_555
C21 O5 1_555 1_555
C22 C21 1_555 1_555
H15 C22 1_555 1_555
C23 C22 1_555 1_555
H16 C23 1_555 1_555
C24 C23 1_555 1_555
H17 C24 1_555 1_555
C25 C20 1_555 1_555
H18 C25 1_555 1_555
C26 C19 1_555 1_555
H19 C26 1_555 1_555
H20 C26 1_555 1_555
H21 C26 1_555 1_555
C27 C19 1_555 1_555
H22 C27 1_555 1_555
C28 C27 1_555 1_555
H23 C28 1_555 1_555
H24 C28 1_555 1_555
C29 C27 1_555 1_555
C30 C29 1_555 1_555
C31 C30 1_555 1_555
H25 C31 1_555 1_555
C32 C31 1_555 1_555
H26 C32 1_555 1_555
C33 C32 1_555 1_555
H27 C33 1_555 1_555
C34 C29 1_555 1_555
H28 C34 1_555 1_555
C7 C8 1_555 1_555
C16 C17 1_555 1_555
C24 C25 1_555 1_555
C33 C34 1_555 1_555

#END
