
#######################################################################
#
#                 Cambridge Crystallographic Data Centre
#                                CCDC 
#
#######################################################################
#
# If this CIF has been generated from an entry in the Cambridge 
# Structural Database, then it will include bibliographic, chemical, 
# crystal, experimental, refinement or atomic coordinate data resulting 
# from the CCDC's data processing and validation procedures.
#
#######################################################################

data_LIDPOF
_chemical_formula_moiety         'C16 H16 N1 O4 1+,C2 H6 O1,Cl1 1-'
_chemical_name_systematic        
'1-(3,5-bis(methoxycarbonyl)phenyl)-4-methylpyridinium chloride ethanol solvate'
_symmetry_cell_setting           monoclinic
_symmetry_space_group_name_H-M   'P 2/c'
_symmetry_Int_Tables_number      13
_space_group_name_Hall           '-P 2yc'
loop_
_symmetry_equiv_pos_site_id
_symmetry_equiv_pos_as_xyz
1 x,y,z
2 -x,y,1/2-z
3 -x,-y,-z
4 x,-y,1/2+z
_cell_length_a                   12.232(2)
_cell_length_b                   6.7253(12)
_cell_length_c                   23.092(4)
_cell_angle_alpha                90
_cell_angle_beta                 102.791(3)
_cell_angle_gamma                90
_cell_volume                     1852.5
_exptl_crystal_colour            orange
_exptl_crystal_description       block
_cell_formula_units_Z            4
loop_
_atom_site_label
_atom_site_type_symbol
_atom_site_fract_x
_atom_site_fract_y
_atom_site_fract_z
C1 C 1.1816(3) 0.9799(5) 0.70246(17)
H1 H 1.1457 1.0781 0.6752
C2 C 1.2835(3) 1.0197(7) 0.73974(19)
H2 H 1.3175 1.1461 0.7383
C3 C 1.3377(3) 0.8760(7) 0.77973(17)
C4 C 1.2828(3) 0.6957(6) 0.78207(15)
H3 H 1.3158 0.5967 0.8098
C5 C 1.1806(3) 0.6606(5) 0.74424(14)
H4 H 1.1436 0.5372 0.7460
C6 C 1.4523(3) 0.9119(8) 0.81801(17)
H5 H 1.4501 0.8935 0.8598
H6 H 1.4761 1.0480 0.8119
H7 H 1.5056 0.8175 0.8073
C7 C 1.0311(2) 0.7509(4) 0.66099(13)
C8 C 1.0297(2) 0.5718(4) 0.63113(13)
H8 H 1.0908 0.4818 0.6412
C9 C 0.9370(3) 0.5263(4) 0.58622(12)
C10 C 0.8476(3) 0.6574(5) 0.57320(12)
H9 H 0.7841 0.6261 0.5426
C11 C 0.8499(3) 0.8342(5) 0.60449(13)
C12 C 0.9428(2) 0.8836(5) 0.64880(13)
H10 H 0.9454 1.0050 0.6701
C13 C 0.9413(3) 0.3385(5) 0.55255(13)
C14 C 0.8567(3) 0.1533(5) 0.46768(13)
H11 H 0.9310 0.1384 0.4588
H12 H 0.8004 0.1694 0.4305
H13 H 0.8392 0.0348 0.4886
C15 C 0.7536(3) 0.9743(5) 0.58965(14)
C16 C 0.6677(5) 1.2751(9) 0.6027(3)
H14 H 0.6369 1.2639 0.5599
H15 H 0.6931 1.4117 0.6124
H16 H 0.6097 1.2408 0.6242
O1 O 0.760(2) 1.142(2) 0.6196(8)
O2 O 0.6811(6) 0.9283(12) 0.5462(5)
N1 N 1.1326(2) 0.8003(4) 0.70477(12)
O3 O 1.01425(18) 0.2154(3) 0.56557(9)
O4 O 0.85598(17) 0.3275(3) 0.50489(9)
C19 C 0.3949(3) 0.4600(8) 0.5725(2)
H20 H 0.3635 0.5879 0.5566
H21 H 0.4103 0.3781 0.5401
H22 H 0.4648 0.4827 0.6020
C20 C 0.3134(3) 0.3556(8) 0.60100(17)
H23 H 0.2433 0.3308 0.5710
H24 H 0.3447 0.2254 0.6164
O7 O 0.2885(2) 0.4718(6) 0.64914(12)
H25 H 0.3448 0.4733 0.6776
Cl1 Cl 0.5000 0.4129(2) 0.7500
Cl2 Cl 1.0000 0.27735(17) 0.7500
C17? C 0.7536(3) 0.9743(5) 0.58965(14)
C18? C 0.5943(5) 1.0702(12) 0.5277(3)
H17? H 0.5536 1.1326 0.5550
H18? H 0.5406 1.0223 0.4924
H19? H 0.6445 1.1680 0.5157
O5? O 0.765(2) 1.140(2) 0.6123(8)
O6? O 0.6562(6) 0.9127(12) 0.5556(5)
loop_
_geom_bond_atom_site_label_1
_geom_bond_atom_site_label_2
_geom_bond_site_symmetry_1
_geom_bond_site_symmetry_2
C1 H1 1_555 1_555
C2 C1 1_555 1_555
H2 C2 1_555 1_555
C3 C2 1_555 1_555
C4 C3 1_555 1_555
H3 C4 1_555 1_555
C5 C4 1_555 1_555
H4 C5 1_555 1_555
C6 C3 1_555 1_555
H5 C6 1_555 1_555
H6 C6 1_555 1_555
H7 C6 1_555 1_555
C7 C8 1_555 1_555
C8 H8 1_555 1_555
C9 C8 1_555 1_555
C10 C9 1_555 1_555
H9 C10 1_555 1_555
C11 C10 1_555 1_555
C12 C7 1_555 1_555
H10 C12 1_555 1_555
C13 C9 1_555 1_555
C14 H11 1_555 1_555
H12 C14 1_555 1_555
H13 C14 1_555 1_555
C15 C11 1_555 1_555
C16 H14 1_555 1_555
H15 C16 1_555 1_555
H16 C16 1_555 1_555
O1 C15 1_555 1_555
O2 C15 1_555 1_555
N1 C1 1_555 1_555
O3 C13 1_555 1_555
O4 C13 1_555 1_555
C19 H20 1_555 1_555
H21 C19 1_555 1_555
H22 C19 1_555 1_555
C20 C19 1_555 1_555
H23 C20 1_555 1_555
H24 C20 1_555 1_555
O7 C20 1_555 1_555
H25 O7 1_555 1_555
C5 N1 1_555 1_555
C7 N1 1_555 1_555
C11 C12 1_555 1_555
C14 O4 1_555 1_555
C16 O1 1_555 1_555

#END
