
#######################################################################
#
#                 Cambridge Crystallographic Data Centre
#                                CCDC 
#
#######################################################################
#
# If this CIF has been generated from an entry in the Cambridge 
# Structural Database, then it will include bibliographic, chemical, 
# crystal, experimental, refinement or atomic coordinate data resulting 
# from the CCDC's data processing and validation procedures.
#
#######################################################################

data_LIDQEW
_chemical_formula_moiety         'C70 Cl10,2(C1 H1 Cl3)'
_chemical_name_systematic        'Decachloro-C70fullerene chloroform solvate'
_symmetry_cell_setting           triclinic
_symmetry_space_group_name_H-M   'P -1'
_symmetry_Int_Tables_number      2
_space_group_name_Hall           '-P 1'
loop_
_symmetry_equiv_pos_site_id
_symmetry_equiv_pos_as_xyz
1 x,y,z
2 -x,-y,-z
_cell_length_a                   11.049(3)
_cell_length_b                   13.430(4)
_cell_length_c                   18.364(5)
_cell_angle_alpha                105.567(4)
_cell_angle_beta                 91.091(4)
_cell_angle_gamma                106.254(4)
_cell_volume                     2507.02
_exptl_crystal_colour            red
_exptl_crystal_description       block
_cell_formula_units_Z            2
loop_
_atom_site_label
_atom_site_type_symbol
_atom_site_fract_x
_atom_site_fract_y
_atom_site_fract_z
Cl1 Cl 0.68094(17) 0.92244(13) 0.09934(9)
Cl2 Cl 0.85030(16) 0.61472(14) -0.56187(9)
Cl3 Cl 0.71921(16) 1.13835(13) -0.02573(9)
Cl4 Cl 0.74603(17) 0.32685(14) -0.50310(10)
Cl5 Cl 0.91406(18) 0.86714(14) -0.48004(9)
Cl6 Cl 0.42712(17) 0.25933(13) -0.40972(10)
Cl7 Cl 0.46374(18) 0.28422(14) -0.15958(10)
Cl8 Cl 0.72048(18) 1.13812(14) -0.19686(10)
Cl9 Cl 0.8058(2) 0.40857(15) -0.04298(11)
Cl10 Cl 0.93136(18) 0.75979(15) 0.08735(9)
C1 C 0.8964(6) 0.9656(5) -0.1351(4)
C2 C 0.8151(6) 0.9669(5) -0.0768(4)
C3 C 0.6052(6) 0.8517(5) -0.2931(4)
C4 C 0.8039(6) 0.8971(5) -0.0301(3)
C5 C 0.9841(5) 0.9051(5) -0.1421(3)
C6 C 0.7974(7) 0.4979(5) -0.1017(4)
C7 C 1.0852(6) 0.7277(6) -0.1684(4)
C8 C 0.9888(6) 0.8525(5) -0.0854(4)
C9 C 0.3995(6) 0.5259(5) -0.3172(4)
C10 C 0.7288(6) 0.8646(5) -0.3266(4)
C11 C 0.8786(6) 0.7361(5) -0.0126(3)
C12 C 0.7172(7) 1.0116(5) -0.1793(4)
C13 C 0.9572(6) 0.8020(5) -0.3546(4)
C14 C 0.5351(7) 0.4136(5) -0.1802(4)
C15 C 0.5515(6) 0.4776(5) -0.3956(4)
C16 C 0.4803(6) 0.5524(5) -0.3757(3)
C17 C 0.5067(6) 0.7482(6) -0.3189(4)
C18 C 0.5149(6) 0.3952(5) -0.3486(4)
C19 C 0.6639(6) 0.5019(5) -0.4287(3)
C20 C 1.0363(6) 0.7594(5) -0.1001(4)
C21 C 0.8357(6) 0.9795(5) -0.2005(4)
C22 C 1.0589(6) 0.6127(6) -0.2071(4)
C23 C 0.5677(6) 0.8577(5) -0.0493(4)
C24 C 0.6018(6) 0.9208(5) -0.2221(4)
C25 C 0.7350(6) 0.7873(5) -0.3927(3)
C26 C 0.9534(6) 0.8716(5) -0.2840(3)
C27 C 0.4736(6) 0.7537(5) -0.0740(4)
C28 C 0.3638(6) 0.6091(6) -0.2666(4)
C29 C 0.6422(6) 0.6830(6) -0.4147(3)
C30 C 0.3949(6) 0.7205(5) -0.1421(4)
C31 C 0.3590(6) 0.6090(6) -0.1877(4)
C32 C 0.6351(6) 0.3920(5) -0.3085(4)
C33 C 0.8959(7) 0.5218(6) -0.4028(4)
C34 C 0.9269(6) 0.6200(5) -0.4182(3)
C35 C 0.8954(6) 0.8429(5) -0.0338(4)
C36 C 0.6442(6) 0.4050(5) -0.2275(4)
C37 C 0.8350(6) 0.6524(5) -0.4620(4)
C38 C 0.7604(7) 0.4426(6) -0.4203(4)
C39 C 0.7447(7) 0.4084(5) -0.3449(4)
C40 C 0.7016(7) 0.6026(5) -0.4441(3)
C41 C 0.7378(7) 0.6698(6) -0.0286(4)
C42 C 0.8754(7) 0.4533(5) -0.2246(4)
C43 C 0.4344(6) 0.4465(5) -0.2181(4)
C44 C 0.7629(7) 0.4348(5) -0.1865(4)
C45 C 0.4226(6) 0.7880(5) -0.1925(4)
C46 C 0.5307(6) 0.6607(5) -0.3777(3)
C47 C 1.0075(6) 0.7142(5) -0.3621(4)
C48 C 0.9568(6) 0.5104(6) -0.3368(4)
C49 C 1.0832(6) 0.7821(6) -0.2275(4)
C50 C 1.0216(6) 0.8641(5) -0.2177(4)
C51 C 0.5823(6) 0.9263(5) -0.0951(4)
C52 C 0.4132(6) 0.7190(6) -0.2689(4)
C53 C 0.6499(7) 0.7264(6) -0.0169(4)
C54 C 0.8476(6) 0.9212(5) -0.2728(4)
C55 C 1.0720(6) 0.7044(6) -0.2996(4)
C56 C 0.8663(6) 0.4402(5) -0.3039(4)
C57 C 0.7075(6) 1.0099(5) -0.0933(4)
C58 C 0.6786(7) 0.8524(5) 0.0005(4)
C59 C 0.5762(7) 0.5074(5) -0.1053(4)
C60 C 0.4001(6) 0.5309(5) -0.1651(4)
C61 C 0.9613(6) 0.6826(5) -0.0649(4)
C62 C 0.5229(6) 0.6764(6) -0.0512(4)
C63 C 0.4870(6) 0.5675(6) -0.0960(4)
C64 C 0.5169(6) 0.8877(5) -0.1695(4)
C65 C 1.0513(6) 0.5987(6) -0.2878(4)
C66 C 0.9279(7) 0.5757(5) -0.1033(4)
C67 C 0.8604(6) 0.7779(5) -0.4206(3)
C68 C 0.4303(6) 0.4419(5) -0.2939(4)
C69 C 0.7003(6) 0.5582(6) -0.0726(4)
C70 C 0.9756(7) 0.5399(6) -0.1750(4)
Cl11 Cl 0.8904(2) 0.65948(17) 0.25240(12)
Cl12 Cl 0.8620(3) 0.8740(2) 0.28150(18)
Cl13 Cl 1.0814(2) 0.8421(2) 0.35384(14)
C71 C 0.9175(9) 0.7847(8) 0.3186(5)
H1 H 0.8688 0.7733 0.3625
Cl14 Cl 1.3184(2) 0.9371(2) 0.69374(16)
Cl15 Cl 1.2631(2) 0.9742(2) 0.54982(15)
Cl16 Cl 1.5217(3) 0.9996(3) 0.60112(19)
C72 C 1.3751(9) 1.0131(8) 0.6289(6)
H2 H 1.3870 1.0912 0.6554
loop_
_geom_bond_atom_site_label_1
_geom_bond_atom_site_label_2
_geom_bond_site_symmetry_1
_geom_bond_site_symmetry_2
Cl1 C58 1_555 1_555
Cl2 C37 1_555 1_555
Cl3 C57 1_555 1_555
Cl4 C38 1_555 1_555
Cl5 C67 1_555 1_555
Cl6 C18 1_555 1_555
Cl7 C14 1_555 1_555
Cl8 C12 1_555 1_555
Cl9 C6 1_555 1_555
Cl10 C11 1_555 1_555
C1 C2 1_555 1_555
C2 C4 1_555 1_555
C3 C10 1_555 1_555
C4 C35 1_555 1_555
C5 C1 1_555 1_555
C6 C44 1_555 1_555
C7 C20 1_555 1_555
C8 C5 1_555 1_555
C9 C16 1_555 1_555
C10 C25 1_555 1_555
C11 C35 1_555 1_555
C12 C21 1_555 1_555
C13 C26 1_555 1_555
C14 C36 1_555 1_555
C15 C16 1_555 1_555
C16 C46 1_555 1_555
C17 C3 1_555 1_555
C18 C15 1_555 1_555
C19 C15 1_555 1_555
C20 C8 1_555 1_555
C21 C1 1_555 1_555
C22 C7 1_555 1_555
C23 C27 1_555 1_555
C24 C3 1_555 1_555
C25 C29 1_555 1_555
C26 C50 1_555 1_555
C27 C30 1_555 1_555
C28 C9 1_555 1_555
C29 C40 1_555 1_555
C30 C31 1_555 1_555
C31 C28 1_555 1_555
C32 C18 1_555 1_555
C33 C34 1_555 1_555
C34 C37 1_555 1_555
C35 C8 1_555 1_555
C36 C32 1_555 1_555
C37 C40 1_555 1_555
C38 C19 1_555 1_555
C39 C32 1_555 1_555
C40 C19 1_555 1_555
C41 C11 1_555 1_555
C42 C44 1_555 1_555
C43 C14 1_555 1_555
C44 C36 1_555 1_555
C45 C30 1_555 1_555
C46 C17 1_555 1_555
C47 C13 1_555 1_555
C48 C33 1_555 1_555
C49 C7 1_555 1_555
C50 C5 1_555 1_555
C51 C23 1_555 1_555
C52 C17 1_555 1_555
C53 C41 1_555 1_555
C54 C10 1_555 1_555
C55 C47 1_555 1_555
C56 C39 1_555 1_555
C57 C2 1_555 1_555
C58 C4 1_555 1_555
C59 C14 1_555 1_555
C60 C31 1_555 1_555
C61 C11 1_555 1_555
C62 C27 1_555 1_555
C63 C59 1_555 1_555
C64 C24 1_555 1_555
C65 C22 1_555 1_555
C66 C6 1_555 1_555
C67 C13 1_555 1_555
C68 C9 1_555 1_555
C69 C6 1_555 1_555
C70 C22 1_555 1_555
Cl11 C71 1_555 1_555
Cl12 C71 1_555 1_555
Cl13 C71 1_555 1_555
C71 H1 1_555 1_555
Cl14 C72 1_555 1_555
Cl15 C72 1_555 1_555
Cl16 C72 1_555 1_555
C72 H2 1_555 1_555
C12 C24 1_555 1_555
C12 C57 1_555 1_555
C18 C68 1_555 1_555
C20 C61 1_555 1_555
C21 C54 1_555 1_555
C23 C58 1_555 1_555
C25 C67 1_555 1_555
C26 C54 1_555 1_555
C28 C52 1_555 1_555
C29 C46 1_555 1_555
C33 C38 1_555 1_555
C34 C47 1_555 1_555
C37 C67 1_555 1_555
C38 C39 1_555 1_555
C41 C69 1_555 1_555
C42 C56 1_555 1_555
C42 C70 1_555 1_555
C43 C60 1_555 1_555
C43 C68 1_555 1_555
C45 C52 1_555 1_555
C45 C64 1_555 1_555
C48 C56 1_555 1_555
C48 C65 1_555 1_555
C49 C50 1_555 1_555
C49 C55 1_555 1_555
C51 C57 1_555 1_555
C51 C64 1_555 1_555
C53 C58 1_555 1_555
C53 C62 1_555 1_555
C55 C65 1_555 1_555
C59 C69 1_555 1_555
C60 C63 1_555 1_555
C61 C66 1_555 1_555
C62 C63 1_555 1_555
C66 C70 1_555 1_555

#END
