
#######################################################################
#
#                 Cambridge Crystallographic Data Centre
#                                CCDC 
#
#######################################################################
#
# If this CIF has been generated from an entry in the Cambridge 
# Structural Database, then it will include bibliographic, chemical, 
# crystal, experimental, refinement or atomic coordinate data resulting 
# from the CCDC's data processing and validation procedures.
#
#######################################################################

data_LIDTAU
_chemical_formula_moiety         'C20 H16 N2 O5'
_chemical_name_systematic        
(2E,6E)-2,6-bis(3-Nitrobenzylidene)cyclohexanone
_symmetry_cell_setting           monoclinic
_symmetry_space_group_name_H-M   'P 21/c'
_symmetry_Int_Tables_number      14
_space_group_name_Hall           '-P 2ybc'
loop_
_symmetry_equiv_pos_site_id
_symmetry_equiv_pos_as_xyz
1 x,y,z
2 -x,1/2+y,1/2-z
3 -x,-y,-z
4 x,1/2-y,1/2+z
_cell_length_a                   7.6586(15)
_cell_length_b                   12.168(3)
_cell_length_c                   18.305(4)
_cell_angle_alpha                90
_cell_angle_beta                 99.652(5)
_cell_angle_gamma                90
_cell_volume                     1681.69
_exptl_crystal_colour            colorless
_exptl_crystal_description       block
_chemical_melting_point          '461-463 K'
_cell_formula_units_Z            4
_exptl_crystal_recrystallization_method ethanol
loop_
_atom_site_label
_atom_site_type_symbol
_atom_site_fract_x
_atom_site_fract_y
_atom_site_fract_z
O1 O 0.4256(4) -0.0751(2) 0.44142(17)
O2 O 0.2389(5) -0.1770(2) 0.37350(17)
O3 O 0.2611(3) 0.53412(17) 0.40078(12)
O4 O 0.1410(4) 1.0249(2) 0.57269(17)
O5 O 0.2802(4) 1.0716(2) 0.67963(17)
N1 N 0.3030(5) -0.0880(2) 0.39181(17)
N2 N 0.2341(4) 1.0035(2) 0.6313(2)
C1 C 0.2237(4) 0.0095(2) 0.35147(17)
C2 C 0.2560(4) 0.1112(2) 0.38373(17)
H1 H 0.3270 0.1180 0.4300
C3 C 0.1811(4) 0.2037(2) 0.34644(16)
C4 C 0.0818(4) 0.1887(3) 0.27604(18)
H2 H 0.0354 0.2500 0.2491
C5 C 0.0505(4) 0.0861(3) 0.24525(19)
H3 H -0.0193 0.0785 0.1988
C6 C 0.1221(5) -0.0050(3) 0.28306(18)
H4 H 0.1021 -0.0748 0.2628
C7 C 0.2050(4) 0.3163(2) 0.37521(17)
H5 H 0.1969 0.3708 0.3392
C8 C 0.2364(4) 0.3526(2) 0.44493(17)
C9 C 0.2603(4) 0.4746(2) 0.45467(18)
C10 C 0.2852(4) 0.5223(2) 0.53119(17)
C11 C 0.2943(5) 0.4452(2) 0.59584(18)
H6 H 0.2524 0.4828 0.6363
H7 H 0.4167 0.4243 0.6127
C12 C 0.1842(4) 0.3427(2) 0.57606(18)
H8 H 0.0607 0.3629 0.5618
H9 H 0.1943 0.2949 0.6190
C13 C 0.2461(4) 0.2817(2) 0.51273(17)
H10 H 0.3672 0.2575 0.5283
H11 H 0.1730 0.2170 0.5006
C14 C 0.2953(4) 0.6323(3) 0.53559(17)
H12 H 0.2836 0.6678 0.4900
C15 C 0.3214(4) 0.7062(2) 0.59965(17)
C16 C 0.2649(4) 0.8149(2) 0.58828(18)
H13 H 0.2084 0.8372 0.5417
C17 C 0.2926(4) 0.8891(3) 0.64570(19)
C18 C 0.3735(4) 0.8599(3) 0.7156(2)
H14 H 0.3892 0.9110 0.7539
C19 C 0.4307(5) 0.7537(3) 0.72768(19)
H15 H 0.4860 0.7324 0.7747
C20 C 0.4066(4) 0.6782(3) 0.67055(18)
H16 H 0.4482 0.6069 0.6796
loop_
_geom_bond_atom_site_label_1
_geom_bond_atom_site_label_2
_geom_bond_site_symmetry_1
_geom_bond_site_symmetry_2
O1 N1 1_555 1_555
O2 N1 1_555 1_555
O3 C9 1_555 1_555
O4 N2 1_555 1_555
O5 N2 1_555 1_555
N1 C1 1_555 1_555
N2 C17 1_555 1_555
C1 C2 1_555 1_555
C2 H1 1_555 1_555
C3 C2 1_555 1_555
C4 C3 1_555 1_555
H2 C4 1_555 1_555
C5 C4 1_555 1_555
H3 C5 1_555 1_555
C6 C1 1_555 1_555
H4 C6 1_555 1_555
C7 C3 1_555 1_555
H5 C7 1_555 1_555
C8 C7 1_555 1_555
C9 C8 1_555 1_555
C10 C9 1_555 1_555
C11 C10 1_555 1_555
H6 C11 1_555 1_555
H7 C11 1_555 1_555
C12 C11 1_555 1_555
H8 C12 1_555 1_555
H9 C12 1_555 1_555
C13 C8 1_555 1_555
H10 C13 1_555 1_555
H11 C13 1_555 1_555
C14 C10 1_555 1_555
H12 C14 1_555 1_555
C15 C14 1_555 1_555
C16 C15 1_555 1_555
H13 C16 1_555 1_555
C17 C16 1_555 1_555
C18 C17 1_555 1_555
H14 C18 1_555 1_555
C19 C18 1_555 1_555
H15 C19 1_555 1_555
C20 C15 1_555 1_555
H16 C20 1_555 1_555
C5 C6 1_555 1_555
C12 C13 1_555 1_555
C19 C20 1_555 1_555

#END
