
#######################################################################
#
#                 Cambridge Crystallographic Data Centre
#                                CCDC 
#
#######################################################################
#
# If this CIF has been generated from an entry in the Cambridge 
# Structural Database, then it will include bibliographic, chemical, 
# crystal, experimental, refinement or atomic coordinate data resulting 
# from the CCDC's data processing and validation procedures.
#
#######################################################################

data_LIDWOM
_chemical_name_common            
3-(1-(benzylimino)ethyl)-4-hydroxy-6-methyl-2H-pyran-2-one
_chemical_formula_moiety         'C15 H15 N1 O3'
_chemical_name_systematic        
3-(N-Benzylethanimidoyl)-4-hydroxy-6-methyl-2H-pyran-2-one
_symmetry_cell_setting           triclinic
_symmetry_space_group_name_H-M   'P -1'
_symmetry_Int_Tables_number      2
_space_group_name_Hall           '-P 1'
loop_
_symmetry_equiv_pos_site_id
_symmetry_equiv_pos_as_xyz
1 x,y,z
2 -x,-y,-z
_cell_length_a                   8.4230(17)
_cell_length_b                   11.209(2)
_cell_length_c                   14.400(3)
_cell_angle_alpha                75.29(3)
_cell_angle_beta                 73.95(3)
_cell_angle_gamma                87.56(3)
_cell_volume                     1263.18
_exptl_crystal_colour            'light yellow'
_exptl_crystal_description       Block
_chemical_melting_point          '352-353 K'
_cell_formula_units_Z            4
loop_
_atom_site_label
_atom_site_type_symbol
_atom_site_fract_x
_atom_site_fract_y
_atom_site_fract_z
N1 N 0.1283(3) 0.1840(2) 0.65933(18)
O1 O 0.0465(3) 0.0927(2) 0.84765(15)
H1 H 0.0361 0.1314 0.7932
O2 O 0.4845(3) -0.0768(2) 0.82504(17)
C1 C 0.1851(4) 0.0412(3) 0.8356(2)
O3 O 0.5642(3) -0.0190(2) 0.66175(17)
C2 C 0.2269(4) -0.0321(3) 0.9223(2)
H2 H 0.1515 -0.0423 0.9848
C3 C 0.3034(4) 0.0543(3) 0.7404(2)
C4 C -0.1029(4) 0.2944(3) 0.6032(2)
C5 C 0.3705(4) -0.0852(3) 0.9144(2)
C6 C 0.4553(4) -0.0109(3) 0.7343(3)
C7 C -0.2137(4) 0.2496(3) 0.6955(2)
H3 H -0.1787 0.1950 0.7459
C8 C 0.2702(4) 0.1280(3) 0.6509(2)
C9 C -0.1602(4) 0.3736(3) 0.5292(2)
H4 H -0.0881 0.4034 0.4661
C10 C 0.0763(4) 0.2614(3) 0.5759(2)
H5 H 0.0957 0.2188 0.5232
H6 H 0.1439 0.3368 0.5499
C11 C -0.3759(4) 0.2851(3) 0.7137(3)
H7 H -0.4486 0.2555 0.7767
C12 C -0.4315(4) 0.3635(3) 0.6402(3)
H8 H -0.5415 0.3860 0.6523
C13 C 0.4334(4) -0.1602(3) 0.9982(3)
H9 H 0.4610 -0.2406 0.9875
H10 H 0.3495 -0.1683 1.0602
H11 H 0.5301 -0.1199 1.0005
C14 C 0.3897(4) 0.1452(3) 0.5498(2)
H12 H 0.3820 0.2272 0.5104
H13 H 0.3638 0.0863 0.5176
H14 H 0.4999 0.1331 0.5565
C15 C -0.3211(4) 0.4083(3) 0.5478(3)
H15 H -0.3566 0.4627 0.4976
O4 O 0.1181(3) 0.45515(19) 0.27957(15)
O5 O 0.2754(3) 0.5831(2) -0.02158(16)
H16 H 0.2044 0.6226 -0.0443
N2 N 0.0016(3) 0.6865(2) -0.02096(18)
C16 C 0.2200(4) 0.5448(3) 0.0727(2)
O6 O -0.1206(3) 0.5436(2) 0.29199(16)
C17 C -0.0535(4) 0.6399(3) 0.0759(2)
C18 C -0.0044(4) 0.7936(3) -0.1940(2)
C19 C -0.0931(4) 0.7640(3) -0.0832(2)
H17 H -0.1165 0.8406 -0.0630
H18 H -0.1979 0.7223 -0.0718
C20 C 0.1448(4) 0.7463(3) -0.2345(2)
H19 H 0.1988 0.6932 -0.1930
C21 C 0.3232(4) 0.4733(3) 0.1279(2)
H20 H 0.4295 0.4563 0.0942
C22 C 0.2715(4) 0.4308(3) 0.2258(2)
C23 C 0.0083(4) 0.5270(3) 0.2335(3)
C24 C -0.0815(4) 0.8723(3) -0.2565(2)
H21 H -0.1821 0.9050 -0.2298
C25 C 0.2142(4) 0.7776(3) -0.3362(3)
H22 H 0.3147 0.7447 -0.3628
C26 C 0.0569(4) 0.5704(3) 0.1263(2)
C27 C 0.3656(4) 0.3513(3) 0.2913(2)
H23 H 0.4738 0.3384 0.2516
H24 H 0.3080 0.2732 0.3232
H25 H 0.3753 0.3912 0.3412
C28 C 0.1375(5) 0.8569(3) -0.3995(3)
H26 H 0.1857 0.8783 -0.4681
C29 C -0.2303(4) 0.6578(3) 0.1269(2)
H27 H -0.2863 0.6964 0.0778
H28 H -0.2351 0.7093 0.1716
H29 H -0.2828 0.5792 0.1640
C30 C -0.0117(5) 0.9035(3) -0.3588(3)
H30 H -0.0661 0.9563 -0.4002
loop_
_geom_bond_atom_site_label_1
_geom_bond_atom_site_label_2
_geom_bond_site_symmetry_1
_geom_bond_site_symmetry_2
N1 C8 1_555 1_555
O1 H1 1_555 1_555
O2 C5 1_555 1_555
C1 O1 1_555 1_555
O3 C6 1_555 1_555
C2 C1 1_555 1_555
H2 C2 1_555 1_555
C3 C1 1_555 1_555
C4 C7 1_555 1_555
C5 C2 1_555 1_555
C6 O2 1_555 1_555
C7 H3 1_555 1_555
C8 C3 1_555 1_555
C9 C4 1_555 1_555
H4 C9 1_555 1_555
C10 N1 1_555 1_555
H5 C10 1_555 1_555
H6 C10 1_555 1_555
C11 C7 1_555 1_555
H7 C11 1_555 1_555
C12 C11 1_555 1_555
H8 C12 1_555 1_555
C13 C5 1_555 1_555
H9 C13 1_555 1_555
H10 C13 1_555 1_555
H11 C13 1_555 1_555
C14 C8 1_555 1_555
H12 C14 1_555 1_555
H13 C14 1_555 1_555
H14 C14 1_555 1_555
C15 C9 1_555 1_555
H15 C15 1_555 1_555
O4 C22 1_555 1_555
O5 H16 1_555 1_555
N2 C17 1_555 1_555
C16 O5 1_555 1_555
O6 C23 1_555 1_555
C17 C26 1_555 1_555
C18 C19 1_555 1_555
C19 N2 1_555 1_555
H17 C19 1_555 1_555
H18 C19 1_555 1_555
C20 C18 1_555 1_555
H19 C20 1_555 1_555
C21 C16 1_555 1_555
H20 C21 1_555 1_555
C22 C21 1_555 1_555
C23 O4 1_555 1_555
C24 C18 1_555 1_555
H21 C24 1_555 1_555
C25 C20 1_555 1_555
H22 C25 1_555 1_555
C26 C16 1_555 1_555
C27 C22 1_555 1_555
H23 C27 1_555 1_555
H24 C27 1_555 1_555
H25 C27 1_555 1_555
C28 C25 1_555 1_555
H26 C28 1_555 1_555
C29 C17 1_555 1_555
H27 C29 1_555 1_555
H28 C29 1_555 1_555
H29 C29 1_555 1_555
C30 C24 1_555 1_555
H30 C30 1_555 1_555
C3 C6 1_555 1_555
C4 C10 1_555 1_555
C12 C15 1_555 1_555
C23 C26 1_555 1_555
C28 C30 1_555 1_555

#END
