
#######################################################################
#
#                 Cambridge Crystallographic Data Centre
#                                CCDC 
#
#######################################################################
#
# If this CIF has been generated from an entry in the Cambridge 
# Structural Database, then it will include bibliographic, chemical, 
# crystal, experimental, refinement or atomic coordinate data resulting 
# from the CCDC's data processing and validation procedures.
#
#######################################################################

data_LIDXIF
_chemical_formula_moiety         'C11 H8 Cl4 O3'
_chemical_name_systematic        
8,11-Epoxy-1,7,9,10-tetrachloro-pentacyclo(5.4.0.0^2,6^.0^3,10^.0^5,9^)undecane-8,11-diol
_symmetry_cell_setting           monoclinic
_symmetry_space_group_name_H-M   'C 2/c'
_symmetry_Int_Tables_number      15
_space_group_name_Hall           '-C 2yn'
loop_
_symmetry_equiv_pos_site_id
_symmetry_equiv_pos_as_xyz
1 x,y,z
2 1/2+x,1/2+y,z
3 -x,y,1/2-z
4 1/2-x,1/2+y,1/2-z
5 -x,-y,-z
6 1/2-x,1/2-y,-z
7 x,-y,1/2+z
8 1/2+x,1/2-y,1/2+z
_cell_length_a                   28.987(3)
_cell_length_b                   6.729(3)
_cell_length_c                   12.629(3)
_cell_angle_alpha                90
_cell_angle_beta                 108.00(1)
_cell_angle_gamma                90
_cell_volume                     2342.77
_cell_formula_units_Z            8
loop_
_atom_site_label
_atom_site_type_symbol
_atom_site_fract_x
_atom_site_fract_y
_atom_site_fract_z
Cl1 Cl 0.21060(4) 0.1267(2) 0.0509(1)
Cl2 Cl 0.24759(3) 0.1216(2) 0.3240(1)
Cl3 Cl 0.06678(4) 0.3048(2) 0.3180(1)
Cl4 Cl 0.03259(4) 0.3103(2) 0.0600(1)
O1 O 0.1736(1) 0.3702(5) 0.3812(2)
O2 O 0.1202(1) 0.3766(5) -0.0014(3)
O3 O 0.1501(1) 0.4205(4) 0.1901(2)
C1 C 0.1679(1) 0.1113(7) 0.1243(3)
C2 C 0.1402(2) -0.0843(7) 0.1225(4)
C3 C 0.0859(1) -0.0371(7) 0.0935(4)
C4 C 0.0714(2) -0.1369(8) 0.1869(4)
C5 C 0.1110(1) -0.0398(7) 0.2809(4)
C6 C 0.1579(1) -0.0868(7) 0.2518(3)
C7 C 0.1855(1) 0.1073(7) 0.2529(3)
C8 C 0.1554(1) 0.2804(7) 0.2789(3)
C9 C 0.1050(1) 0.1818(7) 0.2547(3)
C10 C 0.0873(1) 0.1845(7) 0.1233(3)
C11 C 0.1312(1) 0.2852(7) 0.0995(3)
H1 H 0.150(1) -0.191(6) 0.089(3)
H2 H 0.069(1) -0.059(6) 0.023(3)
H3 H 0.038(2) -0.096(7) 0.181(3)
H4 H 0.075(2) -0.281(7) 0.186(3)
H5 H 0.111(2) -0.067(6) 0.351(3)
H6 H 0.176(2) -0.197(7) 0.285(3)
H7 H 0.1976 0.3654 0.4009
H8 H 0.1440 0.4208 -0.0034
loop_
_geom_bond_atom_site_label_1
_geom_bond_atom_site_label_2
_geom_bond_site_symmetry_1
_geom_bond_site_symmetry_2
Cl1 C1 1_555 1_555
Cl2 C7 1_555 1_555
Cl3 C9 1_555 1_555
Cl4 C10 1_555 1_555
O1 C8 1_555 1_555
O2 C11 1_555 1_555
O3 C8 1_555 1_555
C1 C2 1_555 1_555
C2 C3 1_555 1_555
C3 C4 1_555 1_555
C4 C5 1_555 1_555
C5 C6 1_555 1_555
C6 C2 1_555 1_555
C7 C1 1_555 1_555
C8 C7 1_555 1_555
C9 C5 1_555 1_555
C10 C3 1_555 1_555
C11 O3 1_555 1_555
H1 C2 1_555 1_555
H2 C3 1_555 1_555
H3 C4 1_555 1_555
H4 C4 1_555 1_555
H5 C5 1_555 1_555
H6 C6 1_555 1_555
H7 O1 1_555 1_555
H8 O2 1_555 1_555
C1 C11 1_555 1_555
C6 C7 1_555 1_555
C8 C9 1_555 1_555
C9 C10 1_555 1_555
C10 C11 1_555 1_555

#END
