
#######################################################################
#
#                 Cambridge Crystallographic Data Centre
#                                CCDC 
#
#######################################################################
#
# If this CIF has been generated from an entry in the Cambridge 
# Structural Database, then it will include bibliographic, chemical, 
# crystal, experimental, refinement or atomic coordinate data resulting 
# from the CCDC's data processing and validation procedures.
#
#######################################################################

data_LIDXUR
_chemical_formula_moiety         '0.29(C23 H18 N4 O1),0.71(C23 H20 N4 O1)'
_chemical_name_systematic        
"6,7-(3',6'-bis(2''-Pyridyl)-4',5'-pyridizino)tetracyclo(6.3.0.0^4,11^.0^5,9^)undecan-2-one 6,7-(3',6'-bis(2''-pyridyl)-4',5'-pyridizino)tetracyclo(6.3.0.0^4,11^.0^5,9^)undecan-2-ol"
_symmetry_cell_setting           monoclinic
_symmetry_space_group_name_H-M   'P 21/c'
_symmetry_Int_Tables_number      14
_space_group_name_Hall           '-P 2ybc'
loop_
_symmetry_equiv_pos_site_id
_symmetry_equiv_pos_as_xyz
1 x,y,z
2 -x,1/2+y,1/2-z
3 -x,-y,-z
4 x,1/2-y,1/2+z
_cell_length_a                   7.092(3)
_cell_length_b                   14.483(2)
_cell_length_c                   17.362(2)
_cell_angle_alpha                90
_cell_angle_beta                 94.47(2)
_cell_angle_gamma                90
_cell_volume                     1777.89
_cell_formula_units_Z            4
loop_
_atom_site_label
_atom_site_type_symbol
_atom_site_fract_x
_atom_site_fract_y
_atom_site_fract_z
O1 O -0.0480(4) 0.0960(2) 0.0946(2)
N1 N 0.2251(3) -0.0168(1) 0.1891(1)
N2 N 0.2370(3) 0.2036(1) 0.2769(1)
N3 N 0.2312(3) 0.2932(1) 0.2610(1)
N4 N 0.2089(3) 0.4550(1) 0.1073(1)
C1 C 0.3248(3) 0.1708(2) 0.1499(1)
C2 C 0.3926(4) 0.1199(2) 0.0814(1)
C3 C 0.5134(4) 0.1957(2) 0.0454(1)
C4 C 0.5001(5) 0.1737(2) -0.0409(2)
C5 C 0.2863(4) 0.1684(2) -0.0486(1)
C6 C 0.2350(4) 0.1001(2) 0.0143(1)
C7 C 0.0324(4) 0.1278(2) 0.0271(2)
C8 C 0.0231(4) 0.2321(2) 0.0141(2)
C9 C 0.2170(4) 0.2586(2) -0.0128(1)
C10 C 0.3787(4) 0.2787(2) 0.0530(1)
C11 C 0.3182(3) 0.2644(2) 0.1337(1)
C12 C 0.2660(3) 0.3245(2) 0.1903(1)
C13 C 0.2425(3) 0.4256(2) 0.1801(1)
C14 C 0.2505(4) 0.4844(2) 0.2430(2)
C15 C 0.2237(4) 0.5778(2) 0.2313(2)
C16 C 0.1899(5) 0.6087(2) 0.1565(2)
C17 C 0.1845(5) 0.5461(2) 0.0976(2)
C18 C 0.2769(3) 0.1422(2) 0.2225(1)
C19 C 0.2649(3) 0.0442(2) 0.2461(1)
C20 C 0.2838(4) 0.0181(2) 0.3232(3)
C21 C 0.2639(4) -0.0734(2) 0.3418(2)
C22 C 0.2261(4) -0.1370(2) 0.2839(2)
C23 C 0.2076(4) -0.1059(2) 0.2087(2)
H1 H 0.467(3) 0.064(1) 0.096(1)
H2 H 0.647(4) 0.201(2) 0.071(1)
H3 H 0.538(4) 0.226(2) -0.072(1)
H4 H 0.573(4) 0.112(2) -0.051(1)
H5 H 0.220(3) 0.156(2) -0.104(1)
H6 H 0.242(3) 0.035(2) -0.001(1)
H7 H -0.061(4) 0.100(2) -0.016(1)
H9 H 0.04(1) 0.284(5) 0.066(4)
H10 H 0.213(3) 0.311(2) -0.048(1)
H11 H 0.445(3) 0.343(2) 0.046(1)
H12 H 0.022(5) 0.064(2) 0.112(2)
H13 H 0.272(4) 0.460(2) 0.294(1)
H14 H 0.221(4) 0.622(2) 0.278(2)
H15 H 0.170(4) 0.673(2) 0.147(2)
H16 H 0.162(5) 0.568(2) 0.042(2)
H17 H 0.304(3) 0.065(2) 0.362(1)
H18 H 0.270(4) -0.090(2) 0.399(2)
H19 H 0.204(4) -0.205(2) 0.296(1)
H20 H 0.178(4) -0.154(2) 0.163(2)
O2? O -0.045(1) 0.2902(6) 0.0551(5)
H8? H 0.05(2) 0.132(7) 0.096(6)
loop_
_geom_bond_atom_site_label_1
_geom_bond_atom_site_label_2
_geom_bond_site_symmetry_1
_geom_bond_site_symmetry_2
O1 C7 1_555 1_555
N1 C19 1_555 1_555
N2 N3 1_555 1_555
N3 C12 1_555 1_555
N4 C13 1_555 1_555
C1 C2 1_555 1_555
C2 C3 1_555 1_555
C3 C4 1_555 1_555
C4 C5 1_555 1_555
C5 C6 1_555 1_555
C6 C2 1_555 1_555
C7 C6 1_555 1_555
C8 C7 1_555 1_555
C9 C5 1_555 1_555
C10 C3 1_555 1_555
C11 C1 1_555 1_555
C12 C11 1_555 1_555
C13 C12 1_555 1_555
C14 C13 1_555 1_555
C15 C14 1_555 1_555
C16 C15 1_555 1_555
C17 N4 1_555 1_555
C18 N2 1_555 1_555
C19 C18 1_555 1_555
C20 C19 1_555 1_555
C21 C20 1_555 1_555
C22 C21 1_555 1_555
C23 N1 1_555 1_555
H1 C2 1_555 1_555
H2 C3 1_555 1_555
H3 C4 1_555 1_555
H4 C4 1_555 1_555
H5 C5 1_555 1_555
H6 C6 1_555 1_555
H7 C7 1_555 1_555
H9 C8 1_555 1_555
H10 C9 1_555 1_555
H11 C10 1_555 1_555
H12 O1 1_555 1_555
H13 C14 1_555 1_555
H14 C15 1_555 1_555
H15 C16 1_555 1_555
H16 C17 1_555 1_555
H17 C20 1_555 1_555
H18 C21 1_555 1_555
H19 C22 1_555 1_555
H20 C23 1_555 1_555
C1 C18 1_555 1_555
C8 C9 1_555 1_555
C9 C10 1_555 1_555
C10 C11 1_555 1_555
C16 C17 1_555 1_555
C22 C23 1_555 1_555

#END
