
#######################################################################
#
#                 Cambridge Crystallographic Data Centre
#                                CCDC 
#
#######################################################################
#
# If this CIF has been generated from an entry in the Cambridge 
# Structural Database, then it will include bibliographic, chemical, 
# crystal, experimental, refinement or atomic coordinate data resulting 
# from the CCDC's data processing and validation procedures.
#
#######################################################################

data_LIFHAK
_chemical_formula_moiety         
'H4 N1 1+,C4 H12 N1 1+,2(C19 H17 O7 S1 1-),5(H2 O1)'
_chemical_name_systematic        
"Ammonium diethylammonium bis(4',7-diethoxyisoflavone-3'-sulfonate) pentahydrate"
_symmetry_cell_setting           triclinic
_symmetry_space_group_name_H-M   'P -1'
_symmetry_Int_Tables_number      2
_space_group_name_Hall           '-P 1'
loop_
_symmetry_equiv_pos_site_id
_symmetry_equiv_pos_as_xyz
1 x,y,z
2 -x,-y,-z
_cell_length_a                   11.059(3)
_cell_length_b                   15.172(4)
_cell_length_c                   15.304(4)
_cell_angle_alpha                98.624(3)
_cell_angle_beta                 108.438(4)
_cell_angle_gamma                92.752(4)
_cell_volume                     2395.96
_exptl_crystal_colour            colorless
_exptl_crystal_description       rhombus
_cell_formula_units_Z            2
loop_
_atom_site_label
_atom_site_type_symbol
_atom_site_fract_x
_atom_site_fract_y
_atom_site_fract_z
N1 N 0.3245(6) 0.8851(4) 0.5631(4)
H1 H 0.3185 0.9043 0.5092
H2 H 0.3903 0.9175 0.6097
C39 C 0.3389(11) 0.7887(7) 0.5553(8)
H51 H 0.3016 0.7652 0.5976
H52 H 0.4297 0.7816 0.5771
C40 C 0.2810(16) 0.7322(9) 0.4607(10)
H53 H 0.2939 0.6706 0.4649
H54 H 0.3211 0.7515 0.4186
H55 H 0.1909 0.7381 0.4377
C41 C 0.2031(13) 0.8894(9) 0.5842(8)
H56 H 0.2039 0.8595 0.6361
H57 H 0.1296 0.8643 0.5300
C42 C 0.2055(13) 0.9920(8) 0.6102(8)
H58 H 0.1350 1.0055 0.6321
H59 H 0.1983 1.0189 0.5560
H60 H 0.2846 1.0154 0.6585
N2 N 0.6505(5) 0.8488(3) 0.4829(3)
H3 H 0.6088 0.8579 0.4261
H4 H 0.6962 0.8029 0.4829
H5 H 0.5928 0.8345 0.5082
H6 H 0.6969 0.8982 0.5171
O1 O 0.0763(4) 0.6215(2) -0.1070(2)
O2 O 0.2178(4) 0.6467(2) 0.1767(2)
O3 O 0.1282(4) 0.3108(2) -0.1459(3)
O4 O 0.1421(3) 1.0586(2) 0.2497(2)
O5 O 0.4216(3) 1.0390(2) 0.3317(2)
O6 O 0.4342(4) 0.8846(3) 0.3526(3)
O7 O 0.2958(4) 0.9752(3) 0.4113(2)
S1 S 0.35531(13) 0.95796(9) 0.33986(9)
C1 C 0.0890(5) 0.7004(3) -0.0491(3)
H17 H 0.0661 0.7501 -0.0773
C2 C 0.1312(5) 0.7145(3) 0.0448(3)
C3 C 0.1747(5) 0.6392(3) 0.0909(3)
C4 C 0.1625(4) 0.5540(3) 0.0287(3)
C5 C 0.1987(5) 0.4750(3) 0.0626(3)
H18 H 0.2318 0.4763 0.1268
C6 C 0.1858(5) 0.3964(3) 0.0029(4)
H19 H 0.2100 0.3446 0.0266
C7 C 0.1366(5) 0.3930(3) -0.0936(4)
C8 C 0.1010(5) 0.4693(3) -0.1292(4)
H20 H 0.0686 0.4679 -0.1934
C9 C 0.1146(5) 0.5476(3) -0.0674(3)
C10 C 0.1339(5) 0.8048(3) 0.0981(3)
C11 C 0.2286(4) 0.8377(3) 0.1836(3)
H21 H 0.2919 0.8016 0.2084
C12 C 0.2310(4) 0.9215(3) 0.2319(3)
C13 C 0.1368(5) 0.9775(3) 0.1978(3)
C14 C 0.0433(5) 0.9457(3) 0.1121(3)
H22 H -0.0192 0.9820 0.0867
C15 C 0.0419(5) 0.8610(3) 0.0642(3)
H23 H -0.0226 0.8411 0.0074
C16 C 0.0665(7) 0.2992(4) -0.2450(4)
H24 H 0.1129 0.3366 -0.2724
H25 H -0.0205 0.3156 -0.2591
C17 C 0.0655(8) 0.2028(4) -0.2834(5)
H26 H 0.0235 0.1923 -0.3499
H27 H 0.0205 0.1665 -0.2551
H28 H 0.1520 0.1876 -0.2699
C18 C 0.0369(6) 1.1092(4) 0.2252(4)
H29 H -0.0414 1.0732 0.2185
H30 H 0.0285 1.1286 0.1662
C19 C 0.0593(7) 1.1890(4) 0.3012(5)
H31 H -0.0114 1.2246 0.2858
H32 H 0.1369 1.2242 0.3073
H33 H 0.0668 1.1691 0.3592
O8 O 0.4100(3) 0.9173(2) 1.0927(2)
O9 O 0.3025(4) 0.8852(2) 0.8087(2)
O10 O 0.3084(4) 1.2180(2) 1.1150(3)
O11 O 0.3713(3) 0.4659(2) 0.7657(2)
O12 O 0.1080(3) 0.4944(2) 0.6509(2)
O13 O 0.2686(4) 0.5503(3) 0.5919(2)
O14 O 0.1194(4) 0.6470(3) 0.6259(2)
S2 S 0.18913(13) 0.57165(9) 0.64945(9)
C20 C 0.4066(5) 0.8378(3) 1.0392(3)
H34 H 0.4298 0.7900 1.0704
C21 C 0.3735(4) 0.8202(3) 0.9460(3)
C22 C 0.3319(5) 0.8938(3) 0.8944(3)
C23 C 0.3284(4) 0.9778(3) 0.9519(3)
C24 C 0.2870(5) 1.0549(4) 0.9140(4)
H35 H 0.2629 1.0522 0.8496
C25 C 0.2814(5) 1.1323(4) 0.9686(4)
H36 H 0.2527 1.1817 0.9417
C26 C 0.3193(5) 1.1379(3) 1.0665(4)
C27 C 0.3634(5) 1.0668(3) 1.1068(3)
H37 H 0.3914 1.0707 1.1715
C28 C 0.3652(5) 0.9880(3) 1.0484(3)
C29 C 0.3773(5) 0.7286(3) 0.8983(3)
C30 C 0.2946(5) 0.6946(3) 0.8086(3)
H38 H 0.2379 0.7314 0.7768
C31 C 0.2939(5) 0.6068(3) 0.7650(3)
C32 C 0.3759(5) 0.5501(3) 0.8119(3)
C33 C 0.4599(5) 0.5841(4) 0.9016(4)
H39 H 0.5160 0.5473 0.9340
C34 C 0.4611(5) 0.6709(4) 0.9425(4)
H40 H 0.5196 0.6921 1.0017
C35 C 0.3643(7) 1.2324(4) 1.2147(4)
H41 H 0.4546 1.2235 1.2322
H42 H 0.3221 1.1904 1.2405
C36 C 0.3481(8) 1.3268(4) 1.2519(5)
H43 H 0.3847 1.3381 1.3189
H44 H 0.2585 1.3349 1.2343
H45 H 0.3905 1.3677 1.2263
C37 C 0.4454(6) 0.4028(4) 0.8126(4)
H46 H 0.4222 0.3954 0.8673
H47 H 0.5356 0.4243 0.8332
C38 C 0.4222(7) 0.3160(4) 0.7489(5)
H48 H 0.4729 0.2736 0.7806
H49 H 0.4454 0.3236 0.6949
H50 H 0.3331 0.2944 0.7296
O15 O 0.5557(4) 0.5605(3) 0.4376(3)
H7 H 0.4962 0.5747 0.3928
H8 H 0.5644 0.5062 0.4194
O16 O 0.3284(4) 0.5468(3) 0.3131(3)
H9 H 0.3124 0.6010 0.3119
H10 H 0.2633 0.5209 0.3204
O17 O 0.1609(6) 0.4918(5) 0.3905(4)
H11 H 0.0840 0.4682 0.3737
H12 H 0.1916 0.4853 0.4473
O18 O 0.7073(4) 0.6939(3) 0.5103(3)
H13 H 0.6525 0.6484 0.4966
H14 H 0.7737 0.6719 0.5035
O19 O 0.9148(4) 0.6655(2) 0.4740(3)
H15 H 0.9072 0.6168 0.4362
H16 H 0.9788 0.6608 0.5210
loop_
_geom_bond_atom_site_label_1
_geom_bond_atom_site_label_2
_geom_bond_site_symmetry_1
_geom_bond_site_symmetry_2
N1 H1 1_555 1_555
H2 N1 1_555 1_555
N2 H3 1_555 1_555
H4 N2 1_555 1_555
H5 N2 1_555 1_555
H6 N2 1_555 1_555
O1 C1 1_555 1_555
O2 C3 1_555 1_555
O3 C7 1_555 1_555
O4 C13 1_555 1_555
O5 S1 1_555 1_555
O6 S1 1_555 1_555
O7 S1 1_555 1_555
O8 C20 1_555 1_555
O9 C22 1_555 1_555
O10 C26 1_555 1_555
O11 C32 1_555 1_555
O12 S2 1_555 1_555
O13 S2 1_555 1_555
O14 S2 1_555 1_555
O15 H7 1_555 1_555
H8 O15 1_555 1_555
O16 H9 1_555 1_555
H10 O16 1_555 1_555
O17 H11 1_555 1_555
H12 O17 1_555 1_555
O18 H13 1_555 1_555
H14 O18 1_555 1_555
O19 H15 1_555 1_555
H16 O19 1_555 1_555
S1 C12 1_555 1_555
S2 C31 1_555 1_555
C1 H17 1_555 1_555
C2 C1 1_555 1_555
C3 C2 1_555 1_555
C4 C3 1_555 1_555
C5 C4 1_555 1_555
H18 C5 1_555 1_555
C6 C5 1_555 1_555
H19 C6 1_555 1_555
C7 C6 1_555 1_555
C8 C7 1_555 1_555
H20 C8 1_555 1_555
C9 O1 1_555 1_555
C10 C2 1_555 1_555
C11 C10 1_555 1_555
H21 C11 1_555 1_555
C12 C11 1_555 1_555
C13 C12 1_555 1_555
C14 C13 1_555 1_555
H22 C14 1_555 1_555
C15 C10 1_555 1_555
H23 C15 1_555 1_555
C16 O3 1_555 1_555
H24 C16 1_555 1_555
H25 C16 1_555 1_555
C17 C16 1_555 1_555
H26 C17 1_555 1_555
H27 C17 1_555 1_555
H28 C17 1_555 1_555
C18 O4 1_555 1_555
H29 C18 1_555 1_555
H30 C18 1_555 1_555
C19 C18 1_555 1_555
H31 C19 1_555 1_555
H32 C19 1_555 1_555
H33 C19 1_555 1_555
C20 H34 1_555 1_555
C21 C20 1_555 1_555
C22 C21 1_555 1_555
C23 C22 1_555 1_555
C24 C23 1_555 1_555
H35 C24 1_555 1_555
C25 C24 1_555 1_555
H36 C25 1_555 1_555
C26 C25 1_555 1_555
C27 C26 1_555 1_555
H37 C27 1_555 1_555
C28 O8 1_555 1_555
C29 C21 1_555 1_555
C30 C29 1_555 1_555
H38 C30 1_555 1_555
C31 C30 1_555 1_555
C32 C31 1_555 1_555
C33 C32 1_555 1_555
H39 C33 1_555 1_555
C34 C29 1_555 1_555
H40 C34 1_555 1_555
C35 O10 1_555 1_555
H41 C35 1_555 1_555
H42 C35 1_555 1_555
C36 C35 1_555 1_555
H43 C36 1_555 1_555
H44 C36 1_555 1_555
H45 C36 1_555 1_555
C37 O11 1_555 1_555
H46 C37 1_555 1_555
H47 C37 1_555 1_555
C38 C37 1_555 1_555
H48 C38 1_555 1_555
H49 C38 1_555 1_555
H50 C38 1_555 1_555
C39 N1 1_555 1_555
H51 C39 1_555 1_555
H52 C39 1_555 1_555
C40 C39 1_555 1_555
H53 C40 1_555 1_555
H54 C40 1_555 1_555
H55 C40 1_555 1_555
C41 N1 1_555 1_555
H56 C41 1_555 1_555
H57 C41 1_555 1_555
C42 C41 1_555 1_555
H58 C42 1_555 1_555
H59 C42 1_555 1_555
H60 C42 1_555 1_555
C4 C9 1_555 1_555
C8 C9 1_555 1_555
C14 C15 1_555 1_555
C23 C28 1_555 1_555
C27 C28 1_555 1_555
C33 C34 1_555 1_555

#END
