
#######################################################################
#
#                 Cambridge Crystallographic Data Centre
#                                CCDC 
#
#######################################################################
#
# If this CIF has been generated from an entry in the Cambridge 
# Structural Database, then it will include bibliographic, chemical, 
# crystal, experimental, refinement or atomic coordinate data resulting 
# from the CCDC's data processing and validation procedures.
#
#######################################################################

data_LIFHUG
_chemical_formula_moiety         'C22 H22'
_chemical_name_systematic        
7-phenyl-8-(2-phenylethenyl)bicyclo[4.2.0]oct-7-ene
_symmetry_cell_setting           monoclinic
_symmetry_space_group_name_H-M   'P 21/n'
_symmetry_Int_Tables_number      14
_space_group_name_Hall           '-P 2yn'
loop_
_symmetry_equiv_pos_site_id
_symmetry_equiv_pos_as_xyz
1 x,y,z
2 1/2-x,1/2+y,1/2-z
3 -x,-y,-z
4 1/2+x,1/2-y,1/2+z
_cell_length_a                   5.1746(8)
_cell_length_b                   8.6038(12)
_cell_length_c                   35.456(6)
_cell_angle_alpha                90
_cell_angle_beta                 90.339(8)
_cell_angle_gamma                90
_cell_volume                     1578.52
_exptl_crystal_colour            colorless
_exptl_crystal_description       block
_cell_formula_units_Z            4
loop_
_atom_site_label
_atom_site_type_symbol
_atom_site_fract_x
_atom_site_fract_y
_atom_site_fract_z
C1 C 0.2172(4) 0.5206(2) 0.58095(5)
C2 C 0.0284(4) 0.5792(2) 0.60507(6)
H1 H 0.0252 0.5473 0.6301
C3 C -0.1530(4) 0.6838(2) 0.59216(6)
H2 H -0.2775 0.7218 0.6086
C4 C -0.1518(4) 0.7326(2) 0.55505(6)
H3 H -0.2756 0.8027 0.5465
C5 C 0.0338(4) 0.6768(2) 0.53077(6)
H4 H 0.0366 0.7102 0.5058
C6 C 0.2160(4) 0.5711(2) 0.54361(6)
H5 H 0.3397 0.5333 0.5270
C7 C 0.4067(4) 0.4053(2) 0.59325(5)
C8 C 0.5985(4) 0.3106(2) 0.57038(5)
H6 H 0.7347 0.3756 0.5595
C9 C 0.4960(4) 0.1919(2) 0.54241(6)
H7 H 0.6370 0.1261 0.5342
H8 H 0.4276 0.2455 0.5204
C10 C 0.2845(4) 0.0909(3) 0.55941(6)
H9 H 0.2472 0.0058 0.5423
H10 H 0.1284 0.1524 0.5618
C11 C 0.3559(4) 0.0234(3) 0.59835(6)
H11 H 0.2337 0.0616 0.6168
H12 H 0.3396 -0.0888 0.5974
C12 C 0.6289(4) 0.0649(2) 0.61134(6)
H13 H 0.6532 0.0302 0.6371
H14 H 0.7526 0.0102 0.5957
C13 C 0.6820(4) 0.2378(2) 0.60916(5)
H15 H 0.8603 0.2639 0.6161
C14 C 0.4862(4) 0.3468(2) 0.62688(6)
C15 C 0.4300(4) 0.3712(2) 0.66606(5)
H16 H 0.2974 0.4391 0.6724
C16 C 0.5604(4) 0.3002(2) 0.69390(6)
H17 H 0.6929 0.2339 0.6866
C17 C 0.5183(4) 0.3151(2) 0.73442(6)
C18 C 0.6741(4) 0.2306(3) 0.75914(6)
H18 H 0.8026 0.1665 0.7495
C19 C 0.6409(4) 0.2402(3) 0.79766(6)
H19 H 0.7472 0.1830 0.8137
C20 C 0.4519(4) 0.3337(3) 0.81238(6)
H20 H 0.4297 0.3401 0.8383
C21 C 0.2946(4) 0.4183(3) 0.78834(6)
H21 H 0.1662 0.4818 0.7982
C22 C 0.3270(4) 0.4091(3) 0.74993(6)
H22 H 0.2197 0.4665 0.7341
loop_
_geom_bond_atom_site_label_1
_geom_bond_atom_site_label_2
_geom_bond_site_symmetry_1
_geom_bond_site_symmetry_2
C1 C2 1_555 1_555
C2 H1 1_555 1_555
C3 C2 1_555 1_555
H2 C3 1_555 1_555
C4 C3 1_555 1_555
H3 C4 1_555 1_555
C5 C4 1_555 1_555
H4 C5 1_555 1_555
C6 C1 1_555 1_555
H5 C6 1_555 1_555
C7 C1 1_555 1_555
C8 C7 1_555 1_555
H6 C8 1_555 1_555
C9 C8 1_555 1_555
H7 C9 1_555 1_555
H8 C9 1_555 1_555
C10 C9 1_555 1_555
H9 C10 1_555 1_555
H10 C10 1_555 1_555
C11 C10 1_555 1_555
H11 C11 1_555 1_555
H12 C11 1_555 1_555
C12 C11 1_555 1_555
H13 C12 1_555 1_555
H14 C12 1_555 1_555
C13 C8 1_555 1_555
H15 C13 1_555 1_555
C14 C7 1_555 1_555
C15 C14 1_555 1_555
H16 C15 1_555 1_555
C16 C15 1_555 1_555
H17 C16 1_555 1_555
C17 C16 1_555 1_555
C18 C17 1_555 1_555
H18 C18 1_555 1_555
C19 C18 1_555 1_555
H19 C19 1_555 1_555
C20 C19 1_555 1_555
H20 C20 1_555 1_555
C21 C20 1_555 1_555
H21 C21 1_555 1_555
C22 C17 1_555 1_555
H22 C22 1_555 1_555
C5 C6 1_555 1_555
C12 C13 1_555 1_555
C13 C14 1_555 1_555
C21 C22 1_555 1_555

#END
