
#######################################################################
#
#                 Cambridge Crystallographic Data Centre
#                                CCDC 
#
#######################################################################
#
# If this CIF has been generated from an entry in the Cambridge 
# Structural Database, then it will include bibliographic, chemical, 
# crystal, experimental, refinement or atomic coordinate data resulting 
# from the CCDC's data processing and validation procedures.
#
#######################################################################

data_LIFHEO
_chemical_formula_moiety         'H12 Mg1 O6 2+,2(C17 H13 O7 S1 1-),8(H2 O1)'
_chemical_name_systematic        
"Hexaaqua-magnesium(ii) bis(4',7-dimethoxyisoflavone-3'-sulfonate) octahydrate"
_symmetry_cell_setting           monoclinic
_symmetry_space_group_name_H-M   'P 21/c'
_symmetry_Int_Tables_number      14
_space_group_name_Hall           '-P 2ybc'
loop_
_symmetry_equiv_pos_site_id
_symmetry_equiv_pos_as_xyz
1 x,y,z
2 -x,1/2+y,1/2-z
3 -x,-y,-z
4 x,1/2-y,1/2+z
_cell_length_a                   18.499(7)
_cell_length_b                   7.337(3)
_cell_length_c                   18.232(6)
_cell_angle_alpha                90
_cell_angle_beta                 115.254(4)
_cell_angle_gamma                90
_cell_volume                     2238.07
_exptl_crystal_colour            colorless
_exptl_crystal_description       acerose
_cell_formula_units_Z            2
loop_
_atom_site_label
_atom_site_type_symbol
_atom_site_fract_x
_atom_site_fract_y
_atom_site_fract_z
Mg1 Mg 0.5000 0.5000 0.5000
O8 O 0.38186(9) 0.4973(3) 0.41810(10)
H1 H 0.3605 0.4309 0.3754
H2 H 0.3488 0.5791 0.4157
O9 O 0.52456(10) 0.3111(3) 0.42892(10)
H3 H 0.5275 0.3401 0.3855
H4 H 0.5455 0.2112 0.4488
O10 O 0.48041(10) 0.2880(3) 0.56334(10)
H5 H 0.4417 0.2169 0.5388
H6 H 0.5182 0.2181 0.5952
O8B O 0.61814(9) 0.5027(3) 0.58190(10)
H1B H 0.6395 0.5691 0.6246
H2B H 0.6512 0.4209 0.5843
O9B O 0.47544(10) 0.6889(3) 0.57108(10)
H3B H 0.4725 0.6599 0.6145
H4B H 0.4545 0.7888 0.5512
O10B O 0.51959(10) 0.7120(3) 0.43666(10)
H5B H 0.5583 0.7831 0.4612
H6B H 0.4818 0.7819 0.4048
O1 O -0.05601(9) 0.3206(3) 0.11066(9)
O2 O 0.17599(10) 0.1904(3) 0.16497(11)
O3 O -0.12635(11) 0.2781(3) -0.17207(10)
O4 O 0.29669(10) 0.2774(2) 0.54101(9)
O5 O 0.27283(11) -0.1305(3) 0.52252(10)
O6 O 0.37919(10) -0.0055(3) 0.49510(11)
O7 O 0.28063(10) -0.1943(2) 0.39574(10)
S1 S 0.29611(3) -0.06568(9) 0.46108(3)
C1 C 0.00114(14) 0.3128(4) 0.18789(14)
H15 H -0.0146 0.3385 0.2289
C2 C 0.07803(14) 0.2716(4) 0.21052(14)
C3 C 0.10566(14) 0.2289(4) 0.14858(14)
C4 C 0.04455(14) 0.2403(4) 0.06561(14)
C5 C 0.06206(16) 0.2104(4) -0.00098(15)
H16 H 0.1140 0.1810 0.0076
C6 C 0.00379(17) 0.2241(4) -0.07818(16)
H17 H 0.0164 0.2047 -0.1218
C7 C -0.07430(16) 0.2668(4) -0.09243(14)
C8 C -0.09409(14) 0.2976(4) -0.02867(14)
H18 H -0.1462 0.3258 -0.0376
C9 C -0.03379(14) 0.2850(4) 0.04908(14)
C10 C 0.13599(13) 0.2750(4) 0.29748(14)
C11 C 0.18288(13) 0.1235(4) 0.33469(13)
H19 H 0.1779 0.0178 0.3047
C12 C 0.23657(13) 0.1283(3) 0.41551(13)
C13 C 0.24386(13) 0.2849(3) 0.46168(13)
C14 C 0.19872(14) 0.4371(4) 0.42482(14)
H20 H 0.2038 0.5431 0.4546
C15 C 0.14589(14) 0.4310(4) 0.34333(14)
H21 H 0.1164 0.5345 0.3189
C16 C -0.20805(17) 0.3141(5) -0.19095(17)
H22 H -0.2383 0.3182 -0.2488
H23 H -0.2123 0.4292 -0.1680
H24 H -0.2286 0.2193 -0.1688
C17 C 0.30810(17) 0.4369(4) 0.58905(15)
H25 H 0.3467 0.4126 0.6435
H26 H 0.2583 0.4715 0.5896
H27 H 0.3270 0.5341 0.5665
O11 O 0.32906(10) 0.2837(3) 0.28211(10)
H7 H 0.2790 0.2581 0.2528
H8 H 0.3467 0.3454 0.2531
O12 O 0.38904(12) 0.0459(3) 0.68337(11)
H9 H 0.3567 0.0331 0.6324
H10 H 0.3964 -0.0704 0.6968
O13 O 0.61105(12) 0.0769(3) 0.67891(12)
H11 H 0.6446 0.1195 0.6613
H12 H 0.6149 -0.0435 0.6797
O14 O 0.53958(13) 0.2973(3) 0.27685(12)
H13 H 0.4906 0.3202 0.2438
H14 H 0.5659 0.3350 0.2487
loop_
_geom_bond_atom_site_label_1
_geom_bond_atom_site_label_2
_geom_bond_site_symmetry_1
_geom_bond_site_symmetry_2
Mg1 O8 1_555 1_555
O1 C1 1_555 1_555
O2 C3 1_555 1_555
O3 C7 1_555 1_555
O4 C13 1_555 1_555
O5 S1 1_555 1_555
O6 S1 1_555 1_555
O7 S1 1_555 1_555
O8 H1 1_555 1_555
H2 O8 1_555 1_555
O9 Mg1 1_555 1_555
H3 O9 1_555 1_555
H4 O9 1_555 1_555
O10 Mg1 1_555 1_555
H5 O10 1_555 1_555
H6 O10 1_555 1_555
O11 H7 1_555 1_555
H8 O11 1_555 1_555
O12 H9 1_555 1_555
H10 O12 1_555 1_555
O13 H11 1_555 1_555
H12 O13 1_555 1_555
O14 H13 1_555 1_555
H14 O14 1_555 1_555
S1 C12 1_555 1_555
C1 H15 1_555 1_555
C2 C1 1_555 1_555
C3 C2 1_555 1_555
C4 C3 1_555 1_555
C5 C4 1_555 1_555
H16 C5 1_555 1_555
C6 C5 1_555 1_555
H17 C6 1_555 1_555
C7 C6 1_555 1_555
C8 C7 1_555 1_555
H18 C8 1_555 1_555
C9 O1 1_555 1_555
C10 C2 1_555 1_555
C11 C10 1_555 1_555
H19 C11 1_555 1_555
C12 C11 1_555 1_555
C13 C12 1_555 1_555
C14 C13 1_555 1_555
H20 C14 1_555 1_555
C15 C10 1_555 1_555
H21 C15 1_555 1_555
C16 O3 1_555 1_555
H22 C16 1_555 1_555
H23 C16 1_555 1_555
H24 C16 1_555 1_555
C17 O4 1_555 1_555
H25 C17 1_555 1_555
H26 C17 1_555 1_555
H27 C17 1_555 1_555
O8B Mg1 1_555 1_555
H1B O8B 1_555 1_555
H2B O8B 1_555 1_555
O9B Mg1 1_555 1_555
H3B O9B 1_555 1_555
H4B O9B 1_555 1_555
O10B Mg1 1_555 1_555
H5B O10B 1_555 1_555
H6B O10B 1_555 1_555
C4 C9 1_555 1_555
C8 C9 1_555 1_555
C14 C15 1_555 1_555

#END
