
#######################################################################
#
#                 Cambridge Crystallographic Data Centre
#                                CCDC 
#
#######################################################################
#
# If this CIF has been generated from an entry in the Cambridge 
# Structural Database, then it will include bibliographic, chemical, 
# crystal, experimental, refinement or atomic coordinate data resulting 
# from the CCDC's data processing and validation procedures.
#
#######################################################################

data_LIFKET
_chemical_formula_moiety         'C21 H17 N3 O2'
_chemical_name_systematic        
'methyl phenyl[1-(pyrimidin-2-yl)-1H-indol-5-yl]acetate'
_symmetry_cell_setting           monoclinic
_symmetry_space_group_name_H-M   'P 21/n'
_symmetry_Int_Tables_number      14
_space_group_name_Hall           '-P 2yn'
loop_
_symmetry_equiv_pos_site_id
_symmetry_equiv_pos_as_xyz
1 x,y,z
2 1/2-x,1/2+y,1/2-z
3 -x,-y,-z
4 1/2+x,1/2-y,1/2+z
_cell_length_a                   5.8340(6)
_cell_length_b                   36.798(4)
_cell_length_c                   8.5249(9)
_cell_angle_alpha                90
_cell_angle_beta                 103.941(3)
_cell_angle_gamma                90
_cell_volume                     1776.21
_cell_formula_units_Z            4
loop_
_atom_site_label
_atom_site_type_symbol
_atom_site_fract_x
_atom_site_fract_y
_atom_site_fract_z
C1 C 0.5831(18) 0.6551(3) 1.1200(10)
H1 H 0.609313 0.649649 1.233061
C2 C 0.3863(17) 0.6468(2) 1.0207(10)
H2 H 0.266274 0.636001 1.059104
C3 C 0.3542(12) 0.65345(16) 0.8647(8)
H3 H 0.206019 0.648536 0.798348
C4 C 0.5172(9) 0.66663(14) 0.7957(7)
C5 C 0.4615(8) 0.67247(13) 0.6144(6)
H4 H 0.307059 0.684433 0.583537
C6 C 0.6355(11) 0.69699(13) 0.5634(8)
C7 C 0.752(2) 0.7529(3) 0.4893(17)
H5 H 0.689981 0.776812 0.460388
H6 H 0.880347 0.754358 0.583620
H7 H 0.807145 0.742735 0.401445
C8 C 0.4379(7) 0.63594(12) 0.5261(5)
C9 C 0.6259(8) 0.61202(13) 0.5517(6)
H8 H 0.765599 0.618215 0.625546
C10 C 0.6132(8) 0.57913(12) 0.4712(6)
H9 H 0.743078 0.563683 0.488427
C11 C 0.4030(7) 0.56978(11) 0.3645(5)
C12 C 0.2121(7) 0.59343(13) 0.3385(5)
C13 C 0.2305(8) 0.62652(13) 0.4208(5)
H10 H 0.101610 0.642144 0.403923
C14 C 0.1067(8) 0.54474(15) 0.1802(6)
H11 H 0.019285 0.528579 0.105195
C15 C 0.0271(9) 0.57663(17) 0.2208(7)
H12 H -0.122909 0.586184 0.179440
C16 C 0.4654(8) 0.50778(11) 0.2543(5)
C17 C 0.4901(11) 0.45409(14) 0.1347(7)
H13 H 0.423975 0.436160 0.060672
C18 C 0.7118(11) 0.44913(14) 0.2242(7)
H14 H 0.799530 0.428598 0.213201
C19 C 0.7993(10) 0.47586(14) 0.3313(7)
H15 H 0.952081 0.473304 0.394946
N1 N 0.3365(6) 0.53927(9) 0.2652(4)
N2 N 0.6784(7) 0.50565(10) 0.3503(5)
N3 N 0.3594(7) 0.48354(11) 0.1466(5)
O1 O 0.8316(10) 0.68968(13) 0.5542(7)
O2 O 0.5571(12) 0.72871(18) 0.5249(14)
C20 C 0.732(3) 0.6616(9) 0.885(2)
H16 H 0.866737 0.661969 0.838615
C21 C 0.766(3) 0.6592(9) 1.050(2)
H17 H 0.922642 0.659035 1.118983
C22? C 0.745(5) 0.6888(13) 1.063(4)
H18? H 0.840359 0.706250 1.133968
C23? C 0.695(5) 0.6875(13) 0.903(2)
H19? H 0.786005 0.702830 0.849808
loop_
_geom_bond_atom_site_label_1
_geom_bond_atom_site_label_2
_geom_bond_site_symmetry_1
_geom_bond_site_symmetry_2
C1 H1 1_555 1_555
C2 C1 1_555 1_555
H2 C2 1_555 1_555
C3 C2 1_555 1_555
H3 C3 1_555 1_555
C4 C3 1_555 1_555
C5 C4 1_555 1_555
H4 C5 1_555 1_555
C6 C5 1_555 1_555
C7 H5 1_555 1_555
H6 C7 1_555 1_555
H7 C7 1_555 1_555
C8 C5 1_555 1_555
C9 C8 1_555 1_555
H8 C9 1_555 1_555
C10 C9 1_555 1_555
H9 C10 1_555 1_555
C11 C10 1_555 1_555
C12 C11 1_555 1_555
C13 C8 1_555 1_555
H10 C13 1_555 1_555
C14 H11 1_555 1_555
C15 C12 1_555 1_555
H12 C15 1_555 1_555
C16 N1 1_555 1_555
C17 H13 1_555 1_555
C18 C17 1_555 1_555
H14 C18 1_555 1_555
C19 C18 1_555 1_555
H15 C19 1_555 1_555
N1 C11 1_555 1_555
N2 C16 1_555 1_555
N3 C16 1_555 1_555
O1 C6 1_555 1_555
O2 C6 1_555 1_555
C20 C4 1_555 1_555
H16 C20 1_555 1_555
C21 C1 1_555 1_555
H17 C21 1_555 1_555
C7 O2 1_555 1_555
C12 C13 1_555 1_555
C14 C15 1_555 1_555
C14 N1 1_555 1_555
C17 N3 1_555 1_555
C19 N2 1_555 1_555
C20 C21 1_555 1_555

#END
