
#######################################################################
#
#                 Cambridge Crystallographic Data Centre
#                                CCDC 
#
#######################################################################
#
# If this CIF has been generated from an entry in the Cambridge 
# Structural Database, then it will include bibliographic, chemical, 
# crystal, experimental, refinement or atomic coordinate data resulting 
# from the CCDC's data processing and validation procedures.
#
#######################################################################

data_LIFLAQ
_chemical_formula_moiety         'C25 H26 N2 O3 S1'
_chemical_name_systematic        
't-butyl 7-oxo-7-[(quinolin-8-yl)amino]-4-[(thiophen-2-yl)methylidene]hept-2-enoate'
_symmetry_cell_setting           monoclinic
_symmetry_space_group_name_H-M   'P 21/c'
_symmetry_Int_Tables_number      14
_space_group_name_Hall           '-P 2ybc'
loop_
_symmetry_equiv_pos_site_id
_symmetry_equiv_pos_as_xyz
1 x,y,z
2 -x,1/2+y,1/2-z
3 -x,-y,-z
4 x,1/2-y,1/2+z
_cell_length_a                   8.9529(11)
_cell_length_b                   24.098(3)
_cell_length_c                   20.991(2)
_cell_angle_alpha                90
_cell_angle_beta                 93.228(4)
_cell_angle_gamma                90
_cell_volume                     4521.56
_exptl_crystal_colour            colorless
_exptl_crystal_description       Rod
_cell_formula_units_Z            8
loop_
_atom_site_label
_atom_site_type_symbol
_atom_site_fract_x
_atom_site_fract_y
_atom_site_fract_z
S1 S 0.69433(9) 0.10614(3) 0.44400(3)
O1 O 0.2775(2) 0.23389(8) 0.15298(8)
O2 O 0.2739(2) 0.15528(7) 0.09466(7)
O3 O 0.5897(2) -0.02701(7) 0.33112(8)
N1 N 0.3374(2) -0.04004(8) 0.33123(9)
H1 H 0.253279 -0.021562 0.333987
N2 N 0.0606(2) -0.07903(9) 0.32548(9)
C1 C 0.7756(3) 0.13495(12) 0.51139(12)
H2 H 0.832107 0.114623 0.543166
C2 C 0.7504(3) 0.19004(12) 0.51436(12)
H3 H 0.787518 0.212721 0.548725
C3 C 0.6643(3) 0.21050(11) 0.46189(11)
H4 H 0.636306 0.248348 0.456938
C4 C 0.6241(3) 0.16947(10) 0.41787(11)
C5 C 0.5437(3) 0.18103(11) 0.35775(11)
H5 H 0.504990 0.217666 0.354031
C6 C 0.5138(3) 0.14881(10) 0.30581(11)
C7 C 0.4316(3) 0.17454(11) 0.25221(11)
H6 H 0.407878 0.212675 0.257043
C8 C 0.3850(3) 0.15132(11) 0.19689(11)
H7 H 0.401968 0.112966 0.189700
C9 C 0.3075(3) 0.18524(11) 0.14711(11)
C10 C 0.5536(3) 0.08821(10) 0.30262(11)
H8 H 0.649731 0.081513 0.327024
H9 H 0.565688 0.077422 0.257691
C11 C 0.4312(3) 0.05310(10) 0.33020(12)
H10 H 0.417564 0.065277 0.374543
H11 H 0.335969 0.059905 0.305107
C12 C 0.4631(3) -0.00816(11) 0.33039(11)
C13 C 0.2099(3) 0.18215(11) 0.03551(11)
C14 C 0.0623(3) 0.20990(12) 0.04687(13)
H12 H 0.012684 0.220469 0.005854
H13 H 0.080214 0.243133 0.073115
H14 H -0.001644 0.184101 0.069009
C15 C 0.3232(3) 0.22189(13) 0.01063(13)
H15 H 0.339359 0.252614 0.040821
H16 H 0.285827 0.236519 -0.030831
H17 H 0.417827 0.202358 0.005728
C16 C 0.1868(4) 0.13279(12) -0.00881(12)
H18 H 0.283861 0.116109 -0.016681
H19 H 0.138108 0.145123 -0.049347
H20 H 0.123458 0.105260 0.010958
C17 C 0.3225(3) -0.09778(10) 0.32836(10)
C18 C 0.4388(3) -0.13469(11) 0.32867(11)
H21 H 0.539048 -0.121657 0.332312
C19 C 0.4095(3) -0.19216(11) 0.32357(11)
H22 H 0.490977 -0.217458 0.324350
C20 C 0.2673(3) -0.21209(11) 0.31757(11)
H23 H 0.250277 -0.250857 0.313278
C21 C 0.1448(3) -0.17515(10) 0.31771(10)
C22 C 0.1724(3) -0.11755(10) 0.32392(10)
C23 C -0.0064(3) -0.19202(11) 0.31172(11)
H24 H -0.030784 -0.230227 0.307105
C24 C -0.1166(3) -0.15345(11) 0.31258(12)
H25 H -0.218549 -0.164449 0.308187
C25 C -0.0790(3) -0.09715(11) 0.32002(12)
H26 H -0.157645 -0.070785 0.321184
S2 S 1.20371(12) 0.13674(4) 0.45554(4)
O4 O 0.7719(2) 0.02261(7) 0.16070(8)
O5 O 0.7947(2) 0.10082(7) 0.10260(7)
O6 O 1.1031(2) 0.27472(7) 0.34905(8)
N3 N 0.8504(2) 0.28726(8) 0.34099(9)
H27 H 0.765968 0.268555 0.340607
N4 N 0.5724(2) 0.32640(8) 0.33692(9)
C26 C 1.2720(4) 0.10714(14) 0.52385(13)
H28 H 1.324563 0.127290 0.556940
C27 C 1.2455(4) 0.05282(14) 0.52714(13)
H29 H 1.279219 0.029778 0.561753
C28 C 1.1619(5) 0.03407(18) 0.4732(2)
H30 H 1.129449 -0.003285 0.468055
C29 C 1.1302(3) 0.07505(11) 0.42753(11)
C30 C 1.0512(3) 0.06521(11) 0.36646(11)
H31 H 1.010688 0.028946 0.361254
C31 C 1.0255(3) 0.09894(10) 0.31578(11)
C32 C 0.9426(3) 0.07554(10) 0.26069(11)
H32 H 0.912643 0.037930 0.264491
C33 C 0.9032(3) 0.10037(11) 0.20523(11)
H33 H 0.931284 0.137801 0.198196
C34 C 0.8165(3) 0.06968(11) 0.15524(11)
C35 C 1.0681(3) 0.15940(10) 0.31499(11)
H34 H 1.082119 0.171403 0.270624
H35 H 1.163537 0.165059 0.340297
C36 C 0.9448(3) 0.19387(10) 0.34316(11)
H36 H 0.849722 0.187175 0.317965
H37 H 0.931436 0.181191 0.387333
C37 C 0.9768(3) 0.25573(11) 0.34414(10)
C38 C 0.7152(3) 0.07837(11) 0.04481(11)
C39 C 0.7109(4) 0.12796(12) 0.00023(12)
H38 H 0.668707 0.159980 0.021723
H39 H 0.648442 0.119201 -0.038315
H40 H 0.812574 0.136746 -0.011533
C40 C 0.8027(3) 0.03068(13) 0.01864(13)
H41 H 0.906064 0.042424 0.013361
H42 H 0.756591 0.019360 -0.022786
H43 H 0.802125 -0.000667 0.048364
C41 C 0.5575(3) 0.06141(12) 0.05902(12)
H44 H 0.561192 0.028494 0.086478
H45 H 0.500571 0.052889 0.018978
H46 H 0.508852 0.091886 0.080787
C42 C 0.8350(3) 0.34499(10) 0.33825(10)
C43 C 0.9511(3) 0.38205(10) 0.33780(10)
H47 H 1.051454 0.369067 0.340450
C44 C 0.9214(3) 0.43968(11) 0.33339(11)
H48 H 1.002553 0.465089 0.333568
C45 C 0.7788(3) 0.45927(11) 0.32892(11)
H49 H 0.761578 0.498088 0.325644
C46 C 0.6563(3) 0.42249(10) 0.32909(10)
C47 C 0.6842(3) 0.36471(10) 0.33462(10)
C48 C 0.5055(3) 0.43929(11) 0.32408(11)
H50 H 0.480995 0.477480 0.319341
C49 C 0.3950(3) 0.40080(11) 0.32604(12)
H51 H 0.293026 0.411887 0.322862
C50 C 0.4328(3) 0.34456(11) 0.33280(12)
H52 H 0.354194 0.318202 0.334491
S3? S 1.1802(12) 0.0212(3) 0.4719(4)
H53? H 1.329411 0.130991 0.551718
H54? H 1.269271 0.033825 0.566057
C51? C 1.187(4) 0.1185(10) 0.4651(12)
H55? H 1.169662 0.155784 0.451984
loop_
_geom_bond_atom_site_label_1
_geom_bond_atom_site_label_2
_geom_bond_site_symmetry_1
_geom_bond_site_symmetry_2
S1 C1 1_555 1_555
O1 C9 1_555 1_555
O2 C9 1_555 1_555
O3 C12 1_555 1_555
N1 H1 1_555 1_555
N2 C22 1_555 1_555
C1 H2 1_555 1_555
C2 C1 1_555 1_555
H3 C2 1_555 1_555
C3 C2 1_555 1_555
H4 C3 1_555 1_555
C4 S1 1_555 1_555
C5 C4 1_555 1_555
H5 C5 1_555 1_555
C6 C5 1_555 1_555
C7 C6 1_555 1_555
H6 C7 1_555 1_555
C8 C7 1_555 1_555
H7 C8 1_555 1_555
C9 C8 1_555 1_555
C10 C6 1_555 1_555
H8 C10 1_555 1_555
H9 C10 1_555 1_555
C11 C10 1_555 1_555
H10 C11 1_555 1_555
H11 C11 1_555 1_555
C12 N1 1_555 1_555
C13 O2 1_555 1_555
C14 C13 1_555 1_555
H12 C14 1_555 1_555
H13 C14 1_555 1_555
H14 C14 1_555 1_555
C15 C13 1_555 1_555
H15 C15 1_555 1_555
H16 C15 1_555 1_555
H17 C15 1_555 1_555
C16 C13 1_555 1_555
H18 C16 1_555 1_555
H19 C16 1_555 1_555
H20 C16 1_555 1_555
C17 N1 1_555 1_555
C18 C17 1_555 1_555
H21 C18 1_555 1_555
C19 C18 1_555 1_555
H22 C19 1_555 1_555
C20 C19 1_555 1_555
H23 C20 1_555 1_555
C21 C20 1_555 1_555
C22 C17 1_555 1_555
C23 C21 1_555 1_555
H24 C23 1_555 1_555
C24 C23 1_555 1_555
H25 C24 1_555 1_555
C25 N2 1_555 1_555
H26 C25 1_555 1_555
S2 C26 1_555 1_555
O4 C34 1_555 1_555
O5 C34 1_555 1_555
O6 C37 1_555 1_555
N3 H27 1_555 1_555
N4 C47 1_555 1_555
C26 H28 1_555 1_555
C27 C26 1_555 1_555
H29 C27 1_555 1_555
C28 C27 1_555 1_555
H30 C28 1_555 1_555
C29 S2 1_555 1_555
C30 C29 1_555 1_555
H31 C30 1_555 1_555
C31 C30 1_555 1_555
C32 C31 1_555 1_555
H32 C32 1_555 1_555
C33 C32 1_555 1_555
H33 C33 1_555 1_555
C34 C33 1_555 1_555
C35 C31 1_555 1_555
H34 C35 1_555 1_555
H35 C35 1_555 1_555
C36 C35 1_555 1_555
H36 C36 1_555 1_555
H37 C36 1_555 1_555
C37 N3 1_555 1_555
C38 O5 1_555 1_555
C39 C38 1_555 1_555
H38 C39 1_555 1_555
H39 C39 1_555 1_555
H40 C39 1_555 1_555
C40 C38 1_555 1_555
H41 C40 1_555 1_555
H42 C40 1_555 1_555
H43 C40 1_555 1_555
C41 C38 1_555 1_555
H44 C41 1_555 1_555
H45 C41 1_555 1_555
H46 C41 1_555 1_555
C42 N3 1_555 1_555
C43 C42 1_555 1_555
H47 C43 1_555 1_555
C44 C43 1_555 1_555
H48 C44 1_555 1_555
C45 C44 1_555 1_555
H49 C45 1_555 1_555
C46 C45 1_555 1_555
C47 C42 1_555 1_555
C48 C46 1_555 1_555
H50 C48 1_555 1_555
C49 C48 1_555 1_555
H51 C49 1_555 1_555
C50 N4 1_555 1_555
H52 C50 1_555 1_555
C3 C4 1_555 1_555
C11 C12 1_555 1_555
C21 C22 1_555 1_555
C24 C25 1_555 1_555
C28 C29 1_555 1_555
C36 C37 1_555 1_555
C46 C47 1_555 1_555
C49 C50 1_555 1_555

#END
