
#######################################################################
#
#                 Cambridge Crystallographic Data Centre
#                                CCDC 
#
#######################################################################
#
# If this CIF has been generated from an entry in the Cambridge 
# Structural Database, then it will include bibliographic, chemical, 
# crystal, experimental, refinement or atomic coordinate data resulting 
# from the CCDC's data processing and validation procedures.
#
#######################################################################

data_LIFLUK
_chemical_formula_moiety         'C39 H36 S3'
_chemical_name_systematic        
1,1',1''-[(2,4,6-triethylbenzene-1,3,5-triyl)trisulfanediyl]tris[4-(prop-1-yn-1-yl)benzene]
_symmetry_cell_setting           monoclinic
_symmetry_space_group_name_H-M   'P 21/n'
_symmetry_Int_Tables_number      14
_space_group_name_Hall           '-P 2yn'
loop_
_symmetry_equiv_pos_site_id
_symmetry_equiv_pos_as_xyz
1 x,y,z
2 1/2-x,1/2+y,1/2-z
3 -x,-y,-z
4 1/2+x,1/2-y,1/2+z
_cell_length_a                   13.9615(6)
_cell_length_b                   14.7481(6)
_cell_length_c                   16.6133(7)
_cell_angle_alpha                90
_cell_angle_beta                 103.8694(15)
_cell_angle_gamma                90
_cell_volume                     3321.04
_exptl_crystal_colour            colorless
_exptl_crystal_description       prism
_cell_formula_units_Z            4
_exptl_crystal_preparation       
'The data crystal was mounted using oil (Parantone-N, Exxon) to a  0.3 mm cryo-loop (Hampton Research) with the (-4 -4 3) scattering  planes roughly normal to the spindle axis.'
loop_
_atom_site_label
_atom_site_type_symbol
_atom_site_fract_x
_atom_site_fract_y
_atom_site_fract_z
S1 S 0.49816(2) 0.18591(2) 0.04288(2)
S2 S 0.28753(2) -0.00640(2) 0.22715(2)
S3 S 0.63500(2) 0.16116(2) 0.38162(2)
C1 C 0.48350(8) 0.14580(8) 0.14063(7)
C2 C 0.40147(8) 0.09144(7) 0.14325(7)
C3 C 0.39389(9) 0.05797(8) 0.22082(7)
C4 C 0.46511(9) 0.07704(8) 0.29438(7)
C5 C 0.54438(9) 0.13370(8) 0.28894(7)
C6 C 0.55474(8) 0.16950(8) 0.21316(7)
C7 C 0.43759(8) 0.29255(8) 0.03386(7)
C8 C 0.37808(9) 0.32132(8) 0.08551(8)
H1 H 0.3684 0.2831 0.1289
C9 C 0.33301(9) 0.40600(8) 0.07338(8)
H2 H 0.2925 0.4251 0.1087
C10 C 0.34639(9) 0.46317(8) 0.01032(8)
C11 C 0.40560(11) 0.43328(9) -0.04157(9)
H3 H 0.4148 0.4712 -0.0853
C12 C 0.45094(10) 0.34913(9) -0.02986(8)
H4 H 0.4912 0.3299 -0.0653
C13 C 0.30136(10) 0.55163(9) -0.00037(9)
C14 C 0.26556(11) 0.62520(10) -0.00713(10)
C15 C 0.22078(15) 0.71554(11) -0.01421(12)
H5 H 0.1734 0.7213 -0.0680
H6 H 0.2724 0.7616 -0.0096
H7 H 0.1866 0.7242 0.0303
C16 C 0.32512(8) 0.06737(8) 0.06509(7)
H8 H 0.3217 0.1161 0.0235
H9 H 0.2595 0.0622 0.0776
C17 C 0.35179(9) -0.02258(9) 0.02971(8)
H10 H 0.2999 -0.0391 -0.0191
H11 H 0.3579 -0.0702 0.0718
H12 H 0.4146 -0.0160 0.0138
C18 C 0.21042(9) 0.07985(8) 0.25147(7)
C19 C 0.11501(9) 0.05516(8) 0.25521(7)
H13 H 0.0943 -0.0061 0.2460
C20 C 0.05064(9) 0.11946(8) 0.27228(7)
H14 H -0.0140 0.1018 0.2749
C21 C 0.07940(9) 0.21025(8) 0.28579(7)
C22 C 0.17519(9) 0.23388(8) 0.28307(8)
H15 H 0.1962 0.2950 0.2929
C23 C 0.24041(9) 0.16984(8) 0.26631(8)
H16 H 0.3055 0.1872 0.2649
C24 C 0.01161(9) 0.27850(9) 0.29948(8)
C25 C -0.04400(10) 0.33649(9) 0.30874(9)
C26 C -0.11369(11) 0.40738(10) 0.31863(10)
H17 H -0.1735 0.4028 0.2737
H18 H -0.0834 0.4670 0.3167
H19 H -0.1308 0.3998 0.3721
C27 C 0.45673(12) 0.03648(10) 0.37582(8)
H20 H 0.3863 0.0325 0.3772
H21 H 0.4906 0.0762 0.4220
C28 C 0.50310(15) -0.05845(11) 0.38719(10)
H22 H 0.4946 -0.0848 0.4392
H23 H 0.5736 -0.0540 0.3890
H24 H 0.4707 -0.0972 0.3407
C29 C 0.56979(9) 0.24035(8) 0.42881(7)
C30 C 0.60625(9) 0.25527(9) 0.51362(8)
H25 H 0.6625 0.2228 0.5432
C31 C 0.56075(9) 0.31719(9) 0.55484(8)
H26 H 0.5863 0.3269 0.6125
C32 C 0.47773(8) 0.36555(8) 0.51284(7)
C33 C 0.44186(9) 0.35077(9) 0.42768(8)
H27 H 0.3858 0.3835 0.3981
C34 C 0.48735(9) 0.28886(9) 0.38606(8)
H28 H 0.4623 0.2794 0.3283
C35 C 0.43123(9) 0.42845(8) 0.55757(8)
C36 C 0.39688(9) 0.47976(9) 0.59835(8)
C37 C 0.35652(10) 0.54296(9) 0.64953(9)
H29 H 0.3249 0.5938 0.6153
H30 H 0.4099 0.5658 0.6945
H31 H 0.3077 0.5116 0.6731
C38 C 0.64088(9) 0.23036(9) 0.20999(8)
H32 H 0.6557 0.2699 0.2596
H33 H 0.6228 0.2697 0.1604
C39 C 0.73308(10) 0.17542(11) 0.20687(9)
H34 H 0.7878 0.2169 0.2064
H35 H 0.7196 0.1382 0.1565
H36 H 0.7508 0.1360 0.2557
loop_
_geom_bond_atom_site_label_1
_geom_bond_atom_site_label_2
_geom_bond_site_symmetry_1
_geom_bond_site_symmetry_2
S1 C1 1_555 1_555
S2 C3 1_555 1_555
S3 C5 1_555 1_555
C1 C2 1_555 1_555
C2 C3 1_555 1_555
C3 C4 1_555 1_555
C4 C5 1_555 1_555
C5 C6 1_555 1_555
C6 C1 1_555 1_555
C7 S1 1_555 1_555
C8 C7 1_555 1_555
H1 C8 1_555 1_555
C9 C8 1_555 1_555
H2 C9 1_555 1_555
C10 C9 1_555 1_555
C11 C10 1_555 1_555
H3 C11 1_555 1_555
C12 C7 1_555 1_555
H4 C12 1_555 1_555
C13 C10 1_555 1_555
C14 C13 1_555 1_555
C15 C14 1_555 1_555
H5 C15 1_555 1_555
H6 C15 1_555 1_555
H7 C15 1_555 1_555
C16 C2 1_555 1_555
H8 C16 1_555 1_555
H9 C16 1_555 1_555
C17 C16 1_555 1_555
H10 C17 1_555 1_555
H11 C17 1_555 1_555
H12 C17 1_555 1_555
C18 S2 1_555 1_555
C19 C18 1_555 1_555
H13 C19 1_555 1_555
C20 C19 1_555 1_555
H14 C20 1_555 1_555
C21 C20 1_555 1_555
C22 C21 1_555 1_555
H15 C22 1_555 1_555
C23 C18 1_555 1_555
H16 C23 1_555 1_555
C24 C21 1_555 1_555
C25 C24 1_555 1_555
C26 C25 1_555 1_555
H17 C26 1_555 1_555
H18 C26 1_555 1_555
H19 C26 1_555 1_555
C27 C4 1_555 1_555
H20 C27 1_555 1_555
H21 C27 1_555 1_555
C28 C27 1_555 1_555
H22 C28 1_555 1_555
H23 C28 1_555 1_555
H24 C28 1_555 1_555
C29 S3 1_555 1_555
C30 C29 1_555 1_555
H25 C30 1_555 1_555
C31 C30 1_555 1_555
H26 C31 1_555 1_555
C32 C31 1_555 1_555
C33 C32 1_555 1_555
H27 C33 1_555 1_555
C34 C29 1_555 1_555
H28 C34 1_555 1_555
C35 C32 1_555 1_555
C36 C35 1_555 1_555
C37 C36 1_555 1_555
H29 C37 1_555 1_555
H30 C37 1_555 1_555
H31 C37 1_555 1_555
C38 C6 1_555 1_555
H32 C38 1_555 1_555
H33 C38 1_555 1_555
C39 C38 1_555 1_555
H34 C39 1_555 1_555
H35 C39 1_555 1_555
H36 C39 1_555 1_555
C11 C12 1_555 1_555
C22 C23 1_555 1_555
C33 C34 1_555 1_555

#END
