
#######################################################################
#
#                 Cambridge Crystallographic Data Centre
#                                CCDC 
#
#######################################################################
#
# If this CIF has been generated from an entry in the Cambridge 
# Structural Database, then it will include bibliographic, chemical, 
# crystal, experimental, refinement or atomic coordinate data resulting 
# from the CCDC's data processing and validation procedures.
#
#######################################################################

data_LIFLOE
_chemical_formula_moiety         'C66 H66 O3,3(C1 H4 O1)'
_chemical_name_systematic        
"1,1',1''-[{2,4,6-tris[(4-t-butylphenyl)methyl]benzene-1,3,5-triyl}tris(oxy)]tris[4-(prop-1-yn-1-yl)benzene] methanol solvate"
_symmetry_cell_setting           trigonal
_symmetry_space_group_name_H-M   'P -3 c 1'
_symmetry_Int_Tables_number      165
_space_group_name_Hall           '-P 3 2"c'
loop_
_symmetry_equiv_pos_site_id
_symmetry_equiv_pos_as_xyz
1 x,y,z
2 -y,x-y,z
3 -x+y,-x,z
4 y,x,1/2-z
5 x-y,-y,1/2-z
6 -x,-x+y,1/2-z
7 -x,-y,-z
8 y,-x+y,-z
9 x-y,x,-z
10 -y,-x,1/2+z
11 -x+y,y,1/2+z
12 x,x-y,1/2+z
_cell_length_a                   15.2838(10)
_cell_length_b                   15.2838(10)
_cell_length_c                   27.2130(19)
_cell_angle_alpha                90
_cell_angle_beta                 90
_cell_angle_gamma                120
_cell_volume                     5505.16
_exptl_crystal_colour            colorless
_exptl_crystal_description       prism
_cell_formula_units_Z            4
_exptl_crystal_preparation       
'The data crystal was mounted using oil (Parantone-N, Exxon) to a  0.3 mm cryo-loop (Hampton Research).'
loop_
_atom_site_label
_atom_site_type_symbol
_atom_site_fract_x
_atom_site_fract_y
_atom_site_fract_z
O1 O 0.8674(2) 0.4827(2) 0.21404(9)
C1 C 0.7664(3) 0.4067(3) 0.21099(13)
C2 C 0.7432(3) 0.3067(3) 0.21092(13)
C3 C 0.9214(3) 0.5198(3) 0.17080(14)
C4 C 1.0167(3) 0.6042(3) 0.17618(14)
H1 H 1.0396 0.6339 0.2076
C5 C 1.0778(3) 0.6445(3) 0.13559(15)
H2 H 1.1429 0.7024 0.1392
C6 C 1.0449(3) 0.6012(3) 0.08903(14)
C7 C 0.9487(3) 0.5176(3) 0.08442(14)
H3 H 0.9251 0.4881 0.0530
C8 C 0.8865(3) 0.4765(3) 0.12537(14)
H4 H 0.8209 0.4192 0.1220
C9 C 1.1105(3) 0.6451(4) 0.04712(16)
C10 C 1.1671(4) 0.6857(4) 0.01406(16)
C11 C 1.2387(4) 0.7410(4) -0.02581(17)
H5 H 1.3079 0.7668 -0.0140
H6 H 1.2302 0.7976 -0.0363
H7 H 1.2257 0.6954 -0.0536
C12 C 0.8233(3) 0.2763(3) 0.21081(15)
H8 H 0.8843 0.3300 0.1943
H9 H 0.7984 0.2139 0.1911
C13 C 0.8536(3) 0.2578(3) 0.26130(15)
C14 C 0.8656(4) 0.1762(4) 0.27004(17)
H10 H 0.8498 0.1275 0.2448
C15 C 0.9005(5) 0.1633(4) 0.31510(18)
H11 H 0.9093 0.1066 0.3197
C16 C 0.9227(3) 0.2306(4) 0.35333(16)
C17 C 0.9077(4) 0.3109(4) 0.34474(17)
H12 H 0.9219 0.3588 0.3701
C18 C 0.8721(4) 0.3235(4) 0.29976(17)
H13 H 0.8604 0.3785 0.2955
C19 C 0.9645(3) 0.2168(3) 0.40243(17)
C20 C 0.8994(14) 0.1074(6) 0.4204(6)
H14 H 0.8296 0.0921 0.4248
H15 H 0.9259 0.0991 0.4517
H16 H 0.9013 0.0612 0.3960
C21 C 1.0740(7) 0.2411(16) 0.3940(6)
H17 H 1.0743 0.1914 0.3714
H18 H 1.1039 0.2386 0.4254
H19 H 1.1134 0.3089 0.3798
C22 C 0.9652(16) 0.2876(11) 0.4425(4)
H20 H 1.0140 0.3577 0.4338
H21 H 0.9842 0.2707 0.4739
H22 H 0.8976 0.2797 0.4453
O1A O 0.5173(2) 0.3847(3) 0.21404(9)
C1A C 0.5933(3) 0.3597(4) 0.21099(13)
C2A C 0.6933(3) 0.4365(4) 0.21092(13)
C3A C 0.4802(3) 0.4016(4) 0.17080(14)
C4A C 0.3958(3) 0.4125(4) 0.17618(14)
H1A H 0.3661 0.4057 0.2076
C5A C 0.3555(3) 0.4333(4) 0.13559(15)
H2A H 0.2976 0.4405 0.1392
C6A C 0.3988(3) 0.4437(4) 0.08903(14)
C7A C 0.4824(3) 0.4311(4) 0.08442(14)
H3A H 0.5119 0.4370 0.0530
C8A C 0.5235(3) 0.4100(4) 0.12537(14)
H4A H 0.5808 0.4017 0.1220
C9A C 0.3549(4) 0.4654(5) 0.04712(16)
C10A C 0.3143(4) 0.4814(6) 0.01406(16)
C11A C 0.2590(4) 0.4977(6) -0.02581(17)
H5A H 0.2332 0.5411 -0.0140
H6A H 0.2024 0.4326 -0.0363
H7A H 0.3046 0.5303 -0.0536
C12A C 0.7237(3) 0.5470(4) 0.21081(15)
H8A H 0.6700 0.5543 0.1943
H9A H 0.7861 0.5845 0.1911
C13A C 0.7422(3) 0.5958(4) 0.26130(15)
C14A C 0.8238(4) 0.6894(6) 0.27004(17)
H10A H 0.8725 0.7223 0.2448
C15A C 0.8367(4) 0.7372(6) 0.31510(18)
H11A H 0.8934 0.8027 0.3197
C16A C 0.7694(4) 0.6921(5) 0.35333(16)
C17A C 0.6891(4) 0.5968(6) 0.34474(17)
H12A H 0.6412 0.5631 0.3701
C18A C 0.6765(4) 0.5486(6) 0.29976(17)
H13A H 0.6215 0.4819 0.2955
C19A C 0.7832(3) 0.7477(4) 0.40243(17)
C20A C 0.8926(6) 0.7920(15) 0.4204(6)
H14A H 0.9079 0.7375 0.4248
H15A H 0.9009 0.8268 0.4517
H16A H 0.9388 0.8401 0.3960
C21A C 0.7589(16) 0.8329(17) 0.3940(6)
H17A H 0.8086 0.8829 0.3714
H18A H 0.7614 0.8653 0.4254
H19A H 0.6911 0.8045 0.3798
C22A C 0.7124(11) 0.6776(19) 0.4425(4)
H20A H 0.6423 0.6563 0.4338
H21A H 0.7293 0.7135 0.4739
H22A H 0.7203 0.6179 0.4453
O1B O 0.6153(3) 0.1326(2) 0.21404(9)
C1B C 0.6403(4) 0.2336(3) 0.21099(13)
C2B C 0.5635(4) 0.2568(3) 0.21092(13)
C3B C 0.5984(4) 0.0786(3) 0.17080(14)
C4B C 0.5875(4) -0.0167(3) 0.17618(14)
H1B H 0.5943 -0.0396 0.2076
C5B C 0.5667(4) -0.0778(3) 0.13559(15)
H2B H 0.5595 -0.1429 0.1392
C6B C 0.5563(4) -0.0449(3) 0.08903(14)
C7B C 0.5689(4) 0.0513(3) 0.08442(14)
H3B H 0.5630 0.0749 0.0530
C8B C 0.5900(4) 0.1135(3) 0.12537(14)
H4B H 0.5983 0.1791 0.1220
C9B C 0.5346(5) -0.1105(3) 0.04712(16)
C10B C 0.5186(6) -0.1671(4) 0.01406(16)
C11B C 0.5023(6) -0.2387(4) -0.02581(17)
H5B H 0.4589 -0.3079 -0.0140
H6B H 0.5674 -0.2302 -0.0363
H7B H 0.4697 -0.2257 -0.0536
C12B C 0.4530(4) 0.1767(3) 0.21081(15)
H8B H 0.4457 0.1157 0.1943
H9B H 0.4155 0.2016 0.1911
C13B C 0.4042(4) 0.1464(3) 0.26130(15)
C14B C 0.3106(6) 0.1344(4) 0.27004(17)
H10B H 0.2777 0.1502 0.2448
C15B C 0.2628(6) 0.0995(5) 0.31510(18)
H11B H 0.1973 0.0907 0.3197
C16B C 0.3079(5) 0.0773(3) 0.35333(16)
C17B C 0.4032(6) 0.0923(4) 0.34474(17)
H12B H 0.4369 0.0781 0.3701
C18B C 0.4514(6) 0.1279(4) 0.29976(17)
H13B H 0.5181 0.1396 0.2955
C19B C 0.2523(4) 0.0355(3) 0.40243(17)
C20B C 0.2080(15) 0.1006(14) 0.4204(6)
H14B H 0.2625 0.1704 0.4248
H15B H 0.1732 0.0741 0.4517
H16B H 0.1599 0.0987 0.3960
C21B C 0.1671(17) -0.0740(7) 0.3940(6)
H17B H 0.1171 -0.0743 0.3714
H18B H 0.1347 -0.1039 0.4254
H19B H 0.1955 -0.1134 0.3798
C22B C 0.3224(19) 0.0348(16) 0.4425(4)
H20B H 0.3437 -0.0140 0.4338
H21B H 0.2865 0.0158 0.4739
H22B H 0.3821 0.1024 0.4453
C23? C 0.930(3) 0.1058(10) 0.4139(15)
H23? H 0.8566 0.0649 0.4100
H24? H 0.9484 0.1001 0.4477
H25? H 0.9631 0.0816 0.3912
C24? C 1.0806(7) 0.276(3) 0.3986(14)
H26? H 1.1038 0.3486 0.3951
H27? H 1.1020 0.2531 0.3699
H28? H 1.1100 0.2655 0.4284
C25? C 0.933(3) 0.261(3) 0.4453(9)
H29? H 0.8600 0.2333 0.4445
H30? H 0.9676 0.3347 0.4421
H31? H 0.9525 0.2432 0.4764
loop_
_geom_bond_atom_site_label_1
_geom_bond_atom_site_label_2
_geom_bond_site_symmetry_1
_geom_bond_site_symmetry_2
O1 C1 1_555 1_555
C1 C2 1_555 1_555
C2 C12 1_555 1_555
C3 O1 1_555 1_555
C4 C3 1_555 1_555
H1 C4 1_555 1_555
C5 C4 1_555 1_555
H2 C5 1_555 1_555
C6 C5 1_555 1_555
C7 C6 1_555 1_555
H3 C7 1_555 1_555
C8 C3 1_555 1_555
H4 C8 1_555 1_555
C9 C6 1_555 1_555
C10 C9 1_555 1_555
C11 C10 1_555 1_555
H5 C11 1_555 1_555
H6 C11 1_555 1_555
H7 C11 1_555 1_555
C12 H8 1_555 1_555
H9 C12 1_555 1_555
C13 C12 1_555 1_555
C14 C13 1_555 1_555
H10 C14 1_555 1_555
C15 C14 1_555 1_555
H11 C15 1_555 1_555
C16 C15 1_555 1_555
C17 C16 1_555 1_555
H12 C17 1_555 1_555
C18 C13 1_555 1_555
H13 C18 1_555 1_555
C19 C16 1_555 1_555
C20 C19 1_555 1_555
H14 C20 1_555 1_555
H15 C20 1_555 1_555
H16 C20 1_555 1_555
C21 C19 1_555 1_555
H17 C21 1_555 1_555
H18 C21 1_555 1_555
H19 C21 1_555 1_555
C22 C19 1_555 1_555
H20 C22 1_555 1_555
H21 C22 1_555 1_555
H22 C22 1_555 1_555
O1A C1A 1_555 1_555
C1A C2A 1_555 1_555
C2A C1 1_555 1_555
C3A O1A 1_555 1_555
C4A C3A 1_555 1_555
H1A C4A 1_555 1_555
C5A C4A 1_555 1_555
H2A C5A 1_555 1_555
C6A C5A 1_555 1_555
C7A C6A 1_555 1_555
H3A C7A 1_555 1_555
C8A C3A 1_555 1_555
H4A C8A 1_555 1_555
C9A C6A 1_555 1_555
C10A C9A 1_555 1_555
C11A C10A 1_555 1_555
H5A C11A 1_555 1_555
H6A C11A 1_555 1_555
H7A C11A 1_555 1_555
C12A C2A 1_555 1_555
H8A C12A 1_555 1_555
H9A C12A 1_555 1_555
C13A C12A 1_555 1_555
C14A C13A 1_555 1_555
H10A C14A 1_555 1_555
C15A C14A 1_555 1_555
H11A C15A 1_555 1_555
C16A C15A 1_555 1_555
C17A C16A 1_555 1_555
H12A C17A 1_555 1_555
C18A C13A 1_555 1_555
H13A C18A 1_555 1_555
C19A C16A 1_555 1_555
C20A C19A 1_555 1_555
H14A C20A 1_555 1_555
H15A C20A 1_555 1_555
H16A C20A 1_555 1_555
C21A C19A 1_555 1_555
H17A C21A 1_555 1_555
H18A C21A 1_555 1_555
H19A C21A 1_555 1_555
C22A C19A 1_555 1_555
H20A C22A 1_555 1_555
H21A C22A 1_555 1_555
H22A C22A 1_555 1_555
O1B C1B 1_555 1_555
C1B C2 1_555 1_555
C2B C1A 1_555 1_555
C3B O1B 1_555 1_555
C4B C3B 1_555 1_555
H1B C4B 1_555 1_555
C5B C4B 1_555 1_555
H2B C5B 1_555 1_555
C6B C5B 1_555 1_555
C7B C6B 1_555 1_555
H3B C7B 1_555 1_555
C8B C3B 1_555 1_555
H4B C8B 1_555 1_555
C9B C6B 1_555 1_555
C10B C9B 1_555 1_555
C11B C10B 1_555 1_555
H5B C11B 1_555 1_555
H6B C11B 1_555 1_555
H7B C11B 1_555 1_555
C12B C2B 1_555 1_555
H8B C12B 1_555 1_555
H9B C12B 1_555 1_555
C13B C12B 1_555 1_555
C14B C13B 1_555 1_555
H10B C14B 1_555 1_555
C15B C14B 1_555 1_555
H11B C15B 1_555 1_555
C16B C15B 1_555 1_555
C17B C16B 1_555 1_555
H12B C17B 1_555 1_555
C18B C13B 1_555 1_555
H13B C18B 1_555 1_555
C19B C16B 1_555 1_555
C20B C19B 1_555 1_555
H14B C20B 1_555 1_555
H15B C20B 1_555 1_555
H16B C20B 1_555 1_555
C21B C19B 1_555 1_555
H17B C21B 1_555 1_555
H18B C21B 1_555 1_555
H19B C21B 1_555 1_555
C22B C19B 1_555 1_555
H20B C22B 1_555 1_555
H21B C22B 1_555 1_555
H22B C22B 1_555 1_555
C7 C8 1_555 1_555
C17 C18 1_555 1_555
C7A C8A 1_555 1_555
C17A C18A 1_555 1_555
C1B C2B 1_555 1_555
C7B C8B 1_555 1_555
C17B C18B 1_555 1_555

#END
