
#######################################################################
#
#                 Cambridge Crystallographic Data Centre
#                                CCDC 
#
#######################################################################
#
# If this CIF has been generated from an entry in the Cambridge 
# Structural Database, then it will include bibliographic, chemical, 
# crystal, experimental, refinement or atomic coordinate data resulting 
# from the CCDC's data processing and validation procedures.
#
#######################################################################

data_LIFMAR
_chemical_formula_moiety         'C42 H42,0.5(C4 H8 O2)'
_chemical_name_systematic        
"1,1',1''-[(2,4,6-triethylbenzene-1,3,5-triyl)tris(methylene)]tris[4-(prop-1-yn-1-yl)benzene] ethyl acetate solvate"
_symmetry_cell_setting           monoclinic
_symmetry_space_group_name_H-M   'P 21/n'
_symmetry_Int_Tables_number      14
_space_group_name_Hall           '-P 2yn'
loop_
_symmetry_equiv_pos_site_id
_symmetry_equiv_pos_as_xyz
1 x,y,z
2 1/2-x,1/2+y,1/2-z
3 -x,-y,-z
4 1/2+x,1/2-y,1/2+z
_cell_length_a                   16.549(3)
_cell_length_b                   9.9129(17)
_cell_length_c                   22.008(5)
_cell_angle_alpha                90
_cell_angle_beta                 104.799(7)
_cell_angle_gamma                90
_cell_volume                     3490.62
_exptl_crystal_colour            colorless
_exptl_crystal_description       plate
_cell_formula_units_Z            4
_exptl_crystal_preparation       
'The data crystal was mounted using oil (Parantone-N, Exxon) to a  0.3 mm cryo-loop (Hampton Research) with the (-1 -1 0) scattering  planes roughly normal to the spindle axis.'
loop_
_atom_site_label
_atom_site_type_symbol
_atom_site_fract_x
_atom_site_fract_y
_atom_site_fract_z
C1 C 0.32990(11) 0.45404(17) 0.70539(8)
C2 C 0.25188(11) 0.49104(17) 0.71453(8)
C3 C 0.17811(11) 0.44818(17) 0.67139(8)
C4 C 0.18199(11) 0.37637(17) 0.61734(8)
C5 C 0.26003(11) 0.34005(17) 0.60842(8)
C6 C 0.33427(11) 0.37917(17) 0.65229(8)
C7 C 0.41024(11) 0.49310(18) 0.75350(8)
H1 H 0.3968 0.5103 0.7941
H2 H 0.4488 0.4151 0.7596
C8 C 0.45587(11) 0.61571(18) 0.73732(8)
C9 C 0.42444(12) 0.69280(19) 0.68396(9)
H3 H 0.3706 0.6730 0.6577
C10 C 0.47044(12) 0.79866(19) 0.66821(9)
H4 H 0.4477 0.8505 0.6315
C11 C 0.54956(11) 0.82902(18) 0.70586(9)
C12 C 0.57977(11) 0.75531(19) 0.76117(9)
H5 H 0.6324 0.7776 0.7885
C13 C 0.53361(11) 0.65049(19) 0.77627(9)
H6 H 0.5552 0.6011 0.8139
C14 C 0.60219(12) 0.92719(19) 0.68673(10)
C15 C 0.65025(13) 0.9985(2) 0.67011(10)
C16 C 0.71188(15) 1.0830(2) 0.65099(13)
H7 H 0.7330 1.0355 0.6191
H8 H 0.7584 1.1022 0.6876
H9 H 0.6856 1.1679 0.6334
C17 C 0.24696(11) 0.57377(18) 0.77134(8)
H10 H 0.1956 0.6295 0.7606
H11 H 0.2955 0.6355 0.7826
C18 C 0.24604(12) 0.48457(19) 0.82799(8)
H12 H 0.1975 0.4243 0.8172
H13 H 0.2426 0.5416 0.8636
H14 H 0.2974 0.4308 0.8393
C19 C 0.09336(11) 0.47564(18) 0.68392(8)
H15 H 0.0583 0.3942 0.6718
H16 H 0.1018 0.4882 0.7297
C20 C 0.04484(11) 0.59588(18) 0.65089(8)
C21 C -0.04034(11) 0.6060(2) 0.64758(8)
H17 H -0.0667 0.5365 0.6652
C22 C -0.08703(11) 0.7147(2) 0.61932(8)
H18 H -0.1449 0.7191 0.6177
C23 C -0.04993(11) 0.81836(18) 0.59309(8)
C24 C 0.03504(11) 0.80844(19) 0.59552(8)
H19 H 0.0613 0.8774 0.5775
C25 C 0.08128(11) 0.69838(19) 0.62410(9)
H20 H 0.1390 0.6931 0.6253
C26 C -0.09864(11) 0.93234(19) 0.56363(8)
C27 C -0.13905(12) 1.0262(2) 0.53858(9)
C28 C -0.18789(14) 1.1404(2) 0.50621(11)
H21 H -0.2002 1.1266 0.4607
H22 H -0.1558 1.2239 0.5174
H23 H -0.2404 1.1472 0.5189
C29 C 0.10155(11) 0.33722(18) 0.56931(8)
H24 H 0.1118 0.3371 0.5269
H25 H 0.0584 0.4062 0.5696
C30 C 0.06819(12) 0.19877(19) 0.58173(9)
H26 H 0.0167 0.1793 0.5494
H27 H 0.0565 0.1987 0.6232
H28 H 0.1101 0.1296 0.5806
C31 C 0.26516(11) 0.25629(18) 0.55177(8)
H29 H 0.3117 0.1912 0.5651
H30 H 0.2129 0.2036 0.5378
C32 C 0.27825(11) 0.33493(18) 0.49594(8)
C33 C 0.25164(13) 0.46688(19) 0.48371(9)
H31 H 0.2267 0.5127 0.5122
C34 C 0.26096(15) 0.5330(2) 0.43043(10)
H32 H 0.2413 0.6230 0.4225
C35 C 0.29867(12) 0.46961(19) 0.38849(8)
C36 C 0.32450(11) 0.33636(19) 0.40030(8)
H33 H 0.3495 0.2904 0.3719
C37 C 0.31405(11) 0.27071(18) 0.45307(8)
H34 H 0.3317 0.1796 0.4602
C38 C 0.31232(13) 0.5405(2) 0.33503(9)
C39 C 0.32508(13) 0.6008(2) 0.29162(9)
C40 C 0.34008(14) 0.6765(2) 0.23851(9)
H35 H 0.3816 0.6290 0.2217
H36 H 0.3609 0.7667 0.2526
H37 H 0.2877 0.6844 0.2056
C41 C 0.41834(11) 0.33896(18) 0.64222(8)
H38 H 0.4602 0.4084 0.6612
H39 H 0.4141 0.3366 0.5965
C42 C 0.44889(12) 0.2012(2) 0.67072(9)
H40 H 0.4076 0.1319 0.6523
H41 H 0.4561 0.2041 0.7163
H42 H 0.5024 0.1795 0.6617
O1? O 0.3932(2) 0.9443(4) 0.5115(2)
O2? O 0.4887(3) 0.8133(5) 0.4905(3)
C43? C 0.5133(6) 1.0438(13) 0.4998(7)
H43? H 0.5613 1.0155 0.4845
H44? H 0.5329 1.0792 0.5426
H45? H 0.4823 1.1142 0.4722
C44? C 0.4596(5) 0.9302(10) 0.4999(5)
C45? C 0.4375(4) 0.7034(8) 0.4882(5)
H46? H 0.4016 0.6953 0.4448
H47? H 0.4003 0.7212 0.5161
C46? C 0.4764(4) 0.5815(7) 0.5050(4)
H48? H 0.5044 0.5823 0.5500
H49? H 0.5178 0.5663 0.4809
H50? H 0.4348 0.5091 0.4962
loop_
_geom_bond_atom_site_label_1
_geom_bond_atom_site_label_2
_geom_bond_site_symmetry_1
_geom_bond_site_symmetry_2
C1 C2 1_555 1_555
C2 C3 1_555 1_555
C3 C4 1_555 1_555
C4 C5 1_555 1_555
C5 C6 1_555 1_555
C6 C1 1_555 1_555
C7 C1 1_555 1_555
H1 C7 1_555 1_555
H2 C7 1_555 1_555
C8 C7 1_555 1_555
C9 C8 1_555 1_555
H3 C9 1_555 1_555
C10 C9 1_555 1_555
H4 C10 1_555 1_555
C11 C10 1_555 1_555
C12 C11 1_555 1_555
H5 C12 1_555 1_555
C13 C8 1_555 1_555
H6 C13 1_555 1_555
C14 C11 1_555 1_555
C15 C14 1_555 1_555
C16 C15 1_555 1_555
H7 C16 1_555 1_555
H8 C16 1_555 1_555
H9 C16 1_555 1_555
C17 C2 1_555 1_555
H10 C17 1_555 1_555
H11 C17 1_555 1_555
C18 C17 1_555 1_555
H12 C18 1_555 1_555
H13 C18 1_555 1_555
H14 C18 1_555 1_555
C19 C3 1_555 1_555
H15 C19 1_555 1_555
H16 C19 1_555 1_555
C20 C19 1_555 1_555
C21 C20 1_555 1_555
H17 C21 1_555 1_555
C22 C21 1_555 1_555
H18 C22 1_555 1_555
C23 C22 1_555 1_555
C24 C23 1_555 1_555
H19 C24 1_555 1_555
C25 C20 1_555 1_555
H20 C25 1_555 1_555
C26 C23 1_555 1_555
C27 C26 1_555 1_555
C28 C27 1_555 1_555
H21 C28 1_555 1_555
H22 C28 1_555 1_555
H23 C28 1_555 1_555
C29 C4 1_555 1_555
H24 C29 1_555 1_555
H25 C29 1_555 1_555
C30 C29 1_555 1_555
H26 C30 1_555 1_555
H27 C30 1_555 1_555
H28 C30 1_555 1_555
C31 C5 1_555 1_555
H29 C31 1_555 1_555
H30 C31 1_555 1_555
C32 C31 1_555 1_555
C33 C32 1_555 1_555
H31 C33 1_555 1_555
C34 C33 1_555 1_555
H32 C34 1_555 1_555
C35 C34 1_555 1_555
C36 C35 1_555 1_555
H33 C36 1_555 1_555
C37 C32 1_555 1_555
H34 C37 1_555 1_555
C38 C35 1_555 1_555
C39 C38 1_555 1_555
C40 C39 1_555 1_555
H35 C40 1_555 1_555
H36 C40 1_555 1_555
H37 C40 1_555 1_555
C41 C6 1_555 1_555
H38 C41 1_555 1_555
H39 C41 1_555 1_555
C42 C41 1_555 1_555
H40 C42 1_555 1_555
H41 C42 1_555 1_555
H42 C42 1_555 1_555
C12 C13 1_555 1_555
C24 C25 1_555 1_555
C36 C37 1_555 1_555

#END
