
#######################################################################
#
#                 Cambridge Crystallographic Data Centre
#                                CCDC 
#
#######################################################################
#
# If this CIF has been generated from an entry in the Cambridge 
# Structural Database, then it will include bibliographic, chemical, 
# crystal, experimental, refinement or atomic coordinate data resulting 
# from the CCDC's data processing and validation procedures.
#
#######################################################################

data_LIFNAS
_chemical_formula_moiety         
'C36 H36 N6 O2 2+,2(F6 P1 1-),2(C2 H3 N1),H2 O1'
_chemical_name_systematic        
'15,22-dioxo-13,14,23,24-tetraaza-3,34-diazoniahexacyclo[34.2.2.1^3,7^.1^30,34^.0^6,11^.0^26,31^]dotetraconta-1(38),3(42),4,6,8,10,12,24,26,28,30(41),31,33,36,39-pentadecaene bis(hexafluorophosphate) acetonitrile solvate monohydrate'
_symmetry_cell_setting           triclinic
_symmetry_space_group_name_H-M   'P -1'
_symmetry_Int_Tables_number      2
_space_group_name_Hall           '-P 1'
loop_
_symmetry_equiv_pos_site_id
_symmetry_equiv_pos_as_xyz
1 x,y,z
2 -x,-y,-z
_cell_length_a                   8.8956(2)
_cell_length_b                   11.9078(3)
_cell_length_c                   21.3431(5)
_cell_angle_alpha                87.7720(10)
_cell_angle_beta                 84.3890(10)
_cell_angle_gamma                73.3540(10)
_cell_volume                     2155.55
_exptl_crystal_colour            yellow
_exptl_crystal_description       block
_cell_formula_units_Z            2
loop_
_atom_site_label
_atom_site_type_symbol
_atom_site_fract_x
_atom_site_fract_y
_atom_site_fract_z
P1 P 0.84132(5) 0.09389(4) 0.90522(2)
F1 F 0.99425(13) -0.01486(9) 0.90895(5)
F2 F 0.83378(15) 0.11076(11) 0.97924(5)
F3 F 0.94932(12) 0.18008(9) 0.89389(5)
F4 F 0.73405(16) 0.00768(12) 0.91570(6)
F5 F 0.85025(13) 0.07791(9) 0.83091(4)
F6 F 0.68932(12) 0.20352(11) 0.90190(5)
P2 P 0.18173(5) 0.44414(3) 0.73904(2)
F7 F 0.09934(13) 0.39245(10) 0.79821(5)
F8 F 0.25238(12) 0.51477(9) 0.78537(4)
F9 F 0.26319(14) 0.49673(9) 0.67961(4)
F10 F 0.11072(12) 0.37451(9) 0.69257(5)
F11 F 0.33533(12) 0.33597(9) 0.74088(5)
F12 F 0.02824(14) 0.55389(10) 0.73673(5)
O1 O 0.53349(16) 0.79746(10) 0.89571(6)
O2 O 0.32880(16) 0.87039(10) 0.53362(6)
N1 N 0.39655(16) 0.68684(11) 0.94664(6)
H1 H 0.360153 0.740629 0.975770
N2 N 0.35392(15) 0.58506(11) 0.95263(6)
N3 N 0.25080(16) 0.72400(11) 0.49850(6)
H2 H 0.203472 0.769124 0.468422
N4 N 0.25354(15) 0.60847(10) 0.50220(6)
N5 N 0.29780(14) 0.16585(10) 0.91176(5)
N6 N 0.37711(15) 0.16425(10) 0.57251(5)
C1 C 0.49377(18) 0.70735(13) 0.89688(7)
C2 C 0.54837(18) 0.61562(13) 0.84643(7)
H3 H 0.455751 0.607418 0.826827
H4 H 0.599990 0.539240 0.865930
C3 C 0.66360(19) 0.64632(15) 0.79546(7)
H5 H 0.731268 0.572795 0.775925
H6 H 0.732697 0.683375 0.815650
C4 C 0.5862(2) 0.72842(14) 0.74354(7)
H7 H 0.501631 0.794015 0.763232
H8 H 0.665796 0.762003 0.720582
C5 C 0.51633(19) 0.66933(13) 0.69646(7)
H9 H 0.430243 0.641648 0.718598
H10 H 0.598549 0.599964 0.679039
C6 C 0.45196(18) 0.75101(13) 0.64249(7)
H11 H 0.368912 0.819990 0.659841
H12 H 0.537745 0.779320 0.620575
C7 C 0.38387(18) 0.69137(13) 0.59534(7)
H13 H 0.466867 0.621752 0.578656
H14 H 0.297775 0.663640 0.617437
C8 C 0.32065(18) 0.76927(13) 0.54093(7)
C9 C 0.18140(17) 0.57372(13) 0.46119(7)
H15 H 0.129365 0.629660 0.431682
C10 C 0.17428(17) 0.45301(13) 0.45705(6)
C11 C 0.09740(18) 0.42959(14) 0.40798(7)
H16 H 0.053404 0.491778 0.380034
C12 C 0.08153(19) 0.31799(15) 0.39766(7)
H17 H 0.026989 0.306287 0.363492
C13 C 0.14394(18) 0.22649(14) 0.43639(7)
H18 H 0.132958 0.150973 0.429596
C14 C 0.22584(17) 0.24537(13) 0.48717(7)
C15 C 0.29738(18) 0.15077(13) 0.52527(7)
H19 H 0.288747 0.075079 0.517173
C16 C 0.38730(18) 0.27267(13) 0.58675(7)
H20 H 0.440838 0.281238 0.621869
C17 C 0.32203(18) 0.36805(13) 0.55143(7)
H21 H 0.330817 0.442509 0.562064
C18 C 0.24085(16) 0.35843(12) 0.49886(6)
C19 C 0.4678(2) 0.05942(13) 0.60708(7)
H22 H 0.581703 0.050343 0.597314
H23 H 0.445735 -0.011078 0.591646
C20 C 0.43008(18) 0.06534(12) 0.67769(7)
C21 C 0.55318(18) 0.04077(13) 0.71569(7)
H24 H 0.658318 0.026821 0.697165
C22 C 0.52407(18) 0.03636(13) 0.78076(7)
H25 H 0.609485 0.018106 0.806442
C23 C 0.37076(18) 0.05849(12) 0.80841(7)
C24 C 0.24699(18) 0.08450(13) 0.77020(7)
H26 H 0.141581 0.100662 0.788713
C25 C 0.27659(18) 0.08699(13) 0.70516(7)
H27 H 0.191525 0.103553 0.679350
C26 C 0.3423(2) 0.05005(13) 0.87910(7)
H28 H 0.257130 0.012219 0.889423
H29 H 0.438972 -0.001124 0.895746
C27 C 0.21100(17) 0.17687(13) 0.96657(6)
H30 H 0.171659 0.113931 0.982121
C28 C 0.17607(16) 0.27887(12) 1.00197(6)
C29 C 0.07790(18) 0.28905(14) 1.05938(7)
H31 H 0.036131 0.226686 1.073838
C30 C 0.04433(18) 0.38854(14) 1.09338(7)
H32 H -0.023163 0.396690 1.131294
C31 C 0.10924(17) 0.47962(13) 1.07260(7)
H33 H 0.086059 0.547666 1.097708
C32 C 0.20536(16) 0.47432(12) 1.01720(6)
C33 C 0.23863(16) 0.37186(12) 0.97930(6)
C34 C 0.32738(17) 0.35613(13) 0.92002(7)
H34 H 0.369068 0.416780 0.902635
C35 C 0.35376(17) 0.25551(13) 0.88766(7)
H35 H 0.412161 0.247275 0.847560
C36 C 0.26422(17) 0.57582(13) 1.00202(7)
H36 H 0.233842 0.639065 1.030733
O3 O 0.0047(2) 0.93562(16) 0.44312(8)
H37 H 0.040114 0.951984 0.405466
H38 H -0.072336 0.997401 0.453887
N7 N 0.2513(3) 0.7654(2) 0.35134(10)
C37 C 0.2609(3) 0.72467(19) 0.30342(10)
C38 C 0.2762(4) 0.6732(2) 0.24245(11)
H39 H 0.367406 0.603462 0.239374
H40 H 0.291044 0.730219 0.209779
H41 H 0.180662 0.651006 0.236640
N8 N 0.0054(3) 1.07970(19) 0.32595(9)
C39 C -0.0253(3) 1.12428(17) 0.27946(10)
C40 C -0.0663(4) 1.1821(2) 0.22012(11)
H42 H 0.029363 1.172282 0.191375
H43 H -0.117022 1.265821 0.227184
H44 H -0.138960 1.147488 0.201560
loop_
_geom_bond_atom_site_label_1
_geom_bond_atom_site_label_2
_geom_bond_site_symmetry_1
_geom_bond_site_symmetry_2
P1 F1 1_555 1_555
F2 P1 1_555 1_555
F3 P1 1_555 1_555
F4 P1 1_555 1_555
F5 P1 1_555 1_555
F6 P1 1_555 1_555
P2 F7 1_555 1_555
F8 P2 1_555 1_555
F9 P2 1_555 1_555
F10 P2 1_555 1_555
F11 P2 1_555 1_555
F12 P2 1_555 1_555
O1 C1 1_555 1_555
O2 C8 1_555 1_555
N1 H1 1_555 1_555
N2 N1 1_555 1_555
N3 H2 1_555 1_555
N4 N3 1_555 1_555
N5 C26 1_555 1_555
N6 C15 1_555 1_555
C1 N1 1_555 1_555
C2 C1 1_555 1_555
H3 C2 1_555 1_555
H4 C2 1_555 1_555
C3 C2 1_555 1_555
H5 C3 1_555 1_555
H6 C3 1_555 1_555
C4 C3 1_555 1_555
H7 C4 1_555 1_555
H8 C4 1_555 1_555
C5 C4 1_555 1_555
H9 C5 1_555 1_555
H10 C5 1_555 1_555
C6 C5 1_555 1_555
H11 C6 1_555 1_555
H12 C6 1_555 1_555
C7 C6 1_555 1_555
H13 C7 1_555 1_555
H14 C7 1_555 1_555
C8 N3 1_555 1_555
C9 N4 1_555 1_555
H15 C9 1_555 1_555
C10 C9 1_555 1_555
C11 C10 1_555 1_555
H16 C11 1_555 1_555
C12 C11 1_555 1_555
H17 C12 1_555 1_555
C13 C12 1_555 1_555
H18 C13 1_555 1_555
C14 C13 1_555 1_555
C15 C14 1_555 1_555
H19 C15 1_555 1_555
C16 N6 1_555 1_555
H20 C16 1_555 1_555
C17 C16 1_555 1_555
H21 C17 1_555 1_555
C18 C10 1_555 1_555
C19 N6 1_555 1_555
H22 C19 1_555 1_555
H23 C19 1_555 1_555
C20 C19 1_555 1_555
C21 C20 1_555 1_555
H24 C21 1_555 1_555
C22 C21 1_555 1_555
H25 C22 1_555 1_555
C23 C22 1_555 1_555
C24 C23 1_555 1_555
H26 C24 1_555 1_555
C25 C20 1_555 1_555
H27 C25 1_555 1_555
C26 C23 1_555 1_555
H28 C26 1_555 1_555
H29 C26 1_555 1_555
C27 N5 1_555 1_555
H30 C27 1_555 1_555
C28 C27 1_555 1_555
C29 C28 1_555 1_555
H31 C29 1_555 1_555
C30 C29 1_555 1_555
H32 C30 1_555 1_555
C31 C30 1_555 1_555
H33 C31 1_555 1_555
C32 C31 1_555 1_555
C33 C28 1_555 1_555
C34 C33 1_555 1_555
H34 C34 1_555 1_555
C35 N5 1_555 1_555
H35 C35 1_555 1_555
C36 N2 1_555 1_555
H36 C36 1_555 1_555
O3 H37 1_555 1_555
H38 O3 1_555 1_555
N7 C37 1_555 1_555
C37 C38 1_555 1_555
C38 H39 1_555 1_555
H40 C38 1_555 1_555
H41 C38 1_555 1_555
N8 C39 1_555 1_555
C39 C40 1_555 1_555
C40 H42 1_555 1_555
H43 C40 1_555 1_555
H44 C40 1_555 1_555
C7 C8 1_555 1_555
C14 C18 1_555 1_555
C17 C18 1_555 1_555
C24 C25 1_555 1_555
C32 C33 1_555 1_555
C32 C36 1_555 1_555
C34 C35 1_555 1_555

#END
