
#######################################################################
#
#                 Cambridge Crystallographic Data Centre
#                                CCDC 
#
#######################################################################
#
# If this CIF has been generated from an entry in the Cambridge 
# Structural Database, then it will include bibliographic, chemical, 
# crystal, experimental, refinement or atomic coordinate data resulting 
# from the CCDC's data processing and validation procedures.
#
#######################################################################

data_LIFPUO01
_chemical_formula_moiety         'C12 H24 O6,C6 H7 N2 O2 1+,H1 O4 S1 1-'
_chemical_name_systematic        '4-nitroanilinium hydrogen sulfate 18-crown-6'
_symmetry_cell_setting           monoclinic
_symmetry_space_group_name_H-M   'P 21/c'
_symmetry_Int_Tables_number      14
_space_group_name_Hall           '-P 2ybc'
loop_
_symmetry_equiv_pos_site_id
_symmetry_equiv_pos_as_xyz
1 x,y,z
2 -x,1/2+y,1/2-z
3 -x,-y,-z
4 x,1/2-y,1/2+z
_cell_length_a                   10.450(6)
_cell_length_b                   18.453(11)
_cell_length_c                   13.466(8)
_cell_angle_alpha                90
_cell_angle_beta                 112.672(7)
_cell_angle_gamma                90
_cell_volume                     2396.04
_exptl_crystal_colour            yellow
_exptl_crystal_description       block
_cell_formula_units_Z            4
loop_
_atom_site_label
_atom_site_type_symbol
_atom_site_fract_x
_atom_site_fract_y
_atom_site_fract_z
S1 S 0.89267(7) 0.07585(4) 0.05191(5)
O1 O 0.7625(2) 0.10584(13) 0.0438(2)
O2 O 0.9119(2) 0.07824(12) -0.05052(16)
O3 O 0.8835(2) -0.00561(11) 0.07627(18)
H1 H 0.9533 -0.0281 0.0757
O4 O 1.0089(2) 0.10631(12) 0.13720(17)
N1 N 0.66591(19) 0.10776(10) 0.40784(16)
H2 H 0.6257 0.0749 0.3623
H3 H 0.6067 0.1343 0.4187
H4 H 0.7045 0.0832 0.4649
N2 N 1.0746(2) 0.28517(12) 0.3540(2)
O5 O 1.1708(2) 0.30575(15) 0.4343(2)
O6 O 1.0649(2) 0.29807(13) 0.2622(2)
C1 C 0.7716(2) 0.15443(12) 0.39488(19)
C2 C 0.8521(2) 0.19792(14) 0.4784(2)
H5 H 0.8393 0.1978 0.5430
C3 C 0.9522(3) 0.24183(14) 0.4661(2)
H6 H 1.0079 0.2714 0.5218
C4 C 0.9669(2) 0.24041(13) 0.3685(2)
C5 C 0.8863(3) 0.19752(14) 0.2837(2)
H7 H 0.8983 0.1982 0.2188
C6 C 0.7873(3) 0.15336(13) 0.2973(2)
H8 H 0.7321 0.1234 0.2417
O7 O 0.7845(2) -0.03317(11) 0.40974(18)
O8 O 0.7729(2) 0.02261(12) 0.60064(16)
O9 O 0.6624(2) 0.15892(11) 0.61251(16)
O10 O 0.4585(2) 0.20619(10) 0.41874(16)
O11 O 0.42793(18) 0.14277(11) 0.21664(15)
O12 O 0.5584(2) 0.00817(11) 0.22719(15)
C7 C 0.8305(4) -0.07265(19) 0.5080(3)
H9 H 0.9042 -0.1055 0.5107
H10 H 0.7545 -0.1013 0.5114
C8 C 0.8815(4) -0.0231(2) 0.6006(3)
H11 H 0.9169 -0.0509 0.6668
H12 H 0.9568 0.0060 0.5968
C9 C 0.8100(4) 0.0614(2) 0.6993(2)
H13 H 0.8896 0.0921 0.7099
H14 H 0.8347 0.0276 0.7590
C10 C 0.6914(4) 0.1064(2) 0.6960(2)
H15 H 0.6107 0.0761 0.6826
H16 H 0.7136 0.1306 0.7647
C11 C 0.5569(3) 0.20867(18) 0.6081(3)
H17 H 0.5899 0.2397 0.6710
H18 H 0.4763 0.1825 0.6079
C12 C 0.5182(3) 0.25318(16) 0.5096(3)
H19 H 0.4517 0.2900 0.5091
H20 H 0.5996 0.2771 0.5071
C13 C 0.4061(3) 0.24373(17) 0.3199(2)
H21 H 0.4819 0.2660 0.3063
H22 H 0.3438 0.2818 0.3230
C14 C 0.3309(3) 0.19264(19) 0.2317(3)
H23 H 0.2624 0.1661 0.2494
H24 H 0.2829 0.2193 0.1657
C15 C 0.3614(3) 0.08419(18) 0.1474(3)
H25 H 0.2955 0.1028 0.0797
H26 H 0.3111 0.0550 0.1802
C16 C 0.4661(4) 0.03899(18) 0.1278(2)
H27 H 0.4203 0.0007 0.0773
H28 H 0.5181 0.0684 0.0967
C17 C 0.6646(4) -0.03614(17) 0.2178(3)
H29 H 0.7328 -0.0060 0.2050
H30 H 0.6250 -0.0689 0.1573
C18 C 0.7327(4) -0.07851(18) 0.3184(3)
H31 H 0.6663 -0.1122 0.3267
H32 H 0.8084 -0.1065 0.3131
loop_
_geom_bond_atom_site_label_1
_geom_bond_atom_site_label_2
_geom_bond_site_symmetry_1
_geom_bond_site_symmetry_2
S1 O1 1_555 1_555
O2 S1 1_555 1_555
O3 S1 1_555 1_555
H1 O3 1_555 1_555
O4 S1 1_555 1_555
N1 H2 1_555 1_555
H3 N1 1_555 1_555
H4 N1 1_555 1_555
N2 O5 1_555 1_555
O6 N2 1_555 1_555
C1 N1 1_555 1_555
C2 C1 1_555 1_555
H5 C2 1_555 1_555
C3 C2 1_555 1_555
H6 C3 1_555 1_555
C4 N2 1_555 1_555
C5 C4 1_555 1_555
H7 C5 1_555 1_555
C6 C1 1_555 1_555
H8 C6 1_555 1_555
O7 C7 1_555 1_555
O8 C8 1_555 1_555
O9 C10 1_555 1_555
O10 C12 1_555 1_555
O11 C14 1_555 1_555
O12 C16 1_555 1_555
C7 H9 1_555 1_555
H10 C7 1_555 1_555
C8 C7 1_555 1_555
H11 C8 1_555 1_555
H12 C8 1_555 1_555
C9 O8 1_555 1_555
H13 C9 1_555 1_555
H14 C9 1_555 1_555
C10 C9 1_555 1_555
H15 C10 1_555 1_555
H16 C10 1_555 1_555
C11 O9 1_555 1_555
H17 C11 1_555 1_555
H18 C11 1_555 1_555
C12 C11 1_555 1_555
H19 C12 1_555 1_555
H20 C12 1_555 1_555
C13 O10 1_555 1_555
H21 C13 1_555 1_555
H22 C13 1_555 1_555
C14 C13 1_555 1_555
H23 C14 1_555 1_555
H24 C14 1_555 1_555
C15 O11 1_555 1_555
H25 C15 1_555 1_555
H26 C15 1_555 1_555
C16 C15 1_555 1_555
H27 C16 1_555 1_555
H28 C16 1_555 1_555
C17 O12 1_555 1_555
H29 C17 1_555 1_555
H30 C17 1_555 1_555
C18 O7 1_555 1_555
H31 C18 1_555 1_555
H32 C18 1_555 1_555
C3 C4 1_555 1_555
C5 C6 1_555 1_555
C17 C18 1_555 1_555

#END
