
#######################################################################
#
#                 Cambridge Crystallographic Data Centre
#                                CCDC 
#
#######################################################################
#
# If this CIF has been generated from an entry in the Cambridge 
# Structural Database, then it will include bibliographic, chemical, 
# crystal, experimental, refinement or atomic coordinate data resulting 
# from the CCDC's data processing and validation procedures.
#
#######################################################################

data_LIFQEZ
_chemical_name_common            
'4-nitroanilinium 18-crown-6 hexafluorophosphate methanol solvate'
_chemical_formula_moiety         
'C6 H7 N2 O2 1+,C12 H24 O6,F6 P1 1-,0.5(C1 H4 O1)'
_chemical_name_systematic        
'4-nitroanilinium 1,4,7,10,13,16-hexaoxacyclooctadecane hexafluorophosphate methanol solvate'
_symmetry_cell_setting           monoclinic
_symmetry_space_group_name_H-M   'P 21/c'
_symmetry_Int_Tables_number      14
_space_group_name_Hall           '-P 2ybc'
loop_
_symmetry_equiv_pos_site_id
_symmetry_equiv_pos_as_xyz
1 x,y,z
2 -x,1/2+y,1/2-z
3 -x,-y,-z
4 x,1/2-y,1/2+z
_cell_length_a                   10.9491(9)
_cell_length_b                   23.701(2)
_cell_length_c                   21.9038(16)
_cell_angle_alpha                90
_cell_angle_beta                 113.961(4)
_cell_angle_gamma                90
_cell_volume                     5194.29
_exptl_crystal_colour            colorless
_exptl_crystal_description       block
_cell_formula_units_Z            8
loop_
_atom_site_label
_atom_site_type_symbol
_atom_site_fract_x
_atom_site_fract_y
_atom_site_fract_z
O1 O -0.0363(3) -0.38169(14) 0.54534(17)
O2 O 0.2048(3) -0.37475(15) 0.53029(17)
O3 O 0.2780(3) -0.27332(16) 0.48863(18)
O4 O -0.2395(3) -0.31151(16) 0.46184(18)
O5 O -0.1694(4) -0.20743(17) 0.42773(19)
O6 O 0.0834(4) -0.19528(17) 0.4218(2)
C1 C -0.2626(5) -0.3510(3) 0.5060(3)
H1 H -0.3552 -0.3631 0.4869
H2 H -0.2442 -0.3333 0.5487
C2 C -0.1423(6) -0.1665(3) 0.3879(3)
H3 H -0.1987 -0.1337 0.3830
H4 H -0.1628 -0.1819 0.3438
C3 C 0.0017(7) -0.1490(3) 0.4192(4)
H5 H 0.0172 -0.1189 0.3931
H6 H 0.0234 -0.1349 0.4640
C4 C 0.1895(6) -0.4095(3) 0.5798(3)
H7 H 0.2121 -0.3882 0.6207
H8 H 0.2497 -0.4415 0.5893
C5 C 0.3521(5) -0.3245(3) 0.4939(3)
H9 H 0.4450 -0.3159 0.5044
H10 H 0.3158 -0.3449 0.4519
C6 C -0.3029(6) -0.2282(3) 0.3980(3)
H11 H -0.3160 -0.2487 0.3575
H12 H -0.3649 -0.1967 0.3861
C7 C 0.0517(6) -0.4294(2) 0.5559(3)
H13 H 0.0283 -0.4500 0.5144
H14 H 0.0423 -0.4547 0.5885
C8 C 0.2187(7) -0.1815(3) 0.4470(4)
H15 H 0.2481 -0.1678 0.4925
H16 H 0.2335 -0.1520 0.4201
C9 C -0.1738(6) -0.4000(3) 0.5152(3)
H17 H -0.1899 -0.4277 0.5437
H18 H -0.1921 -0.4175 0.4724
C10 C -0.3301(5) -0.2650(3) 0.4436(3)
H19 H -0.3209 -0.2441 0.4833
H20 H -0.4212 -0.2788 0.4225
C11 C 0.3414(5) -0.3596(3) 0.5479(3)
H21 H 0.3952 -0.3934 0.5544
H22 H 0.3749 -0.3385 0.5895
C12 C 0.2956(6) -0.2329(3) 0.4455(4)
H23 H 0.2634 -0.2477 0.4003
H24 H 0.3896 -0.2238 0.4601
O7 O 0.0128(3) 0.06806(16) 0.17119(17)
O8 O -0.0659(3) -0.03943(16) 0.1900(2)
O9 O 0.1257(4) -0.12009(15) 0.26127(18)
O10 O 0.3738(3) -0.10779(17) 0.25107(17)
O11 O 0.4593(4) -0.00348(17) 0.22716(18)
O12 O 0.2651(4) 0.07868(16) 0.16814(19)
C13 C -0.1533(5) 0.0072(3) 0.1793(3)
H25 H -0.1411 0.0240 0.2217
H26 H -0.2453 -0.0052 0.1571
C14 C 0.1855(7) 0.1265(2) 0.1722(3)
H27 H 0.2057 0.1351 0.2186
H28 H 0.2065 0.1595 0.1520
C15 C -0.0966(7) -0.0838(3) 0.2246(4)
H29 H -0.1908 -0.0931 0.2028
H30 H -0.0772 -0.0723 0.2701
C16 C 0.0468(7) 0.1127(3) 0.1378(3)
H31 H -0.0072 0.1456 0.1360
H32 H 0.0284 0.1015 0.0923
C17 C -0.0145(7) -0.1338(3) 0.2248(4)
H33 H -0.0383 -0.1655 0.2459
H34 H -0.0314 -0.1443 0.1793
C18 C 0.3995(7) 0.0909(3) 0.1900(4)
H35 H 0.4341 0.1038 0.2359
H36 H 0.4121 0.1208 0.1628
C19 C -0.1230(5) 0.0493(3) 0.1372(3)
H37 H -0.1357 0.0325 0.0946
H38 H -0.1832 0.0812 0.1286
C20 C 0.5298(5) -0.0544(3) 0.2272(3)
H39 H 0.6241 -0.0462 0.2412
H40 H 0.4964 -0.0698 0.1823
C21 C 0.2050(7) -0.1666(2) 0.2594(3)
H41 H 0.1808 -0.1780 0.2135
H42 H 0.1886 -0.1981 0.2833
C22 C 0.5128(6) -0.0958(3) 0.2723(3)
H43 H 0.5609 -0.1301 0.2720
H44 H 0.5486 -0.0810 0.3175
C23 C 0.4750(7) 0.0384(3) 0.1851(4)
H45 H 0.4400 0.0250 0.1393
H46 H 0.5691 0.0471 0.1989
C24 C 0.3494(6) -0.1511(3) 0.2906(3)
H47 H 0.3729 -0.1376 0.3358
H48 H 0.4038 -0.1840 0.2927
O13 O 0.1441(6) -0.3328(4) 0.2941(3)
O14 O 0.3404(6) -0.3307(4) 0.3027(3)
N1 N 0.2237(7) -0.3265(2) 0.2699(3)
N2 N 0.0424(3) -0.22564(16) 0.01528(18)
H49 H -0.0395 -0.2373 -0.0109
H50 H 0.0979 -0.2335 -0.0041
H51 H 0.0414 -0.1886 0.0216
C25 C 0.1746(5) -0.3037(2) 0.2016(3)
C26 C -0.0020(5) -0.2684(2) 0.1056(3)
H52 H -0.0920 -0.2601 0.0817
C27 C 0.2208(5) -0.2657(2) 0.1142(3)
H53 H 0.2811 -0.2561 0.0958
C28 C 0.2659(5) -0.2912(2) 0.1761(3)
H54 H 0.3560 -0.2995 0.1997
C29 C 0.0384(5) -0.2945(2) 0.1664(3)
H55 H -0.0229 -0.3056 0.1835
C30 C 0.0877(4) -0.25453(18) 0.0797(2)
O15 O -0.5047(8) -0.3920(4) -0.0361(4)
O16 O -0.3202(8) -0.3984(4) -0.0319(4)
N3 N -0.3954(11) -0.4062(5) -0.0071(5)
N4 N -0.2192(3) -0.50640(16) 0.24705(17)
H56 H -0.1970 -0.5423 0.2452
H57 H -0.2843 -0.5046 0.2615
H58 H -0.1482 -0.4875 0.2750
C31 C -0.2652(5) -0.4814(2) 0.1805(2)
C32 C -0.3496(7) -0.4335(3) 0.0585(3)
C33 C -0.3967(7) -0.4686(3) 0.1464(3)
H59 H -0.4584 -0.4780 0.1639
C34 C -0.1795(7) -0.4709(4) 0.1521(4)
H60 H -0.0891 -0.4787 0.1756
C35 C -0.2225(8) -0.4493(4) 0.0904(4)
H61 H -0.1636 -0.4453 0.0698
C36 C -0.4381(8) -0.4414(4) 0.0853(4)
H62 H -0.5257 -0.4288 0.0635
P1 P 0.5000 -0.5000 0.5000
F1 F 0.3679(5) -0.4941(2) 0.5081(4)
F2 F 0.5741(5) -0.4601(3) 0.5586(3)
F3 F 0.5472(7) -0.5541(3) 0.5492(4)
F1B F 0.6321(5) -0.5059(2) 0.4919(4)
F2B F 0.4259(5) -0.5399(3) 0.4414(3)
F3B F 0.4528(7) -0.4459(3) 0.4508(4)
P2 P -0.34568(17) -0.25074(9) 0.17155(10)
F4 F -0.4069(8) -0.2516(7) 0.2207(4)
F5 F -0.4660(8) -0.2842(5) 0.1293(6)
F6 F -0.2061(6) -0.2679(4) 0.2244(4)
F7 F -0.2967(17) -0.2427(8) 0.1165(7)
F8 F -0.3523(8) -0.1843(4) 0.1597(7)
F9 F -0.305(2) -0.2983(8) 0.1277(10)
O17 O 0.1602(4) -0.0313(2) 0.5974(2)
H63 H 0.2268 -0.0428 0.6288
C37 C 0.1031(17) 0.0140(6) 0.6190(8)
H64 H 0.0092 0.0074 0.6053
H65 H 0.1158 0.0486 0.5994
H66 H 0.1455 0.0169 0.6668
loop_
_geom_bond_atom_site_label_1
_geom_bond_atom_site_label_2
_geom_bond_site_symmetry_1
_geom_bond_site_symmetry_2
O1 C7 1_555 1_555
O2 C4 1_555 1_555
O3 C5 1_555 1_555
O4 C1 1_555 1_555
O5 C2 1_555 1_555
O6 C3 1_555 1_555
C1 H1 1_555 1_555
H2 C1 1_555 1_555
C2 H3 1_555 1_555
H4 C2 1_555 1_555
C3 C2 1_555 1_555
H5 C3 1_555 1_555
H6 C3 1_555 1_555
C4 H7 1_555 1_555
H8 C4 1_555 1_555
C5 H9 1_555 1_555
H10 C5 1_555 1_555
C6 O5 1_555 1_555
H11 C6 1_555 1_555
H12 C6 1_555 1_555
C7 C4 1_555 1_555
H13 C7 1_555 1_555
H14 C7 1_555 1_555
C8 O6 1_555 1_555
H15 C8 1_555 1_555
H16 C8 1_555 1_555
C9 O1 1_555 1_555
H17 C9 1_555 1_555
H18 C9 1_555 1_555
C10 O4 1_555 1_555
H19 C10 1_555 1_555
H20 C10 1_555 1_555
C11 O2 1_555 1_555
H21 C11 1_555 1_555
H22 C11 1_555 1_555
C12 O3 1_555 1_555
H23 C12 1_555 1_555
H24 C12 1_555 1_555
O7 C16 1_555 1_555
O8 C13 1_555 1_555
O9 C17 1_555 1_555
O10 C22 1_555 1_555
O11 C20 1_555 1_555
O12 C14 1_555 1_555
C13 H25 1_555 1_555
H26 C13 1_555 1_555
C14 H27 1_555 1_555
H28 C14 1_555 1_555
C15 O8 1_555 1_555
H29 C15 1_555 1_555
H30 C15 1_555 1_555
C16 C14 1_555 1_555
H31 C16 1_555 1_555
H32 C16 1_555 1_555
C17 C15 1_555 1_555
H33 C17 1_555 1_555
H34 C17 1_555 1_555
C18 O12 1_555 1_555
H35 C18 1_555 1_555
H36 C18 1_555 1_555
C19 O7 1_555 1_555
H37 C19 1_555 1_555
H38 C19 1_555 1_555
C20 H39 1_555 1_555
H40 C20 1_555 1_555
C21 O9 1_555 1_555
H41 C21 1_555 1_555
H42 C21 1_555 1_555
C22 C20 1_555 1_555
H43 C22 1_555 1_555
H44 C22 1_555 1_555
C23 O11 1_555 1_555
H45 C23 1_555 1_555
H46 C23 1_555 1_555
C24 O10 1_555 1_555
H47 C24 1_555 1_555
H48 C24 1_555 1_555
O13 N1 1_555 1_555
O14 N1 1_555 1_555
N1 C25 1_555 1_555
N2 H49 1_555 1_555
H50 N2 1_555 1_555
H51 N2 1_555 1_555
C25 C28 1_555 1_555
C26 H52 1_555 1_555
C27 H53 1_555 1_555
C28 C27 1_555 1_555
H54 C28 1_555 1_555
C29 C25 1_555 1_555
H55 C29 1_555 1_555
C30 N2 1_555 1_555
O15 N3 1_555 1_555
O16 N3 1_555 1_555
N3 C32 1_555 1_555
N4 H56 1_555 1_555
H57 N4 1_555 1_555
H58 N4 1_555 1_555
C31 N4 1_555 1_555
C32 C35 1_555 1_555
C33 C31 1_555 1_555
H59 C33 1_555 1_555
C34 C31 1_555 1_555
H60 C34 1_555 1_555
C35 C34 1_555 1_555
H61 C35 1_555 1_555
C36 C32 1_555 1_555
H62 C36 1_555 1_555
P1 F1 1_555 1_555
F2 P1 1_555 1_555
F3 P1 1_555 1_555
P2 F4 1_555 1_555
F5 P2 1_555 1_555
F6 P2 1_555 1_555
F7 P2 1_555 1_555
F8 P2 1_555 1_555
F9 P2 1_555 1_555
O17 H63 1_555 1_555
C37 O17 1_555 1_555
H64 C37 1_555 1_555
H65 C37 1_555 1_555
H66 C37 1_555 1_555
F1B P1 1_555 1_555
F2B P1 1_555 1_555
F3B P1 1_555 1_555
C1 C9 1_555 1_555
C5 C11 1_555 1_555
C6 C10 1_555 1_555
C8 C12 1_555 1_555
C13 C19 1_555 1_555
C18 C23 1_555 1_555
C21 C24 1_555 1_555
C26 C29 1_555 1_555
C26 C30 1_555 1_555
C27 C30 1_555 1_555
C33 C36 1_555 1_555

#END
