
#######################################################################
#
#                 Cambridge Crystallographic Data Centre
#                                CCDC 
#
#######################################################################
#
# If this CIF has been generated from an entry in the Cambridge 
# Structural Database, then it will include bibliographic, chemical, 
# crystal, experimental, refinement or atomic coordinate data resulting 
# from the CCDC's data processing and validation procedures.
#
#######################################################################

data_LIFRAW
_chemical_name_common            
3-ethyl-4-hydroxy-6-(3-hydroxybutan-2-yl)-2H-pyran-2-one
_chemical_formula_moiety         'C11 H16 O4'
_chemical_name_systematic        
4-hydroxy-6-((2S,3R)-3-hydroxybutan-2-yl)-3-ethyl-2H-pyran-2-one
_symmetry_cell_setting           monoclinic
_symmetry_space_group_name_H-M   'P 21'
_symmetry_Int_Tables_number      4
_space_group_name_Hall           'P 2yb'
loop_
_symmetry_equiv_pos_site_id
_symmetry_equiv_pos_as_xyz
1 x,y,z
2 -x,1/2+y,-z
_cell_length_a                   14.7249(5)
_cell_length_b                   10.7533(6)
_cell_length_c                   15.1127(5)
_cell_angle_alpha                90
_cell_angle_beta                 90.1530(10)
_cell_angle_gamma                90
_cell_volume                     2392.96
_chemical_melting_point          '389 K'
_cell_formula_units_Z            8
_exptl_crystal_recrystallization_method 
'Re-crystallisation from solvent: Methanol'
loop_
_atom_site_label
_atom_site_type_symbol
_atom_site_fract_x
_atom_site_fract_y
_atom_site_fract_z
O1 O 0.42643(16) 0.3069(3) 0.71307(16)
O2 O 0.56178(17) 0.3541(4) 0.66205(17)
O3 O 0.31571(19) 0.3554(4) 0.46960(17)
H1 H 0.2672 0.3181 0.4668
O4 O 0.24770(17) 0.3123(4) 0.93389(17)
H2 H 0.2831 0.2916 0.9732
C1 C 0.4819(2) 0.3436(4) 0.6441(2)
C2 C 0.4419(2) 0.3625(4) 0.5600(2)
C3 C 0.3515(2) 0.3413(4) 0.5499(2)
C4 C 0.2971(2) 0.3026(4) 0.6227(2)
H3 H 0.2352 0.2887 0.6151
C5 C 0.3361(2) 0.2863(4) 0.7027(2)
C6 C 0.2915(2) 0.2466(4) 0.7865(2)
H4 H 0.2270 0.2338 0.7734
C7 C 0.2978(2) 0.3503(5) 0.8575(2)
H5 H 0.3616 0.3623 0.8741
C8 C 0.2595(4) 0.4717(5) 0.8257(3)
H6 H 0.2607 0.5311 0.8731
H7 H 0.1979 0.4596 0.8065
H8 H 0.2952 0.5020 0.7773
C9 C 0.5023(3) 0.4023(5) 0.4845(3)
H9 H 0.5641 0.3772 0.4979
H10 H 0.4835 0.3582 0.4315
C10 C 0.5017(6) 0.5369(8) 0.4656(5)
H11 H 0.5167 0.5820 0.5185
H12 H 0.4424 0.5613 0.4455
H13 H 0.5456 0.5551 0.4205
C11 C 0.3292(4) 0.1232(5) 0.8198(3)
H14 H 0.3924 0.1327 0.8342
H15 H 0.3225 0.0611 0.7746
H16 H 0.2965 0.0979 0.8717
O5 O 1.01366(17) 0.8655(3) 0.77505(14)
O6 O 1.15520(17) 0.8795(4) 0.82098(18)
O7 O 0.92187(19) 0.8724(4) 1.02850(17)
H17 H 0.8662 0.8705 1.0286
O8 O 0.85131(19) 0.7805(4) 0.55920(17)
H18 H 0.8815 0.7971 0.5152
C12 C 1.0760(2) 0.8755(4) 0.8435(2)
C13 C 1.0429(2) 0.8778(4) 0.9314(2)
C14 C 0.9519(2) 0.8679(4) 0.9450(2)
C15 C 0.8905(2) 0.8543(4) 0.8729(2)
H19 H 0.8287 0.8440 0.8830
C16 C 0.9228(2) 0.8563(4) 0.7904(2)
C17 C 0.8675(2) 0.8576(4) 0.7059(2)
H20 H 0.8078 0.8226 0.7198
C18 C 0.9092(3) 0.7766(5) 0.6350(2)
H21 H 0.9686 0.8107 0.6190
C19 C 0.9213(5) 0.6432(5) 0.6639(4)
H22 H 0.9412 0.5942 0.6146
H23 H 0.8646 0.6115 0.6853
H24 H 0.9660 0.6393 0.7103
C20 C 1.1104(3) 0.8951(5) 1.0054(2)
H25 H 1.1697 0.8690 0.9848
H26 H 1.0935 0.8411 1.0541
C21 C 1.1172(5) 1.0271(7) 1.0393(4)
H27 H 1.0589 1.0538 1.0602
H28 H 1.1367 1.0808 0.9923
H29 H 1.1604 1.0304 1.0870
C22 C 0.8525(5) 0.9892(5) 0.6751(4)
H30 H 0.8125 0.9892 0.6249
H31 H 0.9096 1.0255 0.6588
H32 H 0.8259 1.0369 0.7221
O9 O 0.92098(16) 0.3296(3) 0.53508(17)
O10 O 1.06026(19) 0.3111(5) 0.58719(18)
O11 O 0.81928(19) 0.3130(4) 0.78411(18)
H33 H 0.7637 0.3089 0.7818
O12 O 0.75411(18) 0.2825(4) 0.31216(18)
H34 H 0.7856 0.3247 0.2791
C23 C 0.9798(2) 0.3181(4) 0.6056(2)
C24 C 0.9437(2) 0.3166(4) 0.6919(2)
C25 C 0.8528(2) 0.3181(4) 0.7021(2)
C26 C 0.7928(2) 0.3282(4) 0.6267(2)
H35 H 0.7302 0.3294 0.6341
C27 C 0.8293(2) 0.3356(4) 0.5464(2)
C28 C 0.7816(3) 0.3577(5) 0.4603(2)
H36 H 0.7162 0.3550 0.4717
C29 C 0.8027(3) 0.2585(5) 0.3923(2)
H37 H 0.8680 0.2589 0.3800
C30 C 0.7748(6) 0.1301(6) 0.4231(4)
H38 H 0.7828 0.0717 0.3756
H39 H 0.7122 0.1313 0.4405
H40 H 0.8118 0.1058 0.4725
C31 C 1.0097(2) 0.3104(4) 0.7680(2)
H41 H 1.0663 0.3492 0.7505
H42 H 0.9853 0.3573 0.8174
C32 C 1.0285(3) 0.1800(5) 0.7976(3)
H43 H 1.0553 0.1341 0.7499
H44 H 0.9727 0.1409 0.8149
H45 H 1.0696 0.1815 0.8470
C33 C 0.8040(5) 0.4863(5) 0.4248(4)
H46 H 0.8680 0.4920 0.4138
H47 H 0.7868 0.5480 0.4675
H48 H 0.7713 0.5001 0.3707
O13 O 0.48492(16) 0.2448(3) 0.03012(14)
O14 O 0.34323(17) 0.2595(3) 0.07735(17)
O15 O 0.5801(2) 0.2908(4) 0.27933(18)
H49 H 0.6358 0.2878 0.2796
O16 O 0.64567(18) 0.2873(4) -0.19180(17)
H50 H 0.6124 0.2893 -0.2354
C34 C 0.4231(2) 0.2608(4) 0.0980(2)
C35 C 0.4578(2) 0.2750(4) 0.1849(3)
C36 C 0.5496(3) 0.2774(4) 0.1965(3)
C37 C 0.6101(3) 0.2666(4) 0.1230(2)
H51 H 0.6725 0.2722 0.1314
C38 C 0.5763(2) 0.2487(4) 0.0435(2)
C39 C 0.6270(2) 0.2272(4) -0.0412(2)
H52 H 0.6909 0.2480 -0.0304
C40 C 0.5932(2) 0.3109(4) -0.1138(2)
H53 H 0.5300 0.2886 -0.1265
C41 C 0.5960(5) 0.4465(5) -0.0894(3)
H54 H 0.5738 0.4953 -0.1380
H55 H 0.6575 0.4701 -0.0763
H56 H 0.5587 0.4604 -0.0384
C42 C 0.3902(3) 0.2849(5) 0.2596(3)
H57 H 0.4179 0.3301 0.3082
H58 H 0.3380 0.3322 0.2395
C43 C 0.3594(5) 0.1625(7) 0.2917(4)
H59 H 0.4111 0.1111 0.3042
H60 H 0.3225 0.1234 0.2472
H61 H 0.3244 0.1732 0.3447
C44 C 0.6229(4) 0.0884(5) -0.0683(3)
H62 H 0.6640 0.0738 -0.1163
H63 H 0.5622 0.0679 -0.0865
H64 H 0.6399 0.0376 -0.0187
loop_
_geom_bond_atom_site_label_1
_geom_bond_atom_site_label_2
_geom_bond_site_symmetry_1
_geom_bond_site_symmetry_2
O1 C1 1_555 1_555
O2 C1 1_555 1_555
O3 H1 1_555 1_555
O4 H2 1_555 1_555
C1 C2 1_555 1_555
C2 C3 1_555 1_555
C3 O3 1_555 1_555
C4 C3 1_555 1_555
H3 C4 1_555 1_555
C5 O1 1_555 1_555
C6 C5 1_555 1_555
H4 C6 1_555 1_555
C7 O4 1_555 1_555
H5 C7 1_555 1_555
C8 C7 1_555 1_555
H6 C8 1_555 1_555
H7 C8 1_555 1_555
H8 C8 1_555 1_555
C9 C2 1_555 1_555
H9 C9 1_555 1_555
H10 C9 1_555 1_555
C10 C9 1_555 1_555
H11 C10 1_555 1_555
H12 C10 1_555 1_555
H13 C10 1_555 1_555
C11 C6 1_555 1_555
H14 C11 1_555 1_555
H15 C11 1_555 1_555
H16 C11 1_555 1_555
O5 C12 1_555 1_555
O6 C12 1_555 1_555
O7 H17 1_555 1_555
O8 H18 1_555 1_555
C12 C13 1_555 1_555
C13 C14 1_555 1_555
C14 O7 1_555 1_555
C15 C14 1_555 1_555
H19 C15 1_555 1_555
C16 O5 1_555 1_555
C17 C16 1_555 1_555
H20 C17 1_555 1_555
C18 O8 1_555 1_555
H21 C18 1_555 1_555
C19 C18 1_555 1_555
H22 C19 1_555 1_555
H23 C19 1_555 1_555
H24 C19 1_555 1_555
C20 C13 1_555 1_555
H25 C20 1_555 1_555
H26 C20 1_555 1_555
C21 C20 1_555 1_555
H27 C21 1_555 1_555
H28 C21 1_555 1_555
H29 C21 1_555 1_555
C22 C17 1_555 1_555
H30 C22 1_555 1_555
H31 C22 1_555 1_555
H32 C22 1_555 1_555
O9 C23 1_555 1_555
O10 C23 1_555 1_555
O11 H33 1_555 1_555
O12 H34 1_555 1_555
C23 C24 1_555 1_555
C24 C25 1_555 1_555
C25 O11 1_555 1_555
C26 C25 1_555 1_555
H35 C26 1_555 1_555
C27 O9 1_555 1_555
C28 C27 1_555 1_555
H36 C28 1_555 1_555
C29 O12 1_555 1_555
H37 C29 1_555 1_555
C30 C29 1_555 1_555
H38 C30 1_555 1_555
H39 C30 1_555 1_555
H40 C30 1_555 1_555
C31 C24 1_555 1_555
H41 C31 1_555 1_555
H42 C31 1_555 1_555
C32 C31 1_555 1_555
H43 C32 1_555 1_555
H44 C32 1_555 1_555
H45 C32 1_555 1_555
C33 C28 1_555 1_555
H46 C33 1_555 1_555
H47 C33 1_555 1_555
H48 C33 1_555 1_555
O13 C34 1_555 1_555
O14 C34 1_555 1_555
O15 H49 1_555 1_555
O16 H50 1_555 1_555
C34 C35 1_555 1_555
C35 C36 1_555 1_555
C36 O15 1_555 1_555
C37 C36 1_555 1_555
H51 C37 1_555 1_555
C38 O13 1_555 1_555
C39 C38 1_555 1_555
H52 C39 1_555 1_555
C40 O16 1_555 1_555
H53 C40 1_555 1_555
C41 C40 1_555 1_555
H54 C41 1_555 1_555
H55 C41 1_555 1_555
H56 C41 1_555 1_555
C42 C35 1_555 1_555
H57 C42 1_555 1_555
H58 C42 1_555 1_555
C43 C42 1_555 1_555
H59 C43 1_555 1_555
H60 C43 1_555 1_555
H61 C43 1_555 1_555
C44 C39 1_555 1_555
H62 C44 1_555 1_555
H63 C44 1_555 1_555
H64 C44 1_555 1_555
C4 C5 1_555 1_555
C6 C7 1_555 1_555
C15 C16 1_555 1_555
C17 C18 1_555 1_555
C26 C27 1_555 1_555
C28 C29 1_555 1_555
C37 C38 1_555 1_555
C39 C40 1_555 1_555

#END
