
#######################################################################
#
#                 Cambridge Crystallographic Data Centre
#                                CCDC 
#
#######################################################################
#
# If this CIF has been generated from an entry in the Cambridge 
# Structural Database, then it will include bibliographic, chemical, 
# crystal, experimental, refinement or atomic coordinate data resulting 
# from the CCDC's data processing and validation procedures.
#
#######################################################################

data_LIFVOO
_chemical_formula_moiety         'C30 H26 N4 O3'
_chemical_name_systematic        
3-azido-1-(benzyloxy)-4-[(triphenylmethoxy)methyl]azetidin-2-one
_symmetry_cell_setting           monoclinic
_symmetry_space_group_name_H-M   'P 21'
_symmetry_Int_Tables_number      4
_space_group_name_Hall           'P 2yb'
loop_
_symmetry_equiv_pos_site_id
_symmetry_equiv_pos_as_xyz
1 x,y,z
2 -x,1/2+y,-z
_cell_length_a                   9.0322(3)
_cell_length_b                   15.2704(5)
_cell_length_c                   9.3980(3)
_cell_angle_alpha                90
_cell_angle_beta                 100.166(2)
_cell_angle_gamma                90
_cell_volume                     1275.87
_exptl_crystal_colour            colorless
_exptl_crystal_description       block
_cell_formula_units_Z            2
loop_
_atom_site_label
_atom_site_type_symbol
_atom_site_fract_x
_atom_site_fract_y
_atom_site_fract_z
O1 O 0.29682(14) 0.44713(8) 0.35857(13)
O2 O 0.32189(14) 0.49854(10) 0.69815(15)
O3 O 0.05451(18) 0.61506(10) 0.74822(16)
N1 N 0.18411(18) 0.52030(12) 0.61570(18)
N2 N -0.1293(2) 0.66762(13) 0.4505(2)
N3 N -0.0837(2) 0.59989(14) 0.4036(2)
C1 C 0.0687(2) 0.56628(13) 0.6517(2)
C2 C 0.26919(19) 0.38554(11) 0.1147(2)
C3 C 0.2905(2) 0.38709(12) -0.0287(2)
H1 H 0.3607 0.4268 -0.0574
C4 C 0.1708(2) 0.32382(12) 0.1549(2)
H2 H 0.1577 0.3205 0.2529
C5 C 0.38413(19) 0.53875(12) 0.1812(2)
C6 C 0.2902(2) 0.57849(12) 0.0662(2)
H3 H 0.2133 0.5450 0.0089
C7 C 0.36373(19) 0.44422(12) 0.22912(19)
C8 C 0.2097(2) 0.33109(13) -0.1293(2)
H4 H 0.2231 0.3338 -0.2273
C9 C 0.1620(2) 0.49671(13) 0.3476(2)
H5 H 0.0886 0.4786 0.2615
H6 H 0.1830 0.5600 0.3398
C10 C 0.1099(2) 0.27124(13) -0.0894(2)
H7 H 0.0545 0.2333 -0.1594
C11 C 0.4920(2) 0.59054(14) 0.2664(2)
H8 H 0.5565 0.5651 0.3465
N4 N -0.1754(3) 0.73319(15) 0.4787(3)
C12 C 0.5317(2) 0.33661(13) 0.3889(2)
H9 H 0.4518 0.3269 0.4406
C13 C 0.4155(3) 0.71653(14) 0.1187(3)
H10 H 0.4274 0.7765 0.0965
C14 C 0.5138(2) 0.39620(12) 0.2759(2)
C15 C 0.6310(2) 0.40750(15) 0.1993(2)
H11 H 0.6197 0.4474 0.1206
C16 C 0.1016(2) 0.47790(13) 0.4840(2)
H12 H 0.0868 0.4138 0.4981
C17 C 0.3065(2) 0.66616(14) 0.0337(2)
H13 H 0.2430 0.6917 -0.0470
C18 C 0.5818(2) 0.53088(13) 0.7637(2)
C19 C -0.0345(2) 0.53288(14) 0.5135(2)
H14 H -0.1192 0.4959 0.5348
C20 C 0.0915(2) 0.26701(13) 0.0532(2)
H15 H 0.0246 0.2252 0.0819
C21 C 0.6655(3) 0.29109(14) 0.4268(3)
H16 H 0.6773 0.2510 0.5052
C22 C 0.6591(3) 0.57581(14) 0.8810(3)
H17 H 0.6187 0.6284 0.9123
C23 C 0.7637(2) 0.36110(16) 0.2367(3)
H18 H 0.8425 0.3690 0.1831
C24 C 0.8553(2) 0.46780(15) 0.9096(3)
H19 H 0.9492 0.4465 0.9591
C25 C 0.4343(2) 0.56412(15) 0.6816(2)
H20 H 0.4085 0.6211 0.7212
H21 H 0.4402 0.5720 0.5782
C26 C 0.6422(3) 0.45428(16) 0.7207(3)
H22 H 0.5899 0.4230 0.6398
C27 C 0.5067(3) 0.67847(15) 0.2360(3)
H23 H 0.5800 0.7129 0.2962
C28 C 0.7777(3) 0.42259(16) 0.7937(3)
H24 H 0.8174 0.3694 0.7637
C29 C 0.7963(3) 0.54399(16) 0.9536(3)
H25 H 0.8496 0.5752 1.0341
C30 C 0.7821(2) 0.30355(15) 0.3513(3)
H26 H 0.8740 0.2727 0.3782
loop_
_geom_bond_atom_site_label_1
_geom_bond_atom_site_label_2
_geom_bond_site_symmetry_1
_geom_bond_site_symmetry_2
O1 C7 1_555 1_555
O2 N1 1_555 1_555
O3 C1 1_555 1_555
N1 C1 1_555 1_555
N2 N3 1_555 1_555
N3 C19 1_555 1_555
C1 C19 1_555 1_555
C2 C3 1_555 1_555
C3 H1 1_555 1_555
C4 C2 1_555 1_555
H2 C4 1_555 1_555
C5 C6 1_555 1_555
C6 H3 1_555 1_555
C7 C2 1_555 1_555
C8 C3 1_555 1_555
H4 C8 1_555 1_555
C9 O1 1_555 1_555
H5 C9 1_555 1_555
H6 C9 1_555 1_555
C10 C8 1_555 1_555
H7 C10 1_555 1_555
C11 C5 1_555 1_555
H8 C11 1_555 1_555
N4 N2 1_555 1_555
C12 H9 1_555 1_555
C13 H10 1_555 1_555
C14 C7 1_555 1_555
C15 C14 1_555 1_555
H11 C15 1_555 1_555
C16 N1 1_555 1_555
H12 C16 1_555 1_555
C17 C6 1_555 1_555
H13 C17 1_555 1_555
C18 C22 1_555 1_555
C19 C16 1_555 1_555
H14 C19 1_555 1_555
C20 C4 1_555 1_555
H15 C20 1_555 1_555
C21 C12 1_555 1_555
H16 C21 1_555 1_555
C22 H17 1_555 1_555
C23 C15 1_555 1_555
H18 C23 1_555 1_555
C24 H19 1_555 1_555
C25 O2 1_555 1_555
H20 C25 1_555 1_555
H21 C25 1_555 1_555
C26 C18 1_555 1_555
H22 C26 1_555 1_555
C27 C11 1_555 1_555
H23 C27 1_555 1_555
C28 C24 1_555 1_555
H24 C28 1_555 1_555
C29 C22 1_555 1_555
H25 C29 1_555 1_555
C30 C21 1_555 1_555
H26 C30 1_555 1_555
C5 C7 1_555 1_555
C9 C16 1_555 1_555
C10 C20 1_555 1_555
C12 C14 1_555 1_555
C13 C17 1_555 1_555
C13 C27 1_555 1_555
C18 C25 1_555 1_555
C23 C30 1_555 1_555
C24 C29 1_555 1_555
C26 C28 1_555 1_555

#END
