
#######################################################################
#
#                 Cambridge Crystallographic Data Centre
#                                CCDC 
#
#######################################################################
#
# If this CIF has been generated from an entry in the Cambridge 
# Structural Database, then it will include bibliographic, chemical, 
# crystal, experimental, refinement or atomic coordinate data resulting 
# from the CCDC's data processing and validation procedures.
#
#######################################################################

data_LIFXAB
_chemical_compound_source        
'alkalophilic actinomycete Nocardiopsis sp. YIM DT266'
_chemical_name_common            'Griseusin F'
_chemical_formula_moiety         'C23 H24 O10'
_chemical_name_systematic        
3',4',7-Trihydroxy-6'-methyl-11a-(2-oxopropyl)-3',3a,4',5',5a,6',11a,11b-octahydrospiro[benzo[g]furo[3,2-c]isochromene-5,2'-pyran]-2,6,11(3H)-trione
_chemical_properties_biological  'cytotoxic and antibacterial activity'
_symmetry_cell_setting           orthorhombic
_symmetry_space_group_name_H-M   'P 21 21 21'
_symmetry_Int_Tables_number      19
_space_group_name_Hall           'P 2ac 2ab'
loop_
_symmetry_equiv_pos_site_id
_symmetry_equiv_pos_as_xyz
1 x,y,z
2 1/2-x,-y,1/2+z
3 -x,1/2+y,1/2-z
4 1/2+x,1/2-y,-z
_cell_length_a                   9.3981(15)
_cell_length_b                   9.5761(15)
_cell_length_c                   23.701(4)
_cell_angle_alpha                90
_cell_angle_beta                 90
_cell_angle_gamma                90
_cell_volume                     2133.02
_exptl_crystal_colour            colorless
_exptl_crystal_description       irregular
_chemical_melting_point          'above 300 deg.C'
_cell_formula_units_Z            4
loop_
_atom_site_label
_atom_site_type_symbol
_atom_site_fract_x
_atom_site_fract_y
_atom_site_fract_z
C1 C 0.9318(3) 0.3759(3) 0.92503(12)
C2 C 1.1444(3) 0.5216(3) 0.94034(13)
H1 H 1.1311 0.5114 0.9790
C3 C 1.0562(3) 0.4546(3) 0.90283(12)
C4 C 1.2538(3) 0.6051(4) 0.91971(15)
H2 H 1.3130 0.6513 0.9450
C5 C 1.2759(3) 0.6204(3) 0.86313(15)
H3 H 1.3464 0.6806 0.8502
C6 C 1.1930(3) 0.5459(3) 0.82459(14)
C7 C 0.9816(3) 0.3978(3) 0.80415(11)
C8 C 1.0800(3) 0.4633(3) 0.84420(12)
C9 C 0.8415(3) 0.3409(2) 0.82625(10)
H4 H 0.8091 0.2686 0.8000
C10 C 0.8584(3) 0.2720(2) 0.88517(10)
C11 C 0.9566(3) 0.1421(3) 0.87726(11)
H5 H 0.9093 0.0784 0.8516
H6 H 1.0431 0.1732 0.8588
C12 C 0.9985(3) 0.0611(3) 0.92878(14)
C13 C 0.7145(3) 0.2356(3) 0.91024(11)
H7 H 0.7265 0.2212 0.9509
C14 C 0.5143(3) 0.1080(3) 0.88747(11)
C15 C 0.4636(3) 0.2490(3) 0.90587(11)
H8 H 0.4285 0.2464 0.9443
H9 H 0.3886 0.2829 0.8813
C16 C 0.7269(3) 0.4562(2) 0.82776(11)
C17 C 0.6990(3) 0.5254(2) 0.77051(10)
H10 H 0.7907 0.5523 0.7541
C18 C 0.6089(3) 0.6559(2) 0.77692(11)
H11 H 0.5120 0.6296 0.7880
C19 C 0.6717(3) 0.7511(3) 0.82117(12)
H12 H 0.6104 0.8316 0.8263
H13 H 0.7641 0.7841 0.8087
C20 C 0.6875(3) 0.6745(2) 0.87664(11)
H14 H 0.5937 0.6441 0.8899
C21 C 0.7603(4) 0.7577(3) 0.92247(12)
H15 H 0.8536 0.7845 0.9100
H16 H 0.7682 0.7016 0.9559
H17 H 0.7055 0.8398 0.9306
C22 C 0.5954(3) 0.3403(2) 0.90136(10)
H18 H 0.5963 0.4138 0.9301
C23 C 1.1146(3) -0.0440(4) 0.91966(18)
H19 H 1.1142 -0.1103 0.9500
H20 H 1.2048 0.0028 0.9185
H21 H 1.0989 -0.0918 0.8846
O1 O 0.8926(2) 0.39143(19) 0.97365(8)
O2 O 0.77761(17) 0.55325(16) 0.86744(7)
O3 O 0.59522(17) 0.39717(17) 0.84515(6)
O4 O 0.6596(2) 0.10594(17) 0.88548(8)
O5 O 0.4476(2) 0.00563(19) 0.87578(8)
O6 O 0.6357(2) 0.42324(17) 0.73496(8)
H22 H 0.6176 0.4582 0.7042
O7 O 0.6056(2) 0.72071(19) 0.72275(8)
H23 H 0.5433 0.7807 0.7222
O8 O 0.9411(3) 0.0745(2) 0.97397(10)
O9 O 1.0080(2) 0.3935(2) 0.75327(8)
O10 O 1.2224(2) 0.5590(2) 0.76929(9)
H24 H 1.1635 0.5154 0.7508
loop_
_geom_bond_atom_site_label_1
_geom_bond_atom_site_label_2
_geom_bond_site_symmetry_1
_geom_bond_site_symmetry_2
C1 C3 1_555 1_555
C2 H1 1_555 1_555
C3 C2 1_555 1_555
C4 C2 1_555 1_555
H2 C4 1_555 1_555
C5 C4 1_555 1_555
H3 C5 1_555 1_555
C6 C5 1_555 1_555
C7 C8 1_555 1_555
C8 C3 1_555 1_555
C9 C7 1_555 1_555
H4 C9 1_555 1_555
C10 C1 1_555 1_555
C11 C10 1_555 1_555
H5 C11 1_555 1_555
H6 C11 1_555 1_555
C12 C11 1_555 1_555
C13 C10 1_555 1_555
H7 C13 1_555 1_555
C14 C15 1_555 1_555
C15 H8 1_555 1_555
H9 C15 1_555 1_555
C16 C9 1_555 1_555
C17 C16 1_555 1_555
H10 C17 1_555 1_555
C18 C17 1_555 1_555
H11 C18 1_555 1_555
C19 C18 1_555 1_555
H12 C19 1_555 1_555
H13 C19 1_555 1_555
C20 C19 1_555 1_555
H14 C20 1_555 1_555
C21 C20 1_555 1_555
H15 C21 1_555 1_555
H16 C21 1_555 1_555
H17 C21 1_555 1_555
C22 C13 1_555 1_555
H18 C22 1_555 1_555
C23 C12 1_555 1_555
H19 C23 1_555 1_555
H20 C23 1_555 1_555
H21 C23 1_555 1_555
O1 C1 1_555 1_555
O2 C16 1_555 1_555
O3 C16 1_555 1_555
O4 C13 1_555 1_555
O5 C14 1_555 1_555
O6 C17 1_555 1_555
H22 O6 1_555 1_555
O7 C18 1_555 1_555
H23 O7 1_555 1_555
O8 C12 1_555 1_555
O9 C7 1_555 1_555
O10 C6 1_555 1_555
H24 O10 1_555 1_555
C6 C8 1_555 1_555
C9 C10 1_555 1_555
C14 O4 1_555 1_555
C15 C22 1_555 1_555
C20 O2 1_555 1_555
C22 O3 1_555 1_555

#END
