
#######################################################################
#
#                 Cambridge Crystallographic Data Centre
#                                CCDC 
#
#######################################################################
#
# If this CIF has been generated from an entry in the Cambridge 
# Structural Database, then it will include bibliographic, chemical, 
# crystal, experimental, refinement or atomic coordinate data resulting 
# from the CCDC's data processing and validation procedures.
#
#######################################################################

data_LIFXUV
_chemical_formula_moiety         'C21 H21 N2 1+,Br1 1-'
_chemical_name_systematic        
'1,3-Diallyl-2-(2-phenylvinyl)-1H-benzimidazolium bromide'
_symmetry_cell_setting           orthorhombic
_symmetry_space_group_name_H-M   'P 21 21 21'
_symmetry_Int_Tables_number      19
_space_group_name_Hall           'P 2ac 2ab'
loop_
_symmetry_equiv_pos_site_id
_symmetry_equiv_pos_as_xyz
1 x,y,z
2 1/2-x,-y,1/2+z
3 -x,1/2+y,1/2-z
4 1/2+x,1/2-y,-z
_cell_length_a                   7.6019(8)
_cell_length_b                   11.7832(13)
_cell_length_c                   20.594(2)
_cell_angle_alpha                90
_cell_angle_beta                 90
_cell_angle_gamma                90
_cell_volume                     1844.7
_cell_formula_units_Z            4
loop_
_atom_site_label
_atom_site_type_symbol
_atom_site_fract_x
_atom_site_fract_y
_atom_site_fract_z
Br1 Br 0.50619(8) 0.64889(3) 0.131080(19)
C1 C 0.4826(6) -0.0324(3) 0.14094(17)
H1 H 0.4703 -0.1088 0.1304
C2 C 1.0045(8) 0.0574(4) 0.01388(17)
H2 H 1.0079 0.0041 -0.0194
C3 C 0.8743(6) 0.0587(3) 0.05958(19)
C4 C 0.9933(7) 0.2233(3) 0.1133(2)
H3 H 0.9895 0.2777 0.1460
C5 C 0.3510(6) 0.0143(4) 0.1738(2)
H4 H 0.3658 0.0897 0.1861
C6 C 1.1212(6) 0.2226(5) 0.0691(2)
H5 H 1.2060 0.2794 0.0711
C7 C 0.8659(5) 0.1391(3) 0.10851(18)
C8 C 1.1352(6) 0.1436(5) 0.0210(2)
H6 H 1.2303 0.1459 -0.0074
N1 N 0.7207(4) 0.1140(3) 0.14624(14)
C9 C 0.6419(5) 0.0221(3) 0.11996(19)
C10 C 0.5491(10) -0.0797(6) -0.0198(3)
H7 H 0.4893 -0.0298 0.0073
C11 C 0.6875(6) -0.1084(4) 0.0263(2)
H8 H 0.7919 -0.1317 0.0027
H9 H 0.6495 -0.1719 0.0528
N2 N 0.7308(4) -0.0126(3) 0.06822(14)
C12 C -0.0375(7) -0.1796(4) 0.1772(3)
H10 H -0.0806 -0.2416 0.1542
C13 C 0.5303(6) 0.3216(4) 0.1468(2)
H11 H 0.5489 0.2850 0.1074
H12 H 0.4703 0.3903 0.1479
C14 C 0.1190(6) -0.1330(4) 0.1598(2)
H13 H 0.1823 -0.1639 0.1254
C15 C 0.6839(5) 0.1702(4) 0.20742(18)
H14 H 0.7940 0.1857 0.2295
H15 H 0.6155 0.1197 0.2347
C16 C 0.1849(5) -0.0397(4) 0.1929(2)
C17 C 0.0912(7) 0.0040(4) 0.2436(2)
H16 H 0.1335 0.0671 0.2658
C18 C 0.5864(6) 0.2779(4) 0.1988(3)
H17 H 0.5636 0.3187 0.2365
C19 C 0.4474(15) -0.0698(9) -0.0675(5)
H18 H 0.4690 -0.1103 -0.1054
H19 H 0.3504 -0.0218 -0.0650
C20 C -0.1319(7) -0.1374(5) 0.2275(3)
H20 H -0.2393 -0.1700 0.2385
C21 C -0.0692(7) -0.0461(6) 0.2626(3)
H21 H -0.1316 -0.0181 0.2980
loop_
_geom_bond_atom_site_label_1
_geom_bond_atom_site_label_2
_geom_bond_site_symmetry_1
_geom_bond_site_symmetry_2
C1 H1 1_555 1_555
C2 H2 1_555 1_555
C3 C2 1_555 1_555
C4 H3 1_555 1_555
C5 C1 1_555 1_555
H4 C5 1_555 1_555
C6 C4 1_555 1_555
H5 C6 1_555 1_555
C7 C3 1_555 1_555
C8 C2 1_555 1_555
H6 C8 1_555 1_555
N1 C7 1_555 1_555
C9 C1 1_555 1_555
C10 H7 1_555 1_555
C11 C10 1_555 1_555
H8 C11 1_555 1_555
H9 C11 1_555 1_555
N2 C3 1_555 1_555
C12 H10 1_555 1_555
C13 H11 1_555 1_555
H12 C13 1_555 1_555
C14 C12 1_555 1_555
H13 C14 1_555 1_555
C15 N1 1_555 1_555
H14 C15 1_555 1_555
H15 C15 1_555 1_555
C16 C5 1_555 1_555
C17 C16 1_555 1_555
H16 C17 1_555 1_555
C18 C13 1_555 1_555
H17 C18 1_555 1_555
C19 C10 1_555 1_555
H18 C19 1_555 1_555
H19 C19 1_555 1_555
C20 C12 1_555 1_555
H20 C20 1_555 1_555
C21 C17 1_555 1_555
H21 C21 1_555 1_555
C4 C7 1_555 1_555
C6 C8 1_555 1_555
N1 C9 1_555 1_555
C9 N2 1_555 1_555
C11 N2 1_555 1_555
C14 C16 1_555 1_555
C15 C18 1_555 1_555
C20 C21 1_555 1_555

#END
